# Generated by pormake.
# Topology lcs-e, (6)-cn, num edge types: 1
# Building blocks:
#     Node 0, Type 0, BuildingBlock: KUMBUR_clean_sbu_1, # of connection points: 6
#     Node 1, Type 0, BuildingBlock: KUMBUR_clean_sbu_1, # of connection points: 6
#     Node 2, Type 0, BuildingBlock: KUMBUR_clean_sbu_1, # of connection points: 6
#     Node 3, Type 0, BuildingBlock: KUMBUR_clean_sbu_1, # of connection points: 6
#     Node 4, Type 0, BuildingBlock: KUMBUR_clean_sbu_1, # of connection points: 6
#     Node 5, Type 0, BuildingBlock: KUMBUR_clean_sbu_1, # of connection points: 6
#     Node 6, Type 0, BuildingBlock: KUMBUR_clean_sbu_1, # of connection points: 6
#     Node 7, Type 0, BuildingBlock: KUMBUR_clean_sbu_1, # of connection points: 6
#     Node 8, Type 0, BuildingBlock: KUMBUR_clean_sbu_1, # of connection points: 6
#     Node 9, Type 0, BuildingBlock: KUMBUR_clean_sbu_1, # of connection points: 6
#     Node 10, Type 0, BuildingBlock: KUMBUR_clean_sbu_1, # of connection points: 6
#     Node 11, Type 0, BuildingBlock: KUMBUR_clean_sbu_1, # of connection points: 6
#     Node 12, Type 0, BuildingBlock: KUMBUR_clean_sbu_1, # of connection points: 6
#     Node 13, Type 0, BuildingBlock: KUMBUR_clean_sbu_1, # of connection points: 6
#     Node 14, Type 0, BuildingBlock: KUMBUR_clean_sbu_1, # of connection points: 6
#     Node 15, Type 0, BuildingBlock: KUMBUR_clean_sbu_1, # of connection points: 6
#     Node 16, Type 0, BuildingBlock: KUMBUR_clean_sbu_1, # of connection points: 6
#     Node 17, Type 0, BuildingBlock: KUMBUR_clean_sbu_1, # of connection points: 6
#     Node 18, Type 0, BuildingBlock: KUMBUR_clean_sbu_1, # of connection points: 6
#     Node 19, Type 0, BuildingBlock: KUMBUR_clean_sbu_1, # of connection points: 6
#     Node 20, Type 0, BuildingBlock: KUMBUR_clean_sbu_1, # of connection points: 6
#     Node 21, Type 0, BuildingBlock: KUMBUR_clean_sbu_1, # of connection points: 6
#     Node 22, Type 0, BuildingBlock: KUMBUR_clean_sbu_1, # of connection points: 6
#     Node 23, Type 0, BuildingBlock: KUMBUR_clean_sbu_1, # of connection points: 6
#     Node 24, Type 0, BuildingBlock: KUMBUR_clean_sbu_1, # of connection points: 6
#     Node 25, Type 0, BuildingBlock: KUMBUR_clean_sbu_1, # of connection points: 6
#     Node 26, Type 0, BuildingBlock: KUMBUR_clean_sbu_1, # of connection points: 6
#     Node 27, Type 0, BuildingBlock: KUMBUR_clean_sbu_1, # of connection points: 6
#     Node 28, Type 0, BuildingBlock: KUMBUR_clean_sbu_1, # of connection points: 6
#     Node 29, Type 0, BuildingBlock: KUMBUR_clean_sbu_1, # of connection points: 6
#     Node 30, Type 0, BuildingBlock: KUMBUR_clean_sbu_1, # of connection points: 6
#     Node 31, Type 0, BuildingBlock: KUMBUR_clean_sbu_1, # of connection points: 6
#     Node 32, Type 0, BuildingBlock: KUMBUR_clean_sbu_1, # of connection points: 6
#     Node 33, Type 0, BuildingBlock: KUMBUR_clean_sbu_1, # of connection points: 6
#     Node 34, Type 0, BuildingBlock: KUMBUR_clean_sbu_1, # of connection points: 6
#     Node 35, Type 0, BuildingBlock: KUMBUR_clean_sbu_1, # of connection points: 6
#     Node 36, Type 0, BuildingBlock: KUMBUR_clean_sbu_1, # of connection points: 6
#     Node 37, Type 0, BuildingBlock: KUMBUR_clean_sbu_1, # of connection points: 6
#     Node 38, Type 0, BuildingBlock: KUMBUR_clean_sbu_1, # of connection points: 6
#     Node 39, Type 0, BuildingBlock: KUMBUR_clean_sbu_1, # of connection points: 6
#     Node 40, Type 0, BuildingBlock: KUMBUR_clean_sbu_1, # of connection points: 6
#     Node 41, Type 0, BuildingBlock: KUMBUR_clean_sbu_1, # of connection points: 6
#     Node 42, Type 0, BuildingBlock: KUMBUR_clean_sbu_1, # of connection points: 6
#     Node 43, Type 0, BuildingBlock: KUMBUR_clean_sbu_1, # of connection points: 6
#     Node 44, Type 0, BuildingBlock: KUMBUR_clean_sbu_1, # of connection points: 6
#     Node 45, Type 0, BuildingBlock: KUMBUR_clean_sbu_1, # of connection points: 6
#     Node 46, Type 0, BuildingBlock: KUMBUR_clean_sbu_1, # of connection points: 6
#     Node 47, Type 0, BuildingBlock: KUMBUR_clean_sbu_1, # of connection points: 6
#     Edge 48, Type (0, 0), BuildingBlock: CIFDUS_clean_linker_0, # of connection points: 2
#     Edge 49, Type (0, 0), BuildingBlock: CIFDUS_clean_linker_0, # of connection points: 2
#     Edge 50, Type (0, 0), BuildingBlock: CIFDUS_clean_linker_0, # of connection points: 2
#     Edge 51, Type (0, 0), BuildingBlock: CIFDUS_clean_linker_0, # of connection points: 2
#     Edge 52, Type (0, 0), BuildingBlock: CIFDUS_clean_linker_0, # of connection points: 2
#     Edge 53, Type (0, 0), BuildingBlock: CIFDUS_clean_linker_0, # of connection points: 2
#     Edge 54, Type (0, 0), BuildingBlock: CIFDUS_clean_linker_0, # of connection points: 2
#     Edge 55, Type (0, 0), BuildingBlock: CIFDUS_clean_linker_0, # of connection points: 2
#     Edge 56, Type (0, 0), BuildingBlock: CIFDUS_clean_linker_0, # of connection points: 2
#     Edge 57, Type (0, 0), BuildingBlock: CIFDUS_clean_linker_0, # of connection points: 2
#     Edge 58, Type (0, 0), BuildingBlock: CIFDUS_clean_linker_0, # of connection points: 2
#     Edge 59, Type (0, 0), BuildingBlock: CIFDUS_clean_linker_0, # of connection points: 2
#     Edge 60, Type (0, 0), BuildingBlock: CIFDUS_clean_linker_0, # of connection points: 2
#     Edge 61, Type (0, 0), BuildingBlock: CIFDUS_clean_linker_0, # of connection points: 2
#     Edge 62, Type (0, 0), BuildingBlock: CIFDUS_clean_linker_0, # of connection points: 2
#     Edge 63, Type (0, 0), BuildingBlock: CIFDUS_clean_linker_0, # of connection points: 2
#     Edge 64, Type (0, 0), BuildingBlock: CIFDUS_clean_linker_0, # of connection points: 2
#     Edge 65, Type (0, 0), BuildingBlock: CIFDUS_clean_linker_0, # of connection points: 2
#     Edge 66, Type (0, 0), BuildingBlock: CIFDUS_clean_linker_0, # of connection points: 2
#     Edge 67, Type (0, 0), BuildingBlock: CIFDUS_clean_linker_0, # of connection points: 2
#     Edge 68, Type (0, 0), BuildingBlock: CIFDUS_clean_linker_0, # of connection points: 2
#     Edge 69, Type (0, 0), BuildingBlock: CIFDUS_clean_linker_0, # of connection points: 2
#     Edge 70, Type (0, 0), BuildingBlock: CIFDUS_clean_linker_0, # of connection points: 2
#     Edge 71, Type (0, 0), BuildingBlock: CIFDUS_clean_linker_0, # of connection points: 2
#     Edge 72, Type (0, 0), BuildingBlock: CIFDUS_clean_linker_0, # of connection points: 2
#     Edge 73, Type (0, 0), BuildingBlock: CIFDUS_clean_linker_0, # of connection points: 2
#     Edge 74, Type (0, 0), BuildingBlock: CIFDUS_clean_linker_0, # of connection points: 2
#     Edge 75, Type (0, 0), BuildingBlock: CIFDUS_clean_linker_0, # of connection points: 2
#     Edge 76, Type (0, 0), BuildingBlock: CIFDUS_clean_linker_0, # of connection points: 2
#     Edge 77, Type (0, 0), BuildingBlock: CIFDUS_clean_linker_0, # of connection points: 2
#     Edge 78, Type (0, 0), BuildingBlock: CIFDUS_clean_linker_0, # of connection points: 2
#     Edge 79, Type (0, 0), BuildingBlock: CIFDUS_clean_linker_0, # of connection points: 2
#     Edge 80, Type (0, 0), BuildingBlock: CIFDUS_clean_linker_0, # of connection points: 2
#     Edge 81, Type (0, 0), BuildingBlock: CIFDUS_clean_linker_0, # of connection points: 2
#     Edge 82, Type (0, 0), BuildingBlock: CIFDUS_clean_linker_0, # of connection points: 2
#     Edge 83, Type (0, 0), BuildingBlock: CIFDUS_clean_linker_0, # of connection points: 2
#     Edge 84, Type (0, 0), BuildingBlock: CIFDUS_clean_linker_0, # of connection points: 2
#     Edge 85, Type (0, 0), BuildingBlock: CIFDUS_clean_linker_0, # of connection points: 2
#     Edge 86, Type (0, 0), BuildingBlock: CIFDUS_clean_linker_0, # of connection points: 2
#     Edge 87, Type (0, 0), BuildingBlock: CIFDUS_clean_linker_0, # of connection points: 2
#     Edge 88, Type (0, 0), BuildingBlock: CIFDUS_clean_linker_0, # of connection points: 2
#     Edge 89, Type (0, 0), BuildingBlock: CIFDUS_clean_linker_0, # of connection points: 2
#     Edge 90, Type (0, 0), BuildingBlock: CIFDUS_clean_linker_0, # of connection points: 2
#     Edge 91, Type (0, 0), BuildingBlock: CIFDUS_clean_linker_0, # of connection points: 2
#     Edge 92, Type (0, 0), BuildingBlock: CIFDUS_clean_linker_0, # of connection points: 2
#     Edge 93, Type (0, 0), BuildingBlock: CIFDUS_clean_linker_0, # of connection points: 2
#     Edge 94, Type (0, 0), BuildingBlock: CIFDUS_clean_linker_0, # of connection points: 2
#     Edge 95, Type (0, 0), BuildingBlock: CIFDUS_clean_linker_0, # of connection points: 2
#     Edge 96, Type (0, 0), BuildingBlock: CIFDUS_clean_linker_0, # of connection points: 2
#     Edge 97, Type (0, 0), BuildingBlock: CIFDUS_clean_linker_0, # of connection points: 2
#     Edge 98, Type (0, 0), BuildingBlock: CIFDUS_clean_linker_0, # of connection points: 2
#     Edge 99, Type (0, 0), BuildingBlock: CIFDUS_clean_linker_0, # of connection points: 2
#     Edge 100, Type (0, 0), BuildingBlock: CIFDUS_clean_linker_0, # of connection points: 2
#     Edge 101, Type (0, 0), BuildingBlock: CIFDUS_clean_linker_0, # of connection points: 2
#     Edge 102, Type (0, 0), BuildingBlock: CIFDUS_clean_linker_0, # of connection points: 2
#     Edge 103, Type (0, 0), BuildingBlock: CIFDUS_clean_linker_0, # of connection points: 2
#     Edge 104, Type (0, 0), BuildingBlock: CIFDUS_clean_linker_0, # of connection points: 2
#     Edge 105, Type (0, 0), BuildingBlock: CIFDUS_clean_linker_0, # of connection points: 2
#     Edge 106, Type (0, 0), BuildingBlock: CIFDUS_clean_linker_0, # of connection points: 2
#     Edge 107, Type (0, 0), BuildingBlock: CIFDUS_clean_linker_0, # of connection points: 2
#     Edge 108, Type (0, 0), BuildingBlock: CIFDUS_clean_linker_0, # of connection points: 2
#     Edge 109, Type (0, 0), BuildingBlock: CIFDUS_clean_linker_0, # of connection points: 2
#     Edge 110, Type (0, 0), BuildingBlock: CIFDUS_clean_linker_0, # of connection points: 2
#     Edge 111, Type (0, 0), BuildingBlock: CIFDUS_clean_linker_0, # of connection points: 2
#     Edge 112, Type (0, 0), BuildingBlock: CIFDUS_clean_linker_0, # of connection points: 2
#     Edge 113, Type (0, 0), BuildingBlock: CIFDUS_clean_linker_0, # of connection points: 2
#     Edge 114, Type (0, 0), BuildingBlock: CIFDUS_clean_linker_0, # of connection points: 2
#     Edge 115, Type (0, 0), BuildingBlock: CIFDUS_clean_linker_0, # of connection points: 2
#     Edge 116, Type (0, 0), BuildingBlock: CIFDUS_clean_linker_0, # of connection points: 2
#     Edge 117, Type (0, 0), BuildingBlock: CIFDUS_clean_linker_0, # of connection points: 2
#     Edge 118, Type (0, 0), BuildingBlock: CIFDUS_clean_linker_0, # of connection points: 2
#     Edge 119, Type (0, 0), BuildingBlock: CIFDUS_clean_linker_0, # of connection points: 2
#     Edge 120, Type (0, 0), BuildingBlock: CIFDUS_clean_linker_0, # of connection points: 2
#     Edge 121, Type (0, 0), BuildingBlock: CIFDUS_clean_linker_0, # of connection points: 2
#     Edge 122, Type (0, 0), BuildingBlock: CIFDUS_clean_linker_0, # of connection points: 2
#     Edge 123, Type (0, 0), BuildingBlock: CIFDUS_clean_linker_0, # of connection points: 2
#     Edge 124, Type (0, 0), BuildingBlock: CIFDUS_clean_linker_0, # of connection points: 2
#     Edge 125, Type (0, 0), BuildingBlock: CIFDUS_clean_linker_0, # of connection points: 2
#     Edge 126, Type (0, 0), BuildingBlock: CIFDUS_clean_linker_0, # of connection points: 2
#     Edge 127, Type (0, 0), BuildingBlock: CIFDUS_clean_linker_0, # of connection points: 2
#     Edge 128, Type (0, 0), BuildingBlock: CIFDUS_clean_linker_0, # of connection points: 2
#     Edge 129, Type (0, 0), BuildingBlock: CIFDUS_clean_linker_0, # of connection points: 2
#     Edge 130, Type (0, 0), BuildingBlock: CIFDUS_clean_linker_0, # of connection points: 2
#     Edge 131, Type (0, 0), BuildingBlock: CIFDUS_clean_linker_0, # of connection points: 2
#     Edge 132, Type (0, 0), BuildingBlock: CIFDUS_clean_linker_0, # of connection points: 2
#     Edge 133, Type (0, 0), BuildingBlock: CIFDUS_clean_linker_0, # of connection points: 2
#     Edge 134, Type (0, 0), BuildingBlock: CIFDUS_clean_linker_0, # of connection points: 2
#     Edge 135, Type (0, 0), BuildingBlock: CIFDUS_clean_linker_0, # of connection points: 2
#     Edge 136, Type (0, 0), BuildingBlock: CIFDUS_clean_linker_0, # of connection points: 2
#     Edge 137, Type (0, 0), BuildingBlock: CIFDUS_clean_linker_0, # of connection points: 2
#     Edge 138, Type (0, 0), BuildingBlock: CIFDUS_clean_linker_0, # of connection points: 2
#     Edge 139, Type (0, 0), BuildingBlock: CIFDUS_clean_linker_0, # of connection points: 2
#     Edge 140, Type (0, 0), BuildingBlock: CIFDUS_clean_linker_0, # of connection points: 2
#     Edge 141, Type (0, 0), BuildingBlock: CIFDUS_clean_linker_0, # of connection points: 2
#     Edge 142, Type (0, 0), BuildingBlock: CIFDUS_clean_linker_0, # of connection points: 2
#     Edge 143, Type (0, 0), BuildingBlock: CIFDUS_clean_linker_0, # of connection points: 2
#     Edge 144, Type (0, 0), BuildingBlock: CIFDUS_clean_linker_0, # of connection points: 2
#     Edge 145, Type (0, 0), BuildingBlock: CIFDUS_clean_linker_0, # of connection points: 2
#     Edge 146, Type (0, 0), BuildingBlock: CIFDUS_clean_linker_0, # of connection points: 2
#     Edge 147, Type (0, 0), BuildingBlock: CIFDUS_clean_linker_0, # of connection points: 2
#     Edge 148, Type (0, 0), BuildingBlock: CIFDUS_clean_linker_0, # of connection points: 2
#     Edge 149, Type (0, 0), BuildingBlock: CIFDUS_clean_linker_0, # of connection points: 2
#     Edge 150, Type (0, 0), BuildingBlock: CIFDUS_clean_linker_0, # of connection points: 2
#     Edge 151, Type (0, 0), BuildingBlock: CIFDUS_clean_linker_0, # of connection points: 2
#     Edge 152, Type (0, 0), BuildingBlock: CIFDUS_clean_linker_0, # of connection points: 2
#     Edge 153, Type (0, 0), BuildingBlock: CIFDUS_clean_linker_0, # of connection points: 2
#     Edge 154, Type (0, 0), BuildingBlock: CIFDUS_clean_linker_0, # of connection points: 2
#     Edge 155, Type (0, 0), BuildingBlock: CIFDUS_clean_linker_0, # of connection points: 2
#     Edge 156, Type (0, 0), BuildingBlock: CIFDUS_clean_linker_0, # of connection points: 2
#     Edge 157, Type (0, 0), BuildingBlock: CIFDUS_clean_linker_0, # of connection points: 2
#     Edge 158, Type (0, 0), BuildingBlock: CIFDUS_clean_linker_0, # of connection points: 2
#     Edge 159, Type (0, 0), BuildingBlock: CIFDUS_clean_linker_0, # of connection points: 2
#     Edge 160, Type (0, 0), BuildingBlock: CIFDUS_clean_linker_0, # of connection points: 2
#     Edge 161, Type (0, 0), BuildingBlock: CIFDUS_clean_linker_0, # of connection points: 2
#     Edge 162, Type (0, 0), BuildingBlock: CIFDUS_clean_linker_0, # of connection points: 2
#     Edge 163, Type (0, 0), BuildingBlock: CIFDUS_clean_linker_0, # of connection points: 2
#     Edge 164, Type (0, 0), BuildingBlock: CIFDUS_clean_linker_0, # of connection points: 2
#     Edge 165, Type (0, 0), BuildingBlock: CIFDUS_clean_linker_0, # of connection points: 2
#     Edge 166, Type (0, 0), BuildingBlock: CIFDUS_clean_linker_0, # of connection points: 2
#     Edge 167, Type (0, 0), BuildingBlock: CIFDUS_clean_linker_0, # of connection points: 2
#     Edge 168, Type (0, 0), BuildingBlock: CIFDUS_clean_linker_0, # of connection points: 2
#     Edge 169, Type (0, 0), BuildingBlock: CIFDUS_clean_linker_0, # of connection points: 2
#     Edge 170, Type (0, 0), BuildingBlock: CIFDUS_clean_linker_0, # of connection points: 2
#     Edge 171, Type (0, 0), BuildingBlock: CIFDUS_clean_linker_0, # of connection points: 2
#     Edge 172, Type (0, 0), BuildingBlock: CIFDUS_clean_linker_0, # of connection points: 2
#     Edge 173, Type (0, 0), BuildingBlock: CIFDUS_clean_linker_0, # of connection points: 2
#     Edge 174, Type (0, 0), BuildingBlock: CIFDUS_clean_linker_0, # of connection points: 2
#     Edge 175, Type (0, 0), BuildingBlock: CIFDUS_clean_linker_0, # of connection points: 2
#     Edge 176, Type (0, 0), BuildingBlock: CIFDUS_clean_linker_0, # of connection points: 2
#     Edge 177, Type (0, 0), BuildingBlock: CIFDUS_clean_linker_0, # of connection points: 2
#     Edge 178, Type (0, 0), BuildingBlock: CIFDUS_clean_linker_0, # of connection points: 2
#     Edge 179, Type (0, 0), BuildingBlock: CIFDUS_clean_linker_0, # of connection points: 2
#     Edge 180, Type (0, 0), BuildingBlock: CIFDUS_clean_linker_0, # of connection points: 2
#     Edge 181, Type (0, 0), BuildingBlock: CIFDUS_clean_linker_0, # of connection points: 2
#     Edge 182, Type (0, 0), BuildingBlock: CIFDUS_clean_linker_0, # of connection points: 2
#     Edge 183, Type (0, 0), BuildingBlock: CIFDUS_clean_linker_0, # of connection points: 2
#     Edge 184, Type (0, 0), BuildingBlock: CIFDUS_clean_linker_0, # of connection points: 2
#     Edge 185, Type (0, 0), BuildingBlock: CIFDUS_clean_linker_0, # of connection points: 2
#     Edge 186, Type (0, 0), BuildingBlock: CIFDUS_clean_linker_0, # of connection points: 2
#     Edge 187, Type (0, 0), BuildingBlock: CIFDUS_clean_linker_0, # of connection points: 2
#     Edge 188, Type (0, 0), BuildingBlock: CIFDUS_clean_linker_0, # of connection points: 2
#     Edge 189, Type (0, 0), BuildingBlock: CIFDUS_clean_linker_0, # of connection points: 2
#     Edge 190, Type (0, 0), BuildingBlock: CIFDUS_clean_linker_0, # of connection points: 2
#     Edge 191, Type (0, 0), BuildingBlock: CIFDUS_clean_linker_0, # of connection points: 2
# Relax obj value: 0.328
# Max RMSD: 0.254
# Mean RMSD: 0.252
data_MOF--net-lcs-e--node1-KUMBUR_clean_sbu_1--edge1-CIFDUS_clean_linker_0
_symmetry_space_group_name_H-M    P1
_symmetry_Int_Tables_number       1
_symmetry_cell_setting            triclinic
loop_
_symmetry_equiv_pos_as_xyz
'x, y, z'
_cell_length_a     57.759894
_cell_length_b     57.807547
_cell_length_c     58.060172
_cell_angle_alpha  89.957618
_cell_angle_beta   89.748199
_cell_angle_gamma 89.840411
loop_
_atom_site_label
_atom_site_type_symbol
_atom_site_fract_x
_atom_site_fract_y
_atom_site_fract_z
_atom_type_partial_charge
Tb0 Tb 0.06553 0.39323 0.25916 0.0
C1 C 0.98196 0.43584 0.27625 0.0
N2 N 0.99365 0.43226 0.29614 0.0
C3 C 0.97708 0.46661 0.31262 0.0
C4 C 0.9673 0.45524 0.27377 0.0
C5 C 0.99124 0.44707 0.31442 0.0
C6 C 0.96501 0.47069 0.29223 0.0
C7 C 0.97284 0.42358 0.23746 0.0
C8 C 0.98506 0.4202 0.25824 0.0
C9 C 0.95813 0.44282 0.23497 0.0
C10 C 0.95542 0.45862 0.25303 0.0
Tb11 Tb 1.01511 0.39932 0.29759 0.0
N12 N 0.99961 0.40169 0.26112 0.0
C13 C 0.97547 0.40739 0.21982 0.0
C14 C 1.00147 0.38552 0.244 0.0
C15 C 0.98975 0.38827 0.22315 0.0
H16 H 1.00062 0.44394 0.33019 0.0
H17 H 0.99183 0.37558 0.20959 0.0
H18 H 0.05901 0.34492 0.22763 0.0
H19 H 0.14381 0.44422 0.26849 0.0
H20 H 1.01262 0.3709 0.24539 0.0
H21 H 0.96639 0.40938 0.20364 0.0
H22 H 0.10184 0.43848 0.26446 0.0
H23 H 0.97538 0.47842 0.32699 0.0
H24 H 0.94868 0.4456 0.21911 0.0
H25 H 0.94402 0.47338 0.25081 0.0
H26 H 0.08287 0.31134 0.21675 0.0
H27 H 0.95394 0.4858 0.29092 0.0
H28 H 0.17072 0.41115 0.26383 0.0
N29 N 0.08691 0.36342 0.24315 0.0
C30 C 0.11 0.36401 0.24654 0.0
C31 C 0.09074 0.32593 0.22535 0.0
C32 C 0.12443 0.3453 0.24026 0.0
C33 C 0.07726 0.34499 0.23178 0.0
C34 C 0.11441 0.32587 0.23002 0.0
N35 N 0.1045 0.40216 0.2585 0.0
C36 C 0.11323 0.42378 0.26257 0.0
C37 C 0.1434 0.38676 0.25645 0.0
C38 C 0.11922 0.38428 0.25451 0.0
C39 C 0.15224 0.40847 0.26219 0.0
C40 C 0.13711 0.42716 0.26478 0.0
H41 H 0.12488 0.31115 0.22493 0.0
H42 H 0.1598 0.33273 0.23927 0.0
H43 H 0.17652 0.36918 0.25347 0.0
O44 O 0.06936 0.39061 0.22366 0.0
O45 O 0.07045 0.36993 0.28805 0.0
O46 O 0.04139 0.37788 0.3147 0.0
O47 O 0.04111 0.41054 0.23805 0.0
O48 O 0.0766 0.41268 0.28923 0.0
O49 O 0.04558 0.41319 0.3154 0.0
O50 O 0.98182 0.38753 0.30694 0.0
O51 O 0.02789 0.43613 0.28883 0.0
O52 O 0.05935 0.43324 0.26416 0.0
O53 O 1.00512 0.39989 0.33257 0.0
O54 O 1.01467 0.36099 0.28684 0.0
O55 O 0.04795 0.35733 0.26545 0.0
C56 C 0.0611 0.36803 0.30863 0.0
C57 C 0.06321 0.42589 0.20607 0.0
C58 C 0.09717 0.4481 0.19339 0.0
C59 C 0.08309 0.46027 0.1779 0.0
C60 C 0.04946 0.43809 0.19038 0.0
C61 C 0.0594 0.45518 0.17635 0.0
C62 C 0.08713 0.43106 0.20729 0.0
C63 C 0.06729 0.41754 0.30943 0.0
C64 C 0.05376 0.40625 0.21962 0.0
C65 C 0.14841 0.34701 0.24363 0.0
C66 C 0.15791 0.36775 0.25172 0.0
C67 C 0.04385 0.44681 0.27569 0.0
C68 C 0.96536 0.40027 0.34245 0.0
C69 C 0.94257 0.39632 0.37756 0.0
C70 C 0.9264 0.41226 0.369 0.0
C71 C 0.94879 0.41574 0.3337 0.0
C72 C 0.9623 0.39096 0.36452 0.0
C73 C 0.92972 0.42218 0.34725 0.0
C74 C 0.02991 0.34705 0.27613 0.0
C75 C 0.98486 0.39139 0.32868 0.0
H76 H 0.09041 0.47363 0.16701 0.0
H77 H 0.03121 0.43415 0.18872 0.0
H78 H 0.04873 0.46448 0.16416 0.0
H79 H 0.09827 0.4215 0.21872 0.0
H80 H 0.91082 0.41624 0.3787 0.0
H81 H 0.95019 0.42237 0.31634 0.0
H82 H 0.97443 0.3781 0.37087 0.0
H83 H 0.91698 0.43411 0.34046 0.0
Tb84 Tb 0.90447 0.80893 0.50994 0.0
C85 C 0.87153 0.71924 0.52685 0.0
N86 N 0.8705 0.73251 0.54602 0.0
C87 C 0.83897 0.70945 0.56053 0.0
C88 C 0.85657 0.70017 0.52395 0.0
C89 C 0.85412 0.72811 0.56266 0.0
C90 C 0.84036 0.69524 0.54121 0.0
C91 C 0.88784 0.71246 0.48905 0.0
C92 C 0.88687 0.72549 0.50966 0.0
C93 C 0.87357 0.69303 0.48637 0.0
C94 C 0.85793 0.68692 0.50376 0.0
Tb95 Tb 0.89786 0.76109 0.54914 0.0
N96 N 0.90016 0.7447 0.51274 0.0
C97 C 0.90286 0.7195 0.47156 0.0
C98 C 0.91432 0.7517 0.49524 0.0
C99 C 0.916 0.73936 0.47461 0.0
H100 H 0.8522 0.73925 0.57746 0.0
H101 H 0.9273 0.74537 0.46096 0.0
H102 H 0.94497 0.78844 0.47258 0.0
H103 H 0.8832 0.8989 0.52581 0.0
H104 H 0.92371 0.7672 0.49635 0.0
H105 H 0.9041 0.71003 0.4555 0.0
H106 H 0.87369 0.85793 0.51922 0.0
H107 H 0.82614 0.70612 0.57376 0.0
H108 H 0.87422 0.68283 0.47072 0.0
H109 H 0.84671 0.67214 0.5013 0.0
H110 H 0.98397 0.80048 0.45993 0.0
H111 H 0.82855 0.68081 0.53956 0.0
H112 H 0.92341 0.91265 0.52068 0.0
N113 N 0.93948 0.81824 0.49361 0.0
C114 C 0.94656 0.84018 0.49818 0.0
C115 C 0.97378 0.81164 0.47101 0.0
C116 C 0.96852 0.84797 0.49097 0.0
C117 C 0.95173 0.80482 0.4783 0.0
C118 C 0.98254 0.83302 0.478 0.0
N119 N 0.90854 0.84816 0.51159 0.0
C120 C 0.89142 0.86351 0.51729 0.0
C121 C 0.93662 0.87902 0.51073 0.0
C122 C 0.93058 0.85565 0.50756 0.0
C123 C 0.91946 0.89454 0.51803 0.0
C124 C 0.89671 0.88684 0.52088 0.0
H125 H 0.99955 0.83834 0.47216 0.0
H126 H 0.99216 0.87701 0.49072 0.0
H127 H 0.96434 0.90413 0.50828 0.0
O128 O 0.90328 0.82661 0.47933 0.0
O129 O 0.91615 0.82292 0.54285 0.0
O130 O 0.91886 0.78909 0.56408 0.0
O131 O 0.89073 0.79122 0.48081 0.0
O132 O 0.8783 0.8199 0.53447 0.0
O133 O 0.87893 0.79176 0.56328 0.0
O134 O 0.91314 0.7323 0.56595 0.0
O135 O 0.86115 0.76807 0.53756 0.0
O136 O 0.86475 0.79764 0.5111 0.0
O137 O 0.88945 0.75453 0.5834 0.0
O138 O 0.93688 0.7595 0.54 0.0
O139 O 0.93998 0.79327 0.51991 0.0
C140 C 0.92237 0.81154 0.56143 0.0
C141 C 0.87243 0.81921 0.45521 0.0
C142 C 0.85207 0.85269 0.43919 0.0
C143 C 0.83455 0.838 0.43123 0.0
C144 C 0.85505 0.80463 0.44679 0.0
C145 C 0.83625 0.81404 0.43475 0.0
C146 C 0.87097 0.84318 0.45069 0.0
C147 C 0.87219 0.81209 0.55492 0.0
C148 C 0.89247 0.81031 0.46839 0.0
C149 C 0.97516 0.87083 0.49568 0.0
C150 C 0.95927 0.8863 0.50561 0.0
C151 C 0.85094 0.78211 0.52249 0.0
C152 C 0.92092 0.74192 0.60479 0.0
C153 C 0.95611 0.73207 0.62503 0.0
C154 C 0.95402 0.75238 0.63816 0.0
C155 C 0.91739 0.76023 0.62043 0.0
C156 C 0.9401 0.72738 0.60762 0.0
C157 C 0.93439 0.76607 0.63624 0.0
C158 C 0.9506 0.77529 0.52993 0.0
C159 C 0.90456 0.73823 0.58581 0.0
H160 H 0.8197 0.84504 0.42228 0.0
H161 H 0.85592 0.78613 0.44961 0.0
H162 H 0.82282 0.80276 0.42835 0.0
H163 H 0.88431 0.85489 0.45664 0.0
H164 H 0.96603 0.75601 0.65199 0.0
H165 H 0.90139 0.76993 0.62056 0.0
H166 H 0.94172 0.7117 0.59749 0.0
H167 H 0.93184 0.78041 0.64792 0.0
Tb168 Tb 0.532 0.6452 0.81247 0.0
C169 C 0.52211 0.67714 0.72071 0.0
N170 N 0.50227 0.6781 0.73318 0.0
C171 C 0.48875 0.70994 0.71027 0.0
C172 C 0.52579 0.69228 0.70196 0.0
C173 C 0.48596 0.69465 0.7287 0.0
C174 C 0.50862 0.70854 0.69661 0.0
C175 C 0.56044 0.661 0.71532 0.0
C176 C 0.53917 0.66165 0.72745 0.0
C177 C 0.56388 0.67547 0.69615 0.0
C178 C 0.5466 0.69106 0.68949 0.0
Tb179 Tb 0.49811 0.6506 0.76102 0.0
N180 N 0.53533 0.64801 0.74631 0.0
C181 C 0.57786 0.64617 0.72303 0.0
C182 C 0.55279 0.63419 0.75413 0.0
C183 C 0.5741 0.63292 0.74269 0.0
H184 H 0.47141 0.69668 0.74005 0.0
H185 H 0.5877 0.62183 0.74923 0.0
H186 H 0.57335 0.60764 0.79462 0.0
H187 H 0.50942 0.66568 0.90055 0.0
H188 H 0.55092 0.6246 0.76955 0.0
H189 H 0.59444 0.64521 0.71426 0.0
H190 H 0.51814 0.6752 0.85996 0.0
H191 H 0.47574 0.72299 0.70683 0.0
H192 H 0.58004 0.67501 0.6866 0.0
H193 H 0.54967 0.70242 0.67494 0.0
H194 H 0.58846 0.56992 0.80763 0.0
H195 H 0.51084 0.72049 0.68239 0.0
H196 H 0.51678 0.62613 0.91522 0.0
N197 N 0.54999 0.61138 0.82296 0.0
C198 C 0.5449 0.60413 0.84465 0.0
C199 C 0.57585 0.57912 0.81801 0.0
C200 C 0.55351 0.58293 0.85309 0.0
C201 C 0.56709 0.60042 0.81058 0.0
C202 C 0.56843 0.56996 0.83904 0.0
N203 N 0.52849 0.64101 0.85134 0.0
C204 C 0.52068 0.65776 0.86598 0.0
C205 C 0.52962 0.6134 0.8825 0.0
C206 C 0.53354 0.61942 0.8593 0.0
C207 C 0.52014 0.63008 0.89727 0.0
C208 C 0.51602 0.65246 0.88906 0.0
H209 H 0.57545 0.55359 0.84489 0.0
H210 H 0.5543 0.55975 0.88242 0.0
H211 H 0.53304 0.58628 0.9081 0.0
O212 O 0.56121 0.65053 0.83168 0.0
O213 O 0.49748 0.63384 0.82285 0.0
O214 O 0.48228 0.62746 0.78677 0.0
O215 O 0.5614 0.65821 0.7946 0.0
O216 O 0.5041 0.66962 0.82074 0.0
O217 O 0.48051 0.67089 0.7882 0.0
O218 O 0.48336 0.6438 0.72791 0.0
O219 O 0.50817 0.68811 0.76936 0.0
O220 O 0.53151 0.68433 0.80129 0.0
O221 O 0.46287 0.64443 0.7585 0.0
O222 O 0.51022 0.61251 0.76096 0.0
O223 O 0.52493 0.60887 0.79729 0.0
C224 C 0.48091 0.62622 0.80939 0.0
C225 C 0.58772 0.67885 0.82011 0.0
C226 C 0.60811 0.70047 0.84994 0.0
C227 C 0.62094 0.71195 0.8329 0.0
C228 C 0.60076 0.69035 0.8032 0.0
C229 C 0.61716 0.70695 0.80961 0.0
C230 C 0.59147 0.68429 0.84349 0.0
C231 C 0.48499 0.67614 0.80991 0.0
C232 C 0.573 0.65881 0.81423 0.0
C233 C 0.54822 0.57618 0.87574 0.0
C234 C 0.5362 0.59135 0.8904 0.0
C235 C 0.52194 0.69819 0.78488 0.0
C236 C 0.4424 0.65107 0.72482 0.0
C237 C 0.40775 0.64218 0.70275 0.0
C238 C 0.39804 0.66344 0.70989 0.0
C239 C 0.43158 0.67131 0.73297 0.0
C240 C 0.4305 0.63674 0.70944 0.0
C241 C 0.41003 0.67795 0.7247 0.0
C242 C 0.51763 0.5986 0.77803 0.0
C243 C 0.46276 0.64148 0.73653 0.0
H244 H 0.63402 0.72444 0.83762 0.0
H245 H 0.5987 0.6861 0.78515 0.0
H246 H 0.62731 0.71562 0.7965 0.0
H247 H 0.58207 0.67536 0.85703 0.0
H248 H 0.38045 0.6682 0.70559 0.0
H249 H 0.43882 0.68118 0.74695 0.0
H250 H 0.43823 0.62043 0.70428 0.0
H251 H 0.40185 0.69356 0.7311 0.0
Tb252 Tb 0.64219 0.22968 1.01005 0.0
C253 C 0.68271 0.3152 0.02649 0.0
N254 N 0.68235 0.30185 0.04577 0.0
C255 C 0.71846 0.31854 0.05818 0.0
C256 C 0.70085 0.33123 1.02275 0.0
C257 C 0.70023 0.30311 0.06141 0.0
C258 C 0.71867 0.33282 0.03889 0.0
C259 C 0.66588 0.32629 0.98986 0.0
C260 C 0.66532 0.31246 1.01007 0.0
C261 C 0.68349 0.34264 0.9866 0.0
C262 C 0.70095 0.34503 1.00291 0.0
Tb263 Tb 0.65064 0.27792 0.04926 0.0
N264 N 0.64854 0.296 1.01331 0.0
C265 C 0.64901 0.32312 0.9731 0.0
C266 C 0.63273 0.29248 0.99602 0.0
C267 C 0.63257 0.30597 0.97609 0.0
H268 H 0.70032 0.29201 0.07636 0.0
H269 H 0.62002 0.30265 0.9627 0.0
H270 H 0.59099 0.23342 0.98322 0.0
H271 H 0.69996 0.15534 1.00538 0.0
H272 H 0.62121 0.27819 0.99594 0.0
H273 H 0.64895 0.33334 0.95744 0.0
H274 H 0.69031 0.19682 1.00544 0.0
H275 H 0.73235 0.3194 0.07061 0.0
H276 H 0.68399 0.3533 0.97124 0.0
H277 H 0.71464 0.35747 0.9999 0.0
H278 H 0.55781 0.20782 0.97642 0.0
H279 H 0.73286 0.34482 0.03646 0.0
H280 H 0.66881 0.12609 1.00621 0.0
N281 N 0.6129 0.20655 0.99609 0.0
C282 C 0.6152 0.18356 0.99931 0.0
C283 C 0.57381 0.20072 0.98303 0.0
C284 C 0.59686 0.1681 0.99514 0.0
C285 C 0.59272 0.21521 0.98711 0.0
C286 C 0.57572 0.17707 0.98752 0.0
N287 N 0.65379 0.19149 1.00635 0.0
C288 C 0.67643 0.1844 1.00575 0.0
C289 C 0.64139 0.15164 1.00487 0.0
C290 C 0.63678 0.17558 1.00448 0.0
C291 C 0.66442 0.14433 1.00616 0.0
C292 C 0.68204 0.1608 1.00578 0.0
H293 H 0.56115 0.16583 0.98417 0.0
H294 H 0.58671 0.13201 0.99503 0.0
H295 H 0.62602 0.11747 1.00325 0.0
O296 O 0.63682 0.2304 0.97442 0.0
O297 O 0.61814 0.22781 0.03902 0.0
O298 O 0.63497 0.24922 0.0677 0.0
O299 O 0.65957 0.25509 0.99048 0.0
O300 O 0.66208 0.2153 0.03821 0.0
O301 O 0.66781 0.24594 0.064 0.0
O302 O 0.6295 0.28461 0.07823 0.0
O303 O 0.68737 0.26498 0.04101 0.0
O304 O 0.68216 0.23707 1.0131 0.0
O305 O 0.65629 0.30751 0.07016 0.0
O306 O 0.61259 0.28165 0.03719 0.0
O307 O 0.60643 0.24716 1.01868 0.0
C308 C 0.62054 0.23328 0.06081 0.0
C309 C 0.67361 0.23406 0.95791 0.0
C310 C 0.69492 0.19893 0.94625 0.0
C311 C 0.71307 0.21305 0.93829 0.0
C312 C 0.69187 0.2477 0.94974 0.0
C313 C 0.71137 0.23721 0.93975 0.0
C314 C 0.67512 0.20974 0.95548 0.0
C315 C 0.67047 0.22383 0.05746 0.0
C316 C 0.65418 0.24435 0.97133 0.0
C317 C 0.60063 0.14422 0.99775 0.0
C318 C 0.62298 0.13596 1.00249 0.0
C319 C 0.69681 0.25049 0.02561 0.0
C320 C 0.65012 0.29886 0.10938 0.0
C321 C 0.64554 0.30614 0.15052 0.0
C322 C 0.66408 0.29109 0.15502 0.0
C323 C 0.66798 0.2831 0.11427 0.0
C324 C 0.63878 0.31017 0.12758 0.0
C325 C 0.67515 0.27954 0.13694 0.0
C326 C 0.59735 0.2665 0.02824 0.0
C327 C 0.64163 0.30157 0.08567 0.0
H328 H 0.72846 0.20547 0.93068 0.0
H329 H 0.69129 0.26634 0.95156 0.0
H330 H 0.72548 0.24784 0.93356 0.0
H331 H 0.66114 0.19897 0.96166 0.0
H332 H 0.66942 0.28763 0.17255 0.0
H333 H 0.67604 0.27315 0.10067 0.0
H334 H 0.6244 0.32169 0.12395 0.0
H335 H 0.68897 0.2674 0.14054 0.0
Tb336 Tb 0.06757 0.65095 0.29309 0.0
C337 C 0.98183 0.61448 0.26348 0.0
N338 N 0.9984 0.6154 0.24696 0.0
C339 C 0.98244 0.58183 0.22859 0.0
C340 C 0.96446 0.59733 0.26289 0.0
C341 C 0.99919 0.59915 0.22986 0.0
C342 C 0.96478 0.5811 0.24501 0.0
C343 C 0.96592 0.6292 0.2992 0.0
C344 C 0.98274 0.63031 0.2814 0.0
C345 C 0.94826 0.61257 0.29835 0.0
C346 C 0.94754 0.59667 0.28025 0.0
Tb347 Tb 1.02249 0.64657 0.24815 0.0
N348 N 1.00023 0.64622 0.28175 0.0
C349 C 0.96739 0.64463 0.31755 0.0
C350 C 1.00175 0.66082 0.30027 0.0
C351 C 0.98554 0.6603 0.31819 0.0
H352 H 1.0137 0.59879 0.21821 0.0
H353 H 0.98725 0.67192 0.3327 0.0
H354 H 0.0636 0.7012 0.3221 0.0
H355 H 0.1407 0.5913 0.29396 0.0
H356 H 1.01582 0.6722 0.30264 0.0
H357 H 0.9549 0.64429 0.33153 0.0
H358 H 0.09952 0.60166 0.2934 0.0
H359 H 0.98332 0.56893 0.21511 0.0
H360 H 0.93522 0.61168 0.3118 0.0
H361 H 0.93399 0.58375 0.28 0.0
H362 H 0.08973 0.73293 0.33238 0.0
H363 H 0.95179 0.56765 0.24404 0.0
H364 H 0.1704 0.62157 0.29903 0.0
N365 N 0.09051 0.67918 0.30925 0.0
C366 C 0.11365 0.67599 0.30775 0.0
C367 C 0.09673 0.71711 0.32518 0.0
C368 C 0.12937 0.69348 0.31405 0.0
C369 C 0.08192 0.6991 0.31893 0.0
C370 C 0.12058 0.7145 0.32225 0.0
N371 N 0.10525 0.63792 0.29768 0.0
C372 C 0.11204 0.61524 0.2957 0.0
C373 C 0.14524 0.6492 0.30225 0.0
C374 C 0.12137 0.65437 0.30187 0.0
C375 C 0.15224 0.62631 0.29877 0.0
C376 C 0.13552 0.60919 0.29597 0.0
H377 H 0.13205 0.7284 0.32726 0.0
H378 H 0.16566 0.70234 0.31723 0.0
H379 H 0.17964 0.66335 0.30696 0.0
O380 O 0.06922 0.65325 0.32881 0.0
O381 O 0.07791 0.67432 0.26495 0.0
O382 O 0.04933 0.67066 0.23727 0.0
O383 O 0.04048 0.6357 0.31237 0.0
O384 O 0.08173 0.6315 0.26481 0.0
O385 O 0.0556 0.6327 0.23443 0.0
O386 O 0.99131 0.65508 0.23002 0.0
O387 O 0.03345 0.60962 0.2576 0.0
O388 O 0.0597 0.61138 0.28735 0.0
O389 O 0.02312 0.64911 0.21239 0.0
O390 O 1.02049 0.68476 0.26019 0.0
O391 O 0.04967 0.68661 0.28707 0.0
C392 C 0.06916 0.67893 0.24452 0.0
C393 C 0.05898 0.61783 0.34486 0.0
C394 C 0.08945 0.59129 0.35855 0.0
C395 C 0.0721 0.57827 0.36973 0.0
C396 C 0.04217 0.60433 0.35581 0.0
C397 C 0.04877 0.58477 0.36836 0.0
C398 C 0.0826 0.61136 0.3467 0.0
C399 C 0.07639 0.62868 0.24309 0.0
C400 C 0.0523 0.63866 0.3315 0.0
C401 C 0.15326 0.68904 0.31283 0.0
C402 C 0.1612 0.66687 0.30698 0.0
C403 C 0.04638 0.59839 0.27313 0.0
C404 C 0.98999 0.64524 0.18949 0.0
C405 C 0.96789 0.65432 0.15475 0.0
C406 C 0.97473 0.63292 0.1453 0.0
C407 C 0.99792 0.62489 0.17873 0.0
C408 C 0.97467 0.65973 0.17745 0.0
C409 C 0.98946 0.61827 0.15735 0.0
C410 C 0.03354 0.69772 0.27439 0.0
C411 C 1.00161 0.65451 0.21015 0.0
H412 H 0.07649 0.56306 0.3797 0.0
H413 H 0.02402 0.60897 0.35476 0.0
H414 H 0.03572 0.5745 0.37701 0.0
H415 H 0.09574 0.62184 0.33864 0.0
H416 H 0.97027 0.62814 0.12786 0.0
H417 H 1.01185 0.61483 0.18579 0.0
H418 H 0.96956 0.67608 0.18508 0.0
H419 H 0.9957 0.60252 0.14934 0.0
Tb420 Tb 0.64917 0.80479 0.54356 0.0
C421 C 0.68335 0.71791 0.51144 0.0
N422 N 0.67907 0.73192 0.49322 0.0
C423 C 0.70883 0.71313 0.47119 0.0
C424 C 0.70048 0.70056 0.51012 0.0
C425 C 0.69157 0.73004 0.47327 0.0
C426 C 0.71313 0.69815 0.48961 0.0
C427 C 0.67637 0.70855 0.5515 0.0
C428 C 0.67152 0.72214 0.53189 0.0
C429 C 0.69273 0.69056 0.55004 0.0
C430 C 0.7048 0.68661 0.52943 0.0
Tb431 Tb 0.64955 0.75744 0.4978 0.0
N432 N 0.65609 0.74009 0.53281 0.0
C433 C 0.66495 0.71368 0.57213 0.0
C434 C 0.64537 0.74526 0.55311 0.0
C435 C 0.64953 0.73223 0.57295 0.0
H436 H 0.68813 0.74155 0.45901 0.0
H437 H 0.64083 0.73657 0.58893 0.0
H438 H 0.61116 0.78709 0.58359 0.0
H439 H 0.67844 0.89092 0.52257 0.0
H440 H 0.63374 0.75932 0.55453 0.0
H441 H 0.66818 0.70367 0.58758 0.0
H442 H 0.68112 0.84809 0.52433 0.0
H443 H 0.71868 0.71156 0.45536 0.0
H444 H 0.69652 0.67988 0.56492 0.0
H445 H 0.71774 0.67302 0.52873 0.0
H446 H 0.57944 0.80422 0.60647 0.0
H447 H 0.72649 0.68505 0.48795 0.0
H448 H 0.6452 0.9111 0.54074 0.0
N449 N 0.61977 0.81869 0.56659 0.0
C450 C 0.61615 0.84185 0.56574 0.0
C451 C 0.58946 0.81499 0.59491 0.0
C452 C 0.59839 0.85243 0.57879 0.0
C453 C 0.60743 0.80536 0.58185 0.0
C454 C 0.58467 0.83858 0.59312 0.0
N455 N 0.6492 0.84431 0.54212 0.0
C456 C 0.6664 0.85685 0.53194 0.0
C457 C 0.6293 0.87946 0.55287 0.0
C458 C 0.63142 0.85515 0.55307 0.0
C459 C 0.64618 0.89238 0.54129 0.0
C460 C 0.66499 0.88104 0.53105 0.0
H461 H 0.57087 0.84605 0.60343 0.0
H462 H 0.5818 0.88497 0.58751 0.0
H463 H 0.60885 0.90868 0.56474 0.0
O464 O 0.67601 0.81879 0.562 0.0
O465 O 0.62905 0.81856 0.51547 0.0
O466 O 0.62593 0.78757 0.48933 0.0
O467 O 0.65545 0.79057 0.57674 0.0
O468 O 0.66267 0.80375 0.50937 0.0
O469 O 0.6675 0.7839 0.47762 0.0
O470 O 0.63337 0.72607 0.48936 0.0
O471 O 0.68793 0.76496 0.50651 0.0
O472 O 0.6873 0.79229 0.53575 0.0
O473 O 0.64368 0.74992 0.46278 0.0
O474 O 0.61307 0.75914 0.51333 0.0
O475 O 0.61207 0.78858 0.54035 0.0
C476 C 0.62035 0.80884 0.49674 0.0
C477 C 0.66658 0.82376 0.6004 0.0
C478 C 0.67299 0.86305 0.61521 0.0
C479 C 0.65502 0.85965 0.63121 0.0
C480 C 0.6493 0.8204 0.61708 0.0
C481 C 0.64355 0.83832 0.63235 0.0
C482 C 0.67885 0.84485 0.60031 0.0
C483 C 0.67093 0.80318 0.4885 0.0
C484 C 0.67022 0.80764 0.58076 0.0
C485 C 0.59548 0.87654 0.57779 0.0
C486 C 0.6109 0.89004 0.56484 0.0
C487 C 0.6997 0.77814 0.52156 0.0
C488 C 0.63735 0.71106 0.45148 0.0
C489 C 0.62504 0.6922 0.41629 0.0
C490 C 0.64133 0.67453 0.41998 0.0
C491 C 0.65275 0.69274 0.45579 0.0
C492 C 0.62347 0.71056 0.43186 0.0
C493 C 0.65506 0.67479 0.43977 0.0
C494 C 0.60067 0.77264 0.52765 0.0
C495 C 0.63374 0.73035 0.46743 0.0
H496 H 0.65015 0.87328 0.64309 0.0
H497 H 0.63979 0.80432 0.6179 0.0
H498 H 0.62989 0.83577 0.64491 0.0
H499 H 0.69238 0.84765 0.5876 0.0
H500 H 0.64281 0.6602 0.40804 0.0
H501 H 0.66267 0.69207 0.47149 0.0
H502 H 0.61103 0.72434 0.42887 0.0
H503 H 0.66714 0.66082 0.44295 0.0
Tb504 Tb 0.48892 0.39634 0.79513 0.0
C505 C 0.58248 0.4223 0.76119 0.0
N506 N 0.56591 0.42666 0.74542 0.0
C507 C 0.58907 0.45701 0.7292 0.0
C508 C 0.60359 0.43446 0.76108 0.0
C509 C 0.56831 0.44465 0.73041 0.0
C510 C 0.60707 0.45149 0.74426 0.0
C511 C 0.59191 0.40545 0.79796 0.0
C512 C 0.57671 0.40793 0.77914 0.0
C513 C 0.61392 0.41576 0.79707 0.0
C514 C 0.61977 0.43029 0.7786 0.0
Tb515 Tb 0.53434 0.40299 0.74584 0.0
N516 N 0.55478 0.3995 0.77974 0.0
C517 C 0.58375 0.39444 0.81782 0.0
C518 C 0.54605 0.39197 0.80016 0.0
C519 C 0.56041 0.38842 0.81921 0.0
H520 H 0.55391 0.44985 0.71995 0.0
H521 H 0.5533 0.38182 0.83518 0.0
H522 H 0.51365 0.36232 0.83497 0.0
H523 H 0.39869 0.40821 0.77255 0.0
H524 H 0.52801 0.38992 0.80216 0.0
H525 H 0.59474 0.39227 0.83275 0.0
H526 H 0.4397 0.42009 0.77543 0.0
H527 H 0.59101 0.47101 0.71697 0.0
H528 H 0.62595 0.41376 0.8112 0.0
H529 H 0.63625 0.43919 0.7787 0.0
H530 H 0.50278 0.32671 0.85608 0.0
H531 H 0.623 0.46132 0.7436 0.0
H532 H 0.3863 0.37056 0.78862 0.0
N533 N 0.4822 0.36372 0.81601 0.0
C534 C 0.4601 0.35573 0.81414 0.0
C535 C 0.49076 0.33453 0.84411 0.0
C536 C 0.45311 0.33563 0.82604 0.0
C537 C 0.49686 0.35463 0.83218 0.0
C538 C 0.46901 0.32466 0.8406 0.0
N539 N 0.45035 0.38913 0.79206 0.0
C540 C 0.4344 0.40354 0.7821 0.0
C541 C 0.42054 0.3614 0.80076 0.0
C542 C 0.44379 0.36872 0.80181 0.0
C543 C 0.40431 0.37561 0.78973 0.0
C544 C 0.41122 0.3969 0.78064 0.0
H545 H 0.46428 0.30918 0.85002 0.0
H546 H 0.4247 0.31213 0.83271 0.0
H547 H 0.39631 0.33452 0.81047 0.0
O548 O 0.4658 0.41377 0.81514 0.0
O549 O 0.4733 0.38453 0.76358 0.0
O550 O 0.50551 0.37773 0.73982 0.0
O551 O 0.50138 0.40739 0.8283 0.0
O552 O 0.49578 0.41371 0.76411 0.0
O553 O 0.50696 0.42549 0.73192 0.0
O554 O 0.5626 0.3921 0.72483 0.0
O555 O 0.52998 0.43983 0.76092 0.0
O556 O 0.50434 0.43438 0.79192 0.0
O557 O 0.52987 0.40172 0.71032 0.0
O558 O 0.53248 0.36443 0.75769 0.0
O559 O 0.50726 0.36047 0.78914 0.0
C560 C 0.48333 0.37473 0.74559 0.0
C561 C 0.47256 0.42858 0.85257 0.0
C562 C 0.43939 0.44796 0.86979 0.0
C563 C 0.44782 0.44269 0.89181 0.0
C564 C 0.48139 0.42387 0.87453 0.0
C565 C 0.46914 0.43125 0.89413 0.0
C566 C 0.45232 0.4418 0.85047 0.0
C567 C 0.48956 0.4251 0.74568 0.0
C568 C 0.48044 0.41587 0.83212 0.0
C569 C 0.43025 0.32773 0.82395 0.0
C570 C 0.41404 0.34053 0.81132 0.0
C571 C 0.51802 0.44884 0.7788 0.0
C572 C 0.56214 0.40735 0.68653 0.0
C573 C 0.58634 0.40396 0.65236 0.0
C574 C 0.58041 0.4267 0.64608 0.0
C575 C 0.55455 0.42914 0.67872 0.0
C576 C 0.57803 0.39489 0.67325 0.0
C577 C 0.5645 0.43919 0.65923 0.0
C578 C 0.52174 0.35065 0.77353 0.0
C579 C 0.55095 0.39547 0.706 0.0
H580 H 0.43789 0.4472 0.90703 0.0
H581 H 0.49685 0.41343 0.87656 0.0
H582 H 0.47563 0.42715 0.91111 0.0
H583 H 0.44529 0.44553 0.83355 0.0
H584 H 0.587 0.43427 0.63029 0.0
H585 H 0.54046 0.43816 0.68715 0.0
H586 H 0.5821 0.37724 0.67816 0.0
H587 H 0.55896 0.45619 0.65364 0.0
Tb588 Tb 0.90226 0.22912 0.04459 0.0
C589 C 0.86681 0.3198 0.0271 0.0
N590 N 0.86292 0.30362 1.01076 0.0
C591 C 0.82747 0.32328 1.00028 0.0
C592 C 0.85171 0.33891 0.03003 0.0
C593 C 0.84288 0.30479 0.99792 0.0
C594 C 0.83214 0.3407 1.01608 0.0
C595 C 0.88875 0.33221 0.06016 0.0
C596 C 0.88505 0.31634 0.04196 0.0
C597 C 0.87472 0.35197 0.06223 0.0
C598 C 0.85619 0.35529 0.04721 0.0
Tb599 Tb 0.89269 0.27708 1.00485 0.0
N600 N 0.898 0.29669 0.03967 0.0
C601 C 0.90588 0.32741 0.0763 0.0
C602 C 0.91353 0.29147 0.05669 0.0
C603 C 0.91791 0.30666 0.07485 0.0
H604 H 0.83876 0.29142 0.98556 0.0
H605 H 0.93036 0.30208 0.08798 0.0
H606 H 0.94369 0.24789 0.0801 0.0
H607 H 0.86943 0.14157 0.03655 0.0
H608 H 0.92176 0.27516 0.05768 0.0
H609 H 0.90919 0.33907 0.09051 0.0
H610 H 0.86552 0.184 0.03874 0.0
H611 H 0.81203 0.32411 0.98981 0.0
H612 H 0.87757 0.36439 0.0759 0.0
H613 H 0.84502 0.37022 0.04947 0.0
H614 H 0.97984 0.23217 0.09659 0.0
H615 H 0.82018 0.35506 1.01787 0.0
H616 H 0.90692 0.1228 0.04538 0.0
N617 N 0.93364 0.2159 0.06493 0.0
C618 C 0.93813 0.19304 0.0631 0.0
C619 C 0.96837 0.22098 0.08704 0.0
C620 C 0.95858 0.18329 0.07207 0.0
C621 C 0.94788 0.2298 0.07771 0.0
C622 C 0.97405 0.19772 0.08371 0.0
N623 N 0.90086 0.18947 0.04774 0.0
C624 C 0.88209 0.17613 0.04247 0.0
C625 C 0.92402 0.15506 0.05332 0.0
C626 C 0.92106 0.17924 0.05405 0.0
C627 C 0.90538 0.14146 0.04625 0.0
C628 C 0.88418 0.15201 0.0413 0.0
H629 H 0.98996 0.19092 0.09089 0.0
H630 H 0.9782 0.15157 0.07626 0.0
H631 H 0.94792 0.12675 0.05967 0.0
O632 O 0.90017 0.22459 0.07999 0.0
O633 O 0.92484 0.22287 1.01493 0.0
O634 O 0.91255 0.24942 0.98769 0.0
O635 O 0.88442 0.2548 0.06371 0.0
O636 O 0.88266 0.21475 1.01626 0.0
O637 O 0.87858 0.2448 0.9897 0.0
O638 O 0.91204 0.30069 0.98391 0.0
O639 O 0.85696 0.26562 1.01749 0.0
O640 O 0.86198 0.23271 0.03962 0.0
O641 O 0.87863 0.29007 0.97463 0.0
O642 O 0.93188 0.27827 1.01289 0.0
O643 O 0.93775 0.2467 0.03642 0.0
C644 C 0.92467 0.23098 0.99376 0.0
C645 C 0.86329 0.23378 0.093 0.0
C646 C 0.83596 0.20237 0.10186 0.0
C647 C 0.82217 0.21834 0.11401 0.0
C648 C 0.84948 0.24921 0.10558 0.0
C649 C 0.829 0.24149 0.11598 0.0
C650 C 0.85645 0.21026 0.09145 0.0
C651 C 0.87598 0.22294 0.99618 0.0
C652 C 0.88533 0.24149 0.08223 0.0
C653 C 0.96239 0.15939 0.06992 0.0
C654 C 0.94513 0.14528 0.06049 0.0
C655 C 0.84748 0.24839 0.02961 0.0
C656 C 0.90378 0.29436 0.94407 0.0
C657 C 0.92116 0.3047 0.90718 0.0
C658 C 0.91186 0.28448 0.89745 0.0
C659 C 0.89498 0.27404 0.93393 0.0
C660 C 0.91697 0.30962 0.9306 0.0
C661 C 0.89879 0.26937 0.91076 0.0
C662 C 0.94679 0.26454 0.02444 0.0
C663 C 0.89672 0.30066 0.96772 0.0
H664 H 0.80625 0.21283 0.12225 0.0
H665 H 0.85448 0.26717 0.10727 0.0
H666 H 0.8183 0.25353 0.12558 0.0
H667 H 0.86698 0.19798 0.08206 0.0
H668 H 0.91411 0.28063 0.87932 0.0
H669 H 0.8846 0.26192 0.94373 0.0
H670 H 0.92354 0.3254 0.9382 0.0
H671 H 0.89133 0.25409 0.90303 0.0
Tb672 Tb 0.31478 1.00808 0.40322 0.0
C673 C 0.23127 0.02532 0.3606 0.0
N674 N 0.24533 0.044 0.36041 0.0
C675 C 0.2291 0.05657 0.32447 0.0
C676 C 0.21529 1.02161 0.34263 0.0
C677 C 0.24463 0.05951 0.34261 0.0
C678 C 0.21422 0.03762 0.32457 0.0
C679 C 0.21916 0.9897 0.37879 0.0
C680 C 0.23341 1.00958 0.37848 0.0
C681 C 0.20302 0.98608 0.36113 0.0
C682 C 0.2011 1.00198 0.3431 0.0
Tb683 Tb 0.26877 0.04872 0.39152 0.0
N684 N 0.24948 1.01354 0.39526 0.0
C685 C 0.22148 0.9739 0.39678 0.0
C686 C 0.25143 0.99785 0.41288 0.0
C687 C 0.23773 0.97799 0.41382 0.0
H688 H 0.25683 0.07365 0.3421 0.0
H689 H 0.23998 0.96564 0.42767 0.0
H690 H 0.2954 0.97454 0.44658 0.0
H691 H 0.40322 1.00895 0.37147 0.0
H692 H 0.26434 0.99909 0.42564 0.0
H693 H 0.21096 0.95842 0.39757 0.0
H694 H 0.36068 1.00618 0.3672 0.0
H695 H 0.22874 0.06884 0.31039 0.0
H696 H 0.19201 0.97093 0.36121 0.0
H697 H 0.18869 0.99887 0.32951 0.0
H698 H 0.31058 0.9601 0.48374 0.0
H699 H 0.20221 0.03533 0.31047 0.0
H700 H 0.42084 1.00683 0.41013 0.0
N701 N 0.3269 0.99123 0.43704 0.0
C702 C 0.34959 0.99392 0.44192 0.0
C703 C 0.32168 0.96991 0.47229 0.0
C704 C 0.35888 0.9866 0.46312 0.0
C705 C 0.31316 0.97808 0.45127 0.0
C706 C 0.34438 0.97504 0.47868 0.0
N707 N 0.35431 1.00407 0.40317 0.0
C708 C 0.36817 1.00583 0.38416 0.0
C709 C 0.38802 1.0019 0.42755 0.0
C710 C 0.3639 1.00094 0.42426 0.0
C711 C 0.40219 1.00596 0.40839 0.0
C712 C 0.39227 1.0072 0.38652 0.0
H713 H 0.35088 0.96891 0.49507 0.0
H714 H 0.39005 0.98466 0.48368 0.0
H715 H 0.41565 0.99851 0.45255 0.0
O716 O 0.32168 0.97327 0.40483 0.0
O717 O 0.32617 0.04114 0.41804 0.0
O718 O 0.29368 0.0644 0.41457 0.0
O719 O 0.28977 0.98564 0.38871 0.0
O720 O 0.3292 0.03286 0.37917 0.0
O721 O 0.30139 0.06192 0.37507 0.0
O722 O 0.23663 0.06527 0.39978 0.0
O723 O 0.28013 0.03465 0.35645 0.0
O724 O 0.30954 1.00835 0.36251 0.0
O725 O 0.26521 0.08426 0.3853 0.0
O726 O 0.26671 0.04259 0.4312 0.0
O727 O 0.29749 1.01853 0.43808 0.0
C728 C 0.31487 0.06061 0.42166 0.0
C729 C 0.30939 0.95125 0.37447 0.0
C730 C 0.34184 0.93155 0.35537 0.0
C731 C 0.32769 0.91186 0.35291 0.0
C732 C 0.2956 0.93165 0.37148 0.0
C733 C 0.30463 0.91219 0.36036 0.0
C734 C 0.332 0.95152 0.36511 0.0
C735 C 0.32246 0.05323 0.37144 0.0
C736 C 0.30344 0.96776 0.39286 0.0
C737 C 0.38262 0.98955 0.46728 0.0
C738 C 0.39719 0.99738 0.44952 0.0
C739 C 0.29482 1.01916 0.34749 0.0
C740 C 0.22963 0.10507 0.3877 0.0
C741 C 0.21155 0.14084 0.40089 0.0
C742 C 0.20753 0.14734 0.37797 0.0
C743 C 0.2257 0.11192 0.36481 0.0
C744 C 0.22224 0.11953 0.40561 0.0
C745 C 0.21441 0.13278 0.36004 0.0
C746 C 0.28013 0.03144 0.44674 0.0
C747 C 0.2446 0.08539 0.3939 0.0
H748 H 0.33452 0.89589 0.34589 0.0
H749 H 0.27842 0.93086 0.379 0.0
H750 H 0.2941 0.89683 0.35862 0.0
H751 H 0.34255 0.96681 0.36717 0.0
H752 H 0.19911 0.16362 0.37398 0.0
H753 H 0.23171 0.10177 0.35053 0.0
H754 H 0.22597 0.11476 0.42329 0.0
H755 H 0.21146 0.13793 0.34236 0.0
Tb756 Tb 0.23289 1.01041 0.6426 0.0
C757 C 0.31459 0.02651 0.68545 0.0
N758 N 0.30411 0.04722 0.68189 0.0
C759 C 0.3227 0.06303 0.71523 0.0
C760 C 0.3295 0.02321 0.70436 0.0
C761 C 0.30802 0.06551 0.69632 0.0
C762 C 0.3335 0.04179 0.71927 0.0
C763 C 0.32039 0.98668 0.67392 0.0
C764 C 0.30969 1.00843 0.67049 0.0
C765 C 0.33526 0.98331 0.69272 0.0
C766 C 0.33975 1.0015 0.70792 0.0
Tb767 Tb 0.28036 0.04942 0.65078 0.0
N768 N 0.29484 1.01217 0.65256 0.0
C769 C 0.31615 0.96898 0.65818 0.0
C770 C 0.2918 0.99509 0.63665 0.0
C771 C 0.30203 0.97332 0.63933 0.0
H772 H 0.29938 0.08187 0.69349 0.0
H773 H 0.29897 0.95986 0.62676 0.0
H774 H 0.25624 0.97027 0.60741 0.0
H775 H 0.1424 0.03278 0.65424 0.0
H776 H 0.28129 0.99748 0.62199 0.0
H777 H 0.32403 0.95207 0.66019 0.0
H778 H 0.18201 0.02519 0.66768 0.0
H779 H 0.32561 0.07747 0.72671 0.0
H780 H 0.34348 0.96668 0.6956 0.0
H781 H 0.35123 0.99861 0.72236 0.0
H782 H 0.2465 0.95313 0.5697 0.0
H783 H 0.34481 0.03989 0.734 0.0
H784 H 0.13144 0.02301 0.61428 0.0
N785 N 0.226 0.99147 0.60875 0.0
C786 C 0.20458 0.99535 0.59986 0.0
C787 C 0.23472 0.96526 0.57783 0.0
C788 C 0.19817 0.98577 0.57851 0.0
C789 C 0.24021 0.97501 0.59914 0.0
C790 C 0.21388 0.97116 0.56716 0.0
N791 N 0.19422 1.01337 0.63511 0.0
C792 C 0.17785 1.02176 0.64999 0.0
C793 C 0.16551 1.01011 0.60521 0.0
C794 C 0.18827 1.00696 0.61333 0.0
C795 C 0.14909 1.0202 0.61991 0.0
C796 C 0.1552 0.0257 0.64251 0.0
H797 H 0.20959 0.96343 0.55073 0.0
H798 H 0.17079 0.98314 0.55326 0.0
H799 H 0.14233 1.00478 0.57645 0.0
O800 O 0.21159 0.98241 0.64913 0.0
O801 O 0.22063 0.04377 0.6286 0.0
O802 O 0.25494 0.06422 0.62739 0.0
O803 O 0.24923 0.97944 0.65311 0.0
O804 O 0.22199 0.03528 0.6685 0.0
O805 O 0.24841 0.06556 0.66584 0.0
O806 O 0.31328 0.06023 0.63943 0.0
O807 O 0.26931 0.04133 0.68785 0.0
O808 O 0.24661 1.00954 0.68121 0.0
O809 O 0.28807 0.08506 0.65148 0.0
O810 O 0.28222 0.03998 0.61188 0.0
O811 O 0.24983 1.01806 0.60702 0.0
C812 C 0.23297 0.0618 0.62204 0.0
C813 C 0.22448 0.95468 0.67598 0.0
C814 C 0.19706 0.93799 0.70367 0.0
C815 C 0.21455 0.92284 0.71122 0.0
C816 C 0.2416 0.93934 0.68374 0.0
C817 C 0.23664 0.92359 0.70133 0.0
C818 C 0.20223 0.95393 0.68613 0.0
C819 C 0.22817 0.05681 0.67262 0.0
C820 C 0.2289 0.96925 0.65549 0.0
C821 C 0.17591 0.99002 0.56982 0.0
C822 C 0.15966 1.00229 0.58308 0.0
C823 C 0.25829 0.02307 0.69658 0.0
C824 C 0.32683 0.09844 0.64713 0.0
C825 C 0.34507 0.13441 0.63518 0.0
C826 C 0.36311 0.13021 0.6508 0.0
C827 C 0.34539 0.09382 0.66194 0.0
C828 C 0.32659 0.11883 0.63424 0.0
C829 C 0.36319 0.11003 0.66417 0.0
C830 C 0.2675 0.02951 0.59728 0.0
C831 C 0.30834 0.08192 0.64237 0.0
H832 H 0.21103 0.91015 0.7245 0.0
H833 H 0.25865 0.93921 0.67588 0.0
H834 H 0.24989 0.91165 0.70708 0.0
H835 H 0.18875 0.96559 0.6803 0.0
H836 H 0.37753 0.142 0.65194 0.0
H837 H 0.34638 0.0777 0.67135 0.0
H838 H 0.31229 0.12209 0.62259 0.0
H839 H 0.37748 0.10659 0.6757 0.0
Tb840 Tb 0.29119 0.97926 0.89015 0.0
C841 C 0.26898 0.06804 0.92658 0.0
N842 N 0.25259 0.05187 0.9307 0.0
C843 C 0.24046 0.0729 0.96461 0.0
C844 C 0.2713 0.08771 0.94087 0.0
C845 C 0.23885 0.05375 0.95003 0.0
C846 C 0.25648 0.09018 0.95978 0.0
C847 C 0.30277 0.07978 0.90499 0.0
C848 C 0.28445 0.06403 0.90895 0.0
C849 C 0.30446 0.09997 0.91831 0.0
C850 C 0.28874 0.10391 0.93625 0.0
Tb851 Tb 0.2482 0.02358 0.90284 0.0
N852 N 0.28247 0.044 0.89676 0.0
C853 C 0.31933 0.07448 0.88826 0.0
C854 C 0.29958 0.0385 0.88142 0.0
C855 C 0.31794 0.0535 0.87674 0.0
H856 H 0.22668 0.04034 0.95464 0.0
H857 H 0.33123 0.04865 0.86444 0.0
H858 H 0.32584 1.00453 0.85039 0.0
H859 H 0.28291 0.88754 0.90829 0.0
H860 H 0.30013 0.0222 0.87347 0.0
H861 H 0.33368 0.08602 0.88475 0.0
H862 H 0.28716 0.92833 0.91945 0.0
H863 H 0.22937 0.07423 0.97963 0.0
H864 H 0.31825 0.11228 0.9153 0.0
H865 H 0.29061 0.11922 0.94685 0.0
H866 H 0.33882 0.99506 0.81089 0.0
H867 H 0.25776 0.10499 0.97115 0.0
H868 H 0.28845 0.87575 0.86767 0.0
N869 N 0.30899 0.97216 0.85557 0.0
C870 C 0.3062 0.95028 0.84769 0.0
C871 C 0.32941 0.9824 0.82096 0.0
C872 C 0.31335 0.94404 0.82532 0.0
C873 C 0.32205 0.98771 0.84333 0.0
C874 C 0.32445 0.96068 0.81165 0.0
N875 N 0.29373 0.94006 0.88514 0.0
C876 C 0.28925 0.92366 0.90155 0.0
C877 C 0.29637 0.91041 0.85597 0.0
C878 C 0.29816 0.93364 0.86299 0.0
C879 C 0.29012 0.8938 0.87238 0.0
C880 C 0.28703 0.90039 0.89534 0.0
H881 H 0.33019 0.9566 0.79433 0.0
H882 H 0.31505 0.91615 0.80045 0.0
H883 H 0.29991 0.88672 0.82721 0.0
O884 O 0.32513 0.9678 0.89039 0.0
O885 O 0.25971 0.96714 0.87423 0.0
O886 O 0.23316 0.99626 0.88187 0.0
O887 O 0.31594 1.00106 0.90607 0.0
O888 O 0.26706 0.96355 0.91394 0.0
O889 O 0.23658 0.98978 0.91814 0.0
O890 O 0.22548 0.04851 0.88748 0.0
O891 O 0.26302 1.01438 0.93818 0.0
O892 O 0.2885 0.98441 0.93062 0.0
O893 O 0.21601 0.02978 0.91735 0.0
O894 O 0.25487 0.02665 0.86322 0.0
O895 O 0.27899 0.99592 0.85551 0.0
C896 C 0.23906 0.9764 0.87246 0.0
C897 C 0.34369 0.97598 0.92481 0.0
C898 C 0.35413 0.9435 0.94991 0.0
C899 C 0.36948 0.95797 0.96174 0.0
C900 C 0.3592 0.99013 0.93672 0.0
C901 C 0.37194 0.98116 0.95517 0.0
C902 C 0.34112 0.95264 0.93177 0.0
C903 C 0.24626 0.96912 0.92141 0.0
C904 C 0.33173 0.98454 0.90393 0.0
C905 C 0.31014 0.92121 0.81776 0.0
C906 C 0.30158 0.90443 0.83304 0.0
C907 C 0.27774 0.99852 0.94631 0.0
C908 C 0.18537 0.03833 0.89299 0.0
C909 C 0.15148 0.04833 0.87021 0.0
C910 C 0.13901 0.03046 0.88081 0.0
C911 C 0.17238 1.0204 0.90338 0.0
C912 C 0.17474 0.05224 0.87617 0.0
C913 C 0.14942 1.01664 0.89736 0.0
C914 C 0.26576 1.01321 0.84736 0.0
C915 C 0.20881 0.04376 0.90176 0.0
H916 H 0.37962 0.95128 0.97593 0.0
H917 H 0.36171 1.00796 0.93155 0.0
H918 H 0.38397 0.99215 0.96427 0.0
H919 H 0.32931 0.94128 0.92286 0.0
H920 H 0.12103 0.02746 0.87649 0.0
H921 H 0.17972 1.00942 0.91661 0.0
H922 H 0.18413 0.06651 0.86845 0.0
H923 H 0.13954 1.00319 0.90583 0.0
Tb924 Tb 0.26975 0.97038 0.15161 0.0
C925 C 0.27621 0.06338 0.11947 0.0
N926 N 0.29412 0.04913 0.11425 0.0
C927 C 0.30094 0.07073 0.07919 0.0
C928 C 0.2704 0.08229 0.10507 0.0
C929 C 0.30602 0.05227 0.09383 0.0
C930 C 0.28329 0.08606 0.08501 0.0
C931 C 0.24322 0.07215 0.14372 0.0
C932 C 0.26283 0.05824 0.13856 0.0
C933 C 0.23801 0.09148 0.13004 0.0
C934 C 0.25157 0.09655 0.11075 0.0
Tb935 Tb 0.30363 1.02164 0.14184 0.0
N936 N 0.26818 0.03908 0.15126 0.0
C937 C 0.22899 0.06597 0.16213 0.0
C938 C 0.2534 0.03281 0.16872 0.0
C939 C 0.23392 0.046 0.17443 0.0
H940 H 0.31932 0.04023 0.08838 0.0
H941 H 0.22248 0.04047 0.18817 0.0
H942 H 0.23686 0.98613 0.19668 0.0
H943 H 0.27777 0.88407 0.11596 0.0
H944 H 0.25515 1.01689 0.17759 0.0
H945 H 0.21377 0.07608 0.16652 0.0
H946 H 0.27279 0.92653 0.11355 0.0
H947 H 0.31059 0.07303 0.06334 0.0
H948 H 0.22317 0.10234 0.13393 0.0
H949 H 0.24703 0.11122 0.10003 0.0
H950 H 0.22497 0.96898 0.23386 0.0
H951 H 0.27932 0.10035 0.07358 0.0
H952 H 0.27524 0.86426 0.15361 0.0
N953 N 0.25397 0.95559 0.18487 0.0
C954 C 0.25766 0.93285 0.18857 0.0
C955 C 0.2344 0.95865 0.2214 0.0
C956 C 0.25126 0.92225 0.2095 0.0
C957 C 0.24114 0.96829 0.20033 0.0
C958 C 0.24005 0.93566 0.22628 0.0
N959 N 0.26848 0.93077 0.14971 0.0
C960 C 0.27194 0.91812 0.13014 0.0
C961 C 0.26778 0.89573 0.17242 0.0
C962 C 0.26543 0.91988 0.17024 0.0
C963 C 0.27321 0.88288 0.15273 0.0
C964 C 0.27469 0.89406 0.13141 0.0
H965 H 0.23478 0.92817 0.24259 0.0
H966 H 0.25086 0.88998 0.22851 0.0
H967 H 0.26565 0.86669 0.19604 0.0
O968 O 0.23527 0.96201 0.15248 0.0
O969 O 0.30296 0.96351 0.16934 0.0
O970 O 0.32417 0.99607 0.16014 0.0
O971 O 0.24613 0.9964 0.14074 0.0
O972 O 0.2954 0.9598 0.12695 0.0
O973 O 0.32063 0.99101 0.1248 0.0
O974 O 0.32384 0.04786 0.15779 0.0
O975 O 0.28715 1.01228 0.10745 0.0
O976 O 0.27084 0.97604 0.11103 0.0
O977 O 0.33328 0.03369 0.12549 0.0
O978 O 0.2987 1.02125 0.1821 0.0
O979 O 0.28057 0.98633 0.18665 0.0
C980 C 0.32227 0.97564 0.16973 0.0
C981 C 0.2091 0.98033 0.12837 0.0
C982 C 0.18274 0.95455 0.10748 0.0
C983 C 0.16527 0.97149 0.1097 0.0
C984 C 0.19154 0.99701 0.12978 0.0
C985 C 0.1698 0.99263 0.12039 0.0
C986 C 0.20479 0.95937 0.11656 0.0
C987 C 0.3149 0.96926 0.12014 0.0
C988 C 0.22869 0.9821 0.14447 0.0
C989 C 0.25517 0.89845 0.2124 0.0
C990 C 0.26355 0.88519 0.19389 0.0
C991 C 0.27748 0.99405 0.0972 0.0
C992 C 0.36333 0.03871 0.1505 0.0
C993 C 0.3994 0.04785 0.169 0.0
C994 C 0.40766 0.02539 0.16495 0.0
C995 C 0.37193 1.01622 0.14599 0.0
C996 C 0.37732 0.05454 0.16181 0.0
C997 C 0.39396 1.00968 0.15317 0.0
C998 C 0.29053 1.0048 0.19665 0.0
C999 C 0.34024 0.0457 0.14258 0.0
H1000 H 0.1479 0.96833 0.10353 0.0
H1001 H 0.19422 1.01286 0.13936 0.0
H1002 H 0.15612 1.00535 0.12214 0.0
H1003 H 0.21836 0.94643 0.11537 0.0
H1004 H 0.42469 1.02014 0.17077 0.0
H1005 H 0.36181 1.00366 0.13672 0.0
H1006 H 0.371 0.07191 0.16523 0.0
H1007 H 0.40034 0.99241 0.14966 0.0
Tb1008 Tb 0.4 0.31249 1.02199 0.0
C1009 C 0.36325 0.21824 0.03348 0.0
N1010 N 0.36526 0.22983 0.05366 0.0
C1011 C 0.33331 0.20884 0.06962 0.0
C1012 C 0.34616 0.20118 0.03059 0.0
C1013 C 0.35059 0.22562 0.07166 0.0
C1014 C 0.33123 0.1964 0.04907 0.0
C1015 C 0.37462 0.21444 0.99348 0.0
C1016 C 0.37719 0.22502 1.01519 0.0
C1017 C 0.35836 0.19659 0.99073 0.0
C1018 C 0.34411 0.19003 1.00922 0.0
Tb1019 Tb 0.39495 0.25527 0.05576 0.0
N1020 N 0.39223 0.24289 1.01839 0.0
C1021 C 0.388 0.22253 0.97506 0.0
C1022 C 0.40452 0.25131 1.00026 0.0
C1023 C 0.40284 0.24122 0.97843 0.0
H1024 H 0.35241 0.23512 0.08758 0.0
H1025 H 0.4129 0.24796 0.96417 0.0
H1026 H 0.42679 0.28877 0.97531 0.0
H1027 H 0.40212 0.39925 0.05642 0.0
H1028 H 0.41541 0.26583 1.00247 0.0
H1029 H 0.3866 0.21486 0.9581 0.0
H1030 H 0.38597 0.36013 0.05153 0.0
H1031 H 0.32173 0.2054 0.08391 0.0
H1032 H 0.35627 0.18816 0.97421 0.0
H1033 H 0.33123 0.1767 1.00667 0.0
H1034 H 0.45969 0.29884 0.95049 0.0
H1035 H 0.3178 0.18344 0.04753 0.0
H1036 H 0.43718 0.41061 0.03464 0.0
N1037 N 0.43041 0.31815 0.99731 0.0
C1038 C 0.44033 0.33939 0.99966 0.0
C1039 C 0.45474 0.31016 0.96452 0.0
C1040 C 0.45901 0.34603 0.98534 0.0
C1041 C 0.43622 0.30434 0.97891 0.0
C1042 C 0.46651 0.33086 0.96806 0.0
N1043 N 0.41173 0.34932 0.02789 0.0
C1044 C 0.40121 0.36487 0.04215 0.0
C1045 C 0.44057 0.37753 1.01746 0.0
C1046 C 0.4309 0.35523 1.01543 0.0
C1047 C 0.43022 0.39335 0.0326 0.0
C1048 C 0.41039 0.38703 0.04488 0.0
H1049 H 0.48073 0.33541 0.95671 0.0
H1050 H 0.4835 0.37319 0.97728 0.0
H1051 H 0.46758 0.4006 1.00549 0.0
O1052 O 0.37912 0.33683 1.00605 0.0
O1053 O 0.4127 0.31995 0.05681 0.0
O1054 O 0.41972 0.28203 0.07023 0.0
O1055 O 0.38685 0.30276 0.98988 0.0
O1056 O 0.38453 0.29506 0.04976 0.0
O1057 O 0.37551 0.27763 0.07996 0.0
O1058 O 0.40926 0.222 0.06088 0.0
O1059 O 0.35768 0.26417 0.0418 0.0
O1060 O 0.36044 0.30081 0.02472 0.0
O1061 O 0.39829 0.24309 0.08954 0.0
O1062 O 0.43269 0.25954 0.04235 0.0
O1063 O 0.43629 0.29467 1.02305 0.0
C1064 C 0.422 0.3051 0.07184 0.0
C1065 C 0.38392 0.33642 0.96556 0.0
C1066 C 0.38387 0.37267 0.94375 0.0
C1067 C 0.3944 0.36119 0.92512 0.0
C1068 C 0.39377 0.32508 0.94647 0.0
C1069 C 0.39927 0.33752 0.92652 0.0
C1070 C 0.37905 0.36019 0.96396 0.0
C1071 C 0.37406 0.29727 0.0698 0.0
C1072 C 0.37831 0.32398 0.98718 0.0
C1073 C 0.46902 0.36794 0.98799 0.0
C1074 C 0.4599 0.38359 1.00403 0.0
C1075 C 0.34702 0.28232 0.03142 0.0
C1076 C 0.40175 0.20326 0.09685 0.0
C1077 C 0.40941 0.18223 0.13214 0.0
C1078 C 0.39364 0.16509 0.12557 0.0
C1079 C 0.38678 0.18564 0.08967 0.0
C1080 C 0.41284 0.20145 0.11802 0.0
C1081 C 0.38234 0.16685 0.10431 0.0
C1082 C 0.44638 0.27553 0.03193 0.0
C1083 C 0.40751 0.22366 0.08311 0.0
H1084 H 0.39809 0.37029 0.90921 0.0
H1085 H 0.39729 0.30668 0.94692 0.0
H1086 H 0.40699 0.32869 0.91194 0.0
H1087 H 0.37121 0.36905 0.97849 0.0
H1088 H 0.39083 0.15004 0.13634 0.0
H1089 H 0.37876 0.18623 0.0729 0.0
H1090 H 0.42492 0.2148 0.12328 0.0
H1091 H 0.37061 0.15335 0.09892 0.0
Tb1092 Tb 0.98701 0.89417 0.29664 0.0
C1093 C 0.07002 0.93539 0.27261 0.0
N1094 N 0.05682 0.93221 0.2536 0.0
C1095 C 0.07328 0.9659 0.23583 0.0
C1096 C 0.08543 0.95422 0.27394 0.0
C1097 C 0.0583 0.94697 0.23518 0.0
C1098 C 0.08697 0.96949 0.25525 0.0
C1099 C 0.08079 0.92345 0.31111 0.0
C1100 C 0.06731 0.92022 0.29109 0.0
C1101 C 0.09638 0.94202 0.31237 0.0
C1102 C 0.09865 0.95738 0.29388 0.0
Tb1103 Tb 0.03402 0.90022 0.25399 0.0
N1104 N 0.05179 0.90241 0.28947 0.0
C1105 C 0.07843 0.90782 0.32928 0.0
C1106 C 0.05028 0.88674 0.30706 0.0
C1107 C 0.06321 0.88937 0.32718 0.0
H1108 H 0.04763 0.94428 0.22017 0.0
H1109 H 0.06142 0.87702 0.3411 0.0
H1110 H 0.99817 0.84828 0.33046 0.0
H1111 H 0.90448 0.93887 0.28931 0.0
H1112 H 0.03895 0.87241 0.30653 0.0
H1113 H 0.08844 0.90972 0.3449 0.0
H1114 H 0.94702 0.93664 0.29298 0.0
H1115 H 0.07432 0.97763 0.22133 0.0
H1116 H 0.10678 0.94466 0.32762 0.0
H1117 H 0.11065 0.97169 0.2952 0.0
H1118 H 0.97741 0.81311 0.34282 0.0
H1119 H 0.09859 0.98417 0.25569 0.0
H1120 H 0.88076 0.90351 0.29366 0.0
N1121 N 0.96886 0.86308 0.31363 0.0
C1122 C 0.94577 0.86162 0.31018 0.0
C1123 C 0.96832 0.8265 0.33343 0.0
C1124 C 0.93309 0.84206 0.31729 0.0
C1125 C 0.98003 0.8464 0.32627 0.0
C1126 C 0.94483 0.82406 0.32846 0.0
N1127 N 0.94757 0.90009 0.29757 0.0
C1128 C 0.9369 0.921 0.29436 0.0
C1129 C 0.9103 0.88144 0.30039 0.0
C1130 C 0.93463 0.88097 0.30186 0.0
C1131 C 0.89944 0.90237 0.29493 0.0
C1132 C 0.91278 0.92237 0.29249 0.0
H1133 H 0.93573 0.80873 0.33419 0.0
H1134 H 0.89897 0.82664 0.31902 0.0
H1135 H 0.87892 0.86122 0.30419 0.0
O1136 O 0.97801 0.89413 0.33129 0.0
O1137 O 0.97925 0.87118 0.2685 0.0
O1138 O 1.00508 0.88051 0.2392 0.0
O1139 O 1.0101 0.91019 0.32003 0.0
O1140 O 0.97412 0.91509 0.26795 0.0
O1141 O 1.00246 0.91529 0.23897 0.0
O1142 O 0.06609 0.88703 0.24227 0.0
O1143 O 0.02401 0.93709 0.26439 0.0
O1144 O 0.99494 0.9338 0.29171 0.0
O1145 O 0.04139 0.90083 0.21846 0.0
O1146 O 0.03407 0.8618 0.26313 0.0
O1147 O 1.00521 0.85833 0.29017 0.0
C1148 C 0.98615 0.87038 0.24701 0.0
C1149 C 0.98496 0.93036 0.34701 0.0
C1150 C 0.95176 0.95602 0.35549 0.0
C1151 C 0.9673 0.9719 0.36528 0.0
C1152 C 0.99992 0.94657 0.3568 0.0
C1153 C 0.99106 0.9671 0.36609 0.0
C1154 C 0.96073 0.93506 0.34697 0.0
C1155 C 0.98152 0.92025 0.24704 0.0
C1156 C 0.99423 0.90873 0.33645 0.0
C1157 C 0.90902 0.84166 0.31406 0.0
C1158 C 0.89761 0.86135 0.30562 0.0
C1159 C 1.00953 0.94739 0.27918 0.0
C1160 C 0.08008 0.89851 0.20528 0.0
C1161 C 0.09899 0.8925 0.16827 0.0
C1162 C 0.11567 0.9091 0.17394 0.0
C1163 C 0.09747 0.91422 0.21143 0.0
C1164 C 0.08092 0.8879 0.18371 0.0
C1165 C 0.11485 0.91995 0.19551 0.0
C1166 C 1.02123 0.84803 0.27655 0.0
C1167 C 0.06144 0.89116 0.22085 0.0
H1168 H 0.96105 0.98812 0.37231 0.0
H1169 H 1.0184 0.94338 0.35722 0.0
H1170 H 1.00272 0.97953 0.37371 0.0
H1171 H 0.94872 0.92274 0.33982 0.0
H1172 H 0.12989 0.91275 0.16227 0.0
H1173 H 0.0979 0.92173 0.22846 0.0
H1174 H 0.06799 0.87506 0.17929 0.0
H1175 H 0.12814 0.93221 0.20019 0.0
Tb1176 Tb 0.1452 0.72211 0.50612 0.0
C1177 C 0.18385 0.81284 0.53803 0.0
N1178 N 0.18453 0.79481 0.55284 0.0
C1179 C 0.21859 0.81036 0.57052 0.0
C1180 C 0.20044 0.83066 0.53897 0.0
C1181 C 0.20177 0.7931 0.56876 0.0
C1182 C 0.21778 0.8294 0.55571 0.0
C1183 C 0.16684 0.83022 0.50427 0.0
C1184 C 0.16728 0.81254 0.52107 0.0
C1185 C 0.18269 0.84858 0.50557 0.0
C1186 C 0.19948 0.8488 0.52291 0.0
Tb1187 Tb 0.15424 0.76959 0.55178 0.0
N1188 N 0.15253 0.79423 0.5203 0.0
C1189 C 0.15097 0.82859 0.48629 0.0
C1190 C 0.13792 0.79214 0.50196 0.0
C1191 C 0.13672 0.80925 0.48495 0.0
H1192 H 0.20295 0.77785 0.5794 0.0
H1193 H 0.12494 0.80734 0.47063 0.0
H1194 H 0.09465 0.72895 0.47868 0.0
H1195 H 0.2015 0.64657 0.50614 0.0
H1196 H 0.1276 0.77717 0.49957 0.0
H1197 H 0.15009 0.84174 0.47301 0.0
H1198 H 0.19295 0.68818 0.50672 0.0
H1199 H 0.23228 0.80886 0.58311 0.0
H1200 H 0.18245 0.86239 0.49294 0.0
H1201 H 0.21193 0.86278 0.52344 0.0
H1202 H 0.06213 0.70438 0.46718 0.0
H1203 H 0.23089 0.8427 0.55697 0.0
H1204 H 0.17022 0.61838 0.49898 0.0
N1205 N 0.11594 0.70078 0.48978 0.0
C1206 C 0.11842 0.67754 0.49015 0.0
C1207 C 0.07776 0.69655 0.47389 0.0
C1208 C 0.10038 0.66272 0.48324 0.0
C1209 C 0.09622 0.71046 0.48084 0.0
C1210 C 0.07966 0.67255 0.47551 0.0
N1211 N 0.15672 0.68409 0.50102 0.0
C1212 C 0.17895 0.67627 0.50384 0.0
C1213 C 0.14386 0.64478 0.49519 0.0
C1214 C 0.1397 0.66881 0.49599 0.0
C1215 C 0.16627 0.63671 0.49941 0.0
C1216 C 0.18396 0.65257 0.5034 0.0
H1217 H 0.06538 0.66178 0.47004 0.0
H1218 H 0.09021 0.62696 0.47869 0.0
H1219 H 0.1284 0.61116 0.48921 0.0
O1220 O 0.14233 0.72125 0.47051 0.0
O1221 O 0.12262 0.70788 0.53337 0.0
O1222 O 0.13691 0.73869 0.54511 0.0
O1223 O 0.1602 0.74961 0.48696 0.0
O1224 O 0.1683 0.70996 0.53396 0.0
O1225 O 0.17027 0.73682 0.56447 0.0
O1226 O 0.13935 0.79528 0.57329 0.0
O1227 O 0.18998 0.76223 0.53594 0.0
O1228 O 0.18502 0.73024 0.5117 0.0
O1229 O 0.1568 0.76574 0.58746 0.0
O1230 O 0.11459 0.77048 0.54214 0.0
O1231 O 0.11058 0.74261 0.51319 0.0
C1232 C 0.12422 0.72101 0.5511 0.0
C1233 C 0.17679 0.73174 0.45316 0.0
C1234 C 0.19884 0.70006 0.43563 0.0
C1235 C 0.209 0.71578 0.42025 0.0
C1236 C 0.18727 0.7474 0.43796 0.0
C1237 C 0.20352 0.73943 0.42171 0.0
C1238 C 0.1833 0.70825 0.45212 0.0
C1239 C 0.17494 0.71636 0.55487 0.0
C1240 C 0.15666 0.73831 0.46764 0.0
C1241 C 0.10392 0.63868 0.48362 0.0
C1242 C 0.12566 0.62971 0.4896 0.0
C1243 C 0.19935 0.74596 0.5222 0.0
C1244 C 0.15566 0.79919 0.61085 0.0
C1245 C 0.14555 0.82313 0.64396 0.0
C1246 C 0.16784 0.81929 0.65301 0.0
C1247 C 0.17729 0.79453 0.62087 0.0
C1248 C 0.14045 0.81442 0.62193 0.0
C1249 C 0.18372 0.80545 0.64122 0.0
C1250 C 0.10064 0.75857 0.52733 0.0
C1251 C 0.14636 0.78507 0.59194 0.0
H1252 H 0.22074 0.70975 0.40694 0.0
H1253 H 0.18234 0.76549 0.4381 0.0
H1254 H 0.21128 0.75148 0.4097 0.0
H1255 H 0.17468 0.69568 0.46277 0.0
H1256 H 0.17265 0.82546 0.6699 0.0
H1257 H 0.18878 0.78159 0.6139 0.0
H1258 H 0.12374 0.81774 0.61417 0.0
H1259 H 0.20043 0.80178 0.64879 0.0
Tb1260 Tb 0.03841 0.64981 0.75521 0.0
C1261 C 0.94579 0.68852 0.79949 0.0
N1262 N 0.96832 0.68437 0.80445 0.0
C1263 C 0.96897 0.71765 0.82923 0.0
C1264 C 0.93432 0.7083 0.80799 0.0
C1265 C 0.97946 0.69763 0.82055 0.0
C1266 C 0.94649 0.72337 0.82242 0.0
C1267 C 0.90962 0.67372 0.78475 0.0
C1268 C 0.93358 0.67127 0.78838 0.0
C1269 C 0.89845 0.69436 0.79131 0.0
C1270 C 0.91078 0.7116 0.803 0.0
Tb1271 Tb 0.98408 0.65249 0.78675 0.0
N1272 N 0.94482 0.6512 0.78327 0.0
C1273 C 0.89748 0.65495 0.77559 0.0
C1274 C 0.93286 0.63239 0.77574 0.0
C1275 C 0.90908 0.63408 0.77145 0.0
H1276 H 0.9968 0.69315 0.82594 0.0
H1277 H 0.89969 0.61925 0.76507 0.0
H1278 H 0.06013 0.60711 0.72485 0.0
H1279 H 0.04761 0.67464 0.84534 0.0
H1280 H 0.94161 0.6161 0.773 0.0
H1281 H 0.87903 0.65611 0.77249 0.0
H1282 H 0.03026 0.67677 0.80729 0.0
H1283 H 0.97818 0.7286 0.84119 0.0
H1284 H 0.88008 0.69672 0.78837 0.0
H1285 H 0.90171 0.72691 0.80899 0.0
H1286 H 0.08937 0.57612 0.73044 0.0
H1287 H 0.9383 0.73877 0.82933 0.0
H1288 H 0.07779 0.6455 0.85358 0.0
N1289 N 0.06346 0.62004 0.75892 0.0
C1290 C 0.07384 0.61815 0.7797 0.0
C1291 C 0.08519 0.58782 0.7444 0.0
C1292 C 0.09063 0.60087 0.78363 0.0
C1293 C 0.06872 0.60529 0.74127 0.0
C1294 C 0.09632 0.58569 0.76563 0.0
N1295 N 0.05029 0.6494 0.7929 0.0
C1296 C 0.04355 0.66426 0.80995 0.0
C1297 C 0.07737 0.63126 0.81913 0.0
C1298 C 0.06702 0.63318 0.79723 0.0
C1299 C 0.0703 0.64643 0.83653 0.0
C1300 C 0.0533 0.66292 0.83192 0.0
H1301 H 0.10911 0.57216 0.76801 0.0
H1302 H 0.114 0.58604 0.80873 0.0
H1303 H 0.10252 0.61267 0.83976 0.0
O1304 O 0.07241 0.66112 0.7465 0.0
O1305 O 0.02803 0.61226 0.76493 0.0
O1306 O 0.99176 0.61305 0.7822 0.0
O1307 O 0.04792 0.65237 0.72048 0.0
O1308 O 0.03579 0.68837 0.76515 0.0
O1309 O 0.99976 0.6889 0.78146 0.0
O1310 O 0.96852 0.64919 0.81832 0.0
O1311 O 0.97643 0.66932 0.75436 0.0
O1312 O 1.01273 0.67065 0.73727 0.0
O1313 O 1.00385 0.63635 0.81333 0.0
O1314 O 0.97795 0.63119 0.75618 0.0
O1315 O 1.01233 0.63183 0.73455 0.0
C1316 C 1.01015 0.6006 0.77445 0.0
C1317 C 0.08655 0.65362 0.708 0.0
C1318 C 0.10105 0.656 0.6685 0.0
C1319 C 0.11861 0.64014 0.6741 0.0
C1320 C 0.1048 0.63863 0.71363 0.0
C1321 C 0.12057 0.6317 0.69661 0.0
C1322 C 0.08506 0.6626 0.68551 0.0
C1323 C 1.01795 0.70083 0.77331 0.0
C1324 C 0.06836 0.66031 0.72454 0.0
C1325 C 0.10099 0.59913 0.80537 0.0
C1326 C 0.0944 0.6143 0.82305 0.0
C1327 C 0.99046 0.67535 0.73758 0.0
C1328 C 0.97675 0.61602 0.83923 0.0
C1329 C 0.94362 0.59578 0.85681 0.0
C1330 C 0.95914 0.58212 0.86947 0.0
C1331 C 0.99189 0.60199 0.85188 0.0
C1332 C 0.95251 0.61219 0.84139 0.0
C1333 C 0.98309 0.58495 0.86668 0.0
C1334 C 0.9903 0.62635 0.73745 0.0
C1335 C 0.98535 0.63699 0.82697 0.0
H1336 H 0.1311 0.63473 0.6612 0.0
H1337 H 0.10681 0.63221 0.73101 0.0
H1338 H 0.13443 0.61984 0.7009 0.0
H1339 H 0.07123 0.67455 0.68115 0.0
H1340 H 0.95271 0.56955 0.88177 0.0
H1341 H 1.01042 0.60471 0.85091 0.0
H1342 H 0.94022 0.62297 0.83224 0.0
H1343 H 0.99489 0.57441 0.87665 0.0
Tb1344 Tb 0.15275 0.28838 0.499 0.0
C1345 C 0.10156 0.21069 0.54871 0.0
N1346 N 0.11019 0.23205 0.55352 0.0
C1347 C 0.07713 0.2401 0.57749 0.0
C1348 C 0.07932 0.20417 0.55635 0.0
C1349 C 0.09946 0.24557 0.56985 0.0
C1350 C 0.06668 0.21967 0.57004 0.0
C1351 C 0.1088 0.1714 0.53568 0.0
C1352 C 0.11627 0.19436 0.53876 0.0
C1353 C 0.08583 0.1655 0.54115 0.0
C1354 C 0.07113 0.18184 0.55151 0.0
Tb1355 Tb 0.1456 0.23902 0.53669 0.0
N1356 N 0.13867 0.2004 0.53462 0.0
C1357 C 0.12497 0.15484 0.52835 0.0
C1358 C 0.15487 0.18406 0.52917 0.0
C1359 C 0.14819 0.1611 0.52557 0.0
H1360 H 0.10756 0.26106 0.57619 0.0
H1361 H 0.16097 0.14822 0.52079 0.0
H1362 H 0.20016 0.3092 0.47282 0.0
H1363 H 0.12437 0.30216 0.58773 0.0
H1364 H 0.1729 0.18874 0.52766 0.0
H1365 H 0.11992 0.137 0.52579 0.0
H1366 H 0.12982 0.27969 0.5524 0.0
H1367 H 0.0681 0.2515 0.58929 0.0
H1368 H 0.07964 0.14802 0.53854 0.0
H1369 H 0.05389 0.17667 0.55682 0.0
H1370 H 0.22502 0.34357 0.47617 0.0
H1371 H 0.0495 0.21534 0.57623 0.0
H1372 H 0.14304 0.34037 0.59144 0.0
N1373 N 0.17931 0.31761 0.50195 0.0
C1374 C 0.1767 0.33163 0.52048 0.0
C1375 C 0.21133 0.3406 0.4886 0.0
C1376 C 0.1907 0.3514 0.52324 0.0
C1377 C 0.19708 0.32123 0.48661 0.0
C1378 C 0.20783 0.35602 0.50676 0.0
N1379 N 0.14906 0.30509 0.53492 0.0
C1380 C 0.1371 0.29643 0.55324 0.0
C1381 C 0.15903 0.33868 0.5577 0.0
C1382 C 0.16098 0.32526 0.53743 0.0
C1383 C 0.14498 0.33063 0.57561 0.0
C1384 C 0.1344 0.30913 0.57356 0.0
H1385 H 0.21894 0.37101 0.50831 0.0
H1386 H 0.19807 0.38091 0.54497 0.0
H1387 H 0.17033 0.36977 0.57519 0.0
O1388 O 0.15153 0.3195 0.47908 0.0
O1389 O 0.18997 0.27991 0.50912 0.0
O1390 O 0.18451 0.2519 0.53695 0.0
O1391 O 0.13937 0.2879 0.46575 0.0
O1392 O 0.1151 0.29148 0.51183 0.0
O1393 O 0.10989 0.25553 0.52755 0.0
O1394 O 0.14967 0.21814 0.56535 0.0
O1395 O 0.13793 0.22549 0.50256 0.0
O1396 O 0.12972 0.26071 0.48613 0.0
O1397 O 0.16003 0.25438 0.56655 0.0
O1398 O 0.17093 0.22848 0.5102 0.0
O1399 O 0.17508 0.26019 0.48538 0.0
C1400 C 0.1992 0.26633 0.52534 0.0
C1401 C 0.15663 0.31178 0.43898 0.0
C1402 C 0.15388 0.32275 0.39859 0.0
C1403 C 0.1742 0.31015 0.39386 0.0
C1404 C 0.17624 0.29828 0.43373 0.0
C1405 C 0.18537 0.29808 0.41145 0.0
C1406 C 0.14577 0.3242 0.42142 0.0
C1407 C 0.10042 0.27515 0.51954 0.0
C1408 C 0.14428 0.30896 0.46094 0.0
C1409 C 0.18771 0.36548 0.5427 0.0
C1410 C 0.17189 0.35915 0.55989 0.0
C1411 C 0.13096 0.23797 0.48498 0.0
C1412 C 0.18165 0.22615 0.58857 0.0
C1413 C 0.20745 0.1945 0.60024 0.0
C1414 C 0.22132 0.21066 0.61184 0.0
C1415 C 0.19566 0.24188 0.60042 0.0
C1416 C 0.1876 0.20237 0.58878 0.0
C1417 C 0.21539 0.23413 0.61197 0.0
C1418 C 0.17955 0.23842 0.49136 0.0
C1419 C 0.1602 0.23412 0.5771 0.0
H1420 H 0.18075 0.30859 0.37643 0.0
H1421 H 0.18381 0.28699 0.44651 0.0
H1422 H 0.20044 0.2876 0.40755 0.0
H1423 H 0.13008 0.33382 0.42531 0.0
H1424 H 0.23668 0.20511 0.62098 0.0
H1425 H 0.19129 0.26011 0.60087 0.0
H1426 H 0.17701 0.18987 0.5798 0.0
H1427 H 0.22612 0.24636 0.62111 0.0
Tb1428 Tb 0.54537 0.39266 0.28269 0.0
C1429 C 0.49448 0.43397 0.19697 0.0
N1430 N 0.49021 0.42945 0.21948 0.0
C1431 C 0.46702 0.46388 0.22221 0.0
C1432 C 0.48687 0.45467 0.18664 0.0
C1433 C 0.475 0.44305 0.23162 0.0
C1434 C 0.47364 0.4701 0.19987 0.0
C1435 C 0.50701 0.41948 0.15986 0.0
C1436 C 0.50393 0.41643 0.18373 0.0
C1437 C 0.50167 0.44099 0.14981 0.0
C1438 C 0.49149 0.45853 0.16318 0.0
Tb1439 Tb 0.50768 0.39668 0.23337 0.0
N1440 N 0.50804 0.3957 0.19403 0.0
C1441 C 0.5144 0.40053 0.14674 0.0
C1442 C 0.51354 0.37677 0.18109 0.0
C1443 C 0.51719 0.37897 0.15733 0.0
H1444 H 0.4699 0.43828 0.2489 0.0
H1445 H 0.52208 0.36402 0.14718 0.0
H1446 H 0.56868 0.34435 0.30569 0.0
H1447 H 0.45966 0.42989 0.2994 0.0
H1448 H 0.51521 0.35998 0.18898 0.0
H1449 H 0.51707 0.40214 0.12832 0.0
H1450 H 0.49316 0.42093 0.27605 0.0
H1451 H 0.45586 0.47514 0.23222 0.0
H1452 H 0.50431 0.44383 0.13155 0.0
H1453 H 0.48629 0.47457 0.15499 0.0
H1454 H 0.56463 0.32203 0.34127 0.0
H1455 H 0.46739 0.48621 0.19259 0.0
H1456 H 0.45501 0.41184 0.33766 0.0
N1457 N 0.54091 0.36781 0.31344 0.0
C1458 C 0.523 0.37231 0.32787 0.0
C1459 C 0.55297 0.33632 0.33791 0.0
C1460 C 0.51978 0.35942 0.34834 0.0
C1461 C 0.5554 0.34943 0.31784 0.0
C1462 C 0.53531 0.34158 0.35345 0.0
N1463 N 0.50991 0.39957 0.30056 0.0
C1464 C 0.49272 0.4138 0.29276 0.0
C1465 C 0.48724 0.39284 0.33523 0.0
C1466 C 0.50697 0.38874 0.32125 0.0
C1467 C 0.4704 0.40829 0.32751 0.0
C1468 C 0.47301 0.41853 0.30601 0.0
H1469 H 0.53337 0.33129 0.36894 0.0
H1470 H 0.49814 0.35465 0.37854 0.0
H1471 H 0.46961 0.38402 0.36709 0.0
O1472 O 0.56475 0.41092 0.30776 0.0
O1473 O 0.5291 0.35711 0.27871 0.0
O1474 O 0.50979 0.3573 0.24398 0.0
O1475 O 0.5782 0.38078 0.29123 0.0
O1476 O 0.53882 0.43196 0.28002 0.0
O1477 O 0.5163 0.43351 0.24764 0.0
O1478 O 0.47497 0.39294 0.21981 0.0
O1479 O 0.54052 0.40919 0.21997 0.0
O1480 O 0.56121 0.41176 0.2539 0.0
O1481 O 0.48158 0.38421 0.25598 0.0
O1482 O 0.53405 0.37112 0.22451 0.0
O1483 O 0.56074 0.37206 0.25439 0.0
C1484 C 0.51768 0.34535 0.2626 0.0
C1485 C 0.6036 0.41114 0.29453 0.0
C1486 C 0.63624 0.43607 0.30113 0.0
C1487 C 0.64421 0.43231 0.27864 0.0
C1488 C 0.61183 0.40723 0.27189 0.0
C1489 C 0.63211 0.41763 0.26418 0.0
C1490 C 0.6159 0.42571 0.30908 0.0
C1491 C 0.52803 0.44493 0.26412 0.0
C1492 C 0.58319 0.3988 0.3032 0.0
C1493 C 0.50077 0.3642 0.36268 0.0
C1494 C 0.48454 0.38091 0.35615 0.0
C1495 C 0.55869 0.41567 0.23171 0.0
C1496 C 0.45487 0.36085 0.23372 0.0
C1497 C 0.44054 0.33243 0.20568 0.0
C1498 C 0.42866 0.3212 0.22368 0.0
C1499 C 0.44283 0.34936 0.25128 0.0
C1500 C 0.45381 0.35203 0.21099 0.0
C1501 C 0.42991 0.32958 0.24627 0.0
C1502 C 0.5539 0.36495 0.23391 0.0
C1503 C 0.46705 0.38292 0.23842 0.0
H1504 H 0.66045 0.43965 0.27279 0.0
H1505 H 0.6031 0.39556 0.26028 0.0
H1506 H 0.63898 0.41348 0.24737 0.0
H1507 H 0.61037 0.42802 0.32682 0.0
H1508 H 0.41807 0.30617 0.22027 0.0
H1509 H 0.44316 0.35586 0.26878 0.0
H1510 H 0.46327 0.36045 0.1972 0.0
H1511 H 0.42053 0.32086 0.25991 0.0
Tb1512 Tb 0.39443 0.76491 1.00407 0.0
C1513 C 0.42873 0.86351 0.05125 0.0
N1514 N 0.4316 0.84055 0.05426 0.0
C1515 C 0.46995 0.84742 0.069 0.0
C1516 C 0.44647 0.87944 0.05628 0.0
C1517 C 0.45174 0.83242 0.06388 0.0
C1518 C 0.46748 0.87104 0.06478 0.0
C1519 C 0.40232 0.89485 0.04368 0.0
C1520 C 0.40724 0.87098 0.04498 0.0
C1521 C 0.42018 0.91094 0.04716 0.0
C1522 C 0.4423 0.90321 0.05343 0.0
Tb1523 Tb 0.40311 0.81654 0.03991 0.0
N1524 N 0.39066 0.85472 0.04214 0.0
C1525 C 0.37947 0.90179 0.03993 0.0
C1526 C 0.36803 0.86159 0.03992 0.0
C1527 C 0.36218 0.88508 0.03862 0.0
H1528 H 0.45391 0.81426 0.06778 0.0
H1529 H 0.34429 0.89026 0.03663 0.0
H1530 H 0.34989 0.74849 0.97309 0.0
H1531 H 0.42185 0.74206 0.09147 0.0
H1532 H 0.35424 0.84919 0.03885 0.0
H1533 H 0.37488 0.91995 0.03892 0.0
H1534 H 0.4254 0.7621 0.05513 0.0
H1535 H 0.48585 0.84072 0.07626 0.0
H1536 H 0.41686 0.92935 0.04584 0.0
H1537 H 0.45577 0.91575 0.05684 0.0
H1538 H 0.31558 0.72339 0.97809 0.0
H1539 H 0.48155 0.88267 0.06886 0.0
H1540 H 0.38786 0.71762 0.09955 0.0
N1541 N 0.36209 0.74297 1.00719 0.0
C1542 C 0.35901 0.73195 0.02758 0.0
C1543 C 0.32762 0.72568 0.99214 0.0
C1544 C 0.33968 0.71749 0.03115 0.0
C1545 C 0.34705 0.73976 0.98933 0.0
C1546 C 0.32388 0.71454 1.01317 0.0
N1547 N 0.39392 0.74923 0.04078 0.0
C1548 C 0.41082 0.75104 0.0572 0.0
C1549 C 0.37252 0.72356 0.06613 0.0
C1550 C 0.3753 0.73521 0.04487 0.0
C1551 C 0.38941 0.72621 0.08302 0.0
C1552 C 0.40866 0.73989 0.07847 0.0
H1553 H 0.30882 0.70358 1.01529 0.0
H1554 H 0.32205 0.69517 0.05549 0.0
H1555 H 0.35081 0.70037 0.08607 0.0
O1556 O 0.40403 0.73085 0.99441 0.0
O1557 O 0.35793 0.77828 1.01282 0.0
O1558 O 0.36303 0.80963 0.03711 0.0
O1559 O 0.39406 0.7559 0.96899 0.0
O1560 O 0.43331 0.76446 1.01454 0.0
O1561 O 0.43894 0.79911 0.03315 0.0
O1562 O 0.40869 0.81548 0.07546 0.0
O1563 O 0.42499 0.81972 1.00923 0.0
O1564 O 0.41665 0.78854 0.98557 0.0
O1565 O 0.38626 0.79073 0.05921 0.0
O1566 O 0.38358 0.82772 1.01026 0.0
O1567 O 0.37954 0.7957 0.98592 0.0
C1568 C 0.3485 0.7948 0.02606 0.0
C1569 C 0.39631 0.71701 0.95614 0.0
C1570 C 0.40689 0.69921 0.91949 0.0
C1571 C 0.3905 0.68172 0.92356 0.0
C1572 C 0.38044 0.69922 0.96043 0.0
C1573 C 0.37726 0.68186 0.94389 0.0
C1574 C 0.40893 0.71715 0.93558 0.0
C1575 C 0.44821 0.77984 1.02385 0.0
C1576 C 0.40185 0.7353 0.97266 0.0
C1577 C 0.3368 0.70632 0.05241 0.0
C1578 C 0.35317 0.70933 0.06983 0.0
C1579 C 0.42671 0.80831 0.98972 0.0
C1580 C 0.37328 0.80958 0.09331 0.0
C1581 C 0.34935 0.84267 0.10455 0.0
C1582 C 0.33538 0.82785 0.11777 0.0
C1583 C 0.35937 0.79496 0.10668 0.0
C1584 C 0.36851 0.83351 0.09304 0.0
C1585 C 0.34067 0.80418 0.11915 0.0
C1586 C 0.37674 0.81802 0.99099 0.0
C1587 C 0.39218 0.80059 0.07863 0.0
H1588 H 0.3885 0.66757 0.91152 0.0
H1589 H 0.37081 0.69858 0.97644 0.0
H1590 H 0.36496 0.66813 0.94712 0.0
H1591 H 0.42108 0.73111 0.93244 0.0
H1592 H 0.32038 0.83455 0.12686 0.0
H1593 H 0.36283 0.77654 0.10729 0.0
H1594 H 0.37932 0.84516 0.08329 0.0
H1595 H 0.3299 0.79288 0.12948 0.0
Tb1596 Tb 0.02812 0.40295 0.79472 0.0
C1597 C 0.93052 0.37241 0.7444 0.0
N1598 N 0.95342 0.36918 0.74101 0.0
C1599 C 0.94576 0.33101 0.72629 0.0
C1600 C 0.91423 0.35496 0.73963 0.0
C1601 C 0.96112 0.34903 0.73113 0.0
C1602 C 0.92221 0.3338 0.73101 0.0
C1603 C 0.89973 0.39954 0.75185 0.0
C1604 C 0.92351 0.39407 0.75049 0.0
C1605 C 0.88326 0.38196 0.74879 0.0
C1606 C 0.89053 0.35961 0.74271 0.0
Tb1607 Tb 0.9782 0.39714 0.75493 0.0
N1608 N 0.94015 0.41033 0.75277 0.0
C1609 C 0.8933 0.42261 0.75512 0.0
C1610 C 0.93375 0.43315 0.75411 0.0
C1611 C 0.91041 0.43957 0.75569 0.0
H1612 H 0.97924 0.34665 0.72701 0.0
H1613 H 0.90565 0.45762 0.75723 0.0
H1614 H 0.04336 0.45216 0.82231 0.0
H1615 H 0.05336 0.37311 0.70837 0.0
H1616 H 0.94652 0.44657 0.75423 0.0
H1617 H 0.87523 0.42761 0.75616 0.0
H1618 H 0.02793 0.37567 0.74112 0.0
H1619 H 0.95212 0.315 0.71893 0.0
H1620 H 0.86491 0.38569 0.75016 0.0
H1621 H 0.8777 0.34637 0.7395 0.0
H1622 H 0.07439 0.4808 0.81963 0.0
H1623 H 0.9103 0.3199 0.72714 0.0
H1624 H 0.08705 0.39894 0.7051 0.0
N1625 N 0.05413 0.43313 0.79242 0.0
C1626 C 0.06894 0.43256 0.77424 0.0
C1627 C 0.07327 0.46719 0.8069 0.0
C1628 C 0.08685 0.44907 0.772 0.0
C1629 C 0.05585 0.45056 0.80849 0.0
C1630 C 0.08901 0.4663 0.78873 0.0
N1631 N 0.04723 0.40121 0.75931 0.0
C1632 C 0.04298 0.38611 0.74162 0.0
C1633 C 0.08027 0.41573 0.73773 0.0
C1634 C 0.06546 0.41611 0.75724 0.0
C1635 C 0.07613 0.39972 0.72031 0.0
C1636 C 0.05724 0.38507 0.72216 0.0
H1637 H 0.10246 0.47928 0.78749 0.0
H1638 H 0.11572 0.46064 0.75106 0.0
H1639 H 0.11007 0.43135 0.72109 0.0
O1640 O 0.05415 0.38314 0.81168 0.0
O1641 O 1.01911 0.43973 0.78275 0.0
O1642 O 0.98587 0.43654 0.76089 0.0
O1643 O 0.03874 0.41209 0.82783 0.0
O1644 O 0.02885 0.36417 0.78331 0.0
O1645 O 0.99563 0.36164 0.76165 0.0
O1646 O 0.97679 0.39299 0.71928 0.0
O1647 O 0.97333 0.37246 0.78356 0.0
O1648 O 1.00025 0.3834 0.81081 0.0
O1649 O 1.00454 0.41243 0.73468 0.0
O1650 O 0.96727 0.41892 0.78287 0.0
O1651 O 0.99544 0.41604 0.81124 0.0
C1652 C 1.00226 0.45011 0.77082 0.0
C1653 C 0.04481 0.38053 0.85162 0.0
C1654 C 0.05492 0.35841 0.8858 0.0
C1655 C 0.03148 0.35749 0.89214 0.0
C1656 C 1.02148 0.3803 0.85904 0.0
C1657 C 1.01485 0.36837 0.87877 0.0
C1658 C 0.0616 0.36944 0.86519 0.0
C1659 C 1.01365 0.3508 0.77174 0.0
C1660 C 0.05142 0.3941 0.83099 0.0
C1661 C 0.1018 0.44824 0.75295 0.0
C1662 C 0.09856 0.43157 0.73589 0.0
C1663 C 0.98195 0.37175 0.80454 0.0
C1664 C 0.98468 0.42841 0.70228 0.0
C1665 C 0.95246 0.45388 0.6911 0.0
C1666 C 0.96841 0.46776 0.67898 0.0
C1667 C 1.0002 0.44258 0.69031 0.0
C1668 C 0.96079 0.43393 0.70203 0.0
C1669 C 0.992 0.46202 0.67848 0.0
C1670 C 0.97426 0.42155 0.80411 0.0
C1671 C 0.99284 0.40828 0.7158 0.0
H1672 H 0.02615 0.34889 0.90789 0.0
H1673 H 1.0083 0.39007 0.85023 0.0
H1674 H 0.99686 0.36822 0.88411 0.0
H1675 H 0.07973 0.37025 0.86036 0.0
H1676 H 0.96269 0.4831 0.6699 0.0
H1677 H 1.01855 0.43866 0.69019 0.0
H1678 H 0.9486 0.42296 0.71088 0.0
H1679 H 1.00404 0.47289 0.66913 0.0
Tb1680 Tb 0.39943 0.29039 0.5426 0.0
C1681 C 0.44189 0.21056 0.48719 0.0
N1682 N 0.43275 0.232 0.48353 0.0
C1683 C 0.46197 0.23951 0.4549 0.0
C1684 C 0.46252 0.20358 0.47605 0.0
C1685 C 0.44142 0.2456 0.46616 0.0
C1686 C 0.47293 0.2187 0.46032 0.0
C1687 C 0.43821 0.17224 0.50406 0.0
C1688 C 0.42967 0.1949 0.50082 0.0
C1689 C 0.45947 0.16579 0.49412 0.0
C1690 C 0.47156 0.1814 0.48013 0.0
Tb1691 Tb 0.40064 0.23997 0.50562 0.0
N1692 N 0.4089 0.20149 0.50992 0.0
C1693 C 0.4249 0.15655 0.51677 0.0
C1694 C 0.39545 0.1859 0.52161 0.0
C1695 C 0.40332 0.16333 0.52534 0.0
H1696 H 0.43279 0.26117 0.46086 0.0
H1697 H 0.39268 0.15115 0.53476 0.0
H1698 H 0.35404 0.3118 0.57353 0.0
H1699 H 0.41918 0.30087 0.45137 0.0
H1700 H 0.37859 0.19067 0.52788 0.0
H1701 H 0.43088 0.139 0.51963 0.0
H1702 H 0.41931 0.28086 0.48852 0.0
H1703 H 0.46918 0.25074 0.44179 0.0
H1704 H 0.46638 0.14853 0.49662 0.0
H1705 H 0.48754 0.17588 0.47194 0.0
H1706 H 0.32608 0.3437 0.56976 0.0
H1707 H 0.48875 0.21395 0.4514 0.0
H1708 H 0.39572 0.33625 0.44669 0.0
N1709 N 0.37048 0.31802 0.54109 0.0
C1710 C 0.36979 0.3303 0.52115 0.0
C1711 C 0.3384 0.34028 0.55607 0.0
C1712 C 0.35388 0.34871 0.51832 0.0
C1713 C 0.35438 0.32226 0.5582 0.0
C1714 C 0.33838 0.3538 0.5362 0.0
N1715 N 0.39836 0.30488 0.5057 0.0
C1716 C 0.40998 0.29641 0.48714 0.0
C1717 C 0.38293 0.33557 0.48178 0.0
C1718 C 0.3842 0.32366 0.50304 0.0
C1719 C 0.39621 0.32762 0.46325 0.0
C1720 C 0.40949 0.3077 0.46585 0.0
H1721 H 0.32593 0.36775 0.5346 0.0
H1722 H 0.34157 0.37544 0.49521 0.0
H1723 H 0.36704 0.36399 0.46324 0.0
O1724 O 0.39929 0.32201 0.56125 0.0
O1725 O 0.36107 0.28168 0.53771 0.0
O1726 O 0.36316 0.25574 0.50785 0.0
O1727 O 0.42225 0.29529 0.57017 0.0
O1728 O 0.43624 0.29087 0.52731 0.0
O1729 O 0.43776 0.2545 0.51177 0.0
O1730 O 0.3858 0.21596 0.48489 0.0
O1731 O 0.41747 0.22825 0.53647 0.0
O1732 O 0.4165 0.26065 0.5599 0.0
O1733 O 0.39007 0.25172 0.47196 0.0
O1734 O 0.37772 0.23158 0.5348 0.0
O1735 O 0.38058 0.26245 0.56051 0.0
C1736 C 0.34998 0.26921 0.52185 0.0
C1737 C 0.40506 0.31417 0.6006 0.0
C1738 C 0.41423 0.32071 0.64079 0.0
C1739 C 0.39539 0.3067 0.64729 0.0
C1740 C 0.38679 0.29964 0.60731 0.0
C1741 C 0.38163 0.2964 0.63055 0.0
C1742 C 0.41844 0.32495 0.61734 0.0
C1743 C 0.44921 0.27323 0.51948 0.0
C1744 C 0.41314 0.31445 0.57673 0.0
C1745 C 0.35346 0.36111 0.49756 0.0
C1746 C 0.36798 0.35459 0.47936 0.0
C1747 C 0.42275 0.23901 0.55554 0.0
C1748 C 0.37722 0.22011 0.44535 0.0
C1749 C 0.36668 0.18566 0.42337 0.0
C1750 C 0.36555 0.19909 0.40328 0.0
C1751 C 0.37537 0.23351 0.42529 0.0
C1752 C 0.37236 0.19626 0.4442 0.0
C1753 C 0.36965 0.22297 0.40432 0.0
C1754 C 0.37362 0.2413 0.55507 0.0
C1755 C 0.3824 0.23052 0.46802 0.0
H1756 H 0.39186 0.30288 0.66522 0.0
H1757 H 0.37715 0.29 0.59471 0.0
H1758 H 0.36761 0.28507 0.63559 0.0
H1759 H 0.43284 0.33573 0.61201 0.0
H1760 H 0.36119 0.19121 0.38695 0.0
H1761 H 0.37843 0.25198 0.42579 0.0
H1762 H 0.37303 0.18562 0.45958 0.0
H1763 H 0.36844 0.23332 0.38883 0.0
Tb1764 Tb 0.50942 0.64153 0.28851 0.0
C1765 C 0.60923 0.67621 0.24522 0.0
N1766 N 0.58656 0.67806 0.24002 0.0
C1767 C 0.59321 0.71635 0.22501 0.0
C1768 C 0.62484 0.6945 0.2412 0.0
C1769 C 0.57853 0.69761 0.22924 0.0
C1770 C 0.61643 0.71496 0.23141 0.0
C1771 C 0.64074 0.65127 0.25629 0.0
C1772 C 0.61691 0.65515 0.25272 0.0
C1773 C 0.65635 0.66975 0.25386 0.0
C1774 C 0.64838 0.6914 0.24633 0.0
Tb1775 Tb 0.56245 0.64895 0.25276 0.0
N1776 N 0.60115 0.63793 0.25443 0.0
C1777 C 0.6482 0.6288 0.26116 0.0
C1778 C 0.60873 0.6156 0.25733 0.0
C1779 C 0.63217 0.61079 0.26115 0.0
H1780 H 0.56068 0.69882 0.22382 0.0
H1781 H 0.63783 0.59317 0.26408 0.0
H1782 H 0.49325 0.58855 0.30936 0.0
H1783 H 0.49226 0.67571 0.20196 0.0
H1784 H 0.59671 0.60139 0.25731 0.0
H1785 H 0.66635 0.62504 0.26401 0.0
H1786 H 0.51585 0.66929 0.23548 0.0
H1787 H 0.5866 0.73182 0.21681 0.0
H1788 H 0.67468 0.66725 0.25691 0.0
H1789 H 0.66065 0.70532 0.24372 0.0
H1790 H 0.4616 0.56113 0.30292 0.0
H1791 H 0.62783 0.72943 0.22803 0.0
H1792 H 0.45624 0.65367 0.19665 0.0
N1793 N 0.48318 0.61171 0.28226 0.0
C1794 C 0.4689 0.6147 0.26404 0.0
C1795 C 0.46322 0.57625 0.29203 0.0
C1796 C 0.45056 0.59911 0.25974 0.0
C1797 C 0.48108 0.59201 0.29564 0.0
C1798 C 0.44761 0.58004 0.27426 0.0
N1799 N 0.49286 0.64577 0.2522 0.0
C1800 C 0.49972 0.66057 0.23503 0.0
C1801 C 0.46 0.63487 0.22864 0.0
C1802 C 0.47377 0.63235 0.24862 0.0
C1803 C 0.46629 0.65128 0.21219 0.0
C1804 C 0.48653 0.66379 0.21518 0.0
H1805 H 0.43381 0.56772 0.27141 0.0
H1806 H 0.42191 0.5909 0.23727 0.0
H1807 H 0.43008 0.62232 0.21005 0.0
O1808 O 0.48815 0.66446 0.30834 0.0
O1809 O 0.51988 0.60553 0.27559 0.0
O1810 O 0.55533 0.60926 0.25733 0.0
O1811 O 0.4905 0.62947 0.3168 0.0
O1812 O 0.50906 0.68002 0.27825 0.0
O1813 O 0.5438 0.68495 0.25903 0.0
O1814 O 0.56802 0.65266 0.2175 0.0
O1815 O 0.56262 0.67384 0.2805 0.0
O1816 O 0.53749 0.65881 0.30761 0.0
O1817 O 0.5387 0.63307 0.23 0.0
O1818 O 0.57305 0.62888 0.28279 0.0
O1819 O 0.53997 0.62597 0.30578 0.0
C1820 C 0.53796 0.59544 0.26518 0.0
C1821 C 0.49182 0.65408 0.3478 0.0
C1822 C 0.48592 0.66969 0.38618 0.0
C1823 C 0.50757 0.66109 0.39294 0.0
C1824 C 0.51296 0.6446 0.35536 0.0
C1825 C 0.52095 0.6484 0.37758 0.0
C1826 C 0.47803 0.66641 0.36352 0.0
C1827 C 0.52449 0.69455 0.26858 0.0
C1828 C 0.48401 0.64921 0.3241 0.0
C1829 C 0.43622 0.60248 0.24063 0.0
C1830 C 0.44088 0.62037 0.22515 0.0
C1831 C 0.55523 0.67195 0.30176 0.0
C1832 C 0.56208 0.61764 0.19919 0.0
C1833 C 0.5953 0.59261 0.18998 0.0
C1834 C 0.58143 0.58053 0.17429 0.0
C1835 C 0.5486 0.6055 0.18331 0.0
C1836 C 0.58563 0.61134 0.20194 0.0
C1837 C 0.55834 0.58716 0.17078 0.0
C1838 C 0.56227 0.62202 0.30158 0.0
C1839 C 0.55241 0.63744 0.21237 0.0
H1840 H 0.51373 0.66352 0.41038 0.0
H1841 H 0.52306 0.63365 0.34421 0.0
H1842 H 0.53734 0.64114 0.38302 0.0
H1843 H 0.46124 0.67299 0.35837 0.0
H1844 H 0.58847 0.566 0.16477 0.0
H1845 H 0.53068 0.61027 0.18052 0.0
H1846 H 0.5966 0.62093 0.21343 0.0
H1847 H 0.54788 0.57788 0.15845 0.0
Tb1848 Tb 0.15008 0.77455 0.05017 0.0
C1849 C 0.10813 0.85065 0.98263 0.0
N1850 N 0.11161 0.82751 0.98323 0.0
C1851 C 0.07557 0.82153 0.96353 0.0
C1852 C 0.08755 0.86019 0.97377 0.0
C1853 C 0.09633 0.81295 0.97247 0.0
C1854 C 0.07087 0.84522 0.96472 0.0
C1855 C 0.12429 0.88891 0.987 0.0
C1856 C 0.12631 0.86472 0.98894 0.0
C1857 C 0.10311 0.89868 0.98002 0.0
C1858 C 0.08477 0.88432 0.97334 0.0
Tb1859 Tb 0.14371 0.81587 1.00354 0.0
N1860 N 0.14652 0.8545 0.99526 0.0
C1861 C 0.14384 0.90243 0.99136 0.0
C1862 C 0.16607 0.86748 0.99789 0.0
C1863 C 0.16494 0.89163 0.9963 0.0
H1864 H 0.09982 0.79457 0.97164 0.0
H1865 H 0.18031 0.90192 0.99904 0.0
H1866 H 0.19782 0.76297 0.07972 0.0
H1867 H 0.1223 0.7403 0.96614 0.0
H1868 H 0.18243 0.85928 1.00188 0.0
H1869 H 0.14302 0.92112 0.99016 0.0
H1870 H 0.12439 0.76939 0.99546 0.0
H1871 H 0.06319 0.80986 0.95583 0.0
H1872 H 0.10105 0.91728 0.97884 0.0
H1873 H 0.06889 0.89205 0.96707 0.0
H1874 H 0.22651 0.73145 0.08207 0.0
H1875 H 0.0548 0.85184 0.95775 0.0
H1876 H 0.14753 0.70594 0.96792 0.0
N1877 N 0.18001 0.7487 0.05125 0.0
C1878 C 0.17974 0.73191 0.03497 0.0
C1879 C 0.21331 0.73119 0.0689 0.0
C1880 C 0.19608 0.71367 0.0354 0.0
C1881 C 0.19677 0.74881 0.06784 0.0
C1882 C 0.2128 0.71336 0.05277 0.0
N1883 N 0.14846 0.75173 1.01705 0.0
C1884 C 0.13427 0.75425 0.99833 0.0
C1885 C 0.16346 0.71633 0.99992 0.0
C1886 C 0.16347 0.73336 1.01746 0.0
C1887 C 0.14799 0.71856 0.98171 0.0
C1888 C 0.13364 0.73781 0.98074 0.0
H1889 H 0.22564 0.69968 0.05362 0.0
H1890 H 0.20776 0.68228 1.01859 0.0
H1891 H 0.17922 0.68459 0.98749 0.0
O1892 O 0.14729 0.74484 0.07225 0.0
O1893 O 0.18738 0.78469 0.04004 0.0
O1894 O 0.18346 0.81003 1.00939 0.0
O1895 O 0.1415 0.77854 0.08488 0.0
O1896 O 0.11185 0.76978 0.03877 0.0
O1897 O 0.10851 0.80023 1.01381 0.0
O1898 O 0.14412 0.81731 0.96787 0.0
O1899 O 0.12455 0.83111 0.03216 0.0
O1900 O 0.12637 0.80244 0.05986 0.0
O1901 O 0.16252 0.78978 0.98574 0.0
O1902 O 0.16339 0.83337 0.02997 0.0
O1903 O 0.16651 0.80778 0.06098 0.0
C1904 C 0.19748 0.79749 1.02351 0.0
C1905 C 0.15479 0.75236 0.1124 0.0
C1906 C 0.15385 0.7354 0.15117 0.0
C1907 C 0.17368 0.74823 0.15681 0.0
C1908 C 0.17356 0.76616 0.11923 0.0
C1909 C 0.18341 0.76347 0.14093 0.0
C1910 C 0.14488 0.73708 0.12858 0.0
C1911 C 0.09809 0.78355 0.026 0.0
C1912 C 0.14275 0.75705 0.09037 0.0
C1913 C 0.19548 0.69648 1.01841 0.0
C1914 C 0.17921 0.6978 1.00073 0.0
C1915 C 0.11952 0.82293 0.05268 0.0
C1916 C 0.18104 0.80956 0.95392 0.0
C1917 C 0.2038 0.84199 0.93874 0.0
C1918 C 0.22056 0.82629 0.93079 0.0
C1919 C 0.1978 0.79408 0.94563 0.0
C1920 C 0.18417 0.83353 0.95003 0.0
C1921 C 0.21743 0.80245 0.93405 0.0
C1922 C 0.16894 0.8286 0.05148 0.0
C1923 C 0.16003 0.80138 0.96629 0.0
H1924 H 0.1809 0.74758 0.17398 0.0
H1925 H 0.18006 0.77979 0.10822 0.0
H1926 H 0.19798 0.77409 0.14585 0.0
H1927 H 0.12954 0.7274 0.12395 0.0
H1928 H 0.23587 0.83244 0.92188 0.0
H1929 H 0.19571 0.77563 0.9481 0.0
H1930 H 0.17135 0.84594 0.95575 0.0
H1931 H 0.23031 0.79042 0.92763 0.0
Tb1932 Tb 0.7737 0.99804 0.65873 0.0
C1933 C 0.69413 0.05654 0.60883 0.0
N1934 N 0.71713 0.05768 0.61289 0.0
C1935 C 0.72315 0.07541 0.57586 0.0
C1936 C 0.68476 0.06364 0.58759 0.0
C1937 C 0.73152 0.06836 0.59731 0.0
C1938 C 0.69974 0.0725 0.57074 0.0
C1939 C 0.65565 0.05176 0.62455 0.0
C1940 C 0.67987 0.05069 0.62703 0.0
C1941 C 0.64614 0.05682 0.60284 0.0
C1942 C 0.6607 0.06276 0.58436 0.0
Tb1943 Tb 0.72915 0.04042 0.64649 0.0
N1944 N 0.68983 0.04634 0.64776 0.0
C1945 C 0.64181 0.04888 0.64416 0.0
C1946 C 0.67646 0.0454 0.66724 0.0
C1947 C 0.65228 0.04628 0.66568 0.0
H1948 H 0.74968 0.07059 0.60115 0.0
H1949 H 0.64173 0.04488 0.68106 0.0
H1950 H 0.78797 0.97781 0.71208 0.0
H1951 H 0.80133 0.08012 0.61914 0.0
H1952 H 0.68433 0.04351 0.684 0.0
H1953 H 0.62311 0.04958 0.64302 0.0
H1954 H 0.77429 0.04982 0.62716 0.0
H1955 H 0.73476 0.08303 0.5633 0.0
H1956 H 0.62755 0.05724 0.60045 0.0
H1957 H 0.65314 0.06767 0.56802 0.0
H1958 H 0.81968 0.98251 0.73928 0.0
H1959 H 0.69324 0.0781 0.55416 0.0
H1960 H 0.83665 0.08389 0.64241 0.0
N1961 N 0.80002 1.0038 0.68842 0.0
C1962 C 0.81595 1.02063 0.68503 0.0
C1963 C 0.81904 0.99319 0.72397 0.0
C1964 C 0.83444 0.02393 0.70062 0.0
C1965 C 0.80117 0.99045 0.70811 0.0
C1966 C 0.83598 1.00976 0.72004 0.0
N1967 N 0.79411 0.03264 0.65286 0.0
C1968 C 0.78998 0.0491 0.63634 0.0
C1969 C 0.82887 0.05384 0.66324 0.0
C1970 C 0.81302 0.03543 0.66661 0.0
C1971 C 0.82498 0.06955 0.64548 0.0
C1972 C 0.8052 0.06739 0.63226 0.0
H1973 H 0.84985 1.01185 0.73237 0.0
H1974 H 0.86495 0.04418 0.70837 0.0
H1975 H 0.86012 0.07038 0.6755 0.0
O1976 O 0.79856 0.97576 0.64253 0.0
O1977 O 0.7629 1.01153 0.69408 0.0
O1978 O 0.7343 0.03848 0.68704 0.0
O1979 O 0.78239 0.96672 0.67384 0.0
O1980 O 0.77781 1.00539 0.61936 0.0
O1981 O 0.74614 0.02818 0.61185 0.0
O1982 O 0.7245 0.076 0.64425 0.0
O1983 O 0.71875 1.00893 0.62766 0.0
O1984 O 0.74675 0.98202 0.63764 0.0
O1985 O 0.75391 0.06187 0.6628 0.0
O1986 O 0.7136 1.01639 0.67037 0.0
O1987 O 0.73897 0.98513 0.67103 0.0
C1988 C 0.74808 0.02708 0.7025 0.0
C1989 C 0.78934 0.93597 0.64952 0.0
C1990 C 0.80059 0.89876 0.63349 0.0
C1991 C 0.77885 0.88972 0.63936 0.0
C1992 C 0.76741 0.92663 0.65495 0.0
C1993 C 0.76246 0.90357 0.6503 0.0
C1994 C 0.80599 0.92183 0.63883 0.0
C1995 C 0.76414 1.01587 0.60353 0.0
C1996 C 0.79541 0.95943 0.65749 0.0
C1997 C 0.85057 0.04159 0.69673 0.0
C1998 C 0.84782 0.05648 0.67803 0.0
C1999 C 0.72767 0.98788 0.62664 0.0
C2000 C 0.73198 0.09336 0.67952 0.0
C2001 C 0.69927 0.10584 0.70382 0.0
C2002 C 0.71497 0.11641 0.71886 0.0
C2003 C 0.74729 0.1044 0.69455 0.0
C2004 C 0.70786 0.09479 0.68408 0.0
C2005 C 0.73877 0.11601 0.71402 0.0
C2006 C 0.71822 0.99459 0.67485 0.0
C2007 C 0.74064 0.08014 0.65924 0.0
H2008 H 0.77461 0.87189 0.63551 0.0
H2009 H 0.75415 0.93697 0.66329 0.0
H2010 H 0.74576 0.89649 0.65497 0.0
H2011 H 0.823 0.92865 0.63478 0.0
H2012 H 0.70881 0.12487 0.73437 0.0
H2013 H 0.76578 0.10381 0.69139 0.0
H2014 H 0.69555 0.08697 0.67255 0.0
H2015 H 0.7507 0.12432 0.72569 0.0
Tb2016 Tb 0.76812 0.99102 0.39959 0.0
C2017 C 0.84002 0.04826 0.45137 0.0
N2018 N 0.81879 0.05163 0.44184 0.0
C2019 C 0.80843 0.07735 0.47269 0.0
C2020 C 0.84546 0.05773 0.47303 0.0
C2021 C 0.80391 0.06773 0.45109 0.0
C2022 C 0.829 0.07178 0.48402 0.0
C2023 C 0.87967 0.03478 0.44706 0.0
C2024 C 0.85709 0.03731 0.43829 0.0
C2025 C 0.88456 0.04242 0.46948 0.0
C2026 C 0.86753 0.05398 0.48239 0.0
Tb2027 Tb 0.8135 0.03269 0.40763 0.0
N2028 N 0.85202 0.031 0.41626 0.0
C2029 C 0.89687 0.02549 0.43271 0.0
C2030 C 0.86911 0.02343 0.40176 0.0
C2031 C 0.89165 1.02016 0.40986 0.0
H2032 H 0.78806 0.07219 0.44234 0.0
H2033 H 0.90503 1.01375 0.3984 0.0
H2034 H 0.75413 0.95707 0.35605 0.0
H2035 H 0.74442 0.08008 0.41994 0.0
H2036 H 0.86559 1.02015 0.38392 0.0
H2037 H 0.91442 0.02319 0.43884 0.0
H2038 H 0.76648 0.04455 0.4244 0.0
H2039 H 0.79612 0.08912 0.48053 0.0
H2040 H 0.90175 0.04037 0.47662 0.0
H2041 H 0.8719 0.06076 0.49921 0.0
H2042 H 0.72698 0.9581 0.32322 0.0
H2043 H 0.83253 0.0794 0.50068 0.0
H2044 H 0.71558 0.08354 0.38885 0.0
N2045 N 0.74476 0.99061 0.36811 0.0
C2046 C 0.73163 1.00978 0.36483 0.0
C2047 C 0.72808 0.97271 0.33481 0.0
C2048 C 0.71594 1.01109 0.34633 0.0
C2049 C 0.74333 0.97213 0.35342 0.0
C2050 C 0.71418 0.9922 0.33134 0.0
N2051 N 0.75087 0.02687 0.39661 0.0
C2052 C 0.75402 0.04514 0.41108 0.0
C2053 C 0.72174 0.0489 0.37608 0.0
C2054 C 0.73481 0.02849 0.37945 0.0
C2055 C 0.72524 0.06758 0.39087 0.0
C2056 C 0.74146 0.06567 0.40843 0.0
H2057 H 0.70235 0.9926 0.31692 0.0
H2058 H 0.69056 0.0326 0.32912 0.0
H2059 H 0.69548 0.06564 0.35526 0.0
O2060 O 0.73608 0.97782 0.41074 0.0
O2061 O 0.7787 1.00017 0.363 0.0
O2062 O 0.80115 0.03241 0.36824 0.0
O2063 O 0.76313 0.95488 0.39962 0.0
O2064 O 0.76383 1.0029 0.43763 0.0
O2065 O 0.79635 0.0244 0.4433 0.0
O2066 O 0.8343 0.06115 0.40163 0.0
O2067 O 0.82717 0.99977 0.42129 0.0
O2068 O 0.79318 0.97905 0.42469 0.0
O2069 O 0.7967 0.06345 0.39691 0.0
O2070 O 0.82593 1.00823 0.38199 0.0
O2071 O 0.80118 0.97657 0.38445 0.0
C2072 C 0.78924 1.01831 0.35351 0.0
C2073 C 0.72492 0.94014 0.39892 0.0
C2074 C 0.70789 0.90197 0.40235 0.0
C2075 C 0.69004 0.90865 0.38744 0.0
C2076 C 0.70641 0.94704 0.38484 0.0
C2077 C 0.68949 0.93107 0.37849 0.0
C2078 C 0.72568 0.91748 0.40739 0.0
C2079 C 0.77796 1.01367 0.45262 0.0
C2080 C 0.74221 0.95646 0.40761 0.0
C2081 C 0.70281 0.03128 0.34315 0.0
C2082 C 0.70566 0.05011 0.35801 0.0
C2083 C 0.81519 0.98208 0.42917 0.0
C2084 C 0.82142 0.09045 0.37643 0.0
C2085 C 0.84904 0.10983 0.3508 0.0
C2086 C 0.83174 0.12589 0.3449 0.0
C2087 C 0.80448 0.10674 0.37035 0.0
C2088 C 0.84375 0.09214 0.36654 0.0
C2089 C 0.80963 0.12431 0.35463 0.0
C2090 C 0.82091 0.98644 0.37752 0.0
C2091 C 0.81683 0.0742 0.39556 0.0
H2092 H 0.67593 0.89692 0.38373 0.0
H2093 H 0.70463 0.96479 0.37924 0.0
H2094 H 0.67532 0.9364 0.36756 0.0
H2095 H 0.73908 0.9125 0.4195 0.0
H2096 H 0.83541 0.13982 0.33295 0.0
H2097 H 0.78743 0.10623 0.37821 0.0
H2098 H 0.85718 0.07987 0.37117 0.0
H2099 H 0.79652 0.13695 0.3502 0.0
Tb2100 Tb 0.80355 1.02044 0.1493 0.0
C2101 C 0.74073 0.09001 0.19846 0.0
N2102 N 0.73879 0.06809 0.19022 0.0
C2103 C 0.71603 0.05748 0.22324 0.0
C2104 C 0.73228 0.09589 0.22047 0.0
C2105 C 0.72466 0.05253 0.20122 0.0
C2106 C 0.72053 0.079 0.23324 0.0
C2107 C 0.74988 0.13027 0.191 0.0
C2108 C 0.74893 0.10708 0.18369 0.0
C2109 C 0.74363 0.13583 0.21377 0.0
C2110 C 0.73471 0.1187 0.22844 0.0
Tb2111 Tb 0.75767 0.06225 0.1559 0.0
N2112 N 0.75411 0.10113 0.16157 0.0
C2113 C 0.75625 0.14723 0.17497 0.0
C2114 C 0.75856 0.11777 0.14547 0.0
C2115 C 0.76013 0.141 0.152 0.0
H2116 H 0.72086 0.03603 0.1935 0.0
H2117 H 0.76425 0.1541 0.13931 0.0
H2118 H 0.832 1.00526 0.1024 0.0
H2119 H 0.71762 0.99296 0.17847 0.0
H2120 H 0.76096 0.11323 0.12764 0.0
H2121 H 0.75733 0.16526 0.17993 0.0
H2122 H 0.74973 1.01952 0.17473 0.0
H2123 H 0.70587 0.04475 0.23245 0.0
H2124 H 0.74462 0.15351 0.21986 0.0
H2125 H 0.72884 0.12346 0.24554 0.0
H2126 H 0.83364 0.97188 0.07583 0.0
H2127 H 0.71375 0.08281 0.25025 0.0
H2128 H 0.71724 0.95705 0.15554 0.0
N2129 N 0.80347 0.99255 0.12141 0.0
C2130 C 0.78657 0.97646 0.12266 0.0
C2131 C 0.82049 0.97272 0.08913 0.0
C2132 C 0.78621 0.95742 0.10745 0.0
C2133 C 0.81997 0.99129 0.10453 0.0
C2134 C 0.8037 0.95549 0.09081 0.0
N2135 N 0.76947 0.99924 0.15182 0.0
C2136 C 0.75094 1.00388 0.16569 0.0
C2137 C 0.75027 0.96412 0.13933 0.0
C2138 C 0.76894 0.9799 0.13839 0.0
C2139 C 0.73191 0.96863 0.15434 0.0
C2140 C 0.73213 0.9888 0.16735 0.0
H2141 H 0.80401 0.94116 0.07879 0.0
H2142 H 0.76765 0.92648 0.09754 0.0
H2143 H 0.7361 0.93233 0.12552 0.0
O2144 O 0.82397 0.99111 0.15866 0.0
O2145 O 0.79142 0.02765 0.11254 0.0
O2146 O 0.76043 0.05251 0.11626 0.0
O2147 O 0.83964 0.02277 0.14805 0.0
O2148 O 0.79451 1.01788 0.18855 0.0
O2149 O 0.7688 0.04788 0.19195 0.0
O2150 O 0.7248 0.07611 0.15278 0.0
O2151 O 0.78863 0.07987 0.16683 0.0
O2152 O 0.81289 0.04852 0.17275 0.0
O2153 O 0.73216 0.04107 0.14045 0.0
O2154 O 0.78221 0.07738 0.13138 0.0
O2155 O 0.81416 0.05261 0.13045 0.0
C2156 C 0.7743 0.03944 0.10233 0.0
C2157 C 0.863 0.98936 0.14401 0.0
C2158 C 0.89564 0.9629 0.14927 0.0
C2159 C 0.90443 0.9695 0.12764 0.0
C2160 C 0.87328 0.99712 0.12338 0.0
C2161 C 0.89321 0.98648 0.11477 0.0
C2162 C 0.87427 0.97209 0.15676 0.0
C2163 C 0.78184 0.03172 0.20254 0.0
C2164 C 0.84333 1.0018 0.15481 0.0
C2165 C 0.76816 0.9413 0.10894 0.0
C2166 C 0.75021 0.94464 0.12486 0.0
C2167 C 0.80766 0.07058 0.17487 0.0
C2168 C 0.70765 0.06624 0.1179 0.0
C2169 C 0.69909 0.09726 0.09044 0.0
C2170 C 0.69 0.08079 0.07521 0.0
C2171 C 0.6982 0.05008 0.10264 0.0
C2172 C 0.70771 0.0899 0.11168 0.0
C2173 C 0.68937 0.05739 0.08141 0.0
C2174 C 0.8036 0.0723 0.12478 0.0
C2175 C 0.71766 0.05886 0.1402 0.0
H2176 H 0.92087 0.96287 0.12144 0.0
H2177 H 0.86664 1.01201 0.11428 0.0
H2178 H 0.90077 0.99242 0.09874 0.0
H2179 H 0.86729 0.96706 0.1734 0.0
H2180 H 0.68323 0.08607 0.05865 0.0
H2181 H 0.69778 0.03188 0.10705 0.0
H2182 H 0.71489 0.10282 0.1231 0.0
H2183 H 0.68218 0.04484 0.06964 0.0
Tb2184 Tb 0.72758 1.0203 0.9076 0.0
C2185 C 0.7983 0.08766 0.85389 0.0
N2186 N 0.79727 0.06701 0.86529 0.0
C2187 C 0.82612 0.05109 0.83984 0.0
C2188 C 0.81226 0.09007 0.83399 0.0
C2189 C 0.81221 0.04945 0.85948 0.0
C2190 C 0.82578 0.0713 0.82675 0.0
C2191 C 0.7875 0.12836 0.85111 0.0
C2192 C 0.78622 0.10688 0.86266 0.0
C2193 C 0.8006 0.13033 0.83079 0.0
C2194 C 0.81296 0.11131 0.82231 0.0
Tb2195 Tb 0.77382 0.06833 0.89707 0.0
N2196 N 0.77384 0.10483 0.88264 0.0
C2197 C 0.77574 0.1474 0.86041 0.0
C2198 C 0.76247 0.12341 0.89179 0.0
C2199 C 0.76321 0.14491 0.88085 0.0
H2200 H 0.81346 0.03416 0.86988 0.0
H2201 H 0.75397 0.15952 0.88811 0.0
H2202 H 0.70153 1.00764 0.95664 0.0
H2203 H 0.815 0.99618 0.88186 0.0
H2204 H 0.75224 0.12152 0.90701 0.0
H2205 H 0.77629 0.16413 0.85199 0.0
H2206 H 0.78171 0.02297 0.88669 0.0
H2207 H 0.83735 0.03687 0.83499 0.0
H2208 H 0.80162 0.14668 0.82169 0.0
H2209 H 0.82342 0.11334 0.8069 0.0
H2210 H 0.70044 0.97452 0.98387 0.0
H2211 H 0.83673 0.07255 0.8116 0.0
H2212 H 0.81467 0.95862 0.90195 0.0
N2213 N 0.72844 0.99328 0.93626 0.0
C2214 C 0.74476 0.97659 0.93436 0.0
C2215 C 0.71282 0.9747 0.96983 0.0
C2216 C 0.74541 0.95772 0.94972 0.0
C2217 C 0.71314 0.99317 0.95423 0.0
C2218 C 0.72875 0.95662 0.96728 0.0
N2219 N 0.76178 0.99986 0.90594 0.0
C2220 C 0.78093 1.00622 0.89395 0.0
C2221 C 0.78104 0.96448 0.91748 0.0
C2222 C 0.76218 0.98 0.91851 0.0
C2223 C 0.79979 0.97001 0.90328 0.0
C2224 C 0.79998 0.99126 0.89188 0.0
H2225 H 0.72865 0.94243 0.97949 0.0
H2226 H 0.76396 0.92648 0.95911 0.0
H2227 H 0.79528 0.93239 0.93077 0.0
O2228 O 0.71116 0.9907 0.89419 0.0
O2229 O 0.74483 0.02643 0.94317 0.0
O2230 O 0.77218 0.05556 0.9367 0.0
O2231 O 0.69152 1.01748 0.91099 0.0
O2232 O 0.73902 1.02117 0.86842 0.0
O2233 O 0.76668 0.05005 0.8621 0.0
O2234 O 0.79426 0.09158 0.91513 0.0
O2235 O 0.73998 0.08227 0.88548 0.0
O2236 O 0.71857 0.04772 0.88205 0.0
O2237 O 0.80488 0.05493 0.90963 0.0
O2238 O 0.74449 0.05787 0.91488 0.0
O2239 O 0.71197 0.0496 0.92749 0.0
C2240 C 0.76131 0.04042 0.95176 0.0
C2241 C 0.6752 0.97982 0.91087 0.0
C2242 C 0.64951 0.94788 0.90234 0.0
C2243 C 0.6401 0.94924 0.92462 0.0
C2244 C 0.6643 0.9823 0.93247 0.0
C2245 C 0.64772 0.96631 0.93974 0.0
C2246 C 0.66804 0.96216 0.89617 0.0
C2247 C 0.75252 0.03368 0.85344 0.0
C2248 C 0.69082 0.99738 0.90114 0.0
C2249 C 0.76326 0.94129 0.94769 0.0
C2250 C 0.78108 0.94466 0.93155 0.0
C2251 C 0.72233 0.06996 0.87721 0.0
C2252 C 0.83442 0.08395 0.91107 0.0
C2253 C 0.86426 0.1132 0.91614 0.0
C2254 C 0.87985 0.09956 0.90342 0.0
C2255 C 0.85033 0.07026 0.89868 0.0
C2256 C 0.84154 0.10543 0.91958 0.0
C2257 C 0.87278 0.07827 0.89455 0.0
C2258 C 0.72695 0.06594 0.92674 0.0
C2259 C 0.81089 0.07585 0.91683 0.0
H2260 H 0.62559 0.93845 0.92955 0.0
H2261 H 0.66762 0.99701 0.94334 0.0
H2262 H 0.63955 0.96822 0.95645 0.0
H2263 H 0.67488 0.96152 0.87873 0.0
H2264 H 0.89757 0.1051 0.90085 0.0
H2265 H 0.84569 0.05324 0.89257 0.0
H2266 H 0.82969 0.11559 0.93004 0.0
H2267 H 0.88494 0.06765 0.88501 0.0
Tb2268 Tb 0.65076 0.79086 0.99102 0.0
C2269 C 0.6038 0.71143 0.05195 0.0
N2270 N 0.61597 0.73148 0.05421 0.0
C2271 C 0.59418 0.74119 0.08816 0.0
C2272 C 0.58497 0.70662 0.06676 0.0
C2273 C 0.61275 0.74517 0.07321 0.0
C2274 C 0.57983 0.72218 0.08454 0.0
C2275 C 0.59901 0.67378 0.03381 0.0
C2276 C 0.61104 0.69491 0.03573 0.0
C2277 C 0.57945 0.66969 0.04765 0.0
C2278 C 0.57249 0.68601 0.06409 0.0
Tb2279 Tb 0.64534 0.73482 0.02814 0.0
N2280 N 0.63035 0.69896 1.02273 0.0
C2281 C 0.60726 0.65707 1.01835 0.0
C2282 C 0.63881 0.68243 1.00813 0.0
C2283 C 0.62733 0.66136 1.0056 0.0
H2284 H 0.62436 0.75916 0.07682 0.0
H2285 H 0.63396 0.64844 0.9938 0.0
H2286 H 0.69806 0.81254 0.96703 0.0
H2287 H 0.63061 0.79766 0.08238 0.0
H2288 H 0.65409 0.68564 0.99811 0.0
H2289 H 0.59846 0.64066 1.01641 0.0
H2290 H 0.63738 0.77672 0.04549 0.0
H2291 H 0.59116 0.75258 0.10266 0.0
H2292 H 0.56992 0.65363 0.04622 0.0
H2293 H 0.55781 0.68221 0.07514 0.0
H2294 H 0.72022 0.84902 0.96897 0.0
H2295 H 0.56554 0.71903 0.09628 0.0
H2296 H 0.64304 0.83822 0.08588 0.0
N2297 N 0.67566 0.82127 0.99461 0.0
C2298 C 0.67223 0.83536 1.01286 0.0
C2299 C 0.70641 0.84569 0.98117 0.0
C2300 C 0.68502 0.8559 1.01553 0.0
C2301 C 0.69342 0.82535 0.97961 0.0
C2302 C 0.70177 0.86138 0.99891 0.0
N2303 N 0.64866 0.80606 0.02761 0.0
C2304 C 0.64069 0.79475 0.04653 0.0
C2305 C 0.65613 0.83986 0.05094 0.0
C2306 C 0.65795 0.82748 0.0301 0.0
C2307 C 0.64483 0.82939 0.06951 0.0
C2308 C 0.63775 0.80642 0.06752 0.0
H2309 H 0.71206 0.87695 1.00034 0.0
H2310 H 0.69101 0.88547 0.03764 0.0
H2311 H 0.66565 0.87135 0.06883 0.0
O2312 O 0.64094 0.82294 0.97587 0.0
O2313 O 0.68804 0.7831 1.00443 0.0
O2314 O 0.68422 0.74879 0.02571 0.0
O2315 O 0.64509 0.79216 0.9557 0.0
O2316 O 0.61295 0.78776 1.00595 0.0
O2317 O 0.60958 0.75412 0.02833 0.0
O2318 O 0.66497 0.70782 0.04179 0.0
O2319 O 0.63344 0.72688 0.9931 0.0
O2320 O 0.62358 0.76456 0.98203 0.0
O2321 O 0.66254 0.74207 0.05878 0.0
O2322 O 0.66083 0.75074 0.99962 0.0
O2323 O 0.67276 0.76744 0.97017 0.0
C2324 C 0.69807 0.76628 1.01723 0.0
C2325 C 0.65274 0.82673 0.93654 0.0
C2326 C 0.64799 0.8515 0.90321 0.0
C2327 C 0.67032 0.8456 0.89555 0.0
C2328 C 0.6741 0.81917 0.92743 0.0
C2329 C 0.6834 0.82953 0.90779 0.0
C2330 C 0.63995 0.84326 0.92448 0.0
C2331 C 0.59946 0.77289 1.01855 0.0
C2332 C 0.64111 0.81418 0.95528 0.0
C2333 C 0.68162 0.86944 0.03534 0.0
C2334 C 0.66715 0.86142 0.05307 0.0
C2335 C 0.62278 0.74169 0.97909 0.0
C2336 C 0.66634 0.70875 0.0828 0.0
C2337 C 0.66693 0.67348 0.10604 0.0
C2338 C 0.66265 0.68683 0.12585 0.0
C2339 C 0.66232 0.72178 0.10288 0.0
C2340 C 0.66865 0.68459 0.08457 0.0
C2341 C 0.66036 0.71082 0.12422 0.0
C2342 C 0.67217 0.74779 0.98024 0.0
C2343 C 0.66956 0.72028 0.06029 0.0
H2344 H 0.6767 0.8518 0.8791 0.0
H2345 H 0.683 0.80438 0.93455 0.0
H2346 H 0.69994 0.82376 0.90105 0.0
H2347 H 0.62247 0.84733 0.93011 0.0
H2348 H 0.66176 0.67882 0.1427 0.0
H2349 H 0.6609 0.74045 0.10219 0.0
H2350 H 0.67207 0.67441 0.06925 0.0
H2351 H 0.65743 0.72099 0.13961 0.0
Tb2352 Tb 1.01075 0.14973 0.79341 0.0
C2353 C 0.0905 0.19279 0.73762 0.0
N2354 N 0.0682 0.18624 0.73407 0.0
C2355 C 0.06205 0.2194 0.70996 0.0
C2356 C 0.09884 0.21398 0.729 0.0
C2357 C 0.05468 0.19807 0.71865 0.0
C2358 C 0.08398 0.22773 0.71574 0.0
C2359 C 0.12932 0.18218 0.7496 0.0
C2360 C 0.10566 0.17686 0.74743 0.0
C2361 C 0.13727 0.20419 0.74303 0.0
C2362 C 0.12208 0.22003 0.73266 0.0
Tb2363 Tb 0.05817 0.15267 0.75249 0.0
N2364 N 0.09751 0.15539 0.75274 0.0
C2365 C 0.14442 0.16487 0.75733 0.0
C2366 C 0.11236 0.13804 0.75871 0.0
C2367 C 0.13597 0.14259 0.76145 0.0
H2368 H 0.03779 0.19158 0.71409 0.0
H2369 H 0.14766 0.12889 0.76659 0.0
H2370 H 0.99198 0.10728 0.82673 0.0
H2371 H 0.99183 0.17222 0.70401 0.0
H2372 H 0.10612 0.12068 0.7612 0.0
H2373 H 0.16274 0.16826 0.75927 0.0
H2374 H 1.01234 0.17558 0.74007 0.0
H2375 H 0.05088 0.22935 0.69876 0.0
H2376 H 0.15535 0.20874 0.74489 0.0
H2377 H 0.12872 0.23646 0.7266 0.0
H2378 H 0.96299 0.07595 0.82443 0.0
H2379 H 0.08971 0.24416 0.70882 0.0
H2380 H 0.96191 0.14227 0.6992 0.0
N2381 N 0.98534 0.11972 0.79284 0.0
C2382 C 0.97305 0.11718 0.77316 0.0
C2383 C 0.96563 0.08743 0.80993 0.0
C2384 C 0.95641 0.0995 0.77113 0.0
C2385 C 0.98191 0.10522 0.81122 0.0
C2386 C 0.95272 0.08464 0.78985 0.0
N2387 N 0.99499 0.14804 0.75698 0.0
C2388 C 0.9995 0.16264 0.73904 0.0
C2389 C 0.96584 0.12898 0.73382 0.0
C2390 C 0.9781 0.13165 0.75467 0.0
C2391 C 0.97092 0.14375 0.71547 0.0
C2392 C 0.98777 0.16066 0.71813 0.0
H2393 H 0.94011 0.07083 0.7889 0.0
H2394 H 0.93133 0.08355 0.74856 0.0
H2395 H 0.9394 0.10948 0.71598 0.0
O2396 O 0.97905 0.16393 0.80486 0.0
O2397 O 1.01855 0.11186 0.78398 0.0
O2398 O 0.04631 0.114 0.75536 0.0
O2399 O 1.00328 0.15012 0.82905 0.0
O2400 O 1.01088 0.18806 0.78277 0.0
O2401 O 0.04371 0.18902 0.76095 0.0
O2402 O 0.07503 0.14903 0.72141 0.0
O2403 O 0.07201 0.16649 0.78387 0.0
O2404 O 0.0401 0.16963 0.8082 0.0
O2405 O 0.03915 0.13766 0.72493 0.0
O2406 O 0.06912 0.12868 0.77982 0.0
O2407 O 0.04056 0.13138 0.80851 0.0
C2408 C 0.03168 0.10098 0.76829 0.0
C2409 C 0.96431 0.15343 0.84186 0.0
C2410 C 0.94496 0.15964 0.87869 0.0
C2411 C 0.92699 0.14494 0.87186 0.0
C2412 C 0.94567 0.13966 0.83471 0.0
C2413 C 0.92748 0.13485 0.84997 0.0
C2414 C 0.96383 0.16325 0.8639 0.0
C2415 C 0.0268 0.20067 0.77174 0.0
C2416 C 0.98343 0.16018 0.82641 0.0
C2417 C 0.94425 0.09696 0.75044 0.0
C2418 C 0.94891 0.1117 0.73187 0.0
C2419 C 0.06224 0.17314 0.80321 0.0
C2420 C 0.06595 0.11658 0.69993 0.0
C2421 C 0.09852 0.09174 0.68858 0.0
C2422 C 0.08486 0.08216 0.67113 0.0
C2423 C 0.05257 0.10687 0.68236 0.0
C2424 C 0.08884 0.1084 0.7032 0.0
C2425 C 0.06194 0.08958 0.66819 0.0
C2426 C 0.06095 0.12402 0.80073 0.0
C2427 C 0.05805 0.1378 0.71195 0.0
H2428 H 0.91201 0.14244 0.88287 0.0
H2429 H 0.94481 0.13313 0.8173 0.0
H2430 H 0.91319 0.12415 0.84443 0.0
H2431 H 0.97744 0.17508 0.86901 0.0
H2432 H 0.09201 0.06918 0.65966 0.0
H2433 H 0.0352 0.11317 0.67913 0.0
H2434 H 0.09969 0.11566 0.7165 0.0
H2435 H 0.0516 0.08232 0.65449 0.0
Tb2436 Tb 0.8977 0.26907 0.49371 0.0
C2437 C 0.94432 0.34557 0.55437 0.0
N2438 N 0.93774 0.32316 0.55627 0.0
C2439 C 0.97049 0.31514 0.58033 0.0
C2440 C 0.96526 0.35329 0.56399 0.0
C2441 C 0.94947 0.30841 0.57061 0.0
C2442 C 0.97877 0.33751 0.57645 0.0
C2443 C 0.9336 0.38505 0.54527 0.0
C2444 C 0.92849 0.36126 0.54547 0.0
C2445 C 0.95546 0.3926 0.55269 0.0
C2446 C 0.97122 0.37675 0.56216 0.0
Tb2447 Tb 0.90455 0.3139 0.53705 0.0
N2448 N 0.90712 0.35335 0.53957 0.0
C2449 C 0.91617 0.4006 0.53886 0.0
C2450 C 0.88948 0.36859 0.53545 0.0
C2451 C 0.89389 0.39237 0.53444 0.0
H2452 H 0.94307 0.29111 0.57365 0.0
H2453 H 0.88009 0.40436 0.53033 0.0
H2454 H 0.84869 0.25762 0.46597 0.0
H2455 H 0.92524 0.24075 0.57989 0.0
H2456 H 0.87209 0.3625 0.53235 0.0
H2457 H 0.91943 0.41904 0.53833 0.0
H2458 H 0.92538 0.26601 0.54722 0.0
H2459 H 0.98025 0.30313 0.59083 0.0
H2460 H 0.95987 0.4108 0.55233 0.0
H2461 H 0.98746 0.38299 0.56902 0.0
H2462 H 0.81859 0.22757 0.46653 0.0
H2463 H 0.99496 0.34277 0.58417 0.0
H2464 H 0.89651 0.20949 0.58287 0.0
N2465 N 0.86604 0.24525 0.49556 0.0
C2466 C 0.86526 0.23042 0.51362 0.0
C2467 C 0.83179 0.22789 0.47971 0.0
C2468 C 0.84779 0.21338 0.51518 0.0
C2469 C 0.84933 0.24443 0.47892 0.0
C2470 C 0.83117 0.21207 0.49779 0.0
N2471 N 0.89799 0.2497 0.52902 0.0
C2472 C 0.91339 0.25233 0.54669 0.0
C2473 C 0.88067 0.21775 0.55019 0.0
C2474 C 0.88161 0.23272 0.53086 0.0
C2475 C 0.89674 0.22052 0.56777 0.0
C2476 C 0.91301 0.23803 0.56608 0.0
H2477 H 0.81752 0.19927 0.49844 0.0
H2478 H 0.83406 0.1851 0.53552 0.0
H2479 H 0.86284 0.18892 0.56622 0.0
O2480 O 0.90268 0.23677 0.47634 0.0
O2481 O 0.86131 0.28136 0.50192 0.0
O2482 O 0.86451 0.30628 0.53263 0.0
O2483 O 0.90136 0.26844 0.45798 0.0
O2484 O 0.93594 0.26577 0.50488 0.0
O2485 O 0.94034 0.29751 0.52821 0.0
O2486 O 0.89962 0.32852 0.56845 0.0
O2487 O 0.92488 0.32552 0.50738 0.0
O2488 O 0.92155 0.29559 0.48098 0.0
O2489 O 0.89281 0.29119 0.56409 0.0
O2490 O 0.8825 0.32854 0.51068 0.0
O2491 O 0.88401 0.30248 0.48008 0.0
C2492 C 0.8508 0.29389 0.51813 0.0
C2493 C 0.88988 0.23596 0.43692 0.0
C2494 C 0.8912 0.21065 0.40336 0.0
C2495 C 0.87037 0.22033 0.39546 0.0
C2496 C 0.87073 0.24735 0.42706 0.0
C2497 C 0.86017 0.23862 0.40738 0.0
C2498 C 0.89974 0.21724 0.42509 0.0
C2499 C 0.95021 0.28004 0.51646 0.0
C2500 C 0.90296 0.24633 0.45616 0.0
C2501 C 0.84724 0.19833 0.5341 0.0
C2502 C 0.86362 0.20053 0.55157 0.0
C2503 C 0.92926 0.31609 0.48719 0.0
C2504 C 0.8806 0.31191 0.59984 0.0
C2505 C 0.86541 0.3399 0.62783 0.0
C2506 C 0.86879 0.32337 0.64536 0.0
C2507 C 0.88345 0.29566 0.61749 0.0
C2508 C 0.87073 0.33368 0.60505 0.0
C2509 C 0.87735 0.30133 0.64011 0.0
C2510 C 0.8798 0.32333 0.48879 0.0
C2511 C 0.89384 0.30907 0.5783 0.0
H2512 H 0.86334 0.2156 0.37886 0.0
H2513 H 0.86461 0.26373 0.43366 0.0
H2514 H 0.84519 0.2473 0.40026 0.0
H2515 H 0.91573 0.2097 0.43139 0.0
H2516 H 0.86517 0.32754 0.6632 0.0
H2517 H 0.89165 0.27913 0.61403 0.0
H2518 H 0.86824 0.34626 0.59143 0.0
H2519 H 0.88011 0.28889 0.65378 0.0
Tb2520 Tb 0.56224 0.89343 0.7531 0.0
C2521 C 0.47056 0.92879 0.76486 0.0
N2522 N 0.4848 0.93216 0.78299 0.0
C2523 C 0.46394 0.96718 0.79262 0.0
C2524 C 0.45191 0.94408 0.76038 0.0
C2525 C 0.48213 0.9517 0.79636 0.0
C2526 C 0.4485 0.96315 0.77478 0.0
C2527 C 0.46148 0.9075 0.73027 0.0
C2528 C 0.47545 0.91078 0.74999 0.0
C2529 C 0.44236 0.92199 0.72633 0.0
C2530 C 0.43759 0.94025 0.74135 0.0
Tb2531 Tb 0.51161 0.90308 0.78997 0.0
N2532 N 0.49441 0.89726 0.75415 0.0
C2533 C 0.46736 0.8901 0.7147 0.0
C2534 C 0.50038 0.88084 0.73819 0.0
C2535 C 0.4871 0.87696 0.71854 0.0
H2536 H 0.49427 0.9557 0.80992 0.0
H2537 H 0.49236 0.86394 0.70617 0.0
H2538 H 0.54466 0.8508 0.71824 0.0
H2539 H 0.65026 0.9233 0.76573 0.0
H2540 H 0.51597 0.87134 0.73931 0.0
H2541 H 0.45717 0.88712 0.69937 0.0
H2542 H 0.60832 0.92886 0.7596 0.0
H2543 H 0.46196 0.9823 0.80345 0.0
H2544 H 0.43144 0.91952 0.7114 0.0
H2545 H 0.4231 0.95164 0.7378 0.0
H2546 H 0.55992 0.81291 0.70549 0.0
H2547 H 0.43443 0.97522 0.77184 0.0
H2548 H 0.66784 0.88444 0.76133 0.0
N2549 N 0.57546 0.86014 0.73603 0.0
C2550 C 0.59786 0.85487 0.74012 0.0
C2551 C 0.57074 0.82444 0.7154 0.0
C2552 C 0.60736 0.8335 0.73323 0.0
C2553 C 0.56219 0.84591 0.72258 0.0
C2554 C 0.59328 0.81794 0.72125 0.0
N2555 N 0.60197 0.89318 0.75301 0.0
C2556 C 0.61571 0.91175 0.7578 0.0
C2557 C 0.63555 0.86815 0.75197 0.0
C2558 C 0.61168 0.87205 0.74909 0.0
C2559 C 0.6494 0.8867 0.75879 0.0
C2560 C 0.63952 0.90869 0.76121 0.0
H2561 H 0.59992 0.80132 0.71562 0.0
H2562 H 0.6384 0.81237 0.7329 0.0
H2563 H 0.66314 0.84269 0.74956 0.0
O2564 O 0.57286 0.89335 0.71943 0.0
O2565 O 0.56634 0.87143 0.78289 0.0
O2566 O 0.53972 0.88575 0.80911 0.0
O2567 O 0.53856 0.90705 0.72851 0.0
O2568 O 0.57485 0.91526 0.78096 0.0
O2569 O 0.54262 0.91902 0.80509 0.0
O2570 O 0.48694 0.88386 0.80958 0.0
O2571 O 0.52263 0.9391 0.77673 0.0
O2572 O 0.55703 0.93371 0.75664 0.0
O2573 O 0.49796 0.91668 0.82044 0.0
O2574 O 0.51131 0.86344 0.78315 0.0
O2575 O 0.54489 0.85819 0.76248 0.0
C2576 C 0.55816 0.87331 0.80386 0.0
C2577 C 0.55922 0.92094 0.69431 0.0
C2578 C 0.58971 0.94175 0.67315 0.0
C2579 C 0.57555 0.941 0.65341 0.0
C2580 C 0.54534 0.92125 0.67463 0.0
C2581 C 0.55346 0.9313 0.65433 0.0
C2582 C 0.58115 0.93194 0.6937 0.0
C2583 C 0.56473 0.92253 0.80004 0.0
C2584 C 0.55409 0.90343 0.71205 0.0
C2585 C 0.63081 0.82888 0.7376 0.0
C2586 C 0.64488 0.84617 0.74705 0.0
C2587 C 0.54069 0.94844 0.76542 0.0
C2588 C 0.4952 0.88947 0.84922 0.0
C2589 C 0.48801 0.87011 0.8856 0.0
C2590 C 0.51113 0.87362 0.89201 0.0
C2591 C 0.51792 0.89411 0.85667 0.0
C2592 C 0.48005 0.87776 0.86404 0.0
C2593 C 0.52595 0.8858 0.87765 0.0
C2594 C 0.52675 0.84868 0.77365 0.0
C2595 C 0.48748 0.89824 0.82665 0.0
H2596 H 0.58161 0.9476 0.63701 0.0
H2597 H 0.52887 0.91232 0.67451 0.0
H2598 H 0.54294 0.93077 0.63896 0.0
H2599 H 0.59196 0.93175 0.70891 0.0
H2600 H 0.51738 0.86791 0.90865 0.0
H2601 H 0.52938 0.90477 0.84653 0.0
H2602 H 0.46219 0.87501 0.85911 0.0
H2603 H 0.54345 0.8894 0.8831 0.0
Tb2604 Tb 0.03253 0.14388 0.3114 0.0
C2605 C 1.01734 0.1755 0.21943 0.0
N2606 N 0.99882 0.17859 0.23339 0.0
C2607 C 0.98671 0.21116 0.21061 0.0
C2608 C 1.02094 0.18964 0.19991 0.0
C2609 C 0.98411 0.19679 0.22981 0.0
C2610 C 1.00497 0.20727 0.19529 0.0
C2611 C 0.05437 0.15712 0.21314 0.0
C2612 C 0.03366 0.15944 0.22597 0.0
C2613 C 0.0575 0.17009 0.19288 0.0
C2614 C 0.04078 0.18635 0.18627 0.0
Tb2615 Tb 0.9937 0.15179 0.26211 0.0
N2616 N 0.03019 0.14776 0.24607 0.0
C2617 C 0.07176 0.1427 0.22163 0.0
C2618 C 0.04798 0.13543 0.25515 0.0
C2619 C 0.06875 0.13222 0.24303 0.0
H2620 H 0.97105 0.20081 0.24236 0.0
H2621 H 0.0826 0.12201 0.25036 0.0
H2622 H 0.07447 0.10961 0.28888 0.0
H2623 H 1.00227 0.15029 0.3999 0.0
H2624 H 0.04656 0.12875 0.27193 0.0
H2625 H 0.08795 0.14046 0.2124 0.0
H2626 H 1.00999 0.16521 0.3611 0.0
H2627 H 0.97485 0.22542 0.20786 0.0
H2628 H 0.07318 0.16832 0.18271 0.0
H2629 H 0.04376 0.19685 0.17109 0.0
H2630 H 0.09326 0.0729 0.29905 0.0
H2631 H 1.00714 0.21856 0.18053 0.0
H2632 H 1.01534 0.11107 0.41078 0.0
N2633 N 0.05183 0.1098 0.31805 0.0
C2634 C 0.04767 0.10039 0.3392 0.0
C2635 C 0.08015 0.0802 0.31028 0.0
C2636 C 0.05831 0.07941 0.34582 0.0
C2637 C 0.06919 0.10095 0.30442 0.0
C2638 C 0.07425 0.06906 0.33079 0.0
N2639 N 0.02645 0.13425 0.3492 0.0
C2640 C 1.01549 0.14789 0.36523 0.0
C2641 C 0.03063 0.10387 0.37742 0.0
C2642 C 0.03431 0.11278 0.35507 0.0
C2643 C 1.01853 0.11736 0.39347 0.0
C2644 C 1.01118 0.13954 0.38742 0.0
H2645 H 0.08285 0.05302 0.33531 0.0
H2646 H 0.06144 0.05376 0.37286 0.0
H2647 H 0.03696 0.07498 0.40038 0.0
O2648 O 0.05498 0.15417 0.33691 0.0
O2649 O 0.99771 0.13375 0.32259 0.0
O2650 O 0.98014 0.12734 0.28756 0.0
O2651 O 0.06682 0.15275 0.30057 0.0
O2652 O 1.00777 0.17075 0.32073 0.0
O2653 O 0.97999 0.17131 0.29173 0.0
O2654 O 0.9761 0.14553 0.23042 0.0
O2655 O 1.00443 0.1884 0.27104 0.0
O2656 O 0.03558 0.18105 0.29446 0.0
O2657 O 0.95772 0.15124 0.26184 0.0
O2658 O 1.00302 0.11255 0.26267 0.0
O2659 O 0.02457 0.10757 0.29574 0.0
C2660 C 0.98022 0.12636 0.3102 0.0
C2661 C 0.09497 0.16362 0.33096 0.0
C2662 C 0.11931 0.1739 0.36378 0.0
C2663 C 0.13871 0.17405 0.34905 0.0
C2664 C 0.11447 0.16397 0.31651 0.0
C2665 C 0.13624 0.16915 0.32558 0.0
C2666 C 0.09756 0.16866 0.35452 0.0
C2667 C 0.98757 0.1771 0.31237 0.0
C2668 C 0.07216 0.15628 0.32238 0.0
C2669 C 0.05369 0.07002 0.36766 0.0
C2670 C 0.0398 0.08216 0.38336 0.0
C2671 C 1.02268 0.19657 0.28224 0.0
C2672 C 0.938 0.16235 0.22858 0.0
C2673 C 0.9045 0.16234 0.20332 0.0
C2674 C 0.89791 0.18414 0.21182 0.0
C2675 C 0.9297 0.183 0.23859 0.0
C2676 C 0.92565 0.15256 0.21041 0.0
C2677 C 0.91065 0.19449 0.2293 0.0
C2678 C 1.01352 0.09802 0.27779 0.0
C2679 C 0.95589 0.14813 0.23995 0.0
H2680 H 0.15577 0.17792 0.35566 0.0
H2681 H 0.11296 0.15987 0.29838 0.0
H2682 H 0.15129 0.16925 0.31441 0.0
H2683 H 0.08251 0.16882 0.36574 0.0
H2684 H 0.88173 0.1921 0.20672 0.0
H2685 H 0.93722 0.18983 0.25418 0.0
H2686 H 0.93096 0.13581 0.20379 0.0
H2687 H 0.90465 0.21051 0.23693 0.0
Tb2688 Tb 0.56566 0.1525 0.78898 0.0
C2689 C 0.47973 0.1134 0.76685 0.0
N2690 N 0.49334 0.11642 0.74796 0.0
C2691 C 0.47634 0.08325 0.72986 0.0
C2692 C 0.4637 0.09504 0.76787 0.0
C2693 C 0.49181 0.10179 0.72944 0.0
C2694 C 0.46212 0.07994 0.74908 0.0
C2695 C 0.46868 0.12518 0.80542 0.0
C2696 C 0.48258 0.12823 0.78554 0.0
C2697 C 0.45249 0.10711 0.80634 0.0
C2698 C 0.45006 0.09206 0.78767 0.0
Tb2699 Tb 0.51666 0.14808 0.74875 0.0
N2700 N 0.4987 0.14553 0.78426 0.0
C2701 C 0.47125 0.14047 0.8238 0.0
C2702 C 0.50049 0.16088 0.80209 0.0
C2703 C 0.48715 0.15841 0.82208 0.0
H2704 H 0.50283 0.10426 0.71456 0.0
H2705 H 0.48922 0.17041 0.83623 0.0
H2706 H 0.56834 0.20447 0.81509 0.0
H2707 H 0.63375 0.08729 0.79187 0.0
H2708 H 0.51275 0.17454 0.80197 0.0
H2709 H 0.46094 0.13868 0.83934 0.0
H2710 H 0.59378 0.10107 0.79415 0.0
H2711 H 0.4753 0.0716 0.71532 0.0
H2712 H 0.44176 0.10459 0.82149 0.0
H2713 H 0.43762 0.07809 0.78875 0.0
H2714 H 0.59742 0.2347 0.82043 0.0
H2715 H 0.45011 0.06558 0.74933 0.0
H2716 H 0.66613 0.11515 0.79013 0.0
N2717 N 0.59226 0.17946 0.80172 0.0
C2718 C 0.61484 0.17461 0.79824 0.0
C2719 C 0.60261 0.21793 0.81389 0.0
C2720 C 0.6323 0.19125 0.80161 0.0
C2721 C 0.58606 0.20065 0.81048 0.0
C2722 C 0.62583 0.21338 0.80894 0.0
N2723 N 0.60258 0.13698 0.79282 0.0
C2724 C 0.60735 0.11374 0.79322 0.0
C2725 C 0.64364 0.14506 0.79248 0.0
C2726 C 0.62031 0.15219 0.79364 0.0
C2727 C 0.64846 0.12143 0.791 0.0
C2728 C 0.63022 0.10568 0.79201 0.0
H2729 H 0.63867 0.22671 0.81174 0.0
H2730 H 0.6693 0.19744 0.80064 0.0
H2731 H 0.67933 0.1567 0.7927 0.0
O2732 O 0.56477 0.15912 0.82424 0.0
O2733 O 0.57073 0.17765 0.76095 0.0
O2734 O 0.54456 0.16705 0.7328 0.0
O2735 O 0.54001 0.13589 0.80916 0.0
O2736 O 0.57798 0.1329 0.75982 0.0
O2737 O 0.54885 0.13377 0.73185 0.0
O2738 O 0.48563 0.16454 0.73888 0.0
O2739 O 0.52618 0.11086 0.75824 0.0
O2740 O 0.5572 0.11295 0.78303 0.0
O2741 O 0.50684 0.14755 0.71375 0.0
O2742 O 0.51688 0.18666 0.7601 0.0
O2743 O 0.54798 0.18844 0.78439 0.0
C2744 C 0.56251 0.1788 0.73988 0.0
C2745 C 0.55961 0.12437 0.84355 0.0
C2746 C 0.59344 0.10567 0.86074 0.0
C2747 C 0.57889 0.08931 0.87115 0.0
C2748 C 0.54521 0.10804 0.85416 0.0
C2749 C 0.55485 0.09063 0.86799 0.0
C2750 C 0.58375 0.12309 0.8472 0.0
C2751 C 0.57018 0.12842 0.73909 0.0
C2752 C 0.55025 0.1425 0.82815 0.0
C2753 C 0.65559 0.18487 0.79855 0.0
C2754 C 0.66129 0.1617 0.79401 0.0
C2755 C 0.5418 0.09982 0.77114 0.0
C2756 C 0.46791 0.15543 0.70318 0.0
C2757 C 0.44497 0.1666 0.66992 0.0
C2758 C 0.42998 0.14804 0.67417 0.0
C2759 C 0.45197 0.13784 0.7082 0.0
C2760 C 0.46406 0.17 0.68427 0.0
C2761 C 0.43334 0.13388 0.69342 0.0
C2762 C 0.53099 0.19969 0.7731 0.0
C2763 C 0.48845 0.15989 0.71725 0.0
H2764 H 0.58608 0.07568 0.88176 0.0
H2765 H 0.52664 0.10867 0.85166 0.0
H2766 H 0.54369 0.07804 0.87617 0.0
H2767 H 0.59534 0.13552 0.83933 0.0
H2768 H 0.41543 0.14495 0.66298 0.0
H2769 H 0.45369 0.12739 0.72349 0.0
H2770 H 0.47588 0.18414 0.68076 0.0
H2771 H 0.4213 0.12001 0.69706 0.0
Tb2772 Tb 0.14228 0.31196 0.04617 0.0
C2773 C 0.17769 0.22186 0.02443 0.0
N2774 N 0.17892 0.23758 1.00721 0.0
C2775 C 0.21252 0.21868 0.99164 0.0
C2776 C 0.19364 0.20335 0.02558 0.0
C2777 C 0.19637 0.23671 0.99131 0.0
C2778 C 0.21094 0.20169 1.00867 0.0
C2779 C 0.16019 0.2094 0.06024 0.0
C2780 C 0.16109 0.225 0.04149 0.0
C2781 C 0.17546 0.19045 0.06103 0.0
C2782 C 0.19214 0.18743 0.04374 0.0
Tb2783 Tb 0.1496 0.26374 1.00565 0.0
N2784 N 0.14667 0.24377 0.04026 0.0
C2785 C 0.14435 0.21353 0.07798 0.0
C2786 C 0.13199 0.24818 0.05832 0.0
C2787 C 0.13048 0.23319 0.07716 0.0
H2788 H 0.1984 0.25071 0.97925 0.0
H2789 H 0.11874 0.23704 0.09125 0.0
H2790 H 0.09712 0.29791 0.0801 0.0
H2791 H 0.18444 0.39545 0.04076 0.0
H2792 H 0.12207 0.26361 0.05939 0.0
H2793 H 0.14319 0.20203 0.09269 0.0
H2794 H 0.1834 0.35277 0.0424 0.0
H2795 H 0.22634 0.21809 0.979 0.0
H2796 H 0.17481 0.17826 0.07522 0.0
H2797 H 0.20409 0.17299 0.04483 0.0
H2798 H 0.06141 0.31716 0.09377 0.0
H2799 H 0.22353 0.18777 1.00901 0.0
H2800 H 0.14863 0.41814 0.04755 0.0
N2801 N 0.11086 0.32835 0.06441 0.0
C2802 C 0.10878 0.35154 0.06218 0.0
C2803 C 0.07447 0.32703 0.08468 0.0
C2804 C 0.0889 0.36338 0.07002 0.0
C2805 C 0.09468 0.31619 0.07681 0.0
C2806 C 0.0713 0.35067 0.08078 0.0
N2807 N 0.14716 0.35124 0.04904 0.0
C2808 C 0.16761 0.36246 0.04511 0.0
C2809 C 0.12751 0.38786 0.05368 0.0
C2810 C 0.12776 0.36351 0.05421 0.0
C2811 C 0.14804 0.39942 0.0481 0.0
C2812 C 0.16829 0.38666 0.0443 0.0
H2813 H 0.05571 0.3591 0.08702 0.0
H2814 H 0.07251 0.39699 0.07336 0.0
H2815 H 0.10641 0.41852 0.05899 0.0
O2816 O 0.14318 0.31798 0.08139 0.0
O2817 O 0.12222 0.32152 1.01608 0.0
O2818 O 0.12724 0.29053 0.99141 0.0
O2819 O 0.15916 0.28694 0.06687 0.0
O2820 O 0.16237 0.32521 1.01731 0.0
O2821 O 0.16717 0.29443 0.99162 0.0
O2822 O 0.14193 0.23223 0.98751 0.0
O2823 O 0.1862 0.27318 1.01835 0.0
O2824 O 0.18212 0.30595 0.04101 0.0
O2825 O 0.14897 0.26386 0.96991 0.0
O2826 O 0.11083 0.26245 1.01549 0.0
O2827 O 0.10699 0.29413 0.03908 0.0
C2828 C 0.11913 0.3112 0.99623 0.0
C2829 C 0.18009 0.30955 0.09496 0.0
C2830 C 0.2064 0.34174 0.10433 0.0
C2831 C 0.22204 0.32545 0.11348 0.0
C2832 C 0.19607 0.29383 0.10406 0.0
C2833 C 0.21685 0.3018 0.11341 0.0
C2834 C 0.18532 0.33357 0.09552 0.0
C2835 C 0.16951 0.31634 0.99763 0.0
C2836 C 0.15811 0.30133 0.08457 0.0
C2837 C 0.0878 0.38756 0.06786 0.0
C2838 C 0.10711 0.39981 0.05969 0.0
C2839 C 0.19615 0.28975 0.03112 0.0
C2840 C 0.15074 0.23102 0.94639 0.0
C2841 C 0.13888 0.21463 0.90941 0.0
C2842 C 0.16132 0.21873 0.90075 0.0
C2843 C 0.17264 0.23572 0.93685 0.0
C2844 C 0.13401 0.22019 0.93259 0.0
C2845 C 0.17808 0.22895 0.91449 0.0
C2846 C 0.09686 0.27689 0.02729 0.0
C2847 C 0.14287 0.24258 0.96769 0.0
H2848 H 0.23831 0.33098 0.12083 0.0
H2849 H 0.19249 0.27545 0.10393 0.0
H2850 H 0.22909 0.28955 0.12053 0.0
H2851 H 0.1732 0.34604 0.08872 0.0
H2852 H 0.1657 0.21526 0.88294 0.0
H2853 H 0.18512 0.246 0.94581 0.0
H2854 H 0.11675 0.21751 0.93948 0.0
H2855 H 0.19495 0.23289 0.90732 0.0
Tb2856 Tb 0.40416 0.72968 0.53934 0.0
C2857 C 0.36205 0.81621 0.52333 0.0
N2858 N 0.36527 0.80357 0.50392 0.0
C2859 C 0.33096 0.81969 0.48721 0.0
C2860 C 0.34278 0.83112 0.52548 0.0
C2861 C 0.35034 0.80522 0.48578 0.0
C2862 C 0.32718 0.83273 0.50713 0.0
C2863 C 0.37445 0.82647 0.56179 0.0
C2864 C 0.37778 0.81369 0.54129 0.0
C2865 C 0.35533 0.84142 0.56395 0.0
C2866 C 0.33955 0.84371 0.54587 0.0
Tb2867 Tb 0.39755 0.78133 0.50293 0.0
N2868 N 0.39607 0.79877 0.53877 0.0
C2869 C 0.39039 0.82392 0.57961 0.0
C2870 C 0.41176 0.79659 0.55631 0.0
C2871 C 0.40908 0.80893 0.57684 0.0
H2872 H 0.35335 0.79512 0.47038 0.0
H2873 H 0.42137 0.80664 0.59068 0.0
H2874 H 0.45195 0.73447 0.57184 0.0
H2875 H 0.34956 0.6534 0.53378 0.0
H2876 H 0.42567 0.78443 0.55565 0.0
H2877 H 0.38839 0.83337 0.59561 0.0
H2878 H 0.35697 0.69494 0.53707 0.0
H2879 H 0.31903 0.82086 0.47293 0.0
H2880 H 0.35258 0.85128 0.57959 0.0
H2881 H 0.32484 0.85524 0.54787 0.0
H2882 H 0.48515 0.70968 0.58174 0.0
H2883 H 0.31214 0.84393 0.50819 0.0
H2884 H 0.38181 0.62535 0.53657 0.0
N2885 N 0.4327 0.7073 0.55603 0.0
C2886 C 0.43152 0.6843 0.55236 0.0
C2887 C 0.47024 0.70228 0.57328 0.0
C2888 C 0.44991 0.66931 0.55806 0.0
C2889 C 0.45136 0.7163 0.56746 0.0
C2890 C 0.46975 0.67872 0.56808 0.0
N2891 N 0.39347 0.69118 0.54161 0.0
C2892 C 0.3714 0.68324 0.53841 0.0
C2893 C 0.40748 0.65176 0.54292 0.0
C2894 C 0.41087 0.6758 0.54487 0.0
C2895 C 0.38525 0.6437 0.53811 0.0
C2896 C 0.36702 0.6595 0.5365 0.0
H2897 H 0.48432 0.66784 0.57267 0.0
H2898 H 0.46149 0.6336 0.55821 0.0
H2899 H 0.4241 0.6181 0.54497 0.0
O2900 O 0.4052 0.73015 0.57533 0.0
O2901 O 0.42706 0.72545 0.50965 0.0
O2902 O 0.42079 0.75717 0.48599 0.0
O2903 O 0.38692 0.75679 0.55648 0.0
O2904 O 0.38636 0.71878 0.50865 0.0
O2905 O 0.38226 0.75112 0.48465 0.0
O2906 O 0.40655 0.81525 0.49176 0.0
O2907 O 0.36102 0.76913 0.51344 0.0
O2908 O 0.36409 0.73462 0.53349 0.0
O2909 O 0.39939 0.7884 0.46754 0.0
O2910 O 0.43563 0.78173 0.51541 0.0
O2911 O 0.44018 0.74707 0.53443 0.0
C2912 C 0.43013 0.73703 0.49041 0.0
C2913 C 0.36723 0.73735 0.58712 0.0
C2914 C 0.34226 0.70434 0.59698 0.0
C2915 C 0.32462 0.72002 0.6031 0.0
C2916 C 0.34941 0.75261 0.59329 0.0
C2917 C 0.32827 0.74394 0.6014 0.0
C2918 C 0.3635 0.71326 0.58933 0.0
C2919 C 0.37988 0.72874 0.48932 0.0
C2920 C 0.38889 0.74574 0.57616 0.0
C2921 C 0.44744 0.64543 0.55439 0.0
C2922 C 0.42617 0.63663 0.54684 0.0
C2923 C 0.35046 0.75137 0.52409 0.0
C2924 C 0.39911 0.82619 0.4523 0.0
C2925 C 0.40627 0.84045 0.41327 0.0
C2926 C 0.38816 0.8565 0.41607 0.0
C2927 C 0.38172 0.84289 0.45527 0.0
C2928 C 0.41118 0.82508 0.43134 0.0
C2929 C 0.376 0.85769 0.437 0.0
C2930 C 0.44991 0.76626 0.52551 0.0
C2931 C 0.40598 0.80952 0.4702 0.0
H2932 H 0.30809 0.71383 0.60941 0.0
H2933 H 0.35171 0.77112 0.59148 0.0
H2934 H 0.31454 0.7558 0.60616 0.0
H2935 H 0.37696 0.70118 0.58437 0.0
H2936 H 0.38408 0.86869 0.40249 0.0
H2937 H 0.37272 0.84462 0.47154 0.0
H2938 H 0.42491 0.81239 0.42923 0.0
H2939 H 0.36245 0.87047 0.43924 0.0
Tb2940 Tb 0.8169 0.51492 0.90975 0.0
C2941 C 0.73011 0.52693 0.87083 0.0
N2942 N 0.74071 0.54764 0.87345 0.0
C2943 C 0.72041 0.56297 0.84084 0.0
C2944 C 0.71408 0.52343 0.85292 0.0
C2945 C 0.73617 0.56566 0.85882 0.0
C2946 C 0.70923 0.5418 0.83793 0.0
C2947 C 0.72563 0.4871 0.88292 0.0
C2948 C 0.73615 0.50897 0.88559 0.0
C2949 C 0.70938 0.48361 0.86532 0.0
C2950 C 0.70366 0.50171 0.85034 0.0
Tb2951 Tb 0.76542 0.55048 0.90365 0.0
N2952 N 0.75231 0.51284 0.9023 0.0
C2953 C 0.73171 0.4693 0.898 0.0
C2954 C 0.75775 0.49544 0.91725 0.0
C2955 C 0.74778 0.47353 0.91525 0.0
H2956 H 0.74496 0.582 0.86095 0.0
H2957 H 0.75263 0.45984 0.92704 0.0
H2958 H 0.79995 0.47468 0.94772 0.0
H2959 H 0.90363 0.54532 0.88988 0.0
H2960 H 0.7702 0.49766 0.93043 0.0
H2961 H 0.72407 0.45227 0.8965 0.0
H2962 H 0.86363 0.53543 0.88044 0.0
H2963 H 0.71688 0.57722 0.82927 0.0
H2964 H 0.7012 0.46692 0.86309 0.0
H2965 H 0.69125 0.49868 0.83674 0.0
H2966 H 0.81496 0.45791 0.98386 0.0
H2967 H 0.69703 0.53975 0.82396 0.0
H2968 H 0.9197 0.53516 0.92796 0.0
N2969 N 0.82892 0.49692 0.94271 0.0
C2970 C 0.85083 0.50207 0.94931 0.0
C2971 C 0.82511 0.47052 0.97447 0.0
C2972 C 0.86016 0.49281 0.96975 0.0
C2973 C 0.81668 0.48003 0.954 0.0
C2974 C 0.84672 0.47735 0.98268 0.0
N2975 N 0.85583 0.52135 0.91367 0.0
C2976 C 0.86981 0.53153 0.89748 0.0
C2977 C 0.88789 0.51957 0.94018 0.0
C2978 C 0.86466 0.51493 0.93445 0.0
C2979 C 0.90179 0.5312 0.92417 0.0
C2980 C 0.89279 0.53692 0.90263 0.0
H2981 H 0.85328 0.46985 0.99847 0.0
H2982 H 0.89028 0.49166 0.99184 0.0
H2983 H 0.91446 0.51537 0.96612 0.0
O2984 O 0.83949 0.48918 0.89929 0.0
O2985 O 0.82637 0.54925 0.92352 0.0
O2986 O 0.79021 0.56604 0.92692 0.0
O2987 O 0.80167 0.48232 0.90274 0.0
O2988 O 0.82364 0.53991 0.88296 0.0
O2989 O 0.79554 0.56859 0.88685 0.0
O2990 O 0.73246 0.56026 0.91612 0.0
O2991 O 0.77546 0.54161 0.86625 0.0
O2992 O 0.80176 0.51237 0.87216 0.0
O2993 O 0.7562 0.58583 0.90378 0.0
O2994 O 0.76526 0.53933 0.9424 0.0
O2995 O 0.80036 0.5212 0.9455 0.0
C2996 C 0.81258 0.56596 0.93084 0.0
C2997 C 0.82751 0.45046 0.8903 0.0
C2998 C 0.85458 0.42315 0.87272 0.0
C2999 C 0.83868 0.40521 0.87686 0.0
C3000 C 0.81176 0.43246 0.8942 0.0
C3001 C 0.81743 0.40989 0.88757 0.0
C3002 C 0.84885 0.44566 0.87962 0.0
C3003 C 0.81588 0.56088 0.87904 0.0
C3004 C 0.82255 0.47418 0.89794 0.0
C3005 C 0.88292 0.49834 0.97603 0.0
C3006 C 0.89671 0.51179 0.96134 0.0
C3007 C 0.78808 0.52437 0.8573 0.0
C3008 C 0.71668 0.59691 0.9053 0.0
C3009 C 0.69768 0.63471 0.90691 0.0
C3010 C 0.67986 0.62609 0.89292 0.0
C3011 C 0.69821 0.58832 0.89224 0.0
C3012 C 0.7162 0.62004 0.91273 0.0
C3013 C 0.68015 0.60302 0.88571 0.0
C3014 C 0.7816 0.5299 0.95612 0.0
C3015 C 0.73604 0.58217 0.91289 0.0
H3016 H 0.84263 0.38763 0.87169 0.0
H3017 H 0.79528 0.43579 0.90255 0.0
H3018 H 0.80529 0.39599 0.89066 0.0
H3019 H 0.86082 0.45963 0.87603 0.0
H3020 H 0.66529 0.63695 0.88827 0.0
H3021 H 0.69763 0.57031 0.88721 0.0
H3022 H 0.73013 0.62655 0.92337 0.0
H3023 H 0.66607 0.59638 0.87543 0.0
Tb3024 Tb 0.7315 0.50578 0.15249 0.0
C3025 C 0.82175 0.52816 0.18282 0.0
N3026 N 0.80705 0.54632 0.18483 0.0
C3027 C 0.83031 0.56165 0.2156 0.0
C3028 C 0.84174 0.52634 0.19669 0.0
C3029 C 0.81074 0.56267 0.20156 0.0
C3030 C 0.84609 0.5436 0.21293 0.0
C3031 C 0.83018 0.49072 0.1663 0.0
C3032 C 0.81591 0.51062 0.16792 0.0
C3033 C 0.85062 0.4893 0.17921 0.0
C3034 C 0.85638 0.50707 0.19442 0.0
Tb3035 Tb 0.77711 0.54815 0.15875 0.0
N3036 N 0.79563 0.51241 0.15615 0.0
C3037 C 0.82318 0.47249 0.15229 0.0
C3038 C 0.7885 0.49391 0.14346 0.0
C3039 C 0.80204 0.47398 0.14109 0.0
H3040 H 0.79846 0.57643 0.20465 0.0
H3041 H 0.79592 0.45961 0.13086 0.0
H3042 H 0.7525 0.46897 0.11189 0.0
H3043 H 0.64095 0.5184 0.17418 0.0
H3044 H 0.77207 0.49359 0.1358 0.0
H3045 H 0.83356 0.45693 0.15061 0.0
H3046 H 0.68204 0.51105 0.18346 0.0
H3047 H 0.8331 0.57474 0.22862 0.0
H3048 H 0.86178 0.47424 0.17801 0.0
H3049 H 0.87188 0.50549 0.20476 0.0
H3050 H 0.74055 0.45674 0.0729 0.0
H3051 H 0.86118 0.54277 0.22392 0.0
H3052 H 0.6276 0.51586 0.13386 0.0
N3053 N 0.72239 0.48968 0.11756 0.0
C3054 C 0.70043 0.49436 0.11048 0.0
C3055 C 0.72926 0.46763 0.08316 0.0
C3056 C 0.6928 0.48764 0.08848 0.0
C3057 C 0.73597 0.47455 0.10523 0.0
C3058 C 0.70789 0.47485 0.07444 0.0
N3059 N 0.69216 0.50663 0.14852 0.0
C3060 C 0.67658 0.51081 0.16575 0.0
C3061 C 0.66142 0.50659 0.12049 0.0
C3062 C 0.68479 0.50329 0.12649 0.0
C3063 C 0.64573 0.5131 0.13776 0.0
C3064 C 0.65322 0.5146 0.16057 0.0
H3065 H 0.7027 0.46935 0.0574 0.0
H3066 H 0.66391 0.48812 0.06479 0.0
H3067 H 0.63651 0.50504 0.09271 0.0
O3068 O 0.71413 0.47495 0.15349 0.0
O3069 O 0.71659 0.53766 0.13908 0.0
O3070 O 0.7495 0.56008 0.13562 0.0
O3071 O 0.74944 0.47633 0.16615 0.0
O3072 O 0.71922 0.53008 0.17851 0.0
O3073 O 0.7442 0.56125 0.17449 0.0
O3074 O 0.80236 0.56855 0.14141 0.0
O3075 O 0.77014 0.53664 0.19566 0.0
O3076 O 0.74319 0.5075 0.19177 0.0
O3077 O 0.78193 0.58244 0.16866 0.0
O3078 O 0.78013 0.53826 0.12006 0.0
O3079 O 0.74775 0.51588 0.11691 0.0
C3080 C 0.72761 0.55575 0.13107 0.0
C3081 C 0.72238 0.44793 0.18191 0.0
C3082 C 0.68936 0.42682 0.19802 0.0
C3083 C 0.70473 0.41076 0.20779 0.0
C3084 C 0.73749 0.43187 0.19198 0.0
C3085 C 0.72867 0.41359 0.20516 0.0
C3086 C 0.69832 0.44569 0.18587 0.0
C3087 C 0.72465 0.55191 0.1822 0.0
C3088 C 0.73069 0.46368 0.16356 0.0
C3089 C 0.66996 0.49263 0.08184 0.0
C3090 C 0.65433 0.5022 0.09778 0.0
C3091 C 0.75749 0.5201 0.20568 0.0
C3092 C 0.78694 0.60649 0.13699 0.0
C3093 C 0.79323 0.63599 0.10783 0.0
C3094 C 0.76992 0.64263 0.10944 0.0
C3095 C 0.76357 0.61361 0.13852 0.0
C3096 C 0.80183 0.61799 0.12169 0.0
C3097 C 0.75527 0.63168 0.125 0.0
C3098 C 0.76532 0.52687 0.1063 0.0
C3099 C 0.79542 0.58734 0.15161 0.0
H3100 H 0.69819 0.39599 0.21728 0.0
H3101 H 0.75597 0.43292 0.18888 0.0
H3102 H 0.7404 0.40106 0.21265 0.0
H3103 H 0.68616 0.4576 0.17801 0.0
H3104 H 0.76326 0.65678 0.09913 0.0
H3105 H 0.75157 0.60532 0.15024 0.0
H3106 H 0.81994 0.61311 0.12064 0.0
H3107 H 0.73743 0.63721 0.12663 0.0
Tb3108 Tb 0.78807 0.47565 0.40288 0.0
C3109 C 0.76801 0.56189 0.43938 0.0
N3110 N 0.74951 0.54761 0.4398 0.0
C3111 C 0.7343 0.56732 0.473 0.0
C3112 C 0.77021 0.57989 0.45565 0.0
C3113 C 0.73291 0.54979 0.45652 0.0
C3114 C 0.75292 0.58264 0.47241 0.0
C3115 C 0.80467 0.57259 0.42229 0.0
C3116 C 0.78497 0.55809 0.42291 0.0
C3117 C 0.80677 0.59079 0.43816 0.0
C3118 C 0.78957 0.59444 0.4548 0.0
Tb3119 Tb 0.74654 0.52202 0.41011 0.0
N3120 N 0.78225 0.54031 0.40767 0.0
C3121 C 0.82172 0.56849 0.40571 0.0
C3122 C 0.79905 0.53667 0.39141 0.0
C3123 C 0.81892 0.55037 0.39029 0.0
H3124 H 0.71921 0.53718 0.45762 0.0
H3125 H 0.8321 0.54687 0.37744 0.0
H3126 H 0.82536 0.49813 0.36442 0.0
H3127 H 0.77497 0.38502 0.42313 0.0
H3128 H 0.79815 0.52294 0.37955 0.0
H3129 H 0.8371 0.57914 0.4047 0.0
H3130 H 0.77969 0.42625 0.43279 0.0
H3131 H 0.72113 0.5689 0.48623 0.0
H3132 H 0.82171 0.60209 0.43777 0.0
H3133 H 0.7915 0.60845 0.46703 0.0
H3134 H 0.84193 0.48648 0.32687 0.0
H3135 H 0.754 0.59625 0.48519 0.0
H3136 H 0.78314 0.37129 0.38362 0.0
N3137 N 0.80688 0.46662 0.36921 0.0
C3138 C 0.80421 0.44448 0.36201 0.0
C3139 C 0.83108 0.4746 0.33642 0.0
C3140 C 0.81342 0.43699 0.34076 0.0
C3141 C 0.82166 0.48115 0.35768 0.0
C3142 C 0.82641 0.45262 0.32761 0.0
N3143 N 0.78839 0.43626 0.39856 0.0
C3144 C 0.78238 0.42072 0.41527 0.0
C3145 C 0.79268 0.40524 0.37105 0.0
C3146 C 0.79436 0.42876 0.37713 0.0
C3147 C 0.78473 0.38953 0.38761 0.0
C3148 C 0.78007 0.39723 0.40995 0.0
H3149 H 0.83381 0.44755 0.31119 0.0
H3150 H 0.81693 0.40788 0.31748 0.0
H3151 H 0.79847 0.3801 0.34391 0.0
O3152 O 0.81748 0.4583 0.41079 0.0
O3153 O 0.75697 0.46231 0.38695 0.0
O3154 O 0.73347 0.4948 0.38814 0.0
O3155 O 0.81753 0.4969 0.41079 0.0
O3156 O 0.76251 0.46365 0.42764 0.0
O3157 O 0.73188 0.48976 0.42541 0.0
O3158 O 0.73019 0.55333 0.3988 0.0
O3159 O 0.75694 0.51193 0.4469 0.0
O3160 O 0.78566 0.48465 0.44249 0.0
O3161 O 0.71076 0.52545 0.41378 0.0
O3162 O 0.75454 0.52264 0.37048 0.0
O3163 O 0.77841 0.49107 0.36702 0.0
C3164 C 0.73788 0.47342 0.38181 0.0
C3165 C 0.85367 0.47468 0.42022 0.0
C3166 C 0.88383 0.44695 0.43063 0.0
C3167 C 0.90072 0.46366 0.42548 0.0
C3168 C 0.87055 0.49127 0.41512 0.0
C3169 C 0.89404 0.48578 0.41798 0.0
C3170 C 0.86051 0.45301 0.42871 0.0
C3171 C 0.74079 0.46947 0.43156 0.0
C3172 C 0.82938 0.47738 0.41329 0.0
C3173 C 0.8104 0.41388 0.33396 0.0
C3174 C 0.79993 0.39805 0.34904 0.0
C3175 C 0.77293 0.49841 0.45675 0.0
C3176 C 0.68982 0.56041 0.40905 0.0
C3177 C 0.65528 0.5789 0.3932 0.0
C3178 C 0.6457 0.57973 0.41556 0.0
C3179 C 0.67967 0.56111 0.43106 0.0
C3180 C 0.67782 0.56996 0.39036 0.0
C3181 C 0.65802 0.57126 0.43433 0.0
C3182 C 0.76604 0.5078 0.35646 0.0
C3183 C 0.70981 0.54541 0.40387 0.0
H3184 H 0.91896 0.4596 0.42707 0.0
H3185 H 0.86568 0.50797 0.40817 0.0
H3186 H 0.90712 0.4985 0.41383 0.0
H3187 H 0.84746 0.44043 0.43351 0.0
H3188 H 0.62825 0.5859 0.41859 0.0
H3189 H 0.68762 0.5529 0.44561 0.0
H3190 H 0.68558 0.56905 0.37335 0.0
H3191 H 0.65022 0.57144 0.45132 0.0
Tb3192 Tb 0.76558 0.4755 0.66268 0.0
C3193 C 0.78315 0.56252 0.62418 0.0
N3194 N 0.80117 0.54756 0.62314 0.0
C3195 C 0.81542 0.56636 0.589 0.0
C3196 C 0.78074 0.58036 0.60771 0.0
C3197 C 0.81707 0.54906 0.60572 0.0
C3198 C 0.79727 0.58226 0.59012 0.0
C3199 C 0.74751 0.57468 0.64253 0.0
C3200 C 0.76685 0.5596 0.64148 0.0
C3201 C 0.7453 0.59276 0.62651 0.0
C3202 C 0.76187 0.59559 0.60913 0.0
Tb3203 Tb 0.80478 0.522 0.65289 0.0
N3204 N 0.76949 0.5417 0.65666 0.0
C3205 C 0.73069 0.57104 0.65941 0.0
C3206 C 0.75226 0.53786 0.67257 0.0
C3207 C 0.73295 0.55236 0.67427 0.0
H3208 H 0.83049 0.53628 0.60433 0.0
H3209 H 0.71953 0.54878 0.68684 0.0
H3210 H 0.73238 0.49264 0.70737 0.0
H3211 H 0.76405 0.39081 0.62277 0.0
H3212 H 0.75188 0.52277 0.68301 0.0
H3213 H 0.7156 0.58215 0.66071 0.0
H3214 H 0.76489 0.43347 0.62273 0.0
H3215 H 0.82807 0.56732 0.57523 0.0
H3216 H 0.73064 0.60449 0.62723 0.0
H3217 H 0.75979 0.60946 0.59673 0.0
H3218 H 0.71764 0.47527 0.74339 0.0
H3219 H 0.79598 0.59569 0.57716 0.0
H3220 H 0.75732 0.36947 0.65916 0.0
N3221 N 0.74669 0.46102 0.69464 0.0
C3222 C 0.74767 0.43784 0.69738 0.0
C3223 C 0.7263 0.46453 0.73073 0.0
C3224 C 0.73919 0.42705 0.71748 0.0
C3225 C 0.73475 0.4743 0.71032 0.0
C3226 C 0.72906 0.44085 0.73461 0.0
N3227 N 0.75996 0.43634 0.65904 0.0
C3228 C 0.76216 0.42442 0.6388 0.0
C3229 C 0.75361 0.40058 0.67957 0.0
C3230 C 0.75463 0.42491 0.67875 0.0
C3231 C 0.75788 0.3882 0.6593 0.0
C3232 C 0.76161 0.4002 0.63871 0.0
H3233 H 0.72233 0.43325 0.75032 0.0
H3234 H 0.73394 0.39416 0.73466 0.0
H3235 H 0.7467 0.37088 0.70137 0.0
O3236 O 0.72966 0.47277 0.66238 0.0
O3237 O 0.79895 0.4659 0.67987 0.0
O3238 O 0.81882 0.50035 0.67963 0.0
O3239 O 0.74683 0.50132 0.64492 0.0
O3240 O 0.79151 0.46098 0.64069 0.0
O3241 O 0.82016 0.48894 0.63865 0.0
O3242 O 0.82289 0.55399 0.6571 0.0
O3243 O 0.79386 0.5104 0.61725 0.0
O3244 O 0.7691 0.4796 0.62186 0.0
O3245 O 0.84066 0.5218 0.65244 0.0
O3246 O 0.79474 0.52584 0.6917 0.0
O3247 O 0.77437 0.49246 0.69828 0.0
C3248 C 0.81739 0.47846 0.68508 0.0
C3249 C 0.71643 0.48079 0.62523 0.0
C3250 C 0.70281 0.44866 0.60101 0.0
C3251 C 0.69882 0.46446 0.58309 0.0
C3252 C 0.71198 0.49622 0.60715 0.0
C3253 C 0.70304 0.48809 0.5863 0.0
C3254 C 0.71131 0.45697 0.62207 0.0
C3255 C 0.81268 0.46736 0.63577 0.0
C3256 C 0.72776 0.4889 0.64678 0.0
C3257 C 0.73994 0.40282 0.7192 0.0
C3258 C 0.74719 0.38958 0.70024 0.0
C3259 C 0.7802 0.49475 0.60743 0.0
C3260 C 0.86253 0.55456 0.64345 0.0
C3261 C 0.89829 0.57504 0.65106 0.0
C3262 C 0.90798 0.56609 0.63067 0.0
C3263 C 0.87306 0.54432 0.62401 0.0
C3264 C 0.87483 0.57099 0.65594 0.0
C3265 C 0.89514 0.55113 0.61696 0.0
C3266 C 0.7846 0.5114 0.70711 0.0
C3267 C 0.84284 0.54375 0.65539 0.0
H3268 H 0.69222 0.45855 0.56669 0.0
H3269 H 0.71576 0.51447 0.60903 0.0
H3270 H 0.69981 0.5001 0.57237 0.0
H3271 H 0.71446 0.44458 0.63572 0.0
H3272 H 0.92602 0.56892 0.62638 0.0
H3273 H 0.86525 0.52988 0.61524 0.0
H3274 H 0.86714 0.57807 0.67151 0.0
H3275 H 0.9031 0.54314 0.60203 0.0
Tb3276 Tb 0.52779 0.14126 0.25368 0.0
C3277 C 0.45692 0.19096 0.31934 0.0
N3278 N 0.47923 0.18345 0.31955 0.0
C3279 C 0.49003 0.21581 0.34299 0.0
C3280 C 0.45068 0.21224 0.32945 0.0
C3281 C 0.49538 0.19458 0.33269 0.0
C3282 C 0.46777 0.22504 0.34074 0.0
C3283 C 0.41646 0.1825 0.31229 0.0
C3284 C 0.43998 0.176 0.31129 0.0
C3285 C 0.41036 0.20459 0.32045 0.0
C3286 C 0.42742 0.21939 0.32912 0.0
Tb3287 Tb 0.48561 0.15 0.29948 0.0
N3288 N 0.44647 0.15443 0.30427 0.0
C3289 C 0.39972 0.16632 0.30586 0.0
C3290 C 0.43008 0.13822 0.2991 0.0
C3291 C 0.40655 0.14399 0.29964 0.0
H3292 H 0.51255 0.18743 0.33457 0.0
H3293 H 0.39368 0.13116 0.2953 0.0
H3294 H 0.53991 0.09227 0.22705 0.0
H3295 H 0.55847 0.17318 0.33689 0.0
H3296 H 0.43486 0.12072 0.29465 0.0
H3297 H 0.38147 0.17066 0.30637 0.0
H3298 H 0.53191 0.17082 0.30503 0.0
H3299 H 0.50308 0.22506 0.3526 0.0
H3300 H 0.3924 0.21001 0.32103 0.0
H3301 H 0.42233 0.23591 0.33639 0.0
H3302 H 0.5719 0.06368 0.22622 0.0
H3303 H 0.46366 0.24147 0.34878 0.0
H3304 H 0.59187 0.14658 0.33888 0.0
N3305 N 0.5538 0.11143 0.25475 0.0
C3306 C 0.56978 0.11211 0.27166 0.0
C3307 C 0.5718 0.07743 0.23887 0.0
C3308 C 0.58791 0.09568 0.27254 0.0
C3309 C 0.55417 0.09403 0.23881 0.0
C3310 C 0.58899 0.07847 0.25563 0.0
N3311 N 0.54904 0.14371 0.28745 0.0
C3312 C 0.5461 0.15946 0.30472 0.0
C3313 C 0.58325 0.12926 0.30705 0.0
C3314 C 0.5673 0.12867 0.28864 0.0
C3315 C 0.58009 0.1456 0.32444 0.0
C3316 C 0.56132 0.16063 0.32333 0.0
H3317 H 0.6026 0.06553 0.25575 0.0
H3318 H 0.61818 0.08432 0.29137 0.0
H3319 H 0.61414 0.11378 0.32164 0.0
O3320 O 0.55727 0.15263 0.2347 0.0
O3321 O 0.51881 0.10448 0.26533 0.0
O3322 O 0.49379 0.10986 0.29592 0.0
O3323 O 0.52826 0.1373 0.21782 0.0
O3324 O 0.52796 0.18052 0.26016 0.0
O3325 O 0.50045 0.18589 0.28836 0.0
O3326 O 0.47479 0.14715 0.33339 0.0
O3327 O 0.46872 0.16386 0.26934 0.0
O3328 O 0.49868 0.16317 0.24263 0.0
O3329 O 0.50846 0.1332 0.32265 0.0
O3330 O 0.46998 0.12633 0.27499 0.0
O3331 O 0.4955 0.12437 0.24366 0.0
C3332 C 0.50621 0.09508 0.28222 0.0
C3333 C 0.56308 0.13863 0.19606 0.0
C3334 C 0.5868 0.14939 0.16303 0.0
C3335 C 0.58644 0.12637 0.15533 0.0
C3336 C 0.56125 0.11617 0.18692 0.0
C3337 C 0.57372 0.10984 0.16731 0.0
C3338 C 0.5761 0.15515 0.184 0.0
C3339 C 0.51533 0.1952 0.2731 0.0
C3340 C 0.54825 0.14689 0.21511 0.0
C3341 C 0.60406 0.09666 0.29047 0.0
C3342 C 0.60172 0.11341 0.3077 0.0
C3343 C 0.47745 0.16895 0.24908 0.0
C3344 C 0.48363 0.11092 0.34804 0.0
C3345 C 0.4516 0.08366 0.35394 0.0
C3346 C 0.46643 0.06964 0.3671 0.0
C3347 C 0.49804 0.09686 0.36143 0.0
C3348 C 0.46039 0.10409 0.34449 0.0
C3349 C 0.48943 0.07629 0.37088 0.0
C3350 C 0.47553 0.11993 0.25389 0.0
C3351 C 0.49186 0.13326 0.33852 0.0
H3352 H 0.59483 0.12152 0.13931 0.0
H3353 H 0.54934 0.10376 0.19384 0.0
H3354 H 0.57238 0.09243 0.16059 0.0
H3355 H 0.57597 0.173 0.18977 0.0
H3356 H 0.46015 0.05373 0.37472 0.0
H3357 H 0.5158 0.10182 0.36463 0.0
H3358 H 0.44889 0.11465 0.33433 0.0
H3359 H 0.50062 0.06546 0.38124 0.0
Tb3360 Tb 0.04737 0.89761 0.78902 0.0
C3361 C 0.99834 0.94518 0.70584 0.0
N3362 N 0.99343 0.93632 0.72701 0.0
C3363 C 0.96422 0.9655 0.73267 0.0
C3364 C 0.98763 0.96572 0.69811 0.0
C3365 C 0.97524 0.9451 0.73955 0.0
C3366 C 0.97089 0.97622 0.71216 0.0
C3367 C 1.01699 0.94063 0.66854 0.0
C3368 C 1.01251 0.9325 0.69102 0.0
C3369 C 1.00773 0.96196 0.66145 0.0
C3370 C 0.99299 0.97442 0.67616 0.0
Tb3371 Tb 1.01361 0.90335 0.73597 0.0
N3372 N 1.02042 0.91142 0.69805 0.0
C3373 C 0.03002 0.92675 0.65358 0.0
C3374 C 0.03236 0.89741 0.68316 0.0
C3375 C 0.03751 0.90496 0.66085 0.0
H3376 H 0.96927 0.93661 0.75495 0.0
H3377 H 0.04716 0.8939 0.64921 0.0
H3378 H 0.06805 0.84654 0.80661 0.0
H3379 H 0.95823 0.92859 0.79669 0.0
H3380 H 0.0379 0.88037 0.68828 0.0
H3381 H 0.03387 0.93242 0.63619 0.0
H3382 H 0.9959 0.92452 0.77833 0.0
H3383 H 0.95044 0.97281 0.74307 0.0
H3384 H 1.01116 0.96858 0.64431 0.0
H3385 H 0.98519 0.99035 0.67007 0.0
H3386 H 0.06159 0.81971 0.83905 0.0
H3387 H 0.96221 0.99196 0.70679 0.0
H3388 H 0.94878 0.905 0.83088 0.0
N3389 N 0.03974 0.86835 0.81487 0.0
C3390 C 1.01977 0.87012 0.82695 0.0
C3391 C 0.04996 0.83416 0.83631 0.0
C3392 C 1.01441 0.85439 0.84483 0.0
C3393 C 0.05431 0.85002 0.81868 0.0
C3394 C 0.03012 0.83665 0.84983 0.0
N3395 N 1.00935 0.90037 0.80176 0.0
C3396 C 0.99283 0.91483 0.79329 0.0
C3397 C 0.98212 0.88786 0.83119 0.0
C3398 C 1.00395 0.88661 0.82011 0.0
C3399 C 0.96574 0.90352 0.82293 0.0
C3400 C 0.97103 0.91684 0.80368 0.0
H3401 H 0.02658 0.82418 0.86333 0.0
H3402 H 0.98884 0.84453 0.8704 0.0
H3403 H 0.96049 0.87392 0.85846 0.0
O3404 O 0.05944 0.90714 0.82238 0.0
O3405 O 0.03844 0.86113 0.7786 0.0
O3406 O 1.01264 0.86463 0.74899 0.0
O3407 O 0.08274 0.89602 0.79598 0.0
O3408 O 0.03866 0.93659 0.7861 0.0
O3409 O 1.01954 0.94016 0.75144 0.0
O3410 O 0.99082 0.89209 0.7111 0.0
O3411 O 0.04796 0.91648 0.72743 0.0
O3412 O 0.06467 0.92001 0.76356 0.0
O3413 O 0.98036 0.89339 0.7482 0.0
O3414 O 0.04158 0.87878 0.72909 0.0
O3415 O 0.06568 0.87942 0.76124 0.0
C3416 C 0.02363 0.85095 0.76455 0.0
C3417 C 0.0967 0.89223 0.83374 0.0
C3418 C 0.12814 0.89899 0.86046 0.0
C3419 C 0.13302 0.87521 0.86105 0.0
C3420 C 0.10444 0.8692 0.8317 0.0
C3421 C 0.12117 0.86033 0.84652 0.0
C3422 C 0.10863 0.90702 0.84851 0.0
C3423 C 0.02939 0.95045 0.76975 0.0
C3424 C 0.08088 0.90302 0.81696 0.0
C3425 C 0.9932 0.85631 0.85653 0.0
C3426 C 0.97707 0.87302 0.8497 0.0
C3427 C 0.06483 0.92327 0.74102 0.0
C3428 C 0.9517 0.8804 0.71913 0.0
C3429 C 0.92714 0.86457 0.68868 0.0
C3430 C 0.90783 0.86739 0.70333 0.0
C3431 C 0.93229 0.88263 0.73351 0.0
C3432 C 0.94902 0.87135 0.69671 0.0
C3433 C 0.91045 0.87625 0.72556 0.0
C3434 C 0.06104 0.87355 0.73979 0.0
C3435 C 0.97441 0.8892 0.72651 0.0
H3436 H 0.14773 0.86865 0.8706 0.0
H3437 H 0.09941 0.85849 0.81761 0.0
H3438 H 0.12655 0.84243 0.84509 0.0
H3439 H 0.10487 0.92541 0.84792 0.0
H3440 H 0.89065 0.86266 0.69764 0.0
H3441 H 0.93391 0.88981 0.75066 0.0
H3442 H 0.96401 0.86919 0.68562 0.0
H3443 H 0.89546 0.87827 0.73663 0.0
Tb3444 Tb 0.52169 0.89633 0.2994 0.0
C3445 C 0.43888 0.8647 0.23169 0.0
N3446 N 0.46209 0.86187 0.23241 0.0
C3447 C 0.45789 0.8234 0.21701 0.0
C3448 C 0.42406 0.84674 0.22459 0.0
C3449 C 0.4718 0.84183 0.22404 0.0
C3450 C 0.43386 0.82567 0.21778 0.0
C3451 C 0.40647 0.89099 0.23395 0.0
C3452 C 0.43031 0.88633 0.23627 0.0
C3453 C 0.39129 0.87289 0.22837 0.0
C3454 C 0.40009 0.85074 0.22371 0.0
Tb3455 Tb 0.48288 0.89101 0.25002 0.0
N3456 N 0.44569 0.90319 0.24149 0.0
C3457 C 0.39876 0.91376 0.23669 0.0
C3458 C 0.43844 0.92579 0.24215 0.0
C3459 C 0.41488 0.93127 0.24049 0.0
H3460 H 0.49037 0.83992 0.22256 0.0
H3461 H 0.40918 0.94904 0.2421 0.0
H3462 H 0.53003 0.94121 0.33364 0.0
H3463 H 0.5627 0.87402 0.2164 0.0
H3464 H 0.45069 0.93958 0.24496 0.0
H3465 H 0.38058 0.91809 0.23515 0.0
H3466 H 0.53304 0.87151 0.24503 0.0
H3467 H 0.46575 0.80752 0.21089 0.0
H3468 H 0.37285 0.876 0.2269 0.0
H3469 H 0.38834 0.83709 0.21868 0.0
H3470 H 0.559 0.97207 0.33853 0.0
H3471 H 0.4231 0.81142 0.21222 0.0
H3472 H 0.59317 0.90352 0.21938 0.0
N3473 N 0.54541 0.92757 0.30339 0.0
C3474 C 0.56222 0.92994 0.28721 0.0
C3475 C 0.56028 0.96023 0.32415 0.0
C3476 C 0.57898 0.94762 0.28908 0.0
C3477 C 0.54418 0.94244 0.32168 0.0
C3478 C 0.57788 0.96273 0.30786 0.0
N3479 N 0.54585 0.89806 0.26709 0.0
C3480 C 0.54618 0.88366 0.24833 0.0
C3481 C 0.57997 0.91723 0.25152 0.0
C3482 C 0.56252 0.91482 0.2686 0.0
C3483 C 0.58013 0.90219 0.2328 0.0
C3484 C 0.56308 0.88547 0.23115 0.0
H3485 H 0.5904 0.97652 0.30981 0.0
H3486 H 0.60931 0.96315 0.27344 0.0
H3487 H 0.61022 0.93652 0.24058 0.0
O3488 O 0.55138 0.89038 0.3208 0.0
O3489 O 0.51079 0.9336 0.29184 0.0
O3490 O 0.49207 0.93035 0.25699 0.0
O3491 O 0.51707 0.88957 0.33415 0.0
O3492 O 0.52705 0.85854 0.28706 0.0
O3493 O 0.49985 0.85556 0.25852 0.0
O3494 O 0.48431 0.88695 0.21431 0.0
O3495 O 0.46865 0.86804 0.2769 0.0
O3496 O 0.49439 0.87179 0.30697 0.0
O3497 O 0.50949 0.90817 0.23147 0.0
O3498 O 0.46618 0.91256 0.27534 0.0
O3499 O 0.48619 0.90842 0.3096 0.0
C3500 C 0.50161 0.94411 0.27356 0.0
C3501 C 0.54542 0.8967 0.36159 0.0
C3502 C 0.56242 0.88665 0.39878 0.0
C3503 C 0.54934 0.90463 0.40901 0.0
C3504 C 0.53198 0.91385 0.37251 0.0
C3505 C 0.53471 0.9184 0.39583 0.0
C3506 C 0.56126 0.88387 0.37466 0.0
C3507 C 0.51513 0.84497 0.27244 0.0
C3508 C 0.53866 0.88746 0.33898 0.0
C3509 C 0.59627 0.94976 0.27221 0.0
C3510 C 0.59678 0.9346 0.25352 0.0
C3511 C 0.47541 0.86329 0.29802 0.0
C3512 C 0.48903 0.92395 0.19909 0.0
C3513 C 0.45398 0.94443 0.18615 0.0
C3514 C 0.46727 0.96454 0.18315 0.0
C3515 C 0.50194 0.94414 0.19564 0.0
C3516 C 0.46524 0.92408 0.19314 0.0
C3517 C 0.49114 0.96421 0.18738 0.0
C3518 C 0.46713 0.91335 0.29782 0.0
C3519 C 0.49875 0.90392 0.21202 0.0
H3520 H 0.54902 0.90737 0.42741 0.0
H3521 H 0.51812 0.92263 0.36361 0.0
H3522 H 0.52411 0.93149 0.40408 0.0
H3523 H 0.57119 0.87045 0.36614 0.0
H3524 H 0.4592 0.98053 0.17759 0.0
H3525 H 0.52012 0.94463 0.20011 0.0
H3526 H 0.45486 0.90871 0.19557 0.0
H3527 H 0.50116 0.97984 0.18507 0.0
Tb3528 Tb 0.89841 0.78091 0.04621 0.0
C3529 C 0.94167 0.70968 0.98245 0.0
N3530 N 0.93398 0.73192 0.98088 0.0
C3531 C 0.96635 0.74142 0.9566 0.0
C3532 C 0.96314 0.70306 0.97287 0.0
C3533 C 0.9448 0.74707 0.96617 0.0
C3534 C 0.97593 0.71957 0.96061 0.0
C3535 C 0.93332 0.66949 0.99147 0.0
C3536 C 0.92672 0.69297 0.9913 0.0
C3537 C 0.95561 0.6632 0.98392 0.0
C3538 C 0.97047 0.67994 0.97458 0.0
Tb3539 Tb 0.9002 0.73863 1.00076 0.0
N3540 N 0.90498 0.69957 0.9978 0.0
C3541 C 0.91701 0.65297 0.99834 0.0
C3542 C 0.88862 0.68342 1.00327 0.0
C3543 C 0.89446 0.65993 1.00382 0.0
H3544 H 0.93738 0.76381 0.9626 0.0
H3545 H 0.88155 0.64719 1.00846 0.0
H3546 H 0.85577 0.79905 0.07978 0.0
H3547 H 0.91931 0.80597 0.95783 0.0
H3548 H 0.8711 0.68854 1.00725 0.0
H3549 H 0.9214 0.63474 0.99869 0.0
H3550 H 0.91723 0.77949 0.99041 0.0
H3551 H 0.97549 0.75386 0.94602 0.0
H3552 H 0.96114 0.64527 0.98428 0.0
H3553 H 0.98714 0.67462 0.96775 0.0
H3554 H 0.83085 0.83367 0.08339 0.0
H3555 H 0.99253 0.71519 0.95301 0.0
H3556 H 0.89941 0.84377 0.95998 0.0
N3557 N 0.87261 0.81065 0.04946 0.0
C3558 C 0.87311 0.82664 0.03243 0.0
C3559 C 0.84288 0.8321 0.06913 0.0
C3560 C 0.85887 0.84649 0.0334 0.0
C3561 C 0.85728 0.81271 0.06734 0.0
C3562 C 0.84392 0.84926 0.05225 0.0
N3563 N 0.8991 0.80208 1.01244 0.0
C3564 C 0.90987 0.79606 0.99241 0.0
C3565 C 0.88667 0.83793 0.9946 0.0
C3566 C 0.88687 0.82229 1.01333 0.0
C3567 C 0.89916 0.83229 0.97474 0.0
C3568 C 0.91046 0.81104 0.97351 0.0
H3569 H 0.83264 0.86422 0.05357 0.0
H3570 H 0.84882 0.87799 1.01578 0.0
H3571 H 0.87321 0.87052 0.98177 0.0
O3572 O 0.90682 0.80938 0.06811 0.0
O3573 O 0.86052 0.77594 0.03658 0.0
O3574 O 0.8615 0.75144 1.00523 0.0
O3575 O 0.90558 0.77464 0.08064 0.0
O3576 O 0.93578 0.78437 0.0333 0.0
O3577 O 0.93701 0.75247 1.0101 0.0
O3578 O 0.89535 0.72332 0.96897 0.0
O3579 O 0.91054 0.71989 0.03099 0.0
O3580 O 0.92091 0.75077 0.05384 0.0
O3581 O 0.88293 0.75843 0.97514 0.0
O3582 O 0.87648 0.72483 0.02712 0.0
O3583 O 0.87689 0.75152 0.05731 0.0
C3584 C 0.84895 0.76496 1.01989 0.0
C3585 C 0.89965 0.80302 0.10847 0.0
C3586 C 0.90915 0.81917 0.14598 0.0
C3587 C 0.88924 0.80863 0.15533 0.0
C3588 C 0.88049 0.79173 0.1184 0.0
C3589 C 0.87486 0.79528 0.14148 0.0
C3590 C 0.91348 0.81718 0.12222 0.0
C3591 C 0.94854 0.76928 1.02124 0.0
C3592 C 0.90892 0.79601 0.08594 0.0
C3593 C 0.85948 0.86254 1.01527 0.0
C3594 C 0.87338 0.85829 0.99592 0.0
C3595 C 0.92019 0.72838 0.04949 0.0
C3596 C 0.85998 0.73233 0.95214 0.0
C3597 C 0.83304 0.70054 0.94425 0.0
C3598 C 0.81944 0.71598 0.93126 0.0
C3599 C 0.84616 0.74733 0.93915 0.0
C3600 C 0.85309 0.70901 0.95477 0.0
C3601 C 0.82592 0.73918 0.92887 0.0
C3602 C 0.8705 0.73158 0.04815 0.0
C3603 C 0.88243 0.74017 0.96149 0.0
H3604 H 0.88543 0.80949 0.17358 0.0
H3605 H 0.87056 0.77924 0.10875 0.0
H3606 H 0.86012 0.7865 0.149 0.0
H3607 H 0.92866 0.82521 0.11466 0.0
H3608 H 0.80398 0.71007 0.9226 0.0
H3609 H 0.85119 0.76521 0.93669 0.0
H3610 H 0.86341 0.69721 0.9649 0.0
H3611 H 0.81538 0.7508 0.9187 0.0
Tb3612 Tb 0.65188 0.27358 0.54313 0.0
C3613 C 0.62092 0.36543 0.4856 0.0
N3614 N 0.61931 0.34231 0.48304 0.0
C3615 C 0.58124 0.34701 0.46686 0.0
C3616 C 0.60259 0.3804 0.47965 0.0
C3617 C 0.6 0.33299 0.473 0.0
C3618 C 0.58235 0.37083 0.47061 0.0
C3619 C 0.64539 0.39803 0.49372 0.0
C3620 C 0.64173 0.37397 0.49263 0.0
C3621 C 0.62684 0.41321 0.48933 0.0
C3622 C 0.6054 0.40437 0.48232 0.0
Tb3623 Tb 0.64753 0.32021 0.50053 0.0
N3624 N 0.65894 0.35852 0.49654 0.0
C3625 C 0.66771 0.40601 0.49834 0.0
C3626 C 0.68115 0.36635 0.49929 0.0
C3627 C 0.68577 0.39009 0.50059 0.0
H3628 H 0.59882 0.31455 0.47008 0.0
H3629 H 0.70328 0.39607 0.50341 0.0
H3630 H 0.69829 0.25806 0.57362 0.0
H3631 H 0.62199 0.24405 0.45845 0.0
H3632 H 0.69537 0.35436 0.50102 0.0
H3633 H 0.67131 0.42437 0.49934 0.0
H3634 H 0.62345 0.27045 0.49031 0.0
H3635 H 0.5659 0.33941 0.4594 0.0
H3636 H 0.62913 0.43176 0.49053 0.0
H3637 H 0.59141 0.4162 0.47826 0.0
H3638 H 0.72774 0.22732 0.57252 0.0
H3639 H 0.56781 0.38169 0.46587 0.0
H3640 H 0.64958 0.21158 0.45593 0.0
N3641 N 0.68172 0.2474 0.54255 0.0
C3642 C 0.68207 0.23243 0.5246 0.0
C3643 C 0.71491 0.22843 0.55902 0.0
C3644 C 0.69882 0.21459 0.52334 0.0
C3645 C 0.69794 0.24568 0.55969 0.0
C3646 C 0.71526 0.2127 0.54086 0.0
N3647 N 0.65052 0.25324 0.50854 0.0
C3648 C 0.63478 0.25603 0.49112 0.0
C3649 C 0.66617 0.21993 0.48819 0.0
C3650 C 0.666 0.23535 0.50714 0.0
C3651 C 0.64997 0.22299 0.47072 0.0
C3652 C 0.63432 0.24119 0.47216 0.0
H3653 H 0.72841 0.1993 0.54042 0.0
H3654 H 0.71146 0.18546 0.50343 0.0
H3655 H 0.68274 0.19001 0.47272 0.0
O3656 O 0.63352 0.24608 0.55886 0.0
O3657 O 0.68883 0.28154 0.53127 0.0
O3658 O 0.68722 0.31291 0.50639 0.0
O3659 O 0.65767 0.2656 0.57793 0.0
O3660 O 0.613 0.27334 0.53274 0.0
O3661 O 0.61105 0.3048 0.50873 0.0
O3662 O 0.64458 0.31812 0.46477 0.0
O3663 O 0.62268 0.32675 0.52795 0.0
O3664 O 0.63538 0.30403 0.5579 0.0
O3665 O 0.66337 0.29199 0.48351 0.0
O3666 O 0.66779 0.33382 0.52888 0.0
O3667 O 0.66912 0.30543 0.55751 0.0
C3668 C 0.70003 0.29691 0.518 0.0
C3669 C 0.62404 0.25612 0.5971 0.0
C3670 C 0.61111 0.25434 0.63705 0.0
C3671 C 0.59749 0.27425 0.63319 0.0
C3672 C 0.60812 0.27407 0.59314 0.0
C3673 C 0.59554 0.28359 0.61124 0.0
C3674 C 0.62521 0.2459 0.61903 0.0
C3675 C 0.59981 0.28786 0.52027 0.0
C3676 C 0.64129 0.25061 0.57925 0.0
C3677 C 0.69882 0.19931 0.50461 0.0
C3678 C 0.6825 0.20193 0.48712 0.0
C3679 C 0.62344 0.32154 0.54988 0.0
C3680 C 0.68022 0.30824 0.44958 0.0
C3681 C 0.70683 0.33907 0.43819 0.0
C3682 C 0.71906 0.3233 0.42437 0.0
C3683 C 0.69231 0.29262 0.43554 0.0
C3684 C 0.68743 0.33145 0.45026 0.0
C3685 C 0.71158 0.30024 0.42281 0.0
C3686 C 0.6741 0.32648 0.54936 0.0
C3687 C 0.65972 0.30152 0.46333 0.0
H3688 H 0.58738 0.28197 0.64694 0.0
H3689 H 0.60579 0.28125 0.5762 0.0
H3690 H 0.58411 0.29814 0.60822 0.0
H3691 H 0.63661 0.23125 0.6218 0.0
H3692 H 0.73417 0.32882 0.41475 0.0
H3693 H 0.68685 0.27475 0.43436 0.0
H3694 H 0.6778 0.34391 0.46016 0.0
H3695 H 0.72087 0.2882 0.41187 0.0
Tb3696 Tb 0.27808 0.48968 0.15173 0.0
C3697 C 0.19624 0.54295 0.10576 0.0
N3698 N 0.21829 0.54654 0.11283 0.0
C3699 C 0.22463 0.57257 0.08116 0.0
C3700 C 0.18804 0.55272 0.08509 0.0
C3701 C 0.23188 0.56262 0.10188 0.0
C3702 C 0.20283 0.56712 0.0724 0.0
C3703 C 0.1578 0.52858 0.11446 0.0
C3704 C 0.18124 0.53139 0.12047 0.0
C3705 C 0.14998 0.53665 0.09301 0.0
C3706 C 0.16505 0.5488 0.07839 0.0
Tb3707 Tb 0.22841 0.52722 0.14577 0.0
N3708 N 0.1892 0.52469 0.14148 0.0
C3709 C 0.14275 0.51857 0.13056 0.0
C3710 C 0.17426 0.51637 0.15776 0.0
C3711 C 0.15094 0.5128 0.15243 0.0
H3712 H 0.24876 0.56687 0.10857 0.0
H3713 H 0.13924 0.50585 0.16527 0.0
H3714 H 0.29719 0.45763 0.19497 0.0
H3715 H 0.29652 0.57892 0.12655 0.0
H3716 H 0.18007 0.51281 0.17496 0.0
H3717 H 0.12462 0.51605 0.12659 0.0
H3718 H 0.2776 0.54188 0.1231 0.0
H3719 H 0.23583 0.58444 0.072 0.0
H3720 H 0.13209 0.53442 0.08797 0.0
H3721 H 0.15852 0.55583 0.06237 0.0
H3722 H 0.32473 0.46183 0.22711 0.0
H3723 H 0.19718 0.57497 0.05643 0.0
H3724 H 0.32339 0.58625 0.15861 0.0
N3725 N 0.30217 0.49199 0.1826 0.0
C3726 C 0.31323 0.51245 0.18541 0.0
C3727 C 0.32167 0.47617 0.21552 0.0
C3728 C 0.32898 0.51559 0.20365 0.0
C3729 C 0.30622 0.47381 0.19722 0.0
C3730 C 0.33314 0.49713 0.21872 0.0
N3731 N 0.2926 0.52687 0.15301 0.0
C3732 C 0.28919 0.54392 0.13705 0.0
C3733 C 0.31957 0.55191 0.17295 0.0
C3734 C 0.3082 0.53044 0.17031 0.0
C3735 C 0.31507 0.56954 0.15716 0.0
C3736 C 0.29996 0.56544 0.13905 0.0
H3737 H 0.34512 0.49891 0.23292 0.0
H3738 H 0.35215 0.53974 0.22024 0.0
H3739 H 0.34409 0.57148 0.19327 0.0
O3740 O 0.3103 0.4799 0.13771 0.0
O3741 O 0.26796 0.49863 0.18932 0.0
O3742 O 0.24166 0.52799 0.18407 0.0
O3743 O 0.28816 0.45444 0.15278 0.0
O3744 O 0.27821 0.50029 0.11281 0.0
O3745 O 0.24413 0.52012 0.11002 0.0
O3746 O 0.20873 0.55519 0.15591 0.0
O3747 O 0.21733 0.49376 0.1309 0.0
O3748 O 0.25213 0.47379 0.12961 0.0
O3749 O 0.24724 0.5577 0.15358 0.0
O3750 O 0.21978 0.50157 0.17157 0.0
O3751 O 0.24712 0.47215 0.16746 0.0
C3752 C 0.25523 0.51563 0.1987 0.0
C3753 C 0.3282 0.44493 0.14992 0.0
C3754 C 0.35099 0.40927 0.14692 0.0
C3755 C 0.36827 0.41954 0.16049 0.0
C3756 C 0.34605 0.4551 0.16269 0.0
C3757 C 0.36573 0.44226 0.16835 0.0
C3758 C 0.33074 0.42203 0.14218 0.0
C3759 C 0.26226 0.51053 0.09925 0.0
C3760 C 0.3077 0.45815 0.14243 0.0
C3761 C 0.33998 0.537 0.20636 0.0
C3762 C 0.33532 0.55509 0.19104 0.0
C3763 C 0.23002 0.47578 0.12446 0.0
C3764 C 0.2247 0.59218 0.16571 0.0
C3765 C 0.19968 0.62201 0.18212 0.0
C3766 C 0.21759 0.63821 0.17936 0.0
C3767 C 0.24247 0.60843 0.16301 0.0
C3768 C 0.20345 0.59913 0.17526 0.0
C3769 C 0.23884 0.6314 0.16978 0.0
C3770 C 0.22684 0.4802 0.17515 0.0
C3771 C 0.22728 0.56814 0.1579 0.0
H3772 H 0.38417 0.41038 0.16432 0.0
H3773 H 0.345 0.47301 0.168 0.0
H3774 H 0.37938 0.45016 0.17832 0.0
H3775 H 0.3171 0.41436 0.13196 0.0
H3776 H 0.21518 0.65602 0.18464 0.0
H3777 H 0.25895 0.60346 0.1555 0.0
H3778 H 0.18987 0.58648 0.17796 0.0
H3779 H 0.25255 0.64396 0.16765 0.0
Tb3780 Tb 0.26225 0.49614 0.8973 0.0
C3781 C 0.33923 0.55151 0.94368 0.0
N3782 N 0.31755 0.5557 0.93559 0.0
C3783 C 0.3098 0.58049 0.96788 0.0
C3784 C 0.34623 0.55996 0.9653 0.0
C3785 C 0.30374 0.57185 0.94623 0.0
C3786 C 0.33082 0.5739 0.9778 0.0
C3787 C 0.37829 0.53776 0.93618 0.0
C3788 C 0.35521 0.54094 0.92909 0.0
C3789 C 0.38475 0.54418 0.95859 0.0
C3790 C 0.36878 0.55535 0.97309 0.0
Tb3791 Tb 0.30949 0.53731 0.90161 0.0
N3792 N 0.34853 0.53569 0.90724 0.0
C3793 C 0.39437 0.52916 0.92022 0.0
C3794 C 0.36447 0.52886 0.89117 0.0
C3795 C 0.38754 0.5252 0.89751 0.0
H3796 H 0.28767 0.57729 0.93854 0.0
H3797 H 0.40011 0.5195 0.88486 0.0
H3798 H 0.24284 0.46809 0.85197 0.0
H3799 H 0.24446 0.58532 0.92362 0.0
H3800 H 0.35949 0.52636 0.8735 0.0
H3801 H 0.41229 0.52646 0.92499 0.0
H3802 H 0.26772 0.55051 0.92019 0.0
H3803 H 0.29832 0.5923 0.97685 0.0
H3804 H 0.40233 0.54154 0.96449 0.0
H3805 H 0.37434 0.56126 0.98988 0.0
H3806 H 0.20852 0.46891 0.82679 0.0
H3807 H 0.33553 0.58075 0.9945 0.0
H3808 H 0.20763 0.58843 0.90243 0.0
N3809 N 0.23332 0.49794 0.87069 0.0
C3810 C 0.21894 0.51639 0.87192 0.0
C3811 C 0.21096 0.48219 0.83968 0.0
C3812 C 0.19952 0.51825 0.85734 0.0
C3813 C 0.23001 0.48129 0.85439 0.0
C3814 C 0.19541 0.50062 0.84138 0.0
N3815 N 0.24435 0.53205 0.89949 0.0
C3816 C 0.25155 0.55059 0.91199 0.0
C3817 C 0.21077 0.55427 0.88751 0.0
C3818 C 0.22461 0.53406 0.88682 0.0
C3819 C 0.21769 0.57261 0.90145 0.0
C3820 C 0.23839 0.57088 0.91346 0.0
H3821 H 0.18075 0.50145 0.82983 0.0
H3822 H 0.17018 0.53956 0.84776 0.0
H3823 H 0.18002 0.57118 0.87424 0.0
O3824 O 0.23145 0.47739 0.90579 0.0
O3825 O 0.26954 0.50712 0.86011 0.0
O3826 O 0.29749 0.53542 0.86254 0.0
O3827 O 0.26355 0.46021 0.89943 0.0
O3828 O 0.26075 0.50699 0.93581 0.0
O3829 O 0.29396 0.52856 0.938 0.0
O3830 O 0.32917 0.56656 0.89561 0.0
O3831 O 0.32387 0.5046 0.91353 0.0
O3832 O 0.28982 0.48489 0.9207 0.0
O3833 O 0.29199 0.56674 0.88851 0.0
O3834 O 0.32034 0.51108 0.87694 0.0
O3835 O 0.29239 0.48208 0.87817 0.0
C3836 C 0.28266 0.52288 0.84927 0.0
C3837 C 0.23055 0.43751 0.89341 0.0
C3838 C 0.20628 0.40339 0.89866 0.0
C3839 C 0.21357 0.39503 0.8771 0.0
C3840 C 0.23932 0.42759 0.87298 0.0
C3841 C 0.23 0.40717 0.86433 0.0
C3842 C 0.21387 0.42528 0.90607 0.0
C3843 C 0.27631 0.51801 0.9491 0.0
C3844 C 0.24194 0.45754 0.90437 0.0
C3845 C 0.18526 0.53788 0.85869 0.0
C3846 C 0.19086 0.55586 0.87377 0.0
C3847 C 0.31243 0.48721 0.92256 0.0
C3848 C 0.31765 0.58956 0.8644 0.0
C3849 C 0.3468 0.6037 0.83683 0.0
C3850 C 0.32883 0.61314 0.82348 0.0
C3851 C 0.30013 0.59925 0.85079 0.0
C3852 C 0.34103 0.59207 0.85734 0.0
C3853 C 0.30573 0.61094 0.83047 0.0
C3854 C 0.31282 0.49018 0.87169 0.0
C3855 C 0.3119 0.57787 0.88646 0.0
H3856 H 0.20811 0.37822 0.87098 0.0
H3857 H 0.25409 0.43491 0.86415 0.0
H3858 H 0.23667 0.39992 0.84843 0.0
H3859 H 0.20832 0.43187 0.9227 0.0
H3860 H 0.33262 0.62243 0.80772 0.0
H3861 H 0.28213 0.59789 0.85593 0.0
H3862 H 0.35484 0.58471 0.8676 0.0
H3863 H 0.29211 0.61841 0.82008 0.0
Tb3864 Tb 0.3087 0.52834 0.64489 0.0
C3865 C 0.22577 0.58357 0.69444 0.0
N3866 N 0.22972 0.56182 0.6863 0.0
C3867 C 0.20752 0.54583 0.71746 0.0
C3868 C 0.2142 0.5871 0.71555 0.0
C3869 C 0.21895 0.54323 0.69632 0.0
C3870 C 0.20573 0.56778 0.72745 0.0
C3871 C 0.22598 0.62506 0.68756 0.0
C3872 C 0.23108 0.60236 0.68031 0.0
C3873 C 0.21634 0.6287 0.70953 0.0
C3874 C 0.21034 0.60977 0.72344 0.0
Tb3875 Tb 0.2511 0.5607 0.65308 0.0
N3876 N 0.23995 0.59817 0.65888 0.0
C3877 C 0.2301 0.64334 0.67225 0.0
C3878 C 0.24281 0.61581 0.64347 0.0
C3879 C 0.23817 0.63865 0.65 0.0
H3880 H 0.22041 0.52627 0.68857 0.0
H3881 H 0.24083 0.65262 0.63787 0.0
H3882 H 0.34463 0.52011 0.60209 0.0
H3883 H 0.23042 0.48105 0.66708 0.0
H3884 H 0.24881 0.61244 0.62622 0.0
H3885 H 0.22646 0.66105 0.67719 0.0
H3886 H 0.25513 0.51509 0.66416 0.0
H3887 H 0.20007 0.53095 0.72601 0.0
H3888 H 0.2126 0.64606 0.71555 0.0
H3889 H 0.20192 0.61284 0.73987 0.0
H3890 H 0.35743 0.48768 0.57713 0.0
H3891 H 0.19674 0.56975 0.74376 0.0
H3892 H 0.24209 0.44478 0.64759 0.0
N3893 N 0.31859 0.50053 0.61884 0.0
C3894 C 0.30702 0.48028 0.61985 0.0
C3895 C 0.34329 0.48529 0.58918 0.0
C3896 C 0.31319 0.46144 0.60568 0.0
C3897 C 0.33623 0.50352 0.60346 0.0
C3898 C 0.33187 0.46403 0.59047 0.0
N3899 N 0.28212 0.49857 0.64593 0.0
C3900 C 0.26128 0.49944 0.65697 0.0
C3901 C 0.27397 0.45925 0.63422 0.0
C3902 C 0.28796 0.47924 0.63396 0.0
C3903 C 0.25342 0.45968 0.64698 0.0
C3904 C 0.24683 0.48007 0.65805 0.0
H3905 H 0.3372 0.44998 0.57928 0.0
H3906 H 0.30461 0.42624 0.59612 0.0
H3907 H 0.27006 0.42435 0.6211 0.0
O3908 O 0.33374 0.511 0.66466 0.0
O3909 O 0.29459 0.53071 0.60801 0.0
O3910 O 0.25877 0.54885 0.61431 0.0
O3911 O 0.34335 0.53991 0.64361 0.0
O3912 O 0.29945 0.52703 0.68428 0.0
O3913 O 0.26294 0.54375 0.68856 0.0
O3914 O 0.2164 0.56822 0.64871 0.0
O3915 O 0.27476 0.5866 0.66727 0.0
O3916 O 0.29143 0.55558 0.66078 0.0
O3917 O 0.23038 0.53578 0.63579 0.0
O3918 O 0.27342 0.57867 0.62699 0.0
O3919 O 0.31106 0.56205 0.62616 0.0
C3920 C 0.2746 0.53905 0.59932 0.0
C3921 C 0.37246 0.51123 0.65129 0.0
C3922 C 0.40223 0.48271 0.66143 0.0
C3923 C 0.41364 0.48753 0.64054 0.0
C3924 C 0.38484 0.51643 0.63106 0.0
C3925 C 0.40506 0.50435 0.62559 0.0
C3926 C 0.38157 0.49463 0.66669 0.0
C3927 C 0.28159 0.53345 0.69836 0.0
C3928 C 0.35076 0.52364 0.65727 0.0
C3929 C 0.3001 0.44101 0.60672 0.0
C3930 C 0.28046 0.43992 0.62097 0.0
C3931 C 0.29437 0.57635 0.66888 0.0
C3932 C 0.20126 0.55625 0.61388 0.0
C3933 C 0.18514 0.58741 0.59046 0.0
C3934 C 0.17017 0.57154 0.58002 0.0
C3935 C 0.18653 0.54045 0.60307 0.0
C3936 C 0.20133 0.57947 0.60639 0.0
C3937 C 0.17136 0.54804 0.58584 0.0
C3938 C 0.29561 0.57829 0.62007 0.0
C3939 C 0.21275 0.55028 0.63578 0.0
H3940 H 0.42964 0.47875 0.63609 0.0
H3941 H 0.37903 0.52987 0.61946 0.0
H3942 H 0.41432 0.50829 0.60982 0.0
H3943 H 0.37262 0.49098 0.68274 0.0
H3944 H 0.1573 0.57741 0.5678 0.0
H3945 H 0.18599 0.52257 0.60865 0.0
H3946 H 0.21238 0.59203 0.61464 0.0
H3947 H 0.15969 0.53588 0.57784 0.0
Tb3948 Tb 0.23782 0.51843 0.40457 0.0
C3949 C 0.28965 0.59335 0.34834 0.0
N3950 N 0.29409 0.57212 0.35741 0.0
C3951 C 0.31872 0.56305 0.32521 0.0
C3952 C 0.29806 0.59946 0.32634 0.0
C3953 C 0.31019 0.5579 0.34719 0.0
C3954 C 0.31207 0.58362 0.31443 0.0
C3955 C 0.27569 0.63257 0.35404 0.0
C3956 C 0.27901 0.60986 0.36228 0.0
C3957 C 0.28218 0.63811 0.33134 0.0
C3958 C 0.29345 0.62163 0.31756 0.0
Tb3959 Tb 0.2769 0.56549 0.39238 0.0
N3960 N 0.27399 0.6042 0.38455 0.0
C3961 C 0.26684 0.64929 0.36915 0.0
C3962 C 0.26679 0.62088 0.39973 0.0
C3963 C 0.26273 0.64349 0.39215 0.0
H3964 H 0.31563 0.54214 0.35556 0.0
H3965 H 0.25657 0.6565 0.40412 0.0
H3966 H 0.21298 0.50221 0.45309 0.0
H3967 H 0.32505 0.49854 0.373 0.0
H3968 H 0.26414 0.61708 0.41773 0.0
H3969 H 0.26396 0.66691 0.36345 0.0
H3970 H 0.29036 0.52196 0.37704 0.0
H3971 H 0.33052 0.55125 0.31667 0.0
H3972 H 0.2795 0.65541 0.32464 0.0
H3973 H 0.29941 0.62652 0.30052 0.0
H3974 H 0.21554 0.46957 0.48049 0.0
H3975 H 0.31889 0.58768 0.2975 0.0
H3976 H 0.32982 0.46338 0.39669 0.0
N3977 N 0.24166 0.4914 0.43305 0.0
C3978 C 0.26001 0.47692 0.43155 0.0
C3979 C 0.22799 0.47116 0.46659 0.0
C3980 C 0.26278 0.45841 0.44718 0.0
C3981 C 0.22614 0.48927 0.45075 0.0
C3982 C 0.24621 0.45539 0.46458 0.0
N3983 N 0.27375 0.50049 0.40137 0.0
C3984 C 0.29125 0.50658 0.38676 0.0
C3985 C 0.29678 0.46765 0.41389 0.0
C3986 C 0.27667 0.48161 0.41516 0.0
C3987 C 0.31411 0.47356 0.39817 0.0
C3988 C 0.31144 0.49332 0.38477 0.0
H3989 H 0.24774 0.44143 0.47694 0.0
H3990 H 0.28462 0.42955 0.45705 0.0
H3991 H 0.31447 0.43763 0.42782 0.0
O3992 O 0.2194 0.4872 0.3984 0.0
O3993 O 0.25007 0.52826 0.44047 0.0
O3994 O 0.27859 0.55472 0.43213 0.0
O3995 O 0.20178 0.51874 0.40678 0.0
O3996 O 0.24751 0.51426 0.36541 0.0
O3997 O 0.26765 0.54751 0.35757 0.0
O3998 O 0.30663 0.58508 0.39502 0.0
O3999 O 0.24185 0.57718 0.38211 0.0
O4000 O 0.22521 0.5415 0.37779 0.0
O4001 O 0.30694 0.54848 0.40474 0.0
O4002 O 0.25392 0.57811 0.41892 0.0
O4003 O 0.22481 0.55053 0.4222 0.0
C4004 C 0.2671 0.54158 0.44821 0.0
C4005 C 0.18108 0.48449 0.41446 0.0
C4006 C 0.14895 0.45765 0.41075 0.0
C4007 C 0.14021 0.46489 0.43216 0.0
C4008 C 0.17099 0.493 0.43491 0.0
C4009 C 0.15138 0.48242 0.44427 0.0
C4010 C 0.17024 0.46637 0.40287 0.0
C4011 C 0.25748 0.52834 0.34943 0.0
C4012 C 0.19949 0.49704 0.40204 0.0
C4013 C 0.28226 0.44398 0.44535 0.0
C4014 C 0.29924 0.44859 0.42872 0.0
C4015 C 0.2244 0.56404 0.37564 0.0
C4016 C 0.33244 0.5749 0.42441 0.0
C4017 C 0.3481 0.60521 0.4491 0.0
C4018 C 0.36155 0.58863 0.46057 0.0
C4019 C 0.34621 0.55853 0.43586 0.0
C4020 C 0.33357 0.59831 0.43121 0.0
C4021 C 0.36063 0.5654 0.4539 0.0
C4022 C 0.23373 0.57121 0.42671 0.0
C4023 C 0.3185 0.56817 0.40421 0.0
H4024 H 0.12378 0.4585 0.43854 0.0
H4025 H 0.17742 0.50843 0.44316 0.0
H4026 H 0.14387 0.48895 0.4601 0.0
H4027 H 0.17703 0.46081 0.38631 0.0
H4028 H 0.37274 0.59368 0.47462 0.0
H4029 H 0.346 0.54052 0.4307 0.0
H4030 H 0.32324 0.61139 0.42263 0.0
H4031 H 0.37121 0.55269 0.46268 0.0
H4032 H 0.04669 0.48613 0.24182 0.0
H4033 H 0.04476 0.47458 0.31502 0.0
H4034 H 0.04658 0.51642 0.32157 0.0
H4035 H 0.04816 0.55898 0.30741 0.0
H4036 H 0.04619 0.57035 0.23415 0.0
H4037 H 0.04644 0.52856 0.22771 0.0
C4038 C 0.04688 0.49234 0.2594 0.0
C4039 C 0.04602 0.47503 0.27783 0.0
C4040 C 0.04717 0.51785 0.26339 0.0
C4041 C 0.04566 0.48569 0.30002 0.0
C4042 C 0.04668 0.5104 0.30391 0.0
C4043 C 0.04798 0.55273 0.28983 0.0
C4044 C 0.04753 0.57004 0.27134 0.0
C4045 C 0.04741 0.52719 0.28589 0.0
C4046 C 0.04672 0.5593 0.2492 0.0
C4047 C 0.04686 0.5346 0.24536 0.0
H4048 H 0.81163 0.7791 0.4884 0.0
H4049 H 0.82322 0.7862 0.56123 0.0
H4050 H 0.78149 0.78715 0.56803 0.0
H4051 H 0.7391 0.78533 0.55445 0.0
H4052 H 0.72735 0.77323 0.4823 0.0
H4053 H 0.7691 0.77481 0.47509 0.0
C4054 C 0.80541 0.78118 0.5059 0.0
C4055 C 0.82269 0.7835 0.5241 0.0
C4056 C 0.77994 0.78063 0.5102 0.0
C4057 C 0.8121 0.78507 0.54632 0.0
C4058 C 0.78745 0.78547 0.5504 0.0
C4059 C 0.74525 0.78306 0.53696 0.0
C4060 C 0.72793 0.77933 0.51904 0.0
C4061 C 0.7707 0.78321 0.53266 0.0
C4062 C 0.73849 0.77619 0.49695 0.0
C4063 C 0.76314 0.77713 0.49265 0.0
H4064 H 0.52939 0.48748 0.74811 0.0
H4065 H 0.50435 0.47591 0.81711 0.0
H4066 H 0.50282 0.51792 0.82338 0.0
H4067 H 0.50848 0.56009 0.80993 0.0
H4068 H 0.52959 0.57144 0.73964 0.0
H4069 H 0.53273 0.52946 0.73397 0.0
C4070 C 0.52364 0.49379 0.76474 0.0
C4071 C 0.51739 0.47668 0.78218 0.0
C4072 C 0.52205 0.5191 0.76823 0.0
C4073 C 0.50965 0.48707 0.80308 0.0
C4074 C 0.50872 0.51176 0.80674 0.0
C4075 C 0.51378 0.55369 0.79319 0.0
C4076 C 0.51886 0.57073 0.7753 0.0
C4077 C 0.51487 0.52835 0.78958 0.0
C4078 C 0.52538 0.56029 0.75405 0.0
C4079 C 0.52725 0.53564 0.75073 0.0
H4080 H 0.80928 0.24298 0.99614 0.0
H4081 H 0.81909 0.25291 0.06878 0.0
H4082 H 0.77702 0.25505 0.0743 0.0
H4083 H 0.73509 0.25527 0.05895 0.0
H4084 H 0.72506 0.24077 0.98706 0.0
H4085 H 0.7672 0.23953 0.98139 0.0
C4086 C 0.80256 0.24536 1.01342 0.0
C4087 C 0.81935 0.24744 0.03212 0.0
C4088 C 0.77703 0.24606 1.01673 0.0
C4089 C 0.80831 0.25067 0.05384 0.0
C4090 C 0.78351 0.25213 0.05701 0.0
C4091 C 0.74176 0.2517 0.04186 0.0
C4092 C 0.72492 0.24842 1.02339 0.0
C4093 C 0.76725 0.25 0.0387 0.0
C4094 C 0.73589 0.24358 1.00191 0.0
C4095 C 0.76072 0.24285 0.9986 0.0
H4096 H 0.2957 1.00431 0.48763 0.0
H4097 H 0.25423 0.06421 0.47263 0.0
H4098 H 0.24736 0.06962 0.51406 0.0
H4099 H 0.25223 0.05772 0.55699 0.0
H4100 H 0.29262 0.99677 0.57138 0.0
H4101 H 0.29986 0.99181 0.52995 0.0
C4102 C 0.28502 1.01862 0.49287 0.0
C4103 C 0.2757 0.0336 0.47471 0.0
C4104 C 0.28063 1.02164 0.51799 0.0
C4105 C 0.26195 0.0518 0.48431 0.0
C4106 C 0.25793 0.05505 0.50879 0.0
C4107 C 0.26284 0.04327 0.55147 0.0
C4108 C 0.27204 0.02791 0.56941 0.0
C4109 C 0.26703 0.04017 0.52627 0.0
C4110 C 0.28528 1.00945 0.55975 0.0
C4111 C 0.28947 1.00648 0.53532 0.0
H4112 H 0.25892 0.05325 0.73811 0.0
H4113 H 0.25997 0.98073 0.72139 0.0
H4114 H 0.26341 0.97143 0.76256 0.0
H4115 H 0.26649 0.98288 0.80572 0.0
H4116 H 0.26052 0.05517 0.82257 0.0
H4117 H 0.25871 0.06451 0.78135 0.0
C4118 C 0.25975 0.0352 0.74305 0.0
C4119 C 0.25912 1.01795 0.72447 0.0
C4120 C 0.26096 0.02956 0.76813 0.0
C4121 C 0.26019 0.99499 0.73347 0.0
C4122 C 0.26228 0.98951 0.75779 0.0
C4123 C 0.26474 1.00087 0.8008 0.0
C4124 C 0.26396 1.01809 0.81944 0.0
C4125 C 0.26274 1.00646 0.77575 0.0
C4126 C 0.26134 0.04094 0.81047 0.0
C4127 C 0.26029 0.04646 0.78611 0.0
H4128 H 0.29464 0.9658 0.05684 0.0
H4129 H 0.25537 0.02767 0.07072 0.0
H4130 H 0.25187 0.03463 0.02926 0.0
H4131 H 0.25949 0.02419 0.98677 0.0
H4132 H 0.30127 0.96407 0.97249 0.0
H4133 H 0.30375 0.95622 1.014 0.0
C4134 C 0.28476 0.98067 0.05124 0.0
C4135 C 0.27443 0.9955 0.06911 0.0
C4136 C 0.28326 0.9853 0.02595 0.0
C4137 C 0.26306 1.01505 0.05919 0.0
C4138 C 0.26114 1.01928 0.03471 0.0
C4139 C 0.2693 1.00922 0.99228 0.0
C4140 C 0.27998 0.99483 0.97431 0.0
C4141 C 0.27109 1.00469 1.01747 0.0
C4142 C 0.29251 0.97591 0.98408 0.0
C4143 C 0.29394 0.97125 1.0086 0.0
H4144 H 0.29796 0.04178 0.23327 0.0
H4145 H 0.28662 0.96839 0.22795 0.0
H4146 H 0.28768 0.96505 0.26981 0.0
H4147 H 0.29143 0.98204 0.31088 0.0
H4148 H 0.30068 0.05563 0.31657 0.0
H4149 H 0.30094 0.05894 0.27452 0.0
C4150 C 0.29578 0.0248 0.24083 0.0
C4151 C 0.29214 1.00528 0.22505 0.0
C4152 C 0.2962 0.02273 0.26656 0.0
C4153 C 0.28931 0.98415 0.2376 0.0
C4154 C 0.29002 0.9821 0.26243 0.0
C4155 C 0.29393 0.99899 0.30334 0.0
C4156 C 0.29676 1.01856 0.31917 0.0
C4157 C 0.29347 1.00111 0.27765 0.0
C4158 C 0.29895 0.03982 0.30674 0.0
C4159 C 0.29898 0.04183 0.28186 0.0
H4160 H 0.4876 0.30653 0.02933 0.0
H4161 H 0.47155 0.23385 0.03103 0.0
H4162 H 0.51296 0.22468 0.02918 0.0
H4163 H 0.55605 0.23614 0.02748 0.0
H4164 H 0.57245 0.30869 0.02946 0.0
H4165 H 0.53095 0.31802 0.02946 0.0
C4166 C 0.49276 0.28851 0.0292 0.0
C4167 C 0.47435 0.27111 0.03009 0.0
C4168 C 0.51797 0.28294 0.02883 0.0
C4169 C 0.48356 0.24818 0.03026 0.0
C4170 C 0.50799 0.24275 0.02921 0.0
C4171 C 0.55095 0.25417 0.02784 0.0
C4172 C 0.56943 0.27146 0.02822 0.0
C4173 C 0.5258 0.25978 0.02853 0.0
C4174 C 0.56035 0.29443 0.02907 0.0
C4175 C 0.53587 0.29994 0.02906 0.0
H4176 H 0.9863 0.25583 0.05603 0.0
H4177 H 0.97344 0.28195 0.98783 0.0
H4178 H 1.01521 0.28685 0.98191 0.0
H4179 H 0.05768 0.28428 0.99538 0.0
H4180 H 0.07027 0.26113 0.06467 0.0
H4181 H 0.02853 0.25507 0.0702 0.0
C4182 C 0.99223 0.26261 0.0397 0.0
C4183 C 0.97472 0.26825 1.02244 0.0
C4184 C 1.01749 0.2661 0.03635 0.0
C4185 C 0.98481 0.2773 1.00189 0.0
C4186 C 1.00942 0.28012 0.99835 0.0
C4187 C 0.05166 0.27771 1.01181 0.0
C4188 C 0.06905 0.27287 0.0294 0.0
C4189 C 0.02637 0.27464 1.01532 0.0
C4190 C 0.05892 0.26492 0.05035 0.0
C4191 C 0.03437 0.26142 0.05362 0.0
H4192 H 0.03594 0.73795 0.24283 0.0
H4193 H 1.02274 0.72316 0.3143 0.0
H4194 H 1.01711 0.76463 0.32171 0.0
H4195 H 1.01575 0.80752 0.30869 0.0
H4196 H 0.03291 0.82208 0.23789 0.0
H4197 H 0.03674 0.78064 0.23034 0.0
C4198 C 0.03165 0.7434 0.26017 0.0
C4199 C 0.02949 0.72544 0.27776 0.0
C4200 C 0.02905 0.76855 0.26478 0.0
C4201 C 0.02446 0.73494 0.29989 0.0
C4202 C 1.02119 0.75936 0.30427 0.0
C4203 C 1.02037 0.80202 0.29145 0.0
C4204 C 0.02383 0.81999 0.274 0.0
C4205 C 0.0234 0.77682 0.287 0.0
C4206 C 0.03004 0.81038 0.25219 0.0
C4207 C 0.03225 0.78594 0.24769 0.0
H4208 H 0.55989 0.80448 0.53014 0.0
H4209 H 0.57522 0.73164 0.52673 0.0
H4210 H 0.53371 0.72308 0.52671 0.0
H4211 H 0.49078 0.73517 0.52712 0.0
H4212 H 0.47516 0.808 0.52653 0.0
H4213 H 0.51669 0.81669 0.52859 0.0
C4214 C 0.55452 0.78656 0.52967 0.0
C4215 C 0.5727 0.76885 0.52904 0.0
C4216 C 0.52929 0.78139 0.52881 0.0
C4217 C 0.56331 0.74612 0.52765 0.0
C4218 C 0.53885 0.74106 0.52755 0.0
C4219 C 0.49605 0.75313 0.52754 0.0
C4220 C 0.47781 0.77071 0.52691 0.0
C4221 C 0.52123 0.75836 0.52807 0.0
C4222 C 0.48711 0.79355 0.52707 0.0
C4223 C 0.51159 0.79868 0.52828 0.0
H4224 H 0.98644 0.7377 0.52862 0.0
H4225 H 0.98167 0.81196 0.53163 0.0
H4226 H 0.02393 0.81458 0.53214 0.0
H4227 H 0.0649 0.79641 0.53164 0.0
H4228 H 0.06945 0.72237 0.52487 0.0
H4229 H 0.02724 0.71974 0.52594 0.0
C4230 C 0.99428 0.75466 0.52951 0.0
C4231 C 0.97883 0.77469 0.53037 0.0
C4232 C 1.01997 0.7563 0.52911 0.0
C4233 C 0.99138 0.79592 0.53103 0.0
C4234 C 1.01631 0.79751 0.53134 0.0
C4235 C 0.05703 0.77949 0.53044 0.0
C4236 C 0.07241 0.75948 0.52828 0.0
C4237 C 0.0313 0.77792 0.5304 0.0
C4238 C 0.05979 0.73837 0.52649 0.0
C4239 C 0.0349 0.73677 0.52716 0.0
H4240 H 0.99525 0.23668 0.2668 0.0
H4241 H 0.06121 0.22255 0.29813 0.0
H4242 H 0.06956 0.26422 0.29848 0.0
H4243 H 0.05898 0.30698 0.28996 0.0
H4244 H 0.99165 0.32097 0.26159 0.0
H4245 H 0.98394 0.27925 0.26004 0.0
C4246 C 1.01166 0.2423 0.27375 0.0
C4247 C 0.02751 0.22443 0.28224 0.0
C4248 C 1.01646 0.26752 0.27437 0.0
C4249 C 0.04825 0.23416 0.2912 0.0
C4250 C 0.05316 0.25872 0.29141 0.0
C4251 C 0.0425 0.30126 0.28325 0.0
C4252 C 0.02618 0.31907 0.27554 0.0
C4253 C 0.03758 0.276 0.28301 0.0
C4254 C 1.00504 0.30933 0.26761 0.0
C4255 C 1.0005 0.28477 0.26672 0.0
H4256 H 0.5412 0.81119 0.80555 0.0
H4257 H 0.50572 0.81968 0.74107 0.0
H4258 H 0.50122 0.77752 0.73831 0.0
H4259 H 0.50684 0.73598 0.75365 0.0
H4260 H 0.54308 0.72736 0.81775 0.0
H4261 H 0.54719 0.76949 0.82071 0.0
C4262 C 0.5322 0.80419 0.79081 0.0
C4263 C 0.52347 0.82062 0.77368 0.0
C4264 C 0.52966 0.77863 0.78909 0.0
C4265 C 0.51248 0.80919 0.75497 0.0
C4266 C 0.50992 0.78436 0.75331 0.0
C4267 C 0.51575 0.74291 0.76846 0.0
C4268 C 0.52454 0.72639 0.7855 0.0
C4269 C 0.51833 0.76845 0.77017 0.0
C4270 C 0.5359 0.73783 0.80404 0.0
C4271 C 0.5383 0.76268 0.80581 0.0
H4272 H 0.03653 0.48758 0.77693 0.0
H4273 H 0.96364 0.47976 0.76429 0.0
H4274 H 0.95889 0.52176 0.765 0.0
H4275 H 0.97468 0.56336 0.76945 0.0
H4276 H 0.04803 0.57101 0.77961 0.0
H4277 H 0.05257 0.52892 0.77969 0.0
C4278 C 1.01938 0.49466 0.7743 0.0
C4279 C 1.00048 0.47834 0.7705 0.0
C4280 C 1.01659 0.5202 0.77439 0.0
C4281 C 0.97896 0.48998 0.76703 0.0
C4282 C 0.97612 0.51483 0.76759 0.0
C4283 C 0.99184 0.55618 0.77184 0.0
C4284 C 1.011 0.57239 0.77478 0.0
C4285 C 0.99467 0.53059 0.77131 0.0
C4286 C 0.03262 0.56071 0.7773 0.0
C4287 C 0.03531 0.53589 0.77737 0.0
H4288 H 0.23756 0.2916 0.50315 0.0
H4289 H 0.22755 0.2367 0.55234 0.0
H4290 H 0.26972 0.23221 0.55546 0.0
H4291 H 0.31185 0.24333 0.54462 0.0
H4292 H 0.32153 0.29868 0.49591 0.0
H4293 H 0.27935 0.30303 0.49279 0.0
C4294 C 0.24421 0.27856 0.51478 0.0
C4295 C 0.22734 0.26463 0.52755 0.0
C4296 C 0.2697 0.2759 0.51666 0.0
C4297 C 0.23835 0.24808 0.54212 0.0
C4298 C 0.26321 0.2454 0.54391 0.0
C4299 C 0.30507 0.25637 0.53305 0.0
C4300 C 0.32182 0.27036 0.52015 0.0
C4301 C 0.27951 0.25907 0.5313 0.0
C4302 C 0.31074 0.28711 0.50593 0.0
C4303 C 0.28592 0.28973 0.50418 0.0
H4304 H 0.56407 0.48193 0.26586 0.0
H4305 H 0.48991 0.47505 0.26554 0.0
H4306 H 0.48598 0.51724 0.26563 0.0
H4307 H 0.50282 0.55836 0.26555 0.0
H4308 H 0.57692 0.56553 0.26316 0.0
H4309 H 0.58098 0.52328 0.26392 0.0
C4310 C 0.54682 0.48923 0.26555 0.0
C4311 C 0.52722 0.47319 0.26525 0.0
C4312 C 0.54449 0.51487 0.26508 0.0
C4313 C 0.50562 0.48515 0.26522 0.0
C4314 C 0.5033 0.51003 0.26543 0.0
C4315 C 0.52009 0.55109 0.26525 0.0
C4316 C 0.53955 0.56722 0.2644 0.0
C4317 C 0.52248 0.52551 0.26526 0.0
C4318 C 0.56124 0.55537 0.26368 0.0
C4319 C 0.56363 0.53044 0.26424 0.0
H4320 H 0.31004 0.80682 0.99444 0.0
H4321 H 0.32038 0.78416 0.06427 0.0
H4322 H 0.27823 0.78198 0.06972 0.0
H4323 H 0.23611 0.78589 0.05525 0.0
H4324 H 0.22585 0.81207 0.98659 0.0
H4325 H 0.26791 0.81335 0.98087 0.0
C4326 C 0.30344 0.80157 1.01112 0.0
C4327 C 0.32038 0.79582 0.02894 0.0
C4328 C 0.2779 0.80083 1.01456 0.0
C4329 C 0.30946 0.78907 0.04995 0.0
C4330 C 0.28464 0.78769 0.05311 0.0
C4331 C 0.24268 0.79201 0.03886 0.0
C4332 C 0.22572 0.79868 1.02134 0.0
C4333 C 0.26822 0.79344 0.03566 0.0
C4334 C 0.23669 0.80658 1.00074 0.0
C4335 C 0.2615 0.80735 0.99737 0.0
H4336 H 0.80745 1.01337 0.49496 0.0
H4337 H 0.73533 1.01549 0.4767 0.0
H4338 H 0.72491 1.0173 0.51769 0.0
H4339 H 0.73506 1.01836 0.56114 0.0
H4340 H 0.80686 1.01166 0.57956 0.0
H4341 H 0.81744 1.01159 0.53854 0.0
C4342 C 0.78926 1.01424 0.49951 0.0
C4343 C 0.77249 1.01451 0.48052 0.0
C4344 C 0.7829 1.01445 0.52451 0.0
C4345 C 0.74929 1.01529 0.48908 0.0
C4346 C 0.74313 1.01636 0.51331 0.0
C4347 C 0.7532 1.01682 0.55663 0.0
C4348 C 0.76984 1.0152 0.57567 0.0
C4349 C 0.75956 1.01596 0.53166 0.0
C4350 C 0.79299 1.01299 0.56715 0.0
C4351 C 0.79925 1.01298 0.5429 0.0
H4352 H 0.78369 0.05552 0.3167 0.0
H4353 H 0.79495 0.98211 0.3225 0.0
H4354 H 0.79457 0.97867 0.28056 0.0
H4355 H 0.79086 0.99555 0.23937 0.0
H4356 H 0.77629 0.06836 0.23354 0.0
H4357 H 0.7782 0.07213 0.27545 0.0
C4358 C 0.78644 0.03859 0.30921 0.0
C4359 C 0.79005 1.01911 0.32509 0.0
C4360 C 0.78548 0.03632 0.28351 0.0
C4361 C 0.79255 0.99787 0.31268 0.0
C4362 C 0.79225 0.99577 0.28784 0.0
C4363 C 0.78808 1.01249 0.24683 0.0
C4364 C 0.7834 0.03172 0.23095 0.0
C4365 C 0.78871 1.01473 0.27251 0.0
C4366 C 0.77981 0.05283 0.24334 0.0
C4367 C 0.78101 0.05511 0.26817 0.0
H4368 H 0.79719 0.03208 0.98855 0.0
H4369 H 0.72598 0.05297 0.98203 0.0
H4370 H 0.72257 0.05538 0.02405 0.0
H4371 H 0.73902 0.05137 0.06541 0.0
H4372 H 0.80969 0.02832 0.07149 0.0
H4373 H 0.81326 0.02723 0.0297 0.0
C4374 C 0.7808 0.03752 0.9959 0.0
C4375 C 0.76197 0.04288 0.97993 0.0
C4376 C 0.77854 0.03843 1.02151 0.0
C4377 C 0.74125 0.04902 0.99205 0.0
C4378 C 0.73918 0.05035 1.01688 0.0
C4379 C 0.75542 0.04608 0.05802 0.0
C4380 C 0.77409 0.03988 0.07396 0.0
C4381 C 0.75758 0.04509 0.03235 0.0
C4382 C 0.79455 0.03313 0.06168 0.0
C4383 C 0.79676 0.03255 0.0369 0.0
H4384 H 0.75173 0.99608 0.74326 0.0
H4385 H 0.74338 0.06847 0.72841 0.0
H4386 H 0.74536 0.07708 0.76978 0.0
H4387 H 0.74978 0.0649 0.81267 0.0
H4388 H 0.75264 0.99203 0.82767 0.0
H4389 H 0.75234 0.98366 0.78618 0.0
C4390 C 0.75009 1.01393 0.74866 0.0
C4391 C 0.74736 0.03146 0.73052 0.0
C4392 C 0.75035 1.01897 0.77387 0.0
C4393 C 0.74534 0.05409 0.74011 0.0
C4394 C 0.74659 0.05914 0.76456 0.0
C4395 C 0.75036 0.04699 0.80727 0.0
C4396 C 0.75163 0.0293 0.82545 0.0
C4397 C 0.74916 0.0419 0.78209 0.0
C4398 C 0.75184 1.00656 0.81591 0.0
C4399 C 0.75166 1.00163 0.79142 0.0
H4400 H 0.4891 0.81094 1.02235 0.0
H4401 H 0.47389 0.73812 0.02427 0.0
H4402 H 0.51554 0.72948 0.0242 0.0
H4403 H 0.55869 0.74164 1.02329 0.0
H4404 H 0.57363 0.81433 1.01736 0.0
H4405 H 0.53206 0.82297 1.01927 0.0
C4406 C 0.49449 0.79299 1.02284 0.0
C4407 C 0.47626 0.7754 1.02365 0.0
C4408 C 0.51975 0.78776 1.02205 0.0
C4409 C 0.48575 0.75258 1.02379 0.0
C4410 C 0.51032 0.74748 1.02375 0.0
C4411 C 0.55326 0.75957 1.02251 0.0
C4412 C 0.57143 0.77717 1.02046 0.0
C4413 C 0.52796 0.76475 1.02288 0.0
C4414 C 0.56185 0.7999 1.0191 0.0
C4415 C 0.53732 0.805 1.02018 0.0
H4416 H 0.98441 0.80575 0.02586 0.0
H4417 H 0.97912 0.73195 1.01777 0.0
H4418 H 1.02135 0.72857 1.01966 0.0
H4419 H 0.06232 0.74601 1.02367 0.0
H4420 H 0.06739 0.82022 0.02736 0.0
H4421 H 0.02518 0.82332 0.02709 0.0
C4422 C 0.99215 0.78873 0.02445 0.0
C4423 C 0.97666 0.76907 1.02173 0.0
C4424 C 1.01774 0.78676 0.02487 0.0
C4425 C 0.98896 0.74773 1.01979 0.0
C4426 C 1.01383 0.7457 1.02097 0.0
C4427 C 0.05453 0.76304 0.02461 0.0
C4428 C 0.06997 0.78293 0.02608 0.0
C4429 C 0.02889 0.76499 1.02358 0.0
C4430 C 0.05759 0.8043 0.02654 0.0
C4431 C 0.03274 0.80617 0.02633 0.0
H4432 H 0.99057 0.23731 0.76907 0.0
H4433 H 0.06456 0.23054 0.77444 0.0
H4434 H 0.06822 0.27276 0.77587 0.0
H4435 H 0.05088 0.3142 0.77602 0.0
H4436 H 0.97729 0.3202 0.7659 0.0
H4437 H 0.9738 0.2783 0.7658 0.0
C4438 C 1.0077 0.24471 0.77061 0.0
C4439 C 0.02727 0.22881 0.77198 0.0
C4440 C 1.01001 0.27026 0.77052 0.0
C4441 C 0.04882 0.24071 0.77346 0.0
C4442 C 0.051 0.26558 0.7743 0.0
C4443 C 0.03389 0.30672 0.77366 0.0
C4444 C 1.01429 0.32254 0.77096 0.0
C4445 C 0.0318 0.28105 0.77291 0.0
C4446 C 0.9931 0.31033 0.76763 0.0
C4447 C 0.99093 0.28556 0.76785 0.0
H4448 H 0.48551 0.31026 0.51931 0.0
H4449 H 0.48018 0.23599 0.51948 0.0
H4450 H 0.52243 0.23287 0.52077 0.0
H4451 H 0.56355 0.25056 0.5221 0.0
H4452 H 0.56878 0.32472 0.51786 0.0
H4453 H 0.52654 0.32781 0.51798 0.0
C4454 C 0.4932 0.29317 0.51958 0.0
C4455 C 0.47754 0.27331 0.51939 0.0
C4456 C 0.51892 0.29125 0.51969 0.0
C4457 C 0.48998 0.25193 0.51955 0.0
C4458 C 0.51493 0.25005 0.52037 0.0
C4459 C 0.55583 0.26762 0.52123 0.0
C4460 C 0.57147 0.2875 0.52021 0.0
C4461 C 0.53009 0.26948 0.52051 0.0
C4462 C 0.559 0.3088 0.51874 0.0
C4463 C 0.53406 0.31066 0.51882 0.0
H4464 H 0.99002 0.31143 0.52133 0.0
H4465 H 0.97613 0.2388 0.51303 0.0
H4466 H 1.01785 0.23067 0.5143 0.0
H4467 H 0.06049 0.24338 0.51745 0.0
H4468 H 0.07443 0.31637 0.52167 0.0
H4469 H 0.03267 0.3243 0.52224 0.0
C4470 C 0.99577 0.29365 0.51977 0.0
C4471 C 0.97804 0.27587 0.51722 0.0
C4472 C 1.021 0.28886 0.51975 0.0
C4473 C 0.98776 0.2533 0.51503 0.0
C4474 C 1.01231 0.24852 0.51579 0.0
C4475 C 0.05475 0.2612 0.51853 0.0
C4476 C 0.07252 0.27911 0.51973 0.0
C4477 C 0.02952 0.26601 0.5181 0.0
C4478 C 0.06279 0.30176 0.52078 0.0
C4479 C 0.03822 0.30643 0.52111 0.0
H4480 H 0.05227 0.73859 0.76453 0.0
H4481 H 0.97957 0.72976 0.77861 0.0
H4482 H 0.97387 0.77156 0.77643 0.0
H4483 H 0.98865 0.81324 0.77065 0.0
H4484 H 0.06162 0.82225 0.75849 0.0
H4485 H 0.0672 0.78029 0.75967 0.0
C4486 C 0.03501 0.74544 0.76726 0.0
C4487 C 1.01648 0.72898 0.77211 0.0
C4488 C 0.03154 0.7709 0.76606 0.0
C4489 C 0.99469 0.74027 0.77527 0.0
C4490 C 0.99125 0.76494 0.77383 0.0
C4491 C 1.00588 0.80637 0.76784 0.0
C4492 C 0.02456 0.82284 0.76369 0.0
C4493 C 1.00938 0.78091 0.76917 0.0
C4494 C 0.04644 0.81161 0.76116 0.0
C4495 C 0.04979 0.7869 0.76199 0.0
H4496 H 0.52155 0.30368 0.23211 0.0
H4497 H 0.50912 0.32128 0.30315 0.0
H4498 H 0.50686 0.28017 0.31291 0.0
H4499 H 0.50841 0.23699 0.30241 0.0
H4500 H 0.52466 0.21916 0.23223 0.0
H4501 H 0.52522 0.26031 0.22204 0.0
C4502 C 0.51805 0.29893 0.24981 0.0
C4503 C 0.51497 0.31758 0.26653 0.0
C4504 C 0.5175 0.27394 0.2559 0.0
C4505 C 0.51125 0.30894 0.28927 0.0
C4506 C 0.51001 0.28473 0.29507 0.0
C4507 C 0.51214 0.24168 0.28476 0.0
C4508 C 0.51644 0.22298 0.26838 0.0
C4509 C 0.51311 0.26663 0.27873 0.0
C4510 C 0.52136 0.23154 0.24584 0.0
C4511 C 0.5216 0.25578 0.23979 0.0
H4512 H 0.57413 0.06032 0.75984 0.0
H4513 H 0.50475 0.07211 0.78453 0.0
H4514 H 0.49787 0.03038 0.78491 0.0
H4515 H 0.51048 0.98819 0.77832 0.0
H4516 H 0.57925 0.97583 0.75221 0.0
H4517 H 0.58656 1.01766 0.75253 0.0
C4518 C 0.55743 0.05415 0.76566 0.0
C4519 C 0.54016 0.07152 0.77254 0.0
C4520 C 0.55312 0.02868 0.76551 0.0
C4521 C 0.51884 0.06098 0.77917 0.0
C4522 C 0.51477 0.03633 0.7794 0.0
C4523 C 0.52725 0.99417 0.77256 0.0
C4524 C 0.54411 0.97666 0.76514 0.0
C4525 C 0.53158 1.01955 0.77257 0.0
C4526 C 0.56536 0.98706 0.75798 0.0
C4527 C 0.56971 1.01176 0.75823 0.0
H4528 H 0.2343 0.25734 1.01972 0.0
H4529 H 0.2249 0.3264 0.04589 0.0
H4530 H 0.26708 0.33123 0.04725 0.0
H4531 H 0.30911 0.3165 0.04114 0.0
H4532 H 0.31803 0.24622 1.01816 0.0
H4533 H 0.27594 0.242 1.01553 0.0
C4534 C 0.24107 0.27367 0.02574 0.0
C4535 C 0.22436 0.29154 0.03245 0.0
C4536 C 0.2666 0.2764 0.02699 0.0
C4537 C 0.23557 0.31199 0.04036 0.0
C4538 C 0.26044 0.31486 0.04114 0.0
C4539 C 0.30223 0.30015 0.03527 0.0
C4540 C 0.31882 0.28184 0.02935 0.0
C4541 C 0.27662 0.29734 0.03443 0.0
C4542 C 0.30745 0.26106 1.02264 0.0
C4543 C 0.28264 0.25853 1.02116 0.0
H4544 H 0.03653 0.05802 0.30043 0.0
H4545 H 0.98305 0.07146 0.25082 0.0
H4546 H 0.97608 0.02978 0.24749 0.0
H4547 H 0.98491 0.98713 0.25765 0.0
H4548 H 0.03962 0.97373 0.30597 0.0
H4549 H 0.04602 1.0155 0.30994 0.0
C4550 C 0.02341 0.05225 0.28859 0.0
C4551 C 1.01072 0.06996 0.27573 0.0
C4552 C 1.01942 0.02697 0.28637 0.0
C4553 C 0.99375 0.05999 0.26099 0.0
C4554 C 0.98957 0.03541 0.25909 0.0
C4555 C 0.99811 0.99299 0.26945 0.0
C4556 C 1.01115 0.97536 0.28205 0.0
C4557 C 1.00218 1.01828 0.27158 0.0
C4558 C 0.02849 0.98528 0.29632 0.0
C4559 C 0.03236 1.00986 0.29855 0.0
H4560 H 0.31219 0.71789 0.5125 0.0
H4561 H 0.32134 0.78678 0.53898 0.0
H4562 H 0.27927 0.79164 0.54093 0.0
H4563 H 0.23759 0.77723 0.53523 0.0
H4564 H 0.22828 0.70975 0.50547 0.0
H4565 H 0.27038 0.70425 0.50479 0.0
C4566 C 0.3055 0.73413 0.51886 0.0
C4567 C 0.32216 0.75187 0.52583 0.0
C4568 C 0.2799 0.73733 0.51935 0.0
C4569 C 0.31076 0.77242 0.53345 0.0
C4570 C 0.28595 0.77531 0.53459 0.0
C4571 C 0.24434 0.76112 0.5285 0.0
C4572 C 0.2276 0.74388 0.52065 0.0
C4573 C 0.26988 0.75804 0.52758 0.0
C4574 C 0.23887 0.7237 0.5119 0.0
C4575 C 0.26374 0.72043 0.51152 0.0
H4576 H 0.74372 0.53061 0.99233 0.0
H4577 H 0.8181 0.52815 0.98727 0.0
H4578 H 0.82082 0.52791 0.02923 0.0
H4579 H 0.80293 0.52842 0.07013 0.0
H4580 H 0.72858 0.52738 0.0753 0.0
H4581 H 0.72577 0.52891 0.03329 0.0
C4582 C 0.76076 0.53007 1.0 0.0
C4583 C 0.78079 0.52961 0.98441 0.0
C4584 C 0.76246 0.5293 0.02566 0.0
C4585 C 0.80202 0.52857 0.99692 0.0
C4586 C 0.80369 0.52847 1.02175 0.0
C4587 C 0.78588 0.52857 0.06246 0.0
C4588 C 0.76588 0.52788 0.07805 0.0
C4589 C 0.78416 0.52885 0.03683 0.0
C4590 C 0.74461 0.52782 0.06558 0.0
C4591 C 0.74292 0.52876 0.04075 0.0
H4592 H 0.76756 0.48438 0.24242 0.0
H4593 H 0.74701 0.55572 0.23646 0.0
H4594 H 0.74689 0.55923 0.27852 0.0
H4595 H 0.7529 0.54292 0.31976 0.0
H4596 H 0.77582 0.47221 0.32536 0.0
H4597 H 0.7747 0.46844 0.28351 0.0
C4598 C 0.76271 0.50084 0.24991 0.0
C4599 C 0.75667 0.51968 0.23404 0.0
C4600 C 0.76327 0.50318 0.27556 0.0
C4601 C 0.75141 0.54045 0.24636 0.0
C4602 C 0.75142 0.54258 0.27122 0.0
C4603 C 0.75774 0.52646 0.31225 0.0
C4604 C 0.76466 0.50785 0.32807 0.0
C4605 C 0.75736 0.52421 0.28656 0.0
C4606 C 0.77064 0.48732 0.31563 0.0
C4607 C 0.76988 0.485 0.29083 0.0
H4608 H 0.74712 0.48098 0.56892 0.0
H4609 H 0.81608 0.50724 0.57823 0.0
H4610 H 0.8208 0.51062 0.53674 0.0
H4611 H 0.80634 0.50702 0.49508 0.0
H4612 H 0.73676 0.48285 0.48503 0.0
H4613 H 0.73215 0.4781 0.52681 0.0
C4614 C 0.76335 0.48748 0.56232 0.0
C4615 C 0.78111 0.49395 0.5791 0.0
C4616 C 0.7662 0.48983 0.53679 0.0
C4617 C 0.80152 0.5022 0.56776 0.0
C4618 C 0.80444 0.50411 0.54316 0.0
C4619 C 0.79004 0.50047 0.5016 0.0
C4620 C 0.77209 0.49504 0.48478 0.0
C4621 C 0.78704 0.49813 0.527 0.0
C4622 C 0.75138 0.48717 0.4958 0.0
C4623 C 0.74862 0.48441 0.52046 0.0
H4624 H 0.78265 0.55359 0.8154 0.0
H4625 H 0.79288 0.48207 0.83339 0.0
H4626 H 0.79161 0.47167 0.79241 0.0
H4627 H 0.78767 0.48183 0.74911 0.0
H4628 H 0.78209 0.55383 0.731 0.0
H4629 H 0.78155 0.56403 0.77204 0.0
C4630 C 0.78466 0.53556 0.81076 0.0
C4631 C 0.78772 0.51888 0.82957 0.0
C4632 C 0.78474 0.52939 0.78584 0.0
C4633 C 0.79047 0.4959 0.82104 0.0
C4634 C 0.7897 0.48977 0.79686 0.0
C4635 C 0.78629 0.49992 0.75373 0.0
C4636 C 0.78464 0.51676 0.73487 0.0
C4637 C 0.78684 0.50616 0.77864 0.0
C4638 C 0.78331 0.53987 0.74338 0.0
C4639 C 0.78299 0.54589 0.7676 0.0
H4640 H 0.52114 0.3109 0.80695 0.0
H4641 H 0.52686 0.32359 0.73404 0.0
H4642 H 0.52838 0.28187 0.72705 0.0
H4643 H 0.52806 0.23967 0.74055 0.0
H4644 H 0.52744 0.22646 0.81347 0.0
H4645 H 0.52386 0.26819 0.82066 0.0
C4646 C 0.52282 0.30494 0.78935 0.0
C4647 C 0.52381 0.3225 0.77114 0.0
C4648 C 0.52452 0.27955 0.78513 0.0
C4649 C 0.52614 0.31227 0.7489 0.0
C4650 C 0.52695 0.28766 0.74474 0.0
C4651 C 0.52725 0.24536 0.75821 0.0
C4652 C 0.52788 0.2277 0.77629 0.0
C4653 C 0.52616 0.27068 0.76254 0.0
C4654 C 0.5269 0.23786 0.79868 0.0
C4655 C 0.52486 0.26247 0.80293 0.0
H4656 H 0.5012 0.98155 0.30869 0.0
H4657 H 0.5026 0.97401 0.23501 0.0
H4658 H 0.50486 1.0162 0.23087 0.0
H4659 H 0.50704 0.05763 0.24754 0.0
H4660 H 0.501 0.06551 0.32099 0.0
H4661 H 0.49997 0.02323 0.32523 0.0
C4662 C 0.50185 0.98876 0.29148 0.0
C4663 C 0.50169 0.97246 0.27209 0.0
C4664 C 0.50243 1.01442 0.28904 0.0
C4665 C 0.50249 0.98427 0.25054 0.0
C4666 C 0.5039 1.00917 0.24814 0.0
C4667 C 0.50543 0.05047 0.26471 0.0
C4668 C 0.50436 0.06684 0.28399 0.0
C4669 C 0.50397 0.02488 0.26714 0.0
C4670 C 0.50195 0.05517 0.3055 0.0
C4671 C 0.50139 0.03022 0.30798 0.0
H4672 H 0.8099 0.7501 0.98868 0.0
H4673 H 0.82073 0.78156 0.05503 0.0
H4674 H 0.77914 0.78441 0.06083 0.0
H4675 H 0.73709 0.77885 0.04809 0.0
H4676 H 0.72543 0.74846 0.98157 0.0
H4677 H 0.76732 0.74475 0.97569 0.0
C4678 C 0.80356 0.75768 1.00455 0.0
C4679 C 0.82067 0.76574 1.02122 0.0
C4680 C 0.77805 0.75955 1.00814 0.0
C4681 C 0.80988 0.77527 0.04128 0.0
C4682 C 0.78526 0.77689 0.04483 0.0
C4683 C 0.74332 0.77114 0.03224 0.0
C4684 C 0.72611 0.76355 1.0156 0.0
C4685 C 0.7687 0.76921 0.02855 0.0
C4686 C 0.7366 0.75424 0.99531 0.0
C4687 C 0.7613 0.75216 0.99177 0.0
H4688 H 0.05445 0.06162 0.79176 0.0
H4689 H 1.00333 0.07439 0.73956 0.0
H4690 H 0.99775 0.0325 0.73513 0.0
H4691 H 1.00715 0.99 0.74528 0.0
H4692 H 0.05723 0.97749 0.79859 0.0
H4693 H 0.06313 1.01922 0.80251 0.0
C4694 C 0.04212 0.05559 0.77913 0.0
C4695 C 0.0298 0.07303 0.76567 0.0
C4696 C 0.03862 0.03028 0.77664 0.0
C4697 C 1.01376 0.06295 0.75006 0.0
C4698 C 1.0104 0.03831 0.74754 0.0
C4699 C 1.01932 0.996 0.75802 0.0
C4700 C 0.03144 0.97854 0.77172 0.0
C4701 C 1.02267 1.02135 0.7606 0.0
C4702 C 0.04708 0.98878 0.78767 0.0
C4703 C 0.05063 1.01338 0.78995 0.0
H4704 H 0.73982 0.29976 0.48473 0.0
H4705 H 0.72661 0.29535 0.55762 0.0
H4706 H 0.76828 0.29538 0.56501 0.0
H4707 H 0.81098 0.29585 0.55174 0.0
H4708 H 0.82405 0.29656 0.47868 0.0
H4709 H 0.78246 0.29857 0.4714 0.0
C4710 C 0.74568 0.299 0.50241 0.0
C4711 C 0.72809 0.29795 0.52051 0.0
C4712 C 0.77101 0.29825 0.50689 0.0
C4713 C 0.73811 0.29639 0.54287 0.0
C4714 C 0.76267 0.29638 0.54727 0.0
C4715 C 0.80514 0.29673 0.53407 0.0
C4716 C 0.82274 0.29649 0.51593 0.0
C4717 C 0.77979 0.29725 0.52958 0.0
C4718 C 0.81263 0.29695 0.49351 0.0
C4719 C 0.7881 0.29809 0.48916 0.0
H4720 H 0.2998 0.51226 0.06265 0.0
H4721 H 0.22546 0.51137 0.06863 0.0
H4722 H 0.22218 0.5127 0.02673 0.0
H4723 H 0.23951 0.51411 0.9857 0.0
H4724 H 0.31364 0.5188 0.9796 0.0
H4725 H 0.31712 0.51611 1.02152 0.0
C4726 C 0.28266 0.51222 0.05518 0.0
C4727 C 0.26282 0.51128 0.07099 0.0
C4728 C 0.2806 0.51375 0.02959 0.0
C4729 C 0.24141 0.51184 0.05877 0.0
C4730 C 0.23941 0.51264 0.03399 0.0
C4731 C 0.25665 0.51459 0.99314 0.0
C4732 C 0.27635 0.51669 0.97733 0.0
C4733 C 0.25875 0.51359 1.01871 0.0
C4734 C 0.29779 0.51737 0.98951 0.0
C4735 C 0.29988 0.51571 1.01427 0.0
H4736 H 0.30495 0.55159 0.81093 0.0
H4737 H 0.25769 0.49472 0.81951 0.0
H4738 H 0.25254 0.49258 0.77817 0.0
H4739 H 0.26028 0.50614 0.7367 0.0
H4740 H 0.30921 0.56122 0.72679 0.0
H4741 H 0.31404 0.56427 0.7687 0.0
C4742 C 0.29336 0.53858 0.8042 0.0
C4743 C 0.28142 0.52357 0.82087 0.0
C4744 C 0.29049 0.53692 0.77861 0.0
C4745 C 0.26703 0.5072 0.80931 0.0
C4746 C 0.26406 0.50576 0.78471 0.0
C4747 C 0.27224 0.51889 0.74328 0.0
C4748 C 0.28437 0.53336 0.72647 0.0
C4749 C 0.27548 0.52045 0.76868 0.0
C4750 C 0.29945 0.5494 0.73754 0.0
C4751 C 0.30227 0.55125 0.76229 0.0
H4752 H 0.30136 0.55636 0.55871 0.0
H4753 H 0.23781 0.52036 0.57321 0.0
H4754 H 0.23061 0.51707 0.53167 0.0
H4755 H 0.24135 0.52407 0.48893 0.0
H4756 H 0.30313 0.56301 0.47424 0.0
H4757 H 0.31096 0.56541 0.51577 0.0
C4758 C 0.28573 0.54774 0.55319 0.0
C4759 C 0.27037 0.53852 0.57127 0.0
C4760 C 0.28102 0.54641 0.52793 0.0
C4761 C 0.25041 0.52788 0.56156 0.0
C4762 C 0.24618 0.52592 0.53703 0.0
C4763 C 0.25673 0.53319 0.49435 0.0
C4764 C 0.27157 0.5431 0.47621 0.0
C4765 C 0.26119 0.53504 0.51959 0.0
C4766 C 0.29096 0.55481 0.48589 0.0
C4767 C 0.29558 0.55623 0.51044 0.0
H4768 H 0.25909 0.55772 0.30719 0.0
H4769 H 0.25466 0.48569 0.32547 0.0
H4770 H 0.25463 0.47544 0.28443 0.0
H4771 H 0.25582 0.48582 0.24091 0.0
H4772 H 0.25572 0.55802 0.22279 0.0
H4773 H 0.25755 0.56819 0.26379 0.0
C4774 C 0.25808 0.53959 0.30263 0.0
C4775 C 0.25708 0.52277 0.32161 0.0
C4776 C 0.25725 0.53343 0.27767 0.0
C4777 C 0.25553 0.49967 0.31308 0.0
C4778 C 0.25552 0.49361 0.28883 0.0
C4779 C 0.25614 0.50396 0.2455 0.0
C4780 C 0.25571 0.52086 0.22658 0.0
C4781 C 0.25636 0.51013 0.27049 0.0
C4782 C 0.25594 0.54399 0.23515 0.0
C4783 C 0.25704 0.55 0.25937 0.0
H4784 H 0.49692 0.8039 0.29662 0.0
H4785 H 0.54351 0.82062 0.24109 0.0
H4786 H 0.55068 0.77916 0.23471 0.0
H4787 H 0.54443 0.73587 0.2444 0.0
H4788 H 0.49625 0.7196 0.29885 0.0
H4789 H 0.48992 0.76089 0.30557 0.0
C4790 C 0.5089 0.79885 0.28312 0.0
C4791 C 0.51986 0.8173 0.26979 0.0
C4792 C 0.51293 0.7738 0.27907 0.0
C4793 C 0.53477 0.80841 0.25227 0.0
C4794 C 0.53892 0.78401 0.24847 0.0
C4795 C 0.53237 0.74094 0.2578 0.0
C4796 C 0.52091 0.72252 0.27088 0.0
C4797 C 0.52823 0.76608 0.26166 0.0
C4798 C 0.50554 0.73163 0.28793 0.0
C4799 C 0.50184 0.75599 0.29197 0.0
H4800 H 0.10738 0.36693 0.31103 0.0
H4801 H 0.04557 0.34389 0.34607 0.0
H4802 H 0.06923 0.32735 0.37698 0.0
H4803 H 0.10729 0.32033 0.39406 0.0
H4804 H 0.16882 0.34593 0.3602 0.0
H4805 H 0.1453 0.36051 0.3284 0.0
C4806 C 0.09911 0.35795 0.32527 0.0
C4807 C 0.07486 0.35626 0.32627 0.0
C4808 C 0.1127 0.34921 0.34314 0.0
C4809 C 0.06425 0.3452 0.34501 0.0
C4810 C 0.07774 0.33586 0.36263 0.0
C4811 C 0.11556 0.32943 0.37992 0.0
C4812 C 0.13976 0.33226 0.37958 0.0
C4813 C 0.10194 0.33802 0.36196 0.0
C4814 C 0.15025 0.34347 0.3608 0.0
C4815 C 0.13683 0.35184 0.34268 0.0
H4816 H 0.94718 0.87613 0.64671 0.0
H4817 H 0.90119 0.82692 0.67919 0.0
H4818 H 0.89654 0.8069 0.6429 0.0
H4819 H 0.90597 0.80242 0.60262 0.0
H4820 H 0.94919 0.85127 0.56751 0.0
H4821 H 0.95521 0.87219 0.60417 0.0
C4822 C 0.93636 0.86086 0.64583 0.0
C4823 C 0.92456 0.85306 0.66583 0.0
C4824 C 0.93381 0.84909 0.62463 0.0
C4825 C 0.91025 0.83354 0.66421 0.0
C4826 C 0.90779 0.82186 0.64347 0.0
C4827 C 0.91745 0.81705 0.60319 0.0
C4828 C 0.92785 0.82459 0.58274 0.0
C4829 C 0.91978 0.82921 0.6238 0.0
C4830 C 0.94125 0.84483 0.58318 0.0
C4831 C 0.94457 0.85679 0.60411 0.0
H4832 H 0.48998 0.70048 0.84906 0.0
H4833 H 0.43809 0.67283 0.80377 0.0
H4834 H 0.4085 0.67836 0.83364 0.0
H4835 H 0.39849 0.68689 0.87446 0.0
H4836 H 0.45283 0.70885 0.92041 0.0
H4837 H 0.48043 0.70875 0.88887 0.0
C4838 C 0.4722 0.6957 0.8457 0.0
C4839 C 0.46636 0.6859 0.82446 0.0
C4840 C 0.45575 0.69741 0.86335 0.0
C4841 C 0.44304 0.68063 0.81998 0.0
C4842 C 0.42619 0.68338 0.83721 0.0
C4843 C 0.41636 0.6916 0.87752 0.0
C4844 C 0.42338 0.69826 0.89976 0.0
C4845 C 0.43253 0.69097 0.85928 0.0
C4846 C 0.44669 0.70429 0.90341 0.0
C4847 C 0.46259 0.70417 0.88539 0.0
H4848 H 0.62676 0.23377 0.10714 0.0
H4849 H 0.58754 0.20062 0.05327 0.0
H4850 H 0.57326 0.17212 0.08071 0.0
H4851 H 0.57458 0.15469 0.1189 0.0
H4852 H 0.61542 0.1859 0.17247 0.0
H4853 H 0.62703 0.21692 0.14597 0.0
C4854 C 0.61503 0.22035 0.10141 0.0
C4855 C 0.6087 0.21893 0.07811 0.0
C4856 C 0.60766 0.20344 0.11704 0.0
C4857 C 0.59299 0.20186 0.07106 0.0
C4858 C 0.58492 0.18547 0.08669 0.0
C4859 C 0.58626 0.16814 0.12468 0.0
C4860 C 0.59462 0.16785 0.14733 0.0
C4861 C 0.59275 0.18569 0.10948 0.0
C4862 C 0.60905 0.18575 0.15495 0.0
C4863 C 0.61557 0.20345 0.13988 0.0
H4864 H 0.11603 0.68318 0.23966 0.0
H4865 H 0.05111 0.70683 0.2116 0.0
H4866 H 0.07145 0.72567 0.17989 0.0
H4867 H 0.10746 0.73425 0.15923 0.0
H4868 H 0.17234 0.70829 0.18538 0.0
H4869 H 0.15227 0.69125 0.21838 0.0
C4870 C 0.1064 0.69258 0.22668 0.0
C4871 C 0.0821 0.69349 0.22795 0.0
C4872 C 0.11816 0.70258 0.20786 0.0
C4873 C 0.06984 0.70583 0.21102 0.0
C4874 C 0.08144 0.71647 0.19276 0.0
C4875 C 0.11719 0.72446 0.17187 0.0
C4876 C 0.14138 0.72253 0.1697 0.0
C4877 C 0.10554 0.71456 0.19073 0.0
C4878 C 0.15371 0.71018 0.18663 0.0
C4879 C 0.14225 0.70041 0.20554 0.0
H4880 H 0.60518 0.80111 0.45264 0.0
H4881 H 0.60552 0.8524 0.50685 0.0
H4882 H 0.5911 0.88135 0.48045 0.0
H4883 H 0.58047 0.89285 0.44194 0.0
H4884 H 0.57189 0.84043 0.38946 0.0
H4885 H 0.58897 0.81184 0.41479 0.0
C4886 C 0.6017 0.81849 0.45878 0.0
C4887 C 0.607 0.82454 0.4816 0.0
C4888 C 0.59269 0.83519 0.44362 0.0
C4889 C 0.60205 0.84716 0.4893 0.0
C4890 C 0.5939 0.8639 0.47417 0.0
C4891 C 0.58159 0.87514 0.43597 0.0
C4892 C 0.57467 0.86928 0.41352 0.0
C4893 C 0.58952 0.85819 0.45123 0.0
C4894 C 0.57753 0.84611 0.40625 0.0
C4895 C 0.58691 0.82942 0.42096 0.0
H4896 H 0.495 0.35563 0.7043 0.0
H4897 H 0.43714 0.36652 0.75044 0.0
H4898 H 0.4107 0.35173 0.72187 0.0
H4899 H 0.4036 0.33741 0.68314 0.0
H4900 H 0.46143 0.32342 0.63779 0.0
H4901 H 0.48815 0.33825 0.66651 0.0
C4902 C 0.47665 0.35454 0.70822 0.0
C4903 C 0.46808 0.36261 0.72938 0.0
C4904 C 0.46143 0.3458 0.6917 0.0
C4905 C 0.44426 0.36084 0.73421 0.0
C4906 C 0.42903 0.35237 0.71784 0.0
C4907 C 0.42206 0.33729 0.67963 0.0
C4908 C 0.43043 0.32959 0.65828 0.0
C4909 C 0.43739 0.34512 0.69642 0.0
C4910 C 0.45442 0.32984 0.6539 0.0
C4911 C 0.46977 0.33806 0.67039 0.0
H4912 H 0.95278 0.15131 0.92458 0.0
H4913 H 0.93056 0.20332 0.87621 0.0
H4914 H 0.92599 0.23118 0.90727 0.0
H4915 H 0.92529 0.24013 0.9481 0.0
H4916 H 0.94654 0.18872 0.99758 0.0
H4917 H 0.95498 0.16157 0.96632 0.0
C4918 C 0.94676 0.16874 0.92108 0.0
C4919 C 0.94171 0.17537 0.89834 0.0
C4920 C 0.94397 0.18479 0.93917 0.0
C4921 C 0.93425 0.19795 0.89371 0.0
C4922 C 0.93158 0.21385 0.91144 0.0
C4923 C 0.93192 0.22309 0.95214 0.0
C4924 C 0.93481 0.21644 0.97519 0.0
C4925 C 0.93603 0.20741 0.93422 0.0
C4926 C 0.94403 0.19437 0.97998 0.0
C4927 C 0.94863 0.17871 0.9621 0.0
H4928 H 0.35479 0.03571 0.34284 0.0
H4929 H 0.33136 0.10037 0.37131 0.0
H4930 H 0.36964 0.11739 0.36346 0.0
H4931 H 0.41228 0.10999 0.35991 0.0
H4932 H 0.4358 0.04253 0.33807 0.0
H4933 H 0.39572 0.0298 0.33409 0.0
C4934 C 0.35816 0.05346 0.34769 0.0
C4935 C 0.34072 0.06631 0.35891 0.0
C4936 C 0.38075 0.06208 0.34593 0.0
C4937 C 0.34461 0.08988 0.36314 0.0
C4938 C 0.36671 0.09938 0.35929 0.0
C4939 C 0.40858 0.09258 0.35407 0.0
C4940 C 0.42703 0.07697 0.34985 0.0
C4941 C 0.38537 0.08505 0.35265 0.0
C4942 C 0.42196 0.0546 0.34203 0.0
C4943 C 0.39906 0.04738 0.33961 0.0
H4944 H 0.25485 0.09653 0.60013 0.0
H4945 H 0.18675 0.07494 0.62193 0.0
H4946 H 0.17207 0.11432 0.61515 0.0
H4947 H 0.1803 0.15623 0.60838 0.0
H4948 H 0.24977 0.17688 0.59012 0.0
H4949 H 0.26237 0.13663 0.59092 0.0
C4950 C 0.23666 0.10023 0.60316 0.0
C4951 C 0.22203 0.08283 0.61197 0.0
C4952 C 0.22877 0.123 0.60049 0.0
C4953 C 0.19843 0.08793 0.61514 0.0
C4954 C 0.19013 0.11057 0.61159 0.0
C4955 C 0.19812 0.15182 0.60433 0.0
C4956 C 0.2142 0.1696 0.59951 0.0
C4957 C 0.20539 0.12847 0.60517 0.0
C4958 C 0.2372 0.16363 0.59431 0.0
C4959 C 0.24437 0.14059 0.59459 0.0
H4960 H 0.1933 0.9831 0.87856 0.0
H4961 H 0.24296 0.93678 0.84704 0.0
H4962 H 0.21243 0.9083 0.84089 0.0
H4963 H 0.17268 0.89561 0.84754 0.0
H4964 H 0.12439 0.94015 0.88331 0.0
H4965 H 0.15396 0.97018 0.88562 0.0
C4966 C 0.19743 0.96699 0.86992 0.0
C4967 C 0.22036 0.9619 0.86352 0.0
C4968 C 0.18031 0.95018 0.86797 0.0
C4969 C 0.22542 0.94096 0.85233 0.0
C4970 C 0.20808 0.92461 0.84905 0.0
C4971 C 0.16877 0.9117 0.85636 0.0
C4972 C 0.14659 0.91559 0.8657 0.0
C4973 C 0.18571 0.92876 0.8576 0.0
C4974 C 0.14148 0.93676 0.87631 0.0
C4975 C 0.15823 0.95399 0.87736 0.0
H4976 H 0.37376 0.88157 0.11596 0.0
H4977 H 0.31116 0.85843 0.08315 0.0
H4978 H 0.29906 0.89851 0.07715 0.0
H4979 H 0.30269 0.93895 0.08775 0.0
H4980 H 0.3618 0.96225 0.12601 0.0
H4981 H 0.38 0.92406 0.1214 0.0
C4982 C 0.35752 0.88545 0.10747 0.0
C4983 C 0.34289 0.86719 0.1007 0.0
C4984 C 0.35029 0.90862 0.10476 0.0
C4985 C 0.32221 0.87225 0.08918 0.0
C4986 C 0.31546 0.89513 0.08551 0.0
C4987 C 0.31988 0.93585 0.09455 0.0
C4988 C 0.33053 0.9531 0.10787 0.0
C4989 C 0.32884 0.91334 0.09415 0.0
C4990 C 0.35307 0.9492 0.11593 0.0
C4991 C 0.36313 0.92711 0.11392 0.0
H4992 H 0.42382 0.97655 0.20294 0.0
H4993 H 0.42601 0.91243 0.16512 0.0
H4994 H 0.38383 0.91316 0.16137 0.0
H4995 H 0.3468 0.93533 0.16381 0.0
H4996 H 0.34549 0.99926 0.20187 0.0
H4997 H 0.3864 0.99498 0.21103 0.0
C4998 C 0.41511 0.96286 0.19363 0.0
C4999 C 0.42821 0.94485 0.18373 0.0
C5000 C 0.39083 0.96327 0.19169 0.0
C5001 C 0.41645 0.92674 0.17259 0.0
C5002 C 0.39229 0.92715 0.17041 0.0
C5003 C 0.35536 0.94783 0.17475 0.0
C5004 C 0.34324 0.96769 0.18195 0.0
C5005 C 0.37931 0.9457 0.17927 0.0
C5006 C 0.35448 0.9838 0.19615 0.0
C5007 C 0.37798 0.98154 0.20113 0.0
H5008 H 0.33249 0.1633 0.44599 0.0
H5009 H 0.39123 0.15186 0.40151 0.0
H5010 H 0.38441 0.10998 0.40279 0.0
H5011 H 0.35741 0.07759 0.41077 0.0
H5012 H 0.29726 0.09005 0.4532 0.0
H5013 H 0.30868 0.13033 0.45836 0.0
C5014 C 0.34359 0.15157 0.43637 0.0
C5015 C 0.36192 0.16052 0.42316 0.0
C5016 C 0.33902 0.12772 0.43647 0.0
C5017 C 0.37657 0.14529 0.41118 0.0
C5018 C 0.37267 0.1214 0.41193 0.0
C5019 C 0.34734 0.08895 0.42183 0.0
C5020 C 0.32649 0.08098 0.43151 0.0
C5021 C 0.35341 0.11248 0.42375 0.0
C5022 C 0.31341 0.09588 0.44562 0.0
C5023 C 0.31973 0.11899 0.44828 0.0
H5024 H 0.19552 0.04464 0.70351 0.0
H5025 H 0.21785 0.1019 0.66154 0.0
H5026 H 0.17903 0.11908 0.66416 0.0
H5027 H 0.13696 0.11393 0.67268 0.0
H5028 H 0.11471 0.05427 0.71128 0.0
H5029 H 0.15496 0.04142 0.71512 0.0
C5030 C 0.19204 0.06123 0.69545 0.0
C5031 C 0.20936 0.0717 0.6819 0.0
C5032 C 0.16937 0.07004 0.6957 0.0
C5033 C 0.20482 0.0934 0.67199 0.0
C5034 C 0.18245 0.10298 0.67311 0.0
C5035 C 0.14109 0.09822 0.68204 0.0
C5036 C 0.12304 0.08477 0.69142 0.0
C5037 C 0.1643 0.09079 0.68385 0.0
C5038 C 0.12839 0.0646 0.7037 0.0
C5039 C 0.15137 0.05739 0.70601 0.0
H5040 H 0.23422 0.87037 0.95989 0.0
H5041 H 0.1783 0.87022 0.91112 0.0
H5042 H 0.18261 0.91204 0.90545 0.0
H5043 H 0.20571 0.94765 0.91091 0.0
H5044 H 0.26211 0.94705 0.95892 0.0
H5045 H 0.25366 0.9071 0.9692 0.0
C5046 C 0.22308 0.87958 0.94798 0.0
C5047 C 0.20645 0.86728 0.93543 0.0
C5048 C 0.22555 0.9036 0.94494 0.0
C5049 C 0.19157 0.87936 0.92055 0.0
C5050 C 0.19398 0.90325 0.91737 0.0
C5051 C 0.21557 0.93899 0.9241 0.0
C5052 C 0.23451 0.95033 0.93407 0.0
C5053 C 0.21128 0.9155 0.92906 0.0
C5054 C 0.24721 0.93884 0.95126 0.0
C5055 C 0.2427 0.91578 0.95678 0.0
H5056 H 0.33991 0.39514 0.10357 0.0
H5057 H 0.37097 0.37099 0.16671 0.0
H5058 H 0.38008 0.33396 0.14852 0.0
H5059 H 0.38051 0.30897 0.11419 0.0
H5060 H 0.34927 0.33315 0.05134 0.0
H5061 H 0.33807 0.36925 0.07016 0.0
C5062 C 0.34825 0.38166 0.11355 0.0
C5063 C 0.35478 0.38598 0.13651 0.0
C5064 C 0.35336 0.36037 0.10303 0.0
C5065 C 0.36601 0.36833 0.14895 0.0
C5066 C 0.37112 0.34708 0.1386 0.0
C5067 C 0.37124 0.3222 0.10466 0.0
C5068 C 0.36634 0.31876 0.08123 0.0
C5069 C 0.36516 0.34304 0.11556 0.0
C5070 C 0.35374 0.3356 0.06922 0.0
C5071 C 0.3473 0.35627 0.08001 0.0
H5072 H 0.8445 0.15599 0.91657 0.0
H5073 H 0.90092 0.11605 0.9447 0.0
H5074 H 0.9087 0.14656 0.97256 0.0
H5075 H 0.89732 0.18251 0.99092 0.0
H5076 H 0.84357 0.22503 0.96161 0.0
H5077 H 0.83632 0.19518 0.93226 0.0
C5078 C 0.8588 0.15431 0.92851 0.0
C5079 C 0.87206 0.13384 0.92878 0.0
C5080 C 0.8632 0.17198 0.94445 0.0
C5081 C 0.89064 0.13175 0.94411 0.0
C5082 C 0.89492 0.14904 0.96018 0.0
C5083 C 0.88404 0.18532 0.97806 0.0
C5084 C 0.87061 0.20559 0.97857 0.0
C5085 C 0.88089 0.16884 0.96088 0.0
C5086 C 0.85382 0.20931 0.96161 0.0
C5087 C 0.84983 0.19236 0.94484 0.0
H5088 H 0.11949 0.64253 0.25141 0.0
H5089 H 0.07847 0.60826 0.19979 0.0
H5090 H 0.11323 0.60462 0.17517 0.0
H5091 H 0.1556 0.61052 0.16947 0.0
H5092 H 0.19463 0.64624 0.22177 0.0
H5093 H 0.1597 0.65058 0.24503 0.0
C5094 C 0.11797 0.63391 0.23492 0.0
C5095 C 0.09651 0.62506 0.2277 0.0
C5096 C 0.13754 0.63262 0.22093 0.0
C5097 C 0.09488 0.61487 0.20586 0.0
C5098 C 0.11469 0.61294 0.19182 0.0
C5099 C 0.15633 0.61945 0.18587 0.0
C5100 C 0.1777 0.62798 0.19398 0.0
C5101 C 0.13614 0.62171 0.19929 0.0
C5102 C 0.17843 0.63976 0.21507 0.0
C5103 C 0.15853 0.64197 0.22848 0.0
H5104 H 0.70601 0.80846 0.45822 0.0
H5105 H 0.65014 0.84526 0.49131 0.0
H5106 H 0.65683 0.87869 0.46766 0.0
H5107 H 0.67682 0.89688 0.43552 0.0
H5108 H 0.73383 0.86211 0.40226 0.0
H5109 H 0.72863 0.82845 0.42779 0.0
C5110 C 0.6956 0.82397 0.46031 0.0
C5111 C 0.67758 0.82433 0.47645 0.0
C5112 C 0.69959 0.84337 0.44635 0.0
C5113 C 0.66419 0.84443 0.47923 0.0
C5114 C 0.66791 0.86366 0.46551 0.0
C5115 C 0.68796 0.88181 0.43382 0.0
C5116 C 0.70513 0.88137 0.41681 0.0
C5117 C 0.68519 0.86309 0.44867 0.0
C5118 C 0.72012 0.86231 0.41504 0.0
C5119 C 0.71723 0.84326 0.42965 0.0
H5120 H 0.97302 0.90795 0.20303 0.0
H5121 H 0.95193 0.9554 0.25644 0.0
H5122 H 0.92193 0.97128 0.23142 0.0
H5123 H 0.90293 0.97269 0.19407 0.0
H5124 H 0.92294 0.92483 0.14052 0.0
H5125 H 0.95209 0.9078 0.16601 0.0
C5126 C 0.96193 0.92191 0.20901 0.0
C5127 C 0.96467 0.93074 0.23136 0.0
C5128 C 0.94449 0.93064 0.19465 0.0
C5129 C 0.95 0.94841 0.23927 0.0
C5130 C 0.93289 0.95744 0.225 0.0
C5131 C 0.91322 0.95815 0.1881 0.0
C5132 C 0.9107 0.94998 0.16546 0.0
C5133 C 0.93 0.9487 0.20268 0.0
C5134 C 0.92464 0.93148 0.15786 0.0
C5135 C 0.94134 0.92182 0.17238 0.0
H5136 H 0.21419 0.61851 0.57037 0.0
H5137 H 0.14935 0.61266 0.60682 0.0
H5138 H 0.14448 0.6547 0.60562 0.0
H5139 H 0.15543 0.69215 0.58909 0.0
H5140 H 0.21736 0.69742 0.54819 0.0
H5141 H 0.227 0.65704 0.55658 0.0
C5142 C 0.19885 0.62653 0.5777 0.0
C5143 C 0.18174 0.61262 0.58795 0.0
C5144 C 0.19568 0.65064 0.5762 0.0
C5145 C 0.16226 0.62307 0.59808 0.0
C5146 C 0.1595 0.64705 0.59749 0.0
C5147 C 0.17137 0.68462 0.5827 0.0
C5148 C 0.18572 0.69768 0.56819 0.0
C5149 C 0.1757 0.66093 0.58602 0.0
C5150 C 0.2063 0.68776 0.55978 0.0
C5151 C 0.21151 0.66452 0.56414 0.0
H5152 H 0.07433 0.40341 0.35308 0.0
H5153 H 0.09444 0.4547 0.30295 0.0
H5154 H 0.1225 0.47079 0.32983 0.0
H5155 H 0.14069 0.4705 0.36731 0.0
H5156 H 0.12201 0.41907 0.41791 0.0
H5157 H 0.09389 0.40245 0.39096 0.0
C5158 C 0.08476 0.41825 0.3483 0.0
C5159 C 0.08246 0.42811 0.32635 0.0
C5160 C 0.10113 0.42707 0.36369 0.0
C5161 C 0.09615 0.44698 0.31986 0.0
C5162 C 0.11214 0.4561 0.33515 0.0
C5163 C 0.13087 0.45531 0.37232 0.0
C5164 C 0.13363 0.44571 0.39435 0.0
C5165 C 0.11483 0.44618 0.357 0.0
C5166 C 0.1202 0.42658 0.40091 0.0
C5167 C 0.10413 0.4172 0.38559 0.0
H5168 H 0.44377 0.60921 0.78654 0.0
H5169 H 0.46642 0.6283 0.85467 0.0
H5170 H 0.42705 0.62248 0.86944 0.0
H5171 H 0.38546 0.61423 0.86233 0.0
H5172 H 0.36357 0.59687 0.79349 0.0
H5173 H 0.40329 0.60028 0.77966 0.0
C5174 C 0.4403 0.61188 0.80471 0.0
C5175 C 0.45822 0.61912 0.81943 0.0
C5176 C 0.41757 0.60917 0.81292 0.0
C5177 C 0.45314 0.62245 0.84293 0.0
C5178 C 0.43053 0.61933 0.85136 0.0
C5179 C 0.38944 0.61097 0.84436 0.0
C5180 C 0.37141 0.60542 0.82895 0.0
C5181 C 0.4125 0.61304 0.83642 0.0
C5182 C 0.37692 0.60151 0.80566 0.0
C5183 C 0.3997 0.60329 0.79776 0.0
H5184 H 0.93681 0.69748 0.64715 0.0
H5185 H 1.00294 0.72664 0.62897 0.0
H5186 H 1.02009 0.71005 0.6638 0.0
H5187 H 1.01373 0.69525 0.70262 0.0
H5188 H 0.94586 0.67131 0.72312 0.0
H5189 H 0.93124 0.67944 0.68457 0.0
C5190 C 0.95525 0.69915 0.65033 0.0
C5191 C 0.96873 0.71316 0.63586 0.0
C5192 C 0.96408 0.69206 0.67146 0.0
C5193 C 0.99248 0.71564 0.63995 0.0
C5194 C 1.00201 0.70679 0.66013 0.0
C5195 C 0.9957 0.69188 0.6987 0.0
C5196 C 0.98072 0.68323 0.71575 0.0
C5197 C 0.98752 0.69649 0.67665 0.0
C5198 C 0.9575 0.6787 0.71043 0.0
C5199 C 0.94928 0.68286 0.68831 0.0
H5200 H 0.10996 0.19782 0.47024 0.0
H5201 H 0.15413 0.25348 0.44761 0.0
H5202 H 0.15622 0.23753 0.40948 0.0
H5203 H 0.14384 0.20937 0.38128 0.0
H5204 H 0.09852 0.1538 0.40159 0.0
H5205 H 0.0984 0.16799 0.44137 0.0
C5206 C 0.1198 0.20647 0.45683 0.0
C5207 C 0.13105 0.22743 0.46172 0.0
C5208 C 0.12076 0.19718 0.43432 0.0
C5209 C 0.14421 0.23813 0.44429 0.0
C5210 C 0.14581 0.22875 0.42236 0.0
C5211 C 0.13429 0.20006 0.39446 0.0
C5212 C 0.12123 0.18062 0.38843 0.0
C5213 C 0.13386 0.20855 0.41704 0.0
C5214 C 0.10859 0.16901 0.40573 0.0
C5215 C 0.10851 0.1771 0.4285 0.0
H5216 H 0.60115 0.36119 0.23367 0.0
H5217 H 0.53928 0.33209 0.20426 0.0
H5218 H 0.56229 0.3109 0.17615 0.0
H5219 H 0.59959 0.30345 0.15755 0.0
H5220 H 0.66199 0.33131 0.18679 0.0
H5221 H 0.63935 0.34982 0.21758 0.0
C5222 C 0.59281 0.34984 0.22141 0.0
C5223 C 0.56852 0.34884 0.22049 0.0
C5224 C 0.60623 0.33766 0.20512 0.0
C5225 C 0.55791 0.33389 0.20468 0.0
C5226 C 0.57105 0.32166 0.18865 0.0
C5227 C 0.60818 0.31362 0.17068 0.0
C5228 C 0.63225 0.31648 0.16975 0.0
C5229 C 0.59513 0.32407 0.1882 0.0
C5230 C 0.64338 0.32909 0.18715 0.0
C5231 C 0.63046 0.3396 0.20474 0.0
H5232 H 0.42397 0.8501 0.97023 0.0
H5233 H 0.46154 0.78564 0.96847 0.0
H5234 H 0.48317 0.79855 0.93447 0.0
H5235 H 0.49091 0.82821 0.90521 0.0
H5236 H 0.45088 0.8912 0.90482 0.0
H5237 H 0.42966 0.87851 0.9392 0.0
C5238 C 0.43705 0.8391 0.96239 0.0
C5239 C 0.44158 0.81725 0.97162 0.0
C5240 C 0.44832 0.84608 0.94222 0.0
C5241 C 0.45817 0.8027 0.96147 0.0
C5242 C 0.47029 0.80995 0.94202 0.0
C5243 C 0.4772 0.83884 0.91249 0.0
C5244 C 0.47218 0.8604 0.90274 0.0
C5245 C 0.46529 0.83149 0.93212 0.0
C5246 C 0.45459 0.87432 0.91208 0.0
C5247 C 0.44277 0.86725 0.93183 0.0
H5248 H 0.95317 0.29432 0.87468 0.0
H5249 H 0.91703 0.35189 0.90577 0.0
H5250 H 0.93322 0.378 0.87674 0.0
H5251 H 0.9558 0.38365 0.84129 0.0
H5252 H 0.99014 0.32601 0.80964 0.0
H5253 H 0.97637 0.30038 0.8399 0.0
C5254 C 0.94881 0.31258 0.87509 0.0
C5255 C 0.9337 0.32111 0.89211 0.0
C5256 C 0.95734 0.32723 0.85791 0.0
C5257 C 0.92874 0.34492 0.89289 0.0
C5258 C 0.93775 0.35979 0.87616 0.0
C5259 C 0.95936 0.36538 0.84047 0.0
C5260 C 0.97212 0.35625 0.82199 0.0
C5261 C 0.95152 0.35097 0.85823 0.0
C5262 C 0.97862 0.33292 0.82243 0.0
C5263 C 0.97122 0.31843 0.84013 0.0
H5264 H 0.44989 0.1591 0.62422 0.0
H5265 H 0.43029 0.21087 0.67393 0.0
H5266 H 0.42329 0.23887 0.64295 0.0
H5267 H 0.42204 0.2482 0.60167 0.0
H5268 H 0.44252 0.19634 0.55204 0.0
H5269 H 0.45043 0.16905 0.58295 0.0
C5270 C 0.44406 0.17653 0.62812 0.0
C5271 C 0.44041 0.18305 0.65108 0.0
C5272 C 0.44053 0.19257 0.61029 0.0
C5273 C 0.43309 0.20564 0.65621 0.0
C5274 C 0.4292 0.2216 0.63857 0.0
C5275 C 0.42861 0.23107 0.59762 0.0
C5276 C 0.43146 0.22432 0.57452 0.0
C5277 C 0.43289 0.21527 0.61552 0.0
C5278 C 0.43993 0.20198 0.56964 0.0
C5279 C 0.44439 0.18627 0.58731 0.0
H5280 H 0.63544 0.69072 0.37094 0.0
H5281 H 0.57824 0.69205 0.41879 0.0
H5282 H 0.55074 0.68963 0.38696 0.0
H5283 H 0.5433 0.68352 0.34568 0.0
H5284 H 0.60092 0.68199 0.29812 0.0
H5285 H 0.62776 0.68895 0.32941 0.0
C5286 C 0.61694 0.69043 0.37426 0.0
C5287 C 0.60873 0.69115 0.39695 0.0
C5288 C 0.6013 0.68919 0.35593 0.0
C5289 C 0.58479 0.69129 0.40129 0.0
C5290 C 0.56911 0.68992 0.38315 0.0
C5291 C 0.56169 0.68504 0.34222 0.0
C5292 C 0.57012 0.68168 0.3198 0.0
C5293 C 0.57719 0.68842 0.36042 0.0
C5294 C 0.59394 0.6843 0.31531 0.0
C5295 C 0.6094 0.68802 0.33323 0.0
H5296 H 0.10986 0.81242 0.09688 0.0
H5297 H 0.10787 0.86907 0.04842 0.0
H5298 H 0.10155 0.89629 0.08018 0.0
H5299 H 0.09998 0.90409 0.12246 0.0
H5300 H 0.10421 0.84654 0.16962 0.0
H5301 H 0.10717 0.81959 0.13756 0.0
C5302 C 0.1078 0.83067 0.09305 0.0
C5303 C 0.10975 0.83868 0.0703 0.0
C5304 C 0.10517 0.84614 0.11129 0.0
C5305 C 0.10653 0.86239 0.06581 0.0
C5306 C 0.1032 0.87801 0.08399 0.0
C5307 C 0.10163 0.88565 0.12552 0.0
C5308 C 0.10189 0.87717 0.14822 0.0
C5309 C 0.10321 0.87014 0.10689 0.0
C5310 C 0.10389 0.85331 0.15221 0.0
C5311 C 0.10548 0.83792 0.13394 0.0
H5312 H 0.67816 1.00146 0.65411 0.0
H5313 H 0.71082 0.95396 0.70091 0.0
H5314 H 0.67368 0.93284 0.70472 0.0
H5315 H 0.63116 0.92923 0.69478 0.0
H5316 H 0.60127 0.97994 0.64861 0.0
H5317 H 0.63841 0.99836 0.64439 0.0
C5318 C 0.67726 0.98698 0.66582 0.0
C5319 C 0.69711 0.98002 0.67792 0.0
C5320 C 0.65628 0.97534 0.66777 0.0
C5321 C 0.69575 0.96001 0.69163 0.0
C5322 C 0.67449 0.94801 0.69378 0.0
C5323 C 0.63271 0.9445 0.68406 0.0
C5324 C 0.6131 0.95295 0.67188 0.0
C5325 C 0.65446 0.95574 0.68205 0.0
C5326 C 0.61579 0.97257 0.65781 0.0
C5327 C 0.63707 0.9834 0.65557 0.0
H5328 H 0.82183 0.88095 0.4607 0.0
H5329 H 0.88031 0.88129 0.41454 0.0
H5330 H 0.87857 0.92368 0.41226 0.0
H5331 H 0.85574 0.95991 0.41813 0.0
H5332 H 0.79812 0.95883 0.46552 0.0
H5333 H 0.80435 0.9178 0.4728 0.0
C5334 C 0.83391 0.89037 0.44985 0.0
C5335 C 0.85046 0.87814 0.43696 0.0
C5336 C 0.83286 0.91462 0.44871 0.0
C5337 C 0.86684 0.89044 0.42388 0.0
C5338 C 0.86585 0.91462 0.42258 0.0
C5339 C 0.84516 0.95083 0.43066 0.0
C5340 C 0.82614 0.96218 0.44081 0.0
C5341 C 0.84839 0.92688 0.43426 0.0
C5342 C 0.81274 0.95034 0.45731 0.0
C5343 C 0.81601 0.92677 0.46118 0.0
H5344 H 0.81587 0.11488 0.16253 0.0
H5345 H 0.84032 0.05958 0.20625 0.0
H5346 H 0.87379 0.08272 0.21712 0.0
H5347 H 0.89546 0.11827 0.21451 0.0
H5348 H 0.8728 0.17341 0.16966 0.0
H5349 H 0.83906 0.15038 0.15856 0.0
C5350 C 0.8284 0.10808 0.17467 0.0
C5351 C 0.82571 0.08573 0.18378 0.0
C5352 C 0.84797 0.12113 0.18019 0.0
C5353 C 0.84213 0.07684 0.19916 0.0
C5354 C 0.86129 0.08994 0.20521 0.0
C5355 C 0.88365 0.12507 0.20169 0.0
C5356 C 0.88679 0.14742 0.19269 0.0
C5357 C 0.86446 0.11195 0.19562 0.0
C5358 C 0.87077 0.15619 0.17674 0.0
C5359 C 0.85146 0.14312 0.17053 0.0
H5360 H 0.73254 0.17112 0.95484 0.0
H5361 H 0.66036 0.16802 0.93611 0.0
H5362 H 0.66295 0.1261 0.93275 0.0
H5363 H 0.68715 0.09101 0.92846 0.0
H5364 H 0.75912 0.09409 0.94732 0.0
H5365 H 0.75513 0.13484 0.95702 0.0
C5366 C 0.71743 0.16136 0.94968 0.0
C5367 C 0.69646 0.17304 0.94511 0.0
C5368 C 0.71908 0.13714 0.94716 0.0
C5369 C 0.67684 0.15978 0.93952 0.0
C5370 C 0.67832 0.13571 0.93733 0.0
C5371 C 0.70192 0.10061 0.93483 0.0
C5372 C 0.72372 0.08978 0.93583 0.0
C5373 C 0.69958 0.12433 0.94007 0.0
C5374 C 0.74238 0.10209 0.94524 0.0
C5375 C 0.74009 0.12554 0.95092 0.0
H5376 H 0.62356 0.07745 0.83871 0.0
H5377 H 0.62007 0.13328 0.88757 0.0
H5378 H 0.66225 0.13189 0.89227 0.0
H5379 H 0.69897 0.10979 0.88782 0.0
H5380 H 0.7018 0.0538 0.83898 0.0
H5381 H 0.6615 0.06058 0.82853 0.0
C5382 C 0.63213 0.08911 0.85055 0.0
C5383 C 0.61886 0.10477 0.86352 0.0
C5384 C 0.65628 0.08809 0.85329 0.0
C5385 C 0.63002 0.12052 0.87808 0.0
C5386 C 0.65408 0.1197 0.8808 0.0
C5387 C 0.69092 0.09961 0.87442 0.0
C5388 C 0.7031 0.08098 0.86461 0.0
C5389 C 0.66731 0.10294 0.86921 0.0
C5390 C 0.69264 0.06814 0.84692 0.0
C5391 C 0.66947 0.07173 0.84121 0.0
H5392 H 0.7437 0.94575 0.61386 0.0
H5393 H 0.68095 0.98616 0.61645 0.0
H5394 H 0.65787 0.95074 0.6137 0.0
H5395 H 0.6559 0.9076 0.61525 0.0
H5396 H 0.71953 0.86841 0.61084 0.0
H5397 H 0.74158 0.90404 0.60786 0.0
C5398 C 0.72496 0.94692 0.61347 0.0
C5399 C 0.71406 0.96846 0.61682 0.0
C5400 C 0.7119 0.92659 0.61168 0.0
C5401 C 0.68982 0.9697 0.615 0.0
C5402 C 0.67659 0.94941 0.61349 0.0
C5403 C 0.67463 0.90691 0.61408 0.0
C5404 C 0.68602 0.88526 0.6138 0.0
C5405 C 0.68749 0.92763 0.61295 0.0
C5406 C 0.71025 0.88472 0.61131 0.0
C5407 C 0.72297 0.90511 0.60988 0.0
H5408 H 0.85356 1.00334 0.3488 0.0
H5409 H 0.83181 0.93951 0.3803 0.0
H5410 H 0.87026 0.92263 0.37233 0.0
H5411 H 0.91275 0.92971 0.36559 0.0
H5412 H 0.93402 0.99619 0.33915 0.0
H5413 H 0.89385 1.00895 0.33804 0.0
C5414 C 0.85717 0.98569 0.3541 0.0
C5415 C 0.84008 0.97314 0.36616 0.0
C5416 C 0.87984 0.97709 0.35179 0.0
C5417 C 0.84468 0.94985 0.37146 0.0
C5418 C 0.86691 0.94041 0.36746 0.0
C5419 C 0.90852 0.94687 0.35931 0.0
C5420 C 0.92661 0.96218 0.35299 0.0
C5421 C 0.88511 0.95442 0.35918 0.0
C5422 C 0.92068 0.98427 0.34471 0.0
C5423 C 0.89763 0.99154 0.34388 0.0
H5424 H 0.86101 0.16316 0.11202 0.0
H5425 H 0.79451 0.18613 0.08722 0.0
H5426 H 0.78065 0.14624 0.0869 0.0
H5427 H 0.78586 0.1057 0.09748 0.0
H5428 H 0.85 0.08295 0.1276 0.0
H5429 H 0.86697 0.1212 0.12044 0.0
C5430 C 0.84362 0.15933 0.10623 0.0
C5431 C 0.8287 0.17766 0.09988 0.0
C5432 C 0.83549 0.13626 0.10672 0.0
C5433 C 0.80619 0.17242 0.0925 0.0
C5434 C 0.7983 0.1496 0.09219 0.0
C5435 C 0.80362 0.10906 0.10239 0.0
C5436 C 0.81641 0.09165 0.11363 0.0
C5437 C 0.81256 0.1315 0.09986 0.0
C5438 C 0.83974 0.09595 0.11888 0.0
C5439 C 0.8493 0.11802 0.11516 0.0
H5440 H 0.67509 0.73754 0.93522 0.0
H5441 H 0.6906 0.71026 1.00245 0.0
H5442 H 0.70216 0.67329 0.98528 0.0
H5443 H 0.70379 0.64758 0.95143 0.0
H5444 H 0.68775 0.67491 0.88421 0.0
H5445 H 0.68076 0.71314 0.90097 0.0
C5446 C 0.68123 0.72353 0.94606 0.0
C5447 C 0.6812 0.72617 0.97012 0.0
C5448 C 0.68762 0.70235 0.93603 0.0
C5449 C 0.68972 0.70826 0.98396 0.0
C5450 C 0.69641 0.68718 0.97412 0.0
C5451 C 0.69914 0.66201 0.94042 0.0
C5452 C 0.69607 0.65841 0.91665 0.0
C5453 C 0.69472 0.6838 0.95023 0.0
C5454 C 0.68995 0.67722 0.90258 0.0
C5455 C 0.68602 0.69907 0.91214 0.0
H5456 H 0.19859 0.91048 0.11829 0.0
H5457 H 0.15542 0.94772 0.07003 0.0
H5458 H 0.14702 0.91201 0.04999 0.0
H5459 H 0.15291 0.87131 0.04476 0.0
H5460 H 0.19586 0.83208 0.09117 0.0
H5461 H 0.20366 0.86771 0.11326 0.0
C5462 C 0.18755 0.91084 0.10324 0.0
C5463 C 0.17776 0.93206 0.09573 0.0
C5464 C 0.18298 0.89002 0.09134 0.0
C5465 C 0.16302 0.93187 0.07652 0.0
C5466 C 0.15833 0.91143 0.06485 0.0
C5467 C 0.16439 0.87039 0.05945 0.0
C5468 C 0.17444 0.84914 0.06581 0.0
C5469 C 0.16847 0.8906 0.07189 0.0
C5470 C 0.18823 0.84828 0.08565 0.0
C5471 C 0.19263 0.86865 0.09824 0.0
H5472 H 0.89835 0.43942 0.88148 0.0
H5473 H 0.85901 0.39821 0.83355 0.0
H5474 H 0.89267 0.39502 0.80846 0.0
H5475 H 0.93188 0.40473 0.7995 0.0
H5476 H 0.97367 0.44421 0.84658 0.0
H5477 H 0.94007 0.44749 0.87292 0.0
C5478 C 0.89727 0.42965 0.86559 0.0
C5479 C 0.87615 0.41909 0.85934 0.0
C5480 C 0.91682 0.42792 0.85109 0.0
C5481 C 0.87504 0.40624 0.83889 0.0
C5482 C 0.8942 0.40462 0.82443 0.0
C5483 C 0.9337 0.41468 0.8152 0.0
C5484 C 0.95504 0.42502 0.82068 0.0
C5485 C 0.9149 0.41572 0.83019 0.0
C5486 C 0.95732 0.43648 0.84182 0.0
C5487 C 0.93817 0.43822 0.85683 0.0
H5488 H 0.34833 0.20216 0.55033 0.0
H5489 H 0.37708 0.24762 0.60155 0.0
H5490 H 0.3697 0.21892 0.63143 0.0
H5491 H 0.359 0.17905 0.64228 0.0
H5492 H 0.33431 0.13253 0.58969 0.0
H5493 H 0.33684 0.16311 0.56111 0.0
C5494 C 0.35308 0.20574 0.56801 0.0
C5495 C 0.36386 0.22668 0.57354 0.0
C5496 C 0.34981 0.18876 0.58489 0.0
C5497 C 0.36881 0.23158 0.59673 0.0
C5498 C 0.36487 0.21504 0.61384 0.0
C5499 C 0.35417 0.17566 0.62458 0.0
C5500 C 0.34627 0.15359 0.61825 0.0
C5501 C 0.35611 0.19325 0.60798 0.0
C5502 C 0.33996 0.14949 0.59521 0.0
C5503 C 0.34149 0.16693 0.57877 0.0
H5504 H 0.0972 0.09591 0.78991 0.0
H5505 H 0.05847 0.12331 0.84753 0.0
H5506 H 0.08438 0.10358 0.8742 0.0
H5507 H 0.11753 0.07791 0.88109 0.0
H5508 H 0.15731 0.05177 0.82382 0.0
H5509 H 0.13206 0.07256 0.79681 0.0
C5510 C 0.0947 0.09798 0.80826 0.0
C5511 C 0.07603 0.11117 0.81669 0.0
C5512 C 0.10999 0.08707 0.82348 0.0
C5513 C 0.07255 0.11301 0.84058 0.0
C5514 C 0.08748 0.10194 0.85585 0.0
C5515 C 0.12082 0.07719 0.86269 0.0
C5516 C 0.13913 0.06364 0.85424 0.0
C5517 C 0.1062 0.08892 0.84748 0.0
C5518 C 0.14337 0.06245 0.8305 0.0
C5519 C 0.12884 0.07409 0.81515 0.0
H5520 H 0.86446 0.40552 0.4184 0.0
H5521 H 0.9161 0.43577 0.46272 0.0
H5522 H 0.91929 0.39946 0.48377 0.0
H5523 H 0.90443 0.36169 0.49229 0.0
H5524 H 0.85327 0.32952 0.44926 0.0
H5525 H 0.85231 0.36464 0.42494 0.0
C5526 C 0.87655 0.40406 0.43257 0.0
C5527 C 0.88968 0.42353 0.43937 0.0
C5528 C 0.87778 0.38328 0.44508 0.0
C5529 C 0.90581 0.42118 0.45718 0.0
C5530 C 0.90737 0.40054 0.46943 0.0
C5531 C 0.89261 0.36237 0.47795 0.0
C5532 C 0.87814 0.34348 0.47321 0.0
C5533 C 0.89276 0.38199 0.4641 0.0
C5534 C 0.86414 0.34411 0.45355 0.0
C5535 C 0.86375 0.36409 0.43967 0.0
H5536 H 0.95531 0.59631 0.74018 0.0
H5537 H 0.99732 0.63423 0.69173 0.0
H5538 H 0.97178 0.62259 0.66024 0.0
H5539 H 0.93616 0.60318 0.64716 0.0
H5540 H 0.89531 0.56475 0.69663 0.0
H5541 H 0.92107 0.57615 0.72724 0.0
C5542 C 0.95885 0.60196 0.72271 0.0
C5543 C 0.97788 0.61611 0.71816 0.0
C5544 C 0.94396 0.59569 0.70501 0.0
C5545 C 0.98279 0.62299 0.69546 0.0
C5546 C 0.96805 0.61663 0.67756 0.0
C5547 C 0.93294 0.59734 0.66463 0.0
C5548 C 0.91346 0.58368 0.66958 0.0
C5549 C 0.94834 0.60327 0.68223 0.0
C5550 C 0.90959 0.57609 0.69234 0.0
C5551 C 0.92456 0.58221 0.70989 0.0
H5552 H 0.65645 0.45665 0.21359 0.0
H5553 H 0.66547 0.38927 0.18308 0.0
H5554 H 0.62358 0.38289 0.18462 0.0
H5555 H 0.5856 0.39353 0.20085 0.0
H5556 H 0.57796 0.45789 0.23707 0.0
H5557 H 0.61763 0.46879 0.22683 0.0
C5558 C 0.64916 0.44061 0.20725 0.0
C5559 C 0.66397 0.4232 0.1988 0.0
C5560 C 0.62523 0.43659 0.20923 0.0
C5561 C 0.65441 0.40258 0.19037 0.0
C5562 C 0.63051 0.39894 0.19119 0.0
C5563 C 0.59254 0.41014 0.20594 0.0
C5564 C 0.57907 0.42497 0.21965 0.0
C5565 C 0.61588 0.41538 0.20147 0.0
C5566 C 0.5881 0.4464 0.22637 0.0
C5567 C 0.61082 0.45248 0.22067 0.0
H5568 H 0.63791 0.83194 0.86307 0.0
H5569 H 0.61864 0.88849 0.90763 0.0
H5570 H 0.58659 0.89849 0.88182 0.0
H5571 H 0.56602 0.89211 0.84555 0.0
H5572 H 0.58453 0.83458 0.802 0.0
H5573 H 0.61539 0.82381 0.8286 0.0
C5574 C 0.62697 0.84679 0.86681 0.0
C5575 C 0.63087 0.86001 0.88666 0.0
C5576 C 0.60845 0.85191 0.85237 0.0
C5577 C 0.6161 0.87851 0.89206 0.0
C5578 C 0.59773 0.884 0.87749 0.0
C5579 C 0.57598 0.87659 0.84246 0.0
C5580 C 0.57269 0.86385 0.8222 0.0
C5581 C 0.59381 0.87081 0.8576 0.0
C5582 C 0.58669 0.84449 0.81768 0.0
C5583 C 0.60442 0.8385 0.83271 0.0
H5584 H 0.43326 0.28038 0.11022 0.0
H5585 H 0.42709 0.35048 0.08513 0.0
H5586 H 0.4325 0.36512 0.1242 0.0
H5587 H 0.43627 0.3579 0.16597 0.0
H5588 H 0.44154 0.28761 0.19065 0.0
H5589 H 0.43862 0.27326 0.15127 0.0
C5590 C 0.43351 0.29891 0.11307 0.0
C5591 C 0.42979 0.31424 0.09452 0.0
C5592 C 0.43601 0.30721 0.13568 0.0
C5593 C 0.43003 0.33819 0.0989 0.0
C5594 C 0.43294 0.3466 0.12133 0.0
C5595 C 0.43711 0.33944 0.16274 0.0
C5596 C 0.43908 0.32387 0.18141 0.0
C5597 C 0.43551 0.33125 0.13993 0.0
C5598 C 0.43969 0.30001 0.17678 0.0
C5599 C 0.43823 0.29177 0.1542 0.0
H5600 H 0.93611 0.22023 0.39658 0.0
H5601 H 0.88089 0.17704 0.37135 0.0
H5602 H 0.90535 0.16505 0.33883 0.0
H5603 H 0.94221 0.16779 0.31739 0.0
H5604 H 0.99762 0.20949 0.34438 0.0
H5605 H 0.97288 0.22174 0.37642 0.0
C5606 C 0.92956 0.20762 0.38442 0.0
C5607 C 0.90681 0.19931 0.38653 0.0
C5608 C 0.94348 0.20116 0.36581 0.0
C5609 C 0.89842 0.18358 0.37013 0.0
C5610 C 0.9123 0.17688 0.35149 0.0
C5611 C 0.94865 0.17986 0.33011 0.0
C5612 C 0.97148 0.18806 0.32854 0.0
C5613 C 0.93471 0.18593 0.34897 0.0
C5614 C 0.97993 0.20332 0.34523 0.0
C5615 C 0.96594 0.21004 0.36362 0.0
H5616 H 0.10733 0.67958 0.56326 0.0
H5617 H 0.11834 0.74799 0.58985 0.0
H5618 H 0.11091 0.73411 0.62916 0.0
H5619 H 0.10524 0.70109 0.65606 0.0
H5620 H 0.09381 0.63288 0.62851 0.0
H5621 H 0.09608 0.64821 0.58923 0.0
C5622 C 0.10777 0.69158 0.57761 0.0
C5623 C 0.11501 0.71453 0.57402 0.0
C5624 C 0.10305 0.68342 0.59989 0.0
C5625 C 0.11475 0.72995 0.59259 0.0
C5626 C 0.11002 0.72203 0.61493 0.0
C5627 C 0.10299 0.68972 0.64138 0.0
C5628 C 0.09973 0.66587 0.645 0.0
C5629 C 0.10505 0.69856 0.61887 0.0
C5630 C 0.09664 0.65123 0.62601 0.0
C5631 C 0.09787 0.66 0.60361 0.0
H5632 H 0.60675 0.18906 0.72519 0.0
H5633 H 0.53469 0.20737 0.71761 0.0
H5634 H 0.54402 0.23376 0.68668 0.0
H5635 H 0.57103 0.24785 0.65909 0.0
H5636 H 0.64346 0.23 0.66314 0.0
H5637 H 0.63553 0.20628 0.69749 0.0
C5638 C 0.59337 0.19936 0.71704 0.0
C5639 C 0.57016 0.19684 0.72394 0.0
C5640 C 0.59877 0.21391 0.69825 0.0
C5641 C 0.55273 0.20957 0.71291 0.0
C5642 C 0.55798 0.22444 0.69503 0.0
C5643 C 0.58539 0.23953 0.66781 0.0
C5644 C 0.60785 0.24112 0.65876 0.0
C5645 C 0.58076 0.22626 0.68723 0.0
C5646 C 0.62593 0.2291 0.66976 0.0
C5647 C 0.62143 0.21564 0.68945 0.0
H5648 H 0.06456 0.37541 0.92744 0.0
H5649 H 0.08214 0.32027 0.88063 0.0
H5650 H 0.10402 0.30066 0.91114 0.0
H5651 H 0.11501 0.29793 0.95165 0.0
H5652 H 0.09723 0.35321 0.99869 0.0
H5653 H 0.0783 0.37415 0.96741 0.0
C5654 C 0.07365 0.35933 0.92392 0.0
C5655 C 0.07198 0.34917 0.90205 0.0
C5656 C 0.08564 0.34808 0.94157 0.0
C5657 C 0.08356 0.32837 0.89738 0.0
C5658 C 0.09577 0.31711 0.91485 0.0
C5659 C 0.10691 0.31451 0.95519 0.0
C5660 C 0.10712 0.32376 0.97763 0.0
C5661 C 0.09634 0.32653 0.93714 0.0
C5662 C 0.09699 0.34551 0.98168 0.0
C5663 C 0.0863 0.35756 0.96379 0.0
H5664 H 0.99502 0.84964 0.20579 0.0
H5665 H 0.93965 0.87228 0.25064 0.0
H5666 H 0.91108 0.86079 0.22232 0.0
H5667 H 0.90163 0.84403 0.18512 0.0
H5668 H 0.95649 0.81723 0.14181 0.0
H5669 H 0.98529 0.83143 0.16869 0.0
C5670 C 0.97668 0.8518 0.20934 0.0
C5671 C 0.96943 0.86134 0.23035 0.0
C5672 C 0.96021 0.84483 0.19309 0.0
C5673 C 0.94565 0.86435 0.2348 0.0
C5674 C 0.92927 0.85805 0.21852 0.0
C5675 C 0.91985 0.84109 0.18158 0.0
C5676 C 0.92672 0.82965 0.16136 0.0
C5677 C 0.93634 0.84817 0.19766 0.0
C5678 C 0.95054 0.82648 0.15692 0.0
C5679 C 0.96711 0.83429 0.17248 0.0
H5680 H 0.49245 0.7112 0.40567 0.0
H5681 H 0.44813 0.65142 0.40661 0.0
H5682 H 0.4284 0.66597 0.44119 0.0
H5683 H 0.42475 0.69528 0.47161 0.0
H5684 H 0.46629 0.75698 0.4684 0.0
H5685 H 0.48691 0.7419 0.43456 0.0
C5686 C 0.47813 0.70173 0.41328 0.0
C5687 C 0.47136 0.68058 0.40376 0.0
C5688 C 0.46697 0.71023 0.43295 0.0
C5689 C 0.45312 0.66802 0.41364 0.0
C5690 C 0.44213 0.67616 0.43348 0.0
C5691 C 0.43849 0.7052 0.46353 0.0
C5692 C 0.44442 0.72689 0.47234 0.0
C5693 C 0.44916 0.69706 0.44345 0.0
C5694 C 0.46183 0.74005 0.46178 0.0
C5695 C 0.47338 0.73156 0.44242 0.0
H5696 H 0.84132 0.59602 0.89585 0.0
H5697 H 0.82984 0.55611 0.83468 0.0
H5698 H 0.86905 0.56473 0.82113 0.0
H5699 H 0.90903 0.57773 0.83018 0.0
H5700 H 0.92155 0.61286 0.89428 0.0
H5701 H 0.88023 0.61163 0.90354 0.0
C5702 C 0.84722 0.58987 0.8793 0.0
C5703 C 0.83259 0.57556 0.86635 0.0
C5704 C 0.87051 0.59321 0.87265 0.0
C5705 C 0.8405 0.56766 0.84478 0.0
C5706 C 0.86319 0.57208 0.83731 0.0
C5707 C 0.90258 0.58514 0.84613 0.0
C5708 C 0.9183 0.59505 0.86173 0.0
C5709 C 0.87876 0.58379 0.85168 0.0
C5710 C 0.9098 0.60479 0.88223 0.0
C5711 C 0.88614 0.60417 0.88749 0.0
H5712 H 0.68388 0.57127 0.13852 0.0
H5713 H 0.74349 0.57999 0.09449 0.0
H5714 H 0.72748 0.61608 0.07949 0.0
H5715 H 0.70109 0.64874 0.08534 0.0
H5716 H 0.64278 0.64171 0.13149 0.0
H5717 H 0.6537 0.60156 0.13929 0.0
C5718 C 0.69303 0.58088 0.12527 0.0
C5719 C 0.71501 0.57348 0.11799 0.0
C5720 C 0.68434 0.60229 0.11771 0.0
C5721 C 0.72666 0.58572 0.10057 0.0
C5722 C 0.71758 0.60637 0.0921 0.0
C5723 C 0.69043 0.63828 0.09669 0.0
C5724 C 0.67138 0.64828 0.10811 0.0
C5725 C 0.69718 0.6155 0.10161 0.0
C5726 C 0.65785 0.63453 0.12289 0.0
C5727 C 0.66407 0.61159 0.12736 0.0
H5728 H 0.70311 0.4948 0.36015 0.0
H5729 H 0.73276 0.42723 0.37288 0.0
H5730 H 0.70197 0.40948 0.35004 0.0
H5731 H 0.66775 0.41378 0.32542 0.0
H5732 H 0.63916 0.48143 0.31238 0.0
H5733 H 0.66855 0.49896 0.33726 0.0
C5734 C 0.70286 0.47614 0.35813 0.0
C5735 C 0.72012 0.46223 0.36803 0.0
C5736 C 0.68536 0.46628 0.3452 0.0
C5737 C 0.7197 0.43818 0.3651 0.0
C5738 C 0.7021 0.42809 0.35224 0.0
C5739 C 0.66798 0.43232 0.32838 0.0
C5740 C 0.65177 0.44657 0.31751 0.0
C5741 C 0.68502 0.44205 0.34211 0.0
C5742 C 0.65174 0.47048 0.32092 0.0
C5743 C 0.66847 0.48035 0.33492 0.0
H5744 H 0.87775 0.38238 0.60914 0.0
H5745 H 0.83163 0.35041 0.65868 0.0
H5746 H 0.81362 0.3875 0.66622 0.0
H5747 H 0.80856 0.42716 0.65701 0.0
H5748 H 0.85235 0.46188 0.60766 0.0
H5749 H 0.87385 0.42518 0.60161 0.0
C5750 C 0.86371 0.38355 0.62153 0.0
C5751 C 0.85596 0.36336 0.6332 0.0
C5752 C 0.85298 0.40518 0.62562 0.0
C5753 C 0.83816 0.36542 0.6496 0.0
C5754 C 0.82768 0.38664 0.65381 0.0
C5755 C 0.82277 0.42703 0.64476 0.0
C5756 C 0.82849 0.44725 0.63244 0.0
C5757 C 0.83462 0.40634 0.64158 0.0
C5758 C 0.84748 0.4466 0.61731 0.0
C5759 C 0.85964 0.42559 0.61384 0.0
H5760 H 0.91301 0.42647 0.69103 0.0
H5761 H 0.9357 0.49731 0.69806 0.0
H5762 H 0.89575 0.51007 0.70145 0.0
H5763 H 0.85493 0.50203 0.69953 0.0
H5764 H 0.83036 0.43214 0.69145 0.0
H5765 H 0.87054 0.41795 0.69283 0.0
C5766 C 0.90924 0.44468 0.69349 0.0
C5767 C 0.92758 0.46097 0.69367 0.0
C5768 C 0.88593 0.45204 0.69553 0.0
C5769 C 0.92215 0.48444 0.69705 0.0
C5770 C 0.89925 0.49175 0.69933 0.0
C5771 C 0.85808 0.48357 0.69821 0.0
C5772 C 0.83949 0.4683 0.69402 0.0
C5773 C 0.88106 0.4758 0.69816 0.0
C5774 C 0.84424 0.44445 0.69358 0.0
C5775 C 0.86729 0.43636 0.69431 0.0
H5776 H 0.78731 0.60218 0.94644 0.0
H5777 H 0.85822 0.57989 0.93756 0.0
H5778 H 0.87118 0.61996 0.94365 0.0
H5779 H 0.86145 0.66201 0.94388 0.0
H5780 H 0.78982 0.68288 0.95065 0.0
H5781 H 0.77805 0.64252 0.95146 0.0
C5782 C 0.80572 0.60579 0.94587 0.0
C5783 C 0.82171 0.58799 0.94063 0.0
C5784 C 0.81283 0.6288 0.94793 0.0
C5785 C 0.84546 0.59319 0.94117 0.0
C5786 C 0.85282 0.61619 0.94424 0.0
C5787 C 0.84329 0.65775 0.94593 0.0
C5788 C 0.82647 0.67564 0.94668 0.0
C5789 C 0.83654 0.63429 0.94637 0.0
C5790 C 0.80307 0.66964 0.94933 0.0
C5791 C 0.79633 0.64652 0.95004 0.0
H5792 H 0.63634 0.61463 0.18044 0.0
H5793 H 0.6079 0.55307 0.21129 0.0
H5794 H 0.64691 0.53776 0.21746 0.0
H5795 H 0.6885 0.53953 0.20956 0.0
H5796 H 0.71689 0.59822 0.17364 0.0
H5797 H 0.6793 0.61783 0.17576 0.0
C5798 C 0.63881 0.59796 0.18867 0.0
C5799 C 0.61931 0.58471 0.195 0.0
C5800 C 0.66141 0.5889 0.19149 0.0
C5801 C 0.62265 0.5633 0.20588 0.0
C5802 C 0.64495 0.55463 0.20953 0.0
C5803 C 0.68646 0.5566 0.20211 0.0
C5804 C 0.70531 0.5669 0.1906 0.0
C5805 C 0.66437 0.56688 0.20164 0.0
C5806 C 0.70273 0.58967 0.18242 0.0
C5807 C 0.68103 0.60073 0.18322 0.0
H5808 H 0.75163 0.43539 0.4614 0.0
H5809 H 0.6969 0.45942 0.41722 0.0
H5810 H 0.6805 0.4204 0.4162 0.0
H5811 H 0.68574 0.37814 0.42254 0.0
H5812 H 0.74375 0.35404 0.46238 0.0
H5813 H 0.7554 0.39405 0.46987 0.0
C5814 C 0.7358 0.43214 0.45196 0.0
C5815 C 0.72577 0.45013 0.43904 0.0
C5816 C 0.72768 0.40937 0.44992 0.0
C5817 C 0.70494 0.44592 0.4274 0.0
C5818 C 0.69587 0.42345 0.42638 0.0
C5819 C 0.70103 0.38179 0.43268 0.0
C5820 C 0.7144 0.36332 0.44129 0.0
C5821 C 0.70783 0.40485 0.43652 0.0
C5822 C 0.73374 0.36806 0.45498 0.0
C5823 C 0.74017 0.39089 0.45951 0.0
H5824 H 0.87366 0.82569 0.59981 0.0
H5825 H 0.83374 0.83193 0.53771 0.0
H5826 H 0.80769 0.8593 0.55663 0.0
H5827 H 0.79717 0.88251 0.59052 0.0
H5828 H 0.84076 0.88122 0.65048 0.0
H5829 H 0.86571 0.8519 0.63233 0.0
C5830 C 0.85947 0.83311 0.59043 0.0
C5831 C 0.85551 0.82657 0.56758 0.0
C5832 C 0.84571 0.85021 0.60085 0.0
C5833 C 0.83687 0.83642 0.55553 0.0
C5834 C 0.82214 0.85225 0.56622 0.0
C5835 C 0.8123 0.8759 0.5994 0.0
C5836 C 0.81729 0.8837 0.62165 0.0
C5837 C 0.82659 0.85948 0.58877 0.0
C5838 C 0.83685 0.87533 0.63322 0.0
C5839 C 0.8509 0.85849 0.62296 0.0
H5840 H 0.37078 0.64126 0.42897 0.0
H5841 H 0.3252 0.62348 0.48518 0.0
H5842 H 0.32598 0.66348 0.4989 0.0
H5843 H 0.34455 0.70111 0.49844 0.0
H5844 H 0.39257 0.71917 0.44472 0.0
H5845 H 0.38568 0.68172 0.4259 0.0
C5846 C 0.361 0.64634 0.44414 0.0
C5847 C 0.34827 0.62961 0.45643 0.0
C5848 C 0.36198 0.6693 0.4522 0.0
C5849 C 0.33538 0.63614 0.47584 0.0
C5850 C 0.33577 0.65894 0.48358 0.0
C5851 C 0.35265 0.69726 0.48207 0.0
C5852 C 0.36894 0.71275 0.47296 0.0
C5853 C 0.34956 0.6754 0.47232 0.0
C5854 C 0.37972 0.70756 0.45189 0.0
C5855 C 0.37613 0.68596 0.44144 0.0
H5856 H 0.59993 0.09376 0.74716 0.0
H5857 H 0.58293 0.14592 0.69706 0.0
H5858 H 0.62184 0.14243 0.68015 0.0
H5859 H 0.66278 0.12867 0.68376 0.0
H5860 H 0.67975 0.0795 0.73691 0.0
H5861 H 0.63904 0.07756 0.74853 0.0
C5862 C 0.60449 0.10373 0.73199 0.0
C5863 C 0.58847 0.11989 0.72323 0.0
C5864 C 0.62725 0.10265 0.72341 0.0
C5865 C 0.59468 0.13294 0.70376 0.0
C5866 C 0.61715 0.13131 0.69445 0.0
C5867 C 0.65741 0.11749 0.69779 0.0
C5868 C 0.67422 0.10448 0.70975 0.0
C5869 C 0.63392 0.11696 0.70479 0.0
C5870 C 0.66715 0.08991 0.72777 0.0
C5871 C 0.64388 0.08876 0.73433 0.0
H5872 H 0.15759 0.32263 0.9534 0.0
H5873 H 0.2041 0.34654 1.00604 0.0
H5874 H 0.21831 0.37698 0.98036 0.0
H5875 H 0.21765 0.39629 0.94304 0.0
H5876 H 0.17007 0.37381 0.89057 0.0
H5877 H 0.15566 0.34339 0.91629 0.0
C5878 C 0.17105 0.33438 0.959 0.0
C5879 C 0.1801 0.3324 0.98129 0.0
C5880 C 0.17855 0.35219 0.94441 0.0
C5881 C 0.1971 0.34785 0.98881 0.0
C5882 C 0.20509 0.36525 0.97422 0.0
C5883 C 0.20373 0.38513 0.93738 0.0
C5884 C 0.1948 0.3874 0.91501 0.0
C5885 C 0.1958 0.36767 0.95207 0.0
C5886 C 0.1772 0.37236 0.90774 0.0
C5887 C 0.16907 0.35493 0.92236 0.0
H5888 H 0.41229 0.4892 0.7069 0.0
H5889 H 0.41637 0.43879 0.65232 0.0
H5890 H 0.44043 0.4138 0.67636 0.0
H5891 H 0.46554 0.40961 0.70989 0.0
H5892 H 0.46424 0.46079 0.76363 0.0
H5893 H 0.43358 0.48204 0.74331 0.0
C5894 C 0.41795 0.47246 0.70058 0.0
C5895 C 0.41277 0.46593 0.67778 0.0
C5896 C 0.43239 0.45844 0.71433 0.0
C5897 C 0.42037 0.44428 0.66969 0.0
C5898 C 0.43413 0.43002 0.68342 0.0
C5899 C 0.45777 0.42486 0.71762 0.0
C5900 C 0.46659 0.43335 0.73846 0.0
C5901 C 0.44097 0.43734 0.70537 0.0
C5902 C 0.45718 0.45364 0.74792 0.0
C5903 C 0.43991 0.46592 0.73611 0.0
H5904 H 0.68147 0.13422 0.11401 0.0
H5905 H 0.72012 0.1158 0.05298 0.0
H5906 H 0.72089 0.15636 0.04104 0.0
H5907 H 0.70461 0.19532 0.04434 0.0
H5908 H 0.6629 0.21365 0.10305 0.0
H5909 H 0.66962 0.17528 0.11994 0.0
C5910 C 0.69009 0.1392 0.09814 0.0
C5911 C 0.70025 0.12207 0.08404 0.0
C5912 C 0.68966 0.16247 0.09092 0.0
C5913 C 0.71166 0.12865 0.06371 0.0
C5914 C 0.71214 0.1518 0.05693 0.0
C5915 C 0.69742 0.19101 0.06107 0.0
C5916 C 0.68253 0.2068 0.07206 0.0
C5917 C 0.70037 0.16863 0.06987 0.0
C5918 C 0.67399 0.20153 0.09409 0.0
C5919 C 0.67763 0.17949 0.10356 0.0
H5920 H 0.60917 0.91185 0.80918 0.0
H5921 H 0.55153 0.95354 0.83241 0.0
H5922 H 0.57228 0.96299 0.86768 0.0
H5923 H 0.60598 0.95832 0.8922 0.0
H5924 H 0.66388 0.91685 0.86962 0.0
H5925 H 0.64345 0.90759 0.83377 0.0
C5926 C 0.60151 0.92358 0.82165 0.0
C5927 C 0.57906 0.93224 0.81827 0.0
C5928 C 0.61319 0.92826 0.84217 0.0
C5929 C 0.56891 0.94683 0.83477 0.0
C5930 C 0.58061 0.952 0.85497 0.0
C5931 C 0.61384 0.94675 0.87968 0.0
C5932 C 0.63601 0.93773 0.88358 0.0
C5933 C 0.60248 0.94237 0.85903 0.0
C5934 C 0.64654 0.92351 0.86697 0.0
C5935 C 0.63507 0.91859 0.84643 0.0
H5936 H 0.89123 0.10954 0.37226 0.0
H5937 H 0.85914 0.11364 0.30541 0.0
H5938 H 0.8971 0.11657 0.28709 0.0
H5939 H 0.93879 0.11912 0.28992 0.0
H5940 H 0.97185 0.11865 0.35645 0.0
H5941 H 0.93415 0.11245 0.37504 0.0
C5942 C 0.89266 0.11088 0.35368 0.0
C5943 C 0.87242 0.11134 0.34015 0.0
C5944 C 0.91465 0.11297 0.34323 0.0
C5945 C 0.87444 0.11342 0.31615 0.0
C5946 C 0.89613 0.11496 0.30567 0.0
C5947 C 0.93798 0.11744 0.30849 0.0
C5948 C 0.95828 0.11933 0.32171 0.0
C5949 C 0.91629 0.11487 0.31903 0.0
C5950 C 0.95659 0.1172 0.34579 0.0
C5951 C 0.93499 0.11378 0.35644 0.0
H5952 H 0.39692 0.17992 0.17741 0.0
H5953 H 0.45569 0.1797 0.13135 0.0
H5954 H 0.48211 0.17942 0.16394 0.0
H5955 H 0.48851 0.1781 0.2049 0.0
H5956 H 0.43046 0.17607 0.25202 0.0
H5957 H 0.4037 0.17947 0.21966 0.0
C5958 C 0.41551 0.17951 0.17471 0.0
C5959 C 0.42451 0.17957 0.15223 0.0
C5960 C 0.43064 0.17952 0.19358 0.0
C5961 C 0.44856 0.17948 0.14865 0.0
C5962 C 0.46361 0.17951 0.1672 0.0
C5963 C 0.47003 0.17867 0.20825 0.0
C5964 C 0.46153 0.17657 0.23082 0.0
C5965 C 0.45485 0.17953 0.18968 0.0
C5966 C 0.43749 0.17764 0.23476 0.0
C5967 C 0.42216 0.17928 0.21626 0.0
H5968 H 0.63475 0.70284 0.95513 0.0
H5969 H 0.59017 0.76282 0.95291 0.0
H5970 H 0.58149 0.75522 0.91255 0.0
H5971 H 0.58963 0.73385 0.87673 0.0
H5972 H 0.63486 0.67458 0.87836 0.0
H5973 H 0.64012 0.67938 0.92002 0.0
C5974 C 0.62279 0.71396 0.94593 0.0
C5975 C 0.61339 0.73356 0.9569 0.0
C5976 C 0.61849 0.70996 0.92243 0.0
C5977 C 0.59784 0.74776 0.94477 0.0
C5978 C 0.593 0.74355 0.92163 0.0
C5979 C 0.60087 0.72226 0.88627 0.0
C5980 C 0.61239 0.70435 0.87465 0.0
C5981 C 0.6039 0.72524 0.91007 0.0
C5982 C 0.62632 0.68885 0.88706 0.0
C5983 C 0.62924 0.69153 0.91081 0.0
H5984 H 0.14883 0.85447 0.6794 0.0
H5985 H 0.09924 0.81216 0.6429 0.0
H5986 H 0.06913 0.82394 0.66928 0.0
H5987 H 0.05686 0.84428 0.70404 0.0
H5988 H 0.107 0.88205 0.74379 0.0
H5989 H 0.13717 0.87267 0.71569 0.0
C5990 C 0.13158 0.84749 0.67726 0.0
C5991 C 0.12666 0.83253 0.65881 0.0
C5992 C 0.11446 0.85292 0.69356 0.0
C5993 C 0.10381 0.82433 0.65626 0.0
C5994 C 0.08647 0.83062 0.67171 0.0
C5995 C 0.07448 0.85017 0.70664 0.0
C5996 C 0.07977 0.86385 0.72574 0.0
C5997 C 0.0917 0.84452 0.69062 0.0
C5998 C 0.10263 0.87129 0.72919 0.0
C5999 C 0.1198 0.86617 0.71302 0.0
H6000 H 0.9154 0.31569 0.44355 0.0
H6001 H 0.96115 0.35134 0.48994 0.0
H6002 H 0.96947 0.38022 0.45985 0.0
H6003 H 0.96208 0.39587 0.42039 0.0
H6004 H 0.91096 0.36272 0.37789 0.0
H6005 H 0.90551 0.33264 0.4069 0.0
C6006 C 0.92766 0.32944 0.44698 0.0
C6007 C 0.93817 0.33108 0.46867 0.0
C6008 C 0.9307 0.34678 0.43054 0.0
C6009 C 0.95327 0.34952 0.47314 0.0
C6010 C 0.95773 0.36614 0.45608 0.0
C6011 C 0.94953 0.38221 0.41782 0.0
C6012 C 0.93681 0.38136 0.39724 0.0
C6013 C 0.94618 0.36516 0.43483 0.0
C6014 C 0.92064 0.3637 0.39381 0.0
C6015 C 0.91779 0.34639 0.41019 0.0
H6016 H 0.48643 0.84851 0.34064 0.0
H6017 H 0.4294 0.8505 0.29295 0.0
H6018 H 0.40227 0.84323 0.32479 0.0
H6019 H 0.39469 0.84139 0.36724 0.0
H6020 H 0.45293 0.84112 0.41362 0.0
H6021 H 0.47958 0.84322 0.38123 0.0
C6022 C 0.46809 0.84709 0.33697 0.0
C6023 C 0.45989 0.85115 0.31453 0.0
C6024 C 0.45273 0.84371 0.35531 0.0
C6025 C 0.43617 0.84816 0.31015 0.0
C6026 C 0.42062 0.8442 0.32842 0.0
C6027 C 0.41322 0.8417 0.37013 0.0
C6028 C 0.42182 0.84107 0.39283 0.0
C6029 C 0.42865 0.84297 0.35125 0.0
C6030 C 0.44587 0.84131 0.39636 0.0
C6031 C 0.46115 0.84253 0.37784 0.0
H6032 H 0.9367 0.64761 0.12018 0.0
H6033 H 0.97543 0.70124 0.1545 0.0
H6034 H 0.96346 0.72905 0.12543 0.0
H6035 H 0.94507 0.73743 0.08823 0.0
H6036 H 0.90991 0.68255 0.05212 0.0
H6037 H 0.91844 0.65584 0.08329 0.0
C6038 C 0.94265 0.66534 0.12133 0.0
C6039 C 0.95714 0.67208 0.13954 0.0
C6040 C 0.93691 0.68097 0.1038 0.0
C6041 C 0.96399 0.69542 0.14099 0.0
C6042 C 0.95749 0.71134 0.1241 0.0
C6043 C 0.93942 0.71959 0.08712 0.0
C6044 C 0.92718 0.71199 0.06769 0.0
C6045 C 0.94452 0.70415 0.10508 0.0
C6046 C 0.91977 0.68884 0.06663 0.0
C6047 C 0.92442 0.67355 0.08459 0.0
H6048 H 0.14296 0.18387 0.87435 0.0
H6049 H 0.09302 0.2281 0.90819 0.0
H6050 H 0.06426 0.21855 0.87898 0.0
H6051 H 0.05411 0.19946 0.84195 0.0
H6052 H 0.10666 0.15916 0.80695 0.0
H6053 H 0.13358 0.16607 0.8379 0.0
C6054 C 0.12587 0.19164 0.87533 0.0
C6055 C 0.12036 0.20679 0.89345 0.0
C6056 C 0.10988 0.18713 0.8579 0.0
C6057 C 0.0978 0.21608 0.89467 0.0
C6058 C 0.08137 0.21089 0.87776 0.0
C6059 C 0.0715 0.19238 0.84113 0.0
C6060 C 0.07837 0.17916 0.82195 0.0
C6061 C 0.08736 0.19677 0.85899 0.0
C6062 C 0.10095 0.16989 0.82118 0.0
C6063 C 0.1164 0.1736 0.83903 0.0
H6064 H 0.57753 0.40151 0.60681 0.0
H6065 H 0.61889 0.37038 0.66042 0.0
H6066 H 0.63127 0.34003 0.63381 0.0
H6067 H 0.63004 0.32252 0.59576 0.0
H6068 H 0.59227 0.35602 0.54097 0.0
H6069 H 0.57817 0.38522 0.56803 0.0
C6070 C 0.58978 0.3885 0.61256 0.0
C6071 C 0.59733 0.38822 0.63554 0.0
C6072 C 0.59697 0.37134 0.5972 0.0
C6073 C 0.61272 0.37085 0.64283 0.0
C6074 C 0.61969 0.35347 0.6277 0.0
C6075 C 0.61861 0.33612 0.58971 0.0
C6076 C 0.6123 0.33722 0.56642 0.0
C6077 C 0.6117 0.35345 0.60496 0.0
C6078 C 0.59743 0.35488 0.55885 0.0
C6079 C 0.58955 0.37167 0.57424 0.0
H6080 H 0.1349 0.42514 0.17577 0.0
H6081 H 0.11512 0.48366 0.21742 0.0
H6082 H 0.15576 0.49491 0.22107 0.0
H6083 H 0.19594 0.49114 0.20827 0.0
H6084 H 0.21592 0.43538 0.16325 0.0
H6085 H 0.17681 0.41904 0.16628 0.0
C6086 C 0.13964 0.44024 0.18574 0.0
C6087 C 0.1221 0.45387 0.196 0.0
C6088 C 0.16314 0.44684 0.18742 0.0
C6089 C 0.12833 0.47322 0.2091 0.0
C6090 C 0.15156 0.47952 0.21132 0.0
C6091 C 0.19192 0.47501 0.19963 0.0
C6092 C 0.20864 0.46488 0.185 0.0
C6093 C 0.16902 0.46684 0.20007 0.0
C6094 C 0.20336 0.44372 0.1744 0.0
C6095 C 0.1808 0.43465 0.17577 0.0
H6096 H 0.35838 0.47591 0.91848 0.0
H6097 H 0.29453 0.45494 0.95136 0.0
H6098 H 0.31187 0.41824 0.96221 0.0
H6099 H 0.34282 0.39016 0.95764 0.0
H6100 H 0.4071 0.4099 0.92515 0.0
H6101 H 0.3921 0.44928 0.91956 0.0
C6102 C 0.34849 0.46355 0.92855 0.0
C6103 C 0.32503 0.46794 0.9336 0.0
C6104 C 0.35847 0.44212 0.93448 0.0
C6105 C 0.31247 0.4518 0.94676 0.0
C6106 C 0.32233 0.43074 0.95295 0.0
C6107 C 0.35376 0.40312 0.94963 0.0
C6108 C 0.37594 0.39704 0.94163 0.0
C6109 C 0.34494 0.42537 0.94605 0.0
C6110 C 0.38976 0.41403 0.93107 0.0
C6111 C 0.38121 0.43651 0.92786 0.0
H6112 H 0.37358 0.64954 0.67174 0.0
H6113 H 0.40747 0.5949 0.70964 0.0
H6114 H 0.37656 0.56822 0.69942 0.0
H6115 H 0.3363 0.56244 0.68567 0.0
H6116 H 0.30005 0.6204 0.65579 0.0
H6117 H 0.33446 0.64412 0.65851 0.0
C6118 C 0.37427 0.63182 0.67786 0.0
C6119 C 0.39262 0.62455 0.69185 0.0
C6120 C 0.35545 0.61727 0.67399 0.0
C6121 C 0.39365 0.60115 0.69872 0.0
C6122 C 0.37572 0.5859 0.69326 0.0
C6123 C 0.33631 0.58006 0.67926 0.0
C6124 C 0.316 0.58951 0.67001 0.0
C6125 C 0.35601 0.59407 0.6818 0.0
C6126 C 0.31562 0.61271 0.66283 0.0
C6127 C 0.33532 0.62627 0.66422 0.0
H6128 H 0.22286 0.67011 0.46286 0.0
H6129 H 0.17827 0.67336 0.40372 0.0
H6130 H 0.17851 0.63116 0.40101 0.0
H6131 H 0.19595 0.59379 0.4118 0.0
H6132 H 0.24464 0.59102 0.46747 0.0
H6133 H 0.23766 0.63193 0.47592 0.0
C6134 C 0.21361 0.66146 0.44913 0.0
C6135 C 0.20133 0.67472 0.4329 0.0
C6136 C 0.21437 0.63716 0.44726 0.0
C6137 C 0.18862 0.66345 0.41575 0.0
C6138 C 0.18862 0.63934 0.4143 0.0
C6139 C 0.20441 0.60202 0.4262 0.0
C6140 C 0.22074 0.58943 0.43893 0.0
C6141 C 0.20193 0.62602 0.42952 0.0
C6142 C 0.2316 0.60024 0.45768 0.0
C6143 C 0.22811 0.62382 0.46209 0.0
H6144 H 0.12994 0.61756 0.35891 0.0
H6145 H 0.10554 0.5469 0.35716 0.0
H6146 H 0.14502 0.53292 0.35982 0.0
H6147 H 0.18571 0.54009 0.36522 0.0
H6148 H 0.21196 0.60991 0.367 0.0
H6149 H 0.1726 0.62469 0.35971 0.0
C6150 C 0.13318 0.5991 0.35881 0.0
C6151 C 0.11432 0.58338 0.35859 0.0
C6152 C 0.15631 0.59095 0.35997 0.0
C6153 C 0.11929 0.55953 0.3583 0.0
C6154 C 0.142 0.55144 0.35951 0.0
C6155 C 0.18313 0.55864 0.36402 0.0
C6156 C 0.20194 0.57384 0.36724 0.0
C6157 C 0.16054 0.56694 0.36087 0.0
C6158 C 0.19792 0.59774 0.36485 0.0
C6159 C 0.17532 0.60618 0.36097 0.0
H6160 H 0.17871 0.38026 0.1127 0.0
H6161 H 0.24807 0.3603 0.09273 0.0
H6162 H 0.26007 0.40056 0.09345 0.0
H6163 H 0.2523 0.44066 0.10308 0.0
H6164 H 0.184 0.46191 0.12482 0.0
H6165 H 0.16989 0.42228 0.11875 0.0
C6166 C 0.19637 0.38474 0.10823 0.0
C6167 C 0.2126 0.36696 0.10323 0.0
C6168 C 0.20331 0.40825 0.10873 0.0
C6169 C 0.23536 0.37332 0.09736 0.0
C6170 C 0.24222 0.39645 0.09754 0.0
C6171 C 0.23418 0.43684 0.10624 0.0
C6172 C 0.21937 0.4543 0.11486 0.0
C6173 C 0.22654 0.41394 0.10373 0.0
C6174 C 0.19585 0.44895 0.11819 0.0
C6175 C 0.18787 0.42614 0.11503 0.0
H6176 H 0.34841 0.50096 0.84372 0.0
H6177 H 0.31794 0.44398 0.88073 0.0
H6178 H 0.35561 0.42456 0.88218 0.0
H6179 H 0.39842 0.42794 0.8801 0.0
H6180 H 0.42878 0.48821 0.84862 0.0
H6181 H 0.39029 0.50296 0.83894 0.0
C6182 C 0.35 0.48406 0.85172 0.0
C6183 C 0.33071 0.47429 0.86277 0.0
C6184 C 0.37196 0.47432 0.85468 0.0
C6185 C 0.33259 0.45195 0.87216 0.0
C6186 C 0.35426 0.44114 0.87355 0.0
C6187 C 0.39642 0.44452 0.87156 0.0
C6188 C 0.41612 0.45761 0.86601 0.0
C6189 C 0.37424 0.45297 0.86635 0.0
C6190 C 0.41367 0.47837 0.85374 0.0
C6191 C 0.39176 0.48658 0.84793 0.0
H6192 H 0.30416 0.67959 0.58432 0.0
H6193 H 0.37272 0.67129 0.6124 0.0
H6194 H 0.36625 0.62985 0.61697 0.0
H6195 H 0.33902 0.59705 0.61845 0.0
H6196 H 0.27001 0.60584 0.59176 0.0
H6197 H 0.27884 0.64562 0.58091 0.0
C6198 C 0.31767 0.66874 0.59149 0.0
C6199 C 0.3387 0.67876 0.59844 0.0
C6200 C 0.31373 0.64489 0.59441 0.0
C6201 C 0.3563 0.66419 0.60696 0.0
C6202 C 0.35262 0.64041 0.6096 0.0
C6203 C 0.32614 0.60747 0.60967 0.0
C6204 C 0.30356 0.59884 0.60689 0.0
C6205 C 0.33113 0.63067 0.60408 0.0
C6206 C 0.28723 0.61241 0.59506 0.0
C6207 C 0.29224 0.63521 0.58885 0.0
H6208 H 0.2215 0.18661 0.40533 0.0
H6209 H 0.18762 0.12949 0.43938 0.0
H6210 H 0.17719 0.1545 0.47161 0.0
H6211 H 0.17557 0.19242 0.48843 0.0
H6212 H 0.20847 0.25056 0.4555 0.0
H6213 H 0.22162 0.22519 0.42413 0.0
C6214 C 0.21176 0.17977 0.41981 0.0
C6215 C 0.20516 0.15635 0.42004 0.0
C6216 C 0.20588 0.19426 0.43833 0.0
C6217 C 0.19288 0.14746 0.43895 0.0
C6218 C 0.18694 0.16171 0.45732 0.0
C6219 C 0.18635 0.19954 0.47501 0.0
C6220 C 0.19138 0.22325 0.4746 0.0
C6221 C 0.19327 0.18508 0.45708 0.0
C6222 C 0.20452 0.23227 0.45629 0.0
C6223 C 0.21187 0.21782 0.43832 0.0
H6224 H 0.6634 0.34718 0.5907 0.0
H6225 H 0.71479 0.34536 0.5369 0.0
H6226 H 0.72911 0.38315 0.54863 0.0
H6227 H 0.72309 0.41939 0.57031 0.0
H6228 H 0.67198 0.42166 0.62447 0.0
H6229 H 0.66122 0.38144 0.61645 0.0
C6230 C 0.67808 0.35476 0.58202 0.0
C6231 C 0.68771 0.34355 0.5627 0.0
C6232 C 0.68585 0.37698 0.58855 0.0
C6233 C 0.70699 0.35361 0.55178 0.0
C6234 C 0.71503 0.3754 0.5583 0.0
C6235 C 0.70978 0.41093 0.58049 0.0
C6236 C 0.69805 0.42355 0.59767 0.0
C6237 C 0.7039 0.38773 0.57595 0.0
C6238 C 0.68111 0.41233 0.61103 0.0
C6239 C 0.67497 0.38932 0.60644 0.0
H6240 H 0.45122 0.93714 0.33731 0.0
H6241 H 0.43025 0.89084 0.28304 0.0
H6242 H 0.3908 0.89261 0.29542 0.0
H6243 H 0.36125 0.90842 0.31972 0.0
H6244 H 0.37933 0.95315 0.37623 0.0
H6245 H 0.42011 0.95157 0.36458 0.0
C6246 C 0.43799 0.92735 0.32847 0.0
C6247 C 0.44389 0.91419 0.30888 0.0
C6248 C 0.41448 0.92847 0.3358 0.0
C6249 C 0.42639 0.90161 0.2977 0.0
C6250 C 0.4036 0.90248 0.30483 0.0
C6251 C 0.37401 0.91752 0.3299 0.0
C6252 C 0.36693 0.93086 0.34876 0.0
C6253 C 0.39735 0.91608 0.32357 0.0
C6254 C 0.384 0.94301 0.36124 0.0
C6255 C 0.40749 0.94193 0.35475 0.0
H6256 H 0.82524 0.66602 0.122 0.0
H6257 H 0.79423 0.63722 0.06116 0.0
H6258 H 0.81561 0.66469 0.03691 0.0
H6259 H 0.8411 0.6984 0.03361 0.0
H6260 H 0.87092 0.72819 0.09477 0.0
H6261 H 0.85148 0.69923 0.11857 0.0
C6262 C 0.82365 0.66557 0.10339 0.0
C6263 C 0.80868 0.64963 0.09314 0.0
C6264 C 0.83525 0.68188 0.08981 0.0
C6265 C 0.80604 0.64929 0.06915 0.0
C6266 C 0.81804 0.66507 0.05541 0.0
C6267 C 0.84346 0.6984 0.05212 0.0
C6268 C 0.85734 0.71531 0.06247 0.0
C6269 C 0.83234 0.6817 0.06562 0.0
C6270 C 0.85998 0.71549 0.0865 0.0
C6271 C 0.8491 0.69882 0.10007 0.0
H6272 H 0.59726 0.59024 0.30132 0.0
H6273 H 0.56103 0.63865 0.34475 0.0
H6274 H 0.58788 0.63168 0.37588 0.0
H6275 H 0.62201 0.61232 0.39067 0.0
H6276 H 0.65581 0.55961 0.34969 0.0
H6277 H 0.6305 0.56854 0.31746 0.0
C6278 C 0.59517 0.59894 0.31774 0.0
C6279 C 0.57691 0.61469 0.32091 0.0
C6280 C 0.61062 0.59443 0.33586 0.0
C6281 C 0.57442 0.62598 0.34214 0.0
C6282 C 0.59003 0.62223 0.35988 0.0
C6283 C 0.62371 0.60239 0.37491 0.0
C6284 C 0.64094 0.58531 0.37287 0.0
C6285 C 0.6082 0.60649 0.35693 0.0
C6286 C 0.64315 0.57328 0.35183 0.0
C6287 C 0.6284 0.57808 0.3334 0.0
H6288 H 0.34163 0.84749 0.99883 0.0
H6289 H 0.39039 0.82648 0.94663 0.0
H6290 H 0.38629 0.86417 0.92754 0.0
H6291 H 0.37433 0.9056 0.9303 0.0
H6292 H 0.32764 0.92663 0.98448 0.0
H6293 H 0.32529 0.88665 0.99827 0.0
C6294 C 0.35078 0.85096 0.98285 0.0
C6295 C 0.36661 0.83448 0.97435 0.0
C6296 C 0.34922 0.87301 0.97281 0.0
C6297 C 0.37808 0.83889 0.95346 0.0
C6298 C 0.37606 0.86064 0.94283 0.0
C6299 C 0.36352 0.90125 0.94498 0.0
C6300 C 0.35146 0.91894 0.95671 0.0
C6301 C 0.36268 0.87825 0.95311 0.0
C6302 C 0.3373 0.91327 0.97552 0.0
C6303 C 0.33595 0.89045 0.98335 0.0
H6304 H 0.41102 0.0443 0.21308 0.0
H6305 H 0.41807 0.08761 0.15304 0.0
H6306 H 0.44227 0.11473 0.17469 0.0
H6307 H 0.46243 0.1248 0.21029 0.0
H6308 H 0.45318 0.08277 0.27101 0.0
H6309 H 0.42858 0.05607 0.24953 0.0
C6310 C 0.418 0.05969 0.2049 0.0
C6311 C 0.41346 0.06411 0.18173 0.0
C6312 C 0.43131 0.07516 0.21746 0.0
C6313 C 0.42186 0.08411 0.17097 0.0
C6314 C 0.43555 0.09947 0.18326 0.0
C6315 C 0.45484 0.10981 0.21868 0.0
C6316 C 0.45947 0.10529 0.24181 0.0
C6317 C 0.44055 0.09499 0.20642 0.0
C6318 C 0.44956 0.08627 0.25304 0.0
C6319 C 0.43568 0.07107 0.24082 0.0
H6320 H 0.15529 0.93895 0.68154 0.0
H6321 H 0.18586 0.93503 0.74914 0.0
H6322 H 0.14744 0.93287 0.76661 0.0
H6323 H 0.10564 0.93052 0.76279 0.0
H6324 H 0.07442 0.93202 0.69535 0.0
H6325 H 0.11261 0.93755 0.67779 0.0
C6326 C 0.1535 0.93789 0.70012 0.0
C6327 C 0.17346 0.93712 0.71403 0.0
C6328 C 0.13127 0.93647 0.71008 0.0
C6329 C 0.17084 0.93539 0.73803 0.0
C6330 C 0.14887 0.93432 0.74805 0.0
C6331 C 0.10699 0.93244 0.74425 0.0
C6332 C 0.08704 0.93086 0.73046 0.0
C6333 C 0.12901 0.93469 0.73425 0.0
C6334 C 0.08939 0.93323 0.70645 0.0
C6335 C 0.11128 0.9362 0.69637 0.0
loop_
_geom_bond_atom_site_label_1
_geom_bond_atom_site_label_2
_geom_bond_distance
_geom_bond_site_symmetry_2
_ccdc_geom_bond_type
Tb0 N29 2.617 . S
Tb0 N35 2.572 . S
Tb0 O44 2.465 . S
Tb0 O45 2.387 . S
Tb0 O47 2.428 . S
Tb0 O48 2.308 . S
Tb0 O52 2.349 . S
Tb0 O55 2.393 . S
Tb0 C64 2.802 . S
C1 N2 1.379 . S
C1 C4 1.416 . S
C1 C8 1.424 . S
N2 C1 1.379 . S
N2 C5 1.318 1_655 S
N2 Tb11 2.617 . S
C3 C5 1.384 1_655 S
C3 C6 1.339 . S
C3 H23 0.930 1_655 S
C4 C1 1.416 . S
C4 C6 1.416 . S
C4 C10 1.448 . S
C5 N2 1.318 1_455 S
C5 C3 1.384 1_455 S
C5 H16 0.954 . S
C6 C3 1.339 . S
C6 C4 1.416 . S
C6 H27 0.930 . S
C7 C8 1.413 . S
C7 C9 1.427 . S
C7 C13 1.416 . S
C8 C1 1.424 . S
C8 C7 1.413 . S
C8 N12 1.361 . S
C9 C7 1.427 . S
C9 C10 1.328 . S
C9 H24 0.929 . S
C10 C4 1.448 . S
C10 C9 1.328 . S
C10 H25 0.930 . S
Tb11 N2 2.617 . S
Tb11 N12 2.572 . S
Tb11 O46 2.349 1_655 S
Tb11 O49 2.393 1_655 S
Tb11 O50 2.465 . S
Tb11 O51 2.384 1_655 S
Tb11 O53 2.428 . S
Tb11 O54 2.308 . S
Tb11 C75 2.802 . S
N12 C8 1.361 . S
N12 Tb11 2.572 . S
N12 C14 1.340 . S
C13 C7 1.416 . S
C13 C15 1.332 . S
C13 H21 0.931 . S
C14 N12 1.340 . S
C14 C15 1.407 . S
C14 H20 0.930 . S
C15 C13 1.332 . S
C15 C14 1.407 . S
C15 H17 0.929 . S
H16 C5 0.954 . S
H17 C15 0.929 . S
H18 C33 0.930 . S
H19 C40 0.929 . S
H20 C14 0.930 . S
H21 C13 0.931 . S
H22 C36 0.930 . S
H23 C3 0.930 1_455 S
H24 C9 0.929 . S
H25 C10 0.930 . S
H26 C31 0.930 . S
H27 C6 0.930 . S
H28 C39 0.931 . S
N29 Tb0 2.617 . S
N29 C30 1.379 . S
N29 C33 1.334 . S
C30 N29 1.379 . S
C30 C32 1.416 . S
C30 C38 1.424 . S
C31 H26 0.930 . S
C31 C33 1.390 . S
C31 C34 1.339 . S
C32 C30 1.416 . S
C32 C34 1.416 . S
C32 C65 1.448 . S
C33 H18 0.930 . S
C33 N29 1.334 . S
C33 C31 1.390 . S
C34 C31 1.339 . S
C34 C32 1.416 . S
C34 H41 0.930 . S
N35 Tb0 2.572 . S
N35 C36 1.340 . S
N35 C38 1.361 . S
C36 H22 0.930 . S
C36 N35 1.340 . S
C36 C40 1.407 . S
C37 C38 1.413 . S
C37 C39 1.416 . S
C37 C66 1.427 . S
C38 C30 1.424 . S
C38 N35 1.361 . S
C38 C37 1.413 . S
C39 H28 0.931 . S
C39 C37 1.416 . S
C39 C40 1.332 . S
C40 H19 0.929 . S
C40 C36 1.407 . S
C40 C39 1.332 . S
H41 C34 0.930 . S
H42 C65 0.930 . S
H43 C66 0.929 . S
O44 Tb0 2.465 . S
O44 C64 1.264 . S
O45 Tb0 2.387 . S
O45 C56 1.264 . S
O46 Tb11 2.349 1_455 S
O46 C56 1.243 . S
O47 Tb0 2.428 . S
O47 C64 1.256 . S
O48 Tb0 2.308 . S
O48 C63 1.266 . S
O49 Tb11 2.393 1_455 S
O49 C63 1.248 . S
O50 Tb11 2.465 . S
O50 C75 1.264 . S
O51 Tb11 2.384 1_455 S
O51 C67 1.275 . S
O52 Tb0 2.349 . S
O52 C67 1.243 . S
O53 Tb11 2.428 . S
O53 C75 1.256 . S
O54 Tb11 2.308 . S
O54 C74 1.266 . S
O55 Tb0 2.393 . S
O55 C74 1.248 1_455 S
C56 O45 1.264 . S
C56 O46 1.243 . S
C57 C60 1.399 . S
C57 C62 1.383 . S
C57 C64 1.496 . S
C58 C59 1.399 . S
C58 C62 1.389 . S
C59 C58 1.399 . S
C59 C61 1.380 . S
C59 H76 0.929 . S
C60 C57 1.399 . S
C60 C61 1.392 . S
C60 H77 0.929 . S
C61 C59 1.380 . S
C61 C60 1.392 . S
C61 H78 0.929 . S
C62 C57 1.383 . S
C62 C58 1.389 . S
C62 H79 0.931 . S
C63 O48 1.266 . S
C63 O49 1.248 . S
C64 Tb0 2.802 . S
C64 O44 1.264 . S
C64 O47 1.256 . S
C64 C57 1.496 . S
C65 C32 1.448 . S
C65 H42 0.930 . S
C65 C66 1.328 . S
C66 C37 1.427 . S
C66 H43 0.929 . S
C66 C65 1.328 . S
C67 O51 1.275 . S
C67 O52 1.243 . S
C68 C71 1.399 . S
C68 C72 1.383 . S
C68 C75 1.496 . S
C69 C70 1.399 . S
C69 C72 1.389 . S
C70 C69 1.399 . S
C70 C73 1.380 . S
C70 H80 0.929 . S
C71 C68 1.399 . S
C71 C73 1.392 . S
C71 H81 0.929 . S
C72 C68 1.383 . S
C72 C69 1.389 . S
C72 H82 0.931 . S
C73 C70 1.380 . S
C73 C71 1.392 . S
C73 H83 0.929 . S
C74 O54 1.266 . S
C74 O55 1.248 1_655 S
C75 Tb11 2.802 . S
C75 O50 1.264 . S
C75 O53 1.256 . S
C75 C68 1.496 . S
H76 C59 0.929 . S
H77 C60 0.929 . S
H78 C61 0.929 . S
H79 C62 0.931 . S
H80 C70 0.929 . S
H81 C71 0.929 . S
H82 C72 0.931 . S
H83 C73 0.929 . S
Tb84 N113 2.617 . S
Tb84 N119 2.572 . S
Tb84 O128 2.465 . S
Tb84 O129 2.387 . S
Tb84 O131 2.428 . S
Tb84 O132 2.308 . S
Tb84 O136 2.349 . S
Tb84 O139 2.393 . S
Tb84 C148 2.802 . S
C85 N86 1.379 . S
C85 C88 1.416 . S
C85 C92 1.424 . S
N86 C85 1.379 . S
N86 C89 1.334 . S
N86 Tb95 2.617 . S
C87 C89 1.390 . S
C87 C90 1.339 . S
C87 H107 0.930 . S
C88 C85 1.416 . S
C88 C90 1.416 . S
C88 C94 1.448 . S
C89 N86 1.334 . S
C89 C87 1.390 . S
C89 H100 0.930 . S
C90 C87 1.339 . S
C90 C88 1.416 . S
C90 H111 0.930 . S
C91 C92 1.413 . S
C91 C93 1.427 . S
C91 C97 1.416 . S
C92 C85 1.424 . S
C92 C91 1.413 . S
C92 N96 1.361 . S
C93 C91 1.427 . S
C93 C94 1.328 . S
C93 H108 0.929 . S
C94 C88 1.448 . S
C94 C93 1.328 . S
C94 H109 0.930 . S
Tb95 N86 2.617 . S
Tb95 N96 2.572 . S
Tb95 O130 2.349 . S
Tb95 O133 2.393 . S
Tb95 O134 2.465 . S
Tb95 O135 2.387 . S
Tb95 O137 2.428 . S
Tb95 O138 2.308 . S
Tb95 C159 2.802 . S
N96 C92 1.361 . S
N96 Tb95 2.572 . S
N96 C98 1.340 . S
C97 C91 1.416 . S
C97 C99 1.332 . S
C97 H105 0.931 . S
C98 N96 1.340 . S
C98 C99 1.407 . S
C98 H104 0.930 . S
C99 C97 1.332 . S
C99 C98 1.407 . S
C99 H101 0.929 . S
H100 C89 0.930 . S
H101 C99 0.929 . S
H102 C117 0.930 . S
H103 C124 0.929 . S
H104 C98 0.930 . S
H105 C97 0.931 . S
H106 C120 0.930 . S
H107 C87 0.930 . S
H108 C93 0.929 . S
H109 C94 0.930 . S
H110 C115 0.930 . S
H111 C90 0.930 . S
H112 C123 0.931 . S
N113 Tb84 2.617 . S
N113 C114 1.379 . S
N113 C117 1.334 . S
C114 N113 1.379 . S
C114 C116 1.416 . S
C114 C122 1.424 . S
C115 H110 0.930 . S
C115 C117 1.390 . S
C115 C118 1.339 . S
C116 C114 1.416 . S
C116 C118 1.416 . S
C116 C149 1.448 . S
C117 H102 0.930 . S
C117 N113 1.334 . S
C117 C115 1.390 . S
C118 C115 1.339 . S
C118 C116 1.416 . S
C118 H125 0.930 . S
N119 Tb84 2.572 . S
N119 C120 1.340 . S
N119 C122 1.361 . S
C120 H106 0.930 . S
C120 N119 1.340 . S
C120 C124 1.407 . S
C121 C122 1.413 . S
C121 C123 1.416 . S
C121 C150 1.427 . S
C122 C114 1.424 . S
C122 N119 1.361 . S
C122 C121 1.413 . S
C123 H112 0.931 . S
C123 C121 1.416 . S
C123 C124 1.332 . S
C124 H103 0.929 . S
C124 C120 1.407 . S
C124 C123 1.332 . S
H125 C118 0.930 . S
H126 C149 0.930 . S
H127 C150 0.929 . S
O128 Tb84 2.465 . S
O128 C148 1.264 . S
O129 Tb84 2.387 . S
O129 C140 1.264 . S
O130 Tb95 2.349 . S
O130 C140 1.243 . S
O131 Tb84 2.428 . S
O131 C148 1.256 . S
O132 Tb84 2.308 . S
O132 C147 1.266 . S
O133 Tb95 2.393 . S
O133 C147 1.248 . S
O134 Tb95 2.465 . S
O134 C159 1.264 . S
O135 Tb95 2.387 . S
O135 C151 1.264 . S
O136 Tb84 2.349 . S
O136 C151 1.243 . S
O137 Tb95 2.428 . S
O137 C159 1.256 . S
O138 Tb95 2.308 . S
O138 C158 1.266 . S
O139 Tb84 2.393 . S
O139 C158 1.248 . S
C140 O129 1.264 . S
C140 O130 1.243 . S
C141 C144 1.399 . S
C141 C146 1.383 . S
C141 C148 1.496 . S
C142 C143 1.399 . S
C142 C146 1.389 . S
C143 C142 1.399 . S
C143 C145 1.380 . S
C143 H160 0.929 . S
C144 C141 1.399 . S
C144 C145 1.392 . S
C144 H161 0.929 . S
C145 C143 1.380 . S
C145 C144 1.392 . S
C145 H162 0.929 . S
C146 C141 1.383 . S
C146 C142 1.389 . S
C146 H163 0.931 . S
C147 O132 1.266 . S
C147 O133 1.248 . S
C148 Tb84 2.802 . S
C148 O128 1.264 . S
C148 O131 1.256 . S
C148 C141 1.496 . S
C149 C116 1.448 . S
C149 H126 0.930 . S
C149 C150 1.328 . S
C150 C121 1.427 . S
C150 H127 0.929 . S
C150 C149 1.328 . S
C151 O135 1.264 . S
C151 O136 1.243 . S
C152 C155 1.399 . S
C152 C156 1.383 . S
C152 C159 1.496 . S
C153 C154 1.399 . S
C153 C156 1.389 . S
C154 C153 1.399 . S
C154 C157 1.380 . S
C154 H164 0.929 . S
C155 C152 1.399 . S
C155 C157 1.392 . S
C155 H165 0.929 . S
C156 C152 1.383 . S
C156 C153 1.389 . S
C156 H166 0.931 . S
C157 C154 1.380 . S
C157 C155 1.392 . S
C157 H167 0.929 . S
C158 O138 1.266 . S
C158 O139 1.248 . S
C159 Tb95 2.802 . S
C159 O134 1.264 . S
C159 O137 1.256 . S
C159 C152 1.496 . S
H160 C143 0.929 . S
H161 C144 0.929 . S
H162 C145 0.929 . S
H163 C146 0.931 . S
H164 C154 0.929 . S
H165 C155 0.929 . S
H166 C156 0.931 . S
H167 C157 0.929 . S
Tb168 N197 2.617 . S
Tb168 N203 2.572 . S
Tb168 O212 2.465 . S
Tb168 O213 2.387 . S
Tb168 O215 2.428 . S
Tb168 O216 2.308 . S
Tb168 O220 2.349 . S
Tb168 O223 2.393 . S
Tb168 C232 2.802 . S
C169 N170 1.379 . S
C169 C172 1.416 . S
C169 C176 1.424 . S
N170 C169 1.379 . S
N170 C173 1.334 . S
N170 Tb179 2.617 . S
C171 C173 1.390 . S
C171 C174 1.339 . S
C171 H191 0.930 . S
C172 C169 1.416 . S
C172 C174 1.416 . S
C172 C178 1.448 . S
C173 N170 1.334 . S
C173 C171 1.390 . S
C173 H184 0.930 . S
C174 C171 1.339 . S
C174 C172 1.416 . S
C174 H195 0.930 . S
C175 C176 1.413 . S
C175 C177 1.427 . S
C175 C181 1.416 . S
C176 C169 1.424 . S
C176 C175 1.413 . S
C176 N180 1.361 . S
C177 C175 1.427 . S
C177 C178 1.328 . S
C177 H192 0.929 . S
C178 C172 1.448 . S
C178 C177 1.328 . S
C178 H193 0.930 . S
Tb179 N170 2.617 . S
Tb179 N180 2.572 . S
Tb179 O214 2.349 . S
Tb179 O217 2.393 . S
Tb179 O218 2.465 . S
Tb179 O219 2.387 . S
Tb179 O221 2.428 . S
Tb179 O222 2.308 . S
Tb179 C243 2.802 . S
N180 C176 1.361 . S
N180 Tb179 2.572 . S
N180 C182 1.340 . S
C181 C175 1.416 . S
C181 C183 1.332 . S
C181 H189 0.931 . S
C182 N180 1.340 . S
C182 C183 1.407 . S
C182 H188 0.930 . S
C183 C181 1.332 . S
C183 C182 1.407 . S
C183 H185 0.929 . S
H184 C173 0.930 . S
H185 C183 0.929 . S
H186 C201 0.930 . S
H187 C208 0.929 . S
H188 C182 0.930 . S
H189 C181 0.931 . S
H190 C204 0.930 . S
H191 C171 0.930 . S
H192 C177 0.929 . S
H193 C178 0.930 . S
H194 C199 0.930 . S
H195 C174 0.930 . S
H196 C207 0.931 . S
N197 Tb168 2.617 . S
N197 C198 1.379 . S
N197 C201 1.334 . S
C198 N197 1.379 . S
C198 C200 1.416 . S
C198 C206 1.424 . S
C199 H194 0.930 . S
C199 C201 1.390 . S
C199 C202 1.339 . S
C200 C198 1.416 . S
C200 C202 1.416 . S
C200 C233 1.448 . S
C201 H186 0.930 . S
C201 N197 1.334 . S
C201 C199 1.390 . S
C202 C199 1.339 . S
C202 C200 1.416 . S
C202 H209 0.930 . S
N203 Tb168 2.572 . S
N203 C204 1.340 . S
N203 C206 1.361 . S
C204 H190 0.930 . S
C204 N203 1.340 . S
C204 C208 1.407 . S
C205 C206 1.413 . S
C205 C207 1.416 . S
C205 C234 1.427 . S
C206 C198 1.424 . S
C206 N203 1.361 . S
C206 C205 1.413 . S
C207 H196 0.931 . S
C207 C205 1.416 . S
C207 C208 1.332 . S
C208 H187 0.929 . S
C208 C204 1.407 . S
C208 C207 1.332 . S
H209 C202 0.930 . S
H210 C233 0.930 . S
H211 C234 0.929 . S
O212 Tb168 2.465 . S
O212 C232 1.264 . S
O213 Tb168 2.387 . S
O213 C224 1.264 . S
O214 Tb179 2.349 . S
O214 C224 1.243 . S
O215 Tb168 2.428 . S
O215 C232 1.256 . S
O216 Tb168 2.308 . S
O216 C231 1.266 . S
O217 Tb179 2.393 . S
O217 C231 1.248 . S
O218 Tb179 2.465 . S
O218 C243 1.264 . S
O219 Tb179 2.387 . S
O219 C235 1.264 . S
O220 Tb168 2.349 . S
O220 C235 1.243 . S
O221 Tb179 2.428 . S
O221 C243 1.256 . S
O222 Tb179 2.308 . S
O222 C242 1.266 . S
O223 Tb168 2.393 . S
O223 C242 1.248 . S
C224 O213 1.264 . S
C224 O214 1.243 . S
C225 C228 1.399 . S
C225 C230 1.383 . S
C225 C232 1.496 . S
C226 C227 1.399 . S
C226 C230 1.389 . S
C227 C226 1.399 . S
C227 C229 1.380 . S
C227 H244 0.929 . S
C228 C225 1.399 . S
C228 C229 1.392 . S
C228 H245 0.929 . S
C229 C227 1.380 . S
C229 C228 1.392 . S
C229 H246 0.929 . S
C230 C225 1.383 . S
C230 C226 1.389 . S
C230 H247 0.931 . S
C231 O216 1.266 . S
C231 O217 1.248 . S
C232 Tb168 2.802 . S
C232 O212 1.264 . S
C232 O215 1.256 . S
C232 C225 1.496 . S
C233 C200 1.448 . S
C233 H210 0.930 . S
C233 C234 1.328 . S
C234 C205 1.427 . S
C234 H211 0.929 . S
C234 C233 1.328 . S
C235 O219 1.264 . S
C235 O220 1.243 . S
C236 C239 1.399 . S
C236 C240 1.383 . S
C236 C243 1.496 . S
C237 C238 1.399 . S
C237 C240 1.389 . S
C238 C237 1.399 . S
C238 C241 1.380 . S
C238 H248 0.929 . S
C239 C236 1.399 . S
C239 C241 1.392 . S
C239 H249 0.929 . S
C240 C236 1.383 . S
C240 C237 1.389 . S
C240 H250 0.931 . S
C241 C238 1.380 . S
C241 C239 1.392 . S
C241 H251 0.929 . S
C242 O222 1.266 . S
C242 O223 1.248 . S
C243 Tb179 2.802 . S
C243 O218 1.264 . S
C243 O221 1.256 . S
C243 C236 1.496 . S
H244 C227 0.929 . S
H245 C228 0.929 . S
H246 C229 0.929 . S
H247 C230 0.931 . S
H248 C238 0.929 . S
H249 C239 0.929 . S
H250 C240 0.931 . S
H251 C241 0.929 . S
Tb252 N281 2.617 . S
Tb252 N287 2.572 1_556 S
Tb252 O296 2.465 . S
Tb252 O297 2.387 1_556 S
Tb252 O299 2.428 . S
Tb252 O300 2.308 1_556 S
Tb252 O304 2.349 . S
Tb252 O307 2.393 . S
Tb252 C316 2.802 . S
C253 N254 1.379 . S
C253 C256 1.416 . S
C253 C260 1.424 . S
N254 C253 1.379 . S
N254 C257 1.334 . S
N254 Tb263 2.617 . S
C255 C257 1.390 . S
C255 C258 1.339 . S
C255 H275 0.930 . S
C256 C253 1.416 . S
C256 C258 1.416 . S
C256 C262 1.448 . S
C257 N254 1.334 . S
C257 C255 1.390 . S
C257 H268 0.930 . S
C258 C255 1.339 . S
C258 C256 1.416 . S
C258 H279 0.930 . S
C259 C260 1.413 . S
C259 C261 1.427 . S
C259 C265 1.416 . S
C260 C253 1.424 . S
C260 C259 1.413 . S
C260 N264 1.361 . S
C261 C259 1.427 . S
C261 C262 1.328 . S
C261 H276 0.929 . S
C262 C256 1.448 . S
C262 C261 1.328 . S
C262 H277 0.930 . S
Tb263 N254 2.617 . S
Tb263 N264 2.572 . S
Tb263 O298 2.349 . S
Tb263 O301 2.393 . S
Tb263 O302 2.465 . S
Tb263 O303 2.387 . S
Tb263 O305 2.428 . S
Tb263 O306 2.308 . S
Tb263 C327 2.802 . S
N264 C260 1.361 . S
N264 Tb263 2.572 . S
N264 C266 1.340 . S
C265 C259 1.416 . S
C265 C267 1.332 . S
C265 H273 0.931 . S
C266 N264 1.340 . S
C266 C267 1.407 . S
C266 H272 0.930 . S
C267 C265 1.332 . S
C267 C266 1.407 . S
C267 H269 0.929 . S
H268 C257 0.930 . S
H269 C267 0.929 . S
H270 C285 0.930 . S
H271 C292 0.929 . S
H272 C266 0.930 . S
H273 C265 0.931 . S
H274 C288 0.930 . S
H275 C255 0.930 . S
H276 C261 0.929 . S
H277 C262 0.930 . S
H278 C283 0.930 . S
H279 C258 0.930 . S
H280 C291 0.931 . S
N281 Tb252 2.617 . S
N281 C282 1.379 . S
N281 C285 1.334 . S
C282 N281 1.379 . S
C282 C284 1.416 . S
C282 C290 1.424 1_556 S
C283 H278 0.930 . S
C283 C285 1.390 . S
C283 C286 1.339 . S
C284 C282 1.416 . S
C284 C286 1.416 . S
C284 C317 1.448 . S
C285 H270 0.930 . S
C285 N281 1.334 . S
C285 C283 1.390 . S
C286 C283 1.339 . S
C286 C284 1.416 . S
C286 H293 0.930 . S
N287 Tb252 2.572 1_554 S
N287 C288 1.340 . S
N287 C290 1.361 . S
C288 H274 0.930 . S
C288 N287 1.340 . S
C288 C292 1.407 . S
C289 C290 1.413 . S
C289 C291 1.416 . S
C289 C318 1.427 . S
C290 C282 1.424 1_554 S
C290 N287 1.361 . S
C290 C289 1.413 . S
C291 H280 0.931 . S
C291 C289 1.416 . S
C291 C292 1.332 . S
C292 H271 0.929 . S
C292 C288 1.407 . S
C292 C291 1.332 . S
H293 C286 0.930 . S
H294 C317 0.930 . S
H295 C318 0.929 . S
O296 Tb252 2.465 . S
O296 C316 1.264 . S
O297 Tb252 2.387 1_554 S
O297 C308 1.264 . S
O298 Tb263 2.349 . S
O298 C308 1.243 . S
O299 Tb252 2.428 . S
O299 C316 1.256 . S
O300 Tb252 2.308 1_554 S
O300 C315 1.266 . S
O301 Tb263 2.393 . S
O301 C315 1.248 . S
O302 Tb263 2.465 . S
O302 C327 1.264 . S
O303 Tb263 2.387 . S
O303 C319 1.264 1_554 S
O304 Tb252 2.349 . S
O304 C319 1.243 . S
O305 Tb263 2.428 . S
O305 C327 1.256 . S
O306 Tb263 2.308 . S
O306 C326 1.304 . S
O307 Tb252 2.393 . S
O307 C326 1.215 1_556 S
C308 O297 1.264 . S
C308 O298 1.243 . S
C309 C312 1.399 . S
C309 C314 1.383 . S
C309 C316 1.496 . S
C310 C311 1.399 . S
C310 C314 1.389 . S
C311 C310 1.399 . S
C311 C313 1.380 . S
C311 H328 0.929 . S
C312 C309 1.399 . S
C312 C313 1.392 . S
C312 H329 0.929 . S
C313 C311 1.380 . S
C313 C312 1.392 . S
C313 H330 0.929 . S
C314 C309 1.383 . S
C314 C310 1.389 . S
C314 H331 0.931 . S
C315 O300 1.266 . S
C315 O301 1.248 . S
C316 Tb252 2.802 . S
C316 O296 1.264 . S
C316 O299 1.256 . S
C316 C309 1.496 . S
C317 C284 1.448 . S
C317 H294 0.930 . S
C317 C318 1.328 1_556 S
C318 C289 1.427 . S
C318 H295 0.929 . S
C318 C317 1.328 1_554 S
C319 O303 1.264 1_556 S
C319 O304 1.243 . S
C320 C323 1.399 . S
C320 C324 1.383 . S
C320 C327 1.496 . S
C321 C322 1.399 . S
C321 C324 1.389 . S
C322 C321 1.399 . S
C322 C325 1.380 . S
C322 H332 0.929 . S
C323 C320 1.399 . S
C323 C325 1.392 . S
C323 H333 0.929 . S
C324 C320 1.383 . S
C324 C321 1.389 . S
C324 H334 0.931 . S
C325 C322 1.380 . S
C325 C323 1.392 . S
C325 H335 0.929 . S
C326 O306 1.304 . S
C326 O307 1.215 1_554 S
C327 Tb263 2.802 . S
C327 O302 1.264 . S
C327 O305 1.256 . S
C327 C320 1.496 . S
H328 C311 0.929 . S
H329 C312 0.929 . S
H330 C313 0.929 . S
H331 C314 0.931 . S
H332 C322 0.929 . S
H333 C323 0.929 . S
H334 C324 0.931 . S
H335 C325 0.929 . S
Tb336 N365 2.617 . S
Tb336 N371 2.572 . S
Tb336 O380 2.465 . S
Tb336 O381 2.387 . S
Tb336 O383 2.428 . S
Tb336 O384 2.308 . S
Tb336 O388 2.349 . S
Tb336 O391 2.393 . S
Tb336 C400 2.802 . S
C337 N338 1.379 . S
C337 C340 1.416 . S
C337 C344 1.424 . S
N338 C337 1.379 . S
N338 C341 1.341 . S
N338 Tb347 2.617 . S
C339 C341 1.392 . S
C339 C342 1.339 . S
C339 H359 0.930 1_655 S
C340 C337 1.416 . S
C340 C342 1.416 . S
C340 C346 1.448 . S
C341 N338 1.341 . S
C341 C339 1.392 . S
C341 H352 0.921 1_655 S
C342 C339 1.339 . S
C342 C340 1.416 . S
C342 H363 0.930 . S
C343 C344 1.413 . S
C343 C345 1.427 . S
C343 C349 1.416 . S
C344 C337 1.424 . S
C344 C343 1.413 . S
C344 N348 1.361 . S
C345 C343 1.427 . S
C345 C346 1.328 . S
C345 H360 0.929 . S
C346 C340 1.448 . S
C346 C345 1.328 . S
C346 H361 0.930 . S
Tb347 N338 2.617 . S
Tb347 N348 2.572 . S
Tb347 O382 2.349 1_655 S
Tb347 O385 2.393 1_655 S
Tb347 O386 2.465 . S
Tb347 O387 2.388 . S
Tb347 O389 2.428 . S
Tb347 O390 2.308 . S
Tb347 C411 2.802 . S
N348 C344 1.361 . S
N348 Tb347 2.572 . S
N348 C350 1.340 . S
C349 C343 1.416 . S
C349 C351 1.332 . S
C349 H357 0.931 . S
C350 N348 1.340 . S
C350 C351 1.407 . S
C350 H356 0.930 . S
C351 C349 1.332 . S
C351 C350 1.407 . S
C351 H353 0.929 . S
H352 C341 0.921 1_455 S
H353 C351 0.929 . S
H354 C369 0.930 . S
H355 C376 0.929 . S
H356 C350 0.930 . S
H357 C349 0.931 . S
H358 C372 0.930 . S
H359 C339 0.930 1_455 S
H360 C345 0.929 . S
H361 C346 0.930 . S
H362 C367 0.930 . S
H363 C342 0.930 . S
H364 C375 0.931 . S
N365 Tb336 2.617 . S
N365 C366 1.379 . S
N365 C369 1.334 . S
C366 N365 1.379 . S
C366 C368 1.416 . S
C366 C374 1.424 . S
C367 H362 0.930 . S
C367 C369 1.390 . S
C367 C370 1.339 . S
C368 C366 1.416 . S
C368 C370 1.416 . S
C368 C401 1.448 . S
C369 H354 0.930 . S
C369 N365 1.334 . S
C369 C367 1.390 . S
C370 C367 1.339 . S
C370 C368 1.416 . S
C370 H377 0.930 . S
N371 Tb336 2.572 . S
N371 C372 1.340 . S
N371 C374 1.361 . S
C372 H358 0.930 . S
C372 N371 1.340 . S
C372 C376 1.407 . S
C373 C374 1.413 . S
C373 C375 1.416 . S
C373 C402 1.427 . S
C374 C366 1.424 . S
C374 N371 1.361 . S
C374 C373 1.413 . S
C375 H364 0.931 . S
C375 C373 1.416 . S
C375 C376 1.332 . S
C376 H355 0.929 . S
C376 C372 1.407 . S
C376 C375 1.332 . S
H377 C370 0.930 . S
H378 C401 0.930 . S
H379 C402 0.929 . S
O380 Tb336 2.465 . S
O380 C400 1.264 . S
O381 Tb336 2.387 . S
O381 C392 1.264 . S
O382 Tb347 2.349 1_455 S
O382 C392 1.243 . S
O383 Tb336 2.428 . S
O383 C400 1.256 . S
O384 Tb336 2.308 . S
O384 C399 1.266 . S
O385 Tb347 2.393 1_455 S
O385 C399 1.248 . S
O386 Tb347 2.465 . S
O386 C411 1.264 . S
O387 Tb347 2.388 . S
O387 C403 1.260 1_655 S
O388 Tb336 2.349 . S
O388 C403 1.243 . S
O389 Tb347 2.428 . S
O389 C411 1.256 . S
O390 Tb347 2.308 . S
O390 C410 1.266 . S
O391 Tb336 2.393 . S
O391 C410 1.248 1_455 S
C392 O381 1.264 . S
C392 O382 1.243 . S
C393 C396 1.399 . S
C393 C398 1.383 . S
C393 C400 1.496 . S
C394 C395 1.399 . S
C394 C398 1.389 . S
C395 C394 1.399 . S
C395 C397 1.380 . S
C395 H412 0.929 . S
C396 C393 1.399 . S
C396 C397 1.392 . S
C396 H413 0.929 . S
C397 C395 1.380 . S
C397 C396 1.392 . S
C397 H414 0.929 . S
C398 C393 1.383 . S
C398 C394 1.389 . S
C398 H415 0.931 . S
C399 O384 1.266 . S
C399 O385 1.248 . S
C400 Tb336 2.802 . S
C400 O380 1.264 . S
C400 O383 1.256 . S
C400 C393 1.496 . S
C401 C368 1.448 . S
C401 H378 0.930 . S
C401 C402 1.328 . S
C402 C373 1.427 . S
C402 H379 0.929 . S
C402 C401 1.328 . S
C403 O387 1.260 1_455 S
C403 O388 1.243 . S
C404 C407 1.399 . S
C404 C408 1.383 . S
C404 C411 1.496 . S
C405 C406 1.399 . S
C405 C408 1.389 . S
C406 C405 1.399 . S
C406 C409 1.380 . S
C406 H416 0.929 . S
C407 C404 1.399 . S
C407 C409 1.392 . S
C407 H417 0.929 . S
C408 C404 1.383 . S
C408 C405 1.389 . S
C408 H418 0.931 . S
C409 C406 1.380 . S
C409 C407 1.392 . S
C409 H419 0.929 . S
C410 O390 1.266 . S
C410 O391 1.248 1_655 S
C411 Tb347 2.802 . S
C411 O386 1.264 . S
C411 O389 1.256 . S
C411 C404 1.496 . S
H412 C395 0.929 . S
H413 C396 0.929 . S
H414 C397 0.929 . S
H415 C398 0.931 . S
H416 C406 0.929 . S
H417 C407 0.929 . S
H418 C408 0.931 . S
H419 C409 0.929 . S
Tb420 N449 2.617 . S
Tb420 N455 2.572 . S
Tb420 O464 2.465 . S
Tb420 O465 2.387 . S
Tb420 O467 2.428 . S
Tb420 O468 2.308 . S
Tb420 O472 2.349 . S
Tb420 O475 2.393 . S
Tb420 C484 2.802 . S
C421 N422 1.379 . S
C421 C424 1.416 . S
C421 C428 1.424 . S
N422 C421 1.379 . S
N422 C425 1.334 . S
N422 Tb431 2.617 . S
C423 C425 1.390 . S
C423 C426 1.339 . S
C423 H443 0.930 . S
C424 C421 1.416 . S
C424 C426 1.416 . S
C424 C430 1.448 . S
C425 N422 1.334 . S
C425 C423 1.390 . S
C425 H436 0.930 . S
C426 C423 1.339 . S
C426 C424 1.416 . S
C426 H447 0.930 . S
C427 C428 1.413 . S
C427 C429 1.427 . S
C427 C433 1.416 . S
C428 C421 1.424 . S
C428 C427 1.413 . S
C428 N432 1.361 . S
C429 C427 1.427 . S
C429 C430 1.328 . S
C429 H444 0.929 . S
C430 C424 1.448 . S
C430 C429 1.328 . S
C430 H445 0.930 . S
Tb431 N422 2.617 . S
Tb431 N432 2.572 . S
Tb431 O466 2.349 . S
Tb431 O469 2.393 . S
Tb431 O470 2.465 . S
Tb431 O471 2.387 . S
Tb431 O473 2.428 . S
Tb431 O474 2.308 . S
Tb431 C495 2.802 . S
N432 C428 1.361 . S
N432 Tb431 2.572 . S
N432 C434 1.340 . S
C433 C427 1.416 . S
C433 C435 1.332 . S
C433 H441 0.931 . S
C434 N432 1.340 . S
C434 C435 1.407 . S
C434 H440 0.930 . S
C435 C433 1.332 . S
C435 C434 1.407 . S
C435 H437 0.929 . S
H436 C425 0.930 . S
H437 C435 0.929 . S
H438 C453 0.930 . S
H439 C460 0.929 . S
H440 C434 0.930 . S
H441 C433 0.931 . S
H442 C456 0.930 . S
H443 C423 0.930 . S
H444 C429 0.929 . S
H445 C430 0.930 . S
H446 C451 0.930 . S
H447 C426 0.930 . S
H448 C459 0.931 . S
N449 Tb420 2.617 . S
N449 C450 1.379 . S
N449 C453 1.334 . S
C450 N449 1.379 . S
C450 C452 1.416 . S
C450 C458 1.424 . S
C451 H446 0.930 . S
C451 C453 1.390 . S
C451 C454 1.339 . S
C452 C450 1.416 . S
C452 C454 1.416 . S
C452 C485 1.448 . S
C453 H438 0.930 . S
C453 N449 1.334 . S
C453 C451 1.390 . S
C454 C451 1.339 . S
C454 C452 1.416 . S
C454 H461 0.930 . S
N455 Tb420 2.572 . S
N455 C456 1.340 . S
N455 C458 1.361 . S
C456 H442 0.930 . S
C456 N455 1.340 . S
C456 C460 1.407 . S
C457 C458 1.413 . S
C457 C459 1.416 . S
C457 C486 1.427 . S
C458 C450 1.424 . S
C458 N455 1.361 . S
C458 C457 1.413 . S
C459 H448 0.931 . S
C459 C457 1.416 . S
C459 C460 1.332 . S
C460 H439 0.929 . S
C460 C456 1.407 . S
C460 C459 1.332 . S
H461 C454 0.930 . S
H462 C485 0.930 . S
H463 C486 0.929 . S
O464 Tb420 2.465 . S
O464 C484 1.264 . S
O465 Tb420 2.387 . S
O465 C476 1.264 . S
O466 Tb431 2.349 . S
O466 C476 1.243 . S
O467 Tb420 2.428 . S
O467 C484 1.256 . S
O468 Tb420 2.308 . S
O468 C483 1.266 . S
O469 Tb431 2.393 . S
O469 C483 1.248 . S
O470 Tb431 2.465 . S
O470 C495 1.264 . S
O471 Tb431 2.387 . S
O471 C487 1.264 . S
O472 Tb420 2.349 . S
O472 C487 1.243 . S
O473 Tb431 2.428 . S
O473 C495 1.256 . S
O474 Tb431 2.308 . S
O474 C494 1.266 . S
O475 Tb420 2.393 . S
O475 C494 1.248 . S
C476 O465 1.264 . S
C476 O466 1.243 . S
C477 C480 1.399 . S
C477 C482 1.383 . S
C477 C484 1.496 . S
C478 C479 1.399 . S
C478 C482 1.389 . S
C479 C478 1.399 . S
C479 C481 1.380 . S
C479 H496 0.929 . S
C480 C477 1.399 . S
C480 C481 1.392 . S
C480 H497 0.929 . S
C481 C479 1.380 . S
C481 C480 1.392 . S
C481 H498 0.929 . S
C482 C477 1.383 . S
C482 C478 1.389 . S
C482 H499 0.931 . S
C483 O468 1.266 . S
C483 O469 1.248 . S
C484 Tb420 2.802 . S
C484 O464 1.264 . S
C484 O467 1.256 . S
C484 C477 1.496 . S
C485 C452 1.448 . S
C485 H462 0.930 . S
C485 C486 1.328 . S
C486 C457 1.427 . S
C486 H463 0.929 . S
C486 C485 1.328 . S
C487 O471 1.264 . S
C487 O472 1.243 . S
C488 C491 1.399 . S
C488 C492 1.383 . S
C488 C495 1.496 . S
C489 C490 1.399 . S
C489 C492 1.389 . S
C490 C489 1.399 . S
C490 C493 1.380 . S
C490 H500 0.929 . S
C491 C488 1.399 . S
C491 C493 1.392 . S
C491 H501 0.929 . S
C492 C488 1.383 . S
C492 C489 1.389 . S
C492 H502 0.931 . S
C493 C490 1.380 . S
C493 C491 1.392 . S
C493 H503 0.929 . S
C494 O474 1.266 . S
C494 O475 1.248 . S
C495 Tb431 2.802 . S
C495 O470 1.264 . S
C495 O473 1.256 . S
C495 C488 1.496 . S
H496 C479 0.929 . S
H497 C480 0.929 . S
H498 C481 0.929 . S
H499 C482 0.931 . S
H500 C490 0.929 . S
H501 C491 0.929 . S
H502 C492 0.931 . S
H503 C493 0.929 . S
Tb504 N533 2.617 . S
Tb504 N539 2.572 . S
Tb504 O548 2.465 . S
Tb504 O549 2.387 . S
Tb504 O551 2.428 . S
Tb504 O552 2.308 . S
Tb504 O556 2.349 . S
Tb504 O559 2.393 . S
Tb504 C568 2.802 . S
C505 N506 1.379 . S
C505 C508 1.416 . S
C505 C512 1.424 . S
N506 C505 1.379 . S
N506 C509 1.334 . S
N506 Tb515 2.617 . S
C507 C509 1.390 . S
C507 C510 1.339 . S
C507 H527 0.930 . S
C508 C505 1.416 . S
C508 C510 1.416 . S
C508 C514 1.448 . S
C509 N506 1.334 . S
C509 C507 1.390 . S
C509 H520 0.930 . S
C510 C507 1.339 . S
C510 C508 1.416 . S
C510 H531 0.930 . S
C511 C512 1.413 . S
C511 C513 1.427 . S
C511 C517 1.416 . S
C512 C505 1.424 . S
C512 C511 1.413 . S
C512 N516 1.361 . S
C513 C511 1.427 . S
C513 C514 1.328 . S
C513 H528 0.929 . S
C514 C508 1.448 . S
C514 C513 1.328 . S
C514 H529 0.930 . S
Tb515 N506 2.617 . S
Tb515 N516 2.572 . S
Tb515 O550 2.349 . S
Tb515 O553 2.393 . S
Tb515 O554 2.465 . S
Tb515 O555 2.387 . S
Tb515 O557 2.428 . S
Tb515 O558 2.308 . S
Tb515 C579 2.802 . S
N516 C512 1.361 . S
N516 Tb515 2.572 . S
N516 C518 1.340 . S
C517 C511 1.416 . S
C517 C519 1.332 . S
C517 H525 0.931 . S
C518 N516 1.340 . S
C518 C519 1.407 . S
C518 H524 0.930 . S
C519 C517 1.332 . S
C519 C518 1.407 . S
C519 H521 0.929 . S
H520 C509 0.930 . S
H521 C519 0.929 . S
H522 C537 0.930 . S
H523 C544 0.929 . S
H524 C518 0.930 . S
H525 C517 0.931 . S
H526 C540 0.930 . S
H527 C507 0.930 . S
H528 C513 0.929 . S
H529 C514 0.930 . S
H530 C535 0.930 . S
H531 C510 0.930 . S
H532 C543 0.931 . S
N533 Tb504 2.617 . S
N533 C534 1.379 . S
N533 C537 1.334 . S
C534 N533 1.379 . S
C534 C536 1.416 . S
C534 C542 1.424 . S
C535 H530 0.930 . S
C535 C537 1.390 . S
C535 C538 1.339 . S
C536 C534 1.416 . S
C536 C538 1.416 . S
C536 C569 1.448 . S
C537 H522 0.930 . S
C537 N533 1.334 . S
C537 C535 1.390 . S
C538 C535 1.339 . S
C538 C536 1.416 . S
C538 H545 0.930 . S
N539 Tb504 2.572 . S
N539 C540 1.340 . S
N539 C542 1.361 . S
C540 H526 0.930 . S
C540 N539 1.340 . S
C540 C544 1.407 . S
C541 C542 1.413 . S
C541 C543 1.416 . S
C541 C570 1.427 . S
C542 C534 1.424 . S
C542 N539 1.361 . S
C542 C541 1.413 . S
C543 H532 0.931 . S
C543 C541 1.416 . S
C543 C544 1.332 . S
C544 H523 0.929 . S
C544 C540 1.407 . S
C544 C543 1.332 . S
H545 C538 0.930 . S
H546 C569 0.930 . S
H547 C570 0.929 . S
O548 Tb504 2.465 . S
O548 C568 1.264 . S
O549 Tb504 2.387 . S
O549 C560 1.264 . S
O550 Tb515 2.349 . S
O550 C560 1.243 . S
O551 Tb504 2.428 . S
O551 C568 1.256 . S
O552 Tb504 2.308 . S
O552 C567 1.266 . S
O553 Tb515 2.393 . S
O553 C567 1.248 . S
O554 Tb515 2.465 . S
O554 C579 1.264 . S
O555 Tb515 2.387 . S
O555 C571 1.264 . S
O556 Tb504 2.349 . S
O556 C571 1.243 . S
O557 Tb515 2.428 . S
O557 C579 1.256 . S
O558 Tb515 2.308 . S
O558 C578 1.266 . S
O559 Tb504 2.393 . S
O559 C578 1.248 . S
C560 O549 1.264 . S
C560 O550 1.243 . S
C561 C564 1.399 . S
C561 C566 1.383 . S
C561 C568 1.496 . S
C562 C563 1.399 . S
C562 C566 1.389 . S
C563 C562 1.399 . S
C563 C565 1.380 . S
C563 H580 0.929 . S
C564 C561 1.399 . S
C564 C565 1.392 . S
C564 H581 0.929 . S
C565 C563 1.380 . S
C565 C564 1.392 . S
C565 H582 0.929 . S
C566 C561 1.383 . S
C566 C562 1.389 . S
C566 H583 0.931 . S
C567 O552 1.266 . S
C567 O553 1.248 . S
C568 Tb504 2.802 . S
C568 O548 1.264 . S
C568 O551 1.256 . S
C568 C561 1.496 . S
C569 C536 1.448 . S
C569 H546 0.930 . S
C569 C570 1.328 . S
C570 C541 1.427 . S
C570 H547 0.929 . S
C570 C569 1.328 . S
C571 O555 1.264 . S
C571 O556 1.243 . S
C572 C575 1.399 . S
C572 C576 1.383 . S
C572 C579 1.496 . S
C573 C574 1.399 . S
C573 C576 1.389 . S
C574 C573 1.399 . S
C574 C577 1.380 . S
C574 H584 0.929 . S
C575 C572 1.399 . S
C575 C577 1.392 . S
C575 H585 0.929 . S
C576 C572 1.383 . S
C576 C573 1.389 . S
C576 H586 0.931 . S
C577 C574 1.380 . S
C577 C575 1.392 . S
C577 H587 0.929 . S
C578 O558 1.266 . S
C578 O559 1.248 . S
C579 Tb515 2.802 . S
C579 O554 1.264 . S
C579 O557 1.256 . S
C579 C572 1.496 . S
H580 C563 0.929 . S
H581 C564 0.929 . S
H582 C565 0.929 . S
H583 C566 0.931 . S
H584 C574 0.929 . S
H585 C575 0.929 . S
H586 C576 0.931 . S
H587 C577 0.929 . S
Tb588 N617 2.617 . S
Tb588 N623 2.572 1_554 S
Tb588 O632 2.465 . S
Tb588 O633 2.387 1_554 S
Tb588 O635 2.428 . S
Tb588 O636 2.308 1_554 S
Tb588 O640 2.349 . S
Tb588 O643 2.393 . S
Tb588 C652 2.802 . S
C589 N590 1.379 . S
C589 C592 1.416 . S
C589 C596 1.424 . S
N590 C589 1.379 . S
N590 C593 1.334 . S
N590 Tb599 2.617 . S
C591 C593 1.390 . S
C591 C594 1.339 . S
C591 H611 0.930 . S
C592 C589 1.416 . S
C592 C594 1.416 . S
C592 C598 1.448 . S
C593 N590 1.334 . S
C593 C591 1.390 . S
C593 H604 0.930 . S
C594 C591 1.339 . S
C594 C592 1.416 . S
C594 H615 0.930 . S
C595 C596 1.413 . S
C595 C597 1.427 . S
C595 C601 1.416 . S
C596 C589 1.424 . S
C596 C595 1.413 . S
C596 N600 1.361 . S
C597 C595 1.427 . S
C597 C598 1.328 . S
C597 H612 0.929 . S
C598 C592 1.448 . S
C598 C597 1.328 . S
C598 H613 0.930 . S
Tb599 N590 2.617 . S
Tb599 N600 2.572 . S
Tb599 O634 2.349 . S
Tb599 O637 2.393 . S
Tb599 O638 2.465 . S
Tb599 O639 2.387 . S
Tb599 O641 2.428 . S
Tb599 O642 2.308 . S
Tb599 C663 2.802 . S
N600 C596 1.361 . S
N600 Tb599 2.572 . S
N600 C602 1.340 . S
C601 C595 1.416 . S
C601 C603 1.332 . S
C601 H609 0.931 . S
C602 N600 1.340 . S
C602 C603 1.407 . S
C602 H608 0.930 . S
C603 C601 1.332 . S
C603 C602 1.407 . S
C603 H605 0.929 . S
H604 C593 0.930 . S
H605 C603 0.929 . S
H606 C621 0.930 . S
H607 C628 0.929 . S
H608 C602 0.930 . S
H609 C601 0.931 . S
H610 C624 0.930 . S
H611 C591 0.930 . S
H612 C597 0.929 . S
H613 C598 0.930 . S
H614 C619 0.930 . S
H615 C594 0.930 . S
H616 C627 0.931 . S
N617 Tb588 2.617 . S
N617 C618 1.379 . S
N617 C621 1.334 . S
C618 N617 1.379 . S
C618 C620 1.416 . S
C618 C626 1.424 1_554 S
C619 H614 0.930 . S
C619 C621 1.390 . S
C619 C622 1.339 . S
C620 C618 1.416 . S
C620 C622 1.416 . S
C620 C653 1.448 . S
C621 H606 0.930 . S
C621 N617 1.334 . S
C621 C619 1.390 . S
C622 C619 1.339 . S
C622 C620 1.416 . S
C622 H629 0.930 . S
N623 Tb588 2.572 1_556 S
N623 C624 1.340 . S
N623 C626 1.361 . S
C624 H610 0.930 . S
C624 N623 1.340 . S
C624 C628 1.407 . S
C625 C626 1.413 . S
C625 C627 1.416 . S
C625 C654 1.427 . S
C626 C618 1.424 1_556 S
C626 N623 1.361 . S
C626 C625 1.413 . S
C627 H616 0.931 . S
C627 C625 1.416 . S
C627 C628 1.332 . S
C628 H607 0.929 . S
C628 C624 1.407 . S
C628 C627 1.332 . S
H629 C622 0.930 . S
H630 C653 0.930 . S
H631 C654 0.929 . S
O632 Tb588 2.465 . S
O632 C652 1.264 . S
O633 Tb588 2.387 1_556 S
O633 C644 1.264 . S
O634 Tb599 2.349 . S
O634 C644 1.243 . S
O635 Tb588 2.428 . S
O635 C652 1.256 . S
O636 Tb588 2.308 1_556 S
O636 C651 1.266 . S
O637 Tb599 2.393 . S
O637 C651 1.248 . S
O638 Tb599 2.465 . S
O638 C663 1.264 . S
O639 Tb599 2.387 . S
O639 C655 1.264 1_556 S
O640 Tb588 2.349 . S
O640 C655 1.243 . S
O641 Tb599 2.428 . S
O641 C663 1.256 . S
O642 Tb599 2.308 . S
O642 C662 1.258 1_556 S
O643 Tb588 2.393 . S
O643 C662 1.255 . S
C644 O633 1.264 . S
C644 O634 1.243 . S
C645 C648 1.399 . S
C645 C650 1.383 . S
C645 C652 1.496 . S
C646 C647 1.399 . S
C646 C650 1.389 . S
C647 C646 1.399 . S
C647 C649 1.380 . S
C647 H664 0.929 . S
C648 C645 1.399 . S
C648 C649 1.392 . S
C648 H665 0.929 . S
C649 C647 1.380 . S
C649 C648 1.392 . S
C649 H666 0.929 . S
C650 C645 1.383 . S
C650 C646 1.389 . S
C650 H667 0.931 . S
C651 O636 1.266 . S
C651 O637 1.248 . S
C652 Tb588 2.802 . S
C652 O632 1.264 . S
C652 O635 1.256 . S
C652 C645 1.496 . S
C653 C620 1.448 . S
C653 H630 0.930 . S
C653 C654 1.328 1_554 S
C654 C625 1.427 . S
C654 H631 0.929 . S
C654 C653 1.328 1_556 S
C655 O639 1.264 1_554 S
C655 O640 1.243 . S
C656 C659 1.399 . S
C656 C660 1.383 . S
C656 C663 1.496 . S
C657 C658 1.399 . S
C657 C660 1.389 . S
C658 C657 1.399 . S
C658 C661 1.380 . S
C658 H668 0.929 . S
C659 C656 1.399 . S
C659 C661 1.392 . S
C659 H669 0.929 . S
C660 C656 1.383 . S
C660 C657 1.389 . S
C660 H670 0.931 . S
C661 C658 1.380 . S
C661 C659 1.392 . S
C661 H671 0.929 . S
C662 O642 1.258 1_554 S
C662 O643 1.255 . S
C663 Tb599 2.802 . S
C663 O638 1.264 . S
C663 O641 1.256 . S
C663 C656 1.496 . S
H664 C647 0.929 . S
H665 C648 0.929 . S
H666 C649 0.929 . S
H667 C650 0.931 . S
H668 C658 0.929 . S
H669 C659 0.929 . S
H670 C660 0.931 . S
H671 C661 0.929 . S
Tb672 N701 2.617 . S
Tb672 N707 2.572 1_565 S
Tb672 O716 2.465 . S
Tb672 O717 2.387 1_565 S
Tb672 O719 2.428 . S
Tb672 O720 2.308 1_565 S
Tb672 O724 2.349 . S
Tb672 O727 2.393 . S
Tb672 C736 2.802 . S
C673 N674 1.379 . S
C673 C676 1.416 . S
C673 C680 1.424 . S
N674 C673 1.379 . S
N674 C677 1.334 . S
N674 Tb683 2.617 . S
C675 C677 1.390 . S
C675 C678 1.339 . S
C675 H695 0.930 . S
C676 C673 1.416 . S
C676 C678 1.416 . S
C676 C682 1.448 . S
C677 N674 1.334 . S
C677 C675 1.390 . S
C677 H688 0.930 . S
C678 C675 1.339 . S
C678 C676 1.416 . S
C678 H699 0.930 . S
C679 C680 1.413 . S
C679 C681 1.427 . S
C679 C685 1.416 . S
C680 C673 1.424 . S
C680 C679 1.413 . S
C680 N684 1.361 . S
C681 C679 1.427 . S
C681 C682 1.328 . S
C681 H696 0.929 . S
C682 C676 1.448 . S
C682 C681 1.328 . S
C682 H697 0.930 . S
Tb683 N674 2.617 . S
Tb683 N684 2.572 . S
Tb683 O718 2.349 . S
Tb683 O721 2.393 . S
Tb683 O722 2.465 . S
Tb683 O723 2.387 . S
Tb683 O725 2.428 . S
Tb683 O726 2.308 . S
Tb683 C747 2.802 . S
N684 C680 1.361 . S
N684 Tb683 2.572 . S
N684 C686 1.340 . S
C685 C679 1.416 . S
C685 C687 1.332 . S
C685 H693 0.931 . S
C686 N684 1.340 . S
C686 C687 1.407 . S
C686 H692 0.930 . S
C687 C685 1.332 . S
C687 C686 1.407 . S
C687 H689 0.929 . S
H688 C677 0.930 . S
H689 C687 0.929 . S
H690 C705 0.930 . S
H691 C712 0.929 . S
H692 C686 0.930 . S
H693 C685 0.931 . S
H694 C708 0.930 . S
H695 C675 0.930 . S
H696 C681 0.929 . S
H697 C682 0.930 . S
H698 C703 0.930 . S
H699 C678 0.930 . S
H700 C711 0.931 . S
N701 Tb672 2.617 . S
N701 C702 1.379 . S
N701 C705 1.334 . S
C702 N701 1.379 . S
C702 C704 1.416 . S
C702 C710 1.399 1_565 S
C703 H698 0.930 . S
C703 C705 1.390 . S
C703 C706 1.339 . S
C704 C702 1.416 . S
C704 C706 1.416 . S
C704 C737 1.448 . S
C705 H690 0.930 . S
C705 N701 1.334 . S
C705 C703 1.390 . S
C706 C703 1.339 . S
C706 C704 1.416 . S
C706 H713 0.930 . S
N707 Tb672 2.572 1_545 S
N707 C708 1.340 . S
N707 C710 1.370 . S
C708 H694 0.930 . S
C708 N707 1.340 . S
C708 C712 1.407 . S
C709 C710 1.429 . S
C709 C711 1.416 . S
C709 C738 1.427 . S
C710 C702 1.399 1_545 S
C710 N707 1.370 . S
C710 C709 1.429 . S
C711 H700 0.931 . S
C711 C709 1.416 . S
C711 C712 1.332 . S
C712 H691 0.929 . S
C712 C708 1.407 . S
C712 C711 1.332 . S
H713 C706 0.930 . S
H714 C737 0.930 . S
H715 C738 0.929 . S
O716 Tb672 2.465 . S
O716 C736 1.264 . S
O717 Tb672 2.387 1_545 S
O717 C728 1.264 . S
O718 Tb683 2.349 . S
O718 C728 1.243 . S
O719 Tb672 2.428 . S
O719 C736 1.256 . S
O720 Tb672 2.308 1_545 S
O720 C735 1.266 . S
O721 Tb683 2.393 . S
O721 C735 1.248 . S
O722 Tb683 2.465 . S
O722 C747 1.264 . S
O723 Tb683 2.387 . S
O723 C739 1.264 1_545 S
O724 Tb672 2.349 . S
O724 C739 1.243 . S
O725 Tb683 2.428 . S
O725 C747 1.256 . S
O726 Tb683 2.308 . S
O726 C746 1.242 1_545 S
O727 Tb672 2.393 . S
O727 C746 1.271 . S
C728 O717 1.264 . S
C728 O718 1.243 . S
C729 C732 1.399 . S
C729 C734 1.383 . S
C729 C736 1.496 . S
C730 C731 1.399 . S
C730 C734 1.389 . S
C731 C730 1.399 . S
C731 C733 1.380 . S
C731 H748 0.929 . S
C732 C729 1.399 . S
C732 C733 1.392 . S
C732 H749 0.929 . S
C733 C731 1.380 . S
C733 C732 1.392 . S
C733 H750 0.929 . S
C734 C729 1.383 . S
C734 C730 1.389 . S
C734 H751 0.931 . S
C735 O720 1.266 . S
C735 O721 1.248 . S
C736 Tb672 2.802 . S
C736 O716 1.264 . S
C736 O719 1.256 . S
C736 C729 1.496 . S
C737 C704 1.448 . S
C737 H714 0.930 . S
C737 C738 1.328 1_565 S
C738 C709 1.427 . S
C738 H715 0.929 . S
C738 C737 1.328 1_545 S
C739 O723 1.264 1_565 S
C739 O724 1.243 . S
C740 C743 1.399 . S
C740 C744 1.383 . S
C740 C747 1.496 . S
C741 C742 1.399 . S
C741 C744 1.389 . S
C742 C741 1.399 . S
C742 C745 1.380 . S
C742 H752 0.929 . S
C743 C740 1.399 . S
C743 C745 1.392 . S
C743 H753 0.929 . S
C744 C740 1.383 . S
C744 C741 1.389 . S
C744 H754 0.931 . S
C745 C742 1.380 . S
C745 C743 1.392 . S
C745 H755 0.929 . S
C746 O726 1.242 1_565 S
C746 O727 1.271 . S
C747 Tb683 2.802 . S
C747 O722 1.264 . S
C747 O725 1.256 . S
C747 C740 1.496 . S
H748 C731 0.929 . S
H749 C732 0.929 . S
H750 C733 0.929 . S
H751 C734 0.931 . S
H752 C742 0.929 . S
H753 C743 0.929 . S
H754 C744 0.931 . S
H755 C745 0.929 . S
Tb756 N785 2.617 . S
Tb756 N791 2.572 1_565 S
Tb756 O800 2.465 . S
Tb756 O801 2.387 1_565 S
Tb756 O803 2.428 . S
Tb756 O804 2.308 1_565 S
Tb756 O808 2.349 . S
Tb756 O811 2.393 . S
Tb756 C820 2.802 . S
C757 N758 1.379 . S
C757 C760 1.416 . S
C757 C764 1.424 . S
N758 C757 1.379 . S
N758 C761 1.334 . S
N758 Tb767 2.617 . S
C759 C761 1.390 . S
C759 C762 1.339 . S
C759 H779 0.930 . S
C760 C757 1.416 . S
C760 C762 1.416 . S
C760 C766 1.448 . S
C761 N758 1.334 . S
C761 C759 1.390 . S
C761 H772 0.930 . S
C762 C759 1.339 . S
C762 C760 1.416 . S
C762 H783 0.930 . S
C763 C764 1.413 . S
C763 C765 1.427 . S
C763 C769 1.416 . S
C764 C757 1.424 . S
C764 C763 1.413 . S
C764 N768 1.361 . S
C765 C763 1.427 . S
C765 C766 1.328 . S
C765 H780 0.929 . S
C766 C760 1.448 . S
C766 C765 1.328 . S
C766 H781 0.930 . S
Tb767 N758 2.617 . S
Tb767 N768 2.572 . S
Tb767 O802 2.349 . S
Tb767 O805 2.393 . S
Tb767 O806 2.465 . S
Tb767 O807 2.387 . S
Tb767 O809 2.428 . S
Tb767 O810 2.308 . S
Tb767 C831 2.802 . S
N768 C764 1.361 . S
N768 Tb767 2.572 . S
N768 C770 1.340 . S
C769 C763 1.416 . S
C769 C771 1.332 . S
C769 H777 0.931 . S
C770 N768 1.340 . S
C770 C771 1.407 . S
C770 H776 0.930 . S
C771 C769 1.332 . S
C771 C770 1.407 . S
C771 H773 0.929 . S
H772 C761 0.930 . S
H773 C771 0.929 . S
H774 C789 0.930 . S
H775 C796 0.929 . S
H776 C770 0.930 . S
H777 C769 0.931 . S
H778 C792 0.930 . S
H779 C759 0.930 . S
H780 C765 0.929 . S
H781 C766 0.930 . S
H782 C787 0.930 . S
H783 C762 0.930 . S
H784 C795 0.931 . S
N785 Tb756 2.617 . S
N785 C786 1.379 . S
N785 C789 1.334 . S
C786 N785 1.379 . S
C786 C788 1.416 . S
C786 C794 1.424 1_565 S
C787 H782 0.930 . S
C787 C789 1.390 . S
C787 C790 1.339 . S
C788 C786 1.416 . S
C788 C790 1.416 . S
C788 C821 1.448 . S
C789 H774 0.930 . S
C789 N785 1.334 . S
C789 C787 1.390 . S
C790 C787 1.339 . S
C790 C788 1.416 . S
C790 H797 0.930 . S
N791 Tb756 2.572 1_545 S
N791 C792 1.340 . S
N791 C794 1.361 . S
C792 H778 0.930 . S
C792 N791 1.340 . S
C792 C796 1.407 . S
C793 C794 1.413 . S
C793 C795 1.416 . S
C793 C822 1.427 . S
C794 C786 1.424 1_545 S
C794 N791 1.361 . S
C794 C793 1.413 . S
C795 H784 0.931 . S
C795 C793 1.416 . S
C795 C796 1.332 . S
C796 H775 0.929 . S
C796 C792 1.407 . S
C796 C795 1.332 . S
H797 C790 0.930 . S
H798 C821 0.930 . S
H799 C822 0.929 . S
O800 Tb756 2.465 . S
O800 C820 1.264 . S
O801 Tb756 2.387 1_545 S
O801 C812 1.264 . S
O802 Tb767 2.349 . S
O802 C812 1.243 . S
O803 Tb756 2.428 . S
O803 C820 1.256 . S
O804 Tb756 2.308 1_545 S
O804 C819 1.266 . S
O805 Tb767 2.393 . S
O805 C819 1.248 . S
O806 Tb767 2.465 . S
O806 C831 1.264 . S
O807 Tb767 2.387 . S
O807 C823 1.264 1_545 S
O808 Tb756 2.349 . S
O808 C823 1.243 . S
O809 Tb767 2.428 . S
O809 C831 1.256 . S
O810 Tb767 2.308 . S
O810 C830 1.256 1_545 S
O811 Tb756 2.393 . S
O811 C830 1.257 . S
C812 O801 1.264 . S
C812 O802 1.243 . S
C813 C816 1.399 . S
C813 C818 1.383 . S
C813 C820 1.496 . S
C814 C815 1.399 . S
C814 C818 1.389 . S
C815 C814 1.399 . S
C815 C817 1.380 . S
C815 H832 0.929 . S
C816 C813 1.399 . S
C816 C817 1.392 . S
C816 H833 0.929 . S
C817 C815 1.380 . S
C817 C816 1.392 . S
C817 H834 0.929 . S
C818 C813 1.383 . S
C818 C814 1.389 . S
C818 H835 0.931 . S
C819 O804 1.266 . S
C819 O805 1.248 . S
C820 Tb756 2.802 . S
C820 O800 1.264 . S
C820 O803 1.256 . S
C820 C813 1.496 . S
C821 C788 1.448 . S
C821 H798 0.930 . S
C821 C822 1.328 1_565 S
C822 C793 1.427 . S
C822 H799 0.929 . S
C822 C821 1.328 1_545 S
C823 O807 1.264 1_565 S
C823 O808 1.243 . S
C824 C827 1.399 . S
C824 C828 1.383 . S
C824 C831 1.496 . S
C825 C826 1.399 . S
C825 C828 1.389 . S
C826 C825 1.399 . S
C826 C829 1.380 . S
C826 H836 0.929 . S
C827 C824 1.399 . S
C827 C829 1.392 . S
C827 H837 0.929 . S
C828 C824 1.383 . S
C828 C825 1.389 . S
C828 H838 0.931 . S
C829 C826 1.380 . S
C829 C827 1.392 . S
C829 H839 0.929 . S
C830 O810 1.256 1_565 S
C830 O811 1.257 . S
C831 Tb767 2.802 . S
C831 O806 1.264 . S
C831 O809 1.256 . S
C831 C824 1.496 . S
H832 C815 0.929 . S
H833 C816 0.929 . S
H834 C817 0.929 . S
H835 C818 0.931 . S
H836 C826 0.929 . S
H837 C827 0.929 . S
H838 C828 0.931 . S
H839 C829 0.929 . S
Tb840 N869 2.617 . S
Tb840 N875 2.572 . S
Tb840 O884 2.465 . S
Tb840 O885 2.387 . S
Tb840 O887 2.428 . S
Tb840 O888 2.308 . S
Tb840 O892 2.349 . S
Tb840 O895 2.393 . S
Tb840 C904 2.802 . S
C841 N842 1.379 . S
C841 C844 1.416 . S
C841 C848 1.424 . S
N842 C841 1.379 . S
N842 C845 1.351 . S
N842 Tb851 2.617 . S
C843 C845 1.396 . S
C843 C846 1.339 . S
C843 H863 0.930 1_545 S
C844 C841 1.416 . S
C844 C846 1.416 . S
C844 C850 1.448 . S
C845 N842 1.351 . S
C845 C843 1.396 . S
C845 H856 0.907 1_545 S
C846 C843 1.339 . S
C846 C844 1.416 . S
C846 H867 0.930 . S
C847 C848 1.413 . S
C847 C849 1.427 . S
C847 C853 1.416 . S
C848 C841 1.424 . S
C848 C847 1.413 . S
C848 N852 1.361 . S
C849 C847 1.427 . S
C849 C850 1.328 . S
C849 H864 0.929 . S
C850 C844 1.448 . S
C850 C849 1.328 . S
C850 H865 0.930 . S
Tb851 N842 2.617 . S
Tb851 N852 2.572 . S
Tb851 O886 2.349 1_545 S
Tb851 O889 2.393 1_545 S
Tb851 O890 2.465 . S
Tb851 O891 2.387 . S
Tb851 O893 2.428 . S
Tb851 O894 2.308 . S
Tb851 C915 2.802 . S
N852 C848 1.361 . S
N852 Tb851 2.572 . S
N852 C854 1.340 . S
C853 C847 1.416 . S
C853 C855 1.332 . S
C853 H861 0.931 . S
C854 N852 1.340 . S
C854 C855 1.407 . S
C854 H860 0.930 . S
C855 C853 1.332 . S
C855 C854 1.407 . S
C855 H857 0.929 . S
H856 C845 0.907 1_565 S
H857 C855 0.929 . S
H858 C873 0.930 . S
H859 C880 0.929 . S
H860 C854 0.930 . S
H861 C853 0.931 . S
H862 C876 0.930 . S
H863 C843 0.930 1_565 S
H864 C849 0.929 . S
H865 C850 0.930 . S
H866 C871 0.930 . S
H867 C846 0.930 . S
H868 C879 0.931 . S
N869 Tb840 2.617 . S
N869 C870 1.379 . S
N869 C873 1.334 . S
C870 N869 1.379 . S
C870 C872 1.416 . S
C870 C878 1.424 . S
C871 H866 0.930 . S
C871 C873 1.390 . S
C871 C874 1.339 . S
C872 C870 1.416 . S
C872 C874 1.416 . S
C872 C905 1.448 . S
C873 H858 0.930 . S
C873 N869 1.334 . S
C873 C871 1.390 . S
C874 C871 1.339 . S
C874 C872 1.416 . S
C874 H881 0.930 . S
N875 Tb840 2.572 . S
N875 C876 1.340 . S
N875 C878 1.361 . S
C876 H862 0.930 . S
C876 N875 1.340 . S
C876 C880 1.407 . S
C877 C878 1.413 . S
C877 C879 1.416 . S
C877 C906 1.427 . S
C878 C870 1.424 . S
C878 N875 1.361 . S
C878 C877 1.413 . S
C879 H868 0.931 . S
C879 C877 1.416 . S
C879 C880 1.332 . S
C880 H859 0.929 . S
C880 C876 1.407 . S
C880 C879 1.332 . S
H881 C874 0.930 . S
H882 C905 0.930 . S
H883 C906 0.929 . S
O884 Tb840 2.465 . S
O884 C904 1.264 . S
O885 Tb840 2.387 . S
O885 C896 1.264 . S
O886 Tb851 2.349 1_565 S
O886 C896 1.243 . S
O887 Tb840 2.428 . S
O887 C904 1.256 . S
O888 Tb840 2.308 . S
O888 C903 1.266 . S
O889 Tb851 2.393 1_565 S
O889 C903 1.248 . S
O890 Tb851 2.465 . S
O890 C915 1.264 . S
O891 Tb851 2.387 . S
O891 C907 1.262 1_545 S
O892 Tb840 2.349 . S
O892 C907 1.243 . S
O893 Tb851 2.428 . S
O893 C915 1.256 . S
O894 Tb851 2.308 . S
O894 C914 1.266 . S
O895 Tb840 2.393 . S
O895 C914 1.248 1_565 S
C896 O885 1.264 . S
C896 O886 1.243 . S
C897 C900 1.399 . S
C897 C902 1.383 . S
C897 C904 1.496 . S
C898 C899 1.399 . S
C898 C902 1.389 . S
C899 C898 1.399 . S
C899 C901 1.380 . S
C899 H916 0.929 . S
C900 C897 1.399 . S
C900 C901 1.392 . S
C900 H917 0.929 . S
C901 C899 1.380 . S
C901 C900 1.392 . S
C901 H918 0.929 . S
C902 C897 1.383 . S
C902 C898 1.389 . S
C902 H919 0.931 . S
C903 O888 1.266 . S
C903 O889 1.248 . S
C904 Tb840 2.802 . S
C904 O884 1.264 . S
C904 O887 1.256 . S
C904 C897 1.496 . S
C905 C872 1.448 . S
C905 H882 0.930 . S
C905 C906 1.328 . S
C906 C877 1.427 . S
C906 H883 0.929 . S
C906 C905 1.328 . S
C907 O891 1.262 1_565 S
C907 O892 1.243 . S
C908 C911 1.399 . S
C908 C912 1.383 . S
C908 C915 1.496 . S
C909 C910 1.399 . S
C909 C912 1.389 . S
C910 C909 1.399 . S
C910 C913 1.380 . S
C910 H920 0.929 . S
C911 C908 1.399 . S
C911 C913 1.392 . S
C911 H921 0.929 . S
C912 C908 1.383 . S
C912 C909 1.389 . S
C912 H922 0.931 . S
C913 C910 1.380 . S
C913 C911 1.392 . S
C913 H923 0.929 . S
C914 O894 1.266 . S
C914 O895 1.248 1_545 S
C915 Tb851 2.802 . S
C915 O890 1.264 . S
C915 O893 1.256 . S
C915 C908 1.496 . S
H916 C899 0.929 . S
H917 C900 0.929 . S
H918 C901 0.929 . S
H919 C902 0.931 . S
H920 C910 0.929 . S
H921 C911 0.929 . S
H922 C912 0.931 . S
H923 C913 0.929 . S
Tb924 N953 2.617 . S
Tb924 N959 2.572 . S
Tb924 O968 2.465 . S
Tb924 O969 2.387 . S
Tb924 O971 2.428 . S
Tb924 O972 2.308 . S
Tb924 O976 2.349 . S
Tb924 O979 2.393 . S
Tb924 C988 2.802 . S
C925 N926 1.379 . S
C925 C928 1.416 . S
C925 C932 1.424 . S
N926 C925 1.379 . S
N926 C929 1.345 . S
N926 Tb935 2.617 . S
C927 C929 1.394 . S
C927 C930 1.339 . S
C927 H947 0.930 1_545 S
C928 C925 1.416 . S
C928 C930 1.416 . S
C928 C934 1.448 . S
C929 N926 1.345 . S
C929 C927 1.394 . S
C929 H940 0.915 1_545 S
C930 C927 1.339 . S
C930 C928 1.416 . S
C930 H951 0.930 . S
C931 C932 1.413 . S
C931 C933 1.427 . S
C931 C937 1.416 . S
C932 C925 1.424 . S
C932 C931 1.413 . S
C932 N936 1.361 . S
C933 C931 1.427 . S
C933 C934 1.328 . S
C933 H948 0.929 . S
C934 C928 1.448 . S
C934 C933 1.328 . S
C934 H949 0.930 . S
Tb935 N926 2.617 . S
Tb935 N936 2.572 . S
Tb935 O970 2.349 1_545 S
Tb935 O973 2.393 1_545 S
Tb935 O974 2.465 . S
Tb935 O975 2.387 . S
Tb935 O977 2.428 . S
Tb935 O978 2.308 . S
Tb935 C999 2.802 . S
N936 C932 1.361 . S
N936 Tb935 2.572 . S
N936 C938 1.340 . S
C937 C931 1.416 . S
C937 C939 1.332 . S
C937 H945 0.931 . S
C938 N936 1.340 . S
C938 C939 1.407 . S
C938 H944 0.930 . S
C939 C937 1.332 . S
C939 C938 1.407 . S
C939 H941 0.929 . S
H940 C929 0.915 1_565 S
H941 C939 0.929 . S
H942 C957 0.930 . S
H943 C964 0.929 . S
H944 C938 0.930 . S
H945 C937 0.931 . S
H946 C960 0.930 . S
H947 C927 0.930 1_565 S
H948 C933 0.929 . S
H949 C934 0.930 . S
H950 C955 0.930 . S
H951 C930 0.930 . S
H952 C963 0.931 . S
N953 Tb924 2.617 . S
N953 C954 1.379 . S
N953 C957 1.334 . S
C954 N953 1.379 . S
C954 C956 1.416 . S
C954 C962 1.424 . S
C955 H950 0.930 . S
C955 C957 1.390 . S
C955 C958 1.339 . S
C956 C954 1.416 . S
C956 C958 1.416 . S
C956 C989 1.448 . S
C957 H942 0.930 . S
C957 N953 1.334 . S
C957 C955 1.390 . S
C958 C955 1.339 . S
C958 C956 1.416 . S
C958 H965 0.930 . S
N959 Tb924 2.572 . S
N959 C960 1.340 . S
N959 C962 1.361 . S
C960 H946 0.930 . S
C960 N959 1.340 . S
C960 C964 1.407 . S
C961 C962 1.413 . S
C961 C963 1.416 . S
C961 C990 1.427 . S
C962 C954 1.424 . S
C962 N959 1.361 . S
C962 C961 1.413 . S
C963 H952 0.931 . S
C963 C961 1.416 . S
C963 C964 1.332 . S
C964 H943 0.929 . S
C964 C960 1.407 . S
C964 C963 1.332 . S
H965 C958 0.930 . S
H966 C989 0.930 . S
H967 C990 0.929 . S
O968 Tb924 2.465 . S
O968 C988 1.264 . S
O969 Tb924 2.387 . S
O969 C980 1.264 . S
O970 Tb935 2.349 1_565 S
O970 C980 1.243 . S
O971 Tb924 2.428 . S
O971 C988 1.256 . S
O972 Tb924 2.308 . S
O972 C987 1.266 . S
O973 Tb935 2.393 1_565 S
O973 C987 1.248 . S
O974 Tb935 2.465 . S
O974 C999 1.264 . S
O975 Tb935 2.387 . S
O975 C991 1.261 1_545 S
O976 Tb924 2.349 . S
O976 C991 1.243 . S
O977 Tb935 2.428 . S
O977 C999 1.256 . S
O978 Tb935 2.308 . S
O978 C998 1.266 . S
O979 Tb924 2.393 . S
O979 C998 1.248 1_565 S
C980 O969 1.264 . S
C980 O970 1.243 . S
C981 C984 1.399 . S
C981 C986 1.383 . S
C981 C988 1.496 . S
C982 C983 1.399 . S
C982 C986 1.389 . S
C983 C982 1.399 . S
C983 C985 1.380 . S
C983 H1000 0.929 . S
C984 C981 1.399 . S
C984 C985 1.392 . S
C984 H1001 0.929 . S
C985 C983 1.380 . S
C985 C984 1.392 . S
C985 H1002 0.929 . S
C986 C981 1.383 . S
C986 C982 1.389 . S
C986 H1003 0.931 . S
C987 O972 1.266 . S
C987 O973 1.248 . S
C988 Tb924 2.802 . S
C988 O968 1.264 . S
C988 O971 1.256 . S
C988 C981 1.496 . S
C989 C956 1.448 . S
C989 H966 0.930 . S
C989 C990 1.328 . S
C990 C961 1.427 . S
C990 H967 0.929 . S
C990 C989 1.328 . S
C991 O975 1.261 1_565 S
C991 O976 1.243 . S
C992 C995 1.399 . S
C992 C996 1.383 . S
C992 C999 1.496 . S
C993 C994 1.399 . S
C993 C996 1.389 . S
C994 C993 1.399 . S
C994 C997 1.380 . S
C994 H1004 0.929 . S
C995 C992 1.399 . S
C995 C997 1.392 . S
C995 H1005 0.929 . S
C996 C992 1.383 . S
C996 C993 1.389 . S
C996 H1006 0.931 . S
C997 C994 1.380 . S
C997 C995 1.392 . S
C997 H1007 0.929 . S
C998 O978 1.266 . S
C998 O979 1.248 1_545 S
C999 Tb935 2.802 . S
C999 O974 1.264 . S
C999 O977 1.256 . S
C999 C992 1.496 . S
H1000 C983 0.929 . S
H1001 C984 0.929 . S
H1002 C985 0.929 . S
H1003 C986 0.931 . S
H1004 C994 0.929 . S
H1005 C995 0.929 . S
H1006 C996 0.931 . S
H1007 C997 0.929 . S
Tb1008 N1037 2.617 . S
Tb1008 N1043 2.572 1_556 S
Tb1008 O1052 2.465 . S
Tb1008 O1053 2.387 1_556 S
Tb1008 O1055 2.428 . S
Tb1008 O1056 2.308 1_556 S
Tb1008 O1060 2.349 . S
Tb1008 O1063 2.393 . S
Tb1008 C1072 2.802 . S
C1009 N1010 1.379 . S
C1009 C1012 1.416 . S
C1009 C1016 1.424 . S
N1010 C1009 1.379 . S
N1010 C1013 1.334 . S
N1010 Tb1019 2.617 . S
C1011 C1013 1.390 . S
C1011 C1014 1.339 . S
C1011 H1031 0.930 . S
C1012 C1009 1.416 . S
C1012 C1014 1.416 . S
C1012 C1018 1.448 . S
C1013 N1010 1.334 . S
C1013 C1011 1.390 . S
C1013 H1024 0.930 . S
C1014 C1011 1.339 . S
C1014 C1012 1.416 . S
C1014 H1035 0.930 . S
C1015 C1016 1.413 . S
C1015 C1017 1.427 . S
C1015 C1021 1.416 . S
C1016 C1009 1.424 . S
C1016 C1015 1.413 . S
C1016 N1020 1.361 . S
C1017 C1015 1.427 . S
C1017 C1018 1.328 . S
C1017 H1032 0.929 . S
C1018 C1012 1.448 . S
C1018 C1017 1.328 . S
C1018 H1033 0.930 . S
Tb1019 N1010 2.617 . S
Tb1019 N1020 2.572 . S
Tb1019 O1054 2.349 . S
Tb1019 O1057 2.393 . S
Tb1019 O1058 2.465 . S
Tb1019 O1059 2.387 . S
Tb1019 O1061 2.428 . S
Tb1019 O1062 2.308 . S
Tb1019 C1083 2.802 . S
N1020 C1016 1.361 . S
N1020 Tb1019 2.572 . S
N1020 C1022 1.340 . S
C1021 C1015 1.416 . S
C1021 C1023 1.332 . S
C1021 H1029 0.931 . S
C1022 N1020 1.340 . S
C1022 C1023 1.407 . S
C1022 H1028 0.930 . S
C1023 C1021 1.332 . S
C1023 C1022 1.407 . S
C1023 H1025 0.929 . S
H1024 C1013 0.930 . S
H1025 C1023 0.929 . S
H1026 C1041 0.930 . S
H1027 C1048 0.929 . S
H1028 C1022 0.930 . S
H1029 C1021 0.931 . S
H1030 C1044 0.930 . S
H1031 C1011 0.930 . S
H1032 C1017 0.929 . S
H1033 C1018 0.930 . S
H1034 C1039 0.930 . S
H1035 C1014 0.930 . S
H1036 C1047 0.931 . S
N1037 Tb1008 2.617 . S
N1037 C1038 1.379 . S
N1037 C1041 1.334 . S
C1038 N1037 1.379 . S
C1038 C1040 1.416 . S
C1038 C1046 1.424 1_556 S
C1039 H1034 0.930 . S
C1039 C1041 1.390 . S
C1039 C1042 1.339 . S
C1040 C1038 1.416 . S
C1040 C1042 1.416 . S
C1040 C1073 1.448 . S
C1041 H1026 0.930 . S
C1041 N1037 1.334 . S
C1041 C1039 1.390 . S
C1042 C1039 1.339 . S
C1042 C1040 1.416 . S
C1042 H1049 0.930 . S
N1043 Tb1008 2.572 1_554 S
N1043 C1044 1.340 . S
N1043 C1046 1.361 . S
C1044 H1030 0.930 . S
C1044 N1043 1.340 . S
C1044 C1048 1.407 . S
C1045 C1046 1.413 . S
C1045 C1047 1.416 . S
C1045 C1074 1.427 . S
C1046 C1038 1.424 1_554 S
C1046 N1043 1.361 . S
C1046 C1045 1.413 . S
C1047 H1036 0.931 . S
C1047 C1045 1.416 . S
C1047 C1048 1.332 . S
C1048 H1027 0.929 . S
C1048 C1044 1.407 . S
C1048 C1047 1.332 . S
H1049 C1042 0.930 . S
H1050 C1073 0.930 . S
H1051 C1074 0.929 . S
O1052 Tb1008 2.465 . S
O1052 C1072 1.264 . S
O1053 Tb1008 2.387 1_554 S
O1053 C1064 1.264 . S
O1054 Tb1019 2.349 . S
O1054 C1064 1.243 . S
O1055 Tb1008 2.428 . S
O1055 C1072 1.256 . S
O1056 Tb1008 2.308 1_554 S
O1056 C1071 1.266 . S
O1057 Tb1019 2.393 . S
O1057 C1071 1.248 . S
O1058 Tb1019 2.465 . S
O1058 C1083 1.264 . S
O1059 Tb1019 2.387 . S
O1059 C1075 1.264 1_554 S
O1060 Tb1008 2.349 . S
O1060 C1075 1.243 . S
O1061 Tb1019 2.428 . S
O1061 C1083 1.256 . S
O1062 Tb1019 2.308 . S
O1062 C1082 1.297 . S
O1063 Tb1008 2.393 . S
O1063 C1082 1.220 1_556 S
C1064 O1053 1.264 . S
C1064 O1054 1.243 . S
C1065 C1068 1.399 . S
C1065 C1070 1.383 . S
C1065 C1072 1.496 . S
C1066 C1067 1.399 . S
C1066 C1070 1.389 . S
C1067 C1066 1.399 . S
C1067 C1069 1.380 . S
C1067 H1084 0.929 . S
C1068 C1065 1.399 . S
C1068 C1069 1.392 . S
C1068 H1085 0.929 . S
C1069 C1067 1.380 . S
C1069 C1068 1.392 . S
C1069 H1086 0.929 . S
C1070 C1065 1.383 . S
C1070 C1066 1.389 . S
C1070 H1087 0.931 . S
C1071 O1056 1.266 . S
C1071 O1057 1.248 . S
C1072 Tb1008 2.802 . S
C1072 O1052 1.264 . S
C1072 O1055 1.256 . S
C1072 C1065 1.496 . S
C1073 C1040 1.448 . S
C1073 H1050 0.930 . S
C1073 C1074 1.328 1_556 S
C1074 C1045 1.427 . S
C1074 H1051 0.929 . S
C1074 C1073 1.328 1_554 S
C1075 O1059 1.264 1_556 S
C1075 O1060 1.243 . S
C1076 C1079 1.399 . S
C1076 C1080 1.383 . S
C1076 C1083 1.496 . S
C1077 C1078 1.399 . S
C1077 C1080 1.389 . S
C1078 C1077 1.399 . S
C1078 C1081 1.380 . S
C1078 H1088 0.929 . S
C1079 C1076 1.399 . S
C1079 C1081 1.392 . S
C1079 H1089 0.929 . S
C1080 C1076 1.383 . S
C1080 C1077 1.389 . S
C1080 H1090 0.931 . S
C1081 C1078 1.380 . S
C1081 C1079 1.392 . S
C1081 H1091 0.929 . S
C1082 O1062 1.297 . S
C1082 O1063 1.220 1_554 S
C1083 Tb1019 2.802 . S
C1083 O1058 1.264 . S
C1083 O1061 1.256 . S
C1083 C1076 1.496 . S
H1084 C1067 0.929 . S
H1085 C1068 0.929 . S
H1086 C1069 0.929 . S
H1087 C1070 0.931 . S
H1088 C1078 0.929 . S
H1089 C1079 0.929 . S
H1090 C1080 0.931 . S
H1091 C1081 0.929 . S
Tb1092 N1121 2.617 . S
Tb1092 N1127 2.572 . S
Tb1092 O1136 2.465 . S
Tb1092 O1137 2.387 . S
Tb1092 O1139 2.428 . S
Tb1092 O1140 2.308 . S
Tb1092 O1144 2.349 . S
Tb1092 O1147 2.393 . S
Tb1092 C1156 2.802 . S
C1093 N1094 1.379 . S
C1093 C1096 1.416 . S
C1093 C1100 1.424 . S
N1094 C1093 1.379 . S
N1094 C1097 1.339 . S
N1094 Tb1103 2.617 . S
C1095 C1097 1.391 . S
C1095 C1098 1.339 . S
C1095 H1115 0.930 1_455 S
C1096 C1093 1.416 . S
C1096 C1098 1.416 . S
C1096 C1102 1.448 . S
C1097 N1094 1.339 . S
C1097 C1095 1.391 . S
C1097 H1108 0.924 1_455 S
C1098 C1095 1.339 . S
C1098 C1096 1.416 . S
C1098 H1119 0.930 . S
C1099 C1100 1.413 . S
C1099 C1101 1.427 . S
C1099 C1105 1.416 . S
C1100 C1093 1.424 . S
C1100 C1099 1.413 . S
C1100 N1104 1.361 . S
C1101 C1099 1.427 . S
C1101 C1102 1.328 . S
C1101 H1116 0.929 . S
C1102 C1096 1.448 . S
C1102 C1101 1.328 . S
C1102 H1117 0.930 . S
Tb1103 N1094 2.617 . S
Tb1103 N1104 2.572 . S
Tb1103 O1138 2.349 1_455 S
Tb1103 O1141 2.393 1_455 S
Tb1103 O1142 2.465 . S
Tb1103 O1143 2.387 . S
Tb1103 O1145 2.428 . S
Tb1103 O1146 2.308 . S
Tb1103 C1167 2.802 . S
N1104 C1100 1.361 . S
N1104 Tb1103 2.572 . S
N1104 C1106 1.340 . S
C1105 C1099 1.416 . S
C1105 C1107 1.332 . S
C1105 H1113 0.931 . S
C1106 N1104 1.340 . S
C1106 C1107 1.407 . S
C1106 H1112 0.930 . S
C1107 C1105 1.332 . S
C1107 C1106 1.407 . S
C1107 H1109 0.929 . S
H1108 C1097 0.924 1_655 S
H1109 C1107 0.929 . S
H1110 C1125 0.930 . S
H1111 C1132 0.929 . S
H1112 C1106 0.930 . S
H1113 C1105 0.931 . S
H1114 C1128 0.930 . S
H1115 C1095 0.930 1_655 S
H1116 C1101 0.929 . S
H1117 C1102 0.930 . S
H1118 C1123 0.930 . S
H1119 C1098 0.930 . S
H1120 C1131 0.931 . S
N1121 Tb1092 2.617 . S
N1121 C1122 1.379 . S
N1121 C1125 1.334 . S
C1122 N1121 1.379 . S
C1122 C1124 1.416 . S
C1122 C1130 1.424 . S
C1123 H1118 0.930 . S
C1123 C1125 1.390 . S
C1123 C1126 1.339 . S
C1124 C1122 1.416 . S
C1124 C1126 1.416 . S
C1124 C1157 1.448 . S
C1125 H1110 0.930 . S
C1125 N1121 1.334 . S
C1125 C1123 1.390 . S
C1126 C1123 1.339 . S
C1126 C1124 1.416 . S
C1126 H1133 0.930 . S
N1127 Tb1092 2.572 . S
N1127 C1128 1.340 . S
N1127 C1130 1.361 . S
C1128 H1114 0.930 . S
C1128 N1127 1.340 . S
C1128 C1132 1.407 . S
C1129 C1130 1.413 . S
C1129 C1131 1.416 . S
C1129 C1158 1.427 . S
C1130 C1122 1.424 . S
C1130 N1127 1.361 . S
C1130 C1129 1.413 . S
C1131 H1120 0.931 . S
C1131 C1129 1.416 . S
C1131 C1132 1.332 . S
C1132 H1111 0.929 . S
C1132 C1128 1.407 . S
C1132 C1131 1.332 . S
H1133 C1126 0.930 . S
H1134 C1157 0.930 . S
H1135 C1158 0.929 . S
O1136 Tb1092 2.465 . S
O1136 C1156 1.264 . S
O1137 Tb1092 2.387 . S
O1137 C1148 1.264 . S
O1138 Tb1103 2.349 1_655 S
O1138 C1148 1.243 . S
O1139 Tb1092 2.428 . S
O1139 C1156 1.256 . S
O1140 Tb1092 2.308 . S
O1140 C1155 1.266 . S
O1141 Tb1103 2.393 1_655 S
O1141 C1155 1.248 . S
O1142 Tb1103 2.465 . S
O1142 C1167 1.264 . S
O1143 Tb1103 2.387 . S
O1143 C1159 1.262 1_455 S
O1144 Tb1092 2.349 . S
O1144 C1159 1.243 . S
O1145 Tb1103 2.428 . S
O1145 C1167 1.256 . S
O1146 Tb1103 2.308 . S
O1146 C1166 1.266 . S
O1147 Tb1092 2.393 . S
O1147 C1166 1.248 1_655 S
C1148 O1137 1.264 . S
C1148 O1138 1.243 . S
C1149 C1152 1.399 . S
C1149 C1154 1.383 . S
C1149 C1156 1.496 . S
C1150 C1151 1.399 . S
C1150 C1154 1.389 . S
C1151 C1150 1.399 . S
C1151 C1153 1.380 . S
C1151 H1168 0.929 . S
C1152 C1149 1.399 . S
C1152 C1153 1.392 . S
C1152 H1169 0.929 . S
C1153 C1151 1.380 . S
C1153 C1152 1.392 . S
C1153 H1170 0.929 . S
C1154 C1149 1.383 . S
C1154 C1150 1.389 . S
C1154 H1171 0.931 . S
C1155 O1140 1.266 . S
C1155 O1141 1.248 . S
C1156 Tb1092 2.802 . S
C1156 O1136 1.264 . S
C1156 O1139 1.256 . S
C1156 C1149 1.496 . S
C1157 C1124 1.448 . S
C1157 H1134 0.930 . S
C1157 C1158 1.328 . S
C1158 C1129 1.427 . S
C1158 H1135 0.929 . S
C1158 C1157 1.328 . S
C1159 O1143 1.262 1_655 S
C1159 O1144 1.243 . S
C1160 C1163 1.399 . S
C1160 C1164 1.383 . S
C1160 C1167 1.496 . S
C1161 C1162 1.399 . S
C1161 C1164 1.389 . S
C1162 C1161 1.399 . S
C1162 C1165 1.380 . S
C1162 H1172 0.929 . S
C1163 C1160 1.399 . S
C1163 C1165 1.392 . S
C1163 H1173 0.929 . S
C1164 C1160 1.383 . S
C1164 C1161 1.389 . S
C1164 H1174 0.931 . S
C1165 C1162 1.380 . S
C1165 C1163 1.392 . S
C1165 H1175 0.929 . S
C1166 O1146 1.266 . S
C1166 O1147 1.248 1_455 S
C1167 Tb1103 2.802 . S
C1167 O1142 1.264 . S
C1167 O1145 1.256 . S
C1167 C1160 1.496 . S
H1168 C1151 0.929 . S
H1169 C1152 0.929 . S
H1170 C1153 0.929 . S
H1171 C1154 0.931 . S
H1172 C1162 0.929 . S
H1173 C1163 0.929 . S
H1174 C1164 0.931 . S
H1175 C1165 0.929 . S
Tb1176 N1205 2.617 . S
Tb1176 N1211 2.572 . S
Tb1176 O1220 2.465 . S
Tb1176 O1221 2.387 . S
Tb1176 O1223 2.428 . S
Tb1176 O1224 2.308 . S
Tb1176 O1228 2.349 . S
Tb1176 O1231 2.393 . S
Tb1176 C1240 2.802 . S
C1177 N1178 1.379 . S
C1177 C1180 1.416 . S
C1177 C1184 1.424 . S
N1178 C1177 1.379 . S
N1178 C1181 1.334 . S
N1178 Tb1187 2.617 . S
C1179 C1181 1.390 . S
C1179 C1182 1.339 . S
C1179 H1199 0.930 . S
C1180 C1177 1.416 . S
C1180 C1182 1.416 . S
C1180 C1186 1.448 . S
C1181 N1178 1.334 . S
C1181 C1179 1.390 . S
C1181 H1192 0.930 . S
C1182 C1179 1.339 . S
C1182 C1180 1.416 . S
C1182 H1203 0.930 . S
C1183 C1184 1.413 . S
C1183 C1185 1.427 . S
C1183 C1189 1.416 . S
C1184 C1177 1.424 . S
C1184 C1183 1.413 . S
C1184 N1188 1.361 . S
C1185 C1183 1.427 . S
C1185 C1186 1.328 . S
C1185 H1200 0.929 . S
C1186 C1180 1.448 . S
C1186 C1185 1.328 . S
C1186 H1201 0.930 . S
Tb1187 N1178 2.617 . S
Tb1187 N1188 2.572 . S
Tb1187 O1222 2.349 . S
Tb1187 O1225 2.393 . S
Tb1187 O1226 2.465 . S
Tb1187 O1227 2.387 . S
Tb1187 O1229 2.428 . S
Tb1187 O1230 2.308 . S
Tb1187 C1251 2.802 . S
N1188 C1184 1.361 . S
N1188 Tb1187 2.572 . S
N1188 C1190 1.340 . S
C1189 C1183 1.416 . S
C1189 C1191 1.332 . S
C1189 H1197 0.931 . S
C1190 N1188 1.340 . S
C1190 C1191 1.407 . S
C1190 H1196 0.930 . S
C1191 C1189 1.332 . S
C1191 C1190 1.407 . S
C1191 H1193 0.929 . S
H1192 C1181 0.930 . S
H1193 C1191 0.929 . S
H1194 C1209 0.930 . S
H1195 C1216 0.929 . S
H1196 C1190 0.930 . S
H1197 C1189 0.931 . S
H1198 C1212 0.930 . S
H1199 C1179 0.930 . S
H1200 C1185 0.929 . S
H1201 C1186 0.930 . S
H1202 C1207 0.930 . S
H1203 C1182 0.930 . S
H1204 C1215 0.931 . S
N1205 Tb1176 2.617 . S
N1205 C1206 1.379 . S
N1205 C1209 1.334 . S
C1206 N1205 1.379 . S
C1206 C1208 1.416 . S
C1206 C1214 1.424 . S
C1207 H1202 0.930 . S
C1207 C1209 1.390 . S
C1207 C1210 1.339 . S
C1208 C1206 1.416 . S
C1208 C1210 1.416 . S
C1208 C1241 1.448 . S
C1209 H1194 0.930 . S
C1209 N1205 1.334 . S
C1209 C1207 1.390 . S
C1210 C1207 1.339 . S
C1210 C1208 1.416 . S
C1210 H1217 0.930 . S
N1211 Tb1176 2.572 . S
N1211 C1212 1.340 . S
N1211 C1214 1.361 . S
C1212 H1198 0.930 . S
C1212 N1211 1.340 . S
C1212 C1216 1.407 . S
C1213 C1214 1.413 . S
C1213 C1215 1.416 . S
C1213 C1242 1.427 . S
C1214 C1206 1.424 . S
C1214 N1211 1.361 . S
C1214 C1213 1.413 . S
C1215 H1204 0.931 . S
C1215 C1213 1.416 . S
C1215 C1216 1.332 . S
C1216 H1195 0.929 . S
C1216 C1212 1.407 . S
C1216 C1215 1.332 . S
H1217 C1210 0.930 . S
H1218 C1241 0.930 . S
H1219 C1242 0.929 . S
O1220 Tb1176 2.465 . S
O1220 C1240 1.264 . S
O1221 Tb1176 2.387 . S
O1221 C1232 1.264 . S
O1222 Tb1187 2.349 . S
O1222 C1232 1.243 . S
O1223 Tb1176 2.428 . S
O1223 C1240 1.256 . S
O1224 Tb1176 2.308 . S
O1224 C1239 1.266 . S
O1225 Tb1187 2.393 . S
O1225 C1239 1.248 . S
O1226 Tb1187 2.465 . S
O1226 C1251 1.264 . S
O1227 Tb1187 2.387 . S
O1227 C1243 1.264 . S
O1228 Tb1176 2.349 . S
O1228 C1243 1.243 . S
O1229 Tb1187 2.428 . S
O1229 C1251 1.256 . S
O1230 Tb1187 2.308 . S
O1230 C1250 1.266 . S
O1231 Tb1176 2.393 . S
O1231 C1250 1.248 . S
C1232 O1221 1.264 . S
C1232 O1222 1.243 . S
C1233 C1236 1.399 . S
C1233 C1238 1.383 . S
C1233 C1240 1.496 . S
C1234 C1235 1.399 . S
C1234 C1238 1.389 . S
C1235 C1234 1.399 . S
C1235 C1237 1.380 . S
C1235 H1252 0.929 . S
C1236 C1233 1.399 . S
C1236 C1237 1.392 . S
C1236 H1253 0.929 . S
C1237 C1235 1.380 . S
C1237 C1236 1.392 . S
C1237 H1254 0.929 . S
C1238 C1233 1.383 . S
C1238 C1234 1.389 . S
C1238 H1255 0.931 . S
C1239 O1224 1.266 . S
C1239 O1225 1.248 . S
C1240 Tb1176 2.802 . S
C1240 O1220 1.264 . S
C1240 O1223 1.256 . S
C1240 C1233 1.496 . S
C1241 C1208 1.448 . S
C1241 H1218 0.930 . S
C1241 C1242 1.328 . S
C1242 C1213 1.427 . S
C1242 H1219 0.929 . S
C1242 C1241 1.328 . S
C1243 O1227 1.264 . S
C1243 O1228 1.243 . S
C1244 C1247 1.399 . S
C1244 C1248 1.383 . S
C1244 C1251 1.496 . S
C1245 C1246 1.399 . S
C1245 C1248 1.389 . S
C1246 C1245 1.399 . S
C1246 C1249 1.380 . S
C1246 H1256 0.929 . S
C1247 C1244 1.399 . S
C1247 C1249 1.392 . S
C1247 H1257 0.929 . S
C1248 C1244 1.383 . S
C1248 C1245 1.389 . S
C1248 H1258 0.931 . S
C1249 C1246 1.380 . S
C1249 C1247 1.392 . S
C1249 H1259 0.929 . S
C1250 O1230 1.266 . S
C1250 O1231 1.248 . S
C1251 Tb1187 2.802 . S
C1251 O1226 1.264 . S
C1251 O1229 1.256 . S
C1251 C1244 1.496 . S
H1252 C1235 0.929 . S
H1253 C1236 0.929 . S
H1254 C1237 0.929 . S
H1255 C1238 0.931 . S
H1256 C1246 0.929 . S
H1257 C1247 0.929 . S
H1258 C1248 0.931 . S
H1259 C1249 0.929 . S
Tb1260 N1289 2.617 . S
Tb1260 N1295 2.572 . S
Tb1260 O1304 2.465 . S
Tb1260 O1305 2.384 1_455 S
Tb1260 O1307 2.428 . S
Tb1260 O1308 2.308 . S
Tb1260 O1312 2.349 1_455 S
Tb1260 O1315 2.393 1_455 S
Tb1260 C1324 2.802 . S
C1261 N1262 1.379 . S
C1261 C1264 1.416 . S
C1261 C1268 1.424 . S
N1262 C1261 1.379 . S
N1262 C1265 1.334 . S
N1262 Tb1271 2.617 . S
C1263 C1265 1.390 . S
C1263 C1266 1.339 . S
C1263 H1283 0.930 . S
C1264 C1261 1.416 . S
C1264 C1266 1.416 . S
C1264 C1270 1.448 . S
C1265 N1262 1.334 . S
C1265 C1263 1.390 . S
C1265 H1276 0.930 . S
C1266 C1263 1.339 . S
C1266 C1264 1.416 . S
C1266 H1287 0.930 . S
C1267 C1268 1.413 . S
C1267 C1269 1.427 . S
C1267 C1273 1.416 . S
C1268 C1261 1.424 . S
C1268 C1267 1.413 . S
C1268 N1272 1.361 . S
C1269 C1267 1.427 . S
C1269 C1270 1.328 . S
C1269 H1284 0.929 . S
C1270 C1264 1.448 . S
C1270 C1269 1.328 . S
C1270 H1285 0.930 . S
Tb1271 N1262 2.617 . S
Tb1271 N1272 2.572 . S
Tb1271 O1306 2.349 . S
Tb1271 O1309 2.393 . S
Tb1271 O1310 2.465 . S
Tb1271 O1311 2.387 . S
Tb1271 O1313 2.428 . S
Tb1271 O1314 2.308 . S
Tb1271 C1335 2.802 . S
N1272 C1268 1.361 . S
N1272 Tb1271 2.572 . S
N1272 C1274 1.340 . S
C1273 C1267 1.416 . S
C1273 C1275 1.332 . S
C1273 H1281 0.931 . S
C1274 N1272 1.340 . S
C1274 C1275 1.407 . S
C1274 H1280 0.930 . S
C1275 C1273 1.332 . S
C1275 C1274 1.407 . S
C1275 H1277 0.929 . S
H1276 C1265 0.930 . S
H1277 C1275 0.929 . S
H1278 C1293 0.954 . S
H1279 C1300 0.929 . S
H1280 C1274 0.930 . S
H1281 C1273 0.931 . S
H1282 C1296 0.930 . S
H1283 C1263 0.930 . S
H1284 C1269 0.929 . S
H1285 C1270 0.930 . S
H1286 C1291 0.930 1_655 S
H1287 C1266 0.930 . S
H1288 C1299 0.931 . S
N1289 Tb1260 2.617 . S
N1289 C1290 1.379 . S
N1289 C1293 1.318 1_455 S
C1290 N1289 1.379 . S
C1290 C1292 1.416 . S
C1290 C1298 1.424 . S
C1291 H1286 0.930 1_455 S
C1291 C1293 1.384 1_455 S
C1291 C1294 1.339 . S
C1292 C1290 1.416 . S
C1292 C1294 1.416 . S
C1292 C1325 1.448 . S
C1293 H1278 0.954 . S
C1293 N1289 1.318 1_655 S
C1293 C1291 1.384 1_655 S
C1294 C1291 1.339 . S
C1294 C1292 1.416 . S
C1294 H1301 0.930 . S
N1295 Tb1260 2.572 . S
N1295 C1296 1.340 . S
N1295 C1298 1.361 . S
C1296 H1282 0.930 . S
C1296 N1295 1.340 . S
C1296 C1300 1.407 . S
C1297 C1298 1.413 . S
C1297 C1299 1.416 . S
C1297 C1326 1.427 . S
C1298 C1290 1.424 . S
C1298 N1295 1.361 . S
C1298 C1297 1.413 . S
C1299 H1288 0.931 . S
C1299 C1297 1.416 . S
C1299 C1300 1.332 . S
C1300 H1279 0.929 . S
C1300 C1296 1.407 . S
C1300 C1299 1.332 . S
H1301 C1294 0.930 . S
H1302 C1325 0.930 . S
H1303 C1326 0.929 . S
O1304 Tb1260 2.465 . S
O1304 C1324 1.264 . S
O1305 Tb1260 2.384 1_655 S
O1305 C1316 1.275 . S
O1306 Tb1271 2.349 . S
O1306 C1316 1.243 . S
O1307 Tb1260 2.428 . S
O1307 C1324 1.256 . S
O1308 Tb1260 2.308 . S
O1308 C1323 1.266 . S
O1309 Tb1271 2.393 . S
O1309 C1323 1.248 1_655 S
O1310 Tb1271 2.465 . S
O1310 C1335 1.264 . S
O1311 Tb1271 2.387 . S
O1311 C1327 1.264 . S
O1312 Tb1260 2.349 1_655 S
O1312 C1327 1.243 . S
O1313 Tb1271 2.428 . S
O1313 C1335 1.256 . S
O1314 Tb1271 2.308 . S
O1314 C1334 1.266 . S
O1315 Tb1260 2.393 1_655 S
O1315 C1334 1.248 . S
C1316 O1305 1.275 . S
C1316 O1306 1.243 . S
C1317 C1320 1.399 . S
C1317 C1322 1.383 . S
C1317 C1324 1.496 . S
C1318 C1319 1.399 . S
C1318 C1322 1.389 . S
C1319 C1318 1.399 . S
C1319 C1321 1.380 . S
C1319 H1336 0.929 . S
C1320 C1317 1.399 . S
C1320 C1321 1.392 . S
C1320 H1337 0.929 . S
C1321 C1319 1.380 . S
C1321 C1320 1.392 . S
C1321 H1338 0.929 . S
C1322 C1317 1.383 . S
C1322 C1318 1.389 . S
C1322 H1339 0.931 . S
C1323 O1308 1.266 . S
C1323 O1309 1.248 1_455 S
C1324 Tb1260 2.802 . S
C1324 O1304 1.264 . S
C1324 O1307 1.256 . S
C1324 C1317 1.496 . S
C1325 C1292 1.448 . S
C1325 H1302 0.930 . S
C1325 C1326 1.328 . S
C1326 C1297 1.427 . S
C1326 H1303 0.929 . S
C1326 C1325 1.328 . S
C1327 O1311 1.264 . S
C1327 O1312 1.243 . S
C1328 C1331 1.399 . S
C1328 C1332 1.383 . S
C1328 C1335 1.496 . S
C1329 C1330 1.399 . S
C1329 C1332 1.389 . S
C1330 C1329 1.399 . S
C1330 C1333 1.380 . S
C1330 H1340 0.929 . S
C1331 C1328 1.399 . S
C1331 C1333 1.392 . S
C1331 H1341 0.929 . S
C1332 C1328 1.383 . S
C1332 C1329 1.389 . S
C1332 H1342 0.931 . S
C1333 C1330 1.380 . S
C1333 C1331 1.392 . S
C1333 H1343 0.929 . S
C1334 O1314 1.266 . S
C1334 O1315 1.248 . S
C1335 Tb1271 2.802 . S
C1335 O1310 1.264 . S
C1335 O1313 1.256 . S
C1335 C1328 1.496 . S
H1336 C1319 0.929 . S
H1337 C1320 0.929 . S
H1338 C1321 0.929 . S
H1339 C1322 0.931 . S
H1340 C1330 0.929 . S
H1341 C1331 0.929 . S
H1342 C1332 0.931 . S
H1343 C1333 0.929 . S
Tb1344 N1373 2.617 . S
Tb1344 N1379 2.572 . S
Tb1344 O1388 2.465 . S
Tb1344 O1389 2.387 . S
Tb1344 O1391 2.428 . S
Tb1344 O1392 2.308 . S
Tb1344 O1396 2.349 . S
Tb1344 O1399 2.393 . S
Tb1344 C1408 2.802 . S
C1345 N1346 1.379 . S
C1345 C1348 1.416 . S
C1345 C1352 1.424 . S
N1346 C1345 1.379 . S
N1346 C1349 1.334 . S
N1346 Tb1355 2.617 . S
C1347 C1349 1.390 . S
C1347 C1350 1.339 . S
C1347 H1367 0.930 . S
C1348 C1345 1.416 . S
C1348 C1350 1.416 . S
C1348 C1354 1.448 . S
C1349 N1346 1.334 . S
C1349 C1347 1.390 . S
C1349 H1360 0.930 . S
C1350 C1347 1.339 . S
C1350 C1348 1.416 . S
C1350 H1371 0.930 . S
C1351 C1352 1.413 . S
C1351 C1353 1.427 . S
C1351 C1357 1.416 . S
C1352 C1345 1.424 . S
C1352 C1351 1.413 . S
C1352 N1356 1.361 . S
C1353 C1351 1.427 . S
C1353 C1354 1.328 . S
C1353 H1368 0.929 . S
C1354 C1348 1.448 . S
C1354 C1353 1.328 . S
C1354 H1369 0.930 . S
Tb1355 N1346 2.617 . S
Tb1355 N1356 2.572 . S
Tb1355 O1390 2.349 . S
Tb1355 O1393 2.393 . S
Tb1355 O1394 2.465 . S
Tb1355 O1395 2.387 . S
Tb1355 O1397 2.428 . S
Tb1355 O1398 2.308 . S
Tb1355 C1419 2.802 . S
N1356 C1352 1.361 . S
N1356 Tb1355 2.572 . S
N1356 C1358 1.340 . S
C1357 C1351 1.416 . S
C1357 C1359 1.332 . S
C1357 H1365 0.931 . S
C1358 N1356 1.340 . S
C1358 C1359 1.407 . S
C1358 H1364 0.930 . S
C1359 C1357 1.332 . S
C1359 C1358 1.407 . S
C1359 H1361 0.929 . S
H1360 C1349 0.930 . S
H1361 C1359 0.929 . S
H1362 C1377 0.930 . S
H1363 C1384 0.929 . S
H1364 C1358 0.930 . S
H1365 C1357 0.931 . S
H1366 C1380 0.930 . S
H1367 C1347 0.930 . S
H1368 C1353 0.929 . S
H1369 C1354 0.930 . S
H1370 C1375 0.930 . S
H1371 C1350 0.930 . S
H1372 C1383 0.931 . S
N1373 Tb1344 2.617 . S
N1373 C1374 1.379 . S
N1373 C1377 1.334 . S
C1374 N1373 1.379 . S
C1374 C1376 1.416 . S
C1374 C1382 1.424 . S
C1375 H1370 0.930 . S
C1375 C1377 1.390 . S
C1375 C1378 1.339 . S
C1376 C1374 1.416 . S
C1376 C1378 1.416 . S
C1376 C1409 1.448 . S
C1377 H1362 0.930 . S
C1377 N1373 1.334 . S
C1377 C1375 1.390 . S
C1378 C1375 1.339 . S
C1378 C1376 1.416 . S
C1378 H1385 0.930 . S
N1379 Tb1344 2.572 . S
N1379 C1380 1.340 . S
N1379 C1382 1.361 . S
C1380 H1366 0.930 . S
C1380 N1379 1.340 . S
C1380 C1384 1.407 . S
C1381 C1382 1.413 . S
C1381 C1383 1.416 . S
C1381 C1410 1.427 . S
C1382 C1374 1.424 . S
C1382 N1379 1.361 . S
C1382 C1381 1.413 . S
C1383 H1372 0.931 . S
C1383 C1381 1.416 . S
C1383 C1384 1.332 . S
C1384 H1363 0.929 . S
C1384 C1380 1.407 . S
C1384 C1383 1.332 . S
H1385 C1378 0.930 . S
H1386 C1409 0.930 . S
H1387 C1410 0.929 . S
O1388 Tb1344 2.465 . S
O1388 C1408 1.264 . S
O1389 Tb1344 2.387 . S
O1389 C1400 1.264 . S
O1390 Tb1355 2.349 . S
O1390 C1400 1.243 . S
O1391 Tb1344 2.428 . S
O1391 C1408 1.256 . S
O1392 Tb1344 2.308 . S
O1392 C1407 1.266 . S
O1393 Tb1355 2.393 . S
O1393 C1407 1.248 . S
O1394 Tb1355 2.465 . S
O1394 C1419 1.264 . S
O1395 Tb1355 2.387 . S
O1395 C1411 1.264 . S
O1396 Tb1344 2.349 . S
O1396 C1411 1.243 . S
O1397 Tb1355 2.428 . S
O1397 C1419 1.256 . S
O1398 Tb1355 2.308 . S
O1398 C1418 1.266 . S
O1399 Tb1344 2.393 . S
O1399 C1418 1.248 . S
C1400 O1389 1.264 . S
C1400 O1390 1.243 . S
C1401 C1404 1.399 . S
C1401 C1406 1.383 . S
C1401 C1408 1.496 . S
C1402 C1403 1.399 . S
C1402 C1406 1.389 . S
C1403 C1402 1.399 . S
C1403 C1405 1.380 . S
C1403 H1420 0.929 . S
C1404 C1401 1.399 . S
C1404 C1405 1.392 . S
C1404 H1421 0.929 . S
C1405 C1403 1.380 . S
C1405 C1404 1.392 . S
C1405 H1422 0.929 . S
C1406 C1401 1.383 . S
C1406 C1402 1.389 . S
C1406 H1423 0.931 . S
C1407 O1392 1.266 . S
C1407 O1393 1.248 . S
C1408 Tb1344 2.802 . S
C1408 O1388 1.264 . S
C1408 O1391 1.256 . S
C1408 C1401 1.496 . S
C1409 C1376 1.448 . S
C1409 H1386 0.930 . S
C1409 C1410 1.328 . S
C1410 C1381 1.427 . S
C1410 H1387 0.929 . S
C1410 C1409 1.328 . S
C1411 O1395 1.264 . S
C1411 O1396 1.243 . S
C1412 C1415 1.399 . S
C1412 C1416 1.383 . S
C1412 C1419 1.496 . S
C1413 C1414 1.399 . S
C1413 C1416 1.389 . S
C1414 C1413 1.399 . S
C1414 C1417 1.380 . S
C1414 H1424 0.929 . S
C1415 C1412 1.399 . S
C1415 C1417 1.392 . S
C1415 H1425 0.929 . S
C1416 C1412 1.383 . S
C1416 C1413 1.389 . S
C1416 H1426 0.931 . S
C1417 C1414 1.380 . S
C1417 C1415 1.392 . S
C1417 H1427 0.929 . S
C1418 O1398 1.266 . S
C1418 O1399 1.248 . S
C1419 Tb1355 2.802 . S
C1419 O1394 1.264 . S
C1419 O1397 1.256 . S
C1419 C1412 1.496 . S
H1420 C1403 0.929 . S
H1421 C1404 0.929 . S
H1422 C1405 0.929 . S
H1423 C1406 0.931 . S
H1424 C1414 0.929 . S
H1425 C1415 0.929 . S
H1426 C1416 0.931 . S
H1427 C1417 0.929 . S
Tb1428 N1457 2.617 . S
Tb1428 N1463 2.572 . S
Tb1428 O1472 2.465 . S
Tb1428 O1473 2.387 . S
Tb1428 O1475 2.428 . S
Tb1428 O1476 2.308 . S
Tb1428 O1480 2.349 . S
Tb1428 O1483 2.393 . S
Tb1428 C1492 2.802 . S
C1429 N1430 1.379 . S
C1429 C1432 1.416 . S
C1429 C1436 1.424 . S
N1430 C1429 1.379 . S
N1430 C1433 1.334 . S
N1430 Tb1439 2.617 . S
C1431 C1433 1.390 . S
C1431 C1434 1.339 . S
C1431 H1451 0.930 . S
C1432 C1429 1.416 . S
C1432 C1434 1.416 . S
C1432 C1438 1.448 . S
C1433 N1430 1.334 . S
C1433 C1431 1.390 . S
C1433 H1444 0.930 . S
C1434 C1431 1.339 . S
C1434 C1432 1.416 . S
C1434 H1455 0.930 . S
C1435 C1436 1.413 . S
C1435 C1437 1.427 . S
C1435 C1441 1.416 . S
C1436 C1429 1.424 . S
C1436 C1435 1.413 . S
C1436 N1440 1.361 . S
C1437 C1435 1.427 . S
C1437 C1438 1.328 . S
C1437 H1452 0.929 . S
C1438 C1432 1.448 . S
C1438 C1437 1.328 . S
C1438 H1453 0.930 . S
Tb1439 N1430 2.617 . S
Tb1439 N1440 2.572 . S
Tb1439 O1474 2.349 . S
Tb1439 O1477 2.393 . S
Tb1439 O1478 2.465 . S
Tb1439 O1479 2.387 . S
Tb1439 O1481 2.428 . S
Tb1439 O1482 2.308 . S
Tb1439 C1503 2.802 . S
N1440 C1436 1.361 . S
N1440 Tb1439 2.572 . S
N1440 C1442 1.340 . S
C1441 C1435 1.416 . S
C1441 C1443 1.332 . S
C1441 H1449 0.931 . S
C1442 N1440 1.340 . S
C1442 C1443 1.407 . S
C1442 H1448 0.930 . S
C1443 C1441 1.332 . S
C1443 C1442 1.407 . S
C1443 H1445 0.929 . S
H1444 C1433 0.930 . S
H1445 C1443 0.929 . S
H1446 C1461 0.930 . S
H1447 C1468 0.929 . S
H1448 C1442 0.930 . S
H1449 C1441 0.931 . S
H1450 C1464 0.930 . S
H1451 C1431 0.930 . S
H1452 C1437 0.929 . S
H1453 C1438 0.930 . S
H1454 C1459 0.930 . S
H1455 C1434 0.930 . S
H1456 C1467 0.931 . S
N1457 Tb1428 2.617 . S
N1457 C1458 1.379 . S
N1457 C1461 1.334 . S
C1458 N1457 1.379 . S
C1458 C1460 1.416 . S
C1458 C1466 1.424 . S
C1459 H1454 0.930 . S
C1459 C1461 1.390 . S
C1459 C1462 1.339 . S
C1460 C1458 1.416 . S
C1460 C1462 1.416 . S
C1460 C1493 1.448 . S
C1461 H1446 0.930 . S
C1461 N1457 1.334 . S
C1461 C1459 1.390 . S
C1462 C1459 1.339 . S
C1462 C1460 1.416 . S
C1462 H1469 0.930 . S
N1463 Tb1428 2.572 . S
N1463 C1464 1.340 . S
N1463 C1466 1.361 . S
C1464 H1450 0.930 . S
C1464 N1463 1.340 . S
C1464 C1468 1.407 . S
C1465 C1466 1.413 . S
C1465 C1467 1.416 . S
C1465 C1494 1.427 . S
C1466 C1458 1.424 . S
C1466 N1463 1.361 . S
C1466 C1465 1.413 . S
C1467 H1456 0.931 . S
C1467 C1465 1.416 . S
C1467 C1468 1.332 . S
C1468 H1447 0.929 . S
C1468 C1464 1.407 . S
C1468 C1467 1.332 . S
H1469 C1462 0.930 . S
H1470 C1493 0.930 . S
H1471 C1494 0.929 . S
O1472 Tb1428 2.465 . S
O1472 C1492 1.264 . S
O1473 Tb1428 2.387 . S
O1473 C1484 1.264 . S
O1474 Tb1439 2.349 . S
O1474 C1484 1.243 . S
O1475 Tb1428 2.428 . S
O1475 C1492 1.256 . S
O1476 Tb1428 2.308 . S
O1476 C1491 1.266 . S
O1477 Tb1439 2.393 . S
O1477 C1491 1.248 . S
O1478 Tb1439 2.465 . S
O1478 C1503 1.264 . S
O1479 Tb1439 2.387 . S
O1479 C1495 1.264 . S
O1480 Tb1428 2.349 . S
O1480 C1495 1.243 . S
O1481 Tb1439 2.428 . S
O1481 C1503 1.256 . S
O1482 Tb1439 2.308 . S
O1482 C1502 1.266 . S
O1483 Tb1428 2.393 . S
O1483 C1502 1.248 . S
C1484 O1473 1.264 . S
C1484 O1474 1.243 . S
C1485 C1488 1.399 . S
C1485 C1490 1.383 . S
C1485 C1492 1.496 . S
C1486 C1487 1.399 . S
C1486 C1490 1.389 . S
C1487 C1486 1.399 . S
C1487 C1489 1.380 . S
C1487 H1504 0.929 . S
C1488 C1485 1.399 . S
C1488 C1489 1.392 . S
C1488 H1505 0.929 . S
C1489 C1487 1.380 . S
C1489 C1488 1.392 . S
C1489 H1506 0.929 . S
C1490 C1485 1.383 . S
C1490 C1486 1.389 . S
C1490 H1507 0.931 . S
C1491 O1476 1.266 . S
C1491 O1477 1.248 . S
C1492 Tb1428 2.802 . S
C1492 O1472 1.264 . S
C1492 O1475 1.256 . S
C1492 C1485 1.496 . S
C1493 C1460 1.448 . S
C1493 H1470 0.930 . S
C1493 C1494 1.328 . S
C1494 C1465 1.427 . S
C1494 H1471 0.929 . S
C1494 C1493 1.328 . S
C1495 O1479 1.264 . S
C1495 O1480 1.243 . S
C1496 C1499 1.399 . S
C1496 C1500 1.383 . S
C1496 C1503 1.496 . S
C1497 C1498 1.399 . S
C1497 C1500 1.389 . S
C1498 C1497 1.399 . S
C1498 C1501 1.380 . S
C1498 H1508 0.929 . S
C1499 C1496 1.399 . S
C1499 C1501 1.392 . S
C1499 H1509 0.929 . S
C1500 C1496 1.383 . S
C1500 C1497 1.389 . S
C1500 H1510 0.931 . S
C1501 C1498 1.380 . S
C1501 C1499 1.392 . S
C1501 H1511 0.929 . S
C1502 O1482 1.266 . S
C1502 O1483 1.248 . S
C1503 Tb1439 2.802 . S
C1503 O1478 1.264 . S
C1503 O1481 1.256 . S
C1503 C1496 1.496 . S
H1504 C1487 0.929 . S
H1505 C1488 0.929 . S
H1506 C1489 0.929 . S
H1507 C1490 0.931 . S
H1508 C1498 0.929 . S
H1509 C1499 0.929 . S
H1510 C1500 0.931 . S
H1511 C1501 0.929 . S
Tb1512 N1541 2.617 . S
Tb1512 N1547 2.572 . S
Tb1512 O1556 2.465 . S
Tb1512 O1557 2.387 . S
Tb1512 O1559 2.428 . S
Tb1512 O1560 2.308 . S
Tb1512 O1564 2.349 . S
Tb1512 O1567 2.393 . S
Tb1512 C1576 2.802 . S
C1513 N1514 1.379 . S
C1513 C1516 1.416 . S
C1513 C1520 1.424 1_554 S
N1514 C1513 1.379 . S
N1514 C1517 1.334 . S
N1514 Tb1523 2.617 . S
C1515 C1517 1.390 . S
C1515 C1518 1.339 . S
C1515 H1535 0.930 . S
C1516 C1513 1.416 . S
C1516 C1518 1.416 . S
C1516 C1522 1.448 . S
C1517 N1514 1.334 . S
C1517 C1515 1.390 . S
C1517 H1528 0.930 . S
C1518 C1515 1.339 . S
C1518 C1516 1.416 . S
C1518 H1539 0.930 . S
C1519 C1520 1.413 . S
C1519 C1521 1.427 . S
C1519 C1525 1.416 . S
C1520 C1513 1.424 1_556 S
C1520 C1519 1.413 . S
C1520 N1524 1.361 . S
C1521 C1519 1.427 . S
C1521 C1522 1.328 1_556 S
C1521 H1536 0.929 . S
C1522 C1516 1.448 . S
C1522 C1521 1.328 1_554 S
C1522 H1537 0.930 . S
Tb1523 N1514 2.617 . S
Tb1523 N1524 2.572 1_554 S
Tb1523 O1558 2.349 . S
Tb1523 O1561 2.393 . S
Tb1523 O1562 2.465 . S
Tb1523 O1563 2.387 1_554 S
Tb1523 O1565 2.428 . S
Tb1523 O1566 2.308 1_554 S
Tb1523 C1587 2.802 . S
N1524 C1520 1.361 . S
N1524 Tb1523 2.572 1_556 S
N1524 C1526 1.340 . S
C1525 C1519 1.416 . S
C1525 C1527 1.332 . S
C1525 H1533 0.931 . S
C1526 N1524 1.340 . S
C1526 C1527 1.407 . S
C1526 H1532 0.930 . S
C1527 C1525 1.332 . S
C1527 C1526 1.407 . S
C1527 H1529 0.929 . S
H1528 C1517 0.930 . S
H1529 C1527 0.929 . S
H1530 C1545 0.930 . S
H1531 C1552 0.929 . S
H1532 C1526 0.930 . S
H1533 C1525 0.931 . S
H1534 C1548 0.930 . S
H1535 C1515 0.930 . S
H1536 C1521 0.929 . S
H1537 C1522 0.930 . S
H1538 C1543 0.930 . S
H1539 C1518 0.930 . S
H1540 C1551 0.931 . S
N1541 Tb1512 2.617 . S
N1541 C1542 1.379 . S
N1541 C1545 1.334 . S
C1542 N1541 1.379 . S
C1542 C1544 1.416 . S
C1542 C1550 1.424 . S
C1543 H1538 0.930 . S
C1543 C1545 1.390 . S
C1543 C1546 1.339 . S
C1544 C1542 1.416 . S
C1544 C1546 1.416 . S
C1544 C1577 1.448 . S
C1545 H1530 0.930 . S
C1545 N1541 1.334 . S
C1545 C1543 1.390 . S
C1546 C1543 1.339 . S
C1546 C1544 1.416 . S
C1546 H1553 0.930 . S
N1547 Tb1512 2.572 . S
N1547 C1548 1.340 . S
N1547 C1550 1.361 . S
C1548 H1534 0.930 . S
C1548 N1547 1.340 . S
C1548 C1552 1.407 . S
C1549 C1550 1.413 . S
C1549 C1551 1.416 . S
C1549 C1578 1.427 . S
C1550 C1542 1.424 . S
C1550 N1547 1.361 . S
C1550 C1549 1.413 . S
C1551 H1540 0.931 . S
C1551 C1549 1.416 . S
C1551 C1552 1.332 . S
C1552 H1531 0.929 . S
C1552 C1548 1.407 . S
C1552 C1551 1.332 . S
H1553 C1546 0.930 . S
H1554 C1577 0.930 . S
H1555 C1578 0.929 . S
O1556 Tb1512 2.465 . S
O1556 C1576 1.264 . S
O1557 Tb1512 2.387 . S
O1557 C1568 1.264 1_556 S
O1558 Tb1523 2.349 . S
O1558 C1568 1.243 . S
O1559 Tb1512 2.428 . S
O1559 C1576 1.256 . S
O1560 Tb1512 2.308 . S
O1560 C1575 1.304 . S
O1561 Tb1523 2.393 . S
O1561 C1575 1.215 1_554 S
O1562 Tb1523 2.465 . S
O1562 C1587 1.264 . S
O1563 Tb1523 2.387 1_556 S
O1563 C1579 1.264 . S
O1564 Tb1512 2.349 . S
O1564 C1579 1.243 . S
O1565 Tb1523 2.428 . S
O1565 C1587 1.256 . S
O1566 Tb1523 2.308 1_556 S
O1566 C1586 1.266 . S
O1567 Tb1512 2.393 . S
O1567 C1586 1.248 . S
C1568 O1557 1.264 1_554 S
C1568 O1558 1.243 . S
C1569 C1572 1.399 . S
C1569 C1574 1.383 . S
C1569 C1576 1.496 . S
C1570 C1571 1.399 . S
C1570 C1574 1.389 . S
C1571 C1570 1.399 . S
C1571 C1573 1.380 . S
C1571 H1588 0.929 . S
C1572 C1569 1.399 . S
C1572 C1573 1.392 . S
C1572 H1589 0.929 . S
C1573 C1571 1.380 . S
C1573 C1572 1.392 . S
C1573 H1590 0.929 . S
C1574 C1569 1.383 . S
C1574 C1570 1.389 . S
C1574 H1591 0.931 . S
C1575 O1560 1.304 . S
C1575 O1561 1.215 1_556 S
C1576 Tb1512 2.802 . S
C1576 O1556 1.264 . S
C1576 O1559 1.256 . S
C1576 C1569 1.496 . S
C1577 C1544 1.448 . S
C1577 H1554 0.930 . S
C1577 C1578 1.328 . S
C1578 C1549 1.427 . S
C1578 H1555 0.929 . S
C1578 C1577 1.328 . S
C1579 O1563 1.264 . S
C1579 O1564 1.243 . S
C1580 C1583 1.399 . S
C1580 C1584 1.383 . S
C1580 C1587 1.496 . S
C1581 C1582 1.399 . S
C1581 C1584 1.389 . S
C1582 C1581 1.399 . S
C1582 C1585 1.380 . S
C1582 H1592 0.929 . S
C1583 C1580 1.399 . S
C1583 C1585 1.392 . S
C1583 H1593 0.929 . S
C1584 C1580 1.383 . S
C1584 C1581 1.389 . S
C1584 H1594 0.931 . S
C1585 C1582 1.380 . S
C1585 C1583 1.392 . S
C1585 H1595 0.929 . S
C1586 O1566 1.266 . S
C1586 O1567 1.248 . S
C1587 Tb1523 2.802 . S
C1587 O1562 1.264 . S
C1587 O1565 1.256 . S
C1587 C1580 1.496 . S
H1588 C1571 0.929 . S
H1589 C1572 0.929 . S
H1590 C1573 0.929 . S
H1591 C1574 0.931 . S
H1592 C1582 0.929 . S
H1593 C1583 0.929 . S
H1594 C1584 0.931 . S
H1595 C1585 0.929 . S
Tb1596 N1625 2.617 . S
Tb1596 N1631 2.572 . S
Tb1596 O1640 2.465 . S
Tb1596 O1641 2.388 . S
Tb1596 O1643 2.428 . S
Tb1596 O1644 2.308 . S
Tb1596 O1648 2.349 1_455 S
Tb1596 O1651 2.393 1_455 S
Tb1596 C1660 2.802 . S
C1597 N1598 1.379 . S
C1597 C1600 1.416 . S
C1597 C1604 1.424 . S
N1598 C1597 1.379 . S
N1598 C1601 1.334 . S
N1598 Tb1607 2.617 . S
C1599 C1601 1.390 . S
C1599 C1602 1.339 . S
C1599 H1619 0.930 . S
C1600 C1597 1.416 . S
C1600 C1602 1.416 . S
C1600 C1606 1.448 . S
C1601 N1598 1.334 . S
C1601 C1599 1.390 . S
C1601 H1612 0.930 . S
C1602 C1599 1.339 . S
C1602 C1600 1.416 . S
C1602 H1623 0.930 . S
C1603 C1604 1.413 . S
C1603 C1605 1.427 . S
C1603 C1609 1.416 . S
C1604 C1597 1.424 . S
C1604 C1603 1.413 . S
C1604 N1608 1.361 . S
C1605 C1603 1.427 . S
C1605 C1606 1.328 . S
C1605 H1620 0.929 . S
C1606 C1600 1.448 . S
C1606 C1605 1.328 . S
C1606 H1621 0.930 . S
Tb1607 N1598 2.617 . S
Tb1607 N1608 2.572 . S
Tb1607 O1642 2.349 . S
Tb1607 O1645 2.393 . S
Tb1607 O1646 2.465 . S
Tb1607 O1647 2.387 . S
Tb1607 O1649 2.428 . S
Tb1607 O1650 2.308 . S
Tb1607 C1671 2.802 . S
N1608 C1604 1.361 . S
N1608 Tb1607 2.572 . S
N1608 C1610 1.340 . S
C1609 C1603 1.416 . S
C1609 C1611 1.332 . S
C1609 H1617 0.931 . S
C1610 N1608 1.340 . S
C1610 C1611 1.407 . S
C1610 H1616 0.930 . S
C1611 C1609 1.332 . S
C1611 C1610 1.407 . S
C1611 H1613 0.929 . S
H1612 C1601 0.930 . S
H1613 C1611 0.929 . S
H1614 C1629 0.921 1_655 S
H1615 C1636 0.929 . S
H1616 C1610 0.930 . S
H1617 C1609 0.931 . S
H1618 C1632 0.930 . S
H1619 C1599 0.930 . S
H1620 C1605 0.929 . S
H1621 C1606 0.930 . S
H1622 C1627 0.930 1_655 S
H1623 C1602 0.930 . S
H1624 C1635 0.931 . S
N1625 Tb1596 2.617 . S
N1625 C1626 1.379 . S
N1625 C1629 1.341 . S
C1626 N1625 1.379 . S
C1626 C1628 1.416 . S
C1626 C1634 1.424 . S
C1627 H1622 0.930 1_455 S
C1627 C1629 1.392 . S
C1627 C1630 1.339 . S
C1628 C1626 1.416 . S
C1628 C1630 1.416 . S
C1628 C1661 1.448 . S
C1629 H1614 0.921 1_455 S
C1629 N1625 1.341 . S
C1629 C1627 1.392 . S
C1630 C1627 1.339 . S
C1630 C1628 1.416 . S
C1630 H1637 0.930 . S
N1631 Tb1596 2.572 . S
N1631 C1632 1.340 . S
N1631 C1634 1.361 . S
C1632 H1618 0.930 . S
C1632 N1631 1.340 . S
C1632 C1636 1.407 . S
C1633 C1634 1.413 . S
C1633 C1635 1.416 . S
C1633 C1662 1.427 . S
C1634 C1626 1.424 . S
C1634 N1631 1.361 . S
C1634 C1633 1.413 . S
C1635 H1624 0.931 . S
C1635 C1633 1.416 . S
C1635 C1636 1.332 . S
C1636 H1615 0.929 . S
C1636 C1632 1.407 . S
C1636 C1635 1.332 . S
H1637 C1630 0.930 . S
H1638 C1661 0.930 . S
H1639 C1662 0.929 . S
O1640 Tb1596 2.465 . S
O1640 C1660 1.264 . S
O1641 Tb1596 2.388 . S
O1641 C1652 1.260 1_455 S
O1642 Tb1607 2.349 . S
O1642 C1652 1.243 . S
O1643 Tb1596 2.428 . S
O1643 C1660 1.256 . S
O1644 Tb1596 2.308 . S
O1644 C1659 1.266 . S
O1645 Tb1607 2.393 . S
O1645 C1659 1.248 1_655 S
O1646 Tb1607 2.465 . S
O1646 C1671 1.264 . S
O1647 Tb1607 2.387 . S
O1647 C1663 1.264 . S
O1648 Tb1596 2.349 1_655 S
O1648 C1663 1.243 . S
O1649 Tb1607 2.428 . S
O1649 C1671 1.256 . S
O1650 Tb1607 2.308 . S
O1650 C1670 1.266 . S
O1651 Tb1596 2.393 1_655 S
O1651 C1670 1.248 . S
C1652 O1641 1.260 1_655 S
C1652 O1642 1.243 . S
C1653 C1656 1.399 . S
C1653 C1658 1.383 . S
C1653 C1660 1.496 . S
C1654 C1655 1.399 . S
C1654 C1658 1.389 . S
C1655 C1654 1.399 . S
C1655 C1657 1.380 . S
C1655 H1672 0.929 . S
C1656 C1653 1.399 . S
C1656 C1657 1.392 . S
C1656 H1673 0.929 . S
C1657 C1655 1.380 . S
C1657 C1656 1.392 . S
C1657 H1674 0.929 . S
C1658 C1653 1.383 . S
C1658 C1654 1.389 . S
C1658 H1675 0.931 . S
C1659 O1644 1.266 . S
C1659 O1645 1.248 1_455 S
C1660 Tb1596 2.802 . S
C1660 O1640 1.264 . S
C1660 O1643 1.256 . S
C1660 C1653 1.496 . S
C1661 C1628 1.448 . S
C1661 H1638 0.930 . S
C1661 C1662 1.328 . S
C1662 C1633 1.427 . S
C1662 H1639 0.929 . S
C1662 C1661 1.328 . S
C1663 O1647 1.264 . S
C1663 O1648 1.243 . S
C1664 C1667 1.399 . S
C1664 C1668 1.383 . S
C1664 C1671 1.496 . S
C1665 C1666 1.399 . S
C1665 C1668 1.389 . S
C1666 C1665 1.399 . S
C1666 C1669 1.380 . S
C1666 H1676 0.929 . S
C1667 C1664 1.399 . S
C1667 C1669 1.392 . S
C1667 H1677 0.929 . S
C1668 C1664 1.383 . S
C1668 C1665 1.389 . S
C1668 H1678 0.931 . S
C1669 C1666 1.380 . S
C1669 C1667 1.392 . S
C1669 H1679 0.929 . S
C1670 O1650 1.266 . S
C1670 O1651 1.248 . S
C1671 Tb1607 2.802 . S
C1671 O1646 1.264 . S
C1671 O1649 1.256 . S
C1671 C1664 1.496 . S
H1672 C1655 0.929 . S
H1673 C1656 0.929 . S
H1674 C1657 0.929 . S
H1675 C1658 0.931 . S
H1676 C1666 0.929 . S
H1677 C1667 0.929 . S
H1678 C1668 0.931 . S
H1679 C1669 0.929 . S
Tb1680 N1709 2.617 . S
Tb1680 N1715 2.572 . S
Tb1680 O1724 2.465 . S
Tb1680 O1725 2.387 . S
Tb1680 O1727 2.428 . S
Tb1680 O1728 2.308 . S
Tb1680 O1732 2.349 . S
Tb1680 O1735 2.393 . S
Tb1680 C1744 2.802 . S
C1681 N1682 1.379 . S
C1681 C1684 1.416 . S
C1681 C1688 1.424 . S
N1682 C1681 1.379 . S
N1682 C1685 1.334 . S
N1682 Tb1691 2.617 . S
C1683 C1685 1.390 . S
C1683 C1686 1.339 . S
C1683 H1703 0.930 . S
C1684 C1681 1.416 . S
C1684 C1686 1.416 . S
C1684 C1690 1.448 . S
C1685 N1682 1.334 . S
C1685 C1683 1.390 . S
C1685 H1696 0.930 . S
C1686 C1683 1.339 . S
C1686 C1684 1.416 . S
C1686 H1707 0.930 . S
C1687 C1688 1.413 . S
C1687 C1689 1.427 . S
C1687 C1693 1.416 . S
C1688 C1681 1.424 . S
C1688 C1687 1.413 . S
C1688 N1692 1.361 . S
C1689 C1687 1.427 . S
C1689 C1690 1.328 . S
C1689 H1704 0.929 . S
C1690 C1684 1.448 . S
C1690 C1689 1.328 . S
C1690 H1705 0.930 . S
Tb1691 N1682 2.617 . S
Tb1691 N1692 2.572 . S
Tb1691 O1726 2.349 . S
Tb1691 O1729 2.393 . S
Tb1691 O1730 2.465 . S
Tb1691 O1731 2.387 . S
Tb1691 O1733 2.428 . S
Tb1691 O1734 2.308 . S
Tb1691 C1755 2.802 . S
N1692 C1688 1.361 . S
N1692 Tb1691 2.572 . S
N1692 C1694 1.340 . S
C1693 C1687 1.416 . S
C1693 C1695 1.332 . S
C1693 H1701 0.931 . S
C1694 N1692 1.340 . S
C1694 C1695 1.407 . S
C1694 H1700 0.930 . S
C1695 C1693 1.332 . S
C1695 C1694 1.407 . S
C1695 H1697 0.929 . S
H1696 C1685 0.930 . S
H1697 C1695 0.929 . S
H1698 C1713 0.930 . S
H1699 C1720 0.929 . S
H1700 C1694 0.930 . S
H1701 C1693 0.931 . S
H1702 C1716 0.930 . S
H1703 C1683 0.930 . S
H1704 C1689 0.929 . S
H1705 C1690 0.930 . S
H1706 C1711 0.930 . S
H1707 C1686 0.930 . S
H1708 C1719 0.931 . S
N1709 Tb1680 2.617 . S
N1709 C1710 1.379 . S
N1709 C1713 1.334 . S
C1710 N1709 1.379 . S
C1710 C1712 1.416 . S
C1710 C1718 1.424 . S
C1711 H1706 0.930 . S
C1711 C1713 1.390 . S
C1711 C1714 1.339 . S
C1712 C1710 1.416 . S
C1712 C1714 1.416 . S
C1712 C1745 1.448 . S
C1713 H1698 0.930 . S
C1713 N1709 1.334 . S
C1713 C1711 1.390 . S
C1714 C1711 1.339 . S
C1714 C1712 1.416 . S
C1714 H1721 0.930 . S
N1715 Tb1680 2.572 . S
N1715 C1716 1.340 . S
N1715 C1718 1.361 . S
C1716 H1702 0.930 . S
C1716 N1715 1.340 . S
C1716 C1720 1.407 . S
C1717 C1718 1.413 . S
C1717 C1719 1.416 . S
C1717 C1746 1.427 . S
C1718 C1710 1.424 . S
C1718 N1715 1.361 . S
C1718 C1717 1.413 . S
C1719 H1708 0.931 . S
C1719 C1717 1.416 . S
C1719 C1720 1.332 . S
C1720 H1699 0.929 . S
C1720 C1716 1.407 . S
C1720 C1719 1.332 . S
H1721 C1714 0.930 . S
H1722 C1745 0.930 . S
H1723 C1746 0.929 . S
O1724 Tb1680 2.465 . S
O1724 C1744 1.264 . S
O1725 Tb1680 2.387 . S
O1725 C1736 1.264 . S
O1726 Tb1691 2.349 . S
O1726 C1736 1.243 . S
O1727 Tb1680 2.428 . S
O1727 C1744 1.256 . S
O1728 Tb1680 2.308 . S
O1728 C1743 1.266 . S
O1729 Tb1691 2.393 . S
O1729 C1743 1.248 . S
O1730 Tb1691 2.465 . S
O1730 C1755 1.264 . S
O1731 Tb1691 2.387 . S
O1731 C1747 1.264 . S
O1732 Tb1680 2.349 . S
O1732 C1747 1.243 . S
O1733 Tb1691 2.428 . S
O1733 C1755 1.256 . S
O1734 Tb1691 2.308 . S
O1734 C1754 1.266 . S
O1735 Tb1680 2.393 . S
O1735 C1754 1.248 . S
C1736 O1725 1.264 . S
C1736 O1726 1.243 . S
C1737 C1740 1.399 . S
C1737 C1742 1.383 . S
C1737 C1744 1.496 . S
C1738 C1739 1.399 . S
C1738 C1742 1.389 . S
C1739 C1738 1.399 . S
C1739 C1741 1.380 . S
C1739 H1756 0.929 . S
C1740 C1737 1.399 . S
C1740 C1741 1.392 . S
C1740 H1757 0.929 . S
C1741 C1739 1.380 . S
C1741 C1740 1.392 . S
C1741 H1758 0.929 . S
C1742 C1737 1.383 . S
C1742 C1738 1.389 . S
C1742 H1759 0.931 . S
C1743 O1728 1.266 . S
C1743 O1729 1.248 . S
C1744 Tb1680 2.802 . S
C1744 O1724 1.264 . S
C1744 O1727 1.256 . S
C1744 C1737 1.496 . S
C1745 C1712 1.448 . S
C1745 H1722 0.930 . S
C1745 C1746 1.328 . S
C1746 C1717 1.427 . S
C1746 H1723 0.929 . S
C1746 C1745 1.328 . S
C1747 O1731 1.264 . S
C1747 O1732 1.243 . S
C1748 C1751 1.399 . S
C1748 C1752 1.383 . S
C1748 C1755 1.496 . S
C1749 C1750 1.399 . S
C1749 C1752 1.389 . S
C1750 C1749 1.399 . S
C1750 C1753 1.380 . S
C1750 H1760 0.929 . S
C1751 C1748 1.399 . S
C1751 C1753 1.392 . S
C1751 H1761 0.929 . S
C1752 C1748 1.383 . S
C1752 C1749 1.389 . S
C1752 H1762 0.931 . S
C1753 C1750 1.380 . S
C1753 C1751 1.392 . S
C1753 H1763 0.929 . S
C1754 O1734 1.266 . S
C1754 O1735 1.248 . S
C1755 Tb1691 2.802 . S
C1755 O1730 1.264 . S
C1755 O1733 1.256 . S
C1755 C1748 1.496 . S
H1756 C1739 0.929 . S
H1757 C1740 0.929 . S
H1758 C1741 0.929 . S
H1759 C1742 0.931 . S
H1760 C1750 0.929 . S
H1761 C1751 0.929 . S
H1762 C1752 0.931 . S
H1763 C1753 0.929 . S
Tb1764 N1793 2.617 . S
Tb1764 N1799 2.572 . S
Tb1764 O1808 2.465 . S
Tb1764 O1809 2.387 . S
Tb1764 O1811 2.428 . S
Tb1764 O1812 2.308 . S
Tb1764 O1816 2.349 . S
Tb1764 O1819 2.393 . S
Tb1764 C1828 2.802 . S
C1765 N1766 1.379 . S
C1765 C1768 1.416 . S
C1765 C1772 1.424 . S
N1766 C1765 1.379 . S
N1766 C1769 1.334 . S
N1766 Tb1775 2.617 . S
C1767 C1769 1.390 . S
C1767 C1770 1.339 . S
C1767 H1787 0.930 . S
C1768 C1765 1.416 . S
C1768 C1770 1.416 . S
C1768 C1774 1.448 . S
C1769 N1766 1.334 . S
C1769 C1767 1.390 . S
C1769 H1780 0.930 . S
C1770 C1767 1.339 . S
C1770 C1768 1.416 . S
C1770 H1791 0.930 . S
C1771 C1772 1.413 . S
C1771 C1773 1.427 . S
C1771 C1777 1.416 . S
C1772 C1765 1.424 . S
C1772 C1771 1.413 . S
C1772 N1776 1.361 . S
C1773 C1771 1.427 . S
C1773 C1774 1.328 . S
C1773 H1788 0.929 . S
C1774 C1768 1.448 . S
C1774 C1773 1.328 . S
C1774 H1789 0.930 . S
Tb1775 N1766 2.617 . S
Tb1775 N1776 2.572 . S
Tb1775 O1810 2.349 . S
Tb1775 O1813 2.393 . S
Tb1775 O1814 2.465 . S
Tb1775 O1815 2.387 . S
Tb1775 O1817 2.428 . S
Tb1775 O1818 2.308 . S
Tb1775 C1839 2.802 . S
N1776 C1772 1.361 . S
N1776 Tb1775 2.572 . S
N1776 C1778 1.340 . S
C1777 C1771 1.416 . S
C1777 C1779 1.332 . S
C1777 H1785 0.931 . S
C1778 N1776 1.340 . S
C1778 C1779 1.407 . S
C1778 H1784 0.930 . S
C1779 C1777 1.332 . S
C1779 C1778 1.407 . S
C1779 H1781 0.929 . S
H1780 C1769 0.930 . S
H1781 C1779 0.929 . S
H1782 C1797 0.930 . S
H1783 C1804 0.929 . S
H1784 C1778 0.930 . S
H1785 C1777 0.931 . S
H1786 C1800 0.930 . S
H1787 C1767 0.930 . S
H1788 C1773 0.929 . S
H1789 C1774 0.930 . S
H1790 C1795 0.930 . S
H1791 C1770 0.930 . S
H1792 C1803 0.931 . S
N1793 Tb1764 2.617 . S
N1793 C1794 1.379 . S
N1793 C1797 1.334 . S
C1794 N1793 1.379 . S
C1794 C1796 1.416 . S
C1794 C1802 1.424 . S
C1795 H1790 0.930 . S
C1795 C1797 1.390 . S
C1795 C1798 1.339 . S
C1796 C1794 1.416 . S
C1796 C1798 1.416 . S
C1796 C1829 1.448 . S
C1797 H1782 0.930 . S
C1797 N1793 1.334 . S
C1797 C1795 1.390 . S
C1798 C1795 1.339 . S
C1798 C1796 1.416 . S
C1798 H1805 0.930 . S
N1799 Tb1764 2.572 . S
N1799 C1800 1.340 . S
N1799 C1802 1.361 . S
C1800 H1786 0.930 . S
C1800 N1799 1.340 . S
C1800 C1804 1.407 . S
C1801 C1802 1.413 . S
C1801 C1803 1.416 . S
C1801 C1830 1.427 . S
C1802 C1794 1.424 . S
C1802 N1799 1.361 . S
C1802 C1801 1.413 . S
C1803 H1792 0.931 . S
C1803 C1801 1.416 . S
C1803 C1804 1.332 . S
C1804 H1783 0.929 . S
C1804 C1800 1.407 . S
C1804 C1803 1.332 . S
H1805 C1798 0.930 . S
H1806 C1829 0.930 . S
H1807 C1830 0.929 . S
O1808 Tb1764 2.465 . S
O1808 C1828 1.264 . S
O1809 Tb1764 2.387 . S
O1809 C1820 1.264 . S
O1810 Tb1775 2.349 . S
O1810 C1820 1.243 . S
O1811 Tb1764 2.428 . S
O1811 C1828 1.256 . S
O1812 Tb1764 2.308 . S
O1812 C1827 1.266 . S
O1813 Tb1775 2.393 . S
O1813 C1827 1.248 . S
O1814 Tb1775 2.465 . S
O1814 C1839 1.264 . S
O1815 Tb1775 2.387 . S
O1815 C1831 1.264 . S
O1816 Tb1764 2.349 . S
O1816 C1831 1.243 . S
O1817 Tb1775 2.428 . S
O1817 C1839 1.256 . S
O1818 Tb1775 2.308 . S
O1818 C1838 1.266 . S
O1819 Tb1764 2.393 . S
O1819 C1838 1.248 . S
C1820 O1809 1.264 . S
C1820 O1810 1.243 . S
C1821 C1824 1.399 . S
C1821 C1826 1.383 . S
C1821 C1828 1.496 . S
C1822 C1823 1.399 . S
C1822 C1826 1.389 . S
C1823 C1822 1.399 . S
C1823 C1825 1.380 . S
C1823 H1840 0.929 . S
C1824 C1821 1.399 . S
C1824 C1825 1.392 . S
C1824 H1841 0.929 . S
C1825 C1823 1.380 . S
C1825 C1824 1.392 . S
C1825 H1842 0.929 . S
C1826 C1821 1.383 . S
C1826 C1822 1.389 . S
C1826 H1843 0.931 . S
C1827 O1812 1.266 . S
C1827 O1813 1.248 . S
C1828 Tb1764 2.802 . S
C1828 O1808 1.264 . S
C1828 O1811 1.256 . S
C1828 C1821 1.496 . S
C1829 C1796 1.448 . S
C1829 H1806 0.930 . S
C1829 C1830 1.328 . S
C1830 C1801 1.427 . S
C1830 H1807 0.929 . S
C1830 C1829 1.328 . S
C1831 O1815 1.264 . S
C1831 O1816 1.243 . S
C1832 C1835 1.399 . S
C1832 C1836 1.383 . S
C1832 C1839 1.496 . S
C1833 C1834 1.399 . S
C1833 C1836 1.389 . S
C1834 C1833 1.399 . S
C1834 C1837 1.380 . S
C1834 H1844 0.929 . S
C1835 C1832 1.399 . S
C1835 C1837 1.392 . S
C1835 H1845 0.929 . S
C1836 C1832 1.383 . S
C1836 C1833 1.389 . S
C1836 H1846 0.931 . S
C1837 C1834 1.380 . S
C1837 C1835 1.392 . S
C1837 H1847 0.929 . S
C1838 O1818 1.266 . S
C1838 O1819 1.248 . S
C1839 Tb1775 2.802 . S
C1839 O1814 1.264 . S
C1839 O1817 1.256 . S
C1839 C1832 1.496 . S
H1840 C1823 0.929 . S
H1841 C1824 0.929 . S
H1842 C1825 0.929 . S
H1843 C1826 0.931 . S
H1844 C1834 0.929 . S
H1845 C1835 0.929 . S
H1846 C1836 0.931 . S
H1847 C1837 0.929 . S
Tb1848 N1877 2.617 . S
Tb1848 N1883 2.572 . S
Tb1848 O1892 2.465 . S
Tb1848 O1893 2.387 . S
Tb1848 O1895 2.428 . S
Tb1848 O1896 2.308 . S
Tb1848 O1900 2.349 . S
Tb1848 O1903 2.393 . S
Tb1848 C1912 2.802 . S
C1849 N1850 1.379 . S
C1849 C1852 1.416 . S
C1849 C1856 1.424 1_556 S
N1850 C1849 1.379 . S
N1850 C1853 1.334 . S
N1850 Tb1859 2.617 . S
C1851 C1853 1.390 . S
C1851 C1854 1.339 . S
C1851 H1871 0.930 . S
C1852 C1849 1.416 . S
C1852 C1854 1.416 . S
C1852 C1858 1.448 . S
C1853 N1850 1.334 . S
C1853 C1851 1.390 . S
C1853 H1864 0.930 . S
C1854 C1851 1.339 . S
C1854 C1852 1.416 . S
C1854 H1875 0.930 . S
C1855 C1856 1.413 . S
C1855 C1857 1.427 . S
C1855 C1861 1.416 . S
C1856 C1849 1.424 1_554 S
C1856 C1855 1.413 . S
C1856 N1860 1.361 . S
C1857 C1855 1.427 . S
C1857 C1858 1.328 1_554 S
C1857 H1872 0.929 . S
C1858 C1852 1.448 . S
C1858 C1857 1.328 1_556 S
C1858 H1873 0.930 . S
Tb1859 N1850 2.617 . S
Tb1859 N1860 2.572 1_556 S
Tb1859 O1894 2.349 . S
Tb1859 O1897 2.393 . S
Tb1859 O1898 2.465 . S
Tb1859 O1899 2.387 1_556 S
Tb1859 O1901 2.428 . S
Tb1859 O1902 2.308 1_556 S
Tb1859 C1923 2.802 . S
N1860 C1856 1.361 . S
N1860 Tb1859 2.572 1_554 S
N1860 C1862 1.340 . S
C1861 C1855 1.416 . S
C1861 C1863 1.332 . S
C1861 H1869 0.931 . S
C1862 N1860 1.340 . S
C1862 C1863 1.407 . S
C1862 H1868 0.930 . S
C1863 C1861 1.332 . S
C1863 C1862 1.407 . S
C1863 H1865 0.929 . S
H1864 C1853 0.930 . S
H1865 C1863 0.929 . S
H1866 C1881 0.930 . S
H1867 C1888 0.929 . S
H1868 C1862 0.930 . S
H1869 C1861 0.931 . S
H1870 C1884 0.930 . S
H1871 C1851 0.930 . S
H1872 C1857 0.929 . S
H1873 C1858 0.930 . S
H1874 C1879 0.930 . S
H1875 C1854 0.930 . S
H1876 C1887 0.931 . S
N1877 Tb1848 2.617 . S
N1877 C1878 1.379 . S
N1877 C1881 1.334 . S
C1878 N1877 1.379 . S
C1878 C1880 1.416 . S
C1878 C1886 1.424 . S
C1879 H1874 0.930 . S
C1879 C1881 1.390 . S
C1879 C1882 1.339 . S
C1880 C1878 1.416 . S
C1880 C1882 1.416 . S
C1880 C1913 1.448 . S
C1881 H1866 0.930 . S
C1881 N1877 1.334 . S
C1881 C1879 1.390 . S
C1882 C1879 1.339 . S
C1882 C1880 1.416 . S
C1882 H1889 0.930 . S
N1883 Tb1848 2.572 . S
N1883 C1884 1.340 . S
N1883 C1886 1.361 . S
C1884 H1870 0.930 . S
C1884 N1883 1.340 . S
C1884 C1888 1.407 . S
C1885 C1886 1.413 . S
C1885 C1887 1.416 . S
C1885 C1914 1.427 . S
C1886 C1878 1.424 . S
C1886 N1883 1.361 . S
C1886 C1885 1.413 . S
C1887 H1876 0.931 . S
C1887 C1885 1.416 . S
C1887 C1888 1.332 . S
C1888 H1867 0.929 . S
C1888 C1884 1.407 . S
C1888 C1887 1.332 . S
H1889 C1882 0.930 . S
H1890 C1913 0.930 . S
H1891 C1914 0.929 . S
O1892 Tb1848 2.465 . S
O1892 C1912 1.264 . S
O1893 Tb1848 2.387 . S
O1893 C1904 1.264 1_554 S
O1894 Tb1859 2.349 . S
O1894 C1904 1.243 . S
O1895 Tb1848 2.428 . S
O1895 C1912 1.256 . S
O1896 Tb1848 2.308 . S
O1896 C1911 1.258 1_554 S
O1897 Tb1859 2.393 . S
O1897 C1911 1.255 . S
O1898 Tb1859 2.465 . S
O1898 C1923 1.264 . S
O1899 Tb1859 2.387 1_554 S
O1899 C1915 1.264 . S
O1900 Tb1848 2.349 . S
O1900 C1915 1.243 . S
O1901 Tb1859 2.428 . S
O1901 C1923 1.256 . S
O1902 Tb1859 2.308 1_554 S
O1902 C1922 1.266 . S
O1903 Tb1848 2.393 . S
O1903 C1922 1.248 . S
C1904 O1893 1.264 1_556 S
C1904 O1894 1.243 . S
C1905 C1908 1.399 . S
C1905 C1910 1.383 . S
C1905 C1912 1.496 . S
C1906 C1907 1.399 . S
C1906 C1910 1.389 . S
C1907 C1906 1.399 . S
C1907 C1909 1.380 . S
C1907 H1924 0.929 . S
C1908 C1905 1.399 . S
C1908 C1909 1.392 . S
C1908 H1925 0.929 . S
C1909 C1907 1.380 . S
C1909 C1908 1.392 . S
C1909 H1926 0.929 . S
C1910 C1905 1.383 . S
C1910 C1906 1.389 . S
C1910 H1927 0.931 . S
C1911 O1896 1.258 1_556 S
C1911 O1897 1.255 . S
C1912 Tb1848 2.802 . S
C1912 O1892 1.264 . S
C1912 O1895 1.256 . S
C1912 C1905 1.496 . S
C1913 C1880 1.448 . S
C1913 H1890 0.930 . S
C1913 C1914 1.328 . S
C1914 C1885 1.427 . S
C1914 H1891 0.929 . S
C1914 C1913 1.328 . S
C1915 O1899 1.264 . S
C1915 O1900 1.243 . S
C1916 C1919 1.399 . S
C1916 C1920 1.383 . S
C1916 C1923 1.496 . S
C1917 C1918 1.399 . S
C1917 C1920 1.389 . S
C1918 C1917 1.399 . S
C1918 C1921 1.380 . S
C1918 H1928 0.929 . S
C1919 C1916 1.399 . S
C1919 C1921 1.392 . S
C1919 H1929 0.929 . S
C1920 C1916 1.383 . S
C1920 C1917 1.389 . S
C1920 H1930 0.931 . S
C1921 C1918 1.380 . S
C1921 C1919 1.392 . S
C1921 H1931 0.929 . S
C1922 O1902 1.266 . S
C1922 O1903 1.248 . S
C1923 Tb1859 2.802 . S
C1923 O1898 1.264 . S
C1923 O1901 1.256 . S
C1923 C1916 1.496 . S
H1924 C1907 0.929 . S
H1925 C1908 0.929 . S
H1926 C1909 0.929 . S
H1927 C1910 0.931 . S
H1928 C1918 0.929 . S
H1929 C1919 0.929 . S
H1930 C1920 0.931 . S
H1931 C1921 0.929 . S
Tb1932 N1961 2.617 . S
Tb1932 N1967 2.572 . S
Tb1932 O1976 2.465 . S
Tb1932 O1977 2.387 . S
Tb1932 O1979 2.428 . S
Tb1932 O1980 2.308 . S
Tb1932 O1984 2.349 . S
Tb1932 O1987 2.393 . S
Tb1932 C1996 2.802 . S
C1933 N1934 1.379 . S
C1933 C1936 1.416 . S
C1933 C1940 1.399 1_545 S
N1934 C1933 1.379 . S
N1934 C1937 1.334 . S
N1934 Tb1943 2.617 . S
C1935 C1937 1.390 . S
C1935 C1938 1.339 . S
C1935 H1955 0.930 . S
C1936 C1933 1.416 . S
C1936 C1938 1.416 . S
C1936 C1942 1.448 . S
C1937 N1934 1.334 . S
C1937 C1935 1.390 . S
C1937 H1948 0.930 . S
C1938 C1935 1.339 . S
C1938 C1936 1.416 . S
C1938 H1959 0.930 . S
C1939 C1940 1.429 . S
C1939 C1941 1.427 . S
C1939 C1945 1.416 . S
C1940 C1933 1.399 1_565 S
C1940 C1939 1.429 . S
C1940 N1944 1.370 . S
C1941 C1939 1.427 . S
C1941 C1942 1.328 1_565 S
C1941 H1956 0.929 . S
C1942 C1936 1.448 . S
C1942 C1941 1.328 1_545 S
C1942 H1957 0.930 . S
Tb1943 N1934 2.617 . S
Tb1943 N1944 2.572 1_545 S
Tb1943 O1978 2.349 . S
Tb1943 O1981 2.393 . S
Tb1943 O1982 2.465 . S
Tb1943 O1983 2.387 1_545 S
Tb1943 O1985 2.428 . S
Tb1943 O1986 2.308 1_545 S
Tb1943 C2007 2.802 . S
N1944 C1940 1.370 . S
N1944 Tb1943 2.572 1_565 S
N1944 C1946 1.340 . S
C1945 C1939 1.416 . S
C1945 C1947 1.332 . S
C1945 H1953 0.931 . S
C1946 N1944 1.340 . S
C1946 C1947 1.407 . S
C1946 H1952 0.930 . S
C1947 C1945 1.332 . S
C1947 C1946 1.407 . S
C1947 H1949 0.929 . S
H1948 C1937 0.930 . S
H1949 C1947 0.929 . S
H1950 C1965 0.930 . S
H1951 C1972 0.929 . S
H1952 C1946 0.930 . S
H1953 C1945 0.931 . S
H1954 C1968 0.930 . S
H1955 C1935 0.930 . S
H1956 C1941 0.929 . S
H1957 C1942 0.930 . S
H1958 C1963 0.930 . S
H1959 C1938 0.930 . S
H1960 C1971 0.931 . S
N1961 Tb1932 2.617 . S
N1961 C1962 1.379 . S
N1961 C1965 1.334 . S
C1962 N1961 1.379 . S
C1962 C1964 1.416 . S
C1962 C1970 1.424 . S
C1963 H1958 0.930 . S
C1963 C1965 1.390 . S
C1963 C1966 1.339 . S
C1964 C1962 1.416 . S
C1964 C1966 1.416 . S
C1964 C1997 1.448 . S
C1965 H1950 0.930 . S
C1965 N1961 1.334 . S
C1965 C1963 1.390 . S
C1966 C1963 1.339 . S
C1966 C1964 1.416 . S
C1966 H1973 0.930 . S
N1967 Tb1932 2.572 . S
N1967 C1968 1.340 . S
N1967 C1970 1.361 . S
C1968 H1954 0.930 . S
C1968 N1967 1.340 . S
C1968 C1972 1.407 . S
C1969 C1970 1.413 . S
C1969 C1971 1.416 . S
C1969 C1998 1.427 . S
C1970 C1962 1.424 . S
C1970 N1967 1.361 . S
C1970 C1969 1.413 . S
C1971 H1960 0.931 . S
C1971 C1969 1.416 . S
C1971 C1972 1.332 . S
C1972 H1951 0.929 . S
C1972 C1968 1.407 . S
C1972 C1971 1.332 . S
H1973 C1966 0.930 . S
H1974 C1997 0.930 . S
H1975 C1998 0.929 . S
O1976 Tb1932 2.465 . S
O1976 C1996 1.264 . S
O1977 Tb1932 2.387 . S
O1977 C1988 1.264 1_565 S
O1978 Tb1943 2.349 . S
O1978 C1988 1.243 . S
O1979 Tb1932 2.428 . S
O1979 C1996 1.256 . S
O1980 Tb1932 2.308 . S
O1980 C1995 1.242 1_565 S
O1981 Tb1943 2.393 . S
O1981 C1995 1.271 . S
O1982 Tb1943 2.465 . S
O1982 C2007 1.264 . S
O1983 Tb1943 2.387 1_565 S
O1983 C1999 1.264 . S
O1984 Tb1932 2.349 . S
O1984 C1999 1.243 . S
O1985 Tb1943 2.428 . S
O1985 C2007 1.256 . S
O1986 Tb1943 2.308 1_565 S
O1986 C2006 1.266 . S
O1987 Tb1932 2.393 . S
O1987 C2006 1.248 . S
C1988 O1977 1.264 1_545 S
C1988 O1978 1.243 . S
C1989 C1992 1.399 . S
C1989 C1994 1.383 . S
C1989 C1996 1.496 . S
C1990 C1991 1.399 . S
C1990 C1994 1.389 . S
C1991 C1990 1.399 . S
C1991 C1993 1.380 . S
C1991 H2008 0.929 . S
C1992 C1989 1.399 . S
C1992 C1993 1.392 . S
C1992 H2009 0.929 . S
C1993 C1991 1.380 . S
C1993 C1992 1.392 . S
C1993 H2010 0.929 . S
C1994 C1989 1.383 . S
C1994 C1990 1.389 . S
C1994 H2011 0.931 . S
C1995 O1980 1.242 1_545 S
C1995 O1981 1.271 . S
C1996 Tb1932 2.802 . S
C1996 O1976 1.264 . S
C1996 O1979 1.256 . S
C1996 C1989 1.496 . S
C1997 C1964 1.448 . S
C1997 H1974 0.930 . S
C1997 C1998 1.328 . S
C1998 C1969 1.427 . S
C1998 H1975 0.929 . S
C1998 C1997 1.328 . S
C1999 O1983 1.264 . S
C1999 O1984 1.243 . S
C2000 C2003 1.399 . S
C2000 C2004 1.383 . S
C2000 C2007 1.496 . S
C2001 C2002 1.399 . S
C2001 C2004 1.389 . S
C2002 C2001 1.399 . S
C2002 C2005 1.380 . S
C2002 H2012 0.929 . S
C2003 C2000 1.399 . S
C2003 C2005 1.392 . S
C2003 H2013 0.929 . S
C2004 C2000 1.383 . S
C2004 C2001 1.389 . S
C2004 H2014 0.931 . S
C2005 C2002 1.380 . S
C2005 C2003 1.392 . S
C2005 H2015 0.929 . S
C2006 O1986 1.266 . S
C2006 O1987 1.248 . S
C2007 Tb1943 2.802 . S
C2007 O1982 1.264 . S
C2007 O1985 1.256 . S
C2007 C2000 1.496 . S
H2008 C1991 0.929 . S
H2009 C1992 0.929 . S
H2010 C1993 0.929 . S
H2011 C1994 0.931 . S
H2012 C2002 0.929 . S
H2013 C2003 0.929 . S
H2014 C2004 0.931 . S
H2015 C2005 0.929 . S
Tb2016 N2045 2.617 . S
Tb2016 N2051 2.572 . S
Tb2016 O2060 2.465 . S
Tb2016 O2061 2.387 . S
Tb2016 O2063 2.428 . S
Tb2016 O2064 2.308 . S
Tb2016 O2068 2.349 . S
Tb2016 O2071 2.393 . S
Tb2016 C2080 2.802 . S
C2017 N2018 1.379 . S
C2017 C2020 1.416 . S
C2017 C2024 1.424 1_545 S
N2018 C2017 1.379 . S
N2018 C2021 1.334 . S
N2018 Tb2027 2.617 . S
C2019 C2021 1.390 . S
C2019 C2022 1.339 . S
C2019 H2039 0.930 . S
C2020 C2017 1.416 . S
C2020 C2022 1.416 . S
C2020 C2026 1.448 . S
C2021 N2018 1.334 . S
C2021 C2019 1.390 . S
C2021 H2032 0.930 . S
C2022 C2019 1.339 . S
C2022 C2020 1.416 . S
C2022 H2043 0.930 . S
C2023 C2024 1.413 . S
C2023 C2025 1.427 . S
C2023 C2029 1.416 . S
C2024 C2017 1.424 1_565 S
C2024 C2023 1.413 . S
C2024 N2028 1.361 . S
C2025 C2023 1.427 . S
C2025 C2026 1.328 1_565 S
C2025 H2040 0.929 . S
C2026 C2020 1.448 . S
C2026 C2025 1.328 1_545 S
C2026 H2041 0.930 . S
Tb2027 N2018 2.617 . S
Tb2027 N2028 2.572 1_545 S
Tb2027 O2062 2.349 . S
Tb2027 O2065 2.393 . S
Tb2027 O2066 2.465 . S
Tb2027 O2067 2.387 1_545 S
Tb2027 O2069 2.428 . S
Tb2027 O2070 2.308 1_545 S
Tb2027 C2091 2.802 . S
N2028 C2024 1.361 . S
N2028 Tb2027 2.572 1_565 S
N2028 C2030 1.340 . S
C2029 C2023 1.416 . S
C2029 C2031 1.332 . S
C2029 H2037 0.931 . S
C2030 N2028 1.340 . S
C2030 C2031 1.407 . S
C2030 H2036 0.930 . S
C2031 C2029 1.332 . S
C2031 C2030 1.407 . S
C2031 H2033 0.929 . S
H2032 C2021 0.930 . S
H2033 C2031 0.929 . S
H2034 C2049 0.930 . S
H2035 C2056 0.929 . S
H2036 C2030 0.930 . S
H2037 C2029 0.931 . S
H2038 C2052 0.930 . S
H2039 C2019 0.930 . S
H2040 C2025 0.929 . S
H2041 C2026 0.930 . S
H2042 C2047 0.930 . S
H2043 C2022 0.930 . S
H2044 C2055 0.931 . S
N2045 Tb2016 2.617 . S
N2045 C2046 1.379 . S
N2045 C2049 1.334 . S
C2046 N2045 1.379 . S
C2046 C2048 1.416 . S
C2046 C2054 1.424 . S
C2047 H2042 0.930 . S
C2047 C2049 1.390 . S
C2047 C2050 1.339 . S
C2048 C2046 1.416 . S
C2048 C2050 1.416 . S
C2048 C2081 1.448 . S
C2049 H2034 0.930 . S
C2049 N2045 1.334 . S
C2049 C2047 1.390 . S
C2050 C2047 1.339 . S
C2050 C2048 1.416 . S
C2050 H2057 0.930 . S
N2051 Tb2016 2.572 . S
N2051 C2052 1.340 . S
N2051 C2054 1.361 . S
C2052 H2038 0.930 . S
C2052 N2051 1.340 . S
C2052 C2056 1.407 . S
C2053 C2054 1.413 . S
C2053 C2055 1.416 . S
C2053 C2082 1.427 . S
C2054 C2046 1.424 . S
C2054 N2051 1.361 . S
C2054 C2053 1.413 . S
C2055 H2044 0.931 . S
C2055 C2053 1.416 . S
C2055 C2056 1.332 . S
C2056 H2035 0.929 . S
C2056 C2052 1.407 . S
C2056 C2055 1.332 . S
H2057 C2050 0.930 . S
H2058 C2081 0.930 . S
H2059 C2082 0.929 . S
O2060 Tb2016 2.465 . S
O2060 C2080 1.264 . S
O2061 Tb2016 2.387 . S
O2061 C2072 1.264 1_565 S
O2062 Tb2027 2.349 . S
O2062 C2072 1.243 . S
O2063 Tb2016 2.428 . S
O2063 C2080 1.256 . S
O2064 Tb2016 2.308 . S
O2064 C2079 1.256 1_565 S
O2065 Tb2027 2.393 . S
O2065 C2079 1.257 . S
O2066 Tb2027 2.465 . S
O2066 C2091 1.264 . S
O2067 Tb2027 2.387 1_565 S
O2067 C2083 1.264 . S
O2068 Tb2016 2.349 . S
O2068 C2083 1.243 . S
O2069 Tb2027 2.428 . S
O2069 C2091 1.256 . S
O2070 Tb2027 2.308 1_565 S
O2070 C2090 1.266 . S
O2071 Tb2016 2.393 . S
O2071 C2090 1.248 . S
C2072 O2061 1.264 1_545 S
C2072 O2062 1.243 . S
C2073 C2076 1.399 . S
C2073 C2078 1.383 . S
C2073 C2080 1.496 . S
C2074 C2075 1.399 . S
C2074 C2078 1.389 . S
C2075 C2074 1.399 . S
C2075 C2077 1.380 . S
C2075 H2092 0.929 . S
C2076 C2073 1.399 . S
C2076 C2077 1.392 . S
C2076 H2093 0.929 . S
C2077 C2075 1.380 . S
C2077 C2076 1.392 . S
C2077 H2094 0.929 . S
C2078 C2073 1.383 . S
C2078 C2074 1.389 . S
C2078 H2095 0.931 . S
C2079 O2064 1.256 1_545 S
C2079 O2065 1.257 . S
C2080 Tb2016 2.802 . S
C2080 O2060 1.264 . S
C2080 O2063 1.256 . S
C2080 C2073 1.496 . S
C2081 C2048 1.448 . S
C2081 H2058 0.930 . S
C2081 C2082 1.328 . S
C2082 C2053 1.427 . S
C2082 H2059 0.929 . S
C2082 C2081 1.328 . S
C2083 O2067 1.264 . S
C2083 O2068 1.243 . S
C2084 C2087 1.399 . S
C2084 C2088 1.383 . S
C2084 C2091 1.496 . S
C2085 C2086 1.399 . S
C2085 C2088 1.389 . S
C2086 C2085 1.399 . S
C2086 C2089 1.380 . S
C2086 H2096 0.929 . S
C2087 C2084 1.399 . S
C2087 C2089 1.392 . S
C2087 H2097 0.929 . S
C2088 C2084 1.383 . S
C2088 C2085 1.389 . S
C2088 H2098 0.931 . S
C2089 C2086 1.380 . S
C2089 C2087 1.392 . S
C2089 H2099 0.929 . S
C2090 O2070 1.266 . S
C2090 O2071 1.248 . S
C2091 Tb2027 2.802 . S
C2091 O2066 1.264 . S
C2091 O2069 1.256 . S
C2091 C2084 1.496 . S
H2092 C2075 0.929 . S
H2093 C2076 0.929 . S
H2094 C2077 0.929 . S
H2095 C2078 0.931 . S
H2096 C2086 0.929 . S
H2097 C2087 0.929 . S
H2098 C2088 0.931 . S
H2099 C2089 0.929 . S
Tb2100 N2129 2.617 . S
Tb2100 N2135 2.572 . S
Tb2100 O2144 2.465 . S
Tb2100 O2145 2.387 . S
Tb2100 O2147 2.428 . S
Tb2100 O2148 2.308 . S
Tb2100 O2152 2.349 1_565 S
Tb2100 O2155 2.393 1_565 S
Tb2100 C2164 2.802 . S
C2101 N2102 1.379 . S
C2101 C2104 1.416 . S
C2101 C2108 1.424 . S
N2102 C2101 1.379 . S
N2102 C2105 1.334 . S
N2102 Tb2111 2.617 . S
C2103 C2105 1.390 . S
C2103 C2106 1.339 . S
C2103 H2123 0.930 . S
C2104 C2101 1.416 . S
C2104 C2106 1.416 . S
C2104 C2110 1.448 . S
C2105 N2102 1.334 . S
C2105 C2103 1.390 . S
C2105 H2116 0.930 . S
C2106 C2103 1.339 . S
C2106 C2104 1.416 . S
C2106 H2127 0.930 . S
C2107 C2108 1.413 . S
C2107 C2109 1.427 . S
C2107 C2113 1.416 . S
C2108 C2101 1.424 . S
C2108 C2107 1.413 . S
C2108 N2112 1.361 . S
C2109 C2107 1.427 . S
C2109 C2110 1.328 . S
C2109 H2124 0.929 . S
C2110 C2104 1.448 . S
C2110 C2109 1.328 . S
C2110 H2125 0.930 . S
Tb2111 N2102 2.617 . S
Tb2111 N2112 2.572 . S
Tb2111 O2146 2.349 . S
Tb2111 O2149 2.393 . S
Tb2111 O2150 2.465 . S
Tb2111 O2151 2.387 . S
Tb2111 O2153 2.428 . S
Tb2111 O2154 2.308 . S
Tb2111 C2175 2.802 . S
N2112 C2108 1.361 . S
N2112 Tb2111 2.572 . S
N2112 C2114 1.340 . S
C2113 C2107 1.416 . S
C2113 C2115 1.332 . S
C2113 H2121 0.931 . S
C2114 N2112 1.340 . S
C2114 C2115 1.407 . S
C2114 H2120 0.930 . S
C2115 C2113 1.332 . S
C2115 C2114 1.407 . S
C2115 H2117 0.929 . S
H2116 C2105 0.930 . S
H2117 C2115 0.929 . S
H2118 C2133 0.907 1_545 S
H2119 C2140 0.929 . S
H2120 C2114 0.930 . S
H2121 C2113 0.931 . S
H2122 C2136 0.930 . S
H2123 C2103 0.930 . S
H2124 C2109 0.929 . S
H2125 C2110 0.930 . S
H2126 C2131 0.930 1_545 S
H2127 C2106 0.930 . S
H2128 C2139 0.931 . S
N2129 Tb2100 2.617 . S
N2129 C2130 1.379 . S
N2129 C2133 1.351 . S
C2130 N2129 1.379 . S
C2130 C2132 1.416 . S
C2130 C2138 1.424 . S
C2131 H2126 0.930 1_565 S
C2131 C2133 1.396 . S
C2131 C2134 1.339 . S
C2132 C2130 1.416 . S
C2132 C2134 1.416 . S
C2132 C2165 1.448 . S
C2133 H2118 0.907 1_565 S
C2133 N2129 1.351 . S
C2133 C2131 1.396 . S
C2134 C2131 1.339 . S
C2134 C2132 1.416 . S
C2134 H2141 0.930 . S
N2135 Tb2100 2.572 . S
N2135 C2136 1.340 . S
N2135 C2138 1.361 . S
C2136 H2122 0.930 . S
C2136 N2135 1.340 . S
C2136 C2140 1.407 . S
C2137 C2138 1.413 . S
C2137 C2139 1.416 . S
C2137 C2166 1.427 . S
C2138 C2130 1.424 . S
C2138 N2135 1.361 . S
C2138 C2137 1.413 . S
C2139 H2128 0.931 . S
C2139 C2137 1.416 . S
C2139 C2140 1.332 . S
C2140 H2119 0.929 . S
C2140 C2136 1.407 . S
C2140 C2139 1.332 . S
H2141 C2134 0.930 . S
H2142 C2165 0.930 . S
H2143 C2166 0.929 . S
O2144 Tb2100 2.465 . S
O2144 C2164 1.264 . S
O2145 Tb2100 2.387 . S
O2145 C2156 1.262 1_565 S
O2146 Tb2111 2.349 . S
O2146 C2156 1.243 . S
O2147 Tb2100 2.428 . S
O2147 C2164 1.256 . S
O2148 Tb2100 2.308 . S
O2148 C2163 1.266 . S
O2149 Tb2111 2.393 . S
O2149 C2163 1.248 1_545 S
O2150 Tb2111 2.465 . S
O2150 C2175 1.264 . S
O2151 Tb2111 2.387 . S
O2151 C2167 1.264 . S
O2152 Tb2100 2.349 1_545 S
O2152 C2167 1.243 . S
O2153 Tb2111 2.428 . S
O2153 C2175 1.256 . S
O2154 Tb2111 2.308 . S
O2154 C2174 1.266 . S
O2155 Tb2100 2.393 1_545 S
O2155 C2174 1.248 . S
C2156 O2145 1.262 1_545 S
C2156 O2146 1.243 . S
C2157 C2160 1.399 . S
C2157 C2162 1.383 . S
C2157 C2164 1.496 . S
C2158 C2159 1.399 . S
C2158 C2162 1.389 . S
C2159 C2158 1.399 . S
C2159 C2161 1.380 . S
C2159 H2176 0.929 . S
C2160 C2157 1.399 . S
C2160 C2161 1.392 . S
C2160 H2177 0.929 . S
C2161 C2159 1.380 . S
C2161 C2160 1.392 . S
C2161 H2178 0.929 . S
C2162 C2157 1.383 . S
C2162 C2158 1.389 . S
C2162 H2179 0.931 . S
C2163 O2148 1.266 . S
C2163 O2149 1.248 1_565 S
C2164 Tb2100 2.802 . S
C2164 O2144 1.264 . S
C2164 O2147 1.256 . S
C2164 C2157 1.496 . S
C2165 C2132 1.448 . S
C2165 H2142 0.930 . S
C2165 C2166 1.328 . S
C2166 C2137 1.427 . S
C2166 H2143 0.929 . S
C2166 C2165 1.328 . S
C2167 O2151 1.264 . S
C2167 O2152 1.243 . S
C2168 C2171 1.399 . S
C2168 C2172 1.383 . S
C2168 C2175 1.496 . S
C2169 C2170 1.399 . S
C2169 C2172 1.389 . S
C2170 C2169 1.399 . S
C2170 C2173 1.380 . S
C2170 H2180 0.929 . S
C2171 C2168 1.399 . S
C2171 C2173 1.392 . S
C2171 H2181 0.929 . S
C2172 C2168 1.383 . S
C2172 C2169 1.389 . S
C2172 H2182 0.931 . S
C2173 C2170 1.380 . S
C2173 C2171 1.392 . S
C2173 H2183 0.929 . S
C2174 O2154 1.266 . S
C2174 O2155 1.248 . S
C2175 Tb2111 2.802 . S
C2175 O2150 1.264 . S
C2175 O2153 1.256 . S
C2175 C2168 1.496 . S
H2176 C2159 0.929 . S
H2177 C2160 0.929 . S
H2178 C2161 0.929 . S
H2179 C2162 0.931 . S
H2180 C2170 0.929 . S
H2181 C2171 0.929 . S
H2182 C2172 0.931 . S
H2183 C2173 0.929 . S
Tb2184 N2213 2.617 . S
Tb2184 N2219 2.572 . S
Tb2184 O2228 2.465 . S
Tb2184 O2229 2.387 . S
Tb2184 O2231 2.428 . S
Tb2184 O2232 2.308 . S
Tb2184 O2236 2.349 1_565 S
Tb2184 O2239 2.393 1_565 S
Tb2184 C2248 2.802 . S
C2185 N2186 1.379 . S
C2185 C2188 1.416 . S
C2185 C2192 1.424 . S
N2186 C2185 1.379 . S
N2186 C2189 1.334 . S
N2186 Tb2195 2.617 . S
C2187 C2189 1.390 . S
C2187 C2190 1.339 . S
C2187 H2207 0.930 . S
C2188 C2185 1.416 . S
C2188 C2190 1.416 . S
C2188 C2194 1.448 . S
C2189 N2186 1.334 . S
C2189 C2187 1.390 . S
C2189 H2200 0.930 . S
C2190 C2187 1.339 . S
C2190 C2188 1.416 . S
C2190 H2211 0.930 . S
C2191 C2192 1.413 . S
C2191 C2193 1.427 . S
C2191 C2197 1.416 . S
C2192 C2185 1.424 . S
C2192 C2191 1.413 . S
C2192 N2196 1.361 . S
C2193 C2191 1.427 . S
C2193 C2194 1.328 . S
C2193 H2208 0.929 . S
C2194 C2188 1.448 . S
C2194 C2193 1.328 . S
C2194 H2209 0.930 . S
Tb2195 N2186 2.617 . S
Tb2195 N2196 2.572 . S
Tb2195 O2230 2.349 . S
Tb2195 O2233 2.393 . S
Tb2195 O2234 2.465 . S
Tb2195 O2235 2.387 . S
Tb2195 O2237 2.428 . S
Tb2195 O2238 2.308 . S
Tb2195 C2259 2.802 . S
N2196 C2192 1.361 . S
N2196 Tb2195 2.572 . S
N2196 C2198 1.340 . S
C2197 C2191 1.416 . S
C2197 C2199 1.332 . S
C2197 H2205 0.931 . S
C2198 N2196 1.340 . S
C2198 C2199 1.407 . S
C2198 H2204 0.930 . S
C2199 C2197 1.332 . S
C2199 C2198 1.407 . S
C2199 H2201 0.929 . S
H2200 C2189 0.930 . S
H2201 C2199 0.929 . S
H2202 C2217 0.915 1_545 S
H2203 C2224 0.929 . S
H2204 C2198 0.930 . S
H2205 C2197 0.931 . S
H2206 C2220 0.930 . S
H2207 C2187 0.930 . S
H2208 C2193 0.929 . S
H2209 C2194 0.930 . S
H2210 C2215 0.930 1_545 S
H2211 C2190 0.930 . S
H2212 C2223 0.931 . S
N2213 Tb2184 2.617 . S
N2213 C2214 1.379 . S
N2213 C2217 1.345 . S
C2214 N2213 1.379 . S
C2214 C2216 1.416 . S
C2214 C2222 1.424 . S
C2215 H2210 0.930 1_565 S
C2215 C2217 1.394 . S
C2215 C2218 1.339 . S
C2216 C2214 1.416 . S
C2216 C2218 1.416 . S
C2216 C2249 1.448 . S
C2217 H2202 0.915 1_565 S
C2217 N2213 1.345 . S
C2217 C2215 1.394 . S
C2218 C2215 1.339 . S
C2218 C2216 1.416 . S
C2218 H2225 0.930 . S
N2219 Tb2184 2.572 . S
N2219 C2220 1.340 . S
N2219 C2222 1.361 . S
C2220 H2206 0.930 . S
C2220 N2219 1.340 . S
C2220 C2224 1.407 . S
C2221 C2222 1.413 . S
C2221 C2223 1.416 . S
C2221 C2250 1.427 . S
C2222 C2214 1.424 . S
C2222 N2219 1.361 . S
C2222 C2221 1.413 . S
C2223 H2212 0.931 . S
C2223 C2221 1.416 . S
C2223 C2224 1.332 . S
C2224 H2203 0.929 . S
C2224 C2220 1.407 . S
C2224 C2223 1.332 . S
H2225 C2218 0.930 . S
H2226 C2249 0.930 . S
H2227 C2250 0.929 . S
O2228 Tb2184 2.465 . S
O2228 C2248 1.264 . S
O2229 Tb2184 2.387 . S
O2229 C2240 1.261 1_565 S
O2230 Tb2195 2.349 . S
O2230 C2240 1.243 . S
O2231 Tb2184 2.428 . S
O2231 C2248 1.256 . S
O2232 Tb2184 2.308 . S
O2232 C2247 1.266 . S
O2233 Tb2195 2.393 . S
O2233 C2247 1.248 1_545 S
O2234 Tb2195 2.465 . S
O2234 C2259 1.264 . S
O2235 Tb2195 2.387 . S
O2235 C2251 1.264 . S
O2236 Tb2184 2.349 1_545 S
O2236 C2251 1.243 . S
O2237 Tb2195 2.428 . S
O2237 C2259 1.256 . S
O2238 Tb2195 2.308 . S
O2238 C2258 1.266 . S
O2239 Tb2184 2.393 1_545 S
O2239 C2258 1.248 . S
C2240 O2229 1.261 1_545 S
C2240 O2230 1.243 . S
C2241 C2244 1.399 . S
C2241 C2246 1.383 . S
C2241 C2248 1.496 . S
C2242 C2243 1.399 . S
C2242 C2246 1.389 . S
C2243 C2242 1.399 . S
C2243 C2245 1.380 . S
C2243 H2260 0.929 . S
C2244 C2241 1.399 . S
C2244 C2245 1.392 . S
C2244 H2261 0.929 . S
C2245 C2243 1.380 . S
C2245 C2244 1.392 . S
C2245 H2262 0.929 . S
C2246 C2241 1.383 . S
C2246 C2242 1.389 . S
C2246 H2263 0.931 . S
C2247 O2232 1.266 . S
C2247 O2233 1.248 1_565 S
C2248 Tb2184 2.802 . S
C2248 O2228 1.264 . S
C2248 O2231 1.256 . S
C2248 C2241 1.496 . S
C2249 C2216 1.448 . S
C2249 H2226 0.930 . S
C2249 C2250 1.328 . S
C2250 C2221 1.427 . S
C2250 H2227 0.929 . S
C2250 C2249 1.328 . S
C2251 O2235 1.264 . S
C2251 O2236 1.243 . S
C2252 C2255 1.399 . S
C2252 C2256 1.383 . S
C2252 C2259 1.496 . S
C2253 C2254 1.399 . S
C2253 C2256 1.389 . S
C2254 C2253 1.399 . S
C2254 C2257 1.380 . S
C2254 H2264 0.929 . S
C2255 C2252 1.399 . S
C2255 C2257 1.392 . S
C2255 H2265 0.929 . S
C2256 C2252 1.383 . S
C2256 C2253 1.389 . S
C2256 H2266 0.931 . S
C2257 C2254 1.380 . S
C2257 C2255 1.392 . S
C2257 H2267 0.929 . S
C2258 O2238 1.266 . S
C2258 O2239 1.248 . S
C2259 Tb2195 2.802 . S
C2259 O2234 1.264 . S
C2259 O2237 1.256 . S
C2259 C2252 1.496 . S
H2260 C2243 0.929 . S
H2261 C2244 0.929 . S
H2262 C2245 0.929 . S
H2263 C2246 0.931 . S
H2264 C2254 0.929 . S
H2265 C2255 0.929 . S
H2266 C2256 0.931 . S
H2267 C2257 0.929 . S
Tb2268 N2297 2.617 . S
Tb2268 N2303 2.572 . S
Tb2268 O2312 2.465 . S
Tb2268 O2313 2.387 . S
Tb2268 O2315 2.428 . S
Tb2268 O2316 2.308 . S
Tb2268 O2320 2.349 . S
Tb2268 O2323 2.393 . S
Tb2268 C2332 2.802 . S
C2269 N2270 1.379 . S
C2269 C2272 1.416 . S
C2269 C2276 1.424 1_554 S
N2270 C2269 1.379 . S
N2270 C2273 1.334 . S
N2270 Tb2279 2.617 . S
C2271 C2273 1.390 . S
C2271 C2274 1.339 . S
C2271 H2291 0.930 . S
C2272 C2269 1.416 . S
C2272 C2274 1.416 . S
C2272 C2278 1.448 . S
C2273 N2270 1.334 . S
C2273 C2271 1.390 . S
C2273 H2284 0.930 . S
C2274 C2271 1.339 . S
C2274 C2272 1.416 . S
C2274 H2295 0.930 . S
C2275 C2276 1.413 . S
C2275 C2277 1.427 . S
C2275 C2281 1.416 . S
C2276 C2269 1.424 1_556 S
C2276 C2275 1.413 . S
C2276 N2280 1.361 . S
C2277 C2275 1.427 . S
C2277 C2278 1.328 1_556 S
C2277 H2292 0.929 . S
C2278 C2272 1.448 . S
C2278 C2277 1.328 1_554 S
C2278 H2293 0.930 . S
Tb2279 N2270 2.617 . S
Tb2279 N2280 2.572 1_554 S
Tb2279 O2314 2.349 . S
Tb2279 O2317 2.393 . S
Tb2279 O2318 2.465 . S
Tb2279 O2319 2.387 1_554 S
Tb2279 O2321 2.428 . S
Tb2279 O2322 2.308 1_554 S
Tb2279 C2343 2.802 . S
N2280 C2276 1.361 . S
N2280 Tb2279 2.572 1_556 S
N2280 C2282 1.340 . S
C2281 C2275 1.416 . S
C2281 C2283 1.332 . S
C2281 H2289 0.931 . S
C2282 N2280 1.340 . S
C2282 C2283 1.407 . S
C2282 H2288 0.930 . S
C2283 C2281 1.332 . S
C2283 C2282 1.407 . S
C2283 H2285 0.929 . S
H2284 C2273 0.930 . S
H2285 C2283 0.929 . S
H2286 C2301 0.930 . S
H2287 C2308 0.929 . S
H2288 C2282 0.930 . S
H2289 C2281 0.931 . S
H2290 C2304 0.930 . S
H2291 C2271 0.930 . S
H2292 C2277 0.929 . S
H2293 C2278 0.930 . S
H2294 C2299 0.930 . S
H2295 C2274 0.930 . S
H2296 C2307 0.931 . S
N2297 Tb2268 2.617 . S
N2297 C2298 1.379 . S
N2297 C2301 1.334 . S
C2298 N2297 1.379 . S
C2298 C2300 1.416 . S
C2298 C2306 1.424 . S
C2299 H2294 0.930 . S
C2299 C2301 1.390 . S
C2299 C2302 1.339 . S
C2300 C2298 1.416 . S
C2300 C2302 1.416 . S
C2300 C2333 1.448 . S
C2301 H2286 0.930 . S
C2301 N2297 1.334 . S
C2301 C2299 1.390 . S
C2302 C2299 1.339 . S
C2302 C2300 1.416 . S
C2302 H2309 0.930 . S
N2303 Tb2268 2.572 . S
N2303 C2304 1.340 . S
N2303 C2306 1.361 . S
C2304 H2290 0.930 . S
C2304 N2303 1.340 . S
C2304 C2308 1.407 . S
C2305 C2306 1.413 . S
C2305 C2307 1.416 . S
C2305 C2334 1.427 . S
C2306 C2298 1.424 . S
C2306 N2303 1.361 . S
C2306 C2305 1.413 . S
C2307 H2296 0.931 . S
C2307 C2305 1.416 . S
C2307 C2308 1.332 . S
C2308 H2287 0.929 . S
C2308 C2304 1.407 . S
C2308 C2307 1.332 . S
H2309 C2302 0.930 . S
H2310 C2333 0.930 . S
H2311 C2334 0.929 . S
O2312 Tb2268 2.465 . S
O2312 C2332 1.264 . S
O2313 Tb2268 2.387 . S
O2313 C2324 1.264 1_556 S
O2314 Tb2279 2.349 . S
O2314 C2324 1.243 . S
O2315 Tb2268 2.428 . S
O2315 C2332 1.256 . S
O2316 Tb2268 2.308 . S
O2316 C2331 1.297 . S
O2317 Tb2279 2.393 . S
O2317 C2331 1.220 1_554 S
O2318 Tb2279 2.465 . S
O2318 C2343 1.264 . S
O2319 Tb2279 2.387 1_556 S
O2319 C2335 1.264 . S
O2320 Tb2268 2.349 . S
O2320 C2335 1.243 . S
O2321 Tb2279 2.428 . S
O2321 C2343 1.256 . S
O2322 Tb2279 2.308 1_556 S
O2322 C2342 1.266 . S
O2323 Tb2268 2.393 . S
O2323 C2342 1.248 . S
C2324 O2313 1.264 1_554 S
C2324 O2314 1.243 . S
C2325 C2328 1.399 . S
C2325 C2330 1.383 . S
C2325 C2332 1.496 . S
C2326 C2327 1.399 . S
C2326 C2330 1.389 . S
C2327 C2326 1.399 . S
C2327 C2329 1.380 . S
C2327 H2344 0.929 . S
C2328 C2325 1.399 . S
C2328 C2329 1.392 . S
C2328 H2345 0.929 . S
C2329 C2327 1.380 . S
C2329 C2328 1.392 . S
C2329 H2346 0.929 . S
C2330 C2325 1.383 . S
C2330 C2326 1.389 . S
C2330 H2347 0.931 . S
C2331 O2316 1.297 . S
C2331 O2317 1.220 1_556 S
C2332 Tb2268 2.802 . S
C2332 O2312 1.264 . S
C2332 O2315 1.256 . S
C2332 C2325 1.496 . S
C2333 C2300 1.448 . S
C2333 H2310 0.930 . S
C2333 C2334 1.328 . S
C2334 C2305 1.427 . S
C2334 H2311 0.929 . S
C2334 C2333 1.328 . S
C2335 O2319 1.264 . S
C2335 O2320 1.243 . S
C2336 C2339 1.399 . S
C2336 C2340 1.383 . S
C2336 C2343 1.496 . S
C2337 C2338 1.399 . S
C2337 C2340 1.389 . S
C2338 C2337 1.399 . S
C2338 C2341 1.380 . S
C2338 H2348 0.929 . S
C2339 C2336 1.399 . S
C2339 C2341 1.392 . S
C2339 H2349 0.929 . S
C2340 C2336 1.383 . S
C2340 C2337 1.389 . S
C2340 H2350 0.931 . S
C2341 C2338 1.380 . S
C2341 C2339 1.392 . S
C2341 H2351 0.929 . S
C2342 O2322 1.266 . S
C2342 O2323 1.248 . S
C2343 Tb2279 2.802 . S
C2343 O2318 1.264 . S
C2343 O2321 1.256 . S
C2343 C2336 1.496 . S
H2344 C2327 0.929 . S
H2345 C2328 0.929 . S
H2346 C2329 0.929 . S
H2347 C2330 0.931 . S
H2348 C2338 0.929 . S
H2349 C2339 0.929 . S
H2350 C2340 0.931 . S
H2351 C2341 0.929 . S
Tb2352 N2381 2.617 . S
Tb2352 N2387 2.572 . S
Tb2352 O2396 2.465 . S
Tb2352 O2397 2.387 . S
Tb2352 O2399 2.428 . S
Tb2352 O2400 2.308 . S
Tb2352 O2404 2.349 1_655 S
Tb2352 O2407 2.393 1_655 S
Tb2352 C2416 2.802 . S
C2353 N2354 1.379 . S
C2353 C2356 1.416 . S
C2353 C2360 1.424 . S
N2354 C2353 1.379 . S
N2354 C2357 1.334 . S
N2354 Tb2363 2.617 . S
C2355 C2357 1.390 . S
C2355 C2358 1.339 . S
C2355 H2375 0.930 . S
C2356 C2353 1.416 . S
C2356 C2358 1.416 . S
C2356 C2362 1.448 . S
C2357 N2354 1.334 . S
C2357 C2355 1.390 . S
C2357 H2368 0.930 . S
C2358 C2355 1.339 . S
C2358 C2356 1.416 . S
C2358 H2379 0.930 . S
C2359 C2360 1.413 . S
C2359 C2361 1.427 . S
C2359 C2365 1.416 . S
C2360 C2353 1.424 . S
C2360 C2359 1.413 . S
C2360 N2364 1.361 . S
C2361 C2359 1.427 . S
C2361 C2362 1.328 . S
C2361 H2376 0.929 . S
C2362 C2356 1.448 . S
C2362 C2361 1.328 . S
C2362 H2377 0.930 . S
Tb2363 N2354 2.617 . S
Tb2363 N2364 2.572 . S
Tb2363 O2398 2.349 . S
Tb2363 O2401 2.393 . S
Tb2363 O2402 2.465 . S
Tb2363 O2403 2.387 . S
Tb2363 O2405 2.428 . S
Tb2363 O2406 2.308 . S
Tb2363 C2427 2.802 . S
N2364 C2360 1.361 . S
N2364 Tb2363 2.572 . S
N2364 C2366 1.340 . S
C2365 C2359 1.416 . S
C2365 C2367 1.332 . S
C2365 H2373 0.931 . S
C2366 N2364 1.340 . S
C2366 C2367 1.407 . S
C2366 H2372 0.930 . S
C2367 C2365 1.332 . S
C2367 C2366 1.407 . S
C2367 H2369 0.929 . S
H2368 C2357 0.930 . S
H2369 C2367 0.929 . S
H2370 C2385 0.924 1_455 S
H2371 C2392 0.929 . S
H2372 C2366 0.930 . S
H2373 C2365 0.931 . S
H2374 C2388 0.930 . S
H2375 C2355 0.930 . S
H2376 C2361 0.929 . S
H2377 C2362 0.930 . S
H2378 C2383 0.930 1_455 S
H2379 C2358 0.930 . S
H2380 C2391 0.931 . S
N2381 Tb2352 2.617 . S
N2381 C2382 1.379 . S
N2381 C2385 1.339 . S
C2382 N2381 1.379 . S
C2382 C2384 1.416 . S
C2382 C2390 1.424 . S
C2383 H2378 0.930 1_655 S
C2383 C2385 1.391 . S
C2383 C2386 1.339 . S
C2384 C2382 1.416 . S
C2384 C2386 1.416 . S
C2384 C2417 1.448 . S
C2385 H2370 0.924 1_655 S
C2385 N2381 1.339 . S
C2385 C2383 1.391 . S
C2386 C2383 1.339 . S
C2386 C2384 1.416 . S
C2386 H2393 0.930 . S
N2387 Tb2352 2.572 . S
N2387 C2388 1.340 . S
N2387 C2390 1.361 . S
C2388 H2374 0.930 . S
C2388 N2387 1.340 . S
C2388 C2392 1.407 . S
C2389 C2390 1.413 . S
C2389 C2391 1.416 . S
C2389 C2418 1.427 . S
C2390 C2382 1.424 . S
C2390 N2387 1.361 . S
C2390 C2389 1.413 . S
C2391 H2380 0.931 . S
C2391 C2389 1.416 . S
C2391 C2392 1.332 . S
C2392 H2371 0.929 . S
C2392 C2388 1.407 . S
C2392 C2391 1.332 . S
H2393 C2386 0.930 . S
H2394 C2417 0.930 . S
H2395 C2418 0.929 . S
O2396 Tb2352 2.465 . S
O2396 C2416 1.264 . S
O2397 Tb2352 2.387 . S
O2397 C2408 1.262 1_655 S
O2398 Tb2363 2.349 . S
O2398 C2408 1.243 . S
O2399 Tb2352 2.428 . S
O2399 C2416 1.256 . S
O2400 Tb2352 2.308 . S
O2400 C2415 1.266 . S
O2401 Tb2363 2.393 . S
O2401 C2415 1.248 1_455 S
O2402 Tb2363 2.465 . S
O2402 C2427 1.264 . S
O2403 Tb2363 2.387 . S
O2403 C2419 1.264 . S
O2404 Tb2352 2.349 1_455 S
O2404 C2419 1.243 . S
O2405 Tb2363 2.428 . S
O2405 C2427 1.256 . S
O2406 Tb2363 2.308 . S
O2406 C2426 1.266 . S
O2407 Tb2352 2.393 1_455 S
O2407 C2426 1.248 . S
C2408 O2397 1.262 1_455 S
C2408 O2398 1.243 . S
C2409 C2412 1.399 . S
C2409 C2414 1.383 . S
C2409 C2416 1.496 . S
C2410 C2411 1.399 . S
C2410 C2414 1.389 . S
C2411 C2410 1.399 . S
C2411 C2413 1.380 . S
C2411 H2428 0.929 . S
C2412 C2409 1.399 . S
C2412 C2413 1.392 . S
C2412 H2429 0.929 . S
C2413 C2411 1.380 . S
C2413 C2412 1.392 . S
C2413 H2430 0.929 . S
C2414 C2409 1.383 . S
C2414 C2410 1.389 . S
C2414 H2431 0.931 . S
C2415 O2400 1.266 . S
C2415 O2401 1.248 1_655 S
C2416 Tb2352 2.802 . S
C2416 O2396 1.264 . S
C2416 O2399 1.256 . S
C2416 C2409 1.496 . S
C2417 C2384 1.448 . S
C2417 H2394 0.930 . S
C2417 C2418 1.328 . S
C2418 C2389 1.427 . S
C2418 H2395 0.929 . S
C2418 C2417 1.328 . S
C2419 O2403 1.264 . S
C2419 O2404 1.243 . S
C2420 C2423 1.399 . S
C2420 C2424 1.383 . S
C2420 C2427 1.496 . S
C2421 C2422 1.399 . S
C2421 C2424 1.389 . S
C2422 C2421 1.399 . S
C2422 C2425 1.380 . S
C2422 H2432 0.929 . S
C2423 C2420 1.399 . S
C2423 C2425 1.392 . S
C2423 H2433 0.929 . S
C2424 C2420 1.383 . S
C2424 C2421 1.389 . S
C2424 H2434 0.931 . S
C2425 C2422 1.380 . S
C2425 C2423 1.392 . S
C2425 H2435 0.929 . S
C2426 O2406 1.266 . S
C2426 O2407 1.248 . S
C2427 Tb2363 2.802 . S
C2427 O2402 1.264 . S
C2427 O2405 1.256 . S
C2427 C2420 1.496 . S
H2428 C2411 0.929 . S
H2429 C2412 0.929 . S
H2430 C2413 0.929 . S
H2431 C2414 0.931 . S
H2432 C2422 0.929 . S
H2433 C2423 0.929 . S
H2434 C2424 0.931 . S
H2435 C2425 0.929 . S
Tb2436 N2465 2.617 . S
Tb2436 N2471 2.572 . S
Tb2436 O2480 2.465 . S
Tb2436 O2481 2.387 . S
Tb2436 O2483 2.428 . S
Tb2436 O2484 2.308 . S
Tb2436 O2488 2.349 . S
Tb2436 O2491 2.393 . S
Tb2436 C2500 2.802 . S
C2437 N2438 1.379 . S
C2437 C2440 1.416 . S
C2437 C2444 1.424 . S
N2438 C2437 1.379 . S
N2438 C2441 1.334 . S
N2438 Tb2447 2.617 . S
C2439 C2441 1.390 . S
C2439 C2442 1.339 . S
C2439 H2459 0.930 . S
C2440 C2437 1.416 . S
C2440 C2442 1.416 . S
C2440 C2446 1.448 . S
C2441 N2438 1.334 . S
C2441 C2439 1.390 . S
C2441 H2452 0.930 . S
C2442 C2439 1.339 . S
C2442 C2440 1.416 . S
C2442 H2463 0.930 . S
C2443 C2444 1.413 . S
C2443 C2445 1.427 . S
C2443 C2449 1.416 . S
C2444 C2437 1.424 . S
C2444 C2443 1.413 . S
C2444 N2448 1.361 . S
C2445 C2443 1.427 . S
C2445 C2446 1.328 . S
C2445 H2460 0.929 . S
C2446 C2440 1.448 . S
C2446 C2445 1.328 . S
C2446 H2461 0.930 . S
Tb2447 N2438 2.617 . S
Tb2447 N2448 2.572 . S
Tb2447 O2482 2.349 . S
Tb2447 O2485 2.393 . S
Tb2447 O2486 2.465 . S
Tb2447 O2487 2.387 . S
Tb2447 O2489 2.428 . S
Tb2447 O2490 2.308 . S
Tb2447 C2511 2.802 . S
N2448 C2444 1.361 . S
N2448 Tb2447 2.572 . S
N2448 C2450 1.340 . S
C2449 C2443 1.416 . S
C2449 C2451 1.332 . S
C2449 H2457 0.931 . S
C2450 N2448 1.340 . S
C2450 C2451 1.407 . S
C2450 H2456 0.930 . S
C2451 C2449 1.332 . S
C2451 C2450 1.407 . S
C2451 H2453 0.929 . S
H2452 C2441 0.930 . S
H2453 C2451 0.929 . S
H2454 C2469 0.930 . S
H2455 C2476 0.929 . S
H2456 C2450 0.930 . S
H2457 C2449 0.931 . S
H2458 C2472 0.930 . S
H2459 C2439 0.930 . S
H2460 C2445 0.929 . S
H2461 C2446 0.930 . S
H2462 C2467 0.930 . S
H2463 C2442 0.930 . S
H2464 C2475 0.931 . S
N2465 Tb2436 2.617 . S
N2465 C2466 1.379 . S
N2465 C2469 1.334 . S
C2466 N2465 1.379 . S
C2466 C2468 1.416 . S
C2466 C2474 1.424 . S
C2467 H2462 0.930 . S
C2467 C2469 1.390 . S
C2467 C2470 1.339 . S
C2468 C2466 1.416 . S
C2468 C2470 1.416 . S
C2468 C2501 1.448 . S
C2469 H2454 0.930 . S
C2469 N2465 1.334 . S
C2469 C2467 1.390 . S
C2470 C2467 1.339 . S
C2470 C2468 1.416 . S
C2470 H2477 0.930 . S
N2471 Tb2436 2.572 . S
N2471 C2472 1.340 . S
N2471 C2474 1.361 . S
C2472 H2458 0.930 . S
C2472 N2471 1.340 . S
C2472 C2476 1.407 . S
C2473 C2474 1.413 . S
C2473 C2475 1.416 . S
C2473 C2502 1.427 . S
C2474 C2466 1.424 . S
C2474 N2471 1.361 . S
C2474 C2473 1.413 . S
C2475 H2464 0.931 . S
C2475 C2473 1.416 . S
C2475 C2476 1.332 . S
C2476 H2455 0.929 . S
C2476 C2472 1.407 . S
C2476 C2475 1.332 . S
H2477 C2470 0.930 . S
H2478 C2501 0.930 . S
H2479 C2502 0.929 . S
O2480 Tb2436 2.465 . S
O2480 C2500 1.264 . S
O2481 Tb2436 2.387 . S
O2481 C2492 1.264 . S
O2482 Tb2447 2.349 . S
O2482 C2492 1.243 . S
O2483 Tb2436 2.428 . S
O2483 C2500 1.256 . S
O2484 Tb2436 2.308 . S
O2484 C2499 1.266 . S
O2485 Tb2447 2.393 . S
O2485 C2499 1.248 . S
O2486 Tb2447 2.465 . S
O2486 C2511 1.264 . S
O2487 Tb2447 2.387 . S
O2487 C2503 1.264 . S
O2488 Tb2436 2.349 . S
O2488 C2503 1.243 . S
O2489 Tb2447 2.428 . S
O2489 C2511 1.256 . S
O2490 Tb2447 2.308 . S
O2490 C2510 1.266 . S
O2491 Tb2436 2.393 . S
O2491 C2510 1.248 . S
C2492 O2481 1.264 . S
C2492 O2482 1.243 . S
C2493 C2496 1.399 . S
C2493 C2498 1.383 . S
C2493 C2500 1.496 . S
C2494 C2495 1.399 . S
C2494 C2498 1.389 . S
C2495 C2494 1.399 . S
C2495 C2497 1.380 . S
C2495 H2512 0.929 . S
C2496 C2493 1.399 . S
C2496 C2497 1.392 . S
C2496 H2513 0.929 . S
C2497 C2495 1.380 . S
C2497 C2496 1.392 . S
C2497 H2514 0.929 . S
C2498 C2493 1.383 . S
C2498 C2494 1.389 . S
C2498 H2515 0.931 . S
C2499 O2484 1.266 . S
C2499 O2485 1.248 . S
C2500 Tb2436 2.802 . S
C2500 O2480 1.264 . S
C2500 O2483 1.256 . S
C2500 C2493 1.496 . S
C2501 C2468 1.448 . S
C2501 H2478 0.930 . S
C2501 C2502 1.328 . S
C2502 C2473 1.427 . S
C2502 H2479 0.929 . S
C2502 C2501 1.328 . S
C2503 O2487 1.264 . S
C2503 O2488 1.243 . S
C2504 C2507 1.399 . S
C2504 C2508 1.383 . S
C2504 C2511 1.496 . S
C2505 C2506 1.399 . S
C2505 C2508 1.389 . S
C2506 C2505 1.399 . S
C2506 C2509 1.380 . S
C2506 H2516 0.929 . S
C2507 C2504 1.399 . S
C2507 C2509 1.392 . S
C2507 H2517 0.929 . S
C2508 C2504 1.383 . S
C2508 C2505 1.389 . S
C2508 H2518 0.931 . S
C2509 C2506 1.380 . S
C2509 C2507 1.392 . S
C2509 H2519 0.929 . S
C2510 O2490 1.266 . S
C2510 O2491 1.248 . S
C2511 Tb2447 2.802 . S
C2511 O2486 1.264 . S
C2511 O2489 1.256 . S
C2511 C2504 1.496 . S
H2512 C2495 0.929 . S
H2513 C2496 0.929 . S
H2514 C2497 0.929 . S
H2515 C2498 0.931 . S
H2516 C2506 0.929 . S
H2517 C2507 0.929 . S
H2518 C2508 0.931 . S
H2519 C2509 0.929 . S
Tb2520 N2549 2.617 . S
Tb2520 N2555 2.572 . S
Tb2520 O2564 2.465 . S
Tb2520 O2565 2.387 . S
Tb2520 O2567 2.428 . S
Tb2520 O2568 2.308 . S
Tb2520 O2572 2.349 . S
Tb2520 O2575 2.393 . S
Tb2520 C2584 2.802 . S
C2521 N2522 1.379 . S
C2521 C2524 1.416 . S
C2521 C2528 1.424 . S
N2522 C2521 1.379 . S
N2522 C2525 1.334 . S
N2522 Tb2531 2.617 . S
C2523 C2525 1.390 . S
C2523 C2526 1.339 . S
C2523 H2543 0.930 . S
C2524 C2521 1.416 . S
C2524 C2526 1.416 . S
C2524 C2530 1.448 . S
C2525 N2522 1.334 . S
C2525 C2523 1.390 . S
C2525 H2536 0.930 . S
C2526 C2523 1.339 . S
C2526 C2524 1.416 . S
C2526 H2547 0.930 . S
C2527 C2528 1.413 . S
C2527 C2529 1.427 . S
C2527 C2533 1.416 . S
C2528 C2521 1.424 . S
C2528 C2527 1.413 . S
C2528 N2532 1.361 . S
C2529 C2527 1.427 . S
C2529 C2530 1.328 . S
C2529 H2544 0.929 . S
C2530 C2524 1.448 . S
C2530 C2529 1.328 . S
C2530 H2545 0.930 . S
Tb2531 N2522 2.617 . S
Tb2531 N2532 2.572 . S
Tb2531 O2566 2.349 . S
Tb2531 O2569 2.393 . S
Tb2531 O2570 2.465 . S
Tb2531 O2571 2.387 . S
Tb2531 O2573 2.428 . S
Tb2531 O2574 2.308 . S
Tb2531 C2595 2.802 . S
N2532 C2528 1.361 . S
N2532 Tb2531 2.572 . S
N2532 C2534 1.340 . S
C2533 C2527 1.416 . S
C2533 C2535 1.332 . S
C2533 H2541 0.931 . S
C2534 N2532 1.340 . S
C2534 C2535 1.407 . S
C2534 H2540 0.930 . S
C2535 C2533 1.332 . S
C2535 C2534 1.407 . S
C2535 H2537 0.929 . S
H2536 C2525 0.930 . S
H2537 C2535 0.929 . S
H2538 C2553 0.930 . S
H2539 C2560 0.929 . S
H2540 C2534 0.930 . S
H2541 C2533 0.931 . S
H2542 C2556 0.930 . S
H2543 C2523 0.930 . S
H2544 C2529 0.929 . S
H2545 C2530 0.930 . S
H2546 C2551 0.930 . S
H2547 C2526 0.930 . S
H2548 C2559 0.931 . S
N2549 Tb2520 2.617 . S
N2549 C2550 1.379 . S
N2549 C2553 1.334 . S
C2550 N2549 1.379 . S
C2550 C2552 1.416 . S
C2550 C2558 1.424 . S
C2551 H2546 0.930 . S
C2551 C2553 1.390 . S
C2551 C2554 1.339 . S
C2552 C2550 1.416 . S
C2552 C2554 1.416 . S
C2552 C2585 1.448 . S
C2553 H2538 0.930 . S
C2553 N2549 1.334 . S
C2553 C2551 1.390 . S
C2554 C2551 1.339 . S
C2554 C2552 1.416 . S
C2554 H2561 0.930 . S
N2555 Tb2520 2.572 . S
N2555 C2556 1.340 . S
N2555 C2558 1.361 . S
C2556 H2542 0.930 . S
C2556 N2555 1.340 . S
C2556 C2560 1.407 . S
C2557 C2558 1.413 . S
C2557 C2559 1.416 . S
C2557 C2586 1.427 . S
C2558 C2550 1.424 . S
C2558 N2555 1.361 . S
C2558 C2557 1.413 . S
C2559 H2548 0.931 . S
C2559 C2557 1.416 . S
C2559 C2560 1.332 . S
C2560 H2539 0.929 . S
C2560 C2556 1.407 . S
C2560 C2559 1.332 . S
H2561 C2554 0.930 . S
H2562 C2585 0.930 . S
H2563 C2586 0.929 . S
O2564 Tb2520 2.465 . S
O2564 C2584 1.264 . S
O2565 Tb2520 2.387 . S
O2565 C2576 1.264 . S
O2566 Tb2531 2.349 . S
O2566 C2576 1.243 . S
O2567 Tb2520 2.428 . S
O2567 C2584 1.256 . S
O2568 Tb2520 2.308 . S
O2568 C2583 1.266 . S
O2569 Tb2531 2.393 . S
O2569 C2583 1.248 . S
O2570 Tb2531 2.465 . S
O2570 C2595 1.264 . S
O2571 Tb2531 2.387 . S
O2571 C2587 1.264 . S
O2572 Tb2520 2.349 . S
O2572 C2587 1.243 . S
O2573 Tb2531 2.428 . S
O2573 C2595 1.256 . S
O2574 Tb2531 2.308 . S
O2574 C2594 1.266 . S
O2575 Tb2520 2.393 . S
O2575 C2594 1.248 . S
C2576 O2565 1.264 . S
C2576 O2566 1.243 . S
C2577 C2580 1.399 . S
C2577 C2582 1.383 . S
C2577 C2584 1.496 . S
C2578 C2579 1.399 . S
C2578 C2582 1.389 . S
C2579 C2578 1.399 . S
C2579 C2581 1.380 . S
C2579 H2596 0.929 . S
C2580 C2577 1.399 . S
C2580 C2581 1.392 . S
C2580 H2597 0.929 . S
C2581 C2579 1.380 . S
C2581 C2580 1.392 . S
C2581 H2598 0.929 . S
C2582 C2577 1.383 . S
C2582 C2578 1.389 . S
C2582 H2599 0.931 . S
C2583 O2568 1.266 . S
C2583 O2569 1.248 . S
C2584 Tb2520 2.802 . S
C2584 O2564 1.264 . S
C2584 O2567 1.256 . S
C2584 C2577 1.496 . S
C2585 C2552 1.448 . S
C2585 H2562 0.930 . S
C2585 C2586 1.328 . S
C2586 C2557 1.427 . S
C2586 H2563 0.929 . S
C2586 C2585 1.328 . S
C2587 O2571 1.264 . S
C2587 O2572 1.243 . S
C2588 C2591 1.399 . S
C2588 C2592 1.383 . S
C2588 C2595 1.496 . S
C2589 C2590 1.399 . S
C2589 C2592 1.389 . S
C2590 C2589 1.399 . S
C2590 C2593 1.380 . S
C2590 H2600 0.929 . S
C2591 C2588 1.399 . S
C2591 C2593 1.392 . S
C2591 H2601 0.929 . S
C2592 C2588 1.383 . S
C2592 C2589 1.389 . S
C2592 H2602 0.931 . S
C2593 C2590 1.380 . S
C2593 C2591 1.392 . S
C2593 H2603 0.929 . S
C2594 O2574 1.266 . S
C2594 O2575 1.248 . S
C2595 Tb2531 2.802 . S
C2595 O2570 1.264 . S
C2595 O2573 1.256 . S
C2595 C2588 1.496 . S
H2596 C2579 0.929 . S
H2597 C2580 0.929 . S
H2598 C2581 0.929 . S
H2599 C2582 0.931 . S
H2600 C2590 0.929 . S
H2601 C2591 0.929 . S
H2602 C2592 0.931 . S
H2603 C2593 0.929 . S
Tb2604 N2633 2.617 . S
Tb2604 N2639 2.572 1_455 S
Tb2604 O2648 2.465 . S
Tb2604 O2649 2.387 1_455 S
Tb2604 O2651 2.428 . S
Tb2604 O2652 2.308 1_455 S
Tb2604 O2656 2.349 . S
Tb2604 O2659 2.393 . S
Tb2604 C2668 2.802 . S
C2605 N2606 1.379 . S
C2605 C2608 1.416 . S
C2605 C2612 1.424 . S
N2606 C2605 1.379 . S
N2606 C2609 1.334 . S
N2606 Tb2615 2.617 . S
C2607 C2609 1.390 . S
C2607 C2610 1.339 . S
C2607 H2627 0.930 . S
C2608 C2605 1.416 . S
C2608 C2610 1.416 . S
C2608 C2614 1.448 . S
C2609 N2606 1.334 . S
C2609 C2607 1.390 . S
C2609 H2620 0.930 . S
C2610 C2607 1.339 . S
C2610 C2608 1.416 . S
C2610 H2631 0.930 . S
C2611 C2612 1.413 . S
C2611 C2613 1.427 . S
C2611 C2617 1.416 . S
C2612 C2605 1.424 . S
C2612 C2611 1.413 . S
C2612 N2616 1.361 . S
C2613 C2611 1.427 . S
C2613 C2614 1.328 . S
C2613 H2628 0.929 . S
C2614 C2608 1.448 . S
C2614 C2613 1.328 . S
C2614 H2629 0.930 . S
Tb2615 N2606 2.617 . S
Tb2615 N2616 2.572 . S
Tb2615 O2650 2.349 . S
Tb2615 O2653 2.393 . S
Tb2615 O2654 2.465 . S
Tb2615 O2655 2.387 . S
Tb2615 O2657 2.428 . S
Tb2615 O2658 2.308 . S
Tb2615 C2679 2.802 . S
N2616 C2612 1.361 . S
N2616 Tb2615 2.572 . S
N2616 C2618 1.340 . S
C2617 C2611 1.416 . S
C2617 C2619 1.332 . S
C2617 H2625 0.931 . S
C2618 N2616 1.340 . S
C2618 C2619 1.407 . S
C2618 H2624 0.930 . S
C2619 C2617 1.332 . S
C2619 C2618 1.407 . S
C2619 H2621 0.929 . S
H2620 C2609 0.930 . S
H2621 C2619 0.929 . S
H2622 C2637 0.930 . S
H2623 C2644 0.929 . S
H2624 C2618 0.930 . S
H2625 C2617 0.931 . S
H2626 C2640 0.930 . S
H2627 C2607 0.930 . S
H2628 C2613 0.929 . S
H2629 C2614 0.930 . S
H2630 C2635 0.930 . S
H2631 C2610 0.930 . S
H2632 C2643 0.931 . S
N2633 Tb2604 2.617 . S
N2633 C2634 1.379 . S
N2633 C2637 1.334 . S
C2634 N2633 1.379 . S
C2634 C2636 1.416 . S
C2634 C2642 1.424 1_455 S
C2635 H2630 0.930 . S
C2635 C2637 1.390 . S
C2635 C2638 1.339 . S
C2636 C2634 1.416 . S
C2636 C2638 1.416 . S
C2636 C2669 1.448 . S
C2637 H2622 0.930 . S
C2637 N2633 1.334 . S
C2637 C2635 1.390 . S
C2638 C2635 1.339 . S
C2638 C2636 1.416 . S
C2638 H2645 0.930 . S
N2639 Tb2604 2.572 1_655 S
N2639 C2640 1.340 . S
N2639 C2642 1.361 . S
C2640 H2626 0.930 . S
C2640 N2639 1.340 . S
C2640 C2644 1.407 . S
C2641 C2642 1.413 . S
C2641 C2643 1.416 . S
C2641 C2670 1.427 . S
C2642 C2634 1.424 1_655 S
C2642 N2639 1.361 . S
C2642 C2641 1.413 . S
C2643 H2632 0.931 . S
C2643 C2641 1.416 . S
C2643 C2644 1.332 . S
C2644 H2623 0.929 . S
C2644 C2640 1.407 . S
C2644 C2643 1.332 . S
H2645 C2638 0.930 . S
H2646 C2669 0.930 . S
H2647 C2670 0.929 . S
O2648 Tb2604 2.465 . S
O2648 C2668 1.264 . S
O2649 Tb2604 2.387 1_655 S
O2649 C2660 1.264 . S
O2650 Tb2615 2.349 . S
O2650 C2660 1.243 . S
O2651 Tb2604 2.428 . S
O2651 C2668 1.256 . S
O2652 Tb2604 2.308 1_655 S
O2652 C2667 1.266 . S
O2653 Tb2615 2.393 . S
O2653 C2667 1.248 . S
O2654 Tb2615 2.465 . S
O2654 C2679 1.264 . S
O2655 Tb2615 2.387 . S
O2655 C2671 1.264 1_655 S
O2656 Tb2604 2.349 . S
O2656 C2671 1.243 . S
O2657 Tb2615 2.428 . S
O2657 C2679 1.256 . S
O2658 Tb2615 2.308 . S
O2658 C2678 1.278 . S
O2659 Tb2604 2.393 . S
O2659 C2678 1.237 1_455 S
C2660 O2649 1.264 . S
C2660 O2650 1.243 . S
C2661 C2664 1.399 . S
C2661 C2666 1.383 . S
C2661 C2668 1.496 . S
C2662 C2663 1.399 . S
C2662 C2666 1.389 . S
C2663 C2662 1.399 . S
C2663 C2665 1.380 . S
C2663 H2680 0.929 . S
C2664 C2661 1.399 . S
C2664 C2665 1.392 . S
C2664 H2681 0.929 . S
C2665 C2663 1.380 . S
C2665 C2664 1.392 . S
C2665 H2682 0.929 . S
C2666 C2661 1.383 . S
C2666 C2662 1.389 . S
C2666 H2683 0.931 . S
C2667 O2652 1.266 . S
C2667 O2653 1.248 . S
C2668 Tb2604 2.802 . S
C2668 O2648 1.264 . S
C2668 O2651 1.256 . S
C2668 C2661 1.496 . S
C2669 C2636 1.448 . S
C2669 H2646 0.930 . S
C2669 C2670 1.328 1_455 S
C2670 C2641 1.427 . S
C2670 H2647 0.929 . S
C2670 C2669 1.328 1_655 S
C2671 O2655 1.264 1_455 S
C2671 O2656 1.243 . S
C2672 C2675 1.399 . S
C2672 C2676 1.383 . S
C2672 C2679 1.496 . S
C2673 C2674 1.399 . S
C2673 C2676 1.389 . S
C2674 C2673 1.399 . S
C2674 C2677 1.380 . S
C2674 H2684 0.929 . S
C2675 C2672 1.399 . S
C2675 C2677 1.392 . S
C2675 H2685 0.929 . S
C2676 C2672 1.383 . S
C2676 C2673 1.389 . S
C2676 H2686 0.931 . S
C2677 C2674 1.380 . S
C2677 C2675 1.392 . S
C2677 H2687 0.929 . S
C2678 O2658 1.278 . S
C2678 O2659 1.237 1_655 S
C2679 Tb2615 2.802 . S
C2679 O2654 1.264 . S
C2679 O2657 1.256 . S
C2679 C2672 1.496 . S
H2680 C2663 0.929 . S
H2681 C2664 0.929 . S
H2682 C2665 0.929 . S
H2683 C2666 0.931 . S
H2684 C2674 0.929 . S
H2685 C2675 0.929 . S
H2686 C2676 0.931 . S
H2687 C2677 0.929 . S
Tb2688 N2717 2.617 . S
Tb2688 N2723 2.572 . S
Tb2688 O2732 2.465 . S
Tb2688 O2733 2.387 . S
Tb2688 O2735 2.428 . S
Tb2688 O2736 2.308 . S
Tb2688 O2740 2.349 . S
Tb2688 O2743 2.393 . S
Tb2688 C2752 2.802 . S
C2689 N2690 1.379 . S
C2689 C2692 1.416 . S
C2689 C2696 1.424 . S
N2690 C2689 1.379 . S
N2690 C2693 1.334 . S
N2690 Tb2699 2.617 . S
C2691 C2693 1.390 . S
C2691 C2694 1.339 . S
C2691 H2711 0.930 . S
C2692 C2689 1.416 . S
C2692 C2694 1.416 . S
C2692 C2698 1.448 . S
C2693 N2690 1.334 . S
C2693 C2691 1.390 . S
C2693 H2704 0.930 . S
C2694 C2691 1.339 . S
C2694 C2692 1.416 . S
C2694 H2715 0.930 . S
C2695 C2696 1.413 . S
C2695 C2697 1.427 . S
C2695 C2701 1.416 . S
C2696 C2689 1.424 . S
C2696 C2695 1.413 . S
C2696 N2700 1.361 . S
C2697 C2695 1.427 . S
C2697 C2698 1.328 . S
C2697 H2712 0.929 . S
C2698 C2692 1.448 . S
C2698 C2697 1.328 . S
C2698 H2713 0.930 . S
Tb2699 N2690 2.617 . S
Tb2699 N2700 2.572 . S
Tb2699 O2734 2.349 . S
Tb2699 O2737 2.393 . S
Tb2699 O2738 2.465 . S
Tb2699 O2739 2.387 . S
Tb2699 O2741 2.428 . S
Tb2699 O2742 2.308 . S
Tb2699 C2763 2.802 . S
N2700 C2696 1.361 . S
N2700 Tb2699 2.572 . S
N2700 C2702 1.340 . S
C2701 C2695 1.416 . S
C2701 C2703 1.332 . S
C2701 H2709 0.931 . S
C2702 N2700 1.340 . S
C2702 C2703 1.407 . S
C2702 H2708 0.930 . S
C2703 C2701 1.332 . S
C2703 C2702 1.407 . S
C2703 H2705 0.929 . S
H2704 C2693 0.930 . S
H2705 C2703 0.929 . S
H2706 C2721 0.930 . S
H2707 C2728 0.929 . S
H2708 C2702 0.930 . S
H2709 C2701 0.931 . S
H2710 C2724 0.930 . S
H2711 C2691 0.930 . S
H2712 C2697 0.929 . S
H2713 C2698 0.930 . S
H2714 C2719 0.930 . S
H2715 C2694 0.930 . S
H2716 C2727 0.931 . S
N2717 Tb2688 2.617 . S
N2717 C2718 1.379 . S
N2717 C2721 1.334 . S
C2718 N2717 1.379 . S
C2718 C2720 1.416 . S
C2718 C2726 1.424 . S
C2719 H2714 0.930 . S
C2719 C2721 1.390 . S
C2719 C2722 1.339 . S
C2720 C2718 1.416 . S
C2720 C2722 1.416 . S
C2720 C2753 1.448 . S
C2721 H2706 0.930 . S
C2721 N2717 1.334 . S
C2721 C2719 1.390 . S
C2722 C2719 1.339 . S
C2722 C2720 1.416 . S
C2722 H2729 0.930 . S
N2723 Tb2688 2.572 . S
N2723 C2724 1.340 . S
N2723 C2726 1.361 . S
C2724 H2710 0.930 . S
C2724 N2723 1.340 . S
C2724 C2728 1.407 . S
C2725 C2726 1.413 . S
C2725 C2727 1.416 . S
C2725 C2754 1.427 . S
C2726 C2718 1.424 . S
C2726 N2723 1.361 . S
C2726 C2725 1.413 . S
C2727 H2716 0.931 . S
C2727 C2725 1.416 . S
C2727 C2728 1.332 . S
C2728 H2707 0.929 . S
C2728 C2724 1.407 . S
C2728 C2727 1.332 . S
H2729 C2722 0.930 . S
H2730 C2753 0.930 . S
H2731 C2754 0.929 . S
O2732 Tb2688 2.465 . S
O2732 C2752 1.264 . S
O2733 Tb2688 2.387 . S
O2733 C2744 1.264 . S
O2734 Tb2699 2.349 . S
O2734 C2744 1.243 . S
O2735 Tb2688 2.428 . S
O2735 C2752 1.256 . S
O2736 Tb2688 2.308 . S
O2736 C2751 1.266 . S
O2737 Tb2699 2.393 . S
O2737 C2751 1.248 . S
O2738 Tb2699 2.465 . S
O2738 C2763 1.264 . S
O2739 Tb2699 2.387 . S
O2739 C2755 1.264 . S
O2740 Tb2688 2.349 . S
O2740 C2755 1.243 . S
O2741 Tb2699 2.428 . S
O2741 C2763 1.256 . S
O2742 Tb2699 2.308 . S
O2742 C2762 1.266 . S
O2743 Tb2688 2.393 . S
O2743 C2762 1.248 . S
C2744 O2733 1.264 . S
C2744 O2734 1.243 . S
C2745 C2748 1.399 . S
C2745 C2750 1.383 . S
C2745 C2752 1.496 . S
C2746 C2747 1.399 . S
C2746 C2750 1.389 . S
C2747 C2746 1.399 . S
C2747 C2749 1.380 . S
C2747 H2764 0.929 . S
C2748 C2745 1.399 . S
C2748 C2749 1.392 . S
C2748 H2765 0.929 . S
C2749 C2747 1.380 . S
C2749 C2748 1.392 . S
C2749 H2766 0.929 . S
C2750 C2745 1.383 . S
C2750 C2746 1.389 . S
C2750 H2767 0.931 . S
C2751 O2736 1.266 . S
C2751 O2737 1.248 . S
C2752 Tb2688 2.802 . S
C2752 O2732 1.264 . S
C2752 O2735 1.256 . S
C2752 C2745 1.496 . S
C2753 C2720 1.448 . S
C2753 H2730 0.930 . S
C2753 C2754 1.328 . S
C2754 C2725 1.427 . S
C2754 H2731 0.929 . S
C2754 C2753 1.328 . S
C2755 O2739 1.264 . S
C2755 O2740 1.243 . S
C2756 C2759 1.399 . S
C2756 C2760 1.383 . S
C2756 C2763 1.496 . S
C2757 C2758 1.399 . S
C2757 C2760 1.389 . S
C2758 C2757 1.399 . S
C2758 C2761 1.380 . S
C2758 H2768 0.929 . S
C2759 C2756 1.399 . S
C2759 C2761 1.392 . S
C2759 H2769 0.929 . S
C2760 C2756 1.383 . S
C2760 C2757 1.389 . S
C2760 H2770 0.931 . S
C2761 C2758 1.380 . S
C2761 C2759 1.392 . S
C2761 H2771 0.929 . S
C2762 O2742 1.266 . S
C2762 O2743 1.248 . S
C2763 Tb2699 2.802 . S
C2763 O2738 1.264 . S
C2763 O2741 1.256 . S
C2763 C2756 1.496 . S
H2764 C2747 0.929 . S
H2765 C2748 0.929 . S
H2766 C2749 0.929 . S
H2767 C2750 0.931 . S
H2768 C2758 0.929 . S
H2769 C2759 0.929 . S
H2770 C2760 0.931 . S
H2771 C2761 0.929 . S
Tb2772 N2801 2.617 . S
Tb2772 N2807 2.572 1_554 S
Tb2772 O2816 2.465 . S
Tb2772 O2817 2.387 1_554 S
Tb2772 O2819 2.428 . S
Tb2772 O2820 2.308 1_554 S
Tb2772 O2824 2.349 . S
Tb2772 O2827 2.393 . S
Tb2772 C2836 2.802 . S
C2773 N2774 1.379 . S
C2773 C2776 1.416 . S
C2773 C2780 1.424 . S
N2774 C2773 1.379 . S
N2774 C2777 1.334 . S
N2774 Tb2783 2.617 . S
C2775 C2777 1.390 . S
C2775 C2778 1.339 . S
C2775 H2795 0.930 . S
C2776 C2773 1.416 . S
C2776 C2778 1.416 . S
C2776 C2782 1.448 . S
C2777 N2774 1.334 . S
C2777 C2775 1.390 . S
C2777 H2788 0.930 . S
C2778 C2775 1.339 . S
C2778 C2776 1.416 . S
C2778 H2799 0.930 . S
C2779 C2780 1.413 . S
C2779 C2781 1.427 . S
C2779 C2785 1.416 . S
C2780 C2773 1.424 . S
C2780 C2779 1.413 . S
C2780 N2784 1.361 . S
C2781 C2779 1.427 . S
C2781 C2782 1.328 . S
C2781 H2796 0.929 . S
C2782 C2776 1.448 . S
C2782 C2781 1.328 . S
C2782 H2797 0.930 . S
Tb2783 N2774 2.617 . S
Tb2783 N2784 2.572 . S
Tb2783 O2818 2.349 . S
Tb2783 O2821 2.393 . S
Tb2783 O2822 2.465 . S
Tb2783 O2823 2.387 . S
Tb2783 O2825 2.428 . S
Tb2783 O2826 2.308 . S
Tb2783 C2847 2.802 . S
N2784 C2780 1.361 . S
N2784 Tb2783 2.572 . S
N2784 C2786 1.340 . S
C2785 C2779 1.416 . S
C2785 C2787 1.332 . S
C2785 H2793 0.931 . S
C2786 N2784 1.340 . S
C2786 C2787 1.407 . S
C2786 H2792 0.930 . S
C2787 C2785 1.332 . S
C2787 C2786 1.407 . S
C2787 H2789 0.929 . S
H2788 C2777 0.930 . S
H2789 C2787 0.929 . S
H2790 C2805 0.930 . S
H2791 C2812 0.929 . S
H2792 C2786 0.930 . S
H2793 C2785 0.931 . S
H2794 C2808 0.930 . S
H2795 C2775 0.930 . S
H2796 C2781 0.929 . S
H2797 C2782 0.930 . S
H2798 C2803 0.930 . S
H2799 C2778 0.930 . S
H2800 C2811 0.931 . S
N2801 Tb2772 2.617 . S
N2801 C2802 1.379 . S
N2801 C2805 1.334 . S
C2802 N2801 1.379 . S
C2802 C2804 1.416 . S
C2802 C2810 1.424 1_554 S
C2803 H2798 0.930 . S
C2803 C2805 1.390 . S
C2803 C2806 1.339 . S
C2804 C2802 1.416 . S
C2804 C2806 1.416 . S
C2804 C2837 1.448 . S
C2805 H2790 0.930 . S
C2805 N2801 1.334 . S
C2805 C2803 1.390 . S
C2806 C2803 1.339 . S
C2806 C2804 1.416 . S
C2806 H2813 0.930 . S
N2807 Tb2772 2.572 1_556 S
N2807 C2808 1.340 . S
N2807 C2810 1.361 . S
C2808 H2794 0.930 . S
C2808 N2807 1.340 . S
C2808 C2812 1.407 . S
C2809 C2810 1.413 . S
C2809 C2811 1.416 . S
C2809 C2838 1.427 . S
C2810 C2802 1.424 1_556 S
C2810 N2807 1.361 . S
C2810 C2809 1.413 . S
C2811 H2800 0.931 . S
C2811 C2809 1.416 . S
C2811 C2812 1.332 . S
C2812 H2791 0.929 . S
C2812 C2808 1.407 . S
C2812 C2811 1.332 . S
H2813 C2806 0.930 . S
H2814 C2837 0.930 . S
H2815 C2838 0.929 . S
O2816 Tb2772 2.465 . S
O2816 C2836 1.264 . S
O2817 Tb2772 2.387 1_556 S
O2817 C2828 1.264 . S
O2818 Tb2783 2.349 . S
O2818 C2828 1.243 . S
O2819 Tb2772 2.428 . S
O2819 C2836 1.256 . S
O2820 Tb2772 2.308 1_556 S
O2820 C2835 1.266 . S
O2821 Tb2783 2.393 . S
O2821 C2835 1.248 . S
O2822 Tb2783 2.465 . S
O2822 C2847 1.264 . S
O2823 Tb2783 2.387 . S
O2823 C2839 1.264 1_556 S
O2824 Tb2772 2.349 . S
O2824 C2839 1.243 . S
O2825 Tb2783 2.428 . S
O2825 C2847 1.256 . S
O2826 Tb2783 2.308 . S
O2826 C2846 1.280 . S
O2827 Tb2772 2.393 . S
O2827 C2846 1.236 1_554 S
C2828 O2817 1.264 . S
C2828 O2818 1.243 . S
C2829 C2832 1.399 . S
C2829 C2834 1.383 . S
C2829 C2836 1.496 . S
C2830 C2831 1.399 . S
C2830 C2834 1.389 . S
C2831 C2830 1.399 . S
C2831 C2833 1.380 . S
C2831 H2848 0.929 . S
C2832 C2829 1.399 . S
C2832 C2833 1.392 . S
C2832 H2849 0.929 . S
C2833 C2831 1.380 . S
C2833 C2832 1.392 . S
C2833 H2850 0.929 . S
C2834 C2829 1.383 . S
C2834 C2830 1.389 . S
C2834 H2851 0.931 . S
C2835 O2820 1.266 . S
C2835 O2821 1.248 . S
C2836 Tb2772 2.802 . S
C2836 O2816 1.264 . S
C2836 O2819 1.256 . S
C2836 C2829 1.496 . S
C2837 C2804 1.448 . S
C2837 H2814 0.930 . S
C2837 C2838 1.328 1_554 S
C2838 C2809 1.427 . S
C2838 H2815 0.929 . S
C2838 C2837 1.328 1_556 S
C2839 O2823 1.264 1_554 S
C2839 O2824 1.243 . S
C2840 C2843 1.399 . S
C2840 C2844 1.383 . S
C2840 C2847 1.496 . S
C2841 C2842 1.399 . S
C2841 C2844 1.389 . S
C2842 C2841 1.399 . S
C2842 C2845 1.380 . S
C2842 H2852 0.929 . S
C2843 C2840 1.399 . S
C2843 C2845 1.392 . S
C2843 H2853 0.929 . S
C2844 C2840 1.383 . S
C2844 C2841 1.389 . S
C2844 H2854 0.931 . S
C2845 C2842 1.380 . S
C2845 C2843 1.392 . S
C2845 H2855 0.929 . S
C2846 O2826 1.280 . S
C2846 O2827 1.236 1_556 S
C2847 Tb2783 2.802 . S
C2847 O2822 1.264 . S
C2847 O2825 1.256 . S
C2847 C2840 1.496 . S
H2848 C2831 0.929 . S
H2849 C2832 0.929 . S
H2850 C2833 0.929 . S
H2851 C2834 0.931 . S
H2852 C2842 0.929 . S
H2853 C2843 0.929 . S
H2854 C2844 0.931 . S
H2855 C2845 0.929 . S
Tb2856 N2885 2.617 . S
Tb2856 N2891 2.572 . S
Tb2856 O2900 2.465 . S
Tb2856 O2901 2.387 . S
Tb2856 O2903 2.428 . S
Tb2856 O2904 2.308 . S
Tb2856 O2908 2.349 . S
Tb2856 O2911 2.393 . S
Tb2856 C2920 2.802 . S
C2857 N2858 1.379 . S
C2857 C2860 1.416 . S
C2857 C2864 1.424 . S
N2858 C2857 1.379 . S
N2858 C2861 1.334 . S
N2858 Tb2867 2.617 . S
C2859 C2861 1.390 . S
C2859 C2862 1.339 . S
C2859 H2879 0.930 . S
C2860 C2857 1.416 . S
C2860 C2862 1.416 . S
C2860 C2866 1.448 . S
C2861 N2858 1.334 . S
C2861 C2859 1.390 . S
C2861 H2872 0.930 . S
C2862 C2859 1.339 . S
C2862 C2860 1.416 . S
C2862 H2883 0.930 . S
C2863 C2864 1.413 . S
C2863 C2865 1.427 . S
C2863 C2869 1.416 . S
C2864 C2857 1.424 . S
C2864 C2863 1.413 . S
C2864 N2868 1.361 . S
C2865 C2863 1.427 . S
C2865 C2866 1.328 . S
C2865 H2880 0.929 . S
C2866 C2860 1.448 . S
C2866 C2865 1.328 . S
C2866 H2881 0.930 . S
Tb2867 N2858 2.617 . S
Tb2867 N2868 2.572 . S
Tb2867 O2902 2.349 . S
Tb2867 O2905 2.393 . S
Tb2867 O2906 2.465 . S
Tb2867 O2907 2.387 . S
Tb2867 O2909 2.428 . S
Tb2867 O2910 2.308 . S
Tb2867 C2931 2.802 . S
N2868 C2864 1.361 . S
N2868 Tb2867 2.572 . S
N2868 C2870 1.340 . S
C2869 C2863 1.416 . S
C2869 C2871 1.332 . S
C2869 H2877 0.931 . S
C2870 N2868 1.340 . S
C2870 C2871 1.407 . S
C2870 H2876 0.930 . S
C2871 C2869 1.332 . S
C2871 C2870 1.407 . S
C2871 H2873 0.929 . S
H2872 C2861 0.930 . S
H2873 C2871 0.929 . S
H2874 C2889 0.930 . S
H2875 C2896 0.929 . S
H2876 C2870 0.930 . S
H2877 C2869 0.931 . S
H2878 C2892 0.930 . S
H2879 C2859 0.930 . S
H2880 C2865 0.929 . S
H2881 C2866 0.930 . S
H2882 C2887 0.930 . S
H2883 C2862 0.930 . S
H2884 C2895 0.931 . S
N2885 Tb2856 2.617 . S
N2885 C2886 1.379 . S
N2885 C2889 1.334 . S
C2886 N2885 1.379 . S
C2886 C2888 1.416 . S
C2886 C2894 1.424 . S
C2887 H2882 0.930 . S
C2887 C2889 1.390 . S
C2887 C2890 1.339 . S
C2888 C2886 1.416 . S
C2888 C2890 1.416 . S
C2888 C2921 1.448 . S
C2889 H2874 0.930 . S
C2889 N2885 1.334 . S
C2889 C2887 1.390 . S
C2890 C2887 1.339 . S
C2890 C2888 1.416 . S
C2890 H2897 0.930 . S
N2891 Tb2856 2.572 . S
N2891 C2892 1.340 . S
N2891 C2894 1.361 . S
C2892 H2878 0.930 . S
C2892 N2891 1.340 . S
C2892 C2896 1.407 . S
C2893 C2894 1.413 . S
C2893 C2895 1.416 . S
C2893 C2922 1.427 . S
C2894 C2886 1.424 . S
C2894 N2891 1.361 . S
C2894 C2893 1.413 . S
C2895 H2884 0.931 . S
C2895 C2893 1.416 . S
C2895 C2896 1.332 . S
C2896 H2875 0.929 . S
C2896 C2892 1.407 . S
C2896 C2895 1.332 . S
H2897 C2890 0.930 . S
H2898 C2921 0.930 . S
H2899 C2922 0.929 . S
O2900 Tb2856 2.465 . S
O2900 C2920 1.264 . S
O2901 Tb2856 2.387 . S
O2901 C2912 1.264 . S
O2902 Tb2867 2.349 . S
O2902 C2912 1.243 . S
O2903 Tb2856 2.428 . S
O2903 C2920 1.256 . S
O2904 Tb2856 2.308 . S
O2904 C2919 1.266 . S
O2905 Tb2867 2.393 . S
O2905 C2919 1.248 . S
O2906 Tb2867 2.465 . S
O2906 C2931 1.264 . S
O2907 Tb2867 2.387 . S
O2907 C2923 1.264 . S
O2908 Tb2856 2.349 . S
O2908 C2923 1.243 . S
O2909 Tb2867 2.428 . S
O2909 C2931 1.256 . S
O2910 Tb2867 2.308 . S
O2910 C2930 1.266 . S
O2911 Tb2856 2.393 . S
O2911 C2930 1.248 . S
C2912 O2901 1.264 . S
C2912 O2902 1.243 . S
C2913 C2916 1.399 . S
C2913 C2918 1.383 . S
C2913 C2920 1.496 . S
C2914 C2915 1.399 . S
C2914 C2918 1.389 . S
C2915 C2914 1.399 . S
C2915 C2917 1.380 . S
C2915 H2932 0.929 . S
C2916 C2913 1.399 . S
C2916 C2917 1.392 . S
C2916 H2933 0.929 . S
C2917 C2915 1.380 . S
C2917 C2916 1.392 . S
C2917 H2934 0.929 . S
C2918 C2913 1.383 . S
C2918 C2914 1.389 . S
C2918 H2935 0.931 . S
C2919 O2904 1.266 . S
C2919 O2905 1.248 . S
C2920 Tb2856 2.802 . S
C2920 O2900 1.264 . S
C2920 O2903 1.256 . S
C2920 C2913 1.496 . S
C2921 C2888 1.448 . S
C2921 H2898 0.930 . S
C2921 C2922 1.328 . S
C2922 C2893 1.427 . S
C2922 H2899 0.929 . S
C2922 C2921 1.328 . S
C2923 O2907 1.264 . S
C2923 O2908 1.243 . S
C2924 C2927 1.399 . S
C2924 C2928 1.383 . S
C2924 C2931 1.496 . S
C2925 C2926 1.399 . S
C2925 C2928 1.389 . S
C2926 C2925 1.399 . S
C2926 C2929 1.380 . S
C2926 H2936 0.929 . S
C2927 C2924 1.399 . S
C2927 C2929 1.392 . S
C2927 H2937 0.929 . S
C2928 C2924 1.383 . S
C2928 C2925 1.389 . S
C2928 H2938 0.931 . S
C2929 C2926 1.380 . S
C2929 C2927 1.392 . S
C2929 H2939 0.929 . S
C2930 O2910 1.266 . S
C2930 O2911 1.248 . S
C2931 Tb2867 2.802 . S
C2931 O2906 1.264 . S
C2931 O2909 1.256 . S
C2931 C2924 1.496 . S
H2932 C2915 0.929 . S
H2933 C2916 0.929 . S
H2934 C2917 0.929 . S
H2935 C2918 0.931 . S
H2936 C2926 0.929 . S
H2937 C2927 0.929 . S
H2938 C2928 0.931 . S
H2939 C2929 0.929 . S
Tb2940 N2969 2.617 . S
Tb2940 N2975 2.572 . S
Tb2940 O2984 2.465 . S
Tb2940 O2985 2.387 . S
Tb2940 O2987 2.428 . S
Tb2940 O2988 2.308 . S
Tb2940 O2992 2.349 . S
Tb2940 O2995 2.393 . S
Tb2940 C3004 2.802 . S
C2941 N2942 1.379 . S
C2941 C2944 1.416 . S
C2941 C2948 1.424 . S
N2942 C2941 1.379 . S
N2942 C2945 1.334 . S
N2942 Tb2951 2.617 . S
C2943 C2945 1.390 . S
C2943 C2946 1.339 . S
C2943 H2963 0.930 . S
C2944 C2941 1.416 . S
C2944 C2946 1.416 . S
C2944 C2950 1.448 . S
C2945 N2942 1.334 . S
C2945 C2943 1.390 . S
C2945 H2956 0.930 . S
C2946 C2943 1.339 . S
C2946 C2944 1.416 . S
C2946 H2967 0.930 . S
C2947 C2948 1.413 . S
C2947 C2949 1.427 . S
C2947 C2953 1.416 . S
C2948 C2941 1.424 . S
C2948 C2947 1.413 . S
C2948 N2952 1.361 . S
C2949 C2947 1.427 . S
C2949 C2950 1.328 . S
C2949 H2964 0.929 . S
C2950 C2944 1.448 . S
C2950 C2949 1.328 . S
C2950 H2965 0.930 . S
Tb2951 N2942 2.617 . S
Tb2951 N2952 2.572 . S
Tb2951 O2986 2.349 . S
Tb2951 O2989 2.393 . S
Tb2951 O2990 2.465 . S
Tb2951 O2991 2.387 . S
Tb2951 O2993 2.428 . S
Tb2951 O2994 2.308 . S
Tb2951 C3015 2.802 . S
N2952 C2948 1.361 . S
N2952 Tb2951 2.572 . S
N2952 C2954 1.340 . S
C2953 C2947 1.416 . S
C2953 C2955 1.332 . S
C2953 H2961 0.931 . S
C2954 N2952 1.340 . S
C2954 C2955 1.407 . S
C2954 H2960 0.930 . S
C2955 C2953 1.332 . S
C2955 C2954 1.407 . S
C2955 H2957 0.929 . S
H2956 C2945 0.930 . S
H2957 C2955 0.929 . S
H2958 C2973 0.930 . S
H2959 C2980 0.929 . S
H2960 C2954 0.930 . S
H2961 C2953 0.931 . S
H2962 C2976 0.930 . S
H2963 C2943 0.930 . S
H2964 C2949 0.929 . S
H2965 C2950 0.930 . S
H2966 C2971 0.930 . S
H2967 C2946 0.930 . S
H2968 C2979 0.931 . S
N2969 Tb2940 2.617 . S
N2969 C2970 1.379 . S
N2969 C2973 1.334 . S
C2970 N2969 1.379 . S
C2970 C2972 1.416 . S
C2970 C2978 1.424 . S
C2971 H2966 0.930 . S
C2971 C2973 1.390 . S
C2971 C2974 1.339 . S
C2972 C2970 1.416 . S
C2972 C2974 1.416 . S
C2972 C3005 1.448 . S
C2973 H2958 0.930 . S
C2973 N2969 1.334 . S
C2973 C2971 1.390 . S
C2974 C2971 1.339 . S
C2974 C2972 1.416 . S
C2974 H2981 0.930 . S
N2975 Tb2940 2.572 . S
N2975 C2976 1.340 . S
N2975 C2978 1.361 . S
C2976 H2962 0.930 . S
C2976 N2975 1.340 . S
C2976 C2980 1.407 . S
C2977 C2978 1.413 . S
C2977 C2979 1.416 . S
C2977 C3006 1.427 . S
C2978 C2970 1.424 . S
C2978 N2975 1.361 . S
C2978 C2977 1.413 . S
C2979 H2968 0.931 . S
C2979 C2977 1.416 . S
C2979 C2980 1.332 . S
C2980 H2959 0.929 . S
C2980 C2976 1.407 . S
C2980 C2979 1.332 . S
H2981 C2974 0.930 . S
H2982 C3005 0.930 . S
H2983 C3006 0.929 . S
O2984 Tb2940 2.465 . S
O2984 C3004 1.264 . S
O2985 Tb2940 2.387 . S
O2985 C2996 1.264 . S
O2986 Tb2951 2.349 . S
O2986 C2996 1.243 . S
O2987 Tb2940 2.428 . S
O2987 C3004 1.256 . S
O2988 Tb2940 2.308 . S
O2988 C3003 1.266 . S
O2989 Tb2951 2.393 . S
O2989 C3003 1.248 . S
O2990 Tb2951 2.465 . S
O2990 C3015 1.264 . S
O2991 Tb2951 2.387 . S
O2991 C3007 1.264 . S
O2992 Tb2940 2.349 . S
O2992 C3007 1.243 . S
O2993 Tb2951 2.428 . S
O2993 C3015 1.256 . S
O2994 Tb2951 2.308 . S
O2994 C3014 1.266 . S
O2995 Tb2940 2.393 . S
O2995 C3014 1.248 . S
C2996 O2985 1.264 . S
C2996 O2986 1.243 . S
C2997 C3000 1.399 . S
C2997 C3002 1.383 . S
C2997 C3004 1.496 . S
C2998 C2999 1.399 . S
C2998 C3002 1.389 . S
C2999 C2998 1.399 . S
C2999 C3001 1.380 . S
C2999 H3016 0.929 . S
C3000 C2997 1.399 . S
C3000 C3001 1.392 . S
C3000 H3017 0.929 . S
C3001 C2999 1.380 . S
C3001 C3000 1.392 . S
C3001 H3018 0.929 . S
C3002 C2997 1.383 . S
C3002 C2998 1.389 . S
C3002 H3019 0.931 . S
C3003 O2988 1.266 . S
C3003 O2989 1.248 . S
C3004 Tb2940 2.802 . S
C3004 O2984 1.264 . S
C3004 O2987 1.256 . S
C3004 C2997 1.496 . S
C3005 C2972 1.448 . S
C3005 H2982 0.930 . S
C3005 C3006 1.328 . S
C3006 C2977 1.427 . S
C3006 H2983 0.929 . S
C3006 C3005 1.328 . S
C3007 O2991 1.264 . S
C3007 O2992 1.243 . S
C3008 C3011 1.399 . S
C3008 C3012 1.383 . S
C3008 C3015 1.496 . S
C3009 C3010 1.399 . S
C3009 C3012 1.389 . S
C3010 C3009 1.399 . S
C3010 C3013 1.380 . S
C3010 H3020 0.929 . S
C3011 C3008 1.399 . S
C3011 C3013 1.392 . S
C3011 H3021 0.929 . S
C3012 C3008 1.383 . S
C3012 C3009 1.389 . S
C3012 H3022 0.931 . S
C3013 C3010 1.380 . S
C3013 C3011 1.392 . S
C3013 H3023 0.929 . S
C3014 O2994 1.266 . S
C3014 O2995 1.248 . S
C3015 Tb2951 2.802 . S
C3015 O2990 1.264 . S
C3015 O2993 1.256 . S
C3015 C3008 1.496 . S
H3016 C2999 0.929 . S
H3017 C3000 0.929 . S
H3018 C3001 0.929 . S
H3019 C3002 0.931 . S
H3020 C3010 0.929 . S
H3021 C3011 0.929 . S
H3022 C3012 0.931 . S
H3023 C3013 0.929 . S
Tb3024 N3053 2.617 . S
Tb3024 N3059 2.572 . S
Tb3024 O3068 2.465 . S
Tb3024 O3069 2.387 . S
Tb3024 O3071 2.428 . S
Tb3024 O3072 2.308 . S
Tb3024 O3076 2.349 . S
Tb3024 O3079 2.393 . S
Tb3024 C3088 2.802 . S
C3025 N3026 1.379 . S
C3025 C3028 1.416 . S
C3025 C3032 1.424 . S
N3026 C3025 1.379 . S
N3026 C3029 1.334 . S
N3026 Tb3035 2.617 . S
C3027 C3029 1.390 . S
C3027 C3030 1.339 . S
C3027 H3047 0.930 . S
C3028 C3025 1.416 . S
C3028 C3030 1.416 . S
C3028 C3034 1.448 . S
C3029 N3026 1.334 . S
C3029 C3027 1.390 . S
C3029 H3040 0.930 . S
C3030 C3027 1.339 . S
C3030 C3028 1.416 . S
C3030 H3051 0.930 . S
C3031 C3032 1.413 . S
C3031 C3033 1.427 . S
C3031 C3037 1.416 . S
C3032 C3025 1.424 . S
C3032 C3031 1.413 . S
C3032 N3036 1.361 . S
C3033 C3031 1.427 . S
C3033 C3034 1.328 . S
C3033 H3048 0.929 . S
C3034 C3028 1.448 . S
C3034 C3033 1.328 . S
C3034 H3049 0.930 . S
Tb3035 N3026 2.617 . S
Tb3035 N3036 2.572 . S
Tb3035 O3070 2.349 . S
Tb3035 O3073 2.393 . S
Tb3035 O3074 2.465 . S
Tb3035 O3075 2.387 . S
Tb3035 O3077 2.428 . S
Tb3035 O3078 2.308 . S
Tb3035 C3099 2.802 . S
N3036 C3032 1.361 . S
N3036 Tb3035 2.572 . S
N3036 C3038 1.340 . S
C3037 C3031 1.416 . S
C3037 C3039 1.332 . S
C3037 H3045 0.931 . S
C3038 N3036 1.340 . S
C3038 C3039 1.407 . S
C3038 H3044 0.930 . S
C3039 C3037 1.332 . S
C3039 C3038 1.407 . S
C3039 H3041 0.929 . S
H3040 C3029 0.930 . S
H3041 C3039 0.929 . S
H3042 C3057 0.930 . S
H3043 C3064 0.929 . S
H3044 C3038 0.930 . S
H3045 C3037 0.931 . S
H3046 C3060 0.930 . S
H3047 C3027 0.930 . S
H3048 C3033 0.929 . S
H3049 C3034 0.930 . S
H3050 C3055 0.930 . S
H3051 C3030 0.930 . S
H3052 C3063 0.931 . S
N3053 Tb3024 2.617 . S
N3053 C3054 1.379 . S
N3053 C3057 1.334 . S
C3054 N3053 1.379 . S
C3054 C3056 1.416 . S
C3054 C3062 1.424 . S
C3055 H3050 0.930 . S
C3055 C3057 1.390 . S
C3055 C3058 1.339 . S
C3056 C3054 1.416 . S
C3056 C3058 1.416 . S
C3056 C3089 1.448 . S
C3057 H3042 0.930 . S
C3057 N3053 1.334 . S
C3057 C3055 1.390 . S
C3058 C3055 1.339 . S
C3058 C3056 1.416 . S
C3058 H3065 0.930 . S
N3059 Tb3024 2.572 . S
N3059 C3060 1.340 . S
N3059 C3062 1.361 . S
C3060 H3046 0.930 . S
C3060 N3059 1.340 . S
C3060 C3064 1.407 . S
C3061 C3062 1.413 . S
C3061 C3063 1.416 . S
C3061 C3090 1.427 . S
C3062 C3054 1.424 . S
C3062 N3059 1.361 . S
C3062 C3061 1.413 . S
C3063 H3052 0.931 . S
C3063 C3061 1.416 . S
C3063 C3064 1.332 . S
C3064 H3043 0.929 . S
C3064 C3060 1.407 . S
C3064 C3063 1.332 . S
H3065 C3058 0.930 . S
H3066 C3089 0.930 . S
H3067 C3090 0.929 . S
O3068 Tb3024 2.465 . S
O3068 C3088 1.264 . S
O3069 Tb3024 2.387 . S
O3069 C3080 1.264 . S
O3070 Tb3035 2.349 . S
O3070 C3080 1.243 . S
O3071 Tb3024 2.428 . S
O3071 C3088 1.256 . S
O3072 Tb3024 2.308 . S
O3072 C3087 1.266 . S
O3073 Tb3035 2.393 . S
O3073 C3087 1.248 . S
O3074 Tb3035 2.465 . S
O3074 C3099 1.264 . S
O3075 Tb3035 2.387 . S
O3075 C3091 1.264 . S
O3076 Tb3024 2.349 . S
O3076 C3091 1.243 . S
O3077 Tb3035 2.428 . S
O3077 C3099 1.256 . S
O3078 Tb3035 2.308 . S
O3078 C3098 1.266 . S
O3079 Tb3024 2.393 . S
O3079 C3098 1.248 . S
C3080 O3069 1.264 . S
C3080 O3070 1.243 . S
C3081 C3084 1.399 . S
C3081 C3086 1.383 . S
C3081 C3088 1.496 . S
C3082 C3083 1.399 . S
C3082 C3086 1.389 . S
C3083 C3082 1.399 . S
C3083 C3085 1.380 . S
C3083 H3100 0.929 . S
C3084 C3081 1.399 . S
C3084 C3085 1.392 . S
C3084 H3101 0.929 . S
C3085 C3083 1.380 . S
C3085 C3084 1.392 . S
C3085 H3102 0.929 . S
C3086 C3081 1.383 . S
C3086 C3082 1.389 . S
C3086 H3103 0.931 . S
C3087 O3072 1.266 . S
C3087 O3073 1.248 . S
C3088 Tb3024 2.802 . S
C3088 O3068 1.264 . S
C3088 O3071 1.256 . S
C3088 C3081 1.496 . S
C3089 C3056 1.448 . S
C3089 H3066 0.930 . S
C3089 C3090 1.328 . S
C3090 C3061 1.427 . S
C3090 H3067 0.929 . S
C3090 C3089 1.328 . S
C3091 O3075 1.264 . S
C3091 O3076 1.243 . S
C3092 C3095 1.399 . S
C3092 C3096 1.383 . S
C3092 C3099 1.496 . S
C3093 C3094 1.399 . S
C3093 C3096 1.389 . S
C3094 C3093 1.399 . S
C3094 C3097 1.380 . S
C3094 H3104 0.929 . S
C3095 C3092 1.399 . S
C3095 C3097 1.392 . S
C3095 H3105 0.929 . S
C3096 C3092 1.383 . S
C3096 C3093 1.389 . S
C3096 H3106 0.931 . S
C3097 C3094 1.380 . S
C3097 C3095 1.392 . S
C3097 H3107 0.929 . S
C3098 O3078 1.266 . S
C3098 O3079 1.248 . S
C3099 Tb3035 2.802 . S
C3099 O3074 1.264 . S
C3099 O3077 1.256 . S
C3099 C3092 1.496 . S
H3100 C3083 0.929 . S
H3101 C3084 0.929 . S
H3102 C3085 0.929 . S
H3103 C3086 0.931 . S
H3104 C3094 0.929 . S
H3105 C3095 0.929 . S
H3106 C3096 0.931 . S
H3107 C3097 0.929 . S
Tb3108 N3137 2.617 . S
Tb3108 N3143 2.572 . S
Tb3108 O3152 2.465 . S
Tb3108 O3153 2.387 . S
Tb3108 O3155 2.428 . S
Tb3108 O3156 2.308 . S
Tb3108 O3160 2.349 . S
Tb3108 O3163 2.393 . S
Tb3108 C3172 2.802 . S
C3109 N3110 1.379 . S
C3109 C3112 1.416 . S
C3109 C3116 1.424 . S
N3110 C3109 1.379 . S
N3110 C3113 1.334 . S
N3110 Tb3119 2.617 . S
C3111 C3113 1.390 . S
C3111 C3114 1.339 . S
C3111 H3131 0.930 . S
C3112 C3109 1.416 . S
C3112 C3114 1.416 . S
C3112 C3118 1.448 . S
C3113 N3110 1.334 . S
C3113 C3111 1.390 . S
C3113 H3124 0.930 . S
C3114 C3111 1.339 . S
C3114 C3112 1.416 . S
C3114 H3135 0.930 . S
C3115 C3116 1.413 . S
C3115 C3117 1.427 . S
C3115 C3121 1.416 . S
C3116 C3109 1.424 . S
C3116 C3115 1.413 . S
C3116 N3120 1.361 . S
C3117 C3115 1.427 . S
C3117 C3118 1.328 . S
C3117 H3132 0.929 . S
C3118 C3112 1.448 . S
C3118 C3117 1.328 . S
C3118 H3133 0.930 . S
Tb3119 N3110 2.617 . S
Tb3119 N3120 2.572 . S
Tb3119 O3154 2.349 . S
Tb3119 O3157 2.393 . S
Tb3119 O3158 2.465 . S
Tb3119 O3159 2.387 . S
Tb3119 O3161 2.428 . S
Tb3119 O3162 2.308 . S
Tb3119 C3183 2.802 . S
N3120 C3116 1.361 . S
N3120 Tb3119 2.572 . S
N3120 C3122 1.340 . S
C3121 C3115 1.416 . S
C3121 C3123 1.332 . S
C3121 H3129 0.931 . S
C3122 N3120 1.340 . S
C3122 C3123 1.407 . S
C3122 H3128 0.930 . S
C3123 C3121 1.332 . S
C3123 C3122 1.407 . S
C3123 H3125 0.929 . S
H3124 C3113 0.930 . S
H3125 C3123 0.929 . S
H3126 C3141 0.930 . S
H3127 C3148 0.929 . S
H3128 C3122 0.930 . S
H3129 C3121 0.931 . S
H3130 C3144 0.930 . S
H3131 C3111 0.930 . S
H3132 C3117 0.929 . S
H3133 C3118 0.930 . S
H3134 C3139 0.930 . S
H3135 C3114 0.930 . S
H3136 C3147 0.931 . S
N3137 Tb3108 2.617 . S
N3137 C3138 1.379 . S
N3137 C3141 1.334 . S
C3138 N3137 1.379 . S
C3138 C3140 1.416 . S
C3138 C3146 1.424 . S
C3139 H3134 0.930 . S
C3139 C3141 1.390 . S
C3139 C3142 1.339 . S
C3140 C3138 1.416 . S
C3140 C3142 1.416 . S
C3140 C3173 1.448 . S
C3141 H3126 0.930 . S
C3141 N3137 1.334 . S
C3141 C3139 1.390 . S
C3142 C3139 1.339 . S
C3142 C3140 1.416 . S
C3142 H3149 0.930 . S
N3143 Tb3108 2.572 . S
N3143 C3144 1.340 . S
N3143 C3146 1.361 . S
C3144 H3130 0.930 . S
C3144 N3143 1.340 . S
C3144 C3148 1.407 . S
C3145 C3146 1.413 . S
C3145 C3147 1.416 . S
C3145 C3174 1.427 . S
C3146 C3138 1.424 . S
C3146 N3143 1.361 . S
C3146 C3145 1.413 . S
C3147 H3136 0.931 . S
C3147 C3145 1.416 . S
C3147 C3148 1.332 . S
C3148 H3127 0.929 . S
C3148 C3144 1.407 . S
C3148 C3147 1.332 . S
H3149 C3142 0.930 . S
H3150 C3173 0.930 . S
H3151 C3174 0.929 . S
O3152 Tb3108 2.465 . S
O3152 C3172 1.264 . S
O3153 Tb3108 2.387 . S
O3153 C3164 1.264 . S
O3154 Tb3119 2.349 . S
O3154 C3164 1.243 . S
O3155 Tb3108 2.428 . S
O3155 C3172 1.256 . S
O3156 Tb3108 2.308 . S
O3156 C3171 1.266 . S
O3157 Tb3119 2.393 . S
O3157 C3171 1.248 . S
O3158 Tb3119 2.465 . S
O3158 C3183 1.264 . S
O3159 Tb3119 2.387 . S
O3159 C3175 1.264 . S
O3160 Tb3108 2.349 . S
O3160 C3175 1.243 . S
O3161 Tb3119 2.428 . S
O3161 C3183 1.256 . S
O3162 Tb3119 2.308 . S
O3162 C3182 1.266 . S
O3163 Tb3108 2.393 . S
O3163 C3182 1.248 . S
C3164 O3153 1.264 . S
C3164 O3154 1.243 . S
C3165 C3168 1.399 . S
C3165 C3170 1.383 . S
C3165 C3172 1.496 . S
C3166 C3167 1.399 . S
C3166 C3170 1.389 . S
C3167 C3166 1.399 . S
C3167 C3169 1.380 . S
C3167 H3184 0.929 . S
C3168 C3165 1.399 . S
C3168 C3169 1.392 . S
C3168 H3185 0.929 . S
C3169 C3167 1.380 . S
C3169 C3168 1.392 . S
C3169 H3186 0.929 . S
C3170 C3165 1.383 . S
C3170 C3166 1.389 . S
C3170 H3187 0.931 . S
C3171 O3156 1.266 . S
C3171 O3157 1.248 . S
C3172 Tb3108 2.802 . S
C3172 O3152 1.264 . S
C3172 O3155 1.256 . S
C3172 C3165 1.496 . S
C3173 C3140 1.448 . S
C3173 H3150 0.930 . S
C3173 C3174 1.328 . S
C3174 C3145 1.427 . S
C3174 H3151 0.929 . S
C3174 C3173 1.328 . S
C3175 O3159 1.264 . S
C3175 O3160 1.243 . S
C3176 C3179 1.399 . S
C3176 C3180 1.383 . S
C3176 C3183 1.496 . S
C3177 C3178 1.399 . S
C3177 C3180 1.389 . S
C3178 C3177 1.399 . S
C3178 C3181 1.380 . S
C3178 H3188 0.929 . S
C3179 C3176 1.399 . S
C3179 C3181 1.392 . S
C3179 H3189 0.929 . S
C3180 C3176 1.383 . S
C3180 C3177 1.389 . S
C3180 H3190 0.931 . S
C3181 C3178 1.380 . S
C3181 C3179 1.392 . S
C3181 H3191 0.929 . S
C3182 O3162 1.266 . S
C3182 O3163 1.248 . S
C3183 Tb3119 2.802 . S
C3183 O3158 1.264 . S
C3183 O3161 1.256 . S
C3183 C3176 1.496 . S
H3184 C3167 0.929 . S
H3185 C3168 0.929 . S
H3186 C3169 0.929 . S
H3187 C3170 0.931 . S
H3188 C3178 0.929 . S
H3189 C3179 0.929 . S
H3190 C3180 0.931 . S
H3191 C3181 0.929 . S
Tb3192 N3221 2.617 . S
Tb3192 N3227 2.572 . S
Tb3192 O3236 2.465 . S
Tb3192 O3237 2.387 . S
Tb3192 O3239 2.428 . S
Tb3192 O3240 2.308 . S
Tb3192 O3244 2.349 . S
Tb3192 O3247 2.393 . S
Tb3192 C3256 2.802 . S
C3193 N3194 1.379 . S
C3193 C3196 1.416 . S
C3193 C3200 1.424 . S
N3194 C3193 1.379 . S
N3194 C3197 1.334 . S
N3194 Tb3203 2.617 . S
C3195 C3197 1.390 . S
C3195 C3198 1.339 . S
C3195 H3215 0.930 . S
C3196 C3193 1.416 . S
C3196 C3198 1.416 . S
C3196 C3202 1.448 . S
C3197 N3194 1.334 . S
C3197 C3195 1.390 . S
C3197 H3208 0.930 . S
C3198 C3195 1.339 . S
C3198 C3196 1.416 . S
C3198 H3219 0.930 . S
C3199 C3200 1.413 . S
C3199 C3201 1.427 . S
C3199 C3205 1.416 . S
C3200 C3193 1.424 . S
C3200 C3199 1.413 . S
C3200 N3204 1.361 . S
C3201 C3199 1.427 . S
C3201 C3202 1.328 . S
C3201 H3216 0.929 . S
C3202 C3196 1.448 . S
C3202 C3201 1.328 . S
C3202 H3217 0.930 . S
Tb3203 N3194 2.617 . S
Tb3203 N3204 2.572 . S
Tb3203 O3238 2.349 . S
Tb3203 O3241 2.393 . S
Tb3203 O3242 2.465 . S
Tb3203 O3243 2.387 . S
Tb3203 O3245 2.428 . S
Tb3203 O3246 2.308 . S
Tb3203 C3267 2.802 . S
N3204 C3200 1.361 . S
N3204 Tb3203 2.572 . S
N3204 C3206 1.340 . S
C3205 C3199 1.416 . S
C3205 C3207 1.332 . S
C3205 H3213 0.931 . S
C3206 N3204 1.340 . S
C3206 C3207 1.407 . S
C3206 H3212 0.930 . S
C3207 C3205 1.332 . S
C3207 C3206 1.407 . S
C3207 H3209 0.929 . S
H3208 C3197 0.930 . S
H3209 C3207 0.929 . S
H3210 C3225 0.930 . S
H3211 C3232 0.929 . S
H3212 C3206 0.930 . S
H3213 C3205 0.931 . S
H3214 C3228 0.930 . S
H3215 C3195 0.930 . S
H3216 C3201 0.929 . S
H3217 C3202 0.930 . S
H3218 C3223 0.930 . S
H3219 C3198 0.930 . S
H3220 C3231 0.931 . S
N3221 Tb3192 2.617 . S
N3221 C3222 1.379 . S
N3221 C3225 1.334 . S
C3222 N3221 1.379 . S
C3222 C3224 1.416 . S
C3222 C3230 1.424 . S
C3223 H3218 0.930 . S
C3223 C3225 1.390 . S
C3223 C3226 1.339 . S
C3224 C3222 1.416 . S
C3224 C3226 1.416 . S
C3224 C3257 1.448 . S
C3225 H3210 0.930 . S
C3225 N3221 1.334 . S
C3225 C3223 1.390 . S
C3226 C3223 1.339 . S
C3226 C3224 1.416 . S
C3226 H3233 0.930 . S
N3227 Tb3192 2.572 . S
N3227 C3228 1.340 . S
N3227 C3230 1.361 . S
C3228 H3214 0.930 . S
C3228 N3227 1.340 . S
C3228 C3232 1.407 . S
C3229 C3230 1.413 . S
C3229 C3231 1.416 . S
C3229 C3258 1.427 . S
C3230 C3222 1.424 . S
C3230 N3227 1.361 . S
C3230 C3229 1.413 . S
C3231 H3220 0.931 . S
C3231 C3229 1.416 . S
C3231 C3232 1.332 . S
C3232 H3211 0.929 . S
C3232 C3228 1.407 . S
C3232 C3231 1.332 . S
H3233 C3226 0.930 . S
H3234 C3257 0.930 . S
H3235 C3258 0.929 . S
O3236 Tb3192 2.465 . S
O3236 C3256 1.264 . S
O3237 Tb3192 2.387 . S
O3237 C3248 1.264 . S
O3238 Tb3203 2.349 . S
O3238 C3248 1.243 . S
O3239 Tb3192 2.428 . S
O3239 C3256 1.256 . S
O3240 Tb3192 2.308 . S
O3240 C3255 1.266 . S
O3241 Tb3203 2.393 . S
O3241 C3255 1.248 . S
O3242 Tb3203 2.465 . S
O3242 C3267 1.264 . S
O3243 Tb3203 2.387 . S
O3243 C3259 1.264 . S
O3244 Tb3192 2.349 . S
O3244 C3259 1.243 . S
O3245 Tb3203 2.428 . S
O3245 C3267 1.256 . S
O3246 Tb3203 2.308 . S
O3246 C3266 1.266 . S
O3247 Tb3192 2.393 . S
O3247 C3266 1.248 . S
C3248 O3237 1.264 . S
C3248 O3238 1.243 . S
C3249 C3252 1.399 . S
C3249 C3254 1.383 . S
C3249 C3256 1.496 . S
C3250 C3251 1.399 . S
C3250 C3254 1.389 . S
C3251 C3250 1.399 . S
C3251 C3253 1.380 . S
C3251 H3268 0.929 . S
C3252 C3249 1.399 . S
C3252 C3253 1.392 . S
C3252 H3269 0.929 . S
C3253 C3251 1.380 . S
C3253 C3252 1.392 . S
C3253 H3270 0.929 . S
C3254 C3249 1.383 . S
C3254 C3250 1.389 . S
C3254 H3271 0.931 . S
C3255 O3240 1.266 . S
C3255 O3241 1.248 . S
C3256 Tb3192 2.802 . S
C3256 O3236 1.264 . S
C3256 O3239 1.256 . S
C3256 C3249 1.496 . S
C3257 C3224 1.448 . S
C3257 H3234 0.930 . S
C3257 C3258 1.328 . S
C3258 C3229 1.427 . S
C3258 H3235 0.929 . S
C3258 C3257 1.328 . S
C3259 O3243 1.264 . S
C3259 O3244 1.243 . S
C3260 C3263 1.399 . S
C3260 C3264 1.383 . S
C3260 C3267 1.496 . S
C3261 C3262 1.399 . S
C3261 C3264 1.389 . S
C3262 C3261 1.399 . S
C3262 C3265 1.380 . S
C3262 H3272 0.929 . S
C3263 C3260 1.399 . S
C3263 C3265 1.392 . S
C3263 H3273 0.929 . S
C3264 C3260 1.383 . S
C3264 C3261 1.389 . S
C3264 H3274 0.931 . S
C3265 C3262 1.380 . S
C3265 C3263 1.392 . S
C3265 H3275 0.929 . S
C3266 O3246 1.266 . S
C3266 O3247 1.248 . S
C3267 Tb3203 2.802 . S
C3267 O3242 1.264 . S
C3267 O3245 1.256 . S
C3267 C3260 1.496 . S
H3268 C3251 0.929 . S
H3269 C3252 0.929 . S
H3270 C3253 0.929 . S
H3271 C3254 0.931 . S
H3272 C3262 0.929 . S
H3273 C3263 0.929 . S
H3274 C3264 0.931 . S
H3275 C3265 0.929 . S
Tb3276 N3305 2.617 . S
Tb3276 N3311 2.572 . S
Tb3276 O3320 2.465 . S
Tb3276 O3321 2.387 . S
Tb3276 O3323 2.428 . S
Tb3276 O3324 2.308 . S
Tb3276 O3328 2.349 . S
Tb3276 O3331 2.393 . S
Tb3276 C3340 2.802 . S
C3277 N3278 1.379 . S
C3277 C3280 1.416 . S
C3277 C3284 1.424 . S
N3278 C3277 1.379 . S
N3278 C3281 1.334 . S
N3278 Tb3287 2.617 . S
C3279 C3281 1.390 . S
C3279 C3282 1.339 . S
C3279 H3299 0.930 . S
C3280 C3277 1.416 . S
C3280 C3282 1.416 . S
C3280 C3286 1.448 . S
C3281 N3278 1.334 . S
C3281 C3279 1.390 . S
C3281 H3292 0.930 . S
C3282 C3279 1.339 . S
C3282 C3280 1.416 . S
C3282 H3303 0.930 . S
C3283 C3284 1.413 . S
C3283 C3285 1.427 . S
C3283 C3289 1.416 . S
C3284 C3277 1.424 . S
C3284 C3283 1.413 . S
C3284 N3288 1.361 . S
C3285 C3283 1.427 . S
C3285 C3286 1.328 . S
C3285 H3300 0.929 . S
C3286 C3280 1.448 . S
C3286 C3285 1.328 . S
C3286 H3301 0.930 . S
Tb3287 N3278 2.617 . S
Tb3287 N3288 2.572 . S
Tb3287 O3322 2.349 . S
Tb3287 O3325 2.393 . S
Tb3287 O3326 2.465 . S
Tb3287 O3327 2.387 . S
Tb3287 O3329 2.428 . S
Tb3287 O3330 2.308 . S
Tb3287 C3351 2.802 . S
N3288 C3284 1.361 . S
N3288 Tb3287 2.572 . S
N3288 C3290 1.340 . S
C3289 C3283 1.416 . S
C3289 C3291 1.332 . S
C3289 H3297 0.931 . S
C3290 N3288 1.340 . S
C3290 C3291 1.407 . S
C3290 H3296 0.930 . S
C3291 C3289 1.332 . S
C3291 C3290 1.407 . S
C3291 H3293 0.929 . S
H3292 C3281 0.930 . S
H3293 C3291 0.929 . S
H3294 C3309 0.930 . S
H3295 C3316 0.929 . S
H3296 C3290 0.930 . S
H3297 C3289 0.931 . S
H3298 C3312 0.930 . S
H3299 C3279 0.930 . S
H3300 C3285 0.929 . S
H3301 C3286 0.930 . S
H3302 C3307 0.930 . S
H3303 C3282 0.930 . S
H3304 C3315 0.931 . S
N3305 Tb3276 2.617 . S
N3305 C3306 1.379 . S
N3305 C3309 1.334 . S
C3306 N3305 1.379 . S
C3306 C3308 1.416 . S
C3306 C3314 1.424 . S
C3307 H3302 0.930 . S
C3307 C3309 1.390 . S
C3307 C3310 1.339 . S
C3308 C3306 1.416 . S
C3308 C3310 1.416 . S
C3308 C3341 1.448 . S
C3309 H3294 0.930 . S
C3309 N3305 1.334 . S
C3309 C3307 1.390 . S
C3310 C3307 1.339 . S
C3310 C3308 1.416 . S
C3310 H3317 0.930 . S
N3311 Tb3276 2.572 . S
N3311 C3312 1.340 . S
N3311 C3314 1.361 . S
C3312 H3298 0.930 . S
C3312 N3311 1.340 . S
C3312 C3316 1.407 . S
C3313 C3314 1.413 . S
C3313 C3315 1.416 . S
C3313 C3342 1.427 . S
C3314 C3306 1.424 . S
C3314 N3311 1.361 . S
C3314 C3313 1.413 . S
C3315 H3304 0.931 . S
C3315 C3313 1.416 . S
C3315 C3316 1.332 . S
C3316 H3295 0.929 . S
C3316 C3312 1.407 . S
C3316 C3315 1.332 . S
H3317 C3310 0.930 . S
H3318 C3341 0.930 . S
H3319 C3342 0.929 . S
O3320 Tb3276 2.465 . S
O3320 C3340 1.264 . S
O3321 Tb3276 2.387 . S
O3321 C3332 1.264 . S
O3322 Tb3287 2.349 . S
O3322 C3332 1.243 . S
O3323 Tb3276 2.428 . S
O3323 C3340 1.256 . S
O3324 Tb3276 2.308 . S
O3324 C3339 1.266 . S
O3325 Tb3287 2.393 . S
O3325 C3339 1.248 . S
O3326 Tb3287 2.465 . S
O3326 C3351 1.264 . S
O3327 Tb3287 2.387 . S
O3327 C3343 1.264 . S
O3328 Tb3276 2.349 . S
O3328 C3343 1.243 . S
O3329 Tb3287 2.428 . S
O3329 C3351 1.256 . S
O3330 Tb3287 2.308 . S
O3330 C3350 1.266 . S
O3331 Tb3276 2.393 . S
O3331 C3350 1.248 . S
C3332 O3321 1.264 . S
C3332 O3322 1.243 . S
C3333 C3336 1.399 . S
C3333 C3338 1.383 . S
C3333 C3340 1.496 . S
C3334 C3335 1.399 . S
C3334 C3338 1.389 . S
C3335 C3334 1.399 . S
C3335 C3337 1.380 . S
C3335 H3352 0.929 . S
C3336 C3333 1.399 . S
C3336 C3337 1.392 . S
C3336 H3353 0.929 . S
C3337 C3335 1.380 . S
C3337 C3336 1.392 . S
C3337 H3354 0.929 . S
C3338 C3333 1.383 . S
C3338 C3334 1.389 . S
C3338 H3355 0.931 . S
C3339 O3324 1.266 . S
C3339 O3325 1.248 . S
C3340 Tb3276 2.802 . S
C3340 O3320 1.264 . S
C3340 O3323 1.256 . S
C3340 C3333 1.496 . S
C3341 C3308 1.448 . S
C3341 H3318 0.930 . S
C3341 C3342 1.328 . S
C3342 C3313 1.427 . S
C3342 H3319 0.929 . S
C3342 C3341 1.328 . S
C3343 O3327 1.264 . S
C3343 O3328 1.243 . S
C3344 C3347 1.399 . S
C3344 C3348 1.383 . S
C3344 C3351 1.496 . S
C3345 C3346 1.399 . S
C3345 C3348 1.389 . S
C3346 C3345 1.399 . S
C3346 C3349 1.380 . S
C3346 H3356 0.929 . S
C3347 C3344 1.399 . S
C3347 C3349 1.392 . S
C3347 H3357 0.929 . S
C3348 C3344 1.383 . S
C3348 C3345 1.389 . S
C3348 H3358 0.931 . S
C3349 C3346 1.380 . S
C3349 C3347 1.392 . S
C3349 H3359 0.929 . S
C3350 O3330 1.266 . S
C3350 O3331 1.248 . S
C3351 Tb3287 2.802 . S
C3351 O3326 1.264 . S
C3351 O3329 1.256 . S
C3351 C3344 1.496 . S
H3352 C3335 0.929 . S
H3353 C3336 0.929 . S
H3354 C3337 0.929 . S
H3355 C3338 0.931 . S
H3356 C3346 0.929 . S
H3357 C3347 0.929 . S
H3358 C3348 0.931 . S
H3359 C3349 0.929 . S
Tb3360 N3389 2.617 . S
Tb3360 N3395 2.572 . S
Tb3360 O3404 2.465 . S
Tb3360 O3405 2.387 . S
Tb3360 O3407 2.428 . S
Tb3360 O3408 2.308 . S
Tb3360 O3412 2.349 . S
Tb3360 O3415 2.393 . S
Tb3360 C3424 2.802 . S
C3361 N3362 1.379 . S
C3361 C3364 1.416 . S
C3361 C3368 1.424 1_655 S
N3362 C3361 1.379 . S
N3362 C3365 1.334 . S
N3362 Tb3371 2.617 . S
C3363 C3365 1.390 . S
C3363 C3366 1.339 . S
C3363 H3383 0.930 . S
C3364 C3361 1.416 . S
C3364 C3366 1.416 . S
C3364 C3370 1.448 . S
C3365 N3362 1.334 . S
C3365 C3363 1.390 . S
C3365 H3376 0.930 . S
C3366 C3363 1.339 . S
C3366 C3364 1.416 . S
C3366 H3387 0.930 . S
C3367 C3368 1.413 . S
C3367 C3369 1.427 . S
C3367 C3373 1.416 . S
C3368 C3361 1.424 1_455 S
C3368 C3367 1.413 . S
C3368 N3372 1.361 . S
C3369 C3367 1.427 . S
C3369 C3370 1.328 1_455 S
C3369 H3384 0.929 . S
C3370 C3364 1.448 . S
C3370 C3369 1.328 1_655 S
C3370 H3385 0.930 . S
Tb3371 N3362 2.617 . S
Tb3371 N3372 2.572 1_655 S
Tb3371 O3406 2.349 . S
Tb3371 O3409 2.393 . S
Tb3371 O3410 2.465 . S
Tb3371 O3411 2.387 1_655 S
Tb3371 O3413 2.428 . S
Tb3371 O3414 2.308 1_655 S
Tb3371 C3435 2.802 . S
N3372 C3368 1.361 . S
N3372 Tb3371 2.572 1_455 S
N3372 C3374 1.340 . S
C3373 C3367 1.416 . S
C3373 C3375 1.332 . S
C3373 H3381 0.931 . S
C3374 N3372 1.340 . S
C3374 C3375 1.407 . S
C3374 H3380 0.930 . S
C3375 C3373 1.332 . S
C3375 C3374 1.407 . S
C3375 H3377 0.929 . S
H3376 C3365 0.930 . S
H3377 C3375 0.929 . S
H3378 C3393 0.930 . S
H3379 C3400 0.929 . S
H3380 C3374 0.930 . S
H3381 C3373 0.931 . S
H3382 C3396 0.930 . S
H3383 C3363 0.930 . S
H3384 C3369 0.929 . S
H3385 C3370 0.930 . S
H3386 C3391 0.930 . S
H3387 C3366 0.930 . S
H3388 C3399 0.931 . S
N3389 Tb3360 2.617 . S
N3389 C3390 1.379 . S
N3389 C3393 1.334 . S
C3390 N3389 1.379 . S
C3390 C3392 1.416 . S
C3390 C3398 1.424 . S
C3391 H3386 0.930 . S
C3391 C3393 1.390 . S
C3391 C3394 1.339 . S
C3392 C3390 1.416 . S
C3392 C3394 1.416 . S
C3392 C3425 1.448 . S
C3393 H3378 0.930 . S
C3393 N3389 1.334 . S
C3393 C3391 1.390 . S
C3394 C3391 1.339 . S
C3394 C3392 1.416 . S
C3394 H3401 0.930 . S
N3395 Tb3360 2.572 . S
N3395 C3396 1.340 . S
N3395 C3398 1.361 . S
C3396 H3382 0.930 . S
C3396 N3395 1.340 . S
C3396 C3400 1.407 . S
C3397 C3398 1.413 . S
C3397 C3399 1.416 . S
C3397 C3426 1.427 . S
C3398 C3390 1.424 . S
C3398 N3395 1.361 . S
C3398 C3397 1.413 . S
C3399 H3388 0.931 . S
C3399 C3397 1.416 . S
C3399 C3400 1.332 . S
C3400 H3379 0.929 . S
C3400 C3396 1.407 . S
C3400 C3399 1.332 . S
H3401 C3394 0.930 . S
H3402 C3425 0.930 . S
H3403 C3426 0.929 . S
O3404 Tb3360 2.465 . S
O3404 C3424 1.264 . S
O3405 Tb3360 2.387 . S
O3405 C3416 1.264 1_455 S
O3406 Tb3371 2.349 . S
O3406 C3416 1.243 . S
O3407 Tb3360 2.428 . S
O3407 C3424 1.256 . S
O3408 Tb3360 2.308 . S
O3408 C3423 1.278 . S
O3409 Tb3371 2.393 . S
O3409 C3423 1.237 1_655 S
O3410 Tb3371 2.465 . S
O3410 C3435 1.264 . S
O3411 Tb3371 2.387 1_455 S
O3411 C3427 1.264 . S
O3412 Tb3360 2.349 . S
O3412 C3427 1.243 . S
O3413 Tb3371 2.428 . S
O3413 C3435 1.256 . S
O3414 Tb3371 2.308 1_455 S
O3414 C3434 1.266 . S
O3415 Tb3360 2.393 . S
O3415 C3434 1.248 . S
C3416 O3405 1.264 1_655 S
C3416 O3406 1.243 . S
C3417 C3420 1.399 . S
C3417 C3422 1.383 . S
C3417 C3424 1.496 . S
C3418 C3419 1.399 . S
C3418 C3422 1.389 . S
C3419 C3418 1.399 . S
C3419 C3421 1.380 . S
C3419 H3436 0.929 . S
C3420 C3417 1.399 . S
C3420 C3421 1.392 . S
C3420 H3437 0.929 . S
C3421 C3419 1.380 . S
C3421 C3420 1.392 . S
C3421 H3438 0.929 . S
C3422 C3417 1.383 . S
C3422 C3418 1.389 . S
C3422 H3439 0.931 . S
C3423 O3408 1.278 . S
C3423 O3409 1.237 1_455 S
C3424 Tb3360 2.802 . S
C3424 O3404 1.264 . S
C3424 O3407 1.256 . S
C3424 C3417 1.496 . S
C3425 C3392 1.448 . S
C3425 H3402 0.930 . S
C3425 C3426 1.328 . S
C3426 C3397 1.427 . S
C3426 H3403 0.929 . S
C3426 C3425 1.328 . S
C3427 O3411 1.264 . S
C3427 O3412 1.243 . S
C3428 C3431 1.399 . S
C3428 C3432 1.383 . S
C3428 C3435 1.496 . S
C3429 C3430 1.399 . S
C3429 C3432 1.389 . S
C3430 C3429 1.399 . S
C3430 C3433 1.380 . S
C3430 H3440 0.929 . S
C3431 C3428 1.399 . S
C3431 C3433 1.392 . S
C3431 H3441 0.929 . S
C3432 C3428 1.383 . S
C3432 C3429 1.389 . S
C3432 H3442 0.931 . S
C3433 C3430 1.380 . S
C3433 C3431 1.392 . S
C3433 H3443 0.929 . S
C3434 O3414 1.266 . S
C3434 O3415 1.248 . S
C3435 Tb3371 2.802 . S
C3435 O3410 1.264 . S
C3435 O3413 1.256 . S
C3435 C3428 1.496 . S
H3436 C3419 0.929 . S
H3437 C3420 0.929 . S
H3438 C3421 0.929 . S
H3439 C3422 0.931 . S
H3440 C3430 0.929 . S
H3441 C3431 0.929 . S
H3442 C3432 0.931 . S
H3443 C3433 0.929 . S
Tb3444 N3473 2.617 . S
Tb3444 N3479 2.572 . S
Tb3444 O3488 2.465 . S
Tb3444 O3489 2.387 . S
Tb3444 O3491 2.428 . S
Tb3444 O3492 2.308 . S
Tb3444 O3496 2.349 . S
Tb3444 O3499 2.393 . S
Tb3444 C3508 2.802 . S
C3445 N3446 1.379 . S
C3445 C3448 1.416 . S
C3445 C3452 1.424 . S
N3446 C3445 1.379 . S
N3446 C3449 1.334 . S
N3446 Tb3455 2.617 . S
C3447 C3449 1.390 . S
C3447 C3450 1.339 . S
C3447 H3467 0.930 . S
C3448 C3445 1.416 . S
C3448 C3450 1.416 . S
C3448 C3454 1.448 . S
C3449 N3446 1.334 . S
C3449 C3447 1.390 . S
C3449 H3460 0.930 . S
C3450 C3447 1.339 . S
C3450 C3448 1.416 . S
C3450 H3471 0.930 . S
C3451 C3452 1.413 . S
C3451 C3453 1.427 . S
C3451 C3457 1.416 . S
C3452 C3445 1.424 . S
C3452 C3451 1.413 . S
C3452 N3456 1.361 . S
C3453 C3451 1.427 . S
C3453 C3454 1.328 . S
C3453 H3468 0.929 . S
C3454 C3448 1.448 . S
C3454 C3453 1.328 . S
C3454 H3469 0.930 . S
Tb3455 N3446 2.617 . S
Tb3455 N3456 2.572 . S
Tb3455 O3490 2.349 . S
Tb3455 O3493 2.393 . S
Tb3455 O3494 2.465 . S
Tb3455 O3495 2.387 . S
Tb3455 O3497 2.428 . S
Tb3455 O3498 2.308 . S
Tb3455 C3519 2.802 . S
N3456 C3452 1.361 . S
N3456 Tb3455 2.572 . S
N3456 C3458 1.340 . S
C3457 C3451 1.416 . S
C3457 C3459 1.332 . S
C3457 H3465 0.931 . S
C3458 N3456 1.340 . S
C3458 C3459 1.407 . S
C3458 H3464 0.930 . S
C3459 C3457 1.332 . S
C3459 C3458 1.407 . S
C3459 H3461 0.929 . S
H3460 C3449 0.930 . S
H3461 C3459 0.929 . S
H3462 C3477 0.930 . S
H3463 C3484 0.929 . S
H3464 C3458 0.930 . S
H3465 C3457 0.931 . S
H3466 C3480 0.930 . S
H3467 C3447 0.930 . S
H3468 C3453 0.929 . S
H3469 C3454 0.930 . S
H3470 C3475 0.930 . S
H3471 C3450 0.930 . S
H3472 C3483 0.931 . S
N3473 Tb3444 2.617 . S
N3473 C3474 1.379 . S
N3473 C3477 1.334 . S
C3474 N3473 1.379 . S
C3474 C3476 1.416 . S
C3474 C3482 1.424 . S
C3475 H3470 0.930 . S
C3475 C3477 1.390 . S
C3475 C3478 1.339 . S
C3476 C3474 1.416 . S
C3476 C3478 1.416 . S
C3476 C3509 1.448 . S
C3477 H3462 0.930 . S
C3477 N3473 1.334 . S
C3477 C3475 1.390 . S
C3478 C3475 1.339 . S
C3478 C3476 1.416 . S
C3478 H3485 0.930 . S
N3479 Tb3444 2.572 . S
N3479 C3480 1.340 . S
N3479 C3482 1.361 . S
C3480 H3466 0.930 . S
C3480 N3479 1.340 . S
C3480 C3484 1.407 . S
C3481 C3482 1.413 . S
C3481 C3483 1.416 . S
C3481 C3510 1.427 . S
C3482 C3474 1.424 . S
C3482 N3479 1.361 . S
C3482 C3481 1.413 . S
C3483 H3472 0.931 . S
C3483 C3481 1.416 . S
C3483 C3484 1.332 . S
C3484 H3463 0.929 . S
C3484 C3480 1.407 . S
C3484 C3483 1.332 . S
H3485 C3478 0.930 . S
H3486 C3509 0.930 . S
H3487 C3510 0.929 . S
O3488 Tb3444 2.465 . S
O3488 C3508 1.264 . S
O3489 Tb3444 2.387 . S
O3489 C3500 1.264 . S
O3490 Tb3455 2.349 . S
O3490 C3500 1.243 . S
O3491 Tb3444 2.428 . S
O3491 C3508 1.256 . S
O3492 Tb3444 2.308 . S
O3492 C3507 1.266 . S
O3493 Tb3455 2.393 . S
O3493 C3507 1.248 . S
O3494 Tb3455 2.465 . S
O3494 C3519 1.264 . S
O3495 Tb3455 2.387 . S
O3495 C3511 1.264 . S
O3496 Tb3444 2.349 . S
O3496 C3511 1.243 . S
O3497 Tb3455 2.428 . S
O3497 C3519 1.256 . S
O3498 Tb3455 2.308 . S
O3498 C3518 1.266 . S
O3499 Tb3444 2.393 . S
O3499 C3518 1.248 . S
C3500 O3489 1.264 . S
C3500 O3490 1.243 . S
C3501 C3504 1.399 . S
C3501 C3506 1.383 . S
C3501 C3508 1.496 . S
C3502 C3503 1.399 . S
C3502 C3506 1.389 . S
C3503 C3502 1.399 . S
C3503 C3505 1.380 . S
C3503 H3520 0.929 . S
C3504 C3501 1.399 . S
C3504 C3505 1.392 . S
C3504 H3521 0.929 . S
C3505 C3503 1.380 . S
C3505 C3504 1.392 . S
C3505 H3522 0.929 . S
C3506 C3501 1.383 . S
C3506 C3502 1.389 . S
C3506 H3523 0.931 . S
C3507 O3492 1.266 . S
C3507 O3493 1.248 . S
C3508 Tb3444 2.802 . S
C3508 O3488 1.264 . S
C3508 O3491 1.256 . S
C3508 C3501 1.496 . S
C3509 C3476 1.448 . S
C3509 H3486 0.930 . S
C3509 C3510 1.328 . S
C3510 C3481 1.427 . S
C3510 H3487 0.929 . S
C3510 C3509 1.328 . S
C3511 O3495 1.264 . S
C3511 O3496 1.243 . S
C3512 C3515 1.399 . S
C3512 C3516 1.383 . S
C3512 C3519 1.496 . S
C3513 C3514 1.399 . S
C3513 C3516 1.389 . S
C3514 C3513 1.399 . S
C3514 C3517 1.380 . S
C3514 H3524 0.929 . S
C3515 C3512 1.399 . S
C3515 C3517 1.392 . S
C3515 H3525 0.929 . S
C3516 C3512 1.383 . S
C3516 C3513 1.389 . S
C3516 H3526 0.931 . S
C3517 C3514 1.380 . S
C3517 C3515 1.392 . S
C3517 H3527 0.929 . S
C3518 O3498 1.266 . S
C3518 O3499 1.248 . S
C3519 Tb3455 2.802 . S
C3519 O3494 1.264 . S
C3519 O3497 1.256 . S
C3519 C3512 1.496 . S
H3520 C3503 0.929 . S
H3521 C3504 0.929 . S
H3522 C3505 0.929 . S
H3523 C3506 0.931 . S
H3524 C3514 0.929 . S
H3525 C3515 0.929 . S
H3526 C3516 0.931 . S
H3527 C3517 0.929 . S
Tb3528 N3557 2.617 . S
Tb3528 N3563 2.572 . S
Tb3528 O3572 2.465 . S
Tb3528 O3573 2.387 . S
Tb3528 O3575 2.428 . S
Tb3528 O3576 2.308 . S
Tb3528 O3580 2.349 . S
Tb3528 O3583 2.393 . S
Tb3528 C3592 2.802 . S
C3529 N3530 1.379 . S
C3529 C3532 1.416 . S
C3529 C3536 1.424 1_556 S
N3530 C3529 1.379 . S
N3530 C3533 1.334 . S
N3530 Tb3539 2.617 . S
C3531 C3533 1.390 . S
C3531 C3534 1.339 . S
C3531 H3551 0.930 . S
C3532 C3529 1.416 . S
C3532 C3534 1.416 . S
C3532 C3538 1.448 . S
C3533 N3530 1.334 . S
C3533 C3531 1.390 . S
C3533 H3544 0.930 . S
C3534 C3531 1.339 . S
C3534 C3532 1.416 . S
C3534 H3555 0.930 . S
C3535 C3536 1.413 . S
C3535 C3537 1.427 . S
C3535 C3541 1.416 . S
C3536 C3529 1.424 1_554 S
C3536 C3535 1.413 . S
C3536 N3540 1.361 . S
C3537 C3535 1.427 . S
C3537 C3538 1.328 1_554 S
C3537 H3552 0.929 . S
C3538 C3532 1.448 . S
C3538 C3537 1.328 1_556 S
C3538 H3553 0.930 . S
Tb3539 N3530 2.617 . S
Tb3539 N3540 2.572 1_556 S
Tb3539 O3574 2.349 . S
Tb3539 O3577 2.393 . S
Tb3539 O3578 2.465 . S
Tb3539 O3579 2.387 1_556 S
Tb3539 O3581 2.428 . S
Tb3539 O3582 2.308 1_556 S
Tb3539 C3603 2.802 . S
N3540 C3536 1.361 . S
N3540 Tb3539 2.572 1_554 S
N3540 C3542 1.340 . S
C3541 C3535 1.416 . S
C3541 C3543 1.332 . S
C3541 H3549 0.931 . S
C3542 N3540 1.340 . S
C3542 C3543 1.407 . S
C3542 H3548 0.930 . S
C3543 C3541 1.332 . S
C3543 C3542 1.407 . S
C3543 H3545 0.929 . S
H3544 C3533 0.930 . S
H3545 C3543 0.929 . S
H3546 C3561 0.930 . S
H3547 C3568 0.929 . S
H3548 C3542 0.930 . S
H3549 C3541 0.931 . S
H3550 C3564 0.930 . S
H3551 C3531 0.930 . S
H3552 C3537 0.929 . S
H3553 C3538 0.930 . S
H3554 C3559 0.930 . S
H3555 C3534 0.930 . S
H3556 C3567 0.931 . S
N3557 Tb3528 2.617 . S
N3557 C3558 1.379 . S
N3557 C3561 1.334 . S
C3558 N3557 1.379 . S
C3558 C3560 1.416 . S
C3558 C3566 1.424 . S
C3559 H3554 0.930 . S
C3559 C3561 1.390 . S
C3559 C3562 1.339 . S
C3560 C3558 1.416 . S
C3560 C3562 1.416 . S
C3560 C3593 1.448 . S
C3561 H3546 0.930 . S
C3561 N3557 1.334 . S
C3561 C3559 1.390 . S
C3562 C3559 1.339 . S
C3562 C3560 1.416 . S
C3562 H3569 0.930 . S
N3563 Tb3528 2.572 . S
N3563 C3564 1.340 . S
N3563 C3566 1.361 . S
C3564 H3550 0.930 . S
C3564 N3563 1.340 . S
C3564 C3568 1.407 . S
C3565 C3566 1.413 . S
C3565 C3567 1.416 . S
C3565 C3594 1.427 . S
C3566 C3558 1.424 . S
C3566 N3563 1.361 . S
C3566 C3565 1.413 . S
C3567 H3556 0.931 . S
C3567 C3565 1.416 . S
C3567 C3568 1.332 . S
C3568 H3547 0.929 . S
C3568 C3564 1.407 . S
C3568 C3567 1.332 . S
H3569 C3562 0.930 . S
H3570 C3593 0.930 . S
H3571 C3594 0.929 . S
O3572 Tb3528 2.465 . S
O3572 C3592 1.264 . S
O3573 Tb3528 2.387 . S
O3573 C3584 1.264 1_554 S
O3574 Tb3539 2.349 . S
O3574 C3584 1.243 . S
O3575 Tb3528 2.428 . S
O3575 C3592 1.256 . S
O3576 Tb3528 2.308 . S
O3576 C3591 1.280 . S
O3577 Tb3539 2.393 . S
O3577 C3591 1.236 1_556 S
O3578 Tb3539 2.465 . S
O3578 C3603 1.264 . S
O3579 Tb3539 2.387 1_554 S
O3579 C3595 1.264 . S
O3580 Tb3528 2.349 . S
O3580 C3595 1.243 . S
O3581 Tb3539 2.428 . S
O3581 C3603 1.256 . S
O3582 Tb3539 2.308 1_554 S
O3582 C3602 1.266 . S
O3583 Tb3528 2.393 . S
O3583 C3602 1.248 . S
C3584 O3573 1.264 1_556 S
C3584 O3574 1.243 . S
C3585 C3588 1.399 . S
C3585 C3590 1.383 . S
C3585 C3592 1.496 . S
C3586 C3587 1.399 . S
C3586 C3590 1.389 . S
C3587 C3586 1.399 . S
C3587 C3589 1.380 . S
C3587 H3604 0.929 . S
C3588 C3585 1.399 . S
C3588 C3589 1.392 . S
C3588 H3605 0.929 . S
C3589 C3587 1.380 . S
C3589 C3588 1.392 . S
C3589 H3606 0.929 . S
C3590 C3585 1.383 . S
C3590 C3586 1.389 . S
C3590 H3607 0.931 . S
C3591 O3576 1.280 . S
C3591 O3577 1.236 1_554 S
C3592 Tb3528 2.802 . S
C3592 O3572 1.264 . S
C3592 O3575 1.256 . S
C3592 C3585 1.496 . S
C3593 C3560 1.448 . S
C3593 H3570 0.930 . S
C3593 C3594 1.328 . S
C3594 C3565 1.427 . S
C3594 H3571 0.929 . S
C3594 C3593 1.328 . S
C3595 O3579 1.264 . S
C3595 O3580 1.243 . S
C3596 C3599 1.399 . S
C3596 C3600 1.383 . S
C3596 C3603 1.496 . S
C3597 C3598 1.399 . S
C3597 C3600 1.389 . S
C3598 C3597 1.399 . S
C3598 C3601 1.380 . S
C3598 H3608 0.929 . S
C3599 C3596 1.399 . S
C3599 C3601 1.392 . S
C3599 H3609 0.929 . S
C3600 C3596 1.383 . S
C3600 C3597 1.389 . S
C3600 H3610 0.931 . S
C3601 C3598 1.380 . S
C3601 C3599 1.392 . S
C3601 H3611 0.929 . S
C3602 O3582 1.266 . S
C3602 O3583 1.248 . S
C3603 Tb3539 2.802 . S
C3603 O3578 1.264 . S
C3603 O3581 1.256 . S
C3603 C3596 1.496 . S
H3604 C3587 0.929 . S
H3605 C3588 0.929 . S
H3606 C3589 0.929 . S
H3607 C3590 0.931 . S
H3608 C3598 0.929 . S
H3609 C3599 0.929 . S
H3610 C3600 0.931 . S
H3611 C3601 0.929 . S
Tb3612 N3641 2.617 . S
Tb3612 N3647 2.572 . S
Tb3612 O3656 2.465 . S
Tb3612 O3657 2.387 . S
Tb3612 O3659 2.428 . S
Tb3612 O3660 2.308 . S
Tb3612 O3664 2.349 . S
Tb3612 O3667 2.393 . S
Tb3612 C3676 2.802 . S
C3613 N3614 1.379 . S
C3613 C3616 1.416 . S
C3613 C3620 1.424 . S
N3614 C3613 1.379 . S
N3614 C3617 1.334 . S
N3614 Tb3623 2.617 . S
C3615 C3617 1.390 . S
C3615 C3618 1.339 . S
C3615 H3635 0.930 . S
C3616 C3613 1.416 . S
C3616 C3618 1.416 . S
C3616 C3622 1.448 . S
C3617 N3614 1.334 . S
C3617 C3615 1.390 . S
C3617 H3628 0.930 . S
C3618 C3615 1.339 . S
C3618 C3616 1.416 . S
C3618 H3639 0.930 . S
C3619 C3620 1.413 . S
C3619 C3621 1.427 . S
C3619 C3625 1.416 . S
C3620 C3613 1.424 . S
C3620 C3619 1.413 . S
C3620 N3624 1.361 . S
C3621 C3619 1.427 . S
C3621 C3622 1.328 . S
C3621 H3636 0.929 . S
C3622 C3616 1.448 . S
C3622 C3621 1.328 . S
C3622 H3637 0.930 . S
Tb3623 N3614 2.617 . S
Tb3623 N3624 2.572 . S
Tb3623 O3658 2.349 . S
Tb3623 O3661 2.393 . S
Tb3623 O3662 2.465 . S
Tb3623 O3663 2.387 . S
Tb3623 O3665 2.428 . S
Tb3623 O3666 2.308 . S
Tb3623 C3687 2.802 . S
N3624 C3620 1.361 . S
N3624 Tb3623 2.572 . S
N3624 C3626 1.340 . S
C3625 C3619 1.416 . S
C3625 C3627 1.332 . S
C3625 H3633 0.931 . S
C3626 N3624 1.340 . S
C3626 C3627 1.407 . S
C3626 H3632 0.930 . S
C3627 C3625 1.332 . S
C3627 C3626 1.407 . S
C3627 H3629 0.929 . S
H3628 C3617 0.930 . S
H3629 C3627 0.929 . S
H3630 C3645 0.930 . S
H3631 C3652 0.929 . S
H3632 C3626 0.930 . S
H3633 C3625 0.931 . S
H3634 C3648 0.930 . S
H3635 C3615 0.930 . S
H3636 C3621 0.929 . S
H3637 C3622 0.930 . S
H3638 C3643 0.930 . S
H3639 C3618 0.930 . S
H3640 C3651 0.931 . S
N3641 Tb3612 2.617 . S
N3641 C3642 1.379 . S
N3641 C3645 1.334 . S
C3642 N3641 1.379 . S
C3642 C3644 1.416 . S
C3642 C3650 1.424 . S
C3643 H3638 0.930 . S
C3643 C3645 1.390 . S
C3643 C3646 1.339 . S
C3644 C3642 1.416 . S
C3644 C3646 1.416 . S
C3644 C3677 1.448 . S
C3645 H3630 0.930 . S
C3645 N3641 1.334 . S
C3645 C3643 1.390 . S
C3646 C3643 1.339 . S
C3646 C3644 1.416 . S
C3646 H3653 0.930 . S
N3647 Tb3612 2.572 . S
N3647 C3648 1.340 . S
N3647 C3650 1.361 . S
C3648 H3634 0.930 . S
C3648 N3647 1.340 . S
C3648 C3652 1.407 . S
C3649 C3650 1.413 . S
C3649 C3651 1.416 . S
C3649 C3678 1.427 . S
C3650 C3642 1.424 . S
C3650 N3647 1.361 . S
C3650 C3649 1.413 . S
C3651 H3640 0.931 . S
C3651 C3649 1.416 . S
C3651 C3652 1.332 . S
C3652 H3631 0.929 . S
C3652 C3648 1.407 . S
C3652 C3651 1.332 . S
H3653 C3646 0.930 . S
H3654 C3677 0.930 . S
H3655 C3678 0.929 . S
O3656 Tb3612 2.465 . S
O3656 C3676 1.264 . S
O3657 Tb3612 2.387 . S
O3657 C3668 1.264 . S
O3658 Tb3623 2.349 . S
O3658 C3668 1.243 . S
O3659 Tb3612 2.428 . S
O3659 C3676 1.256 . S
O3660 Tb3612 2.308 . S
O3660 C3675 1.266 . S
O3661 Tb3623 2.393 . S
O3661 C3675 1.248 . S
O3662 Tb3623 2.465 . S
O3662 C3687 1.264 . S
O3663 Tb3623 2.387 . S
O3663 C3679 1.264 . S
O3664 Tb3612 2.349 . S
O3664 C3679 1.243 . S
O3665 Tb3623 2.428 . S
O3665 C3687 1.256 . S
O3666 Tb3623 2.308 . S
O3666 C3686 1.266 . S
O3667 Tb3612 2.393 . S
O3667 C3686 1.248 . S
C3668 O3657 1.264 . S
C3668 O3658 1.243 . S
C3669 C3672 1.399 . S
C3669 C3674 1.383 . S
C3669 C3676 1.496 . S
C3670 C3671 1.399 . S
C3670 C3674 1.389 . S
C3671 C3670 1.399 . S
C3671 C3673 1.380 . S
C3671 H3688 0.929 . S
C3672 C3669 1.399 . S
C3672 C3673 1.392 . S
C3672 H3689 0.929 . S
C3673 C3671 1.380 . S
C3673 C3672 1.392 . S
C3673 H3690 0.929 . S
C3674 C3669 1.383 . S
C3674 C3670 1.389 . S
C3674 H3691 0.931 . S
C3675 O3660 1.266 . S
C3675 O3661 1.248 . S
C3676 Tb3612 2.802 . S
C3676 O3656 1.264 . S
C3676 O3659 1.256 . S
C3676 C3669 1.496 . S
C3677 C3644 1.448 . S
C3677 H3654 0.930 . S
C3677 C3678 1.328 . S
C3678 C3649 1.427 . S
C3678 H3655 0.929 . S
C3678 C3677 1.328 . S
C3679 O3663 1.264 . S
C3679 O3664 1.243 . S
C3680 C3683 1.399 . S
C3680 C3684 1.383 . S
C3680 C3687 1.496 . S
C3681 C3682 1.399 . S
C3681 C3684 1.389 . S
C3682 C3681 1.399 . S
C3682 C3685 1.380 . S
C3682 H3692 0.929 . S
C3683 C3680 1.399 . S
C3683 C3685 1.392 . S
C3683 H3693 0.929 . S
C3684 C3680 1.383 . S
C3684 C3681 1.389 . S
C3684 H3694 0.931 . S
C3685 C3682 1.380 . S
C3685 C3683 1.392 . S
C3685 H3695 0.929 . S
C3686 O3666 1.266 . S
C3686 O3667 1.248 . S
C3687 Tb3623 2.802 . S
C3687 O3662 1.264 . S
C3687 O3665 1.256 . S
C3687 C3680 1.496 . S
H3688 C3671 0.929 . S
H3689 C3672 0.929 . S
H3690 C3673 0.929 . S
H3691 C3674 0.931 . S
H3692 C3682 0.929 . S
H3693 C3683 0.929 . S
H3694 C3684 0.931 . S
H3695 C3685 0.929 . S
Tb3696 N3725 2.617 . S
Tb3696 N3731 2.572 . S
Tb3696 O3740 2.465 . S
Tb3696 O3741 2.387 . S
Tb3696 O3743 2.428 . S
Tb3696 O3744 2.308 . S
Tb3696 O3748 2.349 . S
Tb3696 O3751 2.393 . S
Tb3696 C3760 2.802 . S
C3697 N3698 1.379 . S
C3697 C3700 1.416 . S
C3697 C3704 1.424 . S
N3698 C3697 1.379 . S
N3698 C3701 1.334 . S
N3698 Tb3707 2.617 . S
C3699 C3701 1.390 . S
C3699 C3702 1.339 . S
C3699 H3719 0.930 . S
C3700 C3697 1.416 . S
C3700 C3702 1.416 . S
C3700 C3706 1.448 . S
C3701 N3698 1.334 . S
C3701 C3699 1.390 . S
C3701 H3712 0.930 . S
C3702 C3699 1.339 . S
C3702 C3700 1.416 . S
C3702 H3723 0.930 . S
C3703 C3704 1.413 . S
C3703 C3705 1.427 . S
C3703 C3709 1.416 . S
C3704 C3697 1.424 . S
C3704 C3703 1.413 . S
C3704 N3708 1.361 . S
C3705 C3703 1.427 . S
C3705 C3706 1.328 . S
C3705 H3720 0.929 . S
C3706 C3700 1.448 . S
C3706 C3705 1.328 . S
C3706 H3721 0.930 . S
Tb3707 N3698 2.617 . S
Tb3707 N3708 2.572 . S
Tb3707 O3742 2.349 . S
Tb3707 O3745 2.393 . S
Tb3707 O3746 2.465 . S
Tb3707 O3747 2.387 . S
Tb3707 O3749 2.428 . S
Tb3707 O3750 2.308 . S
Tb3707 C3771 2.802 . S
N3708 C3704 1.361 . S
N3708 Tb3707 2.572 . S
N3708 C3710 1.340 . S
C3709 C3703 1.416 . S
C3709 C3711 1.332 . S
C3709 H3717 0.931 . S
C3710 N3708 1.340 . S
C3710 C3711 1.407 . S
C3710 H3716 0.930 . S
C3711 C3709 1.332 . S
C3711 C3710 1.407 . S
C3711 H3713 0.929 . S
H3712 C3701 0.930 . S
H3713 C3711 0.929 . S
H3714 C3729 0.930 . S
H3715 C3736 0.929 . S
H3716 C3710 0.930 . S
H3717 C3709 0.931 . S
H3718 C3732 0.930 . S
H3719 C3699 0.930 . S
H3720 C3705 0.929 . S
H3721 C3706 0.930 . S
H3722 C3727 0.930 . S
H3723 C3702 0.930 . S
H3724 C3735 0.931 . S
N3725 Tb3696 2.617 . S
N3725 C3726 1.379 . S
N3725 C3729 1.334 . S
C3726 N3725 1.379 . S
C3726 C3728 1.416 . S
C3726 C3734 1.424 . S
C3727 H3722 0.930 . S
C3727 C3729 1.390 . S
C3727 C3730 1.339 . S
C3728 C3726 1.416 . S
C3728 C3730 1.416 . S
C3728 C3761 1.448 . S
C3729 H3714 0.930 . S
C3729 N3725 1.334 . S
C3729 C3727 1.390 . S
C3730 C3727 1.339 . S
C3730 C3728 1.416 . S
C3730 H3737 0.930 . S
N3731 Tb3696 2.572 . S
N3731 C3732 1.340 . S
N3731 C3734 1.361 . S
C3732 H3718 0.930 . S
C3732 N3731 1.340 . S
C3732 C3736 1.407 . S
C3733 C3734 1.413 . S
C3733 C3735 1.416 . S
C3733 C3762 1.427 . S
C3734 C3726 1.424 . S
C3734 N3731 1.361 . S
C3734 C3733 1.413 . S
C3735 H3724 0.931 . S
C3735 C3733 1.416 . S
C3735 C3736 1.332 . S
C3736 H3715 0.929 . S
C3736 C3732 1.407 . S
C3736 C3735 1.332 . S
H3737 C3730 0.930 . S
H3738 C3761 0.930 . S
H3739 C3762 0.929 . S
O3740 Tb3696 2.465 . S
O3740 C3760 1.264 . S
O3741 Tb3696 2.387 . S
O3741 C3752 1.264 . S
O3742 Tb3707 2.349 . S
O3742 C3752 1.243 . S
O3743 Tb3696 2.428 . S
O3743 C3760 1.256 . S
O3744 Tb3696 2.308 . S
O3744 C3759 1.266 . S
O3745 Tb3707 2.393 . S
O3745 C3759 1.248 . S
O3746 Tb3707 2.465 . S
O3746 C3771 1.264 . S
O3747 Tb3707 2.387 . S
O3747 C3763 1.264 . S
O3748 Tb3696 2.349 . S
O3748 C3763 1.243 . S
O3749 Tb3707 2.428 . S
O3749 C3771 1.256 . S
O3750 Tb3707 2.308 . S
O3750 C3770 1.266 . S
O3751 Tb3696 2.393 . S
O3751 C3770 1.248 . S
C3752 O3741 1.264 . S
C3752 O3742 1.243 . S
C3753 C3756 1.399 . S
C3753 C3758 1.383 . S
C3753 C3760 1.496 . S
C3754 C3755 1.399 . S
C3754 C3758 1.389 . S
C3755 C3754 1.399 . S
C3755 C3757 1.380 . S
C3755 H3772 0.929 . S
C3756 C3753 1.399 . S
C3756 C3757 1.392 . S
C3756 H3773 0.929 . S
C3757 C3755 1.380 . S
C3757 C3756 1.392 . S
C3757 H3774 0.929 . S
C3758 C3753 1.383 . S
C3758 C3754 1.389 . S
C3758 H3775 0.931 . S
C3759 O3744 1.266 . S
C3759 O3745 1.248 . S
C3760 Tb3696 2.802 . S
C3760 O3740 1.264 . S
C3760 O3743 1.256 . S
C3760 C3753 1.496 . S
C3761 C3728 1.448 . S
C3761 H3738 0.930 . S
C3761 C3762 1.328 . S
C3762 C3733 1.427 . S
C3762 H3739 0.929 . S
C3762 C3761 1.328 . S
C3763 O3747 1.264 . S
C3763 O3748 1.243 . S
C3764 C3767 1.399 . S
C3764 C3768 1.383 . S
C3764 C3771 1.496 . S
C3765 C3766 1.399 . S
C3765 C3768 1.389 . S
C3766 C3765 1.399 . S
C3766 C3769 1.380 . S
C3766 H3776 0.929 . S
C3767 C3764 1.399 . S
C3767 C3769 1.392 . S
C3767 H3777 0.929 . S
C3768 C3764 1.383 . S
C3768 C3765 1.389 . S
C3768 H3778 0.931 . S
C3769 C3766 1.380 . S
C3769 C3767 1.392 . S
C3769 H3779 0.929 . S
C3770 O3750 1.266 . S
C3770 O3751 1.248 . S
C3771 Tb3707 2.802 . S
C3771 O3746 1.264 . S
C3771 O3749 1.256 . S
C3771 C3764 1.496 . S
H3772 C3755 0.929 . S
H3773 C3756 0.929 . S
H3774 C3757 0.929 . S
H3775 C3758 0.931 . S
H3776 C3766 0.929 . S
H3777 C3767 0.929 . S
H3778 C3768 0.931 . S
H3779 C3769 0.929 . S
Tb3780 N3809 2.617 . S
Tb3780 N3815 2.572 . S
Tb3780 O3824 2.465 . S
Tb3780 O3825 2.387 . S
Tb3780 O3827 2.428 . S
Tb3780 O3828 2.308 . S
Tb3780 O3832 2.349 . S
Tb3780 O3835 2.393 . S
Tb3780 C3844 2.802 . S
C3781 N3782 1.379 . S
C3781 C3784 1.416 . S
C3781 C3788 1.424 . S
N3782 C3781 1.379 . S
N3782 C3785 1.334 . S
N3782 Tb3791 2.617 . S
C3783 C3785 1.390 . S
C3783 C3786 1.339 . S
C3783 H3803 0.930 . S
C3784 C3781 1.416 . S
C3784 C3786 1.416 . S
C3784 C3790 1.448 . S
C3785 N3782 1.334 . S
C3785 C3783 1.390 . S
C3785 H3796 0.930 . S
C3786 C3783 1.339 . S
C3786 C3784 1.416 . S
C3786 H3807 0.930 . S
C3787 C3788 1.413 . S
C3787 C3789 1.427 . S
C3787 C3793 1.416 . S
C3788 C3781 1.424 . S
C3788 C3787 1.413 . S
C3788 N3792 1.361 . S
C3789 C3787 1.427 . S
C3789 C3790 1.328 . S
C3789 H3804 0.929 . S
C3790 C3784 1.448 . S
C3790 C3789 1.328 . S
C3790 H3805 0.930 . S
Tb3791 N3782 2.617 . S
Tb3791 N3792 2.572 . S
Tb3791 O3826 2.349 . S
Tb3791 O3829 2.393 . S
Tb3791 O3830 2.465 . S
Tb3791 O3831 2.387 . S
Tb3791 O3833 2.428 . S
Tb3791 O3834 2.308 . S
Tb3791 C3855 2.802 . S
N3792 C3788 1.361 . S
N3792 Tb3791 2.572 . S
N3792 C3794 1.340 . S
C3793 C3787 1.416 . S
C3793 C3795 1.332 . S
C3793 H3801 0.931 . S
C3794 N3792 1.340 . S
C3794 C3795 1.407 . S
C3794 H3800 0.930 . S
C3795 C3793 1.332 . S
C3795 C3794 1.407 . S
C3795 H3797 0.929 . S
H3796 C3785 0.930 . S
H3797 C3795 0.929 . S
H3798 C3813 0.930 . S
H3799 C3820 0.929 . S
H3800 C3794 0.930 . S
H3801 C3793 0.931 . S
H3802 C3816 0.930 . S
H3803 C3783 0.930 . S
H3804 C3789 0.929 . S
H3805 C3790 0.930 . S
H3806 C3811 0.930 . S
H3807 C3786 0.930 . S
H3808 C3819 0.931 . S
N3809 Tb3780 2.617 . S
N3809 C3810 1.379 . S
N3809 C3813 1.334 . S
C3810 N3809 1.379 . S
C3810 C3812 1.416 . S
C3810 C3818 1.424 . S
C3811 H3806 0.930 . S
C3811 C3813 1.390 . S
C3811 C3814 1.339 . S
C3812 C3810 1.416 . S
C3812 C3814 1.416 . S
C3812 C3845 1.448 . S
C3813 H3798 0.930 . S
C3813 N3809 1.334 . S
C3813 C3811 1.390 . S
C3814 C3811 1.339 . S
C3814 C3812 1.416 . S
C3814 H3821 0.930 . S
N3815 Tb3780 2.572 . S
N3815 C3816 1.340 . S
N3815 C3818 1.361 . S
C3816 H3802 0.930 . S
C3816 N3815 1.340 . S
C3816 C3820 1.407 . S
C3817 C3818 1.413 . S
C3817 C3819 1.416 . S
C3817 C3846 1.427 . S
C3818 C3810 1.424 . S
C3818 N3815 1.361 . S
C3818 C3817 1.413 . S
C3819 H3808 0.931 . S
C3819 C3817 1.416 . S
C3819 C3820 1.332 . S
C3820 H3799 0.929 . S
C3820 C3816 1.407 . S
C3820 C3819 1.332 . S
H3821 C3814 0.930 . S
H3822 C3845 0.930 . S
H3823 C3846 0.929 . S
O3824 Tb3780 2.465 . S
O3824 C3844 1.264 . S
O3825 Tb3780 2.387 . S
O3825 C3836 1.264 . S
O3826 Tb3791 2.349 . S
O3826 C3836 1.243 . S
O3827 Tb3780 2.428 . S
O3827 C3844 1.256 . S
O3828 Tb3780 2.308 . S
O3828 C3843 1.266 . S
O3829 Tb3791 2.393 . S
O3829 C3843 1.248 . S
O3830 Tb3791 2.465 . S
O3830 C3855 1.264 . S
O3831 Tb3791 2.387 . S
O3831 C3847 1.264 . S
O3832 Tb3780 2.349 . S
O3832 C3847 1.243 . S
O3833 Tb3791 2.428 . S
O3833 C3855 1.256 . S
O3834 Tb3791 2.308 . S
O3834 C3854 1.266 . S
O3835 Tb3780 2.393 . S
O3835 C3854 1.248 . S
C3836 O3825 1.264 . S
C3836 O3826 1.243 . S
C3837 C3840 1.399 . S
C3837 C3842 1.383 . S
C3837 C3844 1.496 . S
C3838 C3839 1.399 . S
C3838 C3842 1.389 . S
C3839 C3838 1.399 . S
C3839 C3841 1.380 . S
C3839 H3856 0.929 . S
C3840 C3837 1.399 . S
C3840 C3841 1.392 . S
C3840 H3857 0.929 . S
C3841 C3839 1.380 . S
C3841 C3840 1.392 . S
C3841 H3858 0.929 . S
C3842 C3837 1.383 . S
C3842 C3838 1.389 . S
C3842 H3859 0.931 . S
C3843 O3828 1.266 . S
C3843 O3829 1.248 . S
C3844 Tb3780 2.802 . S
C3844 O3824 1.264 . S
C3844 O3827 1.256 . S
C3844 C3837 1.496 . S
C3845 C3812 1.448 . S
C3845 H3822 0.930 . S
C3845 C3846 1.328 . S
C3846 C3817 1.427 . S
C3846 H3823 0.929 . S
C3846 C3845 1.328 . S
C3847 O3831 1.264 . S
C3847 O3832 1.243 . S
C3848 C3851 1.399 . S
C3848 C3852 1.383 . S
C3848 C3855 1.496 . S
C3849 C3850 1.399 . S
C3849 C3852 1.389 . S
C3850 C3849 1.399 . S
C3850 C3853 1.380 . S
C3850 H3860 0.929 . S
C3851 C3848 1.399 . S
C3851 C3853 1.392 . S
C3851 H3861 0.929 . S
C3852 C3848 1.383 . S
C3852 C3849 1.389 . S
C3852 H3862 0.931 . S
C3853 C3850 1.380 . S
C3853 C3851 1.392 . S
C3853 H3863 0.929 . S
C3854 O3834 1.266 . S
C3854 O3835 1.248 . S
C3855 Tb3791 2.802 . S
C3855 O3830 1.264 . S
C3855 O3833 1.256 . S
C3855 C3848 1.496 . S
H3856 C3839 0.929 . S
H3857 C3840 0.929 . S
H3858 C3841 0.929 . S
H3859 C3842 0.931 . S
H3860 C3850 0.929 . S
H3861 C3851 0.929 . S
H3862 C3852 0.931 . S
H3863 C3853 0.929 . S
Tb3864 N3893 2.617 . S
Tb3864 N3899 2.572 . S
Tb3864 O3908 2.465 . S
Tb3864 O3909 2.387 . S
Tb3864 O3911 2.428 . S
Tb3864 O3912 2.308 . S
Tb3864 O3916 2.349 . S
Tb3864 O3919 2.393 . S
Tb3864 C3928 2.802 . S
C3865 N3866 1.379 . S
C3865 C3868 1.416 . S
C3865 C3872 1.424 . S
N3866 C3865 1.379 . S
N3866 C3869 1.334 . S
N3866 Tb3875 2.617 . S
C3867 C3869 1.390 . S
C3867 C3870 1.339 . S
C3867 H3887 0.930 . S
C3868 C3865 1.416 . S
C3868 C3870 1.416 . S
C3868 C3874 1.448 . S
C3869 N3866 1.334 . S
C3869 C3867 1.390 . S
C3869 H3880 0.930 . S
C3870 C3867 1.339 . S
C3870 C3868 1.416 . S
C3870 H3891 0.930 . S
C3871 C3872 1.413 . S
C3871 C3873 1.427 . S
C3871 C3877 1.416 . S
C3872 C3865 1.424 . S
C3872 C3871 1.413 . S
C3872 N3876 1.361 . S
C3873 C3871 1.427 . S
C3873 C3874 1.328 . S
C3873 H3888 0.929 . S
C3874 C3868 1.448 . S
C3874 C3873 1.328 . S
C3874 H3889 0.930 . S
Tb3875 N3866 2.617 . S
Tb3875 N3876 2.572 . S
Tb3875 O3910 2.349 . S
Tb3875 O3913 2.393 . S
Tb3875 O3914 2.465 . S
Tb3875 O3915 2.387 . S
Tb3875 O3917 2.428 . S
Tb3875 O3918 2.308 . S
Tb3875 C3939 2.802 . S
N3876 C3872 1.361 . S
N3876 Tb3875 2.572 . S
N3876 C3878 1.340 . S
C3877 C3871 1.416 . S
C3877 C3879 1.332 . S
C3877 H3885 0.931 . S
C3878 N3876 1.340 . S
C3878 C3879 1.407 . S
C3878 H3884 0.930 . S
C3879 C3877 1.332 . S
C3879 C3878 1.407 . S
C3879 H3881 0.929 . S
H3880 C3869 0.930 . S
H3881 C3879 0.929 . S
H3882 C3897 0.930 . S
H3883 C3904 0.929 . S
H3884 C3878 0.930 . S
H3885 C3877 0.931 . S
H3886 C3900 0.930 . S
H3887 C3867 0.930 . S
H3888 C3873 0.929 . S
H3889 C3874 0.930 . S
H3890 C3895 0.930 . S
H3891 C3870 0.930 . S
H3892 C3903 0.931 . S
N3893 Tb3864 2.617 . S
N3893 C3894 1.379 . S
N3893 C3897 1.334 . S
C3894 N3893 1.379 . S
C3894 C3896 1.416 . S
C3894 C3902 1.424 . S
C3895 H3890 0.930 . S
C3895 C3897 1.390 . S
C3895 C3898 1.339 . S
C3896 C3894 1.416 . S
C3896 C3898 1.416 . S
C3896 C3929 1.448 . S
C3897 H3882 0.930 . S
C3897 N3893 1.334 . S
C3897 C3895 1.390 . S
C3898 C3895 1.339 . S
C3898 C3896 1.416 . S
C3898 H3905 0.930 . S
N3899 Tb3864 2.572 . S
N3899 C3900 1.340 . S
N3899 C3902 1.361 . S
C3900 H3886 0.930 . S
C3900 N3899 1.340 . S
C3900 C3904 1.407 . S
C3901 C3902 1.413 . S
C3901 C3903 1.416 . S
C3901 C3930 1.427 . S
C3902 C3894 1.424 . S
C3902 N3899 1.361 . S
C3902 C3901 1.413 . S
C3903 H3892 0.931 . S
C3903 C3901 1.416 . S
C3903 C3904 1.332 . S
C3904 H3883 0.929 . S
C3904 C3900 1.407 . S
C3904 C3903 1.332 . S
H3905 C3898 0.930 . S
H3906 C3929 0.930 . S
H3907 C3930 0.929 . S
O3908 Tb3864 2.465 . S
O3908 C3928 1.264 . S
O3909 Tb3864 2.387 . S
O3909 C3920 1.264 . S
O3910 Tb3875 2.349 . S
O3910 C3920 1.243 . S
O3911 Tb3864 2.428 . S
O3911 C3928 1.256 . S
O3912 Tb3864 2.308 . S
O3912 C3927 1.266 . S
O3913 Tb3875 2.393 . S
O3913 C3927 1.248 . S
O3914 Tb3875 2.465 . S
O3914 C3939 1.264 . S
O3915 Tb3875 2.387 . S
O3915 C3931 1.264 . S
O3916 Tb3864 2.349 . S
O3916 C3931 1.243 . S
O3917 Tb3875 2.428 . S
O3917 C3939 1.256 . S
O3918 Tb3875 2.308 . S
O3918 C3938 1.266 . S
O3919 Tb3864 2.393 . S
O3919 C3938 1.248 . S
C3920 O3909 1.264 . S
C3920 O3910 1.243 . S
C3921 C3924 1.399 . S
C3921 C3926 1.383 . S
C3921 C3928 1.496 . S
C3922 C3923 1.399 . S
C3922 C3926 1.389 . S
C3923 C3922 1.399 . S
C3923 C3925 1.380 . S
C3923 H3940 0.929 . S
C3924 C3921 1.399 . S
C3924 C3925 1.392 . S
C3924 H3941 0.929 . S
C3925 C3923 1.380 . S
C3925 C3924 1.392 . S
C3925 H3942 0.929 . S
C3926 C3921 1.383 . S
C3926 C3922 1.389 . S
C3926 H3943 0.931 . S
C3927 O3912 1.266 . S
C3927 O3913 1.248 . S
C3928 Tb3864 2.802 . S
C3928 O3908 1.264 . S
C3928 O3911 1.256 . S
C3928 C3921 1.496 . S
C3929 C3896 1.448 . S
C3929 H3906 0.930 . S
C3929 C3930 1.328 . S
C3930 C3901 1.427 . S
C3930 H3907 0.929 . S
C3930 C3929 1.328 . S
C3931 O3915 1.264 . S
C3931 O3916 1.243 . S
C3932 C3935 1.399 . S
C3932 C3936 1.383 . S
C3932 C3939 1.496 . S
C3933 C3934 1.399 . S
C3933 C3936 1.389 . S
C3934 C3933 1.399 . S
C3934 C3937 1.380 . S
C3934 H3944 0.929 . S
C3935 C3932 1.399 . S
C3935 C3937 1.392 . S
C3935 H3945 0.929 . S
C3936 C3932 1.383 . S
C3936 C3933 1.389 . S
C3936 H3946 0.931 . S
C3937 C3934 1.380 . S
C3937 C3935 1.392 . S
C3937 H3947 0.929 . S
C3938 O3918 1.266 . S
C3938 O3919 1.248 . S
C3939 Tb3875 2.802 . S
C3939 O3914 1.264 . S
C3939 O3917 1.256 . S
C3939 C3932 1.496 . S
H3940 C3923 0.929 . S
H3941 C3924 0.929 . S
H3942 C3925 0.929 . S
H3943 C3926 0.931 . S
H3944 C3934 0.929 . S
H3945 C3935 0.929 . S
H3946 C3936 0.931 . S
H3947 C3937 0.929 . S
Tb3948 N3977 2.617 . S
Tb3948 N3983 2.572 . S
Tb3948 O3992 2.465 . S
Tb3948 O3993 2.387 . S
Tb3948 O3995 2.428 . S
Tb3948 O3996 2.308 . S
Tb3948 O4000 2.349 . S
Tb3948 O4003 2.393 . S
Tb3948 C4012 2.802 . S
C3949 N3950 1.379 . S
C3949 C3952 1.416 . S
C3949 C3956 1.424 . S
N3950 C3949 1.379 . S
N3950 C3953 1.334 . S
N3950 Tb3959 2.617 . S
C3951 C3953 1.390 . S
C3951 C3954 1.339 . S
C3951 H3971 0.930 . S
C3952 C3949 1.416 . S
C3952 C3954 1.416 . S
C3952 C3958 1.448 . S
C3953 N3950 1.334 . S
C3953 C3951 1.390 . S
C3953 H3964 0.930 . S
C3954 C3951 1.339 . S
C3954 C3952 1.416 . S
C3954 H3975 0.930 . S
C3955 C3956 1.413 . S
C3955 C3957 1.427 . S
C3955 C3961 1.416 . S
C3956 C3949 1.424 . S
C3956 C3955 1.413 . S
C3956 N3960 1.361 . S
C3957 C3955 1.427 . S
C3957 C3958 1.328 . S
C3957 H3972 0.929 . S
C3958 C3952 1.448 . S
C3958 C3957 1.328 . S
C3958 H3973 0.930 . S
Tb3959 N3950 2.617 . S
Tb3959 N3960 2.572 . S
Tb3959 O3994 2.349 . S
Tb3959 O3997 2.393 . S
Tb3959 O3998 2.465 . S
Tb3959 O3999 2.387 . S
Tb3959 O4001 2.428 . S
Tb3959 O4002 2.308 . S
Tb3959 C4023 2.802 . S
N3960 C3956 1.361 . S
N3960 Tb3959 2.572 . S
N3960 C3962 1.340 . S
C3961 C3955 1.416 . S
C3961 C3963 1.332 . S
C3961 H3969 0.931 . S
C3962 N3960 1.340 . S
C3962 C3963 1.407 . S
C3962 H3968 0.930 . S
C3963 C3961 1.332 . S
C3963 C3962 1.407 . S
C3963 H3965 0.929 . S
H3964 C3953 0.930 . S
H3965 C3963 0.929 . S
H3966 C3981 0.930 . S
H3967 C3988 0.929 . S
H3968 C3962 0.930 . S
H3969 C3961 0.931 . S
H3970 C3984 0.930 . S
H3971 C3951 0.930 . S
H3972 C3957 0.929 . S
H3973 C3958 0.930 . S
H3974 C3979 0.930 . S
H3975 C3954 0.930 . S
H3976 C3987 0.931 . S
N3977 Tb3948 2.617 . S
N3977 C3978 1.379 . S
N3977 C3981 1.334 . S
C3978 N3977 1.379 . S
C3978 C3980 1.416 . S
C3978 C3986 1.424 . S
C3979 H3974 0.930 . S
C3979 C3981 1.390 . S
C3979 C3982 1.339 . S
C3980 C3978 1.416 . S
C3980 C3982 1.416 . S
C3980 C4013 1.448 . S
C3981 H3966 0.930 . S
C3981 N3977 1.334 . S
C3981 C3979 1.390 . S
C3982 C3979 1.339 . S
C3982 C3980 1.416 . S
C3982 H3989 0.930 . S
N3983 Tb3948 2.572 . S
N3983 C3984 1.340 . S
N3983 C3986 1.361 . S
C3984 H3970 0.930 . S
C3984 N3983 1.340 . S
C3984 C3988 1.407 . S
C3985 C3986 1.413 . S
C3985 C3987 1.416 . S
C3985 C4014 1.427 . S
C3986 C3978 1.424 . S
C3986 N3983 1.361 . S
C3986 C3985 1.413 . S
C3987 H3976 0.931 . S
C3987 C3985 1.416 . S
C3987 C3988 1.332 . S
C3988 H3967 0.929 . S
C3988 C3984 1.407 . S
C3988 C3987 1.332 . S
H3989 C3982 0.930 . S
H3990 C4013 0.930 . S
H3991 C4014 0.929 . S
O3992 Tb3948 2.465 . S
O3992 C4012 1.264 . S
O3993 Tb3948 2.387 . S
O3993 C4004 1.264 . S
O3994 Tb3959 2.349 . S
O3994 C4004 1.243 . S
O3995 Tb3948 2.428 . S
O3995 C4012 1.256 . S
O3996 Tb3948 2.308 . S
O3996 C4011 1.266 . S
O3997 Tb3959 2.393 . S
O3997 C4011 1.248 . S
O3998 Tb3959 2.465 . S
O3998 C4023 1.264 . S
O3999 Tb3959 2.387 . S
O3999 C4015 1.264 . S
O4000 Tb3948 2.349 . S
O4000 C4015 1.243 . S
O4001 Tb3959 2.428 . S
O4001 C4023 1.256 . S
O4002 Tb3959 2.308 . S
O4002 C4022 1.266 . S
O4003 Tb3948 2.393 . S
O4003 C4022 1.248 . S
C4004 O3993 1.264 . S
C4004 O3994 1.243 . S
C4005 C4008 1.399 . S
C4005 C4010 1.383 . S
C4005 C4012 1.496 . S
C4006 C4007 1.399 . S
C4006 C4010 1.389 . S
C4007 C4006 1.399 . S
C4007 C4009 1.380 . S
C4007 H4024 0.929 . S
C4008 C4005 1.399 . S
C4008 C4009 1.392 . S
C4008 H4025 0.929 . S
C4009 C4007 1.380 . S
C4009 C4008 1.392 . S
C4009 H4026 0.929 . S
C4010 C4005 1.383 . S
C4010 C4006 1.389 . S
C4010 H4027 0.931 . S
C4011 O3996 1.266 . S
C4011 O3997 1.248 . S
C4012 Tb3948 2.802 . S
C4012 O3992 1.264 . S
C4012 O3995 1.256 . S
C4012 C4005 1.496 . S
C4013 C3980 1.448 . S
C4013 H3990 0.930 . S
C4013 C4014 1.328 . S
C4014 C3985 1.427 . S
C4014 H3991 0.929 . S
C4014 C4013 1.328 . S
C4015 O3999 1.264 . S
C4015 O4000 1.243 . S
C4016 C4019 1.399 . S
C4016 C4020 1.383 . S
C4016 C4023 1.496 . S
C4017 C4018 1.399 . S
C4017 C4020 1.389 . S
C4018 C4017 1.399 . S
C4018 C4021 1.380 . S
C4018 H4028 0.929 . S
C4019 C4016 1.399 . S
C4019 C4021 1.392 . S
C4019 H4029 0.929 . S
C4020 C4016 1.383 . S
C4020 C4017 1.389 . S
C4020 H4030 0.931 . S
C4021 C4018 1.380 . S
C4021 C4019 1.392 . S
C4021 H4031 0.929 . S
C4022 O4002 1.266 . S
C4022 O4003 1.248 . S
C4023 Tb3959 2.802 . S
C4023 O3998 1.264 . S
C4023 O4001 1.256 . S
C4023 C4016 1.496 . S
H4024 C4007 0.929 . S
H4025 C4008 0.929 . S
H4026 C4009 0.929 . S
H4027 C4010 0.931 . S
H4028 C4018 0.929 . S
H4029 C4019 0.929 . S
H4030 C4020 0.931 . S
H4031 C4021 0.929 . S
H4032 C4038 0.930 . S
H4033 C4041 0.930 . S
H4034 C4042 0.930 . S
H4035 C4043 0.930 . S
H4036 C4046 0.930 . S
H4037 C4047 0.930 . S
C4038 H4032 0.930 . S
C4038 C4039 1.355 1_655 S
C4038 C4040 1.415 . S
C4039 C4038 1.355 1_455 S
C4039 C4041 1.419 . S
C4040 C4038 1.415 . S
C4040 C4045 1.425 1_655 S
C4040 C4047 1.409 . S
C4041 H4033 0.930 . S
C4041 C4039 1.419 . S
C4041 C4042 1.362 . S
C4042 H4034 0.930 . S
C4042 C4041 1.362 . S
C4042 C4045 1.409 . S
C4043 H4035 0.930 . S
C4043 C4044 1.346 1_455 S
C4043 C4045 1.415 . S
C4044 C4043 1.346 1_655 S
C4044 C4046 1.431 . S
C4045 C4040 1.425 1_455 S
C4045 C4042 1.409 . S
C4045 C4043 1.415 . S
C4046 H4036 0.930 . S
C4046 C4044 1.431 . S
C4046 C4047 1.362 . S
C4047 H4037 0.930 . S
C4047 C4040 1.409 . S
C4047 C4046 1.362 . S
H4048 C4054 0.930 . S
H4049 C4057 0.930 . S
H4050 C4058 0.930 . S
H4051 C4059 0.930 . S
H4052 C4062 0.930 . S
H4053 C4063 0.930 . S
C4054 H4048 0.930 . S
C4054 C4055 1.355 . S
C4054 C4056 1.415 . S
C4055 C4054 1.355 . S
C4055 C4057 1.419 . S
C4056 C4054 1.415 . S
C4056 C4061 1.425 . S
C4056 C4063 1.409 . S
C4057 H4049 0.930 . S
C4057 C4055 1.419 . S
C4057 C4058 1.362 . S
C4058 H4050 0.930 . S
C4058 C4057 1.362 . S
C4058 C4061 1.409 . S
C4059 H4051 0.930 . S
C4059 C4060 1.355 . S
C4059 C4061 1.415 . S
C4060 C4059 1.355 . S
C4060 C4062 1.419 . S
C4061 C4056 1.425 . S
C4061 C4058 1.409 . S
C4061 C4059 1.415 . S
C4062 H4052 0.930 . S
C4062 C4060 1.419 . S
C4062 C4063 1.362 . S
C4063 H4053 0.930 . S
C4063 C4056 1.409 . S
C4063 C4062 1.362 . S
H4064 C4070 0.930 . S
H4065 C4073 0.930 . S
H4066 C4074 0.930 . S
H4067 C4075 0.930 . S
H4068 C4078 0.930 . S
H4069 C4079 0.930 . S
C4070 H4064 0.930 . S
C4070 C4071 1.355 . S
C4070 C4072 1.415 . S
C4071 C4070 1.355 . S
C4071 C4073 1.419 . S
C4072 C4070 1.415 . S
C4072 C4077 1.425 . S
C4072 C4079 1.409 . S
C4073 H4065 0.930 . S
C4073 C4071 1.419 . S
C4073 C4074 1.362 . S
C4074 H4066 0.930 . S
C4074 C4073 1.362 . S
C4074 C4077 1.409 . S
C4075 H4067 0.930 . S
C4075 C4076 1.355 . S
C4075 C4077 1.415 . S
C4076 C4075 1.355 . S
C4076 C4078 1.419 . S
C4077 C4072 1.425 . S
C4077 C4074 1.409 . S
C4077 C4075 1.415 . S
C4078 H4068 0.930 . S
C4078 C4076 1.419 . S
C4078 C4079 1.362 . S
C4079 H4069 0.930 . S
C4079 C4072 1.409 . S
C4079 C4078 1.362 . S
H4080 C4086 0.930 . S
H4081 C4089 0.930 . S
H4082 C4090 0.930 . S
H4083 C4091 0.930 . S
H4084 C4094 0.930 . S
H4085 C4095 0.930 . S
C4086 H4080 0.930 . S
C4086 C4087 1.355 1_556 S
C4086 C4088 1.415 . S
C4087 C4086 1.355 1_554 S
C4087 C4089 1.419 . S
C4088 C4086 1.415 . S
C4088 C4093 1.425 1_556 S
C4088 C4095 1.409 . S
C4089 H4081 0.930 . S
C4089 C4087 1.419 . S
C4089 C4090 1.362 . S
C4090 H4082 0.930 . S
C4090 C4089 1.362 . S
C4090 C4093 1.409 . S
C4091 H4083 0.930 . S
C4091 C4092 1.355 1_554 S
C4091 C4093 1.415 . S
C4092 C4091 1.355 1_556 S
C4092 C4094 1.419 . S
C4093 C4088 1.425 1_554 S
C4093 C4090 1.409 . S
C4093 C4091 1.415 . S
C4094 H4084 0.930 . S
C4094 C4092 1.419 . S
C4094 C4095 1.362 . S
C4095 H4085 0.930 . S
C4095 C4088 1.409 . S
C4095 C4094 1.362 . S
H4096 C4102 0.930 . S
H4097 C4105 0.930 . S
H4098 C4106 0.930 . S
H4099 C4107 0.930 . S
H4100 C4110 0.930 . S
H4101 C4111 0.930 . S
C4102 H4096 0.930 . S
C4102 C4103 1.314 1_565 S
C4102 C4104 1.415 . S
C4103 C4102 1.314 1_545 S
C4103 C4105 1.470 . S
C4104 C4102 1.415 . S
C4104 C4109 1.425 1_565 S
C4104 C4111 1.409 . S
C4105 H4097 0.930 . S
C4105 C4103 1.470 . S
C4105 C4106 1.362 . S
C4106 H4098 0.930 . S
C4106 C4105 1.362 . S
C4106 C4109 1.409 . S
C4107 H4099 0.930 . S
C4107 C4108 1.355 1_545 S
C4107 C4109 1.415 . S
C4108 C4107 1.355 1_565 S
C4108 C4110 1.419 . S
C4109 C4104 1.425 1_545 S
C4109 C4106 1.409 . S
C4109 C4107 1.415 . S
C4110 H4100 0.930 . S
C4110 C4108 1.419 . S
C4110 C4111 1.362 . S
C4111 H4101 0.930 . S
C4111 C4104 1.409 . S
C4111 C4110 1.362 . S
H4112 C4118 0.930 . S
H4113 C4121 0.930 . S
H4114 C4122 0.930 . S
H4115 C4123 0.930 . S
H4116 C4126 0.930 . S
H4117 C4127 0.930 . S
C4118 H4112 0.930 . S
C4118 C4119 1.355 1_545 S
C4118 C4120 1.415 . S
C4119 C4118 1.355 1_565 S
C4119 C4121 1.419 . S
C4120 C4118 1.415 . S
C4120 C4125 1.425 1_545 S
C4120 C4127 1.409 . S
C4121 H4113 0.930 . S
C4121 C4119 1.419 . S
C4121 C4122 1.362 . S
C4122 H4114 0.930 . S
C4122 C4121 1.362 . S
C4122 C4125 1.409 . S
C4123 H4115 0.930 . S
C4123 C4124 1.355 1_565 S
C4123 C4125 1.415 . S
C4124 C4123 1.355 1_545 S
C4124 C4126 1.419 . S
C4125 C4120 1.425 1_565 S
C4125 C4122 1.409 . S
C4125 C4123 1.415 . S
C4126 H4116 0.930 . S
C4126 C4124 1.419 . S
C4126 C4127 1.362 . S
C4127 H4117 0.930 . S
C4127 C4120 1.409 . S
C4127 C4126 1.362 . S
H4128 C4134 0.930 . S
H4129 C4137 0.930 . S
H4130 C4138 0.930 . S
H4131 C4139 0.930 . S
H4132 C4142 0.930 . S
H4133 C4143 0.930 . S
C4134 H4128 0.930 . S
C4134 C4135 1.355 1_565 S
C4134 C4136 1.415 . S
C4135 C4134 1.355 1_545 S
C4135 C4137 1.419 . S
C4136 C4134 1.415 . S
C4136 C4141 1.425 1_564 S
C4136 C4143 1.409 1_554 S
C4137 H4129 0.930 . S
C4137 C4135 1.419 . S
C4137 C4138 1.362 . S
C4138 H4130 0.930 . S
C4138 C4137 1.362 . S
C4138 C4141 1.409 1_554 S
C4139 H4131 0.930 . S
C4139 C4140 1.355 1_545 S
C4139 C4141 1.415 . S
C4140 C4139 1.355 1_565 S
C4140 C4142 1.419 . S
C4141 C4136 1.425 1_546 S
C4141 C4138 1.409 1_556 S
C4141 C4139 1.415 . S
C4142 H4132 0.930 . S
C4142 C4140 1.419 . S
C4142 C4143 1.362 . S
C4143 H4133 0.930 . S
C4143 C4136 1.409 1_556 S
C4143 C4142 1.362 . S
H4144 C4150 0.930 . S
H4145 C4153 0.930 . S
H4146 C4154 0.930 . S
H4147 C4155 0.930 . S
H4148 C4158 0.930 . S
H4149 C4159 0.930 . S
C4150 H4144 0.930 . S
C4150 C4151 1.355 . S
C4150 C4152 1.415 . S
C4151 C4150 1.355 . S
C4151 C4153 1.419 1_545 S
C4152 C4150 1.415 . S
C4152 C4157 1.425 1_545 S
C4152 C4159 1.409 . S
C4153 H4145 0.930 . S
C4153 C4151 1.419 1_565 S
C4153 C4154 1.362 . S
C4154 H4146 0.930 . S
C4154 C4153 1.362 . S
C4154 C4157 1.409 . S
C4155 H4147 0.930 . S
C4155 C4156 1.355 . S
C4155 C4157 1.415 . S
C4156 C4155 1.355 . S
C4156 C4158 1.419 1_565 S
C4157 C4152 1.425 1_565 S
C4157 C4154 1.409 . S
C4157 C4155 1.415 . S
C4158 H4148 0.930 . S
C4158 C4156 1.419 1_545 S
C4158 C4159 1.362 . S
C4159 H4149 0.930 . S
C4159 C4152 1.409 . S
C4159 C4158 1.362 . S
H4160 C4166 0.930 . S
H4161 C4169 0.930 . S
H4162 C4170 0.930 . S
H4163 C4171 0.930 . S
H4164 C4174 0.930 . S
H4165 C4175 0.930 . S
C4166 H4160 0.930 . S
C4166 C4167 1.346 1_556 S
C4166 C4168 1.415 . S
C4167 C4166 1.346 1_554 S
C4167 C4169 1.430 . S
C4168 C4166 1.415 . S
C4168 C4173 1.425 1_556 S
C4168 C4175 1.409 . S
C4169 H4161 0.930 . S
C4169 C4167 1.430 . S
C4169 C4170 1.362 . S
C4170 H4162 0.930 . S
C4170 C4169 1.362 . S
C4170 C4173 1.409 . S
C4171 H4163 0.930 . S
C4171 C4172 1.353 . S
C4171 C4173 1.415 . S
C4172 C4171 1.353 . S
C4172 C4174 1.422 1_554 S
C4173 C4168 1.425 1_554 S
C4173 C4170 1.409 . S
C4173 C4171 1.415 . S
C4174 H4164 0.930 . S
C4174 C4172 1.422 1_556 S
C4174 C4175 1.362 . S
C4175 H4165 0.930 . S
C4175 C4168 1.409 . S
C4175 C4174 1.362 . S
H4176 C4182 0.930 . S
H4177 C4185 0.930 . S
H4178 C4186 0.930 . S
H4179 C4187 0.930 . S
H4180 C4190 0.930 . S
H4181 C4191 0.930 . S
C4182 H4176 0.930 . S
C4182 C4183 1.355 1_554 S
C4182 C4184 1.415 . S
C4183 C4182 1.355 1_556 S
C4183 C4185 1.419 . S
C4184 C4182 1.415 . S
C4184 C4189 1.425 1_654 S
C4184 C4191 1.409 1_655 S
C4185 H4177 0.930 . S
C4185 C4183 1.419 . S
C4185 C4186 1.362 . S
C4186 H4178 0.930 . S
C4186 C4185 1.362 . S
C4186 C4189 1.409 1_655 S
C4187 H4179 0.930 . S
C4187 C4188 1.355 1_556 S
C4187 C4189 1.415 . S
C4188 C4187 1.355 1_554 S
C4188 C4190 1.419 . S
C4189 C4184 1.425 1_456 S
C4189 C4186 1.409 1_455 S
C4189 C4187 1.415 . S
C4190 H4180 0.930 . S
C4190 C4188 1.419 . S
C4190 C4191 1.362 . S
C4191 H4181 0.930 . S
C4191 C4184 1.409 1_455 S
C4191 C4190 1.362 . S
H4192 C4198 0.930 . S
H4193 C4201 0.930 . S
H4194 C4202 0.930 . S
H4195 C4203 0.930 . S
H4196 C4206 0.930 . S
H4197 C4207 0.930 . S
C4198 H4192 0.930 . S
C4198 C4199 1.355 . S
C4198 C4200 1.415 . S
C4199 C4198 1.355 . S
C4199 C4201 1.419 1_655 S
C4200 C4198 1.415 . S
C4200 C4205 1.425 1_655 S
C4200 C4207 1.409 . S
C4201 H4193 0.930 . S
C4201 C4199 1.419 1_455 S
C4201 C4202 1.362 . S
C4202 H4194 0.930 . S
C4202 C4201 1.362 . S
C4202 C4205 1.409 . S
C4203 H4195 0.930 . S
C4203 C4204 1.355 . S
C4203 C4205 1.415 . S
C4204 C4203 1.355 . S
C4204 C4206 1.419 1_455 S
C4205 C4200 1.425 1_455 S
C4205 C4202 1.409 . S
C4205 C4203 1.415 . S
C4206 H4196 0.930 . S
C4206 C4204 1.419 1_655 S
C4206 C4207 1.362 . S
C4207 H4197 0.930 . S
C4207 C4200 1.409 . S
C4207 C4206 1.362 . S
H4208 C4214 0.930 . S
H4209 C4217 0.930 . S
H4210 C4218 0.930 . S
H4211 C4219 0.930 . S
H4212 C4222 0.930 . S
H4213 C4223 0.930 . S
C4214 H4208 0.930 . S
C4214 C4215 1.355 . S
C4214 C4216 1.415 . S
C4215 C4214 1.355 . S
C4215 C4217 1.419 . S
C4216 C4214 1.415 . S
C4216 C4221 1.425 . S
C4216 C4223 1.409 . S
C4217 H4209 0.930 . S
C4217 C4215 1.419 . S
C4217 C4218 1.362 . S
C4218 H4210 0.930 . S
C4218 C4217 1.362 . S
C4218 C4221 1.409 . S
C4219 H4211 0.930 . S
C4219 C4220 1.355 . S
C4219 C4221 1.415 . S
C4220 C4219 1.355 . S
C4220 C4222 1.419 . S
C4221 C4216 1.425 . S
C4221 C4218 1.409 . S
C4221 C4219 1.415 . S
C4222 H4212 0.930 . S
C4222 C4220 1.419 . S
C4222 C4223 1.362 . S
C4223 H4213 0.930 . S
C4223 C4216 1.409 . S
C4223 C4222 1.362 . S
H4224 C4230 0.930 . S
H4225 C4233 0.930 . S
H4226 C4234 0.930 . S
H4227 C4235 0.930 . S
H4228 C4238 0.930 . S
H4229 C4239 0.930 . S
C4230 H4224 0.930 . S
C4230 C4231 1.355 . S
C4230 C4232 1.415 . S
C4231 C4230 1.355 . S
C4231 C4233 1.419 . S
C4232 C4230 1.415 . S
C4232 C4237 1.425 1_655 S
C4232 C4239 1.409 1_655 S
C4233 H4225 0.930 . S
C4233 C4231 1.419 . S
C4233 C4234 1.362 . S
C4234 H4226 0.930 . S
C4234 C4233 1.362 . S
C4234 C4237 1.409 1_655 S
C4235 H4227 0.930 . S
C4235 C4236 1.355 . S
C4235 C4237 1.415 . S
C4236 C4235 1.355 . S
C4236 C4238 1.419 . S
C4237 C4232 1.425 1_455 S
C4237 C4234 1.409 1_455 S
C4237 C4235 1.415 . S
C4238 H4228 0.930 . S
C4238 C4236 1.419 . S
C4238 C4239 1.362 . S
C4239 H4229 0.930 . S
C4239 C4232 1.409 1_455 S
C4239 C4238 1.362 . S
H4240 C4246 0.930 . S
H4241 C4249 0.930 . S
H4242 C4250 0.930 . S
H4243 C4251 0.930 . S
H4244 C4254 0.930 . S
H4245 C4255 0.930 . S
C4246 H4240 0.930 . S
C4246 C4247 1.355 1_655 S
C4246 C4248 1.415 . S
C4247 C4246 1.355 1_455 S
C4247 C4249 1.419 . S
C4248 C4246 1.415 . S
C4248 C4253 1.425 1_655 S
C4248 C4255 1.409 . S
C4249 H4241 0.930 . S
C4249 C4247 1.419 . S
C4249 C4250 1.362 . S
C4250 H4242 0.930 . S
C4250 C4249 1.362 . S
C4250 C4253 1.409 . S
C4251 H4243 0.930 . S
C4251 C4252 1.355 1_455 S
C4251 C4253 1.415 . S
C4252 C4251 1.355 1_655 S
C4252 C4254 1.419 . S
C4253 C4248 1.425 1_455 S
C4253 C4250 1.409 . S
C4253 C4251 1.415 . S
C4254 H4244 0.930 . S
C4254 C4252 1.419 . S
C4254 C4255 1.362 . S
C4255 H4245 0.930 . S
C4255 C4248 1.409 . S
C4255 C4254 1.362 . S
H4256 C4262 0.930 . S
H4257 C4265 0.930 . S
H4258 C4266 0.930 . S
H4259 C4267 0.930 . S
H4260 C4270 0.930 . S
H4261 C4271 0.930 . S
C4262 H4256 0.930 . S
C4262 C4263 1.355 . S
C4262 C4264 1.415 . S
C4263 C4262 1.355 . S
C4263 C4265 1.419 . S
C4264 C4262 1.415 . S
C4264 C4269 1.425 . S
C4264 C4271 1.409 . S
C4265 H4257 0.930 . S
C4265 C4263 1.419 . S
C4265 C4266 1.362 . S
C4266 H4258 0.930 . S
C4266 C4265 1.362 . S
C4266 C4269 1.409 . S
C4267 H4259 0.930 . S
C4267 C4268 1.355 . S
C4267 C4269 1.415 . S
C4268 C4267 1.355 . S
C4268 C4270 1.419 . S
C4269 C4264 1.425 . S
C4269 C4266 1.409 . S
C4269 C4267 1.415 . S
C4270 H4260 0.930 . S
C4270 C4268 1.419 . S
C4270 C4271 1.362 . S
C4271 H4261 0.930 . S
C4271 C4264 1.409 . S
C4271 C4270 1.362 . S
H4272 C4278 0.930 . S
H4273 C4281 0.930 . S
H4274 C4282 0.930 . S
H4275 C4283 0.930 . S
H4276 C4286 0.930 . S
H4277 C4287 0.930 . S
C4278 H4272 0.930 . S
C4278 C4279 1.355 1_455 S
C4278 C4280 1.415 . S
C4279 C4278 1.355 1_655 S
C4279 C4281 1.419 . S
C4280 C4278 1.415 . S
C4280 C4285 1.425 1_455 S
C4280 C4287 1.409 . S
C4281 H4273 0.930 . S
C4281 C4279 1.419 . S
C4281 C4282 1.362 . S
C4282 H4274 0.930 . S
C4282 C4281 1.362 . S
C4282 C4285 1.409 . S
C4283 H4275 0.930 . S
C4283 C4284 1.351 1_655 S
C4283 C4285 1.415 . S
C4284 C4283 1.351 1_455 S
C4284 C4286 1.424 . S
C4285 C4280 1.425 1_655 S
C4285 C4282 1.409 . S
C4285 C4283 1.415 . S
C4286 H4276 0.930 . S
C4286 C4284 1.424 . S
C4286 C4287 1.362 . S
C4287 H4277 0.930 . S
C4287 C4280 1.409 . S
C4287 C4286 1.362 . S
H4288 C4294 0.930 . S
H4289 C4297 0.930 . S
H4290 C4298 0.930 . S
H4291 C4299 0.930 . S
H4292 C4302 0.930 . S
H4293 C4303 0.930 . S
C4294 H4288 0.930 . S
C4294 C4295 1.355 . S
C4294 C4296 1.415 . S
C4295 C4294 1.355 . S
C4295 C4297 1.419 . S
C4296 C4294 1.415 . S
C4296 C4301 1.425 . S
C4296 C4303 1.409 . S
C4297 H4289 0.930 . S
C4297 C4295 1.419 . S
C4297 C4298 1.362 . S
C4298 H4290 0.930 . S
C4298 C4297 1.362 . S
C4298 C4301 1.409 . S
C4299 H4291 0.930 . S
C4299 C4300 1.355 . S
C4299 C4301 1.415 . S
C4300 C4299 1.355 . S
C4300 C4302 1.419 . S
C4301 C4296 1.425 . S
C4301 C4298 1.409 . S
C4301 C4299 1.415 . S
C4302 H4292 0.930 . S
C4302 C4300 1.419 . S
C4302 C4303 1.362 . S
C4303 H4293 0.930 . S
C4303 C4296 1.409 . S
C4303 C4302 1.362 . S
H4304 C4310 0.930 . S
H4305 C4313 0.930 . S
H4306 C4314 0.930 . S
H4307 C4315 0.930 . S
H4308 C4318 0.930 . S
H4309 C4319 0.930 . S
C4310 H4304 0.930 . S
C4310 C4311 1.355 . S
C4310 C4312 1.415 . S
C4311 C4310 1.355 . S
C4311 C4313 1.419 . S
C4312 C4310 1.415 . S
C4312 C4317 1.425 . S
C4312 C4319 1.409 . S
C4313 H4305 0.930 . S
C4313 C4311 1.419 . S
C4313 C4314 1.362 . S
C4314 H4306 0.930 . S
C4314 C4313 1.362 . S
C4314 C4317 1.409 . S
C4315 H4307 0.930 . S
C4315 C4316 1.355 . S
C4315 C4317 1.415 . S
C4316 C4315 1.355 . S
C4316 C4318 1.419 . S
C4317 C4312 1.425 . S
C4317 C4314 1.409 . S
C4317 C4315 1.415 . S
C4318 H4308 0.930 . S
C4318 C4316 1.419 . S
C4318 C4319 1.362 . S
C4319 H4309 0.930 . S
C4319 C4312 1.409 . S
C4319 C4318 1.362 . S
H4320 C4326 0.930 . S
H4321 C4329 0.930 . S
H4322 C4330 0.930 . S
H4323 C4331 0.930 . S
H4324 C4334 0.930 . S
H4325 C4335 0.930 . S
C4326 H4320 0.930 . S
C4326 C4327 1.355 1_556 S
C4326 C4328 1.415 . S
C4327 C4326 1.355 1_554 S
C4327 C4329 1.419 . S
C4328 C4326 1.415 . S
C4328 C4333 1.425 1_556 S
C4328 C4335 1.409 . S
C4329 H4321 0.930 . S
C4329 C4327 1.419 . S
C4329 C4330 1.362 . S
C4330 H4322 0.930 . S
C4330 C4329 1.362 . S
C4330 C4333 1.409 . S
C4331 H4323 0.930 . S
C4331 C4332 1.355 1_554 S
C4331 C4333 1.415 . S
C4332 C4331 1.355 1_556 S
C4332 C4334 1.419 . S
C4333 C4328 1.425 1_554 S
C4333 C4330 1.409 . S
C4333 C4331 1.415 . S
C4334 H4324 0.930 . S
C4334 C4332 1.419 . S
C4334 C4335 1.362 . S
C4335 H4325 0.930 . S
C4335 C4328 1.409 . S
C4335 C4334 1.362 . S
H4336 C4342 0.930 . S
H4337 C4345 0.930 . S
H4338 C4346 0.930 . S
H4339 C4347 0.930 . S
H4340 C4350 0.930 . S
H4341 C4351 0.930 . S
C4342 H4336 0.930 . S
C4342 C4343 1.353 1_545 S
C4342 C4344 1.415 . S
C4343 C4342 1.353 1_565 S
C4343 C4345 1.422 . S
C4344 C4342 1.415 . S
C4344 C4349 1.425 1_545 S
C4344 C4351 1.409 . S
C4345 H4337 0.930 . S
C4345 C4343 1.422 . S
C4345 C4346 1.362 . S
C4346 H4338 0.930 . S
C4346 C4345 1.362 . S
C4346 C4349 1.409 . S
C4347 H4339 0.930 . S
C4347 C4348 1.355 1_565 S
C4347 C4349 1.415 . S
C4348 C4347 1.355 1_545 S
C4348 C4350 1.419 . S
C4349 C4344 1.425 1_565 S
C4349 C4346 1.409 . S
C4349 C4347 1.415 . S
C4350 H4340 0.930 . S
C4350 C4348 1.419 . S
C4350 C4351 1.362 . S
C4351 H4341 0.930 . S
C4351 C4344 1.409 . S
C4351 C4350 1.362 . S
H4352 C4358 0.930 . S
H4353 C4361 0.930 . S
H4354 C4362 0.930 . S
H4355 C4363 0.930 . S
H4356 C4366 0.930 . S
H4357 C4367 0.930 . S
C4358 H4352 0.930 . S
C4358 C4359 1.355 . S
C4358 C4360 1.415 . S
C4359 C4358 1.355 . S
C4359 C4361 1.419 1_545 S
C4360 C4358 1.415 . S
C4360 C4365 1.425 1_545 S
C4360 C4367 1.409 . S
C4361 H4353 0.930 . S
C4361 C4359 1.419 1_565 S
C4361 C4362 1.362 . S
C4362 H4354 0.930 . S
C4362 C4361 1.362 . S
C4362 C4365 1.409 . S
C4363 H4355 0.930 . S
C4363 C4364 1.355 . S
C4363 C4365 1.415 . S
C4364 C4363 1.355 . S
C4364 C4366 1.419 1_565 S
C4365 C4360 1.425 1_565 S
C4365 C4362 1.409 . S
C4365 C4363 1.415 . S
C4366 H4356 0.930 . S
C4366 C4364 1.419 1_545 S
C4366 C4367 1.362 . S
C4367 H4357 0.930 . S
C4367 C4360 1.409 . S
C4367 C4366 1.362 . S
H4368 C4374 0.930 . S
H4369 C4377 0.930 . S
H4370 C4378 0.930 . S
H4371 C4379 0.930 . S
H4372 C4382 0.930 . S
H4373 C4383 0.930 . S
C4374 H4368 0.930 . S
C4374 C4375 1.354 1_565 S
C4374 C4376 1.415 . S
C4375 C4374 1.354 1_545 S
C4375 C4377 1.420 . S
C4376 C4374 1.415 . S
C4376 C4381 1.425 1_566 S
C4376 C4383 1.409 1_556 S
C4377 H4369 0.930 . S
C4377 C4375 1.420 . S
C4377 C4378 1.362 . S
C4378 H4370 0.930 . S
C4378 C4377 1.362 . S
C4378 C4381 1.409 1_556 S
C4379 H4371 0.930 . S
C4379 C4380 1.362 . S
C4379 C4381 1.415 . S
C4380 C4379 1.362 . S
C4380 C4382 1.412 1_545 S
C4381 C4376 1.425 1_544 S
C4381 C4378 1.409 1_554 S
C4381 C4379 1.415 . S
C4382 H4372 0.930 . S
C4382 C4380 1.412 1_565 S
C4382 C4383 1.362 . S
C4383 H4373 0.930 . S
C4383 C4376 1.409 1_554 S
C4383 C4382 1.362 . S
H4384 C4390 0.930 . S
H4385 C4393 0.930 . S
H4386 C4394 0.930 . S
H4387 C4395 0.930 . S
H4388 C4398 0.930 . S
H4389 C4399 0.930 . S
C4390 H4384 0.930 . S
C4390 C4391 1.355 1_565 S
C4390 C4392 1.415 . S
C4391 C4390 1.355 1_545 S
C4391 C4393 1.419 . S
C4392 C4390 1.415 . S
C4392 C4397 1.425 1_565 S
C4392 C4399 1.409 . S
C4393 H4385 0.930 . S
C4393 C4391 1.419 . S
C4393 C4394 1.362 . S
C4394 H4386 0.930 . S
C4394 C4393 1.362 . S
C4394 C4397 1.409 . S
C4395 H4387 0.930 . S
C4395 C4396 1.355 1_545 S
C4395 C4397 1.415 . S
C4396 C4395 1.355 1_565 S
C4396 C4398 1.419 . S
C4397 C4392 1.425 1_545 S
C4397 C4394 1.409 . S
C4397 C4395 1.415 . S
C4398 H4388 0.930 . S
C4398 C4396 1.419 . S
C4398 C4399 1.362 . S
C4399 H4389 0.930 . S
C4399 C4392 1.409 . S
C4399 C4398 1.362 . S
H4400 C4406 0.930 . S
H4401 C4409 0.930 . S
H4402 C4410 0.930 . S
H4403 C4411 0.930 . S
H4404 C4414 0.930 . S
H4405 C4415 0.930 . S
C4406 H4400 0.930 . S
C4406 C4407 1.356 1_556 S
C4406 C4408 1.415 . S
C4407 C4406 1.356 1_554 S
C4407 C4409 1.417 . S
C4408 C4406 1.415 . S
C4408 C4413 1.425 1_556 S
C4408 C4415 1.409 . S
C4409 H4401 0.930 . S
C4409 C4407 1.417 . S
C4409 C4410 1.362 . S
C4410 H4402 0.930 . S
C4410 C4409 1.362 . S
C4410 C4413 1.409 . S
C4411 H4403 0.930 . S
C4411 C4412 1.345 1_554 S
C4411 C4413 1.415 . S
C4412 C4411 1.345 1_556 S
C4412 C4414 1.432 . S
C4413 C4408 1.425 1_554 S
C4413 C4410 1.409 . S
C4413 C4411 1.415 . S
C4414 H4404 0.930 . S
C4414 C4412 1.432 . S
C4414 C4415 1.362 . S
C4415 H4405 0.930 . S
C4415 C4408 1.409 . S
C4415 C4414 1.362 . S
H4416 C4422 0.930 . S
H4417 C4425 0.929 . S
H4418 C4426 0.930 . S
H4419 C4427 0.934 . S
H4420 C4430 0.930 . S
H4421 C4431 0.930 . S
C4422 H4416 0.930 . S
C4422 C4423 1.355 . S
C4422 C4424 1.415 . S
C4423 C4422 1.355 . S
C4423 C4425 1.419 1_556 S
C4424 C4422 1.415 . S
C4424 C4429 1.425 1_655 S
C4424 C4431 1.409 1_655 S
C4425 H4417 0.929 . S
C4425 C4423 1.419 1_554 S
C4425 C4426 1.362 . S
C4426 H4418 0.930 . S
C4426 C4425 1.362 . S
C4426 C4429 1.409 1_654 S
C4427 H4419 0.934 . S
C4427 C4428 1.354 1_554 S
C4427 C4429 1.414 1_554 S
C4428 C4427 1.354 1_556 S
C4428 C4430 1.419 . S
C4429 C4424 1.425 1_455 S
C4429 C4426 1.409 1_456 S
C4429 C4427 1.414 1_556 S
C4430 H4420 0.930 . S
C4430 C4428 1.419 . S
C4430 C4431 1.362 . S
C4431 H4421 0.930 . S
C4431 C4424 1.409 1_455 S
C4431 C4430 1.362 . S
H4432 C4438 0.930 . S
H4433 C4441 0.930 . S
H4434 C4442 0.930 . S
H4435 C4443 0.930 . S
H4436 C4446 0.930 . S
H4437 C4447 0.930 . S
C4438 H4432 0.930 . S
C4438 C4439 1.355 . S
C4438 C4440 1.415 . S
C4439 C4438 1.355 . S
C4439 C4441 1.419 1_655 S
C4440 C4438 1.415 . S
C4440 C4445 1.425 1_655 S
C4440 C4447 1.409 . S
C4441 H4433 0.930 . S
C4441 C4439 1.419 1_455 S
C4441 C4442 1.362 . S
C4442 H4434 0.930 . S
C4442 C4441 1.362 . S
C4442 C4445 1.409 . S
C4443 H4435 0.930 . S
C4443 C4444 1.355 . S
C4443 C4445 1.415 . S
C4444 C4443 1.355 . S
C4444 C4446 1.419 1_455 S
C4445 C4440 1.425 1_455 S
C4445 C4442 1.409 . S
C4445 C4443 1.415 . S
C4446 H4436 0.930 . S
C4446 C4444 1.419 1_655 S
C4446 C4447 1.362 . S
C4447 H4437 0.930 . S
C4447 C4440 1.409 . S
C4447 C4446 1.362 . S
H4448 C4454 0.930 . S
H4449 C4457 0.930 . S
H4450 C4458 0.930 . S
H4451 C4459 0.930 . S
H4452 C4462 0.930 . S
H4453 C4463 0.930 . S
C4454 H4448 0.930 . S
C4454 C4455 1.355 . S
C4454 C4456 1.415 . S
C4455 C4454 1.355 . S
C4455 C4457 1.419 . S
C4456 C4454 1.415 . S
C4456 C4461 1.425 . S
C4456 C4463 1.409 . S
C4457 H4449 0.930 . S
C4457 C4455 1.419 . S
C4457 C4458 1.362 . S
C4458 H4450 0.930 . S
C4458 C4457 1.362 . S
C4458 C4461 1.409 . S
C4459 H4451 0.930 . S
C4459 C4460 1.355 . S
C4459 C4461 1.415 . S
C4460 C4459 1.355 . S
C4460 C4462 1.419 . S
C4461 C4456 1.425 . S
C4461 C4458 1.409 . S
C4461 C4459 1.415 . S
C4462 H4452 0.930 . S
C4462 C4460 1.419 . S
C4462 C4463 1.362 . S
C4463 H4453 0.930 . S
C4463 C4456 1.409 . S
C4463 C4462 1.362 . S
H4464 C4470 0.930 . S
H4465 C4473 0.930 . S
H4466 C4474 0.928 1_455 S
H4467 C4475 0.930 . S
H4468 C4478 0.930 . S
H4469 C4479 0.930 . S
C4470 H4464 0.930 . S
C4470 C4471 1.355 . S
C4470 C4472 1.415 . S
C4471 C4470 1.355 . S
C4471 C4473 1.419 . S
C4472 C4470 1.415 . S
C4472 C4477 1.425 1_655 S
C4472 C4479 1.409 1_655 S
C4473 H4465 0.930 . S
C4473 C4471 1.419 . S
C4473 C4474 1.362 . S
C4474 H4466 0.928 1_655 S
C4474 C4473 1.362 . S
C4474 C4477 1.409 1_655 S
C4475 H4467 0.930 . S
C4475 C4476 1.355 . S
C4475 C4477 1.415 . S
C4476 C4475 1.355 . S
C4476 C4478 1.419 . S
C4477 C4472 1.425 1_455 S
C4477 C4474 1.409 1_455 S
C4477 C4475 1.415 . S
C4478 H4468 0.930 . S
C4478 C4476 1.419 . S
C4478 C4479 1.362 . S
C4479 H4469 0.930 . S
C4479 C4472 1.409 1_455 S
C4479 C4478 1.362 . S
H4480 C4486 0.930 . S
H4481 C4489 0.930 . S
H4482 C4490 0.930 . S
H4483 C4491 0.930 . S
H4484 C4494 0.930 . S
H4485 C4495 0.930 . S
C4486 H4480 0.930 . S
C4486 C4487 1.355 . S
C4486 C4488 1.415 . S
C4487 C4486 1.355 . S
C4487 C4489 1.419 1_455 S
C4488 C4486 1.415 . S
C4488 C4493 1.425 1_455 S
C4488 C4495 1.409 . S
C4489 H4481 0.930 . S
C4489 C4487 1.419 1_655 S
C4489 C4490 1.362 . S
C4490 H4482 0.930 . S
C4490 C4489 1.362 . S
C4490 C4493 1.409 . S
C4491 H4483 0.930 . S
C4491 C4492 1.355 . S
C4491 C4493 1.415 . S
C4492 C4491 1.355 . S
C4492 C4494 1.419 1_655 S
C4493 C4488 1.425 1_655 S
C4493 C4490 1.409 . S
C4493 C4491 1.415 . S
C4494 H4484 0.930 . S
C4494 C4492 1.419 1_455 S
C4494 C4495 1.362 . S
C4495 H4485 0.930 . S
C4495 C4488 1.409 . S
C4495 C4494 1.362 . S
H4496 C4502 0.930 . S
H4497 C4505 0.930 . S
H4498 C4506 0.930 . S
H4499 C4507 0.930 . S
H4500 C4510 0.930 . S
H4501 C4511 0.930 . S
C4502 H4496 0.930 . S
C4502 C4503 1.355 . S
C4502 C4504 1.415 . S
C4503 C4502 1.355 . S
C4503 C4505 1.419 . S
C4504 C4502 1.415 . S
C4504 C4509 1.425 . S
C4504 C4511 1.409 . S
C4505 H4497 0.930 . S
C4505 C4503 1.419 . S
C4505 C4506 1.362 . S
C4506 H4498 0.930 . S
C4506 C4505 1.362 . S
C4506 C4509 1.409 . S
C4507 H4499 0.930 . S
C4507 C4508 1.355 . S
C4507 C4509 1.415 . S
C4508 C4507 1.355 . S
C4508 C4510 1.419 . S
C4509 C4504 1.425 . S
C4509 C4506 1.409 . S
C4509 C4507 1.415 . S
C4510 H4500 0.930 . S
C4510 C4508 1.419 . S
C4510 C4511 1.362 . S
C4511 H4501 0.930 . S
C4511 C4504 1.409 . S
C4511 C4510 1.362 . S
H4512 C4518 0.930 . S
H4513 C4521 0.930 . S
H4514 C4522 0.930 . S
H4515 C4523 0.930 . S
H4516 C4526 0.930 . S
H4517 C4527 0.930 . S
C4518 H4512 0.930 . S
C4518 C4519 1.355 . S
C4518 C4520 1.415 . S
C4519 C4518 1.355 . S
C4519 C4521 1.419 . S
C4520 C4518 1.415 . S
C4520 C4525 1.420 1_545 S
C4520 C4527 1.409 1_545 S
C4521 H4513 0.930 . S
C4521 C4519 1.419 . S
C4521 C4522 1.362 . S
C4522 H4514 0.930 . S
C4522 C4521 1.362 . S
C4522 C4525 1.386 1_545 S
C4523 H4515 0.930 . S
C4523 C4524 1.355 . S
C4523 C4525 1.444 . S
C4524 C4523 1.355 . S
C4524 C4526 1.419 . S
C4525 C4520 1.420 1_565 S
C4525 C4522 1.386 1_565 S
C4525 C4523 1.444 . S
C4526 H4516 0.930 . S
C4526 C4524 1.419 . S
C4526 C4527 1.362 . S
C4527 H4517 0.930 . S
C4527 C4520 1.409 1_565 S
C4527 C4526 1.362 . S
H4528 C4534 0.930 . S
H4529 C4537 0.930 . S
H4530 C4538 0.930 . S
H4531 C4539 0.930 . S
H4532 C4542 0.930 . S
H4533 C4543 0.930 . S
C4534 H4528 0.930 . S
C4534 C4535 1.355 1_556 S
C4534 C4536 1.415 . S
C4535 C4534 1.355 1_554 S
C4535 C4537 1.419 . S
C4536 C4534 1.415 . S
C4536 C4541 1.425 1_556 S
C4536 C4543 1.409 . S
C4537 H4529 0.930 . S
C4537 C4535 1.419 . S
C4537 C4538 1.362 . S
C4538 H4530 0.930 . S
C4538 C4537 1.362 . S
C4538 C4541 1.409 . S
C4539 H4531 0.930 . S
C4539 C4540 1.355 1_554 S
C4539 C4541 1.415 . S
C4540 C4539 1.355 1_556 S
C4540 C4542 1.419 . S
C4541 C4536 1.425 1_554 S
C4541 C4538 1.409 . S
C4541 C4539 1.415 . S
C4542 H4532 0.930 . S
C4542 C4540 1.419 . S
C4542 C4543 1.362 . S
C4543 H4533 0.930 . S
C4543 C4536 1.409 . S
C4543 C4542 1.362 . S
H4544 C4550 0.930 . S
H4545 C4553 0.930 . S
H4546 C4554 0.930 . S
H4547 C4555 0.930 . S
H4548 C4558 0.930 . S
H4549 C4559 0.930 . S
C4550 H4544 0.930 . S
C4550 C4551 1.355 1_455 S
C4550 C4552 1.415 . S
C4551 C4550 1.355 1_655 S
C4551 C4553 1.419 . S
C4552 C4550 1.415 . S
C4552 C4557 1.425 1_445 S
C4552 C4559 1.409 1_545 S
C4553 H4545 0.930 . S
C4553 C4551 1.419 . S
C4553 C4554 1.362 . S
C4554 H4546 0.930 . S
C4554 C4553 1.362 . S
C4554 C4557 1.409 1_545 S
C4555 H4547 0.930 . S
C4555 C4556 1.355 1_655 S
C4555 C4557 1.415 . S
C4556 C4555 1.355 1_455 S
C4556 C4558 1.419 . S
C4557 C4552 1.425 1_665 S
C4557 C4554 1.409 1_565 S
C4557 C4555 1.415 . S
C4558 H4548 0.930 . S
C4558 C4556 1.419 . S
C4558 C4559 1.362 . S
C4559 H4549 0.930 . S
C4559 C4552 1.409 1_565 S
C4559 C4558 1.362 . S
H4560 C4566 0.930 . S
H4561 C4569 0.930 . S
H4562 C4570 0.930 . S
H4563 C4571 0.930 . S
H4564 C4574 0.930 . S
H4565 C4575 0.930 . S
C4566 H4560 0.930 . S
C4566 C4567 1.355 . S
C4566 C4568 1.415 . S
C4567 C4566 1.355 . S
C4567 C4569 1.419 . S
C4568 C4566 1.415 . S
C4568 C4573 1.425 . S
C4568 C4575 1.409 . S
C4569 H4561 0.930 . S
C4569 C4567 1.419 . S
C4569 C4570 1.362 . S
C4570 H4562 0.930 . S
C4570 C4569 1.362 . S
C4570 C4573 1.409 . S
C4571 H4563 0.930 . S
C4571 C4572 1.355 . S
C4571 C4573 1.415 . S
C4572 C4571 1.355 . S
C4572 C4574 1.419 . S
C4573 C4568 1.425 . S
C4573 C4570 1.409 . S
C4573 C4571 1.415 . S
C4574 H4564 0.930 . S
C4574 C4572 1.419 . S
C4574 C4575 1.362 . S
C4575 H4565 0.930 . S
C4575 C4568 1.409 . S
C4575 C4574 1.362 . S
H4576 C4582 0.930 . S
H4577 C4585 0.930 . S
H4578 C4586 0.930 . S
H4579 C4587 0.930 . S
H4580 C4590 0.930 . S
H4581 C4591 0.930 . S
C4582 H4576 0.930 . S
C4582 C4583 1.355 . S
C4582 C4584 1.415 . S
C4583 C4582 1.355 . S
C4583 C4585 1.419 . S
C4584 C4582 1.415 . S
C4584 C4589 1.425 1_556 S
C4584 C4591 1.409 1_556 S
C4585 H4577 0.930 . S
C4585 C4583 1.419 . S
C4585 C4586 1.362 . S
C4586 H4578 0.930 . S
C4586 C4585 1.362 . S
C4586 C4589 1.409 1_556 S
C4587 H4579 0.930 . S
C4587 C4588 1.355 . S
C4587 C4589 1.415 . S
C4588 C4587 1.355 . S
C4588 C4590 1.419 . S
C4589 C4584 1.425 1_554 S
C4589 C4586 1.409 1_554 S
C4589 C4587 1.415 . S
C4590 H4580 0.930 . S
C4590 C4588 1.419 . S
C4590 C4591 1.362 . S
C4591 H4581 0.930 . S
C4591 C4584 1.409 1_554 S
C4591 C4590 1.362 . S
H4592 C4598 0.930 . S
H4593 C4601 0.930 . S
H4594 C4602 0.930 . S
H4595 C4603 0.930 . S
H4596 C4606 0.930 . S
H4597 C4607 0.930 . S
C4598 H4592 0.930 . S
C4598 C4599 1.355 . S
C4598 C4600 1.415 . S
C4599 C4598 1.355 . S
C4599 C4601 1.419 . S
C4600 C4598 1.415 . S
C4600 C4605 1.425 . S
C4600 C4607 1.409 . S
C4601 H4593 0.930 . S
C4601 C4599 1.419 . S
C4601 C4602 1.362 . S
C4602 H4594 0.930 . S
C4602 C4601 1.362 . S
C4602 C4605 1.409 . S
C4603 H4595 0.930 . S
C4603 C4604 1.355 . S
C4603 C4605 1.415 . S
C4604 C4603 1.355 . S
C4604 C4606 1.419 . S
C4605 C4600 1.425 . S
C4605 C4602 1.409 . S
C4605 C4603 1.415 . S
C4606 H4596 0.930 . S
C4606 C4604 1.419 . S
C4606 C4607 1.362 . S
C4607 H4597 0.930 . S
C4607 C4600 1.409 . S
C4607 C4606 1.362 . S
H4608 C4614 0.930 . S
H4609 C4617 0.930 . S
H4610 C4618 0.930 . S
H4611 C4619 0.930 . S
H4612 C4622 0.930 . S
H4613 C4623 0.930 . S
C4614 H4608 0.930 . S
C4614 C4615 1.355 . S
C4614 C4616 1.415 . S
C4615 C4614 1.355 . S
C4615 C4617 1.419 . S
C4616 C4614 1.415 . S
C4616 C4621 1.425 . S
C4616 C4623 1.409 . S
C4617 H4609 0.930 . S
C4617 C4615 1.419 . S
C4617 C4618 1.362 . S
C4618 H4610 0.930 . S
C4618 C4617 1.362 . S
C4618 C4621 1.409 . S
C4619 H4611 0.930 . S
C4619 C4620 1.355 . S
C4619 C4621 1.415 . S
C4620 C4619 1.355 . S
C4620 C4622 1.419 . S
C4621 C4616 1.425 . S
C4621 C4618 1.409 . S
C4621 C4619 1.415 . S
C4622 H4612 0.930 . S
C4622 C4620 1.419 . S
C4622 C4623 1.362 . S
C4623 H4613 0.930 . S
C4623 C4616 1.409 . S
C4623 C4622 1.362 . S
H4624 C4630 0.930 . S
H4625 C4633 0.930 . S
H4626 C4634 0.930 . S
H4627 C4635 0.930 . S
H4628 C4638 0.930 . S
H4629 C4639 0.930 . S
C4630 H4624 0.930 . S
C4630 C4631 1.355 . S
C4630 C4632 1.415 . S
C4631 C4630 1.355 . S
C4631 C4633 1.419 . S
C4632 C4630 1.415 . S
C4632 C4637 1.425 . S
C4632 C4639 1.409 . S
C4633 H4625 0.930 . S
C4633 C4631 1.419 . S
C4633 C4634 1.362 . S
C4634 H4626 0.930 . S
C4634 C4633 1.362 . S
C4634 C4637 1.409 . S
C4635 H4627 0.930 . S
C4635 C4636 1.355 . S
C4635 C4637 1.415 . S
C4636 C4635 1.355 . S
C4636 C4638 1.419 . S
C4637 C4632 1.425 . S
C4637 C4634 1.409 . S
C4637 C4635 1.415 . S
C4638 H4628 0.930 . S
C4638 C4636 1.419 . S
C4638 C4639 1.362 . S
C4639 H4629 0.930 . S
C4639 C4632 1.409 . S
C4639 C4638 1.362 . S
H4640 C4646 0.930 . S
H4641 C4649 0.930 . S
H4642 C4650 0.930 . S
H4643 C4651 0.930 . S
H4644 C4654 0.930 . S
H4645 C4655 0.930 . S
C4646 H4640 0.930 . S
C4646 C4647 1.355 . S
C4646 C4648 1.415 . S
C4647 C4646 1.355 . S
C4647 C4649 1.419 . S
C4648 C4646 1.415 . S
C4648 C4653 1.425 . S
C4648 C4655 1.409 . S
C4649 H4641 0.930 . S
C4649 C4647 1.419 . S
C4649 C4650 1.362 . S
C4650 H4642 0.930 . S
C4650 C4649 1.362 . S
C4650 C4653 1.409 . S
C4651 H4643 0.930 . S
C4651 C4652 1.355 . S
C4651 C4653 1.415 . S
C4652 C4651 1.355 . S
C4652 C4654 1.419 . S
C4653 C4648 1.425 . S
C4653 C4650 1.409 . S
C4653 C4651 1.415 . S
C4654 H4644 0.930 . S
C4654 C4652 1.419 . S
C4654 C4655 1.362 . S
C4655 H4645 0.930 . S
C4655 C4648 1.409 . S
C4655 C4654 1.362 . S
H4656 C4662 0.930 . S
H4657 C4665 0.930 . S
H4658 C4666 0.954 . S
H4659 C4667 0.930 . S
H4660 C4670 0.930 . S
H4661 C4671 0.930 1_565 S
C4662 H4656 0.930 . S
C4662 C4663 1.355 . S
C4662 C4664 1.415 . S
C4663 C4662 1.355 . S
C4663 C4665 1.419 . S
C4664 C4662 1.415 . S
C4664 C4669 1.425 1_565 S
C4664 C4671 1.409 1_565 S
C4665 H4657 0.930 . S
C4665 C4663 1.419 . S
C4665 C4666 1.362 . S
C4666 H4658 0.954 . S
C4666 C4665 1.362 . S
C4666 C4669 1.409 1_565 S
C4667 H4659 0.930 . S
C4667 C4668 1.355 . S
C4667 C4669 1.415 . S
C4668 C4667 1.355 . S
C4668 C4670 1.419 . S
C4669 C4664 1.425 1_545 S
C4669 C4666 1.409 1_545 S
C4669 C4667 1.415 . S
C4670 H4660 0.930 . S
C4670 C4668 1.419 . S
C4670 C4671 1.362 . S
C4671 H4661 0.930 1_545 S
C4671 C4664 1.409 1_545 S
C4671 C4670 1.362 . S
H4672 C4678 0.930 . S
H4673 C4681 0.930 . S
H4674 C4682 0.930 . S
H4675 C4683 0.930 . S
H4676 C4686 0.930 . S
H4677 C4687 0.930 . S
C4678 H4672 0.930 . S
C4678 C4679 1.355 . S
C4678 C4680 1.415 . S
C4679 C4678 1.355 . S
C4679 C4681 1.419 1_556 S
C4680 C4678 1.415 . S
C4680 C4685 1.425 1_556 S
C4680 C4687 1.409 . S
C4681 H4673 0.930 . S
C4681 C4679 1.419 1_554 S
C4681 C4682 1.362 . S
C4682 H4674 0.930 . S
C4682 C4681 1.362 . S
C4682 C4685 1.409 . S
C4683 H4675 0.930 . S
C4683 C4684 1.355 . S
C4683 C4685 1.415 . S
C4684 C4683 1.355 . S
C4684 C4686 1.419 1_554 S
C4685 C4680 1.425 1_554 S
C4685 C4682 1.409 . S
C4685 C4683 1.415 . S
C4686 H4676 0.930 . S
C4686 C4684 1.419 1_556 S
C4686 C4687 1.362 . S
C4687 H4677 0.930 . S
C4687 C4680 1.409 . S
C4687 C4686 1.362 . S
H4688 C4694 0.930 . S
H4689 C4697 0.930 . S
H4690 C4698 0.930 . S
H4691 C4699 0.930 . S
H4692 C4702 0.930 . S
H4693 C4703 0.930 . S
C4694 H4688 0.930 . S
C4694 C4695 1.355 1_455 S
C4694 C4696 1.415 . S
C4695 C4694 1.355 1_655 S
C4695 C4697 1.419 . S
C4696 C4694 1.415 . S
C4696 C4701 1.425 1_445 S
C4696 C4703 1.409 1_545 S
C4697 H4689 0.930 . S
C4697 C4695 1.419 . S
C4697 C4698 1.362 . S
C4698 H4690 0.930 . S
C4698 C4697 1.362 . S
C4698 C4701 1.409 1_545 S
C4699 H4691 0.930 . S
C4699 C4700 1.355 1_655 S
C4699 C4701 1.415 . S
C4700 C4699 1.355 1_455 S
C4700 C4702 1.419 . S
C4701 C4696 1.425 1_665 S
C4701 C4698 1.409 1_565 S
C4701 C4699 1.415 . S
C4702 H4692 0.930 . S
C4702 C4700 1.419 . S
C4702 C4703 1.362 . S
C4703 H4693 0.930 . S
C4703 C4696 1.409 1_565 S
C4703 C4702 1.362 . S
H4704 C4710 0.930 . S
H4705 C4713 0.930 . S
H4706 C4714 0.930 . S
H4707 C4715 0.930 . S
H4708 C4718 0.930 . S
H4709 C4719 0.930 . S
C4710 H4704 0.930 . S
C4710 C4711 1.355 . S
C4710 C4712 1.415 . S
C4711 C4710 1.355 . S
C4711 C4713 1.419 . S
C4712 C4710 1.415 . S
C4712 C4717 1.425 . S
C4712 C4719 1.409 . S
C4713 H4705 0.930 . S
C4713 C4711 1.419 . S
C4713 C4714 1.362 . S
C4714 H4706 0.930 . S
C4714 C4713 1.362 . S
C4714 C4717 1.409 . S
C4715 H4707 0.930 . S
C4715 C4716 1.355 . S
C4715 C4717 1.415 . S
C4716 C4715 1.355 . S
C4716 C4718 1.419 . S
C4717 C4712 1.425 . S
C4717 C4714 1.409 . S
C4717 C4715 1.415 . S
C4718 H4708 0.930 . S
C4718 C4716 1.419 . S
C4718 C4719 1.362 . S
C4719 H4709 0.930 . S
C4719 C4712 1.409 . S
C4719 C4718 1.362 . S
H4720 C4726 0.930 . S
H4721 C4729 0.930 . S
H4722 C4730 0.930 . S
H4723 C4731 0.930 . S
H4724 C4734 0.930 . S
H4725 C4735 0.930 . S
C4726 H4720 0.930 . S
C4726 C4727 1.355 . S
C4726 C4728 1.415 . S
C4727 C4726 1.355 . S
C4727 C4729 1.419 . S
C4728 C4726 1.415 . S
C4728 C4733 1.425 1_554 S
C4728 C4735 1.409 1_554 S
C4729 H4721 0.930 . S
C4729 C4727 1.419 . S
C4729 C4730 1.362 . S
C4730 H4722 0.930 . S
C4730 C4729 1.362 . S
C4730 C4733 1.409 1_554 S
C4731 H4723 0.930 . S
C4731 C4732 1.355 . S
C4731 C4733 1.415 . S
C4732 C4731 1.355 . S
C4732 C4734 1.419 . S
C4733 C4728 1.425 1_556 S
C4733 C4730 1.409 1_556 S
C4733 C4731 1.415 . S
C4734 H4724 0.930 . S
C4734 C4732 1.419 . S
C4734 C4735 1.362 . S
C4735 H4725 0.930 . S
C4735 C4728 1.409 1_556 S
C4735 C4734 1.362 . S
H4736 C4742 0.930 . S
H4737 C4745 0.930 . S
H4738 C4746 0.930 . S
H4739 C4747 0.930 . S
H4740 C4750 0.930 . S
H4741 C4751 0.930 . S
C4742 H4736 0.930 . S
C4742 C4743 1.355 . S
C4742 C4744 1.415 . S
C4743 C4742 1.355 . S
C4743 C4745 1.419 . S
C4744 C4742 1.415 . S
C4744 C4749 1.425 . S
C4744 C4751 1.409 . S
C4745 H4737 0.930 . S
C4745 C4743 1.419 . S
C4745 C4746 1.362 . S
C4746 H4738 0.930 . S
C4746 C4745 1.362 . S
C4746 C4749 1.409 . S
C4747 H4739 0.930 . S
C4747 C4748 1.355 . S
C4747 C4749 1.415 . S
C4748 C4747 1.355 . S
C4748 C4750 1.419 . S
C4749 C4744 1.425 . S
C4749 C4746 1.409 . S
C4749 C4747 1.415 . S
C4750 H4740 0.930 . S
C4750 C4748 1.419 . S
C4750 C4751 1.362 . S
C4751 H4741 0.930 . S
C4751 C4744 1.409 . S
C4751 C4750 1.362 . S
H4752 C4758 0.930 . S
H4753 C4761 0.930 . S
H4754 C4762 0.930 . S
H4755 C4763 0.930 . S
H4756 C4766 0.930 . S
H4757 C4767 0.930 . S
C4758 H4752 0.930 . S
C4758 C4759 1.355 . S
C4758 C4760 1.415 . S
C4759 C4758 1.355 . S
C4759 C4761 1.419 . S
C4760 C4758 1.415 . S
C4760 C4765 1.425 . S
C4760 C4767 1.409 . S
C4761 H4753 0.930 . S
C4761 C4759 1.419 . S
C4761 C4762 1.362 . S
C4762 H4754 0.930 . S
C4762 C4761 1.362 . S
C4762 C4765 1.409 . S
C4763 H4755 0.930 . S
C4763 C4764 1.355 . S
C4763 C4765 1.415 . S
C4764 C4763 1.355 . S
C4764 C4766 1.419 . S
C4765 C4760 1.425 . S
C4765 C4762 1.409 . S
C4765 C4763 1.415 . S
C4766 H4756 0.930 . S
C4766 C4764 1.419 . S
C4766 C4767 1.362 . S
C4767 H4757 0.930 . S
C4767 C4760 1.409 . S
C4767 C4766 1.362 . S
H4768 C4774 0.930 . S
H4769 C4777 0.930 . S
H4770 C4778 0.930 . S
H4771 C4779 0.930 . S
H4772 C4782 0.930 . S
H4773 C4783 0.930 . S
C4774 H4768 0.930 . S
C4774 C4775 1.355 . S
C4774 C4776 1.415 . S
C4775 C4774 1.355 . S
C4775 C4777 1.419 . S
C4776 C4774 1.415 . S
C4776 C4781 1.425 . S
C4776 C4783 1.409 . S
C4777 H4769 0.930 . S
C4777 C4775 1.419 . S
C4777 C4778 1.362 . S
C4778 H4770 0.930 . S
C4778 C4777 1.362 . S
C4778 C4781 1.409 . S
C4779 H4771 0.930 . S
C4779 C4780 1.355 . S
C4779 C4781 1.415 . S
C4780 C4779 1.355 . S
C4780 C4782 1.419 . S
C4781 C4776 1.425 . S
C4781 C4778 1.409 . S
C4781 C4779 1.415 . S
C4782 H4772 0.930 . S
C4782 C4780 1.419 . S
C4782 C4783 1.362 . S
C4783 H4773 0.930 . S
C4783 C4776 1.409 . S
C4783 C4782 1.362 . S
H4784 C4790 0.930 . S
H4785 C4793 0.930 . S
H4786 C4794 0.930 . S
H4787 C4795 0.930 . S
H4788 C4798 0.930 . S
H4789 C4799 0.930 . S
C4790 H4784 0.930 . S
C4790 C4791 1.355 . S
C4790 C4792 1.415 . S
C4791 C4790 1.355 . S
C4791 C4793 1.419 . S
C4792 C4790 1.415 . S
C4792 C4797 1.425 . S
C4792 C4799 1.409 . S
C4793 H4785 0.930 . S
C4793 C4791 1.419 . S
C4793 C4794 1.362 . S
C4794 H4786 0.930 . S
C4794 C4793 1.362 . S
C4794 C4797 1.409 . S
C4795 H4787 0.930 . S
C4795 C4796 1.355 . S
C4795 C4797 1.415 . S
C4796 C4795 1.355 . S
C4796 C4798 1.419 . S
C4797 C4792 1.425 . S
C4797 C4794 1.409 . S
C4797 C4795 1.415 . S
C4798 H4788 0.930 . S
C4798 C4796 1.419 . S
C4798 C4799 1.362 . S
C4799 H4789 0.930 . S
C4799 C4792 1.409 . S
C4799 C4798 1.362 . S
H4800 C4806 0.930 . S
H4801 C4809 0.930 . S
H4802 C4810 0.930 . S
H4803 C4811 0.930 . S
H4804 C4814 0.930 . S
H4805 C4815 0.930 . S
C4806 H4800 0.930 . S
C4806 C4807 1.355 . S
C4806 C4808 1.415 . S
C4807 C4806 1.355 . S
C4807 C4809 1.419 . S
C4808 C4806 1.415 . S
C4808 C4813 1.425 . S
C4808 C4815 1.409 . S
C4809 H4801 0.930 . S
C4809 C4807 1.419 . S
C4809 C4810 1.362 . S
C4810 H4802 0.930 . S
C4810 C4809 1.362 . S
C4810 C4813 1.409 . S
C4811 H4803 0.930 . S
C4811 C4812 1.355 . S
C4811 C4813 1.415 . S
C4812 C4811 1.355 . S
C4812 C4814 1.419 . S
C4813 C4808 1.425 . S
C4813 C4810 1.409 . S
C4813 C4811 1.415 . S
C4814 H4804 0.930 . S
C4814 C4812 1.419 . S
C4814 C4815 1.362 . S
C4815 H4805 0.930 . S
C4815 C4808 1.409 . S
C4815 C4814 1.362 . S
H4816 C4822 0.930 . S
H4817 C4825 0.930 . S
H4818 C4826 0.930 . S
H4819 C4827 0.930 . S
H4820 C4830 0.930 . S
H4821 C4831 0.930 . S
C4822 H4816 0.930 . S
C4822 C4823 1.355 . S
C4822 C4824 1.415 . S
C4823 C4822 1.355 . S
C4823 C4825 1.419 . S
C4824 C4822 1.415 . S
C4824 C4829 1.425 . S
C4824 C4831 1.409 . S
C4825 H4817 0.930 . S
C4825 C4823 1.419 . S
C4825 C4826 1.362 . S
C4826 H4818 0.930 . S
C4826 C4825 1.362 . S
C4826 C4829 1.409 . S
C4827 H4819 0.930 . S
C4827 C4828 1.355 . S
C4827 C4829 1.415 . S
C4828 C4827 1.355 . S
C4828 C4830 1.419 . S
C4829 C4824 1.425 . S
C4829 C4826 1.409 . S
C4829 C4827 1.415 . S
C4830 H4820 0.930 . S
C4830 C4828 1.419 . S
C4830 C4831 1.362 . S
C4831 H4821 0.930 . S
C4831 C4824 1.409 . S
C4831 C4830 1.362 . S
H4832 C4838 0.930 . S
H4833 C4841 0.930 . S
H4834 C4842 0.930 . S
H4835 C4843 0.930 . S
H4836 C4846 0.930 . S
H4837 C4847 0.930 . S
C4838 H4832 0.930 . S
C4838 C4839 1.355 . S
C4838 C4840 1.415 . S
C4839 C4838 1.355 . S
C4839 C4841 1.419 . S
C4840 C4838 1.415 . S
C4840 C4845 1.425 . S
C4840 C4847 1.409 . S
C4841 H4833 0.930 . S
C4841 C4839 1.419 . S
C4841 C4842 1.362 . S
C4842 H4834 0.930 . S
C4842 C4841 1.362 . S
C4842 C4845 1.409 . S
C4843 H4835 0.930 . S
C4843 C4844 1.355 . S
C4843 C4845 1.415 . S
C4844 C4843 1.355 . S
C4844 C4846 1.419 . S
C4845 C4840 1.425 . S
C4845 C4842 1.409 . S
C4845 C4843 1.415 . S
C4846 H4836 0.930 . S
C4846 C4844 1.419 . S
C4846 C4847 1.362 . S
C4847 H4837 0.930 . S
C4847 C4840 1.409 . S
C4847 C4846 1.362 . S
H4848 C4854 0.930 . S
H4849 C4857 0.930 . S
H4850 C4858 0.930 . S
H4851 C4859 0.930 . S
H4852 C4862 0.930 . S
H4853 C4863 0.930 . S
C4854 H4848 0.930 . S
C4854 C4855 1.355 . S
C4854 C4856 1.415 . S
C4855 C4854 1.355 . S
C4855 C4857 1.419 . S
C4856 C4854 1.415 . S
C4856 C4861 1.425 . S
C4856 C4863 1.409 . S
C4857 H4849 0.930 . S
C4857 C4855 1.419 . S
C4857 C4858 1.362 . S
C4858 H4850 0.930 . S
C4858 C4857 1.362 . S
C4858 C4861 1.409 . S
C4859 H4851 0.930 . S
C4859 C4860 1.355 . S
C4859 C4861 1.415 . S
C4860 C4859 1.355 . S
C4860 C4862 1.419 . S
C4861 C4856 1.425 . S
C4861 C4858 1.409 . S
C4861 C4859 1.415 . S
C4862 H4852 0.930 . S
C4862 C4860 1.419 . S
C4862 C4863 1.362 . S
C4863 H4853 0.930 . S
C4863 C4856 1.409 . S
C4863 C4862 1.362 . S
H4864 C4870 0.930 . S
H4865 C4873 0.930 . S
H4866 C4874 0.930 . S
H4867 C4875 0.930 . S
H4868 C4878 0.930 . S
H4869 C4879 0.930 . S
C4870 H4864 0.930 . S
C4870 C4871 1.355 . S
C4870 C4872 1.415 . S
C4871 C4870 1.355 . S
C4871 C4873 1.419 . S
C4872 C4870 1.415 . S
C4872 C4877 1.425 . S
C4872 C4879 1.409 . S
C4873 H4865 0.930 . S
C4873 C4871 1.419 . S
C4873 C4874 1.362 . S
C4874 H4866 0.930 . S
C4874 C4873 1.362 . S
C4874 C4877 1.409 . S
C4875 H4867 0.930 . S
C4875 C4876 1.355 . S
C4875 C4877 1.415 . S
C4876 C4875 1.355 . S
C4876 C4878 1.419 . S
C4877 C4872 1.425 . S
C4877 C4874 1.409 . S
C4877 C4875 1.415 . S
C4878 H4868 0.930 . S
C4878 C4876 1.419 . S
C4878 C4879 1.362 . S
C4879 H4869 0.930 . S
C4879 C4872 1.409 . S
C4879 C4878 1.362 . S
H4880 C4886 0.930 . S
H4881 C4889 0.930 . S
H4882 C4890 0.930 . S
H4883 C4891 0.930 . S
H4884 C4894 0.930 . S
H4885 C4895 0.930 . S
C4886 H4880 0.930 . S
C4886 C4887 1.355 . S
C4886 C4888 1.415 . S
C4887 C4886 1.355 . S
C4887 C4889 1.419 . S
C4888 C4886 1.415 . S
C4888 C4893 1.425 . S
C4888 C4895 1.409 . S
C4889 H4881 0.930 . S
C4889 C4887 1.419 . S
C4889 C4890 1.362 . S
C4890 H4882 0.930 . S
C4890 C4889 1.362 . S
C4890 C4893 1.409 . S
C4891 H4883 0.930 . S
C4891 C4892 1.355 . S
C4891 C4893 1.415 . S
C4892 C4891 1.355 . S
C4892 C4894 1.419 . S
C4893 C4888 1.425 . S
C4893 C4890 1.409 . S
C4893 C4891 1.415 . S
C4894 H4884 0.930 . S
C4894 C4892 1.419 . S
C4894 C4895 1.362 . S
C4895 H4885 0.930 . S
C4895 C4888 1.409 . S
C4895 C4894 1.362 . S
H4896 C4902 0.930 . S
H4897 C4905 0.930 . S
H4898 C4906 0.930 . S
H4899 C4907 0.930 . S
H4900 C4910 0.930 . S
H4901 C4911 0.930 . S
C4902 H4896 0.930 . S
C4902 C4903 1.355 . S
C4902 C4904 1.415 . S
C4903 C4902 1.355 . S
C4903 C4905 1.419 . S
C4904 C4902 1.415 . S
C4904 C4909 1.425 . S
C4904 C4911 1.409 . S
C4905 H4897 0.930 . S
C4905 C4903 1.419 . S
C4905 C4906 1.362 . S
C4906 H4898 0.930 . S
C4906 C4905 1.362 . S
C4906 C4909 1.409 . S
C4907 H4899 0.930 . S
C4907 C4908 1.355 . S
C4907 C4909 1.415 . S
C4908 C4907 1.355 . S
C4908 C4910 1.419 . S
C4909 C4904 1.425 . S
C4909 C4906 1.409 . S
C4909 C4907 1.415 . S
C4910 H4900 0.930 . S
C4910 C4908 1.419 . S
C4910 C4911 1.362 . S
C4911 H4901 0.930 . S
C4911 C4904 1.409 . S
C4911 C4910 1.362 . S
H4912 C4918 0.930 . S
H4913 C4921 0.930 . S
H4914 C4922 0.930 . S
H4915 C4923 0.930 . S
H4916 C4926 0.930 . S
H4917 C4927 0.930 . S
C4918 H4912 0.930 . S
C4918 C4919 1.355 . S
C4918 C4920 1.415 . S
C4919 C4918 1.355 . S
C4919 C4921 1.419 . S
C4920 C4918 1.415 . S
C4920 C4925 1.425 . S
C4920 C4927 1.409 . S
C4921 H4913 0.930 . S
C4921 C4919 1.419 . S
C4921 C4922 1.362 . S
C4922 H4914 0.930 . S
C4922 C4921 1.362 . S
C4922 C4925 1.409 . S
C4923 H4915 0.930 . S
C4923 C4924 1.355 . S
C4923 C4925 1.415 . S
C4924 C4923 1.355 . S
C4924 C4926 1.419 . S
C4925 C4920 1.425 . S
C4925 C4922 1.409 . S
C4925 C4923 1.415 . S
C4926 H4916 0.930 . S
C4926 C4924 1.419 . S
C4926 C4927 1.362 . S
C4927 H4917 0.930 . S
C4927 C4920 1.409 . S
C4927 C4926 1.362 . S
H4928 C4934 0.930 . S
H4929 C4937 0.930 . S
H4930 C4938 0.930 . S
H4931 C4939 0.930 . S
H4932 C4942 0.930 . S
H4933 C4943 0.930 . S
C4934 H4928 0.930 . S
C4934 C4935 1.355 . S
C4934 C4936 1.415 . S
C4935 C4934 1.355 . S
C4935 C4937 1.419 . S
C4936 C4934 1.415 . S
C4936 C4941 1.425 . S
C4936 C4943 1.409 . S
C4937 H4929 0.930 . S
C4937 C4935 1.419 . S
C4937 C4938 1.362 . S
C4938 H4930 0.930 . S
C4938 C4937 1.362 . S
C4938 C4941 1.409 . S
C4939 H4931 0.930 . S
C4939 C4940 1.355 . S
C4939 C4941 1.415 . S
C4940 C4939 1.355 . S
C4940 C4942 1.419 . S
C4941 C4936 1.425 . S
C4941 C4938 1.409 . S
C4941 C4939 1.415 . S
C4942 H4932 0.930 . S
C4942 C4940 1.419 . S
C4942 C4943 1.362 . S
C4943 H4933 0.930 . S
C4943 C4936 1.409 . S
C4943 C4942 1.362 . S
H4944 C4950 0.930 . S
H4945 C4953 0.930 . S
H4946 C4954 0.930 . S
H4947 C4955 0.930 . S
H4948 C4958 0.930 . S
H4949 C4959 0.930 . S
C4950 H4944 0.930 . S
C4950 C4951 1.355 . S
C4950 C4952 1.415 . S
C4951 C4950 1.355 . S
C4951 C4953 1.419 . S
C4952 C4950 1.415 . S
C4952 C4957 1.425 . S
C4952 C4959 1.409 . S
C4953 H4945 0.930 . S
C4953 C4951 1.419 . S
C4953 C4954 1.362 . S
C4954 H4946 0.930 . S
C4954 C4953 1.362 . S
C4954 C4957 1.409 . S
C4955 H4947 0.930 . S
C4955 C4956 1.355 . S
C4955 C4957 1.415 . S
C4956 C4955 1.355 . S
C4956 C4958 1.419 . S
C4957 C4952 1.425 . S
C4957 C4954 1.409 . S
C4957 C4955 1.415 . S
C4958 H4948 0.930 . S
C4958 C4956 1.419 . S
C4958 C4959 1.362 . S
C4959 H4949 0.930 . S
C4959 C4952 1.409 . S
C4959 C4958 1.362 . S
H4960 C4966 0.930 . S
H4961 C4969 0.930 . S
H4962 C4970 0.930 . S
H4963 C4971 0.930 . S
H4964 C4974 0.930 . S
H4965 C4975 0.930 . S
C4966 H4960 0.930 . S
C4966 C4967 1.355 . S
C4966 C4968 1.415 . S
C4967 C4966 1.355 . S
C4967 C4969 1.419 . S
C4968 C4966 1.415 . S
C4968 C4973 1.425 . S
C4968 C4975 1.409 . S
C4969 H4961 0.930 . S
C4969 C4967 1.419 . S
C4969 C4970 1.362 . S
C4970 H4962 0.930 . S
C4970 C4969 1.362 . S
C4970 C4973 1.409 . S
C4971 H4963 0.930 . S
C4971 C4972 1.355 . S
C4971 C4973 1.415 . S
C4972 C4971 1.355 . S
C4972 C4974 1.419 . S
C4973 C4968 1.425 . S
C4973 C4970 1.409 . S
C4973 C4971 1.415 . S
C4974 H4964 0.930 . S
C4974 C4972 1.419 . S
C4974 C4975 1.362 . S
C4975 H4965 0.930 . S
C4975 C4968 1.409 . S
C4975 C4974 1.362 . S
H4976 C4982 0.930 . S
H4977 C4985 0.930 . S
H4978 C4986 0.930 . S
H4979 C4987 0.930 . S
H4980 C4990 0.930 . S
H4981 C4991 0.930 . S
C4982 H4976 0.930 . S
C4982 C4983 1.355 . S
C4982 C4984 1.415 . S
C4983 C4982 1.355 . S
C4983 C4985 1.419 . S
C4984 C4982 1.415 . S
C4984 C4989 1.425 . S
C4984 C4991 1.409 . S
C4985 H4977 0.930 . S
C4985 C4983 1.419 . S
C4985 C4986 1.362 . S
C4986 H4978 0.930 . S
C4986 C4985 1.362 . S
C4986 C4989 1.409 . S
C4987 H4979 0.930 . S
C4987 C4988 1.355 . S
C4987 C4989 1.415 . S
C4988 C4987 1.355 . S
C4988 C4990 1.419 . S
C4989 C4984 1.425 . S
C4989 C4986 1.409 . S
C4989 C4987 1.415 . S
C4990 H4980 0.930 . S
C4990 C4988 1.419 . S
C4990 C4991 1.362 . S
C4991 H4981 0.930 . S
C4991 C4984 1.409 . S
C4991 C4990 1.362 . S
H4992 C4998 0.930 . S
H4993 C5001 0.930 . S
H4994 C5002 0.930 . S
H4995 C5003 0.930 . S
H4996 C5006 0.930 . S
H4997 C5007 0.930 . S
C4998 H4992 0.930 . S
C4998 C4999 1.355 . S
C4998 C5000 1.415 . S
C4999 C4998 1.355 . S
C4999 C5001 1.419 . S
C5000 C4998 1.415 . S
C5000 C5005 1.425 . S
C5000 C5007 1.409 . S
C5001 H4993 0.930 . S
C5001 C4999 1.419 . S
C5001 C5002 1.362 . S
C5002 H4994 0.930 . S
C5002 C5001 1.362 . S
C5002 C5005 1.409 . S
C5003 H4995 0.930 . S
C5003 C5004 1.355 . S
C5003 C5005 1.415 . S
C5004 C5003 1.355 . S
C5004 C5006 1.419 . S
C5005 C5000 1.425 . S
C5005 C5002 1.409 . S
C5005 C5003 1.415 . S
C5006 H4996 0.930 . S
C5006 C5004 1.419 . S
C5006 C5007 1.362 . S
C5007 H4997 0.930 . S
C5007 C5000 1.409 . S
C5007 C5006 1.362 . S
H5008 C5014 0.930 . S
H5009 C5017 0.930 . S
H5010 C5018 0.930 . S
H5011 C5019 0.930 . S
H5012 C5022 0.930 . S
H5013 C5023 0.930 . S
C5014 H5008 0.930 . S
C5014 C5015 1.355 . S
C5014 C5016 1.415 . S
C5015 C5014 1.355 . S
C5015 C5017 1.419 . S
C5016 C5014 1.415 . S
C5016 C5021 1.425 . S
C5016 C5023 1.409 . S
C5017 H5009 0.930 . S
C5017 C5015 1.419 . S
C5017 C5018 1.362 . S
C5018 H5010 0.930 . S
C5018 C5017 1.362 . S
C5018 C5021 1.409 . S
C5019 H5011 0.930 . S
C5019 C5020 1.355 . S
C5019 C5021 1.415 . S
C5020 C5019 1.355 . S
C5020 C5022 1.419 . S
C5021 C5016 1.425 . S
C5021 C5018 1.409 . S
C5021 C5019 1.415 . S
C5022 H5012 0.930 . S
C5022 C5020 1.419 . S
C5022 C5023 1.362 . S
C5023 H5013 0.930 . S
C5023 C5016 1.409 . S
C5023 C5022 1.362 . S
H5024 C5030 0.930 . S
H5025 C5033 0.930 . S
H5026 C5034 0.930 . S
H5027 C5035 0.930 . S
H5028 C5038 0.930 . S
H5029 C5039 0.930 . S
C5030 H5024 0.930 . S
C5030 C5031 1.355 . S
C5030 C5032 1.415 . S
C5031 C5030 1.355 . S
C5031 C5033 1.419 . S
C5032 C5030 1.415 . S
C5032 C5037 1.425 . S
C5032 C5039 1.409 . S
C5033 H5025 0.930 . S
C5033 C5031 1.419 . S
C5033 C5034 1.362 . S
C5034 H5026 0.930 . S
C5034 C5033 1.362 . S
C5034 C5037 1.409 . S
C5035 H5027 0.930 . S
C5035 C5036 1.355 . S
C5035 C5037 1.415 . S
C5036 C5035 1.355 . S
C5036 C5038 1.419 . S
C5037 C5032 1.425 . S
C5037 C5034 1.409 . S
C5037 C5035 1.415 . S
C5038 H5028 0.930 . S
C5038 C5036 1.419 . S
C5038 C5039 1.362 . S
C5039 H5029 0.930 . S
C5039 C5032 1.409 . S
C5039 C5038 1.362 . S
H5040 C5046 0.930 . S
H5041 C5049 0.930 . S
H5042 C5050 0.930 . S
H5043 C5051 0.930 . S
H5044 C5054 0.930 . S
H5045 C5055 0.930 . S
C5046 H5040 0.930 . S
C5046 C5047 1.355 . S
C5046 C5048 1.415 . S
C5047 C5046 1.355 . S
C5047 C5049 1.419 . S
C5048 C5046 1.415 . S
C5048 C5053 1.425 . S
C5048 C5055 1.409 . S
C5049 H5041 0.930 . S
C5049 C5047 1.419 . S
C5049 C5050 1.362 . S
C5050 H5042 0.930 . S
C5050 C5049 1.362 . S
C5050 C5053 1.409 . S
C5051 H5043 0.930 . S
C5051 C5052 1.355 . S
C5051 C5053 1.415 . S
C5052 C5051 1.355 . S
C5052 C5054 1.419 . S
C5053 C5048 1.425 . S
C5053 C5050 1.409 . S
C5053 C5051 1.415 . S
C5054 H5044 0.930 . S
C5054 C5052 1.419 . S
C5054 C5055 1.362 . S
C5055 H5045 0.930 . S
C5055 C5048 1.409 . S
C5055 C5054 1.362 . S
H5056 C5062 0.930 . S
H5057 C5065 0.930 . S
H5058 C5066 0.930 . S
H5059 C5067 0.930 . S
H5060 C5070 0.930 . S
H5061 C5071 0.930 . S
C5062 H5056 0.930 . S
C5062 C5063 1.355 . S
C5062 C5064 1.415 . S
C5063 C5062 1.355 . S
C5063 C5065 1.419 . S
C5064 C5062 1.415 . S
C5064 C5069 1.425 . S
C5064 C5071 1.409 . S
C5065 H5057 0.930 . S
C5065 C5063 1.419 . S
C5065 C5066 1.362 . S
C5066 H5058 0.930 . S
C5066 C5065 1.362 . S
C5066 C5069 1.409 . S
C5067 H5059 0.930 . S
C5067 C5068 1.355 . S
C5067 C5069 1.415 . S
C5068 C5067 1.355 . S
C5068 C5070 1.419 . S
C5069 C5064 1.425 . S
C5069 C5066 1.409 . S
C5069 C5067 1.415 . S
C5070 H5060 0.930 . S
C5070 C5068 1.419 . S
C5070 C5071 1.362 . S
C5071 H5061 0.930 . S
C5071 C5064 1.409 . S
C5071 C5070 1.362 . S
H5072 C5078 0.930 . S
H5073 C5081 0.930 . S
H5074 C5082 0.930 . S
H5075 C5083 0.930 . S
H5076 C5086 0.930 . S
H5077 C5087 0.930 . S
C5078 H5072 0.930 . S
C5078 C5079 1.355 . S
C5078 C5080 1.415 . S
C5079 C5078 1.355 . S
C5079 C5081 1.419 . S
C5080 C5078 1.415 . S
C5080 C5085 1.425 . S
C5080 C5087 1.409 . S
C5081 H5073 0.930 . S
C5081 C5079 1.419 . S
C5081 C5082 1.362 . S
C5082 H5074 0.930 . S
C5082 C5081 1.362 . S
C5082 C5085 1.409 . S
C5083 H5075 0.930 . S
C5083 C5084 1.355 . S
C5083 C5085 1.415 . S
C5084 C5083 1.355 . S
C5084 C5086 1.419 . S
C5085 C5080 1.425 . S
C5085 C5082 1.409 . S
C5085 C5083 1.415 . S
C5086 H5076 0.930 . S
C5086 C5084 1.419 . S
C5086 C5087 1.362 . S
C5087 H5077 0.930 . S
C5087 C5080 1.409 . S
C5087 C5086 1.362 . S
H5088 C5094 0.930 . S
H5089 C5097 0.930 . S
H5090 C5098 0.930 . S
H5091 C5099 0.930 . S
H5092 C5102 0.930 . S
H5093 C5103 0.930 . S
C5094 H5088 0.930 . S
C5094 C5095 1.355 . S
C5094 C5096 1.415 . S
C5095 C5094 1.355 . S
C5095 C5097 1.419 . S
C5096 C5094 1.415 . S
C5096 C5101 1.425 . S
C5096 C5103 1.409 . S
C5097 H5089 0.930 . S
C5097 C5095 1.419 . S
C5097 C5098 1.362 . S
C5098 H5090 0.930 . S
C5098 C5097 1.362 . S
C5098 C5101 1.409 . S
C5099 H5091 0.930 . S
C5099 C5100 1.355 . S
C5099 C5101 1.415 . S
C5100 C5099 1.355 . S
C5100 C5102 1.419 . S
C5101 C5096 1.425 . S
C5101 C5098 1.409 . S
C5101 C5099 1.415 . S
C5102 H5092 0.930 . S
C5102 C5100 1.419 . S
C5102 C5103 1.362 . S
C5103 H5093 0.930 . S
C5103 C5096 1.409 . S
C5103 C5102 1.362 . S
H5104 C5110 0.930 . S
H5105 C5113 0.930 . S
H5106 C5114 0.930 . S
H5107 C5115 0.930 . S
H5108 C5118 0.930 . S
H5109 C5119 0.930 . S
C5110 H5104 0.930 . S
C5110 C5111 1.355 . S
C5110 C5112 1.415 . S
C5111 C5110 1.355 . S
C5111 C5113 1.419 . S
C5112 C5110 1.415 . S
C5112 C5117 1.425 . S
C5112 C5119 1.409 . S
C5113 H5105 0.930 . S
C5113 C5111 1.419 . S
C5113 C5114 1.362 . S
C5114 H5106 0.930 . S
C5114 C5113 1.362 . S
C5114 C5117 1.409 . S
C5115 H5107 0.930 . S
C5115 C5116 1.355 . S
C5115 C5117 1.415 . S
C5116 C5115 1.355 . S
C5116 C5118 1.419 . S
C5117 C5112 1.425 . S
C5117 C5114 1.409 . S
C5117 C5115 1.415 . S
C5118 H5108 0.930 . S
C5118 C5116 1.419 . S
C5118 C5119 1.362 . S
C5119 H5109 0.930 . S
C5119 C5112 1.409 . S
C5119 C5118 1.362 . S
H5120 C5126 0.930 . S
H5121 C5129 0.930 . S
H5122 C5130 0.930 . S
H5123 C5131 0.930 . S
H5124 C5134 0.930 . S
H5125 C5135 0.930 . S
C5126 H5120 0.930 . S
C5126 C5127 1.355 . S
C5126 C5128 1.415 . S
C5127 C5126 1.355 . S
C5127 C5129 1.419 . S
C5128 C5126 1.415 . S
C5128 C5133 1.425 . S
C5128 C5135 1.409 . S
C5129 H5121 0.930 . S
C5129 C5127 1.419 . S
C5129 C5130 1.362 . S
C5130 H5122 0.930 . S
C5130 C5129 1.362 . S
C5130 C5133 1.409 . S
C5131 H5123 0.930 . S
C5131 C5132 1.355 . S
C5131 C5133 1.415 . S
C5132 C5131 1.355 . S
C5132 C5134 1.419 . S
C5133 C5128 1.425 . S
C5133 C5130 1.409 . S
C5133 C5131 1.415 . S
C5134 H5124 0.930 . S
C5134 C5132 1.419 . S
C5134 C5135 1.362 . S
C5135 H5125 0.930 . S
C5135 C5128 1.409 . S
C5135 C5134 1.362 . S
H5136 C5142 0.930 . S
H5137 C5145 0.930 . S
H5138 C5146 0.930 . S
H5139 C5147 0.930 . S
H5140 C5150 0.930 . S
H5141 C5151 0.930 . S
C5142 H5136 0.930 . S
C5142 C5143 1.355 . S
C5142 C5144 1.415 . S
C5143 C5142 1.355 . S
C5143 C5145 1.419 . S
C5144 C5142 1.415 . S
C5144 C5149 1.425 . S
C5144 C5151 1.409 . S
C5145 H5137 0.930 . S
C5145 C5143 1.419 . S
C5145 C5146 1.362 . S
C5146 H5138 0.930 . S
C5146 C5145 1.362 . S
C5146 C5149 1.409 . S
C5147 H5139 0.930 . S
C5147 C5148 1.355 . S
C5147 C5149 1.415 . S
C5148 C5147 1.355 . S
C5148 C5150 1.419 . S
C5149 C5144 1.425 . S
C5149 C5146 1.409 . S
C5149 C5147 1.415 . S
C5150 H5140 0.930 . S
C5150 C5148 1.419 . S
C5150 C5151 1.362 . S
C5151 H5141 0.930 . S
C5151 C5144 1.409 . S
C5151 C5150 1.362 . S
H5152 C5158 0.930 . S
H5153 C5161 0.930 . S
H5154 C5162 0.930 . S
H5155 C5163 0.930 . S
H5156 C5166 0.930 . S
H5157 C5167 0.930 . S
C5158 H5152 0.930 . S
C5158 C5159 1.355 . S
C5158 C5160 1.415 . S
C5159 C5158 1.355 . S
C5159 C5161 1.419 . S
C5160 C5158 1.415 . S
C5160 C5165 1.425 . S
C5160 C5167 1.409 . S
C5161 H5153 0.930 . S
C5161 C5159 1.419 . S
C5161 C5162 1.362 . S
C5162 H5154 0.930 . S
C5162 C5161 1.362 . S
C5162 C5165 1.409 . S
C5163 H5155 0.930 . S
C5163 C5164 1.355 . S
C5163 C5165 1.415 . S
C5164 C5163 1.355 . S
C5164 C5166 1.419 . S
C5165 C5160 1.425 . S
C5165 C5162 1.409 . S
C5165 C5163 1.415 . S
C5166 H5156 0.930 . S
C5166 C5164 1.419 . S
C5166 C5167 1.362 . S
C5167 H5157 0.930 . S
C5167 C5160 1.409 . S
C5167 C5166 1.362 . S
H5168 C5174 0.930 . S
H5169 C5177 0.930 . S
H5170 C5178 0.930 . S
H5171 C5179 0.930 . S
H5172 C5182 0.930 . S
H5173 C5183 0.930 . S
C5174 H5168 0.930 . S
C5174 C5175 1.355 . S
C5174 C5176 1.415 . S
C5175 C5174 1.355 . S
C5175 C5177 1.419 . S
C5176 C5174 1.415 . S
C5176 C5181 1.425 . S
C5176 C5183 1.409 . S
C5177 H5169 0.930 . S
C5177 C5175 1.419 . S
C5177 C5178 1.362 . S
C5178 H5170 0.930 . S
C5178 C5177 1.362 . S
C5178 C5181 1.409 . S
C5179 H5171 0.930 . S
C5179 C5180 1.355 . S
C5179 C5181 1.415 . S
C5180 C5179 1.355 . S
C5180 C5182 1.419 . S
C5181 C5176 1.425 . S
C5181 C5178 1.409 . S
C5181 C5179 1.415 . S
C5182 H5172 0.930 . S
C5182 C5180 1.419 . S
C5182 C5183 1.362 . S
C5183 H5173 0.930 . S
C5183 C5176 1.409 . S
C5183 C5182 1.362 . S
H5184 C5190 0.930 . S
H5185 C5193 0.930 . S
H5186 C5194 0.930 . S
H5187 C5195 0.930 . S
H5188 C5198 0.930 . S
H5189 C5199 0.930 . S
C5190 H5184 0.930 . S
C5190 C5191 1.355 . S
C5190 C5192 1.415 . S
C5191 C5190 1.355 . S
C5191 C5193 1.419 . S
C5192 C5190 1.415 . S
C5192 C5197 1.425 . S
C5192 C5199 1.409 . S
C5193 H5185 0.930 . S
C5193 C5191 1.419 . S
C5193 C5194 1.362 . S
C5194 H5186 0.930 . S
C5194 C5193 1.362 . S
C5194 C5197 1.409 . S
C5195 H5187 0.930 . S
C5195 C5196 1.355 . S
C5195 C5197 1.415 . S
C5196 C5195 1.355 . S
C5196 C5198 1.419 . S
C5197 C5192 1.425 . S
C5197 C5194 1.409 . S
C5197 C5195 1.415 . S
C5198 H5188 0.930 . S
C5198 C5196 1.419 . S
C5198 C5199 1.362 . S
C5199 H5189 0.930 . S
C5199 C5192 1.409 . S
C5199 C5198 1.362 . S
H5200 C5206 0.930 . S
H5201 C5209 0.930 . S
H5202 C5210 0.930 . S
H5203 C5211 0.930 . S
H5204 C5214 0.930 . S
H5205 C5215 0.930 . S
C5206 H5200 0.930 . S
C5206 C5207 1.355 . S
C5206 C5208 1.415 . S
C5207 C5206 1.355 . S
C5207 C5209 1.419 . S
C5208 C5206 1.415 . S
C5208 C5213 1.425 . S
C5208 C5215 1.409 . S
C5209 H5201 0.930 . S
C5209 C5207 1.419 . S
C5209 C5210 1.362 . S
C5210 H5202 0.930 . S
C5210 C5209 1.362 . S
C5210 C5213 1.409 . S
C5211 H5203 0.930 . S
C5211 C5212 1.355 . S
C5211 C5213 1.415 . S
C5212 C5211 1.355 . S
C5212 C5214 1.419 . S
C5213 C5208 1.425 . S
C5213 C5210 1.409 . S
C5213 C5211 1.415 . S
C5214 H5204 0.930 . S
C5214 C5212 1.419 . S
C5214 C5215 1.362 . S
C5215 H5205 0.930 . S
C5215 C5208 1.409 . S
C5215 C5214 1.362 . S
H5216 C5222 0.930 . S
H5217 C5225 0.930 . S
H5218 C5226 0.930 . S
H5219 C5227 0.930 . S
H5220 C5230 0.930 . S
H5221 C5231 0.930 . S
C5222 H5216 0.930 . S
C5222 C5223 1.355 . S
C5222 C5224 1.415 . S
C5223 C5222 1.355 . S
C5223 C5225 1.419 . S
C5224 C5222 1.415 . S
C5224 C5229 1.425 . S
C5224 C5231 1.409 . S
C5225 H5217 0.930 . S
C5225 C5223 1.419 . S
C5225 C5226 1.362 . S
C5226 H5218 0.930 . S
C5226 C5225 1.362 . S
C5226 C5229 1.409 . S
C5227 H5219 0.930 . S
C5227 C5228 1.355 . S
C5227 C5229 1.415 . S
C5228 C5227 1.355 . S
C5228 C5230 1.419 . S
C5229 C5224 1.425 . S
C5229 C5226 1.409 . S
C5229 C5227 1.415 . S
C5230 H5220 0.930 . S
C5230 C5228 1.419 . S
C5230 C5231 1.362 . S
C5231 H5221 0.930 . S
C5231 C5224 1.409 . S
C5231 C5230 1.362 . S
H5232 C5238 0.930 . S
H5233 C5241 0.930 . S
H5234 C5242 0.930 . S
H5235 C5243 0.930 . S
H5236 C5246 0.930 . S
H5237 C5247 0.930 . S
C5238 H5232 0.930 . S
C5238 C5239 1.355 . S
C5238 C5240 1.415 . S
C5239 C5238 1.355 . S
C5239 C5241 1.419 . S
C5240 C5238 1.415 . S
C5240 C5245 1.425 . S
C5240 C5247 1.409 . S
C5241 H5233 0.930 . S
C5241 C5239 1.419 . S
C5241 C5242 1.362 . S
C5242 H5234 0.930 . S
C5242 C5241 1.362 . S
C5242 C5245 1.409 . S
C5243 H5235 0.930 . S
C5243 C5244 1.355 . S
C5243 C5245 1.415 . S
C5244 C5243 1.355 . S
C5244 C5246 1.419 . S
C5245 C5240 1.425 . S
C5245 C5242 1.409 . S
C5245 C5243 1.415 . S
C5246 H5236 0.930 . S
C5246 C5244 1.419 . S
C5246 C5247 1.362 . S
C5247 H5237 0.930 . S
C5247 C5240 1.409 . S
C5247 C5246 1.362 . S
H5248 C5254 0.930 . S
H5249 C5257 0.930 . S
H5250 C5258 0.930 . S
H5251 C5259 0.930 . S
H5252 C5262 0.930 . S
H5253 C5263 0.930 . S
C5254 H5248 0.930 . S
C5254 C5255 1.355 . S
C5254 C5256 1.415 . S
C5255 C5254 1.355 . S
C5255 C5257 1.419 . S
C5256 C5254 1.415 . S
C5256 C5261 1.425 . S
C5256 C5263 1.409 . S
C5257 H5249 0.930 . S
C5257 C5255 1.419 . S
C5257 C5258 1.362 . S
C5258 H5250 0.930 . S
C5258 C5257 1.362 . S
C5258 C5261 1.409 . S
C5259 H5251 0.930 . S
C5259 C5260 1.355 . S
C5259 C5261 1.415 . S
C5260 C5259 1.355 . S
C5260 C5262 1.419 . S
C5261 C5256 1.425 . S
C5261 C5258 1.409 . S
C5261 C5259 1.415 . S
C5262 H5252 0.930 . S
C5262 C5260 1.419 . S
C5262 C5263 1.362 . S
C5263 H5253 0.930 . S
C5263 C5256 1.409 . S
C5263 C5262 1.362 . S
H5264 C5270 0.930 . S
H5265 C5273 0.930 . S
H5266 C5274 0.930 . S
H5267 C5275 0.930 . S
H5268 C5278 0.930 . S
H5269 C5279 0.930 . S
C5270 H5264 0.930 . S
C5270 C5271 1.355 . S
C5270 C5272 1.415 . S
C5271 C5270 1.355 . S
C5271 C5273 1.419 . S
C5272 C5270 1.415 . S
C5272 C5277 1.425 . S
C5272 C5279 1.409 . S
C5273 H5265 0.930 . S
C5273 C5271 1.419 . S
C5273 C5274 1.362 . S
C5274 H5266 0.930 . S
C5274 C5273 1.362 . S
C5274 C5277 1.409 . S
C5275 H5267 0.930 . S
C5275 C5276 1.355 . S
C5275 C5277 1.415 . S
C5276 C5275 1.355 . S
C5276 C5278 1.419 . S
C5277 C5272 1.425 . S
C5277 C5274 1.409 . S
C5277 C5275 1.415 . S
C5278 H5268 0.930 . S
C5278 C5276 1.419 . S
C5278 C5279 1.362 . S
C5279 H5269 0.930 . S
C5279 C5272 1.409 . S
C5279 C5278 1.362 . S
H5280 C5286 0.930 . S
H5281 C5289 0.930 . S
H5282 C5290 0.930 . S
H5283 C5291 0.930 . S
H5284 C5294 0.930 . S
H5285 C5295 0.930 . S
C5286 H5280 0.930 . S
C5286 C5287 1.355 . S
C5286 C5288 1.415 . S
C5287 C5286 1.355 . S
C5287 C5289 1.419 . S
C5288 C5286 1.415 . S
C5288 C5293 1.425 . S
C5288 C5295 1.409 . S
C5289 H5281 0.930 . S
C5289 C5287 1.419 . S
C5289 C5290 1.362 . S
C5290 H5282 0.930 . S
C5290 C5289 1.362 . S
C5290 C5293 1.409 . S
C5291 H5283 0.930 . S
C5291 C5292 1.355 . S
C5291 C5293 1.415 . S
C5292 C5291 1.355 . S
C5292 C5294 1.419 . S
C5293 C5288 1.425 . S
C5293 C5290 1.409 . S
C5293 C5291 1.415 . S
C5294 H5284 0.930 . S
C5294 C5292 1.419 . S
C5294 C5295 1.362 . S
C5295 H5285 0.930 . S
C5295 C5288 1.409 . S
C5295 C5294 1.362 . S
H5296 C5302 0.930 . S
H5297 C5305 0.930 . S
H5298 C5306 0.930 . S
H5299 C5307 0.930 . S
H5300 C5310 0.930 . S
H5301 C5311 0.930 . S
C5302 H5296 0.930 . S
C5302 C5303 1.355 . S
C5302 C5304 1.415 . S
C5303 C5302 1.355 . S
C5303 C5305 1.419 . S
C5304 C5302 1.415 . S
C5304 C5309 1.425 . S
C5304 C5311 1.409 . S
C5305 H5297 0.930 . S
C5305 C5303 1.419 . S
C5305 C5306 1.362 . S
C5306 H5298 0.930 . S
C5306 C5305 1.362 . S
C5306 C5309 1.409 . S
C5307 H5299 0.930 . S
C5307 C5308 1.355 . S
C5307 C5309 1.415 . S
C5308 C5307 1.355 . S
C5308 C5310 1.419 . S
C5309 C5304 1.425 . S
C5309 C5306 1.409 . S
C5309 C5307 1.415 . S
C5310 H5300 0.930 . S
C5310 C5308 1.419 . S
C5310 C5311 1.362 . S
C5311 H5301 0.930 . S
C5311 C5304 1.409 . S
C5311 C5310 1.362 . S
H5312 C5318 0.930 . S
H5313 C5321 0.930 . S
H5314 C5322 0.930 . S
H5315 C5323 0.930 . S
H5316 C5326 0.930 . S
H5317 C5327 0.930 . S
C5318 H5312 0.930 . S
C5318 C5319 1.355 . S
C5318 C5320 1.415 . S
C5319 C5318 1.355 . S
C5319 C5321 1.419 . S
C5320 C5318 1.415 . S
C5320 C5325 1.425 . S
C5320 C5327 1.409 . S
C5321 H5313 0.930 . S
C5321 C5319 1.419 . S
C5321 C5322 1.362 . S
C5322 H5314 0.930 . S
C5322 C5321 1.362 . S
C5322 C5325 1.409 . S
C5323 H5315 0.930 . S
C5323 C5324 1.355 . S
C5323 C5325 1.415 . S
C5324 C5323 1.355 . S
C5324 C5326 1.419 . S
C5325 C5320 1.425 . S
C5325 C5322 1.409 . S
C5325 C5323 1.415 . S
C5326 H5316 0.930 . S
C5326 C5324 1.419 . S
C5326 C5327 1.362 . S
C5327 H5317 0.930 . S
C5327 C5320 1.409 . S
C5327 C5326 1.362 . S
H5328 C5334 0.930 . S
H5329 C5337 0.930 . S
H5330 C5338 0.930 . S
H5331 C5339 0.930 . S
H5332 C5342 0.930 . S
H5333 C5343 0.930 . S
C5334 H5328 0.930 . S
C5334 C5335 1.355 . S
C5334 C5336 1.415 . S
C5335 C5334 1.355 . S
C5335 C5337 1.419 . S
C5336 C5334 1.415 . S
C5336 C5341 1.425 . S
C5336 C5343 1.409 . S
C5337 H5329 0.930 . S
C5337 C5335 1.419 . S
C5337 C5338 1.362 . S
C5338 H5330 0.930 . S
C5338 C5337 1.362 . S
C5338 C5341 1.409 . S
C5339 H5331 0.930 . S
C5339 C5340 1.355 . S
C5339 C5341 1.415 . S
C5340 C5339 1.355 . S
C5340 C5342 1.419 . S
C5341 C5336 1.425 . S
C5341 C5338 1.409 . S
C5341 C5339 1.415 . S
C5342 H5332 0.930 . S
C5342 C5340 1.419 . S
C5342 C5343 1.362 . S
C5343 H5333 0.930 . S
C5343 C5336 1.409 . S
C5343 C5342 1.362 . S
H5344 C5350 0.930 . S
H5345 C5353 0.930 . S
H5346 C5354 0.930 . S
H5347 C5355 0.930 . S
H5348 C5358 0.930 . S
H5349 C5359 0.930 . S
C5350 H5344 0.930 . S
C5350 C5351 1.355 . S
C5350 C5352 1.415 . S
C5351 C5350 1.355 . S
C5351 C5353 1.419 . S
C5352 C5350 1.415 . S
C5352 C5357 1.425 . S
C5352 C5359 1.409 . S
C5353 H5345 0.930 . S
C5353 C5351 1.419 . S
C5353 C5354 1.362 . S
C5354 H5346 0.930 . S
C5354 C5353 1.362 . S
C5354 C5357 1.409 . S
C5355 H5347 0.930 . S
C5355 C5356 1.355 . S
C5355 C5357 1.415 . S
C5356 C5355 1.355 . S
C5356 C5358 1.419 . S
C5357 C5352 1.425 . S
C5357 C5354 1.409 . S
C5357 C5355 1.415 . S
C5358 H5348 0.930 . S
C5358 C5356 1.419 . S
C5358 C5359 1.362 . S
C5359 H5349 0.930 . S
C5359 C5352 1.409 . S
C5359 C5358 1.362 . S
H5360 C5366 0.930 . S
H5361 C5369 0.930 . S
H5362 C5370 0.930 . S
H5363 C5371 0.930 . S
H5364 C5374 0.930 . S
H5365 C5375 0.930 . S
C5366 H5360 0.930 . S
C5366 C5367 1.355 . S
C5366 C5368 1.415 . S
C5367 C5366 1.355 . S
C5367 C5369 1.419 . S
C5368 C5366 1.415 . S
C5368 C5373 1.425 . S
C5368 C5375 1.409 . S
C5369 H5361 0.930 . S
C5369 C5367 1.419 . S
C5369 C5370 1.362 . S
C5370 H5362 0.930 . S
C5370 C5369 1.362 . S
C5370 C5373 1.409 . S
C5371 H5363 0.930 . S
C5371 C5372 1.355 . S
C5371 C5373 1.415 . S
C5372 C5371 1.355 . S
C5372 C5374 1.419 . S
C5373 C5368 1.425 . S
C5373 C5370 1.409 . S
C5373 C5371 1.415 . S
C5374 H5364 0.930 . S
C5374 C5372 1.419 . S
C5374 C5375 1.362 . S
C5375 H5365 0.930 . S
C5375 C5368 1.409 . S
C5375 C5374 1.362 . S
H5376 C5382 0.930 . S
H5377 C5385 0.930 . S
H5378 C5386 0.930 . S
H5379 C5387 0.930 . S
H5380 C5390 0.930 . S
H5381 C5391 0.930 . S
C5382 H5376 0.930 . S
C5382 C5383 1.355 . S
C5382 C5384 1.415 . S
C5383 C5382 1.355 . S
C5383 C5385 1.419 . S
C5384 C5382 1.415 . S
C5384 C5389 1.425 . S
C5384 C5391 1.409 . S
C5385 H5377 0.930 . S
C5385 C5383 1.419 . S
C5385 C5386 1.362 . S
C5386 H5378 0.930 . S
C5386 C5385 1.362 . S
C5386 C5389 1.409 . S
C5387 H5379 0.930 . S
C5387 C5388 1.355 . S
C5387 C5389 1.415 . S
C5388 C5387 1.355 . S
C5388 C5390 1.419 . S
C5389 C5384 1.425 . S
C5389 C5386 1.409 . S
C5389 C5387 1.415 . S
C5390 H5380 0.930 . S
C5390 C5388 1.419 . S
C5390 C5391 1.362 . S
C5391 H5381 0.930 . S
C5391 C5384 1.409 . S
C5391 C5390 1.362 . S
H5392 C5398 0.930 . S
H5393 C5401 0.930 . S
H5394 C5402 0.930 . S
H5395 C5403 0.930 . S
H5396 C5406 0.930 . S
H5397 C5407 0.930 . S
C5398 H5392 0.930 . S
C5398 C5399 1.355 . S
C5398 C5400 1.415 . S
C5399 C5398 1.355 . S
C5399 C5401 1.419 . S
C5400 C5398 1.415 . S
C5400 C5405 1.425 . S
C5400 C5407 1.409 . S
C5401 H5393 0.930 . S
C5401 C5399 1.419 . S
C5401 C5402 1.362 . S
C5402 H5394 0.930 . S
C5402 C5401 1.362 . S
C5402 C5405 1.409 . S
C5403 H5395 0.930 . S
C5403 C5404 1.355 . S
C5403 C5405 1.415 . S
C5404 C5403 1.355 . S
C5404 C5406 1.419 . S
C5405 C5400 1.425 . S
C5405 C5402 1.409 . S
C5405 C5403 1.415 . S
C5406 H5396 0.930 . S
C5406 C5404 1.419 . S
C5406 C5407 1.362 . S
C5407 H5397 0.930 . S
C5407 C5400 1.409 . S
C5407 C5406 1.362 . S
H5408 C5414 0.930 . S
H5409 C5417 0.930 . S
H5410 C5418 0.930 . S
H5411 C5419 0.930 . S
H5412 C5422 0.930 . S
H5413 C5423 0.930 . S
C5414 H5408 0.930 . S
C5414 C5415 1.355 . S
C5414 C5416 1.415 . S
C5415 C5414 1.355 . S
C5415 C5417 1.419 . S
C5416 C5414 1.415 . S
C5416 C5421 1.425 . S
C5416 C5423 1.409 . S
C5417 H5409 0.930 . S
C5417 C5415 1.419 . S
C5417 C5418 1.362 . S
C5418 H5410 0.930 . S
C5418 C5417 1.362 . S
C5418 C5421 1.409 . S
C5419 H5411 0.930 . S
C5419 C5420 1.355 . S
C5419 C5421 1.415 . S
C5420 C5419 1.355 . S
C5420 C5422 1.419 . S
C5421 C5416 1.425 . S
C5421 C5418 1.409 . S
C5421 C5419 1.415 . S
C5422 H5412 0.930 . S
C5422 C5420 1.419 . S
C5422 C5423 1.362 . S
C5423 H5413 0.930 . S
C5423 C5416 1.409 . S
C5423 C5422 1.362 . S
H5424 C5430 0.930 . S
H5425 C5433 0.930 . S
H5426 C5434 0.930 . S
H5427 C5435 0.930 . S
H5428 C5438 0.930 . S
H5429 C5439 0.930 . S
C5430 H5424 0.930 . S
C5430 C5431 1.355 . S
C5430 C5432 1.415 . S
C5431 C5430 1.355 . S
C5431 C5433 1.419 . S
C5432 C5430 1.415 . S
C5432 C5437 1.425 . S
C5432 C5439 1.409 . S
C5433 H5425 0.930 . S
C5433 C5431 1.419 . S
C5433 C5434 1.362 . S
C5434 H5426 0.930 . S
C5434 C5433 1.362 . S
C5434 C5437 1.409 . S
C5435 H5427 0.930 . S
C5435 C5436 1.355 . S
C5435 C5437 1.415 . S
C5436 C5435 1.355 . S
C5436 C5438 1.419 . S
C5437 C5432 1.425 . S
C5437 C5434 1.409 . S
C5437 C5435 1.415 . S
C5438 H5428 0.930 . S
C5438 C5436 1.419 . S
C5438 C5439 1.362 . S
C5439 H5429 0.930 . S
C5439 C5432 1.409 . S
C5439 C5438 1.362 . S
H5440 C5446 0.930 . S
H5441 C5449 0.930 . S
H5442 C5450 0.930 . S
H5443 C5451 0.930 . S
H5444 C5454 0.930 . S
H5445 C5455 0.930 . S
C5446 H5440 0.930 . S
C5446 C5447 1.355 . S
C5446 C5448 1.415 . S
C5447 C5446 1.355 . S
C5447 C5449 1.419 . S
C5448 C5446 1.415 . S
C5448 C5453 1.425 . S
C5448 C5455 1.409 . S
C5449 H5441 0.930 . S
C5449 C5447 1.419 . S
C5449 C5450 1.362 . S
C5450 H5442 0.930 . S
C5450 C5449 1.362 . S
C5450 C5453 1.409 . S
C5451 H5443 0.930 . S
C5451 C5452 1.355 . S
C5451 C5453 1.415 . S
C5452 C5451 1.355 . S
C5452 C5454 1.419 . S
C5453 C5448 1.425 . S
C5453 C5450 1.409 . S
C5453 C5451 1.415 . S
C5454 H5444 0.930 . S
C5454 C5452 1.419 . S
C5454 C5455 1.362 . S
C5455 H5445 0.930 . S
C5455 C5448 1.409 . S
C5455 C5454 1.362 . S
H5456 C5462 0.930 . S
H5457 C5465 0.930 . S
H5458 C5466 0.930 . S
H5459 C5467 0.930 . S
H5460 C5470 0.930 . S
H5461 C5471 0.930 . S
C5462 H5456 0.930 . S
C5462 C5463 1.355 . S
C5462 C5464 1.415 . S
C5463 C5462 1.355 . S
C5463 C5465 1.419 . S
C5464 C5462 1.415 . S
C5464 C5469 1.425 . S
C5464 C5471 1.409 . S
C5465 H5457 0.930 . S
C5465 C5463 1.419 . S
C5465 C5466 1.362 . S
C5466 H5458 0.930 . S
C5466 C5465 1.362 . S
C5466 C5469 1.409 . S
C5467 H5459 0.930 . S
C5467 C5468 1.355 . S
C5467 C5469 1.415 . S
C5468 C5467 1.355 . S
C5468 C5470 1.419 . S
C5469 C5464 1.425 . S
C5469 C5466 1.409 . S
C5469 C5467 1.415 . S
C5470 H5460 0.930 . S
C5470 C5468 1.419 . S
C5470 C5471 1.362 . S
C5471 H5461 0.930 . S
C5471 C5464 1.409 . S
C5471 C5470 1.362 . S
H5472 C5478 0.930 . S
H5473 C5481 0.930 . S
H5474 C5482 0.930 . S
H5475 C5483 0.930 . S
H5476 C5486 0.930 . S
H5477 C5487 0.930 . S
C5478 H5472 0.930 . S
C5478 C5479 1.355 . S
C5478 C5480 1.415 . S
C5479 C5478 1.355 . S
C5479 C5481 1.419 . S
C5480 C5478 1.415 . S
C5480 C5485 1.425 . S
C5480 C5487 1.409 . S
C5481 H5473 0.930 . S
C5481 C5479 1.419 . S
C5481 C5482 1.362 . S
C5482 H5474 0.930 . S
C5482 C5481 1.362 . S
C5482 C5485 1.409 . S
C5483 H5475 0.930 . S
C5483 C5484 1.355 . S
C5483 C5485 1.415 . S
C5484 C5483 1.355 . S
C5484 C5486 1.419 . S
C5485 C5480 1.425 . S
C5485 C5482 1.409 . S
C5485 C5483 1.415 . S
C5486 H5476 0.930 . S
C5486 C5484 1.419 . S
C5486 C5487 1.362 . S
C5487 H5477 0.930 . S
C5487 C5480 1.409 . S
C5487 C5486 1.362 . S
H5488 C5494 0.930 . S
H5489 C5497 0.930 . S
H5490 C5498 0.930 . S
H5491 C5499 0.930 . S
H5492 C5502 0.930 . S
H5493 C5503 0.930 . S
C5494 H5488 0.930 . S
C5494 C5495 1.355 . S
C5494 C5496 1.415 . S
C5495 C5494 1.355 . S
C5495 C5497 1.419 . S
C5496 C5494 1.415 . S
C5496 C5501 1.425 . S
C5496 C5503 1.409 . S
C5497 H5489 0.930 . S
C5497 C5495 1.419 . S
C5497 C5498 1.362 . S
C5498 H5490 0.930 . S
C5498 C5497 1.362 . S
C5498 C5501 1.409 . S
C5499 H5491 0.930 . S
C5499 C5500 1.355 . S
C5499 C5501 1.415 . S
C5500 C5499 1.355 . S
C5500 C5502 1.419 . S
C5501 C5496 1.425 . S
C5501 C5498 1.409 . S
C5501 C5499 1.415 . S
C5502 H5492 0.930 . S
C5502 C5500 1.419 . S
C5502 C5503 1.362 . S
C5503 H5493 0.930 . S
C5503 C5496 1.409 . S
C5503 C5502 1.362 . S
H5504 C5510 0.930 . S
H5505 C5513 0.930 . S
H5506 C5514 0.930 . S
H5507 C5515 0.930 . S
H5508 C5518 0.930 . S
H5509 C5519 0.930 . S
C5510 H5504 0.930 . S
C5510 C5511 1.355 . S
C5510 C5512 1.415 . S
C5511 C5510 1.355 . S
C5511 C5513 1.419 . S
C5512 C5510 1.415 . S
C5512 C5517 1.425 . S
C5512 C5519 1.409 . S
C5513 H5505 0.930 . S
C5513 C5511 1.419 . S
C5513 C5514 1.362 . S
C5514 H5506 0.930 . S
C5514 C5513 1.362 . S
C5514 C5517 1.409 . S
C5515 H5507 0.930 . S
C5515 C5516 1.355 . S
C5515 C5517 1.415 . S
C5516 C5515 1.355 . S
C5516 C5518 1.419 . S
C5517 C5512 1.425 . S
C5517 C5514 1.409 . S
C5517 C5515 1.415 . S
C5518 H5508 0.930 . S
C5518 C5516 1.419 . S
C5518 C5519 1.362 . S
C5519 H5509 0.930 . S
C5519 C5512 1.409 . S
C5519 C5518 1.362 . S
H5520 C5526 0.930 . S
H5521 C5529 0.930 . S
H5522 C5530 0.930 . S
H5523 C5531 0.930 . S
H5524 C5534 0.930 . S
H5525 C5535 0.930 . S
C5526 H5520 0.930 . S
C5526 C5527 1.355 . S
C5526 C5528 1.415 . S
C5527 C5526 1.355 . S
C5527 C5529 1.419 . S
C5528 C5526 1.415 . S
C5528 C5533 1.425 . S
C5528 C5535 1.409 . S
C5529 H5521 0.930 . S
C5529 C5527 1.419 . S
C5529 C5530 1.362 . S
C5530 H5522 0.930 . S
C5530 C5529 1.362 . S
C5530 C5533 1.409 . S
C5531 H5523 0.930 . S
C5531 C5532 1.355 . S
C5531 C5533 1.415 . S
C5532 C5531 1.355 . S
C5532 C5534 1.419 . S
C5533 C5528 1.425 . S
C5533 C5530 1.409 . S
C5533 C5531 1.415 . S
C5534 H5524 0.930 . S
C5534 C5532 1.419 . S
C5534 C5535 1.362 . S
C5535 H5525 0.930 . S
C5535 C5528 1.409 . S
C5535 C5534 1.362 . S
H5536 C5542 0.930 . S
H5537 C5545 0.930 . S
H5538 C5546 0.930 . S
H5539 C5547 0.930 . S
H5540 C5550 0.930 . S
H5541 C5551 0.930 . S
C5542 H5536 0.930 . S
C5542 C5543 1.355 . S
C5542 C5544 1.415 . S
C5543 C5542 1.355 . S
C5543 C5545 1.419 . S
C5544 C5542 1.415 . S
C5544 C5549 1.425 . S
C5544 C5551 1.409 . S
C5545 H5537 0.930 . S
C5545 C5543 1.419 . S
C5545 C5546 1.362 . S
C5546 H5538 0.930 . S
C5546 C5545 1.362 . S
C5546 C5549 1.409 . S
C5547 H5539 0.930 . S
C5547 C5548 1.355 . S
C5547 C5549 1.415 . S
C5548 C5547 1.355 . S
C5548 C5550 1.419 . S
C5549 C5544 1.425 . S
C5549 C5546 1.409 . S
C5549 C5547 1.415 . S
C5550 H5540 0.930 . S
C5550 C5548 1.419 . S
C5550 C5551 1.362 . S
C5551 H5541 0.930 . S
C5551 C5544 1.409 . S
C5551 C5550 1.362 . S
H5552 C5558 0.930 . S
H5553 C5561 0.930 . S
H5554 C5562 0.930 . S
H5555 C5563 0.930 . S
H5556 C5566 0.930 . S
H5557 C5567 0.930 . S
C5558 H5552 0.930 . S
C5558 C5559 1.355 . S
C5558 C5560 1.415 . S
C5559 C5558 1.355 . S
C5559 C5561 1.419 . S
C5560 C5558 1.415 . S
C5560 C5565 1.425 . S
C5560 C5567 1.409 . S
C5561 H5553 0.930 . S
C5561 C5559 1.419 . S
C5561 C5562 1.362 . S
C5562 H5554 0.930 . S
C5562 C5561 1.362 . S
C5562 C5565 1.409 . S
C5563 H5555 0.930 . S
C5563 C5564 1.355 . S
C5563 C5565 1.415 . S
C5564 C5563 1.355 . S
C5564 C5566 1.419 . S
C5565 C5560 1.425 . S
C5565 C5562 1.409 . S
C5565 C5563 1.415 . S
C5566 H5556 0.930 . S
C5566 C5564 1.419 . S
C5566 C5567 1.362 . S
C5567 H5557 0.930 . S
C5567 C5560 1.409 . S
C5567 C5566 1.362 . S
H5568 C5574 0.930 . S
H5569 C5577 0.930 . S
H5570 C5578 0.930 . S
H5571 C5579 0.930 . S
H5572 C5582 0.930 . S
H5573 C5583 0.930 . S
C5574 H5568 0.930 . S
C5574 C5575 1.355 . S
C5574 C5576 1.415 . S
C5575 C5574 1.355 . S
C5575 C5577 1.419 . S
C5576 C5574 1.415 . S
C5576 C5581 1.425 . S
C5576 C5583 1.409 . S
C5577 H5569 0.930 . S
C5577 C5575 1.419 . S
C5577 C5578 1.362 . S
C5578 H5570 0.930 . S
C5578 C5577 1.362 . S
C5578 C5581 1.409 . S
C5579 H5571 0.930 . S
C5579 C5580 1.355 . S
C5579 C5581 1.415 . S
C5580 C5579 1.355 . S
C5580 C5582 1.419 . S
C5581 C5576 1.425 . S
C5581 C5578 1.409 . S
C5581 C5579 1.415 . S
C5582 H5572 0.930 . S
C5582 C5580 1.419 . S
C5582 C5583 1.362 . S
C5583 H5573 0.930 . S
C5583 C5576 1.409 . S
C5583 C5582 1.362 . S
H5584 C5590 0.930 . S
H5585 C5593 0.930 . S
H5586 C5594 0.930 . S
H5587 C5595 0.930 . S
H5588 C5598 0.930 . S
H5589 C5599 0.930 . S
C5590 H5584 0.930 . S
C5590 C5591 1.355 . S
C5590 C5592 1.415 . S
C5591 C5590 1.355 . S
C5591 C5593 1.419 . S
C5592 C5590 1.415 . S
C5592 C5597 1.425 . S
C5592 C5599 1.409 . S
C5593 H5585 0.930 . S
C5593 C5591 1.419 . S
C5593 C5594 1.362 . S
C5594 H5586 0.930 . S
C5594 C5593 1.362 . S
C5594 C5597 1.409 . S
C5595 H5587 0.930 . S
C5595 C5596 1.355 . S
C5595 C5597 1.415 . S
C5596 C5595 1.355 . S
C5596 C5598 1.419 . S
C5597 C5592 1.425 . S
C5597 C5594 1.409 . S
C5597 C5595 1.415 . S
C5598 H5588 0.930 . S
C5598 C5596 1.419 . S
C5598 C5599 1.362 . S
C5599 H5589 0.930 . S
C5599 C5592 1.409 . S
C5599 C5598 1.362 . S
H5600 C5606 0.930 . S
H5601 C5609 0.930 . S
H5602 C5610 0.930 . S
H5603 C5611 0.930 . S
H5604 C5614 0.930 . S
H5605 C5615 0.930 . S
C5606 H5600 0.930 . S
C5606 C5607 1.355 . S
C5606 C5608 1.415 . S
C5607 C5606 1.355 . S
C5607 C5609 1.419 . S
C5608 C5606 1.415 . S
C5608 C5613 1.425 . S
C5608 C5615 1.409 . S
C5609 H5601 0.930 . S
C5609 C5607 1.419 . S
C5609 C5610 1.362 . S
C5610 H5602 0.930 . S
C5610 C5609 1.362 . S
C5610 C5613 1.409 . S
C5611 H5603 0.930 . S
C5611 C5612 1.355 . S
C5611 C5613 1.415 . S
C5612 C5611 1.355 . S
C5612 C5614 1.419 . S
C5613 C5608 1.425 . S
C5613 C5610 1.409 . S
C5613 C5611 1.415 . S
C5614 H5604 0.930 . S
C5614 C5612 1.419 . S
C5614 C5615 1.362 . S
C5615 H5605 0.930 . S
C5615 C5608 1.409 . S
C5615 C5614 1.362 . S
H5616 C5622 0.930 . S
H5617 C5625 0.930 . S
H5618 C5626 0.930 . S
H5619 C5627 0.930 . S
H5620 C5630 0.930 . S
H5621 C5631 0.930 . S
C5622 H5616 0.930 . S
C5622 C5623 1.355 . S
C5622 C5624 1.415 . S
C5623 C5622 1.355 . S
C5623 C5625 1.419 . S
C5624 C5622 1.415 . S
C5624 C5629 1.425 . S
C5624 C5631 1.409 . S
C5625 H5617 0.930 . S
C5625 C5623 1.419 . S
C5625 C5626 1.362 . S
C5626 H5618 0.930 . S
C5626 C5625 1.362 . S
C5626 C5629 1.409 . S
C5627 H5619 0.930 . S
C5627 C5628 1.355 . S
C5627 C5629 1.415 . S
C5628 C5627 1.355 . S
C5628 C5630 1.419 . S
C5629 C5624 1.425 . S
C5629 C5626 1.409 . S
C5629 C5627 1.415 . S
C5630 H5620 0.930 . S
C5630 C5628 1.419 . S
C5630 C5631 1.362 . S
C5631 H5621 0.930 . S
C5631 C5624 1.409 . S
C5631 C5630 1.362 . S
H5632 C5638 0.930 . S
H5633 C5641 0.930 . S
H5634 C5642 0.930 . S
H5635 C5643 0.930 . S
H5636 C5646 0.930 . S
H5637 C5647 0.930 . S
C5638 H5632 0.930 . S
C5638 C5639 1.355 . S
C5638 C5640 1.415 . S
C5639 C5638 1.355 . S
C5639 C5641 1.419 . S
C5640 C5638 1.415 . S
C5640 C5645 1.425 . S
C5640 C5647 1.409 . S
C5641 H5633 0.930 . S
C5641 C5639 1.419 . S
C5641 C5642 1.362 . S
C5642 H5634 0.930 . S
C5642 C5641 1.362 . S
C5642 C5645 1.409 . S
C5643 H5635 0.930 . S
C5643 C5644 1.355 . S
C5643 C5645 1.415 . S
C5644 C5643 1.355 . S
C5644 C5646 1.419 . S
C5645 C5640 1.425 . S
C5645 C5642 1.409 . S
C5645 C5643 1.415 . S
C5646 H5636 0.930 . S
C5646 C5644 1.419 . S
C5646 C5647 1.362 . S
C5647 H5637 0.930 . S
C5647 C5640 1.409 . S
C5647 C5646 1.362 . S
H5648 C5654 0.930 . S
H5649 C5657 0.930 . S
H5650 C5658 0.930 . S
H5651 C5659 0.930 . S
H5652 C5662 0.930 . S
H5653 C5663 0.930 . S
C5654 H5648 0.930 . S
C5654 C5655 1.355 . S
C5654 C5656 1.415 . S
C5655 C5654 1.355 . S
C5655 C5657 1.419 . S
C5656 C5654 1.415 . S
C5656 C5661 1.425 . S
C5656 C5663 1.409 . S
C5657 H5649 0.930 . S
C5657 C5655 1.419 . S
C5657 C5658 1.362 . S
C5658 H5650 0.930 . S
C5658 C5657 1.362 . S
C5658 C5661 1.409 . S
C5659 H5651 0.930 . S
C5659 C5660 1.355 . S
C5659 C5661 1.415 . S
C5660 C5659 1.355 . S
C5660 C5662 1.419 . S
C5661 C5656 1.425 . S
C5661 C5658 1.409 . S
C5661 C5659 1.415 . S
C5662 H5652 0.930 . S
C5662 C5660 1.419 . S
C5662 C5663 1.362 . S
C5663 H5653 0.930 . S
C5663 C5656 1.409 . S
C5663 C5662 1.362 . S
H5664 C5670 0.930 . S
H5665 C5673 0.930 . S
H5666 C5674 0.930 . S
H5667 C5675 0.930 . S
H5668 C5678 0.930 . S
H5669 C5679 0.930 . S
C5670 H5664 0.930 . S
C5670 C5671 1.355 . S
C5670 C5672 1.415 . S
C5671 C5670 1.355 . S
C5671 C5673 1.419 . S
C5672 C5670 1.415 . S
C5672 C5677 1.425 . S
C5672 C5679 1.409 . S
C5673 H5665 0.930 . S
C5673 C5671 1.419 . S
C5673 C5674 1.362 . S
C5674 H5666 0.930 . S
C5674 C5673 1.362 . S
C5674 C5677 1.409 . S
C5675 H5667 0.930 . S
C5675 C5676 1.355 . S
C5675 C5677 1.415 . S
C5676 C5675 1.355 . S
C5676 C5678 1.419 . S
C5677 C5672 1.425 . S
C5677 C5674 1.409 . S
C5677 C5675 1.415 . S
C5678 H5668 0.930 . S
C5678 C5676 1.419 . S
C5678 C5679 1.362 . S
C5679 H5669 0.930 . S
C5679 C5672 1.409 . S
C5679 C5678 1.362 . S
H5680 C5686 0.930 . S
H5681 C5689 0.930 . S
H5682 C5690 0.930 . S
H5683 C5691 0.930 . S
H5684 C5694 0.930 . S
H5685 C5695 0.930 . S
C5686 H5680 0.930 . S
C5686 C5687 1.355 . S
C5686 C5688 1.415 . S
C5687 C5686 1.355 . S
C5687 C5689 1.419 . S
C5688 C5686 1.415 . S
C5688 C5693 1.425 . S
C5688 C5695 1.409 . S
C5689 H5681 0.930 . S
C5689 C5687 1.419 . S
C5689 C5690 1.362 . S
C5690 H5682 0.930 . S
C5690 C5689 1.362 . S
C5690 C5693 1.409 . S
C5691 H5683 0.930 . S
C5691 C5692 1.355 . S
C5691 C5693 1.415 . S
C5692 C5691 1.355 . S
C5692 C5694 1.419 . S
C5693 C5688 1.425 . S
C5693 C5690 1.409 . S
C5693 C5691 1.415 . S
C5694 H5684 0.930 . S
C5694 C5692 1.419 . S
C5694 C5695 1.362 . S
C5695 H5685 0.930 . S
C5695 C5688 1.409 . S
C5695 C5694 1.362 . S
H5696 C5702 0.930 . S
H5697 C5705 0.930 . S
H5698 C5706 0.930 . S
H5699 C5707 0.930 . S
H5700 C5710 0.930 . S
H5701 C5711 0.930 . S
C5702 H5696 0.930 . S
C5702 C5703 1.355 . S
C5702 C5704 1.415 . S
C5703 C5702 1.355 . S
C5703 C5705 1.419 . S
C5704 C5702 1.415 . S
C5704 C5709 1.425 . S
C5704 C5711 1.409 . S
C5705 H5697 0.930 . S
C5705 C5703 1.419 . S
C5705 C5706 1.362 . S
C5706 H5698 0.930 . S
C5706 C5705 1.362 . S
C5706 C5709 1.409 . S
C5707 H5699 0.930 . S
C5707 C5708 1.355 . S
C5707 C5709 1.415 . S
C5708 C5707 1.355 . S
C5708 C5710 1.419 . S
C5709 C5704 1.425 . S
C5709 C5706 1.409 . S
C5709 C5707 1.415 . S
C5710 H5700 0.930 . S
C5710 C5708 1.419 . S
C5710 C5711 1.362 . S
C5711 H5701 0.930 . S
C5711 C5704 1.409 . S
C5711 C5710 1.362 . S
H5712 C5718 0.930 . S
H5713 C5721 0.930 . S
H5714 C5722 0.930 . S
H5715 C5723 0.930 . S
H5716 C5726 0.930 . S
H5717 C5727 0.930 . S
C5718 H5712 0.930 . S
C5718 C5719 1.355 . S
C5718 C5720 1.415 . S
C5719 C5718 1.355 . S
C5719 C5721 1.419 . S
C5720 C5718 1.415 . S
C5720 C5725 1.425 . S
C5720 C5727 1.409 . S
C5721 H5713 0.930 . S
C5721 C5719 1.419 . S
C5721 C5722 1.362 . S
C5722 H5714 0.930 . S
C5722 C5721 1.362 . S
C5722 C5725 1.409 . S
C5723 H5715 0.930 . S
C5723 C5724 1.355 . S
C5723 C5725 1.415 . S
C5724 C5723 1.355 . S
C5724 C5726 1.419 . S
C5725 C5720 1.425 . S
C5725 C5722 1.409 . S
C5725 C5723 1.415 . S
C5726 H5716 0.930 . S
C5726 C5724 1.419 . S
C5726 C5727 1.362 . S
C5727 H5717 0.930 . S
C5727 C5720 1.409 . S
C5727 C5726 1.362 . S
H5728 C5734 0.930 . S
H5729 C5737 0.930 . S
H5730 C5738 0.930 . S
H5731 C5739 0.930 . S
H5732 C5742 0.930 . S
H5733 C5743 0.930 . S
C5734 H5728 0.930 . S
C5734 C5735 1.355 . S
C5734 C5736 1.415 . S
C5735 C5734 1.355 . S
C5735 C5737 1.419 . S
C5736 C5734 1.415 . S
C5736 C5741 1.425 . S
C5736 C5743 1.409 . S
C5737 H5729 0.930 . S
C5737 C5735 1.419 . S
C5737 C5738 1.362 . S
C5738 H5730 0.930 . S
C5738 C5737 1.362 . S
C5738 C5741 1.409 . S
C5739 H5731 0.930 . S
C5739 C5740 1.355 . S
C5739 C5741 1.415 . S
C5740 C5739 1.355 . S
C5740 C5742 1.419 . S
C5741 C5736 1.425 . S
C5741 C5738 1.409 . S
C5741 C5739 1.415 . S
C5742 H5732 0.930 . S
C5742 C5740 1.419 . S
C5742 C5743 1.362 . S
C5743 H5733 0.930 . S
C5743 C5736 1.409 . S
C5743 C5742 1.362 . S
H5744 C5750 0.930 . S
H5745 C5753 0.930 . S
H5746 C5754 0.930 . S
H5747 C5755 0.930 . S
H5748 C5758 0.930 . S
H5749 C5759 0.930 . S
C5750 H5744 0.930 . S
C5750 C5751 1.355 . S
C5750 C5752 1.415 . S
C5751 C5750 1.355 . S
C5751 C5753 1.419 . S
C5752 C5750 1.415 . S
C5752 C5757 1.425 . S
C5752 C5759 1.409 . S
C5753 H5745 0.930 . S
C5753 C5751 1.419 . S
C5753 C5754 1.362 . S
C5754 H5746 0.930 . S
C5754 C5753 1.362 . S
C5754 C5757 1.409 . S
C5755 H5747 0.930 . S
C5755 C5756 1.355 . S
C5755 C5757 1.415 . S
C5756 C5755 1.355 . S
C5756 C5758 1.419 . S
C5757 C5752 1.425 . S
C5757 C5754 1.409 . S
C5757 C5755 1.415 . S
C5758 H5748 0.930 . S
C5758 C5756 1.419 . S
C5758 C5759 1.362 . S
C5759 H5749 0.930 . S
C5759 C5752 1.409 . S
C5759 C5758 1.362 . S
H5760 C5766 0.930 . S
H5761 C5769 0.930 . S
H5762 C5770 0.930 . S
H5763 C5771 0.930 . S
H5764 C5774 0.930 . S
H5765 C5775 0.930 . S
C5766 H5760 0.930 . S
C5766 C5767 1.355 . S
C5766 C5768 1.415 . S
C5767 C5766 1.355 . S
C5767 C5769 1.419 . S
C5768 C5766 1.415 . S
C5768 C5773 1.425 . S
C5768 C5775 1.409 . S
C5769 H5761 0.930 . S
C5769 C5767 1.419 . S
C5769 C5770 1.362 . S
C5770 H5762 0.930 . S
C5770 C5769 1.362 . S
C5770 C5773 1.409 . S
C5771 H5763 0.930 . S
C5771 C5772 1.355 . S
C5771 C5773 1.415 . S
C5772 C5771 1.355 . S
C5772 C5774 1.419 . S
C5773 C5768 1.425 . S
C5773 C5770 1.409 . S
C5773 C5771 1.415 . S
C5774 H5764 0.930 . S
C5774 C5772 1.419 . S
C5774 C5775 1.362 . S
C5775 H5765 0.930 . S
C5775 C5768 1.409 . S
C5775 C5774 1.362 . S
H5776 C5782 0.930 . S
H5777 C5785 0.930 . S
H5778 C5786 0.930 . S
H5779 C5787 0.930 . S
H5780 C5790 0.930 . S
H5781 C5791 0.930 . S
C5782 H5776 0.930 . S
C5782 C5783 1.355 . S
C5782 C5784 1.415 . S
C5783 C5782 1.355 . S
C5783 C5785 1.419 . S
C5784 C5782 1.415 . S
C5784 C5789 1.425 . S
C5784 C5791 1.409 . S
C5785 H5777 0.930 . S
C5785 C5783 1.419 . S
C5785 C5786 1.362 . S
C5786 H5778 0.930 . S
C5786 C5785 1.362 . S
C5786 C5789 1.409 . S
C5787 H5779 0.930 . S
C5787 C5788 1.355 . S
C5787 C5789 1.415 . S
C5788 C5787 1.355 . S
C5788 C5790 1.419 . S
C5789 C5784 1.425 . S
C5789 C5786 1.409 . S
C5789 C5787 1.415 . S
C5790 H5780 0.930 . S
C5790 C5788 1.419 . S
C5790 C5791 1.362 . S
C5791 H5781 0.930 . S
C5791 C5784 1.409 . S
C5791 C5790 1.362 . S
H5792 C5798 0.930 . S
H5793 C5801 0.930 . S
H5794 C5802 0.930 . S
H5795 C5803 0.930 . S
H5796 C5806 0.930 . S
H5797 C5807 0.930 . S
C5798 H5792 0.930 . S
C5798 C5799 1.355 . S
C5798 C5800 1.415 . S
C5799 C5798 1.355 . S
C5799 C5801 1.419 . S
C5800 C5798 1.415 . S
C5800 C5805 1.425 . S
C5800 C5807 1.409 . S
C5801 H5793 0.930 . S
C5801 C5799 1.419 . S
C5801 C5802 1.362 . S
C5802 H5794 0.930 . S
C5802 C5801 1.362 . S
C5802 C5805 1.409 . S
C5803 H5795 0.930 . S
C5803 C5804 1.355 . S
C5803 C5805 1.415 . S
C5804 C5803 1.355 . S
C5804 C5806 1.419 . S
C5805 C5800 1.425 . S
C5805 C5802 1.409 . S
C5805 C5803 1.415 . S
C5806 H5796 0.930 . S
C5806 C5804 1.419 . S
C5806 C5807 1.362 . S
C5807 H5797 0.930 . S
C5807 C5800 1.409 . S
C5807 C5806 1.362 . S
H5808 C5814 0.930 . S
H5809 C5817 0.930 . S
H5810 C5818 0.930 . S
H5811 C5819 0.930 . S
H5812 C5822 0.930 . S
H5813 C5823 0.930 . S
C5814 H5808 0.930 . S
C5814 C5815 1.355 . S
C5814 C5816 1.415 . S
C5815 C5814 1.355 . S
C5815 C5817 1.419 . S
C5816 C5814 1.415 . S
C5816 C5821 1.425 . S
C5816 C5823 1.409 . S
C5817 H5809 0.930 . S
C5817 C5815 1.419 . S
C5817 C5818 1.362 . S
C5818 H5810 0.930 . S
C5818 C5817 1.362 . S
C5818 C5821 1.409 . S
C5819 H5811 0.930 . S
C5819 C5820 1.355 . S
C5819 C5821 1.415 . S
C5820 C5819 1.355 . S
C5820 C5822 1.419 . S
C5821 C5816 1.425 . S
C5821 C5818 1.409 . S
C5821 C5819 1.415 . S
C5822 H5812 0.930 . S
C5822 C5820 1.419 . S
C5822 C5823 1.362 . S
C5823 H5813 0.930 . S
C5823 C5816 1.409 . S
C5823 C5822 1.362 . S
H5824 C5830 0.930 . S
H5825 C5833 0.930 . S
H5826 C5834 0.930 . S
H5827 C5835 0.930 . S
H5828 C5838 0.930 . S
H5829 C5839 0.930 . S
C5830 H5824 0.930 . S
C5830 C5831 1.355 . S
C5830 C5832 1.415 . S
C5831 C5830 1.355 . S
C5831 C5833 1.419 . S
C5832 C5830 1.415 . S
C5832 C5837 1.425 . S
C5832 C5839 1.409 . S
C5833 H5825 0.930 . S
C5833 C5831 1.419 . S
C5833 C5834 1.362 . S
C5834 H5826 0.930 . S
C5834 C5833 1.362 . S
C5834 C5837 1.409 . S
C5835 H5827 0.930 . S
C5835 C5836 1.355 . S
C5835 C5837 1.415 . S
C5836 C5835 1.355 . S
C5836 C5838 1.419 . S
C5837 C5832 1.425 . S
C5837 C5834 1.409 . S
C5837 C5835 1.415 . S
C5838 H5828 0.930 . S
C5838 C5836 1.419 . S
C5838 C5839 1.362 . S
C5839 H5829 0.930 . S
C5839 C5832 1.409 . S
C5839 C5838 1.362 . S
H5840 C5846 0.930 . S
H5841 C5849 0.930 . S
H5842 C5850 0.930 . S
H5843 C5851 0.930 . S
H5844 C5854 0.930 . S
H5845 C5855 0.930 . S
C5846 H5840 0.930 . S
C5846 C5847 1.355 . S
C5846 C5848 1.415 . S
C5847 C5846 1.355 . S
C5847 C5849 1.419 . S
C5848 C5846 1.415 . S
C5848 C5853 1.425 . S
C5848 C5855 1.409 . S
C5849 H5841 0.930 . S
C5849 C5847 1.419 . S
C5849 C5850 1.362 . S
C5850 H5842 0.930 . S
C5850 C5849 1.362 . S
C5850 C5853 1.409 . S
C5851 H5843 0.930 . S
C5851 C5852 1.355 . S
C5851 C5853 1.415 . S
C5852 C5851 1.355 . S
C5852 C5854 1.419 . S
C5853 C5848 1.425 . S
C5853 C5850 1.409 . S
C5853 C5851 1.415 . S
C5854 H5844 0.930 . S
C5854 C5852 1.419 . S
C5854 C5855 1.362 . S
C5855 H5845 0.930 . S
C5855 C5848 1.409 . S
C5855 C5854 1.362 . S
H5856 C5862 0.930 . S
H5857 C5865 0.930 . S
H5858 C5866 0.930 . S
H5859 C5867 0.930 . S
H5860 C5870 0.930 . S
H5861 C5871 0.930 . S
C5862 H5856 0.930 . S
C5862 C5863 1.355 . S
C5862 C5864 1.415 . S
C5863 C5862 1.355 . S
C5863 C5865 1.419 . S
C5864 C5862 1.415 . S
C5864 C5869 1.425 . S
C5864 C5871 1.409 . S
C5865 H5857 0.930 . S
C5865 C5863 1.419 . S
C5865 C5866 1.362 . S
C5866 H5858 0.930 . S
C5866 C5865 1.362 . S
C5866 C5869 1.409 . S
C5867 H5859 0.930 . S
C5867 C5868 1.355 . S
C5867 C5869 1.415 . S
C5868 C5867 1.355 . S
C5868 C5870 1.419 . S
C5869 C5864 1.425 . S
C5869 C5866 1.409 . S
C5869 C5867 1.415 . S
C5870 H5860 0.930 . S
C5870 C5868 1.419 . S
C5870 C5871 1.362 . S
C5871 H5861 0.930 . S
C5871 C5864 1.409 . S
C5871 C5870 1.362 . S
H5872 C5878 0.930 . S
H5873 C5881 0.930 . S
H5874 C5882 0.930 . S
H5875 C5883 0.930 . S
H5876 C5886 0.930 . S
H5877 C5887 0.930 . S
C5878 H5872 0.930 . S
C5878 C5879 1.355 . S
C5878 C5880 1.415 . S
C5879 C5878 1.355 . S
C5879 C5881 1.419 . S
C5880 C5878 1.415 . S
C5880 C5885 1.425 . S
C5880 C5887 1.409 . S
C5881 H5873 0.930 . S
C5881 C5879 1.419 . S
C5881 C5882 1.362 . S
C5882 H5874 0.930 . S
C5882 C5881 1.362 . S
C5882 C5885 1.409 . S
C5883 H5875 0.930 . S
C5883 C5884 1.355 . S
C5883 C5885 1.415 . S
C5884 C5883 1.355 . S
C5884 C5886 1.419 . S
C5885 C5880 1.425 . S
C5885 C5882 1.409 . S
C5885 C5883 1.415 . S
C5886 H5876 0.930 . S
C5886 C5884 1.419 . S
C5886 C5887 1.362 . S
C5887 H5877 0.930 . S
C5887 C5880 1.409 . S
C5887 C5886 1.362 . S
H5888 C5894 0.930 . S
H5889 C5897 0.930 . S
H5890 C5898 0.930 . S
H5891 C5899 0.930 . S
H5892 C5902 0.930 . S
H5893 C5903 0.930 . S
C5894 H5888 0.930 . S
C5894 C5895 1.355 . S
C5894 C5896 1.415 . S
C5895 C5894 1.355 . S
C5895 C5897 1.419 . S
C5896 C5894 1.415 . S
C5896 C5901 1.425 . S
C5896 C5903 1.409 . S
C5897 H5889 0.930 . S
C5897 C5895 1.419 . S
C5897 C5898 1.362 . S
C5898 H5890 0.930 . S
C5898 C5897 1.362 . S
C5898 C5901 1.409 . S
C5899 H5891 0.930 . S
C5899 C5900 1.355 . S
C5899 C5901 1.415 . S
C5900 C5899 1.355 . S
C5900 C5902 1.419 . S
C5901 C5896 1.425 . S
C5901 C5898 1.409 . S
C5901 C5899 1.415 . S
C5902 H5892 0.930 . S
C5902 C5900 1.419 . S
C5902 C5903 1.362 . S
C5903 H5893 0.930 . S
C5903 C5896 1.409 . S
C5903 C5902 1.362 . S
H5904 C5910 0.930 . S
H5905 C5913 0.930 . S
H5906 C5914 0.930 . S
H5907 C5915 0.930 . S
H5908 C5918 0.930 . S
H5909 C5919 0.930 . S
C5910 H5904 0.930 . S
C5910 C5911 1.355 . S
C5910 C5912 1.415 . S
C5911 C5910 1.355 . S
C5911 C5913 1.419 . S
C5912 C5910 1.415 . S
C5912 C5917 1.425 . S
C5912 C5919 1.409 . S
C5913 H5905 0.930 . S
C5913 C5911 1.419 . S
C5913 C5914 1.362 . S
C5914 H5906 0.930 . S
C5914 C5913 1.362 . S
C5914 C5917 1.409 . S
C5915 H5907 0.930 . S
C5915 C5916 1.355 . S
C5915 C5917 1.415 . S
C5916 C5915 1.355 . S
C5916 C5918 1.419 . S
C5917 C5912 1.425 . S
C5917 C5914 1.409 . S
C5917 C5915 1.415 . S
C5918 H5908 0.930 . S
C5918 C5916 1.419 . S
C5918 C5919 1.362 . S
C5919 H5909 0.930 . S
C5919 C5912 1.409 . S
C5919 C5918 1.362 . S
H5920 C5926 0.930 . S
H5921 C5929 0.930 . S
H5922 C5930 0.930 . S
H5923 C5931 0.930 . S
H5924 C5934 0.930 . S
H5925 C5935 0.930 . S
C5926 H5920 0.930 . S
C5926 C5927 1.355 . S
C5926 C5928 1.415 . S
C5927 C5926 1.355 . S
C5927 C5929 1.419 . S
C5928 C5926 1.415 . S
C5928 C5933 1.425 . S
C5928 C5935 1.409 . S
C5929 H5921 0.930 . S
C5929 C5927 1.419 . S
C5929 C5930 1.362 . S
C5930 H5922 0.930 . S
C5930 C5929 1.362 . S
C5930 C5933 1.409 . S
C5931 H5923 0.930 . S
C5931 C5932 1.355 . S
C5931 C5933 1.415 . S
C5932 C5931 1.355 . S
C5932 C5934 1.419 . S
C5933 C5928 1.425 . S
C5933 C5930 1.409 . S
C5933 C5931 1.415 . S
C5934 H5924 0.930 . S
C5934 C5932 1.419 . S
C5934 C5935 1.362 . S
C5935 H5925 0.930 . S
C5935 C5928 1.409 . S
C5935 C5934 1.362 . S
H5936 C5942 0.930 . S
H5937 C5945 0.930 . S
H5938 C5946 0.930 . S
H5939 C5947 0.930 . S
H5940 C5950 0.930 . S
H5941 C5951 0.930 . S
C5942 H5936 0.930 . S
C5942 C5943 1.355 . S
C5942 C5944 1.415 . S
C5943 C5942 1.355 . S
C5943 C5945 1.419 . S
C5944 C5942 1.415 . S
C5944 C5949 1.425 . S
C5944 C5951 1.409 . S
C5945 H5937 0.930 . S
C5945 C5943 1.419 . S
C5945 C5946 1.362 . S
C5946 H5938 0.930 . S
C5946 C5945 1.362 . S
C5946 C5949 1.409 . S
C5947 H5939 0.930 . S
C5947 C5948 1.355 . S
C5947 C5949 1.415 . S
C5948 C5947 1.355 . S
C5948 C5950 1.419 . S
C5949 C5944 1.425 . S
C5949 C5946 1.409 . S
C5949 C5947 1.415 . S
C5950 H5940 0.930 . S
C5950 C5948 1.419 . S
C5950 C5951 1.362 . S
C5951 H5941 0.930 . S
C5951 C5944 1.409 . S
C5951 C5950 1.362 . S
H5952 C5958 0.930 . S
H5953 C5961 0.930 . S
H5954 C5962 0.930 . S
H5955 C5963 0.930 . S
H5956 C5966 0.930 . S
H5957 C5967 0.930 . S
C5958 H5952 0.930 . S
C5958 C5959 1.355 . S
C5958 C5960 1.415 . S
C5959 C5958 1.355 . S
C5959 C5961 1.419 . S
C5960 C5958 1.415 . S
C5960 C5965 1.425 . S
C5960 C5967 1.409 . S
C5961 H5953 0.930 . S
C5961 C5959 1.419 . S
C5961 C5962 1.362 . S
C5962 H5954 0.930 . S
C5962 C5961 1.362 . S
C5962 C5965 1.409 . S
C5963 H5955 0.930 . S
C5963 C5964 1.355 . S
C5963 C5965 1.415 . S
C5964 C5963 1.355 . S
C5964 C5966 1.419 . S
C5965 C5960 1.425 . S
C5965 C5962 1.409 . S
C5965 C5963 1.415 . S
C5966 H5956 0.930 . S
C5966 C5964 1.419 . S
C5966 C5967 1.362 . S
C5967 H5957 0.930 . S
C5967 C5960 1.409 . S
C5967 C5966 1.362 . S
H5968 C5974 0.930 . S
H5969 C5977 0.930 . S
H5970 C5978 0.930 . S
H5971 C5979 0.930 . S
H5972 C5982 0.930 . S
H5973 C5983 0.930 . S
C5974 H5968 0.930 . S
C5974 C5975 1.355 . S
C5974 C5976 1.415 . S
C5975 C5974 1.355 . S
C5975 C5977 1.419 . S
C5976 C5974 1.415 . S
C5976 C5981 1.425 . S
C5976 C5983 1.409 . S
C5977 H5969 0.930 . S
C5977 C5975 1.419 . S
C5977 C5978 1.362 . S
C5978 H5970 0.930 . S
C5978 C5977 1.362 . S
C5978 C5981 1.409 . S
C5979 H5971 0.930 . S
C5979 C5980 1.355 . S
C5979 C5981 1.415 . S
C5980 C5979 1.355 . S
C5980 C5982 1.419 . S
C5981 C5976 1.425 . S
C5981 C5978 1.409 . S
C5981 C5979 1.415 . S
C5982 H5972 0.930 . S
C5982 C5980 1.419 . S
C5982 C5983 1.362 . S
C5983 H5973 0.930 . S
C5983 C5976 1.409 . S
C5983 C5982 1.362 . S
H5984 C5990 0.930 . S
H5985 C5993 0.930 . S
H5986 C5994 0.930 . S
H5987 C5995 0.930 . S
H5988 C5998 0.930 . S
H5989 C5999 0.930 . S
C5990 H5984 0.930 . S
C5990 C5991 1.355 . S
C5990 C5992 1.415 . S
C5991 C5990 1.355 . S
C5991 C5993 1.419 . S
C5992 C5990 1.415 . S
C5992 C5997 1.425 . S
C5992 C5999 1.409 . S
C5993 H5985 0.930 . S
C5993 C5991 1.419 . S
C5993 C5994 1.362 . S
C5994 H5986 0.930 . S
C5994 C5993 1.362 . S
C5994 C5997 1.409 . S
C5995 H5987 0.930 . S
C5995 C5996 1.355 . S
C5995 C5997 1.415 . S
C5996 C5995 1.355 . S
C5996 C5998 1.419 . S
C5997 C5992 1.425 . S
C5997 C5994 1.409 . S
C5997 C5995 1.415 . S
C5998 H5988 0.930 . S
C5998 C5996 1.419 . S
C5998 C5999 1.362 . S
C5999 H5989 0.930 . S
C5999 C5992 1.409 . S
C5999 C5998 1.362 . S
H6000 C6006 0.930 . S
H6001 C6009 0.930 . S
H6002 C6010 0.930 . S
H6003 C6011 0.930 . S
H6004 C6014 0.930 . S
H6005 C6015 0.930 . S
C6006 H6000 0.930 . S
C6006 C6007 1.355 . S
C6006 C6008 1.415 . S
C6007 C6006 1.355 . S
C6007 C6009 1.419 . S
C6008 C6006 1.415 . S
C6008 C6013 1.425 . S
C6008 C6015 1.409 . S
C6009 H6001 0.930 . S
C6009 C6007 1.419 . S
C6009 C6010 1.362 . S
C6010 H6002 0.930 . S
C6010 C6009 1.362 . S
C6010 C6013 1.409 . S
C6011 H6003 0.930 . S
C6011 C6012 1.355 . S
C6011 C6013 1.415 . S
C6012 C6011 1.355 . S
C6012 C6014 1.419 . S
C6013 C6008 1.425 . S
C6013 C6010 1.409 . S
C6013 C6011 1.415 . S
C6014 H6004 0.930 . S
C6014 C6012 1.419 . S
C6014 C6015 1.362 . S
C6015 H6005 0.930 . S
C6015 C6008 1.409 . S
C6015 C6014 1.362 . S
H6016 C6022 0.930 . S
H6017 C6025 0.930 . S
H6018 C6026 0.930 . S
H6019 C6027 0.930 . S
H6020 C6030 0.930 . S
H6021 C6031 0.930 . S
C6022 H6016 0.930 . S
C6022 C6023 1.355 . S
C6022 C6024 1.415 . S
C6023 C6022 1.355 . S
C6023 C6025 1.419 . S
C6024 C6022 1.415 . S
C6024 C6029 1.425 . S
C6024 C6031 1.409 . S
C6025 H6017 0.930 . S
C6025 C6023 1.419 . S
C6025 C6026 1.362 . S
C6026 H6018 0.930 . S
C6026 C6025 1.362 . S
C6026 C6029 1.409 . S
C6027 H6019 0.930 . S
C6027 C6028 1.355 . S
C6027 C6029 1.415 . S
C6028 C6027 1.355 . S
C6028 C6030 1.419 . S
C6029 C6024 1.425 . S
C6029 C6026 1.409 . S
C6029 C6027 1.415 . S
C6030 H6020 0.930 . S
C6030 C6028 1.419 . S
C6030 C6031 1.362 . S
C6031 H6021 0.930 . S
C6031 C6024 1.409 . S
C6031 C6030 1.362 . S
H6032 C6038 0.930 . S
H6033 C6041 0.930 . S
H6034 C6042 0.930 . S
H6035 C6043 0.930 . S
H6036 C6046 0.930 . S
H6037 C6047 0.930 . S
C6038 H6032 0.930 . S
C6038 C6039 1.355 . S
C6038 C6040 1.415 . S
C6039 C6038 1.355 . S
C6039 C6041 1.419 . S
C6040 C6038 1.415 . S
C6040 C6045 1.425 . S
C6040 C6047 1.409 . S
C6041 H6033 0.930 . S
C6041 C6039 1.419 . S
C6041 C6042 1.362 . S
C6042 H6034 0.930 . S
C6042 C6041 1.362 . S
C6042 C6045 1.409 . S
C6043 H6035 0.930 . S
C6043 C6044 1.355 . S
C6043 C6045 1.415 . S
C6044 C6043 1.355 . S
C6044 C6046 1.419 . S
C6045 C6040 1.425 . S
C6045 C6042 1.409 . S
C6045 C6043 1.415 . S
C6046 H6036 0.930 . S
C6046 C6044 1.419 . S
C6046 C6047 1.362 . S
C6047 H6037 0.930 . S
C6047 C6040 1.409 . S
C6047 C6046 1.362 . S
H6048 C6054 0.930 . S
H6049 C6057 0.930 . S
H6050 C6058 0.930 . S
H6051 C6059 0.930 . S
H6052 C6062 0.930 . S
H6053 C6063 0.930 . S
C6054 H6048 0.930 . S
C6054 C6055 1.355 . S
C6054 C6056 1.415 . S
C6055 C6054 1.355 . S
C6055 C6057 1.419 . S
C6056 C6054 1.415 . S
C6056 C6061 1.425 . S
C6056 C6063 1.409 . S
C6057 H6049 0.930 . S
C6057 C6055 1.419 . S
C6057 C6058 1.362 . S
C6058 H6050 0.930 . S
C6058 C6057 1.362 . S
C6058 C6061 1.409 . S
C6059 H6051 0.930 . S
C6059 C6060 1.355 . S
C6059 C6061 1.415 . S
C6060 C6059 1.355 . S
C6060 C6062 1.419 . S
C6061 C6056 1.425 . S
C6061 C6058 1.409 . S
C6061 C6059 1.415 . S
C6062 H6052 0.930 . S
C6062 C6060 1.419 . S
C6062 C6063 1.362 . S
C6063 H6053 0.930 . S
C6063 C6056 1.409 . S
C6063 C6062 1.362 . S
H6064 C6070 0.930 . S
H6065 C6073 0.930 . S
H6066 C6074 0.930 . S
H6067 C6075 0.930 . S
H6068 C6078 0.930 . S
H6069 C6079 0.930 . S
C6070 H6064 0.930 . S
C6070 C6071 1.355 . S
C6070 C6072 1.415 . S
C6071 C6070 1.355 . S
C6071 C6073 1.419 . S
C6072 C6070 1.415 . S
C6072 C6077 1.425 . S
C6072 C6079 1.409 . S
C6073 H6065 0.930 . S
C6073 C6071 1.419 . S
C6073 C6074 1.362 . S
C6074 H6066 0.930 . S
C6074 C6073 1.362 . S
C6074 C6077 1.409 . S
C6075 H6067 0.930 . S
C6075 C6076 1.355 . S
C6075 C6077 1.415 . S
C6076 C6075 1.355 . S
C6076 C6078 1.419 . S
C6077 C6072 1.425 . S
C6077 C6074 1.409 . S
C6077 C6075 1.415 . S
C6078 H6068 0.930 . S
C6078 C6076 1.419 . S
C6078 C6079 1.362 . S
C6079 H6069 0.930 . S
C6079 C6072 1.409 . S
C6079 C6078 1.362 . S
H6080 C6086 0.930 . S
H6081 C6089 0.930 . S
H6082 C6090 0.930 . S
H6083 C6091 0.930 . S
H6084 C6094 0.930 . S
H6085 C6095 0.930 . S
C6086 H6080 0.930 . S
C6086 C6087 1.355 . S
C6086 C6088 1.415 . S
C6087 C6086 1.355 . S
C6087 C6089 1.419 . S
C6088 C6086 1.415 . S
C6088 C6093 1.425 . S
C6088 C6095 1.409 . S
C6089 H6081 0.930 . S
C6089 C6087 1.419 . S
C6089 C6090 1.362 . S
C6090 H6082 0.930 . S
C6090 C6089 1.362 . S
C6090 C6093 1.409 . S
C6091 H6083 0.930 . S
C6091 C6092 1.355 . S
C6091 C6093 1.415 . S
C6092 C6091 1.355 . S
C6092 C6094 1.419 . S
C6093 C6088 1.425 . S
C6093 C6090 1.409 . S
C6093 C6091 1.415 . S
C6094 H6084 0.930 . S
C6094 C6092 1.419 . S
C6094 C6095 1.362 . S
C6095 H6085 0.930 . S
C6095 C6088 1.409 . S
C6095 C6094 1.362 . S
H6096 C6102 0.930 . S
H6097 C6105 0.930 . S
H6098 C6106 0.930 . S
H6099 C6107 0.930 . S
H6100 C6110 0.930 . S
H6101 C6111 0.930 . S
C6102 H6096 0.930 . S
C6102 C6103 1.355 . S
C6102 C6104 1.415 . S
C6103 C6102 1.355 . S
C6103 C6105 1.419 . S
C6104 C6102 1.415 . S
C6104 C6109 1.425 . S
C6104 C6111 1.409 . S
C6105 H6097 0.930 . S
C6105 C6103 1.419 . S
C6105 C6106 1.362 . S
C6106 H6098 0.930 . S
C6106 C6105 1.362 . S
C6106 C6109 1.409 . S
C6107 H6099 0.930 . S
C6107 C6108 1.355 . S
C6107 C6109 1.415 . S
C6108 C6107 1.355 . S
C6108 C6110 1.419 . S
C6109 C6104 1.425 . S
C6109 C6106 1.409 . S
C6109 C6107 1.415 . S
C6110 H6100 0.930 . S
C6110 C6108 1.419 . S
C6110 C6111 1.362 . S
C6111 H6101 0.930 . S
C6111 C6104 1.409 . S
C6111 C6110 1.362 . S
H6112 C6118 0.930 . S
H6113 C6121 0.930 . S
H6114 C6122 0.930 . S
H6115 C6123 0.930 . S
H6116 C6126 0.930 . S
H6117 C6127 0.930 . S
C6118 H6112 0.930 . S
C6118 C6119 1.355 . S
C6118 C6120 1.415 . S
C6119 C6118 1.355 . S
C6119 C6121 1.419 . S
C6120 C6118 1.415 . S
C6120 C6125 1.425 . S
C6120 C6127 1.409 . S
C6121 H6113 0.930 . S
C6121 C6119 1.419 . S
C6121 C6122 1.362 . S
C6122 H6114 0.930 . S
C6122 C6121 1.362 . S
C6122 C6125 1.409 . S
C6123 H6115 0.930 . S
C6123 C6124 1.355 . S
C6123 C6125 1.415 . S
C6124 C6123 1.355 . S
C6124 C6126 1.419 . S
C6125 C6120 1.425 . S
C6125 C6122 1.409 . S
C6125 C6123 1.415 . S
C6126 H6116 0.930 . S
C6126 C6124 1.419 . S
C6126 C6127 1.362 . S
C6127 H6117 0.930 . S
C6127 C6120 1.409 . S
C6127 C6126 1.362 . S
H6128 C6134 0.930 . S
H6129 C6137 0.930 . S
H6130 C6138 0.930 . S
H6131 C6139 0.930 . S
H6132 C6142 0.930 . S
H6133 C6143 0.930 . S
C6134 H6128 0.930 . S
C6134 C6135 1.355 . S
C6134 C6136 1.415 . S
C6135 C6134 1.355 . S
C6135 C6137 1.419 . S
C6136 C6134 1.415 . S
C6136 C6141 1.425 . S
C6136 C6143 1.409 . S
C6137 H6129 0.930 . S
C6137 C6135 1.419 . S
C6137 C6138 1.362 . S
C6138 H6130 0.930 . S
C6138 C6137 1.362 . S
C6138 C6141 1.409 . S
C6139 H6131 0.930 . S
C6139 C6140 1.355 . S
C6139 C6141 1.415 . S
C6140 C6139 1.355 . S
C6140 C6142 1.419 . S
C6141 C6136 1.425 . S
C6141 C6138 1.409 . S
C6141 C6139 1.415 . S
C6142 H6132 0.930 . S
C6142 C6140 1.419 . S
C6142 C6143 1.362 . S
C6143 H6133 0.930 . S
C6143 C6136 1.409 . S
C6143 C6142 1.362 . S
H6144 C6150 0.930 . S
H6145 C6153 0.930 . S
H6146 C6154 0.930 . S
H6147 C6155 0.930 . S
H6148 C6158 0.930 . S
H6149 C6159 0.930 . S
C6150 H6144 0.930 . S
C6150 C6151 1.355 . S
C6150 C6152 1.415 . S
C6151 C6150 1.355 . S
C6151 C6153 1.419 . S
C6152 C6150 1.415 . S
C6152 C6157 1.425 . S
C6152 C6159 1.409 . S
C6153 H6145 0.930 . S
C6153 C6151 1.419 . S
C6153 C6154 1.362 . S
C6154 H6146 0.930 . S
C6154 C6153 1.362 . S
C6154 C6157 1.409 . S
C6155 H6147 0.930 . S
C6155 C6156 1.355 . S
C6155 C6157 1.415 . S
C6156 C6155 1.355 . S
C6156 C6158 1.419 . S
C6157 C6152 1.425 . S
C6157 C6154 1.409 . S
C6157 C6155 1.415 . S
C6158 H6148 0.930 . S
C6158 C6156 1.419 . S
C6158 C6159 1.362 . S
C6159 H6149 0.930 . S
C6159 C6152 1.409 . S
C6159 C6158 1.362 . S
H6160 C6166 0.930 . S
H6161 C6169 0.930 . S
H6162 C6170 0.930 . S
H6163 C6171 0.930 . S
H6164 C6174 0.930 . S
H6165 C6175 0.930 . S
C6166 H6160 0.930 . S
C6166 C6167 1.355 . S
C6166 C6168 1.415 . S
C6167 C6166 1.355 . S
C6167 C6169 1.419 . S
C6168 C6166 1.415 . S
C6168 C6173 1.425 . S
C6168 C6175 1.409 . S
C6169 H6161 0.930 . S
C6169 C6167 1.419 . S
C6169 C6170 1.362 . S
C6170 H6162 0.930 . S
C6170 C6169 1.362 . S
C6170 C6173 1.409 . S
C6171 H6163 0.930 . S
C6171 C6172 1.355 . S
C6171 C6173 1.415 . S
C6172 C6171 1.355 . S
C6172 C6174 1.419 . S
C6173 C6168 1.425 . S
C6173 C6170 1.409 . S
C6173 C6171 1.415 . S
C6174 H6164 0.930 . S
C6174 C6172 1.419 . S
C6174 C6175 1.362 . S
C6175 H6165 0.930 . S
C6175 C6168 1.409 . S
C6175 C6174 1.362 . S
H6176 C6182 0.930 . S
H6177 C6185 0.930 . S
H6178 C6186 0.930 . S
H6179 C6187 0.930 . S
H6180 C6190 0.930 . S
H6181 C6191 0.930 . S
C6182 H6176 0.930 . S
C6182 C6183 1.355 . S
C6182 C6184 1.415 . S
C6183 C6182 1.355 . S
C6183 C6185 1.419 . S
C6184 C6182 1.415 . S
C6184 C6189 1.425 . S
C6184 C6191 1.409 . S
C6185 H6177 0.930 . S
C6185 C6183 1.419 . S
C6185 C6186 1.362 . S
C6186 H6178 0.930 . S
C6186 C6185 1.362 . S
C6186 C6189 1.409 . S
C6187 H6179 0.930 . S
C6187 C6188 1.355 . S
C6187 C6189 1.415 . S
C6188 C6187 1.355 . S
C6188 C6190 1.419 . S
C6189 C6184 1.425 . S
C6189 C6186 1.409 . S
C6189 C6187 1.415 . S
C6190 H6180 0.930 . S
C6190 C6188 1.419 . S
C6190 C6191 1.362 . S
C6191 H6181 0.930 . S
C6191 C6184 1.409 . S
C6191 C6190 1.362 . S
H6192 C6198 0.930 . S
H6193 C6201 0.930 . S
H6194 C6202 0.930 . S
H6195 C6203 0.930 . S
H6196 C6206 0.930 . S
H6197 C6207 0.930 . S
C6198 H6192 0.930 . S
C6198 C6199 1.355 . S
C6198 C6200 1.415 . S
C6199 C6198 1.355 . S
C6199 C6201 1.419 . S
C6200 C6198 1.415 . S
C6200 C6205 1.425 . S
C6200 C6207 1.409 . S
C6201 H6193 0.930 . S
C6201 C6199 1.419 . S
C6201 C6202 1.362 . S
C6202 H6194 0.930 . S
C6202 C6201 1.362 . S
C6202 C6205 1.409 . S
C6203 H6195 0.930 . S
C6203 C6204 1.355 . S
C6203 C6205 1.415 . S
C6204 C6203 1.355 . S
C6204 C6206 1.419 . S
C6205 C6200 1.425 . S
C6205 C6202 1.409 . S
C6205 C6203 1.415 . S
C6206 H6196 0.930 . S
C6206 C6204 1.419 . S
C6206 C6207 1.362 . S
C6207 H6197 0.930 . S
C6207 C6200 1.409 . S
C6207 C6206 1.362 . S
H6208 C6214 0.930 . S
H6209 C6217 0.930 . S
H6210 C6218 0.930 . S
H6211 C6219 0.930 . S
H6212 C6222 0.930 . S
H6213 C6223 0.930 . S
C6214 H6208 0.930 . S
C6214 C6215 1.355 . S
C6214 C6216 1.415 . S
C6215 C6214 1.355 . S
C6215 C6217 1.419 . S
C6216 C6214 1.415 . S
C6216 C6221 1.425 . S
C6216 C6223 1.409 . S
C6217 H6209 0.930 . S
C6217 C6215 1.419 . S
C6217 C6218 1.362 . S
C6218 H6210 0.930 . S
C6218 C6217 1.362 . S
C6218 C6221 1.409 . S
C6219 H6211 0.930 . S
C6219 C6220 1.355 . S
C6219 C6221 1.415 . S
C6220 C6219 1.355 . S
C6220 C6222 1.419 . S
C6221 C6216 1.425 . S
C6221 C6218 1.409 . S
C6221 C6219 1.415 . S
C6222 H6212 0.930 . S
C6222 C6220 1.419 . S
C6222 C6223 1.362 . S
C6223 H6213 0.930 . S
C6223 C6216 1.409 . S
C6223 C6222 1.362 . S
H6224 C6230 0.930 . S
H6225 C6233 0.930 . S
H6226 C6234 0.930 . S
H6227 C6235 0.930 . S
H6228 C6238 0.930 . S
H6229 C6239 0.930 . S
C6230 H6224 0.930 . S
C6230 C6231 1.355 . S
C6230 C6232 1.415 . S
C6231 C6230 1.355 . S
C6231 C6233 1.419 . S
C6232 C6230 1.415 . S
C6232 C6237 1.425 . S
C6232 C6239 1.409 . S
C6233 H6225 0.930 . S
C6233 C6231 1.419 . S
C6233 C6234 1.362 . S
C6234 H6226 0.930 . S
C6234 C6233 1.362 . S
C6234 C6237 1.409 . S
C6235 H6227 0.930 . S
C6235 C6236 1.355 . S
C6235 C6237 1.415 . S
C6236 C6235 1.355 . S
C6236 C6238 1.419 . S
C6237 C6232 1.425 . S
C6237 C6234 1.409 . S
C6237 C6235 1.415 . S
C6238 H6228 0.930 . S
C6238 C6236 1.419 . S
C6238 C6239 1.362 . S
C6239 H6229 0.930 . S
C6239 C6232 1.409 . S
C6239 C6238 1.362 . S
H6240 C6246 0.930 . S
H6241 C6249 0.930 . S
H6242 C6250 0.930 . S
H6243 C6251 0.930 . S
H6244 C6254 0.930 . S
H6245 C6255 0.930 . S
C6246 H6240 0.930 . S
C6246 C6247 1.355 . S
C6246 C6248 1.415 . S
C6247 C6246 1.355 . S
C6247 C6249 1.419 . S
C6248 C6246 1.415 . S
C6248 C6253 1.425 . S
C6248 C6255 1.409 . S
C6249 H6241 0.930 . S
C6249 C6247 1.419 . S
C6249 C6250 1.362 . S
C6250 H6242 0.930 . S
C6250 C6249 1.362 . S
C6250 C6253 1.409 . S
C6251 H6243 0.930 . S
C6251 C6252 1.355 . S
C6251 C6253 1.415 . S
C6252 C6251 1.355 . S
C6252 C6254 1.419 . S
C6253 C6248 1.425 . S
C6253 C6250 1.409 . S
C6253 C6251 1.415 . S
C6254 H6244 0.930 . S
C6254 C6252 1.419 . S
C6254 C6255 1.362 . S
C6255 H6245 0.930 . S
C6255 C6248 1.409 . S
C6255 C6254 1.362 . S
H6256 C6262 0.930 . S
H6257 C6265 0.930 . S
H6258 C6266 0.930 . S
H6259 C6267 0.930 . S
H6260 C6270 0.930 . S
H6261 C6271 0.930 . S
C6262 H6256 0.930 . S
C6262 C6263 1.355 . S
C6262 C6264 1.415 . S
C6263 C6262 1.355 . S
C6263 C6265 1.419 . S
C6264 C6262 1.415 . S
C6264 C6269 1.425 . S
C6264 C6271 1.409 . S
C6265 H6257 0.930 . S
C6265 C6263 1.419 . S
C6265 C6266 1.362 . S
C6266 H6258 0.930 . S
C6266 C6265 1.362 . S
C6266 C6269 1.409 . S
C6267 H6259 0.930 . S
C6267 C6268 1.355 . S
C6267 C6269 1.415 . S
C6268 C6267 1.355 . S
C6268 C6270 1.419 . S
C6269 C6264 1.425 . S
C6269 C6266 1.409 . S
C6269 C6267 1.415 . S
C6270 H6260 0.930 . S
C6270 C6268 1.419 . S
C6270 C6271 1.362 . S
C6271 H6261 0.930 . S
C6271 C6264 1.409 . S
C6271 C6270 1.362 . S
H6272 C6278 0.930 . S
H6273 C6281 0.930 . S
H6274 C6282 0.930 . S
H6275 C6283 0.930 . S
H6276 C6286 0.930 . S
H6277 C6287 0.930 . S
C6278 H6272 0.930 . S
C6278 C6279 1.355 . S
C6278 C6280 1.415 . S
C6279 C6278 1.355 . S
C6279 C6281 1.419 . S
C6280 C6278 1.415 . S
C6280 C6285 1.425 . S
C6280 C6287 1.409 . S
C6281 H6273 0.930 . S
C6281 C6279 1.419 . S
C6281 C6282 1.362 . S
C6282 H6274 0.930 . S
C6282 C6281 1.362 . S
C6282 C6285 1.409 . S
C6283 H6275 0.930 . S
C6283 C6284 1.355 . S
C6283 C6285 1.415 . S
C6284 C6283 1.355 . S
C6284 C6286 1.419 . S
C6285 C6280 1.425 . S
C6285 C6282 1.409 . S
C6285 C6283 1.415 . S
C6286 H6276 0.930 . S
C6286 C6284 1.419 . S
C6286 C6287 1.362 . S
C6287 H6277 0.930 . S
C6287 C6280 1.409 . S
C6287 C6286 1.362 . S
H6288 C6294 0.930 . S
H6289 C6297 0.930 . S
H6290 C6298 0.930 . S
H6291 C6299 0.930 . S
H6292 C6302 0.930 . S
H6293 C6303 0.930 . S
C6294 H6288 0.930 . S
C6294 C6295 1.355 . S
C6294 C6296 1.415 . S
C6295 C6294 1.355 . S
C6295 C6297 1.419 . S
C6296 C6294 1.415 . S
C6296 C6301 1.425 . S
C6296 C6303 1.409 . S
C6297 H6289 0.930 . S
C6297 C6295 1.419 . S
C6297 C6298 1.362 . S
C6298 H6290 0.930 . S
C6298 C6297 1.362 . S
C6298 C6301 1.409 . S
C6299 H6291 0.930 . S
C6299 C6300 1.355 . S
C6299 C6301 1.415 . S
C6300 C6299 1.355 . S
C6300 C6302 1.419 . S
C6301 C6296 1.425 . S
C6301 C6298 1.409 . S
C6301 C6299 1.415 . S
C6302 H6292 0.930 . S
C6302 C6300 1.419 . S
C6302 C6303 1.362 . S
C6303 H6293 0.930 . S
C6303 C6296 1.409 . S
C6303 C6302 1.362 . S
H6304 C6310 0.930 . S
H6305 C6313 0.930 . S
H6306 C6314 0.930 . S
H6307 C6315 0.930 . S
H6308 C6318 0.930 . S
H6309 C6319 0.930 . S
C6310 H6304 0.930 . S
C6310 C6311 1.355 . S
C6310 C6312 1.415 . S
C6311 C6310 1.355 . S
C6311 C6313 1.419 . S
C6312 C6310 1.415 . S
C6312 C6317 1.425 . S
C6312 C6319 1.409 . S
C6313 H6305 0.930 . S
C6313 C6311 1.419 . S
C6313 C6314 1.362 . S
C6314 H6306 0.930 . S
C6314 C6313 1.362 . S
C6314 C6317 1.409 . S
C6315 H6307 0.930 . S
C6315 C6316 1.355 . S
C6315 C6317 1.415 . S
C6316 C6315 1.355 . S
C6316 C6318 1.419 . S
C6317 C6312 1.425 . S
C6317 C6314 1.409 . S
C6317 C6315 1.415 . S
C6318 H6308 0.930 . S
C6318 C6316 1.419 . S
C6318 C6319 1.362 . S
C6319 H6309 0.930 . S
C6319 C6312 1.409 . S
C6319 C6318 1.362 . S
H6320 C6326 0.930 . S
H6321 C6329 0.930 . S
H6322 C6330 0.930 . S
H6323 C6331 0.930 . S
H6324 C6334 0.930 . S
H6325 C6335 0.930 . S
C6326 H6320 0.930 . S
C6326 C6327 1.355 . S
C6326 C6328 1.415 . S
C6327 C6326 1.355 . S
C6327 C6329 1.419 . S
C6328 C6326 1.415 . S
C6328 C6333 1.425 . S
C6328 C6335 1.409 . S
C6329 H6321 0.930 . S
C6329 C6327 1.419 . S
C6329 C6330 1.362 . S
C6330 H6322 0.930 . S
C6330 C6329 1.362 . S
C6330 C6333 1.409 . S
C6331 H6323 0.930 . S
C6331 C6332 1.355 . S
C6331 C6333 1.415 . S
C6332 C6331 1.355 . S
C6332 C6334 1.419 . S
C6333 C6328 1.425 . S
C6333 C6330 1.409 . S
C6333 C6331 1.415 . S
C6334 H6324 0.930 . S
C6334 C6332 1.419 . S
C6334 C6335 1.362 . S
C6335 H6325 0.930 . S
C6335 C6328 1.409 . S
C6335 C6334 1.362 . S
C4039 C67 3.179 . S
C4044 C403 3.189 1_655 S
C4055 C151 3.154 . S
C4060 C487 3.170 . S
C4071 C571 3.235 . S
C4076 C242 3.345 . S
C4087 C655 3.270 . S
C4092 C319 3.252 . S
C4103 C746 3.383 1_545 S
C4108 C830 3.386 . S
C4119 C823 3.261 . S
C4124 C914 3.362 . S
C4135 C991 3.262 1_545 S
C4140 C907 3.234 . S
C4151 C998 3.351 . S
C4156 C739 3.242 . S
C4167 C1082 3.352 . S
C4172 C326 3.354 . S
C4183 C662 3.288 1_556 S
C4188 C2846 3.288 1_554 S
C4199 C410 3.276 . S
C4204 C1166 3.275 . S
C4215 C494 3.323 . S
C4220 C2930 3.325 . S
C4231 C158 3.304 . S
C4236 C1250 3.307 . S
C4247 C2671 3.198 . S
C4252 C74 3.313 . S
C4263 C2594 3.274 . S
C4268 C235 3.153 . S
C4279 C1652 3.175 . S
C4284 C1316 3.197 1_455 S
C4295 C1400 3.163 . S
C4300 C1736 3.191 . S
C4311 C1491 3.323 . S
C4316 C1820 3.201 . S
C4327 C1568 3.271 . S
C4332 C1904 3.262 . S
C4343 C2079 3.397 1_565 S
C4348 C1995 3.402 . S
C4359 C2072 3.228 . S
C4364 C2163 3.328 . S
C4375 C2240 3.234 . S
C4380 C2156 3.234 . S
C4391 C1988 3.289 . S
C4396 C2247 3.396 . S
C4407 C1575 3.354 1_554 S
C4412 C2331 3.351 . S
C4423 C3591 3.276 1_556 S
C4428 C1911 3.278 . S
C4439 C2415 3.277 . S
C4444 C1659 3.276 . S
C4455 C1743 3.276 . S
C4460 C3675 3.278 . S
C4471 C2499 3.343 . S
C4476 C1407 3.343 . S
C4487 C1323 3.267 . S
C4492 C3416 3.154 . S
C4503 C1484 3.207 . S
C4508 C3339 3.303 . S
C4519 C2755 3.184 . S
C4524 C2587 3.180 . S
C4535 C2839 3.196 . S
C4540 C1075 3.211 . S
C4551 C2678 3.333 . S
C4556 C1159 3.240 1_455 S
C4567 C2923 3.263 . S
C4572 C1243 3.237 . S
C4583 C3014 3.363 . S
C4588 C3098 3.363 . S
C4599 C3091 3.205 . S
C4604 C3182 3.327 . S
C4615 C3259 3.234 . S
C4620 C3175 3.228 . S
C4631 C3007 3.285 . S
C4636 C3266 3.397 . S
C4647 C578 3.298 . S
C4652 C2762 3.301 . S
C4663 C3500 3.226 . S
C4668 C3332 3.233 . S
C4679 C3584 3.169 . S
C4684 C2324 3.154 . S
C4695 C2408 3.243 1_655 S
C4700 C3423 3.337 . S
C4711 C3668 3.222 . S
C4716 C2492 3.217 . S
C4727 C3759 3.361 . S
C4732 C3843 3.358 . S
C4743 C3836 3.222 . S
C4748 C3927 3.325 . S
C4759 C3920 3.264 . S
C4764 C4004 3.236 . S
C4775 C4011 3.387 . S
C4780 C3752 3.288 . S
C4791 C3507 3.310 . S
C4796 C1827 3.307 . S
C4807 C56 0.922 . S
C4812 C1402 0.814 . S
C4823 C3429 0.882 . S
C4828 C140 0.968 . S
C4839 C231 0.887 . S
C4844 C1570 0.924 . S
C4855 C308 0.943 . S
C4860 C3334 0.905 . S
C4871 C392 0.907 . S
C4876 C1906 0.760 . S
C4887 C476 0.886 . S
C4892 C3502 0.830 . S
C4903 C560 0.923 . S
C4908 C1738 0.881 . S
C4919 C2410 0.924 . S
C4924 C644 0.978 . S
C4935 C735 0.845 . S
C4940 C3345 0.974 . S
C4951 C812 0.990 . S
C4956 C1413 0.987 . S
C4967 C896 0.949 . S
C4972 C3418 0.927 . S
C4983 C1581 0.950 . S
C4988 C987 0.877 . S
C4999 C3513 0.858 . S
C5004 C980 0.929 . S
C5015 C1749 0.907 . S
C5020 C728 0.941 . S
C5031 C819 0.905 . S
C5036 C2421 0.924 . S
C5047 C1917 0.854 . S
C5052 C903 0.913 . S
C5063 C3754 0.716 . S
C5068 C1071 0.854 . S
C5079 C2253 0.864 . S
C5084 C651 0.963 . S
C5095 C399 0.964 . S
C5100 C3765 0.954 . S
C5111 C483 0.887 . S
C5116 C2074 0.713 . S
C5127 C1155 0.963 . S
C5132 C2158 0.897 . S
C5143 C3933 0.849 . S
C5148 C1239 0.949 . S
C5159 C63 0.937 . S
C5164 C4006 0.884 . S
C5175 C224 0.965 . S
C5180 C3849 1.009 . S
C5191 C153 0.879 . S
C5196 C1327 0.899 . S
C5207 C1411 0.902 . S
C5212 C2662 0.977 . S
C5223 C1502 0.922 . S
C5228 C321 0.746 . S
C5239 C1579 0.848 . S
C5244 C2589 0.690 . S
C5255 C657 0.833 . S
C5260 C1663 0.939 . S
C5271 C2757 0.927 . S
C5276 C1747 0.943 . S
C5287 C489 0.943 . S
C5292 C1831 0.976 . S
C5303 C1915 0.978 . S
C5308 C1161 0.938 . S
C5319 C2006 0.973 . S
C5324 C2578 0.885 . S
C5335 C142 0.892 . S
C5340 C2083 0.964 . S
C5351 C2167 0.942 . S
C5356 C2673 0.874 . S
C5367 C310 0.862 . S
C5372 C2258 0.870 . S
C5383 C2746 0.867 . S
C5388 C2251 0.951 . S
C5399 C1999 0.961 . S
C5404 C478 1.012 . S
C5415 C2090 0.930 . S
C5420 C1150 1.000 . S
C5431 C646 0.967 . S
C5436 C2174 0.848 . S
C5447 C2342 0.866 . S
C5452 C3009 0.709 . S
C5463 C982 0.902 . S
C5468 C1922 0.946 . S
C5479 C2998 0.943 . S
C5484 C1670 0.974 . S
C5495 C1754 0.953 . S
C5500 C825 0.945 . S
C5511 C2426 0.912 . S
C5516 C909 0.937 . S
C5527 C3166 0.934 . S
C5532 C2510 0.930 . S
C5543 C1334 0.820 . S
C5548 C3261 0.877 . S
C5559 C3082 0.901 . S
C5564 C1495 0.934 . S
C5575 C2326 0.763 . S
C5580 C2576 0.900 . S
C5591 C1064 0.951 . S
C5596 C1497 0.986 . S
C5607 C2494 0.793 . S
C5612 C2667 0.942 . S
C5623 C1232 0.838 . S
C5628 C1318 0.688 . S
C5639 C2744 0.891 . S
C5644 C3670 0.730 . S
C5655 C1654 0.936 . S
C5660 C2828 0.956 . S
C5671 C1148 0.931 . S
C5676 C3586 0.897 . S
C5687 C1822 0.738 . S
C5692 C2912 0.907 . S
C5703 C3003 0.973 . S
C5708 C1329 0.886 . S
C5719 C3080 0.946 . S
C5724 C2337 0.892 . S
C5735 C3164 0.898 . S
C5740 C1486 0.880 . S
C5751 C2505 0.873 . S
C5756 C3255 0.958 . S
C5767 C1665 0.962 . S
C5772 C3248 0.953 . S
C5783 C2996 0.967 . S
C5788 C3597 1.012 . S
C5799 C1833 0.983 . S
C5804 C3087 0.859 . S
C5815 C3171 0.815 . S
C5820 C3681 0.951 . S
C5831 C147 0.977 . S
C5836 C1990 0.889 . S
C5847 C4017 0.961 . S
C5852 C2919 0.825 . S
C5863 C2751 0.851 . S
C5868 C2001 0.988 . S
C5879 C2835 0.979 . S
C5884 C3838 0.914 . S
C5895 C3922 0.701 . S
C5900 C567 0.862 . S
C5911 C2169 0.970 . S
C5916 C315 0.854 . S
C5927 C2583 0.889 . S
C5932 C2242 0.924 . S
C5943 C2085 0.972 . S
C5948 C2660 1.006 . S
C5959 C1077 0.911 . S
C5964 C3343 0.921 . S
C5975 C2335 0.946 . S
C5980 C226 0.870 . S
C5991 C1245 0.720 . S
C5996 C3434 0.808 . S
C6007 C2503 0.938 . S
C6012 C69 0.880 . S
C6023 C3511 0.962 . S
C6028 C2925 0.914 . S
C6039 C405 0.840 . S
C6044 C3595 0.891 . S
C6055 C2841 0.812 . S
C6060 C2419 0.892 . S
C6071 C573 0.925 . S
C6076 C3679 0.979 . S
C6087 C58 0.974 . S
C6092 C3770 0.854 . S
C6103 C3847 0.942 . S
C6108 C1066 0.893 . S
C6119 C237 0.713 . S
C6124 C3931 0.842 . S
C6135 C1234 0.842 . S
C6140 C4022 0.909 . S
C6151 C394 0.948 . S
C6156 C4015 0.965 . S
C6167 C2830 1.012 . S
C6172 C3763 0.951 . S
C6183 C3854 0.905 . S
C6188 C562 1.008 . S
C6199 C2914 0.877 . S
C6204 C3938 0.871 . S
C6215 C741 0.931 . S
C6220 C1418 0.960 . S
C6231 C3686 0.919 . S
C6236 C3250 0.843 . S
C6247 C3518 0.847 . S
C6252 C730 0.968 . S
C6263 C3093 0.861 . S
C6268 C3602 0.849 . S
C6279 C1838 0.819 . S
C6284 C3177 0.821 . S
C6295 C1586 0.853 . S
C6300 C898 0.970 . S
C6311 C993 0.725 . S
C6316 C3350 0.900 . S
C6327 C814 1.004 . S
C6332 C3427 0.979 . S
