# Generated by pormake.
# Topology zfx, (5)-cn, num edge types: 1
# Building blocks:
#     Node 0, Type 0, BuildingBlock: XOMCOT_clean_sbu_1, # of connection points: 5
#     Node 1, Type 0, BuildingBlock: XOMCOT_clean_sbu_1, # of connection points: 5
#     Node 2, Type 0, BuildingBlock: XOMCOT_clean_sbu_1, # of connection points: 5
#     Node 3, Type 0, BuildingBlock: XOMCOT_clean_sbu_1, # of connection points: 5
#     Node 4, Type 0, BuildingBlock: XOMCOT_clean_sbu_1, # of connection points: 5
#     Node 5, Type 0, BuildingBlock: XOMCOT_clean_sbu_1, # of connection points: 5
#     Node 6, Type 0, BuildingBlock: XOMCOT_clean_sbu_1, # of connection points: 5
#     Node 7, Type 0, BuildingBlock: XOMCOT_clean_sbu_1, # of connection points: 5
#     Node 8, Type 0, BuildingBlock: XOMCOT_clean_sbu_1, # of connection points: 5
#     Node 9, Type 0, BuildingBlock: XOMCOT_clean_sbu_1, # of connection points: 5
#     Node 10, Type 0, BuildingBlock: XOMCOT_clean_sbu_1, # of connection points: 5
#     Node 11, Type 0, BuildingBlock: XOMCOT_clean_sbu_1, # of connection points: 5
#     Node 12, Type 0, BuildingBlock: XOMCOT_clean_sbu_1, # of connection points: 5
#     Node 13, Type 0, BuildingBlock: XOMCOT_clean_sbu_1, # of connection points: 5
#     Node 14, Type 0, BuildingBlock: XOMCOT_clean_sbu_1, # of connection points: 5
#     Node 15, Type 0, BuildingBlock: XOMCOT_clean_sbu_1, # of connection points: 5
#     Edge 16, Type (0, 0), BuildingBlock: XIVTED_clean_linker_0, # of connection points: 2
#     Edge 17, Type (0, 0), BuildingBlock: XIVTED_clean_linker_0, # of connection points: 2
#     Edge 18, Type (0, 0), BuildingBlock: XIVTED_clean_linker_0, # of connection points: 2
#     Edge 19, Type (0, 0), BuildingBlock: XIVTED_clean_linker_0, # of connection points: 2
#     Edge 20, Type (0, 0), BuildingBlock: XIVTED_clean_linker_0, # of connection points: 2
#     Edge 21, Type (0, 0), BuildingBlock: XIVTED_clean_linker_0, # of connection points: 2
#     Edge 22, Type (0, 0), BuildingBlock: XIVTED_clean_linker_0, # of connection points: 2
#     Edge 23, Type (0, 0), BuildingBlock: XIVTED_clean_linker_0, # of connection points: 2
#     Edge 24, Type (0, 0), BuildingBlock: XIVTED_clean_linker_0, # of connection points: 2
#     Edge 25, Type (0, 0), BuildingBlock: XIVTED_clean_linker_0, # of connection points: 2
#     Edge 26, Type (0, 0), BuildingBlock: XIVTED_clean_linker_0, # of connection points: 2
#     Edge 27, Type (0, 0), BuildingBlock: XIVTED_clean_linker_0, # of connection points: 2
#     Edge 28, Type (0, 0), BuildingBlock: XIVTED_clean_linker_0, # of connection points: 2
#     Edge 29, Type (0, 0), BuildingBlock: XIVTED_clean_linker_0, # of connection points: 2
#     Edge 30, Type (0, 0), BuildingBlock: XIVTED_clean_linker_0, # of connection points: 2
#     Edge 31, Type (0, 0), BuildingBlock: XIVTED_clean_linker_0, # of connection points: 2
#     Edge 32, Type (0, 0), BuildingBlock: XIVTED_clean_linker_0, # of connection points: 2
#     Edge 33, Type (0, 0), BuildingBlock: XIVTED_clean_linker_0, # of connection points: 2
#     Edge 34, Type (0, 0), BuildingBlock: XIVTED_clean_linker_0, # of connection points: 2
#     Edge 35, Type (0, 0), BuildingBlock: XIVTED_clean_linker_0, # of connection points: 2
#     Edge 36, Type (0, 0), BuildingBlock: XIVTED_clean_linker_0, # of connection points: 2
#     Edge 37, Type (0, 0), BuildingBlock: XIVTED_clean_linker_0, # of connection points: 2
#     Edge 38, Type (0, 0), BuildingBlock: XIVTED_clean_linker_0, # of connection points: 2
#     Edge 39, Type (0, 0), BuildingBlock: XIVTED_clean_linker_0, # of connection points: 2
#     Edge 40, Type (0, 0), BuildingBlock: XIVTED_clean_linker_0, # of connection points: 2
#     Edge 41, Type (0, 0), BuildingBlock: XIVTED_clean_linker_0, # of connection points: 2
#     Edge 42, Type (0, 0), BuildingBlock: XIVTED_clean_linker_0, # of connection points: 2
#     Edge 43, Type (0, 0), BuildingBlock: XIVTED_clean_linker_0, # of connection points: 2
#     Edge 44, Type (0, 0), BuildingBlock: XIVTED_clean_linker_0, # of connection points: 2
#     Edge 45, Type (0, 0), BuildingBlock: XIVTED_clean_linker_0, # of connection points: 2
#     Edge 46, Type (0, 0), BuildingBlock: XIVTED_clean_linker_0, # of connection points: 2
#     Edge 47, Type (0, 0), BuildingBlock: XIVTED_clean_linker_0, # of connection points: 2
#     Edge 48, Type (0, 0), BuildingBlock: XIVTED_clean_linker_0, # of connection points: 2
#     Edge 49, Type (0, 0), BuildingBlock: XIVTED_clean_linker_0, # of connection points: 2
#     Edge 50, Type (0, 0), BuildingBlock: XIVTED_clean_linker_0, # of connection points: 2
#     Edge 51, Type (0, 0), BuildingBlock: XIVTED_clean_linker_0, # of connection points: 2
#     Edge 52, Type (0, 0), BuildingBlock: XIVTED_clean_linker_0, # of connection points: 2
#     Edge 53, Type (0, 0), BuildingBlock: XIVTED_clean_linker_0, # of connection points: 2
#     Edge 54, Type (0, 0), BuildingBlock: XIVTED_clean_linker_0, # of connection points: 2
#     Edge 55, Type (0, 0), BuildingBlock: XIVTED_clean_linker_0, # of connection points: 2
# Relax obj value: 0.341
# Max RMSD: 0.202
# Mean RMSD: 0.202
data_MOF--net-zfx--node1-XOMCOT_clean_sbu_1--edge1-XIVTED_clean_linker_0
_symmetry_space_group_name_H-M    P1
_symmetry_Int_Tables_number       1
_symmetry_cell_setting            triclinic
loop_
_symmetry_equiv_pos_as_xyz
'x, y, z'
_cell_length_a     63.740493
_cell_length_b     63.86473
_cell_length_c     24.017399
_cell_angle_alpha  89.993194
_cell_angle_beta   90.078247
_cell_angle_gamma 89.986207
loop_
_atom_site_label
_atom_site_type_symbol
_atom_site_fract_x
_atom_site_fract_y
_atom_site_fract_z
_atom_type_partial_charge
C0 C 0.55786 0.15458 0.37928 0.0
C1 C 0.57359 0.15647 0.41853 0.0
N2 N 0.56459 0.15696 0.46927 0.0
N3 N 0.53918 0.15414 0.4055 0.0
C4 C 0.54379 0.15592 0.45995 0.0
H5 H 0.55996 0.15229 0.33502 0.0
Co6 Co 0.51361 0.14628 0.37669 0.0
C7 C 0.48106 0.16149 0.45855 0.0
O8 O 0.46868 0.14594 0.44436 0.0
N9 N 0.48766 0.13765 0.34649 0.0
C10 C 0.46101 0.11824 0.31576 0.0
C11 C 0.47968 0.11801 0.34397 0.0
C12 C 0.4733 0.14951 0.3196 0.0
N13 N 0.45707 0.13805 0.30019 0.0
O14 O 0.5146 0.17029 0.32643 0.0
H15 H 0.48687 0.10404 0.36036 0.0
H16 H 0.47514 0.16611 0.31222 0.0
O17 O 0.49906 0.16335 0.43516 0.0
C18 C 0.51896 0.16553 0.27596 0.0
O19 O 0.52046 0.14562 0.26277 0.0
N20 N 0.51488 0.12191 0.42095 0.0
C21 C 0.518 0.08141 0.46439 0.0
C22 C 0.50861 0.09759 0.49532 0.0
C23 C 0.50741 0.11784 0.47313 0.0
C24 C 0.5256 0.10685 0.39253 0.0
C25 C 0.52711 0.08648 0.413 0.0
H26 H 0.50052 0.12994 0.49825 0.0
H27 H 0.53199 0.11048 0.35196 0.0
H28 H 0.53208 0.15535 0.49243 0.0
H29 H 0.59029 0.15617 0.41056 0.0
H30 H 0.4514 0.10475 0.30602 0.0
H31 H 0.50213 0.09462 0.53622 0.0
H32 H 0.53453 0.07466 0.38742 0.0
C33 C 0.10475 0.29465 0.61713 0.0
C34 C 0.10267 0.3103 0.65627 0.0
N35 N 0.10274 0.30137 0.70714 0.0
N36 N 0.1059 0.27607 0.6435 0.0
C37 C 0.1043 0.28062 0.69797 0.0
H38 H 0.10685 0.29681 0.57282 0.0
Co39 Co 0.11483 0.25098 0.61452 0.0
C40 C 0.09549 0.21689 0.68692 0.0
O41 O 0.1087 0.2029 0.66773 0.0
N42 N 0.12478 0.22578 0.58355 0.0
C43 C 0.14618 0.20078 0.55256 0.0
C44 C 0.14497 0.21923 0.58146 0.0
C45 C 0.1141 0.21111 0.55456 0.0
N46 N 0.12674 0.19568 0.53587 0.0
O47 O 0.09181 0.25205 0.56097 0.0
H48 H 0.15834 0.22744 0.59823 0.0
H49 H 0.09745 0.212 0.54606 0.0
O50 O 0.09669 0.23594 0.67005 0.0
C51 C 0.09715 0.25697 0.5113 0.0
O52 O 0.11723 0.2588 0.5 0.0
N53 N 0.13811 0.25191 0.66274 0.0
C54 C 0.17778 0.2543 0.71184 0.0
C55 C 0.16212 0.24136 0.73452 0.0
C56 C 0.14228 0.24043 0.70945 0.0
C57 C 0.15267 0.26549 0.64234 0.0
C58 C 0.17259 0.26688 0.66599 0.0
H59 H 0.13075 0.23008 0.72692 0.0
H60 H 0.14912 0.27447 0.60531 0.0
H61 H 0.1056 0.26894 0.73037 0.0
H62 H 0.10258 0.32696 0.64803 0.0
H63 H 0.16034 0.19212 0.54321 0.0
H64 H 0.16527 0.23172 0.77067 0.0
H65 H 0.1841 0.27695 0.6465 0.0
C66 C 0.96728 0.87466 0.87458 0.0
C67 C 0.9496 0.87192 0.90632 0.0
N68 N 0.95404 0.85751 0.94534 0.0
N69 N 0.98276 0.8623 0.89438 0.0
C70 C 0.97417 0.85185 0.93734 0.0
H71 H 0.96912 0.88575 0.84091 0.0
Co72 Co 0.00975 0.86446 0.86887 0.0
C73 C 0.03801 0.84671 0.95764 0.0
O74 O 0.05079 0.86241 0.9489 0.0
N75 N 0.03737 0.86783 0.83949 0.0
C76 C 0.06712 0.8828 0.81003 0.0
C77 C 0.05152 0.88334 0.84925 0.0
C78 C 0.04527 0.85794 0.79447 0.0
N79 N 0.06283 0.86704 0.77507 0.0
O80 O 0.0046 0.84024 0.82089 0.0
H81 H 0.05041 0.89507 0.88148 0.0
H82 H 0.03797 0.84481 0.774 0.0
O83 O 0.02066 0.84567 0.93039 0.0
C84 C 0.99729 0.84549 0.77315 0.0
O85 O 0.99522 0.86555 0.7622 0.0
N86 N 0.01251 0.88904 0.91079 0.0
C87 C 0.01392 0.92926 0.95609 0.0
C88 C 0.01458 0.91151 0.99078 0.0
C89 C 0.01355 0.89141 0.96724 0.0
C90 C 0.01039 0.90608 0.87713 0.0
C91 C 0.01137 0.92626 0.89868 0.0
H92 H 0.01332 0.87793 0.99435 0.0
H93 H 0.0083 0.90388 0.8328 0.0
H94 H 0.98274 0.84133 0.96439 0.0
H95 H 0.93488 0.88025 0.90233 0.0
H96 H 0.0797 0.89404 0.80519 0.0
H97 H 0.016 0.91312 0.0355 0.0
H98 H 0.00992 0.93942 0.8705 0.0
C99 C 0.39596 0.70379 0.15042 0.0
C100 C 0.39788 0.68859 0.19087 0.0
N101 N 0.41187 0.69537 0.22886 0.0
N102 N 0.40861 0.72001 0.16336 0.0
C103 C 0.41872 0.714 0.20992 0.0
H104 H 0.38447 0.70401 0.11726 0.0
Co105 Co 0.40637 0.74682 0.13427 0.0
C106 C 0.4185 0.76869 0.2442 0.0
O107 O 0.39912 0.7737 0.25647 0.0
N108 N 0.40403 0.77367 0.10371 0.0
C109 C 0.39719 0.80729 0.08781 0.0
C110 C 0.4003 0.79235 0.12815 0.0
C111 C 0.40309 0.77771 0.04872 0.0
N112 N 0.39882 0.79798 0.03774 0.0
O113 O 0.4323 0.74222 0.0925 0.0
H114 H 0.39898 0.79507 0.17216 0.0
H115 H 0.4051 0.76588 0.01722 0.0
O116 O 0.42276 0.75897 0.19866 0.0
C117 C 0.42863 0.73245 0.04692 0.0
O118 O 0.40919 0.72693 0.03599 0.0
N119 N 0.37948 0.7497 0.16912 0.0
C120 C 0.33734 0.749 0.20345 0.0
C121 C 0.35339 0.74198 0.23892 0.0
C122 C 0.37428 0.74214 0.22068 0.0
C123 C 0.36384 0.75573 0.13358 0.0
C124 C 0.34288 0.75593 0.15015 0.0
H125 H 0.3862 0.73604 0.24819 0.0
H126 H 0.36736 0.75966 0.09091 0.0
H127 H 0.42934 0.72396 0.23293 0.0
H128 H 0.38811 0.67483 0.19519 0.0
H129 H 0.39347 0.82359 0.09506 0.0
H130 H 0.34987 0.73623 0.28028 0.0
H131 H 0.33101 0.76062 0.12035 0.0
C132 C 0.55026 0.87475 0.65765 0.0
C133 C 0.56915 0.87102 0.63169 0.0
N134 N 0.56658 0.85457 0.59737 0.0
N135 N 0.53589 0.86103 0.6384 0.0
C136 C 0.5464 0.8487 0.60264 0.0
H137 H 0.5468 0.88756 0.68564 0.0
Co138 Co 0.50737 0.86251 0.65023 0.0
C139 C 0.48876 0.84879 0.54117 0.0
O140 O 0.47827 0.86643 0.53868 0.0
N141 N 0.47785 0.86422 0.66283 0.0
C142 C 0.44435 0.87459 0.6669 0.0
C143 C 0.46388 0.87905 0.64624 0.0
C144 C 0.46595 0.85061 0.69214 0.0
N145 N 0.44575 0.85666 0.69558 0.0
O146 O 0.50977 0.8374 0.69599 0.0
H147 H 0.46728 0.89246 0.62049 0.0
H148 H 0.47196 0.83685 0.71288 0.0
O149 O 0.50123 0.84529 0.58224 0.0
C150 C 0.51224 0.84191 0.74757 0.0
O151 O 0.51022 0.86157 0.76276 0.0
N152 N 0.50733 0.88824 0.61212 0.0
C153 C 0.51082 0.92946 0.57437 0.0
C154 C 0.51548 0.91257 0.53891 0.0
C155 C 0.51402 0.89199 0.55899 0.0
C156 C 0.50446 0.90451 0.64806 0.0
C157 C 0.50558 0.92516 0.62982 0.0
H158 H 0.51864 0.87918 0.53232 0.0
H159 H 0.50101 0.90133 0.69134 0.0
H160 H 0.53908 0.83677 0.57723 0.0
H161 H 0.58328 0.88032 0.63529 0.0
H162 H 0.43033 0.88402 0.66236 0.0
H163 H 0.52023 0.91523 0.49622 0.0
H164 H 0.50278 0.93768 0.65931 0.0
C165 C 0.38507 0.2954 0.8786 0.0
C166 C 0.38837 0.31322 0.84751 0.0
N167 N 0.40528 0.30992 0.81526 0.0
N168 N 0.39952 0.2809 0.86449 0.0
C169 C 0.41189 0.29037 0.82681 0.0
H170 H 0.37212 0.29261 0.90668 0.0
Co171 Co 0.39916 0.25312 0.88598 0.0
C172 C 0.41257 0.23575 0.77193 0.0
O173 O 0.39348 0.23009 0.75836 0.0
N174 N 0.39876 0.22521 0.90956 0.0
C175 C 0.39515 0.19069 0.91774 0.0
C176 C 0.39615 0.20716 0.88099 0.0
C177 C 0.39913 0.21926 0.96335 0.0
N178 N 0.39694 0.19841 0.96965 0.0
O179 O 0.42478 0.25798 0.92872 0.0
H180 H 0.39435 0.20582 0.83663 0.0
H181 H 0.4009 0.23006 0.99749 0.0
O182 O 0.41627 0.24439 0.81931 0.0
C183 C 0.42084 0.26614 0.97629 0.0
O184 O 0.40118 0.26994 0.98922 0.0
N185 N 0.3727 0.24969 0.84982 0.0
C186 C 0.3308 0.24961 0.81406 0.0
C187 C 0.34648 0.25916 0.78191 0.0
C188 C 0.36726 0.25927 0.80084 0.0
C189 C 0.3574 0.24097 0.88218 0.0
C190 C 0.33656 0.24035 0.86463 0.0
H191 H 0.37895 0.26738 0.77643 0.0
H192 H 0.36104 0.2352 0.92332 0.0
H193 H 0.42447 0.28258 0.8048 0.0
H194 H 0.37855 0.32705 0.8465 0.0
H195 H 0.39295 0.17439 0.90697 0.0
H196 H 0.34269 0.26675 0.74283 0.0
H197 H 0.32488 0.23355 0.8919 0.0
C198 C 0.96636 0.13212 0.1341 0.0
C199 C 0.94793 0.13366 0.10443 0.0
N200 N 0.94963 0.1502 0.07013 0.0
N201 N 0.97967 0.14723 0.11689 0.0
C202 C 0.96889 0.1582 0.0786 0.0
H203 H 0.97028 0.12006 0.16395 0.0
Co204 Co 0.00743 0.14959 0.13671 0.0
C205 C 0.03046 0.15979 0.0325 0.0
O206 O 0.0437 0.14499 0.04711 0.0
N207 N 0.03552 0.15219 0.15896 0.0
C208 C 0.06628 0.16681 0.179 0.0
C209 C 0.04801 0.16889 0.14929 0.0
C210 C 0.04632 0.1406 0.19625 0.0
N211 N 0.06508 0.14904 0.20888 0.0
O212 O 1.00122 0.17608 0.17297 0.0
H213 H 0.04355 0.18249 0.12517 0.0
H214 H 0.03998 0.12729 0.21793 0.0
O215 O 0.0146 0.16382 0.0639 0.0
C216 C 0.99972 0.17373 0.22575 0.0
O217 O 1.00355 0.15512 0.24677 0.0
N218 N 0.01195 0.12246 0.10659 0.0
C219 C 0.01356 0.08024 0.07513 0.0
C220 C 0.01027 0.096 0.03532 0.0
C221 C 0.00885 0.11694 0.05213 0.0
C222 C 0.01361 0.10716 0.14596 0.0
C223 C 0.015 0.08608 0.13121 0.0
H224 H 0.00446 0.12851 0.02151 0.0
H225 H 0.01255 0.11116 0.18947 0.0
H226 H 0.97547 0.17093 0.05451 0.0
H227 H 0.93474 0.12301 0.10601 0.0
H228 H 0.07848 0.17851 0.18282 0.0
H229 H 0.00791 0.09212 0.99186 0.0
H230 H 0.0168 0.07447 0.16371 0.0
C231 C 0.10757 0.70366 0.38593 0.0
C232 C 0.10561 0.68653 0.35142 0.0
N233 N 0.1074 0.69326 0.29853 0.0
N234 N 0.11018 0.72096 0.35448 0.0
C235 C 0.10989 0.71414 0.30159 0.0
H236 H 0.10782 0.70342 0.43094 0.0
Co237 Co 0.11691 0.74738 0.3784 0.0
C238 C 0.10193 0.7778 0.28998 0.0
O239 O 0.1166 0.79099 0.30556 0.0
N240 N 0.12448 0.77413 0.40455 0.0
C241 C 0.14273 0.8021 0.4315 0.0
C242 C 0.14386 0.7828 0.4069 0.0
C243 C 0.11189 0.78864 0.42807 0.0
N244 N 0.12262 0.80571 0.44506 0.0
O245 O 0.09185 0.74699 0.42557 0.0
H246 H 0.15824 0.7757 0.39284 0.0
H247 H 0.09528 0.78637 0.43478 0.0
O248 O 0.10042 0.75995 0.31452 0.0
C249 C 0.09526 0.74383 0.47748 0.0
O250 O 0.1148 0.74368 0.49508 0.0
N251 N 0.14214 0.74564 0.33737 0.0
C252 C 0.18346 0.7428 0.29888 0.0
C253 C 0.16757 0.75143 0.26527 0.0
C254 C 0.14692 0.75249 0.285 0.0
C255 C 0.15701 0.73581 0.36875 0.0
C256 C 0.17776 0.73441 0.35068 0.0
H257 H 0.13509 0.75884 0.25793 0.0
H258 H 0.15288 0.73 0.40961 0.0
H259 H 0.11187 0.7243 0.26592 0.0
H260 H 0.10372 0.67038 0.36417 0.0
H261 H 0.15583 0.81236 0.44035 0.0
H262 H 0.17108 0.7574 0.22412 0.0
H263 H 0.18935 0.72762 0.37829 0.0
C264 C 0.90145 0.79653 0.38525 0.0
C265 C 0.90019 0.81274 0.34737 0.0
N266 N 0.90329 0.80468 0.29624 0.0
N267 N 0.90561 0.7786 0.35773 0.0
C268 C 0.90683 0.78413 0.30389 0.0
H269 H 0.89884 0.79758 0.42965 0.0
Co270 Co 0.90575 0.75192 0.38627 0.0
C271 C 0.91769 0.72403 0.29098 0.0
O272 O 0.90277 0.71131 0.30778 0.0
N273 N 0.90587 0.72506 0.4169 0.0
C274 C 0.91736 0.69445 0.44839 0.0
C275 C 0.92189 0.71123 0.41493 0.0
C276 C 0.89221 0.71668 0.45358 0.0
N277 N 0.89874 0.698 0.47288 0.0
O278 O 0.9319 0.75809 0.42535 0.0
H279 H 0.93652 0.71378 0.39321 0.0
H280 H 0.8787 0.72477 0.46993 0.0
O281 O 0.92109 0.74105 0.31825 0.0
C282 C 0.92834 0.76123 0.4772 0.0
O283 O 0.90903 0.759 0.49538 0.0
N284 N 0.87877 0.74779 0.35422 0.0
C285 C 0.8363 0.74795 0.32324 0.0
C286 C 0.85212 0.7451 0.28332 0.0
C287 C 0.87326 0.74561 0.29939 0.0
C288 C 0.86357 0.75159 0.39282 0.0
C289 C 0.84234 0.75136 0.37861 0.0
H290 H 0.88492 0.74517 0.26705 0.0
H291 H 0.86802 0.75556 0.43495 0.0
H292 H 0.90995 0.77325 0.27048 0.0
H293 H 0.89665 0.82896 0.35644 0.0
H294 H 0.92791 0.6817 0.45847 0.0
H295 H 0.84823 0.74338 0.23964 0.0
H296 H 0.83078 0.75404 0.41083 0.0
C297 C 0.63221 0.21183 0.89588 0.0
C298 C 0.63058 0.19256 0.87044 0.0
N299 N 0.61367 0.193 0.83691 0.0
N300 N 0.61684 0.22442 0.87652 0.0
C301 C 0.60549 0.21233 0.84189 0.0
H302 H 0.64485 0.21696 0.92273 0.0
Co303 Co 0.61513 0.25308 0.88706 0.0
C304 C 0.60274 0.26365 0.76712 0.0
O305 O 0.62155 0.27074 0.75571 0.0
N306 N 0.61331 0.28202 0.89983 0.0
C307 C 0.61078 0.3168 0.8961 0.0
C308 C 0.60987 0.29857 0.86579 0.0
C309 C 0.61616 0.29069 0.95042 0.0
N310 N 0.61495 0.31174 0.94925 0.0
O311 O 0.58942 0.24866 0.92928 0.0
H312 H 0.60684 0.29791 0.82182 0.0
H313 H 0.61912 0.28169 0.98767 0.0
O314 O 0.59851 0.25683 0.81625 0.0
C315 C 0.5934 0.24364 0.97983 0.0
O316 O 0.61312 0.24281 0.9957 0.0
N317 N 0.64184 0.25633 0.85167 0.0
C318 C 0.68407 0.25661 0.81839 0.0
C319 C 0.66913 0.24474 0.78931 0.0
C320 C 0.64823 0.24452 0.80716 0.0
C321 C 0.65639 0.2676 0.88082 0.0
C322 C 0.67736 0.26828 0.86439 0.0
H323 H 0.63721 0.23453 0.78554 0.0
H324 H 0.65219 0.27542 0.91891 0.0
H325 H 0.59274 0.21811 0.81638 0.0
H326 H 0.64176 0.17983 0.87305 0.0
H327 H 0.60854 0.33251 0.88028 0.0
H328 H 0.67365 0.23502 0.75438 0.0
H329 H 0.6883 0.27758 0.88847 0.0
C330 C 0.62742 0.79884 0.15294 0.0
C331 C 0.62562 0.81375 0.19416 0.0
N332 N 0.61125 0.807 0.23105 0.0
N333 N 0.6143 0.78283 0.1643 0.0
C334 C 0.60409 0.78868 0.21077 0.0
H335 H 0.63907 0.79863 0.12024 0.0
Co336 Co 0.61597 0.75629 0.13335 0.0
C337 C 0.60272 0.73343 0.24067 0.0
O338 O 0.62179 0.72701 0.25198 0.0
N339 N 0.61778 0.72977 0.10066 0.0
C340 C 0.62329 0.69619 0.08126 0.0
C341 C 0.6201 0.71051 0.12305 0.0
C342 C 0.61961 0.72667 0.0454 0.0
N343 N 0.62308 0.70643 0.03224 0.0
O344 O 0.59036 0.76193 0.09077 0.0
H345 H 0.62024 0.70687 0.1667 0.0
H346 H 0.61881 0.73918 0.01546 0.0
O347 O 0.59894 0.74406 0.19627 0.0
C348 C 0.59427 0.77212 0.04601 0.0
O349 O 0.61376 0.77772 0.03627 0.0
N350 N 0.6425 0.75227 0.16941 0.0
C351 C 0.68411 0.75001 0.20794 0.0
C352 C 0.66796 0.75731 0.24262 0.0
C353 C 0.64739 0.75871 0.22225 0.0
C354 C 0.65828 0.74618 0.13454 0.0
C355 C 0.67898 0.74458 0.15307 0.0
H356 H 0.6354 0.76486 0.24941 0.0
H357 H 0.6551 0.74316 0.09115 0.0
H358 H 0.59311 0.77881 0.23274 0.0
H359 H 0.63565 0.82726 0.19972 0.0
H360 H 0.62594 0.67961 0.08703 0.0
H361 H 0.67113 0.76195 0.28516 0.0
H362 H 0.69097 0.73982 0.12379 0.0
C363 C 0.91045 0.21183 0.61983 0.0
C364 C 0.91234 0.19612 0.6589 0.0
N365 N 0.9118 0.20496 0.70986 0.0
N366 N 0.90897 0.23036 0.64634 0.0
C367 C 0.9101 0.22571 0.70084 0.0
H368 H 0.90889 0.20976 0.57533 0.0
Co369 Co 0.90072 0.25563 0.61696 0.0
C370 C 0.9193 0.28926 0.69214 0.0
O371 O 0.90586 0.3032 0.6736 0.0
N372 N 0.8916 0.28103 0.58566 0.0
C373 C 0.87131 0.30657 0.55261 0.0
C374 C 0.8716 0.28796 0.58101 0.0
C375 C 0.90309 0.29563 0.55882 0.0
N376 N 0.89114 0.31138 0.53883 0.0
O377 O 0.92427 0.25439 0.56536 0.0
H378 H 0.85781 0.27989 0.59567 0.0
H379 H 0.91987 0.29444 0.55269 0.0
O380 O 0.91845 0.27035 0.67412 0.0
C381 C 0.91908 0.24959 0.51548 0.0
O382 O 0.89902 0.24774 0.50368 0.0
N383 N 0.87683 0.25489 0.66278 0.0
C384 C 0.83616 0.25294 0.70538 0.0
C385 C 0.85147 0.26555 0.73099 0.0
C386 C 0.87185 0.26628 0.70907 0.0
C387 C 0.86258 0.24147 0.64008 0.0
C388 C 0.84222 0.24025 0.66062 0.0
H389 H 0.88312 0.27648 0.72835 0.0
H390 H 0.86682 0.23243 0.6037 0.0
H391 H 0.9086 0.23734 0.7333 0.0
H392 H 0.9128 0.17949 0.65046 0.0
H393 H 0.8575 0.31553 0.54157 0.0
H394 H 0.84751 0.27549 0.76596 0.0
H395 H 0.83113 0.22986 0.64046 0.0
C396 C 0.04957 0.65425 0.84802 0.0
C397 C 0.06676 0.65579 0.88262 0.0
N398 N 0.05993 0.65449 0.93553 0.0
N399 N 0.03214 0.65232 0.87936 0.0
C400 C 0.03893 0.65271 0.93234 0.0
H401 H 0.04987 0.6535 0.80306 0.0
Co402 Co 0.00577 0.64525 0.85516 0.0
C403 C 0.97467 0.66212 0.93922 0.0
O404 O 0.96129 0.64756 0.92422 0.0
N405 N 0.97907 0.63728 0.82859 0.0
C406 C 0.95104 0.61841 0.80517 0.0
C407 C 0.97077 0.61776 0.82754 0.0
C408 C 0.96401 0.64944 0.80556 0.0
N409 N 0.94676 0.63834 0.79131 0.0
O410 O 0.00641 0.66951 0.80538 0.0
H411 H 0.97834 0.60364 0.84166 0.0
H412 H 0.96583 0.66607 0.7985 0.0
O413 O 0.99298 0.66266 0.91676 0.0
C414 C 0.0097 0.66538 0.75394 0.0
O415 O 0.00949 0.64568 0.73816 0.0
N416 N 0.00727 0.62077 0.89903 0.0
C417 C 0.01008 0.58018 0.94179 0.0
C418 C 1.00061 0.59626 0.97281 0.0
C419 C 0.99947 0.61657 0.95082 0.0
C420 C 0.01794 0.60572 0.87045 0.0
C421 C 0.01936 0.58532 0.89072 0.0
H422 H 0.99216 0.62856 0.97548 0.0
H423 H 0.02453 0.60944 0.83016 0.0
H424 H 0.02868 0.65094 0.96791 0.0
H425 H 0.08301 0.65675 0.86988 0.0
H426 H 0.9408 0.60511 0.7988 0.0
H427 H 0.99353 0.59306 0.01287 0.0
H428 H 0.02738 0.5736 0.86607 0.0
C429 C 0.46696 0.37 0.375 0.0
C430 C 0.45027 0.36758 0.41099 0.0
N431 N 0.45477 0.35168 0.44585 0.0
N432 N 0.4819 0.35585 0.38809 0.0
C433 C 0.47347 0.34422 0.42902 0.0
H434 H 0.4692 0.38286 0.34631 0.0
Co435 Co 0.51018 0.35731 0.36953 0.0
C436 C 0.52519 0.34329 0.48569 0.0
O437 O 0.52943 0.36241 0.50201 0.0
N438 N 0.53861 0.3586 0.34996 0.0
C439 C 0.57329 0.36285 0.34981 0.0
C440 C 0.55576 0.36097 0.3826 0.0
C441 C 0.54617 0.35925 0.29763 0.0
N442 N 0.56715 0.36191 0.29632 0.0
O443 O 0.50657 0.33215 0.3247 0.0
H444 H 0.55575 0.36202 0.42726 0.0
H445 H 0.53648 0.35789 0.26096 0.0
O446 O 0.51829 0.33983 0.43618 0.0
C447 C 0.49946 0.33681 0.27636 0.0
O448 O 0.49646 0.35667 0.26441 0.0
N449 N 0.51231 0.38363 0.40759 0.0
C450 C 0.51094 0.42529 0.44541 0.0
C451 C 0.50094 0.4092 0.47506 0.0
C452 C 0.50158 0.38862 0.45515 0.0
C453 C 0.52154 0.39929 0.37754 0.0
C454 C 0.52151 0.41997 0.39626 0.0
H455 H 0.49314 0.37675 0.47793 0.0
H456 H 0.52841 0.39608 0.3374 0.0
H457 H 0.48189 0.33209 0.45103 0.0
H458 H 0.43726 0.37833 0.41577 0.0
H459 H 0.58922 0.36513 0.36422 0.0
H460 H 0.49202 0.41251 0.51237 0.0
H461 H 0.52947 0.43171 0.37159 0.0
C462 C 0.05188 0.37705 0.13 0.0
C463 C 0.07034 0.3749 0.10086 0.0
N464 N 0.06856 0.35788 0.06826 0.0
N465 N 0.03847 0.36183 0.11408 0.0
C466 C 0.04921 0.35017 0.07728 0.0
H467 H 0.04792 0.38969 0.15806 0.0
Co468 Co 0.01057 0.36027 0.13299 0.0
C469 C 0.98894 0.3509 0.02578 0.0
O470 O 0.97673 0.36695 0.03689 0.0
N471 N 0.98239 0.3585 0.15516 0.0
C472 C 0.95033 0.34648 0.17319 0.0
C473 C 0.96755 0.34456 0.13939 0.0
C474 C 0.97412 0.36781 0.20055 0.0
N475 N 0.95458 0.36108 0.21189 0.0
O476 O 0.01603 0.33383 0.17061 0.0
H477 H 0.96962 0.33238 0.10872 0.0
H478 H 0.98294 0.3778 0.22819 0.0
O479 O 1.00342 0.34571 0.06058 0.0
C480 C 0.0194 0.33655 0.22266 0.0
O481 O 0.01809 0.35564 0.24269 0.0
N482 N 0.00667 0.38739 0.10055 0.0
C483 C 0.00665 0.42911 0.06329 0.0
C484 C 0.01276 0.41274 0.02783 0.0
C485 C 0.01308 0.3921 0.04756 0.0
C486 C 1.00162 0.4033 0.13598 0.0
C487 C 1.00098 0.42406 0.11801 0.0
H488 H 0.01923 0.38001 0.02069 0.0
H489 H 0.99933 0.40031 0.17947 0.0
H490 H 0.04248 0.33727 0.05413 0.0
H491 H 0.08354 0.38556 0.10119 0.0
H492 H 0.93669 0.33637 0.17298 0.0
H493 H 0.01813 0.41589 0.98591 0.0
H494 H 0.99652 0.4361 0.14744 0.0
C495 C 0.47126 0.62989 0.6581 0.0
C496 C 0.45219 0.63353 0.63284 0.0
N497 N 0.45436 0.65023 0.59919 0.0
N498 N 0.48536 0.64389 0.63894 0.0
C499 C 0.47449 0.65632 0.60409 0.0
H500 H 0.47505 0.61689 0.68518 0.0
Co501 Co 0.514 0.64246 0.64909 0.0
C502 C 0.53137 0.65624 0.53881 0.0
O503 O 0.54154 0.63845 0.535 0.0
N504 N 0.54364 0.64083 0.66001 0.0
C505 C 0.57727 0.63077 0.66106 0.0
C506 C 0.55758 0.62638 0.64123 0.0
C507 C 0.55568 0.65417 0.68988 0.0
N508 N 0.57598 0.6483 0.69145 0.0
O509 O 0.51193 0.66752 0.69507 0.0
H510 H 0.55406 0.61325 0.61455 0.0
H511 H 0.54975 0.66757 0.71225 0.0
O512 O 0.51951 0.65981 0.58098 0.0
C513 C 0.5095 0.66312 0.7467 0.0
O514 O 0.51142 0.64347 0.76214 0.0
N515 N 0.51375 0.61679 0.61051 0.0
C516 C 0.50953 0.57576 0.57116 0.0
C517 C 0.50422 0.59295 0.53728 0.0
C518 C 0.50603 0.61337 0.55819 0.0
C519 C 0.51752 0.60028 0.64506 0.0
C520 C 0.51614 0.57975 0.6259 0.0
H521 H 0.50075 0.62634 0.53289 0.0
H522 H 0.52198 0.60316 0.68787 0.0
H523 H 0.48155 0.6684 0.5787 0.0
H524 H 0.43826 0.62392 0.63607 0.0
H525 H 0.59134 0.62159 0.65469 0.0
H526 H 0.49816 0.59067 0.49559 0.0
H527 H 0.52035 0.56717 0.65395 0.0
H528 H 0.48613 0.06114 0.519 0.0
H529 H 0.54094 0.94823 0.50926 0.0
H530 H 0.54831 0.05086 0.45329 0.0
H531 H 0.48308 0.96105 0.59584 0.0
H532 H 0.5431 0.98531 0.48325 0.0
H533 H 0.48435 0.02426 0.5448 0.0
C534 C 0.49954 0.05123 0.51058 0.0
C535 C 0.51741 0.05925 0.48385 0.0
C536 C 0.52993 0.97999 0.5079 0.0
C537 C 0.51525 0.01668 0.51226 0.0
C538 C 0.5286 0.9588 0.52234 0.0
C539 C 0.51185 0.95155 0.55497 0.0
C540 C 0.5143 0.99399 0.52587 0.0
C541 C 0.49642 0.966 0.57127 0.0
C542 C 0.49843 0.03007 0.5249 0.0
C543 C 0.53408 0.04539 0.47304 0.0
N544 N 0.49802 0.98647 0.55659 0.0
N545 N 0.53257 0.02481 0.48709 0.0
H546 H 0.30885 0.28271 0.77016 0.0
H547 H 0.2003 0.2202 0.74784 0.0
H548 H 0.30152 0.21827 0.82057 0.0
H549 H 0.20573 0.28692 0.72249 0.0
H550 H 0.23738 0.21898 0.77323 0.0
H551 H 0.2714 0.2841 0.74808 0.0
C552 C 0.29941 0.26878 0.77603 0.0
C553 C 0.30836 0.25033 0.7972 0.0
C554 C 0.23043 0.23391 0.7624 0.0
C555 C 0.26538 0.2519 0.77273 0.0
C556 C 0.20917 0.23466 0.74838 0.0
C557 C 0.19979 0.2537 0.73277 0.0
C558 C 0.24252 0.25229 0.76057 0.0
C559 C 0.2123 0.27183 0.73329 0.0
C560 C 0.27798 0.26965 0.76393 0.0
C561 C 0.29526 0.23288 0.80482 0.0
N562 N 0.233 0.27065 0.74661 0.0
N563 N 0.27447 0.23408 0.79255 0.0
H564 H 0.03335 0.06284 0.98498 0.0
H565 H 0.99554 0.94561 0.05035 0.0
H566 H 0.99577 0.0464 0.12778 0.0
H567 H 0.03576 0.96232 0.91297 0.0
H568 H 0.99626 0.98215 0.08155 0.0
H569 H 0.03461 0.0259 0.9587 0.0
C570 C 0.0253 0.05148 0.01072 0.0
C571 C 0.01447 0.05778 0.05871 0.0
C572 C 0.005 0.97778 0.0447 0.0
C573 C 0.01597 0.01533 0.02912 0.0
C574 C 0.0047 0.95689 0.0271 0.0
C575 C 0.01544 0.9509 0.97866 0.0
C576 C 0.01613 0.99278 0.01367 0.0
C577 C 0.02691 0.96627 0.94993 0.0
C578 C 0.02614 0.03035 0.99591 0.0
C579 C 0.00456 0.04227 0.09087 0.0
N580 N 0.02686 0.98646 0.96768 0.0
N581 N 0.0055 0.0218 0.07542 0.0
H582 H 0.31683 0.71811 0.26185 0.0
H583 H 0.2044 0.77416 0.24384 0.0
H584 H 0.3064 0.77788 0.18263 0.0
H585 H 0.214 0.71284 0.31512 0.0
H586 H 0.24169 0.77577 0.22116 0.0
H587 H 0.27944 0.71631 0.28415 0.0
C588 C 0.30674 0.73096 0.24963 0.0
C589 C 0.31484 0.74817 0.22022 0.0
C590 C 0.23564 0.76193 0.24163 0.0
C591 C 0.27185 0.74605 0.24495 0.0
C592 C 0.21426 0.76091 0.25418 0.0
C593 C 0.20593 0.74334 0.28154 0.0
C594 C 0.24892 0.74527 0.25655 0.0
C595 C 0.21969 0.72684 0.29476 0.0
C596 C 0.28533 0.72984 0.26195 0.0
C597 C 0.30087 0.76418 0.20472 0.0
N598 N 0.24046 0.72824 0.28228 0.0
N599 N 0.28011 0.76273 0.21722 0.0
H600 H 0.80545 0.77462 0.35981 0.0
H601 H 0.71374 0.72016 0.18324 0.0
H602 H 0.8156 0.7222 0.24973 0.0
H603 H 0.70536 0.77719 0.27712 0.0
H604 H 0.75058 0.71953 0.21116 0.0
H605 H 0.76836 0.77461 0.33415 0.0
C606 C 0.79987 0.763 0.33047 0.0
C607 C 0.81371 0.74831 0.30711 0.0
C608 C 0.74068 0.73217 0.22573 0.0
C609 C 0.77113 0.74834 0.27714 0.0
C610 C 0.71962 0.7326 0.20964 0.0
C611 C 0.70633 0.74883 0.22752 0.0
C612 C 0.74864 0.74804 0.26024 0.0
C613 C 0.71485 0.76423 0.2627 0.0
C614 C 0.77868 0.76309 0.31559 0.0
C615 C 0.80558 0.73392 0.26848 0.0
N616 N 0.73543 0.76348 0.27774 0.0
N617 N 0.78484 0.73425 0.25486 0.0
H618 H 0.8016 0.25359 0.63801 0.0
H619 H 0.71847 0.25548 0.8874 0.0
H620 H 0.81953 0.2546 0.81133 0.0
H621 H 0.7013 0.25652 0.7135 0.0
H622 H 0.75543 0.25512 0.86085 0.0
H623 H 0.76484 0.25438 0.6654 0.0
C624 C 0.79781 0.25381 0.68195 0.0
C625 C 0.81374 0.25379 0.72245 0.0
C626 C 0.74359 0.25546 0.82849 0.0
C627 C 0.77145 0.25501 0.75419 0.0
C628 C 0.72244 0.2558 0.84359 0.0
C629 C 0.70666 0.25617 0.80262 0.0
C630 C 0.74911 0.25544 0.77194 0.0
C631 C 0.71286 0.25606 0.74654 0.0
C632 C 0.77677 0.2544 0.69755 0.0
C633 C 0.80781 0.25465 0.77869 0.0
N634 N 0.73356 0.25573 0.73291 0.0
N635 N 0.78713 0.25515 0.79291 0.0
H636 H 0.01663 0.56479 0.04755 0.0
H637 H 0.99603 0.44524 0.96075 0.0
H638 H 1.00234 0.54504 0.87993 0.0
H639 H 0.01871 0.46394 0.12278 0.0
H640 H 0.99698 0.48187 0.93131 0.0
H641 H 0.01573 0.5281 0.07734 0.0
C642 C 0.01324 0.55276 0.01706 0.0
C643 C 0.00967 0.55803 0.96109 0.0
C644 C 1.00173 0.47795 0.97334 0.0
C645 C 0.00866 0.51598 0.99481 0.0
C646 C 1.00129 0.45699 0.99012 0.0
C647 C 0.00719 0.45138 0.04449 0.0
C648 C 0.00808 0.49351 0.01116 0.0
C649 C 0.01361 0.46745 0.08082 0.0
C650 C 0.01284 0.53181 0.03401 0.0
C651 C 0.00552 0.54172 0.92332 0.0
N652 N 0.01385 0.48772 0.06355 0.0
N653 N 0.0051 0.5215 0.94086 0.0
H654 H 0.51068 0.44057 0.55276 0.0
H655 H 0.51785 0.56077 0.46586 0.0
H656 H 0.50839 0.46104 0.38136 0.0
H657 H 0.49773 0.5404 0.6288 0.0
H658 H 0.5171 0.52433 0.43455 0.0
H659 H 0.50883 0.47711 0.58234 0.0
C660 C 0.50966 0.45266 0.52125 0.0
C661 C 0.50979 0.44754 0.46434 0.0
C662 C 0.5128 0.5279 0.4771 0.0
C663 C 0.50807 0.48956 0.49819 0.0
C664 C 0.5131 0.54873 0.49499 0.0
C665 C 0.50804 0.55379 0.55032 0.0
C666 C 0.50761 0.51193 0.51488 0.0
C667 C 0.50229 0.53734 0.58619 0.0
C668 C 0.5087 0.47355 0.53826 0.0
C669 C 0.50882 0.46408 0.42565 0.0
N670 N 0.50239 0.5172 0.56799 0.0
N671 N 0.50811 0.4843 0.44327 0.0
H672 H 0.43904 0.17637 0.29394 0.0
H673 H 0.40718 0.15744 0.98379 0.0
H674 H 0.43936 0.11522 0.21762 0.0
H675 H 0.38905 0.21309 0.07392 0.0
H676 H 0.41488 0.14028 0.07186 0.0
H677 H 0.41709 0.18922 0.21766 0.0
C678 C 0.43422 0.16561 0.26153 0.0
C679 C 0.4413 0.14484 0.2615 0.0
C680 C 0.4089 0.15616 0.07241 0.0
C681 C 0.41639 0.15931 0.17427 0.0
C682 C 0.40444 0.16596 0.02199 0.0
C683 C 0.39808 0.18699 0.02118 0.0
C684 C 0.40726 0.16755 0.12223 0.0
C685 C 0.39475 0.19716 0.07229 0.0
C686 C 0.4216 0.17287 0.21824 0.0
C687 C 0.4343 0.13137 0.21923 0.0
N688 N 0.39979 0.18748 0.12073 0.0
N689 N 0.42255 0.13894 0.1767 0.0
H690 H 0.10694 0.15404 0.21918 0.0
H691 H 0.09015 0.1744 0.53233 0.0
H692 H 0.05187 0.1337 0.30808 0.0
H693 H 0.15058 0.17961 0.4531 0.0
H694 H 0.07832 0.15196 0.45622 0.0
H695 H 0.12611 0.15547 0.30726 0.0
C696 C 0.0991 0.14935 0.25715 0.0
C697 C 0.07773 0.14429 0.25667 0.0
C698 C 0.09435 0.15757 0.45605 0.0
C699 C 0.09921 0.14626 0.35737 0.0
C700 C 0.101 0.1705 0.49927 0.0
C701 C 0.12111 0.17927 0.498 0.0
C702 C 0.10779 0.1539 0.41073 0.0
C703 C 0.13484 0.17334 0.45524 0.0
C704 C 0.11 0.1501 0.3074 0.0
C705 C 0.06828 0.13791 0.30661 0.0
N706 N 0.12776 0.16142 0.41248 0.0
N707 N 0.07894 0.13962 0.35524 0.0
H708 H 0.08316 0.82129 0.44866 0.0
H709 H 0.10382 0.87074 0.7478 0.0
H710 H 0.14444 0.82702 0.5238 0.0
H711 H 0.04279 0.85612 0.6805 0.0
H712 H 0.1194 0.86284 0.65682 0.0
H713 H 0.06866 0.84276 0.52336 0.0
C714 C 0.09359 0.82732 0.48044 0.0
C715 C 0.11488 0.8219 0.48094 0.0
C716 C 0.10258 0.86155 0.66195 0.0
C717 C 0.09853 0.8463 0.56636 0.0
C718 C 0.09376 0.86599 0.71371 0.0
C719 C 0.07216 0.86345 0.72176 0.0
C720 C 0.0896 0.85467 0.61828 0.0
C721 C 0.05963 0.85753 0.67641 0.0
C722 C 0.08536 0.8396 0.52295 0.0
C723 C 0.12789 0.83064 0.52204 0.0
N724 N 0.06856 0.85316 0.6267 0.0
N725 N 0.11941 0.84209 0.56382 0.0
H726 H 0.4021 0.83941 0.0125 0.0
H727 H 0.43771 0.81584 0.71359 0.0
H728 H 0.39163 0.77864 0.9383 0.0
H729 H 0.41963 0.87813 0.76289 0.0
H730 H 0.41777 0.80165 0.79196 0.0
H731 H 0.40512 0.85437 0.91977 0.0
C732 C 0.40007 0.82922 0.97696 0.0
C733 C 0.39732 0.80756 0.9836 0.0
C734 C 0.41767 0.81839 0.78481 0.0
C735 C 0.40108 0.8246 0.87723 0.0
C736 C 0.42908 0.82642 0.74033 0.0
C737 C 0.43044 0.84809 0.73264 0.0
C738 C 0.40812 0.83224 0.8225 0.0
C739 C 0.41893 0.8613 0.76778 0.0
C740 C 0.40177 0.83781 0.92387 0.0
C741 C 0.39469 0.79525 0.93557 0.0
N742 N 0.40864 0.85319 0.81223 0.0
N743 N 0.3971 0.80387 0.88441 0.0
H744 H 0.50375 0.84213 0.85864 0.0
H745 H 0.59907 0.76813 0.93461 0.0
H746 H 0.53738 0.80701 0.73425 0.0
H747 H 0.55364 0.78703 0.05734 0.0
H748 H 0.57585 0.78085 0.86094 0.0
H749 H 0.52041 0.82107 0.93146 0.0
C750 C 0.51437 0.82969 0.84656 0.0
C751 C 0.51917 0.82636 0.7901 0.0
C752 C 0.57072 0.78196 0.9038 0.0
C753 C 0.5388 0.80242 0.87385 0.0
C754 C 0.58399 0.77469 0.946 0.0
C755 C 0.5783 0.77653 1.00229 0.0
C756 C 0.55169 0.79169 0.9177 0.0
C757 C 0.55859 0.78517 0.01453 0.0
C758 C 0.5239 0.81767 0.88829 0.0
C759 C 0.53309 0.81004 0.77709 0.0
N760 N 0.54615 0.79277 0.97266 0.0
N761 N 0.54268 0.79895 0.81863 0.0
H762 H 0.99846 0.85187 0.66123 0.0
H763 H 0.93204 0.75078 0.58615 0.0
H764 H 0.98432 0.8042 0.78258 0.0
H765 H 0.96015 0.79001 0.46087 0.0
H766 H 0.95273 0.76861 0.65763 0.0
H767 H 0.98625 0.82861 0.58736 0.0
C768 C 0.99293 0.83639 0.67237 0.0
C769 C 0.99226 0.83008 0.72845 0.0
C770 C 0.95474 0.77312 0.6145 0.0
C771 C 0.97792 0.80327 0.64338 0.0
C772 C 0.94296 0.76289 0.57354 0.0
C773 C 0.9444 0.76887 0.51734 0.0
C774 C 0.9678 0.78989 0.59963 0.0
C775 C 0.9587 0.78474 0.50352 0.0
C776 C 0.98601 0.82307 0.62996 0.0
C777 C 0.98513 0.80974 0.74004 0.0
N778 N 0.96956 0.79494 0.54447 0.0
N779 N 0.97793 0.7972 0.69801 0.0
H780 H 0.97259 0.20652 0.20382 0.0
H781 H 0.95982 0.2356 0.52838 0.0
H782 H 0.00894 0.17837 0.33552 0.0
H783 H 0.91366 0.25029 0.40292 0.0
H784 H 0.98263 0.22118 0.45525 0.0
H785 H 0.95559 0.22926 0.27326 0.0
C786 C 0.97735 0.20547 0.24704 0.0
C787 C 0.9921 0.19043 0.26391 0.0
C788 C 0.96762 0.22783 0.44369 0.0
C789 C 0.97269 0.21624 0.34361 0.0
C790 C 0.95467 0.23619 0.48542 0.0
C791 C 0.93472 0.24402 0.4719 0.0
C792 C 0.96067 0.22747 0.38795 0.0
C793 C 0.92882 0.24422 0.41541 0.0
C794 C 0.96754 0.21831 0.28676 0.0
C795 C 0.99751 0.18961 0.32068 0.0
N796 N 0.94162 0.23598 0.37572 0.0
N797 N 0.98776 0.20218 0.35838 0.0
H798 H 0.53586 0.20502 0.28989 0.0
H799 H 0.55676 0.22145 0.96193 0.0
H800 H 0.51484 0.16193 0.16344 0.0
H801 H 0.59345 0.25062 0.09124 0.0
H802 H 0.53439 0.2055 0.03412 0.0
H803 H 0.5501 0.22777 0.21633 0.0
C804 C 0.5338 0.20058 0.2467 0.0
C805 C 0.52427 0.18147 0.23289 0.0
C806 C 0.54713 0.2157 0.04657 0.0
C807 C 0.54056 0.20736 0.14846 0.0
C808 C 0.55976 0.22494 0.00534 0.0
C809 C 0.57703 0.23731 0.0206 0.0
C810 C 0.55165 0.21911 0.10334 0.0
C811 C 0.58037 0.24107 0.07763 0.0
C812 C 0.54207 0.21348 0.20471 0.0
C813 C 0.52224 0.17643 0.17608 0.0
N814 N 0.56792 0.23197 0.11677 0.0
N815 N 0.53038 0.18919 0.13612 0.0
H816 H 0.93055 0.67764 0.78886 0.0
H817 H 0.89516 0.65658 0.49 0.0
H818 H 0.92225 0.61555 0.72147 0.0
H819 H 0.88766 0.71654 0.56941 0.0
H820 H 0.89516 0.6398 0.58132 0.0
H821 H 0.90613 0.69108 0.71916 0.0
C822 C 0.92334 0.6668 0.75998 0.0
C823 C 0.92908 0.64561 0.75957 0.0
C824 C 0.89283 0.65657 0.579 0.0
C825 C 0.90118 0.66076 0.67984 0.0
C826 C 0.89279 0.66606 0.52685 0.0
C827 C 0.89188 0.68787 0.52272 0.0
C828 C 0.89275 0.66916 0.62705 0.0
C829 C 0.88863 0.69964 0.5712 0.0
C830 C 0.90922 0.67441 0.72052 0.0
C831 C 0.91865 0.63207 0.72273 0.0
N832 N 0.88985 0.69019 0.62167 0.0
N833 N 0.90561 0.63997 0.68341 0.0
H834 H 0.62977 0.7274 0.93448 0.0
H835 H 0.60337 0.62648 0.75451 0.0
H836 H 0.6213 0.66523 1.00239 0.0
H837 H 0.58367 0.68904 0.71222 0.0
H838 H 0.6238 0.64066 0.83234 0.0
H839 H 0.62635 0.71296 0.84134 0.0
C840 C 0.62732 0.71074 0.9303 0.0
C841 C 0.62494 0.69769 0.97709 0.0
C842 C 0.61546 0.6513 0.80503 0.0
C843 C 0.62181 0.6811 0.87001 0.0
C844 C 0.60394 0.64326 0.7606 0.0
C845 C 0.59164 0.65668 0.72789 0.0
C846 C 0.61473 0.67284 0.81609 0.0
C847 C 0.59272 0.67827 0.73742 0.0
C848 C 0.62563 0.70252 0.87685 0.0
C849 C 0.62283 0.67605 0.9681 0.0
N850 N 0.60386 0.68572 0.78125 0.0
N851 N 0.621 0.66847 0.91557 0.0
H852 H 0.63751 0.30624 0.0435 0.0
H853 H 0.60813 0.35052 0.28862 0.0
H854 H 0.59426 0.34843 0.96296 0.0
H855 H 0.55617 0.37456 0.19263 0.0
H856 H 0.62777 0.34544 0.2029 0.0
H857 H 0.6326 0.32493 0.13026 0.0
C858 C 0.62728 0.31977 0.044 0.0
C859 C 0.61578 0.32543 0.99656 0.0
C860 C 0.61204 0.3517 0.20032 0.0
C861 C 0.61031 0.34742 0.09565 0.0
C862 C 0.60091 0.3549 0.24952 0.0
C863 C 0.58016 0.36218 0.24755 0.0
C864 C 0.60214 0.35551 0.14895 0.0
C865 C 0.57177 0.368 0.19585 0.0
C866 C 0.62466 0.33071 0.09358 0.0
C867 C 0.60323 0.34341 0.99881 0.0
N868 N 0.58265 0.36418 0.14853 0.0
N869 N 0.60046 0.35349 0.04795 0.0
H870 H 0.92867 0.3311 0.53892 0.0
H871 H 0.91256 0.36036 0.22552 0.0
H872 H 0.86889 0.32895 0.4548 0.0
H873 H 0.97081 0.36835 0.31464 0.0
H874 H 0.89418 0.35752 0.31443 0.0
H875 H 0.94229 0.35323 0.46437 0.0
C876 C 0.91835 0.33558 0.50511 0.0
C877 C 0.89786 0.32774 0.50206 0.0
C878 C 0.91092 0.3604 0.31458 0.0
C879 C 0.91323 0.35282 0.41661 0.0
C880 C 0.92137 0.36193 0.26387 0.0
C881 C 0.94323 0.3641 0.26279 0.0
C882 C 0.92254 0.36064 0.36435 0.0
C883 C 0.95396 0.36654 0.31343 0.0
C884 C 0.92604 0.3483 0.46274 0.0
C885 C 0.88487 0.33446 0.45841 0.0
N886 N 0.94355 0.36427 0.36221 0.0
N887 N 0.89293 0.34624 0.41665 0.0
H888 H 0.04385 0.30179 0.20012 0.0
H889 H 0.05697 0.27235 0.52453 0.0
H890 H 0.01111 0.33311 0.33311 0.0
H891 H 0.10229 0.25612 0.39862 0.0
H892 H 0.03464 0.28785 0.45176 0.0
H893 H 0.05995 0.27819 0.26931 0.0
C894 C 0.03965 0.30336 0.2436 0.0
C895 C 0.02621 0.3195 0.26089 0.0
C896 C 0.04934 0.28061 0.44001 0.0
C897 C 0.04457 0.29269 0.34024 0.0
C898 C 0.06201 0.27162 0.48152 0.0
C899 C 0.08161 0.26304 0.46777 0.0
C900 C 0.05618 0.28081 0.38424 0.0
C901 C 0.0874 0.26273 0.41124 0.0
C902 C 0.04896 0.29003 0.28315 0.0
C903 C 0.02152 0.32098 0.31797 0.0
N904 N 0.07485 0.27156 0.37174 0.0
N905 N 0.03072 0.30788 0.35546 0.0
H906 H 0.46033 0.2831 0.96116 0.0
H907 H 0.4798 0.29865 0.29018 0.0
H908 H 0.41822 0.26056 0.08792 0.0
H909 H 0.50521 0.33963 0.16474 0.0
H910 H 0.46411 0.27708 0.21583 0.0
H911 H 0.48375 0.29647 0.03494 0.0
C912 C 0.45629 0.28051 1.00441 0.0
C913 C 0.43726 0.27084 0.01847 0.0
C914 C 0.47348 0.29058 0.20466 0.0
C915 C 0.46388 0.28598 0.10289 0.0
C916 C 0.48258 0.30275 0.24706 0.0
C917 C 0.49375 0.32098 0.23359 0.0
C918 C 0.47586 0.29652 0.14848 0.0
C919 C 0.4966 0.32576 0.17694 0.0
C920 C 0.46955 0.28826 0.04648 0.0
C921 C 0.43267 0.2681 0.07527 0.0
N922 N 0.48767 0.31372 0.13659 0.0
N923 N 0.44578 0.27567 0.11525 0.0
H924 H 0.46929 0.71797 0.06067 0.0
H925 H 0.48546 0.69866 0.7317 0.0
H926 H 0.42448 0.7361 0.93513 0.0
H927 H 0.51696 0.66263 0.85849 0.0
H928 H 0.46884 0.71976 0.80524 0.0
H929 H 0.4926 0.70482 0.98643 0.0
C930 C 0.4646 0.71965 0.01754 0.0
C931 C 0.44489 0.72804 1.00406 0.0
C932 C 0.47968 0.70745 0.81688 0.0
C933 C 0.47136 0.71309 0.91906 0.0
C934 C 0.48931 0.69553 0.77486 0.0
C935 C 0.50256 0.67878 0.78889 0.0
C936 C 0.48353 0.70278 0.87335 0.0
C937 C 0.50673 0.67529 0.84572 0.0
C938 C 0.4778 0.71201 0.9752 0.0
C939 C 0.43949 0.7296 0.9474 0.0
N940 N 0.49721 0.68706 0.88571 0.0
N941 N 0.45255 0.72217 0.90719 0.0
H942 H 0.00549 0.66472 0.64098 0.0
H943 H 0.09482 0.7492 0.59005 0.0
H944 H 0.03137 0.70214 0.77361 0.0
H945 H 0.05778 0.72352 0.45628 0.0
H946 H 0.07059 0.73376 0.65739 0.0
H947 H 0.02286 0.68732 0.57294 0.0
C948 C 0.01454 0.67795 0.65582 0.0
C949 C 0.01693 0.6815 0.71327 0.0
C950 C 0.06751 0.73174 0.61337 0.0
C951 C 0.0374 0.70731 0.63508 0.0
C952 C 0.08136 0.74059 0.57475 0.0
C953 C 0.07838 0.73768 0.51725 0.0
C954 C 0.05065 0.71942 0.59471 0.0
C955 C 0.06064 0.72632 0.50009 0.0
C956 C 0.0245 0.69086 0.61682 0.0
C957 C 0.02892 0.69888 0.72985 0.0
N958 N 0.04766 0.71735 0.53859 0.0
N959 N 0.03896 0.71091 0.69106 0.0
H960 H 0.43192 0.1982 0.77905 0.0
H961 H 0.48853 0.20349 0.48078 0.0
H962 H 0.4301 0.25439 0.68022 0.0
H963 H 0.46052 0.14796 0.55052 0.0
H964 H 0.47606 0.22356 0.56252 0.0
H965 H 0.45231 0.18096 0.70563 0.0
C966 C 0.43652 0.20713 0.7427 0.0
C967 C 0.4297 0.22784 0.7361 0.0
C968 C 0.47285 0.20694 0.55987 0.0
C969 C 0.45253 0.20806 0.65102 0.0
C970 C 0.48 0.1955 0.51345 0.0
C971 C 0.47536 0.17406 0.50854 0.0
C972 C 0.46157 0.19669 0.60225 0.0
C973 C 0.46423 0.16449 0.5521 0.0
C974 C 0.44791 0.19723 0.70048 0.0
C975 C 0.43546 0.23852 0.68728 0.0
N976 N 0.45783 0.17579 0.59694 0.0
N977 N 0.44648 0.2285 0.6464 0.0
H978 H 0.02835 0.20193 1.00371 0.0
H979 H 0.08072 0.17784 0.70627 0.0
H980 H 0.04129 0.14069 0.9369 0.0
H981 H 0.07726 0.24066 0.7714 0.0
H982 H 0.06081 0.1653 0.78561 0.0
H983 H 0.0408 0.21758 0.91533 0.0
C984 C 0.03331 0.1918 0.97004 0.0
C985 C 0.03381 0.16998 0.97758 0.0
C986 C 0.06422 0.18188 0.78281 0.0
C987 C 0.04816 0.18764 0.87709 0.0
C988 C 0.07562 0.18909 0.73721 0.0
C989 C 0.0809 0.21033 0.73219 0.0
C990 C 0.05805 0.19588 0.82487 0.0
C991 C 0.07356 0.22414 0.77354 0.0
C992 C 0.04058 0.20072 0.91988 0.0
C993 C 0.04071 0.15758 0.93304 0.0
N994 N 0.06272 0.21664 0.81856 0.0
N995 N 0.04762 0.16653 0.88519 0.0
H996 H 0.07685 0.8309 0.9691 0.0
H997 H 0.0595 0.7733 0.26338 0.0
H998 H 0.01525 0.82677 0.04191 0.0
H999 H 0.11866 0.79392 0.19635 0.0
H1000 H 0.04184 0.78643 0.17809 0.0
H1001 H 0.09095 0.81033 0.04552 0.0
C1002 C 0.06618 0.82536 1.00097 0.0
C1003 C 0.04484 0.83066 0.99901 0.0
C1004 C 0.05871 0.78783 0.18202 0.0
C1005 C 0.06115 0.80727 0.08872 0.0
C1006 C 0.06879 0.78021 0.23043 0.0
C1007 C 0.0906 0.78258 0.23709 0.0
C1008 C 0.07064 0.79749 0.13981 0.0
C1009 C 0.10183 0.79186 0.19336 0.0
C1010 C 0.07429 0.81366 0.045 0.0
C1011 C 0.03179 0.82293 0.04158 0.0
N1012 N 0.09179 0.7989 0.1471 0.0
N1013 N 0.0402 0.81183 0.08521 0.0
H1014 H 0.4529 0.79353 0.22458 0.0
H1015 H 0.48152 0.80637 0.5493 0.0
H1016 H 0.42073 0.76011 0.35469 0.0
H1017 H 0.48706 0.85644 0.43004 0.0
H1018 H 0.46864 0.78326 0.4743 0.0
H1019 H 0.47498 0.81056 0.29582 0.0
C1020 C 0.45097 0.78928 0.26794 0.0
C1021 C 0.43508 0.77533 0.28386 0.0
C1022 C 0.47311 0.79919 0.46447 0.0
C1023 C 0.46012 0.79471 0.36538 0.0
C1024 C 0.48062 0.8123 0.5071 0.0
C1025 C 0.48536 0.83333 0.4958 0.0
C1026 C 0.47075 0.80708 0.41004 0.0
C1027 C 0.48354 0.84033 0.44051 0.0
C1028 C 0.4634 0.79913 0.30858 0.0
C1029 C 0.43289 0.77073 0.34077 0.0
N1030 N 0.47638 0.8273 0.39982 0.0
N1031 N 0.44519 0.78039 0.37943 0.0
H1032 H 0.58892 0.87912 0.52749 0.0
H1033 H 0.60712 0.78269 0.32232 0.0
H1034 H 0.57394 0.81498 0.56578 0.0
H1035 H 0.61118 0.84704 0.26893 0.0
H1036 H 0.60203 0.79434 0.41748 0.0
H1037 H 0.60478 0.86764 0.43948 0.0
C1038 C 0.58961 0.86256 0.51802 0.0
C1039 C 0.58012 0.84788 0.55335 0.0
C1040 C 0.60403 0.80599 0.38513 0.0
C1041 C 0.59772 0.83475 0.45324 0.0
C1042 C 0.60669 0.79934 0.33061 0.0
C1043 C 0.60888 0.81399 0.28749 0.0
C1044 C 0.60347 0.82748 0.39692 0.0
C1045 C 0.60921 0.83533 0.30106 0.0
C1046 C 0.59841 0.85605 0.4677 0.0
C1047 C 0.58104 0.82668 0.53919 0.0
N1048 N 0.60626 0.8415 0.35472 0.0
N1049 N 0.58949 0.82075 0.48995 0.0
H1050 H 0.89114 0.78849 0.19755 0.0
H1051 H 0.93429 0.88338 0.01661 0.0
H1052 H 0.91488 0.84477 0.27444 0.0
H1053 H 0.94507 0.81843 0.97808 0.0
H1054 H 0.91538 0.87277 0.10157 0.0
H1055 H 0.89828 0.80349 0.10613 0.0
C1056 C 0.89765 0.80412 0.19513 0.0
C1057 C 0.90317 0.81517 0.24346 0.0
C1058 C 0.92159 0.86092 0.07385 0.0
C1059 C 0.91086 0.83246 0.13938 0.0
C1060 C 0.93222 0.86691 0.02572 0.0
C1061 C 0.94114 0.85163 0.9912 0.0
C1062 C 0.91955 0.83957 0.08614 0.0
C1063 C 0.93841 0.83051 1.00428 0.0
C1064 C 0.90158 0.81266 0.14307 0.0
C1065 C 0.91071 0.83569 0.23807 0.0
N1066 N 0.9278 0.82505 0.0509 0.0
N1067 N 0.9147 0.84363 0.18664 0.0
H1068 H 0.89486 0.21972 0.80597 0.0
H1069 H 0.93648 0.12432 0.98894 0.0
H1070 H 0.9268 0.16627 0.73553 0.0
H1071 H 0.93399 0.1881 0.04639 0.0
H1072 H 0.92108 0.13545 0.89965 0.0
H1073 H 0.89773 0.20386 0.89774 0.0
C1074 C 0.90251 0.20467 0.80961 0.0
C1075 C 0.91126 0.19463 0.76306 0.0
C1076 C 0.92342 0.14687 0.93241 0.0
C1077 C 0.91389 0.17616 0.86794 0.0
C1078 C 0.93196 0.14053 0.98318 0.0
C1079 C 0.93636 0.15544 0.02432 0.0
C1080 C 0.91908 0.16815 0.92367 0.0
C1081 C 0.93072 0.1763 0.01522 0.0
C1082 C 0.9039 0.19555 0.86201 0.0
C1083 C 0.92006 0.17466 0.77029 0.0
N1084 N 0.92245 0.18212 0.96557 0.0
N1085 N 0.92138 0.16615 0.82202 0.0
H1086 H 0.60307 0.17225 0.49628 0.0
H1087 H 0.57692 0.17471 0.8134 0.0
H1088 H 0.54947 0.13997 0.56463 0.0
H1089 H 0.64022 0.18228 0.75488 0.0
H1090 H 0.56712 0.15973 0.72319 0.0
H1091 H 0.61811 0.17438 0.59009 0.0
C1092 C 0.5946 0.16541 0.53081 0.0
C1093 C 0.57472 0.1565 0.52283 0.0
C1094 C 0.58331 0.1641 0.73041 0.0
C1095 C 0.59168 0.15893 0.62981 0.0
C1096 C 0.58884 0.17249 0.78185 0.0
C1097 C 0.60933 0.17942 0.7911 0.0
C1098 C 0.59829 0.16334 0.68756 0.0
C1099 C 0.62431 0.17675 0.74905 0.0
C1100 C 0.60318 0.16658 0.58426 0.0
C1101 C 0.56444 0.14775 0.56903 0.0
N1102 N 0.6184 0.16932 0.69842 0.0
N1103 N 0.57289 0.14948 0.6206 0.0
H1104 H 0.93535 0.67503 0.96213 0.0
H1105 H 0.95877 0.73127 0.25516 0.0
H1106 H 0.99881 0.68139 0.02206 0.0
H1107 H 0.89934 0.706 0.20191 0.0
H1108 H 0.97439 0.71947 0.1659 0.0
H1109 H 0.92274 0.69344 0.04383 0.0
C1110 C 0.94672 0.6805 0.9924 0.0
C1111 C 0.96818 0.67642 0.98526 0.0
C1112 C 0.95791 0.7167 0.17388 0.0
C1113 C 0.95364 0.69751 0.08074 0.0
C1114 C 0.94898 0.72353 0.22456 0.0
C1115 C 0.92773 0.71949 0.23624 0.0
C1116 C 0.94534 0.70618 0.13445 0.0
C1117 C 0.91581 0.70929 0.19523 0.0
C1118 C 0.93947 0.691 0.03939 0.0
C1119 C 0.98213 0.6842 0.02583 0.0
N1120 N 0.92472 0.70308 0.14668 0.0
N1121 N 0.9746 0.69418 0.0723 0.0
H1122 H 0.56696 0.71051 0.22183 0.0
H1123 H 0.54062 0.6982 0.54785 0.0
H1124 H 0.60146 0.74217 0.35107 0.0
H1125 H 0.53075 0.64921 0.4274 0.0
H1126 H 0.5537 0.72103 0.47261 0.0
H1127 H 0.54436 0.69463 0.29365 0.0
C1128 C 0.56931 0.71464 0.26514 0.0
C1129 C 0.58598 0.72772 0.28066 0.0
C1130 C 0.54821 0.70543 0.46258 0.0
C1131 C 0.56038 0.70964 0.36281 0.0
C1132 C 0.54058 0.6925 0.50538 0.0
C1133 C 0.53459 0.67182 0.49374 0.0
C1134 C 0.54947 0.69771 0.40774 0.0
C1135 C 0.53524 0.66506 0.43809 0.0
C1136 C 0.55658 0.70544 0.30611 0.0
C1137 C 0.58869 0.73221 0.33748 0.0
N1138 N 0.54259 0.6779 0.39727 0.0
N1139 N 0.5761 0.72317 0.37647 0.0
H1140 H 0.5176 0.34227 0.59665 0.0
H1141 H 0.60531 0.25853 0.65519 0.0
H1142 H 0.54509 0.30577 0.46476 0.0
H1143 H 0.5631 0.27963 0.78336 0.0
H1144 H 0.58189 0.2733 0.58455 0.0
H1145 H 0.53203 0.31777 0.66499 0.0
C1146 C 0.52636 0.32881 0.58206 0.0
C1147 C 0.53019 0.32606 0.52496 0.0
C1148 C 0.57744 0.27431 0.62796 0.0
C1149 C 0.54732 0.29816 0.60328 0.0
C1150 C 0.59078 0.26581 0.66835 0.0
C1151 C 0.58611 0.26779 0.72523 0.0
C1152 C 0.55949 0.28544 0.64448 0.0
C1153 C 0.56719 0.27756 0.73997 0.0
C1154 C 0.53461 0.31481 0.62113 0.0
C1155 C 0.54166 0.30838 0.50834 0.0
N1156 N 0.55479 0.28639 0.69994 0.0
N1157 N 0.55018 0.29533 0.54738 0.0
H1158 H 0.98297 0.36858 0.92542 0.0
H1159 H 0.93857 0.26535 0.77474 0.0
H1160 H 0.98539 0.30821 1.0051 0.0
H1161 H 0.93369 0.32845 0.71213 0.0
H1162 H 0.95978 0.27865 0.85348 0.0
H1163 H 0.96984 0.35214 0.84097 0.0
C1164 C 0.98107 0.35171 0.92469 0.0
C1165 C 0.98532 0.33977 0.97231 0.0
C1166 C 0.95421 0.28949 0.82209 0.0
C1167 C 0.96946 0.32063 0.8755 0.0
C1168 C 0.9422 0.2819 0.77702 0.0
C1169 C 0.93417 0.29583 0.73688 0.0
C1170 C 0.95838 0.31109 0.82652 0.0
C1171 C 0.93928 0.31711 0.74221 0.0
C1172 C 0.97341 0.34229 0.87643 0.0
C1173 C 0.98249 0.31796 0.96903 0.0
N1174 N 0.9509 0.32401 0.78594 0.0
N1175 N 0.97444 0.30908 0.92165 0.0
H1176 H 0.11951 0.28622 0.8032 0.0
H1177 H 0.08149 0.38316 0.98558 0.0
H1178 H 0.08853 0.34032 0.733 0.0
H1179 H 0.08357 0.31965 0.04534 0.0
H1180 H 0.09581 0.37133 0.89585 0.0
H1181 H 0.11755 0.30229 0.8948 0.0
C1182 C 0.11222 0.30144 0.80686 0.0
C1183 C 0.10351 0.31164 0.76041 0.0
C1184 C 0.09363 0.36012 0.92918 0.0
C1185 C 0.10196 0.33036 0.86513 0.0
C1186 C 0.08572 0.36686 0.98023 0.0
C1187 C 0.08149 0.35224 0.02221 0.0
C1188 C 0.0975 0.33872 0.92092 0.0
C1189 C 0.08672 0.33124 0.01355 0.0
C1190 C 0.11137 0.31069 0.85917 0.0
C1191 C 0.09522 0.33181 0.76768 0.0
N1192 N 0.09436 0.32503 0.96357 0.0
N1193 N 0.09443 0.34046 0.81932 0.0
H1194 H 0.44506 0.31795 0.78672 0.0
H1195 H 0.41389 0.35177 0.47792 0.0
H1196 H 0.38099 0.32848 0.73716 0.0
H1197 H 0.4772 0.34675 0.54016 0.0
H1198 H 0.40083 0.34646 0.57354 0.0
H1199 H 0.45687 0.33234 0.69811 0.0
C1200 C 0.43355 0.32374 0.75727 0.0
C1201 C 0.41214 0.32209 0.76873 0.0
C1202 C 0.41757 0.34661 0.56602 0.0
C1203 C 0.42527 0.33796 0.66665 0.0
C1204 C 0.42495 0.34954 0.51166 0.0
C1205 C 0.44655 0.34901 0.50103 0.0
C1206 C 0.43201 0.34335 0.60955 0.0
C1207 C 0.46038 0.34647 0.54605 0.0
C1208 C 0.4402 0.33186 0.70665 0.0
C1209 C 0.39767 0.32971 0.72961 0.0
N1210 N 0.45287 0.34362 0.59807 0.0
N1211 N 0.40449 0.33703 0.67964 0.0
H1212 H 0.44467 0.68961 0.57084 0.0
H1213 H 0.41196 0.65509 0.26489 0.0
H1214 H 0.43454 0.62521 0.52537 0.0
H1215 H 0.41541 0.71909 0.3215 0.0
H1216 H 0.41633 0.64332 0.36178 0.0
H1217 H 0.42923 0.7006 0.48246 0.0
C1218 C 0.43861 0.67786 0.54254 0.0
C1219 C 0.44079 0.65659 0.55488 0.0
C1220 C 0.41601 0.65994 0.35283 0.0
C1221 C 0.42389 0.66876 0.45302 0.0
C1222 C 0.41361 0.66659 0.29771 0.0
C1223 C 0.41399 0.68801 0.2851 0.0
C1224 C 0.41866 0.67489 0.39527 0.0
C1225 C 0.41585 0.7024 0.32899 0.0
C1226 C 0.42995 0.68404 0.49201 0.0
C1227 C 0.43291 0.64179 0.51715 0.0
N1228 N 0.41827 0.69557 0.38192 0.0
N1229 N 0.42515 0.64814 0.46719 0.0
H1230 H 0.08453 0.65827 0.27951 0.0
H1231 H 0.097 0.67397 0.95414 0.0
H1232 H 0.12869 0.70061 0.20341 0.0
H1233 H 0.05114 0.63351 0.0305 0.0
H1234 H 0.11487 0.67708 0.04394 0.0
H1235 H 0.0784 0.64214 0.18856 0.0
C1236 C 0.09324 0.66386 0.24381 0.0
C1237 C 0.10661 0.68116 0.24834 0.0
C1238 C 0.10105 0.66728 0.04087 0.0
C1239 C 0.09958 0.66312 0.14456 0.0
C1240 C 0.09091 0.66549 0.98964 0.0
C1241 C 0.07225 0.65403 0.98551 0.0
C1242 C 0.09234 0.65758 0.08806 0.0
C1243 C 0.06506 0.64316 0.03252 0.0
C1244 C 0.0897 0.65474 0.1919 0.0
C1245 C 0.11766 0.68776 0.20107 0.0
N1246 N 0.07494 0.64547 0.08211 0.0
N1247 N 0.11364 0.67896 0.15087 0.0
loop_
_geom_bond_atom_site_label_1
_geom_bond_atom_site_label_2
_geom_bond_distance
_geom_bond_site_symmetry_2
_ccdc_geom_bond_type
C0 C1 1.351 . S
C0 N3 1.368 . S
C0 H5 0.931 . S
C1 C0 1.351 . S
C1 N2 1.373 . S
C1 H29 0.930 . S
N2 C1 1.373 . S
N2 C4 1.340 . S
N3 C0 1.368 . S
N3 C4 1.321 . S
N3 Co6 2.135 . S
C4 N2 1.340 . S
C4 N3 1.321 . S
C4 H28 0.930 . S
H5 C0 0.931 . S
Co6 N3 2.135 . S
Co6 N9 2.121 . S
Co6 O14 2.055 . S
Co6 O17 2.039 . S
Co6 N20 2.140 . S
C7 O8 1.227 . S
C7 O17 1.265 . S
O8 C7 1.227 . S
N9 Co6 2.121 . S
N9 C11 1.375 . S
N9 C12 1.313 . S
C10 C11 1.338 . S
C10 N13 1.377 . S
C10 H30 0.930 . S
C11 N9 1.375 . S
C11 C10 1.338 . S
C11 H15 0.931 . S
C12 N9 1.313 . S
C12 N13 1.344 . S
C12 H16 0.930 . S
N13 C10 1.377 . S
N13 C12 1.344 . S
O14 Co6 2.055 . S
O14 C18 1.253 . S
H15 C11 0.931 . S
H16 C12 0.930 . S
O17 Co6 2.039 . S
O17 C7 1.265 . S
C18 O14 1.253 . S
C18 O19 1.227 . S
O19 C18 1.227 . S
N20 Co6 2.140 . S
N20 C23 1.346 . S
N20 C24 1.345 . S
C21 C22 1.387 . S
C21 C25 1.391 . S
C22 C21 1.387 . S
C22 C23 1.369 . S
C22 H31 0.929 . S
C23 N20 1.346 . S
C23 C22 1.369 . S
C23 H26 0.928 . S
C24 N20 1.345 . S
C24 C25 1.371 . S
C24 H27 0.931 . S
C25 C21 1.391 . S
C25 C24 1.371 . S
C25 H32 0.930 . S
H26 C23 0.928 . S
H27 C24 0.931 . S
H28 C4 0.930 . S
H29 C1 0.930 . S
H30 C10 0.930 . S
H31 C22 0.929 . S
H32 C25 0.930 . S
C33 C34 1.351 . S
C33 N36 1.368 . S
C33 H38 0.931 . S
C34 C33 1.351 . S
C34 N35 1.373 . S
C34 H62 0.930 . S
N35 C34 1.373 . S
N35 C37 1.340 . S
N36 C33 1.368 . S
N36 C37 1.321 . S
N36 Co39 2.135 . S
C37 N35 1.340 . S
C37 N36 1.321 . S
C37 H61 0.930 . S
H38 C33 0.931 . S
Co39 N36 2.135 . S
Co39 N42 2.121 . S
Co39 O47 2.055 . S
Co39 O50 2.039 . S
Co39 N53 2.140 . S
C40 O41 1.227 . S
C40 O50 1.265 . S
O41 C40 1.227 . S
N42 Co39 2.121 . S
N42 C44 1.375 . S
N42 C45 1.313 . S
C43 C44 1.338 . S
C43 N46 1.377 . S
C43 H63 0.930 . S
C44 N42 1.375 . S
C44 C43 1.338 . S
C44 H48 0.931 . S
C45 N42 1.313 . S
C45 N46 1.344 . S
C45 H49 0.930 . S
N46 C43 1.377 . S
N46 C45 1.344 . S
O47 Co39 2.055 . S
O47 C51 1.253 . S
H48 C44 0.931 . S
H49 C45 0.930 . S
O50 Co39 2.039 . S
O50 C40 1.265 . S
C51 O47 1.253 . S
C51 O52 1.227 . S
O52 C51 1.227 . S
N53 Co39 2.140 . S
N53 C56 1.346 . S
N53 C57 1.345 . S
C54 C55 1.387 . S
C54 C58 1.391 . S
C55 C54 1.387 . S
C55 C56 1.369 . S
C55 H64 0.929 . S
C56 N53 1.346 . S
C56 C55 1.369 . S
C56 H59 0.928 . S
C57 N53 1.345 . S
C57 C58 1.371 . S
C57 H60 0.931 . S
C58 C54 1.391 . S
C58 C57 1.371 . S
C58 H65 0.930 . S
H59 C56 0.928 . S
H60 C57 0.931 . S
H61 C37 0.930 . S
H62 C34 0.930 . S
H63 C43 0.930 . S
H64 C55 0.929 . S
H65 C58 0.930 . S
C66 C67 1.351 . S
C66 N69 1.368 . S
C66 H71 0.931 . S
C67 C66 1.351 . S
C67 N68 1.373 1_556 S
C67 H95 0.930 . S
N68 C67 1.373 1_554 S
N68 C70 1.340 1_554 S
N69 C66 1.368 . S
N69 C70 1.321 . S
N69 Co72 2.135 1_655 S
C70 N68 1.340 1_556 S
C70 N69 1.321 . S
C70 H94 0.930 1_556 S
H71 C66 0.931 . S
Co72 N69 2.135 1_455 S
Co72 N75 2.121 . S
Co72 O80 2.055 1_455 S
Co72 O83 2.039 . S
Co72 N86 2.140 . S
C73 O74 1.227 . S
C73 O83 1.265 . S
O74 C73 1.227 . S
N75 Co72 2.121 . S
N75 C77 1.375 . S
N75 C78 1.313 . S
C76 C77 1.338 . S
C76 N79 1.377 . S
C76 H96 0.930 . S
C77 N75 1.375 . S
C77 C76 1.338 . S
C77 H81 0.931 . S
C78 N75 1.313 . S
C78 N79 1.344 . S
C78 H82 0.930 . S
N79 C76 1.377 . S
N79 C78 1.344 . S
O80 Co72 2.055 1_655 S
O80 C84 1.253 . S
H81 C77 0.931 . S
H82 C78 0.930 . S
O83 Co72 2.039 . S
O83 C73 1.265 . S
C84 O80 1.253 . S
C84 O85 1.227 . S
O85 C84 1.227 . S
N86 Co72 2.140 . S
N86 C89 1.346 . S
N86 C90 1.345 . S
C87 C88 1.387 . S
C87 C91 1.391 . S
C88 C87 1.387 . S
C88 C89 1.369 . S
C88 H97 0.929 . S
C89 N86 1.346 . S
C89 C88 1.369 . S
C89 H92 0.928 . S
C90 N86 1.345 . S
C90 C91 1.371 . S
C90 H93 0.931 . S
C91 C87 1.391 . S
C91 C90 1.371 . S
C91 H98 0.930 . S
H92 C89 0.928 . S
H93 C90 0.931 . S
H94 C70 0.930 1_554 S
H95 C67 0.930 . S
H96 C76 0.930 . S
H97 C88 0.929 . S
H98 C91 0.930 . S
C99 C100 1.351 . S
C99 N102 1.368 . S
C99 H104 0.931 . S
C100 C99 1.351 . S
C100 N101 1.373 . S
C100 H128 0.930 . S
N101 C100 1.373 . S
N101 C103 1.340 . S
N102 C99 1.368 . S
N102 C103 1.321 . S
N102 Co105 2.135 . S
C103 N101 1.340 . S
C103 N102 1.321 . S
C103 H127 0.930 . S
H104 C99 0.931 . S
Co105 N102 2.135 . S
Co105 N108 2.121 . S
Co105 O113 2.055 . S
Co105 O116 2.039 . S
Co105 N119 2.140 . S
C106 O107 1.227 . S
C106 O116 1.265 . S
O107 C106 1.227 . S
N108 Co105 2.121 . S
N108 C110 1.375 . S
N108 C111 1.313 . S
C109 C110 1.338 . S
C109 N112 1.377 . S
C109 H129 0.930 . S
C110 N108 1.375 . S
C110 C109 1.338 . S
C110 H114 0.931 . S
C111 N108 1.313 . S
C111 N112 1.344 . S
C111 H115 0.930 . S
N112 C109 1.377 . S
N112 C111 1.344 . S
O113 Co105 2.055 . S
O113 C117 1.253 . S
H114 C110 0.931 . S
H115 C111 0.930 . S
O116 Co105 2.039 . S
O116 C106 1.265 . S
C117 O113 1.253 . S
C117 O118 1.227 . S
O118 C117 1.227 . S
N119 Co105 2.140 . S
N119 C122 1.346 . S
N119 C123 1.345 . S
C120 C121 1.387 . S
C120 C124 1.391 . S
C121 C120 1.387 . S
C121 C122 1.369 . S
C121 H130 0.929 . S
C122 N119 1.346 . S
C122 C121 1.369 . S
C122 H125 0.928 . S
C123 N119 1.345 . S
C123 C124 1.371 . S
C123 H126 0.931 . S
C124 C120 1.391 . S
C124 C123 1.371 . S
C124 H131 0.930 . S
H125 C122 0.928 . S
H126 C123 0.931 . S
H127 C103 0.930 . S
H128 C100 0.930 . S
H129 C109 0.930 . S
H130 C121 0.929 . S
H131 C124 0.930 . S
C132 C133 1.351 . S
C132 N135 1.368 . S
C132 H137 0.931 . S
C133 C132 1.351 . S
C133 N134 1.373 . S
C133 H161 0.930 . S
N134 C133 1.373 . S
N134 C136 1.340 . S
N135 C132 1.368 . S
N135 C136 1.321 . S
N135 Co138 2.135 . S
C136 N134 1.340 . S
C136 N135 1.321 . S
C136 H160 0.930 . S
H137 C132 0.931 . S
Co138 N135 2.135 . S
Co138 N141 2.121 . S
Co138 O146 2.055 . S
Co138 O149 2.039 . S
Co138 N152 2.140 . S
C139 O140 1.227 . S
C139 O149 1.265 . S
O140 C139 1.227 . S
N141 Co138 2.121 . S
N141 C143 1.375 . S
N141 C144 1.313 . S
C142 C143 1.338 . S
C142 N145 1.377 . S
C142 H162 0.930 . S
C143 N141 1.375 . S
C143 C142 1.338 . S
C143 H147 0.931 . S
C144 N141 1.313 . S
C144 N145 1.344 . S
C144 H148 0.930 . S
N145 C142 1.377 . S
N145 C144 1.344 . S
O146 Co138 2.055 . S
O146 C150 1.253 . S
H147 C143 0.931 . S
H148 C144 0.930 . S
O149 Co138 2.039 . S
O149 C139 1.265 . S
C150 O146 1.253 . S
C150 O151 1.227 . S
O151 C150 1.227 . S
N152 Co138 2.140 . S
N152 C155 1.346 . S
N152 C156 1.345 . S
C153 C154 1.387 . S
C153 C157 1.391 . S
C154 C153 1.387 . S
C154 C155 1.369 . S
C154 H163 0.929 . S
C155 N152 1.346 . S
C155 C154 1.369 . S
C155 H158 0.928 . S
C156 N152 1.345 . S
C156 C157 1.371 . S
C156 H159 0.931 . S
C157 C153 1.391 . S
C157 C156 1.371 . S
C157 H164 0.930 . S
H158 C155 0.928 . S
H159 C156 0.931 . S
H160 C136 0.930 . S
H161 C133 0.930 . S
H162 C142 0.930 . S
H163 C154 0.929 . S
H164 C157 0.930 . S
C165 C166 1.351 . S
C165 N168 1.368 . S
C165 H170 0.931 . S
C166 C165 1.351 . S
C166 N167 1.373 . S
C166 H194 0.930 . S
N167 C166 1.373 . S
N167 C169 1.340 . S
N168 C165 1.368 . S
N168 C169 1.321 . S
N168 Co171 2.135 . S
C169 N167 1.340 . S
C169 N168 1.321 . S
C169 H193 0.930 . S
H170 C165 0.931 . S
Co171 N168 2.135 . S
Co171 N174 2.121 . S
Co171 O179 2.055 . S
Co171 O182 2.039 . S
Co171 N185 2.140 . S
C172 O173 1.227 . S
C172 O182 1.265 . S
O173 C172 1.227 . S
N174 Co171 2.121 . S
N174 C176 1.375 . S
N174 C177 1.313 . S
C175 C176 1.338 . S
C175 N178 1.377 . S
C175 H195 0.930 . S
C176 N174 1.375 . S
C176 C175 1.338 . S
C176 H180 0.931 . S
C177 N174 1.313 . S
C177 N178 1.344 . S
C177 H181 0.930 . S
N178 C175 1.377 . S
N178 C177 1.344 . S
O179 Co171 2.055 . S
O179 C183 1.253 . S
H180 C176 0.931 . S
H181 C177 0.930 . S
O182 Co171 2.039 . S
O182 C172 1.265 . S
C183 O179 1.253 . S
C183 O184 1.227 . S
O184 C183 1.227 . S
N185 Co171 2.140 . S
N185 C188 1.346 . S
N185 C189 1.345 . S
C186 C187 1.387 . S
C186 C190 1.391 . S
C187 C186 1.387 . S
C187 C188 1.369 . S
C187 H196 0.929 . S
C188 N185 1.346 . S
C188 C187 1.369 . S
C188 H191 0.928 . S
C189 N185 1.345 . S
C189 C190 1.371 . S
C189 H192 0.931 . S
C190 C186 1.391 . S
C190 C189 1.371 . S
C190 H197 0.930 . S
H191 C188 0.928 . S
H192 C189 0.931 . S
H193 C169 0.930 . S
H194 C166 0.930 . S
H195 C175 0.930 . S
H196 C187 0.929 . S
H197 C190 0.930 . S
C198 C199 1.351 . S
C198 N201 1.368 . S
C198 H203 0.931 . S
C199 C198 1.351 . S
C199 N200 1.373 1_554 S
C199 H227 0.930 . S
N200 C199 1.373 1_556 S
N200 C202 1.340 1_556 S
N201 C198 1.368 . S
N201 C202 1.321 . S
N201 Co204 2.135 1_655 S
C202 N200 1.340 1_554 S
C202 N201 1.321 . S
C202 H226 0.930 1_554 S
H203 C198 0.931 . S
Co204 N201 2.135 1_455 S
Co204 N207 2.121 . S
Co204 O212 2.055 1_455 S
Co204 O215 2.039 . S
Co204 N218 2.140 . S
C205 O206 1.227 . S
C205 O215 1.265 . S
O206 C205 1.227 . S
N207 Co204 2.121 . S
N207 C209 1.375 . S
N207 C210 1.313 . S
C208 C209 1.338 . S
C208 N211 1.377 . S
C208 H228 0.930 . S
C209 N207 1.375 . S
C209 C208 1.338 . S
C209 H213 0.931 . S
C210 N207 1.313 . S
C210 N211 1.344 . S
C210 H214 0.930 . S
N211 C208 1.377 . S
N211 C210 1.344 . S
O212 Co204 2.055 1_655 S
O212 C216 1.253 . S
H213 C209 0.931 . S
H214 C210 0.930 . S
O215 Co204 2.039 . S
O215 C205 1.265 . S
C216 O212 1.253 . S
C216 O217 1.227 . S
O217 C216 1.227 . S
N218 Co204 2.140 . S
N218 C221 1.346 . S
N218 C222 1.345 . S
C219 C220 1.387 . S
C219 C223 1.391 . S
C220 C219 1.387 . S
C220 C221 1.369 . S
C220 H229 0.929 . S
C221 N218 1.346 . S
C221 C220 1.369 . S
C221 H224 0.928 . S
C222 N218 1.345 . S
C222 C223 1.371 . S
C222 H225 0.931 . S
C223 C219 1.391 . S
C223 C222 1.371 . S
C223 H230 0.930 . S
H224 C221 0.928 . S
H225 C222 0.931 . S
H226 C202 0.930 1_556 S
H227 C199 0.930 . S
H228 C208 0.930 . S
H229 C220 0.929 . S
H230 C223 0.930 . S
C231 C232 1.351 . S
C231 N234 1.368 . S
C231 H236 0.931 . S
C232 C231 1.351 . S
C232 N233 1.373 . S
C232 H260 0.930 . S
N233 C232 1.373 . S
N233 C235 1.340 . S
N234 C231 1.368 . S
N234 C235 1.321 . S
N234 Co237 2.135 . S
C235 N233 1.340 . S
C235 N234 1.321 . S
C235 H259 0.930 . S
H236 C231 0.931 . S
Co237 N234 2.135 . S
Co237 N240 2.121 . S
Co237 O245 2.055 . S
Co237 O248 2.039 . S
Co237 N251 2.140 . S
C238 O239 1.227 . S
C238 O248 1.265 . S
O239 C238 1.227 . S
N240 Co237 2.121 . S
N240 C242 1.375 . S
N240 C243 1.313 . S
C241 C242 1.338 . S
C241 N244 1.377 . S
C241 H261 0.930 . S
C242 N240 1.375 . S
C242 C241 1.338 . S
C242 H246 0.931 . S
C243 N240 1.313 . S
C243 N244 1.344 . S
C243 H247 0.930 . S
N244 C241 1.377 . S
N244 C243 1.344 . S
O245 Co237 2.055 . S
O245 C249 1.253 . S
H246 C242 0.931 . S
H247 C243 0.930 . S
O248 Co237 2.039 . S
O248 C238 1.265 . S
C249 O245 1.253 . S
C249 O250 1.227 . S
O250 C249 1.227 . S
N251 Co237 2.140 . S
N251 C254 1.346 . S
N251 C255 1.345 . S
C252 C253 1.387 . S
C252 C256 1.391 . S
C253 C252 1.387 . S
C253 C254 1.369 . S
C253 H262 0.929 . S
C254 N251 1.346 . S
C254 C253 1.369 . S
C254 H257 0.928 . S
C255 N251 1.345 . S
C255 C256 1.371 . S
C255 H258 0.931 . S
C256 C252 1.391 . S
C256 C255 1.371 . S
C256 H263 0.930 . S
H257 C254 0.928 . S
H258 C255 0.931 . S
H259 C235 0.930 . S
H260 C232 0.930 . S
H261 C241 0.930 . S
H262 C253 0.929 . S
H263 C256 0.930 . S
C264 C265 1.351 . S
C264 N267 1.368 . S
C264 H269 0.931 . S
C265 C264 1.351 . S
C265 N266 1.373 . S
C265 H293 0.930 . S
N266 C265 1.373 . S
N266 C268 1.340 . S
N267 C264 1.368 . S
N267 C268 1.321 . S
N267 Co270 2.135 . S
C268 N266 1.340 . S
C268 N267 1.321 . S
C268 H292 0.930 . S
H269 C264 0.931 . S
Co270 N267 2.135 . S
Co270 N273 2.121 . S
Co270 O278 2.055 . S
Co270 O281 2.039 . S
Co270 N284 2.140 . S
C271 O272 1.227 . S
C271 O281 1.265 . S
O272 C271 1.227 . S
N273 Co270 2.121 . S
N273 C275 1.375 . S
N273 C276 1.313 . S
C274 C275 1.338 . S
C274 N277 1.377 . S
C274 H294 0.930 . S
C275 N273 1.375 . S
C275 C274 1.338 . S
C275 H279 0.931 . S
C276 N273 1.313 . S
C276 N277 1.344 . S
C276 H280 0.930 . S
N277 C274 1.377 . S
N277 C276 1.344 . S
O278 Co270 2.055 . S
O278 C282 1.253 . S
H279 C275 0.931 . S
H280 C276 0.930 . S
O281 Co270 2.039 . S
O281 C271 1.265 . S
C282 O278 1.253 . S
C282 O283 1.227 . S
O283 C282 1.227 . S
N284 Co270 2.140 . S
N284 C287 1.346 . S
N284 C288 1.345 . S
C285 C286 1.387 . S
C285 C289 1.391 . S
C286 C285 1.387 . S
C286 C287 1.369 . S
C286 H295 0.929 . S
C287 N284 1.346 . S
C287 C286 1.369 . S
C287 H290 0.928 . S
C288 N284 1.345 . S
C288 C289 1.371 . S
C288 H291 0.931 . S
C289 C285 1.391 . S
C289 C288 1.371 . S
C289 H296 0.930 . S
H290 C287 0.928 . S
H291 C288 0.931 . S
H292 C268 0.930 . S
H293 C265 0.930 . S
H294 C274 0.930 . S
H295 C286 0.929 . S
H296 C289 0.930 . S
C297 C298 1.351 . S
C297 N300 1.368 . S
C297 H302 0.931 . S
C298 C297 1.351 . S
C298 N299 1.373 . S
C298 H326 0.930 . S
N299 C298 1.373 . S
N299 C301 1.340 . S
N300 C297 1.368 . S
N300 C301 1.321 . S
N300 Co303 2.135 . S
C301 N299 1.340 . S
C301 N300 1.321 . S
C301 H325 0.930 . S
H302 C297 0.931 . S
Co303 N300 2.135 . S
Co303 N306 2.121 . S
Co303 O311 2.055 . S
Co303 O314 2.039 . S
Co303 N317 2.140 . S
C304 O305 1.227 . S
C304 O314 1.265 . S
O305 C304 1.227 . S
N306 Co303 2.121 . S
N306 C308 1.375 . S
N306 C309 1.313 . S
C307 C308 1.338 . S
C307 N310 1.377 . S
C307 H327 0.930 . S
C308 N306 1.375 . S
C308 C307 1.338 . S
C308 H312 0.931 . S
C309 N306 1.313 . S
C309 N310 1.344 . S
C309 H313 0.930 . S
N310 C307 1.377 . S
N310 C309 1.344 . S
O311 Co303 2.055 . S
O311 C315 1.253 . S
H312 C308 0.931 . S
H313 C309 0.930 . S
O314 Co303 2.039 . S
O314 C304 1.265 . S
C315 O311 1.253 . S
C315 O316 1.227 . S
O316 C315 1.227 . S
N317 Co303 2.140 . S
N317 C320 1.346 . S
N317 C321 1.345 . S
C318 C319 1.387 . S
C318 C322 1.391 . S
C319 C318 1.387 . S
C319 C320 1.369 . S
C319 H328 0.929 . S
C320 N317 1.346 . S
C320 C319 1.369 . S
C320 H323 0.928 . S
C321 N317 1.345 . S
C321 C322 1.371 . S
C321 H324 0.931 . S
C322 C318 1.391 . S
C322 C321 1.371 . S
C322 H329 0.930 . S
H323 C320 0.928 . S
H324 C321 0.931 . S
H325 C301 0.930 . S
H326 C298 0.930 . S
H327 C307 0.930 . S
H328 C319 0.929 . S
H329 C322 0.930 . S
C330 C331 1.351 . S
C330 N333 1.368 . S
C330 H335 0.931 . S
C331 C330 1.351 . S
C331 N332 1.373 . S
C331 H359 0.930 . S
N332 C331 1.373 . S
N332 C334 1.340 . S
N333 C330 1.368 . S
N333 C334 1.321 . S
N333 Co336 2.135 . S
C334 N332 1.340 . S
C334 N333 1.321 . S
C334 H358 0.930 . S
H335 C330 0.931 . S
Co336 N333 2.135 . S
Co336 N339 2.121 . S
Co336 O344 2.055 . S
Co336 O347 2.039 . S
Co336 N350 2.140 . S
C337 O338 1.227 . S
C337 O347 1.265 . S
O338 C337 1.227 . S
N339 Co336 2.121 . S
N339 C341 1.375 . S
N339 C342 1.313 . S
C340 C341 1.338 . S
C340 N343 1.377 . S
C340 H360 0.930 . S
C341 N339 1.375 . S
C341 C340 1.338 . S
C341 H345 0.931 . S
C342 N339 1.313 . S
C342 N343 1.344 . S
C342 H346 0.930 . S
N343 C340 1.377 . S
N343 C342 1.344 . S
O344 Co336 2.055 . S
O344 C348 1.253 . S
H345 C341 0.931 . S
H346 C342 0.930 . S
O347 Co336 2.039 . S
O347 C337 1.265 . S
C348 O344 1.253 . S
C348 O349 1.227 . S
O349 C348 1.227 . S
N350 Co336 2.140 . S
N350 C353 1.346 . S
N350 C354 1.345 . S
C351 C352 1.387 . S
C351 C355 1.391 . S
C352 C351 1.387 . S
C352 C353 1.369 . S
C352 H361 0.929 . S
C353 N350 1.346 . S
C353 C352 1.369 . S
C353 H356 0.928 . S
C354 N350 1.345 . S
C354 C355 1.371 . S
C354 H357 0.931 . S
C355 C351 1.391 . S
C355 C354 1.371 . S
C355 H362 0.930 . S
H356 C353 0.928 . S
H357 C354 0.931 . S
H358 C334 0.930 . S
H359 C331 0.930 . S
H360 C340 0.930 . S
H361 C352 0.929 . S
H362 C355 0.930 . S
C363 C364 1.351 . S
C363 N366 1.368 . S
C363 H368 0.931 . S
C364 C363 1.351 . S
C364 N365 1.373 . S
C364 H392 0.930 . S
N365 C364 1.373 . S
N365 C367 1.340 . S
N366 C363 1.368 . S
N366 C367 1.321 . S
N366 Co369 2.135 . S
C367 N365 1.340 . S
C367 N366 1.321 . S
C367 H391 0.930 . S
H368 C363 0.931 . S
Co369 N366 2.135 . S
Co369 N372 2.121 . S
Co369 O377 2.055 . S
Co369 O380 2.039 . S
Co369 N383 2.140 . S
C370 O371 1.227 . S
C370 O380 1.265 . S
O371 C370 1.227 . S
N372 Co369 2.121 . S
N372 C374 1.375 . S
N372 C375 1.313 . S
C373 C374 1.338 . S
C373 N376 1.377 . S
C373 H393 0.930 . S
C374 N372 1.375 . S
C374 C373 1.338 . S
C374 H378 0.931 . S
C375 N372 1.313 . S
C375 N376 1.344 . S
C375 H379 0.930 . S
N376 C373 1.377 . S
N376 C375 1.344 . S
O377 Co369 2.055 . S
O377 C381 1.253 . S
H378 C374 0.931 . S
H379 C375 0.930 . S
O380 Co369 2.039 . S
O380 C370 1.265 . S
C381 O377 1.253 . S
C381 O382 1.227 . S
O382 C381 1.227 . S
N383 Co369 2.140 . S
N383 C386 1.346 . S
N383 C387 1.345 . S
C384 C385 1.387 . S
C384 C388 1.391 . S
C385 C384 1.387 . S
C385 C386 1.369 . S
C385 H394 0.929 . S
C386 N383 1.346 . S
C386 C385 1.369 . S
C386 H389 0.928 . S
C387 N383 1.345 . S
C387 C388 1.371 . S
C387 H390 0.931 . S
C388 C384 1.391 . S
C388 C387 1.371 . S
C388 H395 0.930 . S
H389 C386 0.928 . S
H390 C387 0.931 . S
H391 C367 0.930 . S
H392 C364 0.930 . S
H393 C373 0.930 . S
H394 C385 0.929 . S
H395 C388 0.930 . S
C396 C397 1.351 . S
C396 N399 1.368 . S
C396 H401 0.931 . S
C397 C396 1.351 . S
C397 N398 1.373 1_556 S
C397 H425 0.930 . S
N398 C397 1.373 1_554 S
N398 C400 1.340 1_554 S
N399 C396 1.368 . S
N399 C400 1.321 . S
N399 Co402 2.135 . S
C400 N398 1.340 1_556 S
C400 N399 1.321 . S
C400 H424 0.930 1_556 S
H401 C396 0.931 . S
Co402 N399 2.135 . S
Co402 N405 2.121 1_455 S
Co402 O410 2.055 . S
Co402 O413 2.039 1_455 S
Co402 N416 2.140 . S
C403 O404 1.227 . S
C403 O413 1.265 . S
O404 C403 1.227 . S
N405 Co402 2.121 1_655 S
N405 C407 1.375 . S
N405 C408 1.313 . S
C406 C407 1.338 . S
C406 N409 1.377 . S
C406 H426 0.930 . S
C407 N405 1.375 . S
C407 C406 1.338 . S
C407 H411 0.931 . S
C408 N405 1.313 . S
C408 N409 1.344 . S
C408 H412 0.930 . S
N409 C406 1.377 . S
N409 C408 1.344 . S
O410 Co402 2.055 . S
O410 C414 1.253 . S
H411 C407 0.931 . S
H412 C408 0.930 . S
O413 Co402 2.039 1_655 S
O413 C403 1.265 . S
C414 O410 1.253 . S
C414 O415 1.227 . S
O415 C414 1.227 . S
N416 Co402 2.140 . S
N416 C419 1.346 . S
N416 C420 1.345 . S
C417 C418 1.387 . S
C417 C421 1.391 . S
C418 C417 1.387 . S
C418 C419 1.369 . S
C418 H427 0.929 . S
C419 N416 1.346 . S
C419 C418 1.369 . S
C419 H422 0.928 . S
C420 N416 1.345 . S
C420 C421 1.371 . S
C420 H423 0.931 . S
C421 C417 1.391 . S
C421 C420 1.371 . S
C421 H428 0.930 . S
H422 C419 0.928 . S
H423 C420 0.931 . S
H424 C400 0.930 1_554 S
H425 C397 0.930 . S
H426 C406 0.930 . S
H427 C418 0.929 . S
H428 C421 0.930 . S
C429 C430 1.351 . S
C429 N432 1.368 . S
C429 H434 0.931 . S
C430 C429 1.351 . S
C430 N431 1.373 . S
C430 H458 0.930 . S
N431 C430 1.373 . S
N431 C433 1.340 . S
N432 C429 1.368 . S
N432 C433 1.321 . S
N432 Co435 2.135 . S
C433 N431 1.340 . S
C433 N432 1.321 . S
C433 H457 0.930 . S
H434 C429 0.931 . S
Co435 N432 2.135 . S
Co435 N438 2.121 . S
Co435 O443 2.055 . S
Co435 O446 2.039 . S
Co435 N449 2.140 . S
C436 O437 1.227 . S
C436 O446 1.265 . S
O437 C436 1.227 . S
N438 Co435 2.121 . S
N438 C440 1.375 . S
N438 C441 1.313 . S
C439 C440 1.338 . S
C439 N442 1.377 . S
C439 H459 0.930 . S
C440 N438 1.375 . S
C440 C439 1.338 . S
C440 H444 0.931 . S
C441 N438 1.313 . S
C441 N442 1.344 . S
C441 H445 0.930 . S
N442 C439 1.377 . S
N442 C441 1.344 . S
O443 Co435 2.055 . S
O443 C447 1.253 . S
H444 C440 0.931 . S
H445 C441 0.930 . S
O446 Co435 2.039 . S
O446 C436 1.265 . S
C447 O443 1.253 . S
C447 O448 1.227 . S
O448 C447 1.227 . S
N449 Co435 2.140 . S
N449 C452 1.346 . S
N449 C453 1.345 . S
C450 C451 1.387 . S
C450 C454 1.391 . S
C451 C450 1.387 . S
C451 C452 1.369 . S
C451 H460 0.929 . S
C452 N449 1.346 . S
C452 C451 1.369 . S
C452 H455 0.928 . S
C453 N449 1.345 . S
C453 C454 1.371 . S
C453 H456 0.931 . S
C454 C450 1.391 . S
C454 C453 1.371 . S
C454 H461 0.930 . S
H455 C452 0.928 . S
H456 C453 0.931 . S
H457 C433 0.930 . S
H458 C430 0.930 . S
H459 C439 0.930 . S
H460 C451 0.929 . S
H461 C454 0.930 . S
C462 C463 1.351 . S
C462 N465 1.368 . S
C462 H467 0.931 . S
C463 C462 1.351 . S
C463 N464 1.373 1_554 S
C463 H491 0.930 . S
N464 C463 1.373 1_556 S
N464 C466 1.340 1_556 S
N465 C462 1.368 . S
N465 C466 1.321 . S
N465 Co468 2.135 . S
C466 N464 1.340 1_554 S
C466 N465 1.321 . S
C466 H490 0.930 1_554 S
H467 C462 0.931 . S
Co468 N465 2.135 . S
Co468 N471 2.121 1_455 S
Co468 O476 2.055 . S
Co468 O479 2.039 1_455 S
Co468 N482 2.140 . S
C469 O470 1.227 . S
C469 O479 1.265 . S
O470 C469 1.227 . S
N471 Co468 2.121 1_655 S
N471 C473 1.375 . S
N471 C474 1.313 . S
C472 C473 1.338 . S
C472 N475 1.377 . S
C472 H492 0.930 . S
C473 N471 1.375 . S
C473 C472 1.338 . S
C473 H477 0.931 . S
C474 N471 1.313 . S
C474 N475 1.344 . S
C474 H478 0.930 . S
N475 C472 1.377 . S
N475 C474 1.344 . S
O476 Co468 2.055 . S
O476 C480 1.253 . S
H477 C473 0.931 . S
H478 C474 0.930 . S
O479 Co468 2.039 1_655 S
O479 C469 1.265 . S
C480 O476 1.253 . S
C480 O481 1.227 . S
O481 C480 1.227 . S
N482 Co468 2.140 . S
N482 C485 1.346 . S
N482 C486 1.345 . S
C483 C484 1.387 . S
C483 C487 1.391 . S
C484 C483 1.387 . S
C484 C485 1.369 . S
C484 H493 0.929 . S
C485 N482 1.346 . S
C485 C484 1.369 . S
C485 H488 0.928 . S
C486 N482 1.345 . S
C486 C487 1.371 . S
C486 H489 0.931 . S
C487 C483 1.391 . S
C487 C486 1.371 . S
C487 H494 0.930 . S
H488 C485 0.928 . S
H489 C486 0.931 . S
H490 C466 0.930 1_556 S
H491 C463 0.930 . S
H492 C472 0.930 . S
H493 C484 0.929 . S
H494 C487 0.930 . S
C495 C496 1.351 . S
C495 N498 1.368 . S
C495 H500 0.931 . S
C496 C495 1.351 . S
C496 N497 1.373 . S
C496 H524 0.930 . S
N497 C496 1.373 . S
N497 C499 1.340 . S
N498 C495 1.368 . S
N498 C499 1.321 . S
N498 Co501 2.135 . S
C499 N497 1.340 . S
C499 N498 1.321 . S
C499 H523 0.930 . S
H500 C495 0.931 . S
Co501 N498 2.135 . S
Co501 N504 2.121 . S
Co501 O509 2.055 . S
Co501 O512 2.039 . S
Co501 N515 2.140 . S
C502 O503 1.227 . S
C502 O512 1.265 . S
O503 C502 1.227 . S
N504 Co501 2.121 . S
N504 C506 1.375 . S
N504 C507 1.313 . S
C505 C506 1.338 . S
C505 N508 1.377 . S
C505 H525 0.930 . S
C506 N504 1.375 . S
C506 C505 1.338 . S
C506 H510 0.931 . S
C507 N504 1.313 . S
C507 N508 1.344 . S
C507 H511 0.930 . S
N508 C505 1.377 . S
N508 C507 1.344 . S
O509 Co501 2.055 . S
O509 C513 1.253 . S
H510 C506 0.931 . S
H511 C507 0.930 . S
O512 Co501 2.039 . S
O512 C502 1.265 . S
C513 O509 1.253 . S
C513 O514 1.227 . S
O514 C513 1.227 . S
N515 Co501 2.140 . S
N515 C518 1.346 . S
N515 C519 1.345 . S
C516 C517 1.387 . S
C516 C520 1.391 . S
C517 C516 1.387 . S
C517 C518 1.369 . S
C517 H526 0.929 . S
C518 N515 1.346 . S
C518 C517 1.369 . S
C518 H521 0.928 . S
C519 N515 1.345 . S
C519 C520 1.371 . S
C519 H522 0.931 . S
C520 C516 1.391 . S
C520 C519 1.371 . S
C520 H527 0.930 . S
H521 C518 0.928 . S
H522 C519 0.931 . S
H523 C499 0.930 . S
H524 C496 0.930 . S
H525 C505 0.930 . S
H526 C517 0.929 . S
H527 C520 0.930 . S
H528 C534 0.930 . S
H529 C538 0.930 . S
H530 C543 0.929 . S
H531 C541 0.929 . S
H532 C536 0.929 . S
H533 C542 0.929 . S
C534 H528 0.930 . S
C534 C535 1.367 . S
C534 C542 1.378 . S
C535 C534 1.367 . S
C535 C543 1.433 . S
C536 H532 0.929 . S
C536 C538 1.378 . S
C536 C540 1.350 . S
C537 C540 1.463 1_545 S
C537 C542 1.350 . S
C537 N545 1.427 . S
C538 H529 0.930 . S
C538 C536 1.378 . S
C538 C539 1.367 . S
C539 C538 1.367 . S
C539 C541 1.433 . S
C540 C536 1.350 . S
C540 C537 1.463 1_565 S
C540 N544 1.427 . S
C541 H531 0.929 . S
C541 C539 1.433 . S
C541 N544 1.384 . S
C542 H533 0.929 . S
C542 C534 1.378 . S
C542 C537 1.350 . S
C543 H530 0.929 . S
C543 C535 1.433 . S
C543 N545 1.384 . S
N544 C540 1.427 . S
N544 C541 1.384 . S
N545 C537 1.427 . S
N545 C543 1.384 . S
H546 C552 0.930 . S
H547 C556 0.930 . S
H548 C561 0.929 . S
H549 C559 0.929 . S
H550 C554 0.929 . S
H551 C560 0.929 . S
C552 H546 0.930 . S
C552 C553 1.367 . S
C552 C560 1.378 . S
C553 C552 1.367 . S
C553 C561 1.433 . S
C554 H550 0.929 . S
C554 C556 1.378 . S
C554 C558 1.350 . S
C555 C558 1.463 . S
C555 C560 1.350 . S
C555 N563 1.427 . S
C556 H547 0.930 . S
C556 C554 1.378 . S
C556 C557 1.367 . S
C557 C556 1.367 . S
C557 C559 1.433 . S
C558 C554 1.350 . S
C558 C555 1.463 . S
C558 N562 1.427 . S
C559 H549 0.929 . S
C559 C557 1.433 . S
C559 N562 1.384 . S
C560 H551 0.929 . S
C560 C552 1.378 . S
C560 C555 1.350 . S
C561 H548 0.929 . S
C561 C553 1.433 . S
C561 N563 1.384 . S
N562 C558 1.427 . S
N562 C559 1.384 . S
N563 C555 1.427 . S
N563 C561 1.384 . S
H564 C570 0.930 . S
H565 C574 0.936 . S
H566 C579 0.934 . S
H567 C577 0.929 . S
H568 C572 0.934 . S
H569 C578 0.929 . S
C570 H564 0.930 . S
C570 C571 1.367 . S
C570 C578 1.378 1_554 S
C571 C570 1.367 . S
C571 C579 1.433 . S
C572 H568 0.934 . S
C572 C574 1.378 1_554 S
C572 C576 1.350 1_554 S
C573 C576 1.463 1_544 S
C573 C578 1.350 1_554 S
C573 N581 1.427 . S
C574 H565 0.936 . S
C574 C572 1.378 1_556 S
C574 C575 1.367 . S
C575 C574 1.367 . S
C575 C577 1.433 . S
C576 C572 1.350 1_556 S
C576 C573 1.463 1_566 S
C576 N580 1.427 . S
C577 H567 0.929 . S
C577 C575 1.433 . S
C577 N580 1.384 . S
C578 H569 0.929 . S
C578 C570 1.378 1_556 S
C578 C573 1.350 1_556 S
C579 H566 0.934 . S
C579 C571 1.433 . S
C579 N581 1.384 . S
N580 C576 1.427 . S
N580 C577 1.384 . S
N581 C573 1.427 . S
N581 C579 1.384 . S
H582 C588 0.930 . S
H583 C592 0.930 . S
H584 C597 0.929 . S
H585 C595 0.929 . S
H586 C590 0.929 . S
H587 C596 0.929 . S
C588 H582 0.930 . S
C588 C589 1.367 . S
C588 C596 1.378 . S
C589 C588 1.367 . S
C589 C597 1.433 . S
C590 H586 0.929 . S
C590 C592 1.378 . S
C590 C594 1.350 . S
C591 C594 1.463 . S
C591 C596 1.350 . S
C591 N599 1.427 . S
C592 H583 0.930 . S
C592 C590 1.378 . S
C592 C593 1.367 . S
C593 C592 1.367 . S
C593 C595 1.433 . S
C594 C590 1.350 . S
C594 C591 1.463 . S
C594 N598 1.427 . S
C595 H585 0.929 . S
C595 C593 1.433 . S
C595 N598 1.384 . S
C596 H587 0.929 . S
C596 C588 1.378 . S
C596 C591 1.350 . S
C597 H584 0.929 . S
C597 C589 1.433 . S
C597 N599 1.384 . S
N598 C594 1.427 . S
N598 C595 1.384 . S
N599 C591 1.427 . S
N599 C597 1.384 . S
H600 C606 0.930 . S
H601 C610 0.930 . S
H602 C615 0.929 . S
H603 C613 0.929 . S
H604 C608 0.929 . S
H605 C614 0.929 . S
C606 H600 0.930 . S
C606 C607 1.367 . S
C606 C614 1.378 . S
C607 C606 1.367 . S
C607 C615 1.433 . S
C608 H604 0.929 . S
C608 C610 1.378 . S
C608 C612 1.350 . S
C609 C612 1.463 . S
C609 C614 1.350 . S
C609 N617 1.427 . S
C610 H601 0.930 . S
C610 C608 1.378 . S
C610 C611 1.367 . S
C611 C610 1.367 . S
C611 C613 1.433 . S
C612 C608 1.350 . S
C612 C609 1.463 . S
C612 N616 1.427 . S
C613 H603 0.929 . S
C613 C611 1.433 . S
C613 N616 1.384 . S
C614 H605 0.929 . S
C614 C606 1.378 . S
C614 C609 1.350 . S
C615 H602 0.929 . S
C615 C607 1.433 . S
C615 N617 1.384 . S
N616 C612 1.427 . S
N616 C613 1.384 . S
N617 C609 1.427 . S
N617 C615 1.384 . S
H618 C624 0.930 . S
H619 C628 0.930 . S
H620 C633 0.929 . S
H621 C631 0.929 . S
H622 C626 0.929 . S
H623 C632 0.929 . S
C624 H618 0.930 . S
C624 C625 1.367 . S
C624 C632 1.378 . S
C625 C624 1.367 . S
C625 C633 1.433 . S
C626 H622 0.929 . S
C626 C628 1.378 . S
C626 C630 1.350 . S
C627 C630 1.463 . S
C627 C632 1.350 . S
C627 N635 1.427 . S
C628 H619 0.930 . S
C628 C626 1.378 . S
C628 C629 1.367 . S
C629 C628 1.367 . S
C629 C631 1.433 . S
C630 C626 1.350 . S
C630 C627 1.463 . S
C630 N634 1.427 . S
C631 H621 0.929 . S
C631 C629 1.433 . S
C631 N634 1.384 . S
C632 H623 0.929 . S
C632 C624 1.378 . S
C632 C627 1.350 . S
C633 H620 0.929 . S
C633 C625 1.433 . S
C633 N635 1.384 . S
N634 C630 1.427 . S
N634 C631 1.384 . S
N635 C627 1.427 . S
N635 C633 1.384 . S
H636 C642 0.930 . S
H637 C646 0.930 . S
H638 C651 0.929 . S
H639 C649 0.929 . S
H640 C644 0.929 . S
H641 C650 0.929 . S
C642 H636 0.930 . S
C642 C643 1.367 . S
C642 C650 1.378 1_556 S
C643 C642 1.367 . S
C643 C651 1.433 1_455 S
C644 H640 0.929 . S
C644 C646 1.378 1_556 S
C644 C648 1.350 1_656 S
C645 C648 1.463 1_556 S
C645 C650 1.350 1_556 S
C645 N653 1.427 1_455 S
C646 H637 0.930 . S
C646 C644 1.378 1_554 S
C646 C647 1.367 1_655 S
C647 C646 1.367 1_455 S
C647 C649 1.433 . S
C648 C644 1.350 1_454 S
C648 C645 1.463 1_554 S
C648 N652 1.427 . S
C649 H639 0.929 . S
C649 C647 1.433 . S
C649 N652 1.384 . S
C650 H641 0.929 . S
C650 C642 1.378 1_554 S
C650 C645 1.350 1_554 S
C651 H638 0.929 . S
C651 C643 1.433 1_655 S
C651 N653 1.384 . S
N652 C648 1.427 . S
N652 C649 1.384 . S
N653 C645 1.427 1_655 S
N653 C651 1.384 . S
H654 C660 0.930 . S
H655 C664 0.930 . S
H656 C669 0.929 . S
H657 C667 0.929 . S
H658 C662 0.929 . S
H659 C668 0.929 . S
C660 H654 0.930 . S
C660 C661 1.367 . S
C660 C668 1.378 . S
C661 C660 1.367 . S
C661 C669 1.433 . S
C662 H658 0.929 . S
C662 C664 1.378 . S
C662 C666 1.350 . S
C663 C666 1.463 . S
C663 C668 1.350 . S
C663 N671 1.427 . S
C664 H655 0.930 . S
C664 C662 1.378 . S
C664 C665 1.367 . S
C665 C664 1.367 . S
C665 C667 1.433 . S
C666 C662 1.350 . S
C666 C663 1.463 . S
C666 N670 1.427 . S
C667 H657 0.929 . S
C667 C665 1.433 . S
C667 N670 1.384 . S
C668 H659 0.929 . S
C668 C660 1.378 . S
C668 C663 1.350 . S
C669 H656 0.929 . S
C669 C661 1.433 . S
C669 N671 1.384 . S
N670 C666 1.427 . S
N670 C667 1.384 . S
N671 C663 1.427 . S
N671 C669 1.384 . S
H672 C678 0.930 . S
H673 C682 0.930 1_556 S
H674 C687 0.929 . S
H675 C685 0.929 . S
H676 C680 0.929 . S
H677 C686 0.929 . S
C678 H672 0.930 . S
C678 C679 1.367 . S
C678 C686 1.378 . S
C679 C678 1.367 . S
C679 C687 1.433 . S
C680 H676 0.929 . S
C680 C682 1.378 . S
C680 C684 1.350 . S
C681 C684 1.463 . S
C681 C686 1.350 . S
C681 N689 1.427 . S
C682 H673 0.930 1_554 S
C682 C680 1.378 . S
C682 C683 1.367 . S
C683 C682 1.367 . S
C683 C685 1.433 . S
C684 C680 1.350 . S
C684 C681 1.463 . S
C684 N688 1.427 . S
C685 H675 0.929 . S
C685 C683 1.433 . S
C685 N688 1.384 . S
C686 H677 0.929 . S
C686 C678 1.378 . S
C686 C681 1.350 . S
C687 H674 0.929 . S
C687 C679 1.433 . S
C687 N689 1.384 . S
N688 C684 1.427 . S
N688 C685 1.384 . S
N689 C681 1.427 . S
N689 C687 1.384 . S
H690 C696 0.930 . S
H691 C700 0.930 . S
H692 C705 0.929 . S
H693 C703 0.929 . S
H694 C698 0.929 . S
H695 C704 0.929 . S
C696 H690 0.930 . S
C696 C697 1.367 . S
C696 C704 1.378 . S
C697 C696 1.367 . S
C697 C705 1.433 . S
C698 H694 0.929 . S
C698 C700 1.378 . S
C698 C702 1.350 . S
C699 C702 1.463 . S
C699 C704 1.350 . S
C699 N707 1.427 . S
C700 H691 0.930 . S
C700 C698 1.378 . S
C700 C701 1.367 . S
C701 C700 1.367 . S
C701 C703 1.433 . S
C702 C698 1.350 . S
C702 C699 1.463 . S
C702 N706 1.427 . S
C703 H693 0.929 . S
C703 C701 1.433 . S
C703 N706 1.384 . S
C704 H695 0.929 . S
C704 C696 1.378 . S
C704 C699 1.350 . S
C705 H692 0.929 . S
C705 C697 1.433 . S
C705 N707 1.384 . S
N706 C702 1.427 . S
N706 C703 1.384 . S
N707 C699 1.427 . S
N707 C705 1.384 . S
H708 C714 0.930 . S
H709 C718 0.930 . S
H710 C723 0.929 . S
H711 C721 0.929 . S
H712 C716 0.929 . S
H713 C722 0.929 . S
C714 H708 0.930 . S
C714 C715 1.367 . S
C714 C722 1.378 . S
C715 C714 1.367 . S
C715 C723 1.433 . S
C716 H712 0.929 . S
C716 C718 1.378 . S
C716 C720 1.350 . S
C717 C720 1.463 . S
C717 C722 1.350 . S
C717 N725 1.427 . S
C718 H709 0.930 . S
C718 C716 1.378 . S
C718 C719 1.367 . S
C719 C718 1.367 . S
C719 C721 1.433 . S
C720 C716 1.350 . S
C720 C717 1.463 . S
C720 N724 1.427 . S
C721 H711 0.929 . S
C721 C719 1.433 . S
C721 N724 1.384 . S
C722 H713 0.929 . S
C722 C714 1.378 . S
C722 C717 1.350 . S
C723 H710 0.929 . S
C723 C715 1.433 . S
C723 N725 1.384 . S
N724 C720 1.427 . S
N724 C721 1.384 . S
N725 C717 1.427 . S
N725 C723 1.384 . S
H726 C732 0.930 . S
H727 C736 0.930 . S
H728 C741 0.929 . S
H729 C739 0.929 . S
H730 C734 0.929 . S
H731 C740 0.929 . S
C732 H726 0.930 . S
C732 C733 1.367 . S
C732 C740 1.378 . S
C733 C732 1.367 . S
C733 C741 1.433 . S
C734 H730 0.929 . S
C734 C736 1.378 . S
C734 C738 1.350 . S
C735 C738 1.463 . S
C735 C740 1.350 . S
C735 N743 1.427 . S
C736 H727 0.930 . S
C736 C734 1.378 . S
C736 C737 1.367 . S
C737 C736 1.367 . S
C737 C739 1.433 . S
C738 C734 1.350 . S
C738 C735 1.463 . S
C738 N742 1.427 . S
C739 H729 0.929 . S
C739 C737 1.433 . S
C739 N742 1.384 . S
C740 H731 0.929 . S
C740 C732 1.378 . S
C740 C735 1.350 . S
C741 H728 0.929 . S
C741 C733 1.433 . S
C741 N743 1.384 . S
N742 C738 1.427 . S
N742 C739 1.384 . S
N743 C735 1.427 . S
N743 C741 1.384 . S
H744 C750 0.930 . S
H745 C754 0.930 . S
H746 C759 0.929 . S
H747 C757 0.929 1_554 S
H748 C752 0.929 . S
H749 C758 0.929 . S
C750 H744 0.930 . S
C750 C751 1.367 . S
C750 C758 1.378 . S
C751 C750 1.367 . S
C751 C759 1.433 . S
C752 H748 0.929 . S
C752 C754 1.378 . S
C752 C756 1.350 . S
C753 C756 1.463 . S
C753 C758 1.350 . S
C753 N761 1.427 . S
C754 H745 0.930 . S
C754 C752 1.378 . S
C754 C755 1.367 . S
C755 C754 1.367 . S
C755 C757 1.433 . S
C756 C752 1.350 . S
C756 C753 1.463 . S
C756 N760 1.427 . S
C757 H747 0.929 1_556 S
C757 C755 1.433 . S
C757 N760 1.384 . S
C758 H749 0.929 . S
C758 C750 1.378 . S
C758 C753 1.350 . S
C759 H746 0.929 . S
C759 C751 1.433 . S
C759 N761 1.384 . S
N760 C756 1.427 . S
N760 C757 1.384 . S
N761 C753 1.427 . S
N761 C759 1.384 . S
H762 C768 0.930 . S
H763 C772 0.930 . S
H764 C777 0.929 . S
H765 C775 0.929 . S
H766 C770 0.929 . S
H767 C776 0.929 . S
C768 H762 0.930 . S
C768 C769 1.367 . S
C768 C776 1.378 . S
C769 C768 1.367 . S
C769 C777 1.433 . S
C770 H766 0.929 . S
C770 C772 1.378 . S
C770 C774 1.350 . S
C771 C774 1.463 . S
C771 C776 1.350 . S
C771 N779 1.427 . S
C772 H763 0.930 . S
C772 C770 1.378 . S
C772 C773 1.367 . S
C773 C772 1.367 . S
C773 C775 1.433 . S
C774 C770 1.350 . S
C774 C771 1.463 . S
C774 N778 1.427 . S
C775 H765 0.929 . S
C775 C773 1.433 . S
C775 N778 1.384 . S
C776 H767 0.929 . S
C776 C768 1.378 . S
C776 C771 1.350 . S
C777 H764 0.929 . S
C777 C769 1.433 . S
C777 N779 1.384 . S
N778 C774 1.427 . S
N778 C775 1.384 . S
N779 C771 1.427 . S
N779 C777 1.384 . S
H780 C786 0.930 . S
H781 C790 0.930 . S
H782 C795 0.929 . S
H783 C793 0.929 . S
H784 C788 0.929 . S
H785 C794 0.929 . S
C786 H780 0.930 . S
C786 C787 1.367 . S
C786 C794 1.378 . S
C787 C786 1.367 . S
C787 C795 1.433 . S
C788 H784 0.929 . S
C788 C790 1.378 . S
C788 C792 1.350 . S
C789 C792 1.463 . S
C789 C794 1.350 . S
C789 N797 1.427 . S
C790 H781 0.930 . S
C790 C788 1.378 . S
C790 C791 1.367 . S
C791 C790 1.367 . S
C791 C793 1.433 . S
C792 C788 1.350 . S
C792 C789 1.463 . S
C792 N796 1.427 . S
C793 H783 0.929 . S
C793 C791 1.433 . S
C793 N796 1.384 . S
C794 H785 0.929 . S
C794 C786 1.378 . S
C794 C789 1.350 . S
C795 H782 0.929 . S
C795 C787 1.433 . S
C795 N797 1.384 . S
N796 C792 1.427 . S
N796 C793 1.384 . S
N797 C789 1.427 . S
N797 C795 1.384 . S
H798 C804 0.930 . S
H799 C808 0.930 . S
H800 C813 0.929 . S
H801 C811 0.929 . S
H802 C806 0.929 . S
H803 C812 0.929 . S
C804 H798 0.930 . S
C804 C805 1.367 . S
C804 C812 1.378 . S
C805 C804 1.367 . S
C805 C813 1.433 . S
C806 H802 0.929 . S
C806 C808 1.378 . S
C806 C810 1.350 . S
C807 C810 1.463 . S
C807 C812 1.350 . S
C807 N815 1.427 . S
C808 H799 0.930 . S
C808 C806 1.378 . S
C808 C809 1.367 . S
C809 C808 1.367 . S
C809 C811 1.433 . S
C810 C806 1.350 . S
C810 C807 1.463 . S
C810 N814 1.427 . S
C811 H801 0.929 . S
C811 C809 1.433 . S
C811 N814 1.384 . S
C812 H803 0.929 . S
C812 C804 1.378 . S
C812 C807 1.350 . S
C813 H800 0.929 . S
C813 C805 1.433 . S
C813 N815 1.384 . S
N814 C810 1.427 . S
N814 C811 1.384 . S
N815 C807 1.427 . S
N815 C813 1.384 . S
H816 C822 0.930 . S
H817 C826 0.930 . S
H818 C831 0.929 . S
H819 C829 0.929 . S
H820 C824 0.929 . S
H821 C830 0.929 . S
C822 H816 0.930 . S
C822 C823 1.367 . S
C822 C830 1.378 . S
C823 C822 1.367 . S
C823 C831 1.433 . S
C824 H820 0.929 . S
C824 C826 1.378 . S
C824 C828 1.350 . S
C825 C828 1.463 . S
C825 C830 1.350 . S
C825 N833 1.427 . S
C826 H817 0.930 . S
C826 C824 1.378 . S
C826 C827 1.367 . S
C827 C826 1.367 . S
C827 C829 1.433 . S
C828 C824 1.350 . S
C828 C825 1.463 . S
C828 N832 1.427 . S
C829 H819 0.929 . S
C829 C827 1.433 . S
C829 N832 1.384 . S
C830 H821 0.929 . S
C830 C822 1.378 . S
C830 C825 1.350 . S
C831 H818 0.929 . S
C831 C823 1.433 . S
C831 N833 1.384 . S
N832 C828 1.427 . S
N832 C829 1.384 . S
N833 C825 1.427 . S
N833 C831 1.384 . S
H834 C840 0.930 . S
H835 C844 0.930 . S
H836 C849 0.929 1_554 S
H837 C847 0.929 . S
H838 C842 0.929 . S
H839 C848 0.929 . S
C840 H834 0.930 . S
C840 C841 1.367 . S
C840 C848 1.378 . S
C841 C840 1.367 . S
C841 C849 1.433 . S
C842 H838 0.929 . S
C842 C844 1.378 . S
C842 C846 1.350 . S
C843 C846 1.463 . S
C843 C848 1.350 . S
C843 N851 1.427 . S
C844 H835 0.930 . S
C844 C842 1.378 . S
C844 C845 1.367 . S
C845 C844 1.367 . S
C845 C847 1.433 . S
C846 C842 1.350 . S
C846 C843 1.463 . S
C846 N850 1.427 . S
C847 H837 0.929 . S
C847 C845 1.433 . S
C847 N850 1.384 . S
C848 H839 0.929 . S
C848 C840 1.378 . S
C848 C843 1.350 . S
C849 H836 0.929 1_556 S
C849 C841 1.433 . S
C849 N851 1.384 . S
N850 C846 1.427 . S
N850 C847 1.384 . S
N851 C843 1.427 . S
N851 C849 1.384 . S
H852 C858 0.930 . S
H853 C862 0.930 . S
H854 C867 0.929 . S
H855 C865 0.929 . S
H856 C860 0.929 . S
H857 C866 0.929 . S
C858 H852 0.930 . S
C858 C859 1.367 . S
C858 C866 1.378 . S
C859 C858 1.367 . S
C859 C867 1.433 . S
C860 H856 0.929 . S
C860 C862 1.378 . S
C860 C864 1.350 . S
C861 C864 1.463 . S
C861 C866 1.350 . S
C861 N869 1.427 . S
C862 H853 0.930 . S
C862 C860 1.378 . S
C862 C863 1.367 . S
C863 C862 1.367 . S
C863 C865 1.433 . S
C864 C860 1.350 . S
C864 C861 1.463 . S
C864 N868 1.427 . S
C865 H855 0.929 . S
C865 C863 1.433 . S
C865 N868 1.384 . S
C866 H857 0.929 . S
C866 C858 1.378 . S
C866 C861 1.350 . S
C867 H854 0.929 . S
C867 C859 1.433 . S
C867 N869 1.384 . S
N868 C864 1.427 . S
N868 C865 1.384 . S
N869 C861 1.427 . S
N869 C867 1.384 . S
H870 C876 0.930 . S
H871 C880 0.930 . S
H872 C885 0.929 . S
H873 C883 0.929 . S
H874 C878 0.929 . S
H875 C884 0.929 . S
C876 H870 0.930 . S
C876 C877 1.367 . S
C876 C884 1.378 . S
C877 C876 1.367 . S
C877 C885 1.433 . S
C878 H874 0.929 . S
C878 C880 1.378 . S
C878 C882 1.350 . S
C879 C882 1.463 . S
C879 C884 1.350 . S
C879 N887 1.427 . S
C880 H871 0.930 . S
C880 C878 1.378 . S
C880 C881 1.367 . S
C881 C880 1.367 . S
C881 C883 1.433 . S
C882 C878 1.350 . S
C882 C879 1.463 . S
C882 N886 1.427 . S
C883 H873 0.929 . S
C883 C881 1.433 . S
C883 N886 1.384 . S
C884 H875 0.929 . S
C884 C876 1.378 . S
C884 C879 1.350 . S
C885 H872 0.929 . S
C885 C877 1.433 . S
C885 N887 1.384 . S
N886 C882 1.427 . S
N886 C883 1.384 . S
N887 C879 1.427 . S
N887 C885 1.384 . S
H888 C894 0.930 . S
H889 C898 0.930 . S
H890 C903 0.929 . S
H891 C901 0.929 . S
H892 C896 0.929 . S
H893 C902 0.929 . S
C894 H888 0.930 . S
C894 C895 1.367 . S
C894 C902 1.378 . S
C895 C894 1.367 . S
C895 C903 1.433 . S
C896 H892 0.929 . S
C896 C898 1.378 . S
C896 C900 1.350 . S
C897 C900 1.463 . S
C897 C902 1.350 . S
C897 N905 1.427 . S
C898 H889 0.930 . S
C898 C896 1.378 . S
C898 C899 1.367 . S
C899 C898 1.367 . S
C899 C901 1.433 . S
C900 C896 1.350 . S
C900 C897 1.463 . S
C900 N904 1.427 . S
C901 H891 0.929 . S
C901 C899 1.433 . S
C901 N904 1.384 . S
C902 H893 0.929 . S
C902 C894 1.378 . S
C902 C897 1.350 . S
C903 H890 0.929 . S
C903 C895 1.433 . S
C903 N905 1.384 . S
N904 C900 1.427 . S
N904 C901 1.384 . S
N905 C897 1.427 . S
N905 C903 1.384 . S
H906 C912 0.930 . S
H907 C916 0.930 . S
H908 C921 0.929 . S
H909 C919 0.929 . S
H910 C914 0.929 . S
H911 C920 0.929 . S
C912 H906 0.930 . S
C912 C913 1.367 . S
C912 C920 1.378 . S
C913 C912 1.367 . S
C913 C921 1.433 . S
C914 H910 0.929 . S
C914 C916 1.378 . S
C914 C918 1.350 . S
C915 C918 1.463 . S
C915 C920 1.350 . S
C915 N923 1.427 . S
C916 H907 0.930 . S
C916 C914 1.378 . S
C916 C917 1.367 . S
C917 C916 1.367 . S
C917 C919 1.433 . S
C918 C914 1.350 . S
C918 C915 1.463 . S
C918 N922 1.427 . S
C919 H909 0.929 . S
C919 C917 1.433 . S
C919 N922 1.384 . S
C920 H911 0.929 . S
C920 C912 1.378 . S
C920 C915 1.350 . S
C921 H908 0.929 . S
C921 C913 1.433 . S
C921 N923 1.384 . S
N922 C918 1.427 . S
N922 C919 1.384 . S
N923 C915 1.427 . S
N923 C921 1.384 . S
H924 C930 0.930 1_554 S
H925 C934 0.930 . S
H926 C939 0.929 . S
H927 C937 0.929 . S
H928 C932 0.929 . S
H929 C938 0.929 . S
C930 H924 0.930 1_556 S
C930 C931 1.367 . S
C930 C938 1.378 . S
C931 C930 1.367 . S
C931 C939 1.433 . S
C932 H928 0.929 . S
C932 C934 1.378 . S
C932 C936 1.350 . S
C933 C936 1.463 . S
C933 C938 1.350 . S
C933 N941 1.427 . S
C934 H925 0.930 . S
C934 C932 1.378 . S
C934 C935 1.367 . S
C935 C934 1.367 . S
C935 C937 1.433 . S
C936 C932 1.350 . S
C936 C933 1.463 . S
C936 N940 1.427 . S
C937 H927 0.929 . S
C937 C935 1.433 . S
C937 N940 1.384 . S
C938 H929 0.929 . S
C938 C930 1.378 . S
C938 C933 1.350 . S
C939 H926 0.929 . S
C939 C931 1.433 . S
C939 N941 1.384 . S
N940 C936 1.427 . S
N940 C937 1.384 . S
N941 C933 1.427 . S
N941 C939 1.384 . S
H942 C948 0.930 . S
H943 C952 0.930 . S
H944 C957 0.929 . S
H945 C955 0.929 . S
H946 C950 0.929 . S
H947 C956 0.929 . S
C948 H942 0.930 . S
C948 C949 1.367 . S
C948 C956 1.378 . S
C949 C948 1.367 . S
C949 C957 1.433 . S
C950 H946 0.929 . S
C950 C952 1.378 . S
C950 C954 1.350 . S
C951 C954 1.463 . S
C951 C956 1.350 . S
C951 N959 1.427 . S
C952 H943 0.930 . S
C952 C950 1.378 . S
C952 C953 1.367 . S
C953 C952 1.367 . S
C953 C955 1.433 . S
C954 C950 1.350 . S
C954 C951 1.463 . S
C954 N958 1.427 . S
C955 H945 0.929 . S
C955 C953 1.433 . S
C955 N958 1.384 . S
C956 H947 0.929 . S
C956 C948 1.378 . S
C956 C951 1.350 . S
C957 H944 0.929 . S
C957 C949 1.433 . S
C957 N959 1.384 . S
N958 C954 1.427 . S
N958 C955 1.384 . S
N959 C951 1.427 . S
N959 C957 1.384 . S
H960 C966 0.930 . S
H961 C970 0.930 . S
H962 C975 0.929 . S
H963 C973 0.929 . S
H964 C968 0.929 . S
H965 C974 0.929 . S
C966 H960 0.930 . S
C966 C967 1.367 . S
C966 C974 1.378 . S
C967 C966 1.367 . S
C967 C975 1.433 . S
C968 H964 0.929 . S
C968 C970 1.378 . S
C968 C972 1.350 . S
C969 C972 1.463 . S
C969 C974 1.350 . S
C969 N977 1.427 . S
C970 H961 0.930 . S
C970 C968 1.378 . S
C970 C971 1.367 . S
C971 C970 1.367 . S
C971 C973 1.433 . S
C972 C968 1.350 . S
C972 C969 1.463 . S
C972 N976 1.427 . S
C973 H963 0.929 . S
C973 C971 1.433 . S
C973 N976 1.384 . S
C974 H965 0.929 . S
C974 C966 1.378 . S
C974 C969 1.350 . S
C975 H962 0.929 . S
C975 C967 1.433 . S
C975 N977 1.384 . S
N976 C972 1.427 . S
N976 C973 1.384 . S
N977 C969 1.427 . S
N977 C975 1.384 . S
H978 C984 0.930 . S
H979 C988 0.930 . S
H980 C993 0.929 . S
H981 C991 0.929 . S
H982 C986 0.929 . S
H983 C992 0.929 . S
C984 H978 0.930 . S
C984 C985 1.367 . S
C984 C992 1.378 . S
C985 C984 1.367 . S
C985 C993 1.433 . S
C986 H982 0.929 . S
C986 C988 1.378 . S
C986 C990 1.350 . S
C987 C990 1.463 . S
C987 C992 1.350 . S
C987 N995 1.427 . S
C988 H979 0.930 . S
C988 C986 1.378 . S
C988 C989 1.367 . S
C989 C988 1.367 . S
C989 C991 1.433 . S
C990 C986 1.350 . S
C990 C987 1.463 . S
C990 N994 1.427 . S
C991 H981 0.929 . S
C991 C989 1.433 . S
C991 N994 1.384 . S
C992 H983 0.929 . S
C992 C984 1.378 . S
C992 C987 1.350 . S
C993 H980 0.929 . S
C993 C985 1.433 . S
C993 N995 1.384 . S
N994 C990 1.427 . S
N994 C991 1.384 . S
N995 C987 1.427 . S
N995 C993 1.384 . S
H996 C1002 0.930 1_556 S
H997 C1006 0.930 . S
H998 C1011 0.929 . S
H999 C1009 0.929 . S
H1000 C1004 0.929 . S
H1001 C1010 0.929 . S
C1002 H996 0.930 1_554 S
C1002 C1003 1.367 . S
C1002 C1010 1.378 . S
C1003 C1002 1.367 . S
C1003 C1011 1.433 . S
C1004 H1000 0.929 . S
C1004 C1006 1.378 . S
C1004 C1008 1.350 . S
C1005 C1008 1.463 . S
C1005 C1010 1.350 . S
C1005 N1013 1.427 . S
C1006 H997 0.930 . S
C1006 C1004 1.378 . S
C1006 C1007 1.367 . S
C1007 C1006 1.367 . S
C1007 C1009 1.433 . S
C1008 C1004 1.350 . S
C1008 C1005 1.463 . S
C1008 N1012 1.427 . S
C1009 H999 0.929 . S
C1009 C1007 1.433 . S
C1009 N1012 1.384 . S
C1010 H1001 0.929 . S
C1010 C1002 1.378 . S
C1010 C1005 1.350 . S
C1011 H998 0.929 . S
C1011 C1003 1.433 . S
C1011 N1013 1.384 . S
N1012 C1008 1.427 . S
N1012 C1009 1.384 . S
N1013 C1005 1.427 . S
N1013 C1011 1.384 . S
H1014 C1020 0.930 . S
H1015 C1024 0.930 . S
H1016 C1029 0.929 . S
H1017 C1027 0.929 . S
H1018 C1022 0.929 . S
H1019 C1028 0.929 . S
C1020 H1014 0.930 . S
C1020 C1021 1.367 . S
C1020 C1028 1.378 . S
C1021 C1020 1.367 . S
C1021 C1029 1.433 . S
C1022 H1018 0.929 . S
C1022 C1024 1.378 . S
C1022 C1026 1.350 . S
C1023 C1026 1.463 . S
C1023 C1028 1.350 . S
C1023 N1031 1.427 . S
C1024 H1015 0.930 . S
C1024 C1022 1.378 . S
C1024 C1025 1.367 . S
C1025 C1024 1.367 . S
C1025 C1027 1.433 . S
C1026 C1022 1.350 . S
C1026 C1023 1.463 . S
C1026 N1030 1.427 . S
C1027 H1017 0.929 . S
C1027 C1025 1.433 . S
C1027 N1030 1.384 . S
C1028 H1019 0.929 . S
C1028 C1020 1.378 . S
C1028 C1023 1.350 . S
C1029 H1016 0.929 . S
C1029 C1021 1.433 . S
C1029 N1031 1.384 . S
N1030 C1026 1.427 . S
N1030 C1027 1.384 . S
N1031 C1023 1.427 . S
N1031 C1029 1.384 . S
H1032 C1038 0.930 . S
H1033 C1042 0.930 . S
H1034 C1047 0.929 . S
H1035 C1045 0.929 . S
H1036 C1040 0.929 . S
H1037 C1046 0.929 . S
C1038 H1032 0.930 . S
C1038 C1039 1.367 . S
C1038 C1046 1.378 . S
C1039 C1038 1.367 . S
C1039 C1047 1.433 . S
C1040 H1036 0.929 . S
C1040 C1042 1.378 . S
C1040 C1044 1.350 . S
C1041 C1044 1.463 . S
C1041 C1046 1.350 . S
C1041 N1049 1.427 . S
C1042 H1033 0.930 . S
C1042 C1040 1.378 . S
C1042 C1043 1.367 . S
C1043 C1042 1.367 . S
C1043 C1045 1.433 . S
C1044 C1040 1.350 . S
C1044 C1041 1.463 . S
C1044 N1048 1.427 . S
C1045 H1035 0.929 . S
C1045 C1043 1.433 . S
C1045 N1048 1.384 . S
C1046 H1037 0.929 . S
C1046 C1038 1.378 . S
C1046 C1041 1.350 . S
C1047 H1034 0.929 . S
C1047 C1039 1.433 . S
C1047 N1049 1.384 . S
N1048 C1044 1.427 . S
N1048 C1045 1.384 . S
N1049 C1041 1.427 . S
N1049 C1047 1.384 . S
H1050 C1056 0.930 . S
H1051 C1060 0.930 . S
H1052 C1065 0.929 . S
H1053 C1063 0.929 1_556 S
H1054 C1058 0.929 . S
H1055 C1064 0.929 . S
C1056 H1050 0.930 . S
C1056 C1057 1.367 . S
C1056 C1064 1.378 . S
C1057 C1056 1.367 . S
C1057 C1065 1.433 . S
C1058 H1054 0.929 . S
C1058 C1060 1.378 . S
C1058 C1062 1.350 . S
C1059 C1062 1.463 . S
C1059 C1064 1.350 . S
C1059 N1067 1.427 . S
C1060 H1051 0.930 . S
C1060 C1058 1.378 . S
C1060 C1061 1.367 . S
C1061 C1060 1.367 . S
C1061 C1063 1.433 . S
C1062 C1058 1.350 . S
C1062 C1059 1.463 . S
C1062 N1066 1.427 . S
C1063 H1053 0.929 1_554 S
C1063 C1061 1.433 . S
C1063 N1066 1.384 . S
C1064 H1055 0.929 . S
C1064 C1056 1.378 . S
C1064 C1059 1.350 . S
C1065 H1052 0.929 . S
C1065 C1057 1.433 . S
C1065 N1067 1.384 . S
N1066 C1062 1.427 . S
N1066 C1063 1.384 . S
N1067 C1059 1.427 . S
N1067 C1065 1.384 . S
H1068 C1074 0.930 . S
H1069 C1078 0.930 . S
H1070 C1083 0.929 . S
H1071 C1081 0.929 . S
H1072 C1076 0.929 . S
H1073 C1082 0.929 . S
C1074 H1068 0.930 . S
C1074 C1075 1.367 . S
C1074 C1082 1.378 . S
C1075 C1074 1.367 . S
C1075 C1083 1.433 . S
C1076 H1072 0.929 . S
C1076 C1078 1.378 . S
C1076 C1080 1.350 . S
C1077 C1080 1.463 . S
C1077 C1082 1.350 . S
C1077 N1085 1.427 . S
C1078 H1069 0.930 . S
C1078 C1076 1.378 . S
C1078 C1079 1.367 . S
C1079 C1078 1.367 . S
C1079 C1081 1.433 . S
C1080 C1076 1.350 . S
C1080 C1077 1.463 . S
C1080 N1084 1.427 . S
C1081 H1071 0.929 . S
C1081 C1079 1.433 . S
C1081 N1084 1.384 . S
C1082 H1073 0.929 . S
C1082 C1074 1.378 . S
C1082 C1077 1.350 . S
C1083 H1070 0.929 . S
C1083 C1075 1.433 . S
C1083 N1085 1.384 . S
N1084 C1080 1.427 . S
N1084 C1081 1.384 . S
N1085 C1077 1.427 . S
N1085 C1083 1.384 . S
H1086 C1092 0.930 . S
H1087 C1096 0.930 . S
H1088 C1101 0.929 . S
H1089 C1099 0.929 . S
H1090 C1094 0.929 . S
H1091 C1100 0.929 . S
C1092 H1086 0.930 . S
C1092 C1093 1.367 . S
C1092 C1100 1.378 . S
C1093 C1092 1.367 . S
C1093 C1101 1.433 . S
C1094 H1090 0.929 . S
C1094 C1096 1.378 . S
C1094 C1098 1.350 . S
C1095 C1098 1.463 . S
C1095 C1100 1.350 . S
C1095 N1103 1.427 . S
C1096 H1087 0.930 . S
C1096 C1094 1.378 . S
C1096 C1097 1.367 . S
C1097 C1096 1.367 . S
C1097 C1099 1.433 . S
C1098 C1094 1.350 . S
C1098 C1095 1.463 . S
C1098 N1102 1.427 . S
C1099 H1089 0.929 . S
C1099 C1097 1.433 . S
C1099 N1102 1.384 . S
C1100 H1091 0.929 . S
C1100 C1092 1.378 . S
C1100 C1095 1.350 . S
C1101 H1088 0.929 . S
C1101 C1093 1.433 . S
C1101 N1103 1.384 . S
N1102 C1098 1.427 . S
N1102 C1099 1.384 . S
N1103 C1095 1.427 . S
N1103 C1101 1.384 . S
H1104 C1110 0.930 1_556 S
H1105 C1114 0.930 . S
H1106 C1119 0.929 . S
H1107 C1117 0.929 . S
H1108 C1112 0.929 . S
H1109 C1118 0.929 . S
C1110 H1104 0.930 1_554 S
C1110 C1111 1.367 . S
C1110 C1118 1.378 . S
C1111 C1110 1.367 . S
C1111 C1119 1.433 . S
C1112 H1108 0.929 . S
C1112 C1114 1.378 . S
C1112 C1116 1.350 . S
C1113 C1116 1.463 . S
C1113 C1118 1.350 . S
C1113 N1121 1.427 . S
C1114 H1105 0.930 . S
C1114 C1112 1.378 . S
C1114 C1115 1.367 . S
C1115 C1114 1.367 . S
C1115 C1117 1.433 . S
C1116 C1112 1.350 . S
C1116 C1113 1.463 . S
C1116 N1120 1.427 . S
C1117 H1107 0.929 . S
C1117 C1115 1.433 . S
C1117 N1120 1.384 . S
C1118 H1109 0.929 . S
C1118 C1110 1.378 . S
C1118 C1113 1.350 . S
C1119 H1106 0.929 . S
C1119 C1111 1.433 . S
C1119 N1121 1.384 . S
N1120 C1116 1.427 . S
N1120 C1117 1.384 . S
N1121 C1113 1.427 . S
N1121 C1119 1.384 . S
H1122 C1128 0.930 . S
H1123 C1132 0.930 . S
H1124 C1137 0.929 . S
H1125 C1135 0.929 . S
H1126 C1130 0.929 . S
H1127 C1136 0.929 . S
C1128 H1122 0.930 . S
C1128 C1129 1.367 . S
C1128 C1136 1.378 . S
C1129 C1128 1.367 . S
C1129 C1137 1.433 . S
C1130 H1126 0.929 . S
C1130 C1132 1.378 . S
C1130 C1134 1.350 . S
C1131 C1134 1.463 . S
C1131 C1136 1.350 . S
C1131 N1139 1.427 . S
C1132 H1123 0.930 . S
C1132 C1130 1.378 . S
C1132 C1133 1.367 . S
C1133 C1132 1.367 . S
C1133 C1135 1.433 . S
C1134 C1130 1.350 . S
C1134 C1131 1.463 . S
C1134 N1138 1.427 . S
C1135 H1125 0.929 . S
C1135 C1133 1.433 . S
C1135 N1138 1.384 . S
C1136 H1127 0.929 . S
C1136 C1128 1.378 . S
C1136 C1131 1.350 . S
C1137 H1124 0.929 . S
C1137 C1129 1.433 . S
C1137 N1139 1.384 . S
N1138 C1134 1.427 . S
N1138 C1135 1.384 . S
N1139 C1131 1.427 . S
N1139 C1137 1.384 . S
H1140 C1146 0.930 . S
H1141 C1150 0.930 . S
H1142 C1155 0.929 . S
H1143 C1153 0.929 . S
H1144 C1148 0.929 . S
H1145 C1154 0.929 . S
C1146 H1140 0.930 . S
C1146 C1147 1.367 . S
C1146 C1154 1.378 . S
C1147 C1146 1.367 . S
C1147 C1155 1.433 . S
C1148 H1144 0.929 . S
C1148 C1150 1.378 . S
C1148 C1152 1.350 . S
C1149 C1152 1.463 . S
C1149 C1154 1.350 . S
C1149 N1157 1.427 . S
C1150 H1141 0.930 . S
C1150 C1148 1.378 . S
C1150 C1151 1.367 . S
C1151 C1150 1.367 . S
C1151 C1153 1.433 . S
C1152 C1148 1.350 . S
C1152 C1149 1.463 . S
C1152 N1156 1.427 . S
C1153 H1143 0.929 . S
C1153 C1151 1.433 . S
C1153 N1156 1.384 . S
C1154 H1145 0.929 . S
C1154 C1146 1.378 . S
C1154 C1149 1.350 . S
C1155 H1142 0.929 . S
C1155 C1147 1.433 . S
C1155 N1157 1.384 . S
N1156 C1152 1.427 . S
N1156 C1153 1.384 . S
N1157 C1149 1.427 . S
N1157 C1155 1.384 . S
H1158 C1164 0.930 . S
H1159 C1168 0.930 . S
H1160 C1173 0.929 1_554 S
H1161 C1171 0.929 . S
H1162 C1166 0.929 . S
H1163 C1172 0.929 . S
C1164 H1158 0.930 . S
C1164 C1165 1.367 . S
C1164 C1172 1.378 . S
C1165 C1164 1.367 . S
C1165 C1173 1.433 . S
C1166 H1162 0.929 . S
C1166 C1168 1.378 . S
C1166 C1170 1.350 . S
C1167 C1170 1.463 . S
C1167 C1172 1.350 . S
C1167 N1175 1.427 . S
C1168 H1159 0.930 . S
C1168 C1166 1.378 . S
C1168 C1169 1.367 . S
C1169 C1168 1.367 . S
C1169 C1171 1.433 . S
C1170 C1166 1.350 . S
C1170 C1167 1.463 . S
C1170 N1174 1.427 . S
C1171 H1161 0.929 . S
C1171 C1169 1.433 . S
C1171 N1174 1.384 . S
C1172 H1163 0.929 . S
C1172 C1164 1.378 . S
C1172 C1167 1.350 . S
C1173 H1160 0.929 1_556 S
C1173 C1165 1.433 . S
C1173 N1175 1.384 . S
N1174 C1170 1.427 . S
N1174 C1171 1.384 . S
N1175 C1167 1.427 . S
N1175 C1173 1.384 . S
H1176 C1182 0.930 . S
H1177 C1186 0.930 . S
H1178 C1191 0.929 . S
H1179 C1189 0.929 1_554 S
H1180 C1184 0.929 . S
H1181 C1190 0.929 . S
C1182 H1176 0.930 . S
C1182 C1183 1.367 . S
C1182 C1190 1.378 . S
C1183 C1182 1.367 . S
C1183 C1191 1.433 . S
C1184 H1180 0.929 . S
C1184 C1186 1.378 . S
C1184 C1188 1.350 . S
C1185 C1188 1.463 . S
C1185 C1190 1.350 . S
C1185 N1193 1.427 . S
C1186 H1177 0.930 . S
C1186 C1184 1.378 . S
C1186 C1187 1.367 . S
C1187 C1186 1.367 . S
C1187 C1189 1.433 . S
C1188 C1184 1.350 . S
C1188 C1185 1.463 . S
C1188 N1192 1.427 . S
C1189 H1179 0.929 1_556 S
C1189 C1187 1.433 . S
C1189 N1192 1.384 . S
C1190 H1181 0.929 . S
C1190 C1182 1.378 . S
C1190 C1185 1.350 . S
C1191 H1178 0.929 . S
C1191 C1183 1.433 . S
C1191 N1193 1.384 . S
N1192 C1188 1.427 . S
N1192 C1189 1.384 . S
N1193 C1185 1.427 . S
N1193 C1191 1.384 . S
H1194 C1200 0.930 . S
H1195 C1204 0.930 . S
H1196 C1209 0.929 . S
H1197 C1207 0.929 . S
H1198 C1202 0.929 . S
H1199 C1208 0.929 . S
C1200 H1194 0.930 . S
C1200 C1201 1.367 . S
C1200 C1208 1.378 . S
C1201 C1200 1.367 . S
C1201 C1209 1.433 . S
C1202 H1198 0.929 . S
C1202 C1204 1.378 . S
C1202 C1206 1.350 . S
C1203 C1206 1.463 . S
C1203 C1208 1.350 . S
C1203 N1211 1.427 . S
C1204 H1195 0.930 . S
C1204 C1202 1.378 . S
C1204 C1205 1.367 . S
C1205 C1204 1.367 . S
C1205 C1207 1.433 . S
C1206 C1202 1.350 . S
C1206 C1203 1.463 . S
C1206 N1210 1.427 . S
C1207 H1197 0.929 . S
C1207 C1205 1.433 . S
C1207 N1210 1.384 . S
C1208 H1199 0.929 . S
C1208 C1200 1.378 . S
C1208 C1203 1.350 . S
C1209 H1196 0.929 . S
C1209 C1201 1.433 . S
C1209 N1211 1.384 . S
N1210 C1206 1.427 . S
N1210 C1207 1.384 . S
N1211 C1203 1.427 . S
N1211 C1209 1.384 . S
H1212 C1218 0.930 . S
H1213 C1222 0.930 . S
H1214 C1227 0.929 . S
H1215 C1225 0.929 . S
H1216 C1220 0.929 . S
H1217 C1226 0.929 . S
C1218 H1212 0.930 . S
C1218 C1219 1.367 . S
C1218 C1226 1.378 . S
C1219 C1218 1.367 . S
C1219 C1227 1.433 . S
C1220 H1216 0.929 . S
C1220 C1222 1.378 . S
C1220 C1224 1.350 . S
C1221 C1224 1.463 . S
C1221 C1226 1.350 . S
C1221 N1229 1.427 . S
C1222 H1213 0.930 . S
C1222 C1220 1.378 . S
C1222 C1223 1.367 . S
C1223 C1222 1.367 . S
C1223 C1225 1.433 . S
C1224 C1220 1.350 . S
C1224 C1221 1.463 . S
C1224 N1228 1.427 . S
C1225 H1215 0.929 . S
C1225 C1223 1.433 . S
C1225 N1228 1.384 . S
C1226 H1217 0.929 . S
C1226 C1218 1.378 . S
C1226 C1221 1.350 . S
C1227 H1214 0.929 . S
C1227 C1219 1.433 . S
C1227 N1229 1.384 . S
N1228 C1224 1.427 . S
N1228 C1225 1.384 . S
N1229 C1221 1.427 . S
N1229 C1227 1.384 . S
H1230 C1236 0.930 . S
H1231 C1240 0.930 1_556 S
H1232 C1245 0.929 . S
H1233 C1243 0.929 . S
H1234 C1238 0.929 . S
H1235 C1244 0.929 . S
C1236 H1230 0.930 . S
C1236 C1237 1.367 . S
C1236 C1244 1.378 . S
C1237 C1236 1.367 . S
C1237 C1245 1.433 . S
C1238 H1234 0.929 . S
C1238 C1240 1.378 . S
C1238 C1242 1.350 . S
C1239 C1242 1.463 . S
C1239 C1244 1.350 . S
C1239 N1247 1.427 . S
C1240 H1231 0.930 1_554 S
C1240 C1238 1.378 . S
C1240 C1241 1.367 . S
C1241 C1240 1.367 . S
C1241 C1243 1.433 . S
C1242 C1238 1.350 . S
C1242 C1239 1.463 . S
C1242 N1246 1.427 . S
C1243 H1233 0.929 . S
C1243 C1241 1.433 . S
C1243 N1246 1.384 . S
C1244 H1235 0.929 . S
C1244 C1236 1.378 . S
C1244 C1239 1.350 . S
C1245 H1232 0.929 . S
C1245 C1237 1.433 . S
C1245 N1247 1.384 . S
N1246 C1242 1.427 . S
N1246 C1243 1.384 . S
N1247 C1239 1.427 . S
N1247 C1245 1.384 . S
C535 C21 1.143 . S
C539 C153 1.143 . S
C553 C186 1.143 . S
C557 C54 1.143 . S
C571 C219 1.141 . S
C575 C87 1.141 . S
C589 C120 1.143 . S
C593 C252 1.143 . S
C607 C285 1.153 . S
C611 C351 1.153 . S
C625 C384 1.155 . S
C629 C318 1.155 . S
C643 C417 1.141 . S
C647 C483 1.141 . S
C661 C450 1.141 . S
C665 C516 1.141 . S
C679 N13 1.167 . S
C683 N178 1.168 1_554 S
C697 N211 1.180 . S
C701 N46 1.173 . S
C715 N244 1.167 . S
C719 N79 1.172 . S
C733 N112 1.176 1_556 S
C737 N145 1.170 . S
C751 C150 1.979 . S
C755 C348 1.977 1_556 S
C769 C84 1.980 . S
C773 C282 1.978 . S
C787 C216 1.981 . S
C791 C381 1.979 . S
C805 C18 1.978 . S
C809 C315 1.980 1_554 S
C823 N409 1.172 . S
C827 N277 1.179 . S
C841 N343 1.185 1_556 S
C845 N508 1.190 . S
C859 N310 1.179 1_554 S
C863 N442 1.186 . S
C877 N376 1.169 . S
C881 N475 1.175 . S
C895 C480 1.980 . S
C899 C51 1.981 . S
C913 C183 1.979 1_554 S
C917 C447 1.981 . S
C931 C117 1.981 1_556 S
C935 C513 1.979 . S
C949 C414 1.978 . S
C953 C249 1.978 . S
C967 C172 1.683 . S
C971 C7 1.682 . S
C985 C205 1.681 1_556 S
C989 C40 1.683 . S
C1003 C73 1.686 1_554 S
C1007 C238 1.685 . S
C1021 C106 1.682 . S
C1025 C139 1.681 . S
C1039 N134 0.732 . S
C1043 N332 0.724 . S
C1057 N266 0.730 . S
C1061 N68 0.735 . S
C1075 N365 0.721 . S
C1079 N200 0.730 . S
C1093 N2 0.705 . S
C1097 N299 0.699 . S
C1111 C403 1.685 1_554 S
C1115 C271 1.684 . S
C1129 C337 1.684 . S
C1133 C502 1.682 . S
C1147 C436 1.676 . S
C1151 C304 1.675 . S
C1165 C469 1.676 1_556 S
C1169 C370 1.676 . S
C1183 N35 0.734 . S
C1187 N464 0.736 . S
C1201 N167 0.697 . S
C1205 N431 0.702 . S
C1219 N497 0.700 . S
C1223 N101 0.708 . S
C1237 N233 0.697 . S
C1241 N398 0.701 . S
