# Generated by pormake.
# Topology vby, (6)-cn, num edge types: 1
# Building blocks:
#     Node 0, Type 0, BuildingBlock: PAMTOO_clean_sbu_0, # of connection points: 6
#     Node 1, Type 0, BuildingBlock: PAMTOO_clean_sbu_0, # of connection points: 6
#     Node 2, Type 0, BuildingBlock: PAMTOO_clean_sbu_0, # of connection points: 6
#     Node 3, Type 0, BuildingBlock: PAMTOO_clean_sbu_0, # of connection points: 6
#     Node 4, Type 0, BuildingBlock: PAMTOO_clean_sbu_0, # of connection points: 6
#     Node 5, Type 0, BuildingBlock: PAMTOO_clean_sbu_0, # of connection points: 6
#     Node 6, Type 0, BuildingBlock: PAMTOO_clean_sbu_0, # of connection points: 6
#     Node 7, Type 0, BuildingBlock: PAMTOO_clean_sbu_0, # of connection points: 6
#     Edge 8, Type (0, 0), BuildingBlock: TEMPAE_clean_linker_10, # of connection points: 2
#     Edge 9, Type (0, 0), BuildingBlock: TEMPAE_clean_linker_10, # of connection points: 2
#     Edge 10, Type (0, 0), BuildingBlock: TEMPAE_clean_linker_10, # of connection points: 2
#     Edge 11, Type (0, 0), BuildingBlock: TEMPAE_clean_linker_10, # of connection points: 2
#     Edge 12, Type (0, 0), BuildingBlock: TEMPAE_clean_linker_10, # of connection points: 2
#     Edge 13, Type (0, 0), BuildingBlock: TEMPAE_clean_linker_10, # of connection points: 2
#     Edge 14, Type (0, 0), BuildingBlock: TEMPAE_clean_linker_10, # of connection points: 2
#     Edge 15, Type (0, 0), BuildingBlock: TEMPAE_clean_linker_10, # of connection points: 2
#     Edge 16, Type (0, 0), BuildingBlock: TEMPAE_clean_linker_10, # of connection points: 2
#     Edge 17, Type (0, 0), BuildingBlock: TEMPAE_clean_linker_10, # of connection points: 2
#     Edge 18, Type (0, 0), BuildingBlock: TEMPAE_clean_linker_10, # of connection points: 2
#     Edge 19, Type (0, 0), BuildingBlock: TEMPAE_clean_linker_10, # of connection points: 2
#     Edge 20, Type (0, 0), BuildingBlock: TEMPAE_clean_linker_10, # of connection points: 2
#     Edge 21, Type (0, 0), BuildingBlock: TEMPAE_clean_linker_10, # of connection points: 2
#     Edge 22, Type (0, 0), BuildingBlock: TEMPAE_clean_linker_10, # of connection points: 2
#     Edge 23, Type (0, 0), BuildingBlock: TEMPAE_clean_linker_10, # of connection points: 2
#     Edge 24, Type (0, 0), BuildingBlock: TEMPAE_clean_linker_10, # of connection points: 2
#     Edge 25, Type (0, 0), BuildingBlock: TEMPAE_clean_linker_10, # of connection points: 2
#     Edge 26, Type (0, 0), BuildingBlock: TEMPAE_clean_linker_10, # of connection points: 2
#     Edge 27, Type (0, 0), BuildingBlock: TEMPAE_clean_linker_10, # of connection points: 2
#     Edge 28, Type (0, 0), BuildingBlock: TEMPAE_clean_linker_10, # of connection points: 2
#     Edge 29, Type (0, 0), BuildingBlock: TEMPAE_clean_linker_10, # of connection points: 2
#     Edge 30, Type (0, 0), BuildingBlock: TEMPAE_clean_linker_10, # of connection points: 2
#     Edge 31, Type (0, 0), BuildingBlock: TEMPAE_clean_linker_10, # of connection points: 2
# Relax obj value: 0.142
# Max RMSD: 0.192
# Mean RMSD: 0.182
data_MOF--net-vby--node1-PAMTOO_clean_sbu_0--edge1-TEMPAE_clean_linker_10
_symmetry_space_group_name_H-M    P1
_symmetry_Int_Tables_number       1
_symmetry_cell_setting            triclinic
loop_
_symmetry_equiv_pos_as_xyz
'x, y, z'
_cell_length_a     15.599967
_cell_length_b     105.83187
_cell_length_c     30.335427
_cell_angle_alpha  85.498741
_cell_angle_beta   94.557255
_cell_angle_gamma 89.981359
loop_
_atom_site_label
_atom_site_type_symbol
_atom_site_fract_x
_atom_site_fract_y
_atom_site_fract_z
_atom_type_partial_charge
Dy0 Dy 0.10424 0.39943 0.02508 0.0
Dy1 Dy 0.09857 0.36798 0.02187 0.0
C2 C 0.09267 0.38133 0.11041 0.0
O3 O 0.23474 0.39327 0.01001 0.0
O4 O 0.23668 0.37258 0.03917 0.0
O5 O 0.08284 0.41618 0.05951 0.0
O6 O 0.14775 0.41765 -0.00139 0.0
O7 O 0.12718 0.3766 0.95522 0.0
O8 O 0.05382 0.39531 0.95687 0.0
O9 O 0.96199 0.37441 0.00679 0.0
O10 O 0.96573 0.3946 0.03116 0.0
O11 O 0.06554 0.35119 0.98787 0.0
O12 O 0.12122 0.34948 0.056 0.0
C13 C 0.27661 0.38282 0.02456 0.0
O14 O 0.14088 0.39016 0.09258 0.0
O15 O 0.05348 0.37317 0.08572 0.0
C16 C 0.08535 0.43681 0.01988 0.0
C17 C 0.05281 0.46328 0.00974 0.0
C18 C 1.02177 0.45574 0.04525 0.0
C19 C 0.03821 0.44267 0.05038 0.0
C20 C 0.11266 0.44425 0.98321 0.0
C21 C 0.0964 0.45731 0.97814 0.0
C22 C 0.11907 0.4237 0.03036 0.0
C23 C 0.08552 0.38644 0.9347 0.0
C24 C 0.92333 0.38459 0.01819 0.0
C25 C 0.13969 0.33174 0.01308 0.0
C26 C 0.20296 0.30711 0.0028 0.0
C27 C 0.1491 0.31358 0.96897 0.0
C28 C 0.11761 0.32571 0.97413 0.0
C29 C 0.1963 0.32549 0.04619 0.0
C30 C 0.22776 0.31334 0.04104 0.0
C31 C 0.09379 0.34348 0.02165 0.0
H32 H 0.98863 0.46003 0.07041 0.0
H33 H 1.01754 0.43727 0.07944 0.0
H34 H 0.1501 0.4401 0.95938 0.0
H35 H 0.12009 0.4628 0.95005 0.0
H36 H 0.12972 0.30914 0.93879 0.0
H37 H 0.07334 0.33018 0.94822 0.0
H38 H 0.21366 0.32974 0.07695 0.0
H39 H 0.26838 0.30861 0.06797 0.0
Dy40 Dy 0.95712 0.6544 0.98694 0.0
Dy41 Dy 0.9492 0.62278 0.99003 0.0
C42 C 0.97026 0.63732 0.0782 0.0
O43 O 0.09291 0.64796 0.00404 0.0
O44 O 0.08839 0.62732 0.98377 0.0
O45 O 0.99132 0.67203 0.01517 0.0
O46 O 0.93413 0.67217 0.94749 0.0
O47 O 0.90937 0.6315 0.92205 0.0
O48 O 1.0038 0.64768 0.92552 0.0
O49 O 0.81981 0.62919 0.00532 0.0
O50 O 0.81789 0.64959 0.97316 0.0
O51 O 0.96248 0.60597 0.95502 0.0
O52 O 0.91302 0.6045 0.02011 0.0
C53 C 0.13117 0.63747 -0.00492 0.0
O54 O 0.93479 0.64747 0.05629 0.0
O55 O 0.99565 0.62754 0.05817 0.0
C56 C 0.91612 0.69094 0.98475 0.0
C57 C 0.85022 0.71558 0.99221 0.0
C58 C 0.87568 0.7076 0.03037 0.0
C59 C 0.90844 0.69543 0.0267 0.0
C60 C 0.88831 0.69877 0.94672 0.0
C61 C 0.85552 0.71091 0.95038 0.0
C62 C 0.96244 0.67898 0.9796 0.0
C63 C 0.96087 0.63951 0.90254 0.0
C64 C 0.77811 0.63956 0.98973 0.0
C65 C 0.97022 0.58542 -0.00501 0.0
C66 C 1.00671 0.55906 0.00188 0.0
C67 C 0.03178 0.56694 0.96568 0.0
C68 C 1.01358 0.57995 0.96221 0.0
C69 C 0.9488 0.57765 0.03223 0.0
C70 C 0.96718 0.56464 0.03574 0.0
C71 C 0.93395 0.59843 0.98666 0.0
H72 H 0.87145 0.71084 0.06312 0.0
H73 H 0.92988 0.6897 0.0567 0.0
H74 H 0.89481 0.69567 0.91394 0.0
H75 H 0.83764 0.71682 0.92029 0.0
H76 H 0.06346 0.56298 0.93933 0.0
H77 H 0.03014 0.5856 0.93281 0.0
H78 H 0.91396 0.5815 0.05768 0.0
H79 H 0.9463 0.55884 0.06388 0.0
Dy80 Dy 0.09068 0.6518 0.49527 0.0
Dy81 Dy 0.10023 0.62018 0.49801 0.0
C82 C 0.07722 0.63732 0.40958 0.0
O83 O 0.95831 0.64531 0.5078 0.0
O84 O 0.95902 0.62468 0.48762 0.0
O85 O 0.11109 0.67 0.46008 0.0
O86 O 0.05486 0.66901 0.52339 0.0
O87 O 0.06399 0.62493 0.56437 0.0
O88 O 0.12824 0.64449 0.56504 0.0
O89 O 0.23321 0.62661 0.51686 0.0
O90 O 0.22723 0.64702 0.48474 0.0
O91 O 0.14539 0.60201 0.52874 0.0
O92 O 0.07779 0.60329 0.46307 0.0
C93 C 0.91839 0.6348 0.49829 0.0
O94 O 0.03621 0.64545 0.43066 0.0
O95 O 0.12946 0.62896 0.43159 0.0
C96 C 0.12647 0.6883 0.50214 0.0
C97 C 0.18689 0.71309 0.51565 0.0
C98 C 0.21271 0.70661 0.4801 0.0
C99 C 0.1826 0.69438 0.47332 0.0
C100 C 0.10322 0.6946 0.53859 0.0
C101 C 0.13324 0.70682 0.54534 0.0
C102 C 0.08242 0.67638 0.49105 0.0
C103 C 0.09322 0.63461 0.58554 0.0
C104 C 0.27116 0.63692 0.50155 0.0
C105 C 0.08048 0.58291 0.50393 0.0
C106 C 0.04493 0.55664 0.51573 0.0
C107 C 0.07346 0.56344 0.55214 0.0
C108 C 0.0913 0.57642 0.5463 0.0
C109 C 0.0485 0.57623 0.46795 0.0
C110 C 0.03078 0.56329 0.47376 0.0
C111 C 0.11516 0.59584 0.4953 0.0
H112 H 0.25318 0.71119 0.4563 0.0
H113 H 0.20078 0.68991 0.4445 0.0
H114 H 0.05925 0.69027 0.56112 0.0
H115 H 0.11302 0.71145 0.57341 0.0
H116 H 0.08398 0.55867 0.58504 0.0
H117 H 0.11669 0.58123 0.5747 0.0
H118 H 0.04106 0.58089 0.43475 0.0
H119 H 1.0101 0.55837 0.44482 0.0
Dy120 Dy 0.95631 0.36703 0.52555 0.0
Dy121 Dy 0.9479 0.3985 0.50678 0.0
C122 C 0.95983 0.38094 0.43012 0.0
O123 O 0.092 0.37336 0.53911 0.0
O124 O 0.08663 0.39345 0.50294 0.0
O125 O 0.95335 0.34892 0.49783 0.0
O126 O 0.97355 0.34972 0.56908 0.0
O127 O 0.99973 0.39429 0.57682 0.0
O128 O 0.93089 0.37533 0.58883 0.0
O129 O 0.81833 0.39208 0.52529 0.0
O130 O 0.81804 0.37163 0.50513 0.0
O131 O 0.89871 0.41641 0.52325 0.0
O132 O 0.97287 0.41568 0.46586 0.0
C133 C 0.12997 0.38348 0.52175 0.0
O134 O 1.00044 0.37277 0.45902 0.0
O135 O 0.91135 0.38976 0.44352 0.0
C136 C 0.9154 0.33041 0.5422 0.0
C137 C 0.85114 0.30532 0.55014 0.0
C138 C 0.84062 0.31275 0.5095 0.0
C139 C 0.87234 0.32512 0.50557 0.0
C140 C 0.92301 0.32319 0.58325 0.0
C141 C 0.89093 0.31082 0.58723 0.0
C142 C 0.96368 0.34244 0.53626 0.0
C143 C 0.97043 0.3853 0.60385 0.0
C144 C 0.77718 0.38174 0.51523 0.0
C145 C 0.9663 0.4356 0.49801 0.0
C146 C 1.00436 0.46133 0.50999 0.0
C147 C 1.00284 0.45236 0.54678 0.0
C148 C 0.9839 0.43961 0.54087 0.0
C149 C 0.97106 0.44442 0.46132 0.0
C150 C 0.98987 0.45712 0.46717 0.0
C151 C 0.93201 0.42285 0.49044 0.0
H152 H 0.81149 0.30882 0.48002 0.0
H153 H 0.86632 0.3303 0.47323 0.0
H154 H 0.95673 0.32693 0.61197 0.0
H155 H 0.89906 0.30547 0.61922 0.0
H156 H 1.01487 0.45522 0.58019 0.0
H157 H 0.98049 0.43302 0.56983 0.0
H158 H 0.95664 0.44159 0.42798 0.0
H159 H 0.98925 0.46375 0.43806 0.0
Dy160 Dy 0.6041 0.90086 -0.00162 0.0
Dy161 Dy 0.60356 0.86923 0.01813 0.0
C162 C 0.5847 0.88811 0.09476 0.0
O163 O 0.73782 0.89415 0.02117 0.0
O164 O 0.73362 0.87431 -0.0037 0.0
O165 O 0.65644 0.91883 0.01577 0.0
O166 O 0.56974 0.91796 0.95644 0.0
O167 O 0.57257 0.87279 0.94529 0.0
O168 O 0.63025 0.89276 0.93519 0.0
O169 O 0.47004 0.87565 0.02739 0.0
O170 O 0.46553 0.89525 0.98808 0.0
O171 O 0.54945 0.85069 0.00974 0.0
O172 O 0.66021 0.8528 0.05667 0.0
C173 C 0.77714 0.88424 0.00844 0.0
O174 O 0.55999 0.8976 0.06618 0.0
O175 O 0.62228 0.87794 0.08289 0.0
C176 C 0.58271 0.93804 0.98791 0.0
C177 C 0.54896 0.96408 -0.00537 0.0
C178 C 0.57341 0.95605 0.03277 0.0
C179 C 0.59039 0.94316 0.02945 0.0
C180 C 0.55439 0.94592 0.9502 0.0
C181 C 0.53751 0.95878 0.9535 0.0
C182 C 0.61564 0.92521 0.98191 0.0
C183 C 0.59772 0.88241 0.91956 0.0
C184 C 0.42697 0.88544 0.00727 0.0
C185 C 0.63796 0.83238 0.03012 0.0
C186 C 0.68515 0.80722 0.01723 0.0
C187 C 0.66856 0.81619 0.98067 0.0
C188 C 0.64479 0.82868 0.98705 0.0
C189 C 0.65701 0.82356 0.06649 0.0
C190 C 0.68033 0.81113 0.06019 0.0
C191 C 0.60568 0.84498 0.03877 0.0
H192 H 0.58334 0.95983 0.06492 0.0
H193 H 0.61281 0.93736 0.05913 0.0
H194 H 0.54863 0.94226 0.91774 0.0
H195 H 0.51736 0.96464 0.92359 0.0
H196 H 0.67148 0.81346 0.94716 0.0
H197 H 0.63023 0.83533 0.95845 0.0
H198 H 0.65212 0.82622 0.09999 0.0
H199 H 0.6942 0.80455 0.08906 0.0
Dy200 Dy 0.44531 0.15304 0.98317 0.0
Dy201 Dy 0.44559 0.12197 0.0094 0.0
C202 C 0.45115 0.14153 0.08378 0.0
O203 O 0.57791 0.14637 0.97321 0.0
O204 O 0.58359 0.12798 0.01926 0.0
O205 O 0.50103 0.17163 0.98757 0.0
O206 O 0.38673 0.16914 0.94355 0.0
O207 O 0.48944 0.12418 0.94125 0.0
O208 O 0.42244 0.14324 0.92046 0.0
O209 O 0.31189 0.12826 0.98459 0.0
O210 O 0.31565 0.1484 0.00649 0.0
O211 O 0.38852 0.10389 -0.00213 0.0
O212 O 0.48676 0.10524 0.05208 0.0
C213 C 0.62186 0.13719 -0.00341 0.0
O214 O 0.48094 0.15031 0.05609 0.0
O215 O 0.41489 0.13122 0.06983 0.0
C216 C 0.40888 0.18971 0.96915 0.0
C217 C 0.36149 0.21501 0.98048 0.0
C218 C 0.40517 0.20747 0.01553 0.0
C219 C 0.42889 0.19494 0.0099 0.0
C220 C 0.36294 0.19711 0.93473 0.0
C221 C 0.33934 0.20958 0.94031 0.0
C222 C 0.44186 0.17716 0.95979 0.0
C223 C 0.46103 0.13291 0.91048 0.0
C224 C 0.27211 0.13833 -0.00428 0.0
C225 C 0.46737 0.08497 0.02249 0.0
C226 C 0.50036 0.05904 0.01323 0.0
C227 C 0.47105 0.0672 0.97623 0.0
C228 C 0.45475 0.08002 0.98077 0.0
C229 C 0.50001 0.07695 0.05905 0.0
C230 C 0.51665 0.06414 0.05448 0.0
C231 C 0.43587 0.09777 0.02999 0.0
H232 H 0.42364 0.21137 0.04681 0.0
H233 H 0.4647 0.18949 0.037 0.0
H234 H 0.3471 0.19332 0.90293 0.0
H235 H 0.30441 0.21503 0.9129 0.0
H236 H 0.45908 0.0636 0.94386 0.0
H237 H 0.42945 0.08594 0.95191 0.0
H238 H 0.50925 0.08047 0.09168 0.0
H239 H 0.53848 0.05812 0.08373 0.0
Dy240 Dy 0.58994 0.15204 0.50702 0.0
Dy241 Dy 0.59547 0.12086 0.49772 0.0
C242 C 0.57419 0.14035 0.41486 0.0
O243 O 0.45742 0.14534 0.51873 0.0
O244 O 0.45535 0.12605 0.48774 0.0
O245 O 0.59655 0.17096 0.47517 0.0
O246 O 0.5706 0.16829 0.54445 0.0
O247 O 0.55734 0.12376 0.56544 0.0
O248 O 0.62924 0.14241 0.57388 0.0
O249 O 0.72981 0.12667 0.51729 0.0
O250 O 0.72534 0.1478 0.49322 0.0
O251 O 0.64417 0.10232 0.5219 0.0
O252 O 0.56563 0.10474 0.45933 0.0
C253 C 0.41601 0.13556 0.50353 0.0
O254 O 0.53563 0.14785 0.4395 0.0
O255 O 0.62363 0.1311 0.43347 0.0
C256 C 0.63074 0.18828 0.51926 0.0
C257 C 0.69687 0.21273 0.53339 0.0
C258 C 0.67583 0.20914 0.49019 0.0
C259 C 0.64311 0.1971 0.48327 0.0
C260 C 0.65388 0.19169 0.56249 0.0
C261 C 0.68683 0.20377 0.56945 0.0
C262 C 0.58316 0.17644 0.51104 0.0
C263 C 0.59076 0.1323 0.59082 0.0
C264 C 0.76856 0.13729 0.50568 0.0
C265 C 0.57465 0.08376 0.49597 0.0
C266 C 0.54142 0.05741 0.50684 0.0
C267 C 0.5632 0.06433 0.54389 0.0
C268 C 0.57982 0.07735 0.53853 0.0
C269 C 0.54936 0.07697 0.45922 0.0
C270 C 0.53278 0.06397 0.46454 0.0
C271 C 0.60793 0.0968 0.48827 0.0
H272 H 0.68118 0.21582 0.46162 0.0
H273 H 0.6243 0.19487 0.44963 0.0
H274 H 0.64433 0.18518 0.59101 0.0
H275 H 0.70326 0.20616 0.60314 0.0
H276 H 0.56925 0.05962 0.57701 0.0
H277 H 0.5997 0.08228 0.56757 0.0
H278 H 0.54628 0.0816 0.42597 0.0
H279 H 0.51728 0.05897 0.43518 0.0
Dy280 Dy 0.45719 0.86715 0.50518 0.0
Dy281 Dy 0.44981 0.89876 0.49733 0.0
C282 C 0.45732 0.88354 0.41458 0.0
O283 O 0.59353 0.87322 0.51832 0.0
O284 O 0.58787 0.89415 0.48965 0.0
O285 O 0.43648 0.84979 0.47331 0.0
O286 O 0.49114 0.84912 0.54164 0.0
O287 O 0.50591 0.89227 0.56519 0.0
O288 O 0.43197 0.87357 0.57141 0.0
O289 O 0.32056 0.892 0.51501 0.0
O290 O 0.31849 0.87227 0.48846 0.0
O291 O 0.4103 0.91615 0.52275 0.0
O292 O 0.46623 0.91668 0.45925 0.0
C293 C 0.63124 0.88377 0.50448 0.0
O294 O 0.49984 0.87474 0.44006 0.0
O295 O 0.40853 0.89161 0.43174 0.0
C296 C 0.42129 0.83038 0.51782 0.0
C297 C 0.35488 0.80546 0.52581 0.0
C298 C 0.30776 0.81529 0.5008 0.0
C299 C 0.34063 0.82762 0.4968 0.0
C300 C 0.46663 0.82071 0.54422 0.0
C301 C 0.43388 0.80841 0.54825 0.0
C302 C 0.4648 0.8426 0.50839 0.0
C303 C 0.4757 0.88271 0.58946 0.0
C304 C 0.2786 0.88205 0.50184 0.0
C305 C 0.47001 0.93596 0.49611 0.0
C306 C 0.50726 0.96182 0.50667 0.0
C307 C 0.50041 0.95316 0.54391 0.0
C308 C 0.48177 0.94037 0.53871 0.0
C309 C 0.48035 0.94449 0.45908 0.0
C310 C 0.49883 0.95724 0.46425 0.0
C311 C 0.43435 0.92325 0.48884 0.0
H312 H 0.24612 0.81341 0.48363 0.0
H313 H 0.30417 0.83488 0.47616 0.0
H314 H 0.5294 0.82255 0.56032 0.0
H315 H 0.47247 0.80108 0.56735 0.0
H316 H 0.50771 0.95632 0.5771 0.0
H317 H 0.47367 0.93407 0.56795 0.0
H318 H 0.47018 0.94141 0.42584 0.0
H319 H 0.50238 0.96362 0.43475 0.0
C320 C 0.41095 0.39158 -0.00521 0.0
C321 C 0.37139 0.38268 0.02324 0.0
C322 C 0.50056 0.3918 -0.00682 0.0
C323 C 0.55231 0.38306 0.02131 0.0
C324 C 0.51289 0.37404 0.05017 0.0
C325 C 0.42275 0.37387 0.05046 0.0
C326 C 0.53984 0.4014 0.96131 0.0
C327 C 0.56603 0.36469 0.08113 0.0
C328 C 0.77942 0.37645 0.99141 0.0
C329 C 0.82834 0.3845 0.018 0.0
C330 C 0.68955 0.37592 0.99202 0.0
C331 C 0.6477 0.38343 0.02057 0.0
C332 C 0.69683 0.39152 0.04768 0.0
C333 C 0.78646 0.39205 0.04573 0.0
C334 C 0.63934 0.36739 0.96191 0.0
C335 C 0.65478 0.39953 0.07904 0.0
H336 H 0.37168 0.39834 0.9733 0.0
H337 H 0.39263 0.36701 0.07266 0.0
H338 H 0.58318 0.40776 0.97994 0.0
H339 H 0.57943 0.39649 0.93898 0.0
H340 H 0.49044 0.40728 0.94071 0.0
H341 H 0.52567 0.35836 0.10177 0.0
H342 H 0.6055 0.35876 0.06183 0.0
H343 H 0.61108 0.36984 0.10341 0.0
H344 H 0.81137 0.37063 0.96976 0.0
H345 H 0.82399 0.39818 0.06674 0.0
H346 H 0.59156 0.37306 0.93955 0.0
H347 H 0.60307 0.36032 0.98188 0.0
H348 H 0.68146 0.36226 0.94132 0.0
H349 H 0.60835 0.40626 0.06009 0.0
H350 H 0.70231 0.40503 0.09885 0.0
H351 H 0.618 0.39341 0.1021 0.0
C352 C 0.27469 0.64576 0.02146 0.0
C353 C 0.22619 0.63748 -0.00436 0.0
C354 C 0.36452 0.64634 0.02088 0.0
C355 C 0.40682 0.63864 -0.00686 0.0
C356 C 0.35813 0.63029 0.96685 0.0
C357 C 0.26845 0.62971 0.96875 0.0
C358 C 0.41418 0.65518 0.05009 0.0
C359 C 0.40069 0.62205 0.93636 0.0
C360 C 0.63157 0.64824 0.96287 0.0
C361 C 0.68329 0.63972 0.99111 0.0
C362 C 0.54138 0.64795 0.96291 0.0
C363 C 0.50223 0.63909 0.99246 0.0
C364 C 0.55432 0.63065 0.02161 0.0
C365 C 0.64398 0.631 0.02032 0.0
C366 C 0.48789 0.657 0.93094 0.0
C367 C 0.51535 0.62123 0.05421 0.0
H368 H 0.24239 0.65175 0.04244 0.0
H369 H 0.23118 0.62342 0.94828 0.0
H370 H 0.46226 0.64971 0.07294 0.0
H371 H 0.45005 0.66214 0.02947 0.0
H372 H 0.37173 0.66043 0.07013 0.0
H373 H 0.3535 0.61633 0.91718 0.0
H374 H 0.43706 0.62804 0.91272 0.0
H375 H 0.44756 0.61552 0.95592 0.0
H376 H 0.66145 0.65495 0.94006 0.0
H377 H 0.68346 0.62445 0.04257 0.0
H378 H 0.44781 0.66305 0.94947 0.0
H379 H 0.44341 0.65159 0.90917 0.0
H380 H 0.52804 0.66321 0.90979 0.0
H381 H 0.47526 0.62627 0.07596 0.0
H382 H 0.56493 0.61554 0.0754 0.0
H383 H 0.47253 0.61467 0.03614 0.0
C384 C 0.77255 0.62667 0.47381 0.0
C385 C 0.82373 0.63458 0.4998 0.0
C386 C 0.68233 0.62701 0.47352 0.0
C387 C 0.64269 0.63526 0.50054 0.0
C388 C 0.69432 0.64305 0.52757 0.0
C389 C 0.78402 0.6427 0.52655 0.0
C390 C 0.62937 0.61868 0.44381 0.0
C391 C 0.65483 0.65178 0.55759 0.0
C392 C 0.40871 0.64526 0.47328 0.0
C393 C 0.36631 0.63686 0.50218 0.0
C394 C 0.49853 0.64473 0.47196 0.0
C395 C 0.54722 0.63575 0.5008 0.0
C396 C 0.50484 0.6274 0.53056 0.0
C397 C 0.41494 0.62798 0.53062 0.0
C398 C 0.54129 0.6537 0.43939 0.0
C399 C 0.55449 0.61788 0.5625 0.0
H400 H 0.80289 0.62045 0.45286 0.0
H401 H 0.82328 0.64876 0.54707 0.0
H402 H 0.58909 0.61222 0.46393 0.0
H403 H 0.5851 0.62462 0.42031 0.0
H404 H 0.6699 0.61289 0.42448 0.0
H405 H 0.70413 0.65696 0.57747 0.0
H406 H 0.61215 0.65881 0.53757 0.0
H407 H 0.61452 0.64625 0.58062 0.0
H408 H 0.37151 0.65206 0.45095 0.0
H409 H 0.38272 0.6215 0.55323 0.0
H410 H 0.57815 0.64823 0.4174 0.0
H411 H 0.58776 0.65977 0.45744 0.0
H412 H 0.49417 0.65991 0.41849 0.0
H413 H 0.59084 0.61134 0.5439 0.0
H414 H 0.51198 0.61217 0.58393 0.0
H415 H 0.60215 0.62284 0.58403 0.0
C416 C 0.64192 0.39035 0.54067 0.0
C417 C 0.68231 0.38157 0.51661 0.0
C418 C 0.55228 0.39054 0.54221 0.0
C419 C 0.50125 0.38189 0.51848 0.0
C420 C 0.54148 0.37301 0.49405 0.0
C421 C 0.63166 0.37287 0.49376 0.0
C422 C 0.51218 0.40001 0.56932 0.0
C423 C 0.48916 0.36376 0.46778 0.0
C424 C 0.27485 0.37517 0.55225 0.0
C425 C 0.22503 0.38334 0.52173 0.0
C426 C 0.36474 0.37462 0.55163 0.0
C427 C 0.40576 0.38224 0.51916 0.0
C428 C 0.35572 0.39044 0.48806 0.0
C429 C 0.26608 0.39099 0.48999 0.0
C430 C 0.41589 0.36594 0.58594 0.0
C431 C 0.39681 0.39858 0.45252 0.0
H432 H 0.68056 0.39704 0.55877 0.0
H433 H 0.66237 0.36611 0.47493 0.0
H434 H 0.46813 0.40644 0.54751 0.0
H435 H 0.47319 0.395 0.59421 0.0
H436 H 0.56106 0.40584 0.58693 0.0
H437 H 0.53006 0.35752 0.45025 0.0
H438 H 0.45031 0.35774 0.4901 0.0
H439 H 0.44357 0.36901 0.44292 0.0
H440 H 0.2436 0.36927 0.57697 0.0
H441 H 0.22793 0.39721 0.46596 0.0
H442 H 0.4632 0.37153 0.60547 0.0
H443 H 0.45275 0.35898 0.56938 0.0
H444 H 0.37436 0.3607 0.60912 0.0
H445 H 0.44267 0.40526 0.468 0.0
H446 H 0.34864 0.40414 0.42995 0.0
H447 H 0.43406 0.39255 0.4325 0.0
C448 C 0.91509 0.87571 0.98453 0.0
C449 C 0.87247 0.88433 0.00821 0.0
C450 C 1.00511 0.87594 0.98334 0.0
C451 C 0.05402 0.88487 0.00699 0.0
C452 C 1.01138 0.89352 0.03127 0.0
C453 C 0.92127 0.89321 0.03129 0.0
C454 C 0.04789 0.86667 0.95656 0.0
C455 C 0.06103 0.90304 0.05756 0.0
C456 C 0.29114 0.87754 0.03852 0.0
C457 C 0.33164 0.88546 0.00728 0.0
C458 C 0.20112 0.87732 0.03897 0.0
C459 C 0.14986 0.88505 0.00691 0.0
C460 C 0.1903 0.89303 0.97512 0.0
C461 C 0.28065 0.89323 0.97594 0.0
C462 C 0.16087 0.86885 0.07396 0.0
C463 C 0.13804 0.9013 0.94002 0.0
H464 H 0.87798 0.86888 0.96634 0.0
H465 H 0.88909 0.89988 0.04987 0.0
H466 H 0.08571 0.87187 0.93158 0.0
H467 H 0.0935 0.86053 0.97856 0.0
H468 H 1.0007 0.86054 0.93913 0.0
H469 H 1.01842 0.90903 0.07506 0.0
H470 H 0.10782 0.89806 0.08246 0.0
H471 H 0.09837 0.90931 0.03523 0.0
H472 H 0.32993 0.87157 0.06312 0.0
H473 H 0.31132 0.89932 0.95151 0.0
H474 H 0.11772 0.86192 0.05799 0.0
H475 H 0.12087 0.87461 0.09361 0.0
H476 H 0.20971 0.86357 0.09697 0.0
H477 H 0.09345 0.89536 0.92025 0.0
H478 H 0.17906 0.90677 0.91715 0.0
H479 H 0.09814 0.90805 0.95587 0.0
C480 C 0.1283 0.12889 0.97506 0.0
C481 C 0.1767 0.13825 -0.00418 0.0
C482 C 0.03816 0.12859 0.97503 0.0
C483 C 0.99502 0.13777 -0.00315 0.0
C484 C 0.0435 0.14721 0.01812 0.0
C485 C 0.13358 0.14739 0.01707 0.0
C486 C 0.98901 0.11849 0.95135 0.0
C487 C 1.00021 0.15708 0.04221 0.0
C488 C 0.75756 0.14444 0.96353 0.0
C489 C 0.71725 0.13717 -0.00342 0.0
C490 C 0.84761 0.14465 0.96308 0.0
C491 C 0.89912 0.13758 -0.0031 0.0
C492 C 0.85888 0.13027 0.03049 0.0
C493 C 0.76852 0.13006 0.02972 0.0
C494 C 0.88763 0.1524 0.92622 0.0
C495 C 0.91136 0.12272 0.06745 0.0
H496 H 0.16082 0.12181 0.95838 0.0
H497 H 0.17032 0.15462 0.03344 0.0
H498 H 0.95181 0.11267 0.97506 0.0
H499 H 0.94212 0.12297 0.92535 0.0
H500 H 0.03195 0.11212 0.93557 0.0
H501 H 0.04706 0.1636 0.05791 0.0
H502 H 0.95439 0.16276 0.01877 0.0
H503 H 0.96254 0.15239 0.06832 0.0
H504 H 0.71861 0.14989 0.93757 0.0
H505 H 0.73807 0.12448 0.05554 0.0
H506 H 0.92792 0.14622 0.90824 0.0
H507 H 0.93045 0.1597 0.94027 0.0
H508 H 0.83864 0.15722 0.90202 0.0
H509 H 0.95164 0.11562 0.05349 0.0
H510 H 0.87049 0.11769 0.0915 0.0
H511 H 0.95561 0.12909 0.08556 0.0
C512 C 0.26967 0.12989 0.47129 0.0
C513 C 0.32141 0.13538 0.50443 0.0
C514 C 0.17949 0.13033 0.47073 0.0
C515 C 0.14046 0.13609 0.50481 0.0
C516 C 0.19271 0.14139 0.53888 0.0
C517 C 0.28248 0.14111 0.53795 0.0
C518 C 0.12597 0.12479 0.43338 0.0
C519 C 0.15381 0.14732 0.57642 0.0
C520 C 0.90758 0.14735 0.48569 0.0
C521 C 0.86385 0.13721 0.50623 0.0
C522 C 0.99753 0.14708 0.48468 0.0
C523 C 0.04499 0.13648 0.50513 0.0
C524 C 1.00134 0.1263 0.52637 0.0
C525 C 0.91143 0.12675 0.52645 0.0
C526 C 0.04173 0.15808 0.46138 0.0
C527 C 0.04965 0.11491 0.54913 0.0
H528 H 0.29967 0.12556 0.44512 0.0
H529 H 0.32244 0.14527 0.56385 0.0
H530 H 0.0848 0.11711 0.44687 0.0
H531 H 0.08256 0.13218 0.41583 0.0
H532 H 0.16614 0.12088 0.40896 0.0
H533 H 0.20348 0.15071 0.60098 0.0
H534 H 0.11215 0.15546 0.56312 0.0
H535 H 0.11255 0.14034 0.59382 0.0
H536 H 0.87145 0.15544 0.46979 0.0
H537 H 0.87844 0.11888 0.54259 0.0
H538 H 0.07857 0.15467 0.43477 0.0
H539 H 0.08843 0.16243 0.48512 0.0
H540 H 0.99554 0.16551 0.44647 0.0
H541 H 0.08564 0.11019 0.52485 0.0
H542 H 1.00627 0.10787 0.56473 0.0
H543 H 0.09751 0.11798 0.57512 0.0
C544 C 0.77551 0.8752 0.53409 0.0
C545 C 0.72617 0.88374 0.50471 0.0
C546 C 0.86542 0.87475 0.53393 0.0
C547 C 0.90695 0.88286 0.50305 0.0
C548 C 0.85739 0.89145 0.4731 0.0
C549 C 0.76761 0.89188 0.47459 0.0
C550 C 0.91601 0.86563 0.56699 0.0
C551 C 0.89915 0.90012 0.43924 0.0
C552 C 0.14312 0.89038 0.52798 0.0
C553 C 0.18364 0.88197 0.50256 0.0
C554 C 0.05332 0.89069 0.52866 0.0
C555 C 1.00242 0.88253 0.50276 0.0
C556 C 0.04279 0.87402 0.47695 0.0
C557 C 0.13302 0.87377 0.47745 0.0
C558 C 1.01294 0.89974 0.55724 0.0
C559 C 0.99059 0.86528 0.44847 0.0
H560 H 0.74381 0.86893 0.55761 0.0
H561 H 0.72966 0.89839 0.45146 0.0
H562 H 0.9531 0.85895 0.54931 0.0
H563 H 0.96307 0.87092 0.58777 0.0
H564 H 0.87405 0.86006 0.58911 0.0
H565 H 0.85135 0.90599 0.41752 0.0
H566 H 0.94493 0.90651 0.45624 0.0
H567 H 0.9366 0.89444 0.41814 0.0
H568 H 0.18172 0.8967 0.54776 0.0
H569 H 0.16381 0.8673 0.45755 0.0
H570 H 0.97342 0.8944 0.58114 0.0
H571 H 0.96932 0.90644 0.53629 0.0
H572 H 0.06168 0.90529 0.57609 0.0
H573 H 0.95124 0.85892 0.46944 0.0
H574 H 0.03163 0.85937 0.42981 0.0
H575 H 0.94548 0.87091 0.42443 0.0
C576 C 0.04306 0.53779 0.04233 0.0
C577 C 1.01635 0.54501 0.00283 0.0
C578 C 0.04913 0.5245 0.04373 0.0
C579 C 0.02756 0.51824 0.00477 0.0
C580 C 1.00078 0.52547 0.9648 0.0
C581 C 0.9956 0.53874 0.9643 0.0
C582 C 0.07857 0.51714 0.08695 0.0
C583 C 0.9768 0.51919 0.92258 0.0
C584 C 0.11546 0.48499 -0.00297 0.0
C585 C 0.04496 0.47737 0.00732 0.0
C586 C 0.11069 0.49826 -0.00385 0.0
C587 C 0.03344 0.50413 0.00569 0.0
C588 C 0.96184 0.49652 0.01587 0.0
C589 C 0.96852 0.48324 0.01668 0.0
C590 C 0.18866 0.50601 0.98537 0.0
C591 C 0.87813 0.5024 0.02593 0.0
H592 H 0.05983 0.54255 0.07214 0.0
H593 H 0.97339 0.5442 0.93382 0.0
H594 H 0.02809 0.51035 0.09686 0.0
H595 H 0.13697 0.51151 0.08273 0.0
H596 H 0.09331 0.52341 0.11422 0.0
H597 H 0.95743 0.52616 0.89423 0.0
H598 H 0.03195 0.51354 0.91375 0.0
H599 H 0.92285 0.51254 0.92761 0.0
H600 H 0.1753 0.48054 0.99054 0.0
H601 H 0.91358 0.47744 0.02434 0.0
H602 H 0.20889 0.51176 0.0134 0.0
H603 H 0.17254 0.51271 0.95588 0.0
H604 H 0.24383 0.50001 0.97862 0.0
H605 H 0.88892 0.50812 0.05497 0.0
H606 H 0.82837 0.49518 0.03305 0.0
H607 H 0.85307 0.50893 -0.0026 0.0
C608 C 0.06412 0.48271 0.48699 0.0
C609 C 1.01601 0.47512 0.51588 0.0
C610 C 0.06943 0.49589 0.48964 0.0
C611 C 0.02604 0.50167 0.52216 0.0
C612 C 0.97954 0.49404 0.55232 0.0
C613 C 0.9749 0.48088 0.54876 0.0
C614 C 0.11994 0.50367 0.45691 0.0
C615 C 0.93275 0.49981 0.58761 0.0
C616 C 0.09691 0.535 0.54699 0.0
C617 C 0.03558 0.54256 0.52058 0.0
C618 C 0.0933 0.52169 0.54881 0.0
C619 C 0.02705 0.51575 0.52345 0.0
C620 C 0.96361 0.52331 0.49771 0.0
C621 C 0.96851 0.53659 0.49669 0.0
C622 C 0.16195 0.51399 0.57684 0.0
C623 C 0.89173 0.51736 0.47027 0.0
H624 H 0.09724 0.47835 0.46194 0.0
H625 H 0.93664 0.47515 0.57089 0.0
H626 H 0.07642 0.51049 0.43639 0.0
H627 H 0.16955 0.50928 0.47481 0.0
H628 H 0.15212 0.4977 0.4345 0.0
H629 H 0.90386 0.49252 0.61017 0.0
H630 H 0.97743 0.50566 0.60767 0.0
H631 H 0.88079 0.50619 0.57176 0.0
H632 H 0.1497 0.53948 0.56512 0.0
H633 H 0.92009 0.54232 0.47673 0.0
H634 H 0.20098 0.50876 0.55515 0.0
H635 H 0.13206 0.50685 0.59948 0.0
H636 H 0.20557 0.51999 0.59696 0.0
H637 H 0.91892 0.51196 0.44468 0.0
H638 H 0.8456 0.52453 0.45344 0.0
H639 H 0.85607 0.51055 0.49154 0.0
C640 C 0.57492 0.98648 0.96529 0.0
C641 C 0.54035 0.97804 -0.00281 0.0
C642 C 0.56933 0.99966 0.96749 0.0
C643 C 0.52807 1.00458 0.00243 0.0
C644 C 0.4929 0.99613 0.03473 0.0
C645 C 0.49964 0.98297 0.03179 0.0
C646 C 0.6081 1.00832 0.93252 0.0
C647 C 0.44798 1.001 0.07236 0.0
C648 C 0.57958 0.03831 0.03107 0.0
C649 C 0.50916 0.04514 0.00945 0.0
C650 C 0.58664 0.02513 0.02903 0.0
C651 C 0.5215 0.01857 0.00499 0.0
C652 C 0.45039 0.02541 0.98301 0.0
C653 C 0.44517 0.03859 0.98544 0.0
C654 C 0.66385 0.0182 0.05261 0.0
C655 C 0.37936 0.01879 0.95722 0.0
H656 H 0.60789 0.98277 0.9389 0.0
H657 H 0.4722 0.97653 0.05636 0.0
H658 H 0.55787 0.01473 0.91516 0.0
H659 H 0.65784 0.01436 0.94835 0.0
H660 H 0.63798 1.00299 0.9075 0.0
H661 H 0.42404 0.9932 0.09475 0.0
H662 H 0.49263 1.00692 0.09216 0.0
H663 H 0.39275 1.00713 0.05893 0.0
H664 H 0.62962 0.04331 0.04938 0.0
H665 H 0.38982 0.04375 0.96926 0.0
H666 H 0.69904 0.01329 0.02848 0.0
H667 H 0.64266 0.01084 0.07741 0.0
H668 H 0.70896 0.02467 0.0698 0.0
H669 H 0.40618 0.01381 0.93048 0.0
H670 H 0.32838 0.02547 0.94204 0.0
H671 H 0.34958 0.01151 0.97939 0.0
C672 C 0.59159 0.03591 0.54044 0.0
C673 C 0.53312 0.04331 0.51166 0.0
C674 C 0.58888 0.02259 0.54278 0.0
C675 C 0.5264 0.01647 0.51558 0.0
C676 C 0.46594 0.02388 0.48725 0.0
C677 C 0.46992 0.03717 0.48569 0.0
C678 C 0.65435 0.01506 0.57352 0.0
C679 C 0.39808 0.01775 0.4578 0.0
C680 C 0.56959 0.98307 0.4839 0.0
C681 C 0.51768 0.9757 0.5115 0.0
C682 C 0.57411 0.9963 0.48544 0.0
C683 C 0.52595 1.00236 0.5155 0.0
C684 C 0.47541 0.99495 0.54437 0.0
C685 C 0.4717 0.98174 0.54196 0.0
C686 C 0.62903 1.00383 0.45416 0.0
C687 C 0.4234 1.00102 0.57703 0.0
H688 H 0.64146 0.04052 0.56019 0.0
H689 H 0.42371 0.04279 0.46383 0.0
H690 H 0.62158 1.0081 0.59564 0.0
H691 H 0.69622 1.00961 0.55384 0.0
H692 H 0.69557 0.0212 0.59431 0.0
H693 H 0.35411 0.02482 0.43871 0.0
H694 H 0.42928 0.01214 0.43405 0.0
H695 H 0.35932 0.01109 0.47805 0.0
H696 H 0.60638 0.9785 0.46073 0.0
H697 H 0.43044 0.97619 0.56302 0.0
H698 H 0.67613 1.00958 0.47314 0.0
H699 H 0.58797 1.0105 0.43162 0.0
H700 H 0.66459 0.99767 0.43373 0.0
H701 H 0.46533 1.00699 0.59805 0.0
H702 H 0.39131 0.99389 0.5989 0.0
H703 H 0.37345 1.00733 0.55885 0.0
C704 C 0.16927 0.28497 0.98268 0.0
C705 C 0.22905 0.29367 -0.00065 0.0
C706 C 0.19163 0.2722 0.98031 0.0
C707 C 0.27591 0.26795 -0.00496 0.0
C708 C 0.33667 0.27666 0.0119 0.0
C709 C 0.31254 0.2894 0.01387 0.0
C710 C 0.12485 0.26323 0.96218 0.0
C711 C 0.42726 0.27252 0.02776 0.0
C712 C 0.30975 0.23248 0.02384 0.0
C713 C 0.34136 0.22861 0.98497 0.0
C714 C 0.28912 0.24527 0.02782 0.0
C715 C 0.30056 0.25442 0.99213 0.0
C716 C 0.33357 0.2506 0.95308 0.0
C717 C 0.35356 0.23778 0.95 0.0
C718 C 0.25389 0.24895 0.06997 0.0
C719 C 0.34713 0.26005 0.91434 0.0
H720 H 0.10417 0.2881 0.97216 0.0
H721 H 0.35939 0.29606 0.02644 0.0
H722 H 0.14773 0.25898 0.93292 0.0
H723 H 0.11467 0.25534 0.98751 0.0
H724 H 0.06212 0.26801 0.95219 0.0
H725 H 0.46658 0.28042 0.04037 0.0
H726 H 0.42596 0.2648 0.05462 0.0
H727 H 0.45927 0.26868 0.00024 0.0
H728 H 0.29951 0.22547 0.05088 0.0
H729 H 0.37947 0.23492 0.92016 0.0
H730 H 0.18813 0.25296 0.06245 0.0
H731 H 0.29434 0.25644 0.0845 0.0
H732 H 0.25113 0.24078 0.09513 0.0
H733 H 0.28492 0.26457 0.90159 0.0
H734 H 0.37508 0.2556 0.88672 0.0
H735 H 0.39061 0.2677 0.92523 0.0
C736 C 0.76445 0.79063 0.98094 0.0
C737 C 0.70561 0.79374 0.01109 0.0
C738 C 0.78681 0.77793 0.97663 0.0
C739 C 0.74905 0.7681 0.00291 0.0
C740 C 0.68827 0.77118 0.03268 0.0
C741 C 0.66739 0.78393 0.03642 0.0
C742 C 0.85206 0.77504 0.94459 0.0
C743 C 0.64599 0.761 0.06104 0.0
C744 C 0.75369 0.73432 0.96782 0.0
C745 C 0.82236 0.72892 -0.00423 0.0
C746 C 0.72927 0.74705 0.96966 0.0
C747 C 0.77456 0.7546 0.00016 0.0
C748 C 0.84361 0.7492 0.02861 0.0
C749 C 0.86661 0.73645 0.02608 0.0
C750 C 0.65494 0.75242 0.93897 0.0
C751 C 0.89364 0.75691 0.06157 0.0
H752 H 0.79467 0.79816 0.9615 0.0
H753 H 0.62073 0.78624 0.05923 0.0
H754 H 0.90911 0.7703 0.96296 0.0
H755 H 0.82449 0.76839 0.9208 0.0
H756 H 0.87355 0.78371 0.92562 0.0
H757 H 0.5982 0.76494 0.08162 0.0
H758 H 0.61312 0.75411 0.03978 0.0
H759 H 0.69553 0.75566 0.08337 0.0
H760 H 0.71855 0.72856 0.94462 0.0
H761 H 0.92063 0.73244 0.04729 0.0
H762 H 0.67661 0.76069 0.91802 0.0
H763 H 0.60389 0.75585 0.95863 0.0
H764 H 0.62667 0.74534 0.91697 0.0
H765 H 0.92264 0.76523 0.04395 0.0
H766 H 0.9457 0.75132 0.08127 0.0
H767 H 0.84978 0.76058 0.08472 0.0
C768 C 0.29514 0.73075 0.51266 0.0
C769 C 0.21179 0.72658 0.52027 0.0
C770 C 0.31792 0.74355 0.515 0.0
C771 C 0.2559 0.75245 0.52508 0.0
C772 C 0.17202 0.74828 0.53336 0.0
C773 C 0.15102 0.73543 0.53084 0.0
C774 C 0.4082 0.74759 0.50618 0.0
C775 C 0.10387 0.75745 0.54404 0.0
C776 C 0.33507 0.78395 0.56543 0.0
C777 C 0.32482 0.79205 0.52641 0.0
C778 C 0.31222 0.77109 0.56561 0.0
C779 C 0.27815 0.76617 0.52584 0.0
C780 C 0.26624 0.77434 0.48653 0.0
C781 C 0.28973 0.78715 0.48728 0.0
C782 C 0.3255 0.76272 0.60828 0.0
C783 C 0.23011 0.76949 0.44341 0.0
H784 H 0.34278 0.72397 0.50496 0.0
H785 H 0.08608 0.73237 0.53608 0.0
H786 H 0.40637 0.75462 0.477 0.0
H787 H 0.43839 0.75227 0.53494 0.0
H788 H 0.44944 0.73947 0.49982 0.0
H789 H 0.04267 0.75264 0.5512 0.0
H790 H 0.12699 0.76258 0.57317 0.0
H791 H 0.09067 0.76465 0.5157 0.0
H792 H 0.36113 0.78767 0.59594 0.0
H793 H 0.28278 0.79325 0.45679 0.0
H794 H 0.3709 0.75491 0.60411 0.0
H795 H 0.26376 0.75831 0.61668 0.0
H796 H 0.3513 0.76804 0.63655 0.0
H797 H 0.27323 0.76205 0.43351 0.0
H798 H 0.22251 0.77712 0.41607 0.0
H799 H 0.16653 0.76507 0.44769 0.0
C800 C 0.75097 0.28772 0.52894 0.0
C801 C 0.82567 0.29167 0.55284 0.0
C802 C 0.73022 0.2748 0.52821 0.0
C803 C 0.785 0.26556 0.55224 0.0
C804 C 0.85902 0.26949 0.57755 0.0
C805 C 0.87862 0.28246 0.5774 0.0
C806 C 0.65066 0.27103 0.50079 0.0
C807 C 0.91884 0.25996 0.60385 0.0
C808 C 0.69309 0.2325 0.57444 0.0
C809 C 0.72471 0.22598 0.54045 0.0
C810 C 0.7136 0.24529 0.57931 0.0
C811 C 0.76663 0.25178 0.54932 0.0
C812 C 0.80031 0.2452 0.51559 0.0
C813 C 0.77926 0.2324 0.51168 0.0
C814 C 0.67682 0.25193 0.61589 0.0
C815 C 0.85722 0.25175 0.48296 0.0
H816 H 0.70882 0.29473 0.51043 0.0
H817 H 0.93715 0.28535 0.59547 0.0
H818 H 0.66913 0.26517 0.47424 0.0
H819 H 0.60843 0.26516 0.52178 0.0
H820 H 0.61326 0.27937 0.48515 0.0
H821 H 0.9705 0.26457 0.62413 0.0
H822 H 0.88224 0.25358 0.62619 0.0
H823 H 0.94914 0.25395 0.58097 0.0
H824 H 0.65003 0.22772 0.59652 0.0
H825 H 0.80521 0.22742 0.48577 0.0
H826 H 0.63276 0.25965 0.60131 0.0
H827 H 0.72911 0.25636 0.63623 0.0
H828 H 0.64076 0.24538 0.638 0.0
H829 H 0.82151 0.25971 0.46377 0.0
H830 H 0.8799 0.24522 0.45932 0.0
H831 H 0.91408 0.25583 0.50092 0.0
C832 C 0.11893 0.38945 0.18566 0.0
C833 C 0.07535 0.38124 0.15763 0.0
C834 C 0.09993 0.3897 0.23005 0.0
C835 C 0.0355 0.38162 0.24652 0.0
C836 C 0.99126 0.37333 0.21837 0.0
C837 C 1.01197 0.3732 0.17434 0.0
C838 C 0.14886 0.39858 0.25936 0.0
C839 C 0.92191 0.36461 0.23473 0.0
C840 C 0.03964 0.37282 0.37007 0.0
C841 C 0.97663 0.38096 0.38284 0.0
C842 C 0.05995 0.37305 0.32589 0.0
C843 C 1.01571 0.38154 0.29358 0.0
C844 C 0.95153 0.38971 0.30606 0.0
C845 C 0.93289 0.38935 0.35067 0.0
C846 C 0.12899 0.36422 0.31382 0.0
C847 C 0.90259 0.39881 0.2723 0.0
H848 H 0.16785 0.39569 0.17295 0.0
H849 H 0.97748 0.36689 0.15284 0.0
H850 H 0.10349 0.40511 0.27269 0.0
H851 H 0.18302 0.39309 0.28815 0.0
H852 H 0.19666 0.40431 0.24138 0.0
H853 H 0.89235 0.35894 0.20827 0.0
H854 H 0.94915 0.35802 0.26256 0.0
H855 H 0.87059 0.37021 0.24762 0.0
H856 H 0.07416 0.36634 0.39472 0.0
H857 H 0.88421 0.39567 0.3603 0.0
H858 H 0.18047 0.36976 0.29818 0.0
H859 H 0.10151 0.35781 0.2892 0.0
H860 H 0.1584 0.35834 0.34311 0.0
H861 H 0.94797 0.40532 0.25574 0.0
H862 H 0.85479 0.40456 0.28743 0.0
H863 H 0.86845 0.3935 0.24618 0.0
C864 C 0.97914 0.62579 0.15338 0.0
C865 C 0.98481 0.63714 0.12679 0.0
C866 C 0.99281 0.62558 0.19973 0.0
C867 C 1.01553 0.63691 0.21958 0.0
C868 C 1.02274 0.64835 0.19269 0.0
C869 C 1.00588 0.64836 0.1466 0.0
C870 C 0.98202 0.61328 0.22746 0.0
C871 C 0.04926 0.66055 0.21252 0.0
C872 C 0.98037 0.64032 0.34039 0.0
C873 C 0.0619 0.63723 0.36113 0.0
C874 C 0.96384 0.63996 0.29439 0.0
C875 C 0.03134 0.63685 0.26852 0.0
C876 C 0.1142 0.63389 0.28934 0.0
C877 C 0.1281 0.63391 0.33561 0.0
C878 C 0.87406 0.6428 0.27355 0.0
C879 C 0.18837 0.63091 0.2627 0.0
H880 H 0.96235 0.61713 0.13796 0.0
H881 H 1.01125 0.65712 0.12592 0.0
H882 H 0.04344 0.61054 0.24677 0.0
H883 H 0.93349 0.61452 0.25164 0.0
H884 H 0.96144 0.60541 0.20694 0.0
H885 H 0.05507 0.66851 0.18681 0.0
H886 H 1.00154 0.66324 0.23539 0.0
H887 H 0.112 0.65921 0.23232 0.0
H888 H 0.92894 0.64275 0.36031 0.0
H889 H 0.19127 0.63158 0.35176 0.0
H890 H 0.85061 0.63482 0.25434 0.0
H891 H 0.87457 0.65135 0.24997 0.0
H892 H 0.8279 0.64443 0.29863 0.0
H893 H 0.17349 0.62244 0.24423 0.0
H894 H 0.24923 0.62911 0.28388 0.0
H895 H 0.19842 0.63892 0.23781 0.0
C896 C 0.06492 0.63985 0.84487 0.0
C897 C 0.98033 0.63818 0.85652 0.0
C898 C 0.08588 0.6386 0.80139 0.0
C899 C 1.01999 0.63605 0.76854 0.0
C900 C 0.93428 0.63436 0.78019 0.0
C901 C 0.9157 0.63522 0.8244 0.0
C902 C 0.17841 0.64006 0.7906 0.0
C903 C 0.86202 0.63196 0.74577 0.0
C904 C 0.06186 0.64652 0.64987 0.0
C905 C 0.07923 0.63494 0.63287 0.0
C906 C 0.04119 0.64698 0.69383 0.0
C907 C 0.04047 0.63561 0.72173 0.0
C908 C 0.06011 0.62392 0.705 0.0
C909 C 0.07789 0.6237 0.66043 0.0
C910 C 1.01855 0.65958 0.71016 0.0
C911 C 0.06259 0.61168 0.7342 0.0
H912 H 0.11514 0.64193 0.87004 0.0
H913 H 0.85033 0.63395 0.83362 0.0
H914 H 0.19906 0.63173 0.77396 0.0
H915 H 0.18487 0.64855 0.76725 0.0
H916 H 0.22268 0.64106 0.82066 0.0
H917 H 0.799 0.63087 0.76028 0.0
H918 H 0.85719 0.63995 0.71969 0.0
H919 H 0.87549 0.62326 0.7293 0.0
H920 H 0.06156 0.6552 0.62833 0.0
H921 H 0.09146 0.61475 0.64721 0.0
H922 H 0.06461 0.66179 0.73823 0.0
H923 H 0.95359 0.65913 0.72268 0.0
H924 H 1.01935 0.66747 0.68377 0.0
H925 H 0.10837 0.61249 0.76375 0.0
H926 H 0.08212 0.60347 0.7165 0.0
H927 H 0.99834 0.60973 0.74635 0.0
C928 C 0.94132 0.37813 0.68171 0.0
C929 C 0.98447 0.38625 0.65223 0.0
C930 C 0.9564 0.37867 0.72771 0.0
C931 C 1.01679 0.38742 0.74454 0.0
C932 C 0.05989 0.39572 0.71498 0.0
C933 C 0.04285 0.39508 0.66914 0.0
C934 C 0.90852 0.36976 0.75832 0.0
C935 C 0.12533 0.40508 0.73177 0.0
C936 C 1.00809 0.39542 0.86386 0.0
C937 C 0.07099 0.38721 0.88585 0.0
C938 C 0.99004 0.39565 0.81776 0.0
C939 C 0.03677 0.3876 0.79313 0.0
C940 C 0.1017 0.37951 0.81501 0.0
C941 C 0.11769 0.37936 0.86117 0.0
C942 C 0.91981 0.40432 0.79553 0.0
C943 C 0.15359 0.3709 0.78972 0.0
H944 H 0.89574 0.37134 0.66887 0.0
H945 H 0.07674 0.40135 0.64656 0.0
H946 H 0.95473 0.36333 0.7788 0.0
H947 H 0.87432 0.37522 0.78139 0.0
H948 H 0.86097 0.36391 0.73991 0.0
H949 H 0.15164 0.41109 0.70438 0.0
H950 H 0.09594 0.41134 0.75418 0.0
H951 H 0.1794 0.39994 0.75138 0.0
H952 H 0.97141 0.40146 0.88278 0.0
H953 H 0.16674 0.37305 0.87793 0.0
H954 H 0.86845 0.39862 0.77935 0.0
H955 H 0.94576 0.41073 0.76916 0.0
H956 H 0.89063 0.41017 0.81932 0.0
H957 H 0.11049 0.36403 0.77338 0.0
H958 H 0.20394 0.36553 0.8115 0.0
H959 H 0.18502 0.37653 0.76319 0.0
C960 C 0.54336 0.87706 0.16493 0.0
C961 C 0.56487 0.88836 0.1413 0.0
C962 C 0.52179 0.87698 0.20885 0.0
C963 C 0.52438 0.88843 0.23005 0.0
C964 C 0.54636 0.89989 0.20638 0.0
C965 C 0.56503 0.89975 0.16187 0.0
C966 C 0.4965 0.86462 0.2326 0.0
C967 C 0.55209 0.91221 0.22835 0.0
C968 C 0.40778 0.88902 0.33514 0.0
C969 C 0.47391 0.88537 0.36752 0.0
C970 C 0.42336 0.89024 0.29004 0.0
C971 C 0.50761 0.88819 0.27758 0.0
C972 C 0.57522 0.88505 0.31054 0.0
C973 C 0.55719 0.88347 0.3551 0.0
C974 C 0.34927 0.89326 0.2557 0.0
C975 C 0.66634 0.88314 0.29872 0.0
H976 H 0.54177 0.86828 0.14872 0.0
H977 H 0.58169 0.90849 0.14347 0.0
H978 H 0.5445 0.86195 0.26075 0.0
H979 H 0.4335 0.8657 0.24655 0.0
H980 H 0.49191 0.85675 0.21037 0.0
H981 H 0.56899 0.92031 0.20516 0.0
H982 H 0.48998 0.91434 0.24168 0.0
H983 H 0.60151 0.91135 0.25685 0.0
H984 H 0.34343 0.89048 0.34499 0.0
H985 H 0.60861 0.88086 0.38039 0.0
H986 H 0.3393 0.88522 0.23446 0.0
H987 H 0.36408 0.90171 0.2337 0.0
H988 H 0.28841 0.89504 0.27094 0.0
H989 H 0.66999 0.87457 0.2801 0.0
H990 H 0.71268 0.88198 0.32855 0.0
H991 H 0.68649 0.89133 0.27688 0.0
C992 C 0.4218 0.13448 0.16173 0.0
C993 C 0.46265 0.14288 0.13212 0.0
C994 C 0.43791 0.13488 0.20774 0.0
C995 C 0.49682 0.14382 0.22459 0.0
C996 C 0.53637 0.15257 0.19496 0.0
C997 C 0.51852 0.15203 0.14904 0.0
C998 C 0.3937 0.12548 0.2383 0.0
C999 C 0.59979 0.16221 0.21172 0.0
C1000 C 0.49219 0.14996 0.34609 0.0
C1001 C 0.55767 0.14182 0.366 0.0
C1002 C 0.47251 0.15088 0.29998 0.0
C1003 C 0.51994 0.14357 0.27315 0.0
C1004 C 0.58757 0.13559 0.29292 0.0
C1005 C 0.60538 0.13477 0.33912 0.0
C1006 C 0.3996 0.15943 0.28011 0.0
C1007 C 0.64009 0.12773 0.26534 0.0
H1008 H 0.37807 0.12744 0.14898 0.0
H1009 H 0.55055 0.15854 0.12643 0.0
H1010 H 0.4422 0.11904 0.25704 0.0
H1011 H 0.36064 0.13051 0.26293 0.0
H1012 H 0.34578 0.11966 0.22001 0.0
H1013 H 0.62113 0.16882 0.18451 0.0
H1014 H 0.57088 0.16782 0.23621 0.0
H1015 H 0.65716 0.15727 0.22899 0.0
H1016 H 0.45487 0.15542 0.36663 0.0
H1017 H 0.65639 0.12852 0.3542 0.0
H1018 H 0.34812 0.15367 0.26429 0.0
H1019 H 0.42238 0.16618 0.25379 0.0
H1020 H 0.37144 0.1649 0.30529 0.0
H1021 H 0.59803 0.12079 0.24871 0.0
H1022 H 0.69309 0.12248 0.28556 0.0
H1023 H 0.66812 0.13389 0.23895 0.0
C1024 C 0.43467 0.13937 0.82949 0.0
C1025 C 0.47756 0.13155 0.86372 0.0
C1026 C 0.454 0.13882 0.78531 0.0
C1027 C 0.51854 0.13034 0.77519 0.0
C1028 C 0.56123 0.12228 0.80947 0.0
C1029 C 0.53985 0.12293 0.85333 0.0
C1030 C 0.40622 0.14744 0.74953 0.0
C1031 C 0.6309 0.1132 0.79998 0.0
C1032 C 0.518 0.12241 0.65532 0.0
C1033 C 0.57811 0.13105 0.63881 0.0
C1034 C 0.49919 0.1219 0.69988 0.0
C1035 C 0.54222 0.13012 0.72874 0.0
C1036 C 0.60513 0.13856 0.71268 0.0
C1037 C 0.62196 0.13898 0.66781 0.0
C1038 C 0.43113 0.11286 0.71567 0.0
C1039 C 0.65314 0.14736 0.74265 0.0
H1040 H 0.38621 0.14602 0.83723 0.0
H1041 H 0.57376 0.11691 0.87964 0.0
H1042 H 0.45195 0.15403 0.73361 0.0
H1043 H 0.37585 0.14178 0.72332 0.0
H1044 H 0.3555 0.15312 0.76268 0.0
H1045 H 0.6563 0.10734 0.83018 0.0
H1046 H 0.60588 0.1068 0.77476 0.0
H1047 H 0.68489 0.11858 0.78603 0.0
H1048 H 0.48344 0.11629 0.63312 0.0
H1049 H 0.66877 0.14564 0.65536 0.0
H1050 H 0.37628 0.11831 0.72593 0.0
H1051 H 0.45721 0.10678 0.74515 0.0
H1052 H 0.40659 0.10667 0.68961 0.0
H1053 H 0.60749 0.15421 0.75408 0.0
H1054 H 0.70388 0.15276 0.72576 0.0
H1055 H 0.68344 0.1419 0.77258 0.0
C1056 C 0.43276 0.87785 0.66623 0.0
C1057 C 0.49517 0.88195 0.63776 0.0
C1058 C 0.45022 0.87751 0.71241 0.0
C1059 C 0.53302 0.8809 0.73019 0.0
C1060 C 0.59716 0.8846 0.70137 0.0
C1061 C 0.57688 0.88531 0.6554 0.0
C1062 C 0.37941 0.87392 0.74208 0.0
C1063 C 0.68695 0.88788 0.71907 0.0
C1064 C 0.55897 0.89296 0.84475 0.0
C1065 C 0.58467 0.88196 0.87116 0.0
C1066 C 0.54071 0.89268 0.79889 0.0
C1067 C 0.55133 0.88121 0.77886 0.0
C1068 C 0.57934 0.87012 0.80529 0.0
C1069 C 0.59416 0.87057 0.85141 0.0
C1070 C 0.50852 0.90461 0.77203 0.0
C1071 C 0.5941 0.85783 0.78484 0.0
H1072 H 0.36952 0.8753 0.65234 0.0
H1073 H 0.62541 0.8883 0.63316 0.0
H1074 H 0.39969 0.86569 0.76549 0.0
H1075 H 0.36632 0.8819 0.76226 0.0
H1076 H 0.31875 0.87148 0.72296 0.0
H1077 H 0.73115 0.88951 0.69225 0.0
H1078 H 0.68513 0.89657 0.73716 0.0
H1079 H 0.7137 0.88013 0.74302 0.0
H1080 H 0.55047 0.90173 0.86021 0.0
H1081 H 0.61433 0.86208 0.87197 0.0
H1082 H 0.44563 0.9028 0.75393 0.0
H1083 H 0.55398 0.90751 0.74686 0.0
H1084 H 0.5007 0.91261 0.79301 0.0
H1085 H 0.53305 0.85456 0.76833 0.0
H1086 H 0.61943 0.85022 0.80981 0.0
H1087 H 0.64036 0.85932 0.75898 0.0
loop_
_geom_bond_atom_site_label_1
_geom_bond_atom_site_label_2
_geom_bond_distance
_geom_bond_site_symmetry_2
_ccdc_geom_bond_type
Dy0 O3 2.307 . S
Dy0 O5 2.395 . S
Dy0 O6 2.379 1_554 S
Dy0 O8 2.339 1_554 S
Dy0 O10 2.298 1_455 S
Dy0 O14 2.275 . S
Dy0 C22 2.734 1_455 S
Dy1 O4 2.298 . S
Dy1 O7 2.275 1_554 S
Dy1 O9 2.307 1_455 S
Dy1 O11 2.395 1_554 S
Dy1 O12 2.379 . S
Dy1 O15 2.339 . S
Dy1 C31 2.738 . S
C2 O14 1.254 . S
C2 O15 1.257 . S
O3 Dy0 2.307 . S
O3 C13 1.266 . S
O4 Dy1 2.298 . S
O4 C13 1.236 . S
O5 Dy0 2.395 . S
O5 C22 1.254 1_455 S
O6 Dy0 2.379 1_556 S
O6 C22 1.246 1_456 S
O7 Dy1 2.275 1_556 S
O7 C23 1.254 . S
O8 Dy0 2.339 1_556 S
O8 C23 1.257 . S
O9 Dy1 2.307 1_655 S
O9 C24 1.266 . S
O10 Dy0 2.298 1_655 S
O10 C24 1.238 . S
O11 Dy1 2.395 1_556 S
O11 C31 1.255 1_556 S
O12 Dy1 2.379 . S
O12 C31 1.249 . S
C13 O3 1.266 . S
C13 O4 1.236 . S
O14 Dy0 2.275 . S
O14 C2 1.254 . S
O15 Dy1 2.339 . S
O15 C2 1.257 . S
C16 C19 1.344 . S
C16 C20 1.328 1_554 S
C16 C22 1.520 . S
C17 C18 1.304 . S
C17 C21 1.323 1_554 S
C18 C17 1.304 . S
C18 C19 1.371 . S
C18 H32 0.930 . S
C19 C16 1.344 . S
C19 C18 1.371 . S
C19 H33 0.931 . S
C20 C16 1.328 1_556 S
C20 C21 1.433 . S
C20 H34 0.931 . S
C21 C17 1.323 1_556 S
C21 C20 1.433 . S
C21 H35 0.933 . S
C22 Dy0 2.734 1_655 S
C22 O5 1.254 1_655 S
C22 O6 1.246 1_654 S
C22 C16 1.520 . S
C23 O7 1.254 . S
C23 O8 1.257 . S
C24 O9 1.266 . S
C24 O10 1.238 . S
C25 C28 1.344 1_554 S
C25 C29 1.328 . S
C25 C31 1.516 . S
C26 C27 1.304 1_554 S
C26 C30 1.323 . S
C27 C26 1.304 1_556 S
C27 C28 1.371 . S
C27 H36 0.930 . S
C28 C25 1.344 1_556 S
C28 C27 1.371 . S
C28 H37 0.931 . S
C29 C25 1.328 . S
C29 C30 1.433 . S
C29 H38 0.931 . S
C30 C26 1.323 . S
C30 C29 1.433 . S
C30 H39 0.933 . S
C31 Dy1 2.738 . S
C31 O11 1.255 1_554 S
C31 O12 1.249 . S
C31 C25 1.516 . S
H32 C18 0.930 . S
H33 C19 0.931 . S
H34 C20 0.931 . S
H35 C21 0.933 . S
H36 C27 0.930 . S
H37 C28 0.931 . S
H38 C29 0.931 . S
H39 C30 0.933 . S
Dy40 O43 2.307 1_655 S
Dy40 O45 2.395 . S
Dy40 O46 2.379 1_554 S
Dy40 O48 2.339 1_554 S
Dy40 O50 2.298 1_554 S
Dy40 O54 2.275 . S
Dy40 C62 2.738 . S
Dy41 O44 2.298 1_655 S
Dy41 O47 2.275 1_554 S
Dy41 O49 2.307 . S
Dy41 O51 2.395 1_554 S
Dy41 O52 2.379 . S
Dy41 O55 2.339 . S
Dy41 C71 2.734 1_655 S
C42 O54 1.254 . S
C42 O55 1.257 . S
O43 Dy40 2.307 1_455 S
O43 C53 1.266 . S
O44 Dy41 2.298 1_455 S
O44 C53 1.236 . S
O45 Dy40 2.395 . S
O45 C62 1.255 . S
O46 Dy40 2.379 1_556 S
O46 C62 1.249 1_556 S
O47 Dy41 2.275 1_556 S
O47 C63 1.254 . S
O48 Dy40 2.339 1_556 S
O48 C63 1.257 . S
O49 Dy41 2.307 . S
O49 C64 1.266 . S
O50 Dy40 2.298 1_556 S
O50 C64 1.236 1_556 S
O51 Dy41 2.395 1_556 S
O51 C71 1.254 1_656 S
O52 Dy41 2.379 . S
O52 C71 1.246 1_655 S
C53 O43 1.266 . S
C53 O44 1.236 . S
O54 Dy40 2.275 . S
O54 C42 1.254 . S
O55 Dy41 2.339 . S
O55 C42 1.257 . S
C56 C59 1.344 . S
C56 C60 1.328 1_554 S
C56 C62 1.516 . S
C57 C58 1.304 . S
C57 C61 1.323 1_554 S
C58 C57 1.304 . S
C58 C59 1.371 . S
C58 H72 0.930 . S
C59 C56 1.344 . S
C59 C58 1.371 . S
C59 H73 0.931 . S
C60 C56 1.328 1_556 S
C60 C61 1.433 . S
C60 H74 0.931 . S
C61 C57 1.323 1_556 S
C61 C60 1.433 . S
C61 H75 0.933 . S
C62 Dy40 2.738 . S
C62 O45 1.255 . S
C62 O46 1.249 1_554 S
C62 C56 1.516 . S
C63 O47 1.254 . S
C63 O48 1.257 . S
C64 O49 1.266 . S
C64 O50 1.236 1_554 S
C65 C68 1.344 1_554 S
C65 C69 1.328 . S
C65 C71 1.520 . S
C66 C67 1.304 1_554 S
C66 C70 1.323 . S
C67 C66 1.304 1_556 S
C67 C68 1.371 . S
C67 H76 0.930 . S
C68 C65 1.344 1_556 S
C68 C67 1.371 . S
C68 H77 0.931 . S
C69 C65 1.328 . S
C69 C70 1.433 . S
C69 H78 0.931 . S
C70 C66 1.323 . S
C70 C69 1.433 . S
C70 H79 0.933 . S
C71 Dy41 2.734 1_455 S
C71 O51 1.254 1_454 S
C71 O52 1.246 1_455 S
C71 C65 1.520 . S
H72 C58 0.930 . S
H73 C59 0.931 . S
H74 C60 0.931 . S
H75 C61 0.933 . S
H76 C67 0.930 . S
H77 C68 0.931 . S
H78 C69 0.931 . S
H79 C70 0.933 . S
Dy80 O83 2.307 1_455 S
Dy80 O85 2.395 . S
Dy80 O86 2.379 . S
Dy80 O88 2.339 . S
Dy80 O90 2.298 . S
Dy80 O94 2.275 . S
Dy80 C102 2.738 . S
Dy81 O84 2.298 1_455 S
Dy81 O87 2.275 . S
Dy81 O89 2.307 . S
Dy81 O91 2.395 . S
Dy81 O92 2.379 . S
Dy81 O95 2.339 . S
Dy81 C111 2.739 . S
C82 O94 1.254 . S
C82 O95 1.257 . S
O83 Dy80 2.307 1_655 S
O83 C93 1.266 . S
O84 Dy81 2.298 1_655 S
O84 C93 1.236 . S
O85 Dy80 2.395 . S
O85 C102 1.255 . S
O86 Dy80 2.379 . S
O86 C102 1.249 . S
O87 Dy81 2.275 . S
O87 C103 1.254 . S
O88 Dy80 2.339 . S
O88 C103 1.257 . S
O89 Dy81 2.307 . S
O89 C104 1.266 . S
O90 Dy80 2.298 . S
O90 C104 1.236 . S
O91 Dy81 2.395 . S
O91 C111 1.256 . S
O92 Dy81 2.379 . S
O92 C111 1.250 . S
C93 O83 1.266 . S
C93 O84 1.236 . S
O94 Dy80 2.275 . S
O94 C82 1.254 . S
O95 Dy81 2.339 . S
O95 C82 1.257 . S
C96 C99 1.344 . S
C96 C100 1.328 . S
C96 C102 1.516 . S
C97 C98 1.304 . S
C97 C101 1.323 . S
C98 C97 1.304 . S
C98 C99 1.371 . S
C98 H112 0.930 . S
C99 C96 1.344 . S
C99 C98 1.371 . S
C99 H113 0.931 . S
C100 C96 1.328 . S
C100 C101 1.433 . S
C100 H114 0.931 . S
C101 C97 1.323 . S
C101 C100 1.433 . S
C101 H115 0.933 . S
C102 Dy80 2.738 . S
C102 O85 1.255 . S
C102 O86 1.249 . S
C102 C96 1.516 . S
C103 O87 1.254 . S
C103 O88 1.257 . S
C104 O89 1.266 . S
C104 O90 1.236 . S
C105 C108 1.344 . S
C105 C109 1.328 . S
C105 C111 1.515 1_655 S
C106 C107 1.304 . S
C106 C110 1.323 . S
C107 C106 1.304 . S
C107 C108 1.371 . S
C107 H116 0.930 . S
C108 C105 1.344 . S
C108 C107 1.371 . S
C108 H117 0.931 . S
C109 C105 1.328 . S
C109 C110 1.433 . S
C109 H118 0.931 . S
C110 C106 1.323 . S
C110 C109 1.433 . S
C110 H119 0.933 . S
C111 Dy81 2.739 . S
C111 O91 1.256 . S
C111 O92 1.250 . S
C111 C105 1.515 1_455 S
H112 C98 0.930 . S
H113 C99 0.931 . S
H114 C100 0.931 . S
H115 C101 0.933 . S
H116 C107 0.930 . S
H117 C108 0.931 . S
H118 C109 0.931 . S
H119 C110 0.933 . S
Dy120 O123 2.307 1_655 S
Dy120 O125 2.395 . S
Dy120 O126 2.379 . S
Dy120 O128 2.339 . S
Dy120 O130 2.298 . S
Dy120 O134 2.275 . S
Dy120 C142 2.738 . S
Dy121 O124 2.298 1_655 S
Dy121 O127 2.275 . S
Dy121 O129 2.307 . S
Dy121 O131 2.395 . S
Dy121 O132 2.379 . S
Dy121 O135 2.339 . S
Dy121 C151 2.738 . S
C122 O134 1.254 . S
C122 O135 1.257 . S
O123 Dy120 2.307 1_455 S
O123 C133 1.266 . S
O124 Dy121 2.298 1_455 S
O124 C133 1.236 . S
O125 Dy120 2.395 . S
O125 C142 1.255 . S
O126 Dy120 2.379 . S
O126 C142 1.249 . S
O127 Dy121 2.275 . S
O127 C143 1.254 . S
O128 Dy120 2.339 . S
O128 C143 1.257 . S
O129 Dy121 2.307 . S
O129 C144 1.266 . S
O130 Dy120 2.298 . S
O130 C144 1.236 . S
O131 Dy121 2.395 . S
O131 C151 1.255 . S
O132 Dy121 2.379 . S
O132 C151 1.249 . S
C133 O123 1.266 . S
C133 O124 1.236 . S
O134 Dy120 2.275 . S
O134 C122 1.254 . S
O135 Dy121 2.339 . S
O135 C122 1.257 . S
C136 C139 1.344 . S
C136 C140 1.328 . S
C136 C142 1.516 . S
C137 C138 1.304 . S
C137 C141 1.323 . S
C138 C137 1.304 . S
C138 C139 1.371 . S
C138 H152 0.930 . S
C139 C136 1.344 . S
C139 C138 1.371 . S
C139 H153 0.931 . S
C140 C136 1.328 . S
C140 C141 1.433 . S
C140 H154 0.931 . S
C141 C137 1.323 . S
C141 C140 1.433 . S
C141 H155 0.933 . S
C142 Dy120 2.738 . S
C142 O125 1.255 . S
C142 O126 1.249 . S
C142 C136 1.516 . S
C143 O127 1.254 . S
C143 O128 1.257 . S
C144 O129 1.266 . S
C144 O130 1.236 . S
C145 C148 1.344 . S
C145 C149 1.328 . S
C145 C151 1.516 1_455 S
C146 C147 1.304 . S
C146 C150 1.323 . S
C147 C146 1.304 . S
C147 C148 1.371 . S
C147 H156 0.930 . S
C148 C145 1.344 . S
C148 C147 1.371 . S
C148 H157 0.931 . S
C149 C145 1.328 . S
C149 C150 1.433 . S
C149 H158 0.931 . S
C150 C146 1.323 . S
C150 C149 1.433 . S
C150 H159 0.933 . S
C151 Dy121 2.738 . S
C151 O131 1.255 . S
C151 O132 1.249 . S
C151 C145 1.516 1_655 S
H152 C138 0.930 . S
H153 C139 0.931 . S
H154 C140 0.931 . S
H155 C141 0.933 . S
H156 C147 0.930 . S
H157 C148 0.931 . S
H158 C149 0.931 . S
H159 C150 0.933 . S
Dy160 O163 2.307 . S
Dy160 O165 2.395 . S
Dy160 O166 2.379 1_554 S
Dy160 O168 2.339 1_554 S
Dy160 O170 2.298 . S
Dy160 O174 2.275 . S
Dy160 C182 2.738 . S
Dy161 O164 2.298 . S
Dy161 O167 2.275 1_554 S
Dy161 O169 2.307 . S
Dy161 O171 2.395 1_554 S
Dy161 O172 2.379 . S
Dy161 O175 2.339 . S
Dy161 C191 2.738 . S
C162 O174 1.254 . S
C162 O175 1.257 . S
O163 Dy160 2.307 . S
O163 C173 1.266 . S
O164 Dy161 2.298 . S
O164 C173 1.236 . S
O165 Dy160 2.395 . S
O165 C182 1.255 . S
O166 Dy160 2.379 1_556 S
O166 C182 1.249 1_556 S
O167 Dy161 2.275 1_556 S
O167 C183 1.254 . S
O168 Dy160 2.339 1_556 S
O168 C183 1.257 . S
O169 Dy161 2.307 . S
O169 C184 1.266 . S
O170 Dy160 2.298 . S
O170 C184 1.238 . S
O171 Dy161 2.395 1_556 S
O171 C191 1.255 1_556 S
O172 Dy161 2.379 . S
O172 C191 1.249 . S
C173 O163 1.266 . S
C173 O164 1.236 . S
O174 Dy160 2.275 . S
O174 C162 1.254 . S
O175 Dy161 2.339 . S
O175 C162 1.257 . S
C176 C179 1.344 . S
C176 C180 1.328 1_554 S
C176 C182 1.516 . S
C177 C178 1.304 . S
C177 C181 1.323 1_554 S
C178 C177 1.304 . S
C178 C179 1.371 . S
C178 H192 0.930 . S
C179 C176 1.344 . S
C179 C178 1.371 . S
C179 H193 0.931 . S
C180 C176 1.328 1_556 S
C180 C181 1.433 . S
C180 H194 0.931 . S
C181 C177 1.323 1_556 S
C181 C180 1.433 . S
C181 H195 0.933 . S
C182 Dy160 2.738 . S
C182 O165 1.255 . S
C182 O166 1.249 1_554 S
C182 C176 1.516 . S
C183 O167 1.254 . S
C183 O168 1.257 . S
C184 O169 1.266 . S
C184 O170 1.238 . S
C185 C188 1.344 1_554 S
C185 C189 1.328 . S
C185 C191 1.516 . S
C186 C187 1.304 1_554 S
C186 C190 1.323 . S
C187 C186 1.304 1_556 S
C187 C188 1.371 . S
C187 H196 0.930 . S
C188 C185 1.344 1_556 S
C188 C187 1.371 . S
C188 H197 0.931 . S
C189 C185 1.328 . S
C189 C190 1.433 . S
C189 H198 0.931 . S
C190 C186 1.323 . S
C190 C189 1.433 . S
C190 H199 0.933 . S
C191 Dy161 2.738 . S
C191 O171 1.255 1_554 S
C191 O172 1.249 . S
C191 C185 1.516 . S
H192 C178 0.930 . S
H193 C179 0.931 . S
H194 C180 0.931 . S
H195 C181 0.933 . S
H196 C187 0.930 . S
H197 C188 0.931 . S
H198 C189 0.931 . S
H199 C190 0.933 . S
Dy200 O203 2.307 . S
Dy200 O205 2.395 . S
Dy200 O206 2.379 1_554 S
Dy200 O208 2.339 1_554 S
Dy200 O210 2.298 1_554 S
Dy200 O214 2.275 . S
Dy200 C222 2.738 . S
Dy201 O204 2.298 . S
Dy201 O207 2.275 1_554 S
Dy201 O209 2.307 . S
Dy201 O211 2.395 1_554 S
Dy201 O212 2.379 . S
Dy201 O215 2.339 . S
Dy201 C231 2.738 . S
C202 O214 1.254 . S
C202 O215 1.257 . S
O203 Dy200 2.307 . S
O203 C213 1.266 . S
O204 Dy201 2.298 . S
O204 C213 1.236 . S
O205 Dy200 2.395 . S
O205 C222 1.255 . S
O206 Dy200 2.379 1_556 S
O206 C222 1.249 1_556 S
O207 Dy201 2.275 1_556 S
O207 C223 1.254 . S
O208 Dy200 2.339 1_556 S
O208 C223 1.257 . S
O209 Dy201 2.307 . S
O209 C224 1.266 . S
O210 Dy200 2.298 1_556 S
O210 C224 1.236 1_556 S
O211 Dy201 2.395 1_556 S
O211 C231 1.255 1_556 S
O212 Dy201 2.379 . S
O212 C231 1.249 . S
C213 O203 1.266 . S
C213 O204 1.236 . S
O214 Dy200 2.275 . S
O214 C202 1.254 . S
O215 Dy201 2.339 . S
O215 C202 1.257 . S
C216 C219 1.344 . S
C216 C220 1.328 1_554 S
C216 C222 1.516 . S
C217 C218 1.304 . S
C217 C221 1.323 1_554 S
C218 C217 1.304 . S
C218 C219 1.371 . S
C218 H232 0.930 . S
C219 C216 1.344 . S
C219 C218 1.371 . S
C219 H233 0.931 . S
C220 C216 1.328 1_556 S
C220 C221 1.433 . S
C220 H234 0.931 . S
C221 C217 1.323 1_556 S
C221 C220 1.433 . S
C221 H235 0.933 . S
C222 Dy200 2.738 . S
C222 O205 1.255 . S
C222 O206 1.249 1_554 S
C222 C216 1.516 . S
C223 O207 1.254 . S
C223 O208 1.257 . S
C224 O209 1.266 . S
C224 O210 1.236 1_554 S
C225 C228 1.344 1_554 S
C225 C229 1.328 . S
C225 C231 1.516 . S
C226 C227 1.304 1_554 S
C226 C230 1.323 . S
C227 C226 1.304 1_556 S
C227 C228 1.371 . S
C227 H236 0.930 . S
C228 C225 1.344 1_556 S
C228 C227 1.371 . S
C228 H237 0.931 . S
C229 C225 1.328 . S
C229 C230 1.433 . S
C229 H238 0.931 . S
C230 C226 1.323 . S
C230 C229 1.433 . S
C230 H239 0.933 . S
C231 Dy201 2.738 . S
C231 O211 1.255 1_554 S
C231 O212 1.249 . S
C231 C225 1.516 . S
H232 C218 0.930 . S
H233 C219 0.931 . S
H234 C220 0.931 . S
H235 C221 0.933 . S
H236 C227 0.930 . S
H237 C228 0.931 . S
H238 C229 0.931 . S
H239 C230 0.933 . S
Dy240 O243 2.307 . S
Dy240 O245 2.395 . S
Dy240 O246 2.379 . S
Dy240 O248 2.339 . S
Dy240 O250 2.298 . S
Dy240 O254 2.275 . S
Dy240 C262 2.738 . S
Dy241 O244 2.298 . S
Dy241 O247 2.275 . S
Dy241 O249 2.307 . S
Dy241 O251 2.395 . S
Dy241 O252 2.379 . S
Dy241 O255 2.339 . S
Dy241 C271 2.738 . S
C242 O254 1.254 . S
C242 O255 1.257 . S
O243 Dy240 2.307 . S
O243 C253 1.266 . S
O244 Dy241 2.298 . S
O244 C253 1.236 . S
O245 Dy240 2.395 . S
O245 C262 1.255 . S
O246 Dy240 2.379 . S
O246 C262 1.249 . S
O247 Dy241 2.275 . S
O247 C263 1.254 . S
O248 Dy240 2.339 . S
O248 C263 1.257 . S
O249 Dy241 2.307 . S
O249 C264 1.266 . S
O250 Dy240 2.298 . S
O250 C264 1.236 . S
O251 Dy241 2.395 . S
O251 C271 1.255 . S
O252 Dy241 2.379 . S
O252 C271 1.249 . S
C253 O243 1.266 . S
C253 O244 1.236 . S
O254 Dy240 2.275 . S
O254 C242 1.254 . S
O255 Dy241 2.339 . S
O255 C242 1.257 . S
C256 C259 1.344 . S
C256 C260 1.328 . S
C256 C262 1.516 . S
C257 C258 1.304 . S
C257 C261 1.323 . S
C258 C257 1.304 . S
C258 C259 1.371 . S
C258 H272 0.930 . S
C259 C256 1.344 . S
C259 C258 1.371 . S
C259 H273 0.931 . S
C260 C256 1.328 . S
C260 C261 1.433 . S
C260 H274 0.931 . S
C261 C257 1.323 . S
C261 C260 1.433 . S
C261 H275 0.933 . S
C262 Dy240 2.738 . S
C262 O245 1.255 . S
C262 O246 1.249 . S
C262 C256 1.516 . S
C263 O247 1.254 . S
C263 O248 1.257 . S
C264 O249 1.266 . S
C264 O250 1.236 . S
C265 C268 1.344 . S
C265 C269 1.328 . S
C265 C271 1.516 . S
C266 C267 1.304 . S
C266 C270 1.323 . S
C267 C266 1.304 . S
C267 C268 1.371 . S
C267 H276 0.930 . S
C268 C265 1.344 . S
C268 C267 1.371 . S
C268 H277 0.931 . S
C269 C265 1.328 . S
C269 C270 1.433 . S
C269 H278 0.931 . S
C270 C266 1.323 . S
C270 C269 1.433 . S
C270 H279 0.933 . S
C271 Dy241 2.738 . S
C271 O251 1.255 . S
C271 O252 1.249 . S
C271 C265 1.516 . S
H272 C258 0.930 . S
H273 C259 0.931 . S
H274 C260 0.931 . S
H275 C261 0.933 . S
H276 C267 0.930 . S
H277 C268 0.931 . S
H278 C269 0.931 . S
H279 C270 0.933 . S
Dy280 O283 2.307 . S
Dy280 O285 2.395 . S
Dy280 O286 2.379 . S
Dy280 O288 2.339 . S
Dy280 O290 2.298 . S
Dy280 O294 2.275 . S
Dy280 C302 2.738 . S
Dy281 O284 2.298 . S
Dy281 O287 2.275 . S
Dy281 O289 2.307 . S
Dy281 O291 2.395 . S
Dy281 O292 2.379 . S
Dy281 O295 2.339 . S
Dy281 C311 2.738 . S
C282 O294 1.254 . S
C282 O295 1.257 . S
O283 Dy280 2.307 . S
O283 C293 1.266 . S
O284 Dy281 2.298 . S
O284 C293 1.236 . S
O285 Dy280 2.395 . S
O285 C302 1.255 . S
O286 Dy280 2.379 . S
O286 C302 1.249 . S
O287 Dy281 2.275 . S
O287 C303 1.254 . S
O288 Dy280 2.339 . S
O288 C303 1.257 . S
O289 Dy281 2.307 . S
O289 C304 1.266 . S
O290 Dy280 2.298 . S
O290 C304 1.236 . S
O291 Dy281 2.395 . S
O291 C311 1.255 . S
O292 Dy281 2.379 . S
O292 C311 1.249 . S
C293 O283 1.266 . S
C293 O284 1.236 . S
O294 Dy280 2.275 . S
O294 C282 1.254 . S
O295 Dy281 2.339 . S
O295 C282 1.257 . S
C296 C299 1.344 . S
C296 C300 1.328 . S
C296 C302 1.516 . S
C297 C298 1.304 . S
C297 C301 1.323 . S
C298 C297 1.304 . S
C298 C299 1.371 . S
C298 H312 0.930 . S
C299 C296 1.344 . S
C299 C298 1.371 . S
C299 H313 0.931 . S
C300 C296 1.328 . S
C300 C301 1.433 . S
C300 H314 0.931 . S
C301 C297 1.323 . S
C301 C300 1.433 . S
C301 H315 0.933 . S
C302 Dy280 2.738 . S
C302 O285 1.255 . S
C302 O286 1.249 . S
C302 C296 1.516 . S
C303 O287 1.254 . S
C303 O288 1.257 . S
C304 O289 1.266 . S
C304 O290 1.236 . S
C305 C308 1.344 . S
C305 C309 1.328 . S
C305 C311 1.516 . S
C306 C307 1.304 . S
C306 C310 1.323 . S
C307 C306 1.304 . S
C307 C308 1.371 . S
C307 H316 0.930 . S
C308 C305 1.344 . S
C308 C307 1.371 . S
C308 H317 0.931 . S
C309 C305 1.328 . S
C309 C310 1.433 . S
C309 H318 0.931 . S
C310 C306 1.323 . S
C310 C309 1.433 . S
C310 H319 0.933 . S
C311 Dy281 2.738 . S
C311 O291 1.255 . S
C311 O292 1.249 . S
C311 C305 1.516 . S
H312 C298 0.930 . S
H313 C299 0.931 . S
H314 C300 0.931 . S
H315 C301 0.933 . S
H316 C307 0.930 . S
H317 C308 0.931 . S
H318 C309 0.931 . S
H319 C310 0.933 . S
C320 C321 1.391 . S
C320 C322 1.394 . S
C320 H336 0.931 . S
C321 C320 1.391 . S
C321 C325 1.376 . S
C322 C320 1.394 . S
C322 C323 1.369 . S
C322 C326 1.531 . S
C323 C322 1.369 . S
C323 C324 1.410 . S
C323 C331 1.503 . S
C324 C323 1.410 . S
C324 C325 1.392 . S
C324 C327 1.511 1_554 S
C325 C321 1.376 . S
C325 C324 1.392 . S
C325 H337 0.929 1_554 S
C326 C322 1.531 . S
C326 H338 0.960 . S
C326 H339 0.962 . S
C326 H340 0.960 . S
C327 C324 1.511 1_556 S
C327 H341 0.961 . S
C327 H342 0.961 . S
C327 H343 0.961 1_556 S
C328 C329 1.370 1_556 S
C328 C330 1.363 . S
C328 H344 0.931 . S
C329 C328 1.370 1_554 S
C329 C333 1.408 . S
C330 C328 1.363 . S
C330 C331 1.370 1_556 S
C330 C334 1.524 . S
C331 C323 1.503 . S
C331 C330 1.370 1_554 S
C331 C332 1.403 . S
C332 C331 1.403 . S
C332 C333 1.404 . S
C332 C335 1.539 . S
C333 C329 1.408 . S
C333 C332 1.404 . S
C333 H345 0.930 . S
C334 C330 1.524 . S
C334 H346 0.956 . S
C334 H347 0.961 . S
C334 H348 0.961 . S
C335 C332 1.539 . S
C335 H349 0.958 . S
C335 H350 0.961 . S
C335 H351 0.960 . S
H336 C320 0.931 . S
H337 C325 0.929 1_556 S
H338 C326 0.960 . S
H339 C326 0.962 . S
H340 C326 0.960 . S
H341 C327 0.961 . S
H342 C327 0.961 . S
H343 C327 0.961 1_554 S
H344 C328 0.931 . S
H345 C333 0.930 . S
H346 C334 0.956 . S
H347 C334 0.961 . S
H348 C334 0.961 . S
H349 C335 0.958 . S
H350 C335 0.961 . S
H351 C335 0.960 . S
C352 C353 1.391 . S
C352 C354 1.394 . S
C352 H368 0.931 . S
C353 C352 1.391 . S
C353 C357 1.376 1_554 S
C354 C352 1.394 . S
C354 C355 1.369 . S
C354 C358 1.531 . S
C355 C354 1.369 . S
C355 C356 1.410 . S
C355 C363 1.503 . S
C356 C355 1.410 . S
C356 C357 1.392 1_554 S
C356 C359 1.511 1_554 S
C357 C353 1.376 1_556 S
C357 C356 1.392 1_556 S
C357 H369 0.929 . S
C358 C354 1.531 . S
C358 H370 0.960 . S
C358 H371 0.962 . S
C358 H372 0.960 . S
C359 C356 1.511 1_556 S
C359 H373 0.961 . S
C359 H374 0.961 . S
C359 H375 0.961 1_556 S
C360 C361 1.370 1_556 S
C360 C362 1.363 . S
C360 H376 0.931 . S
C361 C360 1.370 1_554 S
C361 C365 1.408 . S
C362 C360 1.363 . S
C362 C363 1.370 1_556 S
C362 C366 1.524 . S
C363 C355 1.503 . S
C363 C362 1.370 1_554 S
C363 C364 1.403 . S
C364 C363 1.403 . S
C364 C365 1.404 . S
C364 C367 1.539 . S
C365 C361 1.408 . S
C365 C364 1.404 . S
C365 H377 0.930 . S
C366 C362 1.524 . S
C366 H378 0.956 . S
C366 H379 0.961 . S
C366 H380 0.961 . S
C367 C364 1.539 . S
C367 H381 0.958 . S
C367 H382 0.961 . S
C367 H383 0.960 . S
H368 C352 0.931 . S
H369 C357 0.929 . S
H370 C358 0.960 . S
H371 C358 0.962 . S
H372 C358 0.960 . S
H373 C359 0.961 . S
H374 C359 0.961 . S
H375 C359 0.961 1_554 S
H376 C360 0.931 . S
H377 C365 0.930 . S
H378 C366 0.956 . S
H379 C366 0.961 . S
H380 C366 0.961 . S
H381 C367 0.958 . S
H382 C367 0.961 . S
H383 C367 0.960 . S
C384 C385 1.391 . S
C384 C386 1.394 . S
C384 H400 0.931 . S
C385 C384 1.391 . S
C385 C389 1.376 . S
C386 C384 1.394 . S
C386 C387 1.369 . S
C386 C390 1.531 . S
C387 C386 1.369 . S
C387 C388 1.410 . S
C387 C395 1.503 . S
C388 C387 1.410 . S
C388 C389 1.392 . S
C388 C391 1.511 . S
C389 C385 1.376 . S
C389 C388 1.392 . S
C389 H401 0.929 . S
C390 C386 1.531 . S
C390 H402 0.960 . S
C390 H403 0.962 . S
C390 H404 0.960 . S
C391 C388 1.511 . S
C391 H405 0.961 . S
C391 H406 0.961 . S
C391 H407 0.961 . S
C392 C393 1.370 . S
C392 C394 1.363 . S
C392 H408 0.931 . S
C393 C392 1.370 . S
C393 C397 1.408 . S
C394 C392 1.363 . S
C394 C395 1.370 . S
C394 C398 1.524 . S
C395 C387 1.503 . S
C395 C394 1.370 . S
C395 C396 1.403 . S
C396 C395 1.403 . S
C396 C397 1.404 . S
C396 C399 1.539 . S
C397 C393 1.408 . S
C397 C396 1.404 . S
C397 H409 0.930 . S
C398 C394 1.524 . S
C398 H410 0.956 . S
C398 H411 0.961 . S
C398 H412 0.961 . S
C399 C396 1.539 . S
C399 H413 0.958 . S
C399 H414 0.961 . S
C399 H415 0.960 . S
H400 C384 0.931 . S
H401 C389 0.929 . S
H402 C390 0.960 . S
H403 C390 0.962 . S
H404 C390 0.960 . S
H405 C391 0.961 . S
H406 C391 0.961 . S
H407 C391 0.961 . S
H408 C392 0.931 . S
H409 C397 0.930 . S
H410 C398 0.956 . S
H411 C398 0.961 . S
H412 C398 0.961 . S
H413 C399 0.958 . S
H414 C399 0.961 . S
H415 C399 0.960 . S
C416 C417 1.391 . S
C416 C418 1.394 . S
C416 H432 0.931 . S
C417 C416 1.391 . S
C417 C421 1.376 . S
C418 C416 1.394 . S
C418 C419 1.369 . S
C418 C422 1.531 . S
C419 C418 1.369 . S
C419 C420 1.410 . S
C419 C427 1.503 . S
C420 C419 1.410 . S
C420 C421 1.392 . S
C420 C423 1.511 . S
C421 C417 1.376 . S
C421 C420 1.392 . S
C421 H433 0.929 . S
C422 C418 1.531 . S
C422 H434 0.960 . S
C422 H435 0.962 . S
C422 H436 0.960 . S
C423 C420 1.511 . S
C423 H437 0.961 . S
C423 H438 0.961 . S
C423 H439 0.961 . S
C424 C425 1.370 . S
C424 C426 1.363 . S
C424 H440 0.931 . S
C425 C424 1.370 . S
C425 C429 1.408 . S
C426 C424 1.363 . S
C426 C427 1.370 . S
C426 C430 1.524 . S
C427 C419 1.503 . S
C427 C426 1.370 . S
C427 C428 1.403 . S
C428 C427 1.403 . S
C428 C429 1.404 . S
C428 C431 1.539 . S
C429 C425 1.408 . S
C429 C428 1.404 . S
C429 H441 0.930 . S
C430 C426 1.524 . S
C430 H442 0.956 . S
C430 H443 0.961 . S
C430 H444 0.961 . S
C431 C428 1.539 . S
C431 H445 0.958 . S
C431 H446 0.961 . S
C431 H447 0.960 . S
H432 C416 0.931 . S
H433 C421 0.929 . S
H434 C422 0.960 . S
H435 C422 0.962 . S
H436 C422 0.960 . S
H437 C423 0.961 . S
H438 C423 0.961 . S
H439 C423 0.961 . S
H440 C424 0.931 . S
H441 C429 0.930 . S
H442 C430 0.956 . S
H443 C430 0.961 . S
H444 C430 0.961 . S
H445 C431 0.958 . S
H446 C431 0.961 . S
H447 C431 0.960 . S
C448 C449 1.391 . S
C448 C450 1.394 . S
C448 H464 0.931 . S
C449 C448 1.391 . S
C449 C453 1.376 . S
C450 C448 1.394 . S
C450 C451 1.369 1_655 S
C450 C454 1.531 1_655 S
C451 C450 1.369 1_455 S
C451 C452 1.410 1_455 S
C451 C459 1.503 . S
C452 C451 1.410 1_655 S
C452 C453 1.392 . S
C452 C455 1.511 1_554 S
C453 C449 1.376 . S
C453 C452 1.392 . S
C453 H465 0.929 . S
C454 C450 1.531 1_455 S
C454 H466 0.960 1_554 S
C454 H467 0.962 . S
C454 H468 0.966 . S
C455 C452 1.511 1_556 S
C455 H469 0.961 1_556 S
C455 H470 0.961 1_656 S
C455 H471 0.961 . S
C456 C457 1.370 . S
C456 C458 1.363 . S
C456 H472 0.931 . S
C457 C456 1.370 . S
C457 C461 1.408 1_554 S
C458 C456 1.363 . S
C458 C459 1.370 . S
C458 C462 1.524 . S
C459 C451 1.503 . S
C459 C458 1.370 . S
C459 C460 1.403 1_554 S
C460 C459 1.403 1_556 S
C460 C461 1.404 . S
C460 C463 1.539 . S
C461 C457 1.408 1_556 S
C461 C460 1.404 . S
C461 H473 0.930 . S
C462 C458 1.524 . S
C462 H474 0.956 . S
C462 H475 0.961 . S
C462 H476 0.961 . S
C463 C460 1.539 . S
C463 H477 0.958 . S
C463 H478 0.961 . S
C463 H479 0.960 . S
H464 C448 0.931 . S
H465 C453 0.929 . S
H466 C454 0.960 1_556 S
H467 C454 0.962 . S
H468 C454 0.966 . S
H469 C455 0.961 1_554 S
H470 C455 0.961 1_454 S
H471 C455 0.961 . S
H472 C456 0.931 . S
H473 C461 0.930 . S
H474 C462 0.956 . S
H475 C462 0.961 . S
H476 C462 0.961 . S
H477 C463 0.958 . S
H478 C463 0.961 . S
H479 C463 0.960 . S
C480 C481 1.391 1_556 S
C480 C482 1.394 . S
C480 H496 0.931 . S
C481 C480 1.391 1_554 S
C481 C485 1.376 . S
C482 C480 1.394 . S
C482 C483 1.369 1_456 S
C482 C486 1.531 1_455 S
C483 C482 1.369 1_654 S
C483 C484 1.410 1_655 S
C483 C491 1.503 . S
C484 C483 1.410 1_455 S
C484 C485 1.392 . S
C484 C487 1.511 1_455 S
C485 C481 1.376 . S
C485 C484 1.392 . S
C485 H497 0.929 . S
C486 C482 1.531 1_655 S
C486 H498 0.960 . S
C486 H499 0.962 . S
C486 H500 0.960 1_655 S
C487 C484 1.511 1_655 S
C487 H501 0.961 1_655 S
C487 H502 0.961 . S
C487 H503 0.961 . S
C488 C489 1.370 . S
C488 C490 1.363 . S
C488 H504 0.931 1_554 S
C489 C488 1.370 . S
C489 C493 1.408 . S
C490 C488 1.363 . S
C490 C491 1.370 . S
C490 C494 1.524 1_554 S
C491 C483 1.503 . S
C491 C490 1.370 . S
C491 C492 1.403 . S
C492 C491 1.403 . S
C492 C493 1.404 . S
C492 C495 1.539 . S
C493 C489 1.408 . S
C493 C492 1.404 . S
C493 H505 0.930 . S
C494 C490 1.524 1_556 S
C494 H506 0.956 . S
C494 H507 0.961 1_556 S
C494 H508 0.961 . S
C495 C492 1.539 . S
C495 H509 0.958 . S
C495 H510 0.961 . S
C495 H511 0.960 . S
H496 C480 0.931 . S
H497 C485 0.929 . S
H498 C486 0.960 . S
H499 C486 0.962 . S
H500 C486 0.960 1_455 S
H501 C487 0.961 1_455 S
H502 C487 0.961 . S
H503 C487 0.961 . S
H504 C488 0.931 1_556 S
H505 C493 0.930 . S
H506 C494 0.956 . S
H507 C494 0.961 1_554 S
H508 C494 0.961 . S
H509 C495 0.958 . S
H510 C495 0.961 . S
H511 C495 0.960 . S
C512 C513 1.391 . S
C512 C514 1.394 . S
C512 H528 0.931 . S
C513 C512 1.391 . S
C513 C517 1.376 . S
C514 C512 1.394 . S
C514 C515 1.369 . S
C514 C518 1.531 . S
C515 C514 1.369 . S
C515 C516 1.410 . S
C515 C523 1.503 . S
C516 C515 1.410 . S
C516 C517 1.392 . S
C516 C519 1.511 . S
C517 C513 1.376 . S
C517 C516 1.392 . S
C517 H529 0.929 . S
C518 C514 1.531 . S
C518 H530 0.960 . S
C518 H531 0.962 . S
C518 H532 0.960 . S
C519 C516 1.511 . S
C519 H533 0.961 . S
C519 H534 0.961 . S
C519 H535 0.961 . S
C520 C521 1.370 . S
C520 C522 1.363 . S
C520 H536 0.931 . S
C521 C520 1.370 . S
C521 C525 1.408 . S
C522 C520 1.363 . S
C522 C523 1.370 1_655 S
C522 C526 1.524 1_655 S
C523 C515 1.503 . S
C523 C522 1.370 1_455 S
C523 C524 1.403 1_455 S
C524 C523 1.403 1_655 S
C524 C525 1.404 . S
C524 C527 1.539 . S
C525 C521 1.408 . S
C525 C524 1.404 . S
C525 H537 0.930 . S
C526 C522 1.524 1_455 S
C526 H538 0.956 . S
C526 H539 0.961 . S
C526 H540 0.961 . S
C527 C524 1.539 . S
C527 H541 0.958 . S
C527 H542 0.961 . S
C527 H543 0.960 1_655 S
H528 C512 0.931 . S
H529 C517 0.929 . S
H530 C518 0.960 . S
H531 C518 0.962 . S
H532 C518 0.960 . S
H533 C519 0.961 . S
H534 C519 0.961 . S
H535 C519 0.961 . S
H536 C520 0.931 . S
H537 C525 0.930 . S
H538 C526 0.956 . S
H539 C526 0.961 . S
H540 C526 0.961 . S
H541 C527 0.958 . S
H542 C527 0.961 . S
H543 C527 0.960 1_455 S
C544 C545 1.391 . S
C544 C546 1.394 . S
C544 H560 0.931 . S
C545 C544 1.391 . S
C545 C549 1.376 . S
C546 C544 1.394 . S
C546 C547 1.369 . S
C546 C550 1.531 . S
C547 C546 1.369 . S
C547 C548 1.410 . S
C547 C555 1.503 . S
C548 C547 1.410 . S
C548 C549 1.392 . S
C548 C551 1.511 . S
C549 C545 1.376 . S
C549 C548 1.392 . S
C549 H561 0.929 . S
C550 C546 1.531 . S
C550 H562 0.960 . S
C550 H563 0.962 . S
C550 H564 0.960 . S
C551 C548 1.511 . S
C551 H565 0.961 . S
C551 H566 0.961 . S
C551 H567 0.961 . S
C552 C553 1.370 . S
C552 C554 1.363 . S
C552 H568 0.931 . S
C553 C552 1.370 . S
C553 C557 1.408 . S
C554 C552 1.363 . S
C554 C555 1.370 1_455 S
C554 C558 1.524 1_455 S
C555 C547 1.503 . S
C555 C554 1.370 1_655 S
C555 C556 1.403 1_655 S
C556 C555 1.403 1_455 S
C556 C557 1.404 . S
C556 C559 1.539 1_455 S
C557 C553 1.408 . S
C557 C556 1.404 . S
C557 H569 0.930 . S
C558 C554 1.524 1_655 S
C558 H570 0.956 . S
C558 H571 0.961 . S
C558 H572 0.961 1_655 S
C559 C556 1.539 1_655 S
C559 H573 0.958 . S
C559 H574 0.961 . S
C559 H575 0.960 . S
H560 C544 0.931 . S
H561 C549 0.929 . S
H562 C550 0.960 . S
H563 C550 0.962 . S
H564 C550 0.960 . S
H565 C551 0.961 . S
H566 C551 0.961 . S
H567 C551 0.961 . S
H568 C552 0.931 . S
H569 C557 0.930 . S
H570 C558 0.956 . S
H571 C558 0.961 . S
H572 C558 0.961 1_455 S
H573 C559 0.958 . S
H574 C559 0.961 . S
H575 C559 0.960 . S
C576 C577 1.391 . S
C576 C578 1.394 . S
C576 H592 0.931 . S
C577 C576 1.391 . S
C577 C581 1.376 1_554 S
C578 C576 1.394 . S
C578 C579 1.369 . S
C578 C582 1.531 . S
C579 C578 1.369 . S
C579 C580 1.410 1_454 S
C579 C587 1.503 1_455 S
C580 C579 1.410 1_656 S
C580 C581 1.392 1_655 S
C580 C583 1.511 . S
C581 C577 1.376 1_556 S
C581 C580 1.392 1_455 S
C581 H593 0.929 . S
C582 C578 1.531 . S
C582 H594 0.960 . S
C582 H595 0.962 . S
C582 H596 0.960 . S
C583 C580 1.511 . S
C583 H597 0.961 . S
C583 H598 0.961 . S
C583 H599 0.961 . S
C584 C585 1.370 . S
C584 C586 1.363 1_655 S
C584 H600 0.931 1_654 S
C585 C584 1.370 . S
C585 C589 1.408 . S
C586 C584 1.363 1_455 S
C586 C587 1.370 1_455 S
C586 C590 1.524 1_554 S
C587 C579 1.503 1_655 S
C587 C586 1.370 1_655 S
C587 C588 1.403 . S
C588 C587 1.403 . S
C588 C589 1.404 . S
C588 C591 1.539 . S
C589 C585 1.408 . S
C589 C588 1.404 . S
C589 H601 0.930 . S
C590 C586 1.524 1_556 S
C590 H602 0.956 . S
C590 H603 0.961 . S
C590 H604 0.961 . S
C591 C588 1.539 . S
C591 H605 0.958 . S
C591 H606 0.961 . S
C591 H607 0.960 . S
H592 C576 0.931 . S
H593 C581 0.929 . S
H594 C582 0.960 . S
H595 C582 0.962 . S
H596 C582 0.960 . S
H597 C583 0.961 . S
H598 C583 0.961 . S
H599 C583 0.961 . S
H600 C584 0.931 1_456 S
H601 C589 0.930 . S
H602 C590 0.956 . S
H603 C590 0.961 . S
H604 C590 0.961 . S
H605 C591 0.958 . S
H606 C591 0.961 . S
H607 C591 0.960 . S
C608 C609 1.391 . S
C608 C610 1.394 . S
C608 H624 0.931 . S
C609 C608 1.391 . S
C609 C613 1.376 . S
C610 C608 1.394 . S
C610 C611 1.369 . S
C610 C614 1.531 . S
C611 C610 1.369 . S
C611 C612 1.410 1_455 S
C611 C619 1.503 1_455 S
C612 C611 1.410 1_655 S
C612 C613 1.392 1_655 S
C612 C615 1.511 . S
C613 C609 1.376 . S
C613 C612 1.392 1_455 S
C613 H625 0.929 . S
C614 C610 1.531 . S
C614 H626 0.960 . S
C614 H627 0.962 . S
C614 H628 0.960 . S
C615 C612 1.511 . S
C615 H629 0.961 . S
C615 H630 0.961 . S
C615 H631 0.961 . S
C616 C617 1.370 . S
C616 C618 1.363 1_655 S
C616 H632 0.931 1_655 S
C617 C616 1.370 . S
C617 C621 1.408 . S
C618 C616 1.363 1_455 S
C618 C619 1.370 1_455 S
C618 C622 1.524 . S
C619 C611 1.503 1_655 S
C619 C618 1.370 1_655 S
C619 C620 1.403 . S
C620 C619 1.403 . S
C620 C621 1.404 . S
C620 C623 1.539 . S
C621 C617 1.408 . S
C621 C620 1.404 . S
C621 H633 0.930 . S
C622 C618 1.524 . S
C622 H634 0.956 . S
C622 H635 0.961 . S
C622 H636 0.961 . S
C623 C620 1.539 . S
C623 H637 0.958 . S
C623 H638 0.961 . S
C623 H639 0.960 . S
H624 C608 0.931 . S
H625 C613 0.929 . S
H626 C614 0.960 . S
H627 C614 0.962 . S
H628 C614 0.960 . S
H629 C615 0.961 . S
H630 C615 0.961 . S
H631 C615 0.961 . S
H632 C616 0.931 1_455 S
H633 C621 0.930 . S
H634 C622 0.956 . S
H635 C622 0.961 . S
H636 C622 0.961 . S
H637 C623 0.958 . S
H638 C623 0.961 . S
H639 C623 0.960 . S
C640 C641 1.391 1_556 S
C640 C642 1.394 . S
C640 H656 0.931 . S
C641 C640 1.391 1_554 S
C641 C645 1.376 . S
C642 C640 1.394 . S
C642 C643 1.369 1_556 S
C642 C646 1.531 . S
C643 C642 1.369 1_554 S
C643 C644 1.410 . S
C643 C651 1.503 1_565 S
C644 C643 1.410 . S
C644 C645 1.392 . S
C644 C647 1.511 . S
C645 C641 1.376 . S
C645 C644 1.392 . S
C645 H657 0.929 . S
C646 C642 1.531 . S
C646 H658 0.939 1_565 S
C646 H659 0.962 . S
C646 H660 0.960 . S
C647 C644 1.511 . S
C647 H661 0.961 . S
C647 H662 0.961 1_565 S
C647 H663 0.961 1_565 S
C648 C649 1.370 . S
C648 C650 1.363 . S
C648 H664 0.931 . S
C649 C648 1.370 . S
C649 C653 1.408 1_554 S
C650 C648 1.363 . S
C650 C651 1.370 . S
C650 C654 1.524 1_545 S
C651 C643 1.503 1_545 S
C651 C650 1.370 . S
C651 C652 1.403 1_554 S
C652 C651 1.403 1_556 S
C652 C653 1.404 . S
C652 C655 1.539 . S
C653 C649 1.408 1_556 S
C653 C652 1.404 . S
C653 H665 0.930 . S
C654 C650 1.524 1_565 S
C654 H666 0.956 . S
C654 H667 0.961 . S
C654 H668 0.975 . S
C655 C652 1.539 . S
C655 H669 0.958 . S
C655 H670 0.961 . S
C655 H671 0.960 . S
H656 C640 0.931 . S
H657 C645 0.929 . S
H658 C646 0.939 1_545 S
H659 C646 0.962 . S
H660 C646 0.960 . S
H661 C647 0.961 . S
H662 C647 0.961 1_545 S
H663 C647 0.961 1_545 S
H664 C648 0.931 . S
H665 C653 0.930 . S
H666 C654 0.956 . S
H667 C654 0.961 . S
H668 C654 0.975 . S
H669 C655 0.958 . S
H670 C655 0.961 . S
H671 C655 0.960 . S
C672 C673 1.391 . S
C672 C674 1.394 . S
C672 H688 0.931 . S
C673 C672 1.391 . S
C673 C677 1.376 . S
C674 C672 1.394 . S
C674 C675 1.369 . S
C674 C678 1.531 . S
C675 C674 1.369 . S
C675 C676 1.410 . S
C675 C683 1.503 1_545 S
C676 C675 1.410 . S
C676 C677 1.392 . S
C676 C679 1.547 . S
C677 C673 1.376 . S
C677 C676 1.392 . S
C677 H689 0.929 . S
C678 C674 1.531 . S
C678 H690 0.940 1_545 S
C678 H691 0.962 . S
C678 H692 0.960 . S
C679 C676 1.547 . S
C679 H693 0.988 . S
C679 H694 0.927 1_545 S
C679 H695 0.935 1_545 S
C680 C681 1.370 . S
C680 C682 1.363 . S
C680 H696 0.931 . S
C681 C680 1.370 . S
C681 C685 1.408 . S
C682 C680 1.363 . S
C682 C683 1.370 . S
C682 C686 1.524 1_565 S
C683 C675 1.503 1_565 S
C683 C682 1.370 . S
C683 C684 1.403 . S
C684 C683 1.403 . S
C684 C685 1.404 . S
C684 C687 1.539 . S
C685 C681 1.408 . S
C685 C684 1.404 . S
C685 H697 0.930 . S
C686 C682 1.524 1_545 S
C686 H698 0.956 . S
C686 H699 0.961 . S
C686 H700 0.991 . S
C687 C684 1.539 . S
C687 H701 0.958 . S
C687 H702 0.961 . S
C687 H703 0.960 . S
H688 C672 0.931 . S
H689 C677 0.929 . S
H690 C678 0.940 1_565 S
H691 C678 0.962 . S
H692 C678 0.960 . S
H693 C679 0.988 . S
H694 C679 0.927 1_565 S
H695 C679 0.935 1_565 S
H696 C680 0.931 . S
H697 C685 0.930 . S
H698 C686 0.956 . S
H699 C686 0.961 . S
H700 C686 0.991 . S
H701 C687 0.958 . S
H702 C687 0.961 . S
H703 C687 0.960 . S
C704 C705 1.391 1_556 S
C704 C706 1.394 . S
C704 H720 0.931 . S
C705 C704 1.391 1_554 S
C705 C709 1.376 . S
C706 C704 1.394 . S
C706 C707 1.369 1_556 S
C706 C710 1.531 . S
C707 C706 1.369 1_554 S
C707 C708 1.410 . S
C707 C715 1.503 . S
C708 C707 1.410 . S
C708 C709 1.392 . S
C708 C711 1.511 . S
C709 C705 1.376 . S
C709 C708 1.392 . S
C709 H721 0.929 . S
C710 C706 1.531 . S
C710 H722 0.960 . S
C710 H723 0.962 . S
C710 H724 0.960 . S
C711 C708 1.511 . S
C711 H725 0.961 . S
C711 H726 0.961 . S
C711 H727 0.961 . S
C712 C713 1.370 . S
C712 C714 1.363 . S
C712 H728 0.931 . S
C713 C712 1.370 . S
C713 C717 1.408 1_554 S
C714 C712 1.363 . S
C714 C715 1.370 . S
C714 C718 1.524 . S
C715 C707 1.503 . S
C715 C714 1.370 . S
C715 C716 1.403 1_554 S
C716 C715 1.403 1_556 S
C716 C717 1.404 . S
C716 C719 1.539 . S
C717 C713 1.408 1_556 S
C717 C716 1.404 . S
C717 H729 0.930 . S
C718 C714 1.524 . S
C718 H730 0.956 . S
C718 H731 0.961 . S
C718 H732 0.961 . S
C719 C716 1.539 . S
C719 H733 0.958 . S
C719 H734 0.961 . S
C719 H735 0.960 . S
H720 C704 0.931 . S
H721 C709 0.929 . S
H722 C710 0.960 . S
H723 C710 0.962 . S
H724 C710 0.960 . S
H725 C711 0.961 . S
H726 C711 0.961 . S
H727 C711 0.961 . S
H728 C712 0.931 . S
H729 C717 0.930 . S
H730 C718 0.956 . S
H731 C718 0.961 . S
H732 C718 0.961 . S
H733 C719 0.958 . S
H734 C719 0.961 . S
H735 C719 0.960 . S
C736 C737 1.391 . S
C736 C738 1.394 . S
C736 H752 0.931 . S
C737 C736 1.391 . S
C737 C741 1.376 . S
C738 C736 1.394 . S
C738 C739 1.369 . S
C738 C742 1.531 . S
C739 C738 1.369 . S
C739 C740 1.410 . S
C739 C747 1.503 . S
C740 C739 1.410 . S
C740 C741 1.392 . S
C740 C743 1.511 . S
C741 C737 1.376 . S
C741 C740 1.392 . S
C741 H753 0.929 . S
C742 C738 1.531 . S
C742 H754 0.960 . S
C742 H755 0.962 1_554 S
C742 H756 0.960 . S
C743 C740 1.511 . S
C743 H757 0.961 . S
C743 H758 0.961 . S
C743 H759 0.961 . S
C744 C745 1.370 1_556 S
C744 C746 1.363 . S
C744 H760 0.931 . S
C745 C744 1.370 1_554 S
C745 C749 1.408 . S
C746 C744 1.363 . S
C746 C747 1.370 1_556 S
C746 C750 1.524 . S
C747 C739 1.503 . S
C747 C746 1.370 1_554 S
C747 C748 1.403 . S
C748 C747 1.403 . S
C748 C749 1.404 . S
C748 C751 1.539 . S
C749 C745 1.408 . S
C749 C748 1.404 . S
C749 H761 0.930 . S
C750 C746 1.524 . S
C750 H762 0.956 . S
C750 H763 0.961 . S
C750 H764 0.961 . S
C751 C748 1.539 . S
C751 H765 0.958 . S
C751 H766 0.961 . S
C751 H767 0.960 . S
H752 C736 0.931 . S
H753 C741 0.929 . S
H754 C742 0.960 . S
H755 C742 0.962 1_556 S
H756 C742 0.960 . S
H757 C743 0.961 . S
H758 C743 0.961 . S
H759 C743 0.961 . S
H760 C744 0.931 . S
H761 C749 0.930 . S
H762 C750 0.956 . S
H763 C750 0.961 . S
H764 C750 0.961 . S
H765 C751 0.958 . S
H766 C751 0.961 . S
H767 C751 0.960 . S
C768 C769 1.391 . S
C768 C770 1.394 . S
C768 H784 0.931 . S
C769 C768 1.391 . S
C769 C773 1.376 . S
C770 C768 1.394 . S
C770 C771 1.369 . S
C770 C774 1.531 . S
C771 C770 1.369 . S
C771 C772 1.410 . S
C771 C779 1.503 . S
C772 C771 1.410 . S
C772 C773 1.392 . S
C772 C775 1.511 . S
C773 C769 1.376 . S
C773 C772 1.392 . S
C773 H785 0.929 . S
C774 C770 1.531 . S
C774 H786 0.960 . S
C774 H787 0.962 . S
C774 H788 0.960 . S
C775 C772 1.511 . S
C775 H789 0.961 . S
C775 H790 0.961 . S
C775 H791 0.961 . S
C776 C777 1.370 . S
C776 C778 1.363 . S
C776 H792 0.931 . S
C777 C776 1.370 . S
C777 C781 1.408 . S
C778 C776 1.363 . S
C778 C779 1.370 . S
C778 C782 1.524 . S
C779 C771 1.503 . S
C779 C778 1.370 . S
C779 C780 1.403 . S
C780 C779 1.403 . S
C780 C781 1.404 . S
C780 C783 1.539 . S
C781 C777 1.408 . S
C781 C780 1.404 . S
C781 H793 0.930 . S
C782 C778 1.524 . S
C782 H794 0.956 . S
C782 H795 0.961 . S
C782 H796 0.961 . S
C783 C780 1.539 . S
C783 H797 0.958 . S
C783 H798 0.961 . S
C783 H799 0.960 . S
H784 C768 0.931 . S
H785 C773 0.929 . S
H786 C774 0.960 . S
H787 C774 0.962 . S
H788 C774 0.960 . S
H789 C775 0.961 . S
H790 C775 0.961 . S
H791 C775 0.961 . S
H792 C776 0.931 . S
H793 C781 0.930 . S
H794 C782 0.956 . S
H795 C782 0.961 . S
H796 C782 0.961 . S
H797 C783 0.958 . S
H798 C783 0.961 . S
H799 C783 0.960 . S
C800 C801 1.391 . S
C800 C802 1.394 . S
C800 H816 0.931 . S
C801 C800 1.391 . S
C801 C805 1.376 . S
C802 C800 1.394 . S
C802 C803 1.369 . S
C802 C806 1.531 . S
C803 C802 1.369 . S
C803 C804 1.410 . S
C803 C811 1.503 . S
C804 C803 1.410 . S
C804 C805 1.392 . S
C804 C807 1.511 . S
C805 C801 1.376 . S
C805 C804 1.392 . S
C805 H817 0.929 . S
C806 C802 1.531 . S
C806 H818 0.960 . S
C806 H819 0.962 . S
C806 H820 0.960 . S
C807 C804 1.511 . S
C807 H821 0.961 . S
C807 H822 0.961 . S
C807 H823 0.961 . S
C808 C809 1.370 . S
C808 C810 1.363 . S
C808 H824 0.931 . S
C809 C808 1.370 . S
C809 C813 1.408 . S
C810 C808 1.363 . S
C810 C811 1.370 . S
C810 C814 1.524 . S
C811 C803 1.503 . S
C811 C810 1.370 . S
C811 C812 1.403 . S
C812 C811 1.403 . S
C812 C813 1.404 . S
C812 C815 1.539 . S
C813 C809 1.408 . S
C813 C812 1.404 . S
C813 H825 0.930 . S
C814 C810 1.524 . S
C814 H826 0.956 . S
C814 H827 0.961 . S
C814 H828 0.961 . S
C815 C812 1.539 . S
C815 H829 0.958 . S
C815 H830 0.961 . S
C815 H831 0.960 . S
H816 C800 0.931 . S
H817 C805 0.929 . S
H818 C806 0.960 . S
H819 C806 0.962 . S
H820 C806 0.960 . S
H821 C807 0.961 . S
H822 C807 0.961 . S
H823 C807 0.961 . S
H824 C808 0.931 . S
H825 C813 0.930 . S
H826 C814 0.956 . S
H827 C814 0.961 . S
H828 C814 0.961 . S
H829 C815 0.958 . S
H830 C815 0.961 . S
H831 C815 0.960 . S
C832 C833 1.391 . S
C832 C834 1.394 . S
C832 H848 0.931 . S
C833 C832 1.391 . S
C833 C837 1.376 1_455 S
C834 C832 1.394 . S
C834 C835 1.369 1_455 S
C834 C838 1.531 . S
C835 C834 1.369 1_655 S
C835 C836 1.410 . S
C835 C843 1.503 . S
C836 C835 1.410 . S
C836 C837 1.392 . S
C836 C839 1.511 . S
C837 C833 1.376 1_655 S
C837 C836 1.392 . S
C837 H849 0.929 . S
C838 C834 1.531 . S
C838 H850 0.960 . S
C838 H851 0.962 . S
C838 H852 0.960 . S
C839 C836 1.511 . S
C839 H853 0.961 . S
C839 H854 0.961 . S
C839 H855 0.961 . S
C840 C841 1.370 . S
C840 C842 1.363 . S
C840 H856 0.931 . S
C841 C840 1.370 . S
C841 C845 1.408 . S
C842 C840 1.363 . S
C842 C843 1.370 . S
C842 C846 1.524 1_655 S
C843 C835 1.503 . S
C843 C842 1.370 . S
C843 C844 1.403 . S
C844 C843 1.403 . S
C844 C845 1.404 . S
C844 C847 1.539 . S
C845 C841 1.408 . S
C845 C844 1.404 . S
C845 H857 0.930 . S
C846 C842 1.524 1_455 S
C846 H858 0.956 . S
C846 H859 0.961 1_455 S
C846 H860 0.961 . S
C847 C844 1.539 . S
C847 H861 0.958 . S
C847 H862 0.961 . S
C847 H863 0.960 . S
H848 C832 0.931 . S
H849 C837 0.929 . S
H850 C838 0.960 . S
H851 C838 0.962 . S
H852 C838 0.960 . S
H853 C839 0.961 . S
H854 C839 0.961 . S
H855 C839 0.961 . S
H856 C840 0.931 . S
H857 C845 0.930 . S
H858 C846 0.956 . S
H859 C846 0.961 1_655 S
H860 C846 0.961 . S
H861 C847 0.958 . S
H862 C847 0.961 . S
H863 C847 0.960 . S
C864 C865 1.391 . S
C864 C866 1.394 . S
C864 H880 0.931 . S
C865 C864 1.391 . S
C865 C869 1.376 1_655 S
C866 C864 1.394 . S
C866 C867 1.369 1_655 S
C866 C870 1.531 . S
C867 C866 1.369 1_455 S
C867 C868 1.410 . S
C867 C875 1.503 . S
C868 C867 1.410 . S
C868 C869 1.392 . S
C868 C871 1.511 . S
C869 C865 1.376 1_455 S
C869 C868 1.392 . S
C869 H881 0.929 . S
C870 C866 1.531 . S
C870 H882 0.960 . S
C870 H883 0.962 . S
C870 H884 0.960 . S
C871 C868 1.511 . S
C871 H885 0.961 . S
C871 H886 0.961 . S
C871 H887 0.961 . S
C872 C873 1.370 1_655 S
C872 C874 1.363 . S
C872 H888 0.931 . S
C873 C872 1.370 1_455 S
C873 C877 1.408 . S
C874 C872 1.363 . S
C874 C875 1.370 1_655 S
C874 C878 1.524 . S
C875 C867 1.503 . S
C875 C874 1.370 1_455 S
C875 C876 1.403 . S
C876 C875 1.403 . S
C876 C877 1.404 . S
C876 C879 1.539 . S
C877 C873 1.408 . S
C877 C876 1.404 . S
C877 H889 0.930 . S
C878 C874 1.524 . S
C878 H890 0.956 . S
C878 H891 0.961 . S
C878 H892 0.961 . S
C879 C876 1.539 . S
C879 H893 0.958 . S
C879 H894 0.961 . S
C879 H895 0.960 . S
H880 C864 0.931 . S
H881 C869 0.929 . S
H882 C870 0.960 . S
H883 C870 0.962 . S
H884 C870 0.960 . S
H885 C871 0.961 . S
H886 C871 0.961 . S
H887 C871 0.961 . S
H888 C872 0.931 . S
H889 C877 0.930 . S
H890 C878 0.956 . S
H891 C878 0.961 . S
H892 C878 0.961 . S
H893 C879 0.958 . S
H894 C879 0.961 . S
H895 C879 0.960 . S
C896 C897 1.391 1_455 S
C896 C898 1.394 . S
C896 H912 0.931 . S
C897 C896 1.391 1_655 S
C897 C901 1.376 . S
C898 C896 1.394 . S
C898 C899 1.369 1_455 S
C898 C902 1.531 . S
C899 C898 1.369 1_655 S
C899 C900 1.410 . S
C899 C907 1.503 1_655 S
C900 C899 1.410 . S
C900 C901 1.392 . S
C900 C903 1.511 . S
C901 C897 1.376 . S
C901 C900 1.392 . S
C901 H913 0.929 . S
C902 C898 1.531 . S
C902 H914 0.960 . S
C902 H915 0.962 . S
C902 H916 0.960 . S
C903 C900 1.511 . S
C903 H917 0.961 . S
C903 H918 0.961 . S
C903 H919 0.961 . S
C904 C905 1.370 . S
C904 C906 1.363 . S
C904 H920 0.931 . S
C905 C904 1.370 . S
C905 C909 1.408 . S
C906 C904 1.363 . S
C906 C907 1.370 . S
C906 C910 1.524 . S
C907 C899 1.503 1_455 S
C907 C906 1.370 . S
C907 C908 1.403 . S
C908 C907 1.403 . S
C908 C909 1.404 . S
C908 C911 1.539 1_455 S
C909 C905 1.408 . S
C909 C908 1.404 . S
C909 H921 0.930 . S
C910 C906 1.524 . S
C910 H922 0.956 . S
C910 H923 0.961 1_455 S
C910 H924 0.961 . S
C911 C908 1.539 1_655 S
C911 H925 0.958 1_655 S
C911 H926 0.961 . S
C911 H927 0.960 . S
H912 C896 0.931 . S
H913 C901 0.929 . S
H914 C902 0.960 . S
H915 C902 0.962 . S
H916 C902 0.960 . S
H917 C903 0.961 . S
H918 C903 0.961 . S
H919 C903 0.961 . S
H920 C904 0.931 . S
H921 C909 0.930 . S
H922 C910 0.956 . S
H923 C910 0.961 1_655 S
H924 C910 0.961 . S
H925 C911 0.958 1_455 S
H926 C911 0.961 . S
H927 C911 0.960 . S
C928 C929 1.391 . S
C928 C930 1.394 . S
C928 H944 0.931 . S
C929 C928 1.391 . S
C929 C933 1.376 1_655 S
C930 C928 1.394 . S
C930 C931 1.369 1_655 S
C930 C934 1.531 . S
C931 C930 1.369 1_455 S
C931 C932 1.410 . S
C931 C939 1.503 . S
C932 C931 1.410 . S
C932 C933 1.392 . S
C932 C935 1.511 . S
C933 C929 1.376 1_455 S
C933 C932 1.392 . S
C933 H945 0.929 . S
C934 C930 1.531 . S
C934 H946 0.960 . S
C934 H947 0.962 . S
C934 H948 0.960 . S
C935 C932 1.511 . S
C935 H949 0.961 . S
C935 H950 0.961 . S
C935 H951 0.961 . S
C936 C937 1.370 . S
C936 C938 1.363 1_455 S
C936 H952 0.931 1_455 S
C937 C936 1.370 . S
C937 C941 1.408 . S
C938 C936 1.363 1_655 S
C938 C939 1.370 1_655 S
C938 C942 1.524 . S
C939 C931 1.503 . S
C939 C938 1.370 1_455 S
C939 C940 1.403 . S
C940 C939 1.403 . S
C940 C941 1.404 . S
C940 C943 1.539 . S
C941 C937 1.408 . S
C941 C940 1.404 . S
C941 H953 0.930 . S
C942 C938 1.524 . S
C942 H954 0.956 . S
C942 H955 0.961 . S
C942 H956 0.961 . S
C943 C940 1.539 . S
C943 H957 0.958 . S
C943 H958 0.961 . S
C943 H959 0.960 . S
H944 C928 0.931 . S
H945 C933 0.929 . S
H946 C934 0.960 . S
H947 C934 0.962 . S
H948 C934 0.960 . S
H949 C935 0.961 . S
H950 C935 0.961 . S
H951 C935 0.961 . S
H952 C936 0.931 1_655 S
H953 C941 0.930 . S
H954 C942 0.956 . S
H955 C942 0.961 . S
H956 C942 0.961 . S
H957 C943 0.958 . S
H958 C943 0.961 . S
H959 C943 0.960 . S
C960 C961 1.391 . S
C960 C962 1.394 . S
C960 H976 0.931 . S
C961 C960 1.391 . S
C961 C965 1.376 . S
C962 C960 1.394 . S
C962 C963 1.369 . S
C962 C966 1.531 . S
C963 C962 1.369 . S
C963 C964 1.410 . S
C963 C971 1.503 . S
C964 C963 1.410 . S
C964 C965 1.392 . S
C964 C967 1.511 . S
C965 C961 1.376 . S
C965 C964 1.392 . S
C965 H977 0.929 . S
C966 C962 1.531 . S
C966 H978 0.960 . S
C966 H979 0.962 . S
C966 H980 0.960 . S
C967 C964 1.511 . S
C967 H981 0.961 . S
C967 H982 0.961 . S
C967 H983 0.961 . S
C968 C969 1.370 . S
C968 C970 1.363 . S
C968 H984 0.931 . S
C969 C968 1.370 . S
C969 C973 1.408 . S
C970 C968 1.363 . S
C970 C971 1.370 . S
C970 C974 1.524 . S
C971 C963 1.503 . S
C971 C970 1.370 . S
C971 C972 1.403 . S
C972 C971 1.403 . S
C972 C973 1.404 . S
C972 C975 1.539 . S
C973 C969 1.408 . S
C973 C972 1.404 . S
C973 H985 0.930 . S
C974 C970 1.524 . S
C974 H986 0.956 . S
C974 H987 0.961 . S
C974 H988 0.961 . S
C975 C972 1.539 . S
C975 H989 0.958 . S
C975 H990 0.961 . S
C975 H991 0.960 . S
H976 C960 0.931 . S
H977 C965 0.929 . S
H978 C966 0.960 . S
H979 C966 0.962 . S
H980 C966 0.960 . S
H981 C967 0.961 . S
H982 C967 0.961 . S
H983 C967 0.961 . S
H984 C968 0.931 . S
H985 C973 0.930 . S
H986 C974 0.956 . S
H987 C974 0.961 . S
H988 C974 0.961 . S
H989 C975 0.958 . S
H990 C975 0.961 . S
H991 C975 0.960 . S
C992 C993 1.391 . S
C992 C994 1.394 . S
C992 H1008 0.931 . S
C993 C992 1.391 . S
C993 C997 1.376 . S
C994 C992 1.394 . S
C994 C995 1.369 . S
C994 C998 1.531 . S
C995 C994 1.369 . S
C995 C996 1.410 . S
C995 C1003 1.503 . S
C996 C995 1.410 . S
C996 C997 1.392 . S
C996 C999 1.511 . S
C997 C993 1.376 . S
C997 C996 1.392 . S
C997 H1009 0.929 . S
C998 C994 1.531 . S
C998 H1010 0.960 . S
C998 H1011 0.962 . S
C998 H1012 0.960 . S
C999 C996 1.511 . S
C999 H1013 0.961 . S
C999 H1014 0.961 . S
C999 H1015 0.961 . S
C1000 C1001 1.370 . S
C1000 C1002 1.363 . S
C1000 H1016 0.931 . S
C1001 C1000 1.370 . S
C1001 C1005 1.408 . S
C1002 C1000 1.363 . S
C1002 C1003 1.370 . S
C1002 C1006 1.524 . S
C1003 C995 1.503 . S
C1003 C1002 1.370 . S
C1003 C1004 1.403 . S
C1004 C1003 1.403 . S
C1004 C1005 1.404 . S
C1004 C1007 1.539 . S
C1005 C1001 1.408 . S
C1005 C1004 1.404 . S
C1005 H1017 0.930 . S
C1006 C1002 1.524 . S
C1006 H1018 0.956 . S
C1006 H1019 0.961 . S
C1006 H1020 0.961 . S
C1007 C1004 1.539 . S
C1007 H1021 0.958 . S
C1007 H1022 0.961 . S
C1007 H1023 0.960 . S
H1008 C992 0.931 . S
H1009 C997 0.929 . S
H1010 C998 0.960 . S
H1011 C998 0.962 . S
H1012 C998 0.960 . S
H1013 C999 0.961 . S
H1014 C999 0.961 . S
H1015 C999 0.961 . S
H1016 C1000 0.931 . S
H1017 C1005 0.930 . S
H1018 C1006 0.956 . S
H1019 C1006 0.961 . S
H1020 C1006 0.961 . S
H1021 C1007 0.958 . S
H1022 C1007 0.961 . S
H1023 C1007 0.960 . S
C1024 C1025 1.391 . S
C1024 C1026 1.394 . S
C1024 H1040 0.931 . S
C1025 C1024 1.391 . S
C1025 C1029 1.376 . S
C1026 C1024 1.394 . S
C1026 C1027 1.369 . S
C1026 C1030 1.531 . S
C1027 C1026 1.369 . S
C1027 C1028 1.410 . S
C1027 C1035 1.503 . S
C1028 C1027 1.410 . S
C1028 C1029 1.392 . S
C1028 C1031 1.511 . S
C1029 C1025 1.376 . S
C1029 C1028 1.392 . S
C1029 H1041 0.929 . S
C1030 C1026 1.531 . S
C1030 H1042 0.960 . S
C1030 H1043 0.962 . S
C1030 H1044 0.960 . S
C1031 C1028 1.511 . S
C1031 H1045 0.961 . S
C1031 H1046 0.961 . S
C1031 H1047 0.961 . S
C1032 C1033 1.370 . S
C1032 C1034 1.363 . S
C1032 H1048 0.931 . S
C1033 C1032 1.370 . S
C1033 C1037 1.408 . S
C1034 C1032 1.363 . S
C1034 C1035 1.370 . S
C1034 C1038 1.524 . S
C1035 C1027 1.503 . S
C1035 C1034 1.370 . S
C1035 C1036 1.403 . S
C1036 C1035 1.403 . S
C1036 C1037 1.404 . S
C1036 C1039 1.539 . S
C1037 C1033 1.408 . S
C1037 C1036 1.404 . S
C1037 H1049 0.930 . S
C1038 C1034 1.524 . S
C1038 H1050 0.956 . S
C1038 H1051 0.961 . S
C1038 H1052 0.961 . S
C1039 C1036 1.539 . S
C1039 H1053 0.958 . S
C1039 H1054 0.961 . S
C1039 H1055 0.960 . S
H1040 C1024 0.931 . S
H1041 C1029 0.929 . S
H1042 C1030 0.960 . S
H1043 C1030 0.962 . S
H1044 C1030 0.960 . S
H1045 C1031 0.961 . S
H1046 C1031 0.961 . S
H1047 C1031 0.961 . S
H1048 C1032 0.931 . S
H1049 C1037 0.930 . S
H1050 C1038 0.956 . S
H1051 C1038 0.961 . S
H1052 C1038 0.961 . S
H1053 C1039 0.958 . S
H1054 C1039 0.961 . S
H1055 C1039 0.960 . S
C1056 C1057 1.391 . S
C1056 C1058 1.394 . S
C1056 H1072 0.931 . S
C1057 C1056 1.391 . S
C1057 C1061 1.376 . S
C1058 C1056 1.394 . S
C1058 C1059 1.369 . S
C1058 C1062 1.531 . S
C1059 C1058 1.369 . S
C1059 C1060 1.410 . S
C1059 C1067 1.503 . S
C1060 C1059 1.410 . S
C1060 C1061 1.392 . S
C1060 C1063 1.511 . S
C1061 C1057 1.376 . S
C1061 C1060 1.392 . S
C1061 H1073 0.929 . S
C1062 C1058 1.531 . S
C1062 H1074 0.960 . S
C1062 H1075 0.962 . S
C1062 H1076 0.960 . S
C1063 C1060 1.511 . S
C1063 H1077 0.961 . S
C1063 H1078 0.961 . S
C1063 H1079 0.961 . S
C1064 C1065 1.370 . S
C1064 C1066 1.363 . S
C1064 H1080 0.931 . S
C1065 C1064 1.370 . S
C1065 C1069 1.408 . S
C1066 C1064 1.363 . S
C1066 C1067 1.370 . S
C1066 C1070 1.524 . S
C1067 C1059 1.503 . S
C1067 C1066 1.370 . S
C1067 C1068 1.403 . S
C1068 C1067 1.403 . S
C1068 C1069 1.404 . S
C1068 C1071 1.539 . S
C1069 C1065 1.408 . S
C1069 C1068 1.404 . S
C1069 H1081 0.930 . S
C1070 C1066 1.524 . S
C1070 H1082 0.956 . S
C1070 H1083 0.961 . S
C1070 H1084 0.961 . S
C1071 C1068 1.539 . S
C1071 H1085 0.958 . S
C1071 H1086 0.961 . S
C1071 H1087 0.960 . S
H1072 C1056 0.931 . S
H1073 C1061 0.929 . S
H1074 C1062 0.960 . S
H1075 C1062 0.962 . S
H1076 C1062 0.960 . S
H1077 C1063 0.961 . S
H1078 C1063 0.961 . S
H1079 C1063 0.961 . S
H1080 C1064 0.931 . S
H1081 C1069 0.930 . S
H1082 C1070 0.956 . S
H1083 C1070 0.961 . S
H1084 C1070 0.961 . S
H1085 C1071 0.958 . S
H1086 C1071 0.961 . S
H1087 C1071 0.960 . S
C321 C13 2.093 . S
C329 C24 2.096 . S
C353 C53 2.094 . S
C361 C64 2.095 . S
C385 C93 2.099 . S
C393 C104 2.090 . S
C417 C144 2.116 . S
C425 C133 2.107 . S
C449 C173 2.099 . S
C457 C184 2.095 . S
C481 C224 2.081 . S
C489 C213 2.101 . S
C513 C253 2.092 . S
C521 C264 2.093 . S
C545 C293 2.090 . S
C553 C304 2.119 . S
C577 C66 2.290 . S
C585 C17 2.326 . S
C609 C146 2.309 . S
C617 C106 2.340 . S
C641 C177 2.333 . S
C649 C226 2.306 . S
C673 C266 2.346 . S
C681 C306 2.322 . S
C705 C26 1.678 . S
C713 C217 1.670 . S
C737 C186 1.671 . S
C745 C57 1.674 . S
C769 C97 1.696 . S
C777 C297 1.699 . S
C801 C137 1.682 . S
C809 C257 1.705 . S
C833 C2 1.658 . S
C841 C122 1.612 . S
C865 C42 1.481 . S
C873 C82 1.484 . S
C897 C63 1.626 . S
C905 C103 1.593 . S
C929 C143 1.445 . S
C937 C23 1.474 . S
C961 C162 1.635 . S
C969 C282 1.612 . S
C993 C202 1.481 . S
C1001 C242 1.482 . S
C1025 C223 1.582 . S
C1033 C263 1.578 . S
C1057 C303 1.442 . S
C1065 C183 1.475 . S
