# Generated by pormake.
# Topology fne, (5)-cn, num edge types: 1
# Building blocks:
#     Node 0, Type 0, BuildingBlock: BEQFEK_clean_sbu_0, # of connection points: 5
#     Node 1, Type 0, BuildingBlock: BEQFEK_clean_sbu_0, # of connection points: 5
#     Node 2, Type 0, BuildingBlock: BEQFEK_clean_sbu_0, # of connection points: 5
#     Node 3, Type 0, BuildingBlock: BEQFEK_clean_sbu_0, # of connection points: 5
#     Node 4, Type 0, BuildingBlock: BEQFEK_clean_sbu_0, # of connection points: 5
#     Node 5, Type 0, BuildingBlock: BEQFEK_clean_sbu_0, # of connection points: 5
#     Edge 6, Type (0, 0), BuildingBlock: FUNLAD_clean_linker_0, # of connection points: 2
#     Edge 7, Type (0, 0), BuildingBlock: FUNLAD_clean_linker_0, # of connection points: 2
#     Edge 8, Type (0, 0), BuildingBlock: FUNLAD_clean_linker_0, # of connection points: 2
#     Edge 9, Type (0, 0), BuildingBlock: FUNLAD_clean_linker_0, # of connection points: 2
#     Edge 10, Type (0, 0), BuildingBlock: FUNLAD_clean_linker_0, # of connection points: 2
#     Edge 11, Type (0, 0), BuildingBlock: FUNLAD_clean_linker_0, # of connection points: 2
#     Edge 12, Type (0, 0), BuildingBlock: FUNLAD_clean_linker_0, # of connection points: 2
#     Edge 13, Type (0, 0), BuildingBlock: FUNLAD_clean_linker_0, # of connection points: 2
#     Edge 14, Type (0, 0), BuildingBlock: FUNLAD_clean_linker_0, # of connection points: 2
#     Edge 15, Type (0, 0), BuildingBlock: FUNLAD_clean_linker_0, # of connection points: 2
#     Edge 16, Type (0, 0), BuildingBlock: FUNLAD_clean_linker_0, # of connection points: 2
#     Edge 17, Type (0, 0), BuildingBlock: FUNLAD_clean_linker_0, # of connection points: 2
#     Edge 18, Type (0, 0), BuildingBlock: FUNLAD_clean_linker_0, # of connection points: 2
#     Edge 19, Type (0, 0), BuildingBlock: FUNLAD_clean_linker_0, # of connection points: 2
#     Edge 20, Type (0, 0), BuildingBlock: FUNLAD_clean_linker_0, # of connection points: 2
# Relax obj value: 0.208
# Max RMSD: 0.176
# Mean RMSD: 0.176
data_MOF--net-fne--node1-BEQFEK_clean_sbu_0--edge1-FUNLAD_clean_linker_0
_symmetry_space_group_name_H-M    P1
_symmetry_Int_Tables_number       1
_symmetry_cell_setting            triclinic
loop_
_symmetry_equiv_pos_as_xyz
'x, y, z'
_cell_length_a     50.992452
_cell_length_b     51.005071
_cell_length_c     21.037136
_cell_angle_alpha  89.97547
_cell_angle_beta   90.012458
_cell_angle_gamma 120.00183
loop_
_atom_site_label
_atom_site_type_symbol
_atom_site_fract_x
_atom_site_fract_y
_atom_site_fract_z
_atom_type_partial_charge
Co0 Co 0.54632 0.28139 0.93995 0.0
Co1 Co 0.52795 0.25507 0.07713 0.0
C2 C 0.58348 0.26163 0.01141 0.0
O3 O 0.57938 0.27339 0.96179 0.0
O4 O 0.56528 0.25374 0.05819 0.0
C5 C 0.57857 0.3103 0.82497 0.0
O6 O 0.60123 0.30894 0.85123 0.0
C7 C 0.54055 0.25992 0.2115 0.0
C8 C 0.49577 0.22992 0.25454 0.0
C9 C 0.52581 0.25009 0.2693 0.0
N10 N 0.52022 0.24632 0.16489 0.0
N11 N 0.49355 0.22803 0.1907 0.0
C12 C 0.57258 0.28436 0.20008 0.0
H13 H 0.57498 0.29434 0.15209 0.0
H14 H 0.57991 0.30239 0.23658 0.0
H15 H 0.58761 0.27448 0.20291 0.0
C16 C 0.54367 0.33262 -0.00025 0.0
N17 N 0.54154 0.30523 0.00232 0.0
N18 N 0.5327 0.29374 0.05952 0.0
C19 C 0.52838 0.31327 0.09494 0.0
C20 C 0.53551 0.33866 0.05852 0.0
C21 C 0.55374 0.35255 0.94225 0.0
H22 H 0.53535 0.34309 0.90631 0.0
H23 H 0.57383 0.35289 0.92109 0.0
H24 H 0.55944 0.37601 0.95405 0.0
O25 O 0.5083 0.24207 0.92983 0.0
O26 O 0.49432 0.22338 0.02715 0.0
H27 H 0.49722 0.2824 0.16394 0.0
H28 H 0.50433 0.32055 0.17142 0.0
C29 C 0.51481 0.30658 0.1602 0.0
H30 H 0.53278 0.31161 0.19572 0.0
H31 H 0.47367 0.21519 0.1648 0.0
O32 O 0.55409 0.30101 0.85587 0.0
C33 C 0.48997 0.22138 0.96732 0.0
Co34 Co 0.49395 0.59022 0.30179 0.0
Co35 Co 0.49405 0.56507 0.43687 0.0
C36 C 0.54576 0.6243 0.38786 0.0
O37 O 0.53269 0.62278 0.33541 0.0
O38 O 0.53325 0.60352 0.42941 0.0
C39 C 0.50597 0.62447 0.18644 0.0
O40 O 0.53101 0.64408 0.21537 0.0
C41 C 0.48973 0.57202 0.57134 0.0
C42 C 0.48605 0.5305 0.61274 0.0
C43 C 0.48667 0.55721 0.62815 0.0
N44 N 0.49036 0.55471 0.52409 0.0
N45 N 0.48824 0.52991 0.54892 0.0
C46 C 0.49387 0.603 0.5622 0.0
H47 H 0.49853 0.61006 0.51172 0.0
H48 H 0.47316 0.60324 0.57722 0.0
H49 H 0.51279 0.61946 0.59248 0.0
C50 C 0.43614 0.58354 0.34951 0.0
N51 N 0.46145 0.58175 0.35672 0.0
N52 N 0.46058 0.5693 0.41199 0.0
C53 C 0.43413 0.56171 0.44078 0.0
C54 C 0.41805 0.57102 0.40285 0.0
C55 C 0.42983 0.59732 0.29299 0.0
H56 H 0.4211 0.58053 0.25378 0.0
H57 H 0.45108 0.61737 0.27656 0.0
H58 H 0.4128 0.60412 0.30423 0.0
O59 O 0.49739 0.55336 0.28927 0.0
O60 O 0.49589 0.53401 0.38473 0.0
H61 H 0.4323 0.5273 0.50306 0.0
H62 H 0.39747 0.5282 0.49775 0.0
C63 C 0.42253 0.54235 0.49912 0.0
H64 H 0.4287 0.55694 0.54184 0.0
H65 H 0.48833 0.51266 0.5224 0.0
O66 O 0.48664 0.60101 0.21614 0.0
C67 C 0.49771 0.53316 0.32446 0.0
Co68 Co 0.1188 0.52674 0.60727 0.0
Co69 Co 0.14416 0.53185 0.74445 0.0
C70 C 0.14001 0.58292 0.68197 0.0
O71 O 0.12798 0.56769 0.63188 0.0
O72 O 0.14723 0.57162 0.72802 0.0
C73 C 0.09023 0.53357 0.49622 0.0
O74 O 0.08963 0.55514 0.52912 0.0
C75 C 0.13352 0.5325 0.87859 0.0
C76 C 0.16997 0.52751 0.92335 0.0
C77 C 0.14459 0.52984 0.93662 0.0
N78 N 0.15114 0.5313 0.83272 0.0
N79 N 0.1731 0.52858 0.85959 0.0
C80 C 0.1072 0.53722 0.86683 0.0
H81 H 0.08585 0.51698 0.88195 0.0
H82 H 0.10984 0.55663 0.89563 0.0
H83 H 0.10544 0.54149 0.81575 0.0
C84 C 0.06628 0.47254 0.66364 0.0
N85 N 0.09387 0.49749 0.66756 0.0
N86 N 0.1055 0.4985 0.72392 0.0
C87 C 0.0862 0.47353 0.75677 0.0
C88 C 0.06044 0.45663 0.72036 0.0
C89 C 0.04617 0.46435 0.60662 0.0
H90 H 0.05419 0.45433 0.57001 0.0
H91 H 0.04744 0.48501 0.58622 0.0
H92 H 0.02232 0.44781 0.61886 0.0
O93 O 0.15774 0.52687 0.59754 0.0
O94 O 0.17576 0.5297 0.69505 0.0
H95 H 0.11879 0.4729 0.82106 0.0
H96 H 0.08275 0.43835 0.81913 0.0
C97 C 0.09401 0.46342 0.81723 0.0
H98 H 0.08593 0.47094 0.85841 0.0
H99 H 0.1899 0.52698 0.83444 0.0
O100 O 0.10008 0.51766 0.52213 0.0
C101 C 0.17798 0.52809 0.63504 0.0
Co102 Co 0.81113 0.16177 0.95866 0.0
Co103 Co 0.83257 0.18887 0.09461 0.0
C104 C 0.77494 0.1807 0.03541 0.0
O105 O 0.77799 0.16884 0.98486 0.0
O106 O 0.79442 0.18927 0.07981 0.0
C107 C 0.77847 0.13625 0.84285 0.0
O108 O 0.75793 0.14118 0.8689 0.0
C109 C 0.82257 0.18123 0.23003 0.0
C110 C 0.86379 0.21973 0.27075 0.0
C111 C 0.83636 0.1946 0.2869 0.0
N112 N 0.84112 0.19738 0.18233 0.0
N113 N 0.86575 0.22042 0.20679 0.0
C114 C 0.79133 0.15479 0.22073 0.0
H115 H 0.78475 0.15195 0.16993 0.0
H116 H 0.79041 0.13372 0.23717 0.0
H117 H 0.77486 0.15795 0.24944 0.0
C118 C 0.81635 0.11145 0.01599 0.0
N119 N 0.81798 0.1386 0.01935 0.0
N120 N 0.82862 0.15072 0.07536 0.0
C121 C 0.83497 0.13205 0.10881 0.0
C122 C 0.82693 0.10636 0.0728 0.0
C123 C 0.80459 0.09089 0.95962 0.0
H124 H 0.82231 0.09938 0.92223 0.0
H125 H 0.78448 0.09105 0.93996 0.0
H126 H 0.79843 0.06738 0.9723 0.0
O127 O 0.84844 0.20161 0.94638 0.0
O128 O 0.86477 0.22096 0.0425 0.0
H129 H 0.86725 0.1649 0.17393 0.0
H130 H 0.86556 0.12872 0.17493 0.0
C131 C 0.85192 0.1401 0.17051 0.0
H132 H 0.83565 0.13244 0.21056 0.0
H133 H 0.88375 0.23668 0.17987 0.0
O134 O 0.80205 0.14207 0.87431 0.0
C135 C 0.8675 0.22269 0.98222 0.0
Co136 Co 0.87187 0.8542 0.29945 0.0
Co137 Co 0.86607 0.87403 0.43651 0.0
C138 C 0.81752 0.81605 0.37717 0.0
O139 O 0.83266 0.82003 0.32657 0.0
O140 O 0.82793 0.83522 0.42221 0.0
C141 C 0.86691 0.81962 0.18783 0.0
O142 O 0.846 0.79667 0.22029 0.0
C143 C 0.86557 0.86366 0.57096 0.0
C144 C 0.87039 0.90528 0.61433 0.0
C145 C 0.86817 0.87772 0.62851 0.0
N146 N 0.86661 0.88213 0.52446 0.0
N147 N 0.86918 0.9069 0.55049 0.0
C148 C 0.86139 0.83278 0.5601 0.0
H149 H 0.83871 0.81554 0.57772 0.0
H150 H 0.86321 0.82888 0.50883 0.0
H151 H 0.87846 0.82992 0.58711 0.0
C152 C 0.92998 0.86381 0.35117 0.0
N153 N 0.90305 0.86243 0.35784 0.0
N154 N 0.90145 0.87231 0.41465 0.0
C155 C 0.9278 0.88122 0.44535 0.0
C156 C 0.94659 0.8759 0.40633 0.0
C157 C 0.94034 0.85616 0.29106 0.0
H158 H 0.94154 0.8717 0.25277 0.0
H159 H 0.92348 0.83278 0.27638 0.0
H160 H 0.96289 0.85813 0.2967 0.0
O161 O 0.86745 0.8905 0.28904 0.0
O162 O 0.86459 0.90593 0.38626 0.0
H163 H 0.92591 0.91063 0.51603 0.0
H164 H 0.95975 0.90788 0.51965 0.0
C165 C 0.9351 0.89516 0.51029 0.0
H166 H 0.92472 0.87697 0.54635 0.0
H167 H 0.87067 0.92509 0.5247 0.0
O168 O 0.88157 0.84543 0.21415 0.0
C169 C 0.86498 0.90893 0.32607 0.0
Co170 Co 0.24533 0.90834 0.61056 0.0
Co171 Co 0.21483 0.90603 0.74047 0.0
C172 C 0.22553 0.85572 0.69417 0.0
O173 O 0.23958 0.86983 0.64431 0.0
O174 O 0.21476 0.86714 0.73268 0.0
C175 C 0.25788 0.89451 0.49039 0.0
O176 O 0.23931 0.86714 0.51183 0.0
C177 C 0.2201 0.90652 0.87696 0.0
C178 C 0.18068 0.90949 0.91097 0.0
C179 C 0.2056 0.90773 0.93156 0.0
N180 N 0.20479 0.90797 0.82646 0.0
N181 N 0.18126 0.90981 0.8469 0.0
C182 C 0.24686 0.90192 0.87241 0.0
H183 H 0.24436 0.88415 0.90638 0.0
H184 H 0.2496 0.89566 0.8235 0.0
H185 H 0.2678 0.9232 0.88484 0.0
C186 C 0.29391 0.96591 0.66561 0.0
N187 N 0.26678 0.94033 0.66845 0.0
N188 N 0.25315 0.94005 0.7217 0.0
C189 C 0.2707 0.96597 0.75349 0.0
C190 C 0.29734 0.98296 0.71969 0.0
C191 C 0.31611 0.97336 0.61265 0.0
H192 H 0.31513 0.9524 0.59497 0.0
H193 H 0.3395 0.98966 0.62838 0.0
H194 H 0.30995 0.98354 0.57286 0.0
O195 O 0.20495 0.90364 0.5915 0.0
O196 O 0.18382 0.90486 0.68294 0.0
H197 H 0.27177 0.00118 0.81227 0.0
H198 H 0.26716 0.96856 0.85446 0.0
C199 C 0.2607 0.97612 0.81079 0.0
H200 H 0.23582 0.96645 0.81022 0.0
H201 H 0.16542 0.91088 0.81718 0.0
O202 O 0.26578 0.91692 0.52734 0.0
C203 C 0.1832 0.90304 0.62253 0.0
C204 C 0.61383 0.24267 0.06834 0.0
C205 C 0.6086 0.25501 0.01333 0.0
C206 C 0.63568 0.23381 0.06868 0.0
C207 C 0.6529 0.23709 0.01376 0.0
C208 C 0.64825 0.25033 0.95948 0.0
C209 C 0.6264 0.2592 0.95918 0.0
C210 C 0.67541 0.22663 0.0099 0.0
C211 C 0.68151 0.21269 0.05732 0.0
C212 C 0.70423 0.20282 0.05097 0.0
C213 C 0.72037 0.20287 0.105 0.0
C214 C 0.74289 0.19502 0.10025 0.0
C215 C 0.74936 0.18644 0.04142 0.0
H216 H 0.69708 0.19175 0.95038 0.0
C217 C 0.73221 0.185 0.98787 0.0
C218 C 0.70988 0.19314 0.99254 0.0
H219 H 0.73649 0.17828 0.94196 0.0
H220 H 0.60065 0.2393 0.11106 0.0
H221 H 0.63839 0.22411 0.11205 0.0
H222 H 0.66121 0.25335 0.91655 0.0
H223 H 0.62299 0.26867 0.91596 0.0
H224 H 0.68775 0.23089 0.96546 0.0
H225 H 0.6709 0.20946 0.10342 0.0
H226 H 0.71611 0.20979 0.15073 0.0
H227 H 0.75549 0.19605 0.14257 0.0
C228 C 0.76732 0.78785 0.43225 0.0
C229 C 0.78616 0.79026 0.38111 0.0
C230 C 0.73664 0.76579 0.43204 0.0
C231 C 0.72419 0.74543 0.38084 0.0
C232 C 0.7433 0.74722 0.33095 0.0
C233 C 0.77392 0.7693 0.33106 0.0
C234 C 0.69126 0.7234 0.37519 0.0
C235 C 0.67141 0.71492 0.42369 0.0
C236 C 0.63864 0.69321 0.41502 0.0
C237 C 0.62206 0.67397 0.46531 0.0
C238 C 0.59159 0.65213 0.45723 0.0
C239 C 0.577 0.6494 0.39881 0.0
H240 H 0.63547 0.70674 0.31863 0.0
C241 C 0.59322 0.66976 0.34959 0.0
C242 C 0.62369 0.69145 0.3576 0.0
H243 H 0.58262 0.66852 0.30421 0.0
H244 H 0.77598 0.80372 0.47146 0.0
H245 H 0.72275 0.76572 0.47092 0.0
H246 H 0.73438 0.73187 0.29088 0.0
H247 H 0.78775 0.77046 0.29091 0.0
H248 H 0.68316 0.71321 0.32874 0.0
H249 H 0.67931 0.72253 0.47169 0.0
H250 H 0.63294 0.67522 0.51036 0.0
H251 H 0.57968 0.637 0.49637 0.0
C252 C 0.16436 0.63339 0.73635 0.0
C253 C 0.14799 0.61506 0.68457 0.0
C254 C 0.1746 0.66444 0.7358 0.0
C255 C 0.16842 0.67777 0.68358 0.0
C256 C 0.15144 0.65928 0.63266 0.0
C257 C 0.14126 0.6283 0.63315 0.0
C258 C 0.18055 0.71091 0.67846 0.0
C259 C 0.19038 0.73007 0.72824 0.0
C260 C 0.20181 0.76295 0.72065 0.0
C261 C 0.19707 0.77876 0.76964 0.0
C262 C 0.20565 0.80922 0.76194 0.0
C263 C 0.21953 0.82456 0.7053 0.0
H264 H 0.22213 0.76746 0.62757 0.0
C265 C 0.22581 0.80915 0.65772 0.0
C266 C 0.21707 0.77867 0.66531 0.0
H267 H 0.23676 0.82037 0.61379 0.0
H268 H 0.1701 0.62397 0.77658 0.0
H269 H 0.18818 0.67787 0.77541 0.0
H270 H 0.14639 0.66893 0.59176 0.0
H271 H 0.12873 0.61489 0.59242 0.0
H272 H 0.18032 0.71969 0.63151 0.0
H273 H 0.18809 0.72143 0.77626 0.0
H274 H 0.1858 0.76726 0.81314 0.0
H275 H 0.20078 0.82053 0.79984 0.0
C276 C 0.52084 0.26722 0.37709 0.0
C277 C 0.53805 0.26147 0.33323 0.0
C278 C 0.53254 0.27894 0.43702 0.0
C279 C 0.56172 0.28497 0.45432 0.0
C280 C 0.57857 0.27844 0.41096 0.0
C281 C 0.56693 0.26695 0.35077 0.0
C282 C 0.57402 0.29565 0.51892 0.0
C283 C 0.56614 0.31246 0.55487 0.0
C284 C 0.57319 0.31762 0.62363 0.0
C285 C 0.55246 0.31999 0.66358 0.0
C286 C 0.55527 0.31953 0.72946 0.0
C287 C 0.57912 0.31706 0.7566 0.0
H288 H 0.61566 0.3173 0.62125 0.0
C289 C 0.60148 0.31759 0.71671 0.0
C290 C 0.59854 0.31785 0.6507 0.0
H291 H 0.62038 0.31617 0.73624 0.0
H292 H 0.4984 0.26295 0.36481 0.0
H293 H 0.51835 0.28249 0.47004 0.0
H294 H 0.60079 0.28224 0.4237 0.0
H295 H 0.58034 0.26195 0.3184 0.0
H296 H 0.58891 0.2881 0.53799 0.0
H297 H 0.55133 0.32 0.53522 0.0
H298 H 0.533 0.32034 0.64388 0.0
H299 H 0.53793 0.31965 0.75901 0.0
C300 C 0.50414 0.56883 0.74022 0.0
C301 C 0.4846 0.56759 0.69207 0.0
C302 C 0.50288 0.57965 0.8004 0.0
C303 C 0.48172 0.58902 0.81346 0.0
C304 C 0.46155 0.58681 0.7657 0.0
C305 C 0.46315 0.57644 0.70522 0.0
C306 C 0.47912 0.59925 0.8777 0.0
C307 C 0.50339 0.61491 0.91532 0.0
C308 C 0.50134 0.62097 0.9835 0.0
C309 C 0.52728 0.64356 0.01414 0.0
C310 C 0.52807 0.6463 0.08025 0.0
C311 C 0.503 0.62615 0.11697 0.0
H312 H 0.4552 0.58419 -0.00147 0.0
C313 C 0.47633 0.60488 0.08608 0.0
C314 C 0.47549 0.60224 0.02002 0.0
H315 H 0.45658 0.58912 0.1131 0.0
H316 H 0.52063 0.56181 0.73104 0.0
H317 H 0.51805 0.58008 0.83694 0.0
H318 H 0.44466 0.59329 0.7751 0.0
H319 H 0.44729 0.57484 0.66909 0.0
H320 H 0.45673 0.59378 0.89389 0.0
H321 H 0.52588 0.62279 0.89594 0.0
H322 H 0.54749 0.65825 0.98711 0.0
H323 H 0.54895 0.66299 0.1026 0.0
C324 C 0.1482 0.54617 0.0492 0.0
C325 C 0.13092 0.52714 -0.00057 0.0
C326 C 0.13523 0.54331 0.10908 0.0
C327 C 0.10488 0.521 0.12017 0.0
C328 C 0.08786 0.50162 0.07053 0.0
C329 C 0.10068 0.50485 0.01039 0.0
C330 C 0.09145 0.51602 0.1844 0.0
C331 C 0.09866 0.53893 0.2251 0.0
C332 C 0.09017 0.53432 0.29319 0.0
C333 C 0.09 0.55788 0.32719 0.0
C334 C 0.08754 0.55659 0.39338 0.0
C335 C 0.0858 0.5319 0.42675 0.0
H336 H 0.08682 0.49024 0.30204 0.0
C337 C 0.08407 0.50746 0.3925 0.0
C338 C 0.08622 0.50862 0.32635 0.0
H339 H 0.08266 0.4881 0.41698 0.0
H340 H 0.17168 0.56325 0.04169 0.0
H341 H 0.14923 0.55796 0.14703 0.0
H342 H 0.06465 0.48391 0.07836 0.0
H343 H 0.08721 0.48939 0.97298 0.0
H344 H 0.07541 0.49291 0.19832 0.0
H345 H 0.11231 0.56213 0.20849 0.0
H346 H 0.0931 0.57795 0.30274 0.0
H347 H 0.08897 0.5758 0.41847 0.0
C348 C 0.75764 0.13421 0.73441 0.0
C349 C 0.77733 0.12992 0.77415 0.0
C350 C 0.76067 0.13426 0.66847 0.0
C351 C 0.78329 0.12978 0.64124 0.0
C352 C 0.80106 0.12273 0.6807 0.0
C353 C 0.79831 0.12306 0.7467 0.0
C354 C 0.79034 0.13461 0.57257 0.0
C355 C 0.79005 0.15742 0.54095 0.0
C356 C 0.80157 0.16619 0.47525 0.0
C357 C 0.80054 0.14508 0.43089 0.0
C358 C 0.812 0.15437 0.36965 0.0
C359 C 0.82449 0.1848 0.3516 0.0
H360 H 0.81496 0.21327 0.49021 0.0
C361 C 0.82565 0.2059 0.39581 0.0
C362 C 0.81396 0.19659 0.4569 0.0
H363 H 0.83521 0.2295 0.38282 0.0
H364 H 0.74101 0.13923 0.75409 0.0
H365 H 0.746 0.13881 0.63894 0.0
H366 H 0.81836 0.11878 0.66062 0.0
H367 H 0.81353 0.11926 0.77618 0.0
H368 H 0.7996 0.12181 0.55019 0.0
H369 H 0.78382 0.17212 0.56613 0.0
H370 H 0.79071 0.12138 0.44304 0.0
H371 H 0.81156 0.13781 0.33687 0.0
C372 C 0.85128 0.86319 0.74029 0.0
C373 C 0.87168 0.86747 0.69146 0.0
C374 C 0.85483 0.85359 0.80023 0.0
C375 C 0.87916 0.84858 0.81223 0.0
C376 C 0.89985 0.85349 0.76347 0.0
C377 C 0.89599 0.86261 0.70332 0.0
C378 C 0.88472 0.84067 0.87653 0.0
C379 C 0.86205 0.82336 0.91663 0.0
C380 C 0.86687 0.81972 0.98477 0.0
C381 C 0.84413 0.79498 0.01824 0.0
C382 C 0.84533 0.79365 0.08443 0.0
C383 C 0.86905 0.81739 0.11833 0.0
H384 H 0.90942 0.86213 -0.00533 0.0
C385 C 0.89278 0.84119 0.0846 0.0
C386 C 0.89172 0.84239 0.01847 0.0
H387 H 0.9114 0.85977 0.10948 0.0
H388 H 0.83261 0.86721 0.73201 0.0
H389 H 0.83906 0.85097 0.8375 0.0
H390 H 0.91905 0.85033 0.77198 0.0
H391 H 0.91236 0.86648 0.66644 0.0
H392 H 0.9081 0.84948 0.89098 0.0
H393 H 0.83883 0.81219 0.89949 0.0
H394 H 0.82473 0.77729 -0.00662 0.0
H395 H 0.82668 0.77502 0.10911 0.0
C396 C 0.25243 0.87445 0.38019 0.0
C397 C 0.26408 0.89939 0.42156 0.0
C398 C 0.25266 0.87868 0.31467 0.0
C399 C 0.26446 0.90794 0.28933 0.0
C400 C 0.27864 0.93298 0.33011 0.0
C401 C 0.27834 0.92878 0.39582 0.0
C402 C 0.2605 0.91278 0.2214 0.0
C403 C 0.23512 0.89358 0.18954 0.0
C404 C 0.22837 0.89869 0.12361 0.0
C405 C 0.25116 0.91759 0.08058 0.0
C406 C 0.24369 0.92107 0.01851 0.0
C407 C 0.21345 0.90547 -0.00199 0.0
H408 H 0.18007 0.86883 0.13534 0.0
C409 C 0.19065 0.88708 0.04114 0.0
C410 C 0.19808 0.88353 0.10319 0.0
H411 H 0.16714 0.87485 0.02646 0.0
H412 H 0.24181 0.85154 0.39845 0.0
H413 H 0.24269 0.85895 0.28413 0.0
H414 H 0.28836 0.95578 0.31148 0.0
H415 H 0.28784 0.94848 0.42645 0.0
H416 H 0.27715 0.93399 0.19988 0.0
H417 H 0.21736 0.87403 0.21426 0.0
H418 H 0.2748 0.92932 0.09397 0.0
H419 H 0.26164 0.93614 0.98681 0.0
C420 C 0.54704 0.38006 0.13545 0.0
C421 C 0.53347 0.36531 0.07841 0.0
C422 C 0.54281 0.40338 0.15815 0.0
C423 C 0.5246 0.41215 0.12439 0.0
C424 C 0.5122 0.39826 0.06579 0.0
C425 C 0.5165 0.37491 0.04305 0.0
C426 C 0.5182 0.43568 0.14894 0.0
C427 C 0.51804 0.4413 0.21154 0.0
C428 C 0.51157 0.46448 0.23817 0.0
C429 C 0.50523 0.46343 0.30341 0.0
C430 C 0.50023 0.48539 0.33133 0.0
C431 C 0.50149 0.50899 0.29456 0.0
H432 H 0.51832 0.49037 0.15128 0.0
C433 C 0.50757 0.50994 0.22914 0.0
C434 C 0.51273 0.48807 0.20127 0.0
H435 H 0.50899 0.52797 0.19947 0.0
H436 H 0.56064 0.37328 0.16291 0.0
H437 H 0.55386 0.41439 0.20207 0.0
H438 H 0.49843 0.40486 0.03845 0.0
H439 H 0.50574 0.36371 -0.00102 0.0
H440 H 0.51175 0.44723 0.11442 0.0
H441 H 0.52183 0.42755 0.24565 0.0
H442 H 0.50434 0.44565 0.33312 0.0
H443 H 0.49564 0.48398 0.38187 0.0
C444 C 0.38368 0.57649 0.47839 0.0
C445 C 0.38843 0.56809 0.4179 0.0
C446 C 0.35512 0.5712 0.49608 0.0
C447 C 0.33062 0.55721 0.4536 0.0
C448 C 0.33572 0.55022 0.39189 0.0
C449 C 0.36443 0.55545 0.37422 0.0
C450 C 0.29973 0.55005 0.47271 0.0
C451 C 0.28967 0.54216 0.53285 0.0
C452 C 0.25988 0.53665 0.55669 0.0
C453 C 0.25541 0.5354 0.62275 0.0
C454 C 0.22857 0.53189 0.64819 0.0
C455 C 0.20541 0.52938 0.60805 0.0
H456 H 0.23824 0.53305 0.46525 0.0
C457 C 0.20937 0.52954 0.54186 0.0
C458 C 0.23627 0.53308 0.51637 0.0
H459 H 0.19187 0.5274 0.50953 0.0
H460 H 0.40208 0.58693 0.51234 0.0
H461 H 0.35236 0.57815 0.54304 0.0
H462 H 0.31729 0.53985 0.35803 0.0
H463 H 0.36759 0.54872 0.32732 0.0
H464 H 0.2853 0.55103 0.43609 0.0
H465 H 0.30448 0.54038 0.5676 0.0
H466 H 0.27305 0.53782 0.65505 0.0
H467 H 0.22626 0.53171 0.6994 0.0
C468 C 0.89595 0.25254 0.88633 0.0
C469 C 0.89244 0.25029 0.95277 0.0
C470 C 0.9183 0.27921 0.8581 0.0
C471 C 0.9376 0.30438 0.89578 0.0
C472 C 0.93457 0.30177 0.96222 0.0
C473 C 0.91226 0.2751 0.99044 0.0
C474 C 0.96111 0.33378 0.86861 0.0
C475 C 0.96311 0.34159 0.80677 0.0
C476 C 0.98665 0.3717 0.7832 0.0
C477 C -0.00164 0.3744 0.72157 0.0
C478 C 0.0218 0.40227 0.69981 0.0
C479 C 0.03355 0.42786 0.73922 0.0
H480 H 0.98815 0.39682 0.86792 0.0
C481 C 0.02079 0.4255 0.79947 0.0
C482 C -0.00248 0.39775 0.82126 0.0
H483 H 0.0291 0.44512 0.83014 0.0
H484 H 0.88123 0.23375 0.85586 0.0
H485 H 0.92017 0.27969 0.80692 0.0
H486 H 0.94923 0.32065 0.99258 0.0
H487 H 0.91028 0.27415 0.04177 0.0
H488 H 0.97744 0.35001 0.90191 0.0
H489 H 0.94789 0.32567 0.77178 0.0
H490 H 0.99005 0.35473 0.69105 0.0
H491 H 0.03143 0.40356 0.65325 0.0
C492 C 0.81816 0.06631 0.15111 0.0
C493 C 0.82957 0.07997 0.092 0.0
C494 C 0.82258 0.04293 0.1725 0.0
C495 C 0.83896 0.03304 0.13543 0.0
C496 C 0.84933 0.04599 0.07511 0.0
C497 C 0.84475 0.06935 0.05359 0.0
C498 C 0.84525 0.00911 0.15792 0.0
C499 C 0.84663 0.00342 0.22012 0.0
C500 C 0.85248 0.97948 0.24498 0.0
C501 C 0.8572 0.97874 0.31063 0.0
C502 C 0.86162 0.95611 0.337 0.0
C503 C 0.8615 0.93366 0.29819 0.0
H504 H 0.84834 0.95606 0.15557 0.0
C505 C 0.8571 0.9345 0.23242 0.0
C506 C 0.85246 0.957 0.20609 0.0
H507 H 0.85664 0.91741 0.20115 0.0
H508 H 0.8059 0.07385 0.18096 0.0
H509 H 0.81298 0.03268 0.21792 0.0
H510 H 0.86164 0.03853 0.04523 0.0
H511 H 0.85384 0.0797 0.00787 0.0
H512 H 0.8502 0.99706 0.12182 0.0
H513 H 0.84401 0.01747 0.25538 0.0
H514 H 0.85724 0.99563 0.34191 0.0
H515 H 0.86496 0.95615 0.38786 0.0
C516 C 0.13519 0.9051 0.61717 0.0
C517 C 0.15642 0.89929 0.58743 0.0
C518 C 0.10959 0.90091 0.58418 0.0
C519 C 0.10463 0.89061 0.52088 0.0
C520 C 0.12564 0.8845 0.49143 0.0
C521 C 0.15146 0.88911 0.52407 0.0
C522 C 0.077 0.88468 0.48581 0.0
C523 C 0.06371 0.90148 0.49453 0.0
C524 C 0.03486 0.89478 0.46372 0.0
C525 C 0.02852 0.91838 0.45615 0.0
C526 C 0.00026 0.91244 0.43404 0.0
C527 C 0.97767 0.88269 0.42036 0.0
H528 H 0.01642 0.84623 0.45345 0.0
C529 C 0.98421 0.85916 0.42535 0.0
C530 C 0.0126 0.8651 0.44698 0.0
H531 H 0.96694 0.83603 0.41523 0.0
H532 H 0.13828 0.91282 0.66601 0.0
H533 H 0.09337 0.90504 0.60886 0.0
H534 H 0.12213 0.87626 0.44294 0.0
H535 H 0.16727 0.88417 0.49994 0.0
H536 H 0.06806 0.86669 0.45064 0.0
H537 H 0.07458 0.92131 0.52502 0.0
H538 H 0.04524 0.9414 0.4687 0.0
H539 H 0.99566 0.93093 0.42976 0.0
C540 C 0.33419 0.01629 0.80131 0.0
C541 C 0.32326 0.01239 0.73885 0.0
C542 C 0.35691 0.04455 0.82211 0.0
C543 C 0.36908 0.06958 0.78078 0.0
C544 C 0.35909 0.06534 0.7174 0.0
C545 C 0.3362 0.03697 0.69662 0.0
C546 C 0.3925 0.10012 0.80245 0.0
C547 C 0.39365 0.10956 0.86279 0.0
C548 C 0.41757 0.13921 0.88783 0.0
C549 C 0.42169 0.14267 0.95393 0.0
C550 C 0.44472 0.16957 0.97993 0.0
C551 C 0.46409 0.19375 0.94029 0.0
H552 H 0.4333 0.16263 0.79722 0.0
C553 C 0.4593 0.19073 0.87421 0.0
C554 C 0.43626 0.16382 0.84821 0.0
H555 H 0.4736 0.20904 0.8423 0.0
H556 H 0.32503 0.99745 0.83429 0.0
H557 H 0.36497 0.04661 0.87046 0.0
H558 H 0.36843 0.08419 0.68442 0.0
H559 H 0.32802 0.03448 0.64823 0.0
H560 H 0.40875 0.11492 0.76737 0.0
H561 H 0.37667 0.09447 0.89656 0.0
H562 H 0.40745 0.12424 0.98567 0.0
H563 H 0.44764 0.17114 0.03106 0.0
loop_
_geom_bond_atom_site_label_1
_geom_bond_atom_site_label_2
_geom_bond_distance
_geom_bond_site_symmetry_2
_ccdc_geom_bond_type
Co0 O3 1.970 . S
Co0 N17 1.989 1_556 S
Co0 O25 1.967 . S
Co0 O32 1.920 . S
Co1 O4 1.966 . S
Co1 N10 2.022 . S
Co1 N18 1.993 . S
Co1 O26 1.941 . S
C2 O3 1.258 1_554 S
C2 O4 1.263 . S
O3 Co0 1.970 . S
O3 C2 1.258 1_556 S
O4 Co1 1.966 . S
O4 C2 1.263 . S
C5 O6 1.235 . S
C5 O32 1.289 . S
O6 C5 1.235 . S
C7 C9 1.400 . S
C7 N10 1.351 . S
C7 C12 1.501 . S
C8 C9 1.387 . S
C8 N11 1.341 . S
C9 C7 1.400 . S
C9 C8 1.387 . S
N10 Co1 2.022 . S
N10 C7 1.351 . S
N10 N11 1.365 . S
N11 C8 1.341 . S
N11 N10 1.365 . S
N11 H31 0.862 . S
C12 C7 1.501 . S
C12 H13 0.961 . S
C12 H14 0.961 . S
C12 H15 0.960 . S
H13 C12 0.961 . S
H14 C12 0.961 . S
H15 C12 0.960 . S
C16 N17 1.342 . S
C16 C20 1.403 . S
C16 C21 1.498 1_554 S
N17 Co0 1.989 1_554 S
N17 C16 1.342 . S
N17 N18 1.388 . S
N18 Co1 1.993 . S
N18 N17 1.388 . S
N18 C19 1.346 . S
C19 N18 1.346 . S
C19 C20 1.396 . S
C19 C29 1.510 . S
C20 C16 1.403 . S
C20 C19 1.396 . S
C21 C16 1.498 1_556 S
C21 H22 0.959 . S
C21 H23 0.960 . S
C21 H24 0.961 . S
H22 C21 0.959 . S
H23 C21 0.960 . S
H24 C21 0.961 . S
O25 Co0 1.967 . S
O25 C33 1.258 1_556 S
O26 Co1 1.941 . S
O26 C33 1.266 . S
H27 C29 0.959 . S
H28 C29 0.961 . S
C29 C19 1.510 . S
C29 H27 0.959 . S
C29 H28 0.961 . S
C29 H30 0.960 . S
H30 C29 0.960 . S
H31 N11 0.862 . S
O32 Co0 1.920 . S
O32 C5 1.289 . S
C33 O25 1.258 1_554 S
C33 O26 1.266 . S
Co34 O37 1.970 . S
Co34 N51 1.989 . S
Co34 O59 1.967 . S
Co34 O66 1.920 . S
Co35 O38 1.966 . S
Co35 N44 2.022 . S
Co35 N52 1.993 . S
Co35 O60 1.941 . S
C36 O37 1.258 . S
C36 O38 1.263 . S
O37 Co34 1.970 . S
O37 C36 1.258 . S
O38 Co35 1.966 . S
O38 C36 1.263 . S
C39 O40 1.235 . S
C39 O66 1.289 . S
O40 C39 1.235 . S
C41 C43 1.400 . S
C41 N44 1.351 . S
C41 C46 1.501 . S
C42 C43 1.387 . S
C42 N45 1.341 . S
C43 C41 1.400 . S
C43 C42 1.387 . S
N44 Co35 2.022 . S
N44 C41 1.351 . S
N44 N45 1.365 . S
N45 C42 1.341 . S
N45 N44 1.365 . S
N45 H65 0.862 . S
C46 C41 1.501 . S
C46 H47 0.961 . S
C46 H48 0.961 . S
C46 H49 0.960 . S
H47 C46 0.961 . S
H48 C46 0.961 . S
H49 C46 0.960 . S
C50 N51 1.342 . S
C50 C54 1.401 . S
C50 C55 1.499 . S
N51 Co34 1.989 . S
N51 C50 1.342 . S
N51 N52 1.388 . S
N52 Co35 1.993 . S
N52 N51 1.388 . S
N52 C53 1.346 . S
C53 N52 1.346 . S
C53 C54 1.396 . S
C53 C63 1.510 . S
C54 C50 1.401 . S
C54 C53 1.396 . S
C55 C50 1.499 . S
C55 H56 0.959 . S
C55 H57 0.960 . S
C55 H58 0.961 . S
H56 C55 0.959 . S
H57 C55 0.960 . S
H58 C55 0.961 . S
O59 Co34 1.967 . S
O59 C67 1.258 . S
O60 Co35 1.941 . S
O60 C67 1.266 . S
H61 C63 0.959 . S
H62 C63 0.961 . S
C63 C53 1.510 . S
C63 H61 0.959 . S
C63 H62 0.961 . S
C63 H64 0.960 . S
H64 C63 0.960 . S
H65 N45 0.862 . S
O66 Co34 1.920 . S
O66 C39 1.289 . S
C67 O59 1.258 . S
C67 O60 1.266 . S
Co68 O71 1.970 . S
Co68 N85 1.989 . S
Co68 O93 1.967 . S
Co68 O100 1.920 . S
Co69 O72 1.966 . S
Co69 N78 2.022 . S
Co69 N86 1.993 . S
Co69 O94 1.941 . S
C70 O71 1.258 . S
C70 O72 1.263 . S
O71 Co68 1.970 . S
O71 C70 1.258 . S
O72 Co69 1.966 . S
O72 C70 1.263 . S
C73 O74 1.235 . S
C73 O100 1.289 . S
O74 C73 1.235 . S
C75 C77 1.400 . S
C75 N78 1.351 . S
C75 C80 1.501 . S
C76 C77 1.387 . S
C76 N79 1.341 . S
C77 C75 1.400 . S
C77 C76 1.387 . S
N78 Co69 2.022 . S
N78 C75 1.351 . S
N78 N79 1.365 . S
N79 C76 1.341 . S
N79 N78 1.365 . S
N79 H99 0.862 . S
C80 C75 1.501 . S
C80 H81 0.961 . S
C80 H82 0.961 . S
C80 H83 0.960 . S
H81 C80 0.961 . S
H82 C80 0.961 . S
H83 C80 0.960 . S
C84 N85 1.342 . S
C84 C88 1.401 . S
C84 C89 1.499 . S
N85 Co68 1.989 . S
N85 C84 1.342 . S
N85 N86 1.388 . S
N86 Co69 1.993 . S
N86 N85 1.388 . S
N86 C87 1.346 . S
C87 N86 1.346 . S
C87 C88 1.396 . S
C87 C97 1.510 . S
C88 C84 1.401 . S
C88 C87 1.396 . S
C89 C84 1.499 . S
C89 H90 0.959 . S
C89 H91 0.960 . S
C89 H92 0.961 . S
H90 C89 0.959 . S
H91 C89 0.960 . S
H92 C89 0.961 . S
O93 Co68 1.967 . S
O93 C101 1.258 . S
O94 Co69 1.941 . S
O94 C101 1.266 . S
H95 C97 0.959 . S
H96 C97 0.961 . S
C97 C87 1.510 . S
C97 H95 0.959 . S
C97 H96 0.961 . S
C97 H98 0.960 . S
H98 C97 0.960 . S
H99 N79 0.862 . S
O100 Co68 1.920 . S
O100 C73 1.289 . S
C101 O93 1.258 . S
C101 O94 1.266 . S
Co102 O105 1.970 . S
Co102 N119 1.989 1_556 S
Co102 O127 1.967 . S
Co102 O134 1.920 . S
Co103 O106 1.966 . S
Co103 N112 2.022 . S
Co103 N120 1.993 . S
Co103 O128 1.941 . S
C104 O105 1.258 1_554 S
C104 O106 1.263 . S
O105 Co102 1.970 . S
O105 C104 1.258 1_556 S
O106 Co103 1.966 . S
O106 C104 1.263 . S
C107 O108 1.235 . S
C107 O134 1.289 . S
O108 C107 1.235 . S
C109 C111 1.400 . S
C109 N112 1.351 . S
C109 C114 1.501 . S
C110 C111 1.387 . S
C110 N113 1.341 . S
C111 C109 1.400 . S
C111 C110 1.387 . S
N112 Co103 2.022 . S
N112 C109 1.351 . S
N112 N113 1.365 . S
N113 C110 1.341 . S
N113 N112 1.365 . S
N113 H133 0.862 . S
C114 C109 1.501 . S
C114 H115 0.961 . S
C114 H116 0.961 . S
C114 H117 0.960 . S
H115 C114 0.961 . S
H116 C114 0.961 . S
H117 C114 0.960 . S
C118 N119 1.342 . S
C118 C122 1.403 . S
C118 C123 1.498 1_554 S
N119 Co102 1.989 1_554 S
N119 C118 1.342 . S
N119 N120 1.388 . S
N120 Co103 1.993 . S
N120 N119 1.388 . S
N120 C121 1.346 . S
C121 N120 1.346 . S
C121 C122 1.396 . S
C121 C131 1.510 . S
C122 C118 1.403 . S
C122 C121 1.396 . S
C123 C118 1.498 1_556 S
C123 H124 0.959 . S
C123 H125 0.960 . S
C123 H126 0.961 . S
H124 C123 0.959 . S
H125 C123 0.960 . S
H126 C123 0.961 . S
O127 Co102 1.967 . S
O127 C135 1.258 1_556 S
O128 Co103 1.941 . S
O128 C135 1.266 . S
H129 C131 0.959 . S
H130 C131 0.961 . S
C131 C121 1.510 . S
C131 H129 0.959 . S
C131 H130 0.961 . S
C131 H132 0.960 . S
H132 C131 0.960 . S
H133 N113 0.862 . S
O134 Co102 1.920 . S
O134 C107 1.289 . S
C135 O127 1.258 1_554 S
C135 O128 1.266 . S
Co136 O139 1.970 . S
Co136 N153 1.989 . S
Co136 O161 1.967 . S
Co136 O168 1.920 . S
Co137 O140 1.966 . S
Co137 N146 2.022 . S
Co137 N154 1.993 . S
Co137 O162 1.941 . S
C138 O139 1.258 . S
C138 O140 1.263 . S
O139 Co136 1.970 . S
O139 C138 1.258 . S
O140 Co137 1.966 . S
O140 C138 1.263 . S
C141 O142 1.235 . S
C141 O168 1.289 . S
O142 C141 1.235 . S
C143 C145 1.400 . S
C143 N146 1.351 . S
C143 C148 1.501 . S
C144 C145 1.387 . S
C144 N147 1.341 . S
C145 C143 1.400 . S
C145 C144 1.387 . S
N146 Co137 2.022 . S
N146 C143 1.351 . S
N146 N147 1.365 . S
N147 C144 1.341 . S
N147 N146 1.365 . S
N147 H167 0.862 . S
C148 C143 1.501 . S
C148 H149 0.961 . S
C148 H150 0.961 . S
C148 H151 0.960 . S
H149 C148 0.961 . S
H150 C148 0.961 . S
H151 C148 0.960 . S
C152 N153 1.342 . S
C152 C156 1.401 . S
C152 C157 1.499 . S
N153 Co136 1.989 . S
N153 C152 1.342 . S
N153 N154 1.388 . S
N154 Co137 1.993 . S
N154 N153 1.388 . S
N154 C155 1.346 . S
C155 N154 1.346 . S
C155 C156 1.396 . S
C155 C165 1.510 . S
C156 C152 1.401 . S
C156 C155 1.396 . S
C157 C152 1.499 . S
C157 H158 0.959 . S
C157 H159 0.960 . S
C157 H160 0.961 . S
H158 C157 0.959 . S
H159 C157 0.960 . S
H160 C157 0.961 . S
O161 Co136 1.967 . S
O161 C169 1.258 . S
O162 Co137 1.941 . S
O162 C169 1.266 . S
H163 C165 0.959 . S
H164 C165 0.961 . S
C165 C155 1.510 . S
C165 H163 0.959 . S
C165 H164 0.961 . S
C165 H166 0.960 . S
H166 C165 0.960 . S
H167 N147 0.862 . S
O168 Co136 1.920 . S
O168 C141 1.289 . S
C169 O161 1.258 . S
C169 O162 1.266 . S
Co170 O173 1.970 . S
Co170 N187 1.989 . S
Co170 O195 1.967 . S
Co170 O202 1.920 . S
Co171 O174 1.966 . S
Co171 N180 2.022 . S
Co171 N188 1.993 . S
Co171 O196 1.941 . S
C172 O173 1.258 . S
C172 O174 1.263 . S
O173 Co170 1.970 . S
O173 C172 1.258 . S
O174 Co171 1.966 . S
O174 C172 1.263 . S
C175 O176 1.235 . S
C175 O202 1.289 . S
O176 C175 1.235 . S
C177 C179 1.400 . S
C177 N180 1.351 . S
C177 C182 1.501 . S
C178 C179 1.387 . S
C178 N181 1.341 . S
C179 C177 1.400 . S
C179 C178 1.387 . S
N180 Co171 2.022 . S
N180 C177 1.351 . S
N180 N181 1.365 . S
N181 C178 1.341 . S
N181 N180 1.365 . S
N181 H201 0.862 . S
C182 C177 1.501 . S
C182 H183 0.961 . S
C182 H184 0.961 . S
C182 H185 0.960 . S
H183 C182 0.961 . S
H184 C182 0.961 . S
H185 C182 0.960 . S
C186 N187 1.342 . S
C186 C190 1.401 . S
C186 C191 1.499 . S
N187 Co170 1.989 . S
N187 C186 1.342 . S
N187 N188 1.388 . S
N188 Co171 1.993 . S
N188 N187 1.388 . S
N188 C189 1.346 . S
C189 N188 1.346 . S
C189 C190 1.396 . S
C189 C199 1.510 . S
C190 C186 1.401 . S
C190 C189 1.396 . S
C191 C186 1.499 . S
C191 H192 0.959 . S
C191 H193 0.960 . S
C191 H194 0.961 1_565 S
H192 C191 0.959 . S
H193 C191 0.960 . S
H194 C191 0.961 1_545 S
O195 Co170 1.967 . S
O195 C203 1.258 . S
O196 Co171 1.941 . S
O196 C203 1.266 . S
H197 C199 0.959 . S
H198 C199 0.961 . S
C199 C189 1.510 . S
C199 H197 0.959 . S
C199 H198 0.961 . S
C199 H200 0.960 . S
H200 C199 0.960 . S
H201 N181 0.862 . S
O202 Co170 1.920 . S
O202 C175 1.289 . S
C203 O195 1.258 . S
C203 O196 1.266 . S
C204 C205 1.386 . S
C204 C206 1.383 . S
C204 H220 0.951 . S
C205 C204 1.386 . S
C205 C209 1.383 1_554 S
C206 C204 1.383 . S
C206 C207 1.402 . S
C206 H221 0.951 . S
C207 C206 1.402 . S
C207 C208 1.375 1_554 S
C207 C210 1.481 1_554 S
C208 C207 1.375 1_556 S
C208 C209 1.367 . S
C208 H222 0.951 . S
C209 C205 1.383 1_556 S
C209 C208 1.367 . S
C209 H223 0.950 . S
C210 C207 1.481 1_556 S
C210 C211 1.297 1_556 S
C210 H224 0.950 . S
C211 C210 1.297 1_554 S
C211 C212 1.479 . S
C211 H225 0.950 . S
C212 C211 1.479 . S
C212 C213 1.375 . S
C212 C218 1.404 1_554 S
C213 C212 1.375 . S
C213 C214 1.369 . S
C213 H226 0.950 . S
C214 C213 1.369 . S
C214 C215 1.392 . S
C214 H227 0.951 . S
C215 C214 1.392 . S
C215 C217 1.384 1_554 S
H216 C218 0.949 . S
C217 C215 1.384 1_556 S
C217 C218 1.385 . S
C217 H219 0.950 . S
C218 C212 1.404 1_556 S
C218 H216 0.949 . S
C218 C217 1.385 . S
H219 C217 0.950 . S
H220 C204 0.951 . S
H221 C206 0.951 . S
H222 C208 0.951 . S
H223 C209 0.950 . S
H224 C210 0.950 . S
H225 C211 0.950 . S
H226 C213 0.950 . S
H227 C214 0.951 . S
C228 C229 1.386 . S
C228 C230 1.383 . S
C228 H244 0.951 . S
C229 C228 1.386 . S
C229 C233 1.383 . S
C230 C228 1.383 . S
C230 C231 1.402 . S
C230 H245 0.951 . S
C231 C230 1.402 . S
C231 C232 1.375 . S
C231 C234 1.481 . S
C232 C231 1.375 . S
C232 C233 1.367 . S
C232 H246 0.951 . S
C233 C229 1.383 . S
C233 C232 1.367 . S
C233 H247 0.950 . S
C234 C231 1.481 . S
C234 C235 1.297 . S
C234 H248 0.950 . S
C235 C234 1.297 . S
C235 C236 1.479 . S
C235 H249 0.950 . S
C236 C235 1.479 . S
C236 C237 1.375 . S
C236 C242 1.404 . S
C237 C236 1.375 . S
C237 C238 1.369 . S
C237 H250 0.950 . S
C238 C237 1.369 . S
C238 C239 1.392 . S
C238 H251 0.951 . S
C239 C238 1.392 . S
C239 C241 1.384 . S
H240 C242 0.949 . S
C241 C239 1.384 . S
C241 C242 1.385 . S
C241 H243 0.950 . S
C242 C236 1.404 . S
C242 H240 0.949 . S
C242 C241 1.385 . S
H243 C241 0.950 . S
H244 C228 0.951 . S
H245 C230 0.951 . S
H246 C232 0.951 . S
H247 C233 0.950 . S
H248 C234 0.950 . S
H249 C235 0.950 . S
H250 C237 0.950 . S
H251 C238 0.951 . S
C252 C253 1.386 . S
C252 C254 1.383 . S
C252 H268 0.951 . S
C253 C252 1.386 . S
C253 C257 1.383 . S
C254 C252 1.383 . S
C254 C255 1.402 . S
C254 H269 0.951 . S
C255 C254 1.402 . S
C255 C256 1.375 . S
C255 C258 1.481 . S
C256 C255 1.375 . S
C256 C257 1.367 . S
C256 H270 0.951 . S
C257 C253 1.383 . S
C257 C256 1.367 . S
C257 H271 0.950 . S
C258 C255 1.481 . S
C258 C259 1.297 . S
C258 H272 0.950 . S
C259 C258 1.297 . S
C259 C260 1.479 . S
C259 H273 0.950 . S
C260 C259 1.479 . S
C260 C261 1.375 . S
C260 C266 1.404 . S
C261 C260 1.375 . S
C261 C262 1.369 . S
C261 H274 0.950 . S
C262 C261 1.369 . S
C262 C263 1.392 . S
C262 H275 0.951 . S
C263 C262 1.392 . S
C263 C265 1.384 . S
H264 C266 0.949 . S
C265 C263 1.384 . S
C265 C266 1.385 . S
C265 H267 0.950 . S
C266 C260 1.404 . S
C266 H264 0.949 . S
C266 C265 1.385 . S
H267 C265 0.950 . S
H268 C252 0.951 . S
H269 C254 0.951 . S
H270 C256 0.951 . S
H271 C257 0.950 . S
H272 C258 0.950 . S
H273 C259 0.950 . S
H274 C261 0.950 . S
H275 C262 0.951 . S
C276 C277 1.386 . S
C276 C278 1.383 . S
C276 H292 0.951 . S
C277 C276 1.386 . S
C277 C281 1.383 . S
C278 C276 1.383 . S
C278 C279 1.402 . S
C278 H293 0.951 . S
C279 C278 1.402 . S
C279 C280 1.375 . S
C279 C282 1.481 . S
C280 C279 1.375 . S
C280 C281 1.367 . S
C280 H294 0.951 . S
C281 C277 1.383 . S
C281 C280 1.367 . S
C281 H295 0.950 . S
C282 C279 1.481 . S
C282 C283 1.297 . S
C282 H296 0.950 . S
C283 C282 1.297 . S
C283 C284 1.479 . S
C283 H297 0.950 . S
C284 C283 1.479 . S
C284 C285 1.375 . S
C284 C290 1.404 . S
C285 C284 1.375 . S
C285 C286 1.369 . S
C285 H298 0.950 . S
C286 C285 1.369 . S
C286 C287 1.392 . S
C286 H299 0.951 . S
C287 C286 1.392 . S
C287 C289 1.384 . S
H288 C290 0.949 . S
C289 C287 1.384 . S
C289 C290 1.385 . S
C289 H291 0.950 . S
C290 C284 1.404 . S
C290 H288 0.949 . S
C290 C289 1.385 . S
H291 C289 0.950 . S
H292 C276 0.951 . S
H293 C278 0.951 . S
H294 C280 0.951 . S
H295 C281 0.950 . S
H296 C282 0.950 . S
H297 C283 0.950 . S
H298 C285 0.950 . S
H299 C286 0.951 . S
C300 C301 1.386 . S
C300 C302 1.383 . S
C300 H316 0.951 . S
C301 C300 1.386 . S
C301 C305 1.383 . S
C302 C300 1.383 . S
C302 C303 1.402 . S
C302 H317 0.951 . S
C303 C302 1.402 . S
C303 C304 1.375 . S
C303 C306 1.481 . S
C304 C303 1.375 . S
C304 C305 1.367 . S
C304 H318 0.951 . S
C305 C301 1.383 . S
C305 C304 1.367 . S
C305 H319 0.950 . S
C306 C303 1.481 . S
C306 C307 1.297 . S
C306 H320 0.950 . S
C307 C306 1.297 . S
C307 C308 1.479 . S
C307 H321 0.950 . S
C308 C307 1.479 . S
C308 C309 1.375 1_556 S
C308 C314 1.404 1_556 S
C309 C308 1.375 1_554 S
C309 C310 1.369 . S
C309 H322 0.950 . S
C310 C309 1.369 . S
C310 C311 1.392 . S
C310 H323 0.951 . S
C311 C310 1.392 . S
C311 C313 1.384 . S
H312 C314 0.949 1_556 S
C313 C311 1.384 . S
C313 C314 1.385 . S
C313 H315 0.950 . S
C314 C308 1.404 1_554 S
C314 H312 0.949 1_554 S
C314 C313 1.385 . S
H315 C313 0.950 . S
H316 C300 0.951 . S
H317 C302 0.951 . S
H318 C304 0.951 . S
H319 C305 0.950 . S
H320 C306 0.950 . S
H321 C307 0.950 . S
H322 C309 0.950 . S
H323 C310 0.951 . S
C324 C325 1.386 . S
C324 C326 1.383 . S
C324 H340 0.951 . S
C325 C324 1.386 . S
C325 C329 1.383 . S
C326 C324 1.383 . S
C326 C327 1.402 . S
C326 H341 0.951 . S
C327 C326 1.402 . S
C327 C328 1.375 . S
C327 C330 1.481 . S
C328 C327 1.375 . S
C328 C329 1.367 . S
C328 H342 0.951 . S
C329 C325 1.383 . S
C329 C328 1.367 . S
C329 H343 0.950 1_554 S
C330 C327 1.481 . S
C330 C331 1.297 . S
C330 H344 0.950 . S
C331 C330 1.297 . S
C331 C332 1.479 . S
C331 H345 0.950 . S
C332 C331 1.479 . S
C332 C333 1.375 . S
C332 C338 1.404 . S
C333 C332 1.375 . S
C333 C334 1.369 . S
C333 H346 0.950 . S
C334 C333 1.369 . S
C334 C335 1.392 . S
C334 H347 0.951 . S
C335 C334 1.392 . S
C335 C337 1.384 . S
H336 C338 0.949 . S
C337 C335 1.384 . S
C337 C338 1.385 . S
C337 H339 0.950 . S
C338 C332 1.404 . S
C338 H336 0.949 . S
C338 C337 1.385 . S
H339 C337 0.950 . S
H340 C324 0.951 . S
H341 C326 0.951 . S
H342 C328 0.951 . S
H343 C329 0.950 1_556 S
H344 C330 0.950 . S
H345 C331 0.950 . S
H346 C333 0.950 . S
H347 C334 0.951 . S
C348 C349 1.386 . S
C348 C350 1.383 . S
C348 H364 0.951 . S
C349 C348 1.386 . S
C349 C353 1.383 . S
C350 C348 1.383 . S
C350 C351 1.402 . S
C350 H365 0.951 . S
C351 C350 1.402 . S
C351 C352 1.375 . S
C351 C354 1.481 . S
C352 C351 1.375 . S
C352 C353 1.367 . S
C352 H366 0.951 . S
C353 C349 1.383 . S
C353 C352 1.367 . S
C353 H367 0.950 . S
C354 C351 1.481 . S
C354 C355 1.297 . S
C354 H368 0.950 . S
C355 C354 1.297 . S
C355 C356 1.479 . S
C355 H369 0.950 . S
C356 C355 1.479 . S
C356 C357 1.375 . S
C356 C362 1.404 . S
C357 C356 1.375 . S
C357 C358 1.369 . S
C357 H370 0.950 . S
C358 C357 1.369 . S
C358 C359 1.392 . S
C358 H371 0.951 . S
C359 C358 1.392 . S
C359 C361 1.384 . S
H360 C362 0.949 . S
C361 C359 1.384 . S
C361 C362 1.385 . S
C361 H363 0.950 . S
C362 C356 1.404 . S
C362 H360 0.949 . S
C362 C361 1.385 . S
H363 C361 0.950 . S
H364 C348 0.951 . S
H365 C350 0.951 . S
H366 C352 0.951 . S
H367 C353 0.950 . S
H368 C354 0.950 . S
H369 C355 0.950 . S
H370 C357 0.950 . S
H371 C358 0.951 . S
C372 C373 1.386 . S
C372 C374 1.383 . S
C372 H388 0.951 . S
C373 C372 1.386 . S
C373 C377 1.383 . S
C374 C372 1.383 . S
C374 C375 1.402 . S
C374 H389 0.951 . S
C375 C374 1.402 . S
C375 C376 1.375 . S
C375 C378 1.481 . S
C376 C375 1.375 . S
C376 C377 1.367 . S
C376 H390 0.951 . S
C377 C373 1.383 . S
C377 C376 1.367 . S
C377 H391 0.950 . S
C378 C375 1.481 . S
C378 C379 1.297 . S
C378 H392 0.950 . S
C379 C378 1.297 . S
C379 C380 1.479 . S
C379 H393 0.950 . S
C380 C379 1.479 . S
C380 C381 1.375 1_556 S
C380 C386 1.404 1_556 S
C381 C380 1.375 1_554 S
C381 C382 1.369 . S
C381 H394 0.950 . S
C382 C381 1.369 . S
C382 C383 1.392 . S
C382 H395 0.951 . S
C383 C382 1.392 . S
C383 C385 1.384 . S
H384 C386 0.949 1_556 S
C385 C383 1.384 . S
C385 C386 1.385 . S
C385 H387 0.950 . S
C386 C380 1.404 1_554 S
C386 H384 0.949 1_554 S
C386 C385 1.385 . S
H387 C385 0.950 . S
H388 C372 0.951 . S
H389 C374 0.951 . S
H390 C376 0.951 . S
H391 C377 0.950 . S
H392 C378 0.950 . S
H393 C379 0.950 . S
H394 C381 0.950 . S
H395 C382 0.951 . S
C396 C397 1.386 . S
C396 C398 1.383 . S
C396 H412 0.951 . S
C397 C396 1.386 . S
C397 C401 1.383 . S
C398 C396 1.383 . S
C398 C399 1.402 . S
C398 H413 0.951 . S
C399 C398 1.402 . S
C399 C400 1.375 . S
C399 C402 1.481 . S
C400 C399 1.375 . S
C400 C401 1.367 . S
C400 H414 0.951 . S
C401 C397 1.383 . S
C401 C400 1.367 . S
C401 H415 0.950 . S
C402 C399 1.481 . S
C402 C403 1.297 . S
C402 H416 0.950 . S
C403 C402 1.297 . S
C403 C404 1.479 . S
C403 H417 0.950 . S
C404 C403 1.479 . S
C404 C405 1.375 . S
C404 C410 1.404 . S
C405 C404 1.375 . S
C405 C406 1.369 . S
C405 H418 0.950 . S
C406 C405 1.369 . S
C406 C407 1.392 . S
C406 H419 0.951 . S
C407 C406 1.392 . S
C407 C409 1.384 . S
H408 C410 0.949 . S
C409 C407 1.384 . S
C409 C410 1.385 . S
C409 H411 0.950 . S
C410 C404 1.404 . S
C410 H408 0.949 . S
C410 C409 1.385 . S
H411 C409 0.950 . S
H412 C396 0.951 . S
H413 C398 0.951 . S
H414 C400 0.951 . S
H415 C401 0.950 . S
H416 C402 0.950 . S
H417 C403 0.950 . S
H418 C405 0.950 . S
H419 C406 0.951 . S
C420 C421 1.386 . S
C420 C422 1.383 . S
C420 H436 0.951 . S
C421 C420 1.386 . S
C421 C425 1.383 . S
C422 C420 1.383 . S
C422 C423 1.402 . S
C422 H437 0.951 . S
C423 C422 1.402 . S
C423 C424 1.375 . S
C423 C426 1.481 . S
C424 C423 1.375 . S
C424 C425 1.367 . S
C424 H438 0.951 . S
C425 C421 1.383 . S
C425 C424 1.367 . S
C425 H439 0.950 . S
C426 C423 1.481 . S
C426 C427 1.297 . S
C426 H440 0.950 . S
C427 C426 1.297 . S
C427 C428 1.479 . S
C427 H441 0.950 . S
C428 C427 1.479 . S
C428 C429 1.375 . S
C428 C434 1.404 . S
C429 C428 1.375 . S
C429 C430 1.369 . S
C429 H442 0.950 . S
C430 C429 1.369 . S
C430 C431 1.392 . S
C430 H443 0.951 . S
C431 C430 1.392 . S
C431 C433 1.384 . S
H432 C434 0.949 . S
C433 C431 1.384 . S
C433 C434 1.385 . S
C433 H435 0.950 . S
C434 C428 1.404 . S
C434 H432 0.949 . S
C434 C433 1.385 . S
H435 C433 0.950 . S
H436 C420 0.951 . S
H437 C422 0.951 . S
H438 C424 0.951 . S
H439 C425 0.950 . S
H440 C426 0.950 . S
H441 C427 0.950 . S
H442 C429 0.950 . S
H443 C430 0.951 . S
C444 C445 1.386 . S
C444 C446 1.383 . S
C444 H460 0.951 . S
C445 C444 1.386 . S
C445 C449 1.383 . S
C446 C444 1.383 . S
C446 C447 1.402 . S
C446 H461 0.951 . S
C447 C446 1.402 . S
C447 C448 1.375 . S
C447 C450 1.481 . S
C448 C447 1.375 . S
C448 C449 1.367 . S
C448 H462 0.951 . S
C449 C445 1.383 . S
C449 C448 1.367 . S
C449 H463 0.950 . S
C450 C447 1.481 . S
C450 C451 1.297 . S
C450 H464 0.950 . S
C451 C450 1.297 . S
C451 C452 1.479 . S
C451 H465 0.950 . S
C452 C451 1.479 . S
C452 C453 1.375 . S
C452 C458 1.404 . S
C453 C452 1.375 . S
C453 C454 1.369 . S
C453 H466 0.950 . S
C454 C453 1.369 . S
C454 C455 1.392 . S
C454 H467 0.951 . S
C455 C454 1.392 . S
C455 C457 1.384 . S
H456 C458 0.949 . S
C457 C455 1.384 . S
C457 C458 1.385 . S
C457 H459 0.950 . S
C458 C452 1.404 . S
C458 H456 0.949 . S
C458 C457 1.385 . S
H459 C457 0.950 . S
H460 C444 0.951 . S
H461 C446 0.951 . S
H462 C448 0.951 . S
H463 C449 0.950 . S
H464 C450 0.950 . S
H465 C451 0.950 . S
H466 C453 0.950 . S
H467 C454 0.951 . S
C468 C469 1.386 . S
C468 C470 1.383 . S
C468 H484 0.951 . S
C469 C468 1.386 . S
C469 C473 1.383 . S
C470 C468 1.383 . S
C470 C471 1.402 . S
C470 H485 0.951 . S
C471 C470 1.402 . S
C471 C472 1.375 . S
C471 C474 1.481 . S
C472 C471 1.375 . S
C472 C473 1.367 . S
C472 H486 0.951 . S
C473 C469 1.383 . S
C473 C472 1.367 . S
C473 H487 0.950 1_556 S
C474 C471 1.481 . S
C474 C475 1.297 . S
C474 H488 0.950 . S
C475 C474 1.297 . S
C475 C476 1.479 . S
C475 H489 0.950 . S
C476 C475 1.479 . S
C476 C477 1.375 1_655 S
C476 C482 1.404 . S
C477 C476 1.375 1_455 S
C477 C478 1.369 . S
C477 H490 0.950 . S
C478 C477 1.369 . S
C478 C479 1.392 . S
C478 H491 0.951 . S
C479 C478 1.392 . S
C479 C481 1.384 . S
H480 C482 0.949 . S
C481 C479 1.384 . S
C481 C482 1.385 1_455 S
C481 H483 0.950 . S
C482 C476 1.404 . S
C482 H480 0.949 . S
C482 C481 1.385 1_655 S
H483 C481 0.950 . S
H484 C468 0.951 . S
H485 C470 0.951 . S
H486 C472 0.951 . S
H487 C473 0.950 1_554 S
H488 C474 0.950 . S
H489 C475 0.950 . S
H490 C477 0.950 . S
H491 C478 0.951 . S
C492 C493 1.386 . S
C492 C494 1.383 . S
C492 H508 0.951 . S
C493 C492 1.386 . S
C493 C497 1.383 . S
C494 C492 1.383 . S
C494 C495 1.402 . S
C494 H509 0.951 . S
C495 C494 1.402 . S
C495 C496 1.375 . S
C495 C498 1.481 . S
C496 C495 1.375 . S
C496 C497 1.367 . S
C496 H510 0.951 . S
C497 C493 1.383 . S
C497 C496 1.367 . S
C497 H511 0.950 . S
C498 C495 1.481 . S
C498 C499 1.297 1_545 S
C498 H512 0.950 . S
C499 C498 1.297 1_565 S
C499 C500 1.479 . S
C499 H513 0.950 . S
C500 C499 1.479 . S
C500 C501 1.375 . S
C500 C506 1.404 . S
C501 C500 1.375 . S
C501 C502 1.369 . S
C501 H514 0.950 . S
C502 C501 1.369 . S
C502 C503 1.392 . S
C502 H515 0.951 . S
C503 C502 1.392 . S
C503 C505 1.384 . S
H504 C506 0.949 . S
C505 C503 1.384 . S
C505 C506 1.385 . S
C505 H507 0.950 . S
C506 C500 1.404 . S
C506 H504 0.949 . S
C506 C505 1.385 . S
H507 C505 0.950 . S
H508 C492 0.951 . S
H509 C494 0.951 . S
H510 C496 0.951 . S
H511 C497 0.950 . S
H512 C498 0.950 . S
H513 C499 0.950 . S
H514 C501 0.950 . S
H515 C502 0.951 . S
C516 C517 1.386 . S
C516 C518 1.383 . S
C516 H532 0.951 . S
C517 C516 1.386 . S
C517 C521 1.383 . S
C518 C516 1.383 . S
C518 C519 1.402 . S
C518 H533 0.951 . S
C519 C518 1.402 . S
C519 C520 1.375 . S
C519 C522 1.481 . S
C520 C519 1.375 . S
C520 C521 1.367 . S
C520 H534 0.951 . S
C521 C517 1.383 . S
C521 C520 1.367 . S
C521 H535 0.950 . S
C522 C519 1.481 . S
C522 C523 1.297 . S
C522 H536 0.950 . S
C523 C522 1.297 . S
C523 C524 1.479 . S
C523 H537 0.950 . S
C524 C523 1.479 . S
C524 C525 1.375 . S
C524 C530 1.404 . S
C525 C524 1.375 . S
C525 C526 1.369 1_455 S
C525 H538 0.950 . S
C526 C525 1.369 1_655 S
C526 C527 1.392 . S
C526 H539 0.951 . S
C527 C526 1.392 . S
C527 C529 1.384 1_655 S
H528 C530 0.949 . S
C529 C527 1.384 1_455 S
C529 C530 1.385 . S
C529 H531 0.950 . S
C530 C524 1.404 . S
C530 H528 0.949 . S
C530 C529 1.385 . S
H531 C529 0.950 . S
H532 C516 0.951 . S
H533 C518 0.951 . S
H534 C520 0.951 . S
H535 C521 0.950 . S
H536 C522 0.950 . S
H537 C523 0.950 . S
H538 C525 0.950 . S
H539 C526 0.951 . S
C540 C541 1.386 . S
C540 C542 1.383 . S
C540 H556 0.951 . S
C541 C540 1.386 . S
C541 C545 1.383 . S
C542 C540 1.383 . S
C542 C543 1.402 . S
C542 H557 0.951 . S
C543 C542 1.402 . S
C543 C544 1.375 . S
C543 C546 1.481 . S
C544 C543 1.375 . S
C544 C545 1.367 . S
C544 H558 0.951 . S
C545 C541 1.383 . S
C545 C544 1.367 . S
C545 H559 0.950 . S
C546 C543 1.481 . S
C546 C547 1.297 . S
C546 H560 0.950 . S
C547 C546 1.297 . S
C547 C548 1.479 . S
C547 H561 0.950 . S
C548 C547 1.479 . S
C548 C549 1.375 . S
C548 C554 1.404 . S
C549 C548 1.375 . S
C549 C550 1.369 1_556 S
C549 H562 0.950 . S
C550 C549 1.369 1_554 S
C550 C551 1.392 1_554 S
C550 H563 0.951 . S
C551 C550 1.392 1_556 S
C551 C553 1.384 . S
H552 C554 0.949 . S
C553 C551 1.384 . S
C553 C554 1.385 . S
C553 H555 0.950 . S
C554 C548 1.404 . S
C554 H552 0.949 . S
C554 C553 1.385 . S
H555 C553 0.950 . S
H556 C540 0.951 . S
H557 C542 0.951 . S
H558 C544 0.951 . S
H559 C545 0.950 . S
H560 C546 0.950 . S
H561 C547 0.950 . S
H562 C549 0.950 . S
H563 C550 0.951 . S
C205 C2 1.602 . S
C215 C104 1.605 . S
C229 C138 1.601 . S
C239 C36 1.600 . S
C253 C70 1.605 . S
C263 C172 1.603 . S
C277 C9 0.964 . S
C287 C5 0.964 . S
C301 C43 0.997 . S
C311 C39 0.956 . S
C325 C77 0.991 1_554 S
C335 C73 0.964 . S
C349 C107 0.960 . S
C359 C111 1.018 . S
C373 C145 1.000 . S
C383 C141 0.953 . S
C397 C175 0.960 . S
C407 C179 1.019 1_554 S
C421 C20 1.581 . S
C431 C67 1.550 . S
C445 C54 1.578 . S
C455 C101 1.551 . S
C469 C135 1.573 1_556 S
C479 C88 1.580 . S
C493 C122 1.580 . S
C503 C169 1.551 . S
C517 C203 1.567 . S
C527 C156 1.578 . S
C541 C190 1.582 1_545 S
C551 C33 1.555 1_556 S
