# Generated by pormake.
# Topology ukd, (4)-cn, num edge types: 1
# Building blocks:
#     Node 0, Type 0, BuildingBlock: AZAVOO_clean_sbu_0, # of connection points: 4
#     Node 1, Type 0, BuildingBlock: AZAVOO_clean_sbu_0, # of connection points: 4
#     Node 2, Type 0, BuildingBlock: AZAVOO_clean_sbu_0, # of connection points: 4
#     Node 3, Type 0, BuildingBlock: AZAVOO_clean_sbu_0, # of connection points: 4
#     Node 4, Type 0, BuildingBlock: AZAVOO_clean_sbu_0, # of connection points: 4
#     Node 5, Type 0, BuildingBlock: AZAVOO_clean_sbu_0, # of connection points: 4
#     Node 6, Type 0, BuildingBlock: AZAVOO_clean_sbu_0, # of connection points: 4
#     Node 7, Type 0, BuildingBlock: AZAVOO_clean_sbu_0, # of connection points: 4
#     Node 8, Type 0, BuildingBlock: AZAVOO_clean_sbu_0, # of connection points: 4
#     Node 9, Type 0, BuildingBlock: AZAVOO_clean_sbu_0, # of connection points: 4
#     Node 10, Type 0, BuildingBlock: AZAVOO_clean_sbu_0, # of connection points: 4
#     Node 11, Type 0, BuildingBlock: AZAVOO_clean_sbu_0, # of connection points: 4
#     Node 12, Type 0, BuildingBlock: AZAVOO_clean_sbu_0, # of connection points: 4
#     Node 13, Type 0, BuildingBlock: AZAVOO_clean_sbu_0, # of connection points: 4
#     Node 14, Type 0, BuildingBlock: AZAVOO_clean_sbu_0, # of connection points: 4
#     Node 15, Type 0, BuildingBlock: AZAVOO_clean_sbu_0, # of connection points: 4
#     Node 16, Type 0, BuildingBlock: AZAVOO_clean_sbu_0, # of connection points: 4
#     Node 17, Type 0, BuildingBlock: AZAVOO_clean_sbu_0, # of connection points: 4
#     Node 18, Type 0, BuildingBlock: AZAVOO_clean_sbu_0, # of connection points: 4
#     Node 19, Type 0, BuildingBlock: AZAVOO_clean_sbu_0, # of connection points: 4
#     Node 20, Type 0, BuildingBlock: AZAVOO_clean_sbu_0, # of connection points: 4
#     Node 21, Type 0, BuildingBlock: AZAVOO_clean_sbu_0, # of connection points: 4
#     Node 22, Type 0, BuildingBlock: AZAVOO_clean_sbu_0, # of connection points: 4
#     Node 23, Type 0, BuildingBlock: AZAVOO_clean_sbu_0, # of connection points: 4
#     Node 24, Type 0, BuildingBlock: AZAVOO_clean_sbu_0, # of connection points: 4
#     Node 25, Type 0, BuildingBlock: AZAVOO_clean_sbu_0, # of connection points: 4
#     Node 26, Type 0, BuildingBlock: AZAVOO_clean_sbu_0, # of connection points: 4
#     Node 27, Type 0, BuildingBlock: AZAVOO_clean_sbu_0, # of connection points: 4
#     Node 28, Type 0, BuildingBlock: AZAVOO_clean_sbu_0, # of connection points: 4
#     Node 29, Type 0, BuildingBlock: AZAVOO_clean_sbu_0, # of connection points: 4
#     Node 30, Type 0, BuildingBlock: AZAVOO_clean_sbu_0, # of connection points: 4
#     Node 31, Type 0, BuildingBlock: AZAVOO_clean_sbu_0, # of connection points: 4
#     Edge 32, Type (0, 0), BuildingBlock: XIVTED_clean_linker_0, # of connection points: 2
#     Edge 33, Type (0, 0), BuildingBlock: XIVTED_clean_linker_0, # of connection points: 2
#     Edge 34, Type (0, 0), BuildingBlock: XIVTED_clean_linker_0, # of connection points: 2
#     Edge 35, Type (0, 0), BuildingBlock: XIVTED_clean_linker_0, # of connection points: 2
#     Edge 36, Type (0, 0), BuildingBlock: XIVTED_clean_linker_0, # of connection points: 2
#     Edge 37, Type (0, 0), BuildingBlock: XIVTED_clean_linker_0, # of connection points: 2
#     Edge 38, Type (0, 0), BuildingBlock: XIVTED_clean_linker_0, # of connection points: 2
#     Edge 39, Type (0, 0), BuildingBlock: XIVTED_clean_linker_0, # of connection points: 2
#     Edge 40, Type (0, 0), BuildingBlock: XIVTED_clean_linker_0, # of connection points: 2
#     Edge 41, Type (0, 0), BuildingBlock: XIVTED_clean_linker_0, # of connection points: 2
#     Edge 42, Type (0, 0), BuildingBlock: XIVTED_clean_linker_0, # of connection points: 2
#     Edge 43, Type (0, 0), BuildingBlock: XIVTED_clean_linker_0, # of connection points: 2
#     Edge 44, Type (0, 0), BuildingBlock: XIVTED_clean_linker_0, # of connection points: 2
#     Edge 45, Type (0, 0), BuildingBlock: XIVTED_clean_linker_0, # of connection points: 2
#     Edge 46, Type (0, 0), BuildingBlock: XIVTED_clean_linker_0, # of connection points: 2
#     Edge 47, Type (0, 0), BuildingBlock: XIVTED_clean_linker_0, # of connection points: 2
#     Edge 48, Type (0, 0), BuildingBlock: XIVTED_clean_linker_0, # of connection points: 2
#     Edge 49, Type (0, 0), BuildingBlock: XIVTED_clean_linker_0, # of connection points: 2
#     Edge 50, Type (0, 0), BuildingBlock: XIVTED_clean_linker_0, # of connection points: 2
#     Edge 51, Type (0, 0), BuildingBlock: XIVTED_clean_linker_0, # of connection points: 2
#     Edge 52, Type (0, 0), BuildingBlock: XIVTED_clean_linker_0, # of connection points: 2
#     Edge 53, Type (0, 0), BuildingBlock: XIVTED_clean_linker_0, # of connection points: 2
#     Edge 54, Type (0, 0), BuildingBlock: XIVTED_clean_linker_0, # of connection points: 2
#     Edge 55, Type (0, 0), BuildingBlock: XIVTED_clean_linker_0, # of connection points: 2
#     Edge 56, Type (0, 0), BuildingBlock: XIVTED_clean_linker_0, # of connection points: 2
#     Edge 57, Type (0, 0), BuildingBlock: XIVTED_clean_linker_0, # of connection points: 2
#     Edge 58, Type (0, 0), BuildingBlock: XIVTED_clean_linker_0, # of connection points: 2
#     Edge 59, Type (0, 0), BuildingBlock: XIVTED_clean_linker_0, # of connection points: 2
#     Edge 60, Type (0, 0), BuildingBlock: XIVTED_clean_linker_0, # of connection points: 2
#     Edge 61, Type (0, 0), BuildingBlock: XIVTED_clean_linker_0, # of connection points: 2
#     Edge 62, Type (0, 0), BuildingBlock: XIVTED_clean_linker_0, # of connection points: 2
#     Edge 63, Type (0, 0), BuildingBlock: XIVTED_clean_linker_0, # of connection points: 2
#     Edge 64, Type (0, 0), BuildingBlock: XIVTED_clean_linker_0, # of connection points: 2
#     Edge 65, Type (0, 0), BuildingBlock: XIVTED_clean_linker_0, # of connection points: 2
#     Edge 66, Type (0, 0), BuildingBlock: XIVTED_clean_linker_0, # of connection points: 2
#     Edge 67, Type (0, 0), BuildingBlock: XIVTED_clean_linker_0, # of connection points: 2
#     Edge 68, Type (0, 0), BuildingBlock: XIVTED_clean_linker_0, # of connection points: 2
#     Edge 69, Type (0, 0), BuildingBlock: XIVTED_clean_linker_0, # of connection points: 2
#     Edge 70, Type (0, 0), BuildingBlock: XIVTED_clean_linker_0, # of connection points: 2
#     Edge 71, Type (0, 0), BuildingBlock: XIVTED_clean_linker_0, # of connection points: 2
#     Edge 72, Type (0, 0), BuildingBlock: XIVTED_clean_linker_0, # of connection points: 2
#     Edge 73, Type (0, 0), BuildingBlock: XIVTED_clean_linker_0, # of connection points: 2
#     Edge 74, Type (0, 0), BuildingBlock: XIVTED_clean_linker_0, # of connection points: 2
#     Edge 75, Type (0, 0), BuildingBlock: XIVTED_clean_linker_0, # of connection points: 2
#     Edge 76, Type (0, 0), BuildingBlock: XIVTED_clean_linker_0, # of connection points: 2
#     Edge 77, Type (0, 0), BuildingBlock: XIVTED_clean_linker_0, # of connection points: 2
#     Edge 78, Type (0, 0), BuildingBlock: XIVTED_clean_linker_0, # of connection points: 2
#     Edge 79, Type (0, 0), BuildingBlock: XIVTED_clean_linker_0, # of connection points: 2
#     Edge 80, Type (0, 0), BuildingBlock: XIVTED_clean_linker_0, # of connection points: 2
#     Edge 81, Type (0, 0), BuildingBlock: XIVTED_clean_linker_0, # of connection points: 2
#     Edge 82, Type (0, 0), BuildingBlock: XIVTED_clean_linker_0, # of connection points: 2
#     Edge 83, Type (0, 0), BuildingBlock: XIVTED_clean_linker_0, # of connection points: 2
#     Edge 84, Type (0, 0), BuildingBlock: XIVTED_clean_linker_0, # of connection points: 2
#     Edge 85, Type (0, 0), BuildingBlock: XIVTED_clean_linker_0, # of connection points: 2
#     Edge 86, Type (0, 0), BuildingBlock: XIVTED_clean_linker_0, # of connection points: 2
#     Edge 87, Type (0, 0), BuildingBlock: XIVTED_clean_linker_0, # of connection points: 2
#     Edge 88, Type (0, 0), BuildingBlock: XIVTED_clean_linker_0, # of connection points: 2
#     Edge 89, Type (0, 0), BuildingBlock: XIVTED_clean_linker_0, # of connection points: 2
#     Edge 90, Type (0, 0), BuildingBlock: XIVTED_clean_linker_0, # of connection points: 2
#     Edge 91, Type (0, 0), BuildingBlock: XIVTED_clean_linker_0, # of connection points: 2
#     Edge 92, Type (0, 0), BuildingBlock: XIVTED_clean_linker_0, # of connection points: 2
#     Edge 93, Type (0, 0), BuildingBlock: XIVTED_clean_linker_0, # of connection points: 2
#     Edge 94, Type (0, 0), BuildingBlock: XIVTED_clean_linker_0, # of connection points: 2
#     Edge 95, Type (0, 0), BuildingBlock: XIVTED_clean_linker_0, # of connection points: 2
# Relax obj value: 0.164
# Max RMSD: 0.196
# Mean RMSD: 0.196
data_MOF--net-ukd--node1-AZAVOO_clean_sbu_0--edge1-XIVTED_clean_linker_0
_symmetry_space_group_name_H-M    P1
_symmetry_Int_Tables_number       1
_symmetry_cell_setting            triclinic
loop_
_symmetry_equiv_pos_as_xyz
'x, y, z'
_cell_length_a     41.325275
_cell_length_b     41.312171
_cell_length_c     80.241788
_cell_angle_alpha  89.998972
_cell_angle_beta   89.998363
_cell_angle_gamma 90.080276
loop_
_atom_site_label
_atom_site_type_symbol
_atom_site_fract_x
_atom_site_fract_y
_atom_site_fract_z
_atom_type_partial_charge
Mg0 Mg 0.24994 0.26675 0.34662 0.0
O1 O 0.20714 0.23201 0.34656 0.0
O2 O 0.16194 0.25728 0.33868 0.0
Mg3 Mg 0.17677 0.30971 0.33292 0.0
C4 C 0.17688 0.23186 0.34343 0.0
C5 C 0.30046 0.22046 0.36316 0.0
O6 O 0.29731 0.24234 0.37493 0.0
O7 O 0.25164 0.26318 0.31819 0.0
O8 O 0.20698 0.29068 0.31124 0.0
O9 O 0.23607 0.28263 0.37257 0.0
O10 O 0.21907 0.30579 0.34933 0.0
C11 C 0.23226 0.27469 0.30726 0.0
C12 C 0.21817 0.30408 0.36528 0.0
O13 O 0.2842 0.22357 0.3498 0.0
Mg14 Mg 0.98696 1.00076 0.59589 0.0
O15 O 0.022 0.95818 0.59558 0.0
O16 O 0.99676 0.91324 0.58712 0.0
Mg17 Mg 0.9445 0.9279 0.58117 0.0
C18 C 0.02212 0.92803 0.59213 0.0
C19 C 0.02337 0.06576 0.60107 0.0
O20 O 0.99353 0.0757 0.5987 0.0
O21 O 0.99148 0.00372 0.56746 0.0
O22 O 0.96419 0.95913 0.56003 0.0
O23 O 0.97068 0.98588 0.62157 0.0
O24 O 0.94811 0.96938 0.59807 0.0
C25 C 0.98023 0.98457 0.55632 0.0
C26 C 0.94962 0.96788 0.61401 0.0
O27 O 0.0293 0.03561 0.60027 0.0
Mg28 Mg 0.25129 0.73256 0.84514 0.0
O29 O 0.29276 0.76892 0.84568 0.0
O30 O 0.33878 0.74564 0.83743 0.0
Mg31 Mg 0.32604 0.69295 0.83106 0.0
C32 C 0.32298 0.77028 0.84252 0.0
C33 C 0.21222 0.78865 0.86246 0.0
O34 O 0.23052 0.77979 0.87505 0.0
O35 O 0.24976 0.73746 0.81678 0.0
O36 O 0.29531 0.71181 0.80951 0.0
O37 O 0.26525 0.71573 0.87092 0.0
O38 O 0.28356 0.69461 0.84745 0.0
C39 C 0.26952 0.72713 0.80572 0.0
C40 C 0.28407 0.69537 0.86342 0.0
O41 O 0.21518 0.77409 0.84858 0.0
Mg42 Mg 0.51219 0.00202 0.09525 0.0
O43 O 0.47659 0.04414 0.09566 0.0
O44 O 0.50101 0.08952 0.08719 0.0
Mg45 Mg 0.55334 0.07582 0.08078 0.0
C46 C 0.47601 0.07436 0.09238 0.0
C47 C 0.45797 0.96147 0.11332 0.0
O48 O 0.46929 0.97777 0.12611 0.0
O49 O 0.50717 1.00005 0.06687 0.0
O50 O 0.53374 0.04505 0.05942 0.0
O51 O 0.52932 0.01622 0.12096 0.0
O52 O 0.55073 0.03377 0.0974 0.0
C53 C 0.51789 0.01948 0.05573 0.0
C54 C 0.54996 0.03463 0.11336 0.0
O55 O 0.47021 0.96632 0.09898 0.0
Mg56 Mg 0.2473 0.73625 0.14977 0.0
O57 O 0.20567 0.77217 0.14825 0.0
O58 O 0.15937 0.74879 0.15611 0.0
Mg59 Mg 0.17198 0.69643 0.16314 0.0
C60 C 0.17528 0.77335 0.15096 0.0
C61 C 0.29042 0.78818 0.13175 0.0
O62 O 0.27673 0.77437 0.11879 0.0
O63 O 0.24724 0.74197 0.17814 0.0
O64 O 0.20152 0.716 0.18497 0.0
O65 O 0.23476 0.71843 0.12397 0.0
O66 O 0.21533 0.69788 0.14734 0.0
C67 C 0.22701 0.73165 0.18901 0.0
C68 C 0.21564 0.69818 0.13137 0.0
O69 O 0.28329 0.77812 0.14629 0.0
Mg70 Mg 0.5192 0.00206 0.39524 0.0
O71 O 0.48266 0.96058 0.39521 0.0
O72 O 0.50662 0.91483 0.40342 0.0
Mg73 Mg 0.55952 0.92761 0.40916 0.0
C74 C 0.48167 0.93038 0.39853 0.0
C75 C 0.45991 0.0394 0.3794 0.0
O76 O 0.46418 0.01777 0.3676 0.0
O77 O 0.51536 0.00392 0.42364 0.0
O78 O 0.54144 0.95854 0.4308 0.0
O79 O 0.53498 0.98787 0.36931 0.0
O80 O 0.55692 0.96974 0.39263 0.0
C81 C 0.52618 0.98434 0.43465 0.0
C82 C 0.5556 0.96913 0.37667 0.0
O83 O 0.47813 0.03877 0.39218 0.0
Mg84 Mg 0.25701 0.2622 0.64241 0.0
O85 O 0.29709 0.22411 0.64346 0.0
O86 O 0.34323 0.24728 0.65185 0.0
Mg87 Mg 0.33249 0.30091 0.65639 0.0
C88 C 0.32709 0.22248 0.64721 0.0
C89 C 0.19205 0.23063 0.63262 0.0
O90 O 0.18726 0.26129 0.62904 0.0
O91 O 0.25393 0.26036 0.67084 0.0
O92 O 0.29981 0.28564 0.67803 0.0
O93 O 0.27183 0.27512 0.61636 0.0
O94 O 0.2915 0.29806 0.63916 0.0
C95 C 0.27334 0.27147 0.68187 0.0
C96 C 0.29212 0.2949 0.62325 0.0
O97 O 0.21896 0.22236 0.639 0.0
Mg98 Mg 0.98871 0.00235 0.89399 0.0
O99 O 0.02395 0.04485 0.89359 0.0
O100 O 0.99918 0.09007 0.90191 0.0
Mg101 Mg 0.9469 0.0758 0.90824 0.0
C102 C 0.02431 0.0751 0.8968 0.0
C103 C 0.03978 0.95819 0.87601 0.0
O104 O 0.02425 0.96954 0.86298 0.0
O105 O 0.99335 1.00053 0.92238 0.0
O106 O 0.96643 0.04531 0.92972 0.0
O107 O 0.97181 0.01629 0.86822 0.0
O108 O 0.94989 0.03364 0.89169 0.0
C109 C 0.98238 0.01988 0.93347 0.0
C110 C 0.95089 0.03445 0.87573 0.0
O111 O 0.03116 0.96727 0.89049 0.0
Mg112 Mg 0.757 0.7342 0.6447 0.0
O113 O 0.79919 0.76966 0.64468 0.0
O114 O 0.84455 0.74561 0.65329 0.0
Mg115 Mg 0.8304 0.69321 0.65954 0.0
C116 C 0.82932 0.77052 0.64809 0.0
C117 C 0.70725 0.7805 0.62727 0.0
O118 O 0.71194 0.75956 0.61519 0.0
O119 O 0.75438 0.73897 0.67301 0.0
O120 O 0.79924 0.71268 0.6808 0.0
O121 O 0.77172 0.71748 0.61905 0.0
O122 O 0.78864 0.69565 0.64264 0.0
C123 C 0.77352 0.7284 0.68429 0.0
C124 C 0.78987 0.69669 0.62668 0.0
O125 O 0.72221 0.7767 0.64098 0.0
Mg126 Mg 0.01638 0.00285 0.39502 0.0
O127 O 0.98013 0.04433 0.39488 0.0
O128 O 0.00365 0.09018 0.40333 0.0
Mg129 Mg 0.05629 0.07727 0.40957 0.0
C130 C 0.97892 0.0745 0.39822 0.0
C131 C 0.98163 0.93675 0.39019 0.0
O132 O 0.01159 0.92753 0.3929 0.0
O133 O 0.01141 1.00035 0.42345 0.0
O134 O 0.03736 0.04579 0.43079 0.0
O135 O 0.03301 0.01762 0.36936 0.0
O136 O 0.0544 0.03524 0.39294 0.0
C137 C 0.022 0.01995 0.43455 0.0
C138 C 0.05345 0.03624 0.37697 0.0
O139 O 0.97505 0.9668 0.39061 0.0
Mg140 Mg 0.74816 0.26353 0.14495 0.0
O141 O 0.70533 0.22876 0.14476 0.0
O142 O 0.66027 0.25386 0.153 0.0
Mg143 Mg 0.67512 0.30607 0.15919 0.0
C144 C 0.6751 0.22858 0.14798 0.0
C145 C 0.79885 0.2185 0.12783 0.0
O146 O 0.79565 0.24121 0.11649 0.0
O147 O 0.75014 0.25895 0.17336 0.0
O148 O 0.70555 0.28628 0.1806 0.0
O149 O 0.73414 0.28036 0.11919 0.0
O150 O 0.71725 0.30267 0.14266 0.0
C151 C 0.73083 0.27015 0.18441 0.0
C152 C 0.71628 0.30155 0.1267 0.0
O153 O 0.7825 0.22058 0.14122 0.0
Mg154 Mg 0.48234 0.9995 0.8947 0.0
O155 O 0.51928 0.95857 0.89423 0.0
O156 O 0.49628 0.91235 0.90255 0.0
Mg157 Mg 0.44346 0.92429 0.90884 0.0
C158 C 0.52081 0.92836 0.89744 0.0
C159 C 0.54079 0.03705 0.8783 0.0
O160 O 0.5359 0.01533 0.86661 0.0
O161 O 0.48694 0.00128 0.92308 0.0
O162 O 0.46169 0.95545 0.93039 0.0
O163 O 0.46598 0.98515 0.86888 0.0
O164 O 0.44492 0.96658 0.89233 0.0
C165 C 0.47668 0.98149 0.93416 0.0
C166 C 0.44588 0.96597 0.87637 0.0
O167 O 0.5231 0.03658 0.89128 0.0
Mg168 Mg 0.75263 0.26333 0.84668 0.0
O169 O 0.79529 0.22847 0.84614 0.0
O170 O 0.84031 0.25408 0.83814 0.0
Mg171 Mg 0.82562 0.30666 0.83283 0.0
C172 C 0.82548 0.2285 0.8428 0.0
C173 C 0.70253 0.21703 0.86345 0.0
O174 O 0.7069 0.23847 0.87533 0.0
O175 O 0.7503 0.26052 0.81823 0.0
O176 O 0.79484 0.28826 0.81119 0.0
O177 O 0.76707 0.27851 0.87266 0.0
O178 O 0.78378 0.3022 0.8495 0.0
C179 C 0.76944 0.27237 0.80726 0.0
C180 C 0.78497 0.30009 0.86543 0.0
O181 O 0.71799 0.2203 0.84984 0.0
Mg182 Mg 0.48635 0.99648 0.59539 0.0
O183 O 0.52196 0.03874 0.59681 0.0
O184 O 0.49738 0.08442 0.58899 0.0
Mg185 Mg 0.44513 0.0709 0.58224 0.0
C186 C 0.5224 0.06916 0.59402 0.0
C187 C 0.54558 0.95951 0.61132 0.0
O188 O 0.5402 0.98029 0.6234 0.0
O189 O 0.49174 0.99682 0.56709 0.0
O190 O 0.46504 0.04202 0.56024 0.0
O191 O 0.46897 0.00823 0.62131 0.0
O192 O 0.44777 0.02771 0.59809 0.0
C193 C 0.48115 0.01683 0.55622 0.0
C194 C 0.44832 0.02711 0.61406 0.0
O195 O 0.52801 0.96052 0.59832 0.0
Mg196 Mg 0.75058 0.73707 0.34783 0.0
O197 O 0.70865 0.77295 0.34741 0.0
O198 O 0.6634 0.74831 0.33892 0.0
Mg199 Mg 0.67703 0.69564 0.33326 0.0
C200 C 0.67853 0.77351 0.34388 0.0
C201 C 0.81367 0.77126 0.35837 0.0
O202 O 0.81983 0.74065 0.36148 0.0
O203 O 0.75369 0.7411 0.31937 0.0
O204 O 0.70878 0.71422 0.31208 0.0
O205 O 0.7355 0.72115 0.37357 0.0
O206 O 0.71855 0.69882 0.35011 0.0
C207 C 0.73447 0.72978 0.30829 0.0
C208 C 0.7172 0.70029 0.36606 0.0
O209 O 0.78639 0.77867 0.35211 0.0
Mg210 Mg 0.01581 0.99953 0.09461 0.0
O211 O 0.97856 0.95874 0.09517 0.0
O212 O 0.00135 0.91243 0.08692 0.0
Mg213 Mg 0.05424 0.92413 0.0806 0.0
C214 C 0.9769 0.92851 0.09201 0.0
C215 C 0.95717 0.0367 0.11081 0.0
O216 O 0.96122 0.01413 0.12215 0.0
O217 O 0.01121 0.00117 0.06623 0.0
O218 O 0.03625 0.95525 0.059 0.0
O219 O 0.03206 0.98544 0.12045 0.0
O220 O 0.05299 0.96646 0.09707 0.0
C221 C 0.0214 0.98131 0.05518 0.0
C222 C 0.05202 0.96605 0.11304 0.0
O223 O 0.97542 0.03687 0.09804 0.0
Mg224 Mg 0.74907 0.7678 0.84484 0.0
O225 O 0.70802 0.73089 0.84522 0.0
O226 O 0.66207 0.75368 0.83649 0.0
Mg227 Mg 0.67437 0.80638 0.82999 0.0
C228 C 0.6779 0.72925 0.84182 0.0
C229 C 0.78723 0.71081 0.86211 0.0
O230 O 0.76674 0.71741 0.87416 0.0
O231 O 0.75151 0.76257 0.81653 0.0
O232 O 0.70596 0.78763 0.80874 0.0
O233 O 0.73426 0.78472 0.87047 0.0
O234 O 0.71622 0.80529 0.84681 0.0
C235 C 0.73205 0.77253 0.80525 0.0
C236 C 0.71529 0.80469 0.86278 0.0
O237 O 0.78581 0.72698 0.84864 0.0
Mg238 Mg 0.48707 0.49944 0.09592 0.0
O239 O 0.52232 0.45703 0.09603 0.0
O240 O 0.49728 0.41178 0.08785 0.0
Mg241 Mg 0.44485 0.42587 0.0819 0.0
C242 C 0.52257 0.42679 0.09278 0.0
C243 C 0.54082 0.54116 0.11364 0.0
O244 O 0.52811 0.5268 0.12671 0.0
O245 O 0.49117 0.50123 0.06748 0.0
O246 O 0.46399 0.4564 0.06035 0.0
O247 O 0.47065 0.48537 0.12178 0.0
O248 O 0.44835 0.46798 0.09842 0.0
C249 C 0.47991 0.48182 0.05648 0.0
C250 C 0.44966 0.46708 0.11438 0.0
O251 O 0.52955 0.53476 0.09925 0.0
Mg252 Mg 0.75226 0.23436 0.34496 0.0
O253 O 0.79332 0.2713 0.34566 0.0
O254 O 0.8396 0.24801 0.33774 0.0
Mg255 Mg 0.82764 0.19509 0.33157 0.0
C256 C 0.82362 0.27267 0.34265 0.0
C257 C 0.71386 0.29222 0.36112 0.0
O258 O 0.73474 0.28677 0.37314 0.0
O259 O 0.75144 0.23856 0.31656 0.0
O260 O 0.79727 0.213 0.30968 0.0
O261 O 0.76561 0.21831 0.37094 0.0
O262 O 0.78489 0.19692 0.34773 0.0
C263 C 0.77144 0.22804 0.30566 0.0
C264 C 0.78492 0.19806 0.3637 0.0
O265 O 0.71519 0.27513 0.34795 0.0
Mg266 Mg 0.01935 0.49762 0.59546 0.0
O267 O 0.98323 0.53928 0.59584 0.0
O268 O 0.00756 0.58526 0.58817 0.0
Mg269 Mg 0.06036 0.57244 0.5823 0.0
C270 C 0.98249 0.56962 0.59287 0.0
C271 C 0.96003 0.46056 0.61129 0.0
O272 O 0.96527 0.48187 0.62315 0.0
O273 O 0.01571 0.49686 0.567 0.0
O274 O 0.04217 0.5424 0.56035 0.0
O275 O 0.03492 0.51105 0.62154 0.0
O276 O 0.05732 0.52975 0.59845 0.0
C277 C 0.02676 0.51683 0.5562 0.0
C278 C 0.05564 0.53007 0.6144 0.0
O279 O 0.97775 0.46114 0.59832 0.0
Mg280 Mg 0.74593 0.23745 0.64645 0.0
O281 O 0.70362 0.27271 0.64616 0.0
O282 O 0.65821 0.2482 0.65448 0.0
Mg283 Mg 0.67218 0.19585 0.66077 0.0
C284 C 0.6734 0.27327 0.6494 0.0
C285 C 0.79636 0.28316 0.62902 0.0
O286 O 0.79183 0.26165 0.61719 0.0
O287 O 0.74782 0.24231 0.67488 0.0
O288 O 0.70288 0.21544 0.68212 0.0
O289 O 0.73163 0.22018 0.62072 0.0
O290 O 0.71441 0.19862 0.64429 0.0
C291 C 0.72833 0.23135 0.68593 0.0
C292 C 0.71348 0.19932 0.62834 0.0
O293 O 0.78098 0.28005 0.64267 0.0
Mg294 Mg 0.01331 0.50015 0.89478 0.0
O295 O 0.97795 0.45783 0.89531 0.0
O296 O 0.00274 0.4126 0.90356 0.0
Mg297 Mg 0.05537 0.42685 0.90911 0.0
C298 C 0.97747 0.42768 0.89873 0.0
C299 C 0.96506 0.54737 0.87712 0.0
O300 O 0.9839 0.53964 0.86456 0.0
O301 O 0.00998 0.50291 0.9232 0.0
O302 O 0.03693 0.45814 0.93053 0.0
O303 O 0.02887 0.48521 0.86894 0.0
O304 O 0.05183 0.46852 0.89226 0.0
C305 C 0.02133 0.48378 0.93429 0.0
C306 C 0.05003 0.46715 0.87633 0.0
O307 O 0.97071 0.53509 0.89137 0.0
Mg308 Mg 0.75345 0.76584 0.1476 0.0
O309 O 0.79554 0.73029 0.14653 0.0
O310 O 0.84137 0.75466 0.15434 0.0
Mg311 Mg 0.82809 0.80709 0.16083 0.0
C312 C 0.82591 0.72967 0.14938 0.0
C313 C 0.71151 0.71214 0.13009 0.0
O314 O 0.72616 0.72451 0.11703 0.0
O315 O 0.75332 0.761 0.17602 0.0
O316 O 0.79862 0.78779 0.18275 0.0
O317 O 0.766 0.78295 0.12167 0.0
O318 O 0.78504 0.80445 0.14489 0.0
C319 C 0.77331 0.77189 0.18685 0.0
C320 C 0.78489 0.80362 0.12892 0.0
O321 O 0.71774 0.72363 0.14445 0.0
Mg322 Mg 0.48729 0.50168 0.39606 0.0
O323 O 0.52264 0.54395 0.39615 0.0
O324 O 0.4983 0.58935 0.4045 0.0
Mg325 Mg 0.44582 0.57519 0.41053 0.0
C326 C 0.52335 0.57413 0.39948 0.0
C327 C 0.53402 0.45258 0.37852 0.0
O328 O 0.51346 0.45801 0.36635 0.0
O329 O 0.49161 0.49921 0.42447 0.0
O330 O 0.46491 0.54409 0.43186 0.0
O331 O 0.47093 0.51645 0.37031 0.0
O332 O 0.44868 0.53328 0.39379 0.0
C333 C 0.48061 0.51849 0.43559 0.0
C334 C 0.44999 0.53456 0.37784 0.0
O335 O 0.52987 0.46686 0.3924 0.0
Mg336 Mg 0.25141 0.23697 0.14662 0.0
O337 O 0.29342 0.2727 0.14573 0.0
O338 O 0.33923 0.24871 0.15377 0.0
Mg339 Mg 0.32592 0.19624 0.16028 0.0
C340 C 0.32373 0.27357 0.14872 0.0
C341 C 0.21049 0.29083 0.12878 0.0
O342 O 0.22608 0.27889 0.11591 0.0
O343 O 0.25065 0.24207 0.17501 0.0
O344 O 0.29594 0.21561 0.18196 0.0
O345 O 0.26456 0.21962 0.12079 0.0
O346 O 0.28306 0.19846 0.14421 0.0
C347 C 0.27052 0.23136 0.18593 0.0
C348 C 0.28321 0.19904 0.12824 0.0
O349 O 0.21577 0.279 0.14316 0.0
Mg350 Mg 0.51728 0.50269 0.89589 0.0
O351 O 0.48083 0.54411 0.89536 0.0
O352 O 0.50461 0.5901 0.90343 0.0
Mg353 Mg 0.55735 0.5776 0.9096 0.0
C354 C 0.47978 0.57438 0.89847 0.0
C355 C 0.4586 0.46588 0.87952 0.0
O356 O 0.46377 0.48786 0.86798 0.0
O357 O 0.51282 0.50146 0.9243 0.0
O358 O 0.53886 0.54703 0.9313 0.0
O359 O 0.53365 0.51633 0.86998 0.0
O360 O 0.5551 0.53509 0.89329 0.0
C361 C 0.5235 0.52131 0.93525 0.0
C362 C 0.55405 0.5354 0.87733 0.0
O363 O 0.47614 0.46596 0.89255 0.0
Mg364 Mg 0.24706 0.7657 0.64548 0.0
O365 O 0.20602 0.72885 0.64496 0.0
O366 O 0.15967 0.75183 0.65294 0.0
Mg367 Mg 0.17176 0.80481 0.65903 0.0
C368 C 0.17577 0.72725 0.64804 0.0
C369 C 0.28462 0.70705 0.62948 0.0
O370 O 0.26349 0.71215 0.61753 0.0
O371 O 0.24812 0.76143 0.67384 0.0
O372 O 0.20229 0.78683 0.68089 0.0
O373 O 0.2336 0.78185 0.61954 0.0
O374 O 0.21452 0.80321 0.64282 0.0
C375 C 0.22819 0.77181 0.68481 0.0
C376 C 0.21451 0.80222 0.62685 0.0
O377 O 0.2838 0.72473 0.64245 0.0
Mg378 Mg 0.98642 0.49929 0.39538 0.0
O379 O 0.02211 0.45717 0.3951 0.0
O380 O 0.99757 0.41178 0.40349 0.0
Mg381 Mg 0.94519 0.42541 0.40977 0.0
C382 C 0.02265 0.42695 0.39841 0.0
C383 C 0.02132 0.56052 0.38274 0.0
O384 O 0.99138 0.56481 0.37769 0.0
O385 O 0.99168 0.50137 0.42382 0.0
O386 O 0.96486 0.45633 0.43099 0.0
O387 O 0.9693 0.48507 0.3697 0.0
O388 O 0.94791 0.46745 0.39324 0.0
C389 C 0.98075 0.48178 0.43485 0.0
C390 C 0.94869 0.46659 0.37728 0.0
O391 O 0.02805 0.5351 0.39098 0.0
Mg392 Mg 0.25265 0.76636 0.34996 0.0
O393 O 0.29436 0.7303 0.34961 0.0
O394 O 0.33975 0.7542 0.34082 0.0
Mg395 Mg 0.3264 0.80688 0.3349 0.0
C396 C 0.3244 0.7293 0.34599 0.0
C397 C 0.18694 0.72924 0.35202 0.0
O398 O 0.17738 0.75747 0.34632 0.0
O399 O 0.24913 0.76177 0.32151 0.0
O400 O 0.29417 0.78818 0.31397 0.0
O401 O 0.2683 0.78309 0.37554 0.0
O402 O 0.28489 0.80459 0.35182 0.0
C403 C 0.26832 0.77277 0.31032 0.0
C404 C 0.28645 0.80372 0.36776 0.0
O405 O 0.21698 0.72468 0.35453 0.0
Mg406 Mg 0.98633 0.5028 0.09543 0.0
O407 O 0.02207 0.5448 0.09634 0.0
O408 O 0.99819 0.59052 0.08805 0.0
Mg409 Mg 0.94592 0.57712 0.08125 0.0
C410 C 0.02295 0.5751 0.09328 0.0
C411 C 0.03986 0.46175 0.11357 0.0
O412 O 0.02776 0.47725 0.12642 0.0
O413 O 0.99189 0.50155 0.06707 0.0
O414 O 0.9657 0.5468 0.05979 0.0
O415 O 0.96873 0.51642 0.12113 0.0
O416 O 0.94785 0.53458 0.09757 0.0
C417 C 0.98147 0.52127 0.05601 0.0
C418 C 0.94834 0.53507 0.11354 0.0
O419 O 0.02825 0.46714 0.09914 0.0
Mg420 Mg 0.24955 0.23971 0.8432 0.0
O421 O 0.20716 0.27483 0.84373 0.0
O422 O 0.16178 0.25057 0.83519 0.0
Mg423 Mg 0.17603 0.19854 0.82838 0.0
C424 C 0.17694 0.27547 0.84051 0.0
C425 C 0.29912 0.28507 0.86127 0.0
O426 O 0.29421 0.26321 0.87289 0.0
O427 O 0.25176 0.24549 0.81482 0.0
O428 O 0.20683 0.21897 0.80723 0.0
O429 O 0.23519 0.22193 0.86875 0.0
O430 O 0.21808 0.20077 0.84504 0.0
C431 C 0.23234 0.235 0.80362 0.0
C432 C 0.21704 0.20126 0.86101 0.0
O433 O 0.28433 0.28228 0.84744 0.0
Mg434 Mg 0.51354 0.49954 0.5967 0.0
O435 O 0.48182 0.45426 0.59572 0.0
O436 O 0.5116 0.41152 0.58825 0.0
Mg437 Mg 0.5626 0.43058 0.58272 0.0
C438 C 0.48467 0.4241 0.5926 0.0
C439 C 0.46398 0.54592 0.61348 0.0
O440 O 0.48535 0.54234 0.62545 0.0
O441 O 0.51081 0.50219 0.5683 0.0
O442 O 0.54137 0.45973 0.56112 0.0
O443 O 0.52887 0.48557 0.62267 0.0
O444 O 0.55454 0.47136 0.59964 0.0
C445 C 0.52368 0.48393 0.55727 0.0
C446 C 0.55174 0.46931 0.61553 0.0
O447 O 0.46832 0.53104 0.59978 0.0
H448 H 0.0361 0.36329 0.40597 0.0
H449 H 0.20521 0.36678 0.35954 0.0
H450 H 0.07982 0.4502 0.38614 0.0
H451 H 0.17683 0.28646 0.39057 0.0
H452 H 0.15983 0.39801 0.37024 0.0
H453 H 0.08712 0.33452 0.40123 0.0
C454 C 0.05639 0.37637 0.40069 0.0
C455 C 0.05348 0.40917 0.39627 0.0
C456 C 0.16367 0.37377 0.37497 0.0
C457 C 0.11181 0.37641 0.3909 0.0
C458 C 0.18963 0.356 0.36889 0.0
C459 C 0.19465 0.32417 0.37426 0.0
C460 C 0.14199 0.35934 0.38621 0.0
C461 C 0.17379 0.31113 0.38629 0.0
C462 C 0.08554 0.35996 0.39809 0.0
C463 C 0.0807 0.4249 0.38962 0.0
N464 N 0.1479 0.32863 0.39169 0.0
N465 N 0.10854 0.40831 0.38702 0.0
H466 H 0.888 0.95187 0.60712 0.0
H467 H 0.89288 0.78502 0.65557 0.0
H468 H 0.96702 0.92788 0.63991 0.0
H469 H 0.80556 0.82697 0.63538 0.0
H470 H 0.92114 0.8363 0.65032 0.0
H471 H 0.85758 0.9059 0.61786 0.0
C472 C 0.89868 0.93709 0.61683 0.0
C473 C 0.92991 0.94356 0.62271 0.0
C474 C 0.89572 0.83425 0.64722 0.0
C475 C 0.89566 0.89029 0.63477 0.0
C476 C 0.87961 0.80496 0.65011 0.0
C477 C 0.84685 0.80149 0.64574 0.0
C478 C 0.87899 0.86003 0.63977 0.0
C479 C 0.83085 0.82828 0.63884 0.0
C480 C 0.88136 0.91082 0.62295 0.0
C481 C 0.94281 0.92371 0.63522 0.0
N482 N 0.84713 0.85622 0.63595 0.0
N483 N 0.92579 0.8975 0.64068 0.0
H484 H 0.46475 0.6375 0.90638 0.0
H485 H 0.30017 0.634 0.85614 0.0
H486 H 0.42377 0.55051 0.88515 0.0
H487 H 0.32273 0.71171 0.89005 0.0
H488 H 0.34545 0.60307 0.86718 0.0
H489 H 0.41362 0.66563 0.90093 0.0
C490 C 0.44503 0.62426 0.90065 0.0
C491 C 0.44874 0.59165 0.89605 0.0
C492 C 0.34034 0.62666 0.87245 0.0
C493 C 0.39034 0.62368 0.88984 0.0
C494 C 0.31447 0.64427 0.86615 0.0
C495 C 0.30783 0.6753 0.87225 0.0
C496 C 0.36031 0.64048 0.88468 0.0
C497 C 0.32705 0.68768 0.88517 0.0
C498 C 0.41582 0.6403 0.89765 0.0
C499 C 0.42223 0.57569 0.88881 0.0
N500 N 0.3529 0.67039 0.8908 0.0
N501 N 0.39435 0.59193 0.8858 0.0
H502 H 0.61156 0.04982 0.10605 0.0
H503 H 0.61132 0.21537 0.15555 0.0
H504 H 0.53408 0.07413 0.13974 0.0
H505 H 0.69755 0.17176 0.13505 0.0
H506 H 0.58187 0.16483 0.15015 0.0
H507 H 0.64319 0.09484 0.11693 0.0
C508 C 0.60148 0.06446 0.11598 0.0
C509 C 0.57034 0.05836 0.12207 0.0
C510 C 0.60732 0.16634 0.14702 0.0
C511 C 0.60598 0.11056 0.13431 0.0
C512 C 0.62411 0.19521 0.14999 0.0
C513 C 0.65692 0.198 0.14558 0.0
C514 C 0.6234 0.1403 0.13943 0.0
C515 C 0.67227 0.17095 0.13856 0.0
C516 C 0.61949 0.09018 0.12218 0.0
C517 C 0.55821 0.07802 0.13487 0.0
N518 N 0.65532 0.14344 0.13557 0.0
N519 N 0.57591 0.10372 0.14041 0.0
H520 H 0.19847 0.63721 0.13906 0.0
H521 H 0.03794 0.63841 0.08561 0.0
H522 H 0.17909 0.71349 0.10381 0.0
H523 H 0.0783 0.55184 0.10748 0.0
H524 H 0.08846 0.66711 0.09194 0.0
H525 H 0.15404 0.60584 0.12735 0.0
C526 C 0.18505 0.64708 0.12864 0.0
C527 C 0.19233 0.67783 0.12234 0.0
C528 C 0.08627 0.64174 0.09516 0.0
C529 C 0.14085 0.6425 0.10912 0.0
C530 C 0.0574 0.62539 0.09166 0.0
C531 C 0.05367 0.59272 0.09618 0.0
C532 C 0.11135 0.62539 0.10341 0.0
C533 C 0.07985 0.57704 0.10386 0.0
C534 C 0.15968 0.62921 0.12195 0.0
C535 C 0.17425 0.68968 0.10888 0.0
N536 N 0.10737 0.5936 0.10736 0.0
N537 N 0.14885 0.67216 0.10285 0.0
H538 H 0.61812 0.95592 0.38254 0.0
H539 H 0.61487 0.7868 0.33625 0.0
H540 H 0.53802 0.92786 0.35132 0.0
H541 H 0.70184 0.83104 0.35567 0.0
H542 H 0.58603 0.83784 0.34086 0.0
H543 H 0.64937 0.91059 0.37182 0.0
C544 C 0.60739 0.94041 0.37314 0.0
C545 C 0.57563 0.94552 0.36772 0.0
C546 C 0.6115 0.83637 0.34393 0.0
C547 C 0.61082 0.89291 0.35573 0.0
C548 C 0.62796 0.80721 0.3414 0.0
C549 C 0.66078 0.80443 0.34576 0.0
C550 C 0.62794 0.86277 0.351 0.0
C551 C 0.67651 0.83181 0.35224 0.0
C552 C 0.62518 0.91448 0.36704 0.0
C553 C 0.56264 0.92475 0.35564 0.0
N554 N 0.65989 0.85964 0.35479 0.0
N555 N 0.58015 0.89887 0.35021 0.0
H556 H 0.29061 0.35488 0.60982 0.0
H557 H 0.48159 0.35764 0.59298 0.0
H558 H 0.35202 0.27177 0.61647 0.0
H559 H 0.42156 0.44298 0.5956 0.0
H560 H 0.4333 0.32406 0.59682 0.0
H561 H 0.33713 0.38554 0.59927 0.0
C562 C 0.31383 0.34295 0.60862 0.0
C563 C 0.31773 0.31087 0.61374 0.0
C564 C 0.43074 0.35013 0.59645 0.0
C565 C 0.37104 0.34571 0.60228 0.0
C566 C 0.45828 0.36932 0.59425 0.0
C567 C 0.4557 0.40321 0.59414 0.0
C568 C 0.4004 0.36494 0.59843 0.0
C569 C 0.42482 0.41699 0.5958 0.0
C570 C 0.34039 0.36044 0.60276 0.0
C571 C 0.34823 0.29644 0.61237 0.0
N572 N 0.39844 0.39781 0.59793 0.0
N573 N 0.3739 0.31407 0.60686 0.0
H574 H 0.88854 0.04774 0.88218 0.0
H575 H 0.88945 0.21615 0.83539 0.0
H576 H 0.96747 0.07536 0.85006 0.0
H577 H 0.8028 0.17059 0.85437 0.0
H578 H 0.91895 0.16549 0.84012 0.0
H579 H 0.85675 0.0927 0.87144 0.0
C580 C 0.8989 0.06308 0.8726 0.0
C581 C 0.93049 0.05795 0.86692 0.0
C582 C 0.8934 0.16659 0.84305 0.0
C583 C 0.89468 0.1101 0.85489 0.0
C584 C 0.87658 0.19553 0.84046 0.0
C585 C 0.84364 0.19782 0.84468 0.0
C586 C 0.87722 0.13996 0.85006 0.0
C587 C 0.82819 0.17019 0.85106 0.0
C588 C 0.8808 0.08877 0.86648 0.0
C589 C 0.94299 0.07849 0.85459 0.0
N590 N 0.84516 0.1426 0.85369 0.0
N591 N 0.9252 0.10416 0.84915 0.0
H592 H 0.92623 0.54598 0.606 0.0
H593 H 0.82731 0.71186 0.59938 0.0
H594 H 0.96788 0.63283 0.58495 0.0
H595 H 0.80719 0.63595 0.63479 0.0
H596 H 0.87281 0.67953 0.58849 0.0
H597 H 0.87618 0.57531 0.61108 0.0
C598 C 0.92486 0.57119 0.60236 0.0
C599 C 0.95154 0.58705 0.59522 0.0
C600 C 0.85807 0.6699 0.59848 0.0
C601 C 0.89401 0.62077 0.60098 0.0
C602 C 0.83206 0.68814 0.60457 0.0
C603 C 0.81374 0.67645 0.61799 0.0
C604 C 0.86511 0.63972 0.60574 0.0
C605 C 0.82094 0.64583 0.62448 0.0
C606 C 0.89622 0.58792 0.60528 0.0
C607 C 0.94807 0.61973 0.59066 0.0
N608 N 0.84607 0.62856 0.61832 0.0
N609 N 0.91984 0.6356 0.59369 0.0
H610 H 0.11284 0.21887 0.33631 0.0
H611 H 0.11535 0.05107 0.38373 0.0
H612 H 0.19992 0.17446 0.35535 0.0
H613 H 0.03644 0.07679 0.35122 0.0
H614 H 0.14649 0.09659 0.37301 0.0
H615 H 0.0837 0.168 0.34135 0.0
C616 C 0.12588 0.19847 0.34146 0.0
C617 C 0.15884 0.20114 0.34558 0.0
C618 C 0.12259 0.09214 0.36798 0.0
C619 C 0.12569 0.14306 0.35132 0.0
C620 C 0.10486 0.06613 0.37408 0.0
C621 C 0.07347 0.06027 0.36827 0.0
C622 C 0.10853 0.11305 0.35626 0.0
C623 C 0.06078 0.08048 0.35586 0.0
C624 C 0.10926 0.16942 0.34424 0.0
C625 C 0.17451 0.17378 0.35209 0.0
N626 N 0.07821 0.10645 0.35042 0.0
N627 N 0.15774 0.14609 0.35489 0.0
H628 H 0.53574 0.36318 0.08498 0.0
H629 H 0.70223 0.36359 0.13363 0.0
H630 H 0.57958 0.4494 0.10552 0.0
H631 H 0.67623 0.28556 0.10056 0.0
H632 H 0.65738 0.39541 0.12281 0.0
H633 H 0.58633 0.33386 0.09009 0.0
C634 C 0.55597 0.376 0.09049 0.0
C635 C 0.55322 0.40876 0.095 0.0
C636 C 0.66164 0.37156 0.11767 0.0
C637 C 0.61102 0.37537 0.10081 0.0
C638 C 0.68727 0.35343 0.12384 0.0
C639 C 0.69282 0.32206 0.11792 0.0
C640 C 0.64081 0.35793 0.10577 0.0
C641 C 0.67277 0.30984 0.1053 0.0
C642 C 0.58488 0.35928 0.09329 0.0
C643 C 0.58036 0.42415 0.10194 0.0
N644 N 0.64717 0.32766 0.0998 0.0
N645 N 0.60793 0.40726 0.10476 0.0
H646 H 0.46255 0.92839 0.84935 0.0
H647 H 0.2984 0.82603 0.85566 0.0
H648 H 0.38511 0.94796 0.88391 0.0
H649 H 0.38608 0.7861 0.83478 0.0
H650 H 0.32671 0.87674 0.86067 0.0
H651 H 0.43136 0.88194 0.83849 0.0
C652 C 0.43871 0.92333 0.85434 0.0
C653 C 0.42625 0.94178 0.86752 0.0
C654 C 0.33975 0.85693 0.85493 0.0
C655 C 0.39086 0.8893 0.85533 0.0
C656 C 0.3236 0.82789 0.85206 0.0
C657 C 0.33997 0.80152 0.84497 0.0
C658 C 0.37255 0.85986 0.85065 0.0
C659 C 0.3726 0.80566 0.84045 0.0
C660 C 0.42113 0.89678 0.84828 0.0
C661 C 0.39554 0.93415 0.87377 0.0
N662 N 0.38791 0.83428 0.84344 0.0
N663 N 0.37894 0.90849 0.86765 0.0
H664 H 0.91987 0.45128 0.88736 0.0
H665 H 0.8244 0.28282 0.89161 0.0
H666 H 0.96424 0.36366 0.90581 0.0
H667 H 0.79988 0.36224 0.85915 0.0
H668 H 0.86996 0.31503 0.90265 0.0
H669 H 0.86987 0.42156 0.88276 0.0
C670 C 0.91914 0.42579 0.89052 0.0
C671 C 0.94656 0.40987 0.89677 0.0
C672 C 0.85422 0.32546 0.8933 0.0
C673 C 0.88902 0.37566 0.89153 0.0
C674 C 0.82817 0.30727 0.88714 0.0
C675 C 0.8086 0.32003 0.87448 0.0
C676 C 0.86007 0.3566 0.88687 0.0
C677 C 0.81459 0.35157 0.86887 0.0
C678 C 0.89049 0.40884 0.88789 0.0
C679 C 0.94383 0.37684 0.90079 0.0
N680 N 0.8398 0.36873 0.87507 0.0
N681 N 0.91558 0.36072 0.898 0.0
H682 H 0.38954 0.20709 0.65606 0.0
H683 H 0.38612 0.04104 0.60753 0.0
H684 H 0.30252 0.1656 0.63516 0.0
H685 H 0.46438 0.06578 0.64068 0.0
H686 H 0.35447 0.08566 0.61877 0.0
H687 H 0.41721 0.15543 0.65166 0.0
C688 C 0.37617 0.18712 0.65065 0.0
C689 C 0.34374 0.19089 0.64575 0.0
C690 C 0.37831 0.08113 0.62386 0.0
C691 C 0.37529 0.13181 0.64074 0.0
C692 C 0.39633 0.05563 0.61745 0.0
C693 C 0.42774 0.04989 0.62324 0.0
C694 C 0.39215 0.10165 0.63584 0.0
C695 C 0.44006 0.06944 0.63603 0.0
C696 C 0.39196 0.15759 0.64825 0.0
C697 C 0.32759 0.16403 0.63898 0.0
N698 N 0.4224 0.09497 0.64173 0.0
N699 N 0.34363 0.13581 0.63651 0.0
H700 H 0.67876 0.71679 0.39277 0.0
H701 H 0.58001 0.55046 0.38699 0.0
H702 H 0.70023 0.63914 0.35864 0.0
H703 H 0.53759 0.63777 0.40697 0.0
H704 H 0.63013 0.57976 0.38209 0.0
H705 H 0.63272 0.68496 0.40358 0.0
C706 C 0.67419 0.6928 0.38786 0.0
C707 C 0.69307 0.68044 0.37482 0.0
C708 C 0.60991 0.59251 0.38761 0.0
C709 C 0.64108 0.64431 0.38696 0.0
C710 C 0.5812 0.57579 0.39042 0.0
C711 C 0.55428 0.59175 0.39721 0.0
C712 C 0.61198 0.62548 0.39164 0.0
C713 C 0.55758 0.62458 0.40153 0.0
C714 C 0.64788 0.67484 0.39389 0.0
C715 C 0.68607 0.6495 0.36866 0.0
N716 N 0.58591 0.64047 0.39859 0.0
N717 N 0.66064 0.63254 0.37476 0.0
H718 H 0.19966 0.828 0.1365 0.0
H719 H 0.03615 0.93101 0.1411 0.0
H720 H 0.11212 0.78942 0.1583 0.0
H721 H 0.11181 0.94588 0.10488 0.0
H722 H 0.0673 0.88538 0.15278 0.0
H723 H 0.17109 0.87794 0.13017 0.0
C724 C 0.17445 0.83002 0.14004 0.0
C725 C 0.15819 0.80423 0.14778 0.0
C726 C 0.07713 0.899 0.14241 0.0
C727 C 0.12534 0.86167 0.14058 0.0
C728 C 0.05956 0.92507 0.13587 0.0
C729 C 0.07153 0.94198 0.12202 0.0
C730 C 0.10693 0.8905 0.13518 0.0
C731 C 0.10173 0.93326 0.11552 0.0
C732 C 0.15815 0.8586 0.1364 0.0
C733 C 0.12552 0.80853 0.15215 0.0
N734 N 0.11836 0.90815 0.12214 0.0
N735 N 0.11007 0.83671 0.14843 0.0
H736 H 0.67923 0.78965 0.89061 0.0
H737 H 0.57586 0.95269 0.88333 0.0
H738 H 0.69577 0.86444 0.85409 0.0
H739 H 0.53723 0.86581 0.90581 0.0
H740 H 0.6263 0.92428 0.87789 0.0
H741 H 0.63326 0.82119 0.9016 0.0
C742 C 0.67359 0.81297 0.88517 0.0
C743 C 0.69106 0.82455 0.87143 0.0
C744 C 0.60684 0.91147 0.88409 0.0
C745 C 0.63916 0.8604 0.88381 0.0
C746 C 0.57797 0.92767 0.88721 0.0
C747 C 0.55203 0.91152 0.89486 0.0
C748 C 0.61002 0.87886 0.8887 0.0
C749 C 0.55645 0.87911 0.89971 0.0
C750 C 0.64732 0.83076 0.89133 0.0
C751 C 0.68271 0.85464 0.86465 0.0
N752 N 0.58489 0.86375 0.89648 0.0
N753 N 0.65736 0.87149 0.87089 0.0
H754 H 0.46577 0.42929 0.1414 0.0
H755 H 0.29999 0.32953 0.13539 0.0
H756 H 0.38853 0.45006 0.10691 0.0
H757 H 0.38708 0.28848 0.15634 0.0
H758 H 0.32908 0.37974 0.13021 0.0
H759 H 0.43386 0.38343 0.15234 0.0
C760 C 0.44183 0.42463 0.13644 0.0
C761 C 0.42963 0.44324 0.12326 0.0
C762 C 0.34182 0.3598 0.13601 0.0
C763 C 0.39342 0.3914 0.13553 0.0
C764 C 0.32523 0.33105 0.13897 0.0
C765 C 0.34119 0.3045 0.14613 0.0
C766 C 0.37466 0.36227 0.14026 0.0
C767 C 0.37389 0.30818 0.15062 0.0
C768 C 0.42383 0.3984 0.14254 0.0
C769 C 0.39877 0.43611 0.11705 0.0
N770 N 0.38964 0.33653 0.14754 0.0
N771 N 0.38177 0.41075 0.12321 0.0
H772 H 0.92253 0.04981 0.38581 0.0
H773 H 0.82253 0.21528 0.3906 0.0
H774 H 0.96386 0.13794 0.40558 0.0
H775 H 0.80178 0.1367 0.35689 0.0
H776 H 0.86842 0.18392 0.40185 0.0
H777 H 0.87204 0.07833 0.38084 0.0
C778 C 0.92102 0.07515 0.38918 0.0
C779 C 0.94774 0.09158 0.39592 0.0
C780 C 0.85342 0.17347 0.39217 0.0
C781 C 0.88965 0.12441 0.39026 0.0
C782 C 0.82719 0.19116 0.3859 0.0
C783 C 0.8086 0.17841 0.37284 0.0
C784 C 0.86043 0.14282 0.38545 0.0
C785 C 0.81572 0.14734 0.36693 0.0
C786 C 0.89211 0.09142 0.38633 0.0
C787 C 0.94403 0.1244 0.40017 0.0
N788 N 0.84108 0.13065 0.37325 0.0
N789 N 0.91553 0.13984 0.39718 0.0
H790 H 0.20142 0.67108 0.63593 0.0
H791 H 0.03703 0.56872 0.64063 0.0
H792 H 0.11244 0.71125 0.65514 0.0
H793 H 0.11735 0.54686 0.60827 0.0
H794 H 0.06751 0.61552 0.65158 0.0
H795 H 0.17377 0.61992 0.63121 0.0
C796 C 0.17607 0.66918 0.63922 0.0
C797 C 0.15916 0.69575 0.64575 0.0
C798 C 0.07855 0.60008 0.64228 0.0
C799 C 0.12731 0.63688 0.64039 0.0
C800 C 0.06136 0.57331 0.63619 0.0
C801 C 0.07486 0.55412 0.62357 0.0
C802 C 0.10943 0.60709 0.63583 0.0
C803 C 0.10616 0.56122 0.61797 0.0
C804 C 0.16029 0.63988 0.63652 0.0
C805 C 0.12635 0.69155 0.6499 0.0
N806 N 0.12234 0.58715 0.6241 0.0
N807 N 0.11141 0.66267 0.64707 0.0
H808 H 0.57804 0.04679 0.60835 0.0
H809 H 0.67614 0.21347 0.60083 0.0
H810 H 0.53681 0.13232 0.58585 0.0
H811 H 0.6966 0.13857 0.63672 0.0
H812 H 0.6309 0.18044 0.59008 0.0
H813 H 0.62765 0.07687 0.61374 0.0
C814 C 0.57941 0.07187 0.60447 0.0
C815 C 0.55299 0.08712 0.5968 0.0
C816 C 0.64566 0.17117 0.60016 0.0
C817 C 0.61002 0.12171 0.60289 0.0
C818 C 0.67153 0.18982 0.60616 0.0
C819 C 0.68989 0.17862 0.61967 0.0
C820 C 0.63875 0.14111 0.6076 0.0
C821 C 0.68284 0.14807 0.62633 0.0
C822 C 0.60779 0.08903 0.60756 0.0
C823 C 0.55641 0.11968 0.59197 0.0
N824 N 0.65784 0.13043 0.62026 0.0
N825 N 0.5844 0.13596 0.59515 0.0
H826 H 0.20027 0.33151 0.85397 0.0
H827 H 0.03378 0.42968 0.84917 0.0
H828 H 0.1133 0.28967 0.83318 0.0
H829 H 0.11099 0.44974 0.88383 0.0
H830 H 0.06574 0.38424 0.8379 0.0
H831 H 0.1707 0.38112 0.85962 0.0
C832 C 0.17496 0.33272 0.85052 0.0
C833 C 0.15918 0.30612 0.84327 0.0
C834 C 0.07572 0.39895 0.84782 0.0
C835 C 0.12514 0.36321 0.8497 0.0
C836 C 0.05769 0.42492 0.85413 0.0
C837 C 0.06988 0.44323 0.86744 0.0
C838 C 0.10618 0.39193 0.85475 0.0
C839 C 0.10073 0.43601 0.87361 0.0
C840 C 0.15809 0.36113 0.85376 0.0
C841 C 0.12636 0.30943 0.83896 0.0
N842 N 0.11778 0.41093 0.86724 0.0
N843 N 0.11033 0.33746 0.84231 0.0
H844 H 0.92185 0.95299 0.10603 0.0
H845 H 0.8199 0.78844 0.10081 0.0
H846 H 0.96045 0.86577 0.08398 0.0
H847 H 0.80341 0.86421 0.13675 0.0
H848 H 0.8649 0.82045 0.08906 0.0
H849 H 0.87157 0.92439 0.11185 0.0
C850 C 0.91976 0.92786 0.10231 0.0
C851 C 0.94567 0.91166 0.09469 0.0
C852 C 0.85104 0.83014 0.09936 0.0
C853 C 0.88788 0.8788 0.1013 0.0
C854 C 0.82531 0.81208 0.10594 0.0
C855 C 0.80819 0.8238 0.11976 0.0
C856 C 0.85902 0.86018 0.10654 0.0
C857 C 0.81624 0.85432 0.12615 0.0
C858 C 0.89099 0.91155 0.10565 0.0
C859 C 0.94127 0.87912 0.09006 0.0
N860 N 0.84109 0.87141 0.11951 0.0
N861 N 0.91294 0.86366 0.09351 0.0
H862 H 0.46642 0.57365 0.35135 0.0
H863 H 0.30052 0.67251 0.35837 0.0
H864 H 0.38863 0.5507 0.38517 0.0
H865 H 0.38765 0.71476 0.33797 0.0
H866 H 0.32948 0.62205 0.36276 0.0
H867 H 0.43454 0.61984 0.34085 0.0
C868 C 0.44237 0.5779 0.35624 0.0
C869 C 0.43 0.55858 0.36912 0.0
C870 C 0.34226 0.64231 0.35726 0.0
C871 C 0.39382 0.61079 0.35735 0.0
C872 C 0.32574 0.67121 0.35475 0.0
C873 C 0.34175 0.69817 0.34799 0.0
C874 C 0.3751 0.6401 0.35298 0.0
C875 C 0.37442 0.69473 0.3434 0.0
C876 C 0.42438 0.60431 0.35039 0.0
C877 C 0.399 0.5652 0.37526 0.0
N878 N 0.39011 0.66624 0.34606 0.0
N879 N 0.38202 0.59076 0.36936 0.0
H880 H 0.46199 0.1377 0.08441 0.0
H881 H 0.29851 0.1375 0.1356 0.0
H882 H 0.41982 0.05161 0.10599 0.0
H883 H 0.32152 0.2145 0.10132 0.0
H884 H 0.34301 0.10574 0.12435 0.0
H885 H 0.41148 0.1668 0.09007 0.0
C886 C 0.44214 0.12486 0.09026 0.0
C887 C 0.44534 0.09221 0.0949 0.0
C888 C 0.33816 0.12934 0.11905 0.0
C889 C 0.38766 0.12535 0.10135 0.0
C890 C 0.31274 0.14744 0.12546 0.0
C891 C 0.30646 0.17851 0.11932 0.0
C892 C 0.35806 0.14271 0.10666 0.0
C893 C 0.32556 0.19044 0.10625 0.0
C894 C 0.41328 0.14145 0.09338 0.0
C895 C 0.41867 0.07678 0.10229 0.0
N896 N 0.351 0.17268 0.1005 0.0
N897 N 0.39116 0.09356 0.10542 0.0
H898 H 0.53801 0.57174 0.84977 0.0
H899 H 0.70235 0.67391 0.85551 0.0
H900 H 0.61473 0.55368 0.88496 0.0
H901 H 0.61505 0.71305 0.83383 0.0
H902 H 0.67389 0.62342 0.86093 0.0
H903 H 0.56958 0.61746 0.83841 0.0
C904 C 0.56176 0.57697 0.85481 0.0
C905 C 0.5739 0.55917 0.8683 0.0
C906 C 0.66098 0.64301 0.85492 0.0
C907 C 0.60976 0.61082 0.85554 0.0
C908 C 0.67721 0.67191 0.8518 0.0
C909 C 0.66097 0.69802 0.84439 0.0
C910 C 0.62824 0.63996 0.85056 0.0
C911 C 0.62843 0.69371 0.83975 0.0
C912 C 0.57958 0.60311 0.84846 0.0
C913 C 0.60453 0.567 0.87459 0.0
N914 N 0.61303 0.66524 0.843 0.0
N915 N 0.62136 0.59225 0.86819 0.0
H916 H 0.20146 0.86472 0.6329 0.0
H917 H 0.03454 0.86403 0.58481 0.0
H918 H 0.17428 0.7854 0.60093 0.0
H919 H 0.07973 0.95061 0.60413 0.0
H920 H 0.08495 0.8344 0.58993 0.0
H921 H 0.15708 0.89664 0.62167 0.0
C922 C 0.18634 0.8543 0.62325 0.0
C923 C 0.19141 0.82257 0.61776 0.0
C924 C 0.08383 0.85996 0.59285 0.0
C925 C 0.1399 0.85852 0.60516 0.0
C926 C 0.05503 0.87686 0.59003 0.0
C927 C 0.05269 0.90981 0.59424 0.0
C928 C 0.11028 0.87608 0.60006 0.0
C929 C 0.08016 0.92521 0.60083 0.0
C930 C 0.16098 0.87247 0.61685 0.0
C931 C 0.17117 0.80998 0.60533 0.0
N932 N 0.10761 0.90816 0.60367 0.0
N933 N 0.1458 0.82786 0.5996 0.0
H934 H 0.96363 0.4302 0.34958 0.0
H935 H 0.79954 0.32793 0.35664 0.0
H936 H 0.88841 0.44801 0.38566 0.0
H937 H 0.88631 0.28881 0.3344 0.0
H938 H 0.82824 0.37835 0.36202 0.0
H939 H 0.93169 0.38443 0.33858 0.0
C940 C 0.94012 0.42489 0.3549 0.0
C941 C 0.92854 0.44265 0.36854 0.0
C942 C 0.84096 0.35878 0.35589 0.0
C943 C 0.89225 0.39093 0.35617 0.0
C944 C 0.82459 0.32993 0.35279 0.0
C945 C 0.84063 0.30386 0.34523 0.0
C946 C 0.87361 0.36181 0.35133 0.0
C947 C 0.87309 0.30813 0.34044 0.0
C948 C 0.92211 0.39873 0.34875 0.0
C949 C 0.8982 0.43472 0.37518 0.0
N950 N 0.8886 0.33655 0.34363 0.0
N951 N 0.88115 0.40944 0.36896 0.0
H952 H 0.32548 0.78844 0.39446 0.0
H953 H 0.42522 0.95388 0.3856 0.0
H954 H 0.30301 0.86466 0.35964 0.0
H955 H 0.46675 0.86751 0.4071 0.0
H956 H 0.37466 0.92478 0.38134 0.0
H957 H 0.37179 0.82073 0.40457 0.0
C958 C 0.32988 0.81224 0.38926 0.0
C959 C 0.31065 0.82402 0.37621 0.0
C960 C 0.39479 0.91221 0.38706 0.0
C961 C 0.363 0.86068 0.38755 0.0
C962 C 0.42374 0.92881 0.3895 0.0
C963 C 0.45051 0.91303 0.39653 0.0
C964 C 0.39237 0.87956 0.39173 0.0
C965 C 0.44687 0.88054 0.40145 0.0
C966 C 0.35635 0.83046 0.39489 0.0
C967 C 0.31745 0.85473 0.36968 0.0
N968 N 0.41835 0.86479 0.39888 0.0
N969 N 0.34306 0.87194 0.37538 0.0
H970 H 0.88726 0.55158 0.10585 0.0
H971 H 0.88927 0.71515 0.15702 0.0
H972 H 0.96406 0.57331 0.14045 0.0
H973 H 0.8026 0.6738 0.13566 0.0
H974 H 0.91785 0.66439 0.15122 0.0
H975 H 0.85614 0.59672 0.11692 0.0
C976 C 0.89729 0.56567 0.11601 0.0
C977 C 0.92811 0.55882 0.12231 0.0
C978 C 0.8925 0.66643 0.14799 0.0
C979 C 0.89306 0.61113 0.13477 0.0
C980 C 0.87621 0.69544 0.15118 0.0
C981 C 0.84353 0.69892 0.14667 0.0
C982 C 0.87607 0.64096 0.14006 0.0
C983 C 0.8278 0.67242 0.13927 0.0
C984 C 0.87956 0.59145 0.12232 0.0
C985 C 0.94018 0.57778 0.1354 0.0
N986 N 0.84429 0.64476 0.13607 0.0
N987 N 0.92279 0.60355 0.14106 0.0
H988 H 0.20053 0.14035 0.85275 0.0
H989 H 0.03814 0.13851 0.90483 0.0
H990 H 0.17899 0.21576 0.88817 0.0
H991 H 0.08037 0.05293 0.88288 0.0
H992 H 0.0884 0.16807 0.89897 0.0
H993 H 0.15593 0.10835 0.86382 0.0
C994 C 0.18657 0.14992 0.86307 0.0
C995 C 0.19334 0.1806 0.86961 0.0
C996 C 0.08666 0.14273 0.89562 0.0
C997 C 0.14166 0.14451 0.8821 0.0
C998 C 0.05795 0.12588 0.89886 0.0
C999 C 0.05484 0.09324 0.89418 0.0
C1000 C 0.11221 0.1269 0.88748 0.0
C1001 C 0.08145 0.07809 0.88662 0.0
C1002 C 0.16111 0.13167 0.86939 0.0
C1003 C 0.17457 0.19202 0.88292 0.0
N1004 N 0.10881 0.09511 0.88338 0.0
N1005 N 0.14911 0.17413 0.88859 0.0
H1006 H 0.61445 0.45578 0.60983 0.0
H1007 H 0.60966 0.28697 0.65667 0.0
H1008 H 0.53376 0.42804 0.64076 0.0
H1009 H 0.69695 0.33021 0.63703 0.0
H1010 H 0.58112 0.33805 0.65162 0.0
H1011 H 0.64526 0.41018 0.62061 0.0
C1012 C 0.60348 0.44029 0.61916 0.0
C1013 C 0.57166 0.44556 0.62447 0.0
C1014 C 0.60659 0.33634 0.64859 0.0
C1015 C 0.60637 0.39269 0.63655 0.0
C1016 C 0.62287 0.30716 0.65136 0.0
C1017 C 0.65571 0.30411 0.6471 0.0
C1018 C 0.62324 0.36248 0.64138 0.0
C1019 C 0.67161 0.3312 0.6404 0.0
C1020 C 0.62102 0.41421 0.6253 0.0
C1021 C 0.55841 0.42482 0.6365 0.0
N1022 N 0.65517 0.35906 0.63764 0.0
N1023 N 0.57569 0.39883 0.64197 0.0
H1024 H 0.30673 0.21051 0.2123 0.0
H1025 H 0.19684 0.2968 0.28087 0.0
H1026 H 0.22136 0.26628 0.20049 0.0
H1027 H 0.28133 0.23971 0.29269 0.0
H1028 H 0.2059 0.28642 0.25143 0.0
H1029 H 0.29794 0.22133 0.24171 0.0
C1030 C 0.28606 0.22504 0.21586 0.0
C1031 C 0.26472 0.23753 0.20383 0.0
C1032 C 0.22249 0.27618 0.26044 0.0
C1033 C 0.25462 0.25003 0.23766 0.0
C1034 C 0.21739 0.28209 0.27731 0.0
C1035 C 0.23837 0.26905 0.28934 0.0
C1036 C 0.24877 0.25706 0.25549 0.0
C1037 C 0.26455 0.25026 0.28388 0.0
C1038 C 0.28111 0.2312 0.23271 0.0
C1039 C 0.23841 0.25613 0.20929 0.0
N1040 N 0.26898 0.24479 0.26734 0.0
N1041 N 0.23412 0.26184 0.22583 0.0
H1042 H 0.01581 0.03381 0.54211 0.0
H1043 H 0.98709 0.9703 0.4488 0.0
H1044 H 0.95856 0.94958 0.52969 0.0
H1045 H 0.04329 0.05528 0.46114 0.0
H1046 H 0.97678 0.96191 0.47852 0.0
H1047 H 0.02629 0.04213 0.5124 0.0
C1048 C 0.00538 0.01715 0.53318 0.0
C1049 C 0.98632 0.99097 0.53845 0.0
C1050 C 0.99139 0.98238 0.47468 0.0
C1051 C 0.99827 1.00022 0.50448 0.0
C1052 C 0.99732 0.98712 0.45772 0.0
C1053 C 0.01602 0.01354 0.45242 0.0
C1054 C 0.00427 0.0042 0.48641 0.0
C1055 C 0.02864 0.03459 0.46458 0.0
C1056 C 0.0114 0.02185 0.51622 0.0
C1057 C 0.97346 0.9701 0.52627 0.0
N1058 N 0.02251 0.02947 0.48097 0.0
N1059 N 0.9797 0.97517 0.5099 0.0
H1060 H 0.19202 0.7918 0.7114 0.0
H1061 H 0.30558 0.70744 0.77906 0.0
H1062 H 0.27858 0.73836 0.69905 0.0
H1063 H 0.21922 0.76105 0.7916 0.0
H1064 H 0.2959 0.71855 0.74976 0.0
H1065 H 0.20172 0.781 0.74077 0.0
C1066 C 0.21314 0.77781 0.71484 0.0
C1067 C 0.23453 0.76593 0.70268 0.0
C1068 C 0.27904 0.72789 0.75889 0.0
C1069 C 0.24568 0.75345 0.73642 0.0
C1070 C 0.2845 0.72155 0.77568 0.0
C1071 C 0.26316 0.73336 0.78788 0.0
C1072 C 0.25202 0.7462 0.75418 0.0
C1073 C 0.2363 0.75144 0.78266 0.0
C1074 C 0.21862 0.77166 0.73165 0.0
C1075 C 0.26146 0.74801 0.70796 0.0
N1076 N 0.23151 0.75733 0.76618 0.0
N1077 N 0.26623 0.74228 0.72445 0.0
H1078 H 0.48383 0.96904 0.04173 0.0
H1079 H 0.50986 0.0324 0.94824 0.0
H1080 H 0.53756 0.05539 0.029 0.0
H1081 H 0.45692 0.9455 0.96086 0.0
H1082 H 0.51984 0.04156 0.9779 0.0
H1083 H 0.47344 0.96004 0.01208 0.0
C1084 C 0.49348 0.98606 0.03274 0.0
C1085 C 0.51158 0.01299 0.0379 0.0
C1086 C 0.50601 0.02051 0.97415 0.0
C1087 C 0.49975 0.00292 0.00399 0.0
C1088 C 0.50028 0.0153 0.95721 0.0
C1089 C 0.48256 0.98814 0.95201 0.0
C1090 C 0.49393 0.99841 0.98595 0.0
C1091 C 0.47076 0.96677 0.96423 0.0
C1092 C 0.48752 0.98094 0.01581 0.0
C1093 C 0.52346 0.03427 0.02566 0.0
N1094 N 0.47668 0.97236 0.9806 0.0
N1095 N 0.51732 0.02878 0.00931 0.0
H1096 H 0.30309 0.79472 0.28372 0.0
H1097 H 0.18988 0.71197 0.21534 0.0
H1098 H 0.21793 0.73879 0.29604 0.0
H1099 H 0.27685 0.76553 0.20362 0.0
H1100 H 0.19906 0.72234 0.24481 0.0
H1101 H 0.29287 0.78516 0.25437 0.0
C1102 C 0.28215 0.78041 0.28028 0.0
C1103 C 0.26135 0.76745 0.29245 0.0
C1104 C 0.21613 0.73183 0.23581 0.0
C1105 C 0.24958 0.7564 0.25862 0.0
C1106 C 0.21096 0.72594 0.21893 0.0
C1107 C 0.23268 0.73789 0.20692 0.0
C1108 C 0.24322 0.74984 0.24078 0.0
C1109 C 0.25949 0.7558 0.2124 0.0
C1110 C 0.27637 0.77496 0.26345 0.0
C1111 C 0.23461 0.74923 0.28712 0.0
N1112 N 0.26399 0.76123 0.22894 0.0
N1113 N 0.22951 0.7442 0.27057 0.0
H1114 H 0.49161 0.03408 0.44889 0.0
H1115 H 0.51656 0.96793 0.54188 0.0
H1116 H 0.54718 0.94884 0.46123 0.0
H1117 H 0.46167 0.05375 0.5298 0.0
H1118 H 0.52822 0.96068 0.51227 0.0
H1119 H 0.48085 0.04221 0.47856 0.0
C1120 C 0.50165 0.01716 0.4578 0.0
C1121 C 0.52026 0.99071 0.45252 0.0
C1122 C 0.51362 0.98109 0.51612 0.0
C1123 C 0.50795 0.99977 0.48645 0.0
C1124 C 0.50691 0.9852 0.53303 0.0
C1125 C 0.4881 0.01146 0.53837 0.0
C1126 C 0.50141 0.00338 0.50448 0.0
C1127 C 0.47629 0.03312 0.5263 0.0
C1128 C 0.49545 0.02177 0.47474 0.0
C1129 C 0.53261 0.96954 0.46467 0.0
N1130 N 0.48315 0.02859 0.50994 0.0
N1131 N 0.52618 0.97451 0.48103 0.0
H1132 H 0.28314 0.26871 0.78967 0.0
H1133 H 0.22134 0.24034 0.69608 0.0
H1134 H 0.19616 0.21614 0.77686 0.0
H1135 H 0.30852 0.29289 0.70856 0.0
H1136 H 0.2111 0.23232 0.72579 0.0
H1137 H 0.29254 0.27874 0.76 0.0
C1138 C 0.26605 0.25928 0.78066 0.0
C1139 C 0.23887 0.24152 0.78581 0.0
C1140 C 0.23243 0.24566 0.72201 0.0
C1141 C 0.24941 0.25292 0.75188 0.0
C1142 C 0.23826 0.25029 0.70504 0.0
C1143 C 0.26586 0.26723 0.69978 0.0
C1144 C 0.25437 0.25806 0.7338 0.0
C1145 C 0.28694 0.27957 0.71199 0.0
C1146 C 0.2714 0.26503 0.76372 0.0
C1147 C 0.21749 0.22994 0.77354 0.0
N1148 N 0.28079 0.27468 0.7284 0.0
N1149 N 0.22324 0.23582 0.75719 0.0
H1150 H 0.01605 0.96939 0.94758 0.0
H1151 H 0.98866 0.03233 0.04102 0.0
H1152 H 0.96243 0.05575 0.96015 0.0
H1153 H 0.04116 0.94524 0.02854 0.0
H1154 H 0.9792 0.04164 0.01133 0.0
H1155 H 0.02581 0.9602 0.97726 0.0
C1156 C 0.0063 0.98638 0.95654 0.0
C1157 C 0.98841 0.01336 0.95132 0.0
C1158 C 0.99281 0.02051 0.01512 0.0
C1159 C 0.9995 0.00306 0.98528 0.0
C1160 C 0.99825 0.01521 0.03207 0.0
C1161 C 0.01571 0.98797 0.03732 0.0
C1162 C 0.00494 0.99842 0.00335 0.0
C1163 C 0.02752 0.96658 0.02512 0.0
C1164 C 0.01189 0.98115 0.97349 0.0
C1165 C 0.97638 0.03459 0.96353 0.0
N1166 N 0.0219 0.97226 0.00874 0.0
N1167 N 0.98216 0.02899 0.97991 0.0
H1168 H 0.7227 0.76248 0.69772 0.0
H1169 H 0.78322 0.73892 0.79183 0.0
H1170 H 0.80857 0.70915 0.7114 0.0
H1171 H 0.69687 0.79148 0.77814 0.0
H1172 H 0.7932 0.72803 0.76232 0.0
H1173 H 0.71281 0.77344 0.72722 0.0
C1174 C 0.73942 0.75302 0.7069 0.0
C1175 C 0.76649 0.73488 0.70204 0.0
C1176 C 0.77208 0.74197 0.76581 0.0
C1177 C 0.7554 0.74739 0.73579 0.0
C1178 C 0.76641 0.74822 0.78265 0.0
C1179 C 0.73917 0.76611 0.7875 0.0
C1180 C 0.75037 0.75369 0.75375 0.0
C1181 C 0.71819 0.77753 0.77503 0.0
C1182 C 0.7338 0.75931 0.72374 0.0
C1183 C 0.78737 0.72327 0.71451 0.0
N1184 N 0.72423 0.77111 0.75876 0.0
N1185 N 0.78139 0.72975 0.73079 0.0
H1186 H 0.69504 0.29089 0.21094 0.0
H1187 H 0.80778 0.20749 0.27924 0.0
H1188 H 0.78061 0.23571 0.19876 0.0
H1189 H 0.72125 0.26137 0.29113 0.0
H1190 H 0.79827 0.21758 0.2498 0.0
H1191 H 0.70459 0.28046 0.24031 0.0
C1192 C 0.71592 0.27657 0.21441 0.0
C1193 C 0.73708 0.26414 0.20229 0.0
C1194 C 0.78133 0.22718 0.25883 0.0
C1195 C 0.74807 0.25208 0.23609 0.0
C1196 C 0.78671 0.22144 0.27569 0.0
C1197 C 0.76526 0.23364 0.28775 0.0
C1198 C 0.75433 0.24529 0.25391 0.0
C1199 C 0.73841 0.25148 0.28231 0.0
C1200 C 0.72131 0.27062 0.23124 0.0
C1201 C 0.76367 0.24579 0.20764 0.0
N1202 N 0.73374 0.2568 0.26578 0.0
N1203 N 0.7684 0.2403 0.22416 0.0
H1204 H 0.80424 0.29527 0.78079 0.0
H1205 H 0.69277 0.21007 0.71244 0.0
H1206 H 0.71997 0.23773 0.79275 0.0
H1207 H 0.77782 0.26631 0.70032 0.0
H1208 H 0.70221 0.22048 0.74182 0.0
H1209 H 0.79448 0.28562 0.75133 0.0
C1210 C 0.7836 0.28062 0.77725 0.0
C1211 C 0.76289 0.26722 0.78933 0.0
C1212 C 0.71885 0.23055 0.73276 0.0
C1213 C 0.75169 0.25607 0.75547 0.0
C1214 C 0.71351 0.22463 0.71592 0.0
C1215 C 0.73457 0.23735 0.70382 0.0
C1216 C 0.74544 0.24938 0.73763 0.0
C1217 C 0.76099 0.25598 0.70919 0.0
C1218 C 0.7781 0.27512 0.76038 0.0
C1219 C 0.73656 0.24853 0.78391 0.0
N1220 N 0.76566 0.26145 0.72572 0.0
N1221 N 0.73175 0.24347 0.76736 0.0
H1222 H 0.69993 0.70681 0.28181 0.0
H1223 H 0.80978 0.79306 0.21311 0.0
H1224 H 0.78381 0.7649 0.29381 0.0
H1225 H 0.7244 0.73686 0.20158 0.0
H1226 H 0.80117 0.78243 0.24259 0.0
H1227 H 0.70939 0.71679 0.25242 0.0
C1228 C 0.72044 0.72167 0.2783 0.0
C1229 C 0.7411 0.73512 0.29038 0.0
C1230 C 0.78431 0.77243 0.23363 0.0
C1231 C 0.75198 0.74667 0.25652 0.0
C1232 C 0.78916 0.77847 0.21675 0.0
C1233 C 0.76774 0.76581 0.20478 0.0
C1234 C 0.75787 0.75355 0.23866 0.0
C1235 C 0.7415 0.74714 0.21033 0.0
C1236 C 0.72578 0.72735 0.26144 0.0
C1237 C 0.76727 0.75404 0.28496 0.0
N1238 N 0.73733 0.74156 0.22688 0.0
N1239 N 0.77193 0.75931 0.2684 0.0
H1240 H 0.45833 0.44635 0.02997 0.0
H1241 H 0.54461 0.55723 0.9617 0.0
H1242 H 0.51494 0.53119 0.04207 0.0
H1243 H 0.48898 0.47169 0.94972 0.0
H1244 H 0.53393 0.54806 0.99111 0.0
H1245 H 0.46903 0.45558 0.00059 0.0
C1246 C 0.473 0.46701 0.02648 0.0
C1247 C 0.4858 0.48804 0.03858 0.0
C1248 C 0.52407 0.53126 0.98207 0.0
C1249 C 0.49817 0.49865 0.00478 0.0
C1250 C 0.53016 0.53644 0.96522 0.0
C1251 C 0.51763 0.51518 0.95315 0.0
C1252 C 0.50529 0.50465 0.98697 0.0
C1253 C 0.49914 0.48869 0.95856 0.0
C1254 C 0.47911 0.47221 0.00965 0.0
C1255 C 0.50457 0.51436 0.03321 0.0
N1256 N 0.49349 0.48421 0.97508 0.0
N1257 N 0.51022 0.51889 0.01668 0.0
H1258 H 0.95862 0.44647 0.46124 0.0
H1259 H 0.04911 0.55272 0.52998 0.0
H1260 H 0.01729 0.53004 0.44938 0.0
H1261 H 0.9912 0.4684 0.54138 0.0
H1262 H 0.03798 0.54474 0.50051 0.0
H1263 H 0.97022 0.45454 0.49058 0.0
C1264 C 0.97394 0.46663 0.46477 0.0
C1265 C 0.98706 0.48762 0.45274 0.0
C1266 C 0.02774 0.52795 0.50944 0.0
C1267 C 1.00049 0.49688 0.48655 0.0
C1268 C 0.03408 0.53243 0.52632 0.0
C1269 C 0.021 0.5112 0.53825 0.0
C1270 C 0.00813 0.50207 0.50437 0.0
C1271 C 0.00181 0.48536 0.53266 0.0
C1272 C 0.98057 0.47116 0.4816 0.0
C1273 C 0.00664 0.51328 0.45819 0.0
N1274 N 0.9959 0.48157 0.51612 0.0
N1275 N 0.01281 0.51716 0.47472 0.0
H1276 H 0.01586 0.47131 0.04185 0.0
H1277 H 0.98746 0.53408 0.94846 0.0
H1278 H 0.96169 0.55739 0.02939 0.0
H1279 H 0.04285 0.44881 0.96096 0.0
H1280 H 0.97805 0.54332 0.97817 0.0
H1281 H 0.02614 0.46264 0.01217 0.0
C1282 C 0.0061 0.48835 0.03291 0.0
C1283 C 0.98788 0.51509 0.03816 0.0
C1284 C 0.99231 0.52262 0.97437 0.0
C1285 C 0.99958 0.50538 0.00421 0.0
C1286 C 0.99771 0.51736 0.95741 0.0
C1287 C 0.01592 0.49061 0.95216 0.0
C1288 C 0.00519 0.50095 0.98615 0.0
C1289 C 0.02859 0.46974 0.96436 0.0
C1290 C 0.01201 0.48342 0.01597 0.0
C1291 C 0.97589 0.53641 0.02598 0.0
N1292 N 0.02294 0.47533 0.98075 0.0
N1293 N 0.98195 0.53108 0.00961 0.0
H1294 H 0.51705 0.46988 0.44967 0.0
H1295 H 0.48581 0.53119 0.54309 0.0
H1296 H 0.45788 0.55249 0.4623 0.0
H1297 H 0.54711 0.45007 0.53061 0.0
H1298 H 0.47489 0.53906 0.51343 0.0
H1299 H 0.52764 0.46147 0.47936 0.0
C1300 C 0.5062 0.48616 0.45865 0.0
C1301 C 0.48662 0.51196 0.45345 0.0
C1302 C 0.49077 0.51957 0.51721 0.0
C1303 C 0.49869 0.50258 0.48739 0.0
C1304 C 0.49705 0.51511 0.53414 0.0
C1305 C 0.5174 0.48995 0.53939 0.0
C1306 C 0.50492 0.4987 0.50544 0.0
C1307 C 0.53124 0.46981 0.5272 0.0
C1308 C 0.51231 0.48141 0.4756 0.0
C1309 C 0.47323 0.53232 0.46567 0.0
N1310 N 0.52471 0.47461 0.51082 0.0
N1311 N 0.47955 0.52721 0.48203 0.0
H1312 H 0.31297 0.17033 0.34158 0.0
H1313 H 0.44482 0.08796 0.40135 0.0
H1314 H 0.33909 0.20744 0.39004 0.0
H1315 H 0.41853 0.04959 0.35317 0.0
H1316 H 0.40528 0.1312 0.3976 0.0
H1317 H 0.35066 0.12538 0.34571 0.0
C1318 C 0.32659 0.16904 0.35309 0.0
C1319 C 0.32288 0.19279 0.36547 0.0
C1320 C 0.40808 0.1133 0.38785 0.0
C1321 C 0.3661 0.14134 0.37028 0.0
C1322 C 0.43068 0.08854 0.38999 0.0
C1323 C 0.43512 0.06509 0.37754 0.0
C1324 C 0.38972 0.11475 0.37313 0.0
C1325 C 0.416 0.06714 0.3631 0.0
C1326 C 0.3481 0.14334 0.35545 0.0
C1327 C 0.34115 0.18977 0.38014 0.0
N1328 N 0.39422 0.09156 0.36127 0.0
N1329 N 0.36196 0.1646 0.38211 0.0
H1330 H 0.08645 0.0536 0.61009 0.0
H1331 H 0.13096 0.24134 0.62085 0.0
H1332 H 0.01903 0.13177 0.60203 0.0
H1333 H 0.19596 0.16421 0.63473 0.0
H1334 H 0.09046 0.20118 0.61305 0.0
H1335 H 0.12776 0.09332 0.61808 0.0
C1336 C 0.08035 0.07909 0.60993 0.0
C1337 C 0.04917 0.08933 0.60538 0.0
C1338 C 0.11353 0.19296 0.61783 0.0
C1339 C 0.09632 0.13489 0.61454 0.0
C1340 C 0.13673 0.21593 0.62231 0.0
C1341 C 0.16697 0.20619 0.62847 0.0
C1342 C 0.12054 0.15984 0.61943 0.0
C1343 C 0.17296 0.17285 0.63007 0.0
C1344 C 0.10392 0.10174 0.61455 0.0
C1345 C 0.04267 0.12268 0.60546 0.0
N1346 N 0.14999 0.15088 0.62553 0.0
N1347 N 0.06599 0.1442 0.60995 0.0
H1348 H 0.19628 0.82132 0.89103 0.0
H1349 H 0.06205 0.93181 0.84689 0.0
H1350 H 0.17276 0.81555 0.8387 0.0
H1351 H 0.07801 0.93026 0.90005 0.0
H1352 H 0.10477 0.8916 0.84347 0.0
H1353 H 0.15534 0.86347 0.89436 0.0
C1354 C 0.18258 0.82895 0.88022 0.0
C1355 C 0.18795 0.81476 0.86456 0.0
C1356 C 0.09897 0.90005 0.85589 0.0
C1357 C 0.14097 0.86313 0.86831 0.0
C1358 C 0.07457 0.92309 0.85786 0.0
C1359 C 0.0663 0.93441 0.87379 0.0
C1360 C 0.11539 0.88822 0.86994 0.0
C1361 C 0.08347 0.92219 0.88753 0.0
C1362 C 0.15915 0.85302 0.88215 0.0
C1363 C 0.16942 0.82569 0.85102 0.0
N1364 N 0.10716 0.89976 0.88528 0.0
N1365 N 0.14678 0.84918 0.85321 0.0
H1366 H 0.32147 0.82445 0.15562 0.0
H1367 H 0.42767 0.92436 0.08959 0.0
H1368 H 0.31383 0.8123 0.10233 0.0
H1369 H 0.4294 0.94249 0.14256 0.0
H1370 H 0.38622 0.88297 0.09404 0.0
H1371 H 0.36135 0.86743 0.15115 0.0
C1372 C 0.32813 0.83082 0.14298 0.0
C1373 C 0.31427 0.81466 0.12933 0.0
C1374 C 0.3956 0.89605 0.10469 0.0
C1375 C 0.36002 0.86385 0.12412 0.0
C1376 C 0.4193 0.91971 0.10215 0.0
C1377 C 0.43213 0.93694 0.11572 0.0
C1378 C 0.38466 0.88941 0.12093 0.0
C1379 C 0.42026 0.92984 0.13172 0.0
C1380 C 0.3509 0.8554 0.14043 0.0
C1381 C 0.32384 0.82403 0.11324 0.0
N1382 N 0.39731 0.90659 0.13388 0.0
N1383 N 0.34614 0.8479 0.11109 0.0
H1384 H 0.69229 0.82892 0.64941 0.0
H1385 H 0.56296 0.91276 0.5888 0.0
H1386 H 0.6705 0.79469 0.59983 0.0
H1387 H 0.58566 0.94851 0.63799 0.0
H1388 H 0.60315 0.87008 0.59244 0.0
H1389 H 0.65416 0.87346 0.64533 0.0
C1390 C 0.67953 0.83076 0.63766 0.0
C1391 C 0.68458 0.80793 0.62496 0.0
C1392 C 0.59942 0.88729 0.60243 0.0
C1393 C 0.64083 0.85893 0.62021 0.0
C1394 C 0.57645 0.91172 0.60035 0.0
C1395 C 0.5708 0.93425 0.61312 0.0
C1396 C 0.61692 0.88524 0.61741 0.0
C1397 C 0.58913 0.93167 0.62781 0.0
C1398 C 0.65776 0.85623 0.63534 0.0
C1399 C 0.66738 0.81164 0.60999 0.0
N1400 N 0.61127 0.90757 0.62957 0.0
N1401 N 0.64627 0.83657 0.60805 0.0
H1402 H 0.98748 0.87086 0.38979 0.0
H1403 H 0.80761 0.83755 0.35639 0.0
H1404 H 0.91841 0.94717 0.3808 0.0
H1405 H 0.87498 0.76248 0.37027 0.0
H1406 H 0.84797 0.87831 0.36433 0.0
H1407 H 0.94662 0.83108 0.38193 0.0
C1408 C 0.96368 0.87929 0.3862 0.0
C1409 C 0.95643 0.91247 0.38596 0.0
C1410 C 0.85387 0.85291 0.36562 0.0
C1411 C 0.90934 0.86684 0.37683 0.0
C1412 C 0.83088 0.82962 0.36105 0.0
C1413 C 0.83787 0.7965 0.36266 0.0
C1414 C 0.88413 0.84301 0.37179 0.0
C1415 C 0.86843 0.78768 0.36882 0.0
C1416 C 0.9403 0.85651 0.3817 0.0
C1417 C 0.92509 0.92185 0.38119 0.0
N1418 N 0.89035 0.81074 0.37313 0.0
N1419 N 0.90273 0.89917 0.37677 0.0
H1420 H 0.83733 0.20747 0.10067 0.0
H1421 H 0.91557 0.04477 0.13712 0.0
H1422 H 0.81182 0.16705 0.14851 0.0
H1423 H 0.94252 0.08724 0.08995 0.0
H1424 H 0.87627 0.08825 0.14118 0.0
H1425 H 0.87479 0.16269 0.09625 0.0
C1426 C 0.83956 0.18917 0.11026 0.0
C1427 C 0.8214 0.19113 0.12501 0.0
C1428 C 0.89074 0.08803 0.12993 0.0
C1429 C 0.86441 0.13959 0.12001 0.0
C1430 C 0.91319 0.06317 0.12758 0.0
C1431 C 0.93249 0.06235 0.11318 0.0
C1432 C 0.88749 0.11231 0.11779 0.0
C1433 C 0.92825 0.08688 0.10127 0.0
C1434 C 0.861 0.16356 0.10772 0.0
C1435 C 0.82535 0.16659 0.13696 0.0
N1436 N 0.90629 0.11084 0.10385 0.0
N1437 N 0.84643 0.14188 0.13421 0.0
H1438 H 0.58094 0.04686 0.85153 0.0
H1439 H 0.66589 0.20366 0.891 0.0
H1440 H 0.55789 0.08523 0.90013 0.0
H1441 H 0.68679 0.16822 0.84156 0.0
H1442 H 0.6276 0.15929 0.89483 0.0
H1443 H 0.6211 0.08984 0.84795 0.0
C1444 C 0.58435 0.06425 0.86148 0.0
C1445 C 0.56589 0.06243 0.87615 0.0
C1446 C 0.64055 0.16116 0.88314 0.0
C1447 C 0.61191 0.11179 0.8721 0.0
C1448 C 0.66248 0.18653 0.88093 0.0
C1449 C 0.67959 0.18978 0.86591 0.0
C1450 C 0.63559 0.13872 0.87023 0.0
C1451 C 0.67412 0.16674 0.85334 0.0
C1452 C 0.6073 0.08883 0.85941 0.0
C1453 C 0.57146 0.08568 0.8886 0.0
N1454 N 0.65258 0.14222 0.85578 0.0
N1455 N 0.59389 0.10936 0.88628 0.0
H1456 H 0.7997 0.6745 0.89 0.0
H1457 H 0.94765 0.57867 0.84844 0.0
H1458 H 0.83194 0.68936 0.8394 0.0
H1459 H 0.92072 0.56876 0.90018 0.0
H1460 H 0.9037 0.61734 0.84463 0.0
H1461 H 0.84209 0.63388 0.89366 0.0
C1462 C 0.81561 0.66919 0.87964 0.0
C1463 C 0.81226 0.68549 0.86437 0.0
C1464 C 0.90735 0.60672 0.85683 0.0
C1465 C 0.86092 0.63892 0.8685 0.0
C1466 C 0.93248 0.58457 0.85902 0.0
C1467 C 0.93801 0.57046 0.87468 0.0
C1468 C 0.88745 0.61489 0.87037 0.0
C1469 C 0.91744 0.57907 0.88789 0.0
C1470 C 0.83986 0.64599 0.88175 0.0
C1471 C 0.83363 0.67752 0.8514 0.0
N1472 N 0.89311 0.60073 0.88544 0.0
N1473 N 0.85702 0.65486 0.85377 0.0
H1474 H 0.67812 0.6791 0.15435 0.0
H1475 H 0.57392 0.5745 0.0894 0.0
H1476 H 0.68978 0.68513 0.10097 0.0
H1477 H 0.56779 0.56288 0.14277 0.0
H1478 H 0.61628 0.61518 0.09338 0.0
H1479 H 0.63754 0.63663 0.15038 0.0
C1480 C 0.67221 0.67148 0.14179 0.0
C1481 C 0.68739 0.6858 0.12798 0.0
C1482 C 0.60573 0.60367 0.10422 0.0
C1483 C 0.64081 0.63716 0.12333 0.0
C1484 C 0.5815 0.58043 0.10196 0.0
C1485 C 0.56717 0.56525 0.11577 0.0
C1486 C 0.61568 0.61195 0.12043 0.0
C1487 C 0.57808 0.57393 0.13174 0.0
C1488 C 0.64903 0.64719 0.13953 0.0
C1489 C 0.67874 0.67484 0.112 0.0
N1490 N 0.60157 0.59673 0.13363 0.0
N1491 N 0.656 0.65129 0.11013 0.0
H1492 H 0.66706 0.31019 0.33871 0.0
H1493 H 0.58176 0.43608 0.40078 0.0
H1494 H 0.70216 0.33084 0.38826 0.0
H1495 H 0.54885 0.41739 0.35063 0.0
H1496 H 0.62633 0.39809 0.39639 0.0
H1497 H 0.62403 0.34992 0.34277 0.0
C1498 C 0.6658 0.32312 0.35044 0.0
C1499 C 0.68827 0.31706 0.36318 0.0
C1500 C 0.60938 0.40234 0.38634 0.0
C1501 C 0.63888 0.36263 0.36793 0.0
C1502 C 0.58389 0.42403 0.38884 0.0
C1503 C 0.56143 0.42992 0.37607 0.0
C1504 C 0.61246 0.38634 0.37096 0.0
C1505 C 0.56551 0.41361 0.36085 0.0
C1506 C 0.64118 0.34583 0.35275 0.0
C1507 C 0.68539 0.33465 0.37809 0.0
N1508 N 0.59044 0.39257 0.35874 0.0
N1509 N 0.66112 0.35654 0.38007 0.0
H1510 H 0.94255 0.4127 0.58931 0.0
H1511 H 0.81187 0.33236 0.65069 0.0
H1512 H 0.91977 0.45077 0.63801 0.0
H1513 H 0.83346 0.29597 0.60151 0.0
H1514 H 0.85064 0.37636 0.64619 0.0
H1515 H 0.90198 0.37034 0.59342 0.0
C1516 C 0.92897 0.41224 0.60086 0.0
C1517 C 0.9347 0.43535 0.61335 0.0
C1518 C 0.84685 0.35877 0.63638 0.0
C1519 C 0.88815 0.38672 0.61816 0.0
C1520 C 0.82471 0.33361 0.63894 0.0
C1521 C 0.8194 0.31033 0.62648 0.0
C1522 C 0.86389 0.3607 0.62124 0.0
C1523 C 0.83675 0.31328 0.6115 0.0
C1524 C 0.90579 0.388 0.6032 0.0
C1525 C 0.91626 0.43348 0.62804 0.0
N1526 N 0.8582 0.33791 0.60932 0.0
N1527 N 0.89392 0.40957 0.63005 0.0
H1528 H 0.06683 0.44136 0.14293 0.0
H1529 H 0.19027 0.31805 0.09946 0.0
H1530 H 0.07268 0.42717 0.08972 0.0
H1531 H 0.17582 0.32349 0.15266 0.0
H1532 H 0.14974 0.36039 0.09569 0.0
H1533 H 0.1091 0.40074 0.14673 0.0
C1534 C 0.07704 0.42978 0.13202 0.0
C1535 C 0.06607 0.43768 0.11597 0.0
C1536 C 0.15543 0.35236 0.10819 0.0
C1537 C 0.11462 0.39105 0.12026 0.0
C1538 C 0.17865 0.32819 0.11037 0.0
C1539 C 0.18646 0.31708 0.12641 0.0
C1540 C 0.13991 0.36572 0.12216 0.0
C1541 C 0.17055 0.3312 0.14006 0.0
C1542 C 0.10117 0.40651 0.13422 0.0
C1543 C 0.08028 0.42182 0.10233 0.0
N1544 N 0.14805 0.35476 0.13762 0.0
N1545 N 0.10378 0.39929 0.10479 0.0
H1546 H 0.4187 0.45722 0.85257 0.0
H1547 H 0.335 0.29723 0.88926 0.0
H1548 H 0.44156 0.41651 0.90069 0.0
H1549 H 0.31489 0.33521 0.84023 0.0
H1550 H 0.37263 0.34187 0.89401 0.0
H1551 H 0.37909 0.41405 0.84824 0.0
C1552 C 0.41535 0.43928 0.86227 0.0
C1553 C 0.43362 0.4405 0.87701 0.0
C1554 C 0.35999 0.34049 0.88221 0.0
C1555 C 0.38822 0.39086 0.87209 0.0
C1556 C 0.33845 0.31497 0.87948 0.0
C1557 C 0.32176 0.31236 0.86429 0.0
C1558 C 0.36497 0.36372 0.86969 0.0
C1559 C 0.32725 0.33617 0.85211 0.0
C1560 C 0.39272 0.41459 0.85976 0.0
C1561 C 0.42812 0.41655 0.88911 0.0
N1562 N 0.34839 0.36081 0.85507 0.0
N1563 N 0.406 0.39273 0.88637 0.0
H1564 H 0.41586 0.56097 0.59111 0.0
H1565 H 0.33074 0.68879 0.65214 0.0
H1566 H 0.44822 0.58098 0.64122 0.0
H1567 H 0.29598 0.66763 0.60258 0.0
H1568 H 0.37311 0.64829 0.64849 0.0
H1569 H 0.371 0.59881 0.59518 0.0
C1570 C 0.4135 0.57321 0.60298 0.0
C1571 C 0.43596 0.56785 0.61582 0.0
C1572 C 0.35618 0.65242 0.63842 0.0
C1573 C 0.38467 0.61125 0.62055 0.0
C1574 C 0.33195 0.67559 0.64049 0.0
C1575 C 0.30979 0.68175 0.62762 0.0
C1576 C 0.35844 0.63526 0.62334 0.0
C1577 C 0.31254 0.66375 0.61283 0.0
C1578 C 0.38787 0.59483 0.60529 0.0
C1579 C 0.43161 0.5844 0.63094 0.0
N1580 N 0.33648 0.64143 0.61108 0.0
N1581 N 0.40658 0.60537 0.63286 0.0
H1582 H 0.08679 0.55822 0.38919 0.0
H1583 H 0.12149 0.73096 0.34712 0.0
H1584 H 0.01346 0.61815 0.36656 0.0
H1585 H 0.19724 0.66951 0.3663 0.0
H1586 H 0.08174 0.68983 0.35462 0.0
H1587 H 0.12768 0.59867 0.38153 0.0
C1588 C 0.07926 0.57987 0.38265 0.0
C1589 C 0.04659 0.58475 0.37852 0.0
C1590 C 0.10705 0.68523 0.35717 0.0
C1591 C 0.09326 0.63111 0.36971 0.0
C1592 C 0.12982 0.70877 0.35288 0.0
C1593 C 0.16283 0.70376 0.35608 0.0
C1594 C 0.11718 0.65636 0.3648 0.0
C1595 C 0.17207 0.67443 0.36357 0.0
C1596 C 0.10263 0.60292 0.37825 0.0
C1597 C 0.0383 0.61326 0.37001 0.0
N1598 N 0.14937 0.65189 0.36772 0.0
N1599 N 0.06142 0.63528 0.36591 0.0
loop_
_geom_bond_atom_site_label_1
_geom_bond_atom_site_label_2
_geom_bond_distance
_geom_bond_site_symmetry_2
_ccdc_geom_bond_type
Mg0 O1 2.028 . S
Mg0 O7 1.986 . S
Mg0 O9 2.114 . S
Mg0 O10 2.251 . S
Mg0 O13 2.010 . S
O1 Mg0 2.028 . S
O1 C4 1.250 . S
O2 Mg3 2.028 . S
O2 C4 1.248 . S
Mg3 O2 2.028 . S
Mg3 O8 2.032 . S
Mg3 O10 2.079 . S
C4 O1 1.250 . S
C4 O2 1.248 . S
C5 O6 1.264 . S
C5 O13 1.249 . S
O6 C5 1.264 . S
O7 Mg0 1.986 . S
O7 C11 1.246 . S
O8 Mg3 2.032 . S
O8 C11 1.259 . S
O9 Mg0 2.114 . S
O9 C12 1.252 . S
O10 Mg0 2.251 . S
O10 Mg3 2.079 . S
O10 C12 1.273 . S
C11 O7 1.246 . S
C11 O8 1.259 . S
C12 O9 1.252 . S
C12 O10 1.273 . S
O13 Mg0 2.010 . S
O13 C5 1.249 . S
Mg14 O15 2.028 . S
Mg14 O21 1.986 . S
Mg14 O23 2.114 1_455 S
Mg14 O24 2.251 1_455 S
Mg14 O27 2.010 1_565 S
O15 Mg14 2.028 . S
O15 C18 1.250 . S
O16 Mg17 2.059 . S
O16 C18 1.248 . S
Mg17 O16 2.059 . S
Mg17 O22 2.042 . S
Mg17 O24 2.068 1_455 S
C18 O15 1.250 . S
C18 O16 1.248 . S
C19 O20 1.264 . S
C19 O27 1.249 . S
O20 C19 1.264 . S
O21 Mg14 1.986 . S
O21 C25 1.246 . S
O22 Mg17 2.042 . S
O22 C25 1.259 . S
O23 Mg14 2.114 1_655 S
O23 C26 1.252 . S
O24 Mg14 2.251 1_655 S
O24 Mg17 2.068 1_655 S
O24 C26 1.273 . S
C25 O21 1.246 . S
C25 O22 1.259 . S
C26 O23 1.252 . S
C26 O24 1.273 . S
O27 Mg14 2.010 1_545 S
O27 C19 1.249 . S
Mg28 O29 2.028 . S
Mg28 O35 1.986 . S
Mg28 O37 2.114 . S
Mg28 O38 2.251 . S
Mg28 O41 2.010 . S
O29 Mg28 2.028 . S
O29 C32 1.250 . S
O30 Mg31 2.028 . S
O30 C32 1.248 . S
Mg31 O30 2.028 . S
Mg31 O36 2.032 . S
Mg31 O38 2.079 . S
C32 O29 1.250 . S
C32 O30 1.248 . S
C33 O34 1.264 . S
C33 O41 1.249 . S
O34 C33 1.264 . S
O35 Mg28 1.986 . S
O35 C39 1.246 . S
O36 Mg31 2.032 . S
O36 C39 1.259 . S
O37 Mg28 2.114 . S
O37 C40 1.252 . S
O38 Mg28 2.251 . S
O38 Mg31 2.079 . S
O38 C40 1.273 . S
C39 O35 1.246 . S
C39 O36 1.259 . S
C40 O37 1.252 . S
C40 O38 1.273 . S
O41 Mg28 2.010 . S
O41 C33 1.249 . S
Mg42 O43 2.028 . S
Mg42 O49 1.986 . S
Mg42 O51 2.114 . S
Mg42 O52 2.251 . S
Mg42 O55 2.010 1_545 S
O43 Mg42 2.028 . S
O43 C46 1.250 . S
O44 Mg45 2.028 . S
O44 C46 1.248 . S
Mg45 O44 2.028 . S
Mg45 O50 2.032 . S
Mg45 O52 2.079 . S
C46 O43 1.250 . S
C46 O44 1.248 . S
C47 O48 1.264 . S
C47 O55 1.249 . S
O48 C47 1.264 . S
O49 Mg42 1.986 . S
O49 C53 1.246 . S
O50 Mg45 2.032 . S
O50 C53 1.259 . S
O51 Mg42 2.114 . S
O51 C54 1.252 . S
O52 Mg42 2.251 . S
O52 Mg45 2.079 . S
O52 C54 1.273 . S
C53 O49 1.246 . S
C53 O50 1.259 . S
C54 O51 1.252 . S
C54 O52 1.273 . S
O55 Mg42 2.010 1_565 S
O55 C47 1.249 . S
Mg56 O57 2.028 . S
Mg56 O63 1.986 . S
Mg56 O65 2.114 . S
Mg56 O66 2.251 . S
Mg56 O69 2.010 . S
O57 Mg56 2.028 . S
O57 C60 1.250 . S
O58 Mg59 2.028 . S
O58 C60 1.248 . S
Mg59 O58 2.028 . S
Mg59 O64 2.032 . S
Mg59 O66 2.079 . S
C60 O57 1.250 . S
C60 O58 1.248 . S
C61 O62 1.264 . S
C61 O69 1.249 . S
O62 C61 1.264 . S
O63 Mg56 1.986 . S
O63 C67 1.246 . S
O64 Mg59 2.032 . S
O64 C67 1.259 . S
O65 Mg56 2.114 . S
O65 C68 1.252 . S
O66 Mg56 2.251 . S
O66 Mg59 2.079 . S
O66 C68 1.273 . S
C67 O63 1.246 . S
C67 O64 1.259 . S
C68 O65 1.252 . S
C68 O66 1.273 . S
O69 Mg56 2.010 . S
O69 C61 1.249 . S
Mg70 O71 2.028 . S
Mg70 O77 1.986 . S
Mg70 O79 2.114 . S
Mg70 O80 2.251 . S
Mg70 O83 2.010 1_565 S
O71 Mg70 2.028 . S
O71 C74 1.250 . S
O72 Mg73 2.028 . S
O72 C74 1.248 . S
Mg73 O72 2.028 . S
Mg73 O78 2.032 . S
Mg73 O80 2.079 . S
C74 O71 1.250 . S
C74 O72 1.248 . S
C75 O76 1.264 . S
C75 O83 1.249 . S
O76 C75 1.264 . S
O77 Mg70 1.986 . S
O77 C81 1.246 . S
O78 Mg73 2.032 . S
O78 C81 1.259 . S
O79 Mg70 2.114 . S
O79 C82 1.252 . S
O80 Mg70 2.251 . S
O80 Mg73 2.079 . S
O80 C82 1.273 . S
C81 O77 1.246 . S
C81 O78 1.259 . S
C82 O79 1.252 . S
C82 O80 1.273 . S
O83 Mg70 2.010 1_545 S
O83 C75 1.249 . S
Mg84 O85 2.028 . S
Mg84 O91 1.986 . S
Mg84 O93 2.114 . S
Mg84 O94 2.251 . S
Mg84 O97 2.010 . S
O85 Mg84 2.028 . S
O85 C88 1.250 . S
O86 Mg87 2.028 . S
O86 C88 1.248 . S
Mg87 O86 2.028 . S
Mg87 O92 2.032 . S
Mg87 O94 2.079 . S
C88 O85 1.250 . S
C88 O86 1.248 . S
C89 O90 1.264 . S
C89 O97 1.249 . S
O90 C89 1.264 . S
O91 Mg84 1.986 . S
O91 C95 1.246 . S
O92 Mg87 2.032 . S
O92 C95 1.259 . S
O93 Mg84 2.114 . S
O93 C96 1.252 . S
O94 Mg84 2.251 . S
O94 Mg87 2.079 . S
O94 C96 1.273 . S
C95 O91 1.246 . S
C95 O92 1.259 . S
C96 O93 1.252 . S
C96 O94 1.273 . S
O97 Mg84 2.010 . S
O97 C89 1.249 . S
Mg98 O99 2.028 . S
Mg98 O105 1.986 . S
Mg98 O107 2.114 1_455 S
Mg98 O108 2.251 1_455 S
Mg98 O111 2.010 1_545 S
O99 Mg98 2.028 . S
O99 C102 1.250 . S
O100 Mg101 2.059 . S
O100 C102 1.248 . S
Mg101 O100 2.059 . S
Mg101 O106 2.042 . S
Mg101 O108 2.068 1_455 S
C102 O99 1.250 . S
C102 O100 1.248 . S
C103 O104 1.264 . S
C103 O111 1.249 . S
O104 C103 1.264 . S
O105 Mg98 1.986 . S
O105 C109 1.246 . S
O106 Mg101 2.042 . S
O106 C109 1.259 . S
O107 Mg98 2.114 1_655 S
O107 C110 1.252 . S
O108 Mg98 2.251 1_655 S
O108 Mg101 2.068 1_655 S
O108 C110 1.273 . S
C109 O105 1.246 . S
C109 O106 1.259 . S
C110 O107 1.252 . S
C110 O108 1.273 . S
O111 Mg98 2.010 1_565 S
O111 C103 1.249 . S
Mg112 O113 2.028 . S
Mg112 O119 1.986 . S
Mg112 O121 2.114 . S
Mg112 O122 2.251 . S
Mg112 O125 2.010 . S
O113 Mg112 2.028 . S
O113 C116 1.250 . S
O114 Mg115 2.028 . S
O114 C116 1.248 . S
Mg115 O114 2.028 . S
Mg115 O120 2.032 . S
Mg115 O122 2.079 . S
C116 O113 1.250 . S
C116 O114 1.248 . S
C117 O118 1.264 . S
C117 O125 1.249 . S
O118 C117 1.264 . S
O119 Mg112 1.986 . S
O119 C123 1.246 . S
O120 Mg115 2.032 . S
O120 C123 1.259 . S
O121 Mg112 2.114 . S
O121 C124 1.252 . S
O122 Mg112 2.251 . S
O122 Mg115 2.079 . S
O122 C124 1.273 . S
C123 O119 1.246 . S
C123 O120 1.259 . S
C124 O121 1.252 . S
C124 O122 1.273 . S
O125 Mg112 2.010 . S
O125 C117 1.249 . S
Mg126 O127 2.028 . S
Mg126 O133 1.986 . S
Mg126 O135 2.114 1_655 S
Mg126 O136 2.251 1_655 S
Mg126 O139 2.010 1_545 S
O127 Mg126 2.028 . S
O127 C130 1.250 . S
O128 Mg129 2.059 . S
O128 C130 1.248 . S
Mg129 O128 2.059 . S
Mg129 O134 2.042 . S
Mg129 O136 2.068 1_655 S
C130 O127 1.250 . S
C130 O128 1.248 . S
C131 O132 1.264 . S
C131 O139 1.249 . S
O132 C131 1.264 . S
O133 Mg126 1.986 . S
O133 C137 1.246 . S
O134 Mg129 2.042 . S
O134 C137 1.259 . S
O135 Mg126 2.114 1_455 S
O135 C138 1.252 . S
O136 Mg126 2.251 1_455 S
O136 Mg129 2.068 1_455 S
O136 C138 1.273 . S
C137 O133 1.246 . S
C137 O134 1.259 . S
C138 O135 1.252 . S
C138 O136 1.273 . S
O139 Mg126 2.010 1_565 S
O139 C131 1.249 . S
Mg140 O141 2.028 . S
Mg140 O147 1.986 . S
Mg140 O149 2.114 . S
Mg140 O150 2.251 . S
Mg140 O153 2.010 . S
O141 Mg140 2.028 . S
O141 C144 1.250 . S
O142 Mg143 2.028 . S
O142 C144 1.248 . S
Mg143 O142 2.028 . S
Mg143 O148 2.032 . S
Mg143 O150 2.079 . S
C144 O141 1.250 . S
C144 O142 1.248 . S
C145 O146 1.264 . S
C145 O153 1.249 . S
O146 C145 1.264 . S
O147 Mg140 1.986 . S
O147 C151 1.246 . S
O148 Mg143 2.032 . S
O148 C151 1.259 . S
O149 Mg140 2.114 . S
O149 C152 1.252 . S
O150 Mg140 2.251 . S
O150 Mg143 2.079 . S
O150 C152 1.273 . S
C151 O147 1.246 . S
C151 O148 1.259 . S
C152 O149 1.252 . S
C152 O150 1.273 . S
O153 Mg140 2.010 . S
O153 C145 1.249 . S
Mg154 O155 2.028 . S
Mg154 O161 1.986 . S
Mg154 O163 2.114 . S
Mg154 O164 2.251 . S
Mg154 O167 2.010 1_565 S
O155 Mg154 2.028 . S
O155 C158 1.250 . S
O156 Mg157 2.028 . S
O156 C158 1.248 . S
Mg157 O156 2.028 . S
Mg157 O162 2.032 . S
Mg157 O164 2.079 . S
C158 O155 1.250 . S
C158 O156 1.248 . S
C159 O160 1.264 . S
C159 O167 1.249 . S
O160 C159 1.264 . S
O161 Mg154 1.986 . S
O161 C165 1.246 . S
O162 Mg157 2.032 . S
O162 C165 1.259 . S
O163 Mg154 2.114 . S
O163 C166 1.252 . S
O164 Mg154 2.251 . S
O164 Mg157 2.079 . S
O164 C166 1.273 . S
C165 O161 1.246 . S
C165 O162 1.259 . S
C166 O163 1.252 . S
C166 O164 1.273 . S
O167 Mg154 2.010 1_545 S
O167 C159 1.249 . S
Mg168 O169 2.028 . S
Mg168 O175 1.986 . S
Mg168 O177 2.114 . S
Mg168 O178 2.251 . S
Mg168 O181 2.010 . S
O169 Mg168 2.028 . S
O169 C172 1.250 . S
O170 Mg171 2.028 . S
O170 C172 1.248 . S
Mg171 O170 2.028 . S
Mg171 O176 2.032 . S
Mg171 O178 2.079 . S
C172 O169 1.250 . S
C172 O170 1.248 . S
C173 O174 1.264 . S
C173 O181 1.249 . S
O174 C173 1.264 . S
O175 Mg168 1.986 . S
O175 C179 1.246 . S
O176 Mg171 2.032 . S
O176 C179 1.259 . S
O177 Mg168 2.114 . S
O177 C180 1.252 . S
O178 Mg168 2.251 . S
O178 Mg171 2.079 . S
O178 C180 1.273 . S
C179 O175 1.246 . S
C179 O176 1.259 . S
C180 O177 1.252 . S
C180 O178 1.273 . S
O181 Mg168 2.010 . S
O181 C173 1.249 . S
Mg182 O183 2.028 . S
Mg182 O189 1.986 . S
Mg182 O191 2.114 . S
Mg182 O192 2.251 . S
Mg182 O195 2.010 1_545 S
O183 Mg182 2.028 . S
O183 C186 1.250 . S
O184 Mg185 2.028 . S
O184 C186 1.248 . S
Mg185 O184 2.028 . S
Mg185 O190 2.032 . S
Mg185 O192 2.079 . S
C186 O183 1.250 . S
C186 O184 1.248 . S
C187 O188 1.264 . S
C187 O195 1.249 . S
O188 C187 1.264 . S
O189 Mg182 1.986 . S
O189 C193 1.246 . S
O190 Mg185 2.032 . S
O190 C193 1.259 . S
O191 Mg182 2.114 . S
O191 C194 1.252 . S
O192 Mg182 2.251 . S
O192 Mg185 2.079 . S
O192 C194 1.273 . S
C193 O189 1.246 . S
C193 O190 1.259 . S
C194 O191 1.252 . S
C194 O192 1.273 . S
O195 Mg182 2.010 1_565 S
O195 C187 1.249 . S
Mg196 O197 2.028 . S
Mg196 O203 1.986 . S
Mg196 O205 2.114 . S
Mg196 O206 2.251 . S
Mg196 O209 2.010 . S
O197 Mg196 2.028 . S
O197 C200 1.250 . S
O198 Mg199 2.028 . S
O198 C200 1.248 . S
Mg199 O198 2.028 . S
Mg199 O204 2.032 . S
Mg199 O206 2.079 . S
C200 O197 1.250 . S
C200 O198 1.248 . S
C201 O202 1.264 . S
C201 O209 1.249 . S
O202 C201 1.264 . S
O203 Mg196 1.986 . S
O203 C207 1.246 . S
O204 Mg199 2.032 . S
O204 C207 1.259 . S
O205 Mg196 2.114 . S
O205 C208 1.252 . S
O206 Mg196 2.251 . S
O206 Mg199 2.079 . S
O206 C208 1.273 . S
C207 O203 1.246 . S
C207 O204 1.259 . S
C208 O205 1.252 . S
C208 O206 1.273 . S
O209 Mg196 2.010 . S
O209 C201 1.249 . S
Mg210 O211 2.028 . S
Mg210 O217 1.986 . S
Mg210 O219 2.114 1_655 S
Mg210 O220 2.251 1_655 S
Mg210 O223 2.010 1_565 S
O211 Mg210 2.028 . S
O211 C214 1.250 . S
O212 Mg213 2.059 . S
O212 C214 1.248 . S
Mg213 O212 2.059 . S
Mg213 O218 2.042 . S
Mg213 O220 2.068 1_655 S
C214 O211 1.250 . S
C214 O212 1.248 . S
C215 O216 1.264 . S
C215 O223 1.249 . S
O216 C215 1.264 . S
O217 Mg210 1.986 . S
O217 C221 1.246 . S
O218 Mg213 2.042 . S
O218 C221 1.259 . S
O219 Mg210 2.114 1_455 S
O219 C222 1.252 . S
O220 Mg210 2.251 1_455 S
O220 Mg213 2.068 1_455 S
O220 C222 1.273 . S
C221 O217 1.246 . S
C221 O218 1.259 . S
C222 O219 1.252 . S
C222 O220 1.273 . S
O223 Mg210 2.010 1_545 S
O223 C215 1.249 . S
Mg224 O225 2.028 . S
Mg224 O231 1.986 . S
Mg224 O233 2.114 . S
Mg224 O234 2.251 . S
Mg224 O237 2.010 . S
O225 Mg224 2.028 . S
O225 C228 1.250 . S
O226 Mg227 2.028 . S
O226 C228 1.248 . S
Mg227 O226 2.028 . S
Mg227 O232 2.032 . S
Mg227 O234 2.079 . S
C228 O225 1.250 . S
C228 O226 1.248 . S
C229 O230 1.264 . S
C229 O237 1.249 . S
O230 C229 1.264 . S
O231 Mg224 1.986 . S
O231 C235 1.246 . S
O232 Mg227 2.032 . S
O232 C235 1.259 . S
O233 Mg224 2.114 . S
O233 C236 1.252 . S
O234 Mg224 2.251 . S
O234 Mg227 2.079 . S
O234 C236 1.273 . S
C235 O231 1.246 . S
C235 O232 1.259 . S
C236 O233 1.252 . S
C236 O234 1.273 . S
O237 Mg224 2.010 . S
O237 C229 1.249 . S
Mg238 O239 2.028 . S
Mg238 O245 1.986 . S
Mg238 O247 2.114 . S
Mg238 O248 2.251 . S
Mg238 O251 2.010 . S
O239 Mg238 2.028 . S
O239 C242 1.250 . S
O240 Mg241 2.028 . S
O240 C242 1.248 . S
Mg241 O240 2.028 . S
Mg241 O246 2.032 . S
Mg241 O248 2.079 . S
C242 O239 1.250 . S
C242 O240 1.248 . S
C243 O244 1.264 . S
C243 O251 1.249 . S
O244 C243 1.264 . S
O245 Mg238 1.986 . S
O245 C249 1.246 . S
O246 Mg241 2.032 . S
O246 C249 1.259 . S
O247 Mg238 2.114 . S
O247 C250 1.252 . S
O248 Mg238 2.251 . S
O248 Mg241 2.079 . S
O248 C250 1.273 . S
C249 O245 1.246 . S
C249 O246 1.259 . S
C250 O247 1.252 . S
C250 O248 1.273 . S
O251 Mg238 2.010 . S
O251 C243 1.249 . S
Mg252 O253 2.028 . S
Mg252 O259 1.986 . S
Mg252 O261 2.114 . S
Mg252 O262 2.251 . S
Mg252 O265 2.010 . S
O253 Mg252 2.028 . S
O253 C256 1.250 . S
O254 Mg255 2.028 . S
O254 C256 1.248 . S
Mg255 O254 2.028 . S
Mg255 O260 2.032 . S
Mg255 O262 2.079 . S
C256 O253 1.250 . S
C256 O254 1.248 . S
C257 O258 1.264 . S
C257 O265 1.249 . S
O258 C257 1.264 . S
O259 Mg252 1.986 . S
O259 C263 1.246 . S
O260 Mg255 2.032 . S
O260 C263 1.259 . S
O261 Mg252 2.114 . S
O261 C264 1.252 . S
O262 Mg252 2.251 . S
O262 Mg255 2.079 . S
O262 C264 1.273 . S
C263 O259 1.246 . S
C263 O260 1.259 . S
C264 O261 1.252 . S
C264 O262 1.273 . S
O265 Mg252 2.010 . S
O265 C257 1.249 . S
Mg266 O267 2.028 . S
Mg266 O273 1.986 . S
Mg266 O275 2.114 1_655 S
Mg266 O276 2.251 1_655 S
Mg266 O279 2.010 . S
O267 Mg266 2.028 . S
O267 C270 1.250 . S
O268 Mg269 2.060 . S
O268 C270 1.248 . S
Mg269 O268 2.060 . S
Mg269 O274 2.042 . S
Mg269 O276 2.068 1_655 S
C270 O267 1.250 . S
C270 O268 1.248 . S
C271 O272 1.264 . S
C271 O279 1.249 . S
O272 C271 1.264 . S
O273 Mg266 1.986 . S
O273 C277 1.246 . S
O274 Mg269 2.042 . S
O274 C277 1.259 . S
O275 Mg266 2.114 1_455 S
O275 C278 1.252 . S
O276 Mg266 2.251 1_455 S
O276 Mg269 2.068 1_455 S
O276 C278 1.273 . S
C277 O273 1.246 . S
C277 O274 1.259 . S
C278 O275 1.252 . S
C278 O276 1.273 . S
O279 Mg266 2.010 . S
O279 C271 1.249 . S
Mg280 O281 2.028 . S
Mg280 O287 1.986 . S
Mg280 O289 2.114 . S
Mg280 O290 2.251 . S
Mg280 O293 2.010 . S
O281 Mg280 2.028 . S
O281 C284 1.250 . S
O282 Mg283 2.028 . S
O282 C284 1.248 . S
Mg283 O282 2.028 . S
Mg283 O288 2.032 . S
Mg283 O290 2.079 . S
C284 O281 1.250 . S
C284 O282 1.248 . S
C285 O286 1.264 . S
C285 O293 1.249 . S
O286 C285 1.264 . S
O287 Mg280 1.986 . S
O287 C291 1.246 . S
O288 Mg283 2.032 . S
O288 C291 1.259 . S
O289 Mg280 2.114 . S
O289 C292 1.252 . S
O290 Mg280 2.251 . S
O290 Mg283 2.079 . S
O290 C292 1.273 . S
C291 O287 1.246 . S
C291 O288 1.259 . S
C292 O289 1.252 . S
C292 O290 1.273 . S
O293 Mg280 2.010 . S
O293 C285 1.249 . S
Mg294 O295 2.028 . S
Mg294 O301 1.986 . S
Mg294 O303 2.114 1_655 S
Mg294 O304 2.251 1_655 S
Mg294 O307 2.010 . S
O295 Mg294 2.028 . S
O295 C298 1.250 . S
O296 Mg297 2.060 . S
O296 C298 1.248 . S
Mg297 O296 2.060 . S
Mg297 O302 2.042 . S
Mg297 O304 2.068 1_655 S
C298 O295 1.250 . S
C298 O296 1.248 . S
C299 O300 1.264 . S
C299 O307 1.249 . S
O300 C299 1.264 . S
O301 Mg294 1.986 . S
O301 C305 1.246 . S
O302 Mg297 2.042 . S
O302 C305 1.259 . S
O303 Mg294 2.114 1_455 S
O303 C306 1.252 . S
O304 Mg294 2.251 1_455 S
O304 Mg297 2.068 1_455 S
O304 C306 1.273 . S
C305 O301 1.246 . S
C305 O302 1.259 . S
C306 O303 1.252 . S
C306 O304 1.273 . S
O307 Mg294 2.010 . S
O307 C299 1.249 . S
Mg308 O309 2.028 . S
Mg308 O315 1.986 . S
Mg308 O317 2.114 . S
Mg308 O318 2.251 . S
Mg308 O321 2.010 . S
O309 Mg308 2.028 . S
O309 C312 1.250 . S
O310 Mg311 2.028 . S
O310 C312 1.248 . S
Mg311 O310 2.028 . S
Mg311 O316 2.032 . S
Mg311 O318 2.079 . S
C312 O309 1.250 . S
C312 O310 1.248 . S
C313 O314 1.264 . S
C313 O321 1.249 . S
O314 C313 1.264 . S
O315 Mg308 1.986 . S
O315 C319 1.246 . S
O316 Mg311 2.032 . S
O316 C319 1.259 . S
O317 Mg308 2.114 . S
O317 C320 1.252 . S
O318 Mg308 2.251 . S
O318 Mg311 2.079 . S
O318 C320 1.273 . S
C319 O315 1.246 . S
C319 O316 1.259 . S
C320 O317 1.252 . S
C320 O318 1.273 . S
O321 Mg308 2.010 . S
O321 C313 1.249 . S
Mg322 O323 2.028 . S
Mg322 O329 1.986 . S
Mg322 O331 2.114 . S
Mg322 O332 2.251 . S
Mg322 O335 2.010 . S
O323 Mg322 2.028 . S
O323 C326 1.250 . S
O324 Mg325 2.028 . S
O324 C326 1.248 . S
Mg325 O324 2.028 . S
Mg325 O330 2.032 . S
Mg325 O332 2.079 . S
C326 O323 1.250 . S
C326 O324 1.248 . S
C327 O328 1.264 . S
C327 O335 1.249 . S
O328 C327 1.264 . S
O329 Mg322 1.986 . S
O329 C333 1.246 . S
O330 Mg325 2.032 . S
O330 C333 1.259 . S
O331 Mg322 2.114 . S
O331 C334 1.252 . S
O332 Mg322 2.251 . S
O332 Mg325 2.079 . S
O332 C334 1.273 . S
C333 O329 1.246 . S
C333 O330 1.259 . S
C334 O331 1.252 . S
C334 O332 1.273 . S
O335 Mg322 2.010 . S
O335 C327 1.249 . S
Mg336 O337 2.028 . S
Mg336 O343 1.986 . S
Mg336 O345 2.114 . S
Mg336 O346 2.251 . S
Mg336 O349 2.010 . S
O337 Mg336 2.028 . S
O337 C340 1.250 . S
O338 Mg339 2.028 . S
O338 C340 1.248 . S
Mg339 O338 2.028 . S
Mg339 O344 2.032 . S
Mg339 O346 2.079 . S
C340 O337 1.250 . S
C340 O338 1.248 . S
C341 O342 1.264 . S
C341 O349 1.249 . S
O342 C341 1.264 . S
O343 Mg336 1.986 . S
O343 C347 1.246 . S
O344 Mg339 2.032 . S
O344 C347 1.259 . S
O345 Mg336 2.114 . S
O345 C348 1.252 . S
O346 Mg336 2.251 . S
O346 Mg339 2.079 . S
O346 C348 1.273 . S
C347 O343 1.246 . S
C347 O344 1.259 . S
C348 O345 1.252 . S
C348 O346 1.273 . S
O349 Mg336 2.010 . S
O349 C341 1.249 . S
Mg350 O351 2.028 . S
Mg350 O357 1.986 . S
Mg350 O359 2.114 . S
Mg350 O360 2.251 . S
Mg350 O363 2.010 . S
O351 Mg350 2.028 . S
O351 C354 1.250 . S
O352 Mg353 2.028 . S
O352 C354 1.248 . S
Mg353 O352 2.028 . S
Mg353 O358 2.032 . S
Mg353 O360 2.079 . S
C354 O351 1.250 . S
C354 O352 1.248 . S
C355 O356 1.264 . S
C355 O363 1.249 . S
O356 C355 1.264 . S
O357 Mg350 1.986 . S
O357 C361 1.246 . S
O358 Mg353 2.032 . S
O358 C361 1.259 . S
O359 Mg350 2.114 . S
O359 C362 1.252 . S
O360 Mg350 2.251 . S
O360 Mg353 2.079 . S
O360 C362 1.273 . S
C361 O357 1.246 . S
C361 O358 1.259 . S
C362 O359 1.252 . S
C362 O360 1.273 . S
O363 Mg350 2.010 . S
O363 C355 1.249 . S
Mg364 O365 2.028 . S
Mg364 O371 1.986 . S
Mg364 O373 2.114 . S
Mg364 O374 2.251 . S
Mg364 O377 2.010 . S
O365 Mg364 2.028 . S
O365 C368 1.250 . S
O366 Mg367 2.028 . S
O366 C368 1.248 . S
Mg367 O366 2.028 . S
Mg367 O372 2.032 . S
Mg367 O374 2.079 . S
C368 O365 1.250 . S
C368 O366 1.248 . S
C369 O370 1.264 . S
C369 O377 1.249 . S
O370 C369 1.264 . S
O371 Mg364 1.986 . S
O371 C375 1.246 . S
O372 Mg367 2.032 . S
O372 C375 1.259 . S
O373 Mg364 2.114 . S
O373 C376 1.252 . S
O374 Mg364 2.251 . S
O374 Mg367 2.079 . S
O374 C376 1.273 . S
C375 O371 1.246 . S
C375 O372 1.259 . S
C376 O373 1.252 . S
C376 O374 1.273 . S
O377 Mg364 2.010 . S
O377 C369 1.249 . S
Mg378 O379 2.028 . S
Mg378 O385 1.986 . S
Mg378 O387 2.114 1_455 S
Mg378 O388 2.251 1_455 S
Mg378 O391 2.010 . S
O379 Mg378 2.028 . S
O379 C382 1.250 . S
O380 Mg381 2.060 . S
O380 C382 1.248 . S
Mg381 O380 2.060 . S
Mg381 O386 2.042 . S
Mg381 O388 2.068 1_455 S
C382 O379 1.250 . S
C382 O380 1.248 . S
C383 O384 1.264 . S
C383 O391 1.249 . S
O384 C383 1.264 . S
O385 Mg378 1.986 . S
O385 C389 1.246 . S
O386 Mg381 2.042 . S
O386 C389 1.259 . S
O387 Mg378 2.114 1_655 S
O387 C390 1.252 . S
O388 Mg378 2.251 1_655 S
O388 Mg381 2.068 1_655 S
O388 C390 1.273 . S
C389 O385 1.246 . S
C389 O386 1.259 . S
C390 O387 1.252 . S
C390 O388 1.273 . S
O391 Mg378 2.010 . S
O391 C383 1.249 . S
Mg392 O393 2.028 . S
Mg392 O399 1.986 . S
Mg392 O401 2.114 . S
Mg392 O402 2.251 . S
Mg392 O405 2.010 . S
O393 Mg392 2.028 . S
O393 C396 1.250 . S
O394 Mg395 2.028 . S
O394 C396 1.248 . S
Mg395 O394 2.028 . S
Mg395 O400 2.032 . S
Mg395 O402 2.079 . S
C396 O393 1.250 . S
C396 O394 1.248 . S
C397 O398 1.264 . S
C397 O405 1.249 . S
O398 C397 1.264 . S
O399 Mg392 1.986 . S
O399 C403 1.246 . S
O400 Mg395 2.032 . S
O400 C403 1.259 . S
O401 Mg392 2.114 . S
O401 C404 1.252 . S
O402 Mg392 2.251 . S
O402 Mg395 2.079 . S
O402 C404 1.273 . S
C403 O399 1.246 . S
C403 O400 1.259 . S
C404 O401 1.252 . S
C404 O402 1.273 . S
O405 Mg392 2.010 . S
O405 C397 1.249 . S
Mg406 O407 2.028 . S
Mg406 O413 1.986 . S
Mg406 O415 2.114 1_455 S
Mg406 O416 2.251 1_455 S
Mg406 O419 2.010 . S
O407 Mg406 2.028 . S
O407 C410 1.250 . S
O408 Mg409 2.060 . S
O408 C410 1.248 . S
Mg409 O408 2.060 . S
Mg409 O414 2.042 . S
Mg409 O416 2.068 1_455 S
C410 O407 1.250 . S
C410 O408 1.248 . S
C411 O412 1.264 . S
C411 O419 1.249 . S
O412 C411 1.264 . S
O413 Mg406 1.986 . S
O413 C417 1.246 . S
O414 Mg409 2.042 . S
O414 C417 1.259 . S
O415 Mg406 2.114 1_655 S
O415 C418 1.252 . S
O416 Mg406 2.251 1_655 S
O416 Mg409 2.068 1_655 S
O416 C418 1.273 . S
C417 O413 1.246 . S
C417 O414 1.259 . S
C418 O415 1.252 . S
C418 O416 1.273 . S
O419 Mg406 2.010 . S
O419 C411 1.249 . S
Mg420 O421 2.028 . S
Mg420 O427 1.986 . S
Mg420 O429 2.114 . S
Mg420 O430 2.251 . S
Mg420 O433 2.010 . S
O421 Mg420 2.028 . S
O421 C424 1.250 . S
O422 Mg423 2.028 . S
O422 C424 1.248 . S
Mg423 O422 2.028 . S
Mg423 O428 2.032 . S
Mg423 O430 2.079 . S
C424 O421 1.250 . S
C424 O422 1.248 . S
C425 O426 1.264 . S
C425 O433 1.249 . S
O426 C425 1.264 . S
O427 Mg420 1.986 . S
O427 C431 1.246 . S
O428 Mg423 2.032 . S
O428 C431 1.259 . S
O429 Mg420 2.114 . S
O429 C432 1.252 . S
O430 Mg420 2.251 . S
O430 Mg423 2.079 . S
O430 C432 1.273 . S
C431 O427 1.246 . S
C431 O428 1.259 . S
C432 O429 1.252 . S
C432 O430 1.273 . S
O433 Mg420 2.010 . S
O433 C425 1.249 . S
Mg434 O435 2.028 . S
Mg434 O441 1.986 . S
Mg434 O443 2.114 . S
Mg434 O444 2.251 . S
Mg434 O447 2.010 . S
O435 Mg434 2.028 . S
O435 C438 1.250 . S
O436 Mg437 2.028 . S
O436 C438 1.248 . S
Mg437 O436 2.028 . S
Mg437 O442 2.032 . S
Mg437 O444 2.079 . S
C438 O435 1.250 . S
C438 O436 1.248 . S
C439 O440 1.264 . S
C439 O447 1.249 . S
O440 C439 1.264 . S
O441 Mg434 1.986 . S
O441 C445 1.246 . S
O442 Mg437 2.032 . S
O442 C445 1.259 . S
O443 Mg434 2.114 . S
O443 C446 1.252 . S
O444 Mg434 2.251 . S
O444 Mg437 2.079 . S
O444 C446 1.273 . S
C445 O441 1.246 . S
C445 O442 1.259 . S
C446 O443 1.252 . S
C446 O444 1.273 . S
O447 Mg434 2.010 . S
O447 C439 1.249 . S
H448 C454 0.930 . S
H449 C458 0.930 . S
H450 C463 0.929 . S
H451 C461 0.929 . S
H452 C456 0.929 . S
H453 C462 0.929 . S
C454 H448 0.930 . S
C454 C455 1.367 . S
C454 C462 1.378 . S
C455 C454 1.367 . S
C455 C463 1.433 . S
C456 H452 0.929 . S
C456 C458 1.378 . S
C456 C460 1.350 . S
C457 C460 1.463 . S
C457 C462 1.350 . S
C457 N465 1.427 . S
C458 H449 0.930 . S
C458 C456 1.378 . S
C458 C459 1.367 . S
C459 C458 1.367 . S
C459 C461 1.433 . S
C460 C456 1.350 . S
C460 C457 1.463 . S
C460 N464 1.427 . S
C461 H451 0.929 . S
C461 C459 1.433 . S
C461 N464 1.384 . S
C462 H453 0.929 . S
C462 C454 1.378 . S
C462 C457 1.350 . S
C463 H450 0.929 . S
C463 C455 1.433 . S
C463 N465 1.384 . S
N464 C460 1.427 . S
N464 C461 1.384 . S
N465 C457 1.427 . S
N465 C463 1.384 . S
H466 C472 0.930 . S
H467 C476 0.930 . S
H468 C481 0.929 . S
H469 C479 0.929 . S
H470 C474 0.929 . S
H471 C480 0.929 . S
C472 H466 0.930 . S
C472 C473 1.367 . S
C472 C480 1.378 . S
C473 C472 1.367 . S
C473 C481 1.433 . S
C474 H470 0.929 . S
C474 C476 1.378 . S
C474 C478 1.350 . S
C475 C478 1.463 . S
C475 C480 1.350 . S
C475 N483 1.427 . S
C476 H467 0.930 . S
C476 C474 1.378 . S
C476 C477 1.367 . S
C477 C476 1.367 . S
C477 C479 1.433 . S
C478 C474 1.350 . S
C478 C475 1.463 . S
C478 N482 1.427 . S
C479 H469 0.929 . S
C479 C477 1.433 . S
C479 N482 1.384 . S
C480 H471 0.929 . S
C480 C472 1.378 . S
C480 C475 1.350 . S
C481 H468 0.929 . S
C481 C473 1.433 . S
C481 N483 1.384 . S
N482 C478 1.427 . S
N482 C479 1.384 . S
N483 C475 1.427 . S
N483 C481 1.384 . S
H484 C490 0.930 . S
H485 C494 0.930 . S
H486 C499 0.929 . S
H487 C497 0.929 . S
H488 C492 0.929 . S
H489 C498 0.929 . S
C490 H484 0.930 . S
C490 C491 1.367 . S
C490 C498 1.378 . S
C491 C490 1.367 . S
C491 C499 1.433 . S
C492 H488 0.929 . S
C492 C494 1.378 . S
C492 C496 1.350 . S
C493 C496 1.463 . S
C493 C498 1.350 . S
C493 N501 1.427 . S
C494 H485 0.930 . S
C494 C492 1.378 . S
C494 C495 1.367 . S
C495 C494 1.367 . S
C495 C497 1.433 . S
C496 C492 1.350 . S
C496 C493 1.463 . S
C496 N500 1.427 . S
C497 H487 0.929 . S
C497 C495 1.433 . S
C497 N500 1.384 . S
C498 H489 0.929 . S
C498 C490 1.378 . S
C498 C493 1.350 . S
C499 H486 0.929 . S
C499 C491 1.433 . S
C499 N501 1.384 . S
N500 C496 1.427 . S
N500 C497 1.384 . S
N501 C493 1.427 . S
N501 C499 1.384 . S
H502 C508 0.930 . S
H503 C512 0.930 . S
H504 C517 0.929 . S
H505 C515 0.929 . S
H506 C510 0.929 . S
H507 C516 0.929 . S
C508 H502 0.930 . S
C508 C509 1.367 . S
C508 C516 1.378 . S
C509 C508 1.367 . S
C509 C517 1.433 . S
C510 H506 0.929 . S
C510 C512 1.378 . S
C510 C514 1.350 . S
C511 C514 1.463 . S
C511 C516 1.350 . S
C511 N519 1.427 . S
C512 H503 0.930 . S
C512 C510 1.378 . S
C512 C513 1.367 . S
C513 C512 1.367 . S
C513 C515 1.433 . S
C514 C510 1.350 . S
C514 C511 1.463 . S
C514 N518 1.427 . S
C515 H505 0.929 . S
C515 C513 1.433 . S
C515 N518 1.384 . S
C516 H507 0.929 . S
C516 C508 1.378 . S
C516 C511 1.350 . S
C517 H504 0.929 . S
C517 C509 1.433 . S
C517 N519 1.384 . S
N518 C514 1.427 . S
N518 C515 1.384 . S
N519 C511 1.427 . S
N519 C517 1.384 . S
H520 C526 0.930 . S
H521 C530 0.930 . S
H522 C535 0.929 . S
H523 C533 0.929 . S
H524 C528 0.929 . S
H525 C534 0.929 . S
C526 H520 0.930 . S
C526 C527 1.367 . S
C526 C534 1.378 . S
C527 C526 1.367 . S
C527 C535 1.433 . S
C528 H524 0.929 . S
C528 C530 1.378 . S
C528 C532 1.350 . S
C529 C532 1.463 . S
C529 C534 1.350 . S
C529 N537 1.427 . S
C530 H521 0.930 . S
C530 C528 1.378 . S
C530 C531 1.367 . S
C531 C530 1.367 . S
C531 C533 1.433 . S
C532 C528 1.350 . S
C532 C529 1.463 . S
C532 N536 1.427 . S
C533 H523 0.929 . S
C533 C531 1.433 . S
C533 N536 1.384 . S
C534 H525 0.929 . S
C534 C526 1.378 . S
C534 C529 1.350 . S
C535 H522 0.929 . S
C535 C527 1.433 . S
C535 N537 1.384 . S
N536 C532 1.427 . S
N536 C533 1.384 . S
N537 C529 1.427 . S
N537 C535 1.384 . S
H538 C544 0.930 . S
H539 C548 0.930 . S
H540 C553 0.929 . S
H541 C551 0.929 . S
H542 C546 0.929 . S
H543 C552 0.929 . S
C544 H538 0.930 . S
C544 C545 1.367 . S
C544 C552 1.378 . S
C545 C544 1.367 . S
C545 C553 1.433 . S
C546 H542 0.929 . S
C546 C548 1.378 . S
C546 C550 1.350 . S
C547 C550 1.463 . S
C547 C552 1.350 . S
C547 N555 1.427 . S
C548 H539 0.930 . S
C548 C546 1.378 . S
C548 C549 1.367 . S
C549 C548 1.367 . S
C549 C551 1.433 . S
C550 C546 1.350 . S
C550 C547 1.463 . S
C550 N554 1.427 . S
C551 H541 0.929 . S
C551 C549 1.433 . S
C551 N554 1.384 . S
C552 H543 0.929 . S
C552 C544 1.378 . S
C552 C547 1.350 . S
C553 H540 0.929 . S
C553 C545 1.433 . S
C553 N555 1.384 . S
N554 C550 1.427 . S
N554 C551 1.384 . S
N555 C547 1.427 . S
N555 C553 1.384 . S
H556 C562 0.930 . S
H557 C566 0.930 . S
H558 C571 0.929 . S
H559 C569 0.929 . S
H560 C564 0.929 . S
H561 C570 0.929 . S
C562 H556 0.930 . S
C562 C563 1.367 . S
C562 C570 1.378 . S
C563 C562 1.367 . S
C563 C571 1.433 . S
C564 H560 0.929 . S
C564 C566 1.378 . S
C564 C568 1.350 . S
C565 C568 1.463 . S
C565 C570 1.350 . S
C565 N573 1.427 . S
C566 H557 0.930 . S
C566 C564 1.378 . S
C566 C567 1.367 . S
C567 C566 1.367 . S
C567 C569 1.433 . S
C568 C564 1.350 . S
C568 C565 1.463 . S
C568 N572 1.427 . S
C569 H559 0.929 . S
C569 C567 1.433 . S
C569 N572 1.384 . S
C570 H561 0.929 . S
C570 C562 1.378 . S
C570 C565 1.350 . S
C571 H558 0.929 . S
C571 C563 1.433 . S
C571 N573 1.384 . S
N572 C568 1.427 . S
N572 C569 1.384 . S
N573 C565 1.427 . S
N573 C571 1.384 . S
H574 C580 0.930 . S
H575 C584 0.930 . S
H576 C589 0.929 . S
H577 C587 0.929 . S
H578 C582 0.929 . S
H579 C588 0.929 . S
C580 H574 0.930 . S
C580 C581 1.367 . S
C580 C588 1.378 . S
C581 C580 1.367 . S
C581 C589 1.433 . S
C582 H578 0.929 . S
C582 C584 1.378 . S
C582 C586 1.350 . S
C583 C586 1.463 . S
C583 C588 1.350 . S
C583 N591 1.427 . S
C584 H575 0.930 . S
C584 C582 1.378 . S
C584 C585 1.367 . S
C585 C584 1.367 . S
C585 C587 1.433 . S
C586 C582 1.350 . S
C586 C583 1.463 . S
C586 N590 1.427 . S
C587 H577 0.929 . S
C587 C585 1.433 . S
C587 N590 1.384 . S
C588 H579 0.929 . S
C588 C580 1.378 . S
C588 C583 1.350 . S
C589 H576 0.929 . S
C589 C581 1.433 . S
C589 N591 1.384 . S
N590 C586 1.427 . S
N590 C587 1.384 . S
N591 C583 1.427 . S
N591 C589 1.384 . S
H592 C598 0.930 . S
H593 C602 0.930 . S
H594 C607 0.929 . S
H595 C605 0.929 . S
H596 C600 0.929 . S
H597 C606 0.929 . S
C598 H592 0.930 . S
C598 C599 1.367 . S
C598 C606 1.378 . S
C599 C598 1.367 . S
C599 C607 1.433 . S
C600 H596 0.929 . S
C600 C602 1.378 . S
C600 C604 1.350 . S
C601 C604 1.463 . S
C601 C606 1.350 . S
C601 N609 1.427 . S
C602 H593 0.930 . S
C602 C600 1.378 . S
C602 C603 1.367 . S
C603 C602 1.367 . S
C603 C605 1.433 . S
C604 C600 1.350 . S
C604 C601 1.463 . S
C604 N608 1.427 . S
C605 H595 0.929 . S
C605 C603 1.433 . S
C605 N608 1.384 . S
C606 H597 0.929 . S
C606 C598 1.378 . S
C606 C601 1.350 . S
C607 H594 0.929 . S
C607 C599 1.433 . S
C607 N609 1.384 . S
N608 C604 1.427 . S
N608 C605 1.384 . S
N609 C601 1.427 . S
N609 C607 1.384 . S
H610 C616 0.930 . S
H611 C620 0.930 . S
H612 C625 0.929 . S
H613 C623 0.929 . S
H614 C618 0.929 . S
H615 C624 0.929 . S
C616 H610 0.930 . S
C616 C617 1.367 . S
C616 C624 1.378 . S
C617 C616 1.367 . S
C617 C625 1.433 . S
C618 H614 0.929 . S
C618 C620 1.378 . S
C618 C622 1.350 . S
C619 C622 1.463 . S
C619 C624 1.350 . S
C619 N627 1.427 . S
C620 H611 0.930 . S
C620 C618 1.378 . S
C620 C621 1.367 . S
C621 C620 1.367 . S
C621 C623 1.433 . S
C622 C618 1.350 . S
C622 C619 1.463 . S
C622 N626 1.427 . S
C623 H613 0.929 . S
C623 C621 1.433 . S
C623 N626 1.384 . S
C624 H615 0.929 . S
C624 C616 1.378 . S
C624 C619 1.350 . S
C625 H612 0.929 . S
C625 C617 1.433 . S
C625 N627 1.384 . S
N626 C622 1.427 . S
N626 C623 1.384 . S
N627 C619 1.427 . S
N627 C625 1.384 . S
H628 C634 0.930 . S
H629 C638 0.930 . S
H630 C643 0.929 . S
H631 C641 0.929 . S
H632 C636 0.929 . S
H633 C642 0.929 . S
C634 H628 0.930 . S
C634 C635 1.367 . S
C634 C642 1.378 . S
C635 C634 1.367 . S
C635 C643 1.433 . S
C636 H632 0.929 . S
C636 C638 1.378 . S
C636 C640 1.350 . S
C637 C640 1.463 . S
C637 C642 1.350 . S
C637 N645 1.427 . S
C638 H629 0.930 . S
C638 C636 1.378 . S
C638 C639 1.367 . S
C639 C638 1.367 . S
C639 C641 1.433 . S
C640 C636 1.350 . S
C640 C637 1.463 . S
C640 N644 1.427 . S
C641 H631 0.929 . S
C641 C639 1.433 . S
C641 N644 1.384 . S
C642 H633 0.929 . S
C642 C634 1.378 . S
C642 C637 1.350 . S
C643 H630 0.929 . S
C643 C635 1.433 . S
C643 N645 1.384 . S
N644 C640 1.427 . S
N644 C641 1.384 . S
N645 C637 1.427 . S
N645 C643 1.384 . S
H646 C652 0.930 . S
H647 C656 0.930 . S
H648 C661 0.929 . S
H649 C659 0.929 . S
H650 C654 0.929 . S
H651 C660 0.929 . S
C652 H646 0.930 . S
C652 C653 1.367 . S
C652 C660 1.378 . S
C653 C652 1.367 . S
C653 C661 1.433 . S
C654 H650 0.929 . S
C654 C656 1.378 . S
C654 C658 1.350 . S
C655 C658 1.463 . S
C655 C660 1.350 . S
C655 N663 1.427 . S
C656 H647 0.930 . S
C656 C654 1.378 . S
C656 C657 1.367 . S
C657 C656 1.367 . S
C657 C659 1.433 . S
C658 C654 1.350 . S
C658 C655 1.463 . S
C658 N662 1.427 . S
C659 H649 0.929 . S
C659 C657 1.433 . S
C659 N662 1.384 . S
C660 H651 0.929 . S
C660 C652 1.378 . S
C660 C655 1.350 . S
C661 H648 0.929 . S
C661 C653 1.433 . S
C661 N663 1.384 . S
N662 C658 1.427 . S
N662 C659 1.384 . S
N663 C655 1.427 . S
N663 C661 1.384 . S
H664 C670 0.930 . S
H665 C674 0.930 . S
H666 C679 0.929 . S
H667 C677 0.929 . S
H668 C672 0.929 . S
H669 C678 0.929 . S
C670 H664 0.930 . S
C670 C671 1.367 . S
C670 C678 1.378 . S
C671 C670 1.367 . S
C671 C679 1.433 . S
C672 H668 0.929 . S
C672 C674 1.378 . S
C672 C676 1.350 . S
C673 C676 1.463 . S
C673 C678 1.350 . S
C673 N681 1.427 . S
C674 H665 0.930 . S
C674 C672 1.378 . S
C674 C675 1.367 . S
C675 C674 1.367 . S
C675 C677 1.433 . S
C676 C672 1.350 . S
C676 C673 1.463 . S
C676 N680 1.427 . S
C677 H667 0.929 . S
C677 C675 1.433 . S
C677 N680 1.384 . S
C678 H669 0.929 . S
C678 C670 1.378 . S
C678 C673 1.350 . S
C679 H666 0.929 . S
C679 C671 1.433 . S
C679 N681 1.384 . S
N680 C676 1.427 . S
N680 C677 1.384 . S
N681 C673 1.427 . S
N681 C679 1.384 . S
H682 C688 0.930 . S
H683 C692 0.930 . S
H684 C697 0.929 . S
H685 C695 0.929 . S
H686 C690 0.929 . S
H687 C696 0.929 . S
C688 H682 0.930 . S
C688 C689 1.367 . S
C688 C696 1.378 . S
C689 C688 1.367 . S
C689 C697 1.433 . S
C690 H686 0.929 . S
C690 C692 1.378 . S
C690 C694 1.350 . S
C691 C694 1.463 . S
C691 C696 1.350 . S
C691 N699 1.427 . S
C692 H683 0.930 . S
C692 C690 1.378 . S
C692 C693 1.367 . S
C693 C692 1.367 . S
C693 C695 1.433 . S
C694 C690 1.350 . S
C694 C691 1.463 . S
C694 N698 1.427 . S
C695 H685 0.929 . S
C695 C693 1.433 . S
C695 N698 1.384 . S
C696 H687 0.929 . S
C696 C688 1.378 . S
C696 C691 1.350 . S
C697 H684 0.929 . S
C697 C689 1.433 . S
C697 N699 1.384 . S
N698 C694 1.427 . S
N698 C695 1.384 . S
N699 C691 1.427 . S
N699 C697 1.384 . S
H700 C706 0.930 . S
H701 C710 0.930 . S
H702 C715 0.929 . S
H703 C713 0.929 . S
H704 C708 0.929 . S
H705 C714 0.929 . S
C706 H700 0.930 . S
C706 C707 1.367 . S
C706 C714 1.378 . S
C707 C706 1.367 . S
C707 C715 1.433 . S
C708 H704 0.929 . S
C708 C710 1.378 . S
C708 C712 1.350 . S
C709 C712 1.463 . S
C709 C714 1.350 . S
C709 N717 1.427 . S
C710 H701 0.930 . S
C710 C708 1.378 . S
C710 C711 1.367 . S
C711 C710 1.367 . S
C711 C713 1.433 . S
C712 C708 1.350 . S
C712 C709 1.463 . S
C712 N716 1.427 . S
C713 H703 0.929 . S
C713 C711 1.433 . S
C713 N716 1.384 . S
C714 H705 0.929 . S
C714 C706 1.378 . S
C714 C709 1.350 . S
C715 H702 0.929 . S
C715 C707 1.433 . S
C715 N717 1.384 . S
N716 C712 1.427 . S
N716 C713 1.384 . S
N717 C709 1.427 . S
N717 C715 1.384 . S
H718 C724 0.930 . S
H719 C728 0.930 . S
H720 C733 0.929 . S
H721 C731 0.929 . S
H722 C726 0.929 . S
H723 C732 0.929 . S
C724 H718 0.930 . S
C724 C725 1.367 . S
C724 C732 1.378 . S
C725 C724 1.367 . S
C725 C733 1.433 . S
C726 H722 0.929 . S
C726 C728 1.378 . S
C726 C730 1.350 . S
C727 C730 1.463 . S
C727 C732 1.350 . S
C727 N735 1.427 . S
C728 H719 0.930 . S
C728 C726 1.378 . S
C728 C729 1.367 . S
C729 C728 1.367 . S
C729 C731 1.433 . S
C730 C726 1.350 . S
C730 C727 1.463 . S
C730 N734 1.427 . S
C731 H721 0.929 . S
C731 C729 1.433 . S
C731 N734 1.384 . S
C732 H723 0.929 . S
C732 C724 1.378 . S
C732 C727 1.350 . S
C733 H720 0.929 . S
C733 C725 1.433 . S
C733 N735 1.384 . S
N734 C730 1.427 . S
N734 C731 1.384 . S
N735 C727 1.427 . S
N735 C733 1.384 . S
H736 C742 0.930 . S
H737 C746 0.930 . S
H738 C751 0.929 . S
H739 C749 0.929 . S
H740 C744 0.929 . S
H741 C750 0.929 . S
C742 H736 0.930 . S
C742 C743 1.367 . S
C742 C750 1.378 . S
C743 C742 1.367 . S
C743 C751 1.433 . S
C744 H740 0.929 . S
C744 C746 1.378 . S
C744 C748 1.350 . S
C745 C748 1.463 . S
C745 C750 1.350 . S
C745 N753 1.427 . S
C746 H737 0.930 . S
C746 C744 1.378 . S
C746 C747 1.367 . S
C747 C746 1.367 . S
C747 C749 1.433 . S
C748 C744 1.350 . S
C748 C745 1.463 . S
C748 N752 1.427 . S
C749 H739 0.929 . S
C749 C747 1.433 . S
C749 N752 1.384 . S
C750 H741 0.929 . S
C750 C742 1.378 . S
C750 C745 1.350 . S
C751 H738 0.929 . S
C751 C743 1.433 . S
C751 N753 1.384 . S
N752 C748 1.427 . S
N752 C749 1.384 . S
N753 C745 1.427 . S
N753 C751 1.384 . S
H754 C760 0.930 . S
H755 C764 0.930 . S
H756 C769 0.929 . S
H757 C767 0.929 . S
H758 C762 0.929 . S
H759 C768 0.929 . S
C760 H754 0.930 . S
C760 C761 1.367 . S
C760 C768 1.378 . S
C761 C760 1.367 . S
C761 C769 1.433 . S
C762 H758 0.929 . S
C762 C764 1.378 . S
C762 C766 1.350 . S
C763 C766 1.463 . S
C763 C768 1.350 . S
C763 N771 1.427 . S
C764 H755 0.930 . S
C764 C762 1.378 . S
C764 C765 1.367 . S
C765 C764 1.367 . S
C765 C767 1.433 . S
C766 C762 1.350 . S
C766 C763 1.463 . S
C766 N770 1.427 . S
C767 H757 0.929 . S
C767 C765 1.433 . S
C767 N770 1.384 . S
C768 H759 0.929 . S
C768 C760 1.378 . S
C768 C763 1.350 . S
C769 H756 0.929 . S
C769 C761 1.433 . S
C769 N771 1.384 . S
N770 C766 1.427 . S
N770 C767 1.384 . S
N771 C763 1.427 . S
N771 C769 1.384 . S
H772 C778 0.930 . S
H773 C782 0.930 . S
H774 C787 0.929 . S
H775 C785 0.929 . S
H776 C780 0.929 . S
H777 C786 0.929 . S
C778 H772 0.930 . S
C778 C779 1.367 . S
C778 C786 1.378 . S
C779 C778 1.367 . S
C779 C787 1.433 . S
C780 H776 0.929 . S
C780 C782 1.378 . S
C780 C784 1.350 . S
C781 C784 1.463 . S
C781 C786 1.350 . S
C781 N789 1.427 . S
C782 H773 0.930 . S
C782 C780 1.378 . S
C782 C783 1.367 . S
C783 C782 1.367 . S
C783 C785 1.433 . S
C784 C780 1.350 . S
C784 C781 1.463 . S
C784 N788 1.427 . S
C785 H775 0.929 . S
C785 C783 1.433 . S
C785 N788 1.384 . S
C786 H777 0.929 . S
C786 C778 1.378 . S
C786 C781 1.350 . S
C787 H774 0.929 . S
C787 C779 1.433 . S
C787 N789 1.384 . S
N788 C784 1.427 . S
N788 C785 1.384 . S
N789 C781 1.427 . S
N789 C787 1.384 . S
H790 C796 0.930 . S
H791 C800 0.930 . S
H792 C805 0.929 . S
H793 C803 0.929 . S
H794 C798 0.929 . S
H795 C804 0.929 . S
C796 H790 0.930 . S
C796 C797 1.367 . S
C796 C804 1.378 . S
C797 C796 1.367 . S
C797 C805 1.433 . S
C798 H794 0.929 . S
C798 C800 1.378 . S
C798 C802 1.350 . S
C799 C802 1.463 . S
C799 C804 1.350 . S
C799 N807 1.427 . S
C800 H791 0.930 . S
C800 C798 1.378 . S
C800 C801 1.367 . S
C801 C800 1.367 . S
C801 C803 1.433 . S
C802 C798 1.350 . S
C802 C799 1.463 . S
C802 N806 1.427 . S
C803 H793 0.929 . S
C803 C801 1.433 . S
C803 N806 1.384 . S
C804 H795 0.929 . S
C804 C796 1.378 . S
C804 C799 1.350 . S
C805 H792 0.929 . S
C805 C797 1.433 . S
C805 N807 1.384 . S
N806 C802 1.427 . S
N806 C803 1.384 . S
N807 C799 1.427 . S
N807 C805 1.384 . S
H808 C814 0.930 . S
H809 C818 0.930 . S
H810 C823 0.929 . S
H811 C821 0.929 . S
H812 C816 0.929 . S
H813 C822 0.929 . S
C814 H808 0.930 . S
C814 C815 1.367 . S
C814 C822 1.378 . S
C815 C814 1.367 . S
C815 C823 1.433 . S
C816 H812 0.929 . S
C816 C818 1.378 . S
C816 C820 1.350 . S
C817 C820 1.463 . S
C817 C822 1.350 . S
C817 N825 1.427 . S
C818 H809 0.930 . S
C818 C816 1.378 . S
C818 C819 1.367 . S
C819 C818 1.367 . S
C819 C821 1.433 . S
C820 C816 1.350 . S
C820 C817 1.463 . S
C820 N824 1.427 . S
C821 H811 0.929 . S
C821 C819 1.433 . S
C821 N824 1.384 . S
C822 H813 0.929 . S
C822 C814 1.378 . S
C822 C817 1.350 . S
C823 H810 0.929 . S
C823 C815 1.433 . S
C823 N825 1.384 . S
N824 C820 1.427 . S
N824 C821 1.384 . S
N825 C817 1.427 . S
N825 C823 1.384 . S
H826 C832 0.930 . S
H827 C836 0.930 . S
H828 C841 0.929 . S
H829 C839 0.929 . S
H830 C834 0.929 . S
H831 C840 0.929 . S
C832 H826 0.930 . S
C832 C833 1.367 . S
C832 C840 1.378 . S
C833 C832 1.367 . S
C833 C841 1.433 . S
C834 H830 0.929 . S
C834 C836 1.378 . S
C834 C838 1.350 . S
C835 C838 1.463 . S
C835 C840 1.350 . S
C835 N843 1.427 . S
C836 H827 0.930 . S
C836 C834 1.378 . S
C836 C837 1.367 . S
C837 C836 1.367 . S
C837 C839 1.433 . S
C838 C834 1.350 . S
C838 C835 1.463 . S
C838 N842 1.427 . S
C839 H829 0.929 . S
C839 C837 1.433 . S
C839 N842 1.384 . S
C840 H831 0.929 . S
C840 C832 1.378 . S
C840 C835 1.350 . S
C841 H828 0.929 . S
C841 C833 1.433 . S
C841 N843 1.384 . S
N842 C838 1.427 . S
N842 C839 1.384 . S
N843 C835 1.427 . S
N843 C841 1.384 . S
H844 C850 0.930 . S
H845 C854 0.930 . S
H846 C859 0.929 . S
H847 C857 0.929 . S
H848 C852 0.929 . S
H849 C858 0.929 . S
C850 H844 0.930 . S
C850 C851 1.367 . S
C850 C858 1.378 . S
C851 C850 1.367 . S
C851 C859 1.433 . S
C852 H848 0.929 . S
C852 C854 1.378 . S
C852 C856 1.350 . S
C853 C856 1.463 . S
C853 C858 1.350 . S
C853 N861 1.427 . S
C854 H845 0.930 . S
C854 C852 1.378 . S
C854 C855 1.367 . S
C855 C854 1.367 . S
C855 C857 1.433 . S
C856 C852 1.350 . S
C856 C853 1.463 . S
C856 N860 1.427 . S
C857 H847 0.929 . S
C857 C855 1.433 . S
C857 N860 1.384 . S
C858 H849 0.929 . S
C858 C850 1.378 . S
C858 C853 1.350 . S
C859 H846 0.929 . S
C859 C851 1.433 . S
C859 N861 1.384 . S
N860 C856 1.427 . S
N860 C857 1.384 . S
N861 C853 1.427 . S
N861 C859 1.384 . S
H862 C868 0.930 . S
H863 C872 0.930 . S
H864 C877 0.929 . S
H865 C875 0.929 . S
H866 C870 0.929 . S
H867 C876 0.929 . S
C868 H862 0.930 . S
C868 C869 1.367 . S
C868 C876 1.378 . S
C869 C868 1.367 . S
C869 C877 1.433 . S
C870 H866 0.929 . S
C870 C872 1.378 . S
C870 C874 1.350 . S
C871 C874 1.463 . S
C871 C876 1.350 . S
C871 N879 1.427 . S
C872 H863 0.930 . S
C872 C870 1.378 . S
C872 C873 1.367 . S
C873 C872 1.367 . S
C873 C875 1.433 . S
C874 C870 1.350 . S
C874 C871 1.463 . S
C874 N878 1.427 . S
C875 H865 0.929 . S
C875 C873 1.433 . S
C875 N878 1.384 . S
C876 H867 0.929 . S
C876 C868 1.378 . S
C876 C871 1.350 . S
C877 H864 0.929 . S
C877 C869 1.433 . S
C877 N879 1.384 . S
N878 C874 1.427 . S
N878 C875 1.384 . S
N879 C871 1.427 . S
N879 C877 1.384 . S
H880 C886 0.930 . S
H881 C890 0.930 . S
H882 C895 0.929 . S
H883 C893 0.929 . S
H884 C888 0.929 . S
H885 C894 0.929 . S
C886 H880 0.930 . S
C886 C887 1.367 . S
C886 C894 1.378 . S
C887 C886 1.367 . S
C887 C895 1.433 . S
C888 H884 0.929 . S
C888 C890 1.378 . S
C888 C892 1.350 . S
C889 C892 1.463 . S
C889 C894 1.350 . S
C889 N897 1.427 . S
C890 H881 0.930 . S
C890 C888 1.378 . S
C890 C891 1.367 . S
C891 C890 1.367 . S
C891 C893 1.433 . S
C892 C888 1.350 . S
C892 C889 1.463 . S
C892 N896 1.427 . S
C893 H883 0.929 . S
C893 C891 1.433 . S
C893 N896 1.384 . S
C894 H885 0.929 . S
C894 C886 1.378 . S
C894 C889 1.350 . S
C895 H882 0.929 . S
C895 C887 1.433 . S
C895 N897 1.384 . S
N896 C892 1.427 . S
N896 C893 1.384 . S
N897 C889 1.427 . S
N897 C895 1.384 . S
H898 C904 0.930 . S
H899 C908 0.930 . S
H900 C913 0.929 . S
H901 C911 0.929 . S
H902 C906 0.929 . S
H903 C912 0.929 . S
C904 H898 0.930 . S
C904 C905 1.367 . S
C904 C912 1.378 . S
C905 C904 1.367 . S
C905 C913 1.433 . S
C906 H902 0.929 . S
C906 C908 1.378 . S
C906 C910 1.350 . S
C907 C910 1.463 . S
C907 C912 1.350 . S
C907 N915 1.427 . S
C908 H899 0.930 . S
C908 C906 1.378 . S
C908 C909 1.367 . S
C909 C908 1.367 . S
C909 C911 1.433 . S
C910 C906 1.350 . S
C910 C907 1.463 . S
C910 N914 1.427 . S
C911 H901 0.929 . S
C911 C909 1.433 . S
C911 N914 1.384 . S
C912 H903 0.929 . S
C912 C904 1.378 . S
C912 C907 1.350 . S
C913 H900 0.929 . S
C913 C905 1.433 . S
C913 N915 1.384 . S
N914 C910 1.427 . S
N914 C911 1.384 . S
N915 C907 1.427 . S
N915 C913 1.384 . S
H916 C922 0.930 . S
H917 C926 0.930 . S
H918 C931 0.929 . S
H919 C929 0.929 . S
H920 C924 0.929 . S
H921 C930 0.929 . S
C922 H916 0.930 . S
C922 C923 1.367 . S
C922 C930 1.378 . S
C923 C922 1.367 . S
C923 C931 1.433 . S
C924 H920 0.929 . S
C924 C926 1.378 . S
C924 C928 1.350 . S
C925 C928 1.463 . S
C925 C930 1.350 . S
C925 N933 1.427 . S
C926 H917 0.930 . S
C926 C924 1.378 . S
C926 C927 1.367 . S
C927 C926 1.367 . S
C927 C929 1.433 . S
C928 C924 1.350 . S
C928 C925 1.463 . S
C928 N932 1.427 . S
C929 H919 0.929 . S
C929 C927 1.433 . S
C929 N932 1.384 . S
C930 H921 0.929 . S
C930 C922 1.378 . S
C930 C925 1.350 . S
C931 H918 0.929 . S
C931 C923 1.433 . S
C931 N933 1.384 . S
N932 C928 1.427 . S
N932 C929 1.384 . S
N933 C925 1.427 . S
N933 C931 1.384 . S
H934 C940 0.930 . S
H935 C944 0.930 . S
H936 C949 0.929 . S
H937 C947 0.929 . S
H938 C942 0.929 . S
H939 C948 0.929 . S
C940 H934 0.930 . S
C940 C941 1.367 . S
C940 C948 1.378 . S
C941 C940 1.367 . S
C941 C949 1.433 . S
C942 H938 0.929 . S
C942 C944 1.378 . S
C942 C946 1.350 . S
C943 C946 1.463 . S
C943 C948 1.350 . S
C943 N951 1.427 . S
C944 H935 0.930 . S
C944 C942 1.378 . S
C944 C945 1.367 . S
C945 C944 1.367 . S
C945 C947 1.433 . S
C946 C942 1.350 . S
C946 C943 1.463 . S
C946 N950 1.427 . S
C947 H937 0.929 . S
C947 C945 1.433 . S
C947 N950 1.384 . S
C948 H939 0.929 . S
C948 C940 1.378 . S
C948 C943 1.350 . S
C949 H936 0.929 . S
C949 C941 1.433 . S
C949 N951 1.384 . S
N950 C946 1.427 . S
N950 C947 1.384 . S
N951 C943 1.427 . S
N951 C949 1.384 . S
H952 C958 0.930 . S
H953 C962 0.930 . S
H954 C967 0.929 . S
H955 C965 0.929 . S
H956 C960 0.929 . S
H957 C966 0.929 . S
C958 H952 0.930 . S
C958 C959 1.367 . S
C958 C966 1.378 . S
C959 C958 1.367 . S
C959 C967 1.433 . S
C960 H956 0.929 . S
C960 C962 1.378 . S
C960 C964 1.350 . S
C961 C964 1.463 . S
C961 C966 1.350 . S
C961 N969 1.427 . S
C962 H953 0.930 . S
C962 C960 1.378 . S
C962 C963 1.367 . S
C963 C962 1.367 . S
C963 C965 1.433 . S
C964 C960 1.350 . S
C964 C961 1.463 . S
C964 N968 1.427 . S
C965 H955 0.929 . S
C965 C963 1.433 . S
C965 N968 1.384 . S
C966 H957 0.929 . S
C966 C958 1.378 . S
C966 C961 1.350 . S
C967 H954 0.929 . S
C967 C959 1.433 . S
C967 N969 1.384 . S
N968 C964 1.427 . S
N968 C965 1.384 . S
N969 C961 1.427 . S
N969 C967 1.384 . S
H970 C976 0.930 . S
H971 C980 0.930 . S
H972 C985 0.929 . S
H973 C983 0.929 . S
H974 C978 0.929 . S
H975 C984 0.929 . S
C976 H970 0.930 . S
C976 C977 1.367 . S
C976 C984 1.378 . S
C977 C976 1.367 . S
C977 C985 1.433 . S
C978 H974 0.929 . S
C978 C980 1.378 . S
C978 C982 1.350 . S
C979 C982 1.463 . S
C979 C984 1.350 . S
C979 N987 1.427 . S
C980 H971 0.930 . S
C980 C978 1.378 . S
C980 C981 1.367 . S
C981 C980 1.367 . S
C981 C983 1.433 . S
C982 C978 1.350 . S
C982 C979 1.463 . S
C982 N986 1.427 . S
C983 H973 0.929 . S
C983 C981 1.433 . S
C983 N986 1.384 . S
C984 H975 0.929 . S
C984 C976 1.378 . S
C984 C979 1.350 . S
C985 H972 0.929 . S
C985 C977 1.433 . S
C985 N987 1.384 . S
N986 C982 1.427 . S
N986 C983 1.384 . S
N987 C979 1.427 . S
N987 C985 1.384 . S
H988 C994 0.930 . S
H989 C998 0.930 . S
H990 C1003 0.929 . S
H991 C1001 0.929 . S
H992 C996 0.929 . S
H993 C1002 0.929 . S
C994 H988 0.930 . S
C994 C995 1.367 . S
C994 C1002 1.378 . S
C995 C994 1.367 . S
C995 C1003 1.433 . S
C996 H992 0.929 . S
C996 C998 1.378 . S
C996 C1000 1.350 . S
C997 C1000 1.463 . S
C997 C1002 1.350 . S
C997 N1005 1.427 . S
C998 H989 0.930 . S
C998 C996 1.378 . S
C998 C999 1.367 . S
C999 C998 1.367 . S
C999 C1001 1.433 . S
C1000 C996 1.350 . S
C1000 C997 1.463 . S
C1000 N1004 1.427 . S
C1001 H991 0.929 . S
C1001 C999 1.433 . S
C1001 N1004 1.384 . S
C1002 H993 0.929 . S
C1002 C994 1.378 . S
C1002 C997 1.350 . S
C1003 H990 0.929 . S
C1003 C995 1.433 . S
C1003 N1005 1.384 . S
N1004 C1000 1.427 . S
N1004 C1001 1.384 . S
N1005 C997 1.427 . S
N1005 C1003 1.384 . S
H1006 C1012 0.930 . S
H1007 C1016 0.930 . S
H1008 C1021 0.929 . S
H1009 C1019 0.929 . S
H1010 C1014 0.929 . S
H1011 C1020 0.929 . S
C1012 H1006 0.930 . S
C1012 C1013 1.367 . S
C1012 C1020 1.378 . S
C1013 C1012 1.367 . S
C1013 C1021 1.433 . S
C1014 H1010 0.929 . S
C1014 C1016 1.378 . S
C1014 C1018 1.350 . S
C1015 C1018 1.463 . S
C1015 C1020 1.350 . S
C1015 N1023 1.427 . S
C1016 H1007 0.930 . S
C1016 C1014 1.378 . S
C1016 C1017 1.367 . S
C1017 C1016 1.367 . S
C1017 C1019 1.433 . S
C1018 C1014 1.350 . S
C1018 C1015 1.463 . S
C1018 N1022 1.427 . S
C1019 H1009 0.929 . S
C1019 C1017 1.433 . S
C1019 N1022 1.384 . S
C1020 H1011 0.929 . S
C1020 C1012 1.378 . S
C1020 C1015 1.350 . S
C1021 H1008 0.929 . S
C1021 C1013 1.433 . S
C1021 N1023 1.384 . S
N1022 C1018 1.427 . S
N1022 C1019 1.384 . S
N1023 C1015 1.427 . S
N1023 C1021 1.384 . S
H1024 C1030 0.930 . S
H1025 C1034 0.930 . S
H1026 C1039 0.929 . S
H1027 C1037 0.929 . S
H1028 C1032 0.929 . S
H1029 C1038 0.929 . S
C1030 H1024 0.930 . S
C1030 C1031 1.367 . S
C1030 C1038 1.378 . S
C1031 C1030 1.367 . S
C1031 C1039 1.433 . S
C1032 H1028 0.929 . S
C1032 C1034 1.378 . S
C1032 C1036 1.350 . S
C1033 C1036 1.463 . S
C1033 C1038 1.350 . S
C1033 N1041 1.427 . S
C1034 H1025 0.930 . S
C1034 C1032 1.378 . S
C1034 C1035 1.367 . S
C1035 C1034 1.367 . S
C1035 C1037 1.433 . S
C1036 C1032 1.350 . S
C1036 C1033 1.463 . S
C1036 N1040 1.427 . S
C1037 H1027 0.929 . S
C1037 C1035 1.433 . S
C1037 N1040 1.384 . S
C1038 H1029 0.929 . S
C1038 C1030 1.378 . S
C1038 C1033 1.350 . S
C1039 H1026 0.929 . S
C1039 C1031 1.433 . S
C1039 N1041 1.384 . S
N1040 C1036 1.427 . S
N1040 C1037 1.384 . S
N1041 C1033 1.427 . S
N1041 C1039 1.384 . S
H1042 C1048 0.930 . S
H1043 C1052 0.930 . S
H1044 C1057 0.929 . S
H1045 C1055 0.929 . S
H1046 C1050 0.929 . S
H1047 C1056 0.929 . S
C1048 H1042 0.930 . S
C1048 C1049 1.367 1_545 S
C1048 C1056 1.378 . S
C1049 C1048 1.367 1_565 S
C1049 C1057 1.433 1_455 S
C1050 H1046 0.929 . S
C1050 C1052 1.378 . S
C1050 C1054 1.350 1_565 S
C1051 C1054 1.463 1_465 S
C1051 C1056 1.350 1_565 S
C1051 N1059 1.427 1_455 S
C1052 H1043 0.930 . S
C1052 C1050 1.378 . S
C1052 C1053 1.367 1_565 S
C1053 C1052 1.367 1_545 S
C1053 C1055 1.433 1_655 S
C1054 C1050 1.350 1_545 S
C1054 C1051 1.463 1_645 S
C1054 N1058 1.427 1_655 S
C1055 H1045 0.929 . S
C1055 C1053 1.433 1_455 S
C1055 N1058 1.384 . S
C1056 H1047 0.929 . S
C1056 C1048 1.378 . S
C1056 C1051 1.350 1_545 S
C1057 H1044 0.929 . S
C1057 C1049 1.433 1_655 S
C1057 N1059 1.384 . S
N1058 C1054 1.427 1_455 S
N1058 C1055 1.384 . S
N1059 C1051 1.427 1_655 S
N1059 C1057 1.384 . S
H1060 C1066 0.930 . S
H1061 C1070 0.930 . S
H1062 C1075 0.929 . S
H1063 C1073 0.929 . S
H1064 C1068 0.929 . S
H1065 C1074 0.929 . S
C1066 H1060 0.930 . S
C1066 C1067 1.367 . S
C1066 C1074 1.378 . S
C1067 C1066 1.367 . S
C1067 C1075 1.433 . S
C1068 H1064 0.929 . S
C1068 C1070 1.378 . S
C1068 C1072 1.350 . S
C1069 C1072 1.463 . S
C1069 C1074 1.350 . S
C1069 N1077 1.427 . S
C1070 H1061 0.930 . S
C1070 C1068 1.378 . S
C1070 C1071 1.367 . S
C1071 C1070 1.367 . S
C1071 C1073 1.433 . S
C1072 C1068 1.350 . S
C1072 C1069 1.463 . S
C1072 N1076 1.427 . S
C1073 H1063 0.929 . S
C1073 C1071 1.433 . S
C1073 N1076 1.384 . S
C1074 H1065 0.929 . S
C1074 C1066 1.378 . S
C1074 C1069 1.350 . S
C1075 H1062 0.929 . S
C1075 C1067 1.433 . S
C1075 N1077 1.384 . S
N1076 C1072 1.427 . S
N1076 C1073 1.384 . S
N1077 C1069 1.427 . S
N1077 C1075 1.384 . S
H1078 C1084 0.930 . S
H1079 C1088 0.930 . S
H1080 C1093 0.929 . S
H1081 C1091 0.929 . S
H1082 C1086 0.929 . S
H1083 C1092 0.929 . S
C1084 H1078 0.930 . S
C1084 C1085 1.367 1_565 S
C1084 C1092 1.378 . S
C1085 C1084 1.367 1_545 S
C1085 C1093 1.433 . S
C1086 H1082 0.929 . S
C1086 C1088 1.378 . S
C1086 C1090 1.350 1_545 S
C1087 C1090 1.463 1_544 S
C1087 C1092 1.350 1_545 S
C1087 N1095 1.427 . S
C1088 H1079 0.930 . S
C1088 C1086 1.378 . S
C1088 C1089 1.367 1_545 S
C1089 C1088 1.367 1_565 S
C1089 C1091 1.433 . S
C1090 C1086 1.350 1_565 S
C1090 C1087 1.463 1_566 S
C1090 N1094 1.427 . S
C1091 H1081 0.929 . S
C1091 C1089 1.433 . S
C1091 N1094 1.384 . S
C1092 H1083 0.929 . S
C1092 C1084 1.378 . S
C1092 C1087 1.350 1_565 S
C1093 H1080 0.929 . S
C1093 C1085 1.433 . S
C1093 N1095 1.384 . S
N1094 C1090 1.427 . S
N1094 C1091 1.384 . S
N1095 C1087 1.427 . S
N1095 C1093 1.384 . S
H1096 C1102 0.930 . S
H1097 C1106 0.930 . S
H1098 C1111 0.929 . S
H1099 C1109 0.929 . S
H1100 C1104 0.929 . S
H1101 C1110 0.929 . S
C1102 H1096 0.930 . S
C1102 C1103 1.367 . S
C1102 C1110 1.378 . S
C1103 C1102 1.367 . S
C1103 C1111 1.433 . S
C1104 H1100 0.929 . S
C1104 C1106 1.378 . S
C1104 C1108 1.350 . S
C1105 C1108 1.463 . S
C1105 C1110 1.350 . S
C1105 N1113 1.427 . S
C1106 H1097 0.930 . S
C1106 C1104 1.378 . S
C1106 C1107 1.367 . S
C1107 C1106 1.367 . S
C1107 C1109 1.433 . S
C1108 C1104 1.350 . S
C1108 C1105 1.463 . S
C1108 N1112 1.427 . S
C1109 H1099 0.929 . S
C1109 C1107 1.433 . S
C1109 N1112 1.384 . S
C1110 H1101 0.929 . S
C1110 C1102 1.378 . S
C1110 C1105 1.350 . S
C1111 H1098 0.929 . S
C1111 C1103 1.433 . S
C1111 N1113 1.384 . S
N1112 C1108 1.427 . S
N1112 C1109 1.384 . S
N1113 C1105 1.427 . S
N1113 C1111 1.384 . S
H1114 C1120 0.930 . S
H1115 C1124 0.930 . S
H1116 C1129 0.929 . S
H1117 C1127 0.929 . S
H1118 C1122 0.929 . S
H1119 C1128 0.929 . S
C1120 H1114 0.930 . S
C1120 C1121 1.367 1_545 S
C1120 C1128 1.378 . S
C1121 C1120 1.367 1_565 S
C1121 C1129 1.433 . S
C1122 H1118 0.929 . S
C1122 C1124 1.378 . S
C1122 C1126 1.350 1_565 S
C1123 C1126 1.463 1_565 S
C1123 C1128 1.350 1_565 S
C1123 N1131 1.427 . S
C1124 H1115 0.930 . S
C1124 C1122 1.378 . S
C1124 C1125 1.367 1_565 S
C1125 C1124 1.367 1_545 S
C1125 C1127 1.433 . S
C1126 C1122 1.350 1_545 S
C1126 C1123 1.463 1_545 S
C1126 N1130 1.427 . S
C1127 H1117 0.929 . S
C1127 C1125 1.433 . S
C1127 N1130 1.384 . S
C1128 H1119 0.929 . S
C1128 C1120 1.378 . S
C1128 C1123 1.350 1_545 S
C1129 H1116 0.929 . S
C1129 C1121 1.433 . S
C1129 N1131 1.384 . S
N1130 C1126 1.427 . S
N1130 C1127 1.384 . S
N1131 C1123 1.427 . S
N1131 C1129 1.384 . S
H1132 C1138 0.930 . S
H1133 C1142 0.930 . S
H1134 C1147 0.929 . S
H1135 C1145 0.929 . S
H1136 C1140 0.929 . S
H1137 C1146 0.929 . S
C1138 H1132 0.930 . S
C1138 C1139 1.367 . S
C1138 C1146 1.378 . S
C1139 C1138 1.367 . S
C1139 C1147 1.433 . S
C1140 H1136 0.929 . S
C1140 C1142 1.378 . S
C1140 C1144 1.350 . S
C1141 C1144 1.463 . S
C1141 C1146 1.350 . S
C1141 N1149 1.427 . S
C1142 H1133 0.930 . S
C1142 C1140 1.378 . S
C1142 C1143 1.367 . S
C1143 C1142 1.367 . S
C1143 C1145 1.433 . S
C1144 C1140 1.350 . S
C1144 C1141 1.463 . S
C1144 N1148 1.427 . S
C1145 H1135 0.929 . S
C1145 C1143 1.433 . S
C1145 N1148 1.384 . S
C1146 H1137 0.929 . S
C1146 C1138 1.378 . S
C1146 C1141 1.350 . S
C1147 H1134 0.929 . S
C1147 C1139 1.433 . S
C1147 N1149 1.384 . S
N1148 C1144 1.427 . S
N1148 C1145 1.384 . S
N1149 C1141 1.427 . S
N1149 C1147 1.384 . S
H1150 C1156 0.930 . S
H1151 C1160 0.930 . S
H1152 C1165 0.941 . S
H1153 C1163 0.941 . S
H1154 C1158 0.929 . S
H1155 C1164 0.929 . S
C1156 H1150 0.930 . S
C1156 C1157 1.367 1_565 S
C1156 C1164 1.378 . S
C1157 C1156 1.367 1_545 S
C1157 C1165 1.415 1_455 S
C1158 H1154 0.929 . S
C1158 C1160 1.378 . S
C1158 C1162 1.350 1_545 S
C1159 C1162 1.463 1_446 S
C1159 C1164 1.350 1_545 S
C1159 N1167 1.427 1_455 S
C1160 H1151 0.930 . S
C1160 C1158 1.378 . S
C1160 C1161 1.367 1_545 S
C1161 C1160 1.367 1_565 S
C1161 C1163 1.415 1_655 S
C1162 C1158 1.350 1_565 S
C1162 C1159 1.463 1_664 S
C1162 N1166 1.427 1_655 S
C1163 H1153 0.941 . S
C1163 C1161 1.415 1_455 S
C1163 N1166 1.391 . S
C1164 H1155 0.929 . S
C1164 C1156 1.378 . S
C1164 C1159 1.350 1_565 S
C1165 H1152 0.941 . S
C1165 C1157 1.415 1_655 S
C1165 N1167 1.391 . S
N1166 C1162 1.427 1_455 S
N1166 C1163 1.391 . S
N1167 C1159 1.427 1_655 S
N1167 C1165 1.391 . S
H1168 C1174 0.930 . S
H1169 C1178 0.930 . S
H1170 C1183 0.929 . S
H1171 C1181 0.929 . S
H1172 C1176 0.929 . S
H1173 C1182 0.929 . S
C1174 H1168 0.930 . S
C1174 C1175 1.367 . S
C1174 C1182 1.378 . S
C1175 C1174 1.367 . S
C1175 C1183 1.433 . S
C1176 H1172 0.929 . S
C1176 C1178 1.378 . S
C1176 C1180 1.350 . S
C1177 C1180 1.463 . S
C1177 C1182 1.350 . S
C1177 N1185 1.427 . S
C1178 H1169 0.930 . S
C1178 C1176 1.378 . S
C1178 C1179 1.367 . S
C1179 C1178 1.367 . S
C1179 C1181 1.433 . S
C1180 C1176 1.350 . S
C1180 C1177 1.463 . S
C1180 N1184 1.427 . S
C1181 H1171 0.929 . S
C1181 C1179 1.433 . S
C1181 N1184 1.384 . S
C1182 H1173 0.929 . S
C1182 C1174 1.378 . S
C1182 C1177 1.350 . S
C1183 H1170 0.929 . S
C1183 C1175 1.433 . S
C1183 N1185 1.384 . S
N1184 C1180 1.427 . S
N1184 C1181 1.384 . S
N1185 C1177 1.427 . S
N1185 C1183 1.384 . S
H1186 C1192 0.930 . S
H1187 C1196 0.930 . S
H1188 C1201 0.929 . S
H1189 C1199 0.929 . S
H1190 C1194 0.929 . S
H1191 C1200 0.929 . S
C1192 H1186 0.930 . S
C1192 C1193 1.367 . S
C1192 C1200 1.378 . S
C1193 C1192 1.367 . S
C1193 C1201 1.433 . S
C1194 H1190 0.929 . S
C1194 C1196 1.378 . S
C1194 C1198 1.350 . S
C1195 C1198 1.463 . S
C1195 C1200 1.350 . S
C1195 N1203 1.427 . S
C1196 H1187 0.930 . S
C1196 C1194 1.378 . S
C1196 C1197 1.367 . S
C1197 C1196 1.367 . S
C1197 C1199 1.433 . S
C1198 C1194 1.350 . S
C1198 C1195 1.463 . S
C1198 N1202 1.427 . S
C1199 H1189 0.929 . S
C1199 C1197 1.433 . S
C1199 N1202 1.384 . S
C1200 H1191 0.929 . S
C1200 C1192 1.378 . S
C1200 C1195 1.350 . S
C1201 H1188 0.929 . S
C1201 C1193 1.433 . S
C1201 N1203 1.384 . S
N1202 C1198 1.427 . S
N1202 C1199 1.384 . S
N1203 C1195 1.427 . S
N1203 C1201 1.384 . S
H1204 C1210 0.930 . S
H1205 C1214 0.930 . S
H1206 C1219 0.929 . S
H1207 C1217 0.929 . S
H1208 C1212 0.929 . S
H1209 C1218 0.929 . S
C1210 H1204 0.930 . S
C1210 C1211 1.367 . S
C1210 C1218 1.378 . S
C1211 C1210 1.367 . S
C1211 C1219 1.433 . S
C1212 H1208 0.929 . S
C1212 C1214 1.378 . S
C1212 C1216 1.350 . S
C1213 C1216 1.463 . S
C1213 C1218 1.350 . S
C1213 N1221 1.427 . S
C1214 H1205 0.930 . S
C1214 C1212 1.378 . S
C1214 C1215 1.367 . S
C1215 C1214 1.367 . S
C1215 C1217 1.433 . S
C1216 C1212 1.350 . S
C1216 C1213 1.463 . S
C1216 N1220 1.427 . S
C1217 H1207 0.929 . S
C1217 C1215 1.433 . S
C1217 N1220 1.384 . S
C1218 H1209 0.929 . S
C1218 C1210 1.378 . S
C1218 C1213 1.350 . S
C1219 H1206 0.929 . S
C1219 C1211 1.433 . S
C1219 N1221 1.384 . S
N1220 C1216 1.427 . S
N1220 C1217 1.384 . S
N1221 C1213 1.427 . S
N1221 C1219 1.384 . S
H1222 C1228 0.930 . S
H1223 C1232 0.930 . S
H1224 C1237 0.929 . S
H1225 C1235 0.929 . S
H1226 C1230 0.929 . S
H1227 C1236 0.929 . S
C1228 H1222 0.930 . S
C1228 C1229 1.367 . S
C1228 C1236 1.378 . S
C1229 C1228 1.367 . S
C1229 C1237 1.433 . S
C1230 H1226 0.929 . S
C1230 C1232 1.378 . S
C1230 C1234 1.350 . S
C1231 C1234 1.463 . S
C1231 C1236 1.350 . S
C1231 N1239 1.427 . S
C1232 H1223 0.930 . S
C1232 C1230 1.378 . S
C1232 C1233 1.367 . S
C1233 C1232 1.367 . S
C1233 C1235 1.433 . S
C1234 C1230 1.350 . S
C1234 C1231 1.463 . S
C1234 N1238 1.427 . S
C1235 H1225 0.929 . S
C1235 C1233 1.433 . S
C1235 N1238 1.384 . S
C1236 H1227 0.929 . S
C1236 C1228 1.378 . S
C1236 C1231 1.350 . S
C1237 H1224 0.929 . S
C1237 C1229 1.433 . S
C1237 N1239 1.384 . S
N1238 C1234 1.427 . S
N1238 C1235 1.384 . S
N1239 C1231 1.427 . S
N1239 C1237 1.384 . S
H1240 C1246 0.930 . S
H1241 C1250 0.930 . S
H1242 C1255 0.929 . S
H1243 C1253 0.929 . S
H1244 C1248 0.929 . S
H1245 C1254 0.929 . S
C1246 H1240 0.930 . S
C1246 C1247 1.367 . S
C1246 C1254 1.378 . S
C1247 C1246 1.367 . S
C1247 C1255 1.433 . S
C1248 H1244 0.929 . S
C1248 C1250 1.378 . S
C1248 C1252 1.350 . S
C1249 C1252 1.463 1_554 S
C1249 C1254 1.350 . S
C1249 N1257 1.427 . S
C1250 H1241 0.930 . S
C1250 C1248 1.378 . S
C1250 C1251 1.367 . S
C1251 C1250 1.367 . S
C1251 C1253 1.433 . S
C1252 C1248 1.350 . S
C1252 C1249 1.463 1_556 S
C1252 N1256 1.427 . S
C1253 H1243 0.929 . S
C1253 C1251 1.433 . S
C1253 N1256 1.384 . S
C1254 H1245 0.929 . S
C1254 C1246 1.378 . S
C1254 C1249 1.350 . S
C1255 H1242 0.929 . S
C1255 C1247 1.433 . S
C1255 N1257 1.384 . S
N1256 C1252 1.427 . S
N1256 C1253 1.384 . S
N1257 C1249 1.427 . S
N1257 C1255 1.384 . S
H1258 C1264 0.930 . S
H1259 C1268 0.930 . S
H1260 C1273 0.929 . S
H1261 C1271 0.929 . S
H1262 C1266 0.929 . S
H1263 C1272 0.929 . S
C1264 H1258 0.930 . S
C1264 C1265 1.367 . S
C1264 C1272 1.378 . S
C1265 C1264 1.367 . S
C1265 C1273 1.433 . S
C1266 H1262 0.929 . S
C1266 C1268 1.378 . S
C1266 C1270 1.350 . S
C1267 C1270 1.463 1_455 S
C1267 C1272 1.350 . S
C1267 N1275 1.427 . S
C1268 H1259 0.930 . S
C1268 C1266 1.378 . S
C1268 C1269 1.367 . S
C1269 C1268 1.367 . S
C1269 C1271 1.433 . S
C1270 C1266 1.350 . S
C1270 C1267 1.463 1_655 S
C1270 N1274 1.427 . S
C1271 H1261 0.929 . S
C1271 C1269 1.433 . S
C1271 N1274 1.384 . S
C1272 H1263 0.929 . S
C1272 C1264 1.378 . S
C1272 C1267 1.350 . S
C1273 H1260 0.929 . S
C1273 C1265 1.433 . S
C1273 N1275 1.384 . S
N1274 C1270 1.427 . S
N1274 C1271 1.384 . S
N1275 C1267 1.427 . S
N1275 C1273 1.384 . S
H1276 C1282 0.930 . S
H1277 C1286 0.930 . S
H1278 C1291 0.929 . S
H1279 C1289 0.929 . S
H1280 C1284 0.929 . S
H1281 C1290 0.929 . S
C1282 H1276 0.930 . S
C1282 C1283 1.367 1_655 S
C1282 C1290 1.378 . S
C1283 C1282 1.367 1_455 S
C1283 C1291 1.433 . S
C1284 H1280 0.929 . S
C1284 C1286 1.378 . S
C1284 C1288 1.350 1_455 S
C1285 C1288 1.463 1_454 S
C1285 C1290 1.350 1_455 S
C1285 N1293 1.427 . S
C1286 H1277 0.930 . S
C1286 C1284 1.378 . S
C1286 C1287 1.367 1_455 S
C1287 C1286 1.367 1_655 S
C1287 C1289 1.433 . S
C1288 C1284 1.350 1_655 S
C1288 C1285 1.463 1_656 S
C1288 N1292 1.427 . S
C1289 H1279 0.929 . S
C1289 C1287 1.433 . S
C1289 N1292 1.384 . S
C1290 H1281 0.929 . S
C1290 C1282 1.378 . S
C1290 C1285 1.350 1_655 S
C1291 H1278 0.929 . S
C1291 C1283 1.433 . S
C1291 N1293 1.384 . S
N1292 C1288 1.427 . S
N1292 C1289 1.384 . S
N1293 C1285 1.427 . S
N1293 C1291 1.384 . S
H1294 C1300 0.930 . S
H1295 C1304 0.930 . S
H1296 C1309 0.929 . S
H1297 C1307 0.929 . S
H1298 C1302 0.929 . S
H1299 C1308 0.929 . S
C1300 H1294 0.930 . S
C1300 C1301 1.367 . S
C1300 C1308 1.378 . S
C1301 C1300 1.367 . S
C1301 C1309 1.433 . S
C1302 H1298 0.929 . S
C1302 C1304 1.378 . S
C1302 C1306 1.350 . S
C1303 C1306 1.463 . S
C1303 C1308 1.350 . S
C1303 N1311 1.427 . S
C1304 H1295 0.930 . S
C1304 C1302 1.378 . S
C1304 C1305 1.367 . S
C1305 C1304 1.367 . S
C1305 C1307 1.433 . S
C1306 C1302 1.350 . S
C1306 C1303 1.463 . S
C1306 N1310 1.427 . S
C1307 H1297 0.929 . S
C1307 C1305 1.433 . S
C1307 N1310 1.384 . S
C1308 H1299 0.929 . S
C1308 C1300 1.378 . S
C1308 C1303 1.350 . S
C1309 H1296 0.929 . S
C1309 C1301 1.433 . S
C1309 N1311 1.384 . S
N1310 C1306 1.427 . S
N1310 C1307 1.384 . S
N1311 C1303 1.427 . S
N1311 C1309 1.384 . S
H1312 C1318 0.930 . S
H1313 C1322 0.930 . S
H1314 C1327 0.929 . S
H1315 C1325 0.929 . S
H1316 C1320 0.929 . S
H1317 C1326 0.929 . S
C1318 H1312 0.930 . S
C1318 C1319 1.367 . S
C1318 C1326 1.378 . S
C1319 C1318 1.367 . S
C1319 C1327 1.433 . S
C1320 H1316 0.929 . S
C1320 C1322 1.378 . S
C1320 C1324 1.350 . S
C1321 C1324 1.463 . S
C1321 C1326 1.350 . S
C1321 N1329 1.427 . S
C1322 H1313 0.930 . S
C1322 C1320 1.378 . S
C1322 C1323 1.367 . S
C1323 C1322 1.367 . S
C1323 C1325 1.433 . S
C1324 C1320 1.350 . S
C1324 C1321 1.463 . S
C1324 N1328 1.427 . S
C1325 H1315 0.929 . S
C1325 C1323 1.433 . S
C1325 N1328 1.384 . S
C1326 H1317 0.929 . S
C1326 C1318 1.378 . S
C1326 C1321 1.350 . S
C1327 H1314 0.929 . S
C1327 C1319 1.433 . S
C1327 N1329 1.384 . S
N1328 C1324 1.427 . S
N1328 C1325 1.384 . S
N1329 C1321 1.427 . S
N1329 C1327 1.384 . S
H1330 C1336 0.930 . S
H1331 C1340 0.930 . S
H1332 C1345 0.929 . S
H1333 C1343 0.929 . S
H1334 C1338 0.929 . S
H1335 C1344 0.929 . S
C1336 H1330 0.930 . S
C1336 C1337 1.367 . S
C1336 C1344 1.378 . S
C1337 C1336 1.367 . S
C1337 C1345 1.433 . S
C1338 H1334 0.929 . S
C1338 C1340 1.378 . S
C1338 C1342 1.350 . S
C1339 C1342 1.463 . S
C1339 C1344 1.350 . S
C1339 N1347 1.427 . S
C1340 H1331 0.930 . S
C1340 C1338 1.378 . S
C1340 C1341 1.367 . S
C1341 C1340 1.367 . S
C1341 C1343 1.433 . S
C1342 C1338 1.350 . S
C1342 C1339 1.463 . S
C1342 N1346 1.427 . S
C1343 H1333 0.929 . S
C1343 C1341 1.433 . S
C1343 N1346 1.384 . S
C1344 H1335 0.929 . S
C1344 C1336 1.378 . S
C1344 C1339 1.350 . S
C1345 H1332 0.929 . S
C1345 C1337 1.433 . S
C1345 N1347 1.384 . S
N1346 C1342 1.427 . S
N1346 C1343 1.384 . S
N1347 C1339 1.427 . S
N1347 C1345 1.384 . S
H1348 C1354 0.930 . S
H1349 C1358 0.930 . S
H1350 C1363 0.929 . S
H1351 C1361 0.929 . S
H1352 C1356 0.929 . S
H1353 C1362 0.929 . S
C1354 H1348 0.930 . S
C1354 C1355 1.367 . S
C1354 C1362 1.378 . S
C1355 C1354 1.367 . S
C1355 C1363 1.433 . S
C1356 H1352 0.929 . S
C1356 C1358 1.378 . S
C1356 C1360 1.350 . S
C1357 C1360 1.463 . S
C1357 C1362 1.350 . S
C1357 N1365 1.427 . S
C1358 H1349 0.930 . S
C1358 C1356 1.378 . S
C1358 C1359 1.367 . S
C1359 C1358 1.367 . S
C1359 C1361 1.433 . S
C1360 C1356 1.350 . S
C1360 C1357 1.463 . S
C1360 N1364 1.427 . S
C1361 H1351 0.929 . S
C1361 C1359 1.433 . S
C1361 N1364 1.384 . S
C1362 H1353 0.929 . S
C1362 C1354 1.378 . S
C1362 C1357 1.350 . S
C1363 H1350 0.929 . S
C1363 C1355 1.433 . S
C1363 N1365 1.384 . S
N1364 C1360 1.427 . S
N1364 C1361 1.384 . S
N1365 C1357 1.427 . S
N1365 C1363 1.384 . S
H1366 C1372 0.930 . S
H1367 C1376 0.930 . S
H1368 C1381 0.929 . S
H1369 C1379 0.929 . S
H1370 C1374 0.929 . S
H1371 C1380 0.929 . S
C1372 H1366 0.930 . S
C1372 C1373 1.367 . S
C1372 C1380 1.378 . S
C1373 C1372 1.367 . S
C1373 C1381 1.433 . S
C1374 H1370 0.929 . S
C1374 C1376 1.378 . S
C1374 C1378 1.350 . S
C1375 C1378 1.463 . S
C1375 C1380 1.350 . S
C1375 N1383 1.427 . S
C1376 H1367 0.930 . S
C1376 C1374 1.378 . S
C1376 C1377 1.367 . S
C1377 C1376 1.367 . S
C1377 C1379 1.433 . S
C1378 C1374 1.350 . S
C1378 C1375 1.463 . S
C1378 N1382 1.427 . S
C1379 H1369 0.929 . S
C1379 C1377 1.433 . S
C1379 N1382 1.384 . S
C1380 H1371 0.929 . S
C1380 C1372 1.378 . S
C1380 C1375 1.350 . S
C1381 H1368 0.929 . S
C1381 C1373 1.433 . S
C1381 N1383 1.384 . S
N1382 C1378 1.427 . S
N1382 C1379 1.384 . S
N1383 C1375 1.427 . S
N1383 C1381 1.384 . S
H1384 C1390 0.930 . S
H1385 C1394 0.930 . S
H1386 C1399 0.929 . S
H1387 C1397 0.929 . S
H1388 C1392 0.929 . S
H1389 C1398 0.929 . S
C1390 H1384 0.930 . S
C1390 C1391 1.367 . S
C1390 C1398 1.378 . S
C1391 C1390 1.367 . S
C1391 C1399 1.433 . S
C1392 H1388 0.929 . S
C1392 C1394 1.378 . S
C1392 C1396 1.350 . S
C1393 C1396 1.463 . S
C1393 C1398 1.350 . S
C1393 N1401 1.427 . S
C1394 H1385 0.930 . S
C1394 C1392 1.378 . S
C1394 C1395 1.367 . S
C1395 C1394 1.367 . S
C1395 C1397 1.433 . S
C1396 C1392 1.350 . S
C1396 C1393 1.463 . S
C1396 N1400 1.427 . S
C1397 H1387 0.929 . S
C1397 C1395 1.433 . S
C1397 N1400 1.384 . S
C1398 H1389 0.929 . S
C1398 C1390 1.378 . S
C1398 C1393 1.350 . S
C1399 H1386 0.929 . S
C1399 C1391 1.433 . S
C1399 N1401 1.384 . S
N1400 C1396 1.427 . S
N1400 C1397 1.384 . S
N1401 C1393 1.427 . S
N1401 C1399 1.384 . S
H1402 C1408 0.930 . S
H1403 C1412 0.930 . S
H1404 C1417 0.929 . S
H1405 C1415 0.929 . S
H1406 C1410 0.929 . S
H1407 C1416 0.929 . S
C1408 H1402 0.930 . S
C1408 C1409 1.367 . S
C1408 C1416 1.378 . S
C1409 C1408 1.367 . S
C1409 C1417 1.433 . S
C1410 H1406 0.929 . S
C1410 C1412 1.378 . S
C1410 C1414 1.350 . S
C1411 C1414 1.463 . S
C1411 C1416 1.350 . S
C1411 N1419 1.427 . S
C1412 H1403 0.930 . S
C1412 C1410 1.378 . S
C1412 C1413 1.367 . S
C1413 C1412 1.367 . S
C1413 C1415 1.433 . S
C1414 C1410 1.350 . S
C1414 C1411 1.463 . S
C1414 N1418 1.427 . S
C1415 H1405 0.929 . S
C1415 C1413 1.433 . S
C1415 N1418 1.384 . S
C1416 H1407 0.929 . S
C1416 C1408 1.378 . S
C1416 C1411 1.350 . S
C1417 H1404 0.929 . S
C1417 C1409 1.433 . S
C1417 N1419 1.384 . S
N1418 C1414 1.427 . S
N1418 C1415 1.384 . S
N1419 C1411 1.427 . S
N1419 C1417 1.384 . S
H1420 C1426 0.930 . S
H1421 C1430 0.930 . S
H1422 C1435 0.929 . S
H1423 C1433 0.929 . S
H1424 C1428 0.929 . S
H1425 C1434 0.929 . S
C1426 H1420 0.930 . S
C1426 C1427 1.367 . S
C1426 C1434 1.378 . S
C1427 C1426 1.367 . S
C1427 C1435 1.433 . S
C1428 H1424 0.929 . S
C1428 C1430 1.378 . S
C1428 C1432 1.350 . S
C1429 C1432 1.463 . S
C1429 C1434 1.350 . S
C1429 N1437 1.427 . S
C1430 H1421 0.930 . S
C1430 C1428 1.378 . S
C1430 C1431 1.367 . S
C1431 C1430 1.367 . S
C1431 C1433 1.433 . S
C1432 C1428 1.350 . S
C1432 C1429 1.463 . S
C1432 N1436 1.427 . S
C1433 H1423 0.929 . S
C1433 C1431 1.433 . S
C1433 N1436 1.384 . S
C1434 H1425 0.929 . S
C1434 C1426 1.378 . S
C1434 C1429 1.350 . S
C1435 H1422 0.929 . S
C1435 C1427 1.433 . S
C1435 N1437 1.384 . S
N1436 C1432 1.427 . S
N1436 C1433 1.384 . S
N1437 C1429 1.427 . S
N1437 C1435 1.384 . S
H1438 C1444 0.930 . S
H1439 C1448 0.930 . S
H1440 C1453 0.929 . S
H1441 C1451 0.929 . S
H1442 C1446 0.929 . S
H1443 C1452 0.929 . S
C1444 H1438 0.930 . S
C1444 C1445 1.367 . S
C1444 C1452 1.378 . S
C1445 C1444 1.367 . S
C1445 C1453 1.433 . S
C1446 H1442 0.929 . S
C1446 C1448 1.378 . S
C1446 C1450 1.350 . S
C1447 C1450 1.463 . S
C1447 C1452 1.350 . S
C1447 N1455 1.427 . S
C1448 H1439 0.930 . S
C1448 C1446 1.378 . S
C1448 C1449 1.367 . S
C1449 C1448 1.367 . S
C1449 C1451 1.433 . S
C1450 C1446 1.350 . S
C1450 C1447 1.463 . S
C1450 N1454 1.427 . S
C1451 H1441 0.929 . S
C1451 C1449 1.433 . S
C1451 N1454 1.384 . S
C1452 H1443 0.929 . S
C1452 C1444 1.378 . S
C1452 C1447 1.350 . S
C1453 H1440 0.929 . S
C1453 C1445 1.433 . S
C1453 N1455 1.384 . S
N1454 C1450 1.427 . S
N1454 C1451 1.384 . S
N1455 C1447 1.427 . S
N1455 C1453 1.384 . S
H1456 C1462 0.930 . S
H1457 C1466 0.930 . S
H1458 C1471 0.929 . S
H1459 C1469 0.929 . S
H1460 C1464 0.929 . S
H1461 C1470 0.929 . S
C1462 H1456 0.930 . S
C1462 C1463 1.367 . S
C1462 C1470 1.378 . S
C1463 C1462 1.367 . S
C1463 C1471 1.433 . S
C1464 H1460 0.929 . S
C1464 C1466 1.378 . S
C1464 C1468 1.350 . S
C1465 C1468 1.463 . S
C1465 C1470 1.350 . S
C1465 N1473 1.427 . S
C1466 H1457 0.930 . S
C1466 C1464 1.378 . S
C1466 C1467 1.367 . S
C1467 C1466 1.367 . S
C1467 C1469 1.433 . S
C1468 C1464 1.350 . S
C1468 C1465 1.463 . S
C1468 N1472 1.427 . S
C1469 H1459 0.929 . S
C1469 C1467 1.433 . S
C1469 N1472 1.384 . S
C1470 H1461 0.929 . S
C1470 C1462 1.378 . S
C1470 C1465 1.350 . S
C1471 H1458 0.929 . S
C1471 C1463 1.433 . S
C1471 N1473 1.384 . S
N1472 C1468 1.427 . S
N1472 C1469 1.384 . S
N1473 C1465 1.427 . S
N1473 C1471 1.384 . S
H1474 C1480 0.930 . S
H1475 C1484 0.930 . S
H1476 C1489 0.929 . S
H1477 C1487 0.929 . S
H1478 C1482 0.929 . S
H1479 C1488 0.929 . S
C1480 H1474 0.930 . S
C1480 C1481 1.367 . S
C1480 C1488 1.378 . S
C1481 C1480 1.367 . S
C1481 C1489 1.433 . S
C1482 H1478 0.929 . S
C1482 C1484 1.378 . S
C1482 C1486 1.350 . S
C1483 C1486 1.463 . S
C1483 C1488 1.350 . S
C1483 N1491 1.427 . S
C1484 H1475 0.930 . S
C1484 C1482 1.378 . S
C1484 C1485 1.367 . S
C1485 C1484 1.367 . S
C1485 C1487 1.433 . S
C1486 C1482 1.350 . S
C1486 C1483 1.463 . S
C1486 N1490 1.427 . S
C1487 H1477 0.929 . S
C1487 C1485 1.433 . S
C1487 N1490 1.384 . S
C1488 H1479 0.929 . S
C1488 C1480 1.378 . S
C1488 C1483 1.350 . S
C1489 H1476 0.929 . S
C1489 C1481 1.433 . S
C1489 N1491 1.384 . S
N1490 C1486 1.427 . S
N1490 C1487 1.384 . S
N1491 C1483 1.427 . S
N1491 C1489 1.384 . S
H1492 C1498 0.930 . S
H1493 C1502 0.930 . S
H1494 C1507 0.929 . S
H1495 C1505 0.929 . S
H1496 C1500 0.929 . S
H1497 C1506 0.929 . S
C1498 H1492 0.930 . S
C1498 C1499 1.367 . S
C1498 C1506 1.378 . S
C1499 C1498 1.367 . S
C1499 C1507 1.433 . S
C1500 H1496 0.929 . S
C1500 C1502 1.378 . S
C1500 C1504 1.350 . S
C1501 C1504 1.463 . S
C1501 C1506 1.350 . S
C1501 N1509 1.427 . S
C1502 H1493 0.930 . S
C1502 C1500 1.378 . S
C1502 C1503 1.367 . S
C1503 C1502 1.367 . S
C1503 C1505 1.433 . S
C1504 C1500 1.350 . S
C1504 C1501 1.463 . S
C1504 N1508 1.427 . S
C1505 H1495 0.929 . S
C1505 C1503 1.433 . S
C1505 N1508 1.384 . S
C1506 H1497 0.929 . S
C1506 C1498 1.378 . S
C1506 C1501 1.350 . S
C1507 H1494 0.929 . S
C1507 C1499 1.433 . S
C1507 N1509 1.384 . S
N1508 C1504 1.427 . S
N1508 C1505 1.384 . S
N1509 C1501 1.427 . S
N1509 C1507 1.384 . S
H1510 C1516 0.930 . S
H1511 C1520 0.930 . S
H1512 C1525 0.929 . S
H1513 C1523 0.929 . S
H1514 C1518 0.929 . S
H1515 C1524 0.929 . S
C1516 H1510 0.930 . S
C1516 C1517 1.367 . S
C1516 C1524 1.378 . S
C1517 C1516 1.367 . S
C1517 C1525 1.433 . S
C1518 H1514 0.929 . S
C1518 C1520 1.378 . S
C1518 C1522 1.350 . S
C1519 C1522 1.463 . S
C1519 C1524 1.350 . S
C1519 N1527 1.427 . S
C1520 H1511 0.930 . S
C1520 C1518 1.378 . S
C1520 C1521 1.367 . S
C1521 C1520 1.367 . S
C1521 C1523 1.433 . S
C1522 C1518 1.350 . S
C1522 C1519 1.463 . S
C1522 N1526 1.427 . S
C1523 H1513 0.929 . S
C1523 C1521 1.433 . S
C1523 N1526 1.384 . S
C1524 H1515 0.929 . S
C1524 C1516 1.378 . S
C1524 C1519 1.350 . S
C1525 H1512 0.929 . S
C1525 C1517 1.433 . S
C1525 N1527 1.384 . S
N1526 C1522 1.427 . S
N1526 C1523 1.384 . S
N1527 C1519 1.427 . S
N1527 C1525 1.384 . S
H1528 C1534 0.930 . S
H1529 C1538 0.930 . S
H1530 C1543 0.929 . S
H1531 C1541 0.929 . S
H1532 C1536 0.929 . S
H1533 C1542 0.929 . S
C1534 H1528 0.930 . S
C1534 C1535 1.367 . S
C1534 C1542 1.378 . S
C1535 C1534 1.367 . S
C1535 C1543 1.433 . S
C1536 H1532 0.929 . S
C1536 C1538 1.378 . S
C1536 C1540 1.350 . S
C1537 C1540 1.463 . S
C1537 C1542 1.350 . S
C1537 N1545 1.427 . S
C1538 H1529 0.930 . S
C1538 C1536 1.378 . S
C1538 C1539 1.367 . S
C1539 C1538 1.367 . S
C1539 C1541 1.433 . S
C1540 C1536 1.350 . S
C1540 C1537 1.463 . S
C1540 N1544 1.427 . S
C1541 H1531 0.929 . S
C1541 C1539 1.433 . S
C1541 N1544 1.384 . S
C1542 H1533 0.929 . S
C1542 C1534 1.378 . S
C1542 C1537 1.350 . S
C1543 H1530 0.929 . S
C1543 C1535 1.433 . S
C1543 N1545 1.384 . S
N1544 C1540 1.427 . S
N1544 C1541 1.384 . S
N1545 C1537 1.427 . S
N1545 C1543 1.384 . S
H1546 C1552 0.930 . S
H1547 C1556 0.930 . S
H1548 C1561 0.929 . S
H1549 C1559 0.929 . S
H1550 C1554 0.929 . S
H1551 C1560 0.929 . S
C1552 H1546 0.930 . S
C1552 C1553 1.367 . S
C1552 C1560 1.378 . S
C1553 C1552 1.367 . S
C1553 C1561 1.433 . S
C1554 H1550 0.929 . S
C1554 C1556 1.378 . S
C1554 C1558 1.350 . S
C1555 C1558 1.463 . S
C1555 C1560 1.350 . S
C1555 N1563 1.427 . S
C1556 H1547 0.930 . S
C1556 C1554 1.378 . S
C1556 C1557 1.367 . S
C1557 C1556 1.367 . S
C1557 C1559 1.433 . S
C1558 C1554 1.350 . S
C1558 C1555 1.463 . S
C1558 N1562 1.427 . S
C1559 H1549 0.929 . S
C1559 C1557 1.433 . S
C1559 N1562 1.384 . S
C1560 H1551 0.929 . S
C1560 C1552 1.378 . S
C1560 C1555 1.350 . S
C1561 H1548 0.929 . S
C1561 C1553 1.433 . S
C1561 N1563 1.384 . S
N1562 C1558 1.427 . S
N1562 C1559 1.384 . S
N1563 C1555 1.427 . S
N1563 C1561 1.384 . S
H1564 C1570 0.930 . S
H1565 C1574 0.930 . S
H1566 C1579 0.929 . S
H1567 C1577 0.929 . S
H1568 C1572 0.929 . S
H1569 C1578 0.929 . S
C1570 H1564 0.930 . S
C1570 C1571 1.367 . S
C1570 C1578 1.378 . S
C1571 C1570 1.367 . S
C1571 C1579 1.433 . S
C1572 H1568 0.929 . S
C1572 C1574 1.378 . S
C1572 C1576 1.350 . S
C1573 C1576 1.463 . S
C1573 C1578 1.350 . S
C1573 N1581 1.427 . S
C1574 H1565 0.930 . S
C1574 C1572 1.378 . S
C1574 C1575 1.367 . S
C1575 C1574 1.367 . S
C1575 C1577 1.433 . S
C1576 C1572 1.350 . S
C1576 C1573 1.463 . S
C1576 N1580 1.427 . S
C1577 H1567 0.929 . S
C1577 C1575 1.433 . S
C1577 N1580 1.384 . S
C1578 H1569 0.929 . S
C1578 C1570 1.378 . S
C1578 C1573 1.350 . S
C1579 H1566 0.929 . S
C1579 C1571 1.433 . S
C1579 N1581 1.384 . S
N1580 C1576 1.427 . S
N1580 C1577 1.384 . S
N1581 C1573 1.427 . S
N1581 C1579 1.384 . S
H1582 C1588 0.930 . S
H1583 C1592 0.930 . S
H1584 C1597 0.929 . S
H1585 C1595 0.929 . S
H1586 C1590 0.929 . S
H1587 C1596 0.929 . S
C1588 H1582 0.930 . S
C1588 C1589 1.367 . S
C1588 C1596 1.378 . S
C1589 C1588 1.367 . S
C1589 C1597 1.433 . S
C1590 H1586 0.929 . S
C1590 C1592 1.378 . S
C1590 C1594 1.350 . S
C1591 C1594 1.463 . S
C1591 C1596 1.350 . S
C1591 N1599 1.427 . S
C1592 H1583 0.930 . S
C1592 C1590 1.378 . S
C1592 C1593 1.367 . S
C1593 C1592 1.367 . S
C1593 C1595 1.433 . S
C1594 C1590 1.350 . S
C1594 C1591 1.463 . S
C1594 N1598 1.427 . S
C1595 H1585 0.929 . S
C1595 C1593 1.433 . S
C1595 N1598 1.384 . S
C1596 H1587 0.929 . S
C1596 C1588 1.378 . S
C1596 C1591 1.350 . S
C1597 H1584 0.929 . S
C1597 C1589 1.433 . S
C1597 N1599 1.384 . S
N1598 C1594 1.427 . S
N1598 C1595 1.384 . S
N1599 C1591 1.427 . S
N1599 C1597 1.384 . S
C455 C382 1.389 . S
C459 C12 1.391 . S
C473 C26 1.383 . S
C477 C116 1.394 . S
C491 C354 1.389 . S
C495 C40 1.390 . S
C509 C54 1.382 . S
C513 C144 1.395 . S
C527 C68 1.383 . S
C531 C410 1.394 . S
C545 C82 1.381 . S
C549 C200 1.396 . S
C563 C96 1.391 . S
C567 C438 1.391 . S
C581 C110 1.388 . S
C585 C172 1.390 . S
C599 C270 1.398 . S
C603 C124 1.383 . S
C617 C4 1.389 . S
C621 C138 1.390 . S
C635 C242 1.389 . S
C639 C152 1.389 . S
C653 C166 1.385 . S
C657 C32 1.396 . S
C671 C298 1.398 . S
C675 C180 1.380 . S
C689 C88 1.389 . S
C693 C194 1.389 . S
C707 C208 1.382 . S
C711 C326 1.398 . S
C725 C60 1.396 . S
C729 C222 1.386 . S
C743 C236 1.390 . S
C747 C158 1.392 . S
C761 C250 1.385 . S
C765 C340 1.397 . S
C779 C130 1.396 . S
C783 C264 1.386 . S
C797 C368 1.399 . S
C801 C278 1.380 . S
C815 C186 1.393 . S
C819 C292 1.389 . S
C833 C424 1.394 . S
C837 C306 1.389 . S
C851 C214 1.398 . S
C855 C320 1.382 . S
C869 C334 1.380 . S
C873 C396 1.399 . S
C887 C46 1.394 . S
C891 C348 1.383 . S
C905 C362 1.386 . S
C909 C228 1.395 . S
C923 C376 1.392 . S
C927 C18 1.389 . S
C941 C390 1.389 . S
C945 C256 1.393 . S
C959 C404 1.386 . S
C963 C74 1.396 . S
C977 C418 1.383 . S
C981 C312 1.394 . S
C995 C432 1.391 . S
C999 C102 1.389 . S
C1013 C446 1.386 . S
C1017 C284 1.391 . S
C1031 C347 1.488 . S
C1035 C11 1.488 . S
C1049 C25 1.497 . S
C1053 C137 1.497 . S
C1067 C375 1.487 . S
C1071 C39 1.487 . S
C1085 C53 1.497 . S
C1089 C165 1.497 . S
C1103 C403 1.487 . S
C1107 C67 1.487 . S
C1121 C81 1.496 . S
C1125 C193 1.496 . S
C1139 C431 1.496 . S
C1143 C95 1.496 . S
C1157 C109 1.497 . S
C1161 C221 1.497 . S
C1175 C123 1.496 . S
C1179 C235 1.496 . S
C1193 C151 1.487 . S
C1197 C263 1.487 . S
C1211 C179 1.488 . S
C1215 C291 1.488 . S
C1229 C207 1.488 . S
C1233 C319 1.488 . S
C1247 C249 1.487 . S
C1251 C361 1.487 . S
C1265 C389 1.488 . S
C1269 C277 1.488 . S
C1283 C417 1.493 . S
C1287 C305 1.493 . S
C1301 C333 1.495 . S
C1305 C445 1.495 . S
C1319 C5 0.931 . S
C1323 C75 0.911 . S
C1337 C19 0.944 . S
C1341 C89 0.909 . S
C1355 C33 0.931 . S
C1359 C103 0.933 . S
C1373 C61 0.926 . S
C1377 C47 0.914 . S
C1391 C117 0.934 . S
C1395 C187 0.909 . S
C1409 C131 0.908 . S
C1413 C201 0.942 . S
C1427 C145 0.920 . S
C1431 C215 0.942 . S
C1445 C159 0.937 . S
C1449 C173 0.927 . S
C1463 C229 0.936 . S
C1467 C299 0.928 . S
C1481 C313 0.923 . S
C1485 C243 0.916 . S
C1499 C257 0.914 . S
C1503 C327 0.925 . S
C1517 C271 0.912 . S
C1521 C285 0.928 . S
C1535 C411 0.934 . S
C1539 C341 0.931 . S
C1553 C355 0.942 . S
C1557 C425 0.920 . S
C1571 C439 0.919 . S
C1575 C369 0.920 . S
C1589 C383 0.943 . S
C1593 C397 0.908 . S
