# Generated by pormake.
# Topology smm, (6)-cn, num edge types: 1
# Building blocks:
#     Node 0, Type 0, BuildingBlock: CUKXOW_clean_sbu_0, # of connection points: 6
#     Node 1, Type 0, BuildingBlock: CUKXOW_clean_sbu_0, # of connection points: 6
#     Node 2, Type 0, BuildingBlock: CUKXOW_clean_sbu_0, # of connection points: 6
#     Node 3, Type 0, BuildingBlock: CUKXOW_clean_sbu_0, # of connection points: 6
#     Node 4, Type 0, BuildingBlock: CUKXOW_clean_sbu_0, # of connection points: 6
#     Node 5, Type 0, BuildingBlock: CUKXOW_clean_sbu_0, # of connection points: 6
#     Node 6, Type 0, BuildingBlock: CUKXOW_clean_sbu_0, # of connection points: 6
#     Node 7, Type 0, BuildingBlock: CUKXOW_clean_sbu_0, # of connection points: 6
#     Node 8, Type 0, BuildingBlock: CUKXOW_clean_sbu_0, # of connection points: 6
#     Edge 9, Type (0, 0), BuildingBlock: XIVTED_clean_linker_0, # of connection points: 2
#     Edge 10, Type (0, 0), BuildingBlock: XIVTED_clean_linker_0, # of connection points: 2
#     Edge 11, Type (0, 0), BuildingBlock: XIVTED_clean_linker_0, # of connection points: 2
#     Edge 12, Type (0, 0), BuildingBlock: XIVTED_clean_linker_0, # of connection points: 2
#     Edge 13, Type (0, 0), BuildingBlock: XIVTED_clean_linker_0, # of connection points: 2
#     Edge 14, Type (0, 0), BuildingBlock: XIVTED_clean_linker_0, # of connection points: 2
#     Edge 15, Type (0, 0), BuildingBlock: XIVTED_clean_linker_0, # of connection points: 2
#     Edge 16, Type (0, 0), BuildingBlock: XIVTED_clean_linker_0, # of connection points: 2
#     Edge 17, Type (0, 0), BuildingBlock: XIVTED_clean_linker_0, # of connection points: 2
#     Edge 18, Type (0, 0), BuildingBlock: XIVTED_clean_linker_0, # of connection points: 2
#     Edge 19, Type (0, 0), BuildingBlock: XIVTED_clean_linker_0, # of connection points: 2
#     Edge 20, Type (0, 0), BuildingBlock: XIVTED_clean_linker_0, # of connection points: 2
#     Edge 21, Type (0, 0), BuildingBlock: XIVTED_clean_linker_0, # of connection points: 2
#     Edge 22, Type (0, 0), BuildingBlock: XIVTED_clean_linker_0, # of connection points: 2
#     Edge 23, Type (0, 0), BuildingBlock: XIVTED_clean_linker_0, # of connection points: 2
#     Edge 24, Type (0, 0), BuildingBlock: XIVTED_clean_linker_0, # of connection points: 2
#     Edge 25, Type (0, 0), BuildingBlock: XIVTED_clean_linker_0, # of connection points: 2
#     Edge 26, Type (0, 0), BuildingBlock: XIVTED_clean_linker_0, # of connection points: 2
#     Edge 27, Type (0, 0), BuildingBlock: XIVTED_clean_linker_0, # of connection points: 2
#     Edge 28, Type (0, 0), BuildingBlock: XIVTED_clean_linker_0, # of connection points: 2
#     Edge 29, Type (0, 0), BuildingBlock: XIVTED_clean_linker_0, # of connection points: 2
#     Edge 30, Type (0, 0), BuildingBlock: XIVTED_clean_linker_0, # of connection points: 2
#     Edge 31, Type (0, 0), BuildingBlock: XIVTED_clean_linker_0, # of connection points: 2
#     Edge 32, Type (0, 0), BuildingBlock: XIVTED_clean_linker_0, # of connection points: 2
#     Edge 33, Type (0, 0), BuildingBlock: XIVTED_clean_linker_0, # of connection points: 2
#     Edge 34, Type (0, 0), BuildingBlock: XIVTED_clean_linker_0, # of connection points: 2
#     Edge 35, Type (0, 0), BuildingBlock: XIVTED_clean_linker_0, # of connection points: 2
# Relax obj value: 0.090
# Max RMSD: 0.189
# Mean RMSD: 0.153
data_MOF--net-smm--node1-CUKXOW_clean_sbu_0--edge1-XIVTED_clean_linker_0
_symmetry_space_group_name_H-M    P1
_symmetry_Int_Tables_number       1
_symmetry_cell_setting            triclinic
loop_
_symmetry_equiv_pos_as_xyz
'x, y, z'
_cell_length_a     58.48765
_cell_length_b     50.212642
_cell_length_c     15.19307
_cell_angle_alpha  92.743524
_cell_angle_beta   92.835182
_cell_angle_gamma 120.8616
loop_
_atom_site_label
_atom_site_type_symbol
_atom_site_fract_x
_atom_site_fract_y
_atom_site_fract_z
_atom_type_partial_charge
Tb0 Tb 1.02727 0.24887 0.93565 0.0
C1 C 0.05841 0.24686 0.11208 0.0
Tb2 Tb 0.06883 0.22702 0.9273 0.0
O3 O 0.99498 0.20262 0.8869 0.0
O4 O 1.02821 0.2076 0.96038 0.0
O5 O 0.04006 0.25164 0.07393 0.0
C6 C 0.09256 0.19349 0.91192 0.0
O7 O 0.07223 0.237 0.06889 0.0
C8 C 0.09103 0.28773 0.90876 0.0
C9 C 0.04187 0.23445 0.7561 0.0
O10 O 0.07886 0.19337 -0.02314 0.0
O11 O 0.09245 0.21202 0.85565 0.0
O12 O 0.10434 0.27349 0.91051 0.0
O13 O 0.06765 0.26759 0.92198 0.0
O14 O 0.04763 0.21546 0.79653 0.0
O15 O 0.03694 0.25422 0.80004 0.0
C16 C 1.00292 0.27974 -0.01877 0.0
O17 O 0.9916 0.2527 0.93678 0.0
O18 O 1.02818 0.28988 -0.00302 0.0
C19 C 1.00654 0.18812 0.91567 0.0
Tb20 Tb 0.83941 0.90936 0.04546 0.0
C21 C 0.87041 0.9079 0.8862 0.0
Tb22 Tb 0.89789 0.92154 0.07914 0.0
O23 O 0.85115 0.95834 0.02797 0.0
O24 O 0.87883 0.94613 0.05511 0.0
O25 O 0.84689 0.89478 0.91916 0.0
C26 C 0.94848 0.9376 0.07197 0.0
O27 O 0.89323 0.92272 0.93681 0.0
C28 C 0.85847 0.8672 0.11522 0.0
C29 C 0.86902 0.92896 0.23804 0.0
O30 O 0.94057 0.95577 0.10373 0.0
O31 O 0.92794 0.91039 0.04591 0.0
O32 O 0.88239 0.88076 0.15494 0.0
O33 O 0.85823 0.88275 0.05271 0.0
O34 O 0.89251 0.93894 0.20495 0.0
O35 O 0.84558 0.91432 0.18927 0.0
C36 C 0.7875 0.88141 -0.00423 0.0
O37 O 0.79743 0.87656 0.06775 0.0
O38 O 0.80667 0.90255 0.95513 0.0
C39 C 0.87667 0.96894 0.03863 0.0
Tb40 Tb 0.2423 0.07982 0.91682 0.0
C41 C 0.20992 0.04237 0.0735 0.0
Tb42 Tb 0.18216 1.03267 0.8829 0.0
O43 O 0.23536 0.11771 0.8863 0.0
O44 O 0.20652 0.07849 0.94177 0.0
O45 O 0.23351 0.0594 0.04238 0.0
C46 C 0.12962 1.0059 0.88302 0.0
O47 O 0.18698 1.03082 0.02447 0.0
C48 C 0.21302 1.01237 0.83157 0.0
C49 C 0.21513 0.06629 0.72663 0.0
O50 O 0.14306 0.99243 0.90094 0.0
O51 O 0.14571 1.03405 0.86272 0.0
O52 O 0.18904 1.00199 0.79519 0.0
O53 O 0.21738 1.0307 0.89845 0.0
O54 O 0.19204 0.05607 0.76189 0.0
O55 O 0.23753 0.07349 0.77394 0.0
C56 C 0.29356 0.10854 -0.02313 0.0
O57 O 0.28279 0.08829 0.90827 0.0
O58 O 0.27573 0.11343 0.00853 0.0
C59 C 0.21115 0.1033 0.91041 0.0
Tb60 Tb 0.70385 0.60197 0.35318 0.0
C61 C 0.67436 0.56047 0.17648 0.0
Tb62 Tb 0.66734 0.52881 0.35129 0.0
O63 O 0.73887 0.59953 0.39892 0.0
O64 O 0.70696 0.56193 0.32433 0.0
O65 O 0.68166 0.58686 0.22391 0.0
C66 C 0.65153 0.46878 0.35954 0.0
O67 O 0.67158 0.53549 0.21219 0.0
C68 C 0.63917 0.55629 0.37055 0.0
C69 C 0.68986 0.57196 0.53001 0.0
O70 O 0.64648 0.48054 0.29227 0.0
O71 O 0.66567 0.49084 0.42163 0.0
O72 O 0.62879 0.52629 0.36589 0.0
O73 O 0.66364 0.568 0.36256 0.0
O74 O 0.68443 0.54544 0.48691 0.0
O75 O 0.69464 0.59701 0.48972 0.0
C76 C 0.72793 0.66082 0.31009 0.0
O77 O 0.71648 0.65133 0.38303 0.0
O78 O 0.72587 0.63737 0.2631 0.0
C79 C 0.72869 0.57073 0.3689 0.0
Tb80 Tb 0.51351 0.18023 0.38364 0.0
C81 C 0.54218 0.17354 0.22005 0.0
Tb82 Tb 0.57132 0.19615 0.41017 0.0
O83 O 0.5264 0.22758 0.43733 0.0
O84 O 0.55169 0.21912 0.36573 0.0
O85 O 0.51933 0.16493 0.25492 0.0
C86 C 0.62454 0.22832 0.41562 0.0
O87 O 0.56556 0.18785 0.26752 0.0
C88 C 0.53598 0.1396 0.44845 0.0
C89 C 0.5395 0.19245 0.5737 0.0
O90 O 0.60934 0.19858 0.39329 0.0
O91 O 0.60979 0.2397 0.43624 0.0
O92 O 0.56068 0.1552 0.48241 0.0
O93 O 0.53309 0.15451 0.38853 0.0
O94 O 0.56297 0.20786 0.53979 0.0
O95 O 0.51655 0.17588 0.52382 0.0
C96 C 0.46511 0.1636 0.31267 0.0
O97 O 0.48758 0.18513 0.2878 0.0
O98 O 0.46956 0.15133 0.3803 0.0
C99 C 0.55002 0.23981 0.40972 0.0
Tb100 Tb 0.87508 0.38093 0.3793 0.0
C101 C 0.86897 0.41397 0.21547 0.0
Tb102 Tb 0.85257 0.42447 0.40083 0.0
O103 O 0.83786 0.34129 0.41287 0.0
O104 O 0.8374 0.37743 0.35133 0.0
O105 O 0.88025 0.39965 0.25191 0.0
C106 C 0.82475 0.45323 0.39817 0.0
O107 O 0.85502 0.4235 0.2589 0.0
C108 C 0.90353 0.44891 0.45453 0.0
C109 C 0.86082 0.39415 0.56326 0.0
O110 O 0.84959 0.46555 0.38162 0.0
O111 O 0.81549 0.42462 0.41643 0.0
O112 O 0.88831 0.45766 0.4889 0.0
O113 O 0.89044 0.42932 0.38995 0.0
O114 O 0.84486 0.40206 0.52265 0.0
O115 O 0.87804 0.3893 0.52195 0.0
C116 C 0.90118 0.35313 0.32655 0.0
O117 O 0.87731 0.34576 0.29702 0.0
O118 O 0.91027 0.37576 0.38883 0.0
C119 C 0.8232 0.35242 0.38706 0.0
Tb120 Tb 0.34487 0.8878 0.61045 0.0
C121 C 0.37428 0.88429 0.78348 0.0
Tb122 Tb 0.38143 0.85943 0.60299 0.0
O123 O 0.31046 0.84318 0.55797 0.0
O124 O 0.3413 0.8439 0.63413 0.0
O125 O 0.36601 0.90069 0.74128 0.0
C126 C 0.40441 0.82522 0.60514 0.0
O127 O 0.37743 0.8627 0.74259 0.0
C128 C 0.40956 0.92068 0.58944 0.0
C129 C 0.36042 0.87366 0.42868 0.0
O130 O 0.41357 0.8522 0.6476 0.0
O131 O 0.38158 0.81674 0.56171 0.0
O132 O 0.41952 0.90287 0.58796 0.0
O133 O 0.38511 0.90326 0.59843 0.0
O134 O 0.36678 0.85464 0.46586 0.0
O135 O 0.35445 0.89219 0.47434 0.0
C136 C 0.32121 0.91977 0.65186 0.0
O137 O 0.33361 0.92234 0.58107 0.0
O138 O 0.32205 0.89921 0.69805 0.0
C139 C 0.31966 0.82631 0.58693 0.0
Tb140 Tb 0.14632 0.54274 0.66561 0.0
C141 C 0.17467 0.53941 0.50124 0.0
Tb142 Tb 0.20646 0.56076 0.6891 0.0
O143 O 0.15922 0.58619 0.60122 0.0
O144 O 0.18478 0.5838 0.69518 0.0
O145 O 0.15161 0.52778 0.53688 0.0
C146 C 0.25949 0.59174 0.69348 0.0
O147 O 0.19821 0.55635 0.54716 0.0
C148 C 0.17424 0.49985 0.6907 0.0
C149 C 0.17578 0.55557 0.85525 0.0
O150 O 0.2437 0.59438 0.6361 0.0
O151 O 0.2454 0.57228 0.74971 0.0
O152 O 0.20012 0.51391 0.69633 0.0
O153 O 0.16828 0.5204 0.68114 0.0
O154 O 0.19932 0.57027 0.82173 0.0
O155 O 0.15252 0.54061 0.80627 0.0
C156 C 0.09319 0.51697 0.65293 0.0
O157 O 0.11031 0.54371 0.6953 0.0
O158 O 0.10603 0.50461 0.62 0.0
C159 C 0.18329 0.60077 0.63995 0.0
Tb160 Tb 0.55515 0.71392 0.61319 0.0
C161 C 0.52294 0.67588 0.7685 0.0
Tb162 Tb 0.49513 0.66571 0.57873 0.0
O163 O 0.54732 0.75048 0.57559 0.0
O164 O 0.51879 0.71207 0.63373 0.0
O165 O 0.54643 0.69124 0.73539 0.0
C166 C 0.44266 0.64209 0.57004 0.0
O167 O 0.49999 0.66583 0.72098 0.0
C168 C 0.52589 0.64451 0.53321 0.0
C169 C 0.52961 0.69717 0.42194 0.0
O170 O 0.45505 0.62973 0.60786 0.0
O171 O 0.45973 0.66699 0.53486 0.0
O172 O 0.50116 0.63228 0.50138 0.0
O173 O 0.53079 0.66456 0.59612 0.0
O174 O 0.50635 0.68758 0.45545 0.0
O175 O 0.55183 0.70519 0.47148 0.0
C176 C 0.60537 0.74908 0.68327 0.0
O177 O 0.59808 0.73111 0.60998 0.0
O178 O 0.58463 0.74756 0.71487 0.0
C179 C 0.52311 0.7362 0.59894 0.0
H180 H 0.06353 0.31848 0.88197 0.0
H181 H 0.18604 0.45547 0.66143 0.0
H182 H 0.14068 0.32811 0.86368 0.0
H183 H 0.12417 0.46889 0.75688 0.0
H184 H 0.16387 0.40351 0.71174 0.0
H185 H 0.08063 0.36934 0.82044 0.0
C186 C 0.08409 0.33142 0.86609 0.0
C187 C 0.10079 0.31918 0.87868 0.0
C188 C 0.15489 0.41755 0.72137 0.0
C189 C 0.12013 0.37661 0.80616 0.0
C190 C 0.16744 0.4472 0.69188 0.0
C191 C 0.15699 0.46655 0.70528 0.0
C192 C 0.13161 0.40687 0.76553 0.0
C193 C 0.13277 0.45456 0.74491 0.0
C194 C 0.09376 0.3603 0.83055 0.0
C195 C 0.12712 0.33664 0.85553 0.0
N196 N 0.12094 0.42545 0.77461 0.0
N197 N 0.13586 0.36424 0.82013 0.0
H198 H 0.74258 0.83892 0.07171 0.0
H199 H 0.65334 0.76927 0.61321 0.0
H200 H 0.77026 0.87941 0.82612 0.0
H201 H 0.61843 0.76942 0.85664 0.0
H202 H 0.69806 0.80127 0.6924 0.0
H203 H 0.69759 0.80489 -0.00459 0.0
C204 C 0.73911 0.84074 0.00215 0.0
C205 C 0.75993 0.86209 0.95518 0.0
C206 C 0.68052 0.79414 0.7282 0.0
C207 C 0.70935 0.823 0.86778 0.0
C208 C 0.65515 0.7759 0.68326 0.0
C209 C 0.63239 0.76708 0.72857 0.0
C210 C 0.6829 0.80284 0.81909 0.0
C211 C 0.63562 0.77611 0.81935 0.0
C212 C 0.71361 0.82138 0.95877 0.0
C213 C 0.75463 0.86343 0.86491 0.0
N214 N 0.66045 0.79341 0.86192 0.0
N215 N 0.72991 0.84396 0.8239 0.0
H216 H 0.21252 0.9873 0.66812 0.0
H217 H 0.30996 0.93004 0.81658 0.0
H218 H 0.25539 1.01554 0.9268 0.0
H219 H 0.30255 0.94853 0.54572 0.0
H220 H 0.28623 0.95644 0.85924 0.0
H221 H 0.24163 0.9683 0.62142 0.0
C222 C 0.22812 0.98953 0.71493 0.0
C223 C 0.23148 1.00269 0.80158 0.0
C224 C 0.28998 0.95495 0.7906 0.0
C225 C 0.26445 0.98073 0.74918 0.0
C226 C 0.30338 0.93978 0.76615 0.0
C227 C 0.30813 0.93712 0.67753 0.0
C228 C 0.28063 0.96682 0.72559 0.0
C229 C 0.2993 0.9502 0.61478 0.0
C230 C 0.24477 0.97887 0.68813 0.0
C231 C 0.25212 1.0054 0.85949 0.0
N232 N 0.28559 0.96415 0.6398 0.0
N233 N 0.26759 0.99405 0.83268 0.0
H234 H 0.45709 0.16813 0.13962 0.0
H235 H 0.30914 0.13058 0.14908 0.0
H236 H 0.41498 0.13632 0.37338 0.0
H237 H 0.33617 0.10744 0.91436 0.0
H238 H 0.35039 0.14174 0.23307 0.0
H239 H 0.41513 0.15416 0.05608 0.0
C240 C 0.43891 0.15813 0.17327 0.0
C241 C 0.43933 0.15337 0.26339 0.0
C242 C 0.34726 0.13429 0.16318 0.0
C243 C 0.39156 0.13795 0.16867 0.0
C244 C 0.32396 0.12829 0.115 0.0
C245 C 0.31948 0.11834 0.02461 0.0
C246 C 0.36639 0.13097 0.12008 0.0
C247 C 0.33905 0.11526 -0.01614 0.0
C248 C 0.41504 0.15008 0.12548 0.0
C249 C 0.41532 0.14021 0.30386 0.0
N250 N 0.36185 0.12183 0.03185 0.0
N251 N 0.3923 0.13329 0.2563 0.0
H252 H 0.95487 0.37453 0.35406 0.0
H253 H 0.94971 0.2589 0.95928 0.0
H254 H 0.88282 0.30587 0.19784 0.0
H255 H 1.02317 0.32975 0.10415 0.0
H256 H 0.92509 0.27649 0.04601 0.0
H257 H 0.98049 0.35811 0.26667 0.0
C258 C 0.94444 0.35573 0.30222 0.0
C259 C 0.91673 0.34143 0.2832 0.0
C260 C 0.94662 0.28839 0.05861 0.0
C261 C 0.94577 0.32293 0.18233 0.0
C262 C 0.96067 0.27846 0.00864 0.0
C263 C 0.98847 0.29296 0.0245 0.0
C264 C 0.96043 0.3129 0.12546 0.0
C265 C 1.00171 0.31806 0.08963 0.0
C266 C 0.95905 0.34655 0.25192 0.0
C267 C 0.90417 0.31746 0.21479 0.0
N268 N 0.98756 0.32714 0.13818 0.0
N269 N 0.91877 0.30904 0.16679 0.0
H270 H 0.81144 0.82454 0.01907 0.0
H271 H 0.75177 0.71555 0.41704 0.0
H272 H 0.85288 0.84664 0.27909 0.0
H273 H 0.73729 0.67917 0.14415 0.0
H274 H 0.78054 0.76838 0.37092 0.0
H275 H 0.77552 0.77543 0.06846 0.0
C276 C 0.81277 0.81921 0.08671 0.0
C277 C 0.83524 0.83928 0.1448 0.0
C278 C 0.77073 0.7488 0.32124 0.0
C279 C 0.79434 0.78384 0.20186 0.0
C280 C 0.75428 0.71878 0.34744 0.0
C281 C 0.74241 0.69309 0.28429 0.0
C282 C 0.77477 0.75304 0.23123 0.0
C283 C 0.74633 0.69842 0.19491 0.0
C284 C 0.79239 0.79126 0.11474 0.0
C285 C 0.83603 0.83147 0.23193 0.0
N286 N 0.76218 0.72778 0.17098 0.0
N287 N 0.81591 0.80436 0.25786 0.0
H288 H 0.05799 0.46648 0.54201 0.0
H289 H 0.93159 0.48484 0.60709 0.0
H290 H 0.06285 0.53979 0.71672 0.0
H291 H 0.9383 0.43584 0.37847 0.0
H292 H 0.97733 0.5003 0.66224 0.0
H293 H 1.01137 0.44912 0.49731 0.0
C294 C 0.04913 0.47872 0.5717 0.0
C295 C 0.0643 0.50466 0.63297 0.0
C296 C 0.96872 0.48606 0.6002 0.0
C297 C 1.01091 0.48496 0.58186 0.0
C298 C 0.94268 0.47727 0.5687 0.0
C299 C 0.9311 0.45876 0.48859 0.0
C300 C 0.98313 0.47601 0.55149 0.0
C301 C 0.94628 0.44959 0.44139 0.0
C302 C 1.02256 0.46891 0.54576 0.0
C303 C 0.05182 0.5197 0.66917 0.0
N304 N 0.97144 0.45818 0.47367 0.0
N305 N 1.02583 0.50965 0.64303 0.0
H306 H 0.5137 0.59673 0.41245 0.0
H307 H 0.65902 0.61776 0.42905 0.0
H308 H 0.57895 0.66798 0.58862 0.0
H309 H 0.58572 0.53107 0.35124 0.0
H310 H 0.6325 0.64166 0.46656 0.0
H311 H 0.54247 0.57758 0.36702 0.0
C312 C 0.53416 0.60842 0.44145 0.0
C313 C 0.54391 0.63382 0.5049 0.0
C314 C 0.62234 0.61746 0.44085 0.0
C315 C 0.57714 0.61214 0.45245 0.0
C316 C 0.63742 0.60392 0.41902 0.0
C317 C 0.62446 0.57243 0.38711 0.0
C318 C 0.59427 0.59943 0.42892 0.0
C319 C 0.59647 0.55541 0.37578 0.0
C320 C 0.55058 0.59745 0.41551 0.0
C321 C 0.57067 0.64823 0.53976 0.0
N322 N 0.58235 0.56911 0.39633 0.0
N323 N 0.58644 0.63719 0.51303 0.0
H324 H 0.54248 0.10694 0.57363 0.0
H325 H 0.39275 0.95911 0.52256 0.0
H326 H 0.48271 0.10214 0.38478 0.0
H327 H 0.46229 0.95883 0.62921 0.0
H328 H 0.42211 1.01411 0.49124 0.0
H329 H 0.50999 0.05551 0.61548 0.0
C330 C 0.52244 0.09503 0.54091 0.0
C331 C 0.51542 0.10871 0.47479 0.0
C332 C 0.43078 1.00195 0.52218 0.0
C333 C 0.47776 0.04943 0.52296 0.0
C334 C 0.41405 0.97075 0.54065 0.0
C335 C 0.42517 0.9545 0.5786 0.0
C336 C 0.45859 1.01687 0.5435 0.0
C337 C 0.45289 0.97045 0.59978 0.0
C338 C 0.50384 0.06559 0.56489 0.0
C339 C 0.48899 0.09226 0.43556 0.0
N340 N 0.46852 1.00058 0.58219 0.0
N341 N 0.47107 0.06336 0.46 0.0
H342 H 0.16586 0.08266 -0.00349 0.0
H343 H 0.12753 0.20001 0.79095 0.0
H344 H 0.21428 0.15075 0.82011 0.0
H345 H 0.09344 0.15193 0.02111 0.0
H346 H 0.15562 0.17701 0.78758 0.0
H347 H 0.13547 0.10271 -0.00643 0.0
C348 C 0.17001 0.10176 0.95682 0.0
C349 C 0.19258 0.11508 0.90832 0.0
C350 C 0.14196 0.17139 0.8387 0.0
C351 C 0.15795 0.13817 0.90481 0.0
C352 C 0.12582 0.1844 0.84044 0.0
C353 C 0.10819 0.17791 0.90658 0.0
C354 C 0.14031 0.15146 0.90311 0.0
C355 C 0.10682 0.15757 0.96911 0.0
C356 C 0.15273 0.11327 0.95551 0.0
C357 C 0.19714 0.1399 0.8586 0.0
N358 N 0.12267 0.14504 0.96585 0.0
N359 N 0.17994 0.1506 0.85791 0.0
H360 H 0.93088 0.99933 0.08827 0.0
H361 H 0.96032 0.146 0.82213 0.0
H362 H 0.87081 1.01034 0.94813 0.0
H363 H 1.01706 0.15303 0.02813 0.0
H364 H 0.93043 0.09182 0.84887 0.0
H365 H 0.96531 0.05173 0.05213 0.0
C366 C 0.92501 1.01265 0.04941 0.0
C367 C 0.89804 1.00047 0.02065 0.0
C368 C 0.94946 0.10504 0.88808 0.0
C369 C 0.93701 0.05999 -0.0211 0.0
C370 C 0.96663 0.13597 0.87248 0.0
C371 C 0.99107 0.15414 0.92365 0.0
C372 C 0.95663 0.09187 0.95552 0.0
C373 C 0.99832 0.13981 -0.01256 0.0
C374 C 0.94459 0.04254 0.02924 0.0
C375 C 0.89136 1.01885 0.97183 0.0
N376 N 0.98102 0.10948 0.00222 0.0
N377 N 0.91066 0.04751 0.95221 0.0
H378 H 0.99118 0.99684 0.08004 0.0
H379 H 0.09293 0.94718 0.92131 0.0
H380 H 0.96771 0.90088 0.01948 0.0
H381 H 0.10385 1.03793 0.89143 0.0
H382 H 0.04866 0.92994 0.97217 0.0
H383 H 0.03536 1.01304 0.03049 0.0
C384 C 0.99551 0.97923 0.05748 0.0
C385 C 0.97596 0.94755 0.05356 0.0
C386 C 0.06069 0.95353 0.95369 0.0
C387 C 1.02601 0.96575 -0.00364 0.0
C388 C 0.08581 0.96328 0.92441 0.0
C389 C 0.10184 0.99389 0.90201 0.0
C390 C 0.05191 0.97477 0.96182 0.0
C391 C 0.09194 1.01404 0.90765 0.0
C392 C 1.02056 0.98844 0.02848 0.0
C393 C 0.98236 0.92556 0.02327 0.0
N394 N 0.06765 1.00419 0.93783 0.0
N395 N 1.00691 0.93508 -0.0043 0.0
H396 H 0.77927 0.59171 0.43919 0.0
H397 H 0.77053 0.42777 0.39499 0.0
H398 H 0.70893 0.50913 0.31656 0.0
H399 H 0.84471 0.51549 0.39716 0.0
H400 H 0.74615 0.45572 0.38966 0.0
H401 H 0.80223 0.56254 0.44868 0.0
C402 C 0.76861 0.56736 0.4147 0.0
C403 C 0.74218 0.55276 0.37703 0.0
C404 C 0.76776 0.46876 0.3913 0.0
C405 C 0.76823 0.5192 0.38846 0.0
C406 C 0.78165 0.45289 0.39466 0.0
C407 C 0.80963 0.46942 0.39634 0.0
C408 C 0.78206 0.50136 0.39145 0.0
C409 C 0.82313 0.5019 0.39564 0.0
C410 C 0.78175 0.55077 0.4199 0.0
C411 C 0.72929 0.52117 0.34634 0.0
N412 N 0.80924 0.51683 0.39381 0.0
N413 N 0.74241 0.50534 0.35306 0.0
H414 H 0.63411 0.42219 0.22705 0.0
H415 H 0.55452 0.28576 0.52471 0.0
H416 H 0.64363 0.43944 0.51104 0.0
H417 H 0.58767 0.27052 0.29382 0.0
H418 H 0.58284 0.34217 0.51609 0.0
H419 H 0.6128 0.36606 0.2433 0.0
C420 C 0.63185 0.41412 0.29271 0.0
C421 C 0.64056 0.43531 0.36785 0.0
C422 C 0.58409 0.32644 0.46794 0.0
C423 C 0.61581 0.37152 0.38675 0.0
C424 C 0.56793 0.29436 0.47267 0.0
C425 C 0.56878 0.27362 0.40976 0.0
C426 C 0.60062 0.33777 0.39835 0.0
C427 C 0.58649 0.28584 0.3436 0.0
C428 C 0.61982 0.38223 0.30192 0.0
C429 C 0.63723 0.42379 0.45152 0.0
N430 N 0.60143 0.31718 0.33865 0.0
N431 N 0.6247 0.39259 0.45879 0.0
H432 H 0.65889 0.20693 0.40629 0.0
H433 H 0.78743 0.36976 0.33065 0.0
H434 H 0.6565 0.29144 0.41664 0.0
H435 H 0.79223 0.29632 0.44974 0.0
H436 H 0.73867 0.34017 0.33958 0.0
H437 H 0.70743 0.23795 0.39876 0.0
C438 C 0.66863 0.23202 0.40703 0.0
C439 C 0.65381 0.24672 0.41264 0.0
C440 C 0.75053 0.33072 0.36403 0.0
C441 C 0.70908 0.28223 0.40253 0.0
C442 C 0.77829 0.34762 0.35928 0.0
C443 C 0.79388 0.33565 0.39054 0.0
C444 C 0.73841 0.30141 0.39822 0.0
C445 C 0.78097 0.30648 0.42513 0.0
C446 C 0.69627 0.2497 0.40288 0.0
C447 C 0.66733 0.27929 0.41306 0.0
N448 N 0.75402 0.29029 0.42749 0.0
N449 N 0.69423 0.29601 0.40743 0.0
H450 H 0.53108 0.78892 0.52859 0.0
H451 H 0.38638 0.76269 0.57019 0.0
H452 H 0.47328 0.71064 0.65935 0.0
H453 H 0.45801 0.85292 0.6257 0.0
H454 H 0.41446 0.73899 0.56432 0.0
H455 H 0.5007 0.80904 0.52434 0.0
C456 C 0.51188 0.77578 0.55541 0.0
C457 C 0.50452 0.7479 0.5934 0.0
C458 C 0.42384 0.76397 0.5775 0.0
C459 C 0.46963 0.77042 0.58718 0.0
C460 C 0.40793 0.77742 0.58057 0.0
C461 C 0.41998 0.8097 0.59895 0.0
C462 C 0.45182 0.78319 0.58996 0.0
C463 C 0.44795 0.82789 0.61204 0.0
C464 C 0.49461 0.78724 0.55291 0.0
C465 C 0.47944 0.73187 0.62764 0.0
N466 N 0.46293 0.81445 0.60647 0.0
N467 N 0.46274 0.74325 0.62326 0.0
H468 H 0.18254 0.63877 0.51868 0.0
H469 H 0.32708 0.78658 0.6887 0.0
H470 H 0.23287 0.63627 0.7311 0.0
H471 H 0.27271 0.78788 0.4892 0.0
H472 H 0.29511 0.73065 0.69808 0.0
H473 H 0.21727 0.69247 0.50029 0.0
C474 C 0.20097 0.64951 0.56128 0.0
C475 C 0.20477 0.63301 0.62655 0.0
C476 C 0.29029 0.74317 0.65188 0.0
C477 C 0.24485 0.69479 0.60612 0.0
C478 C 0.30859 0.77505 0.64627 0.0
C479 C 0.30248 0.79196 0.58844 0.0
C480 C 0.26579 0.72815 0.59901 0.0
C481 C 0.27821 0.77585 0.53511 0.0
C482 C 0.22086 0.68023 0.5508 0.0
C483 C 0.22914 0.64813 0.67977 0.0
N484 N 0.2608 0.74505 0.54194 0.0
N485 N 0.2482 0.67816 0.66862 0.0
H486 H 0.41582 0.66812 0.49946 0.0
H487 H 0.29212 0.5784 0.79067 0.0
H488 H 0.40731 0.59789 0.67014 0.0
H489 H 0.29086 0.62992 0.57312 0.0
H490 H 0.33698 0.5907 0.75949 0.0
H491 H 0.37187 0.65832 0.53402 0.0
C492 C 0.40448 0.6503 0.54323 0.0
C493 C 0.41499 0.63357 0.58159 0.0
C494 C 0.32697 0.59948 0.7189 0.0
C495 C 0.36514 0.62276 0.62283 0.0
C496 C 0.3015 0.59272 0.73717 0.0
C497 C 0.28786 0.60311 0.68411 0.0
C498 C 0.33887 0.61688 0.64735 0.0
C499 C 0.30078 0.62145 0.61543 0.0
C500 C 0.37951 0.64486 0.5633 0.0
C501 C 0.39975 0.61108 0.63871 0.0
N502 N 0.32559 0.62768 0.59871 0.0
N503 N 0.3756 0.60643 0.65805 0.0
H504 H 0.05417 0.19998 0.64578 0.0
H505 H 0.04747 0.28264 0.2205 0.0
H506 H 0.03573 0.2731 0.64998 0.0
H507 H 0.07577 0.21833 0.22263 0.0
H508 H 0.04503 0.28119 0.37963 0.0
H509 H 0.06247 0.2066 0.49078 0.0
C510 C 0.05164 0.21726 0.61395 0.0
C511 C 0.04415 0.23597 0.66067 0.0
C512 C 0.05205 0.26764 0.34559 0.0
C513 C 0.05397 0.24388 0.48394 0.0
C514 C 0.05347 0.26848 0.25485 0.0
C515 C 0.06147 0.25021 0.2087 0.0
C516 C 0.0584 0.24814 0.39003 0.0
C517 C 0.06941 0.23265 0.25608 0.0
C518 C 0.05662 0.22119 0.52567 0.0
C519 C 0.04132 0.25807 0.61629 0.0
N520 N 0.06732 0.2317 0.34447 0.0
N521 N 0.04625 0.26141 0.53015 0.0
H522 H 0.9141 0.93823 0.79158 0.0
H523 H 0.82562 0.90222 0.33503 0.0
H524 H 0.82786 0.88106 0.76132 0.0
H525 H 0.91197 0.95756 0.36196 0.0
H526 H 0.8261 0.89659 0.49319 0.0
H527 H 0.91385 0.94591 0.63429 0.0
C528 C 0.89514 0.92696 0.75174 0.0
C529 C 0.87096 0.90905 0.78972 0.0
C530 C 0.84494 0.91016 0.46458 0.0
C531 C 0.87052 0.91819 0.61032 0.0
C532 C 0.84468 0.91365 0.3743 0.0
C533 C 0.86881 0.93021 0.33497 0.0
C534 C 0.86948 0.92332 0.5158 0.0
C535 C 0.89288 0.94438 0.3893 0.0
C536 C 0.895 0.93156 0.66209 0.0
C537 C 0.84699 0.89512 0.73497 0.0
N538 N 0.89261 0.94041 0.47695 0.0
N539 N 0.84739 0.90013 0.64807 0.0
H540 H 0.17353 0.05309 0.60705 0.0
H541 H 0.25155 0.05449 0.19078 0.0
H542 H 0.25552 0.07512 0.62615 0.0
H543 H 0.16772 1.02486 0.17364 0.0
H544 H 0.2529 0.06006 0.35117 0.0
H545 H 0.17117 0.04303 0.44761 0.0
C546 C 0.19114 0.05615 0.57766 0.0
C547 C 0.21476 0.06491 0.62992 0.0
C548 C 0.23414 0.05204 0.3124 0.0
C549 C 0.21202 0.05296 0.44795 0.0
C550 C 0.23331 0.0487 0.22086 0.0
C551 C 0.20955 0.03959 0.16902 0.0
C552 C 0.21109 0.04642 0.35205 0.0
C553 C 0.18648 1.03208 0.21126 0.0
C554 C 0.18969 0.05014 0.48671 0.0
C555 C 0.23693 0.06852 0.58834 0.0
N556 N 0.18791 1.03606 0.30062 0.0
N557 N 0.23498 0.0624 0.49961 0.0
H558 H 0.69011 0.61619 0.64403 0.0
H559 H 0.6634 0.51299 0.05379 0.0
H560 H 0.68566 0.52743 0.63422 0.0
H561 H 0.68018 0.60763 0.07926 0.0
H562 H 0.66602 0.51592 0.89492 0.0
H563 H 0.68296 0.61239 0.80146 0.0
C564 C 0.68791 0.59612 0.67508 0.0
C565 C 0.68845 0.5721 0.62611 0.0
C566 C 0.669 0.536 0.93528 0.0
C567 C 0.67983 0.56738 0.80451 0.0
C568 C 0.66735 0.53427 0.02591 0.0
C569 C 0.67195 0.56024 0.07986 0.0
C570 C 0.67533 0.56389 0.89863 0.0
C571 C 0.67678 0.58713 0.04013 0.0
C572 C 0.68363 0.59385 0.76455 0.0
C573 C 0.68527 0.54647 0.66924 0.0
N574 N 0.67858 0.58837 0.95172 0.0
N575 N 0.68101 0.54476 0.75592 0.0
H576 H 0.58233 0.22255 0.69675 0.0
H577 H 0.49825 0.1422 0.1012 0.0
H578 H 0.49709 0.15703 0.66886 0.0
H579 H 0.58457 0.19753 0.11881 0.0
H580 H 0.49729 0.14564 0.94193 0.0
H581 H 0.58318 0.21388 0.85252 0.0
C582 C 0.56372 0.20654 0.72351 0.0
C583 C 0.53958 0.19048 0.66975 0.0
C584 C 0.51644 0.1567 -0.01946 0.0
C585 C 0.54052 0.18016 0.84776 0.0
C586 C 0.51703 0.15465 0.07143 0.0
C587 C 0.54154 0.16998 0.1234 0.0
C588 C 0.5405 0.17439 0.94178 0.0
C589 C 0.56523 0.18554 0.08132 0.0
C590 C 0.56428 0.20141 0.81236 0.0
C591 C 0.51612 0.17002 0.70804 0.0
N592 N 0.5641 0.18769 -0.00713 0.0
N593 N 0.51719 0.16539 0.79495 0.0
H594 H 0.8226 0.39078 0.66427 0.0
H595 H 0.90695 0.41498 0.11812 0.0
H596 H 0.90004 0.39916 0.68016 0.0
H597 H 0.83511 0.41951 0.09836 0.0
H598 H 0.90537 0.41019 0.95765 0.0
H599 H 0.82635 0.3997 0.82425 0.0
C600 C 0.84031 0.39422 0.70166 0.0
C601 C 0.86114 0.3944 0.65934 0.0
C602 C 0.8901 0.41255 -0.0117 0.0
C603 C 0.86566 0.40499 0.84176 0.0
C604 C 0.89102 0.41537 0.07974 0.0
C605 C 0.87088 0.41719 0.12088 0.0
C606 C 0.86878 0.41129 0.93813 0.0
C607 C 0.85094 0.41806 0.06876 0.0
C608 C 0.8425 0.39953 0.79284 0.0
C609 C 0.88349 0.39868 0.71057 0.0
N610 N 0.85017 0.41467 -0.02049 0.0
N611 N 0.88524 0.404 0.79957 0.0
H612 H 0.35229 0.91212 0.32733 0.0
H613 H 0.39422 0.85833 0.89326 0.0
H614 H 0.37469 0.84233 0.3143 0.0
H615 H 0.3616 0.91853 0.89366 0.0
H616 H 0.39311 0.85829 0.05294 0.0
H617 H 0.35993 0.91923 0.17162 0.0
C618 C 0.35862 0.89814 0.29167 0.0
C619 C 0.36275 0.87649 0.33363 0.0
C620 C 0.38635 0.87167 0.01814 0.0
C621 C 0.37185 0.88486 0.15664 0.0
C622 C 0.38705 0.87178 0.92705 0.0
C623 C 0.37753 0.888 0.8802 0.0
C624 C 0.37596 0.88777 0.06231 0.0
C625 C 0.36887 0.90544 0.9273 0.0
C626 C 0.36313 0.90237 0.20306 0.0
C627 C 0.37115 0.85919 0.28456 0.0
N628 N 0.368 0.90458 0.01606 0.0
N629 N 0.37544 0.86379 0.19852 0.0
H630 H 0.21888 0.58004 -0.02312 0.0
H631 H 0.13086 0.51029 0.38124 0.0
H632 H 0.13243 0.52548 0.95068 0.0
H633 H 0.21731 0.56076 0.4021 0.0
H634 H 0.13083 0.51228 0.22154 0.0
H635 H 0.21845 0.57169 0.13286 0.0
C636 C 0.19978 0.56652 0.00404 0.0
C637 C 0.17563 0.55348 0.95087 0.0
C638 C 0.14978 0.52267 0.26112 0.0
C639 C 0.17506 0.54354 0.12892 0.0
C640 C 0.14982 0.52145 0.35221 0.0
C641 C 0.17415 0.53591 0.40497 0.0
C642 C 0.17421 0.53853 0.22319 0.0
C643 C 0.19809 0.54973 0.36396 0.0
C644 C 0.19957 0.56156 0.09301 0.0
C645 C 0.15152 0.53605 -0.01053 0.0
N646 N 0.19752 0.551 0.2753 0.0
N647 N 0.15184 0.53156 0.07652 0.0
H648 H 0.57116 0.70766 0.32479 0.0
H649 H 0.48007 0.65264 0.86773 0.0
H650 H 0.48792 0.6808 0.29972 0.0
H651 H 0.56567 0.69218 0.88637 0.0
H652 H 0.4817 0.65619 0.02858 0.0
H653 H 0.569 0.69781 0.16494 0.0
C654 C 0.55253 0.70004 0.28566 0.0
C655 C 0.5297 0.69509 0.32547 0.0
C656 C 0.50009 0.66387 -0.00267 0.0
C657 C 0.52699 0.68326 0.14357 0.0
C658 C 0.49914 0.66164 0.90557 0.0
C659 C 0.52282 0.6726 0.8638 0.0
C660 C 0.52487 0.67716 0.04716 0.0
C661 C 0.54696 0.68384 0.91596 0.0
C662 C 0.55126 0.69418 0.19462 0.0
C663 C 0.50603 0.68494 0.2718 0.0
N664 N 0.5474 0.68614 0.00521 0.0
N665 N 0.50528 0.67927 0.18347 0.0
loop_
_geom_bond_atom_site_label_1
_geom_bond_atom_site_label_2
_geom_bond_distance
_geom_bond_site_symmetry_2
_ccdc_geom_bond_type
Tb0 O3 2.453 . S
Tb0 O4 2.596 1_655 S
Tb0 O5 2.374 . S
Tb0 O13 2.343 1_655 S
Tb0 O15 2.353 1_554 S
Tb0 O17 2.427 1_554 S
Tb0 O18 2.513 . S
C1 O5 1.251 1_455 S
C1 O7 1.263 . S
Tb2 O4 2.343 . S
Tb2 O7 2.353 . S
Tb2 O10 2.427 . S
Tb2 O11 2.513 1_554 S
Tb2 O12 2.453 . S
Tb2 O13 2.596 . S
Tb2 O14 2.374 1_554 S
O3 Tb0 2.453 . S
O3 C19 1.245 . S
O4 Tb0 2.596 1_455 S
O4 Tb2 2.343 . S
O4 C19 1.259 1_455 S
O5 Tb0 2.374 . S
O5 C1 1.251 1_655 S
C6 O10 1.275 . S
C6 O11 1.246 1_554 S
O7 C1 1.263 . S
O7 Tb2 2.353 . S
C8 O12 1.245 . S
C8 O13 1.259 . S
C9 O14 1.250 . S
C9 O15 1.263 1_455 S
O10 Tb2 2.427 . S
O10 C6 1.275 . S
O11 Tb2 2.513 1_556 S
O11 C6 1.246 1_556 S
O12 Tb2 2.453 . S
O12 C8 1.245 . S
O13 Tb0 2.343 1_455 S
O13 Tb2 2.596 . S
O13 C8 1.259 . S
O14 Tb2 2.374 1_556 S
O14 C9 1.250 . S
O15 Tb0 2.353 1_556 S
O15 C9 1.263 1_655 S
C16 O17 1.275 1_554 S
C16 O18 1.246 . S
O17 Tb0 2.427 1_556 S
O17 C16 1.275 1_556 S
O18 Tb0 2.513 . S
O18 C16 1.246 . S
C19 O3 1.245 . S
C19 O4 1.259 1_655 S
Tb20 O23 2.453 . S
Tb20 O24 2.596 . S
Tb20 O25 2.374 1_554 S
Tb20 O33 2.343 . S
Tb20 O35 2.353 . S
Tb20 O37 2.427 . S
Tb20 O38 2.513 1_554 S
C21 O25 1.251 . S
C21 O27 1.263 . S
Tb22 O24 2.343 . S
Tb22 O27 2.353 1_554 S
Tb22 O30 2.427 . S
Tb22 O31 2.513 . S
Tb22 O32 2.453 . S
Tb22 O33 2.596 . S
Tb22 O34 2.374 . S
O23 Tb20 2.453 . S
O23 C39 1.245 . S
O24 Tb20 2.596 . S
O24 Tb22 2.343 . S
O24 C39 1.259 . S
O25 Tb20 2.374 1_556 S
O25 C21 1.251 . S
C26 O30 1.275 . S
C26 O31 1.246 . S
O27 C21 1.263 . S
O27 Tb22 2.353 1_556 S
C28 O32 1.245 . S
C28 O33 1.259 . S
C29 O34 1.250 . S
C29 O35 1.263 . S
O30 Tb22 2.427 . S
O30 C26 1.275 . S
O31 Tb22 2.513 . S
O31 C26 1.246 . S
O32 Tb22 2.453 . S
O32 C28 1.245 . S
O33 Tb20 2.343 . S
O33 Tb22 2.596 . S
O33 C28 1.259 . S
O34 Tb22 2.374 . S
O34 C29 1.250 . S
O35 Tb20 2.353 . S
O35 C29 1.263 . S
C36 O37 1.275 . S
C36 O38 1.246 1_554 S
O37 Tb20 2.427 . S
O37 C36 1.275 . S
O38 Tb20 2.513 1_556 S
O38 C36 1.246 1_556 S
C39 O23 1.245 . S
C39 O24 1.259 . S
Tb40 O43 2.453 . S
Tb40 O44 2.596 . S
Tb40 O45 2.374 . S
Tb40 O53 2.343 1_554 S
Tb40 O55 2.353 1_554 S
Tb40 O57 2.427 1_554 S
Tb40 O58 2.513 . S
C41 O45 1.251 . S
C41 O47 1.263 1_545 S
Tb42 O44 2.343 1_566 S
Tb42 O47 2.353 1_556 S
Tb42 O50 2.427 1_556 S
Tb42 O51 2.513 . S
Tb42 O52 2.453 . S
Tb42 O53 2.596 1_565 S
Tb42 O54 2.374 . S
O43 Tb40 2.453 . S
O43 C59 1.245 . S
O44 Tb40 2.596 . S
O44 Tb42 2.343 1_544 S
O44 C59 1.259 . S
O45 Tb40 2.374 . S
O45 C41 1.251 . S
C46 O50 1.275 1_556 S
C46 O51 1.246 . S
O47 C41 1.263 1_565 S
O47 Tb42 2.353 1_554 S
C48 O52 1.245 . S
C48 O53 1.259 1_565 S
C49 O54 1.250 1_545 S
C49 O55 1.263 . S
O50 Tb42 2.427 1_554 S
O50 C46 1.275 1_554 S
O51 Tb42 2.513 . S
O51 C46 1.246 . S
O52 Tb42 2.453 . S
O52 C48 1.245 . S
O53 Tb40 2.343 1_556 S
O53 Tb42 2.596 1_545 S
O53 C48 1.259 1_545 S
O54 Tb42 2.374 . S
O54 C49 1.250 1_565 S
O55 Tb40 2.353 1_556 S
O55 C49 1.263 . S
C56 O57 1.275 1_554 S
C56 O58 1.246 . S
O57 Tb40 2.427 1_556 S
O57 C56 1.275 1_556 S
O58 Tb40 2.513 . S
O58 C56 1.246 . S
C59 O43 1.245 . S
C59 O44 1.259 . S
Tb60 O63 2.453 . S
Tb60 O64 2.596 . S
Tb60 O65 2.374 . S
Tb60 O73 2.343 . S
Tb60 O75 2.353 . S
Tb60 O77 2.427 . S
Tb60 O78 2.513 . S
C61 O65 1.251 . S
C61 O67 1.263 . S
Tb62 O64 2.343 . S
Tb62 O67 2.353 . S
Tb62 O70 2.427 . S
Tb62 O71 2.513 . S
Tb62 O72 2.453 . S
Tb62 O73 2.596 . S
Tb62 O74 2.374 . S
O63 Tb60 2.453 . S
O63 C79 1.245 . S
O64 Tb60 2.596 . S
O64 Tb62 2.343 . S
O64 C79 1.259 . S
O65 Tb60 2.374 . S
O65 C61 1.251 . S
C66 O70 1.275 . S
C66 O71 1.246 . S
O67 C61 1.263 . S
O67 Tb62 2.353 . S
C68 O72 1.245 . S
C68 O73 1.259 . S
C69 O74 1.250 . S
C69 O75 1.263 . S
O70 Tb62 2.427 . S
O70 C66 1.275 . S
O71 Tb62 2.513 . S
O71 C66 1.246 . S
O72 Tb62 2.453 . S
O72 C68 1.245 . S
O73 Tb60 2.343 . S
O73 Tb62 2.596 . S
O73 C68 1.259 . S
O74 Tb62 2.374 . S
O74 C69 1.250 . S
O75 Tb60 2.353 . S
O75 C69 1.263 . S
C76 O77 1.275 . S
C76 O78 1.246 . S
O77 Tb60 2.427 . S
O77 C76 1.275 . S
O78 Tb60 2.513 . S
O78 C76 1.246 . S
C79 O63 1.245 . S
C79 O64 1.259 . S
Tb80 O83 2.453 . S
Tb80 O84 2.596 . S
Tb80 O85 2.374 . S
Tb80 O93 2.343 . S
Tb80 O95 2.353 . S
Tb80 O97 2.427 . S
Tb80 O98 2.513 . S
C81 O85 1.251 . S
C81 O87 1.263 . S
Tb82 O84 2.343 . S
Tb82 O87 2.353 . S
Tb82 O90 2.427 . S
Tb82 O91 2.513 . S
Tb82 O92 2.453 . S
Tb82 O93 2.596 . S
Tb82 O94 2.374 . S
O83 Tb80 2.453 . S
O83 C99 1.245 . S
O84 Tb80 2.596 . S
O84 Tb82 2.343 . S
O84 C99 1.259 . S
O85 Tb80 2.374 . S
O85 C81 1.251 . S
C86 O90 1.275 . S
C86 O91 1.246 . S
O87 C81 1.263 . S
O87 Tb82 2.353 . S
C88 O92 1.245 . S
C88 O93 1.259 . S
C89 O94 1.250 . S
C89 O95 1.263 . S
O90 Tb82 2.427 . S
O90 C86 1.275 . S
O91 Tb82 2.513 . S
O91 C86 1.246 . S
O92 Tb82 2.453 . S
O92 C88 1.245 . S
O93 Tb80 2.343 . S
O93 Tb82 2.596 . S
O93 C88 1.259 . S
O94 Tb82 2.374 . S
O94 C89 1.250 . S
O95 Tb80 2.353 . S
O95 C89 1.263 . S
C96 O97 1.275 . S
C96 O98 1.246 . S
O97 Tb80 2.427 . S
O97 C96 1.275 . S
O98 Tb80 2.513 . S
O98 C96 1.246 . S
C99 O83 1.245 . S
C99 O84 1.259 . S
Tb100 O103 2.453 . S
Tb100 O104 2.596 . S
Tb100 O105 2.374 . S
Tb100 O113 2.343 . S
Tb100 O115 2.353 . S
Tb100 O117 2.427 . S
Tb100 O118 2.513 . S
C101 O105 1.251 . S
C101 O107 1.263 . S
Tb102 O104 2.343 . S
Tb102 O107 2.353 . S
Tb102 O110 2.427 . S
Tb102 O111 2.513 . S
Tb102 O112 2.453 . S
Tb102 O113 2.596 . S
Tb102 O114 2.374 . S
O103 Tb100 2.453 . S
O103 C119 1.245 . S
O104 Tb100 2.596 . S
O104 Tb102 2.343 . S
O104 C119 1.259 . S
O105 Tb100 2.374 . S
O105 C101 1.251 . S
C106 O110 1.275 . S
C106 O111 1.246 . S
O107 C101 1.263 . S
O107 Tb102 2.353 . S
C108 O112 1.245 . S
C108 O113 1.259 . S
C109 O114 1.250 . S
C109 O115 1.263 . S
O110 Tb102 2.427 . S
O110 C106 1.275 . S
O111 Tb102 2.513 . S
O111 C106 1.246 . S
O112 Tb102 2.453 . S
O112 C108 1.245 . S
O113 Tb100 2.343 . S
O113 Tb102 2.596 . S
O113 C108 1.259 . S
O114 Tb102 2.374 . S
O114 C109 1.250 . S
O115 Tb100 2.353 . S
O115 C109 1.263 . S
C116 O117 1.275 . S
C116 O118 1.246 . S
O117 Tb100 2.427 . S
O117 C116 1.275 . S
O118 Tb100 2.513 . S
O118 C116 1.246 . S
C119 O103 1.245 . S
C119 O104 1.259 . S
Tb120 O123 2.453 . S
Tb120 O124 2.596 . S
Tb120 O125 2.374 . S
Tb120 O133 2.343 . S
Tb120 O135 2.353 . S
Tb120 O137 2.427 . S
Tb120 O138 2.513 . S
C121 O125 1.251 . S
C121 O127 1.263 . S
Tb122 O124 2.343 . S
Tb122 O127 2.353 . S
Tb122 O130 2.427 . S
Tb122 O131 2.513 . S
Tb122 O132 2.453 . S
Tb122 O133 2.596 . S
Tb122 O134 2.374 . S
O123 Tb120 2.453 . S
O123 C139 1.245 . S
O124 Tb120 2.596 . S
O124 Tb122 2.343 . S
O124 C139 1.259 . S
O125 Tb120 2.374 . S
O125 C121 1.251 . S
C126 O130 1.275 . S
C126 O131 1.246 . S
O127 C121 1.263 . S
O127 Tb122 2.353 . S
C128 O132 1.245 . S
C128 O133 1.259 . S
C129 O134 1.250 . S
C129 O135 1.263 . S
O130 Tb122 2.427 . S
O130 C126 1.275 . S
O131 Tb122 2.513 . S
O131 C126 1.246 . S
O132 Tb122 2.453 . S
O132 C128 1.245 . S
O133 Tb120 2.343 . S
O133 Tb122 2.596 . S
O133 C128 1.259 . S
O134 Tb122 2.374 . S
O134 C129 1.250 . S
O135 Tb120 2.353 . S
O135 C129 1.263 . S
C136 O137 1.275 . S
C136 O138 1.246 . S
O137 Tb120 2.427 . S
O137 C136 1.275 . S
O138 Tb120 2.513 . S
O138 C136 1.246 . S
C139 O123 1.245 . S
C139 O124 1.259 . S
Tb140 O143 2.453 . S
Tb140 O144 2.596 . S
Tb140 O145 2.374 . S
Tb140 O153 2.343 . S
Tb140 O155 2.353 . S
Tb140 O157 2.427 . S
Tb140 O158 2.513 . S
C141 O145 1.251 . S
C141 O147 1.263 . S
Tb142 O144 2.343 . S
Tb142 O147 2.353 . S
Tb142 O150 2.427 . S
Tb142 O151 2.513 . S
Tb142 O152 2.453 . S
Tb142 O153 2.596 . S
Tb142 O154 2.374 . S
O143 Tb140 2.453 . S
O143 C159 1.245 . S
O144 Tb140 2.596 . S
O144 Tb142 2.343 . S
O144 C159 1.259 . S
O145 Tb140 2.374 . S
O145 C141 1.251 . S
C146 O150 1.275 . S
C146 O151 1.246 . S
O147 C141 1.263 . S
O147 Tb142 2.353 . S
C148 O152 1.245 . S
C148 O153 1.259 . S
C149 O154 1.250 . S
C149 O155 1.263 . S
O150 Tb142 2.427 . S
O150 C146 1.275 . S
O151 Tb142 2.513 . S
O151 C146 1.246 . S
O152 Tb142 2.453 . S
O152 C148 1.245 . S
O153 Tb140 2.343 . S
O153 Tb142 2.596 . S
O153 C148 1.259 . S
O154 Tb142 2.374 . S
O154 C149 1.250 . S
O155 Tb140 2.353 . S
O155 C149 1.263 . S
C156 O157 1.275 . S
C156 O158 1.246 . S
O157 Tb140 2.427 . S
O157 C156 1.275 . S
O158 Tb140 2.513 . S
O158 C156 1.246 . S
C159 O143 1.245 . S
C159 O144 1.259 . S
Tb160 O163 2.453 . S
Tb160 O164 2.596 . S
Tb160 O165 2.374 . S
Tb160 O173 2.343 . S
Tb160 O175 2.353 . S
Tb160 O177 2.427 . S
Tb160 O178 2.513 . S
C161 O165 1.251 . S
C161 O167 1.263 . S
Tb162 O164 2.343 . S
Tb162 O167 2.353 . S
Tb162 O170 2.427 . S
Tb162 O171 2.513 . S
Tb162 O172 2.453 . S
Tb162 O173 2.596 . S
Tb162 O174 2.374 . S
O163 Tb160 2.453 . S
O163 C179 1.245 . S
O164 Tb160 2.596 . S
O164 Tb162 2.343 . S
O164 C179 1.259 . S
O165 Tb160 2.374 . S
O165 C161 1.251 . S
C166 O170 1.275 . S
C166 O171 1.246 . S
O167 C161 1.263 . S
O167 Tb162 2.353 . S
C168 O172 1.245 . S
C168 O173 1.259 . S
C169 O174 1.250 . S
C169 O175 1.263 . S
O170 Tb162 2.427 . S
O170 C166 1.275 . S
O171 Tb162 2.513 . S
O171 C166 1.246 . S
O172 Tb162 2.453 . S
O172 C168 1.245 . S
O173 Tb160 2.343 . S
O173 Tb162 2.596 . S
O173 C168 1.259 . S
O174 Tb162 2.374 . S
O174 C169 1.250 . S
O175 Tb160 2.353 . S
O175 C169 1.263 . S
C176 O177 1.275 . S
C176 O178 1.246 . S
O177 Tb160 2.427 . S
O177 C176 1.275 . S
O178 Tb160 2.513 . S
O178 C176 1.246 . S
C179 O163 1.245 . S
C179 O164 1.259 . S
H180 C186 0.930 . S
H181 C190 0.930 . S
H182 C195 0.929 . S
H183 C193 0.929 . S
H184 C188 0.929 . S
H185 C194 0.929 . S
C186 H180 0.930 . S
C186 C187 1.364 1_554 S
C186 C194 1.378 . S
C187 C186 1.364 1_556 S
C187 C195 1.440 . S
C188 H184 0.929 . S
C188 C190 1.378 . S
C188 C192 1.350 . S
C189 C192 1.463 . S
C189 C194 1.350 1_556 S
C189 N197 1.427 . S
C190 H181 0.930 . S
C190 C188 1.378 . S
C190 C191 1.367 . S
C191 C190 1.367 . S
C191 C193 1.433 . S
C192 C188 1.350 . S
C192 C189 1.463 . S
C192 N196 1.427 . S
C193 H183 0.929 . S
C193 C191 1.433 . S
C193 N196 1.384 . S
C194 H185 0.929 . S
C194 C186 1.378 . S
C194 C189 1.350 1_554 S
C195 H182 0.929 . S
C195 C187 1.440 . S
C195 N197 1.384 . S
N196 C192 1.427 . S
N196 C193 1.384 . S
N197 C189 1.427 . S
N197 C195 1.384 . S
H198 C204 0.930 . S
H199 C208 0.930 . S
H200 C213 0.929 . S
H201 C211 0.929 . S
H202 C206 0.929 . S
H203 C212 0.929 . S
C204 H198 0.930 . S
C204 C205 1.367 . S
C204 C212 1.378 . S
C205 C204 1.367 . S
C205 C213 1.433 1_554 S
C206 H202 0.929 . S
C206 C208 1.378 . S
C206 C210 1.350 . S
C207 C210 1.463 . S
C207 C212 1.350 1_556 S
C207 N215 1.427 . S
C208 H199 0.930 . S
C208 C206 1.378 . S
C208 C209 1.367 . S
C209 C208 1.367 . S
C209 C211 1.433 . S
C210 C206 1.350 . S
C210 C207 1.463 . S
C210 N214 1.427 . S
C211 H201 0.929 . S
C211 C209 1.433 . S
C211 N214 1.384 . S
C212 H203 0.929 . S
C212 C204 1.378 . S
C212 C207 1.350 1_554 S
C213 H200 0.929 . S
C213 C205 1.433 1_556 S
C213 N215 1.384 . S
N214 C210 1.427 . S
N214 C211 1.384 . S
N215 C207 1.427 . S
N215 C213 1.384 . S
H216 C222 0.930 . S
H217 C226 0.930 . S
H218 C231 0.929 1_545 S
H219 C229 0.929 . S
H220 C224 0.929 . S
H221 C230 0.929 . S
C222 H216 0.930 . S
C222 C223 1.367 . S
C222 C230 1.378 . S
C223 C222 1.367 . S
C223 C231 1.433 . S
C224 H220 0.929 . S
C224 C226 1.378 . S
C224 C228 1.350 . S
C225 C228 1.463 . S
C225 C230 1.350 . S
C225 N233 1.427 . S
C226 H217 0.930 . S
C226 C224 1.378 . S
C226 C227 1.367 . S
C227 C226 1.367 . S
C227 C229 1.433 . S
C228 C224 1.350 . S
C228 C225 1.463 . S
C228 N232 1.427 . S
C229 H219 0.929 . S
C229 C227 1.433 . S
C229 N232 1.384 . S
C230 H221 0.929 . S
C230 C222 1.378 . S
C230 C225 1.350 . S
C231 H218 0.929 1_565 S
C231 C223 1.433 . S
C231 N233 1.384 . S
N232 C228 1.427 . S
N232 C229 1.384 . S
N233 C225 1.427 . S
N233 C231 1.384 . S
H234 C240 0.930 . S
H235 C244 0.930 . S
H236 C249 0.929 . S
H237 C247 0.929 . S
H238 C242 0.929 . S
H239 C248 0.929 . S
C240 H234 0.930 . S
C240 C241 1.367 . S
C240 C248 1.378 . S
C241 C240 1.367 . S
C241 C249 1.433 . S
C242 H238 0.929 . S
C242 C244 1.378 . S
C242 C246 1.350 . S
C243 C246 1.463 . S
C243 C248 1.350 . S
C243 N251 1.427 . S
C244 H235 0.930 . S
C244 C242 1.378 . S
C244 C245 1.367 . S
C245 C244 1.367 . S
C245 C247 1.433 1_554 S
C246 C242 1.350 . S
C246 C243 1.463 . S
C246 N250 1.427 . S
C247 H237 0.929 . S
C247 C245 1.433 1_556 S
C247 N250 1.384 1_556 S
C248 H239 0.929 . S
C248 C240 1.378 . S
C248 C243 1.350 . S
C249 H236 0.929 . S
C249 C241 1.433 . S
C249 N251 1.384 . S
N250 C246 1.427 . S
N250 C247 1.384 1_554 S
N251 C243 1.427 . S
N251 C249 1.384 . S
H252 C258 0.930 . S
H253 C262 0.930 . S
H254 C267 0.929 . S
H255 C265 0.929 . S
H256 C260 0.929 . S
H257 C266 0.929 . S
C258 H252 0.930 . S
C258 C259 1.367 . S
C258 C266 1.378 . S
C259 C258 1.367 . S
C259 C267 1.433 . S
C260 H256 0.929 . S
C260 C262 1.378 . S
C260 C264 1.350 . S
C261 C264 1.463 . S
C261 C266 1.350 . S
C261 N269 1.427 . S
C262 H253 0.930 . S
C262 C260 1.378 . S
C262 C263 1.367 . S
C263 C262 1.367 . S
C263 C265 1.433 . S
C264 C260 1.350 . S
C264 C261 1.463 . S
C264 N268 1.427 . S
C265 H255 0.929 . S
C265 C263 1.433 . S
C265 N268 1.384 . S
C266 H257 0.929 . S
C266 C258 1.378 . S
C266 C261 1.350 . S
C267 H254 0.929 . S
C267 C259 1.433 . S
C267 N269 1.384 . S
N268 C264 1.427 . S
N268 C265 1.384 . S
N269 C261 1.427 . S
N269 C267 1.384 . S
H270 C276 0.930 . S
H271 C280 0.930 . S
H272 C285 0.929 . S
H273 C283 0.929 . S
H274 C278 0.929 . S
H275 C284 0.929 . S
C276 H270 0.930 . S
C276 C277 1.367 . S
C276 C284 1.378 . S
C277 C276 1.367 . S
C277 C285 1.433 . S
C278 H274 0.929 . S
C278 C280 1.378 . S
C278 C282 1.350 . S
C279 C282 1.463 . S
C279 C284 1.350 . S
C279 N287 1.427 . S
C280 H271 0.930 . S
C280 C278 1.378 . S
C280 C281 1.367 . S
C281 C280 1.367 . S
C281 C283 1.433 . S
C282 C278 1.350 . S
C282 C279 1.463 . S
C282 N286 1.427 . S
C283 H273 0.929 . S
C283 C281 1.433 . S
C283 N286 1.384 . S
C284 H275 0.929 . S
C284 C276 1.378 . S
C284 C279 1.350 . S
C285 H272 0.929 . S
C285 C277 1.433 . S
C285 N287 1.384 . S
N286 C282 1.427 . S
N286 C283 1.384 . S
N287 C279 1.427 . S
N287 C285 1.384 . S
H288 C294 0.930 . S
H289 C298 0.930 . S
H290 C303 0.929 . S
H291 C301 0.929 . S
H292 C296 0.929 . S
H293 C302 0.934 1_655 S
C294 H288 0.930 . S
C294 C295 1.367 . S
C294 C302 1.378 . S
C295 C294 1.367 . S
C295 C303 1.433 . S
C296 H292 0.929 . S
C296 C298 1.378 . S
C296 C300 1.350 . S
C297 C300 1.463 . S
C297 C302 1.350 1_655 S
C297 N305 1.427 . S
C298 H289 0.930 . S
C298 C296 1.378 . S
C298 C299 1.367 . S
C299 C298 1.367 . S
C299 C301 1.433 . S
C300 C296 1.350 . S
C300 C297 1.463 . S
C300 N304 1.427 . S
C301 H291 0.929 . S
C301 C299 1.433 . S
C301 N304 1.384 . S
C302 H293 0.934 1_455 S
C302 C294 1.378 . S
C302 C297 1.350 1_455 S
C303 H290 0.929 . S
C303 C295 1.433 . S
C303 N305 1.384 1_455 S
N304 C300 1.427 . S
N304 C301 1.384 . S
N305 C297 1.427 . S
N305 C303 1.384 1_655 S
H306 C312 0.930 . S
H307 C316 0.930 . S
H308 C321 0.929 . S
H309 C319 0.929 . S
H310 C314 0.929 . S
H311 C320 0.929 . S
C312 H306 0.930 . S
C312 C313 1.367 . S
C312 C320 1.378 . S
C313 C312 1.367 . S
C313 C321 1.433 . S
C314 H310 0.929 . S
C314 C316 1.378 . S
C314 C318 1.350 . S
C315 C318 1.463 . S
C315 C320 1.350 . S
C315 N323 1.427 . S
C316 H307 0.930 . S
C316 C314 1.378 . S
C316 C317 1.367 . S
C317 C316 1.367 . S
C317 C319 1.433 . S
C318 C314 1.350 . S
C318 C315 1.463 . S
C318 N322 1.427 . S
C319 H309 0.929 . S
C319 C317 1.433 . S
C319 N322 1.384 . S
C320 H311 0.929 . S
C320 C312 1.378 . S
C320 C315 1.350 . S
C321 H308 0.929 . S
C321 C313 1.433 . S
C321 N323 1.384 . S
N322 C318 1.427 . S
N322 C319 1.384 . S
N323 C315 1.427 . S
N323 C321 1.384 . S
H324 C330 0.930 . S
H325 C334 0.930 . S
H326 C339 0.929 . S
H327 C337 0.929 . S
H328 C332 0.929 1_545 S
H329 C338 0.929 1_565 S
C330 H324 0.930 . S
C330 C331 1.367 . S
C330 C338 1.378 . S
C331 C330 1.367 . S
C331 C339 1.433 . S
C332 H328 0.929 1_565 S
C332 C334 1.378 . S
C332 C336 1.350 . S
C333 C336 1.463 1_545 S
C333 C338 1.350 . S
C333 N341 1.427 . S
C334 H325 0.930 . S
C334 C332 1.378 . S
C334 C335 1.367 . S
C335 C334 1.367 . S
C335 C337 1.433 . S
C336 C332 1.350 . S
C336 C333 1.463 1_565 S
C336 N340 1.427 . S
C337 H327 0.929 . S
C337 C335 1.433 . S
C337 N340 1.384 . S
C338 H329 0.929 1_545 S
C338 C330 1.378 . S
C338 C333 1.350 . S
C339 H326 0.929 . S
C339 C331 1.433 . S
C339 N341 1.384 . S
N340 C336 1.427 . S
N340 C337 1.384 . S
N341 C333 1.427 . S
N341 C339 1.384 . S
H342 C348 0.930 . S
H343 C352 0.930 . S
H344 C357 0.929 . S
H345 C355 0.929 . S
H346 C350 0.929 . S
H347 C356 0.929 . S
C348 H342 0.930 . S
C348 C349 1.367 . S
C348 C356 1.378 . S
C349 C348 1.367 . S
C349 C357 1.433 1_554 S
C350 H346 0.929 . S
C350 C352 1.378 . S
C350 C354 1.350 1_556 S
C351 C354 1.463 . S
C351 C356 1.350 . S
C351 N359 1.427 1_554 S
C352 H343 0.930 . S
C352 C350 1.378 . S
C352 C353 1.367 1_556 S
C353 C352 1.367 1_554 S
C353 C355 1.433 . S
C354 C350 1.350 1_554 S
C354 C351 1.463 . S
C354 N358 1.427 . S
C355 H345 0.929 . S
C355 C353 1.433 . S
C355 N358 1.384 . S
C356 H347 0.929 . S
C356 C348 1.378 . S
C356 C351 1.350 . S
C357 H344 0.929 . S
C357 C349 1.433 1_556 S
C357 N359 1.384 . S
N358 C354 1.427 . S
N358 C355 1.384 . S
N359 C351 1.427 1_556 S
N359 C357 1.384 . S
H360 C366 0.930 . S
H361 C370 0.930 . S
H362 C375 0.929 1_556 S
H363 C373 0.929 . S
H364 C368 0.929 . S
H365 C374 0.932 1_545 S
C366 H360 0.930 . S
C366 C367 1.367 . S
C366 C374 1.378 . S
C367 C366 1.367 . S
C367 C375 1.433 . S
C368 H364 0.929 . S
C368 C370 1.378 . S
C368 C372 1.350 . S
C369 C372 1.463 . S
C369 C374 1.350 1_545 S
C369 N377 1.427 1_545 S
C370 H361 0.930 . S
C370 C368 1.378 . S
C370 C371 1.367 . S
C371 C370 1.367 . S
C371 C373 1.433 . S
C372 C368 1.350 . S
C372 C369 1.463 . S
C372 N376 1.427 . S
C373 H363 0.929 . S
C373 C371 1.433 . S
C373 N376 1.384 . S
C374 H365 0.932 1_565 S
C374 C366 1.378 . S
C374 C369 1.350 1_565 S
C375 H362 0.929 1_554 S
C375 C367 1.433 . S
C375 N377 1.384 . S
N376 C372 1.427 . S
N376 C373 1.384 . S
N377 C369 1.427 1_565 S
N377 C375 1.384 . S
H378 C384 0.930 1_556 S
H379 C388 0.930 . S
H380 C393 0.929 . S
H381 C391 0.929 . S
H382 C386 0.929 . S
H383 C392 0.929 . S
C384 H378 0.930 1_554 S
C384 C385 1.367 . S
C384 C392 1.378 1_554 S
C385 C384 1.367 . S
C385 C393 1.433 . S
C386 H382 0.929 . S
C386 C388 1.378 . S
C386 C390 1.350 . S
C387 C390 1.463 1_655 S
C387 C392 1.350 1_554 S
C387 N395 1.427 . S
C388 H379 0.930 . S
C388 C386 1.378 . S
C388 C389 1.367 1_554 S
C389 C388 1.367 1_556 S
C389 C391 1.433 . S
C390 C386 1.350 . S
C390 C387 1.463 1_455 S
C390 N394 1.427 1_554 S
C391 H381 0.929 . S
C391 C389 1.433 . S
C391 N394 1.384 . S
C392 H383 0.929 . S
C392 C384 1.378 1_556 S
C392 C387 1.350 1_556 S
C393 H380 0.929 . S
C393 C385 1.433 . S
C393 N395 1.384 . S
N394 C390 1.427 1_556 S
N394 C391 1.384 . S
N395 C387 1.427 . S
N395 C393 1.384 . S
H396 C402 0.930 . S
H397 C406 0.930 . S
H398 C411 0.929 . S
H399 C409 0.929 . S
H400 C404 0.929 . S
H401 C410 0.929 . S
C402 H396 0.930 . S
C402 C403 1.367 . S
C402 C410 1.378 . S
C403 C402 1.367 . S
C403 C411 1.433 . S
C404 H400 0.929 . S
C404 C406 1.378 . S
C404 C408 1.350 . S
C405 C408 1.463 . S
C405 C410 1.350 . S
C405 N413 1.427 . S
C406 H397 0.930 . S
C406 C404 1.378 . S
C406 C407 1.367 . S
C407 C406 1.367 . S
C407 C409 1.433 . S
C408 C404 1.350 . S
C408 C405 1.463 . S
C408 N412 1.427 . S
C409 H399 0.929 . S
C409 C407 1.433 . S
C409 N412 1.384 . S
C410 H401 0.929 . S
C410 C402 1.378 . S
C410 C405 1.350 . S
C411 H398 0.929 . S
C411 C403 1.433 . S
C411 N413 1.384 . S
N412 C408 1.427 . S
N412 C409 1.384 . S
N413 C405 1.427 . S
N413 C411 1.384 . S
H414 C420 0.930 . S
H415 C424 0.930 . S
H416 C429 0.929 . S
H417 C427 0.929 . S
H418 C422 0.929 . S
H419 C428 0.929 . S
C420 H414 0.930 . S
C420 C421 1.367 . S
C420 C428 1.378 . S
C421 C420 1.367 . S
C421 C429 1.433 . S
C422 H418 0.929 . S
C422 C424 1.378 . S
C422 C426 1.350 . S
C423 C426 1.463 . S
C423 C428 1.350 . S
C423 N431 1.427 . S
C424 H415 0.930 . S
C424 C422 1.378 . S
C424 C425 1.367 . S
C425 C424 1.367 . S
C425 C427 1.433 . S
C426 C422 1.350 . S
C426 C423 1.463 . S
C426 N430 1.427 . S
C427 H417 0.929 . S
C427 C425 1.433 . S
C427 N430 1.384 . S
C428 H419 0.929 . S
C428 C420 1.378 . S
C428 C423 1.350 . S
C429 H416 0.929 . S
C429 C421 1.433 . S
C429 N431 1.384 . S
N430 C426 1.427 . S
N430 C427 1.384 . S
N431 C423 1.427 . S
N431 C429 1.384 . S
H432 C438 0.930 . S
H433 C442 0.930 . S
H434 C447 0.929 . S
H435 C445 0.929 . S
H436 C440 0.929 . S
H437 C446 0.929 . S
C438 H432 0.930 . S
C438 C439 1.367 . S
C438 C446 1.378 . S
C439 C438 1.367 . S
C439 C447 1.433 . S
C440 H436 0.929 . S
C440 C442 1.378 . S
C440 C444 1.350 . S
C441 C444 1.463 . S
C441 C446 1.350 . S
C441 N449 1.427 . S
C442 H433 0.930 . S
C442 C440 1.378 . S
C442 C443 1.367 . S
C443 C442 1.367 . S
C443 C445 1.433 . S
C444 C440 1.350 . S
C444 C441 1.463 . S
C444 N448 1.427 . S
C445 H435 0.929 . S
C445 C443 1.433 . S
C445 N448 1.384 . S
C446 H437 0.929 . S
C446 C438 1.378 . S
C446 C441 1.350 . S
C447 H434 0.929 . S
C447 C439 1.433 . S
C447 N449 1.384 . S
N448 C444 1.427 . S
N448 C445 1.384 . S
N449 C441 1.427 . S
N449 C447 1.384 . S
H450 C456 0.930 . S
H451 C460 0.930 . S
H452 C465 0.929 . S
H453 C463 0.929 . S
H454 C458 0.929 . S
H455 C464 0.929 . S
C456 H450 0.930 . S
C456 C457 1.367 . S
C456 C464 1.378 . S
C457 C456 1.367 . S
C457 C465 1.433 . S
C458 H454 0.929 . S
C458 C460 1.378 . S
C458 C462 1.350 . S
C459 C462 1.463 . S
C459 C464 1.350 . S
C459 N467 1.427 . S
C460 H451 0.930 . S
C460 C458 1.378 . S
C460 C461 1.367 . S
C461 C460 1.367 . S
C461 C463 1.433 . S
C462 C458 1.350 . S
C462 C459 1.463 . S
C462 N466 1.427 . S
C463 H453 0.929 . S
C463 C461 1.433 . S
C463 N466 1.384 . S
C464 H455 0.929 . S
C464 C456 1.378 . S
C464 C459 1.350 . S
C465 H452 0.929 . S
C465 C457 1.433 . S
C465 N467 1.384 . S
N466 C462 1.427 . S
N466 C463 1.384 . S
N467 C459 1.427 . S
N467 C465 1.384 . S
H468 C474 0.930 . S
H469 C478 0.930 . S
H470 C483 0.929 . S
H471 C481 0.929 . S
H472 C476 0.929 . S
H473 C482 0.929 . S
C474 H468 0.930 . S
C474 C475 1.367 . S
C474 C482 1.378 . S
C475 C474 1.367 . S
C475 C483 1.433 . S
C476 H472 0.929 . S
C476 C478 1.378 . S
C476 C480 1.350 . S
C477 C480 1.463 . S
C477 C482 1.350 . S
C477 N485 1.427 . S
C478 H469 0.930 . S
C478 C476 1.378 . S
C478 C479 1.367 . S
C479 C478 1.367 . S
C479 C481 1.433 . S
C480 C476 1.350 . S
C480 C477 1.463 . S
C480 N484 1.427 . S
C481 H471 0.929 . S
C481 C479 1.433 . S
C481 N484 1.384 . S
C482 H473 0.929 . S
C482 C474 1.378 . S
C482 C477 1.350 . S
C483 H470 0.929 . S
C483 C475 1.433 . S
C483 N485 1.384 . S
N484 C480 1.427 . S
N484 C481 1.384 . S
N485 C477 1.427 . S
N485 C483 1.384 . S
H486 C492 0.930 . S
H487 C496 0.930 . S
H488 C501 0.929 . S
H489 C499 0.929 . S
H490 C494 0.929 . S
H491 C500 0.929 . S
C492 H486 0.930 . S
C492 C493 1.367 . S
C492 C500 1.378 . S
C493 C492 1.367 . S
C493 C501 1.433 . S
C494 H490 0.929 . S
C494 C496 1.378 . S
C494 C498 1.350 . S
C495 C498 1.463 . S
C495 C500 1.350 . S
C495 N503 1.427 . S
C496 H487 0.930 . S
C496 C494 1.378 . S
C496 C497 1.367 . S
C497 C496 1.367 . S
C497 C499 1.433 . S
C498 C494 1.350 . S
C498 C495 1.463 . S
C498 N502 1.427 . S
C499 H489 0.929 . S
C499 C497 1.433 . S
C499 N502 1.384 . S
C500 H491 0.929 . S
C500 C492 1.378 . S
C500 C495 1.350 . S
C501 H488 0.929 . S
C501 C493 1.433 . S
C501 N503 1.384 . S
N502 C498 1.427 . S
N502 C499 1.384 . S
N503 C495 1.427 . S
N503 C501 1.384 . S
H504 C510 0.930 . S
H505 C514 0.930 . S
H506 C519 0.929 . S
H507 C517 0.929 . S
H508 C512 0.929 . S
H509 C518 0.929 . S
C510 H504 0.930 . S
C510 C511 1.367 1_655 S
C510 C518 1.378 . S
C511 C510 1.367 1_455 S
C511 C519 1.433 . S
C512 H508 0.929 . S
C512 C514 1.378 . S
C512 C516 1.350 . S
C513 C516 1.463 . S
C513 C518 1.350 1_455 S
C513 N521 1.427 . S
C514 H505 0.930 . S
C514 C512 1.378 . S
C514 C515 1.367 . S
C515 C514 1.367 . S
C515 C517 1.433 1_455 S
C516 C512 1.350 . S
C516 C513 1.463 . S
C516 N520 1.427 1_455 S
C517 H507 0.929 . S
C517 C515 1.433 1_655 S
C517 N520 1.384 . S
C518 H509 0.929 . S
C518 C510 1.378 . S
C518 C513 1.350 1_655 S
C519 H506 0.929 . S
C519 C511 1.433 . S
C519 N521 1.384 . S
N520 C516 1.427 1_655 S
N520 C517 1.384 . S
N521 C513 1.427 . S
N521 C519 1.384 . S
H522 C528 0.930 . S
H523 C532 0.930 . S
H524 C537 0.929 . S
H525 C535 0.929 . S
H526 C530 0.929 . S
H527 C536 0.929 . S
C528 H522 0.930 . S
C528 C529 1.367 . S
C528 C536 1.378 . S
C529 C528 1.367 . S
C529 C537 1.433 . S
C530 H526 0.929 . S
C530 C532 1.378 . S
C530 C534 1.350 . S
C531 C534 1.463 . S
C531 C536 1.350 . S
C531 N539 1.427 . S
C532 H523 0.930 . S
C532 C530 1.378 . S
C532 C533 1.367 . S
C533 C532 1.367 . S
C533 C535 1.433 . S
C534 C530 1.350 . S
C534 C531 1.463 . S
C534 N538 1.427 . S
C535 H525 0.929 . S
C535 C533 1.433 . S
C535 N538 1.384 . S
C536 H527 0.929 . S
C536 C528 1.378 . S
C536 C531 1.350 . S
C537 H524 0.929 . S
C537 C529 1.433 . S
C537 N539 1.384 . S
N538 C534 1.427 . S
N538 C535 1.384 . S
N539 C531 1.427 . S
N539 C537 1.384 . S
H540 C546 0.930 . S
H541 C550 0.930 . S
H542 C555 0.929 . S
H543 C553 0.929 . S
H544 C548 0.929 . S
H545 C554 0.929 . S
C546 H540 0.930 . S
C546 C547 1.367 1_565 S
C546 C554 1.378 . S
C547 C546 1.367 1_545 S
C547 C555 1.433 . S
C548 H544 0.929 . S
C548 C550 1.378 . S
C548 C552 1.350 . S
C549 C552 1.463 . S
C549 C554 1.350 1_545 S
C549 N557 1.427 . S
C550 H541 0.930 . S
C550 C548 1.378 . S
C550 C551 1.367 . S
C551 C550 1.367 . S
C551 C553 1.433 1_545 S
C552 C548 1.350 . S
C552 C549 1.463 . S
C552 N556 1.427 1_545 S
C553 H543 0.929 . S
C553 C551 1.433 1_565 S
C553 N556 1.384 . S
C554 H545 0.929 . S
C554 C546 1.378 . S
C554 C549 1.350 1_565 S
C555 H542 0.929 . S
C555 C547 1.433 . S
C555 N557 1.384 . S
N556 C552 1.427 1_565 S
N556 C553 1.384 . S
N557 C549 1.427 . S
N557 C555 1.384 . S
H558 C564 0.930 . S
H559 C568 0.930 1_554 S
H560 C573 0.929 . S
H561 C571 0.929 . S
H562 C566 0.929 . S
H563 C572 0.929 . S
C564 H558 0.930 . S
C564 C565 1.367 . S
C564 C572 1.378 . S
C565 C564 1.367 . S
C565 C573 1.433 . S
C566 H562 0.929 . S
C566 C568 1.378 . S
C566 C570 1.350 . S
C567 C570 1.463 . S
C567 C572 1.350 . S
C567 N575 1.427 . S
C568 H559 0.930 1_556 S
C568 C566 1.378 . S
C568 C569 1.367 1_556 S
C569 C568 1.367 1_554 S
C569 C571 1.433 . S
C570 C566 1.350 . S
C570 C567 1.463 . S
C570 N574 1.427 . S
C571 H561 0.929 . S
C571 C569 1.433 . S
C571 N574 1.384 1_554 S
C572 H563 0.929 . S
C572 C564 1.378 . S
C572 C567 1.350 . S
C573 H560 0.929 . S
C573 C565 1.433 . S
C573 N575 1.384 . S
N574 C570 1.427 . S
N574 C571 1.384 1_556 S
N575 C567 1.427 . S
N575 C573 1.384 . S
H576 C582 0.930 . S
H577 C586 0.930 . S
H578 C591 0.929 . S
H579 C589 0.929 . S
H580 C584 0.929 . S
H581 C590 0.929 . S
C582 H576 0.930 . S
C582 C583 1.367 . S
C582 C590 1.378 . S
C583 C582 1.367 . S
C583 C591 1.433 . S
C584 H580 0.929 . S
C584 C586 1.378 . S
C584 C588 1.350 . S
C585 C588 1.463 . S
C585 C590 1.350 . S
C585 N593 1.427 . S
C586 H577 0.930 . S
C586 C584 1.378 . S
C586 C587 1.367 . S
C587 C586 1.367 . S
C587 C589 1.433 . S
C588 C584 1.350 . S
C588 C585 1.463 . S
C588 N592 1.427 . S
C589 H579 0.929 . S
C589 C587 1.433 . S
C589 N592 1.384 . S
C590 H581 0.929 . S
C590 C582 1.378 . S
C590 C585 1.350 . S
C591 H578 0.929 . S
C591 C583 1.433 . S
C591 N593 1.384 . S
N592 C588 1.427 . S
N592 C589 1.384 . S
N593 C585 1.427 . S
N593 C591 1.384 . S
H594 C600 0.930 . S
H595 C604 0.930 . S
H596 C609 0.929 . S
H597 C607 0.929 1_554 S
H598 C602 0.929 . S
H599 C608 0.929 . S
C600 H594 0.930 . S
C600 C601 1.367 . S
C600 C608 1.378 . S
C601 C600 1.367 . S
C601 C609 1.433 . S
C602 H598 0.929 . S
C602 C604 1.378 1_556 S
C602 C606 1.350 . S
C603 C606 1.463 . S
C603 C608 1.350 . S
C603 N611 1.427 . S
C604 H595 0.930 . S
C604 C602 1.378 1_554 S
C604 C605 1.367 . S
C605 C604 1.367 . S
C605 C607 1.433 1_554 S
C606 C602 1.350 . S
C606 C603 1.463 . S
C606 N610 1.427 . S
C607 H597 0.929 1_556 S
C607 C605 1.433 1_556 S
C607 N610 1.384 . S
C608 H599 0.929 . S
C608 C600 1.378 . S
C608 C603 1.350 . S
C609 H596 0.929 . S
C609 C601 1.433 . S
C609 N611 1.384 . S
N610 C606 1.427 . S
N610 C607 1.384 . S
N611 C603 1.427 . S
N611 C609 1.384 . S
H612 C618 0.930 . S
H613 C622 0.930 . S
H614 C627 0.929 . S
H615 C625 0.929 . S
H616 C620 0.929 . S
H617 C626 0.929 . S
C618 H612 0.930 . S
C618 C619 1.367 . S
C618 C626 1.378 . S
C619 C618 1.367 . S
C619 C627 1.433 . S
C620 H616 0.929 . S
C620 C622 1.378 1_554 S
C620 C624 1.350 . S
C621 C624 1.463 . S
C621 C626 1.350 . S
C621 N629 1.427 . S
C622 H613 0.930 . S
C622 C620 1.378 1_556 S
C622 C623 1.367 . S
C623 C622 1.367 . S
C623 C625 1.433 . S
C624 C620 1.350 . S
C624 C621 1.463 . S
C624 N628 1.427 . S
C625 H615 0.929 . S
C625 C623 1.433 . S
C625 N628 1.384 1_556 S
C626 H617 0.929 . S
C626 C618 1.378 . S
C626 C621 1.350 . S
C627 H614 0.929 . S
C627 C619 1.433 . S
C627 N629 1.384 . S
N628 C624 1.427 . S
N628 C625 1.384 1_554 S
N629 C621 1.427 . S
N629 C627 1.384 . S
H630 C636 0.930 . S
H631 C640 0.930 . S
H632 C645 0.929 . S
H633 C643 0.929 . S
H634 C638 0.929 . S
H635 C644 0.929 . S
C636 H630 0.930 . S
C636 C637 1.367 1_554 S
C636 C644 1.378 . S
C637 C636 1.367 1_556 S
C637 C645 1.433 1_556 S
C638 H634 0.929 . S
C638 C640 1.378 . S
C638 C642 1.350 . S
C639 C642 1.463 . S
C639 C644 1.350 . S
C639 N647 1.427 . S
C640 H631 0.930 . S
C640 C638 1.378 . S
C640 C641 1.367 . S
C641 C640 1.367 . S
C641 C643 1.433 . S
C642 C638 1.350 . S
C642 C639 1.463 . S
C642 N646 1.427 . S
C643 H633 0.929 . S
C643 C641 1.433 . S
C643 N646 1.384 . S
C644 H635 0.929 . S
C644 C636 1.378 . S
C644 C639 1.350 . S
C645 H632 0.929 . S
C645 C637 1.433 1_554 S
C645 N647 1.384 . S
N646 C642 1.427 . S
N646 C643 1.384 . S
N647 C639 1.427 . S
N647 C645 1.384 . S
H648 C654 0.930 . S
H649 C658 0.930 1_556 S
H650 C663 0.929 . S
H651 C661 0.929 . S
H652 C656 0.929 . S
H653 C662 0.929 . S
C654 H648 0.930 . S
C654 C655 1.367 . S
C654 C662 1.378 . S
C655 C654 1.367 . S
C655 C663 1.433 . S
C656 H652 0.929 . S
C656 C658 1.378 . S
C656 C660 1.350 . S
C657 C660 1.463 . S
C657 C662 1.350 . S
C657 N665 1.427 . S
C658 H649 0.930 1_554 S
C658 C656 1.378 . S
C658 C659 1.367 1_554 S
C659 C658 1.367 1_556 S
C659 C661 1.433 1_556 S
C660 C656 1.350 . S
C660 C657 1.463 . S
C660 N664 1.427 . S
C661 H651 0.929 . S
C661 C659 1.433 1_554 S
C661 N664 1.384 . S
C662 H653 0.929 . S
C662 C654 1.378 . S
C662 C657 1.350 . S
C663 H650 0.929 . S
C663 C655 1.433 . S
C663 N665 1.384 . S
N664 C660 1.427 . S
N664 C661 1.384 . S
N665 C657 1.427 . S
N665 C663 1.384 . S
C187 C8 2.171 1_556 S
C191 C148 2.119 . S
C205 C36 1.591 . S
C209 C176 1.560 . S
C223 C48 1.918 . S
C227 C136 1.829 . S
C241 C96 1.203 . S
C245 C56 1.248 . S
C259 C116 1.471 . S
C263 C16 1.421 . S
C277 C28 1.768 . S
C281 C76 1.684 . S
C295 C156 2.028 . S
C299 C108 2.111 . S
C313 C168 2.282 . S
C317 C68 2.241 . S
C331 C88 2.531 . S
C335 C128 2.474 . S
C349 C59 1.579 . S
C353 C6 1.597 . S
C367 C39 1.734 . S
C371 C19 1.667 . S
C385 C26 1.287 . S
C389 C46 1.309 . S
C403 C79 1.562 . S
C407 C106 1.653 . S
C421 C66 1.670 . S
C425 C99 1.548 . S
C439 C86 1.710 . S
C443 C119 1.590 . S
C457 C179 1.647 . S
C461 C126 1.713 . S
C475 C159 2.018 . S
C479 C139 1.977 . S
C493 C166 1.537 . S
C497 C146 1.511 . S
C511 C9 1.080 . S
C515 C1 1.080 . S
C529 C21 1.072 . S
C533 C29 1.072 . S
C547 C49 1.068 . S
C551 C41 1.068 . S
C565 C69 1.104 . S
C569 C61 1.104 . S
C583 C89 1.061 . S
C587 C81 1.061 1_556 S
C601 C109 1.086 . S
C605 C101 1.086 . S
C619 C129 1.086 . S
C623 C121 1.086 . S
C637 C149 1.071 . S
C641 C141 1.071 . S
C655 C169 1.080 . S
C659 C161 1.080 . S
