# Generated by pormake.
# Topology yfj, (5)-cn, num edge types: 1
# Building blocks:
#     Node 0, Type 0, BuildingBlock: XOMCOT_clean_sbu_1, # of connection points: 5
#     Node 1, Type 0, BuildingBlock: XOMCOT_clean_sbu_1, # of connection points: 5
#     Node 2, Type 0, BuildingBlock: XOMCOT_clean_sbu_1, # of connection points: 5
#     Node 3, Type 0, BuildingBlock: XOMCOT_clean_sbu_1, # of connection points: 5
#     Node 4, Type 0, BuildingBlock: XOMCOT_clean_sbu_1, # of connection points: 5
#     Node 5, Type 0, BuildingBlock: XOMCOT_clean_sbu_1, # of connection points: 5
#     Node 6, Type 0, BuildingBlock: XOMCOT_clean_sbu_1, # of connection points: 5
#     Node 7, Type 0, BuildingBlock: XOMCOT_clean_sbu_1, # of connection points: 5
#     Node 8, Type 0, BuildingBlock: XOMCOT_clean_sbu_1, # of connection points: 5
#     Node 9, Type 0, BuildingBlock: XOMCOT_clean_sbu_1, # of connection points: 5
#     Node 10, Type 0, BuildingBlock: XOMCOT_clean_sbu_1, # of connection points: 5
#     Node 11, Type 0, BuildingBlock: XOMCOT_clean_sbu_1, # of connection points: 5
#     Node 12, Type 0, BuildingBlock: XOMCOT_clean_sbu_1, # of connection points: 5
#     Node 13, Type 0, BuildingBlock: XOMCOT_clean_sbu_1, # of connection points: 5
#     Node 14, Type 0, BuildingBlock: XOMCOT_clean_sbu_1, # of connection points: 5
#     Node 15, Type 0, BuildingBlock: XOMCOT_clean_sbu_1, # of connection points: 5
#     Edge 16, Type (0, 0), None
#     Edge 17, Type (0, 0), None
#     Edge 18, Type (0, 0), None
#     Edge 19, Type (0, 0), None
#     Edge 20, Type (0, 0), None
#     Edge 21, Type (0, 0), None
#     Edge 22, Type (0, 0), None
#     Edge 23, Type (0, 0), None
#     Edge 24, Type (0, 0), None
#     Edge 25, Type (0, 0), None
#     Edge 26, Type (0, 0), None
#     Edge 27, Type (0, 0), None
#     Edge 28, Type (0, 0), None
#     Edge 29, Type (0, 0), None
#     Edge 30, Type (0, 0), None
#     Edge 31, Type (0, 0), None
#     Edge 32, Type (0, 0), None
#     Edge 33, Type (0, 0), None
#     Edge 34, Type (0, 0), None
#     Edge 35, Type (0, 0), None
#     Edge 36, Type (0, 0), None
#     Edge 37, Type (0, 0), None
#     Edge 38, Type (0, 0), None
#     Edge 39, Type (0, 0), None
#     Edge 40, Type (0, 0), None
#     Edge 41, Type (0, 0), None
#     Edge 42, Type (0, 0), None
#     Edge 43, Type (0, 0), None
#     Edge 44, Type (0, 0), None
#     Edge 45, Type (0, 0), None
#     Edge 46, Type (0, 0), None
#     Edge 47, Type (0, 0), None
#     Edge 48, Type (0, 0), None
#     Edge 49, Type (0, 0), None
#     Edge 50, Type (0, 0), None
#     Edge 51, Type (0, 0), None
#     Edge 52, Type (0, 0), None
#     Edge 53, Type (0, 0), None
#     Edge 54, Type (0, 0), None
#     Edge 55, Type (0, 0), None
# Relax obj value: 0.476
# Max RMSD: 0.253
# Mean RMSD: 0.253
data_MOF--net-yfj--node1-XOMCOT_clean_sbu_1--edge1-none
_symmetry_space_group_name_H-M    P1
_symmetry_Int_Tables_number       1
_symmetry_cell_setting            triclinic
loop_
_symmetry_equiv_pos_as_xyz
'x, y, z'
_cell_length_a     25.465426
_cell_length_b     25.465922
_cell_length_c     19.884216
_cell_angle_alpha  89.999579
_cell_angle_beta   89.998056
_cell_angle_gamma 90.000525
loop_
_atom_site_label
_atom_site_type_symbol
_atom_site_fract_x
_atom_site_fract_y
_atom_site_fract_z
_atom_type_partial_charge
C0 C 0.08758 0.04837 0.47226 0.0
C1 C 0.07127 0.04163 0.53764 0.0
N2 N 0.08961 0.0821 0.57412 0.0
N3 N 0.11506 0.09362 0.46689 0.0
C4 C 0.11598 0.11315 0.53058 0.0
H5 H 0.08154 0.02069 0.43179 0.0
Co6 Co 0.15378 0.11504 0.38974 0.0
C7 C 0.11628 0.23398 0.41861 0.0
O8 O 0.07951 0.25799 0.38388 0.0
N9 N 0.19529 0.13474 0.31448 0.0
C10 C 0.24604 0.17642 0.23982 0.0
C11 C 0.21058 0.18247 0.29219 0.0
C12 C 0.22306 0.10083 0.27587 0.0
N13 N 0.25338 0.12474 0.22929 0.0
O14 O 0.21 0.12838 0.44383 0.0
H15 H 0.19689 0.21946 0.31225 0.0
H16 H 0.22332 0.05883 0.28338 0.0
O17 O 0.12821 0.18683 0.40194 0.0
C18 C 0.23035 0.0854 0.46216 0.0
O19 O 0.21271 0.04082 0.43779 0.0
N20 N 0.09685 0.09671 0.33424 0.0
C21 C 0.01265 0.03331 0.29644 0.0
C22 C 0.00401 0.08205 0.32833 0.0
C23 C 0.04687 0.11371 0.34605 0.0
C24 C 0.10511 0.05257 0.29686 0.0
C25 C 0.06359 0.02156 0.27519 0.0
H26 H 0.03997 0.14756 0.37756 0.0
H27 H 0.14365 0.03644 0.29152 0.0
H28 H 0.13687 0.14821 0.54516 0.0
H29 H 0.04957 0.00851 0.55736 0.0
H30 H 0.26123 0.20759 0.20897 0.0
H31 H 0.96548 0.09314 0.34636 0.0
H32 H 0.07227 0.98529 0.24901 0.0
C33 C 0.95232 0.58772 0.72238 0.0
C34 C 0.95906 0.57141 0.78776 0.0
N35 N 0.91859 0.58974 0.82425 0.0
N36 N 0.90707 0.6152 0.71702 0.0
C37 C 0.88754 0.61611 0.78071 0.0
H38 H 0.97999 0.58169 0.68191 0.0
Co39 Co 0.88562 0.65391 0.63989 0.0
C40 C 0.7667 0.61631 0.66875 0.0
O41 O 0.74272 0.57953 0.63402 0.0
N42 N 0.86588 0.69541 0.56463 0.0
C43 C 0.82415 0.74613 0.49 0.0
C44 C 0.81814 0.71068 0.54237 0.0
C45 C 0.89977 0.72319 0.52598 0.0
N46 N 0.87582 0.75349 0.47943 0.0
O47 O 0.87223 0.71011 0.69399 0.0
H48 H 0.78116 0.69697 0.56246 0.0
H49 H 0.94178 0.72346 0.53346 0.0
O50 O 0.81384 0.62828 0.65208 0.0
C51 C 0.9152 0.73049 0.71232 0.0
O52 O 0.95979 0.71288 0.68795 0.0
N53 N 0.904 0.59701 0.58437 0.0
C54 C 0.96742 0.51285 0.54646 0.0
C55 C 0.91866 0.50418 0.57832 0.0
C56 C 0.887 0.54702 0.59609 0.0
C57 C 0.94816 0.60531 0.54704 0.0
C58 C 0.97918 0.56381 0.52532 0.0
H59 H 0.85313 0.54009 0.62757 0.0
H60 H 0.9643 0.64386 0.5418 0.0
H61 H 0.85247 0.63699 0.7953 0.0
H62 H 0.99218 0.5497 0.80748 0.0
H63 H 0.79296 0.7613 0.45916 0.0
H64 H 0.90756 0.46564 0.59628 0.0
H65 H 0.01546 0.57252 0.49918 0.0
C66 C 0.41297 0.45221 0.97225 0.0
C67 C 0.42928 0.45894 1.03763 0.0
N68 N 0.41095 0.41847 1.07411 0.0
N69 N 0.38549 0.40696 0.96688 0.0
C70 C 0.38458 0.38742 1.03056 0.0
H71 H 0.419 0.47989 0.93178 0.0
Co72 Co 0.34678 0.38554 0.88974 0.0
C73 C 0.38427 0.26659 0.9186 0.0
O74 O 0.42105 0.24259 0.88387 0.0
N75 N 0.30527 0.36583 0.81448 0.0
C76 C 0.25451 0.32415 0.73983 0.0
C77 C 0.28997 0.3181 0.79219 0.0
C78 C 0.2775 0.39974 0.77586 0.0
N79 N 0.24717 0.37583 0.7293 0.0
O80 O 0.29056 0.37219 0.94383 0.0
H81 H 0.30366 0.28111 0.81226 0.0
H82 H 0.27724 0.44175 0.78337 0.0
O83 O 0.37235 0.31374 0.90193 0.0
C84 C 0.2702 0.41517 0.96217 0.0
O85 O 0.28784 0.45976 0.9378 0.0
N86 N 0.4037 0.40387 0.83423 0.0
C87 C 0.48791 0.46728 0.79644 0.0
C88 C 0.49654 0.41853 0.82832 0.0
C89 C 0.45369 0.38687 0.84603 0.0
C90 C 0.39544 0.44801 0.79685 0.0
C91 C 0.43697 0.47903 0.77519 0.0
H92 H 0.46058 0.35301 0.87754 0.0
H93 H 0.35691 0.46414 0.79152 0.0
H94 H 0.36369 0.35236 1.04515 0.0
H95 H 0.45099 0.49206 1.05735 0.0
H96 H 0.23933 0.29297 0.70898 0.0
H97 H 0.53507 0.40744 0.84635 0.0
H98 H 0.42829 0.5153 0.74902 0.0
C99 C 0.54824 0.91283 0.22243 0.0
C100 C 0.5415 0.92914 0.28781 0.0
N101 N 0.58197 0.91081 0.32429 0.0
N102 N 0.59349 0.88535 0.21706 0.0
C103 C 0.61302 0.88444 0.28074 0.0
H104 H 0.52056 0.91886 0.18196 0.0
Co105 Co 0.61494 0.84664 0.13992 0.0
C106 C 0.73385 0.88426 0.16877 0.0
O107 O 0.75782 0.92106 0.13403 0.0
N108 N 0.63468 0.80514 1.06466 0.0
C109 C 0.67641 0.75443 0.99001 0.0
C110 C 0.68242 0.78988 1.04239 0.0
C111 C 0.60079 0.77737 1.02602 0.0
N112 N 0.62474 0.74707 0.97945 0.0
O113 O 0.62835 0.79044 0.19402 0.0
H114 H 0.7194 0.80359 1.06248 0.0
H115 H 0.55879 0.77708 1.0335 0.0
O116 O 0.68671 0.87229 0.15209 0.0
C117 C 0.58538 0.77005 0.21237 0.0
O118 O 0.54078 0.78765 0.188 0.0
N119 N 0.59654 0.90353 1.08441 0.0
C120 C 0.53311 0.98768 1.04647 0.0
C121 C 0.58187 0.99636 1.07831 0.0
C122 C 0.61354 0.95353 1.0961 0.0
C123 C 0.55236 0.89521 1.04711 0.0
C124 C 0.52134 0.93671 1.02536 0.0
H125 H 0.64741 0.96046 0.12756 0.0
H126 H 0.53622 0.85667 1.0419 0.0
H127 H 0.64809 0.86356 0.29533 0.0
H128 H 0.50838 0.95084 0.30753 0.0
H129 H 0.70761 0.73927 0.95917 0.0
H130 H 0.59297 0.0349 1.09624 0.0
H131 H 0.48506 0.92799 0.99924 0.0
C132 C 0.08775 0.45234 1.00325 0.0
C133 C 0.07143 0.45908 0.93787 0.0
N134 N 0.08975 0.4186 0.90139 0.0
N135 N 0.11522 0.40709 1.00862 0.0
C136 C 0.11612 0.38755 0.94493 0.0
H137 H 0.08172 0.48002 1.04372 0.0
Co138 Co 0.15392 0.38563 1.08575 0.0
C139 C 0.1163 0.26673 1.05688 0.0
O140 O 0.0795 0.24276 1.09161 0.0
N141 N 0.19542 0.36588 0.16101 0.0
C142 C 0.24614 0.32414 0.23563 0.0
C143 C 0.21069 0.31813 0.18325 0.0
C144 C 0.22318 0.39976 0.19967 0.0
N145 N 0.25349 0.37581 0.24622 0.0
O146 O 0.21013 0.37223 1.03165 0.0
H147 H 0.197 0.28116 0.16313 0.0
H148 H 0.22346 0.44177 0.19221 0.0
O149 O 0.12828 0.31386 1.07356 0.0
C150 C 0.23052 0.41519 1.01331 0.0
O151 O 0.21292 0.45979 1.03768 0.0
N152 N 0.09703 0.40402 0.14126 0.0
C153 C 0.01287 0.46744 0.17918 0.0
C154 C 0.0042 0.41868 0.14734 0.0
C155 C 0.04703 0.38702 0.12956 0.0
C156 C 0.10533 0.4482 0.17857 0.0
C157 C 0.06384 0.47921 0.2003 0.0
H158 H 0.0401 0.35314 1.0981 0.0
H159 H 0.14388 0.46434 0.18378 0.0
H160 H 0.13699 0.35248 0.93034 0.0
H161 H 0.04973 0.4922 0.91816 0.0
H162 H 0.26131 0.29294 0.26645 0.0
H163 H 0.96565 0.40758 0.1294 0.0
H164 H 0.07254 0.51549 0.22642 0.0
C165 C 0.54833 0.5876 0.2534 0.0
C166 C 0.5416 0.57129 0.18802 0.0
N167 N 0.58207 0.58962 0.15154 0.0
N168 N 0.59359 0.61507 0.25876 0.0
C169 C 0.61312 0.61599 0.19508 0.0
H170 H 0.52066 0.58156 0.29387 0.0
Co171 Co 0.61502 0.65378 0.33591 0.0
C172 C 0.73396 0.61627 0.30703 0.0
O173 O 0.75796 0.57949 0.34175 0.0
N174 N 0.63474 0.69528 0.41118 0.0
C175 C 0.67643 0.74604 0.48581 0.0
C176 C 0.68247 0.71059 0.43343 0.0
C177 C 0.60083 0.72303 0.44982 0.0
N178 N 0.62475 0.75336 0.49638 0.0
O179 O 0.62837 0.71 0.28183 0.0
H180 H 0.71946 0.69691 0.41333 0.0
H181 H 0.55882 0.72328 0.44234 0.0
O182 O 0.68681 0.6282 0.3237 0.0
C183 C 0.58539 0.73037 0.2635 0.0
O184 O 0.5408 0.71273 0.28787 0.0
N185 N 0.59668 0.59685 0.39141 0.0
C186 C 0.53328 0.51264 0.42921 0.0
C187 C 0.58204 0.50401 0.39733 0.0
C188 C 0.61369 0.54687 0.37961 0.0
C189 C 0.55253 0.60511 0.42877 0.0
C190 C 0.52152 0.56358 0.45044 0.0
H191 H 0.64755 0.53998 0.34811 0.0
H192 H 0.53639 0.64364 0.43409 0.0
H193 H 0.64819 0.63687 0.1805 0.0
H194 H 0.50848 0.54958 0.16829 0.0
H195 H 0.70761 0.76124 0.51663 0.0
H196 H 0.59313 0.46549 0.37931 0.0
H197 H 0.48525 0.57226 0.47661 0.0
C198 C 0.41281 0.0482 0.50321 0.0
C199 C 0.42913 0.04146 0.43783 0.0
N200 N 0.4108 0.08194 0.40135 0.0
N201 N 0.38534 0.09345 0.50858 0.0
C202 C 0.38443 0.11299 0.4449 0.0
H203 H 0.41885 0.02052 0.54368 0.0
Co204 Co 0.34664 0.11491 0.58572 0.0
C205 C 0.38429 0.23381 0.55686 0.0
O206 O 0.42109 0.25777 0.59158 0.0
N207 N 0.30515 0.13466 0.66098 0.0
C208 C 0.25443 0.17641 0.73562 0.0
C209 C 0.28988 0.18241 0.68323 0.0
C210 C 0.27739 0.10079 0.69966 0.0
N211 N 0.24708 0.12474 0.74622 0.0
O212 O 0.29044 0.12833 0.53163 0.0
H213 H 0.30357 0.21939 0.66311 0.0
H214 H 0.27711 0.05878 0.69221 0.0
O215 O 0.37231 0.18667 0.57354 0.0
C216 C 0.27004 0.08538 0.51329 0.0
O217 O 0.28763 0.04077 0.53766 0.0
N218 N 0.40353 0.0965 0.64123 0.0
C219 C 0.48768 0.03307 0.67918 0.0
C220 C 0.49636 0.08184 0.64735 0.0
C221 C 0.45353 0.1135 0.62955 0.0
C222 C 0.39521 0.05231 0.67851 0.0
C223 C 0.4367 0.0213 0.70026 0.0
H224 H 0.46047 0.14738 0.5981 0.0
H225 H 0.35666 0.03617 0.68369 0.0
H226 H 0.36356 0.14806 0.43032 0.0
H227 H 0.45083 0.00835 0.41811 0.0
H228 H 0.23927 0.20761 0.76644 0.0
H229 H 0.53491 0.09295 0.62943 0.0
H230 H 0.42798 0.98501 0.72637 0.0
C231 C 0.95225 0.91294 0.75337 0.0
C232 C 0.95898 0.92926 0.68799 0.0
N233 N 0.9185 0.91093 0.65152 0.0
N234 N 0.907 0.88547 0.75875 0.0
C235 C 0.88746 0.88456 0.69507 0.0
H236 H 0.97993 0.91898 0.79384 0.0
Co237 Co 0.88557 0.84676 0.83589 0.0
C238 C 0.76663 0.88427 0.80703 0.0
O239 O 0.74264 0.92106 0.84175 0.0
N240 N 0.86585 0.80525 0.91115 0.0
C241 C 0.82416 0.75451 0.98579 0.0
C242 C 0.81812 0.78996 0.93342 0.0
C243 C 0.89976 0.7775 0.94979 0.0
N244 N 0.87583 0.74717 0.99635 0.0
O245 O 0.87221 0.79054 0.7818 0.0
H246 H 0.78113 0.80364 0.91333 0.0
H247 H 0.94177 0.77724 0.9423 0.0
O248 O 0.81378 0.87234 0.82369 0.0
C249 C 0.91519 0.77017 0.76346 0.0
O250 O 0.95978 0.78781 0.78782 0.0
N251 N 0.90391 0.90368 0.89139 0.0
C252 C 0.96731 0.98788 0.92921 0.0
C253 C 0.91856 0.99652 0.89734 0.0
C254 C 0.88691 0.95366 0.87961 0.0
C255 C 0.94807 0.89541 0.92875 0.0
C256 C 0.97908 0.93694 0.95043 0.0
H257 H 0.85304 0.96056 0.84811 0.0
H258 H 0.96421 0.85688 0.93405 0.0
H259 H 0.85239 0.86368 0.68049 0.0
H260 H 0.99209 0.95097 0.66826 0.0
H261 H 0.79297 0.73932 1.01663 0.0
H262 H 0.90746 0.03505 0.87933 0.0
H263 H 0.01535 0.92826 0.97658 0.0
C264 C 0.58679 0.5476 0.98055 0.0
C265 C 0.57056 0.54163 1.04593 0.0
N266 N 0.58918 0.58223 1.0816 0.0
N267 N 0.61495 0.59249 0.97391 0.0
C268 C 0.61586 0.61267 1.03743 0.0
H269 H 0.5795 0.51933 0.94141 0.0
Co270 Co 0.65226 0.61609 0.89507 0.0
C271 C 0.60043 0.72594 0.92446 0.0
O272 O 0.55739 0.74837 0.90191 0.0
N273 N 0.69127 0.63928 0.81769 0.0
C274 C 0.7565 0.67849 0.76128 0.0
C275 C 0.7243 0.68089 0.81692 0.0
C276 C 0.70317 0.61352 0.75971 0.0
N277 N 0.74335 0.63583 0.72542 0.0
O278 O 0.70406 0.64231 0.94999 0.0
H279 H 0.72738 0.70976 0.8563 0.0
H280 H 0.68579 0.57684 0.74454 0.0
O281 O 0.61333 0.68179 0.89823 0.0
C282 C 0.73028 0.60128 0.96272 0.0
O283 O 0.71712 0.55651 0.93453 0.0
N284 N 0.60234 0.5836 0.84029 0.0
C285 C 0.52831 0.50968 0.79891 0.0
C286 C 0.51351 0.56195 0.81333 0.0
C287 C 0.55124 0.59849 0.83369 0.0
C288 C 0.61796 0.53448 0.82144 0.0
C289 C 0.58184 0.49732 0.79909 0.0
H290 H 0.5383 0.63664 0.85055 0.0
H291 H 0.6581 0.52234 0.82995 0.0
H292 H 0.63642 0.64823 1.05128 0.0
H293 H 0.54849 0.50896 1.06619 0.0
H294 H 0.78749 0.70555 0.74924 0.0
H295 H 0.4727 0.57364 0.81532 0.0
H296 H 0.59542 0.45803 0.78768 0.0
C297 C 0.45286 0.08669 0.23039 0.0
C298 C 0.45882 0.07044 0.29576 0.0
N299 N 0.4182 0.08906 0.33143 0.0
N300 N 0.40796 0.11483 0.22374 0.0
C301 C 0.38777 0.11573 0.28725 0.0
H302 H 0.48114 0.07941 0.19126 0.0
Co303 Co 0.38438 0.15214 0.14489 0.0
C304 C 0.27449 0.1004 0.17431 0.0
O305 O 0.25203 0.05738 0.15178 0.0
N306 N 0.36122 0.19117 1.06752 0.0
C307 C 0.32208 0.25643 1.01112 0.0
C308 C 0.31964 0.22424 1.06675 0.0
C309 C 0.38699 0.20304 1.00953 0.0
N310 N 0.36472 0.24325 0.97525 0.0
O311 O 0.35821 0.20398 0.19982 0.0
H312 H 0.29078 0.22734 1.10614 0.0
H313 H 0.42366 0.18563 0.99435 0.0
O314 O 0.31866 0.11327 0.14808 0.0
C315 C 0.39927 0.23016 0.21253 0.0
O316 O 0.44402 0.21696 0.18432 0.0
N317 N 0.41683 0.10219 1.09013 0.0
C318 C 0.49072 0.0281 1.04885 0.0
C319 C 0.43844 0.01333 1.06329 0.0
C320 C 0.40191 0.0511 1.0836 0.0
C321 C 0.46596 0.11778 1.07125 0.0
C322 C 0.5031 0.08162 1.04894 0.0
H323 H 0.36376 0.03818 1.10048 0.0
H324 H 0.47812 0.15791 1.07971 0.0
H325 H 0.35221 0.13629 0.30109 0.0
H326 H 0.49149 0.04838 0.31603 0.0
H327 H 0.29505 0.28746 0.99909 0.0
H328 H 0.42673 0.97253 1.06536 0.0
H329 H 0.54239 0.09518 1.0375 0.0
C330 C 0.91376 0.95297 0.48054 0.0
C331 C 0.93 0.95894 0.54592 0.0
N332 N 0.91139 0.91833 0.58159 0.0
N333 N 0.88561 0.90808 0.4739 0.0
C334 C 0.88471 0.8879 0.53742 0.0
H335 H 0.92104 0.98125 0.44141 0.0
Co336 Co 0.8483 0.88448 0.39506 0.0
C337 C 0.90014 0.77463 0.42444 0.0
O338 O 0.94318 0.7522 0.40189 0.0
N339 N 0.80929 0.8613 0.31769 0.0
C340 C 0.74408 0.82208 0.26128 0.0
C341 C 0.77627 0.81967 0.31691 0.0
C342 C 0.79738 0.88706 0.25972 0.0
N343 N 0.7572 0.86474 0.22543 0.0
O344 O 0.7965 0.85825 0.44999 0.0
H345 H 0.77321 0.79079 0.35628 0.0
H346 H 0.81474 0.92375 0.24456 0.0
O347 O 0.88724 0.81878 0.39822 0.0
C348 C 0.77028 0.89929 0.46273 0.0
O349 O 0.78344 0.94406 0.43455 0.0
N350 N 0.89822 0.91698 0.34028 0.0
C351 C 0.97225 0.9909 0.29891 0.0
C352 C 0.98705 0.93863 0.31331 0.0
C353 C 0.94932 0.90209 0.33368 0.0
C354 C 0.8826 0.9661 0.32144 0.0
C355 C 0.91871 0.00326 0.29909 0.0
H356 H 0.96226 0.86394 0.35053 0.0
H357 H 0.84246 0.97824 0.32995 0.0
H358 H 0.86416 0.85233 0.55126 0.0
H359 H 0.95206 0.99162 0.56618 0.0
H360 H 0.71309 0.795 0.24923 0.0
H361 H 0.02786 0.92694 0.31531 0.0
H362 H 0.90513 0.04255 0.28769 0.0
C363 C 0.04769 0.41387 0.73043 0.0
C364 C 0.04174 0.43011 0.79581 0.0
N365 N 0.08235 0.41149 0.83147 0.0
N366 N 0.09259 0.38572 0.72377 0.0
C367 C 0.11278 0.38481 0.78729 0.0
H368 H 0.01941 0.42115 0.6913 0.0
Co369 Co 0.11617 0.34841 0.64493 0.0
C370 C 0.22605 0.40016 0.67432 0.0
O371 O 0.2485 0.4432 0.65178 0.0
N372 N 0.13933 0.30939 0.56755 0.0
C373 C 0.17848 0.24413 0.51113 0.0
C374 C 0.18091 0.27632 0.56677 0.0
C375 C 0.11356 0.29752 0.50956 0.0
N376 N 0.13584 0.25732 0.47527 0.0
O377 O 0.14235 0.29658 0.69985 0.0
H378 H 0.20977 0.27321 0.60616 0.0
H379 H 0.0769 0.31494 0.49439 0.0
O380 O 0.18189 0.3873 0.6481 0.0
C381 C 0.1013 0.27039 0.71257 0.0
O382 O 0.05654 0.28359 0.68437 0.0
N383 N 0.0837 0.39835 0.59017 0.0
C384 C 0.00981 0.47243 0.54887 0.0
C385 C 0.06209 0.48721 0.56329 0.0
C386 C 0.09862 0.44945 0.58362 0.0
C387 C 0.03458 0.38276 0.5713 0.0
C388 C 0.99744 0.41891 0.54898 0.0
H389 H 0.13677 0.46237 0.60048 0.0
H390 H 0.02242 0.34263 0.57977 0.0
H391 H 0.14834 0.36425 0.80112 0.0
H392 H 0.00906 0.45217 0.81608 0.0
H393 H 0.20551 0.21311 0.4991 0.0
H394 H 0.0738 0.52801 0.56534 0.0
H395 H 0.95815 0.40535 0.53756 0.0
C396 C 0.5867 0.95284 0.49527 0.0
C397 C 0.57045 0.9588 0.42989 0.0
N398 N 0.58908 0.91819 0.39422 0.0
N399 N 0.61485 0.90795 0.50191 0.0
C400 C 0.61576 0.88777 0.43839 0.0
H401 H 0.57941 0.98111 0.5344 0.0
Co402 Co 0.65217 0.88437 0.58075 0.0
C403 C 0.60043 0.77447 0.55136 0.0
O404 O 0.5574 0.75202 0.57392 0.0
N405 N 0.69119 0.86121 0.65813 0.0
C406 C 0.75646 0.82207 0.71452 0.0
C407 C 0.72426 0.81962 0.6589 0.0
C408 C 0.70308 0.88699 0.7161 0.0
N409 N 0.74329 0.86471 0.75038 0.0
O410 O 0.704 0.8582 0.52583 0.0
H411 H 0.72735 0.79076 0.61952 0.0
H412 H 0.68567 0.92366 0.73127 0.0
O413 O 0.61329 0.81864 0.57758 0.0
C414 C 0.73018 0.89926 0.51311 0.0
O415 O 0.71698 0.94401 0.54132 0.0
N416 N 0.60221 0.91681 0.63552 0.0
C417 C 0.5281 0.99069 0.6768 0.0
C418 C 0.51334 0.93841 0.66237 0.0
C419 C 0.55111 0.90189 0.64206 0.0
C420 C 0.61779 0.96594 0.6544 0.0
C421 C 0.58163 0.00307 0.67671 0.0
H422 H 0.53821 0.86373 0.62518 0.0
H423 H 0.65792 0.97811 0.64593 0.0
H424 H 0.63633 0.85221 0.42455 0.0
H425 H 0.54839 0.99147 0.40963 0.0
H426 H 0.78748 0.79503 0.72655 0.0
H427 H 0.47254 0.92669 0.6603 0.0
H428 H 0.59518 0.04236 0.68815 0.0
C429 C 0.04762 0.08679 0.74512 0.0
C430 C 0.04164 0.07056 0.67974 0.0
N431 N 0.08224 0.0892 0.64406 0.0
N432 N 0.0925 0.11496 0.75176 0.0
C433 C 0.11267 0.11588 0.68823 0.0
H434 H 0.01935 0.07948 0.78427 0.0
Co435 Co 0.1161 0.15226 0.8306 0.0
C436 C 0.22596 0.10045 0.80122 0.0
O437 O 0.24839 0.05742 0.82379 0.0
N438 N 0.13928 0.19128 0.90796 0.0
C439 C 0.17849 0.2565 0.96437 0.0
C440 C 0.1809 0.2243 0.90874 0.0
C441 C 0.11351 0.20319 0.96594 0.0
N442 N 0.13583 0.24337 1.00022 0.0
O443 O 0.14232 0.20407 0.77567 0.0
H444 H 0.20978 0.22736 0.86936 0.0
H445 H 0.07682 0.18582 0.98109 0.0
O446 O 0.1818 0.11335 0.82744 0.0
C447 C 0.10128 0.23029 0.76294 0.0
O448 O 0.05651 0.21712 0.79113 0.0
N449 N 0.08361 0.10234 0.88537 0.0
C450 C 0.00971 0.02829 0.92675 0.0
C451 C 0.06198 0.0135 0.91234 0.0
C452 C 0.09852 0.05125 0.89197 0.0
C453 C 0.03449 0.11795 0.90423 0.0
C454 C 0.99734 0.08182 0.92658 0.0
H455 H 0.13667 0.03831 0.87512 0.0
H456 H 0.02234 0.15808 0.89573 0.0
H457 H 0.14823 0.13645 0.67437 0.0
H458 H 0.00897 0.04849 0.65949 0.0
H459 H 0.20557 0.28749 0.97641 0.0
H460 H 0.07369 0.9727 0.91033 0.0
H461 H 0.95805 0.09539 0.93799 0.0
C462 C 0.91388 0.54771 0.99523 0.0
C463 C 0.93012 0.54175 0.92985 0.0
N464 N 0.91148 0.58235 0.89418 0.0
N465 N 0.88572 0.59259 1.00188 0.0
C466 C 0.8848 0.61277 0.93836 0.0
H467 H 0.92118 0.51943 1.03436 0.0
Co468 Co 0.84841 0.61617 1.08073 0.0
C469 C 0.90016 0.72606 1.05134 0.0
O470 O 0.94318 0.74851 1.07389 0.0
N471 N 0.80938 0.63932 0.15811 0.0
C472 C 0.74413 0.67848 0.21452 0.0
C473 C 0.77632 0.68092 0.15888 0.0
C474 C 0.7975 0.61355 0.21608 0.0
N475 N 0.7573 0.63583 0.25037 0.0
O476 O 0.79657 0.64235 1.02581 0.0
H477 H 0.77322 0.70978 0.1195 0.0
H478 H 0.81491 0.57688 0.23125 0.0
O479 O 0.88729 0.68189 1.07756 0.0
C480 C 0.77038 0.6013 1.01309 0.0
O481 O 0.78358 0.55654 1.04129 0.0
N482 N 0.89835 0.58371 0.13549 0.0
C483 C 0.97245 0.50983 0.17679 0.0
C484 C 0.98721 0.56211 0.16236 0.0
C485 C 0.94945 0.59863 0.14204 0.0
C486 C 0.88277 0.53459 0.15436 0.0
C487 C 0.91892 0.49745 0.17668 0.0
H488 H 0.96236 0.63679 0.12517 0.0
H489 H 0.84264 0.52242 0.14588 0.0
H490 H 0.86423 0.64833 0.92452 0.0
H491 H 0.95219 0.50907 0.90958 0.0
H492 H 0.7131 0.70551 0.22656 0.0
H493 H 0.02802 0.57383 0.16031 0.0
H494 H 0.90536 0.45816 0.18811 0.0
C495 C 0.45296 0.41376 0.24509 0.0
C496 C 0.45893 0.43 0.17972 0.0
N497 N 0.41833 0.41136 0.14404 0.0
N498 N 0.40808 0.38559 0.25173 0.0
C499 C 0.38791 0.38468 0.18821 0.0
H500 H 0.48123 0.42106 0.28423 0.0
Co501 Co 0.38448 0.34828 0.33058 0.0
C502 C 0.27463 0.40011 0.30122 0.0
O503 O 0.2522 0.44314 0.32379 0.0
N504 N 0.36131 0.30926 0.40795 0.0
C505 C 0.32208 0.24405 0.46436 0.0
C506 C 0.31967 0.27625 0.40874 0.0
C507 C 0.38708 0.29734 0.46591 0.0
N508 N 0.36476 0.25717 0.5002 0.0
O509 O 0.35826 0.29648 0.27565 0.0
H510 H 0.29078 0.27321 0.36937 0.0
H511 H 0.42378 0.3147 0.48105 0.0
O512 O 0.31878 0.3872 0.32743 0.0
C513 C 0.39929 0.27026 0.2629 0.0
O514 O 0.44407 0.28342 0.29108 0.0
N515 N 0.41698 0.3982 0.38535 0.0
C516 C 0.49089 0.47223 0.42674 0.0
C517 C 0.43861 0.48703 0.41234 0.0
C518 C 0.40207 0.44929 0.39197 0.0
C519 C 0.4661 0.38258 0.40419 0.0
C520 C 0.50325 0.41871 0.42655 0.0
H521 H 0.36392 0.46223 0.37513 0.0
H522 H 0.47825 0.34245 0.39568 0.0
H523 H 0.35235 0.36411 0.17436 0.0
H524 H 0.4916 0.45207 0.15946 0.0
H525 H 0.295 0.21308 0.47642 0.0
H526 H 0.42691 0.52783 0.41035 0.0
H527 H 0.54254 0.40513 0.43795 0.0
loop_
_geom_bond_atom_site_label_1
_geom_bond_atom_site_label_2
_geom_bond_distance
_geom_bond_site_symmetry_2
_ccdc_geom_bond_type
C0 C1 1.351 . S
C0 N3 1.368 . S
C0 H5 0.931 . S
C1 C0 1.351 . S
C1 N2 1.373 . S
C1 H29 0.930 . S
N2 C1 1.373 . S
N2 C4 1.340 . S
N3 C0 1.368 . S
N3 C4 1.321 . S
N3 Co6 2.135 . S
C4 N2 1.340 . S
C4 N3 1.321 . S
C4 H28 0.930 . S
H5 C0 0.931 . S
Co6 N3 2.135 . S
Co6 N9 2.121 . S
Co6 O14 2.055 . S
Co6 O17 2.039 . S
Co6 N20 2.140 . S
C7 O8 1.227 . S
C7 O17 1.265 . S
O8 C7 1.227 . S
N9 Co6 2.121 . S
N9 C11 1.375 . S
N9 C12 1.313 . S
C10 C11 1.338 . S
C10 N13 1.377 . S
C10 H30 0.930 . S
C11 N9 1.375 . S
C11 C10 1.338 . S
C11 H15 0.931 . S
C12 N9 1.313 . S
C12 N13 1.344 . S
C12 H16 0.930 . S
N13 C10 1.377 . S
N13 C12 1.344 . S
O14 Co6 2.055 . S
O14 C18 1.253 . S
H15 C11 0.931 . S
H16 C12 0.930 . S
O17 Co6 2.039 . S
O17 C7 1.265 . S
C18 O14 1.253 . S
C18 O19 1.227 . S
O19 C18 1.227 . S
N20 Co6 2.140 . S
N20 C23 1.346 . S
N20 C24 1.345 . S
C21 C22 1.387 . S
C21 C25 1.391 . S
C22 C21 1.387 . S
C22 C23 1.369 . S
C22 H31 0.929 1_455 S
C23 N20 1.346 . S
C23 C22 1.369 . S
C23 H26 0.928 . S
C24 N20 1.345 . S
C24 C25 1.371 . S
C24 H27 0.931 . S
C25 C21 1.391 . S
C25 C24 1.371 . S
C25 H32 0.930 . S
H26 C23 0.928 . S
H27 C24 0.931 . S
H28 C4 0.930 . S
H29 C1 0.930 . S
H30 C10 0.930 . S
H31 C22 0.929 1_655 S
H32 C25 0.930 . S
C33 C34 1.351 . S
C33 N36 1.368 . S
C33 H38 0.931 . S
C34 C33 1.351 . S
C34 N35 1.373 . S
C34 H62 0.930 . S
N35 C34 1.373 . S
N35 C37 1.340 . S
N36 C33 1.368 . S
N36 C37 1.321 . S
N36 Co39 2.135 . S
C37 N35 1.340 . S
C37 N36 1.321 . S
C37 H61 0.930 . S
H38 C33 0.931 . S
Co39 N36 2.135 . S
Co39 N42 2.121 . S
Co39 O47 2.055 . S
Co39 O50 2.039 . S
Co39 N53 2.140 . S
C40 O41 1.227 . S
C40 O50 1.265 . S
O41 C40 1.227 . S
N42 Co39 2.121 . S
N42 C44 1.375 . S
N42 C45 1.313 . S
C43 C44 1.338 . S
C43 N46 1.377 . S
C43 H63 0.930 . S
C44 N42 1.375 . S
C44 C43 1.338 . S
C44 H48 0.931 . S
C45 N42 1.313 . S
C45 N46 1.344 . S
C45 H49 0.930 . S
N46 C43 1.377 . S
N46 C45 1.344 . S
O47 Co39 2.055 . S
O47 C51 1.253 . S
H48 C44 0.931 . S
H49 C45 0.930 . S
O50 Co39 2.039 . S
O50 C40 1.265 . S
C51 O47 1.253 . S
C51 O52 1.227 . S
O52 C51 1.227 . S
N53 Co39 2.140 . S
N53 C56 1.346 . S
N53 C57 1.345 . S
C54 C55 1.387 . S
C54 C58 1.391 . S
C55 C54 1.387 . S
C55 C56 1.369 . S
C55 H64 0.929 . S
C56 N53 1.346 . S
C56 C55 1.369 . S
C56 H59 0.928 . S
C57 N53 1.345 . S
C57 C58 1.371 . S
C57 H60 0.931 . S
C58 C54 1.391 . S
C58 C57 1.371 . S
C58 H65 0.930 . S
H59 C56 0.928 . S
H60 C57 0.931 . S
H61 C37 0.930 . S
H62 C34 0.930 . S
H63 C43 0.930 . S
H64 C55 0.929 . S
H65 C58 0.930 . S
C66 C67 1.351 . S
C66 N69 1.368 . S
C66 H71 0.931 . S
C67 C66 1.351 . S
C67 N68 1.373 1_556 S
C67 H95 0.930 1_556 S
N68 C67 1.373 1_554 S
N68 C70 1.340 1_554 S
N69 C66 1.368 . S
N69 C70 1.321 . S
N69 Co72 2.135 . S
C70 N68 1.340 1_556 S
C70 N69 1.321 . S
C70 H94 0.930 . S
H71 C66 0.931 . S
Co72 N69 2.135 . S
Co72 N75 2.121 . S
Co72 O80 2.055 . S
Co72 O83 2.039 . S
Co72 N86 2.140 . S
C73 O74 1.227 . S
C73 O83 1.265 . S
O74 C73 1.227 . S
N75 Co72 2.121 . S
N75 C77 1.375 . S
N75 C78 1.313 . S
C76 C77 1.338 . S
C76 N79 1.377 . S
C76 H96 0.930 . S
C77 N75 1.375 . S
C77 C76 1.338 . S
C77 H81 0.931 . S
C78 N75 1.313 . S
C78 N79 1.344 . S
C78 H82 0.930 . S
N79 C76 1.377 . S
N79 C78 1.344 . S
O80 Co72 2.055 . S
O80 C84 1.253 . S
H81 C77 0.931 . S
H82 C78 0.930 . S
O83 Co72 2.039 . S
O83 C73 1.265 . S
C84 O80 1.253 . S
C84 O85 1.227 . S
O85 C84 1.227 . S
N86 Co72 2.140 . S
N86 C89 1.346 . S
N86 C90 1.345 . S
C87 C88 1.387 . S
C87 C91 1.391 . S
C88 C87 1.387 . S
C88 C89 1.369 . S
C88 H97 0.929 . S
C89 N86 1.346 . S
C89 C88 1.369 . S
C89 H92 0.928 . S
C90 N86 1.345 . S
C90 C91 1.371 . S
C90 H93 0.931 . S
C91 C87 1.391 . S
C91 C90 1.371 . S
C91 H98 0.930 . S
H92 C89 0.928 . S
H93 C90 0.931 . S
H94 C70 0.930 . S
H95 C67 0.930 1_554 S
H96 C76 0.930 . S
H97 C88 0.929 . S
H98 C91 0.930 . S
C99 C100 1.351 . S
C99 N102 1.368 . S
C99 H104 0.931 . S
C100 C99 1.351 . S
C100 N101 1.373 . S
C100 H128 0.930 . S
N101 C100 1.373 . S
N101 C103 1.340 . S
N102 C99 1.368 . S
N102 C103 1.321 . S
N102 Co105 2.135 . S
C103 N101 1.340 . S
C103 N102 1.321 . S
C103 H127 0.930 . S
H104 C99 0.931 . S
Co105 N102 2.135 . S
Co105 N108 2.121 . S
Co105 O113 2.055 . S
Co105 O116 2.039 . S
Co105 N119 2.140 . S
C106 O107 1.227 . S
C106 O116 1.265 . S
O107 C106 1.227 . S
N108 Co105 2.121 . S
N108 C110 1.375 1_554 S
N108 C111 1.313 1_554 S
C109 C110 1.338 . S
C109 N112 1.377 . S
C109 H129 0.930 . S
C110 N108 1.375 1_556 S
C110 C109 1.338 . S
C110 H114 0.931 . S
C111 N108 1.313 1_556 S
C111 N112 1.344 . S
C111 H115 0.930 . S
N112 C109 1.377 . S
N112 C111 1.344 . S
O113 Co105 2.055 . S
O113 C117 1.253 . S
H114 C110 0.931 . S
H115 C111 0.930 . S
O116 Co105 2.039 . S
O116 C106 1.265 . S
C117 O113 1.253 . S
C117 O118 1.227 . S
O118 C117 1.227 . S
N119 Co105 2.140 . S
N119 C122 1.346 . S
N119 C123 1.345 . S
C120 C121 1.387 . S
C120 C124 1.391 . S
C121 C120 1.387 . S
C121 C122 1.369 . S
C121 H130 0.929 1_565 S
C122 N119 1.346 . S
C122 C121 1.369 . S
C122 H125 0.928 . S
C123 N119 1.345 . S
C123 C124 1.371 . S
C123 H126 0.931 1_554 S
C124 C120 1.391 . S
C124 C123 1.371 . S
C124 H131 0.930 1_554 S
H125 C122 0.928 . S
H126 C123 0.931 1_556 S
H127 C103 0.930 . S
H128 C100 0.930 . S
H129 C109 0.930 . S
H130 C121 0.929 1_545 S
H131 C124 0.930 1_556 S
C132 C133 1.351 . S
C132 N135 1.368 . S
C132 H137 0.931 . S
C133 C132 1.351 . S
C133 N134 1.373 . S
C133 H161 0.930 . S
N134 C133 1.373 . S
N134 C136 1.340 . S
N135 C132 1.368 . S
N135 C136 1.321 . S
N135 Co138 2.135 . S
C136 N134 1.340 . S
C136 N135 1.321 . S
C136 H160 0.930 . S
H137 C132 0.931 . S
Co138 N135 2.135 . S
Co138 N141 2.121 . S
Co138 O146 2.055 . S
Co138 O149 2.039 . S
Co138 N152 2.140 . S
C139 O140 1.227 . S
C139 O149 1.265 . S
O140 C139 1.227 . S
N141 Co138 2.121 . S
N141 C143 1.375 1_556 S
N141 C144 1.313 1_556 S
C142 C143 1.338 . S
C142 N145 1.377 . S
C142 H162 0.930 . S
C143 N141 1.375 1_554 S
C143 C142 1.338 . S
C143 H147 0.931 . S
C144 N141 1.313 1_554 S
C144 N145 1.344 . S
C144 H148 0.930 . S
N145 C142 1.377 . S
N145 C144 1.344 . S
O146 Co138 2.055 . S
O146 C150 1.253 . S
H147 C143 0.931 . S
H148 C144 0.930 . S
O149 Co138 2.039 . S
O149 C139 1.265 . S
C150 O146 1.253 . S
C150 O151 1.227 . S
O151 C150 1.227 . S
N152 Co138 2.140 . S
N152 C155 1.346 . S
N152 C156 1.345 . S
C153 C154 1.387 . S
C153 C157 1.391 . S
C154 C153 1.387 . S
C154 C155 1.369 . S
C154 H163 0.929 1_455 S
C155 N152 1.346 . S
C155 C154 1.369 . S
C155 H158 0.928 . S
C156 N152 1.345 . S
C156 C157 1.371 . S
C156 H159 0.931 1_556 S
C157 C153 1.391 . S
C157 C156 1.371 . S
C157 H164 0.930 1_556 S
H158 C155 0.928 . S
H159 C156 0.931 1_554 S
H160 C136 0.930 . S
H161 C133 0.930 . S
H162 C142 0.930 . S
H163 C154 0.929 1_655 S
H164 C157 0.930 1_554 S
C165 C166 1.351 . S
C165 N168 1.368 . S
C165 H170 0.931 . S
C166 C165 1.351 . S
C166 N167 1.373 1_554 S
C166 H194 0.930 1_554 S
N167 C166 1.373 1_556 S
N167 C169 1.340 1_556 S
N168 C165 1.368 . S
N168 C169 1.321 . S
N168 Co171 2.135 . S
C169 N167 1.340 1_554 S
C169 N168 1.321 . S
C169 H193 0.930 . S
H170 C165 0.931 . S
Co171 N168 2.135 . S
Co171 N174 2.121 . S
Co171 O179 2.055 . S
Co171 O182 2.039 . S
Co171 N185 2.140 . S
C172 O173 1.227 . S
C172 O182 1.265 . S
O173 C172 1.227 . S
N174 Co171 2.121 . S
N174 C176 1.375 . S
N174 C177 1.313 . S
C175 C176 1.338 . S
C175 N178 1.377 . S
C175 H195 0.930 . S
C176 N174 1.375 . S
C176 C175 1.338 . S
C176 H180 0.931 . S
C177 N174 1.313 . S
C177 N178 1.344 . S
C177 H181 0.930 . S
N178 C175 1.377 . S
N178 C177 1.344 . S
O179 Co171 2.055 . S
O179 C183 1.253 . S
H180 C176 0.931 . S
H181 C177 0.930 . S
O182 Co171 2.039 . S
O182 C172 1.265 . S
C183 O179 1.253 . S
C183 O184 1.227 . S
O184 C183 1.227 . S
N185 Co171 2.140 . S
N185 C188 1.346 . S
N185 C189 1.345 . S
C186 C187 1.387 . S
C186 C190 1.391 . S
C187 C186 1.387 . S
C187 C188 1.369 . S
C187 H196 0.929 . S
C188 N185 1.346 . S
C188 C187 1.369 . S
C188 H191 0.928 . S
C189 N185 1.345 . S
C189 C190 1.371 . S
C189 H192 0.931 . S
C190 C186 1.391 . S
C190 C189 1.371 . S
C190 H197 0.930 . S
H191 C188 0.928 . S
H192 C189 0.931 . S
H193 C169 0.930 . S
H194 C166 0.930 1_556 S
H195 C175 0.930 . S
H196 C187 0.929 . S
H197 C190 0.930 . S
C198 C199 1.351 . S
C198 N201 1.368 . S
C198 H203 0.931 . S
C199 C198 1.351 . S
C199 N200 1.373 . S
C199 H227 0.930 . S
N200 C199 1.373 . S
N200 C202 1.340 . S
N201 C198 1.368 . S
N201 C202 1.321 . S
N201 Co204 2.135 . S
C202 N200 1.340 . S
C202 N201 1.321 . S
C202 H226 0.930 . S
H203 C198 0.931 . S
Co204 N201 2.135 . S
Co204 N207 2.121 . S
Co204 O212 2.055 . S
Co204 O215 2.039 . S
Co204 N218 2.140 . S
C205 O206 1.227 . S
C205 O215 1.265 . S
O206 C205 1.227 . S
N207 Co204 2.121 . S
N207 C209 1.375 . S
N207 C210 1.313 . S
C208 C209 1.338 . S
C208 N211 1.377 . S
C208 H228 0.930 . S
C209 N207 1.375 . S
C209 C208 1.338 . S
C209 H213 0.931 . S
C210 N207 1.313 . S
C210 N211 1.344 . S
C210 H214 0.930 . S
N211 C208 1.377 . S
N211 C210 1.344 . S
O212 Co204 2.055 . S
O212 C216 1.253 . S
H213 C209 0.931 . S
H214 C210 0.930 . S
O215 Co204 2.039 . S
O215 C205 1.265 . S
C216 O212 1.253 . S
C216 O217 1.227 . S
O217 C216 1.227 . S
N218 Co204 2.140 . S
N218 C221 1.346 . S
N218 C222 1.345 . S
C219 C220 1.387 . S
C219 C223 1.391 . S
C220 C219 1.387 . S
C220 C221 1.369 . S
C220 H229 0.929 . S
C221 N218 1.346 . S
C221 C220 1.369 . S
C221 H224 0.928 . S
C222 N218 1.345 . S
C222 C223 1.371 . S
C222 H225 0.931 . S
C223 C219 1.391 . S
C223 C222 1.371 . S
C223 H230 0.930 . S
H224 C221 0.928 . S
H225 C222 0.931 . S
H226 C202 0.930 . S
H227 C199 0.930 . S
H228 C208 0.930 . S
H229 C220 0.929 . S
H230 C223 0.930 . S
C231 C232 1.351 . S
C231 N234 1.368 . S
C231 H236 0.931 . S
C232 C231 1.351 . S
C232 N233 1.373 . S
C232 H260 0.930 . S
N233 C232 1.373 . S
N233 C235 1.340 . S
N234 C231 1.368 . S
N234 C235 1.321 . S
N234 Co237 2.135 . S
C235 N233 1.340 . S
C235 N234 1.321 . S
C235 H259 0.930 . S
H236 C231 0.931 . S
Co237 N234 2.135 . S
Co237 N240 2.121 . S
Co237 O245 2.055 . S
Co237 O248 2.039 . S
Co237 N251 2.140 . S
C238 O239 1.227 . S
C238 O248 1.265 . S
O239 C238 1.227 . S
N240 Co237 2.121 . S
N240 C242 1.375 . S
N240 C243 1.313 . S
C241 C242 1.338 . S
C241 N244 1.377 . S
C241 H261 0.930 . S
C242 N240 1.375 . S
C242 C241 1.338 . S
C242 H246 0.931 . S
C243 N240 1.313 . S
C243 N244 1.344 . S
C243 H247 0.930 . S
N244 C241 1.377 . S
N244 C243 1.344 . S
O245 Co237 2.055 . S
O245 C249 1.253 . S
H246 C242 0.931 . S
H247 C243 0.930 . S
O248 Co237 2.039 . S
O248 C238 1.265 . S
C249 O245 1.253 . S
C249 O250 1.227 . S
O250 C249 1.227 . S
N251 Co237 2.140 . S
N251 C254 1.346 . S
N251 C255 1.345 . S
C252 C253 1.387 . S
C252 C256 1.391 . S
C253 C252 1.387 . S
C253 C254 1.369 . S
C253 H262 0.929 1_565 S
C254 N251 1.346 . S
C254 C253 1.369 . S
C254 H257 0.928 . S
C255 N251 1.345 . S
C255 C256 1.371 . S
C255 H258 0.931 . S
C256 C252 1.391 . S
C256 C255 1.371 . S
C256 H263 0.930 . S
H257 C254 0.928 . S
H258 C255 0.931 . S
H259 C235 0.930 . S
H260 C232 0.930 . S
H261 C241 0.930 . S
H262 C253 0.929 1_545 S
H263 C256 0.930 . S
C264 C265 1.351 . S
C264 N267 1.368 . S
C264 H269 0.931 . S
C265 C264 1.351 . S
C265 N266 1.373 1_556 S
C265 H293 0.930 1_556 S
N266 C265 1.373 1_554 S
N266 C268 1.340 1_554 S
N267 C264 1.368 . S
N267 C268 1.321 . S
N267 Co270 2.135 . S
C268 N266 1.340 1_556 S
C268 N267 1.321 . S
C268 H292 0.930 . S
H269 C264 0.931 . S
Co270 N267 2.135 . S
Co270 N273 2.121 . S
Co270 O278 2.055 . S
Co270 O281 2.039 . S
Co270 N284 2.140 . S
C271 O272 1.227 . S
C271 O281 1.265 . S
O272 C271 1.227 . S
N273 Co270 2.121 . S
N273 C275 1.375 . S
N273 C276 1.313 . S
C274 C275 1.338 . S
C274 N277 1.377 . S
C274 H294 0.930 . S
C275 N273 1.375 . S
C275 C274 1.338 . S
C275 H279 0.931 . S
C276 N273 1.313 . S
C276 N277 1.344 . S
C276 H280 0.930 . S
N277 C274 1.377 . S
N277 C276 1.344 . S
O278 Co270 2.055 . S
O278 C282 1.253 . S
H279 C275 0.931 . S
H280 C276 0.930 . S
O281 Co270 2.039 . S
O281 C271 1.265 . S
C282 O278 1.253 . S
C282 O283 1.227 . S
O283 C282 1.227 . S
N284 Co270 2.140 . S
N284 C287 1.346 . S
N284 C288 1.345 . S
C285 C286 1.387 . S
C285 C289 1.391 . S
C286 C285 1.387 . S
C286 C287 1.369 . S
C286 H295 0.929 . S
C287 N284 1.346 . S
C287 C286 1.369 . S
C287 H290 0.928 . S
C288 N284 1.345 . S
C288 C289 1.371 . S
C288 H291 0.931 . S
C289 C285 1.391 . S
C289 C288 1.371 . S
C289 H296 0.930 . S
H290 C287 0.928 . S
H291 C288 0.931 . S
H292 C268 0.930 . S
H293 C265 0.930 1_554 S
H294 C274 0.930 . S
H295 C286 0.929 . S
H296 C289 0.930 . S
C297 C298 1.351 . S
C297 N300 1.368 . S
C297 H302 0.931 . S
C298 C297 1.351 . S
C298 N299 1.373 . S
C298 H326 0.930 . S
N299 C298 1.373 . S
N299 C301 1.340 . S
N300 C297 1.368 . S
N300 C301 1.321 . S
N300 Co303 2.135 . S
C301 N299 1.340 . S
C301 N300 1.321 . S
C301 H325 0.930 . S
H302 C297 0.931 . S
Co303 N300 2.135 . S
Co303 N306 2.121 . S
Co303 O311 2.055 . S
Co303 O314 2.039 . S
Co303 N317 2.140 . S
C304 O305 1.227 . S
C304 O314 1.265 . S
O305 C304 1.227 . S
N306 Co303 2.121 . S
N306 C308 1.375 1_554 S
N306 C309 1.313 1_554 S
C307 C308 1.338 . S
C307 N310 1.377 . S
C307 H327 0.930 . S
C308 N306 1.375 1_556 S
C308 C307 1.338 . S
C308 H312 0.931 . S
C309 N306 1.313 1_556 S
C309 N310 1.344 . S
C309 H313 0.930 . S
N310 C307 1.377 . S
N310 C309 1.344 . S
O311 Co303 2.055 . S
O311 C315 1.253 . S
H312 C308 0.931 . S
H313 C309 0.930 . S
O314 Co303 2.039 . S
O314 C304 1.265 . S
C315 O311 1.253 . S
C315 O316 1.227 . S
O316 C315 1.227 . S
N317 Co303 2.140 . S
N317 C320 1.346 . S
N317 C321 1.345 . S
C318 C319 1.387 . S
C318 C322 1.391 . S
C319 C318 1.387 . S
C319 C320 1.369 . S
C319 H328 0.929 1_545 S
C320 N317 1.346 . S
C320 C319 1.369 . S
C320 H323 0.928 . S
C321 N317 1.345 . S
C321 C322 1.371 . S
C321 H324 0.931 1_554 S
C322 C318 1.391 . S
C322 C321 1.371 . S
C322 H329 0.930 1_554 S
H323 C320 0.928 . S
H324 C321 0.931 1_556 S
H325 C301 0.930 . S
H326 C298 0.930 . S
H327 C307 0.930 . S
H328 C319 0.929 1_565 S
H329 C322 0.930 1_556 S
C330 C331 1.351 . S
C330 N333 1.368 . S
C330 H335 0.931 . S
C331 C330 1.351 . S
C331 N332 1.373 . S
C331 H359 0.930 . S
N332 C331 1.373 . S
N332 C334 1.340 . S
N333 C330 1.368 . S
N333 C334 1.321 . S
N333 Co336 2.135 . S
C334 N332 1.340 . S
C334 N333 1.321 . S
C334 H358 0.930 . S
H335 C330 0.931 . S
Co336 N333 2.135 . S
Co336 N339 2.121 . S
Co336 O344 2.055 . S
Co336 O347 2.039 . S
Co336 N350 2.140 . S
C337 O338 1.227 . S
C337 O347 1.265 . S
O338 C337 1.227 . S
N339 Co336 2.121 . S
N339 C341 1.375 . S
N339 C342 1.313 . S
C340 C341 1.338 . S
C340 N343 1.377 . S
C340 H360 0.930 . S
C341 N339 1.375 . S
C341 C340 1.338 . S
C341 H345 0.931 . S
C342 N339 1.313 . S
C342 N343 1.344 . S
C342 H346 0.930 . S
N343 C340 1.377 . S
N343 C342 1.344 . S
O344 Co336 2.055 . S
O344 C348 1.253 . S
H345 C341 0.931 . S
H346 C342 0.930 . S
O347 Co336 2.039 . S
O347 C337 1.265 . S
C348 O344 1.253 . S
C348 O349 1.227 . S
O349 C348 1.227 . S
N350 Co336 2.140 . S
N350 C353 1.346 . S
N350 C354 1.345 . S
C351 C352 1.387 . S
C351 C355 1.391 . S
C352 C351 1.387 . S
C352 C353 1.369 . S
C352 H361 0.929 1_655 S
C353 N350 1.346 . S
C353 C352 1.369 . S
C353 H356 0.928 . S
C354 N350 1.345 . S
C354 C355 1.371 . S
C354 H357 0.931 . S
C355 C351 1.391 . S
C355 C354 1.371 . S
C355 H362 0.930 . S
H356 C353 0.928 . S
H357 C354 0.931 . S
H358 C334 0.930 . S
H359 C331 0.930 . S
H360 C340 0.930 . S
H361 C352 0.929 1_455 S
H362 C355 0.930 . S
C363 C364 1.351 . S
C363 N366 1.368 . S
C363 H368 0.931 . S
C364 C363 1.351 . S
C364 N365 1.373 . S
C364 H392 0.930 . S
N365 C364 1.373 . S
N365 C367 1.340 . S
N366 C363 1.368 . S
N366 C367 1.321 . S
N366 Co369 2.135 . S
C367 N365 1.340 . S
C367 N366 1.321 . S
C367 H391 0.930 . S
H368 C363 0.931 . S
Co369 N366 2.135 . S
Co369 N372 2.121 . S
Co369 O377 2.055 . S
Co369 O380 2.039 . S
Co369 N383 2.140 . S
C370 O371 1.227 . S
C370 O380 1.265 . S
O371 C370 1.227 . S
N372 Co369 2.121 . S
N372 C374 1.375 . S
N372 C375 1.313 . S
C373 C374 1.338 . S
C373 N376 1.377 . S
C373 H393 0.930 . S
C374 N372 1.375 . S
C374 C373 1.338 . S
C374 H378 0.931 . S
C375 N372 1.313 . S
C375 N376 1.344 . S
C375 H379 0.930 . S
N376 C373 1.377 . S
N376 C375 1.344 . S
O377 Co369 2.055 . S
O377 C381 1.253 . S
H378 C374 0.931 . S
H379 C375 0.930 . S
O380 Co369 2.039 . S
O380 C370 1.265 . S
C381 O377 1.253 . S
C381 O382 1.227 . S
O382 C381 1.227 . S
N383 Co369 2.140 . S
N383 C386 1.346 . S
N383 C387 1.345 . S
C384 C385 1.387 . S
C384 C388 1.391 . S
C385 C384 1.387 . S
C385 C386 1.369 . S
C385 H394 0.929 . S
C386 N383 1.346 . S
C386 C385 1.369 . S
C386 H389 0.928 . S
C387 N383 1.345 . S
C387 C388 1.371 . S
C387 H390 0.931 . S
C388 C384 1.391 . S
C388 C387 1.371 . S
C388 H395 0.930 . S
H389 C386 0.928 . S
H390 C387 0.931 . S
H391 C367 0.930 . S
H392 C364 0.930 . S
H393 C373 0.930 . S
H394 C385 0.929 . S
H395 C388 0.930 . S
C396 C397 1.351 . S
C396 N399 1.368 . S
C396 H401 0.931 . S
C397 C396 1.351 . S
C397 N398 1.373 . S
C397 H425 0.930 . S
N398 C397 1.373 . S
N398 C400 1.340 . S
N399 C396 1.368 . S
N399 C400 1.321 . S
N399 Co402 2.135 . S
C400 N398 1.340 . S
C400 N399 1.321 . S
C400 H424 0.930 . S
H401 C396 0.931 . S
Co402 N399 2.135 . S
Co402 N405 2.121 . S
Co402 O410 2.055 . S
Co402 O413 2.039 . S
Co402 N416 2.140 . S
C403 O404 1.227 . S
C403 O413 1.265 . S
O404 C403 1.227 . S
N405 Co402 2.121 . S
N405 C407 1.375 . S
N405 C408 1.313 . S
C406 C407 1.338 . S
C406 N409 1.377 . S
C406 H426 0.930 . S
C407 N405 1.375 . S
C407 C406 1.338 . S
C407 H411 0.931 . S
C408 N405 1.313 . S
C408 N409 1.344 . S
C408 H412 0.930 . S
N409 C406 1.377 . S
N409 C408 1.344 . S
O410 Co402 2.055 . S
O410 C414 1.253 . S
H411 C407 0.931 . S
H412 C408 0.930 . S
O413 Co402 2.039 . S
O413 C403 1.265 . S
C414 O410 1.253 . S
C414 O415 1.227 . S
O415 C414 1.227 . S
N416 Co402 2.140 . S
N416 C419 1.346 . S
N416 C420 1.345 . S
C417 C418 1.387 . S
C417 C421 1.391 . S
C418 C417 1.387 . S
C418 C419 1.369 . S
C418 H427 0.929 . S
C419 N416 1.346 . S
C419 C418 1.369 . S
C419 H422 0.928 . S
C420 N416 1.345 . S
C420 C421 1.371 . S
C420 H423 0.931 . S
C421 C417 1.391 . S
C421 C420 1.371 . S
C421 H428 0.930 . S
H422 C419 0.928 . S
H423 C420 0.931 . S
H424 C400 0.930 . S
H425 C397 0.930 . S
H426 C406 0.930 . S
H427 C418 0.929 . S
H428 C421 0.930 . S
C429 C430 1.351 . S
C429 N432 1.368 . S
C429 H434 0.931 . S
C430 C429 1.351 . S
C430 N431 1.373 . S
C430 H458 0.930 . S
N431 C430 1.373 . S
N431 C433 1.340 . S
N432 C429 1.368 . S
N432 C433 1.321 . S
N432 Co435 2.135 . S
C433 N431 1.340 . S
C433 N432 1.321 . S
C433 H457 0.930 . S
H434 C429 0.931 . S
Co435 N432 2.135 . S
Co435 N438 2.121 . S
Co435 O443 2.055 . S
Co435 O446 2.039 . S
Co435 N449 2.140 . S
C436 O437 1.227 . S
C436 O446 1.265 . S
O437 C436 1.227 . S
N438 Co435 2.121 . S
N438 C440 1.375 . S
N438 C441 1.313 . S
C439 C440 1.338 . S
C439 N442 1.377 . S
C439 H459 0.930 . S
C440 N438 1.375 . S
C440 C439 1.338 . S
C440 H444 0.931 . S
C441 N438 1.313 . S
C441 N442 1.344 . S
C441 H445 0.930 . S
N442 C439 1.377 . S
N442 C441 1.344 . S
O443 Co435 2.055 . S
O443 C447 1.253 . S
H444 C440 0.931 . S
H445 C441 0.930 . S
O446 Co435 2.039 . S
O446 C436 1.265 . S
C447 O443 1.253 . S
C447 O448 1.227 . S
O448 C447 1.227 . S
N449 Co435 2.140 . S
N449 C452 1.346 . S
N449 C453 1.345 . S
C450 C451 1.387 . S
C450 C454 1.391 . S
C451 C450 1.387 . S
C451 C452 1.369 . S
C451 H460 0.929 1_545 S
C452 N449 1.346 . S
C452 C451 1.369 . S
C452 H455 0.928 . S
C453 N449 1.345 . S
C453 C454 1.371 . S
C453 H456 0.931 . S
C454 C450 1.391 . S
C454 C453 1.371 . S
C454 H461 0.930 . S
H455 C452 0.928 . S
H456 C453 0.931 . S
H457 C433 0.930 . S
H458 C430 0.930 . S
H459 C439 0.930 . S
H460 C451 0.929 1_565 S
H461 C454 0.930 . S
C462 C463 1.351 . S
C462 N465 1.368 . S
C462 H467 0.931 . S
C463 C462 1.351 . S
C463 N464 1.373 . S
C463 H491 0.930 . S
N464 C463 1.373 . S
N464 C466 1.340 . S
N465 C462 1.368 . S
N465 C466 1.321 . S
N465 Co468 2.135 . S
C466 N464 1.340 . S
C466 N465 1.321 . S
C466 H490 0.930 . S
H467 C462 0.931 . S
Co468 N465 2.135 . S
Co468 N471 2.121 . S
Co468 O476 2.055 . S
Co468 O479 2.039 . S
Co468 N482 2.140 . S
C469 O470 1.227 . S
C469 O479 1.265 . S
O470 C469 1.227 . S
N471 Co468 2.121 . S
N471 C473 1.375 1_556 S
N471 C474 1.313 1_556 S
C472 C473 1.338 . S
C472 N475 1.377 . S
C472 H492 0.930 . S
C473 N471 1.375 1_554 S
C473 C472 1.338 . S
C473 H477 0.931 . S
C474 N471 1.313 1_554 S
C474 N475 1.344 . S
C474 H478 0.930 . S
N475 C472 1.377 . S
N475 C474 1.344 . S
O476 Co468 2.055 . S
O476 C480 1.253 . S
H477 C473 0.931 . S
H478 C474 0.930 . S
O479 Co468 2.039 . S
O479 C469 1.265 . S
C480 O476 1.253 . S
C480 O481 1.227 . S
O481 C480 1.227 . S
N482 Co468 2.140 . S
N482 C485 1.346 . S
N482 C486 1.345 . S
C483 C484 1.387 . S
C483 C487 1.391 . S
C484 C483 1.387 . S
C484 C485 1.369 . S
C484 H493 0.929 1_655 S
C485 N482 1.346 . S
C485 C484 1.369 . S
C485 H488 0.928 . S
C486 N482 1.345 . S
C486 C487 1.371 . S
C486 H489 0.931 1_556 S
C487 C483 1.391 . S
C487 C486 1.371 . S
C487 H494 0.930 1_556 S
H488 C485 0.928 . S
H489 C486 0.931 1_554 S
H490 C466 0.930 . S
H491 C463 0.930 . S
H492 C472 0.930 . S
H493 C484 0.929 1_455 S
H494 C487 0.930 1_554 S
C495 C496 1.351 . S
C495 N498 1.368 . S
C495 H500 0.931 . S
C496 C495 1.351 . S
C496 N497 1.373 1_554 S
C496 H524 0.930 1_554 S
N497 C496 1.373 1_556 S
N497 C499 1.340 1_556 S
N498 C495 1.368 . S
N498 C499 1.321 . S
N498 Co501 2.135 . S
C499 N497 1.340 1_554 S
C499 N498 1.321 . S
C499 H523 0.930 . S
H500 C495 0.931 . S
Co501 N498 2.135 . S
Co501 N504 2.121 . S
Co501 O509 2.055 . S
Co501 O512 2.039 . S
Co501 N515 2.140 . S
C502 O503 1.227 . S
C502 O512 1.265 . S
O503 C502 1.227 . S
N504 Co501 2.121 . S
N504 C506 1.375 . S
N504 C507 1.313 . S
C505 C506 1.338 . S
C505 N508 1.377 . S
C505 H525 0.930 . S
C506 N504 1.375 . S
C506 C505 1.338 . S
C506 H510 0.931 . S
C507 N504 1.313 . S
C507 N508 1.344 . S
C507 H511 0.930 . S
N508 C505 1.377 . S
N508 C507 1.344 . S
O509 Co501 2.055 . S
O509 C513 1.253 . S
H510 C506 0.931 . S
H511 C507 0.930 . S
O512 Co501 2.039 . S
O512 C502 1.265 . S
C513 O509 1.253 . S
C513 O514 1.227 . S
O514 C513 1.227 . S
N515 Co501 2.140 . S
N515 C518 1.346 . S
N515 C519 1.345 . S
C516 C517 1.387 . S
C516 C520 1.391 . S
C517 C516 1.387 . S
C517 C518 1.369 . S
C517 H526 0.929 . S
C518 N515 1.346 . S
C518 C517 1.369 . S
C518 H521 0.928 . S
C519 N515 1.345 . S
C519 C520 1.371 . S
C519 H522 0.931 . S
C520 C516 1.391 . S
C520 C519 1.371 . S
C520 H527 0.930 . S
H521 C518 0.928 . S
H522 C519 0.931 . S
H523 C499 0.930 . S
H524 C496 0.930 1_556 S
H525 C505 0.930 . S
H526 C517 0.929 . S
H527 C520 0.930 . S
N2 N431 0.283 . S
N464 N35 0.283 . S
N497 N68 0.283 1_556 S
N398 N101 0.283 . S
N365 N134 0.283 . S
N266 N167 0.283 1_554 S
N200 N299 0.283 . S
N332 N233 0.283 . S
C304 N13 3.314 . S
N46 C337 3.314 . S
N79 C370 3.314 . S
N112 C271 3.314 . S
N145 C502 3.314 . S
C403 N178 3.314 . S
C436 N211 3.314 . S
C469 N244 3.314 . S
N277 C40 3.314 . S
N310 C73 3.314 . S
N343 C106 3.314 . S
C7 N376 3.314 . S
N409 C238 3.314 . S
C139 N442 3.314 . S
N475 C172 3.314 . S
N508 C205 3.314 . S
C21 C351 1.504 1_445 S
C384 C54 1.504 1_455 S
C87 C285 1.504 . S
C318 C120 1.504 1_545 S
C153 C483 1.504 1_455 S
C516 C186 1.504 . S
C417 C219 1.504 1_565 S
C450 C252 1.504 1_445 S
C216 C18 2.185 . S
C51 C249 2.185 . S
C150 C84 2.185 . S
C117 C183 2.185 . S
C282 C480 2.185 . S
C315 C513 2.185 . S
C348 C414 2.185 . S
C447 C381 2.185 . S
