# Generated by pormake.
# Topology nbo, (4)-cn, num edge types: 1
# Building blocks:
#     Node 0, Type 0, BuildingBlock: NAWXER_clean_sbu_0, # of connection points: 4
#     Node 1, Type 0, BuildingBlock: NAWXER_clean_sbu_0, # of connection points: 4
#     Node 2, Type 0, BuildingBlock: NAWXER_clean_sbu_0, # of connection points: 4
#     Node 3, Type 0, BuildingBlock: NAWXER_clean_sbu_0, # of connection points: 4
#     Node 4, Type 0, BuildingBlock: NAWXER_clean_sbu_0, # of connection points: 4
#     Node 5, Type 0, BuildingBlock: NAWXER_clean_sbu_0, # of connection points: 4
#     Edge 6, Type (0, 0), BuildingBlock: XIVTED_clean_linker_0, # of connection points: 2
#     Edge 7, Type (0, 0), BuildingBlock: XIVTED_clean_linker_0, # of connection points: 2
#     Edge 8, Type (0, 0), BuildingBlock: XIVTED_clean_linker_0, # of connection points: 2
#     Edge 9, Type (0, 0), BuildingBlock: XIVTED_clean_linker_0, # of connection points: 2
#     Edge 10, Type (0, 0), BuildingBlock: XIVTED_clean_linker_0, # of connection points: 2
#     Edge 11, Type (0, 0), BuildingBlock: XIVTED_clean_linker_0, # of connection points: 2
#     Edge 12, Type (0, 0), BuildingBlock: XIVTED_clean_linker_0, # of connection points: 2
#     Edge 13, Type (0, 0), BuildingBlock: XIVTED_clean_linker_0, # of connection points: 2
#     Edge 14, Type (0, 0), BuildingBlock: XIVTED_clean_linker_0, # of connection points: 2
#     Edge 15, Type (0, 0), BuildingBlock: XIVTED_clean_linker_0, # of connection points: 2
#     Edge 16, Type (0, 0), BuildingBlock: XIVTED_clean_linker_0, # of connection points: 2
#     Edge 17, Type (0, 0), BuildingBlock: XIVTED_clean_linker_0, # of connection points: 2
# Relax obj value: 0.000
# Max RMSD: 0.000
# Mean RMSD: 0.000
data_MOF--net-nbo--node1-NAWXER_clean_sbu_0--edge1-XIVTED_clean_linker_0
_symmetry_space_group_name_H-M    P1
_symmetry_Int_Tables_number       1
_symmetry_cell_setting            triclinic
loop_
_symmetry_equiv_pos_as_xyz
'x, y, z'
_cell_length_a     29.588429
_cell_length_b     29.588649
_cell_length_c     29.565721
_cell_angle_alpha  97.216261
_cell_angle_beta   97.359188
_cell_angle_gamma 97.278894
loop_
_atom_site_label
_atom_site_type_symbol
_atom_site_fract_x
_atom_site_fract_y
_atom_site_fract_z
_atom_type_partial_charge
C0 C 0.92674 1.00747 0.44986 0.0
C1 C 0.92055 0.84255 0.4559 0.0
O2 O 0.91585 0.9748 0.41642 0.0
Zn3 Zn 0.92102 0.92474 0.45236 0.0
O4 O 0.93514 0.99822 0.49109 0.0
Zn5 Zn 0.93607 0.93803 0.52506 0.0
O6 O 0.99799 0.94716 0.55687 0.0
O7 O 0.99378 0.93642 0.48096 0.0
O8 O 0.92927 0.86683 0.49593 0.0
O9 O 0.91263 0.86218 0.42045 0.0
O10 O 0.86159 0.92517 0.48711 0.0
O11 O 0.88662 0.94111 0.56162 0.0
C12 C 0.01792 0.94413 0.52122 0.0
C13 C 0.8533 0.93217 0.52874 0.0
C14 C 0.55575 0.17166 0.08852 0.0
C15 C 0.56953 0.00877 0.08764 0.0
O16 O 0.59226 0.1537 0.0964 0.0
Zn17 Zn 0.56312 0.09052 0.08816 0.0
O18 O 0.51646 0.14586 0.08011 0.0
Zn19 Zn 0.49068 0.07335 0.07495 0.0
O20 O 0.45459 0.07057 0.12449 0.0
O21 O 0.52923 0.0888 0.14858 0.0
O22 O 0.52754 0.01602 0.08152 0.0
O23 O 0.60183 0.04235 0.0919 0.0
O24 O 0.53369 0.07914 0.0163 0.0
O25 O 0.45879 0.05884 0.01271 0.0
C26 C 0.48786 0.08058 0.15743 0.0
C27 C 0.49363 0.06701 0.99242 0.0
C28 C 0.15485 0.54783 0.95846 0.0
C29 C 0.98957 0.5456 0.95558 0.0
O30 O 0.13301 0.50666 0.95052 0.0
Zn31 Zn 0.06249 0.47418 0.94361 0.0
O32 O 0.13269 0.58163 0.9643 0.0
Zn33 Zn 0.07194 0.54664 0.95611 0.0
O34 O 0.07386 0.5128 0.01708 0.0
O35 O 0.06305 0.43794 0.99341 0.0
O36 O 0.02066 0.58032 0.96028 0.0
O37 O 1.00045 0.50487 0.94929 0.0
O38 O 0.05251 0.44182 0.88154 0.0
O39 O 0.06018 0.5173 0.88422 0.0
C40 C 0.06975 0.4713 0.02619 0.0
C41 C 0.05353 0.47688 0.86077 0.0
C42 C 0.59997 0.67516 0.06635 0.0
C43 C 0.58107 0.50874 0.0649 0.0
O44 O 0.59315 0.65327 0.0252 0.0
Zn45 Zn 0.58178 0.58242 0.99305 0.0
O46 O 0.60151 0.65284 0.10036 0.0
Zn47 Zn 0.59103 0.59179 0.0657 0.0
O48 O 0.65297 0.58641 0.0353 0.0
O49 O 0.63358 0.57902 0.95984 0.0
O50 O 0.58905 0.54014 0.0996 0.0
O51 O 0.57748 0.5198 0.0241 0.0
O52 O 0.52134 0.5761 0.95765 0.0
O53 O 0.52064 0.58672 0.03279 0.0
C54 C 0.66425 0.58168 0.99467 0.0
C55 C 0.49902 0.58064 0.9915 0.0
C56 C 0.95496 0.50776 0.42486 0.0
C57 C 0.96132 0.34291 0.41766 0.0
O58 O 0.99621 0.49872 0.43352 0.0
Zn59 Zn 0.03037 0.43862 0.43449 0.0
O60 O 0.92167 0.47495 0.41384 0.0
Zn61 Zn 0.95781 0.42518 0.41902 0.0
O62 O 0.98587 0.43637 0.492 0.0
O63 O 0.06174 0.44739 0.49667 0.0
O64 O 0.92597 0.36263 0.40983 0.0
O65 O 1.00135 0.36719 0.42682 0.0
O66 O 0.06734 0.44265 0.38531 0.0
O67 O 0.99296 0.42659 0.35984 0.0
C68 C 0.02599 0.44405 0.5164 0.0
C69 C 0.03463 0.43403 0.35181 0.0
C70 C 0.52545 0.9619 0.55744 0.0
C71 C 0.36138 0.97236 0.54622 0.0
O72 O 0.49179 0.92941 0.54846 0.0
Zn73 Zn 0.44315 0.96709 0.55206 0.0
O74 O 0.5177 1.00367 0.56466 0.0
Zn75 Zn 0.45882 0.03941 0.56557 0.0
O76 O 0.46856 0.07134 0.62766 0.0
O77 O 0.452 0.99601 0.62387 0.0
O78 O 0.38603 0.01227 0.55403 0.0
O79 O 0.38078 0.9364 0.543 0.0
O80 O 0.4459 1.00138 0.49184 0.0
O81 O 0.46495 0.07578 0.51653 0.0
C82 C 0.4616 0.03619 0.64781 0.0
C83 C 0.45499 0.04281 0.48337 0.0
H84 H 0.88541 0.0442 0.3769 0.0
H85 H 0.02428 0.29561 0.45866 0.0
H86 H 0.97837 0.0814 0.50491 0.0
H87 H 0.8882 0.27591 0.37994 0.0
H88 H 0.01584 0.21342 0.46414 0.0
H89 H 0.89337 0.12598 0.36636 0.0
C90 C 0.90758 0.06949 0.40261 0.0
C91 C 0.93115 0.0561 0.44192 0.0
C92 C 0.98788 0.22708 0.44555 0.0
C93 C 0.94087 0.14892 0.42972 0.0
C94 C 0.99272 0.27394 0.44217 0.0
C95 C 0.95679 0.2927 0.41892 0.0
C96 C 0.94715 0.19844 0.42487 0.0
C97 C 0.91661 0.26287 0.39841 0.0
C98 C 0.91191 0.116 0.39668 0.0
C99 C 0.95932 0.09023 0.47427 0.0
N100 N 0.9129 0.21705 0.40168 0.0
N101 N 0.96365 0.13495 0.46729 0.0
H102 H 0.8225 0.97397 0.60462 0.0
H103 H 0.55573 0.88638 0.51413 0.0
H104 H 0.77472 0.88929 0.47321 0.0
H105 H 0.60419 0.01598 0.60165 0.0
H106 H 0.63604 0.87488 0.5106 0.0
H107 H 0.74214 0.97742 0.61568 0.0
C108 C 0.79513 0.95566 0.57838 0.0
C109 C 0.80523 0.93156 0.53779 0.0
C110 C 0.62893 0.90562 0.53082 0.0
C111 C 0.71359 0.935 0.55046 0.0
C112 C 0.58323 0.9121 0.53304 0.0
C113 C 0.57336 0.95234 0.55797 0.0
C114 C 0.66487 0.93916 0.55446 0.0
C115 C 0.61031 0.98466 0.5817 0.0
C116 C 0.74939 0.95783 0.58462 0.0
C117 C 0.76842 0.9086 0.50482 0.0
N118 N 0.65445 0.97734 0.57944 0.0
N119 N 0.7242 0.9108 0.5119 0.0
H120 H 0.88196 0.54371 0.38274 0.0
H121 H 0.96216 0.79613 0.51928 0.0
H122 H 0.00963 0.58227 0.47598 0.0
H123 H 0.88364 0.77496 0.38295 0.0
H124 H 0.96832 0.71417 0.5116 0.0
H125 H 0.87112 0.62534 0.38959 0.0
C126 C 0.90753 0.56927 0.40475 0.0
C127 C 0.94682 0.55629 0.42875 0.0
C128 C 0.94964 0.72744 0.48341 0.0
C129 C 0.93429 0.64897 0.43716 0.0
C130 C 0.94588 0.77418 0.48782 0.0
C131 C 0.92244 0.79246 0.45162 0.0
C132 C 0.92918 0.69841 0.44285 0.0
C133 C 0.90224 0.76228 0.41157 0.0
C134 C 0.90143 0.61569 0.40843 0.0
C135 C 0.979 0.59076 0.45665 0.0
N136 N 0.90587 0.71656 0.40829 0.0
N137 N 0.97185 0.63541 0.46035 0.0
H138 H 0.30664 0.03175 0.51258 0.0
H139 H 0.07737 0.92065 0.59005 0.0
H140 H 0.30121 0.90442 0.56987 0.0
H141 H 0.07355 0.97818 0.46282 0.0
H142 H 0.1616 0.92694 0.59574 0.0
H143 H 0.22235 0.02502 0.50607 0.0
C144 C 0.28768 1.00248 0.52388 0.0
C145 C 0.31073 0.96848 0.54163 0.0
C146 C 0.14216 0.93817 0.56667 0.0
C147 C 0.21501 0.96124 0.53526 0.0
C148 C 0.09432 0.93487 0.56353 0.0
C149 C 0.06863 0.94885 0.52586 0.0
C150 C 0.16442 0.95677 0.53261 0.0
C151 C 0.09217 0.96679 0.49226 0.0
C152 C 0.23976 0.99862 0.51999 0.0
C153 C 0.28462 0.93116 0.55568 0.0
N154 N 0.13887 0.9707 0.49664 0.0
N155 N 0.23809 0.92877 0.55269 0.0
H156 H 0.41163 0.9878 0.40468 0.0
H157 H 0.54388 0.12349 0.23573 0.0
H158 H 0.49924 0.11749 0.45258 0.0
H159 H 0.41353 0.03665 0.1889 0.0
H160 H 0.53245 0.1179 0.31554 0.0
H161 H 0.41598 1.00078 0.32507 0.0
C162 C 0.43164 0.01909 0.39843 0.0
C163 C 0.45522 0.05158 0.43526 0.0
C164 C 0.50618 0.10046 0.28777 0.0
C165 C 0.46076 0.06629 0.34442 0.0
C166 C 0.51273 0.10348 0.24227 0.0
C167 C 0.47962 0.08042 0.20567 0.0
C168 C 0.46674 0.07335 0.29671 0.0
C169 C 0.43983 0.05509 0.2161 0.0
C170 C 0.43392 0.02654 0.35304 0.0
C171 C 0.48045 0.09162 0.42519 0.0
N172 N 0.43476 0.05173 0.26068 0.0
N173 N 0.48304 0.0976 0.38068 0.0
H174 H 0.10918 0.52909 0.10471 0.0
H175 H 0.98091 0.38967 0.27287 0.0
H176 H 0.03117 0.39433 0.05759 0.0
H177 H 0.10883 0.47996 0.32164 0.0
H178 H 0.99373 0.39521 0.1934 0.0
H179 H 0.10492 0.51645 0.18453 0.0
C180 C 0.09139 0.49675 0.11118 0.0
C181 C 0.07043 0.46271 0.07449 0.0
C182 C 0.01918 0.41344 0.22152 0.0
C183 C 0.06482 0.44844 0.16552 0.0
C184 C 0.01183 0.41045 0.26682 0.0
C185 C 0.04385 0.43444 0.30386 0.0
C186 C 0.05825 0.44152 0.21316 0.0
C187 C 0.08338 0.46077 0.29406 0.0
C188 C 0.08915 0.48952 0.15668 0.0
C189 C 0.04795 0.42139 0.08485 0.0
N190 N 0.08918 0.46415 0.24962 0.0
N191 N 0.04517 0.41565 0.1294 0.0
H192 H 0.42331 0.97541 0.69941 0.0
H193 H 0.55215 0.10793 0.94041 0.0
H194 H 0.50694 0.10811 0.71156 0.0
H195 H 0.42323 0.01792 0.92893 0.0
H196 H 0.54325 0.10153 0.85628 0.0
H197 H 0.4298 0.98357 0.78358 0.0
C198 C 0.44307 1.00624 0.7198 0.0
C199 C 0.46464 0.04116 0.69852 0.0
C200 C 0.51689 0.08331 0.87224 0.0
C201 C 0.47258 0.05036 0.79459 0.0
C202 C 0.52203 0.08671 0.92018 0.0
C203 C 0.48836 0.06337 0.94164 0.0
C204 C 0.47829 0.05563 0.84554 0.0
C205 C 0.44989 0.0366 0.91375 0.0
C206 C 0.44655 0.01092 0.76774 0.0
C207 C 0.48962 0.08047 0.72658 0.0
N208 N 0.44608 0.03312 0.86705 0.0
N209 N 0.49328 0.08383 0.77324 0.0
H210 H 0.09518 0.42165 0.57626 0.0
H211 H 0.01652 0.53333 0.80453 0.0
H212 H 0.96672 0.47667 0.57183 0.0
H213 H 0.07807 0.4086 0.80155 0.0
H214 H 1.00886 0.52475 0.72007 0.0
H215 H 0.1009 0.42834 0.66057 0.0
C216 C 0.06835 0.43535 0.59308 0.0
C217 C 0.03038 0.44858 0.56717 0.0
C218 C 0.02391 0.49928 0.73803 0.0
C219 C 0.03716 0.45697 0.66312 0.0
C220 C 0.02846 0.5042 0.78607 0.0
C221 C 0.04783 0.47152 0.80991 0.0
C222 C 0.04011 0.4622 0.71387 0.0
C223 C 0.06265 0.43435 0.78438 0.0
C224 C 0.07152 0.43887 0.64099 0.0
C225 C 0.99641 0.46587 0.59059 0.0
N226 N 0.059 0.43096 0.73768 0.0
N227 N 1.00083 0.47006 0.63735 0.0
H228 H 0.21558 0.62186 1.00435 0.0
H229 H 0.43831 0.53747 0.91613 0.0
H230 H 0.20936 0.49116 0.91888 0.0
H231 H 0.44454 0.61825 0.04944 0.0
H232 H 0.35396 0.53115 0.90605 0.0
H233 H 0.29993 0.63204 0.01074 0.0
C234 C 0.23194 0.59551 0.98667 0.0
C235 C 0.20554 0.5555 0.96124 0.0
C236 C 0.37394 0.55037 0.93738 0.0
C237 C 0.30155 0.56726 0.96787 0.0
C238 C 0.42196 0.55417 0.94307 0.0
C239 C 0.44836 0.57824 0.98377 0.0
C240 C 0.35235 0.57166 0.97218 0.0
C241 C 0.42542 0.59909 0.01769 0.0
C242 C 0.27996 0.60126 0.9905 0.0
C243 C 0.22848 0.52235 0.93913 0.0
N244 N 0.37871 0.59554 0.01104 0.0
N245 N 0.27519 0.52907 0.94273 0.0
H246 H 0.61721 0.47052 0.13879 0.0
H247 H 0.49238 0.21611 0.04365 0.0
H248 H 0.5344 0.43522 1.00478 0.0
H249 H 0.62466 0.24102 0.13007 0.0
H250 H 0.49767 0.29867 0.03943 0.0
H251 H 0.61084 0.38823 0.14636 0.0
C252 C 0.59745 0.4455 0.11116 0.0
C253 C 0.57638 0.45962 0.07104 0.0
C254 C 0.52544 0.28601 0.05938 0.0
C255 C 0.56854 0.366 0.07978 0.0
C256 C 0.5224 0.239 0.06202 0.0
C257 C 0.55822 0.22171 0.08717 0.0
C258 C 0.56412 0.31612 0.08284 0.0
C259 C 0.59642 0.25294 0.11009 0.0
C260 C 0.59407 0.39869 0.11541 0.0
C261 C 0.55139 0.42579 0.03616 0.0
N262 N 0.59827 0.29877 0.10763 0.0
N263 N 0.54788 0.38058 0.04146 0.0
H264 H 0.9446 0.61696 0.93287 0.0
H265 H 0.7268 0.54627 0.05057 0.0
H266 H 0.92522 0.48833 0.98721 0.0
H267 H 0.71097 0.60718 0.92538 0.0
H268 H 0.80612 0.53739 0.03971 0.0
H269 H 0.86438 0.62631 0.941 0.0
C270 C 0.92348 0.59079 0.94652 0.0
C271 C 0.94136 0.55175 0.95927 0.0
C272 C 0.78521 0.55275 0.01472 0.0
C273 C 0.85066 0.56276 0.96952 0.0
C274 C 0.74016 0.55807 0.02098 0.0
C275 C 0.71239 0.57742 0.98874 0.0
C276 C 0.80299 0.56801 0.97666 0.0
C277 C 0.73128 0.59187 0.95084 0.0
C278 C 0.87786 0.59606 0.95094 0.0
C279 C 0.91261 0.51876 0.97668 0.0
N280 N 0.7757 0.5873 0.94602 0.0
N281 N 0.86882 0.52528 0.98183 0.0
H282 H 0.62956 0.73567 0.00997 0.0
H283 H 0.52002 0.9412 0.12253 0.0
H284 H 0.57668 0.72983 0.13881 0.0
H285 H 0.64089 0.96853 0.05724 0.0
H286 H 0.53335 0.86112 0.12196 0.0
H287 H 0.62801 0.81909 0.01955 0.0
C288 C 0.61797 0.75202 0.04042 0.0
C289 C 0.60316 0.72588 0.07365 0.0
C290 C 0.55716 0.88476 0.10815 0.0
C291 C 0.60044 0.82069 0.08419 0.0
C292 C 0.54949 0.9303 0.10823 0.0
C293 C 0.57942 0.96137 0.08986 0.0
C294 C 0.59426 0.86982 0.08833 0.0
C295 C 0.61718 0.9456 0.07191 0.0
C296 C 0.6173 0.79952 0.04591 0.0
C297 C 0.58856 0.74875 0.11249 0.0
N298 N 0.62316 0.90059 0.07088 0.0
N299 N 0.58683 0.79477 0.11633 0.0
loop_
_geom_bond_atom_site_label_1
_geom_bond_atom_site_label_2
_geom_bond_distance
_geom_bond_site_symmetry_2
_ccdc_geom_bond_type
C0 O2 1.247 1_455 S
C0 O4 1.258 . S
C1 O8 1.247 1_655 S
C1 O9 1.258 . S
O2 C0 1.247 1_655 S
O2 Zn3 2.028 1_545 S
Zn3 O2 2.028 1_565 S
Zn3 O7 2.035 1_655 S
Zn3 O9 2.035 . S
Zn3 O10 2.028 . S
O4 C0 1.258 . S
O4 Zn5 2.035 . S
Zn5 O4 2.035 . S
Zn5 O6 2.028 . S
Zn5 O8 2.028 1_545 S
Zn5 O11 2.035 1_455 S
O6 Zn5 2.028 . S
O6 C12 1.247 . S
O7 Zn3 2.035 1_455 S
O7 C12 1.258 1_565 S
O8 C1 1.247 1_455 S
O8 Zn5 2.028 1_565 S
O9 C1 1.258 . S
O9 Zn3 2.035 . S
O10 Zn3 2.028 . S
O10 C13 1.247 . S
O11 Zn5 2.035 1_655 S
O11 C13 1.258 1_545 S
C12 O6 1.247 . S
C12 O7 1.258 1_545 S
C13 O10 1.247 . S
C13 O11 1.258 1_565 S
C14 O16 1.247 . S
C14 O18 1.258 1_554 S
C15 O22 1.247 . S
C15 O23 1.258 1_556 S
O16 C14 1.247 . S
O16 Zn17 2.028 . S
Zn17 O16 2.028 . S
Zn17 O21 2.035 . S
Zn17 O23 2.035 1_545 S
Zn17 O24 2.028 1_554 S
O18 C14 1.258 1_556 S
O18 Zn19 2.035 1_545 S
Zn19 O18 2.035 1_565 S
Zn19 O20 2.028 1_556 S
Zn19 O22 2.028 . S
Zn19 O25 2.035 . S
O20 Zn19 2.028 1_554 S
O20 C26 1.247 1_565 S
O21 Zn17 2.035 . S
O21 C26 1.258 . S
O22 C15 1.247 . S
O22 Zn19 2.028 . S
O23 C15 1.258 1_554 S
O23 Zn17 2.035 1_565 S
O24 Zn17 2.028 1_556 S
O24 C27 1.247 1_545 S
O25 Zn19 2.035 . S
O25 C27 1.258 . S
C26 O20 1.247 1_545 S
C26 O21 1.258 . S
C27 O24 1.247 1_565 S
C27 O25 1.258 . S
C28 O30 1.247 1_554 S
C28 O32 1.258 . S
C29 O36 1.247 1_556 S
C29 O37 1.258 . S
O30 C28 1.247 1_556 S
O30 Zn31 2.028 1_455 S
Zn31 O30 2.028 1_655 S
Zn31 O35 2.035 1_556 S
Zn31 O37 2.035 . S
Zn31 O38 2.028 . S
O32 C28 1.258 . S
O32 Zn33 2.035 . S
Zn33 O32 2.035 . S
Zn33 O34 2.028 . S
Zn33 O36 2.028 1_455 S
Zn33 O39 2.035 1_554 S
O34 Zn33 2.028 . S
O34 C40 1.247 . S
O35 Zn31 2.035 1_554 S
O35 C40 1.258 1_655 S
O36 C29 1.247 1_554 S
O36 Zn33 2.028 1_655 S
O37 C29 1.258 . S
O37 Zn31 2.035 . S
O38 Zn31 2.028 . S
O38 C41 1.247 . S
O39 Zn33 2.035 1_556 S
O39 C41 1.258 1_455 S
C40 O34 1.247 . S
C40 O35 1.258 1_455 S
C41 O38 1.247 . S
C41 O39 1.258 1_655 S
C42 O44 1.246 . S
C42 O46 1.259 1_556 S
C43 O50 1.251 . S
C43 O51 1.254 1_554 S
O44 C42 1.246 . S
O44 Zn45 2.028 . S
Zn45 O44 2.028 . S
Zn45 O49 2.035 . S
Zn45 O51 2.035 . S
Zn45 O52 2.028 . S
O46 C42 1.259 1_554 S
O46 Zn47 2.035 . S
Zn47 O46 2.035 . S
Zn47 O48 2.028 . S
Zn47 O50 2.028 . S
Zn47 O53 2.035 . S
O48 Zn47 2.028 . S
O48 C54 1.251 . S
O49 Zn45 2.035 . S
O49 C54 1.254 1_556 S
O50 C43 1.251 . S
O50 Zn47 2.028 . S
O51 C43 1.254 1_556 S
O51 Zn45 2.035 . S
O52 Zn45 2.028 . S
O52 C55 1.246 . S
O53 Zn47 2.035 . S
O53 C55 1.259 1_554 S
C54 O48 1.251 . S
C54 O49 1.254 1_554 S
C55 O52 1.246 . S
C55 O53 1.259 1_556 S
C56 O58 1.251 . S
C56 O60 1.254 1_455 S
C57 O64 1.246 . S
C57 O65 1.259 1_655 S
O58 C56 1.251 . S
O58 Zn59 2.028 . S
Zn59 O58 2.028 . S
Zn59 O63 2.035 . S
Zn59 O65 2.035 . S
Zn59 O66 2.028 . S
O60 C56 1.254 1_655 S
O60 Zn61 2.035 . S
Zn61 O60 2.035 . S
Zn61 O62 2.028 . S
Zn61 O64 2.028 . S
Zn61 O67 2.035 . S
O62 Zn61 2.028 . S
O62 C68 1.246 . S
O63 Zn59 2.035 . S
O63 C68 1.259 1_455 S
O64 C57 1.246 . S
O64 Zn61 2.028 . S
O65 C57 1.259 1_455 S
O65 Zn59 2.035 . S
O66 Zn59 2.028 . S
O66 C69 1.251 . S
O67 Zn61 2.035 . S
O67 C69 1.254 1_655 S
C68 O62 1.246 . S
C68 O63 1.259 1_655 S
C69 O66 1.251 . S
C69 O67 1.254 1_455 S
C70 O72 1.246 . S
C70 O74 1.259 1_565 S
C71 O78 1.251 . S
C71 O79 1.254 1_545 S
O72 C70 1.246 . S
O72 Zn73 2.028 . S
Zn73 O72 2.028 . S
Zn73 O77 2.035 . S
Zn73 O79 2.035 . S
Zn73 O80 2.028 . S
O74 C70 1.259 1_545 S
O74 Zn75 2.035 . S
Zn75 O74 2.035 . S
Zn75 O76 2.028 . S
Zn75 O78 2.028 . S
Zn75 O81 2.035 . S
O76 Zn75 2.028 . S
O76 C82 1.251 . S
O77 Zn73 2.035 . S
O77 C82 1.254 1_565 S
O78 C71 1.251 . S
O78 Zn75 2.028 . S
O79 C71 1.254 1_565 S
O79 Zn73 2.035 . S
O80 Zn73 2.028 . S
O80 C83 1.246 . S
O81 Zn75 2.035 . S
O81 C83 1.259 1_545 S
C82 O76 1.251 . S
C82 O77 1.254 1_545 S
C83 O80 1.246 . S
C83 O81 1.259 1_565 S
H84 C90 0.930 . S
H85 C94 0.930 . S
H86 C99 0.929 . S
H87 C97 0.929 . S
H88 C92 0.929 . S
H89 C98 0.929 . S
C90 H84 0.930 . S
C90 C91 1.378 . S
C90 C98 1.378 . S
C91 C90 1.378 . S
C91 C99 1.424 1_655 S
C92 H88 0.929 . S
C92 C94 1.378 . S
C92 C96 1.350 . S
C93 C96 1.463 1_655 S
C93 C98 1.350 . S
C93 N101 1.427 1_655 S
C94 H85 0.930 . S
C94 C92 1.378 . S
C94 C95 1.382 . S
C95 C94 1.382 . S
C95 C97 1.421 1_455 S
C96 C92 1.350 . S
C96 C93 1.463 1_455 S
C96 N100 1.427 1_455 S
C97 H87 0.929 . S
C97 C95 1.421 1_655 S
C97 N100 1.384 . S
C98 H89 0.929 . S
C98 C90 1.378 . S
C98 C93 1.350 . S
C99 H86 0.929 . S
C99 C91 1.424 1_455 S
C99 N101 1.384 . S
N100 C96 1.427 1_655 S
N100 C97 1.384 . S
N101 C93 1.427 1_455 S
N101 C99 1.384 . S
H102 C108 0.930 . S
H103 C112 0.930 . S
H104 C117 0.929 . S
H105 C115 0.929 . S
H106 C110 0.929 . S
H107 C116 0.929 . S
C108 H102 0.930 . S
C108 C109 1.372 . S
C108 C116 1.378 . S
C109 C108 1.372 . S
C109 C117 1.429 1_545 S
C110 H106 0.929 . S
C110 C112 1.378 . S
C110 C114 1.354 . S
C111 C114 1.467 1_545 S
C111 C116 1.356 . S
C111 N119 1.419 1_545 S
C112 H103 0.930 . S
C112 C110 1.378 . S
C112 C113 1.370 . S
C113 C112 1.370 . S
C113 C115 1.431 1_565 S
C114 C110 1.354 . S
C114 C111 1.467 1_565 S
C114 N118 1.421 1_565 S
C115 H105 0.929 . S
C115 C113 1.431 1_545 S
C115 N118 1.384 . S
C116 H107 0.929 . S
C116 C108 1.378 . S
C116 C111 1.356 . S
C117 H104 0.929 . S
C117 C109 1.429 1_565 S
C117 N119 1.384 . S
N118 C114 1.421 1_545 S
N118 C115 1.384 . S
N119 C111 1.419 1_565 S
N119 C117 1.384 . S
H120 C126 0.931 . S
H121 C130 0.931 . S
H122 C135 0.929 . S
H123 C133 0.929 . S
H124 C128 0.929 . S
H125 C134 0.929 . S
C126 H120 0.931 . S
C126 C127 1.367 1_655 S
C126 C134 1.378 . S
C127 C126 1.367 1_455 S
C127 C135 1.435 . S
C128 H124 0.929 . S
C128 C130 1.378 . S
C128 C132 1.351 . S
C129 C132 1.463 . S
C129 C134 1.350 1_455 S
C129 N137 1.428 . S
C130 H121 0.931 . S
C130 C128 1.378 . S
C130 C131 1.367 . S
C131 C130 1.367 . S
C131 C133 1.434 1_455 S
C132 C128 1.351 . S
C132 C129 1.463 . S
C132 N136 1.427 1_455 S
C133 H123 0.929 . S
C133 C131 1.434 1_655 S
C133 N136 1.384 . S
C134 H125 0.929 . S
C134 C126 1.378 . S
C134 C129 1.350 1_655 S
C135 H122 0.929 . S
C135 C127 1.435 . S
C135 N137 1.384 . S
N136 C132 1.427 1_655 S
N136 C133 1.384 . S
N137 C129 1.428 . S
N137 C135 1.384 . S
H138 C144 0.930 . S
H139 C148 0.930 . S
H140 C153 0.929 . S
H141 C151 0.929 . S
H142 C146 0.929 . S
H143 C152 0.929 . S
C144 H138 0.930 . S
C144 C145 1.375 . S
C144 C152 1.378 . S
C145 C144 1.375 . S
C145 C153 1.427 1_545 S
C146 H142 0.929 . S
C146 C148 1.378 . S
C146 C150 1.357 . S
C147 C150 1.466 1_545 S
C147 C152 1.360 . S
C147 N155 1.415 1_545 S
C148 H139 0.930 . S
C148 C146 1.378 . S
C148 C149 1.372 . S
C149 C148 1.372 . S
C149 C151 1.429 1_565 S
C150 C146 1.357 . S
C150 C147 1.466 1_565 S
C150 N154 1.419 1_565 S
C151 H141 0.929 . S
C151 C149 1.429 1_545 S
C151 N154 1.384 . S
C152 H143 0.929 . S
C152 C144 1.378 . S
C152 C147 1.360 . S
C153 H140 0.929 . S
C153 C145 1.427 1_565 S
C153 N155 1.384 . S
N154 C150 1.419 1_545 S
N154 C151 1.384 . S
N155 C147 1.415 1_565 S
N155 C153 1.384 . S
H156 C162 0.930 . S
H157 C166 0.930 . S
H158 C171 0.929 . S
H159 C169 0.929 . S
H160 C164 0.929 . S
H161 C170 0.929 . S
C162 H156 0.930 . S
C162 C163 1.380 . S
C162 C170 1.378 . S
C163 C162 1.380 . S
C163 C171 1.417 1_565 S
C164 H160 0.929 . S
C164 C166 1.378 . S
C164 C168 1.350 . S
C165 C168 1.463 1_565 S
C165 C170 1.350 . S
C165 N173 1.427 1_565 S
C166 H157 0.930 . S
C166 C164 1.378 . S
C166 C167 1.384 . S
C167 C166 1.384 . S
C167 C169 1.413 1_545 S
C168 C164 1.350 . S
C168 C165 1.463 1_545 S
C168 N172 1.427 1_545 S
C169 H159 0.929 . S
C169 C167 1.413 1_565 S
C169 N172 1.384 . S
C170 H161 0.929 . S
C170 C162 1.378 . S
C170 C165 1.350 . S
C171 H158 0.929 . S
C171 C163 1.417 1_545 S
C171 N173 1.384 . S
N172 C168 1.427 1_565 S
N172 C169 1.384 . S
N173 C165 1.427 1_545 S
N173 C171 1.384 . S
H174 C180 0.930 . S
H175 C184 0.930 . S
H176 C189 0.929 . S
H177 C187 0.929 . S
H178 C182 0.929 . S
H179 C188 0.929 . S
C180 H174 0.930 . S
C180 C181 1.372 . S
C180 C188 1.378 . S
C181 C180 1.372 . S
C181 C189 1.426 1_455 S
C182 H178 0.929 . S
C182 C184 1.378 . S
C182 C186 1.358 . S
C183 C186 1.457 1_455 S
C183 C188 1.360 . S
C183 N191 1.420 1_455 S
C184 H175 0.930 . S
C184 C182 1.378 . S
C184 C185 1.370 . S
C185 C184 1.370 . S
C185 C187 1.429 1_655 S
C186 C182 1.358 . S
C186 C183 1.457 1_655 S
C186 N190 1.422 1_655 S
C187 H177 0.929 . S
C187 C185 1.429 1_455 S
C187 N190 1.384 . S
C188 H179 0.929 . S
C188 C180 1.378 . S
C188 C183 1.360 . S
C189 H176 0.929 . S
C189 C181 1.426 1_655 S
C189 N191 1.384 . S
N190 C186 1.422 1_455 S
N190 C187 1.384 . S
N191 C183 1.420 1_655 S
N191 C189 1.384 . S
H192 C198 0.930 . S
H193 C202 0.930 . S
H194 C207 0.929 . S
H195 C205 0.929 . S
H196 C200 0.929 . S
H197 C206 0.929 . S
C198 H192 0.930 . S
C198 C199 1.388 . S
C198 C206 1.378 . S
C199 C198 1.388 . S
C199 C207 1.415 1_565 S
C200 H196 0.929 . S
C200 C202 1.378 . S
C200 C204 1.350 . S
C201 C204 1.463 1_565 S
C201 C206 1.350 . S
C201 N209 1.427 1_565 S
C202 H193 0.930 . S
C202 C200 1.378 . S
C202 C203 1.367 . S
C203 C202 1.367 . S
C203 C205 1.433 1_545 S
C204 C200 1.350 . S
C204 C201 1.463 1_545 S
C204 N208 1.427 1_545 S
C205 H195 0.929 . S
C205 C203 1.433 1_565 S
C205 N208 1.384 . S
C206 H197 0.929 . S
C206 C198 1.378 . S
C206 C201 1.350 . S
C207 H194 0.929 . S
C207 C199 1.415 1_545 S
C207 N209 1.384 . S
N208 C204 1.427 1_565 S
N208 C205 1.384 . S
N209 C201 1.427 1_545 S
N209 C207 1.384 . S
H210 C216 0.930 . S
H211 C220 0.930 . S
H212 C225 0.929 . S
H213 C223 0.929 . S
H214 C218 0.929 . S
H215 C224 0.929 . S
C216 H210 0.930 . S
C216 C217 1.373 . S
C216 C224 1.378 . S
C217 C216 1.373 . S
C217 C225 1.425 1_455 S
C218 H214 0.929 . S
C218 C220 1.378 . S
C218 C222 1.359 . S
C219 C222 1.457 1_455 S
C219 C224 1.362 . S
C219 N227 1.418 1_455 S
C220 H211 0.930 . S
C220 C218 1.378 . S
C220 C221 1.370 . S
C221 C220 1.370 . S
C221 C223 1.428 1_655 S
C222 C218 1.359 . S
C222 C219 1.457 1_655 S
C222 N226 1.420 1_655 S
C223 H213 0.929 . S
C223 C221 1.428 1_455 S
C223 N226 1.384 . S
C224 H215 0.929 . S
C224 C216 1.378 . S
C224 C219 1.362 . S
C225 H212 0.929 . S
C225 C217 1.425 1_655 S
C225 N227 1.384 . S
N226 C222 1.420 1_455 S
N226 C223 1.384 . S
N227 C219 1.418 1_655 S
N227 C225 1.384 . S
H228 C234 0.930 . S
H229 C238 0.930 . S
H230 C243 0.929 . S
H231 C241 0.929 . S
H232 C236 0.929 . S
H233 C242 0.929 . S
C234 H228 0.930 . S
C234 C235 1.367 . S
C234 C242 1.378 . S
C235 C234 1.367 . S
C235 C243 1.433 1_554 S
C236 H232 0.929 . S
C236 C238 1.378 . S
C236 C240 1.350 . S
C237 C240 1.461 1_554 S
C237 C242 1.351 . S
C237 N245 1.428 1_554 S
C238 H229 0.930 . S
C238 C236 1.378 . S
C238 C239 1.367 . S
C239 C238 1.367 . S
C239 C241 1.433 1_556 S
C240 C236 1.350 . S
C240 C237 1.461 1_556 S
C240 N244 1.427 1_556 S
C241 H231 0.929 . S
C241 C239 1.433 1_554 S
C241 N244 1.384 . S
C242 H233 0.929 . S
C242 C234 1.378 . S
C242 C237 1.351 . S
C243 H230 0.929 . S
C243 C235 1.433 1_556 S
C243 N245 1.384 . S
N244 C240 1.427 1_554 S
N244 C241 1.384 . S
N245 C237 1.428 1_556 S
N245 C243 1.384 . S
H246 C252 0.930 . S
H247 C256 0.930 . S
H248 C261 0.929 . S
H249 C259 0.929 . S
H250 C254 0.929 . S
H251 C260 0.929 . S
C252 H246 0.930 . S
C252 C253 1.380 . S
C252 C260 1.378 . S
C253 C252 1.380 . S
C253 C261 1.423 1_554 S
C254 H250 0.929 . S
C254 C256 1.378 . S
C254 C258 1.363 . S
C255 C258 1.465 1_554 S
C255 C260 1.350 . S
C255 N263 1.427 1_554 S
C256 H247 0.930 . S
C256 C254 1.378 . S
C256 C257 1.376 . S
C257 C256 1.376 . S
C257 C259 1.426 1_556 S
C258 C254 1.363 . S
C258 C255 1.465 1_556 S
C258 N262 1.412 1_556 S
C259 H249 0.929 . S
C259 C257 1.426 1_554 S
C259 N262 1.384 . S
C260 H251 0.929 . S
C260 C252 1.378 . S
C260 C255 1.350 . S
C261 H248 0.929 . S
C261 C253 1.423 1_556 S
C261 N263 1.384 . S
N262 C258 1.412 1_554 S
N262 C259 1.384 . S
N263 C255 1.427 1_556 S
N263 C261 1.384 . S
H264 C270 0.930 . S
H265 C274 0.930 . S
H266 C279 0.929 . S
H267 C277 0.929 . S
H268 C272 0.929 . S
H269 C278 0.929 . S
C270 H264 0.930 . S
C270 C271 1.380 . S
C270 C278 1.378 . S
C271 C270 1.380 . S
C271 C279 1.417 1_556 S
C272 H268 0.929 . S
C272 C274 1.378 . S
C272 C276 1.350 . S
C273 C276 1.463 1_556 S
C273 C278 1.350 . S
C273 N281 1.427 1_556 S
C274 H265 0.930 . S
C274 C272 1.378 . S
C274 C275 1.385 . S
C275 C274 1.385 . S
C275 C277 1.412 1_554 S
C276 C272 1.350 . S
C276 C273 1.463 1_554 S
C276 N280 1.427 1_554 S
C277 H267 0.929 . S
C277 C275 1.412 1_556 S
C277 N280 1.384 . S
C278 H269 0.929 . S
C278 C270 1.378 . S
C278 C273 1.350 . S
C279 H266 0.929 . S
C279 C271 1.417 1_554 S
C279 N281 1.384 . S
N280 C276 1.427 1_556 S
N280 C277 1.384 . S
N281 C273 1.427 1_554 S
N281 C279 1.384 . S
H282 C288 0.930 . S
H283 C292 0.930 . S
H284 C297 0.929 . S
H285 C295 0.929 . S
H286 C290 0.929 . S
H287 C296 0.929 . S
C288 H282 0.930 . S
C288 C289 1.383 . S
C288 C296 1.378 . S
C289 C288 1.383 . S
C289 C297 1.419 1_556 S
C290 H286 0.929 . S
C290 C292 1.378 . S
C290 C294 1.350 . S
C291 C294 1.463 1_556 S
C291 C296 1.350 . S
C291 N299 1.427 1_556 S
C292 H283 0.930 . S
C292 C290 1.378 . S
C292 C293 1.388 . S
C293 C292 1.388 . S
C293 C295 1.415 1_554 S
C294 C290 1.350 . S
C294 C291 1.463 1_554 S
C294 N298 1.427 1_554 S
C295 H285 0.929 . S
C295 C293 1.415 1_556 S
C295 N298 1.384 . S
C296 H287 0.929 . S
C296 C288 1.378 . S
C296 C291 1.350 . S
C297 H284 0.929 . S
C297 C289 1.419 1_554 S
C297 N299 1.384 . S
N298 C294 1.427 1_556 S
N298 C295 1.384 . S
N299 C291 1.427 1_554 S
N299 C297 1.384 . S
C91 C0 1.496 1_655 S
C95 C57 1.493 1_455 S
C109 C13 1.496 1_545 S
C113 C70 1.501 . S
C127 C56 1.499 . S
C131 C1 1.501 1_455 S
C145 C71 1.496 . S
C149 C12 1.494 1_565 S
C163 C83 1.500 . S
C167 C26 1.499 . S
C181 C40 1.500 . S
C185 C69 1.496 1_655 S
C199 C82 1.494 1_565 S
C203 C27 1.502 1_545 S
C217 C68 1.501 1_455 S
C221 C41 1.502 . S
C235 C28 1.499 . S
C239 C55 1.494 . S
C253 C43 1.497 . S
C257 C14 1.493 1_556 S
C271 C29 1.500 . S
C275 C54 1.504 . S
C289 C42 1.495 . S
C293 C15 1.498 1_554 S
