# Generated by pormake.
# Topology snk, (6)-cn, num edge types: 1
# Building blocks:
#     Node 0, Type 0, BuildingBlock: INOVEN_clean_sbu_0, # of connection points: 6
#     Node 1, Type 0, BuildingBlock: INOVEN_clean_sbu_0, # of connection points: 6
#     Node 2, Type 0, BuildingBlock: INOVEN_clean_sbu_0, # of connection points: 6
#     Node 3, Type 0, BuildingBlock: INOVEN_clean_sbu_0, # of connection points: 6
#     Node 4, Type 0, BuildingBlock: INOVEN_clean_sbu_0, # of connection points: 6
#     Node 5, Type 0, BuildingBlock: INOVEN_clean_sbu_0, # of connection points: 6
#     Node 6, Type 0, BuildingBlock: INOVEN_clean_sbu_0, # of connection points: 6
#     Node 7, Type 0, BuildingBlock: INOVEN_clean_sbu_0, # of connection points: 6
#     Edge 8, Type (0, 0), BuildingBlock: UVAHIK_clean_linker_0, # of connection points: 2
#     Edge 9, Type (0, 0), BuildingBlock: UVAHIK_clean_linker_0, # of connection points: 2
#     Edge 10, Type (0, 0), BuildingBlock: UVAHIK_clean_linker_0, # of connection points: 2
#     Edge 11, Type (0, 0), BuildingBlock: UVAHIK_clean_linker_0, # of connection points: 2
#     Edge 12, Type (0, 0), BuildingBlock: UVAHIK_clean_linker_0, # of connection points: 2
#     Edge 13, Type (0, 0), BuildingBlock: UVAHIK_clean_linker_0, # of connection points: 2
#     Edge 14, Type (0, 0), BuildingBlock: UVAHIK_clean_linker_0, # of connection points: 2
#     Edge 15, Type (0, 0), BuildingBlock: UVAHIK_clean_linker_0, # of connection points: 2
#     Edge 16, Type (0, 0), BuildingBlock: UVAHIK_clean_linker_0, # of connection points: 2
#     Edge 17, Type (0, 0), BuildingBlock: UVAHIK_clean_linker_0, # of connection points: 2
#     Edge 18, Type (0, 0), BuildingBlock: UVAHIK_clean_linker_0, # of connection points: 2
#     Edge 19, Type (0, 0), BuildingBlock: UVAHIK_clean_linker_0, # of connection points: 2
#     Edge 20, Type (0, 0), BuildingBlock: UVAHIK_clean_linker_0, # of connection points: 2
#     Edge 21, Type (0, 0), BuildingBlock: UVAHIK_clean_linker_0, # of connection points: 2
#     Edge 22, Type (0, 0), BuildingBlock: UVAHIK_clean_linker_0, # of connection points: 2
#     Edge 23, Type (0, 0), BuildingBlock: UVAHIK_clean_linker_0, # of connection points: 2
#     Edge 24, Type (0, 0), BuildingBlock: UVAHIK_clean_linker_0, # of connection points: 2
#     Edge 25, Type (0, 0), BuildingBlock: UVAHIK_clean_linker_0, # of connection points: 2
#     Edge 26, Type (0, 0), BuildingBlock: UVAHIK_clean_linker_0, # of connection points: 2
#     Edge 27, Type (0, 0), BuildingBlock: UVAHIK_clean_linker_0, # of connection points: 2
#     Edge 28, Type (0, 0), BuildingBlock: UVAHIK_clean_linker_0, # of connection points: 2
#     Edge 29, Type (0, 0), BuildingBlock: UVAHIK_clean_linker_0, # of connection points: 2
#     Edge 30, Type (0, 0), BuildingBlock: UVAHIK_clean_linker_0, # of connection points: 2
#     Edge 31, Type (0, 0), BuildingBlock: UVAHIK_clean_linker_0, # of connection points: 2
# Relax obj value: 0.063
# Max RMSD: 0.120
# Mean RMSD: 0.109
data_MOF--net-snk--node1-INOVEN_clean_sbu_0--edge1-UVAHIK_clean_linker_0
_symmetry_space_group_name_H-M    P1
_symmetry_Int_Tables_number       1
_symmetry_cell_setting            triclinic
loop_
_symmetry_equiv_pos_as_xyz
'x, y, z'
_cell_length_a     49.948487
_cell_length_b     50.026258
_cell_length_c     30.028748
_cell_angle_alpha  96.174577
_cell_angle_beta   96.188681
_cell_angle_gamma 90.770326
loop_
_atom_site_label
_atom_site_type_symbol
_atom_site_fract_x
_atom_site_fract_y
_atom_site_fract_z
_atom_type_partial_charge
Gd0 Gd 0.99052 0.99371 0.46289 0.0
Gd1 Gd 0.01418 0.01593 0.55758 0.0
C2 C 0.04192 0.03637 0.47665 0.0
C3 C 0.96947 0.98766 0.37969 0.0
C4 C 0.97691 0.99046 0.33395 0.0
C5 C 0.98643 0.96834 0.30777 0.0
C6 C 0.97284 0.01474 0.31485 0.0
C7 C 0.98722 0.99457 0.24413 0.0
C8 C 0.97803 0.0168 0.27051 0.0
C9 C 0.9916 0.9704 0.26343 0.0
C10 C 0.02842 0.96319 0.50179 0.0
C11 C 0.96287 0.97325 0.54393 0.0
C12 C 0.03516 0.02227 0.64082 0.0
C13 C 0.02791 0.01916 0.68656 0.0
C14 C 0.01867 0.04121 0.71327 0.0
C15 C 0.03193 0.99472 0.70518 0.0
C16 C 0.01808 0.01461 0.77649 0.0
C17 C 0.02698 0.99244 0.74958 0.0
C18 C 0.01372 0.03893 0.75764 0.0
C19 C 0.97637 0.04641 0.51818 0.0
O20 O 0.02115 0.02509 0.44964 0.0
O21 O 0.04573 0.03258 0.51973 0.0
O22 O 0.98018 0.96804 0.40045 0.0
O23 O 0.96784 0.0098 0.4067 0.0
O24 O 0.00777 0.9534 0.47482 0.0
O25 O 0.02907 0.98849 0.50434 0.0
O26 O 0.98371 0.98443 0.57085 0.0
O27 O 0.95898 0.97715 0.50088 0.0
O28 O 0.02385 0.04165 0.62015 0.0
O29 O 0.03738 1.00028 0.61372 0.0
O30 O 0.99709 0.05626 0.54493 0.0
O31 O 0.97569 0.02114 0.51613 0.0
H32 H 0.98953 0.94926 0.32127 0.0
H33 H 0.96513 0.03206 0.33383 0.0
H34 H 0.97407 0.03559 0.25647 0.0
H35 H 0.99895 0.95299 0.24419 0.0
H36 H 0.01562 0.0604 0.70014 0.0
H37 H 0.03942 0.97744 0.68578 0.0
H38 H 0.03092 0.97353 0.76324 0.0
H39 H 0.00657 0.05629 0.77727 0.0
Gd40 Gd 0.25864 0.74151 0.71269 0.0
Gd41 Gd 0.24987 0.76991 0.80732 0.0
C42 C 0.21788 0.79181 0.72206 0.0
C43 C 0.25371 0.71671 0.63177 0.0
C44 C 0.25205 0.72307 0.58477 0.0
C45 C 0.26183 0.74775 0.57402 0.0
C46 C 0.2413 0.70374 0.54999 0.0
C47 C 0.25113 0.73315 0.49372 0.0
C48 C 0.24081 0.70871 0.50494 0.0
C49 C 0.2614 0.75274 0.5289 0.0
C50 C 0.29287 0.78309 0.74455 0.0
C51 C 0.29052 0.71954 0.79803 0.0
C52 C 0.25482 0.79464 0.8883 0.0
C53 C 0.25649 0.78823 0.93527 0.0
C54 C 0.24666 0.76356 0.94596 0.0
C55 C 0.26734 0.80749 0.97009 0.0
C56 C 0.2575 0.77804 0.02627 0.0
C57 C 0.26787 0.80247 0.01511 0.0
C58 C 0.24714 0.75851 0.99106 0.0
C59 C 0.21567 0.72833 0.77537 0.0
O60 O 0.22362 0.769 0.69864 0.0
O61 O 0.22988 0.79909 0.76318 0.0
O62 O 0.27688 0.72192 0.65617 0.0
O63 O 0.2331 0.72317 0.65386 0.0
O64 O 0.29949 0.76264 0.7181 0.0
O65 O 0.2683 0.78155 0.74913 0.0
O66 O 0.28483 0.74238 0.82141 0.0
O67 O 0.27854 0.71229 0.75689 0.0
O68 O 0.23164 0.78949 0.86389 0.0
O69 O 0.27541 0.78817 0.86619 0.0
O70 O 0.20901 0.7487 0.80194 0.0
O71 O 0.24024 0.72992 0.77092 0.0
H72 H 0.2702 0.76296 0.60046 0.0
H73 H 0.23352 0.68464 0.55765 0.0
H74 H 0.2323 0.69336 0.47887 0.0
H75 H 0.26972 0.77167 0.52159 0.0
H76 H 0.23823 0.74839 0.9195 0.0
H77 H 0.27516 0.82659 0.96246 0.0
H78 H 0.27645 0.81776 0.0412 0.0
H79 H 0.23879 0.73958 0.99833 0.0
Gd80 Gd 0.51714 0.98943 0.0806 0.0
Gd81 Gd 0.48988 1.00104 0.98679 0.0
C82 C 0.46769 0.03146 0.073 0.0
C83 C 0.54188 0.99253 0.16143 0.0
C84 C 0.53537 0.99559 0.20834 0.0
C85 C 0.50933 0.98994 0.21887 0.0
C86 C 0.55578 1.00344 0.24324 0.0
C87 C 0.52452 0.999 0.29917 0.0
C88 C 0.55043 0.00516 0.28822 0.0
C89 C 0.50396 0.99158 0.2639 0.0
C90 C 0.475 0.95672 0.04583 0.0
C91 C 0.53878 0.95855 0.99392 0.0
C92 C 0.46565 0.99882 0.90564 0.0
C93 C 0.47222 0.99704 0.8588 0.0
C94 C 0.49811 0.00364 0.84864 0.0
C95 C 0.45197 0.98927 0.8236 0.0
C96 C 0.48311 0.99545 0.76814 0.0
C97 C 0.45733 0.98846 0.77873 0.0
C98 C 0.5035 1.00291 0.80369 0.0
C99 C 0.53239 0.03328 0.02209 0.0
O100 O 0.49 0.02454 0.09668 0.0
O101 O 0.46072 0.02071 0.03106 0.0
O102 O 0.53417 0.96979 0.13743 0.0
O103 O 0.53798 0.01342 0.13896 0.0
O104 O 0.49513 0.94901 0.07193 0.0
O105 O 0.4771 0.98145 0.04305 0.0
O106 O 0.51646 0.96565 0.97052 0.0
O107 O 0.54594 0.96916 0.03593 0.0
O108 O 0.47256 0.02135 0.93089 0.0
O109 O 0.47026 0.97754 0.92686 0.0
O110 O 0.51228 0.04145 0.99651 0.0
O111 O 0.52994 0.00856 0.02413 0.0
H112 H 0.49325 0.98399 0.1923 0.0
H113 H 0.57601 0.00784 0.23571 0.0
H114 H 0.56681 0.01064 0.31444 0.0
H115 H 0.48371 0.98705 0.27111 0.0
H116 H 0.51405 0.00957 0.87544 0.0
H117 H 0.43185 0.98415 0.83083 0.0
H118 H 0.44106 0.98296 0.75232 0.0
H119 H 0.52365 0.00808 0.79677 0.0
Gd120 Gd 0.26562 0.2665 0.31241 0.0
Gd121 Gd 0.24481 0.24198 0.21702 0.0
C122 C 0.22287 0.21527 0.29803 0.0
C123 C 0.27067 0.28882 0.3949 0.0
C124 C 0.26865 0.28233 0.44121 0.0
C125 C 0.28835 0.29278 0.47569 0.0
C126 C 0.24711 0.26674 0.45192 0.0
C127 C 0.26467 0.27302 0.53148 0.0
C128 C 0.24515 0.26213 0.49666 0.0
C129 C 0.28643 0.28816 0.52031 0.0
C130 C 0.2965 0.22789 0.2764 0.0
C131 C 0.28749 0.29321 0.23122 0.0
C132 C 0.23949 0.21971 0.1345 0.0
C133 C 0.24146 0.2262 0.08818 0.0
C134 C 0.22168 0.21579 0.05378 0.0
C135 C 0.26297 0.24178 0.07738 0.0
C136 C 0.24524 0.23559 0.99788 0.0
C137 C 0.26484 0.24644 0.03262 0.0
C138 C 0.2235 0.22046 1.00916 0.0
C139 C 0.21399 0.28055 0.25349 0.0
O140 O 0.23368 0.23627 0.32497 0.0
O141 O 0.22759 0.21099 0.25538 0.0
O142 O 0.29084 0.27865 0.37499 0.0
O143 O 0.24828 0.28861 0.3678 0.0
O144 O 0.30606 0.24845 0.30371 0.0
O145 O 0.27114 0.22762 0.27227 0.0
O146 O 0.27666 0.27221 0.20433 0.0
O147 O 0.28289 0.29747 0.27394 0.0
O148 O 0.21943 0.23004 0.15455 0.0
O149 O 0.26192 0.21975 0.16148 0.0
O150 O 0.20433 0.25996 0.22634 0.0
O151 O 0.23933 0.28078 0.25715 0.0
H152 H 0.30516 0.30479 0.46814 0.0
H153 H 0.23162 0.25845 0.42589 0.0
H154 H 0.22801 0.25056 0.50408 0.0
H155 H 0.30209 0.29642 0.54607 0.0
H156 H 0.20488 0.2038 0.06141 0.0
H157 H 0.27851 0.25004 0.10334 0.0
H158 H 0.28196 0.25799 0.02512 0.0
H159 H 0.20779 0.21222 0.98346 0.0
Gd160 Gd 0.76217 0.23983 0.1994 0.0
Gd161 Gd 0.7509 0.26518 0.29606 0.0
C162 C 0.72196 0.29023 0.20756 0.0
C163 C 0.7586 0.21693 0.11725 0.0
C164 C 0.75621 0.22423 0.07068 0.0
C165 C 0.77263 0.2445 0.05798 0.0
C166 C 0.73774 0.20994 0.03793 0.0
C167 C 0.75284 0.23522 0.97982 0.0
C168 C 0.73599 0.2154 0.99303 0.0
C169 C 0.77101 0.24988 0.01299 0.0
C170 C 0.79708 0.27894 0.23932 0.0
C171 C 0.79272 0.2179 0.28578 0.0
C172 C 0.74702 0.29306 0.37242 0.0
C173 C 0.74744 0.28793 0.4199 0.0
C174 C 0.73164 0.30343 0.44819 0.0
C175 C 0.76334 0.26773 0.43736 0.0
C176 C 0.74789 0.27893 0.51121 0.0
C177 C 0.76367 0.26336 0.48268 0.0
C178 C 0.7318 0.29894 0.49339 0.0
C179 C 0.72722 0.21665 0.26789 0.0
O180 O 0.73444 0.27295 0.18073 0.0
O181 O 0.72553 0.29129 0.25215 0.0
O182 O 0.78148 0.22283 0.14213 0.0
O183 O 0.7377 0.22126 0.1395 0.0
O184 O 0.80397 0.2593 0.21141 0.0
O185 O 0.7722 0.27793 0.24155 0.0
O186 O 0.78843 0.24147 0.3082 0.0
O187 O 0.78015 0.21032 0.24511 0.0
O188 O 0.72598 0.28342 0.34523 0.0
O189 O 0.76982 0.28994 0.35464 0.0
O190 O 0.73323 0.22514 0.31012 0.0
O191 O 0.73111 0.2352 0.24426 0.0
H192 H 0.78702 0.2559 0.08264 0.0
H193 H 0.72481 0.1943 0.04703 0.0
H194 H 0.7214 0.20406 0.96867 0.0
H195 H 0.78448 0.26509 1.00407 0.0
H196 H 0.71923 0.31909 0.43531 0.0
H197 H 0.77551 0.25533 0.41601 0.0
H198 H 0.776 0.24757 0.49524 0.0
H199 H 0.71963 0.31143 0.51459 0.0
Gd200 Gd 0.76534 0.76666 0.80978 0.0
Gd201 Gd 0.74242 0.74267 0.71517 0.0
C202 C 0.72321 0.71492 0.79707 0.0
C203 C 0.77319 0.78765 0.89303 0.0
C204 C 0.77064 0.78118 0.93922 0.0
C205 C 0.79113 0.78991 0.97355 0.0
C206 C 0.74794 0.76738 0.95001 0.0
C207 C 0.76595 0.77209 0.02943 0.0
C208 C 0.74562 0.76287 0.99473 0.0
C209 C 0.78886 0.78539 0.01811 0.0
C210 C 0.79615 0.73003 0.76863 0.0
C211 C 0.78415 0.79471 0.72788 0.0
C212 C 0.73529 0.72113 0.63223 0.0
C213 C 0.73829 0.7273 0.58604 0.0
C214 C 0.71808 0.71838 0.55137 0.0
C215 C 0.76107 0.74115 0.57564 0.0
C216 C 0.74364 0.73616 0.49594 0.0
C217 C 0.76372 0.74554 0.53098 0.0
C218 C 0.72067 0.72279 0.50687 0.0
C219 C 0.71147 0.77944 0.75588 0.0
O220 O 0.73445 0.73579 0.82381 0.0
O221 O 0.72664 0.71111 0.75382 0.0
O222 O 0.79187 0.7753 0.87203 0.0
O223 O 0.75091 0.79018 0.86674 0.0
O224 O 0.80583 0.75109 0.79459 0.0
O225 O 0.77091 0.72851 0.76772 0.0
O226 O 0.77313 0.77371 0.7012 0.0
O227 O 0.78066 0.79852 0.77112 0.0
O228 O 0.71642 0.7337 0.65247 0.0
O229 O 0.75733 0.71864 0.65917 0.0
O230 O 0.70185 0.75862 0.72917 0.0
O231 O 0.73676 0.78079 0.75726 0.0
H232 H 0.80885 0.80051 0.96592 0.0
H233 H 0.73184 0.76042 0.92408 0.0
H234 H 0.72761 0.75274 1.00224 0.0
H235 H 0.80514 0.7923 0.04373 0.0
H236 H 0.70029 0.70776 0.5587 0.0
H237 H 0.77695 0.74827 0.60186 0.0
H238 H 0.78176 0.75573 0.52378 0.0
H239 H 0.70457 0.71576 0.48099 0.0
Gd240 Gd 0.49124 0.49535 0.9668 0.0
Gd241 Gd 0.51526 0.51728 0.06172 0.0
C242 C 0.54235 0.53826 0.98038 0.0
C243 C 0.46946 0.48934 0.88398 0.0
C244 C 0.47629 0.49136 0.83781 0.0
C245 C 0.46852 0.47021 0.80416 0.0
C246 C 0.48937 0.51428 0.82629 0.0
C247 C 0.48577 0.49518 0.74755 0.0
C248 C 0.49405 0.51617 0.78157 0.0
C249 C 0.47327 0.47204 0.75957 0.0
C250 C 0.52993 0.46511 1.00432 0.0
C251 C 0.46446 0.47408 0.04826 0.0
C252 C 0.53684 0.52376 0.14466 0.0
C253 C 0.53011 0.52147 0.19078 0.0
C254 C 0.53783 0.54251 0.22465 0.0
C255 C 0.51715 0.49841 0.20204 0.0
C256 C 0.52079 0.51716 0.28097 0.0
C257 C 0.51255 0.49628 0.24674 0.0
C258 C 0.53317 0.54043 0.2692 0.0
C259 C 0.4768 0.54753 0.02345 0.0
O260 O 0.52146 0.52707 0.95355 0.0
O261 O 0.54647 0.53418 0.02334 0.0
O262 O 0.48004 0.46958 0.9045 0.0
O263 O 0.46881 0.51174 0.91071 0.0
O264 O 0.50941 0.45522 0.97715 0.0
O265 O 0.53011 0.49043 1.00763 0.0
O266 O 0.48533 0.48534 0.07499 0.0
O267 O 0.46023 0.47819 1.00532 0.0
O268 O 0.52569 0.54323 0.12408 0.0
O269 O 0.5381 0.50143 0.11796 0.0
O270 O 0.49745 0.55746 0.05025 0.0
O271 O 0.47647 0.52223 0.02084 0.0
H272 H 0.45848 0.45232 0.81231 0.0
H273 H 0.4956 0.53091 0.85162 0.0
H274 H 0.50353 0.53437 0.77349 0.0
H275 H 0.4671 0.45528 0.73449 0.0
H276 H 0.54778 0.5605 0.21669 0.0
H277 H 0.51095 0.48187 0.17653 0.0
H278 H 0.50315 0.47798 0.25462 0.0
H279 H 0.53931 0.55712 0.29447 0.0
Gd280 Gd 0.01894 0.50032 0.55741 0.0
Gd281 Gd 0.99108 0.51 0.46266 0.0
C282 C 0.96804 0.54066 0.54846 0.0
C283 C 0.04356 0.50501 0.63842 0.0
C284 C 0.03689 0.50707 0.68521 0.0
C285 C 0.01103 0.50022 0.69522 0.0
C286 C 0.05695 0.51527 0.72048 0.0
C287 C 0.02574 0.50891 0.77576 0.0
C288 C 0.05147 0.51621 0.76531 0.0
C289 C 0.00552 0.50107 0.74012 0.0
C290 C 0.97782 0.46608 0.52383 0.0
C291 C 0.04156 0.46939 0.4718 0.0
C292 C 0.96664 0.50551 0.38145 0.0
C293 C 0.97323 0.50375 0.33463 0.0
C294 C 0.99895 0.51101 0.32453 0.0
C295 C 0.95318 0.49538 0.29941 0.0
C296 C 0.98416 0.50229 0.24402 0.0
C297 C 0.95856 0.49463 0.25455 0.0
C298 C 1.00436 0.51034 0.2796 0.0
C299 C 0.03236 0.54413 0.49631 0.0
O300 O 0.99017 0.53391 0.57281 0.0
O301 O 0.96171 0.53024 0.50612 0.0
O302 O 0.03786 0.48187 0.61425 0.0
O303 O 0.03769 0.52562 0.61607 0.0
O304 O 0.99811 0.45937 0.55065 0.0
O305 O 0.97915 0.49073 0.51984 0.0
O306 O 0.01899 0.4755 0.448 0.0
O307 O 0.04843 0.48071 0.51346 0.0
O308 O 0.97216 0.52857 0.40592 0.0
O309 O 0.97272 0.48484 0.4035 0.0
O310 O 0.01219 0.55086 0.4693 0.0
O311 O 0.03084 0.5195 0.50016 0.0
H312 H 0.99522 0.49397 0.66835 0.0
H313 H 0.07704 0.52059 0.71336 0.0
H314 H 0.06759 0.52203 0.79182 0.0
H315 H 0.98541 0.49566 0.74693 0.0
H316 H 0.01473 0.51741 0.35136 0.0
H317 H 0.93319 0.48976 0.3066 0.0
H318 H 0.94245 0.48866 0.22811 0.0
H319 H 0.02437 0.51603 0.27272 0.0
C320 C 0.06077 0.05437 0.41117 0.0
C321 C 0.06151 0.05349 0.45793 0.0
C322 C 0.07884 0.07099 0.39364 0.0
C323 C 0.14348 0.11047 0.42415 0.0
H324 H 0.11852 0.14607 0.31943 0.0
C325 C 0.20383 0.19685 0.36302 0.0
C326 C 0.20537 0.19585 0.31637 0.0
C327 C 0.1869 0.17887 0.38013 0.0
C328 C 0.12588 0.13608 0.34845 0.0
H329 H 0.08186 0.06961 0.52292 0.0
H330 H 0.11282 0.09904 0.49258 0.0
H331 H 0.08786 0.11612 0.34954 0.0
H332 H 0.19026 0.17503 0.25117 0.0
H333 H 0.16062 0.14384 0.28106 0.0
H334 H 0.18135 0.13104 0.42344 0.0
C335 C 0.09873 0.08642 0.46922 0.0
C336 C 0.10831 0.1188 0.36569 0.0
C337 C 0.08083 0.0696 0.48671 0.0
C338 C 0.18962 0.17637 0.28728 0.0
C339 C 0.17249 0.15859 0.30437 0.0
C340 C 0.16095 0.12797 0.40714 0.0
C341 C 0.09799 0.08741 0.42241 0.0
C342 C 0.11685 0.1057 0.40379 0.0
C343 C 0.17089 0.15964 0.35098 0.0
C344 C 0.15237 0.14096 0.36905 0.0
H345 H 0.04626 0.04212 0.38795 0.0
H346 H 0.0779 0.07078 0.35741 0.0
H347 H 0.15101 0.10044 0.45299 0.0
H348 H 0.21569 0.21154 0.38643 0.0
H349 H 0.18596 0.18035 0.41618 0.0
C350 C 0.04674 0.91853 0.51689 0.0
C351 C 0.04896 0.94671 0.52424 0.0
C352 C 0.06589 0.90268 0.53822 0.0
C353 C 0.11447 0.90208 0.63751 0.0
H354 H 0.14658 0.84399 0.56702 0.0
C355 C 0.1984 0.8375 0.71695 0.0
C356 C 0.19879 0.81015 0.70045 0.0
C357 C 0.1808 0.85488 0.69559 0.0
C358 C 0.13754 0.85981 0.58745 0.0
H359 H 0.07314 0.98045 0.55909 0.0
H360 H 0.10627 0.95263 0.59766 0.0
H361 H 0.11451 0.87284 0.52966 0.0
H362 H 0.18053 0.77944 0.64936 0.0
H363 H 0.14922 0.80935 0.61327 0.0
H364 H 0.13663 0.88862 0.69555 0.0
C365 C 0.08968 0.94289 0.5753 0.0
C366 C 0.11929 0.87645 0.56589 0.0
C367 C 0.07075 0.95877 0.5533 0.0
C368 C 0.18093 0.80047 0.66262 0.0
C369 C 0.16308 0.81773 0.6417 0.0
C370 C 0.13243 0.88517 0.65924 0.0
C371 C 0.08747 0.91469 0.56781 0.0
C372 C 0.1075 0.89768 0.5907 0.0
C373 C 0.1629 0.84525 0.6576 0.0
C374 C 0.14414 0.8637 0.63453 0.0
H375 H 0.03017 0.90868 0.49464 0.0
H376 H 0.06361 0.88099 0.53211 0.0
H377 H 0.10546 0.91817 0.65747 0.0
H378 H 0.21205 0.84561 0.74588 0.0
H379 H 0.18161 0.87597 0.70849 0.0
C380 C 0.30237 0.82218 0.80268 0.0
C381 C 0.31188 0.80261 0.77154 0.0
C382 C 0.32043 0.83886 0.83207 0.0
C383 C 0.36655 0.85203 0.9089 0.0
H384 H 0.41632 0.90154 0.86716 0.0
C385 C 0.45589 0.91076 0.01923 0.0
C386 C 0.45497 0.93869 0.01785 0.0
C387 C 0.43812 0.89364 0.98979 0.0
C388 C 0.40254 0.88769 0.87906 0.0
H389 H 0.34742 0.78609 0.7445 0.0
H390 H 0.37917 0.81626 0.79514 0.0
H391 H 0.38603 0.87239 0.81211 0.0
H392 H 0.4342 0.97081 0.98649 0.0
H393 H 0.40385 0.94073 0.93385 0.0
H394 H 0.38334 0.86702 0.97582 0.0
C395 C 0.35774 0.8181 0.79727 0.0
C396 C 0.38541 0.87107 0.84776 0.0
C397 C 0.33966 0.80096 0.76844 0.0
C398 C 0.43558 0.9493 0.98766 0.0
C399 C 0.41826 0.93219 0.95763 0.0
C400 C 0.38408 0.86822 0.94016 0.0
C401 C 0.3482 0.8367 0.82988 0.0
C402 C 0.36712 0.8534 0.86257 0.0
C403 C 0.41961 0.90428 0.95825 0.0
C404 C 0.40194 0.88635 0.9254 0.0
H405 H 0.281 0.82411 0.80521 0.0
H406 H 0.31274 0.85335 0.85673 0.0
H407 H 0.35258 0.83838 0.92081 0.0
H408 H 0.47062 0.90216 0.0424 0.0
H409 H 0.43934 0.87209 0.99072 0.0
C410 C 0.45891 0.06775 0.13353 0.0
C411 C 0.44947 0.05066 0.09465 0.0
C412 C 0.44182 0.08627 0.15343 0.0
C413 C 0.37656 0.12029 0.12977 0.0
H414 H 0.3849 0.13835 0.25945 0.0
C415 C 0.30128 0.18519 0.22634 0.0
C416 C 0.31314 0.20668 0.25623 0.0
C417 C 0.31734 0.16553 0.20661 0.0
C418 C 0.38243 0.13354 0.22317 0.0
H419 H 0.41455 0.03917 0.04667 0.0
H420 H 0.38451 0.07063 0.08221 0.0
H421 H 0.41371 0.10484 0.22535 0.0
H422 H 0.35093 0.22422 0.28969 0.0
H423 H 0.37889 0.18953 0.2561 0.0
H424 H 0.34474 0.14865 0.1281 0.0
C425 C 0.4053 0.07045 0.09668 0.0
C426 C 0.39904 0.11445 0.20351 0.0
C427 C 0.42251 0.05224 0.0764 0.0
C428 C 0.34125 0.20789 0.26671 0.0
C429 C 0.35724 0.18802 0.24764 0.0
C430 C 0.35967 0.13907 0.14955 0.0
C431 C 0.41474 0.08787 0.13534 0.0
C432 C 0.39652 0.10771 0.15646 0.0
C433 C 0.34547 0.16674 0.2172 0.0
C434 C 0.36261 0.14603 0.19639 0.0
H435 H 0.47965 0.06718 0.14818 0.0
H436 H 0.45004 0.09964 0.18259 0.0
H437 H 0.37426 0.11609 0.09342 0.0
H438 H 0.27964 0.1836 0.21809 0.0
H439 H 0.30776 0.1492 0.18351 0.0
C440 C 0.94434 0.95499 0.60948 0.0
C441 C 0.94327 0.95617 0.56272 0.0
C442 C 0.92624 0.93841 0.62707 0.0
C443 C 0.88299 0.87766 0.59681 0.0
H444 H 0.84785 0.90364 0.70151 0.0
C445 C 0.80141 0.81349 0.66177 0.0
C446 C 0.80088 0.8144 0.70863 0.0
C447 C 0.8179 0.83144 0.64369 0.0
C448 C 0.85774 0.89589 0.67262 0.0
H449 H 0.92221 0.94077 0.49785 0.0
H450 H 0.89082 0.91174 0.52857 0.0
H451 H 0.87848 0.93352 0.67098 0.0
H452 H 0.81736 0.83499 0.77322 0.0
H453 H 0.84654 0.86577 0.7419 0.0
H454 H 0.86287 0.83988 0.59884 0.0
C455 C 0.90571 0.92363 0.55159 0.0
C456 C 0.87525 0.91309 0.65505 0.0
C457 C 0.92361 0.94041 0.53402 0.0
C458 C 0.8171 0.83383 0.73695 0.0
C459 C 0.83377 0.85162 0.7189 0.0
C460 C 0.86569 0.86037 0.61461 0.0
C461 C 0.90683 0.92239 0.59831 0.0
C462 C 0.88807 0.90419 0.61691 0.0
C463 C 0.83451 0.85063 0.672 0.0
C464 C 0.85278 0.86922 0.65277 0.0
H465 H 0.95921 0.96683 0.63261 0.0
H466 H 0.92779 0.93773 0.66319 0.0
H467 H 0.89285 0.87006 0.56777 0.0
H468 H 0.78906 0.79892 0.63889 0.0
H469 H 0.81746 0.83032 0.60741 0.0
C470 C 0.93437 0.05064 0.46575 0.0
C471 C 0.95627 0.06278 0.49443 0.0
C472 C 0.91594 0.0664 0.44236 0.0
C473 C 0.88826 0.13384 0.44695 0.0
H474 H 0.87059 0.11856 0.3177 0.0
C475 C 0.83011 0.20929 0.34441 0.0
C476 C 0.81153 0.19942 0.30766 0.0
C477 C 0.84734 0.19189 0.36628 0.0
C478 C 0.87491 0.12291 0.35388 0.0
H479 H 0.97579 0.10085 0.52193 0.0
H480 H 0.94328 0.12836 0.48202 0.0
H481 H 0.90065 0.08905 0.35824 0.0
H482 H 0.79643 0.1635 0.265 0.0
H483 H 0.82592 0.13294 0.30402 0.0
H484 H 0.86225 0.16724 0.44326 0.0
C485 C 0.94048 0.10669 0.47728 0.0
C486 C 0.89222 0.10601 0.37703 0.0
C487 C 0.95911 0.09094 0.50003 0.0
C488 C 0.81068 0.17175 0.29303 0.0
C489 C 0.82769 0.15424 0.31535 0.0
C490 C 0.8707 0.15049 0.42399 0.0
C491 C 0.91879 0.0946 0.44805 0.0
C492 C 0.89931 0.11153 0.4237 0.0
C493 C 0.84617 0.16406 0.35247 0.0
C494 C 0.86405 0.14551 0.37702 0.0
H495 H 0.93151 0.02898 0.46129 0.0
H496 H 0.89925 0.0566 0.42033 0.0
H497 H 0.89309 0.13833 0.48305 0.0
H498 H 0.83148 0.23055 0.35623 0.0
H499 H 0.8617 0.20038 0.39393 0.0
C500 C 0.6916 0.18197 0.27179 0.0
C501 C 0.71267 0.19156 0.25007 0.0
C502 C 0.67424 0.16141 0.24968 0.0
C503 C 0.64869 0.13675 0.13422 0.0
H504 H 0.61545 0.07914 0.18727 0.0
C505 C 0.57488 0.03866 0.0737 0.0
C506 C 0.55401 0.05038 0.04788 0.0
C507 C 0.59497 0.05472 0.09978 0.0
C508 C 0.62471 0.09508 0.17202 0.0
H509 H 0.73454 0.18535 0.19171 0.0
H510 H 0.70438 0.14948 0.15291 0.0
H511 H 0.6512 0.10739 0.23199 0.0
H512 H 0.53775 0.08785 0.02841 0.0
H513 H 0.57315 0.11612 0.07391 0.0
H514 H 0.62236 0.12456 0.07435 0.0
C515 C 0.70058 0.15833 0.18611 0.0
C516 C 0.64499 0.11128 0.19765 0.0
C517 C 0.71773 0.17887 0.20809 0.0
C518 C 0.55371 0.07839 0.04798 0.0
C519 C 0.57393 0.09449 0.0739 0.0
C520 C 0.62838 0.12069 0.10877 0.0
C521 C 0.678 0.15022 0.20584 0.0
C522 C 0.65719 0.13223 0.17889 0.0
C523 C 0.59467 0.08278 0.10017 0.0
C524 C 0.61617 0.09975 0.12742 0.0
H525 H 0.68748 0.19155 0.30436 0.0
H526 H 0.65699 0.1555 0.26566 0.0
H527 H 0.65743 0.15305 0.11912 0.0
H528 H 0.57563 0.01704 0.07393 0.0
H529 H 0.61092 0.04517 0.11921 0.0
C530 C 0.70665 0.82105 0.80868 0.0
C531 C 0.6948 0.79908 0.77988 0.0
C532 C 0.69061 0.83897 0.83245 0.0
C533 C 0.62328 0.86615 0.82882 0.0
H534 H 0.63702 0.88011 0.95886 0.0
C535 C 0.54727 0.92298 0.93234 0.0
C536 C 0.55707 0.94003 0.97104 0.0
C537 C 0.5646 0.90605 0.90972 0.0
C538 C 0.63311 0.87687 0.9225 0.0
H539 H 0.65694 0.77903 0.75232 0.0
H540 H 0.62893 0.8108 0.79274 0.0
H541 H 0.66692 0.85113 0.91734 0.0
H542 H 0.59275 0.95283 0.01634 0.0
H543 H 0.62324 0.92409 0.97601 0.0
H544 H 0.59005 0.89232 0.83327 0.0
C545 C 0.6506 0.81392 0.7974 0.0
C546 C 0.65022 0.86016 0.89881 0.0
C547 C 0.66663 0.79575 0.77437 0.0
C548 C 0.58456 0.93973 0.9868 0.0
C549 C 0.60203 0.92312 0.96372 0.0
C550 C 0.60646 0.88321 0.85234 0.0
C551 C 0.66244 0.83558 0.8269 0.0
C552 C 0.64526 0.85442 0.85183 0.0
C553 C 0.59231 0.90608 0.92473 0.0
C554 C 0.6109 0.88857 0.8996 0.0
H555 H 0.72829 0.82434 0.81295 0.0
H556 H 0.70018 0.85567 0.85471 0.0
H557 H 0.61923 0.86226 0.7925 0.0
H558 H 0.52611 0.92257 0.91963 0.0
H559 H 0.55615 0.89279 0.88057 0.0
C560 C 0.56091 0.55619 0.91463 0.0
C561 C 0.56189 0.55531 0.96143 0.0
C562 C 0.57903 0.57261 0.89682 0.0
C563 C 0.64423 0.61116 0.92614 0.0
H564 H 0.61912 0.647 0.82177 0.0
C565 C 0.70521 0.69645 0.86292 0.0
C566 C 0.70615 0.69542 0.81611 0.0
C567 C 0.68835 0.67867 0.88065 0.0
C568 C 0.62652 0.63694 0.85068 0.0
H569 H 0.58272 0.5712 0.02618 0.0
H570 H 0.6138 0.60029 0.99532 0.0
H571 H 0.58827 0.61766 0.8527 0.0
H572 H 0.69014 0.67469 0.75131 0.0
H573 H 0.66069 0.64386 0.78227 0.0
H574 H 0.68236 0.63105 0.92447 0.0
C575 C 0.59946 0.58783 0.97217 0.0
C576 C 0.60884 0.62001 0.8684 0.0
C577 C 0.58149 0.57122 0.98995 0.0
C578 C 0.68998 0.67606 0.78752 0.0
C579 C 0.67294 0.65848 0.80522 0.0
C580 C 0.66183 0.62831 0.90864 0.0
C581 C 0.59848 0.58881 0.92533 0.0
C582 C 0.61744 0.60682 0.90636 0.0
C583 C 0.67184 0.65964 0.85197 0.0
C584 C 0.6532 0.64135 0.87064 0.0
H585 H 0.54621 0.54407 0.8916 0.0
H586 H 0.57791 0.57238 0.86057 0.0
H587 H 0.65179 0.60105 0.95488 0.0
H588 H 0.71739 0.71108 0.88596 0.0
H589 H 0.68782 0.68022 0.9168 0.0
C590 C 0.69894 0.33447 0.21058 0.0
C591 C 0.70381 0.30962 0.18676 0.0
C592 C 0.68174 0.35275 0.19074 0.0
C593 C 0.64661 0.36667 0.07908 0.0
H594 H 0.60313 0.41218 0.15399 0.0
C595 C 0.55074 0.42076 0.01377 0.0
C596 C 0.55133 0.44879 0.02482 0.0
C597 C 0.57075 0.40505 0.0332 0.0
C598 C 0.61534 0.3997 0.13283 0.0
H599 H 0.69416 0.28416 0.12385 0.0
H600 H 0.66317 0.31521 0.09011 0.0
H601 H 0.63483 0.38182 0.18873 0.0
H602 H 0.57354 0.48243 0.06414 0.0
H603 H 0.60792 0.45463 0.09994 0.0
H604 H 0.62574 0.38373 0.023 0.0
C605 C 0.67336 0.32129 0.12339 0.0
C606 C 0.63366 0.38238 0.15265 0.0
C607 C 0.69101 0.3033 0.14287 0.0
C608 C 0.57236 0.46083 0.05561 0.0
C609 C 0.59203 0.44501 0.07592 0.0
C610 C 0.62785 0.38353 0.05926 0.0
C611 C 0.66852 0.34637 0.14692 0.0
C612 C 0.64952 0.3655 0.12604 0.0
C613 C 0.5914 0.41701 0.06471 0.0
C614 C 0.61204 0.40011 0.08596 0.0
H615 H 0.70875 0.33999 0.24435 0.0
H616 H 0.67908 0.372 0.20973 0.0
H617 H 0.65883 0.3546 0.05741 0.0
H618 H 0.53483 0.41095 0.99002 0.0
H619 H 0.56986 0.38347 0.02421 0.0
C620 C 0.93861 0.45657 0.46585 0.0
C621 C 0.95774 0.44725 0.49781 0.0
C622 C 0.92111 0.43855 0.43793 0.0
C623 C 0.9118 0.36553 0.3983 0.0
H624 H 0.84161 0.38881 0.35179 0.0
C625 C 0.84339 0.29802 0.26374 0.0
C626 C 0.81555 0.29907 0.26604 0.0
C627 C 0.8608 0.31664 0.2909 0.0
C628 C 0.86094 0.38171 0.36491 0.0
H629 H 0.9726 0.41219 0.52811 0.0
H630 H 0.94073 0.38073 0.4816 0.0
H631 H 0.87025 0.41906 0.40504 0.0
H632 H 0.78382 0.32085 0.29665 0.0
H633 H 0.81397 0.35182 0.34649 0.0
H634 H 0.90161 0.32745 0.3607 0.0
C635 C 0.94013 0.40176 0.47615 0.0
C636 C 0.8777 0.39936 0.39495 0.0
C637 C 0.95818 0.41978 0.50323 0.0
C638 C 0.8053 0.31926 0.29505 0.0
C639 C 0.82265 0.33736 0.32305 0.0
C640 C 0.89472 0.34759 0.3692 0.0
C641 C 0.92169 0.41085 0.44251 0.0
C642 C 0.90345 0.39161 0.41181 0.0
C643 C 0.85067 0.33631 0.32146 0.0
C644 C 0.86909 0.35548 0.35195 0.0
H645 H 0.93761 0.47776 0.46154 0.0
H646 H 0.90761 0.44641 0.4121 0.0
H647 H 0.93165 0.35891 0.40979 0.0
H648 H 0.85171 0.28276 0.24113 0.0
H649 H 0.88216 0.31558 0.28782 0.0
C650 C 0.83976 0.71685 0.74069 0.0
C651 C 0.81265 0.71055 0.744 0.0
C652 C 0.85576 0.69845 0.7181 0.0
C653 C 0.85258 0.63604 0.63776 0.0
H654 H 0.92735 0.63204 0.68639 0.0
C655 C 0.95162 0.56489 0.61728 0.0
C656 C 0.94932 0.55929 0.57014 0.0
C657 C 0.93422 0.5827 0.6379 0.0
C658 C 0.90645 0.63259 0.67257 0.0
H659 H 0.78083 0.68025 0.72615 0.0
H660 H 0.80898 0.6476 0.68784 0.0
H661 H 0.89825 0.6635 0.72366 0.0
H662 H 0.92694 0.56805 0.50765 0.0
H663 H 0.89711 0.5998 0.5435 0.0
H664 H 0.86061 0.60427 0.5877 0.0
C665 C 0.81782 0.66698 0.70179 0.0
C666 C 0.88981 0.65103 0.69359 0.0
C667 C 0.80171 0.68559 0.72399 0.0
C668 C 0.92914 0.57183 0.54408 0.0
C669 C 0.91192 0.58993 0.5647 0.0
C670 C 0.8692 0.61735 0.61696 0.0
C671 C 0.84514 0.67311 0.69879 0.0
C672 C 0.86267 0.65313 0.67639 0.0
C673 C 0.91428 0.59568 0.61192 0.0
C674 C 0.89639 0.61541 0.63405 0.0
H675 H 0.84861 0.73611 0.7554 0.0
H676 H 0.87648 0.7042 0.71561 0.0
H677 H 0.8319 0.63724 0.62321 0.0
H678 H 0.96676 0.55535 0.6384 0.0
H679 H 0.93632 0.58611 0.67434 0.0
C680 C 0.32048 0.33235 0.24134 0.0
C681 C 0.30469 0.31276 0.21256 0.0
C682 C 0.33723 0.35031 0.22383 0.0
C683 C 0.34737 0.38109 0.12054 0.0
H684 H 0.42075 0.39372 0.17635 0.0
C685 C 0.42591 0.44041 0.03885 0.0
C686 C 0.44523 0.45671 0.06728 0.0
C687 C 0.40839 0.42336 0.05675 0.0
C688 C 0.40021 0.39082 0.16069 0.0
H689 H 0.29391 0.29706 0.14261 0.0
H690 H 0.32296 0.32853 0.11215 0.0
H691 H 0.39081 0.36349 0.20738 0.0
H692 H 0.46084 0.46823 0.13706 0.0
H693 H 0.42992 0.43918 0.16827 0.0
H694 H 0.35651 0.40868 0.07425 0.0
C695 C 0.32236 0.32997 0.14828 0.0
C696 C 0.38306 0.37338 0.17847 0.0
C697 C 0.30582 0.31181 0.1658 0.0
C698 C 0.44635 0.45582 0.11409 0.0
C699 C 0.42868 0.43897 0.13201 0.0
C700 C 0.36443 0.39875 0.10299 0.0
C701 C 0.33839 0.34932 0.1771 0.0
C702 C 0.35647 0.36822 0.15852 0.0
C703 C 0.40956 0.42233 0.1036 0.0
C704 C 0.39115 0.40381 0.1227 0.0
H705 H 0.32015 0.33365 0.27751 0.0
H706 H 0.34914 0.36515 0.2469 0.0
H707 H 0.32688 0.3778 0.10473 0.0
H708 H 0.42459 0.44043 1.00262 0.0
H709 H 0.39429 0.4106 0.03366 0.0
C710 C 0.45842 0.59205 1.00784 0.0
C711 C 0.45626 0.56387 1.00066 0.0
C712 C 0.4394 0.60781 0.98603 0.0
C713 C 0.39172 0.60819 0.88567 0.0
H714 H 0.35945 0.66682 0.95463 0.0
C715 C 0.30946 0.67365 0.80352 0.0
C716 C 0.30932 0.70103 0.81989 0.0
C717 C 0.32661 0.65608 0.82536 0.0
C718 C 0.36854 0.65083 0.93464 0.0
H719 H 0.43231 0.53001 0.96567 0.0
H720 H 0.39939 0.5577 0.92624 0.0
H721 H 0.39077 0.63776 0.99312 0.0
H722 H 0.32759 0.73162 0.87118 0.0
H723 H 0.35813 0.70138 0.90814 0.0
H724 H 0.37036 0.62171 0.82695 0.0
C725 C 0.41583 0.5675 0.94885 0.0
C726 C 0.38636 0.63407 0.95683 0.0
C727 C 0.43464 0.5517 0.97135 0.0
C728 C 0.32701 0.71057 0.85801 0.0
C729 C 0.34441 0.69312 0.87943 0.0
C730 C 0.37419 0.62521 0.8633 0.0
C731 C 0.41802 0.59572 0.95612 0.0
C732 C 0.39822 0.61268 0.93257 0.0
C733 C 0.34429 0.66555 0.86373 0.0
C734 C 0.36247 0.6469 0.88746 0.0
H735 H 0.47487 0.60198 0.03028 0.0
H736 H 0.44167 0.62951 0.99197 0.0
H737 H 0.40081 0.59197 0.86613 0.0
H738 H 0.29593 0.66565 0.77437 0.0
H739 H 0.3256 0.63497 0.81258 0.0
C740 C 0.20637 0.6885 0.71864 0.0
C741 C 0.19688 0.70804 0.74984 0.0
C742 C 0.1884 0.67065 0.69131 0.0
C743 C 0.12456 0.63607 0.68329 0.0
H744 H 0.12336 0.63573 0.55369 0.0
C745 C 0.05147 0.59052 0.51803 0.0
C746 C 0.05247 0.5629 0.52238 0.0
C747 C 0.06955 0.60849 0.54514 0.0
C748 C 0.12355 0.63572 0.5898 0.0
H749 H 0.16155 0.72354 0.77887 0.0
H750 H 0.13001 0.69141 0.73185 0.0
H751 H 0.1544 0.66657 0.60433 0.0
H752 H 0.07363 0.53211 0.55672 0.0
H753 H 0.10461 0.56372 0.60535 0.0
H754 H 0.09421 0.60472 0.66873 0.0
C755 C 0.15132 0.69042 0.72811 0.0
C756 C 0.14125 0.65317 0.6186 0.0
C757 C 0.16928 0.70869 0.75485 0.0
C758 C 0.07219 0.5534 0.55331 0.0
C759 C 0.08986 0.57138 0.58103 0.0
C760 C 0.10725 0.61822 0.65448 0.0
C761 C 0.16076 0.67165 0.69563 0.0
C762 C 0.14183 0.65345 0.66548 0.0
C763 C 0.08851 0.59903 0.57733 0.0
C764 C 0.10664 0.61798 0.60759 0.0
H765 H 0.22763 0.68735 0.71465 0.0
H766 H 0.19604 0.65608 0.66674 0.0
H767 H 0.12483 0.636 0.71941 0.0
H768 H 0.03648 0.59827 0.49422 0.0
H769 H 0.06828 0.6298 0.54185 0.0
C770 C 0.16926 0.29945 0.26686 0.0
C771 C 0.19746 0.30127 0.27529 0.0
C772 C 0.15337 0.31871 0.28779 0.0
C773 C 0.1522 0.36643 0.38774 0.0
H774 H 0.09529 0.39984 0.31656 0.0
C775 C 0.08734 0.4499 0.46736 0.0
C776 C 0.0601 0.45059 0.4501 0.0
C777 C 0.1049 0.43251 0.44602 0.0
C778 C 0.11078 0.39044 0.33715 0.0
H779 H 0.23123 0.32485 0.31154 0.0
H780 H 0.2033 0.35816 0.34942 0.0
H781 H 0.1243 0.36786 0.27938 0.0
H782 H 0.02975 0.43311 0.39761 0.0
H783 H 0.05994 0.40214 0.3615 0.0
H784 H 0.13822 0.38811 0.44572 0.0
C785 C 0.19358 0.34181 0.32652 0.0
C786 C 0.12751 0.37224 0.31571 0.0
C787 C 0.20952 0.32278 0.30492 0.0
C788 C 0.0507 0.43327 0.41148 0.0
C789 C 0.06813 0.41561 0.39056 0.0
C790 C 0.1352 0.38433 0.40933 0.0
C791 C 0.16536 0.33996 0.31805 0.0
C792 C 0.1483 0.35999 0.34079 0.0
C793 C 0.09554 0.41511 0.40727 0.0
C794 C 0.11415 0.3965 0.38434 0.0
H795 H 0.15943 0.28309 0.24413 0.0
H796 H 0.13165 0.31672 0.28092 0.0
H797 H 0.16795 0.35704 0.40789 0.0
H798 H 0.09523 0.46315 0.49692 0.0
H799 H 0.1259 0.43306 0.45956 0.0
C800 C 0.02287 0.03384 0.85778 0.0
C801 C 0.01426 0.01264 0.82446 0.0
C802 C 0.01988 0.03184 0.90303 0.0
C803 C 0.01102 0.98219 0.983 0.0
H804 H 0.98812 0.0438 0.05804 0.0
C805 C 0.98291 0.97502 0.16302 0.0
C806 C 0.99133 0.99634 0.19622 0.0
C807 C 0.98604 0.9769 0.11778 0.0
C808 C 0.99485 0.02651 0.03769 0.0
H809 H 0.9953 0.97288 0.81259 0.0
H810 H 0.99008 0.96939 0.89166 0.0
H811 H 0.99243 0.0473 0.97876 0.0
H812 H 0.01018 0.03614 0.20795 0.0
H813 H 0.01567 0.03943 0.12894 0.0
H814 H 0.01344 0.96141 0.04194 0.0
C815 C 0.9995 0.98742 0.88278 0.0
C816 C 0.99729 0.0285 0.99223 0.0
C817 C 1.00248 0.98942 0.83748 0.0
C818 C 1.00314 0.01952 0.18313 0.0
C819 C 0.00626 0.02141 0.13786 0.0
C820 C 0.00859 0.9802 0.02847 0.0
C821 C 0.00823 0.00858 0.9161 0.0
C822 C 0.00541 0.00637 0.96435 0.0
C823 C 0.99765 1.00016 0.10462 0.0
C824 C 1.00047 1.00233 0.05635 0.0
H825 H 0.03247 0.0518 0.84903 0.0
H826 H 0.02721 0.04833 0.92791 0.0
H827 H 0.01773 0.9649 0.96263 0.0
H828 H 0.97332 0.95707 0.17183 0.0
H829 H 0.97881 0.96034 0.09296 0.0
C830 C 0.24594 0.76326 0.43123 0.0
C831 C 0.25165 0.73788 0.44556 0.0
C832 C 0.24656 0.7676 0.38603 0.0
C833 C 0.24346 0.73151 0.27085 0.0
H834 H 0.27434 0.79809 0.24159 0.0
C835 C 0.26272 0.74785 0.08866 0.0
C836 C 0.25703 0.77325 0.07442 0.0
C837 C 0.26214 0.74347 0.13386 0.0
C838 C 0.26537 0.7795 0.24912 0.0
H839 H 0.26304 0.69731 0.42337 0.0
H840 H 0.26405 0.70485 0.3448 0.0
H841 H 0.27299 0.79073 0.32027 0.0
H842 H 0.24571 0.81382 0.09675 0.0
H843 H 0.24477 0.80621 0.1753 0.0
H844 H 0.23583 0.72028 0.19969 0.0
C845 C 0.25863 0.72131 0.36833 0.0
C846 C 0.26458 0.77529 0.2943 0.0
C847 C 0.25803 0.71698 0.41348 0.0
C848 C 0.2507 0.79413 0.10657 0.0
C849 C 0.25015 0.78976 0.15171 0.0
C850 C 0.24425 0.73573 0.22566 0.0
C851 C 0.2529 0.74667 0.35397 0.0
C852 C 0.25362 0.75123 0.30579 0.0
C853 C 0.25586 0.76438 0.166 0.0
C854 C 0.2552 0.75979 0.21417 0.0
H855 H 0.24058 0.77972 0.45481 0.0
H856 H 0.24166 0.78728 0.37608 0.0
H857 H 0.23449 0.71292 0.27839 0.0
H858 H 0.26802 0.7314 0.06501 0.0
H859 H 0.26703 0.72377 0.14373 0.0
C860 C 0.47732 0.97507 0.68717 0.0
C861 C 0.48841 0.99545 0.7202 0.0
C862 C 0.48135 0.97563 0.64189 0.0
C863 C 0.52524 0.0053 0.56709 0.0
H864 H 0.46521 0.98623 0.47555 0.0
C865 C 0.53064 0.02009 0.37977 0.0
C866 C 0.51926 0.9996 0.34721 0.0
C867 C 0.52658 0.02004 0.42515 0.0
C868 C 0.48228 0.99134 0.50061 0.0
H869 H 0.51247 0.03245 0.73122 0.0
H870 H 0.51952 0.03342 0.65227 0.0
H871 H 0.4592 0.98493 0.55476 0.0
H872 H 0.49474 0.96291 0.33711 0.0
H873 H 0.48769 0.96278 0.41615 0.0
H874 H 0.54834 0.01165 0.51292 0.0
C875 C 0.50798 0.01679 0.6615 0.0
C876 C 0.47884 0.99058 0.54609 0.0
C877 C 0.50395 0.01622 0.70682 0.0
C878 C 0.50346 0.97923 0.36113 0.0
C879 C 0.49943 0.97916 0.40653 0.0
C880 C 0.52869 0.00605 0.52159 0.0
C881 C 0.49657 0.99659 0.62839 0.0
C882 C 0.50028 0.9975 0.57994 0.0
C883 C 0.51106 0.99948 0.43919 0.0
C884 C 0.50727 0.99903 0.48772 0.0
H885 H 0.46563 0.95852 0.69635 0.0
H886 H 0.47269 0.95947 0.61747 0.0
H887 H 0.5423 0.0104 0.59217 0.0
H888 H 0.54258 0.03632 0.37014 0.0
H889 H 0.53545 0.03628 0.44921 0.0
C890 C 0.24108 0.21838 0.91557 0.0
C891 C 0.24759 0.23956 0.94997 0.0
C892 C 0.24298 0.22202 0.87051 0.0
C893 C 0.24486 0.27475 0.79343 0.0
H894 H 0.27297 0.21799 0.71443 0.0
C895 C 0.26866 0.29027 0.61378 0.0
C896 C 0.26222 0.26907 0.57937 0.0
C897 C 0.26668 0.28665 0.65882 0.0
C898 C 0.26476 0.23392 0.73588 0.0
H899 H 0.26121 0.28127 0.96371 0.0
H900 H 0.26503 0.28749 0.8851 0.0
H901 H 0.27034 0.21186 0.79329 0.0
H902 H 0.24862 0.22735 0.56563 0.0
H903 H 0.24466 0.22117 0.6442 0.0
H904 H 0.23928 0.29681 0.73601 0.0
C905 C 0.25813 0.26812 0.89301 0.0
C906 C 0.26328 0.23042 0.78114 0.0
C907 C 0.25623 0.26446 0.93814 0.0
C908 C 0.25355 0.24418 0.59119 0.0
C909 C 0.25158 0.24054 0.63631 0.0
C910 C 0.24634 0.27825 0.74816 0.0
C911 C 0.25149 0.24694 0.85861 0.0
C912 C 0.2533 0.25078 0.8105 0.0
C913 C 0.25816 0.26173 0.6707 0.0
C914 C 0.25632 0.25788 0.7188 0.0
H915 H 0.23469 0.19882 0.92345 0.0
H916 H 0.23744 0.20535 0.8449 0.0
H917 H 0.23666 0.29068 0.81489 0.0
H918 H 0.27506 0.30983 0.6059 0.0
H919 H 0.27218 0.30333 0.68442 0.0
C920 C 0.75484 0.26628 0.91935 0.0
C921 C 0.75185 0.2401 0.93154 0.0
C922 C 0.75428 0.27069 0.87402 0.0
C923 C 0.73073 0.24028 0.75886 0.0
H924 H 0.78333 0.28909 0.72284 0.0
C925 C 0.72416 0.27398 0.57966 0.0
C926 C 0.74825 0.27438 0.55942 0.0
C927 C 0.72449 0.26983 0.62504 0.0
C928 C 0.76859 0.2753 0.73235 0.0
H929 H 0.74637 0.19801 0.90522 0.0
H930 H 0.74498 0.2058 0.82635 0.0
H931 H 0.78412 0.28175 0.80211 0.0
H932 H 0.7916 0.27101 0.57114 0.0
H933 H 0.79218 0.26368 0.65038 0.0
H934 H 0.71533 0.23367 0.68907 0.0
C935 C 0.74747 0.22293 0.85188 0.0
C936 C 0.76887 0.27131 0.7778 0.0
C937 C 0.7482 0.21849 0.89717 0.0
C938 C 0.77268 0.27058 0.58564 0.0
C939 C 0.77304 0.26665 0.63113 0.0
C940 C 0.73031 0.24444 0.71347 0.0
C941 C 0.75056 0.24906 0.83977 0.0
C942 C 0.75 0.25367 0.79156 0.0
C943 C 0.74894 0.2662 0.65134 0.0
C944 C 0.74929 0.26193 0.69966 0.0
H945 H 0.75728 0.28345 0.94479 0.0
H946 H 0.75638 0.2911 0.86574 0.0
H947 H 0.71578 0.22674 0.76842 0.0
H948 H 0.70499 0.27661 0.56027 0.0
H949 H 0.70561 0.2698 0.6397 0.0
C950 C 0.73854 0.71925 0.41342 0.0
C951 C 0.74666 0.73987 0.4481 0.0
C952 C 0.74085 0.72274 0.36841 0.0
C953 C 0.74717 0.77537 0.2922 0.0
H954 H 0.76977 0.71626 0.21143 0.0
C955 C 0.77153 0.78893 0.11199 0.0
C956 C 0.76322 0.76834 0.07735 0.0
C957 C 0.76938 0.78545 0.15705 0.0
C958 C 0.76312 0.73288 0.23337 0.0
H959 H 0.76368 0.78039 0.46233 0.0
H960 H 0.76821 0.78629 0.38382 0.0
H961 H 0.76689 0.71032 0.29029 0.0
H962 H 0.74606 0.72787 0.06325 0.0
H963 H 0.74181 0.72198 0.14187 0.0
H964 H 0.74341 0.79793 0.23528 0.0
C965 C 0.75971 0.7675 0.39147 0.0
C966 C 0.76149 0.72948 0.27866 0.0
C967 C 0.75741 0.76401 0.43657 0.0
C968 C 0.75247 0.74423 0.08898 0.0
C969 C 0.75033 0.74073 0.13413 0.0
C970 C 0.74881 0.77877 0.24692 0.0
C971 C 0.75139 0.74693 0.35679 0.0
C972 C 0.75347 0.75067 0.30867 0.0
C973 C 0.75881 0.76129 0.16875 0.0
C974 C 0.75681 0.75757 0.2169 0.0
H975 H 0.73052 0.70024 0.42103 0.0
H976 H 0.73398 0.70656 0.34262 0.0
H977 H 0.7405 0.79198 0.31414 0.0
H978 H 0.77956 0.80791 0.10429 0.0
H979 H 0.77636 0.80161 0.18279 0.0
C980 C 0.46937 0.48808 0.66489 0.0
C981 C 0.48956 0.49754 0.69956 0.0
C982 C 0.47278 0.49017 0.6198 0.0
C983 C 0.52504 0.49894 0.54379 0.0
H984 H 0.46464 0.51861 0.46247 0.0
C985 C 0.53727 0.52395 0.36361 0.0
C986 C 0.51707 0.51456 0.32891 0.0
C987 C 0.53388 0.52171 0.40867 0.0
C988 C 0.48163 0.51278 0.48458 0.0
H989 H 0.52928 0.51658 0.7137 0.0
H990 H 0.535 0.52075 0.63503 0.0
H991 H 0.45891 0.51538 0.54131 0.0
H992 H 0.47738 0.49546 0.31466 0.0
H993 H 0.47171 0.49103 0.39327 0.0
H994 H 0.54776 0.49635 0.48705 0.0
C995 C 0.51663 0.51138 0.64277 0.0
C996 C 0.47836 0.51094 0.52983 0.0
C997 C 0.51322 0.50927 0.68793 0.0
C998 C 0.49344 0.50272 0.34046 0.0
C999 C 0.49006 0.50046 0.38559 0.0
C1000 C 0.52832 0.50077 0.49853 0.0
C1001 C 0.49645 0.50185 0.60813 0.0
C1002 C 0.50002 0.50399 0.56002 0.0
C1003 C 0.51024 0.50995 0.42026 0.0
C1004 C 0.50666 0.50773 0.46835 0.0
H1005 H 0.45072 0.47926 0.67257 0.0
H1006 H 0.45694 0.48235 0.59402 0.0
H1007 H 0.54203 0.49312 0.5659 0.0
H1008 H 0.55589 0.53286 0.35598 0.0
H1009 H 0.54972 0.5295 0.43448 0.0
C1010 C 0.03089 0.52953 0.85661 0.0
C1011 C 0.02035 0.50887 0.82363 0.0
C1012 C 0.02675 0.52893 0.90185 0.0
C1013 C 0.01012 0.48219 0.98297 0.0
H1014 H 0.995 0.54758 0.05662 0.0
C1015 C 0.97901 0.48171 0.16314 0.0
C1016 C 0.98945 0.50242 0.1961 0.0
C1017 C 0.98309 0.48235 0.11789 0.0
C1018 C 0.99954 0.52918 0.0367 0.0
H1019 H 0.99708 0.47137 0.8126 0.0
H1020 H 0.98948 0.47056 0.89135 0.0
H1021 H 1.00088 0.54919 0.97738 0.0
H1022 H 0.01247 0.54007 0.20707 0.0
H1023 H 0.01999 0.54095 0.12831 0.0
H1024 H 0.00881 0.46219 0.04229 0.0
C1025 C 1.0012 0.48711 0.88227 0.0
C1026 C 1.00288 0.53011 0.9912 0.0
C1027 C 0.00528 0.48775 0.837 0.0
C1028 C 1.00435 0.52365 0.18269 0.0
C1029 C 0.00838 0.52432 0.1374 0.0
C1030 C 0.00679 0.48127 0.02847 0.0
C1031 C 0.01201 0.50762 0.91534 0.0
C1032 C 0.00821 0.50662 0.96373 0.0
C1033 C 0.99768 0.50376 0.10436 0.0
C1034 C 1.00145 0.50476 0.05595 0.0
H1035 H 0.04236 0.54624 0.84746 0.0
H1036 H 0.03556 0.54495 0.92641 0.0
H1037 H 0.01465 0.4638 0.96304 0.0
H1038 H 0.96769 0.46491 0.17232 0.0
H1039 H 0.97435 0.46629 0.09336 0.0
loop_
_geom_bond_atom_site_label_1
_geom_bond_atom_site_label_2
_geom_bond_distance
_geom_bond_site_symmetry_2
_ccdc_geom_bond_type
Gd0 C3 2.818 1_655 S
Gd0 O20 2.377 1_665 S
Gd0 O22 2.448 1_655 S
Gd0 O23 2.506 . S
Gd0 O24 2.435 1_655 S
Gd0 O25 2.717 1_655 S
Gd0 O27 2.395 . S
Gd0 O31 2.327 1_565 S
Gd1 C12 2.818 1_455 S
Gd1 O21 2.395 . S
Gd1 O25 2.327 1_545 S
Gd1 O26 2.377 1_445 S
Gd1 O28 2.448 1_455 S
Gd1 O29 2.506 . S
Gd1 O30 2.435 1_455 S
Gd1 O31 2.717 1_455 S
C2 O20 1.240 . S
C2 O21 1.240 . S
C3 Gd0 2.818 1_455 S
C3 C4 1.510 . S
C3 O22 1.249 . S
C3 O23 1.252 1_455 S
C4 C3 1.510 . S
C4 C5 1.404 . S
C4 C6 1.352 1_565 S
C5 C4 1.404 . S
C5 C9 1.389 . S
C5 H32 0.930 . S
C6 C4 1.352 1_545 S
C6 C8 1.374 . S
C6 H33 0.931 1_455 S
C7 C8 1.359 1_565 S
C7 C9 1.364 . S
C8 C6 1.374 . S
C8 C7 1.359 1_545 S
C8 H34 0.939 . S
C9 C5 1.389 . S
C9 C7 1.364 . S
C9 H35 0.931 . S
C10 O24 1.256 . S
C10 O25 1.257 . S
C11 O26 1.240 . S
C11 O27 1.240 . S
C12 Gd1 2.818 1_655 S
C12 C13 1.510 . S
C12 O28 1.249 . S
C12 O29 1.252 1_655 S
C13 C12 1.510 . S
C13 C14 1.404 . S
C13 C15 1.360 1_545 S
C14 C13 1.404 . S
C14 C18 1.389 . S
C14 H36 0.930 . S
C15 C13 1.360 1_565 S
C15 C17 1.387 . S
C15 H37 0.910 1_655 S
C16 C17 1.359 1_545 S
C16 C18 1.364 . S
C17 C15 1.387 . S
C17 C16 1.359 1_565 S
C17 H38 0.937 . S
C18 C14 1.389 . S
C18 C16 1.364 . S
C18 H39 0.931 . S
C19 O30 1.256 . S
C19 O31 1.257 . S
O20 Gd0 2.377 1_445 S
O20 C2 1.240 . S
O21 Gd1 2.395 . S
O21 C2 1.240 . S
O22 Gd0 2.448 1_455 S
O22 C3 1.249 . S
O23 Gd0 2.506 . S
O23 C3 1.252 1_655 S
O24 Gd0 2.435 1_455 S
O24 C10 1.256 . S
O25 Gd0 2.717 1_455 S
O25 Gd1 2.327 1_565 S
O25 C10 1.257 . S
O26 Gd1 2.377 1_665 S
O26 C11 1.240 . S
O27 Gd0 2.395 . S
O27 C11 1.240 . S
O28 Gd1 2.448 1_655 S
O28 C12 1.249 . S
O29 Gd1 2.506 . S
O29 C12 1.252 1_455 S
O30 Gd1 2.435 1_655 S
O30 C19 1.256 . S
O31 Gd0 2.327 1_545 S
O31 Gd1 2.717 1_655 S
O31 C19 1.257 . S
H32 C5 0.930 . S
H33 C6 0.931 1_655 S
H34 C8 0.939 . S
H35 C9 0.931 . S
H36 C14 0.930 . S
H37 C15 0.910 1_455 S
H38 C17 0.937 . S
H39 C18 0.931 . S
Gd40 C43 2.818 . S
Gd40 O60 2.377 . S
Gd40 O62 2.448 . S
Gd40 O63 2.506 . S
Gd40 O64 2.435 . S
Gd40 O65 2.717 . S
Gd40 O67 2.395 . S
Gd40 O71 2.327 . S
Gd41 C52 2.818 . S
Gd41 O61 2.395 . S
Gd41 O65 2.327 . S
Gd41 O66 2.377 . S
Gd41 O68 2.448 . S
Gd41 O69 2.506 . S
Gd41 O70 2.435 . S
Gd41 O71 2.717 . S
C42 O60 1.240 . S
C42 O61 1.240 . S
C43 Gd40 2.818 . S
C43 C44 1.510 . S
C43 O62 1.249 . S
C43 O63 1.252 . S
C44 C43 1.510 . S
C44 C45 1.404 . S
C44 C46 1.352 . S
C45 C44 1.404 . S
C45 C49 1.389 . S
C45 H72 0.930 . S
C46 C44 1.352 . S
C46 C48 1.374 . S
C46 H73 0.931 . S
C47 C48 1.359 . S
C47 C49 1.364 . S
C48 C46 1.374 . S
C48 C47 1.359 . S
C48 H74 0.931 . S
C49 C45 1.389 . S
C49 C47 1.364 . S
C49 H75 0.931 . S
C50 O64 1.256 . S
C50 O65 1.257 . S
C51 O66 1.240 . S
C51 O67 1.240 . S
C52 Gd41 2.818 . S
C52 C53 1.510 . S
C52 O68 1.249 . S
C52 O69 1.252 . S
C53 C52 1.510 . S
C53 C54 1.404 . S
C53 C55 1.352 . S
C54 C53 1.404 . S
C54 C58 1.389 . S
C54 H76 0.930 . S
C55 C53 1.352 . S
C55 C57 1.374 1_556 S
C55 H77 0.931 . S
C56 C57 1.359 . S
C56 C58 1.364 1_554 S
C57 C55 1.374 1_554 S
C57 C56 1.359 . S
C57 H78 0.931 . S
C58 C54 1.389 . S
C58 C56 1.364 1_556 S
C58 H79 0.931 1_556 S
C59 O70 1.256 . S
C59 O71 1.257 . S
O60 Gd40 2.377 . S
O60 C42 1.240 . S
O61 Gd41 2.395 . S
O61 C42 1.240 . S
O62 Gd40 2.448 . S
O62 C43 1.249 . S
O63 Gd40 2.506 . S
O63 C43 1.252 . S
O64 Gd40 2.435 . S
O64 C50 1.256 . S
O65 Gd40 2.717 . S
O65 Gd41 2.327 . S
O65 C50 1.257 . S
O66 Gd41 2.377 . S
O66 C51 1.240 . S
O67 Gd40 2.395 . S
O67 C51 1.240 . S
O68 Gd41 2.448 . S
O68 C52 1.249 . S
O69 Gd41 2.506 . S
O69 C52 1.252 . S
O70 Gd41 2.435 . S
O70 C59 1.256 . S
O71 Gd40 2.327 . S
O71 Gd41 2.717 . S
O71 C59 1.257 . S
H72 C45 0.930 . S
H73 C46 0.931 . S
H74 C48 0.931 . S
H75 C49 0.931 . S
H76 C54 0.930 . S
H77 C55 0.931 . S
H78 C57 0.931 . S
H79 C58 0.931 1_554 S
Gd80 C83 2.818 . S
Gd80 O100 2.377 1_565 S
Gd80 O102 2.448 . S
Gd80 O103 2.506 1_565 S
Gd80 O104 2.435 . S
Gd80 O105 2.717 1_554 S
Gd80 O107 2.395 1_554 S
Gd80 O111 2.327 1_565 S
Gd81 C92 2.818 . S
Gd81 O101 2.395 1_556 S
Gd81 O105 2.327 1_545 S
Gd81 O106 2.377 1_545 S
Gd81 O108 2.448 . S
Gd81 O109 2.506 1_545 S
Gd81 O110 2.435 . S
Gd81 O111 2.717 1_556 S
C82 O100 1.240 . S
C82 O101 1.240 . S
C83 Gd80 2.818 . S
C83 C84 1.510 . S
C83 O102 1.249 . S
C83 O103 1.252 1_565 S
C84 C83 1.510 . S
C84 C85 1.404 . S
C84 C86 1.352 1_565 S
C85 C84 1.404 . S
C85 C89 1.389 . S
C85 H112 0.930 . S
C86 C84 1.352 1_545 S
C86 C88 1.374 . S
C86 H113 0.931 . S
C87 C88 1.359 . S
C87 C89 1.364 1_545 S
C88 C86 1.374 . S
C88 C87 1.359 . S
C88 H114 0.931 . S
C89 C85 1.389 . S
C89 C87 1.364 1_565 S
C89 H115 0.931 . S
C90 O104 1.256 1_556 S
C90 O105 1.257 . S
C91 O106 1.240 . S
C91 O107 1.240 . S
C92 Gd81 2.818 . S
C92 C93 1.510 . S
C92 O108 1.249 . S
C92 O109 1.252 1_545 S
C93 C92 1.510 . S
C93 C94 1.404 . S
C93 C95 1.352 1_545 S
C94 C93 1.404 . S
C94 C98 1.389 . S
C94 H116 0.930 . S
C95 C93 1.352 1_565 S
C95 C97 1.374 . S
C95 H117 0.931 . S
C96 C97 1.359 . S
C96 C98 1.364 1_565 S
C97 C95 1.374 . S
C97 C96 1.359 . S
C97 H118 0.931 . S
C98 C94 1.389 . S
C98 C96 1.364 1_545 S
C98 H119 0.931 . S
C99 O110 1.256 1_554 S
C99 O111 1.257 . S
O100 Gd80 2.377 1_545 S
O100 C82 1.240 . S
O101 Gd81 2.395 1_554 S
O101 C82 1.240 . S
O102 Gd80 2.448 . S
O102 C83 1.249 . S
O103 Gd80 2.506 1_545 S
O103 C83 1.252 1_545 S
O104 Gd80 2.435 . S
O104 C90 1.256 1_554 S
O105 Gd80 2.717 1_556 S
O105 Gd81 2.327 1_565 S
O105 C90 1.257 . S
O106 Gd81 2.377 1_565 S
O106 C91 1.240 . S
O107 Gd80 2.395 1_556 S
O107 C91 1.240 . S
O108 Gd81 2.448 . S
O108 C92 1.249 . S
O109 Gd81 2.506 1_565 S
O109 C92 1.252 1_565 S
O110 Gd81 2.435 . S
O110 C99 1.256 1_556 S
O111 Gd80 2.327 1_545 S
O111 Gd81 2.717 1_554 S
O111 C99 1.257 . S
H112 C85 0.930 . S
H113 C86 0.931 . S
H114 C88 0.931 . S
H115 C89 0.931 . S
H116 C94 0.930 . S
H117 C95 0.931 . S
H118 C97 0.931 . S
H119 C98 0.931 . S
Gd120 C123 2.818 . S
Gd120 O140 2.377 . S
Gd120 O142 2.448 . S
Gd120 O143 2.506 . S
Gd120 O144 2.435 . S
Gd120 O145 2.717 . S
Gd120 O147 2.395 . S
Gd120 O151 2.327 . S
Gd121 C132 2.818 . S
Gd121 O141 2.395 . S
Gd121 O145 2.327 . S
Gd121 O146 2.377 . S
Gd121 O148 2.448 . S
Gd121 O149 2.506 . S
Gd121 O150 2.435 . S
Gd121 O151 2.717 . S
C122 O140 1.240 . S
C122 O141 1.240 . S
C123 Gd120 2.818 . S
C123 C124 1.510 . S
C123 O142 1.249 . S
C123 O143 1.252 . S
C124 C123 1.510 . S
C124 C125 1.404 . S
C124 C126 1.352 . S
C125 C124 1.404 . S
C125 C129 1.389 . S
C125 H152 0.930 . S
C126 C124 1.352 . S
C126 C128 1.374 . S
C126 H153 0.931 . S
C127 C128 1.359 . S
C127 C129 1.364 . S
C128 C126 1.374 . S
C128 C127 1.359 . S
C128 H154 0.931 . S
C129 C125 1.389 . S
C129 C127 1.364 . S
C129 H155 0.931 . S
C130 O144 1.256 . S
C130 O145 1.257 . S
C131 O146 1.240 . S
C131 O147 1.240 . S
C132 Gd121 2.818 . S
C132 C133 1.510 . S
C132 O148 1.249 . S
C132 O149 1.252 . S
C133 C132 1.510 . S
C133 C134 1.404 . S
C133 C135 1.352 . S
C134 C133 1.404 . S
C134 C138 1.389 1_554 S
C134 H156 0.930 . S
C135 C133 1.352 . S
C135 C137 1.375 1_554 S
C135 H157 0.931 . S
C136 C137 1.358 . S
C136 C138 1.364 . S
C137 C135 1.375 1_556 S
C137 C136 1.358 . S
C137 H158 0.930 . S
C138 C134 1.389 1_556 S
C138 C136 1.364 . S
C138 H159 0.931 . S
C139 O150 1.256 . S
C139 O151 1.257 . S
O140 Gd120 2.377 . S
O140 C122 1.240 . S
O141 Gd121 2.395 . S
O141 C122 1.240 . S
O142 Gd120 2.448 . S
O142 C123 1.249 . S
O143 Gd120 2.506 . S
O143 C123 1.252 . S
O144 Gd120 2.435 . S
O144 C130 1.256 . S
O145 Gd120 2.717 . S
O145 Gd121 2.327 . S
O145 C130 1.257 . S
O146 Gd121 2.377 . S
O146 C131 1.240 . S
O147 Gd120 2.395 . S
O147 C131 1.240 . S
O148 Gd121 2.448 . S
O148 C132 1.249 . S
O149 Gd121 2.506 . S
O149 C132 1.252 . S
O150 Gd121 2.435 . S
O150 C139 1.256 . S
O151 Gd120 2.327 . S
O151 Gd121 2.717 . S
O151 C139 1.257 . S
H152 C125 0.930 . S
H153 C126 0.931 . S
H154 C128 0.931 . S
H155 C129 0.931 . S
H156 C134 0.930 . S
H157 C135 0.931 . S
H158 C137 0.930 . S
H159 C138 0.931 . S
Gd160 C163 2.818 . S
Gd160 O180 2.377 . S
Gd160 O182 2.448 . S
Gd160 O183 2.506 . S
Gd160 O184 2.435 . S
Gd160 O185 2.717 . S
Gd160 O187 2.395 . S
Gd160 O191 2.327 . S
Gd161 C172 2.818 . S
Gd161 O181 2.395 . S
Gd161 O185 2.327 . S
Gd161 O186 2.377 . S
Gd161 O188 2.448 . S
Gd161 O189 2.506 . S
Gd161 O190 2.435 . S
Gd161 O191 2.717 . S
C162 O180 1.240 . S
C162 O181 1.240 . S
C163 Gd160 2.818 . S
C163 C164 1.510 . S
C163 O182 1.249 . S
C163 O183 1.252 . S
C164 C163 1.510 . S
C164 C165 1.404 . S
C164 C166 1.352 . S
C165 C164 1.404 . S
C165 C169 1.389 . S
C165 H192 0.930 . S
C166 C164 1.352 . S
C166 C168 1.374 1_554 S
C166 H193 0.931 . S
C167 C168 1.359 . S
C167 C169 1.364 1_556 S
C168 C166 1.374 1_556 S
C168 C167 1.359 . S
C168 H194 0.931 . S
C169 C165 1.389 . S
C169 C167 1.364 1_554 S
C169 H195 0.931 1_554 S
C170 O184 1.256 . S
C170 O185 1.257 . S
C171 O186 1.240 . S
C171 O187 1.240 . S
C172 Gd161 2.818 . S
C172 C173 1.510 . S
C172 O188 1.249 . S
C172 O189 1.252 . S
C173 C172 1.510 . S
C173 C174 1.404 . S
C173 C175 1.352 . S
C174 C173 1.404 . S
C174 C178 1.389 . S
C174 H196 0.930 . S
C175 C173 1.352 . S
C175 C177 1.374 . S
C175 H197 0.931 . S
C176 C177 1.359 . S
C176 C178 1.364 . S
C177 C175 1.374 . S
C177 C176 1.359 . S
C177 H198 0.931 . S
C178 C174 1.389 . S
C178 C176 1.364 . S
C178 H199 0.931 . S
C179 O190 1.256 . S
C179 O191 1.257 . S
O180 Gd160 2.377 . S
O180 C162 1.240 . S
O181 Gd161 2.395 . S
O181 C162 1.240 . S
O182 Gd160 2.448 . S
O182 C163 1.249 . S
O183 Gd160 2.506 . S
O183 C163 1.252 . S
O184 Gd160 2.435 . S
O184 C170 1.256 . S
O185 Gd160 2.717 . S
O185 Gd161 2.327 . S
O185 C170 1.257 . S
O186 Gd161 2.377 . S
O186 C171 1.240 . S
O187 Gd160 2.395 . S
O187 C171 1.240 . S
O188 Gd161 2.448 . S
O188 C172 1.249 . S
O189 Gd161 2.506 . S
O189 C172 1.252 . S
O190 Gd161 2.435 . S
O190 C179 1.256 . S
O191 Gd160 2.327 . S
O191 Gd161 2.717 . S
O191 C179 1.257 . S
H192 C165 0.930 . S
H193 C166 0.931 . S
H194 C168 0.931 . S
H195 C169 0.931 1_556 S
H196 C174 0.930 . S
H197 C175 0.931 . S
H198 C177 0.931 . S
H199 C178 0.931 . S
Gd200 C203 2.818 . S
Gd200 O220 2.377 . S
Gd200 O222 2.448 . S
Gd200 O223 2.506 . S
Gd200 O224 2.435 . S
Gd200 O225 2.717 . S
Gd200 O227 2.395 . S
Gd200 O231 2.327 . S
Gd201 C212 2.818 . S
Gd201 O221 2.395 . S
Gd201 O225 2.327 . S
Gd201 O226 2.377 . S
Gd201 O228 2.448 . S
Gd201 O229 2.506 . S
Gd201 O230 2.435 . S
Gd201 O231 2.717 . S
C202 O220 1.240 . S
C202 O221 1.240 . S
C203 Gd200 2.818 . S
C203 C204 1.510 . S
C203 O222 1.249 . S
C203 O223 1.252 . S
C204 C203 1.510 . S
C204 C205 1.404 . S
C204 C206 1.352 . S
C205 C204 1.404 . S
C205 C209 1.389 1_556 S
C205 H232 0.930 . S
C206 C204 1.352 . S
C206 C208 1.373 1_556 S
C206 H233 0.931 . S
C207 C208 1.359 . S
C207 C209 1.364 . S
C208 C206 1.373 1_554 S
C208 C207 1.359 . S
C208 H234 0.931 . S
C209 C205 1.389 1_554 S
C209 C207 1.364 . S
C209 H235 0.931 . S
C210 O224 1.256 . S
C210 O225 1.257 . S
C211 O226 1.240 . S
C211 O227 1.240 . S
C212 Gd201 2.818 . S
C212 C213 1.510 . S
C212 O228 1.249 . S
C212 O229 1.252 . S
C213 C212 1.510 . S
C213 C214 1.404 . S
C213 C215 1.352 . S
C214 C213 1.404 . S
C214 C218 1.389 . S
C214 H236 0.930 . S
C215 C213 1.352 . S
C215 C217 1.374 . S
C215 H237 0.931 . S
C216 C217 1.359 . S
C216 C218 1.364 . S
C217 C215 1.374 . S
C217 C216 1.359 . S
C217 H238 0.931 . S
C218 C214 1.389 . S
C218 C216 1.364 . S
C218 H239 0.931 . S
C219 O230 1.256 . S
C219 O231 1.257 . S
O220 Gd200 2.377 . S
O220 C202 1.240 . S
O221 Gd201 2.395 . S
O221 C202 1.240 . S
O222 Gd200 2.448 . S
O222 C203 1.249 . S
O223 Gd200 2.506 . S
O223 C203 1.252 . S
O224 Gd200 2.435 . S
O224 C210 1.256 . S
O225 Gd200 2.717 . S
O225 Gd201 2.327 . S
O225 C210 1.257 . S
O226 Gd201 2.377 . S
O226 C211 1.240 . S
O227 Gd200 2.395 . S
O227 C211 1.240 . S
O228 Gd201 2.448 . S
O228 C212 1.249 . S
O229 Gd201 2.506 . S
O229 C212 1.252 . S
O230 Gd201 2.435 . S
O230 C219 1.256 . S
O231 Gd200 2.327 . S
O231 Gd201 2.717 . S
O231 C219 1.257 . S
H232 C205 0.930 . S
H233 C206 0.931 . S
H234 C208 0.931 . S
H235 C209 0.931 . S
H236 C214 0.930 . S
H237 C215 0.931 . S
H238 C217 0.931 . S
H239 C218 0.931 . S
Gd240 C243 2.818 . S
Gd240 O260 2.377 . S
Gd240 O262 2.448 . S
Gd240 O263 2.506 . S
Gd240 O264 2.435 . S
Gd240 O265 2.717 1_556 S
Gd240 O267 2.395 . S
Gd240 O271 2.327 . S
Gd241 C252 2.818 . S
Gd241 O261 2.395 . S
Gd241 O265 2.327 . S
Gd241 O266 2.377 . S
Gd241 O268 2.448 . S
Gd241 O269 2.506 . S
Gd241 O270 2.435 . S
Gd241 O271 2.717 1_554 S
C242 O260 1.240 . S
C242 O261 1.240 1_556 S
C243 Gd240 2.818 . S
C243 C244 1.510 . S
C243 O262 1.249 . S
C243 O263 1.252 . S
C244 C243 1.510 . S
C244 C245 1.404 . S
C244 C246 1.352 . S
C245 C244 1.404 . S
C245 C249 1.389 . S
C245 H272 0.930 . S
C246 C244 1.352 . S
C246 C248 1.374 . S
C246 H273 0.931 . S
C247 C248 1.359 . S
C247 C249 1.364 . S
C248 C246 1.374 . S
C248 C247 1.359 . S
C248 H274 0.931 . S
C249 C245 1.389 . S
C249 C247 1.364 . S
C249 H275 0.931 . S
C250 O264 1.256 1_554 S
C250 O265 1.257 . S
C251 O266 1.240 . S
C251 O267 1.240 1_554 S
C252 Gd241 2.818 . S
C252 C253 1.510 . S
C252 O268 1.249 . S
C252 O269 1.252 . S
C253 C252 1.510 . S
C253 C254 1.404 . S
C253 C255 1.352 . S
C254 C253 1.404 . S
C254 C258 1.389 . S
C254 H276 0.930 . S
C255 C253 1.352 . S
C255 C257 1.374 . S
C255 H277 0.931 . S
C256 C257 1.359 . S
C256 C258 1.364 . S
C257 C255 1.374 . S
C257 C256 1.359 . S
C257 H278 0.931 . S
C258 C254 1.389 . S
C258 C256 1.364 . S
C258 H279 0.931 . S
C259 O270 1.256 1_556 S
C259 O271 1.257 . S
O260 Gd240 2.377 . S
O260 C242 1.240 . S
O261 Gd241 2.395 . S
O261 C242 1.240 1_554 S
O262 Gd240 2.448 . S
O262 C243 1.249 . S
O263 Gd240 2.506 . S
O263 C243 1.252 . S
O264 Gd240 2.435 . S
O264 C250 1.256 1_556 S
O265 Gd240 2.717 1_554 S
O265 Gd241 2.327 . S
O265 C250 1.257 . S
O266 Gd241 2.377 . S
O266 C251 1.240 . S
O267 Gd240 2.395 . S
O267 C251 1.240 1_556 S
O268 Gd241 2.448 . S
O268 C252 1.249 . S
O269 Gd241 2.506 . S
O269 C252 1.252 . S
O270 Gd241 2.435 . S
O270 C259 1.256 1_554 S
O271 Gd240 2.327 . S
O271 Gd241 2.717 1_556 S
O271 C259 1.257 . S
H272 C245 0.930 . S
H273 C246 0.931 . S
H274 C248 0.931 . S
H275 C249 0.931 . S
H276 C254 0.930 . S
H277 C255 0.931 . S
H278 C257 0.931 . S
H279 C258 0.931 . S
Gd280 C283 2.818 1_455 S
Gd280 O300 2.377 1_455 S
Gd280 O302 2.448 1_455 S
Gd280 O303 2.506 . S
Gd280 O304 2.435 1_455 S
Gd280 O305 2.717 1_455 S
Gd280 O307 2.395 . S
Gd280 O311 2.327 . S
Gd281 C292 2.818 1_655 S
Gd281 O301 2.395 . S
Gd281 O305 2.327 . S
Gd281 O306 2.377 1_655 S
Gd281 O308 2.448 1_655 S
Gd281 O309 2.506 . S
Gd281 O310 2.435 1_655 S
Gd281 O311 2.717 1_655 S
C282 O300 1.240 . S
C282 O301 1.240 . S
C283 Gd280 2.818 1_655 S
C283 C284 1.510 . S
C283 O302 1.249 . S
C283 O303 1.252 1_655 S
C284 C283 1.510 . S
C284 C285 1.404 . S
C284 C286 1.356 . S
C285 C284 1.404 . S
C285 C289 1.389 . S
C285 H312 0.930 . S
C286 C284 1.356 . S
C286 C288 1.381 . S
C286 H313 0.919 1_655 S
C287 C288 1.359 . S
C287 C289 1.364 . S
C288 C286 1.381 . S
C288 C287 1.359 . S
C288 H314 0.930 . S
C289 C285 1.389 . S
C289 C287 1.364 . S
C289 H315 0.931 . S
C290 O304 1.256 . S
C290 O305 1.257 . S
C291 O306 1.240 . S
C291 O307 1.240 . S
C292 Gd281 2.818 1_455 S
C292 C293 1.510 . S
C292 O308 1.249 . S
C292 O309 1.252 1_455 S
C293 C292 1.510 . S
C293 C294 1.404 . S
C293 C295 1.358 . S
C294 C293 1.404 . S
C294 C298 1.389 . S
C294 H316 0.930 . S
C295 C293 1.358 . S
C295 C297 1.384 . S
C295 H317 0.914 1_455 S
C296 C297 1.359 . S
C296 C298 1.364 . S
C297 C295 1.384 . S
C297 C296 1.359 . S
C297 H318 0.932 . S
C298 C294 1.389 . S
C298 C296 1.364 . S
C298 H319 0.931 . S
C299 O310 1.256 . S
C299 O311 1.257 . S
O300 Gd280 2.377 1_655 S
O300 C282 1.240 . S
O301 Gd281 2.395 . S
O301 C282 1.240 . S
O302 Gd280 2.448 1_655 S
O302 C283 1.249 . S
O303 Gd280 2.506 . S
O303 C283 1.252 1_455 S
O304 Gd280 2.435 1_655 S
O304 C290 1.256 . S
O305 Gd280 2.717 1_655 S
O305 Gd281 2.327 . S
O305 C290 1.257 . S
O306 Gd281 2.377 1_455 S
O306 C291 1.240 . S
O307 Gd280 2.395 . S
O307 C291 1.240 . S
O308 Gd281 2.448 1_455 S
O308 C292 1.249 . S
O309 Gd281 2.506 . S
O309 C292 1.252 1_655 S
O310 Gd281 2.435 1_455 S
O310 C299 1.256 . S
O311 Gd280 2.327 . S
O311 Gd281 2.717 1_455 S
O311 C299 1.257 . S
H312 C285 0.930 . S
H313 C286 0.919 1_455 S
H314 C288 0.930 . S
H315 C289 0.931 . S
H316 C294 0.930 . S
H317 C295 0.914 1_655 S
H318 C297 0.932 . S
H319 C298 0.931 . S
C320 C321 1.349 . S
C320 C322 1.327 . S
C320 H345 0.950 . S
C321 C320 1.349 . S
C321 C337 1.349 . S
C322 C320 1.327 . S
C322 C341 1.429 . S
C322 H346 0.950 . S
C323 C340 1.574 . S
C323 C342 1.368 . S
C323 H347 0.949 . S
H324 C328 0.949 . S
C325 C326 1.349 . S
C325 C327 1.327 . S
C325 H348 0.950 . S
C326 C325 1.349 . S
C326 C338 1.349 . S
C327 C325 1.327 . S
C327 C343 1.429 . S
C327 H349 0.950 . S
C328 H324 0.949 . S
C328 C336 1.574 . S
C328 C344 1.368 . S
H329 C337 0.950 . S
H330 C335 0.950 . S
H331 C336 0.949 . S
H332 C338 0.950 . S
H333 C339 0.950 . S
H334 C340 0.949 . S
C335 H330 0.950 . S
C335 C337 1.327 . S
C335 C341 1.429 . S
C336 C328 1.574 . S
C336 H331 0.949 . S
C336 C342 1.368 . S
C337 C321 1.349 . S
C337 H329 0.950 . S
C337 C335 1.327 . S
C338 C326 1.349 . S
C338 H332 0.950 . S
C338 C339 1.327 . S
C339 H333 0.950 . S
C339 C338 1.327 . S
C339 C343 1.429 . S
C340 C323 1.574 . S
C340 H334 0.949 . S
C340 C344 1.368 . S
C341 C322 1.429 . S
C341 C335 1.429 . S
C341 C342 1.523 . S
C342 C323 1.368 . S
C342 C336 1.368 . S
C342 C341 1.523 . S
C343 C327 1.429 . S
C343 C339 1.429 . S
C343 C344 1.523 . S
C344 C328 1.368 . S
C344 C340 1.368 . S
C344 C343 1.523 . S
H345 C320 0.950 . S
H346 C322 0.950 . S
H347 C323 0.949 . S
H348 C325 0.950 . S
H349 C327 0.950 . S
C350 C351 1.349 . S
C350 C352 1.327 . S
C350 H375 0.950 . S
C351 C350 1.349 . S
C351 C367 1.349 . S
C352 C350 1.327 . S
C352 C371 1.429 . S
C352 H376 0.950 . S
C353 C370 1.574 . S
C353 C372 1.368 . S
C353 H377 0.949 . S
H354 C358 0.949 . S
C355 C356 1.349 . S
C355 C357 1.327 . S
C355 H378 0.950 . S
C356 C355 1.349 . S
C356 C368 1.349 . S
C357 C355 1.327 . S
C357 C373 1.429 . S
C357 H379 0.950 . S
C358 H354 0.949 . S
C358 C366 1.574 . S
C358 C374 1.368 . S
H359 C367 0.950 . S
H360 C365 0.950 . S
H361 C366 0.949 . S
H362 C368 0.950 . S
H363 C369 0.950 . S
H364 C370 0.949 . S
C365 H360 0.950 . S
C365 C367 1.327 . S
C365 C371 1.429 . S
C366 C358 1.574 . S
C366 H361 0.949 . S
C366 C372 1.368 . S
C367 C351 1.349 . S
C367 H359 0.950 . S
C367 C365 1.327 . S
C368 C356 1.349 . S
C368 H362 0.950 . S
C368 C369 1.327 . S
C369 H363 0.950 . S
C369 C368 1.327 . S
C369 C373 1.429 . S
C370 C353 1.574 . S
C370 H364 0.949 . S
C370 C374 1.368 . S
C371 C352 1.429 . S
C371 C365 1.429 . S
C371 C372 1.523 . S
C372 C353 1.368 . S
C372 C366 1.368 . S
C372 C371 1.523 . S
C373 C357 1.429 . S
C373 C369 1.429 . S
C373 C374 1.523 . S
C374 C358 1.368 . S
C374 C370 1.368 . S
C374 C373 1.523 . S
H375 C350 0.950 . S
H376 C352 0.950 . S
H377 C353 0.949 . S
H378 C355 0.950 . S
H379 C357 0.950 . S
C380 C381 1.349 . S
C380 C382 1.327 . S
C380 H405 0.950 . S
C381 C380 1.349 . S
C381 C397 1.349 . S
C382 C380 1.327 . S
C382 C401 1.429 . S
C382 H406 0.950 . S
C383 C400 1.574 . S
C383 C402 1.368 . S
C383 H407 0.949 . S
H384 C388 0.949 . S
C385 C386 1.349 . S
C385 C387 1.327 . S
C385 H408 0.950 . S
C386 C385 1.349 . S
C386 C398 1.349 . S
C387 C385 1.327 . S
C387 C403 1.429 . S
C387 H409 0.950 . S
C388 H384 0.949 . S
C388 C396 1.574 . S
C388 C404 1.368 . S
H389 C397 0.950 . S
H390 C395 0.950 . S
H391 C396 0.949 . S
H392 C398 0.950 . S
H393 C399 0.950 . S
H394 C400 0.949 . S
C395 H390 0.950 . S
C395 C397 1.327 . S
C395 C401 1.429 . S
C396 C388 1.574 . S
C396 H391 0.949 . S
C396 C402 1.368 . S
C397 C381 1.349 . S
C397 H389 0.950 . S
C397 C395 1.327 . S
C398 C386 1.349 . S
C398 H392 0.950 . S
C398 C399 1.327 . S
C399 H393 0.950 . S
C399 C398 1.327 . S
C399 C403 1.429 . S
C400 C383 1.574 . S
C400 H394 0.949 . S
C400 C404 1.368 . S
C401 C382 1.429 . S
C401 C395 1.429 . S
C401 C402 1.523 . S
C402 C383 1.368 . S
C402 C396 1.368 . S
C402 C401 1.523 . S
C403 C387 1.429 . S
C403 C399 1.429 . S
C403 C404 1.523 . S
C404 C388 1.368 . S
C404 C400 1.368 . S
C404 C403 1.523 . S
H405 C380 0.950 . S
H406 C382 0.950 . S
H407 C383 0.949 . S
H408 C385 0.950 . S
H409 C387 0.950 . S
C410 C411 1.349 . S
C410 C412 1.327 . S
C410 H435 0.950 . S
C411 C410 1.349 . S
C411 C427 1.349 . S
C412 C410 1.327 . S
C412 C431 1.429 . S
C412 H436 0.950 . S
C413 C430 1.574 . S
C413 C432 1.368 . S
C413 H437 0.949 . S
H414 C418 0.949 . S
C415 C416 1.349 . S
C415 C417 1.327 . S
C415 H438 0.950 . S
C416 C415 1.349 . S
C416 C428 1.349 . S
C417 C415 1.327 . S
C417 C433 1.429 . S
C417 H439 0.950 . S
C418 H414 0.949 . S
C418 C426 1.574 . S
C418 C434 1.368 . S
H419 C427 0.950 . S
H420 C425 0.950 . S
H421 C426 0.949 . S
H422 C428 0.950 . S
H423 C429 0.950 . S
H424 C430 0.949 . S
C425 H420 0.950 . S
C425 C427 1.327 . S
C425 C431 1.429 . S
C426 C418 1.574 . S
C426 H421 0.949 . S
C426 C432 1.368 . S
C427 C411 1.349 . S
C427 H419 0.950 . S
C427 C425 1.327 . S
C428 C416 1.349 . S
C428 H422 0.950 . S
C428 C429 1.327 . S
C429 H423 0.950 . S
C429 C428 1.327 . S
C429 C433 1.429 . S
C430 C413 1.574 . S
C430 H424 0.949 . S
C430 C434 1.368 . S
C431 C412 1.429 . S
C431 C425 1.429 . S
C431 C432 1.523 . S
C432 C413 1.368 . S
C432 C426 1.368 . S
C432 C431 1.523 . S
C433 C417 1.429 . S
C433 C429 1.429 . S
C433 C434 1.523 . S
C434 C418 1.368 . S
C434 C430 1.368 . S
C434 C433 1.523 . S
H435 C410 0.950 . S
H436 C412 0.950 . S
H437 C413 0.949 . S
H438 C415 0.950 . S
H439 C417 0.950 . S
C440 C441 1.349 . S
C440 C442 1.327 . S
C440 H465 0.950 . S
C441 C440 1.349 . S
C441 C457 1.349 . S
C442 C440 1.327 . S
C442 C461 1.429 . S
C442 H466 0.950 . S
C443 C460 1.574 . S
C443 C462 1.368 . S
C443 H467 0.949 . S
H444 C448 0.949 . S
C445 C446 1.349 . S
C445 C447 1.327 . S
C445 H468 0.950 . S
C446 C445 1.349 . S
C446 C458 1.349 . S
C447 C445 1.327 . S
C447 C463 1.429 . S
C447 H469 0.950 . S
C448 H444 0.949 . S
C448 C456 1.574 . S
C448 C464 1.368 . S
H449 C457 0.950 . S
H450 C455 0.950 . S
H451 C456 0.949 . S
H452 C458 0.950 . S
H453 C459 0.950 . S
H454 C460 0.949 . S
C455 H450 0.950 . S
C455 C457 1.327 . S
C455 C461 1.429 . S
C456 C448 1.574 . S
C456 H451 0.949 . S
C456 C462 1.368 . S
C457 C441 1.349 . S
C457 H449 0.950 . S
C457 C455 1.327 . S
C458 C446 1.349 . S
C458 H452 0.950 . S
C458 C459 1.327 . S
C459 H453 0.950 . S
C459 C458 1.327 . S
C459 C463 1.429 . S
C460 C443 1.574 . S
C460 H454 0.949 . S
C460 C464 1.368 . S
C461 C442 1.429 . S
C461 C455 1.429 . S
C461 C462 1.523 . S
C462 C443 1.368 . S
C462 C456 1.368 . S
C462 C461 1.523 . S
C463 C447 1.429 . S
C463 C459 1.429 . S
C463 C464 1.523 . S
C464 C448 1.368 . S
C464 C460 1.368 . S
C464 C463 1.523 . S
H465 C440 0.950 . S
H466 C442 0.950 . S
H467 C443 0.949 . S
H468 C445 0.950 . S
H469 C447 0.950 . S
C470 C471 1.349 . S
C470 C472 1.327 . S
C470 H495 0.950 . S
C471 C470 1.349 . S
C471 C487 1.349 . S
C472 C470 1.327 . S
C472 C491 1.429 . S
C472 H496 0.950 . S
C473 C490 1.574 . S
C473 C492 1.368 . S
C473 H497 0.949 . S
H474 C478 0.949 . S
C475 C476 1.349 . S
C475 C477 1.327 . S
C475 H498 0.950 . S
C476 C475 1.349 . S
C476 C488 1.349 . S
C477 C475 1.327 . S
C477 C493 1.429 . S
C477 H499 0.950 . S
C478 H474 0.949 . S
C478 C486 1.574 . S
C478 C494 1.368 . S
H479 C487 0.950 . S
H480 C485 0.950 . S
H481 C486 0.949 . S
H482 C488 0.950 . S
H483 C489 0.950 . S
H484 C490 0.949 . S
C485 H480 0.950 . S
C485 C487 1.327 . S
C485 C491 1.429 . S
C486 C478 1.574 . S
C486 H481 0.949 . S
C486 C492 1.368 . S
C487 C471 1.349 . S
C487 H479 0.950 . S
C487 C485 1.327 . S
C488 C476 1.349 . S
C488 H482 0.950 . S
C488 C489 1.327 . S
C489 H483 0.950 . S
C489 C488 1.327 . S
C489 C493 1.429 . S
C490 C473 1.574 . S
C490 H484 0.949 . S
C490 C494 1.368 . S
C491 C472 1.429 . S
C491 C485 1.429 . S
C491 C492 1.523 . S
C492 C473 1.368 . S
C492 C486 1.368 . S
C492 C491 1.523 . S
C493 C477 1.429 . S
C493 C489 1.429 . S
C493 C494 1.523 . S
C494 C478 1.368 . S
C494 C490 1.368 . S
C494 C493 1.523 . S
H495 C470 0.950 . S
H496 C472 0.950 . S
H497 C473 0.949 . S
H498 C475 0.950 . S
H499 C477 0.950 . S
C500 C501 1.349 . S
C500 C502 1.327 . S
C500 H525 0.950 . S
C501 C500 1.349 . S
C501 C517 1.349 . S
C502 C500 1.327 . S
C502 C521 1.429 . S
C502 H526 0.950 . S
C503 C520 1.574 . S
C503 C522 1.368 . S
C503 H527 0.949 . S
H504 C508 0.949 . S
C505 C506 1.349 . S
C505 C507 1.327 . S
C505 H528 0.950 1_554 S
C506 C505 1.349 . S
C506 C518 1.349 . S
C507 C505 1.327 . S
C507 C523 1.429 . S
C507 H529 0.950 . S
C508 H504 0.949 . S
C508 C516 1.574 . S
C508 C524 1.368 . S
H509 C517 0.950 . S
H510 C515 0.950 . S
H511 C516 0.949 . S
H512 C518 0.950 . S
H513 C519 0.950 . S
H514 C520 0.949 . S
C515 H510 0.950 . S
C515 C517 1.327 . S
C515 C521 1.429 . S
C516 C508 1.574 . S
C516 H511 0.949 . S
C516 C522 1.368 . S
C517 C501 1.349 . S
C517 H509 0.950 . S
C517 C515 1.327 . S
C518 C506 1.349 . S
C518 H512 0.950 . S
C518 C519 1.327 . S
C519 H513 0.950 . S
C519 C518 1.327 . S
C519 C523 1.429 . S
C520 C503 1.574 . S
C520 H514 0.949 . S
C520 C524 1.368 . S
C521 C502 1.429 . S
C521 C515 1.429 . S
C521 C522 1.523 . S
C522 C503 1.368 . S
C522 C516 1.368 . S
C522 C521 1.523 . S
C523 C507 1.429 . S
C523 C519 1.429 . S
C523 C524 1.523 . S
C524 C508 1.368 . S
C524 C520 1.368 . S
C524 C523 1.523 . S
H525 C500 0.950 . S
H526 C502 0.950 . S
H527 C503 0.949 . S
H528 C505 0.950 1_556 S
H529 C507 0.950 . S
C530 C531 1.349 . S
C530 C532 1.327 . S
C530 H555 0.950 . S
C531 C530 1.349 . S
C531 C547 1.349 . S
C532 C530 1.327 . S
C532 C551 1.429 . S
C532 H556 0.950 . S
C533 C550 1.574 . S
C533 C552 1.368 . S
C533 H557 0.949 . S
H534 C538 0.949 . S
C535 C536 1.349 . S
C535 C537 1.327 . S
C535 H558 0.950 . S
C536 C535 1.349 . S
C536 C548 1.349 . S
C537 C535 1.327 . S
C537 C553 1.429 . S
C537 H559 0.950 . S
C538 H534 0.949 . S
C538 C546 1.574 . S
C538 C554 1.368 . S
H539 C547 0.950 . S
H540 C545 0.950 . S
H541 C546 0.949 . S
H542 C548 0.950 . S
H543 C549 0.950 . S
H544 C550 0.949 . S
C545 H540 0.950 . S
C545 C547 1.327 . S
C545 C551 1.429 . S
C546 C538 1.574 . S
C546 H541 0.949 . S
C546 C552 1.368 . S
C547 C531 1.349 . S
C547 H539 0.950 . S
C547 C545 1.327 . S
C548 C536 1.349 . S
C548 H542 0.950 . S
C548 C549 1.327 . S
C549 H543 0.950 . S
C549 C548 1.327 . S
C549 C553 1.429 . S
C550 C533 1.574 . S
C550 H544 0.949 . S
C550 C554 1.368 . S
C551 C532 1.429 . S
C551 C545 1.429 . S
C551 C552 1.523 . S
C552 C533 1.368 . S
C552 C546 1.368 . S
C552 C551 1.523 . S
C553 C537 1.429 . S
C553 C549 1.429 . S
C553 C554 1.523 . S
C554 C538 1.368 . S
C554 C550 1.368 . S
C554 C553 1.523 . S
H555 C530 0.950 . S
H556 C532 0.950 . S
H557 C533 0.949 . S
H558 C535 0.950 . S
H559 C537 0.950 . S
C560 C561 1.349 . S
C560 C562 1.327 . S
C560 H585 0.950 . S
C561 C560 1.349 . S
C561 C577 1.349 . S
C562 C560 1.327 . S
C562 C581 1.429 . S
C562 H586 0.950 . S
C563 C580 1.574 . S
C563 C582 1.368 . S
C563 H587 0.949 . S
H564 C568 0.949 . S
C565 C566 1.349 . S
C565 C567 1.327 . S
C565 H588 0.950 . S
C566 C565 1.349 . S
C566 C578 1.349 . S
C567 C565 1.327 . S
C567 C583 1.429 . S
C567 H589 0.950 . S
C568 H564 0.949 . S
C568 C576 1.574 . S
C568 C584 1.368 . S
H569 C577 0.950 . S
H570 C575 0.950 . S
H571 C576 0.949 . S
H572 C578 0.950 . S
H573 C579 0.950 . S
H574 C580 0.949 . S
C575 H570 0.950 . S
C575 C577 1.327 . S
C575 C581 1.429 . S
C576 C568 1.574 . S
C576 H571 0.949 . S
C576 C582 1.368 . S
C577 C561 1.349 . S
C577 H569 0.950 . S
C577 C575 1.327 . S
C578 C566 1.349 . S
C578 H572 0.950 . S
C578 C579 1.327 . S
C579 H573 0.950 . S
C579 C578 1.327 . S
C579 C583 1.429 . S
C580 C563 1.574 . S
C580 H574 0.949 . S
C580 C584 1.368 . S
C581 C562 1.429 . S
C581 C575 1.429 . S
C581 C582 1.523 . S
C582 C563 1.368 . S
C582 C576 1.368 . S
C582 C581 1.523 . S
C583 C567 1.429 . S
C583 C579 1.429 . S
C583 C584 1.523 . S
C584 C568 1.368 . S
C584 C580 1.368 . S
C584 C583 1.523 . S
H585 C560 0.950 . S
H586 C562 0.950 . S
H587 C563 0.949 . S
H588 C565 0.950 . S
H589 C567 0.950 . S
C590 C591 1.349 . S
C590 C592 1.327 . S
C590 H615 0.950 . S
C591 C590 1.349 . S
C591 C607 1.349 . S
C592 C590 1.327 . S
C592 C611 1.429 . S
C592 H616 0.950 . S
C593 C610 1.574 . S
C593 C612 1.368 . S
C593 H617 0.949 . S
H594 C598 0.949 . S
C595 C596 1.349 . S
C595 C597 1.327 . S
C595 H618 0.950 . S
C596 C595 1.349 . S
C596 C608 1.349 . S
C597 C595 1.327 . S
C597 C613 1.429 . S
C597 H619 0.950 . S
C598 H594 0.949 . S
C598 C606 1.574 . S
C598 C614 1.368 . S
H599 C607 0.950 . S
H600 C605 0.950 . S
H601 C606 0.949 . S
H602 C608 0.950 . S
H603 C609 0.950 . S
H604 C610 0.949 . S
C605 H600 0.950 . S
C605 C607 1.327 . S
C605 C611 1.429 . S
C606 C598 1.574 . S
C606 H601 0.949 . S
C606 C612 1.368 . S
C607 C591 1.349 . S
C607 H599 0.950 . S
C607 C605 1.327 . S
C608 C596 1.349 . S
C608 H602 0.950 . S
C608 C609 1.327 . S
C609 H603 0.950 . S
C609 C608 1.327 . S
C609 C613 1.429 . S
C610 C593 1.574 . S
C610 H604 0.949 . S
C610 C614 1.368 . S
C611 C592 1.429 . S
C611 C605 1.429 . S
C611 C612 1.523 . S
C612 C593 1.368 . S
C612 C606 1.368 . S
C612 C611 1.523 . S
C613 C597 1.429 . S
C613 C609 1.429 . S
C613 C614 1.523 . S
C614 C598 1.368 . S
C614 C610 1.368 . S
C614 C613 1.523 . S
H615 C590 0.950 . S
H616 C592 0.950 . S
H617 C593 0.949 . S
H618 C595 0.950 . S
H619 C597 0.950 . S
C620 C621 1.349 . S
C620 C622 1.327 . S
C620 H645 0.950 . S
C621 C620 1.349 . S
C621 C637 1.349 . S
C622 C620 1.327 . S
C622 C641 1.429 . S
C622 H646 0.950 . S
C623 C640 1.574 . S
C623 C642 1.368 . S
C623 H647 0.949 . S
H624 C628 0.949 . S
C625 C626 1.349 . S
C625 C627 1.327 . S
C625 H648 0.950 . S
C626 C625 1.349 . S
C626 C638 1.349 . S
C627 C625 1.327 . S
C627 C643 1.429 . S
C627 H649 0.950 . S
C628 H624 0.949 . S
C628 C636 1.574 . S
C628 C644 1.368 . S
H629 C637 0.950 . S
H630 C635 0.950 . S
H631 C636 0.949 . S
H632 C638 0.950 . S
H633 C639 0.950 . S
H634 C640 0.949 . S
C635 H630 0.950 . S
C635 C637 1.327 . S
C635 C641 1.429 . S
C636 C628 1.574 . S
C636 H631 0.949 . S
C636 C642 1.368 . S
C637 C621 1.349 . S
C637 H629 0.950 . S
C637 C635 1.327 . S
C638 C626 1.349 . S
C638 H632 0.950 . S
C638 C639 1.327 . S
C639 H633 0.950 . S
C639 C638 1.327 . S
C639 C643 1.429 . S
C640 C623 1.574 . S
C640 H634 0.949 . S
C640 C644 1.368 . S
C641 C622 1.429 . S
C641 C635 1.429 . S
C641 C642 1.523 . S
C642 C623 1.368 . S
C642 C636 1.368 . S
C642 C641 1.523 . S
C643 C627 1.429 . S
C643 C639 1.429 . S
C643 C644 1.523 . S
C644 C628 1.368 . S
C644 C640 1.368 . S
C644 C643 1.523 . S
H645 C620 0.950 . S
H646 C622 0.950 . S
H647 C623 0.949 . S
H648 C625 0.950 . S
H649 C627 0.950 . S
C650 C651 1.349 . S
C650 C652 1.327 . S
C650 H675 0.950 . S
C651 C650 1.349 . S
C651 C667 1.349 . S
C652 C650 1.327 . S
C652 C671 1.429 . S
C652 H676 0.950 . S
C653 C670 1.574 . S
C653 C672 1.368 . S
C653 H677 0.949 . S
H654 C658 0.949 . S
C655 C656 1.349 . S
C655 C657 1.327 . S
C655 H678 0.950 . S
C656 C655 1.349 . S
C656 C668 1.349 . S
C657 C655 1.327 . S
C657 C673 1.429 . S
C657 H679 0.950 . S
C658 H654 0.949 . S
C658 C666 1.574 . S
C658 C674 1.368 . S
H659 C667 0.950 . S
H660 C665 0.950 . S
H661 C666 0.949 . S
H662 C668 0.950 . S
H663 C669 0.950 . S
H664 C670 0.949 . S
C665 H660 0.950 . S
C665 C667 1.327 . S
C665 C671 1.429 . S
C666 C658 1.574 . S
C666 H661 0.949 . S
C666 C672 1.368 . S
C667 C651 1.349 . S
C667 H659 0.950 . S
C667 C665 1.327 . S
C668 C656 1.349 . S
C668 H662 0.950 . S
C668 C669 1.327 . S
C669 H663 0.950 . S
C669 C668 1.327 . S
C669 C673 1.429 . S
C670 C653 1.574 . S
C670 H664 0.949 . S
C670 C674 1.368 . S
C671 C652 1.429 . S
C671 C665 1.429 . S
C671 C672 1.523 . S
C672 C653 1.368 . S
C672 C666 1.368 . S
C672 C671 1.523 . S
C673 C657 1.429 . S
C673 C669 1.429 . S
C673 C674 1.523 . S
C674 C658 1.368 . S
C674 C670 1.368 . S
C674 C673 1.523 . S
H675 C650 0.950 . S
H676 C652 0.950 . S
H677 C653 0.949 . S
H678 C655 0.950 . S
H679 C657 0.950 . S
C680 C681 1.349 . S
C680 C682 1.327 . S
C680 H705 0.950 . S
C681 C680 1.349 . S
C681 C697 1.349 . S
C682 C680 1.327 . S
C682 C701 1.429 . S
C682 H706 0.950 . S
C683 C700 1.574 . S
C683 C702 1.368 . S
C683 H707 0.949 . S
H684 C688 0.949 . S
C685 C686 1.349 . S
C685 C687 1.327 . S
C685 H708 0.950 . S
C686 C685 1.349 . S
C686 C698 1.349 . S
C687 C685 1.327 . S
C687 C703 1.429 . S
C687 H709 0.950 . S
C688 H684 0.949 . S
C688 C696 1.574 . S
C688 C704 1.368 . S
H689 C697 0.950 . S
H690 C695 0.950 . S
H691 C696 0.949 . S
H692 C698 0.950 . S
H693 C699 0.950 . S
H694 C700 0.949 . S
C695 H690 0.950 . S
C695 C697 1.327 . S
C695 C701 1.429 . S
C696 C688 1.574 . S
C696 H691 0.949 . S
C696 C702 1.368 . S
C697 C681 1.349 . S
C697 H689 0.950 . S
C697 C695 1.327 . S
C698 C686 1.349 . S
C698 H692 0.950 . S
C698 C699 1.327 . S
C699 H693 0.950 . S
C699 C698 1.327 . S
C699 C703 1.429 . S
C700 C683 1.574 . S
C700 H694 0.949 . S
C700 C704 1.368 . S
C701 C682 1.429 . S
C701 C695 1.429 . S
C701 C702 1.523 . S
C702 C683 1.368 . S
C702 C696 1.368 . S
C702 C701 1.523 . S
C703 C687 1.429 . S
C703 C699 1.429 . S
C703 C704 1.523 . S
C704 C688 1.368 . S
C704 C700 1.368 . S
C704 C703 1.523 . S
H705 C680 0.950 . S
H706 C682 0.950 . S
H707 C683 0.949 . S
H708 C685 0.950 . S
H709 C687 0.950 . S
C710 C711 1.349 . S
C710 C712 1.327 . S
C710 H735 0.950 1_556 S
C711 C710 1.349 . S
C711 C727 1.349 . S
C712 C710 1.327 . S
C712 C731 1.429 . S
C712 H736 0.950 . S
C713 C730 1.574 . S
C713 C732 1.368 . S
C713 H737 0.949 . S
H714 C718 0.949 . S
C715 C716 1.349 . S
C715 C717 1.327 . S
C715 H738 0.950 . S
C716 C715 1.349 . S
C716 C728 1.349 . S
C717 C715 1.327 . S
C717 C733 1.429 . S
C717 H739 0.950 . S
C718 H714 0.949 . S
C718 C726 1.574 . S
C718 C734 1.368 . S
H719 C727 0.950 . S
H720 C725 0.950 . S
H721 C726 0.949 . S
H722 C728 0.950 . S
H723 C729 0.950 . S
H724 C730 0.949 . S
C725 H720 0.950 . S
C725 C727 1.327 . S
C725 C731 1.429 . S
C726 C718 1.574 . S
C726 H721 0.949 . S
C726 C732 1.368 . S
C727 C711 1.349 . S
C727 H719 0.950 . S
C727 C725 1.327 . S
C728 C716 1.349 . S
C728 H722 0.950 . S
C728 C729 1.327 . S
C729 H723 0.950 . S
C729 C728 1.327 . S
C729 C733 1.429 . S
C730 C713 1.574 . S
C730 H724 0.949 . S
C730 C734 1.368 . S
C731 C712 1.429 . S
C731 C725 1.429 . S
C731 C732 1.523 . S
C732 C713 1.368 . S
C732 C726 1.368 . S
C732 C731 1.523 . S
C733 C717 1.429 . S
C733 C729 1.429 . S
C733 C734 1.523 . S
C734 C718 1.368 . S
C734 C730 1.368 . S
C734 C733 1.523 . S
H735 C710 0.950 1_554 S
H736 C712 0.950 . S
H737 C713 0.949 . S
H738 C715 0.950 . S
H739 C717 0.950 . S
C740 C741 1.349 . S
C740 C742 1.327 . S
C740 H765 0.950 . S
C741 C740 1.349 . S
C741 C757 1.349 . S
C742 C740 1.327 . S
C742 C761 1.429 . S
C742 H766 0.950 . S
C743 C760 1.574 . S
C743 C762 1.368 . S
C743 H767 0.949 . S
H744 C748 0.949 . S
C745 C746 1.349 . S
C745 C747 1.327 . S
C745 H768 0.950 . S
C746 C745 1.349 . S
C746 C758 1.349 . S
C747 C745 1.327 . S
C747 C763 1.429 . S
C747 H769 0.950 . S
C748 H744 0.949 . S
C748 C756 1.574 . S
C748 C764 1.368 . S
H749 C757 0.950 . S
H750 C755 0.950 . S
H751 C756 0.949 . S
H752 C758 0.950 . S
H753 C759 0.950 . S
H754 C760 0.949 . S
C755 H750 0.950 . S
C755 C757 1.327 . S
C755 C761 1.429 . S
C756 C748 1.574 . S
C756 H751 0.949 . S
C756 C762 1.368 . S
C757 C741 1.349 . S
C757 H749 0.950 . S
C757 C755 1.327 . S
C758 C746 1.349 . S
C758 H752 0.950 . S
C758 C759 1.327 . S
C759 H753 0.950 . S
C759 C758 1.327 . S
C759 C763 1.429 . S
C760 C743 1.574 . S
C760 H754 0.949 . S
C760 C764 1.368 . S
C761 C742 1.429 . S
C761 C755 1.429 . S
C761 C762 1.523 . S
C762 C743 1.368 . S
C762 C756 1.368 . S
C762 C761 1.523 . S
C763 C747 1.429 . S
C763 C759 1.429 . S
C763 C764 1.523 . S
C764 C748 1.368 . S
C764 C760 1.368 . S
C764 C763 1.523 . S
H765 C740 0.950 . S
H766 C742 0.950 . S
H767 C743 0.949 . S
H768 C745 0.950 . S
H769 C747 0.950 . S
C770 C771 1.349 . S
C770 C772 1.327 . S
C770 H795 0.950 . S
C771 C770 1.349 . S
C771 C787 1.349 . S
C772 C770 1.327 . S
C772 C791 1.429 . S
C772 H796 0.950 . S
C773 C790 1.574 . S
C773 C792 1.368 . S
C773 H797 0.949 . S
H774 C778 0.949 . S
C775 C776 1.349 . S
C775 C777 1.327 . S
C775 H798 0.950 . S
C776 C775 1.349 . S
C776 C788 1.349 . S
C777 C775 1.327 . S
C777 C793 1.429 . S
C777 H799 0.950 . S
C778 H774 0.949 . S
C778 C786 1.574 . S
C778 C794 1.368 . S
H779 C787 0.950 . S
H780 C785 0.950 . S
H781 C786 0.949 . S
H782 C788 0.950 . S
H783 C789 0.950 . S
H784 C790 0.949 . S
C785 H780 0.950 . S
C785 C787 1.327 . S
C785 C791 1.429 . S
C786 C778 1.574 . S
C786 H781 0.949 . S
C786 C792 1.368 . S
C787 C771 1.349 . S
C787 H779 0.950 . S
C787 C785 1.327 . S
C788 C776 1.349 . S
C788 H782 0.950 . S
C788 C789 1.327 . S
C789 H783 0.950 . S
C789 C788 1.327 . S
C789 C793 1.429 . S
C790 C773 1.574 . S
C790 H784 0.949 . S
C790 C794 1.368 . S
C791 C772 1.429 . S
C791 C785 1.429 . S
C791 C792 1.523 . S
C792 C773 1.368 . S
C792 C786 1.368 . S
C792 C791 1.523 . S
C793 C777 1.429 . S
C793 C789 1.429 . S
C793 C794 1.523 . S
C794 C778 1.368 . S
C794 C790 1.368 . S
C794 C793 1.523 . S
H795 C770 0.950 . S
H796 C772 0.950 . S
H797 C773 0.949 . S
H798 C775 0.950 . S
H799 C777 0.950 . S
C800 C801 1.349 . S
C800 C802 1.327 . S
C800 H825 0.950 . S
C801 C800 1.349 . S
C801 C817 1.349 1_545 S
C802 C800 1.327 . S
C802 C821 1.429 . S
C802 H826 0.950 . S
C803 C820 1.574 1_656 S
C803 C822 1.368 1_565 S
C803 H827 0.949 . S
H804 C808 0.949 . S
C805 C806 1.349 . S
C805 C807 1.327 . S
C805 H828 0.950 . S
C806 C805 1.349 . S
C806 C818 1.349 1_565 S
C807 C805 1.327 . S
C807 C823 1.429 . S
C807 H829 0.950 . S
C808 H804 0.949 . S
C808 C816 1.574 1_554 S
C808 C824 1.368 1_545 S
H809 C817 0.950 . S
H810 C815 0.950 . S
H811 C816 0.949 . S
H812 C818 0.950 . S
H813 C819 0.950 . S
H814 C820 0.949 . S
C815 H810 0.950 . S
C815 C817 1.327 . S
C815 C821 1.429 1_565 S
C816 C808 1.574 1_556 S
C816 H811 0.949 . S
C816 C822 1.368 1_455 S
C817 C801 1.349 1_565 S
C817 H809 0.950 . S
C817 C815 1.327 . S
C818 C806 1.349 1_545 S
C818 H812 0.950 . S
C818 C819 1.327 . S
C819 H813 0.950 . S
C819 C818 1.327 . S
C819 C823 1.429 1_545 S
C820 C803 1.574 1_454 S
C820 H814 0.949 . S
C820 C824 1.368 . S
C821 C802 1.429 . S
C821 C815 1.429 1_545 S
C821 C822 1.523 . S
C822 C803 1.368 1_545 S
C822 C816 1.368 1_655 S
C822 C821 1.523 . S
C823 C807 1.429 . S
C823 C819 1.429 1_565 S
C823 C824 1.523 . S
C824 C808 1.368 1_565 S
C824 C820 1.368 . S
C824 C823 1.523 . S
H825 C800 0.950 . S
H826 C802 0.950 . S
H827 C803 0.949 . S
H828 C805 0.950 . S
H829 C807 0.950 . S
C830 C831 1.349 . S
C830 C832 1.327 . S
C830 H855 0.950 . S
C831 C830 1.349 . S
C831 C847 1.349 . S
C832 C830 1.327 . S
C832 C851 1.429 . S
C832 H856 0.950 . S
C833 C850 1.574 . S
C833 C852 1.368 . S
C833 H857 0.949 . S
H834 C838 0.949 . S
C835 C836 1.349 . S
C835 C837 1.327 . S
C835 H858 0.950 . S
C836 C835 1.349 . S
C836 C848 1.349 . S
C837 C835 1.327 . S
C837 C853 1.429 . S
C837 H859 0.950 . S
C838 H834 0.949 . S
C838 C846 1.574 . S
C838 C854 1.368 . S
H839 C847 0.950 . S
H840 C845 0.950 . S
H841 C846 0.949 . S
H842 C848 0.950 . S
H843 C849 0.950 . S
H844 C850 0.949 . S
C845 H840 0.950 . S
C845 C847 1.327 . S
C845 C851 1.429 . S
C846 C838 1.574 . S
C846 H841 0.949 . S
C846 C852 1.368 . S
C847 C831 1.349 . S
C847 H839 0.950 . S
C847 C845 1.327 . S
C848 C836 1.349 . S
C848 H842 0.950 . S
C848 C849 1.327 . S
C849 H843 0.950 . S
C849 C848 1.327 . S
C849 C853 1.429 . S
C850 C833 1.574 . S
C850 H844 0.949 . S
C850 C854 1.368 . S
C851 C832 1.429 . S
C851 C845 1.429 . S
C851 C852 1.523 . S
C852 C833 1.368 . S
C852 C846 1.368 . S
C852 C851 1.523 . S
C853 C837 1.429 . S
C853 C849 1.429 . S
C853 C854 1.523 . S
C854 C838 1.368 . S
C854 C850 1.368 . S
C854 C853 1.523 . S
H855 C830 0.950 . S
H856 C832 0.950 . S
H857 C833 0.949 . S
H858 C835 0.950 . S
H859 C837 0.950 . S
C860 C861 1.349 . S
C860 C862 1.327 . S
C860 H885 0.950 . S
C861 C860 1.349 . S
C861 C877 1.349 1_565 S
C862 C860 1.327 . S
C862 C881 1.429 . S
C862 H886 0.950 . S
C863 C880 1.574 . S
C863 C882 1.368 1_545 S
C863 H887 0.949 . S
H864 C868 0.949 . S
C865 C866 1.349 . S
C865 C867 1.327 . S
C865 H888 0.950 . S
C866 C865 1.349 . S
C866 C878 1.349 1_545 S
C867 C865 1.327 . S
C867 C883 1.429 . S
C867 H889 0.950 . S
C868 H864 0.949 . S
C868 C876 1.574 . S
C868 C884 1.368 1_565 S
H869 C877 0.950 . S
H870 C875 0.950 . S
H871 C876 0.949 . S
H872 C878 0.950 . S
H873 C879 0.950 . S
H874 C880 0.949 . S
C875 H870 0.950 . S
C875 C877 1.327 . S
C875 C881 1.429 1_545 S
C876 C868 1.574 . S
C876 H871 0.949 . S
C876 C882 1.368 . S
C877 C861 1.349 1_545 S
C877 H869 0.950 . S
C877 C875 1.327 . S
C878 C866 1.349 1_565 S
C878 H872 0.950 . S
C878 C879 1.327 . S
C879 H873 0.950 . S
C879 C878 1.327 . S
C879 C883 1.429 1_565 S
C880 C863 1.574 . S
C880 H874 0.949 . S
C880 C884 1.368 . S
C881 C862 1.429 . S
C881 C875 1.429 1_565 S
C881 C882 1.523 . S
C882 C863 1.368 1_565 S
C882 C876 1.368 . S
C882 C881 1.523 . S
C883 C867 1.429 . S
C883 C879 1.429 1_545 S
C883 C884 1.523 . S
C884 C868 1.368 1_545 S
C884 C880 1.368 . S
C884 C883 1.523 . S
H885 C860 0.950 . S
H886 C862 0.950 . S
H887 C863 0.949 . S
H888 C865 0.950 . S
H889 C867 0.950 . S
C890 C891 1.349 . S
C890 C892 1.327 . S
C890 H915 0.950 . S
C891 C890 1.349 . S
C891 C907 1.349 . S
C892 C890 1.327 . S
C892 C911 1.429 . S
C892 H916 0.950 . S
C893 C910 1.574 . S
C893 C912 1.368 . S
C893 H917 0.949 . S
H894 C898 0.949 . S
C895 C896 1.349 . S
C895 C897 1.327 . S
C895 H918 0.950 . S
C896 C895 1.349 . S
C896 C908 1.349 . S
C897 C895 1.327 . S
C897 C913 1.429 . S
C897 H919 0.950 . S
C898 H894 0.949 . S
C898 C906 1.574 . S
C898 C914 1.368 . S
H899 C907 0.950 . S
H900 C905 0.950 . S
H901 C906 0.949 . S
H902 C908 0.950 . S
H903 C909 0.950 . S
H904 C910 0.949 . S
C905 H900 0.950 . S
C905 C907 1.327 . S
C905 C911 1.429 . S
C906 C898 1.574 . S
C906 H901 0.949 . S
C906 C912 1.368 . S
C907 C891 1.349 . S
C907 H899 0.950 . S
C907 C905 1.327 . S
C908 C896 1.349 . S
C908 H902 0.950 . S
C908 C909 1.327 . S
C909 H903 0.950 . S
C909 C908 1.327 . S
C909 C913 1.429 . S
C910 C893 1.574 . S
C910 H904 0.949 . S
C910 C914 1.368 . S
C911 C892 1.429 . S
C911 C905 1.429 . S
C911 C912 1.523 . S
C912 C893 1.368 . S
C912 C906 1.368 . S
C912 C911 1.523 . S
C913 C897 1.429 . S
C913 C909 1.429 . S
C913 C914 1.523 . S
C914 C898 1.368 . S
C914 C910 1.368 . S
C914 C913 1.523 . S
H915 C890 0.950 . S
H916 C892 0.950 . S
H917 C893 0.949 . S
H918 C895 0.950 . S
H919 C897 0.950 . S
C920 C921 1.349 . S
C920 C922 1.327 . S
C920 H945 0.950 . S
C921 C920 1.349 . S
C921 C937 1.349 . S
C922 C920 1.327 . S
C922 C941 1.429 . S
C922 H946 0.950 . S
C923 C940 1.574 . S
C923 C942 1.368 . S
C923 H947 0.949 . S
H924 C928 0.949 . S
C925 C926 1.349 . S
C925 C927 1.327 . S
C925 H948 0.950 . S
C926 C925 1.349 . S
C926 C938 1.349 . S
C927 C925 1.327 . S
C927 C943 1.429 . S
C927 H949 0.950 . S
C928 H924 0.949 . S
C928 C936 1.574 . S
C928 C944 1.368 . S
H929 C937 0.950 . S
H930 C935 0.950 . S
H931 C936 0.949 . S
H932 C938 0.950 . S
H933 C939 0.950 . S
H934 C940 0.949 . S
C935 H930 0.950 . S
C935 C937 1.327 . S
C935 C941 1.429 . S
C936 C928 1.574 . S
C936 H931 0.949 . S
C936 C942 1.368 . S
C937 C921 1.349 . S
C937 H929 0.950 . S
C937 C935 1.327 . S
C938 C926 1.349 . S
C938 H932 0.950 . S
C938 C939 1.327 . S
C939 H933 0.950 . S
C939 C938 1.327 . S
C939 C943 1.429 . S
C940 C923 1.574 . S
C940 H934 0.949 . S
C940 C944 1.368 . S
C941 C922 1.429 . S
C941 C935 1.429 . S
C941 C942 1.523 . S
C942 C923 1.368 . S
C942 C936 1.368 . S
C942 C941 1.523 . S
C943 C927 1.429 . S
C943 C939 1.429 . S
C943 C944 1.523 . S
C944 C928 1.368 . S
C944 C940 1.368 . S
C944 C943 1.523 . S
H945 C920 0.950 . S
H946 C922 0.950 . S
H947 C923 0.949 . S
H948 C925 0.950 . S
H949 C927 0.950 . S
C950 C951 1.349 . S
C950 C952 1.327 . S
C950 H975 0.950 . S
C951 C950 1.349 . S
C951 C967 1.349 . S
C952 C950 1.327 . S
C952 C971 1.429 . S
C952 H976 0.950 . S
C953 C970 1.574 . S
C953 C972 1.368 . S
C953 H977 0.949 . S
H954 C958 0.949 . S
C955 C956 1.349 . S
C955 C957 1.327 . S
C955 H978 0.950 . S
C956 C955 1.349 . S
C956 C968 1.349 . S
C957 C955 1.327 . S
C957 C973 1.429 . S
C957 H979 0.950 . S
C958 H954 0.949 . S
C958 C966 1.574 . S
C958 C974 1.368 . S
H959 C967 0.950 . S
H960 C965 0.950 . S
H961 C966 0.949 . S
H962 C968 0.950 . S
H963 C969 0.950 . S
H964 C970 0.949 . S
C965 H960 0.950 . S
C965 C967 1.327 . S
C965 C971 1.429 . S
C966 C958 1.574 . S
C966 H961 0.949 . S
C966 C972 1.368 . S
C967 C951 1.349 . S
C967 H959 0.950 . S
C967 C965 1.327 . S
C968 C956 1.349 . S
C968 H962 0.950 . S
C968 C969 1.327 . S
C969 H963 0.950 . S
C969 C968 1.327 . S
C969 C973 1.429 . S
C970 C953 1.574 . S
C970 H964 0.949 . S
C970 C974 1.368 . S
C971 C952 1.429 . S
C971 C965 1.429 . S
C971 C972 1.523 . S
C972 C953 1.368 . S
C972 C966 1.368 . S
C972 C971 1.523 . S
C973 C957 1.429 . S
C973 C969 1.429 . S
C973 C974 1.523 . S
C974 C958 1.368 . S
C974 C970 1.368 . S
C974 C973 1.523 . S
H975 C950 0.950 . S
H976 C952 0.950 . S
H977 C953 0.949 . S
H978 C955 0.950 . S
H979 C957 0.950 . S
C980 C981 1.349 . S
C980 C982 1.327 . S
C980 H1005 0.950 . S
C981 C980 1.349 . S
C981 C997 1.349 . S
C982 C980 1.327 . S
C982 C1001 1.429 . S
C982 H1006 0.950 . S
C983 C1000 1.574 . S
C983 C1002 1.368 . S
C983 H1007 0.949 . S
H984 C988 0.949 . S
C985 C986 1.349 . S
C985 C987 1.327 . S
C985 H1008 0.950 . S
C986 C985 1.349 . S
C986 C998 1.349 . S
C987 C985 1.327 . S
C987 C1003 1.429 . S
C987 H1009 0.950 . S
C988 H984 0.949 . S
C988 C996 1.574 . S
C988 C1004 1.368 . S
H989 C997 0.950 . S
H990 C995 0.950 . S
H991 C996 0.949 . S
H992 C998 0.950 . S
H993 C999 0.950 . S
H994 C1000 0.949 . S
C995 H990 0.950 . S
C995 C997 1.327 . S
C995 C1001 1.429 . S
C996 C988 1.574 . S
C996 H991 0.949 . S
C996 C1002 1.368 . S
C997 C981 1.349 . S
C997 H989 0.950 . S
C997 C995 1.327 . S
C998 C986 1.349 . S
C998 H992 0.950 . S
C998 C999 1.327 . S
C999 H993 0.950 . S
C999 C998 1.327 . S
C999 C1003 1.429 . S
C1000 C983 1.574 . S
C1000 H994 0.949 . S
C1000 C1004 1.368 . S
C1001 C982 1.429 . S
C1001 C995 1.429 . S
C1001 C1002 1.523 . S
C1002 C983 1.368 . S
C1002 C996 1.368 . S
C1002 C1001 1.523 . S
C1003 C987 1.429 . S
C1003 C999 1.429 . S
C1003 C1004 1.523 . S
C1004 C988 1.368 . S
C1004 C1000 1.368 . S
C1004 C1003 1.523 . S
H1005 C980 0.950 . S
H1006 C982 0.950 . S
H1007 C983 0.949 . S
H1008 C985 0.950 . S
H1009 C987 0.950 . S
C1010 C1011 1.349 . S
C1010 C1012 1.327 . S
C1010 H1035 0.950 . S
C1011 C1010 1.349 . S
C1011 C1027 1.349 . S
C1012 C1010 1.327 . S
C1012 C1031 1.429 . S
C1012 H1036 0.950 . S
C1013 C1030 1.574 1_556 S
C1013 C1032 1.368 1_455 S
C1013 H1037 0.949 . S
H1014 C1018 0.949 . S
C1015 C1016 1.349 . S
C1015 C1017 1.327 . S
C1015 H1038 0.950 . S
C1016 C1015 1.349 . S
C1016 C1028 1.349 . S
C1017 C1015 1.327 . S
C1017 C1033 1.429 . S
C1017 H1039 0.950 . S
C1018 H1014 0.949 . S
C1018 C1026 1.574 1_554 S
C1018 C1034 1.368 1_655 S
H1019 C1027 0.950 1_455 S
H1020 C1025 0.950 . S
H1021 C1026 0.949 . S
H1022 C1028 0.950 1_655 S
H1023 C1029 0.950 . S
H1024 C1030 0.949 . S
C1025 H1020 0.950 . S
C1025 C1027 1.327 1_455 S
C1025 C1031 1.429 1_455 S
C1026 C1018 1.574 1_556 S
C1026 H1021 0.949 . S
C1026 C1032 1.368 . S
C1027 C1011 1.349 . S
C1027 H1019 0.950 1_655 S
C1027 C1025 1.327 1_655 S
C1028 C1016 1.349 . S
C1028 H1022 0.950 1_455 S
C1028 C1029 1.327 1_455 S
C1029 H1023 0.950 . S
C1029 C1028 1.327 1_655 S
C1029 C1033 1.429 1_655 S
C1030 C1013 1.574 1_554 S
C1030 H1024 0.949 . S
C1030 C1034 1.368 . S
C1031 C1012 1.429 . S
C1031 C1025 1.429 1_655 S
C1031 C1032 1.523 . S
C1032 C1013 1.368 1_655 S
C1032 C1026 1.368 . S
C1032 C1031 1.523 . S
C1033 C1017 1.429 . S
C1033 C1029 1.429 1_455 S
C1033 C1034 1.523 . S
C1034 C1018 1.368 1_455 S
C1034 C1030 1.368 . S
C1034 C1033 1.523 . S
H1035 C1010 0.950 . S
H1036 C1012 0.950 . S
H1037 C1013 0.949 . S
H1038 C1015 0.950 . S
H1039 C1017 0.950 . S
C321 C2 2.104 . S
C326 C122 2.099 . S
C351 C10 1.505 . S
C356 C42 1.520 . S
C381 C50 0.834 . S
C386 C90 0.837 . S
C411 C82 1.519 . S
C416 C130 1.501 . S
C441 C11 2.104 . S
C446 C211 2.110 . S
C471 C19 1.505 . S
C476 C171 1.519 . S
C501 C179 0.834 . S
C506 C99 0.831 . S
C531 C219 1.505 . S
C536 C91 1.523 . S
C561 C242 2.104 . S
C566 C202 2.106 . S
C591 C162 1.520 . S
C596 C250 1.504 . S
C621 C290 0.834 . S
C626 C170 0.835 . S
C651 C210 1.505 . S
C656 C282 1.522 . S
C681 C131 2.105 . S
C686 C251 2.103 . S
C711 C259 1.505 . S
C716 C51 1.521 . S
C741 C59 0.834 . S
C746 C299 0.831 . S
C771 C139 1.505 . S
C776 C291 1.517 . S
C801 C16 1.545 . S
C806 C7 1.545 . S
C831 C47 1.506 . S
C836 C56 1.506 . S
C861 C96 1.506 . S
C866 C87 1.506 . S
C891 C136 1.545 . S
C896 C127 1.545 . S
C921 C167 1.506 . S
C926 C176 1.506 . S
C951 C216 1.545 . S
C956 C207 1.545 . S
C981 C247 1.545 . S
C986 C256 1.545 . S
C1011 C287 1.506 . S
C1016 C296 1.506 . S
