# Generated by pormake.
# Topology sxc, (6)-cn, num edge types: 1
# Building blocks:
#     Node 0, Type 0, BuildingBlock: PAMTUU_clean_sbu_0, # of connection points: 6
#     Node 1, Type 0, BuildingBlock: PAMTUU_clean_sbu_0, # of connection points: 6
#     Node 2, Type 0, BuildingBlock: PAMTUU_clean_sbu_0, # of connection points: 6
#     Edge 3, Type (0, 0), BuildingBlock: EZIPEK_clean_linker_0, # of connection points: 2
#     Edge 4, Type (0, 0), BuildingBlock: EZIPEK_clean_linker_0, # of connection points: 2
#     Edge 5, Type (0, 0), BuildingBlock: EZIPEK_clean_linker_0, # of connection points: 2
#     Edge 6, Type (0, 0), BuildingBlock: EZIPEK_clean_linker_0, # of connection points: 2
#     Edge 7, Type (0, 0), BuildingBlock: EZIPEK_clean_linker_0, # of connection points: 2
#     Edge 8, Type (0, 0), BuildingBlock: EZIPEK_clean_linker_0, # of connection points: 2
#     Edge 9, Type (0, 0), BuildingBlock: EZIPEK_clean_linker_0, # of connection points: 2
#     Edge 10, Type (0, 0), BuildingBlock: EZIPEK_clean_linker_0, # of connection points: 2
#     Edge 11, Type (0, 0), BuildingBlock: EZIPEK_clean_linker_0, # of connection points: 2
# Relax obj value: 0.549
# Max RMSD: 0.157
# Mean RMSD: 0.117
data_MOF--net-sxc--node1-PAMTUU_clean_sbu_0--edge1-EZIPEK_clean_linker_0
_symmetry_space_group_name_H-M    P1
_symmetry_Int_Tables_number       1
_symmetry_cell_setting            triclinic
loop_
_symmetry_equiv_pos_as_xyz
'x, y, z'
_cell_length_a     17.861405
_cell_length_b     11.671079
_cell_length_c     33.704041
_cell_angle_alpha  91.231151
_cell_angle_beta   95.847198
_cell_angle_gamma 132.57087
loop_
_atom_site_label
_atom_site_type_symbol
_atom_site_fract_x
_atom_site_fract_y
_atom_site_fract_z
_atom_type_partial_charge
Tb0 Tb 1.06331 1.17096 0.95561 0.0
Tb1 Tb 0.30149 0.42812 -0.01007 0.0
C2 C 0.22357 0.35664 0.896 0.0
C3 C 0.81133 0.79032 0.94741 0.0
C4 C 0.73638 0.55241 -0.00331 0.0
C5 C 0.68857 0.60989 -0.00968 0.0
C6 C 0.72609 0.72882 0.96602 0.0
C7 C 0.85039 0.71803 0.94972 0.0
C8 C 0.81254 0.59882 0.97408 0.0
C9 C 0.87313 0.9483 0.93468 0.0
O10 O 1.11291 1.04159 0.94857 0.0
O11 O 0.26374 0.2025 -0.00731 0.0
O12 O 0.21836 0.37108 0.04045 0.0
O13 O 1.077 1.12055 0.01665 0.0
O14 O 0.41149 0.61846 0.03467 0.0
O15 O 0.45489 0.53206 -0.00513 0.0
O16 O 0.27179 0.5747 0.96932 0.0
O17 O 1.0977 0.39364 0.96926 0.0
O18 O 1.13281 0.2931 0.90418 0.0
O19 O 0.29784 0.40202 0.92469 0.0
C20 C 0.1898 1.0662 0.97002 0.0
O21 O 0.91304 1.05927 0.96386 0.0
O22 O 0.94028 0.98878 0.91165 0.0
C23 C 1.1395 0.22926 0.04704 0.0
C24 C 0.51689 0.58058 0.06322 0.0
C25 C 0.59286 0.464 0.10458 0.0
C26 C 0.48608 0.37349 0.09691 0.0
C27 C 0.44842 0.43099 0.07573 0.0
C28 C 0.62107 0.68339 0.07923 0.0
C29 C 0.65864 0.62698 0.10119 0.0
C30 C 0.48088 0.61537 0.0288 0.0
C31 C 0.18481 0.54183 0.96859 0.0
H32 H 0.62746 0.57131 0.00668 0.0
H33 H 0.69442 0.78183 0.96466 0.0
H34 H 0.91572 0.76187 0.93545 0.0
H35 H 0.84829 0.55241 0.97788 0.0
H36 H 0.43169 0.25185 0.10205 0.0
H37 H 0.36657 0.35293 0.06548 0.0
H38 H 0.67463 0.80184 0.07139 0.0
H39 H 0.74124 0.70733 0.10981 0.0
Tb40 Tb 0.26618 0.31469 0.30149 0.0
Tb41 Tb 1.02059 1.05382 0.29525 0.0
C42 C 1.16164 0.20148 0.37842 0.0
C43 C 0.53007 0.49792 0.32853 0.0
C44 C 0.61109 0.37443 0.35888 0.0
C45 C 0.57747 0.42112 0.38495 0.0
C46 C 0.53645 0.48203 0.36978 0.0
C47 C 0.57582 0.46929 0.30391 0.0
C48 C 0.61546 0.40689 0.31894 0.0
C49 C 0.45895 0.51127 0.30938 0.0
O50 O 0.23442 1.09474 0.295 0.0
O51 O 1.06327 0.91373 0.30157 0.0
O52 O 1.04694 1.04354 0.23405 0.0
O53 O 0.20444 0.29305 0.23936 0.0
O54 O 0.89321 0.85731 0.31812 0.0
O55 O 0.87284 0.94876 0.26758 0.0
O56 O 1.05514 0.27684 0.29134 0.0
O57 O 0.23105 0.46125 0.30971 0.0
O58 O 0.23355 0.23032 0.36032 0.0
O59 O 1.08119 1.16574 0.35728 0.0
C60 C 1.15004 0.94891 0.29844 0.0
O61 O 0.39893 0.41342 0.27685 0.0
O62 O 0.40835 0.51796 0.33307 0.0
C63 C 1.12098 1.16453 0.21736 0.0
C64 C 0.76675 0.87015 0.31634 0.0
C65 C 0.68981 0.98412 0.35165 0.0
C66 C 0.65556 0.92107 0.31106 0.0
C67 C 0.69384 0.86414 0.29347 0.0
C68 C 0.79153 0.91652 0.35809 0.0
C69 C 0.75297 0.97314 0.37569 0.0
C70 C 0.82933 0.85671 0.29545 0.0
C71 C 1.14329 0.42558 0.30062 0.0
H72 H 0.57624 0.40007 0.41613 0.0
H73 H 0.50316 0.50551 0.3897 0.0
H74 H 0.57333 0.48307 0.27224 0.0
H75 H 0.64377 0.37482 0.29873 0.0
H76 H 0.60634 0.9285 0.29225 0.0
H77 H 0.67295 0.82739 0.26138 0.0
H78 H 0.84701 0.92136 0.37662 0.0
H79 H 0.77984 1.0216 0.40709 0.0
Tb80 Tb 0.23115 0.39798 0.63651 0.0
Tb81 Tb 0.22216 0.22046 0.64102 0.0
C82 C 0.19744 0.25149 0.55382 0.0
C83 C 1.13433 0.58662 0.64062 0.0
C84 C 0.94381 0.48551 0.6467 0.0
C85 C 1.00404 0.59377 0.6201 0.0
C86 C 1.09897 0.64305 0.61678 0.0
C87 C 1.07904 0.49233 0.67035 0.0
C88 C 0.98357 0.44117 0.67324 0.0
C89 C 0.20782 0.58483 0.6266 0.0
O90 O 1.06567 1.1496 0.64675 0.0
O91 O 1.06331 1.14681 0.64813 0.0
O92 O 0.20459 0.22625 0.70419 0.0
O93 O 0.28367 0.47202 0.70165 0.0
O94 O 0.17686 1.00519 0.62301 0.0
O95 O 0.2909 1.15883 0.67579 0.0
O96 O 0.38714 0.46817 0.63021 0.0
O97 O 0.38947 0.47088 0.62891 0.0
O98 O 0.24514 0.3877 0.57298 0.0
O99 O 1.16332 1.14132 0.57655 0.0
C100 C 0.97141 1.05765 0.62247 0.0
O101 O 0.27859 0.61532 0.6539 0.0
O102 O 1.16255 0.45963 0.60173 0.0
C103 C 0.2488 0.36009 0.72386 0.0
C104 C 0.32157 1.0354 0.63668 0.0
C105 C 0.51158 1.13529 0.63014 0.0
C106 C 0.45144 1.02705 0.65676 0.0
C107 C 0.35679 0.97838 0.6603 0.0
C108 C 0.37682 1.13005 0.60699 0.0
C109 C 0.472 0.18049 0.60385 0.0
C110 C 0.24708 1.03522 0.65052 0.0
C111 C 0.48173 0.56047 0.6543 0.0
H112 H 0.97349 0.62816 0.59946 0.0
H113 H 1.1399 0.71291 0.59314 0.0
H114 H 1.10442 0.44507 0.68837 0.0
H115 H 0.9372 0.35705 0.69377 0.0
H116 H 0.48189 0.99213 0.67724 0.0
H117 H 0.31585 0.90816 0.6839 0.0
H118 H 0.35149 0.17765 0.58911 0.0
H119 H 0.51835 0.26473 0.58334 0.0
C120 C 1.13764 0.69281 -0.00369 0.0
C121 C 0.18653 0.67726 0.96862 0.0
C122 C 0.24987 0.92961 0.9455 0.0
C123 C 0.19014 0.9332 0.96971 0.0
N124 N 1.06105 0.79406 0.01276 0.0
N125 N 0.27668 0.77524 0.91169 0.0
C126 C 1.12928 0.8073 -0.00668 0.0
C127 C 0.23987 0.79519 0.94201 0.0
N128 N 1.10441 0.6047 0.02749 0.0
N129 N 0.31713 1.05551 0.92574 0.0
H130 H 0.30705 0.84701 0.8889 0.0
H131 H 0.26721 0.6773 0.90689 0.0
H132 H 0.32391 1.15167 0.92649 0.0
H133 H 0.3716 1.07012 0.91139 0.0
H134 H 1.07853 0.62157 0.05125 0.0
H135 H 1.11491 0.52831 0.03222 0.0
H136 H 1.00775 0.69702 0.02714 0.0
H137 H 1.05142 0.87251 0.01115 0.0
C138 C 0.73833 0.35101 0.3717 0.0
C139 C 0.63624 0.28225 0.37146 0.0
C140 C 0.57995 1.02482 0.3745 0.0
C141 C 0.6769 1.08942 0.36588 0.0
N142 N 0.84606 0.31276 0.3515 0.0
N143 N 0.45642 1.05147 0.37115 0.0
C144 C 0.75651 0.25284 0.36407 0.0
C145 C 0.55605 1.11873 0.37341 0.0
N146 N 0.81716 0.51042 0.37789 0.0
N147 N 0.51064 0.87338 0.38278 0.0
H148 H 0.43545 1.11585 0.3705 0.0
H149 H 0.39367 0.93069 0.36741 0.0
H150 H 0.52733 0.8032 0.38361 0.0
H151 H 0.44143 0.82287 0.39241 0.0
H152 H 0.89443 0.56688 0.38164 0.0
H153 H 0.80489 0.5847 0.38326 0.0
H154 H 0.8983 0.42577 0.34349 0.0
H155 H 0.86406 0.2464 0.3456 0.0
C156 C 0.75905 0.87621 0.60243 0.0
C157 C 0.84672 0.93214 0.63282 0.0
C158 C 0.69387 0.74128 0.67394 0.0
C159 C 0.6061 0.68517 0.64361 0.0
N160 N 0.57775 0.74969 0.58043 0.0
N161 N 0.87341 0.85979 0.69475 0.0
C162 C 0.64642 0.76651 0.60828 0.0
C163 C 0.80602 0.84875 0.6678 0.0
N164 N 0.7827 0.92396 0.56544 0.0
N165 N 0.67093 0.69531 0.7111 0.0
H166 H 0.94906 0.92342 0.69047 0.0
H167 H 0.85226 0.79331 0.71858 0.0
H168 H 0.5957 0.61667 0.71727 0.0
H169 H 0.72651 0.74447 0.73652 0.0
H170 H 0.72787 0.87547 0.53981 0.0
H171 H 0.85821 1.00423 0.55961 0.0
H172 H 0.59799 0.81481 0.55635 0.0
H173 H 0.50106 0.68109 0.58391 0.0
C174 C 0.7648 0.27086 0.61088 0.0
C175 C 0.83341 0.39812 0.64214 0.0
C176 C 0.69055 0.34967 0.6659 0.0
C177 C 0.62193 0.22245 0.63465 0.0
N178 N 0.5899 1.06816 0.57529 0.0
N179 N 0.8651 0.55082 0.70181 0.0
C180 C 0.65801 0.18462 0.60651 0.0
C181 C 0.79724 0.43546 0.67036 0.0
N182 N 0.80171 0.22849 0.5867 0.0
N183 N 0.65382 0.39255 0.69 0.0
H184 H 0.94462 0.62243 0.70452 0.0
H185 H 0.84342 0.57118 0.72651 0.0
H186 H 0.57632 0.33454 0.68741 0.0
H187 H 0.69999 0.49093 0.71135 0.0
H188 H 0.75575 1.13051 0.56523 0.0
H189 H 0.87925 0.28678 0.58929 0.0
H190 H 0.61114 1.04582 0.55082 0.0
H191 H 0.51042 0.99691 0.57262 0.0
C192 C 0.61737 0.31308 0.03115 0.0
C193 C 0.71617 0.46479 0.03154 0.0
C194 C 0.74019 0.48766 0.10482 0.0
C195 C 0.63245 0.38401 0.1013 0.0
N196 N 0.48953 1.11937 0.07058 0.0
N197 N 0.88071 0.6882 0.07168 0.0
C198 C 0.57952 0.26679 0.06798 0.0
C199 C 0.78281 0.5464 0.06922 0.0
N200 N 0.55725 0.21603 -0.00354 0.0
N201 N 0.80009 0.55788 0.1414 0.0
H202 H 0.91069 0.74598 0.04667 0.0
H203 H 0.92885 0.75036 0.09919 0.0
H204 H 0.7687 0.52563 0.16802 0.0
H205 H 0.7687 0.52563 0.16802 0.0
H206 H 0.58144 0.24471 0.96845 0.0
H207 H 0.58144 0.24471 0.96845 0.0
H208 H 0.44654 1.03226 0.04593 0.0
H209 H 0.46242 1.08684 0.09803 0.0
C210 C 0.1871 0.66249 0.26983 0.0
C211 C 1.14576 0.56069 0.30043 0.0
C212 C 1.12305 0.72866 0.3331 0.0
C213 C 1.15307 0.81902 0.29995 0.0
N214 N 0.21184 0.86561 0.23584 0.0
N215 N 1.0835 0.50695 0.36357 0.0
C216 C 0.18539 0.78457 0.26836 0.0
C217 C 1.11593 0.59683 0.33264 0.0
N218 N 0.23219 0.64662 0.24263 0.0
N219 N 1.10621 0.77434 0.36609 0.0
H220 H 1.08057 0.41476 0.36466 0.0
H221 H 1.05649 0.51861 0.38773 0.0
H222 H 1.11535 0.87256 0.36821 0.0
H223 H 1.08996 0.72334 0.39259 0.0
H224 H 0.27557 0.72726 0.22272 0.0
H225 H 0.23337 0.55858 0.2419 0.0
H226 H 0.22062 0.83252 0.20908 0.0
H227 H 0.21968 0.96213 0.23461 0.0
C228 C 1.08993 0.2479 0.1538 0.0
C229 C 1.10896 1.16006 0.1725 0.0
C230 C 1.14098 1.10783 0.10831 0.0
C231 C 1.12084 0.19398 0.08934 0.0
N232 N 1.04816 0.30727 0.09132 0.0
N233 N 1.11773 0.96429 0.16417 0.0
C234 C 1.08719 0.25298 0.11137 0.0
C235 C 1.12335 1.07648 0.14864 0.0
N236 N 1.07361 0.32545 0.17656 0.0
N237 N 0.18144 1.06178 0.08856 0.0
H238 H 1.09945 0.93335 0.19274 0.0
H239 H 1.11867 0.88973 0.14718 0.0
H240 H 0.19662 1.08427 0.05933 0.0
H241 H 0.20814 1.01369 0.1023 0.0
H242 H 1.07198 0.407 0.16595 0.0
H243 H 1.06594 0.31277 0.20681 0.0
H244 H 1.01451 0.34063 0.10479 0.0
H245 H 1.03948 0.30264 0.0601 0.0
C246 C 0.2643 0.34126 0.44803 0.0
C247 C 0.17138 0.2094 0.42342 0.0
C248 C 1.09241 1.10427 0.4845 0.0
C249 C 0.18841 0.22859 0.50899 0.0
N250 N 0.37241 0.43705 0.51271 0.0
N251 N 1.0061 0.94497 0.41967 0.0
C252 C 0.27638 0.33877 0.49033 0.0
C253 C 1.0879 1.08483 0.44206 0.0
N254 N 0.33953 0.47255 0.43152 0.0
N255 N 1.00448 1.00841 0.50121 0.0
H256 H 1.00234 0.92295 0.38907 0.0
H257 H 0.94789 0.84578 0.43232 0.0
H258 H 1.00356 1.02023 0.53185 0.0
H259 H 0.93131 0.92691 0.4841 0.0
H260 H 0.40457 0.57672 0.44877 0.0
H261 H 0.33164 0.48353 0.40114 0.0
H262 H 0.43968 0.51048 0.50007 0.0
H263 H 0.38477 0.43041 0.54314 0.0
C264 C 0.33436 0.49579 0.79641 0.0
C265 C 0.24582 0.37368 0.76809 0.0
C266 C 1.15456 0.23436 0.82382 0.0
C267 C 0.23688 0.364 0.85239 0.0
N268 N 0.39952 0.63383 0.86405 0.0
N269 N 1.06146 1.15859 0.75699 0.0
C270 C 0.32564 0.49958 0.83825 0.0
C271 C 1.15294 0.25248 0.78246 0.0
N272 N 0.4273 0.60496 0.78386 0.0
N273 N 1.07965 1.09061 0.83569 0.0
H274 H 1.05597 0.17867 0.72732 0.0
H275 H 0.99082 1.07664 0.767 0.0
H276 H 1.08282 1.06714 0.86517 0.0
H277 H 1.02236 0.99076 0.81524 0.0
H278 H 0.4961 0.68677 0.80367 0.0
H279 H 0.4368 0.60516 0.75384 0.0
H280 H 0.46044 0.73993 0.85453 0.0
H281 H 0.39467 0.64324 0.89431 0.0
loop_
_geom_bond_atom_site_label_1
_geom_bond_atom_site_label_2
_geom_bond_distance
_geom_bond_site_symmetry_2
_ccdc_geom_bond_type
Tb0 C9 2.764 . S
Tb0 O10 2.325 . S
Tb0 O13 2.303 1_666 S
Tb0 O17 2.322 1_565 S
Tb0 O18 2.349 1_565 S
Tb0 O21 2.415 1_556 S
Tb0 O22 2.399 . S
Tb1 O11 2.322 1_545 S
Tb1 O12 2.349 . S
Tb1 O14 2.415 1_554 S
Tb1 O15 2.399 . S
Tb1 O16 2.325 . S
Tb1 O19 2.303 1_554 S
Tb1 C30 2.764 . S
C2 O18 1.261 1_455 S
C2 O19 1.257 . S
C3 C6 1.358 . S
C3 C7 1.332 1_556 S
C3 C9 1.504 . S
C4 C5 1.373 1_554 S
C4 C8 1.308 . S
C5 C4 1.373 1_556 S
C5 C6 1.429 . S
C5 H32 0.932 . S
C6 C3 1.358 . S
C6 C5 1.429 . S
C6 H33 0.930 . S
C7 C3 1.332 1_554 S
C7 C8 1.394 . S
C7 H34 0.932 . S
C8 C4 1.308 . S
C8 C7 1.394 . S
C8 H35 0.929 . S
C9 Tb0 2.764 . S
C9 C3 1.504 . S
C9 O21 1.239 1_556 S
C9 O22 1.263 . S
O10 Tb0 2.325 . S
O10 C20 1.220 1_656 S
O11 Tb1 2.322 1_565 S
O11 C20 1.268 . S
O12 Tb1 2.349 . S
O12 C23 1.261 . S
O13 Tb0 2.303 1_444 S
O13 C23 1.257 . S
O14 Tb1 2.415 1_556 S
O14 C30 1.239 1_556 S
O15 Tb1 2.399 . S
O15 C30 1.263 . S
O16 Tb1 2.325 . S
O16 C31 1.236 . S
O17 Tb0 2.322 1_545 S
O17 C31 1.257 1_656 S
O18 Tb0 2.349 1_545 S
O18 C2 1.261 1_655 S
O19 Tb1 2.303 1_556 S
O19 C2 1.257 . S
C20 O10 1.220 1_454 S
C20 O11 1.268 . S
O21 Tb0 2.415 1_554 S
O21 C9 1.239 1_554 S
O22 Tb0 2.399 . S
O22 C9 1.263 . S
C23 O12 1.261 . S
C23 O13 1.257 . S
C24 C27 1.358 . S
C24 C28 1.332 1_554 S
C24 C30 1.504 . S
C25 C26 1.373 . S
C25 C29 1.308 1_554 S
C26 C25 1.373 . S
C26 C27 1.429 . S
C26 H36 0.932 . S
C27 C24 1.358 . S
C27 C26 1.429 . S
C27 H37 0.930 . S
C28 C24 1.332 1_556 S
C28 C29 1.394 . S
C28 H38 0.932 . S
C29 C25 1.308 1_556 S
C29 C28 1.394 . S
C29 H39 0.929 . S
C30 Tb1 2.764 . S
C30 O14 1.239 1_554 S
C30 O15 1.263 . S
C30 C24 1.504 . S
C31 O16 1.236 . S
C31 O17 1.257 1_454 S
H32 C5 0.932 . S
H33 C6 0.930 . S
H34 C7 0.932 . S
H35 C8 0.929 . S
H36 C26 0.932 . S
H37 C27 0.930 . S
H38 C28 0.932 . S
H39 C29 0.929 . S
Tb40 C49 2.764 . S
Tb40 O50 2.325 1_545 S
Tb40 O53 2.303 . S
Tb40 O57 2.322 . S
Tb40 O58 2.349 . S
Tb40 O61 2.415 . S
Tb40 O62 2.399 . S
Tb41 O51 2.322 . S
Tb41 O52 2.349 . S
Tb41 O54 2.415 . S
Tb41 O55 2.399 . S
Tb41 O56 2.325 1_565 S
Tb41 O59 2.303 . S
Tb41 C70 2.764 . S
C42 O58 1.261 . S
C42 O59 1.257 1_445 S
C43 C46 1.358 . S
C43 C47 1.332 1_545 S
C43 C49 1.504 . S
C44 C45 1.373 . S
C44 C48 1.308 1_545 S
C45 C44 1.373 . S
C45 C46 1.429 . S
C45 H72 0.932 . S
C46 C43 1.358 . S
C46 C45 1.429 . S
C46 H73 0.930 . S
C47 C43 1.332 1_565 S
C47 C48 1.394 . S
C47 H74 0.932 . S
C48 C44 1.308 1_565 S
C48 C47 1.394 . S
C48 H75 0.929 . S
C49 Tb40 2.764 . S
C49 C43 1.504 . S
C49 O61 1.239 . S
C49 O62 1.263 . S
O50 Tb40 2.325 1_565 S
O50 C60 1.236 1_455 S
O51 Tb41 2.322 . S
O51 C60 1.257 . S
O52 Tb41 2.349 . S
O52 C63 1.261 . S
O53 Tb40 2.303 . S
O53 C63 1.257 1_445 S
O54 Tb41 2.415 . S
O54 C70 1.239 . S
O55 Tb41 2.399 . S
O55 C70 1.263 . S
O56 Tb41 2.325 1_545 S
O56 C71 1.236 1_655 S
O57 Tb40 2.322 . S
O57 C71 1.257 . S
O58 Tb40 2.349 . S
O58 C42 1.261 . S
O59 Tb41 2.303 . S
O59 C42 1.257 1_665 S
C60 O50 1.236 1_655 S
C60 O51 1.257 . S
O61 Tb40 2.415 . S
O61 C49 1.239 . S
O62 Tb40 2.399 . S
O62 C49 1.263 . S
C63 O52 1.261 . S
C63 O53 1.257 1_665 S
C64 C67 1.358 . S
C64 C68 1.332 1_565 S
C64 C70 1.504 . S
C65 C66 1.373 . S
C65 C69 1.308 1_565 S
C66 C65 1.373 . S
C66 C67 1.429 . S
C66 H76 0.932 . S
C67 C64 1.358 . S
C67 C66 1.429 . S
C67 H77 0.930 . S
C68 C64 1.332 1_545 S
C68 C69 1.394 . S
C68 H78 0.932 . S
C69 C65 1.308 1_545 S
C69 C68 1.394 . S
C69 H79 0.929 . S
C70 Tb41 2.764 . S
C70 O54 1.239 . S
C70 O55 1.263 . S
C70 C64 1.504 . S
C71 O56 1.236 1_455 S
C71 O57 1.257 . S
H72 C45 0.932 . S
H73 C46 0.930 . S
H74 C47 0.932 . S
H75 C48 0.929 . S
H76 C66 0.932 . S
H77 C67 0.930 . S
H78 C68 0.932 . S
H79 C69 0.929 . S
Tb80 C89 2.764 . S
Tb80 O90 2.325 . S
Tb80 O93 2.303 1_655 S
Tb80 O97 2.322 1_655 S
Tb80 O98 2.349 . S
Tb80 O101 2.415 . S
Tb80 O102 2.399 . S
Tb81 O91 2.322 1_455 S
Tb81 O92 2.349 1_565 S
Tb81 O94 2.415 1_565 S
Tb81 O95 2.399 . S
Tb81 O96 2.325 1_565 S
Tb81 O99 2.303 1_565 S
Tb81 C110 2.764 . S
C82 O98 1.261 1_455 S
C82 O99 1.257 . S
C83 C86 1.358 . S
C83 C87 1.332 . S
C83 C89 1.504 . S
C84 C85 1.373 . S
C84 C88 1.308 . S
C85 C84 1.373 . S
C85 C86 1.429 . S
C85 H112 0.932 . S
C86 C83 1.358 . S
C86 C85 1.429 . S
C86 H113 0.930 . S
C87 C83 1.332 . S
C87 C88 1.394 . S
C87 H114 0.932 . S
C88 C84 1.308 . S
C88 C87 1.394 . S
C88 H115 0.929 . S
C89 Tb80 2.764 . S
C89 C83 1.504 . S
C89 O101 1.239 . S
C89 O102 1.263 . S
O90 Tb80 2.325 . S
O90 C100 1.236 1_545 S
O91 Tb81 2.322 1_655 S
O91 C100 1.257 . S
O92 Tb81 2.349 1_545 S
O92 C103 1.261 . S
O93 Tb80 2.303 1_455 S
O93 C103 1.257 . S
O94 Tb81 2.415 1_545 S
O94 C110 1.239 1_545 S
O95 Tb81 2.399 . S
O95 C110 1.263 . S
O96 Tb81 2.325 1_545 S
O96 C111 1.236 . S
O97 Tb80 2.322 1_455 S
O97 C111 1.257 . S
O98 Tb80 2.349 . S
O98 C82 1.261 1_655 S
O99 Tb81 2.303 1_545 S
O99 C82 1.257 . S
C100 O90 1.236 1_565 S
C100 O91 1.257 . S
O101 Tb80 2.415 . S
O101 C89 1.239 . S
O102 Tb80 2.399 . S
O102 C89 1.263 . S
C103 O92 1.261 . S
C103 O93 1.257 . S
C104 C107 1.358 . S
C104 C108 1.332 1_565 S
C104 C110 1.504 . S
C105 C106 1.373 . S
C105 C109 1.308 1_565 S
C106 C105 1.373 . S
C106 C107 1.429 . S
C106 H116 0.932 . S
C107 C104 1.358 . S
C107 C106 1.429 . S
C107 H117 0.930 . S
C108 C104 1.332 1_545 S
C108 C109 1.394 . S
C108 H118 0.932 . S
C109 C105 1.308 1_545 S
C109 C108 1.394 . S
C109 H119 0.929 . S
C110 Tb81 2.764 . S
C110 O94 1.239 1_565 S
C110 O95 1.263 . S
C110 C104 1.504 . S
C111 O96 1.236 . S
C111 O97 1.257 . S
H112 C85 0.932 . S
H113 C86 0.930 . S
H114 C87 0.932 . S
H115 C88 0.929 . S
H116 C106 0.932 . S
H117 C107 0.930 . S
H118 C108 0.932 . S
H119 C109 0.929 . S
C120 C121 1.363 . S
C120 C126 1.379 1_455 S
C120 N128 1.356 1_455 S
C121 C120 1.363 . S
C121 C127 1.363 1_554 S
C122 C123 1.363 1_556 S
C122 C127 1.379 . S
C122 N129 1.356 . S
C123 C122 1.363 1_554 S
C123 C126 1.363 1_455 S
N124 C126 1.356 . S
N124 H136 0.984 . S
N124 H137 0.985 . S
N125 C127 1.356 . S
N125 H130 0.984 . S
N125 H131 0.985 . S
C126 C120 1.379 1_655 S
C126 C123 1.363 1_655 S
C126 N124 1.356 . S
C127 C121 1.363 1_556 S
C127 C122 1.379 . S
C127 N125 1.356 . S
N128 C120 1.356 1_655 S
N128 H134 0.984 . S
N128 H135 0.984 1_655 S
N129 C122 1.356 . S
N129 H132 0.984 . S
N129 H133 0.985 . S
H130 N125 0.984 . S
H131 N125 0.985 . S
H132 N129 0.984 . S
H133 N129 0.985 . S
H134 N128 0.984 . S
H135 N128 0.984 1_455 S
H136 N124 0.984 . S
H137 N124 0.985 . S
C138 C139 1.363 . S
C138 C144 1.379 . S
C138 N146 1.356 . S
C139 C138 1.363 . S
C139 C145 1.363 1_545 S
C140 C141 1.363 . S
C140 C145 1.379 . S
C140 N147 1.356 . S
C141 C140 1.363 . S
C141 C144 1.363 1_565 S
N142 C144 1.356 . S
N142 H154 0.984 . S
N142 H155 0.985 . S
N143 C145 1.356 . S
N143 H148 0.984 . S
N143 H149 0.985 . S
C144 C138 1.379 . S
C144 C141 1.363 1_545 S
C144 N142 1.356 . S
C145 C139 1.363 1_565 S
C145 C140 1.379 . S
C145 N143 1.356 . S
N146 C138 1.356 . S
N146 H152 0.984 . S
N146 H153 0.984 . S
N147 C140 1.356 . S
N147 H150 0.984 . S
N147 H151 0.985 . S
H148 N143 0.984 . S
H149 N143 0.985 . S
H150 N147 0.984 . S
H151 N147 0.985 . S
H152 N146 0.984 . S
H153 N146 0.984 . S
H154 N142 0.984 . S
H155 N142 0.985 . S
C156 C157 1.363 . S
C156 C162 1.379 . S
C156 N164 1.356 . S
C157 C156 1.363 . S
C157 C163 1.363 . S
C158 C159 1.363 . S
C158 C163 1.379 . S
C158 N165 1.356 . S
C159 C158 1.363 . S
C159 C162 1.363 . S
N160 C162 1.356 . S
N160 H172 0.984 . S
N160 H173 0.985 . S
N161 C163 1.356 . S
N161 H166 0.984 . S
N161 H167 0.985 . S
C162 C156 1.379 . S
C162 C159 1.363 . S
C162 N160 1.356 . S
C163 C157 1.363 . S
C163 C158 1.379 . S
C163 N161 1.356 . S
N164 C156 1.356 . S
N164 H170 0.984 . S
N164 H171 0.984 . S
N165 C158 1.356 . S
N165 H168 0.984 . S
N165 H169 0.985 . S
H166 N161 0.984 . S
H167 N161 0.985 . S
H168 N165 0.984 . S
H169 N165 0.985 . S
H170 N164 0.984 . S
H171 N164 0.984 . S
H172 N160 0.984 . S
H173 N160 0.985 . S
C174 C175 1.363 . S
C174 C180 1.379 . S
C174 N182 1.356 . S
C175 C174 1.363 . S
C175 C181 1.363 . S
C176 C177 1.363 . S
C176 C181 1.379 . S
C176 N183 1.356 1_545 S
C177 C176 1.363 . S
C177 C180 1.363 . S
N178 C180 1.356 . S
N178 H190 0.984 . S
N178 H191 0.985 1_545 S
N179 C181 1.356 . S
N179 H184 0.984 . S
N179 H185 0.985 . S
C180 C174 1.379 . S
C180 C177 1.363 . S
C180 N178 1.356 . S
C181 C175 1.363 . S
C181 C176 1.379 . S
C181 N179 1.356 . S
N182 C174 1.356 . S
N182 H188 0.984 . S
N182 H189 0.984 . S
N183 C176 1.356 1_565 S
N183 H186 0.984 . S
N183 H187 0.985 . S
H184 N179 0.984 . S
H185 N179 0.985 . S
H186 N183 0.984 . S
H187 N183 0.985 . S
H188 N182 0.984 . S
H189 N182 0.984 . S
H190 N178 0.984 . S
H191 N178 0.985 1_565 S
C192 C193 1.363 1_556 S
C192 C198 1.379 . S
C192 N200 1.356 . S
C193 C192 1.363 1_554 S
C193 C199 1.363 . S
C194 C195 1.363 . S
C194 C199 1.379 . S
C194 N201 1.356 . S
C195 C194 1.363 . S
C195 C198 1.363 1_554 S
N196 C198 1.356 . S
N196 H208 0.984 . S
N196 H209 0.985 . S
N197 C199 1.356 . S
N197 H202 0.984 . S
N197 H203 0.985 . S
C198 C192 1.379 . S
C198 C195 1.363 1_556 S
C198 N196 1.356 . S
C199 C193 1.363 . S
C199 C194 1.379 . S
C199 N197 1.356 . S
N200 C192 1.356 . S
N200 H206 0.984 . S
N200 H207 0.984 . S
N201 C194 1.356 . S
N201 H204 0.984 . S
N201 H205 0.985 . S
H202 N197 0.984 . S
H203 N197 0.985 . S
H204 N201 0.984 . S
H205 N201 0.985 . S
H206 N200 0.984 . S
H207 N200 0.984 . S
H208 N196 0.984 . S
H209 N196 0.985 . S
C210 C211 1.363 . S
C210 C216 1.379 . S
C210 N218 1.356 . S
C211 C210 1.363 . S
C211 C217 1.363 1_455 S
C212 C213 1.363 . S
C212 C217 1.379 . S
C212 N219 1.356 . S
C213 C212 1.363 . S
C213 C216 1.363 1_655 S
N214 C216 1.356 . S
N214 H226 0.984 . S
N214 H227 0.985 . S
N215 C217 1.356 . S
N215 H220 0.984 . S
N215 H221 0.985 . S
C216 C210 1.379 . S
C216 C213 1.363 1_455 S
C216 N214 1.356 . S
C217 C211 1.363 1_655 S
C217 C212 1.379 . S
C217 N215 1.356 . S
N218 C210 1.356 . S
N218 H224 0.984 . S
N218 H225 0.984 . S
N219 C212 1.356 . S
N219 H222 0.984 . S
N219 H223 0.985 . S
H220 N215 0.984 . S
H221 N215 0.985 . S
H222 N219 0.984 . S
H223 N219 0.985 . S
H224 N218 0.984 . S
H225 N218 0.984 . S
H226 N214 0.984 . S
H227 N214 0.985 . S
C228 C229 1.363 1_545 S
C228 C234 1.379 . S
C228 N236 1.352 1_455 S
C229 C228 1.363 1_565 S
C229 C235 1.363 . S
C230 C231 1.363 1_565 S
C230 C235 1.379 . S
C230 N237 1.356 . S
C231 C230 1.363 1_545 S
C231 C234 1.363 . S
N232 C234 1.356 . S
N232 H244 0.984 . S
N232 H245 0.985 . S
N233 C235 1.356 . S
N233 H238 0.984 1_455 S
N233 H239 0.985 . S
C234 C228 1.379 . S
C234 C231 1.363 . S
C234 N232 1.356 . S
C235 C229 1.363 . S
C235 C230 1.379 . S
C235 N233 1.356 . S
N236 C228 1.352 1_655 S
N236 H242 0.990 1_655 S
N236 H243 0.985 . S
N237 C230 1.356 . S
N237 H240 0.984 . S
N237 H241 0.985 . S
H238 N233 0.984 1_655 S
H239 N233 0.985 . S
H240 N237 0.984 . S
H241 N237 0.985 . S
H242 N236 0.990 1_455 S
H243 N236 0.985 . S
H244 N232 0.984 . S
H245 N232 0.985 . S
C246 C247 1.363 . S
C246 C252 1.379 . S
C246 N254 1.356 . S
C247 C246 1.363 . S
C247 C253 1.363 1_445 S
C248 C249 1.363 1_665 S
C248 C253 1.379 . S
C248 N255 1.356 . S
C249 C248 1.363 1_445 S
C249 C252 1.363 . S
N250 C252 1.356 . S
N250 H262 0.984 . S
N250 H263 0.985 . S
N251 C253 1.356 . S
N251 H256 0.984 . S
N251 H257 0.985 . S
C252 C246 1.379 . S
C252 C249 1.363 . S
C252 N250 1.356 . S
C253 C247 1.363 1_665 S
C253 C248 1.379 . S
C253 N251 1.356 . S
N254 C246 1.356 . S
N254 H260 0.984 . S
N254 H261 0.984 . S
N255 C248 1.356 . S
N255 H258 0.984 . S
N255 H259 0.985 . S
H256 N251 0.984 . S
H257 N251 0.985 . S
H258 N255 0.984 . S
H259 N255 0.985 . S
H260 N254 0.984 . S
H261 N254 0.984 . S
H262 N250 0.984 . S
H263 N250 0.985 . S
C264 C265 1.363 . S
C264 C270 1.379 . S
C264 N272 1.356 . S
C265 C264 1.363 . S
C265 C271 1.363 1_455 S
C266 C267 1.363 1_655 S
C266 C271 1.379 . S
C266 N273 1.356 1_545 S
C267 C266 1.363 1_455 S
C267 C270 1.363 . S
N268 C270 1.356 . S
N268 H280 0.984 . S
N268 H281 0.985 . S
N269 C271 1.356 1_565 S
N269 H274 0.984 . S
N269 H275 0.985 . S
C270 C264 1.379 . S
C270 C267 1.363 . S
C270 N268 1.356 . S
C271 C265 1.363 1_655 S
C271 C266 1.379 . S
C271 N269 1.356 1_545 S
N272 C264 1.356 . S
N272 H278 0.984 . S
N272 H279 0.984 . S
N273 C266 1.356 1_565 S
N273 H276 0.984 . S
N273 H277 0.985 . S
H274 N269 0.984 . S
H275 N269 0.985 . S
H276 N273 0.984 . S
H277 N273 0.985 . S
H278 N272 0.984 . S
H279 N272 0.984 . S
H280 N268 0.984 . S
H281 N268 0.985 . S
C121 C31 2.998 . S
C123 C20 3.010 . S
C139 C44 0.525 . S
C141 C65 0.525 . S
C157 C100 4.934 . S
C159 C111 4.934 . S
C175 C84 1.154 . S
C177 C105 1.154 1_545 S
C193 C4 0.713 . S
C195 C25 0.713 . S
C211 C71 2.927 . S
C213 C60 2.927 . S
C229 C63 1.501 1_455 S
C231 C23 1.507 . S
C247 C42 1.483 . S
C249 C82 1.501 . S
C265 C103 1.463 . S
C267 C2 1.482 . S
