# Generated by pormake.
# Topology bcu-f, (3)-cn, num edge types: 1
# Building blocks:
#     Node 0, Type 0, BuildingBlock: OLANEW_clean_sbu_2, # of connection points: 3
#     Node 1, Type 0, BuildingBlock: OLANEW_clean_sbu_2, # of connection points: 3
#     Node 2, Type 0, BuildingBlock: OLANEW_clean_sbu_2, # of connection points: 3
#     Node 3, Type 0, BuildingBlock: OLANEW_clean_sbu_2, # of connection points: 3
#     Node 4, Type 0, BuildingBlock: OLANEW_clean_sbu_2, # of connection points: 3
#     Node 5, Type 0, BuildingBlock: OLANEW_clean_sbu_2, # of connection points: 3
#     Node 6, Type 0, BuildingBlock: OLANEW_clean_sbu_2, # of connection points: 3
#     Node 7, Type 0, BuildingBlock: OLANEW_clean_sbu_2, # of connection points: 3
#     Node 8, Type 0, BuildingBlock: OLANEW_clean_sbu_2, # of connection points: 3
#     Node 9, Type 0, BuildingBlock: OLANEW_clean_sbu_2, # of connection points: 3
#     Node 10, Type 0, BuildingBlock: OLANEW_clean_sbu_2, # of connection points: 3
#     Node 11, Type 0, BuildingBlock: OLANEW_clean_sbu_2, # of connection points: 3
#     Node 12, Type 0, BuildingBlock: OLANEW_clean_sbu_2, # of connection points: 3
#     Node 13, Type 0, BuildingBlock: OLANEW_clean_sbu_2, # of connection points: 3
#     Node 14, Type 0, BuildingBlock: OLANEW_clean_sbu_2, # of connection points: 3
#     Node 15, Type 0, BuildingBlock: OLANEW_clean_sbu_2, # of connection points: 3
#     Edge 16, Type (0, 0), BuildingBlock: EZIPEK_clean_linker_0, # of connection points: 2
#     Edge 17, Type (0, 0), BuildingBlock: EZIPEK_clean_linker_0, # of connection points: 2
#     Edge 18, Type (0, 0), BuildingBlock: EZIPEK_clean_linker_0, # of connection points: 2
#     Edge 19, Type (0, 0), BuildingBlock: EZIPEK_clean_linker_0, # of connection points: 2
#     Edge 20, Type (0, 0), BuildingBlock: EZIPEK_clean_linker_0, # of connection points: 2
#     Edge 21, Type (0, 0), BuildingBlock: EZIPEK_clean_linker_0, # of connection points: 2
#     Edge 22, Type (0, 0), BuildingBlock: EZIPEK_clean_linker_0, # of connection points: 2
#     Edge 23, Type (0, 0), BuildingBlock: EZIPEK_clean_linker_0, # of connection points: 2
#     Edge 24, Type (0, 0), BuildingBlock: EZIPEK_clean_linker_0, # of connection points: 2
#     Edge 25, Type (0, 0), BuildingBlock: EZIPEK_clean_linker_0, # of connection points: 2
#     Edge 26, Type (0, 0), BuildingBlock: EZIPEK_clean_linker_0, # of connection points: 2
#     Edge 27, Type (0, 0), BuildingBlock: EZIPEK_clean_linker_0, # of connection points: 2
#     Edge 28, Type (0, 0), BuildingBlock: EZIPEK_clean_linker_0, # of connection points: 2
#     Edge 29, Type (0, 0), BuildingBlock: EZIPEK_clean_linker_0, # of connection points: 2
#     Edge 30, Type (0, 0), BuildingBlock: EZIPEK_clean_linker_0, # of connection points: 2
#     Edge 31, Type (0, 0), BuildingBlock: EZIPEK_clean_linker_0, # of connection points: 2
#     Edge 32, Type (0, 0), BuildingBlock: EZIPEK_clean_linker_0, # of connection points: 2
#     Edge 33, Type (0, 0), BuildingBlock: EZIPEK_clean_linker_0, # of connection points: 2
#     Edge 34, Type (0, 0), BuildingBlock: EZIPEK_clean_linker_0, # of connection points: 2
#     Edge 35, Type (0, 0), BuildingBlock: EZIPEK_clean_linker_0, # of connection points: 2
#     Edge 36, Type (0, 0), BuildingBlock: EZIPEK_clean_linker_0, # of connection points: 2
#     Edge 37, Type (0, 0), BuildingBlock: EZIPEK_clean_linker_0, # of connection points: 2
#     Edge 38, Type (0, 0), BuildingBlock: EZIPEK_clean_linker_0, # of connection points: 2
#     Edge 39, Type (0, 0), BuildingBlock: EZIPEK_clean_linker_0, # of connection points: 2
# Relax obj value: 0.001
# Max RMSD: 0.037
# Mean RMSD: 0.037
data_MOF--net-bcu-f--node1-OLANEW_clean_sbu_2--edge1-EZIPEK_clean_linker_0
_symmetry_space_group_name_H-M    P1
_symmetry_Int_Tables_number       1
_symmetry_cell_setting            triclinic
loop_
_symmetry_equiv_pos_as_xyz
'x, y, z'
_cell_length_a     56.203068
_cell_length_b     56.006301
_cell_length_c     16.312385
_cell_angle_alpha  90.244442
_cell_angle_beta   90.326801
_cell_angle_gamma 89.503643
loop_
_atom_site_label
_atom_site_type_symbol
_atom_site_fract_x
_atom_site_fract_y
_atom_site_fract_z
_atom_type_partial_charge
O0 O 0.13337 0.11152 0.07245 0.0
Cd1 Cd 0.15874 0.07645 0.05092 0.0
O2 O 0.16623 0.13149 0.09392 0.0
Cd3 Cd 0.18429 0.16476 0.12317 0.0
O4 O 0.20661 0.19523 0.15297 0.0
C5 C 0.22567 0.19131 0.19298 0.0
O6 O 0.2311 0.1694 0.21509 0.0
C7 C 0.1437 0.13103 0.08915 0.0
C8 C 0.14123 0.04596 0.9305 0.0
O9 O 0.13597 0.04289 0.00603 0.0
O10 O 0.15464 0.06346 0.91155 0.0
O11 O 0.85465 0.16785 0.93171 0.0
Cd12 Cd 0.85087 0.19868 0.03763 0.0
O13 O 0.86154 0.19272 0.83047 0.0
Cd14 Cd 0.85099 0.22299 0.90714 0.0
O15 O 0.83565 0.24815 0.99536 0.0
C16 C 0.81533 0.24368 0.0251 0.0
O17 O 0.80398 0.22442 0.00135 0.0
C18 C 0.86003 0.17149 0.85716 0.0
C19 C 0.89622 0.21235 0.08744 0.0
O20 O 0.8851 0.22387 0.03123 0.0
O21 O 0.88582 0.19476 0.12158 0.0
O22 O 0.85901 0.88261 0.1259 0.0
Cd23 Cd 0.83512 0.91895 0.11125 0.0
O24 O 0.82525 0.86328 0.12688 0.0
Cd25 Cd 0.80531 0.83027 0.13776 0.0
O26 O 0.78011 0.80187 0.16171 0.0
C27 C 0.7707 0.80116 0.23221 0.0
O28 O 0.77678 0.817 0.28795 0.0
C29 C 0.84782 0.86307 0.13056 0.0
C30 C 0.84912 0.94633 0.97875 0.0
O31 O 0.85769 0.9502 0.05051 0.0
O32 O 0.83402 0.92952 0.96926 0.0
O33 O 0.13264 0.82244 0.93744 0.0
Cd34 Cd 0.13688 0.7943 0.0507 0.0
O35 O 0.12312 0.79544 0.84471 0.0
Cd36 Cd 0.13544 0.76681 0.92564 0.0
O37 O 0.15111 0.74279 0.01706 0.0
C38 C 0.17005 0.74892 0.05418 0.0
O39 O 0.18016 0.76927 0.03597 0.0
C40 C 0.12566 0.8172 0.86529 0.0
C41 C 0.09192 0.78087 0.10318 0.0
O42 O 0.10331 0.76814 0.05093 0.0
O43 O 0.10182 0.79965 0.13205 0.0
O44 O 0.08953 0.90856 0.64384 0.0
Cd45 Cd 0.08887 0.94688 0.57366 0.0
O46 O 0.12811 0.90835 0.62447 0.0
Cd47 Cd 0.16309 0.89168 0.6394 0.0
O48 O 0.1942 0.86831 0.63092 0.0
C49 C 0.19825 0.85273 0.68571 0.0
O50 O 0.1844 0.85176 0.75016 0.0
C51 C 0.10975 0.89873 0.65463 0.0
C52 C 0.10592 0.98087 0.68315 0.0
O53 O 0.08355 0.97712 0.67634 0.0
O54 O 0.12021 0.96911 0.63689 0.0
O55 O 0.06645 0.21401 0.17031 0.0
Cd56 Cd 0.04081 0.2491 0.18894 0.0
O57 O 0.09487 0.23713 0.12542 0.0
Cd58 Cd 0.13044 0.24284 0.0759 0.0
O59 O 0.16349 0.25682 0.02569 0.0
C60 C 0.17394 0.24715 0.96502 0.0
O61 O 0.16531 0.22758 0.93213 0.0
C62 C 0.0873 0.21642 0.14212 0.0
C63 C 0.99334 0.23792 0.16126 0.0
O64 O 0.00686 0.24379 0.10185 0.0
O65 O 0.00207 0.2374 0.23396 0.0
O66 O 0.89303 0.07602 0.64688 0.0
Cd67 Cd 0.89164 0.03638 0.58508 0.0
O68 O 0.85402 0.07591 0.6399 0.0
Cd69 Cd 0.82021 0.09418 0.66261 0.0
O70 O 0.79263 0.12179 0.66116 0.0
C71 C 0.78374 0.12755 0.5922 0.0
O72 O 0.79086 0.1163 0.52577 0.0
C73 C 0.87316 0.08605 0.66201 0.0
C74 C 0.8776 0.00499 0.70648 0.0
O75 O 0.89971 0.00823 0.69194 0.0
O76 O 0.86212 0.01599 0.66238 0.0
O77 O 0.92295 0.778 0.20225 0.0
Cd78 Cd 0.94876 0.74287 0.21594 0.0
O79 O 0.89497 0.75566 0.1482 0.0
Cd80 Cd 0.8597 0.75091 0.09352 0.0
O81 O 0.82652 0.7376 0.04054 0.0
C82 C 0.81891 0.74447 0.97096 0.0
O83 O 0.83063 0.76076 0.9303 0.0
C84 C 0.90235 0.77604 0.17074 0.0
C85 C -0.0042 0.75446 0.18417 0.0
O86 O 0.98156 0.74881 0.12577 0.0
O87 O 0.98799 0.75451 0.2578 0.0
O88 O 0.65562 0.60646 0.72146 0.0
Cd89 Cd 0.66693 0.58067 0.8356 0.0
O90 O 0.68081 0.63373 0.76273 0.0
Cd91 Cd 0.69969 0.66764 0.75706 0.0
O92 O 0.72606 0.6948 0.7879 0.0
C93 C 0.73905 0.69054 0.85027 0.0
O94 O 0.73561 0.67098 0.89256 0.0
C95 C 0.66515 0.62671 0.71179 0.0
C96 C 0.68772 0.53868 0.77764 0.0
O97 O 0.66515 0.54035 0.78697 0.0
O98 O 0.70054 0.55674 0.7964 0.0
O99 O 0.36003 0.69665 0.51904 0.0
Cd100 Cd 0.38959 0.72838 0.51509 0.0
O101 O 0.33549 0.72503 0.55772 0.0
Cd102 Cd 0.30074 0.73923 0.59255 0.0
O103 O 0.2703 0.76242 0.6182 0.0
C104 C 0.27442 0.78371 0.64111 0.0
O105 O 0.29651 0.79069 0.65065 0.0
C106 C 0.33924 0.70322 0.53993 0.0
C107 C 0.43444 0.71361 0.46319 0.0
O108 O 0.42925 0.714 0.5396 0.0
O109 O 0.41835 0.71979 0.41127 0.0
O110 O 0.3345 0.38657 0.7211 0.0
Cd111 Cd 0.32328 0.41128 0.83841 0.0
O112 O 0.31074 0.3582 0.76194 0.0
Cd113 Cd 0.29296 0.3237 0.7553 0.0
O114 O 0.26748 0.29607 0.78815 0.0
C115 C 0.25214 0.30208 0.84154 0.0
O116 O 0.25276 0.32363 0.87349 0.0
C117 C 0.32563 0.36601 0.71048 0.0
C118 C 0.30173 0.45347 0.78604 0.0
O119 O 0.32435 0.45202 0.79514 0.0
O120 O 0.28921 0.43509 0.80236 0.0
O121 O 0.63001 0.29616 0.4915 0.0
Cd122 Cd 0.59968 0.26531 0.47888 0.0
O123 O 0.65453 0.26621 0.51242 0.0
Cd124 Cd 0.68932 0.2502 0.53735 0.0
O125 O 0.71835 0.22486 0.55905 0.0
C126 C 0.71322 0.20281 0.55712 0.0
O127 O 0.6911 0.19643 0.54349 0.0
C128 C 0.65099 0.28853 0.50545 0.0
C129 C 0.55478 0.28201 0.43319 0.0
O130 O 0.57046 0.27684 0.37904 0.0
O131 O 0.56042 0.27973 0.50902 0.0
O132 O 0.72009 0.37772 0.57571 0.0
Cd133 Cd 0.74941 0.40958 0.58605 0.0
O134 O 0.74568 0.35699 0.50286 0.0
Cd135 Cd 0.75613 0.32616 0.4285 0.0
O136 O 0.77073 0.30039 0.34092 0.0
C137 C 0.77353 0.30694 0.26715 0.0
O138 O 0.76721 0.32866 0.24542 0.0
C139 C 0.72527 0.35896 0.53536 0.0
C140 C 0.72973 0.45154 0.64896 0.0
O141 O 0.72895 0.44703 0.57191 0.0
O142 O 0.73982 0.43627 0.69638 0.0
O143 O 0.6002 0.66264 0.42514 0.0
Cd144 Cd 0.5757 0.67613 0.30997 0.0
O145 O 0.62973 0.68345 0.37624 0.0
Cd146 Cd 0.66588 0.69732 0.37823 0.0
O147 O 0.69719 0.71905 0.35556 0.0
C148 C 0.69548 0.7343 0.29836 0.0
O149 O 0.67558 0.73601 0.25611 0.0
C150 C 0.62158 0.66966 0.43072 0.0
C151 C 0.52965 0.6877 0.3589 0.0
O152 O 0.5463 0.70316 0.36264 0.0
O153 O 0.5347 0.66674 0.33194 0.0
O154 O 0.26778 0.61566 0.60715 0.0
Cd155 Cd 0.2385 0.5837 0.61147 0.0
O156 O 0.24817 0.63094 0.50303 0.0
Cd157 Cd 0.24227 0.65744 0.40693 0.0
O158 O 0.2298 0.68068 0.30801 0.0
C159 C 0.2092 0.69006 0.31341 0.0
O160 O 0.19623 0.68602 0.37855 0.0
C161 C 0.26564 0.6317 0.55273 0.0
C162 C 0.25846 0.54127 0.66897 0.0
O163 O 0.25913 0.54651 0.59263 0.0
O164 O 0.24829 0.556 0.71821 0.0
O165 O 0.38908 0.33552 0.41564 0.0
Cd166 Cd 0.41303 0.32446 0.2967 0.0
O167 O 0.36088 0.31233 0.36847 0.0
Cd168 Cd 0.32615 0.29527 0.3721 0.0
O169 O 0.29703 0.27087 0.34514 0.0
C170 C 0.29266 0.26599 0.27045 0.0
O171 O 0.30499 0.27636 0.21265 0.0
C172 C 0.36847 0.32668 0.42293 0.0
C173 C 0.45923 0.31138 0.34085 0.0
O174 O 0.45425 0.33294 0.32055 0.0
O175 O 0.44244 0.29604 0.34034 0.0
C176 C 0.12911 0.98874 0.81177 0.0
C177 C 0.11515 -0.00235 0.74568 0.0
C178 C 0.1167 0.03797 0.80452 0.0
C179 C 0.13232 0.0294 0.86665 0.0
N180 N 0.15684 -0.00234 0.92167 0.0
N181 N 0.09868 0.03106 0.67116 0.0
C182 C 0.13947 0.00505 0.86824 0.0
C183 C 0.10975 0.02237 0.73983 0.0
N184 N 0.1317 0.96464 0.82248 0.0
N185 N 0.10778 0.06073 0.80906 0.0
H186 H 0.09336 0.02017 0.6225 0.0
H187 H 0.0966 0.04921 0.65918 0.0
H188 H 0.11234 0.07265 0.85574 0.0
H189 H 0.09432 0.06716 0.77076 0.0
H190 H 0.13935 0.95706 0.87461 0.0
H191 H 0.12435 0.95206 0.78265 0.0
H192 H 0.16467 0.98075 0.91953 0.0
H193 H 0.16502 0.00908 0.96366 0.0
C194 C 0.93976 0.20248 0.09012 0.0
C195 C 0.92096 0.21859 0.10965 0.0
C196 C 0.94977 0.24784 0.16068 0.0
C197 C 0.96838 0.23115 0.14566 0.0
N198 N 0.98121 0.19136 0.1091 0.0
N199 N 0.9073 0.25487 0.1747 0.0
C200 C 0.9634 0.20809 0.11419 0.0
C201 C 0.92574 0.24084 0.14802 0.0
N202 N 0.93515 0.18233 0.04528 0.0
N203 N 0.95514 0.2706 0.18474 0.0
H204 H 0.8895 0.25027 0.16639 0.0
H205 H 0.90951 0.27007 0.21077 0.0
H206 H 0.97251 0.27618 0.19625 0.0
H207 H 0.94266 0.28441 0.18781 0.0
H208 H 0.94837 0.17133 0.02086 0.0
H209 H 0.91808 0.17755 0.02657 0.0
H210 H 0.97828 0.17344 0.09548 0.0
H211 H -0.00116 0.19494 0.12502 0.0
C212 C 0.87431 0.96484 0.7727 0.0
C213 C 0.87011 0.98984 0.77548 0.0
C214 C 0.85023 0.98588 0.908 0.0
C215 C 0.85625 0.96122 0.90855 0.0
N216 N 0.87706 0.92771 0.84823 0.0
N217 N 0.85769 0.02494 0.85079 0.0
C218 C 0.86908 0.95079 0.84263 0.0
C219 C 0.85902 0.00059 0.84448 0.0
N220 N 0.88258 0.95446 0.70228 0.0
N221 N 0.83536 0.99505 0.96651 0.0
H222 H 0.8639 0.03639 0.80558 0.0
H223 H 0.8523 0.03386 0.90375 0.0
H224 H 0.82844 0.98483 0.01391 0.0
H225 H 0.82819 0.01225 0.96413 0.0
H226 H 0.88354 0.93606 0.69322 0.0
H227 H 0.88667 0.96422 0.64996 0.0
H228 H 0.88871 0.9199 0.80638 0.0
H229 H 0.87363 0.91686 0.89855 0.0
C230 C 0.06346 0.75354 0.17319 0.0
C231 C 0.06743 0.77451 0.12689 0.0
C232 C 0.02468 0.78357 0.1268 0.0
C233 C 0.02051 0.76152 0.1664 0.0
N234 N 0.0352 0.724 0.21899 0.0
N235 N 0.05195 0.80776 0.04895 0.0
C236 C 0.03972 0.7461 0.18768 0.0
C237 C 0.04808 0.78913 0.10103 0.0
N238 N 0.0824 0.74119 0.20532 0.0
N239 N 0.00637 0.79952 0.11604 0.0
H240 H 0.06883 0.81244 0.02875 0.0
H241 H 0.03833 0.81737 0.02034 0.0
H242 H 0.98894 0.79605 0.13383 0.0
H243 H 0.00874 0.81696 0.09596 0.0
H244 H 0.08071 0.72724 0.24682 0.0
H245 H 0.10003 0.74612 0.19573 0.0
H246 H 0.04821 0.71087 0.22718 0.0
H247 H 0.01805 0.71805 0.2312 0.0
C248 C 0.71359 0.51727 0.67536 0.0
C249 C 0.69871 0.51642 0.74532 0.0
C250 C 0.70217 0.47277 0.74639 0.0
C251 C 0.71915 0.47386 0.68242 0.0
N252 N 0.7448 0.49773 0.5979 0.0
N253 N 0.6829 0.49377 0.85797 0.0
C254 C 0.72593 0.49628 0.65013 0.0
C255 C 0.69412 0.49428 0.78388 0.0
N256 N 0.71516 0.5378 0.63073 0.0
N257 N 0.6929 0.45132 0.76906 0.0
H258 H 0.6773 0.50916 0.88879 0.0
H259 H 0.68133 0.4783 0.8927 0.0
H260 H 0.6977 0.43517 0.74146 0.0
H261 H 0.67868 0.44981 0.80935 0.0
H262 H 0.72377 0.53862 0.57443 0.0
H263 H 0.70586 0.55341 0.64546 0.0
H264 H 0.752 0.5139 0.57934 0.0
H265 H 0.75483 0.48291 0.57973 0.0
C266 C 0.49323 0.67982 0.44331 0.0
C267 C 0.50511 0.69402 0.38464 0.0
C268 C 0.47161 0.7223 0.38429 0.0
C269 C 0.45866 0.70673 0.43564 0.0
N270 N 0.45539 0.66814 0.49998 0.0
N271 N 0.50324 0.7259 0.28542 0.0
C272 C 0.46896 0.68475 0.46127 0.0
C273 C 0.49364 0.71446 0.35112 0.0
N274 N 0.50533 0.66232 0.48473 0.0
N275 N 0.4635 0.74499 0.37004 0.0
H276 H 0.51895 0.72028 0.25728 0.0
H277 H 0.49434 0.73939 0.25351 0.0
H278 H 0.44788 0.75185 0.39547 0.0
H279 H 0.47353 0.75782 0.34007 0.0
H280 H 0.49814 0.65315 0.53409 0.0
H281 H 0.52332 0.6586 0.47555 0.0
H282 H 0.4614 0.65087 0.51238 0.0
H283 H 0.43736 0.67074 0.5122 0.0
C284 C 0.26267 0.49658 0.66414 0.0
C285 C 0.26929 0.51876 0.69962 0.0
C286 C 0.29476 0.49769 0.79855 0.0
C287 C 0.29034 0.47587 0.75682 0.0
N288 N 0.27381 0.45537 0.63924 0.0
N289 N 0.29547 0.54077 0.7898 0.0
C290 C 0.27529 0.4755 0.68665 0.0
C291 C 0.28639 0.51944 0.76399 0.0
N292 N 0.24372 0.49543 0.61141 0.0
N293 N 0.30615 0.49762 0.87282 0.0
H294 H 0.29043 0.55711 0.76443 0.0
H295 H 0.30977 0.54205 0.83049 0.0
H296 H 0.312 0.48201 0.90153 0.0
H297 H 0.30762 0.51276 0.90975 0.0
H298 H 0.23664 0.47937 0.5905 0.0
H299 H 0.23351 0.51032 0.59511 0.0
H300 H 0.26506 0.45497 0.58277 0.0
H301 H 0.28328 0.43972 0.65199 0.0
C302 C 0.52062 0.31121 0.44144 0.0
C303 C 0.53049 0.28983 0.40866 0.0
C304 C 0.49488 0.28456 0.32331 0.0
C305 C 0.48387 0.30423 0.36357 0.0
N306 N 0.48468 0.3334 0.47311 0.0
N307 N 0.52475 0.25335 0.3315 0.0
C308 C 0.4963 0.31682 0.42598 0.0
C309 C 0.51702 0.27571 0.35309 0.0
N310 N 0.53464 0.32666 0.4847 0.0
N311 N 0.48473 0.27488 0.2546 0.0
H312 H 0.54043 0.24572 0.35413 0.0
H313 H 0.51437 0.24142 0.29797 0.0
H314 H 0.46892 0.28133 0.22889 0.0
H315 H 0.49328 0.26213 0.21823 0.0
H316 H 0.52893 0.34363 0.50269 0.0
H317 H 0.55272 0.32358 0.49539 0.0
H318 H 0.49229 0.34127 0.52487 0.0
H319 H 0.46668 0.33754 0.46574 0.0
C320 C 0.12729 0.16252 0.1832 0.0
C321 C 0.12965 0.15315 0.10263 0.0
C322 C 0.10652 0.18683 0.0472 0.0
C323 C 0.10255 0.19512 0.12838 0.0
N324 N 0.10745 0.19058 0.27441 0.0
N325 N 0.12046 0.15484 0.95821 0.0
C326 C 0.11249 0.18289 0.19665 0.0
C327 C 0.11897 0.16489 0.03464 0.0
N328 N 0.13947 0.15207 0.24667 0.0
N329 N 0.09859 0.20009 0.98214 0.0
H330 H 0.13043 0.13948 0.94579 0.0
H331 H 0.11077 0.16083 0.90766 0.0
H332 H 0.08842 0.21563 0.98876 0.0
H333 H 0.10325 0.19665 0.92157 0.0
H334 H 0.14089 0.15955 0.30497 0.0
H335 H 0.14949 0.13643 0.24009 0.0
H336 H 0.11163 0.18095 0.32704 0.0
H337 H 0.09784 0.2062 0.28667 0.0
C338 C 0.88234 0.11066 0.78729 0.0
C339 C 0.87208 0.10896 0.70779 0.0
C340 C 0.85353 0.14839 0.72568 0.0
C341 C 0.86521 0.15079 0.80272 0.0
N342 N 0.89616 0.137 0.89482 0.0
N343 N 0.85317 0.12868 0.59323 0.0
C344 C 0.88129 0.13277 0.82988 0.0
C345 C 0.85936 0.12865 0.67435 0.0
N346 N 0.89198 0.09094 0.82432 0.0
N347 N 0.83592 0.16407 0.70327 0.0
H348 H 0.8574 0.11461 0.55364 0.0
H349 H 0.84599 0.14358 0.56379 0.0
H350 H 0.8303 0.17822 0.74026 0.0
H351 H 0.82528 0.16168 0.65146 0.0
H352 H 0.89726 0.09077 0.88566 0.0
H353 H 0.89264 0.07414 0.79669 0.0
H354 H 0.90978 0.12529 0.91208 0.0
H355 H 0.89665 0.15335 0.92557 0.0
C356 C 0.86067 0.82825 0.21659 0.0
C357 C 0.86094 0.84024 0.14008 0.0
C358 C 0.88569 0.80829 0.08106 0.0
C359 C 0.88722 0.7975 0.15947 0.0
N360 N 0.87785 0.79741 0.30342 0.0
N361 N 0.87456 0.84302 1.00053 0.0
C362 C 0.87511 0.8075 0.22768 0.0
C363 C 0.87368 0.83061 0.07252 0.0
N364 N 0.84645 0.8366 0.27835 0.0
N365 N 0.89544 0.79697 0.01461 0.0
H366 H 0.86494 0.85875 0.99032 0.0
H367 H 0.8858 0.83857 0.95224 0.0
H368 H 0.90507 0.78102 0.01896 0.0
H369 H 0.89271 0.80239 0.95434 0.0
H370 H 0.84319 0.82723 0.33202 0.0
H371 H 0.83656 0.8524 0.27412 0.0
H372 H 0.87191 0.80529 0.35751 0.0
H373 H 0.88736 0.78158 0.31313 0.0
C374 C 0.12894 0.83682 0.72616 0.0
C375 C 0.11966 0.83675 0.80712 0.0
C376 C 0.10422 0.87739 0.7879 0.0
C377 C 0.11211 0.87694 0.70546 0.0
N378 N 0.12706 0.85432 0.5904 0.0
N379 N 0.09215 0.85407 0.90439 0.0
C380 C 0.12293 0.85601 0.67272 0.0
C381 C 0.10538 0.85617 0.83478 0.0
N382 N 0.14449 0.81934 0.7015 0.0
N383 N 0.09669 0.8983 0.82316 0.0
H384 H 0.09155 0.83838 0.93842 0.0
H385 H 0.07969 0.86686 0.92283 0.0
H386 H 0.09609 0.91453 0.79215 0.0
H387 H 0.09327 0.89999 0.88566 0.0
H388 H 0.15334 0.81964 0.6457 0.0
H389 H 0.15048 0.80566 0.73961 0.0
H390 H 0.13271 0.83865 0.56164 0.0
H391 H 0.12269 0.86797 0.54953 0.0
C392 C 0.6428 0.66121 0.65053 0.0
C393 C 0.65824 0.6413 0.63994 0.0
C394 C 0.65455 0.64469 0.49037 0.0
C395 C 0.63639 0.66214 0.50152 0.0
N396 N 0.61353 0.68808 0.58976 0.0
N397 N 0.67996 0.6143 0.55207 0.0
C398 C 0.63081 0.67092 0.58099 0.0
C399 C 0.66469 0.63331 0.56033 0.0
N400 N 0.63957 0.67068 0.72713 0.0
N401 N 0.66191 0.63894 0.41294 0.0
H402 H 0.68889 0.60661 0.60176 0.0
H403 H 0.68323 0.60552 0.49691 0.0
H404 H 0.65429 0.6463 0.3603 0.0
H405 H 0.67661 0.62815 0.40037 0.0
H406 H 0.63034 0.68651 0.7387 0.0
H407 H 0.64763 0.6636 0.77945 0.0
H408 H 0.6064 0.69331 0.6458 0.0
H409 H 0.60552 0.69665 0.53994 0.0
C410 C 0.29707 0.65375 0.47518 0.0
C411 C 0.28349 0.65097 0.54756 0.0
C412 C 0.30723 0.68171 0.61645 0.0
C413 C 0.31959 0.68574 0.54221 0.0
N414 N 0.32267 0.67939 0.39621 0.0
N415 N 0.27207 0.66578 0.68088 0.0
C416 C 0.31347 0.67285 0.47012 0.0
C417 C 0.28752 0.66598 0.61646 0.0
N418 N 0.29516 0.63754 0.41263 0.0
N419 N 0.31492 0.69206 0.68779 0.0
H420 H 0.25718 0.6548 0.68251 0.0
H421 H 0.27267 0.6781 0.72885 0.0
H422 H 0.32948 0.70344 0.69082 0.0
H423 H 0.30821 0.68768 0.74514 0.0
H424 H 0.30655 0.63717 0.36249 0.0
H425 H 0.2836 0.62309 0.41406 0.0
H426 H 0.31688 0.6723 0.34049 0.0
H427 H 0.33441 0.69356 0.38964 0.0
C428 C 0.32459 0.35972 0.5587 0.0
C429 C 0.33243 0.35196 0.63712 0.0
C430 C 0.36094 0.32426 0.57376 0.0
C431 C 0.35392 0.33287 0.49545 0.0
N432 N 0.3259 0.35449 0.41082 0.0
N433 N 0.35376 0.3235 0.72057 0.0
C434 C 0.33456 0.34912 0.48712 0.0
C435 C 0.34914 0.333 0.64497 0.0
N436 N 0.30816 0.37782 0.55309 0.0
N437 N 0.37939 0.30827 0.57983 0.0
H438 H 0.34576 0.32987 0.77397 0.0
H439 H 0.36407 0.30825 0.73021 0.0
H440 H 0.3874 0.30041 0.52873 0.0
H441 H 0.38744 0.30336 0.63489 0.0
H442 H 0.30373 0.38649 0.49878 0.0
H443 H 0.29943 0.38489 0.60413 0.0
H444 H 0.31041 0.36435 0.40041 0.0
H445 H 0.33327 0.34762 0.35708 0.0
C446 C 0.70026 0.32685 0.59684 0.0
C447 C 0.70749 0.33968 0.5264 0.0
C448 C 0.67822 0.31834 0.44175 0.0
C449 C 0.67104 0.30547 0.51215 0.0
N450 N 0.6766 0.29496 0.65423 0.0
N451 N 0.70581 0.34613 0.38033 0.0
C452 C 0.68256 0.30893 0.58896 0.0
C453 C 0.69725 0.33489 0.44829 0.0
N454 N 0.71015 0.33212 0.67157 0.0
N455 N 0.66652 0.31496 0.36885 0.0
H456 H 0.71857 0.3595 0.38301 0.0
H457 H 0.70132 0.3415 0.32045 0.0
H458 H 0.65371 0.30182 0.36001 0.0
H459 H 0.66862 0.3257 0.31758 0.0
H460 H 0.70382 0.3258 0.72711 0.0
H461 H 0.7244 0.34375 0.67895 0.0
H462 H 0.68603 0.29445 0.70924 0.0
H463 H 0.66274 0.28271 0.65247 0.0
C464 C 0.25102 0.25008 0.27148 0.0
C465 C 0.27523 0.24728 0.24892 0.0
C466 C 0.2659 0.2096 0.1796 0.0
C467 C 0.2424 0.21097 0.21052 0.0
N468 N 0.21325 0.23084 0.29557 0.0
N469 N 0.3067 0.22232 0.19442 0.0
C470 C 0.23507 0.2308 0.25896 0.0
C471 C 0.28296 0.22651 0.20626 0.0
N472 N 0.24308 0.27143 0.30224 0.0
N473 N 0.27173 0.19267 0.12231 0.0
H474 H 0.31991 0.23395 0.21458 0.0
H475 H 0.31344 0.20623 0.17175 0.0
H476 H 0.2596 0.18025 0.09972 0.0
H477 H 0.28787 0.19247 0.09117 0.0
H478 H 0.22515 0.2754 0.31144 0.0
H479 H 0.25421 0.28601 0.31163 0.0
H480 H 0.20797 0.24357 0.33865 0.0
H481 H 0.20111 0.217 0.28837 0.0
C482 C 0.80744 0.28114 0.21843 0.0
C483 C 0.7841 0.29039 0.20604 0.0
C484 C 0.78227 0.27085 0.0714 0.0
C485 C 0.80463 0.2598 0.08725 0.0
N486 N 0.83641 0.25064 0.18254 0.0
N487 N 0.74747 0.29048 0.12817 0.0
C488 C 0.81667 0.26389 0.16265 0.0
C489 C 0.77098 0.28427 0.13452 0.0
N490 N 0.8212 0.28953 0.28148 0.0
N491 N 0.77222 0.26935 0.99503 0.0
H492 H 0.73843 0.29997 0.17371 0.0
H493 H 0.73635 0.28431 0.08152 0.0
H494 H 0.78008 0.26 0.94669 0.0
H495 H 0.75724 0.27917 0.97741 0.0
H496 H 0.83921 0.28536 0.28802 0.0
H497 H 0.81528 0.30243 0.32308 0.0
H498 H 0.84441 0.25105 0.24028 0.0
H499 H 0.84352 0.23752 0.14406 0.0
C500 C 0.75651 0.75899 0.24658 0.0
C501 C 0.75162 0.78388 0.24937 0.0
C502 C 0.71087 0.77603 0.29364 0.0
C503 C 0.71503 0.7512 0.28298 0.0
N504 N 0.74046 0.71906 0.23622 0.0
N505 N 0.72297 0.81612 0.25962 0.0
C506 C 0.73751 0.74264 0.25599 0.0
C507 C 0.72847 0.79244 0.26861 0.0
N508 N 0.7794 0.75098 0.23759 0.0
N509 N 0.69047 0.78395 0.33053 0.0
H510 H 0.7352 0.82872 0.23987 0.0
H511 H 0.7057 0.8229 0.26406 0.0
H512 H 0.67727 0.7725 0.35113 0.0
H513 H 0.68766 0.80167 0.34788 0.0
H514 H 0.78439 0.73313 0.24365 0.0
H515 H 0.79379 0.76242 0.23068 0.0
H516 H 0.75558 0.7123 0.2073 0.0
H517 H 0.72695 0.70654 0.24203 0.0
C518 C 0.19646 0.69542 0.16669 0.0
C519 C 0.19964 0.7052 0.24643 0.0
C520 C 0.1812 0.74279 0.20159 0.0
C521 C 0.18012 0.7338 0.12022 0.0
N522 N 0.19035 0.70313 0.02197 0.0
N523 N 0.19915 0.73951 0.33644 0.0
C524 C 0.18875 0.71053 0.10176 0.0
C525 C 0.19314 0.72927 0.26303 0.0
N526 N 0.19981 0.67149 0.15363 0.0
N527 N 0.16998 0.76382 0.221 0.0
H528 H 0.20823 0.7303 0.38263 0.0
H529 H 0.19717 0.75768 0.34866 0.0
H530 H 0.16073 0.77411 0.17803 0.0
H531 H 0.16795 0.76995 0.28094 0.0
H532 H 0.19524 0.66292 0.09907 0.0
H533 H 0.20515 0.65973 0.1997 0.0
H534 H 0.19895 0.68742 0.00418 0.0
H535 H 0.18494 0.7137 0.97267 0.0
C536 C 0.21861 0.82095 0.60177 0.0
C537 C 0.21764 0.8349 0.67467 0.0
C538 C 0.25202 0.81284 0.72962 0.0
C539 C 0.25458 0.80092 0.65322 0.0
N540 N 0.2431 0.79715 0.51082 0.0
N541 N 0.23607 0.84719 0.80195 0.0
C542 C 0.23862 0.8059 0.58765 0.0
C543 C 0.23504 0.83166 0.73715 0.0
N544 N 0.20003 0.8213 0.5473 0.0
N545 N 0.26521 0.80564 0.79586 0.0
H546 H 0.2244 0.86163 0.8087 0.0
H547 H 0.24991 0.84717 0.8447 0.0
H548 H 0.27754 0.79164 0.79319 0.0
H549 H 0.26229 0.81199 0.85511 0.0
H550 H 0.19869 0.80945 0.4981 0.0
H551 H 0.18479 0.83175 0.55535 0.0
H552 H 0.23348 0.80239 0.45907 0.0
H553 H 0.25786 0.78649 0.49706 0.0
C554 C 0.21433 0.27974 0.81627 0.0
C555 C 0.23375 0.28514 0.86889 0.0
C556 C 0.21589 0.2615 0.97851 0.0
C557 C 0.19514 0.25871 0.92957 0.0
N558 N 0.17325 0.26722 0.80516 0.0
N559 N 0.25323 0.28204 1.00058 0.0
C560 C 0.19409 0.26807 0.84882 0.0
C561 C 0.23462 0.27619 0.95016 0.0
N562 N 0.21509 0.286 0.73539 0.0
N563 N 0.21795 0.24945 0.05096 0.0
H564 H 0.26807 0.29135 0.98034 0.0
H565 H 0.25355 0.27871 0.06333 0.0
H566 H 0.20462 0.23846 0.07339 0.0
H567 H 0.23357 0.24865 0.08539 0.0
H568 H 0.2028 0.28017 0.69187 0.0
H569 H 0.22905 0.29557 0.71005 0.0
H570 H 0.17045 0.27619 0.75016 0.0
H571 H 0.15791 0.25911 0.82686 0.0
C572 C 0.72922 0.16685 0.63089 0.0
C573 C 0.73193 0.18432 0.56893 0.0
C574 C 0.77038 0.16658 0.53168 0.0
C575 C 0.76614 0.14735 0.58599 0.0
N576 N 0.73939 0.12706 0.67726 0.0
N577 N 0.75308 0.19831 0.45011 0.0
C578 C 0.74501 0.14692 0.63321 0.0
C579 C 0.75201 0.18358 0.51661 0.0
N580 N 0.71206 0.16969 0.68926 0.0
N581 N 0.79224 0.16916 0.49664 0.0
H582 H 0.73977 0.21066 0.43542 0.0
H583 H 0.76606 0.19666 0.40505 0.0
H584 H 0.80642 0.15745 0.50743 0.0
H585 H 0.79704 0.18424 0.46361 0.0
H586 H 0.71088 0.15882 0.74071 0.0
H587 H 0.70049 0.18435 0.69083 0.0
H588 H 0.723 0.12484 0.70562 0.0
H589 H 0.75009 0.11178 0.67898 0.0
C590 C 0.77959 0.70759 0.82842 0.0
C591 C 0.75834 0.70697 0.8749 0.0
C592 C 0.77548 0.73491 0.97482 0.0
C593 C 0.79768 0.733 0.93431 0.0
N594 N 0.82191 0.7155 0.82766 0.0
N595 N 0.73595 0.71892 0.99416 0.0
C596 C 0.79997 0.71907 0.86176 0.0
C597 C 0.75623 0.72037 0.9486 0.0
N598 N 0.7804 0.69698 0.75282 0.0
N599 N 0.7726 0.75126 0.03651 0.0
H600 H 0.72092 0.70967 0.97447 0.0
H601 H 0.7344 0.72583 0.05327 0.0
H602 H 0.78628 0.76235 0.05657 0.0
H603 H 0.75622 0.75542 0.06266 0.0
H604 H 0.79438 0.6992 0.71202 0.0
H605 H 0.76627 0.68738 0.72788 0.0
H606 H 0.82522 0.70329 0.78073 0.0
H607 H 0.83738 0.72328 0.85053 0.0
loop_
_geom_bond_atom_site_label_1
_geom_bond_atom_site_label_2
_geom_bond_distance
_geom_bond_site_symmetry_2
_ccdc_geom_bond_type
O0 Cd1 2.300 . S
O0 C7 1.275 . S
Cd1 O0 2.300 . S
Cd1 O9 2.381 . S
Cd1 O10 2.378 . S
O2 Cd3 2.385 . S
O2 C7 1.255 . S
Cd3 O2 2.385 . S
Cd3 O4 2.317 . S
O4 Cd3 2.317 . S
O4 C5 1.232 . S
C5 O4 1.232 . S
C5 O6 1.218 . S
O6 C5 1.218 . S
C7 O0 1.275 . S
C7 O2 1.255 . S
C8 O9 1.258 . S
C8 O10 1.256 . S
O9 Cd1 2.381 . S
O9 C8 1.258 . S
O10 Cd1 2.378 . S
O10 C8 1.256 . S
O11 Cd12 2.300 . S
O11 C18 1.275 . S
Cd12 O11 2.300 . S
Cd12 O20 2.381 . S
Cd12 O21 2.378 . S
O13 Cd14 2.385 . S
O13 C18 1.255 . S
Cd14 O13 2.385 . S
Cd14 O15 2.317 . S
O15 Cd14 2.317 . S
O15 C16 1.232 . S
C16 O15 1.232 . S
C16 O17 1.218 . S
O17 C16 1.218 . S
C18 O11 1.275 . S
C18 O13 1.255 . S
C19 O20 1.258 . S
C19 O21 1.256 . S
O20 Cd12 2.381 . S
O20 C19 1.258 . S
O21 Cd12 2.378 . S
O21 C19 1.256 . S
O22 Cd23 2.300 . S
O22 C29 1.275 . S
Cd23 O22 2.300 . S
Cd23 O31 2.381 . S
Cd23 O32 2.378 . S
O24 Cd25 2.385 . S
O24 C29 1.255 . S
Cd25 O24 2.385 . S
Cd25 O26 2.317 . S
O26 Cd25 2.317 . S
O26 C27 1.232 . S
C27 O26 1.232 . S
C27 O28 1.218 . S
O28 C27 1.218 . S
C29 O22 1.275 . S
C29 O24 1.255 . S
C30 O31 1.258 . S
C30 O32 1.256 . S
O31 Cd23 2.381 . S
O31 C30 1.258 . S
O32 Cd23 2.378 . S
O32 C30 1.256 . S
O33 Cd34 2.300 . S
O33 C40 1.275 . S
Cd34 O33 2.300 . S
Cd34 O42 2.381 . S
Cd34 O43 2.378 . S
O35 Cd36 2.385 . S
O35 C40 1.255 . S
Cd36 O35 2.385 . S
Cd36 O37 2.317 . S
O37 Cd36 2.317 . S
O37 C38 1.232 . S
C38 O37 1.232 . S
C38 O39 1.218 . S
O39 C38 1.218 . S
C40 O33 1.275 . S
C40 O35 1.255 . S
C41 O42 1.258 . S
C41 O43 1.256 . S
O42 Cd34 2.381 . S
O42 C41 1.258 . S
O43 Cd34 2.378 . S
O43 C41 1.256 . S
O44 Cd45 2.300 . S
O44 C51 1.275 . S
Cd45 O44 2.300 . S
Cd45 O53 2.381 . S
Cd45 O54 2.378 . S
O46 Cd47 2.385 . S
O46 C51 1.255 . S
Cd47 O46 2.385 . S
Cd47 O48 2.317 . S
O48 Cd47 2.317 . S
O48 C49 1.232 . S
C49 O48 1.232 . S
C49 O50 1.218 . S
O50 C49 1.218 . S
C51 O44 1.275 . S
C51 O46 1.255 . S
C52 O53 1.258 . S
C52 O54 1.256 . S
O53 Cd45 2.381 . S
O53 C52 1.258 . S
O54 Cd45 2.378 . S
O54 C52 1.256 . S
O55 Cd56 2.300 . S
O55 C62 1.275 . S
Cd56 O55 2.300 . S
Cd56 O64 2.381 . S
Cd56 O65 2.378 . S
O57 Cd58 2.385 . S
O57 C62 1.255 . S
Cd58 O57 2.385 . S
Cd58 O59 2.317 . S
O59 Cd58 2.317 . S
O59 C60 1.232 . S
C60 O59 1.232 . S
C60 O61 1.218 . S
O61 C60 1.218 . S
C62 O55 1.275 . S
C62 O57 1.255 . S
C63 O64 1.258 . S
C63 O65 1.256 . S
O64 Cd56 2.381 . S
O64 C63 1.258 . S
O65 Cd56 2.378 . S
O65 C63 1.256 . S
O66 Cd67 2.300 . S
O66 C73 1.275 . S
Cd67 O66 2.300 . S
Cd67 O75 2.381 . S
Cd67 O76 2.378 . S
O68 Cd69 2.385 . S
O68 C73 1.255 . S
Cd69 O68 2.385 . S
Cd69 O70 2.317 . S
O70 Cd69 2.317 . S
O70 C71 1.232 . S
C71 O70 1.232 . S
C71 O72 1.218 . S
O72 C71 1.218 . S
C73 O66 1.275 . S
C73 O68 1.255 . S
C74 O75 1.258 . S
C74 O76 1.256 . S
O75 Cd67 2.381 . S
O75 C74 1.258 . S
O76 Cd67 2.378 . S
O76 C74 1.256 . S
O77 Cd78 2.300 . S
O77 C84 1.275 . S
Cd78 O77 2.300 . S
Cd78 O86 2.381 . S
Cd78 O87 2.378 . S
O79 Cd80 2.385 . S
O79 C84 1.255 . S
Cd80 O79 2.385 . S
Cd80 O81 2.317 . S
O81 Cd80 2.317 . S
O81 C82 1.232 . S
C82 O81 1.232 . S
C82 O83 1.218 . S
O83 C82 1.218 . S
C84 O77 1.275 . S
C84 O79 1.255 . S
C85 O86 1.258 . S
C85 O87 1.256 . S
O86 Cd78 2.381 . S
O86 C85 1.258 . S
O87 Cd78 2.378 . S
O87 C85 1.256 . S
O88 Cd89 2.300 . S
O88 C95 1.275 . S
Cd89 O88 2.300 . S
Cd89 O97 2.381 . S
Cd89 O98 2.378 . S
O90 Cd91 2.385 . S
O90 C95 1.255 . S
Cd91 O90 2.385 . S
Cd91 O92 2.317 . S
O92 Cd91 2.317 . S
O92 C93 1.232 . S
C93 O92 1.232 . S
C93 O94 1.218 . S
O94 C93 1.218 . S
C95 O88 1.275 . S
C95 O90 1.255 . S
C96 O97 1.258 . S
C96 O98 1.256 . S
O97 Cd89 2.381 . S
O97 C96 1.258 . S
O98 Cd89 2.378 . S
O98 C96 1.256 . S
O99 Cd100 2.300 . S
O99 C106 1.275 . S
Cd100 O99 2.300 . S
Cd100 O108 2.381 . S
Cd100 O109 2.378 . S
O101 Cd102 2.385 . S
O101 C106 1.255 . S
Cd102 O101 2.385 . S
Cd102 O103 2.317 . S
O103 Cd102 2.317 . S
O103 C104 1.232 . S
C104 O103 1.232 . S
C104 O105 1.218 . S
O105 C104 1.218 . S
C106 O99 1.275 . S
C106 O101 1.255 . S
C107 O108 1.258 . S
C107 O109 1.256 . S
O108 Cd100 2.381 . S
O108 C107 1.258 . S
O109 Cd100 2.378 . S
O109 C107 1.256 . S
O110 Cd111 2.300 . S
O110 C117 1.275 . S
Cd111 O110 2.300 . S
Cd111 O119 2.381 . S
Cd111 O120 2.378 . S
O112 Cd113 2.385 . S
O112 C117 1.255 . S
Cd113 O112 2.385 . S
Cd113 O114 2.317 . S
O114 Cd113 2.317 . S
O114 C115 1.232 . S
C115 O114 1.232 . S
C115 O116 1.218 . S
O116 C115 1.218 . S
C117 O110 1.275 . S
C117 O112 1.255 . S
C118 O119 1.258 . S
C118 O120 1.256 . S
O119 Cd111 2.381 . S
O119 C118 1.258 . S
O120 Cd111 2.378 . S
O120 C118 1.256 . S
O121 Cd122 2.300 . S
O121 C128 1.275 . S
Cd122 O121 2.300 . S
Cd122 O130 2.381 . S
Cd122 O131 2.378 . S
O123 Cd124 2.385 . S
O123 C128 1.255 . S
Cd124 O123 2.385 . S
Cd124 O125 2.317 . S
O125 Cd124 2.317 . S
O125 C126 1.232 . S
C126 O125 1.232 . S
C126 O127 1.218 . S
O127 C126 1.218 . S
C128 O121 1.275 . S
C128 O123 1.255 . S
C129 O130 1.258 . S
C129 O131 1.256 . S
O130 Cd122 2.381 . S
O130 C129 1.258 . S
O131 Cd122 2.378 . S
O131 C129 1.256 . S
O132 Cd133 2.300 . S
O132 C139 1.275 . S
Cd133 O132 2.300 . S
Cd133 O141 2.381 . S
Cd133 O142 2.378 . S
O134 Cd135 2.385 . S
O134 C139 1.255 . S
Cd135 O134 2.385 . S
Cd135 O136 2.317 . S
O136 Cd135 2.317 . S
O136 C137 1.232 . S
C137 O136 1.232 . S
C137 O138 1.218 . S
O138 C137 1.218 . S
C139 O132 1.275 . S
C139 O134 1.255 . S
C140 O141 1.258 . S
C140 O142 1.256 . S
O141 Cd133 2.381 . S
O141 C140 1.258 . S
O142 Cd133 2.378 . S
O142 C140 1.256 . S
O143 Cd144 2.300 . S
O143 C150 1.275 . S
Cd144 O143 2.300 . S
Cd144 O152 2.381 . S
Cd144 O153 2.378 . S
O145 Cd146 2.385 . S
O145 C150 1.255 . S
Cd146 O145 2.385 . S
Cd146 O147 2.317 . S
O147 Cd146 2.317 . S
O147 C148 1.232 . S
C148 O147 1.232 . S
C148 O149 1.218 . S
O149 C148 1.218 . S
C150 O143 1.275 . S
C150 O145 1.255 . S
C151 O152 1.258 . S
C151 O153 1.256 . S
O152 Cd144 2.381 . S
O152 C151 1.258 . S
O153 Cd144 2.378 . S
O153 C151 1.256 . S
O154 Cd155 2.300 . S
O154 C161 1.275 . S
Cd155 O154 2.300 . S
Cd155 O163 2.381 . S
Cd155 O164 2.378 . S
O156 Cd157 2.385 . S
O156 C161 1.255 . S
Cd157 O156 2.385 . S
Cd157 O158 2.317 . S
O158 Cd157 2.317 . S
O158 C159 1.232 . S
C159 O158 1.232 . S
C159 O160 1.218 . S
O160 C159 1.218 . S
C161 O154 1.275 . S
C161 O156 1.255 . S
C162 O163 1.258 . S
C162 O164 1.256 . S
O163 Cd155 2.381 . S
O163 C162 1.258 . S
O164 Cd155 2.378 . S
O164 C162 1.256 . S
O165 Cd166 2.300 . S
O165 C172 1.275 . S
Cd166 O165 2.300 . S
Cd166 O174 2.381 . S
Cd166 O175 2.378 . S
O167 Cd168 2.385 . S
O167 C172 1.255 . S
Cd168 O167 2.385 . S
Cd168 O169 2.317 . S
O169 Cd168 2.317 . S
O169 C170 1.232 . S
C170 O169 1.232 . S
C170 O171 1.218 . S
O171 C170 1.218 . S
C172 O165 1.275 . S
C172 O167 1.255 . S
C173 O174 1.258 . S
C173 O175 1.256 . S
O174 Cd166 2.381 . S
O174 C173 1.258 . S
O175 Cd166 2.378 . S
O175 C173 1.256 . S
C176 C177 1.363 1_554 S
C176 C182 1.379 1_565 S
C176 N184 1.356 . S
C177 C176 1.363 1_556 S
C177 C183 1.363 . S
C178 C179 1.363 1_556 S
C178 C183 1.379 1_545 S
C178 N185 1.356 . S
C179 C178 1.363 1_554 S
C179 C182 1.363 . S
N180 C182 1.356 . S
N180 H192 0.972 1_545 S
N180 H193 0.985 . S
N181 C183 1.356 . S
N181 H186 0.984 . S
N181 H187 0.972 1_565 S
C182 C176 1.379 1_545 S
C182 C179 1.363 . S
C182 N180 1.356 . S
C183 C177 1.363 . S
C183 C178 1.379 1_565 S
C183 N181 1.356 . S
N184 C176 1.356 . S
N184 H190 0.984 . S
N184 H191 0.984 . S
N185 C178 1.356 . S
N185 H188 0.984 . S
N185 H189 0.985 . S
H186 N181 0.984 . S
H187 N181 0.972 1_545 S
H188 N185 0.984 . S
H189 N185 0.985 . S
H190 N184 0.984 . S
H191 N184 0.984 . S
H192 N180 0.972 1_565 S
H193 N180 0.985 . S
C194 C195 1.363 . S
C194 C200 1.379 1_655 S
C194 N202 1.356 . S
C195 C194 1.363 . S
C195 C201 1.363 1_554 S
C196 C197 1.363 . S
C196 C201 1.379 1_455 S
C196 N203 1.356 . S
C197 C196 1.363 . S
C197 C200 1.363 1_556 S
N198 C200 1.356 . S
N198 H210 0.984 . S
N198 H211 0.985 1_554 S
N199 C201 1.356 . S
N199 H204 0.984 1_556 S
N199 H205 0.985 . S
C200 C194 1.379 1_455 S
C200 C197 1.363 1_554 S
C200 N198 1.356 . S
C201 C195 1.363 1_556 S
C201 C196 1.379 1_655 S
C201 N199 1.356 . S
N202 C194 1.356 . S
N202 H208 0.984 . S
N202 H209 0.984 . S
N203 C196 1.356 . S
N203 H206 0.984 . S
N203 H207 0.985 . S
H204 N199 0.984 1_554 S
H205 N199 0.985 . S
H206 N203 0.984 . S
H207 N203 0.985 . S
H208 N202 0.984 . S
H209 N202 0.984 . S
H210 N198 0.984 . S
H211 N198 0.985 1_556 S
C212 C213 1.363 . S
C212 C218 1.379 1_545 S
C212 N220 1.356 . S
C213 C212 1.363 . S
C213 C219 1.363 1_556 S
C214 C215 1.363 . S
C214 C219 1.379 1_565 S
C214 N221 1.356 . S
C215 C214 1.363 . S
C215 C218 1.363 1_554 S
N216 C218 1.356 . S
N216 H228 0.984 . S
N216 H229 0.985 . S
N217 C219 1.356 . S
N217 H222 0.984 . S
N217 H223 0.985 . S
C218 C212 1.379 1_565 S
C218 C215 1.363 1_556 S
C218 N216 1.356 . S
C219 C213 1.363 1_554 S
C219 C214 1.379 1_545 S
C219 N217 1.356 . S
N220 C212 1.356 . S
N220 H226 0.984 . S
N220 H227 0.984 . S
N221 C214 1.356 . S
N221 H224 0.984 . S
N221 H225 0.985 . S
H222 N217 0.984 . S
H223 N217 0.985 . S
H224 N221 0.984 . S
H225 N221 0.985 . S
H226 N220 0.984 . S
H227 N220 0.984 . S
H228 N216 0.984 . S
H229 N216 0.985 . S
C230 C231 1.363 1_556 S
C230 C236 1.379 1_455 S
C230 N238 1.356 . S
C231 C230 1.363 1_554 S
C231 C237 1.363 . S
C232 C233 1.363 1_554 S
C232 C237 1.379 1_655 S
C232 N239 1.356 . S
C233 C232 1.363 1_556 S
C233 C236 1.363 . S
N234 C236 1.356 . S
N234 H246 0.984 . S
N234 H247 0.985 . S
N235 C237 1.356 . S
N235 H240 0.984 . S
N235 H241 0.985 . S
C236 C230 1.379 1_655 S
C236 C233 1.363 . S
C236 N234 1.356 . S
C237 C231 1.363 . S
C237 C232 1.379 1_455 S
C237 N235 1.356 . S
N238 C230 1.356 . S
N238 H244 0.984 . S
N238 H245 0.984 1_556 S
N239 C232 1.356 . S
N239 H242 0.984 1_554 S
N239 H243 0.985 . S
H240 N235 0.984 . S
H241 N235 0.985 . S
H242 N239 0.984 1_556 S
H243 N239 0.985 . S
H244 N238 0.984 . S
H245 N238 0.984 1_554 S
H246 N234 0.984 . S
H247 N234 0.985 . S
C248 C249 1.363 . S
C248 C254 1.379 . S
C248 N256 1.356 . S
C249 C248 1.363 . S
C249 C255 1.363 . S
C250 C251 1.363 . S
C250 C255 1.379 . S
C250 N257 1.356 . S
C251 C250 1.363 . S
C251 C254 1.363 . S
N252 C254 1.356 . S
N252 H264 0.984 . S
N252 H265 0.985 . S
N253 C255 1.356 . S
N253 H258 0.984 . S
N253 H259 0.985 . S
C254 C248 1.379 . S
C254 C251 1.363 . S
C254 N252 1.356 . S
C255 C249 1.363 . S
C255 C250 1.379 . S
C255 N253 1.356 . S
N256 C248 1.356 . S
N256 H262 0.984 . S
N256 H263 0.984 . S
N257 C250 1.356 . S
N257 H260 0.984 . S
N257 H261 0.985 . S
H258 N253 0.984 . S
H259 N253 0.985 . S
H260 N257 0.984 . S
H261 N257 0.985 . S
H262 N256 0.984 . S
H263 N256 0.984 . S
H264 N252 0.984 . S
H265 N252 0.985 . S
C266 C267 1.363 . S
C266 C272 1.379 . S
C266 N274 1.356 . S
C267 C266 1.363 . S
C267 C273 1.363 . S
C268 C269 1.363 . S
C268 C273 1.379 . S
C268 N275 1.356 . S
C269 C268 1.363 . S
C269 C272 1.363 . S
N270 C272 1.356 . S
N270 H282 0.984 . S
N270 H283 0.985 . S
N271 C273 1.356 . S
N271 H276 0.984 . S
N271 H277 0.985 . S
C272 C266 1.379 . S
C272 C269 1.363 . S
C272 N270 1.356 . S
C273 C267 1.363 . S
C273 C268 1.379 . S
C273 N271 1.356 . S
N274 C266 1.356 . S
N274 H280 0.984 . S
N274 H281 0.984 . S
N275 C268 1.356 . S
N275 H278 0.984 . S
N275 H279 0.985 . S
H276 N271 0.984 . S
H277 N271 0.985 . S
H278 N275 0.984 . S
H279 N275 0.985 . S
H280 N274 0.984 . S
H281 N274 0.984 . S
H282 N270 0.984 . S
H283 N270 0.985 . S
C284 C285 1.363 . S
C284 C290 1.379 . S
C284 N292 1.356 . S
C285 C284 1.363 . S
C285 C291 1.363 . S
C286 C287 1.363 . S
C286 C291 1.379 . S
C286 N293 1.356 . S
C287 C286 1.363 . S
C287 C290 1.363 . S
N288 C290 1.356 . S
N288 H300 0.984 . S
N288 H301 0.985 . S
N289 C291 1.356 . S
N289 H294 0.984 . S
N289 H295 0.985 . S
C290 C284 1.379 . S
C290 C287 1.363 . S
C290 N288 1.356 . S
C291 C285 1.363 . S
C291 C286 1.379 . S
C291 N289 1.356 . S
N292 C284 1.356 . S
N292 H298 0.984 . S
N292 H299 0.984 . S
N293 C286 1.356 . S
N293 H296 0.984 . S
N293 H297 0.985 . S
H294 N289 0.984 . S
H295 N289 0.985 . S
H296 N293 0.984 . S
H297 N293 0.985 . S
H298 N292 0.984 . S
H299 N292 0.984 . S
H300 N288 0.984 . S
H301 N288 0.985 . S
C302 C303 1.363 . S
C302 C308 1.379 . S
C302 N310 1.356 . S
C303 C302 1.363 . S
C303 C309 1.363 . S
C304 C305 1.363 . S
C304 C309 1.379 . S
C304 N311 1.356 . S
C305 C304 1.363 . S
C305 C308 1.363 . S
N306 C308 1.356 . S
N306 H318 0.984 . S
N306 H319 0.985 . S
N307 C309 1.356 . S
N307 H312 0.984 . S
N307 H313 0.985 . S
C308 C302 1.379 . S
C308 C305 1.363 . S
C308 N306 1.356 . S
C309 C303 1.363 . S
C309 C304 1.379 . S
C309 N307 1.356 . S
N310 C302 1.356 . S
N310 H316 0.984 . S
N310 H317 0.984 . S
N311 C304 1.356 . S
N311 H314 0.984 . S
N311 H315 0.985 . S
H312 N307 0.984 . S
H313 N307 0.985 . S
H314 N311 0.984 . S
H315 N311 0.985 . S
H316 N310 0.984 . S
H317 N310 0.984 . S
H318 N306 0.984 . S
H319 N306 0.985 . S
C320 C321 1.363 . S
C320 C326 1.379 . S
C320 N328 1.356 . S
C321 C320 1.363 . S
C321 C327 1.363 1_554 S
C322 C323 1.363 . S
C322 C327 1.379 . S
C322 N329 1.356 . S
C323 C322 1.363 . S
C323 C326 1.363 1_556 S
N324 C326 1.356 . S
N324 H336 0.984 . S
N324 H337 0.985 . S
N325 C327 1.356 . S
N325 H330 0.984 . S
N325 H331 0.985 . S
C326 C320 1.379 . S
C326 C323 1.363 1_554 S
C326 N324 1.356 . S
C327 C321 1.363 1_556 S
C327 C322 1.379 . S
C327 N325 1.356 . S
N328 C320 1.356 . S
N328 H334 0.984 . S
N328 H335 0.984 . S
N329 C322 1.356 . S
N329 H332 0.984 . S
N329 H333 0.985 . S
H330 N325 0.984 . S
H331 N325 0.985 . S
H332 N329 0.984 . S
H333 N329 0.985 . S
H334 N328 0.984 . S
H335 N328 0.984 . S
H336 N324 0.984 . S
H337 N324 0.985 . S
C338 C339 1.363 . S
C338 C344 1.378 1_556 S
C338 N346 1.356 . S
C339 C338 1.363 . S
C339 C345 1.364 . S
C340 C341 1.363 . S
C340 C345 1.378 1_554 S
C340 N347 1.356 . S
C341 C340 1.363 . S
C341 C344 1.364 . S
N342 C344 1.356 . S
N342 H354 0.984 1_554 S
N342 H355 0.985 . S
N343 C345 1.356 . S
N343 H348 0.984 . S
N343 H349 0.985 1_556 S
C344 C338 1.378 1_554 S
C344 C341 1.364 . S
C344 N342 1.356 . S
C345 C339 1.364 . S
C345 C340 1.378 1_556 S
C345 N343 1.356 . S
N346 C338 1.356 . S
N346 H352 0.984 . S
N346 H353 0.984 . S
N347 C340 1.356 . S
N347 H350 0.984 . S
N347 H351 0.985 . S
H348 N343 0.984 . S
H349 N343 0.985 1_554 S
H350 N347 0.984 . S
H351 N347 0.985 . S
H352 N346 0.984 . S
H353 N346 0.984 . S
H354 N342 0.984 1_556 S
H355 N342 0.985 . S
C356 C357 1.363 . S
C356 C362 1.379 . S
C356 N364 1.356 . S
C357 C356 1.363 . S
C357 C363 1.363 1_554 S
C358 C359 1.363 . S
C358 C363 1.379 . S
C358 N365 1.356 . S
C359 C358 1.363 . S
C359 C362 1.363 1_556 S
N360 C362 1.356 . S
N360 H372 0.984 . S
N360 H373 0.985 . S
N361 C363 1.356 . S
N361 H366 0.984 . S
N361 H367 0.985 . S
C362 C356 1.379 . S
C362 C359 1.363 1_554 S
C362 N360 1.356 . S
C363 C357 1.363 1_556 S
C363 C358 1.379 . S
C363 N361 1.356 . S
N364 C356 1.356 . S
N364 H370 0.984 . S
N364 H371 0.984 . S
N365 C358 1.356 . S
N365 H368 0.984 . S
N365 H369 0.985 . S
H366 N361 0.984 . S
H367 N361 0.985 . S
H368 N365 0.984 . S
H369 N365 0.985 . S
H370 N364 0.984 . S
H371 N364 0.984 . S
H372 N360 0.984 . S
H373 N360 0.985 . S
C374 C375 1.363 . S
C374 C380 1.379 1_554 S
C374 N382 1.356 . S
C375 C374 1.363 . S
C375 C381 1.363 . S
C376 C377 1.363 . S
C376 C381 1.379 1_556 S
C376 N383 1.356 . S
C377 C376 1.363 . S
C377 C380 1.363 . S
N378 C380 1.356 . S
N378 H390 0.984 . S
N378 H391 0.985 . S
N379 C381 1.356 . S
N379 H384 0.984 . S
N379 H385 0.985 . S
C380 C374 1.379 1_556 S
C380 C377 1.363 . S
C380 N378 1.356 . S
C381 C375 1.363 . S
C381 C376 1.379 1_554 S
C381 N379 1.356 . S
N382 C374 1.356 . S
N382 H388 0.984 1_554 S
N382 H389 0.984 . S
N383 C376 1.356 . S
N383 H386 0.984 . S
N383 H387 0.985 1_556 S
H384 N379 0.984 . S
H385 N379 0.985 . S
H386 N383 0.984 . S
H387 N383 0.985 1_554 S
H388 N382 0.984 1_556 S
H389 N382 0.984 . S
H390 N378 0.984 . S
H391 N378 0.985 . S
C392 C393 1.363 . S
C392 C398 1.379 . S
C392 N400 1.356 . S
C393 C392 1.363 . S
C393 C399 1.363 . S
C394 C395 1.363 . S
C394 C399 1.379 . S
C394 N401 1.356 . S
C395 C394 1.363 . S
C395 C398 1.363 . S
N396 C398 1.356 . S
N396 H408 0.984 . S
N396 H409 0.985 . S
N397 C399 1.356 . S
N397 H402 0.984 . S
N397 H403 0.985 . S
C398 C392 1.379 . S
C398 C395 1.363 . S
C398 N396 1.356 . S
C399 C393 1.363 . S
C399 C394 1.379 . S
C399 N397 1.356 . S
N400 C392 1.356 . S
N400 H406 0.984 . S
N400 H407 0.984 . S
N401 C394 1.356 . S
N401 H404 0.984 . S
N401 H405 0.985 . S
H402 N397 0.984 . S
H403 N397 0.985 . S
H404 N401 0.984 . S
H405 N401 0.985 . S
H406 N400 0.984 . S
H407 N400 0.984 . S
H408 N396 0.984 . S
H409 N396 0.985 . S
C410 C411 1.363 . S
C410 C416 1.379 . S
C410 N418 1.356 . S
C411 C410 1.363 . S
C411 C417 1.363 . S
C412 C413 1.363 . S
C412 C417 1.379 . S
C412 N419 1.356 . S
C413 C412 1.363 . S
C413 C416 1.363 . S
N414 C416 1.356 . S
N414 H426 0.984 . S
N414 H427 0.985 . S
N415 C417 1.356 . S
N415 H420 0.984 . S
N415 H421 0.985 . S
C416 C410 1.379 . S
C416 C413 1.363 . S
C416 N414 1.356 . S
C417 C411 1.363 . S
C417 C412 1.379 . S
C417 N415 1.356 . S
N418 C410 1.356 . S
N418 H424 0.984 . S
N418 H425 0.984 . S
N419 C412 1.356 . S
N419 H422 0.984 . S
N419 H423 0.985 . S
H420 N415 0.984 . S
H421 N415 0.985 . S
H422 N419 0.984 . S
H423 N419 0.985 . S
H424 N418 0.984 . S
H425 N418 0.984 . S
H426 N414 0.984 . S
H427 N414 0.985 . S
C428 C429 1.363 . S
C428 C434 1.379 . S
C428 N436 1.356 . S
C429 C428 1.363 . S
C429 C435 1.363 . S
C430 C431 1.363 . S
C430 C435 1.379 . S
C430 N437 1.356 . S
C431 C430 1.363 . S
C431 C434 1.363 . S
N432 C434 1.356 . S
N432 H444 0.984 . S
N432 H445 0.985 . S
N433 C435 1.356 . S
N433 H438 0.984 . S
N433 H439 0.985 . S
C434 C428 1.379 . S
C434 C431 1.363 . S
C434 N432 1.356 . S
C435 C429 1.363 . S
C435 C430 1.379 . S
C435 N433 1.356 . S
N436 C428 1.356 . S
N436 H442 0.984 . S
N436 H443 0.984 . S
N437 C430 1.356 . S
N437 H440 0.984 . S
N437 H441 0.985 . S
H438 N433 0.984 . S
H439 N433 0.985 . S
H440 N437 0.984 . S
H441 N437 0.985 . S
H442 N436 0.984 . S
H443 N436 0.984 . S
H444 N432 0.984 . S
H445 N432 0.985 . S
C446 C447 1.363 . S
C446 C452 1.379 . S
C446 N454 1.356 . S
C447 C446 1.363 . S
C447 C453 1.363 . S
C448 C449 1.363 . S
C448 C453 1.379 . S
C448 N455 1.356 . S
C449 C448 1.363 . S
C449 C452 1.363 . S
N450 C452 1.356 . S
N450 H462 0.984 . S
N450 H463 0.985 . S
N451 C453 1.356 . S
N451 H456 0.984 . S
N451 H457 0.985 . S
C452 C446 1.379 . S
C452 C449 1.363 . S
C452 N450 1.356 . S
C453 C447 1.363 . S
C453 C448 1.379 . S
C453 N451 1.356 . S
N454 C446 1.356 . S
N454 H460 0.984 . S
N454 H461 0.984 . S
N455 C448 1.356 . S
N455 H458 0.984 . S
N455 H459 0.985 . S
H456 N451 0.984 . S
H457 N451 0.985 . S
H458 N455 0.984 . S
H459 N455 0.985 . S
H460 N454 0.984 . S
H461 N454 0.984 . S
H462 N450 0.984 . S
H463 N450 0.985 . S
C464 C465 1.363 . S
C464 C470 1.379 . S
C464 N472 1.356 . S
C465 C464 1.363 . S
C465 C471 1.363 . S
C466 C467 1.363 . S
C466 C471 1.379 . S
C466 N473 1.356 . S
C467 C466 1.363 . S
C467 C470 1.363 . S
N468 C470 1.356 . S
N468 H480 0.984 . S
N468 H481 0.985 . S
N469 C471 1.356 . S
N469 H474 0.984 . S
N469 H475 0.985 . S
C470 C464 1.379 . S
C470 C467 1.363 . S
C470 N468 1.356 . S
C471 C465 1.363 . S
C471 C466 1.379 . S
C471 N469 1.356 . S
N472 C464 1.356 . S
N472 H478 0.984 . S
N472 H479 0.984 . S
N473 C466 1.356 . S
N473 H476 0.984 . S
N473 H477 0.985 . S
H474 N469 0.984 . S
H475 N469 0.985 . S
H476 N473 0.984 . S
H477 N473 0.985 . S
H478 N472 0.984 . S
H479 N472 0.984 . S
H480 N468 0.984 . S
H481 N468 0.985 . S
C482 C483 1.363 . S
C482 C488 1.379 . S
C482 N490 1.356 . S
C483 C482 1.363 . S
C483 C489 1.363 . S
C484 C485 1.363 . S
C484 C489 1.379 . S
C484 N491 1.356 . S
C485 C484 1.363 . S
C485 C488 1.363 . S
N486 C488 1.356 . S
N486 H498 0.984 . S
N486 H499 0.985 . S
N487 C489 1.356 . S
N487 H492 0.984 . S
N487 H493 0.985 . S
C488 C482 1.379 . S
C488 C485 1.363 . S
C488 N486 1.356 . S
C489 C483 1.363 . S
C489 C484 1.379 . S
C489 N487 1.356 . S
N490 C482 1.356 . S
N490 H496 0.984 . S
N490 H497 0.984 . S
N491 C484 1.356 . S
N491 H494 0.984 . S
N491 H495 0.985 . S
H492 N487 0.984 . S
H493 N487 0.985 . S
H494 N491 0.984 . S
H495 N491 0.985 . S
H496 N490 0.984 . S
H497 N490 0.984 . S
H498 N486 0.984 . S
H499 N486 0.985 . S
C500 C501 1.363 . S
C500 C506 1.379 . S
C500 N508 1.356 . S
C501 C500 1.363 . S
C501 C507 1.363 . S
C502 C503 1.363 . S
C502 C507 1.379 . S
C502 N509 1.356 . S
C503 C502 1.363 . S
C503 C506 1.363 . S
N504 C506 1.356 . S
N504 H516 0.984 . S
N504 H517 0.985 . S
N505 C507 1.356 . S
N505 H510 0.984 . S
N505 H511 0.985 . S
C506 C500 1.379 . S
C506 C503 1.363 . S
C506 N504 1.356 . S
C507 C501 1.363 . S
C507 C502 1.379 . S
C507 N505 1.356 . S
N508 C500 1.356 . S
N508 H514 0.984 . S
N508 H515 0.984 . S
N509 C502 1.356 . S
N509 H512 0.984 . S
N509 H513 0.985 . S
H510 N505 0.984 . S
H511 N505 0.985 . S
H512 N509 0.984 . S
H513 N509 0.985 . S
H514 N508 0.984 . S
H515 N508 0.984 . S
H516 N504 0.984 . S
H517 N504 0.985 . S
C518 C519 1.363 . S
C518 C524 1.379 . S
C518 N526 1.356 . S
C519 C518 1.363 . S
C519 C525 1.363 . S
C520 C521 1.363 . S
C520 C525 1.379 . S
C520 N527 1.356 . S
C521 C520 1.363 . S
C521 C524 1.363 . S
N522 C524 1.356 . S
N522 H534 0.984 . S
N522 H535 0.985 . S
N523 C525 1.356 . S
N523 H528 0.984 . S
N523 H529 0.985 . S
C524 C518 1.379 . S
C524 C521 1.363 . S
C524 N522 1.356 . S
C525 C519 1.363 . S
C525 C520 1.379 . S
C525 N523 1.356 . S
N526 C518 1.356 . S
N526 H532 0.984 . S
N526 H533 0.984 . S
N527 C520 1.356 . S
N527 H530 0.984 . S
N527 H531 0.985 . S
H528 N523 0.984 . S
H529 N523 0.985 . S
H530 N527 0.984 . S
H531 N527 0.985 . S
H532 N526 0.984 . S
H533 N526 0.984 . S
H534 N522 0.984 . S
H535 N522 0.985 . S
C536 C537 1.363 . S
C536 C542 1.379 . S
C536 N544 1.356 . S
C537 C536 1.363 . S
C537 C543 1.363 . S
C538 C539 1.363 . S
C538 C543 1.379 . S
C538 N545 1.356 . S
C539 C538 1.363 . S
C539 C542 1.363 . S
N540 C542 1.356 . S
N540 H552 0.984 . S
N540 H553 0.985 . S
N541 C543 1.356 . S
N541 H546 0.984 . S
N541 H547 0.985 . S
C542 C536 1.379 . S
C542 C539 1.363 . S
C542 N540 1.356 . S
C543 C537 1.363 . S
C543 C538 1.379 . S
C543 N541 1.356 . S
N544 C536 1.356 . S
N544 H550 0.984 . S
N544 H551 0.984 . S
N545 C538 1.356 . S
N545 H548 0.984 . S
N545 H549 0.985 . S
H546 N541 0.984 . S
H547 N541 0.985 . S
H548 N545 0.984 . S
H549 N545 0.985 . S
H550 N544 0.984 . S
H551 N544 0.984 . S
H552 N540 0.984 . S
H553 N540 0.985 . S
C554 C555 1.363 . S
C554 C560 1.379 . S
C554 N562 1.356 . S
C555 C554 1.363 . S
C555 C561 1.363 . S
C556 C557 1.363 . S
C556 C561 1.379 . S
C556 N563 1.356 . S
C557 C556 1.363 . S
C557 C560 1.363 . S
N558 C560 1.356 . S
N558 H570 0.984 . S
N558 H571 0.985 . S
N559 C561 1.356 . S
N559 H564 0.984 . S
N559 H565 0.985 . S
C560 C554 1.379 . S
C560 C557 1.363 . S
C560 N558 1.356 . S
C561 C555 1.363 . S
C561 C556 1.379 . S
C561 N559 1.356 . S
N562 C554 1.356 . S
N562 H568 0.984 . S
N562 H569 0.984 . S
N563 C556 1.356 . S
N563 H566 0.984 . S
N563 H567 0.985 . S
H564 N559 0.984 . S
H565 N559 0.985 . S
H566 N563 0.984 . S
H567 N563 0.985 . S
H568 N562 0.984 . S
H569 N562 0.984 . S
H570 N558 0.984 . S
H571 N558 0.985 . S
C572 C573 1.363 . S
C572 C578 1.379 . S
C572 N580 1.356 . S
C573 C572 1.363 . S
C573 C579 1.363 . S
C574 C575 1.363 . S
C574 C579 1.379 . S
C574 N581 1.356 . S
C575 C574 1.363 . S
C575 C578 1.363 . S
N576 C578 1.356 . S
N576 H588 0.984 . S
N576 H589 0.985 . S
N577 C579 1.356 . S
N577 H582 0.984 . S
N577 H583 0.985 . S
C578 C572 1.379 . S
C578 C575 1.363 . S
C578 N576 1.356 . S
C579 C573 1.363 . S
C579 C574 1.379 . S
C579 N577 1.356 . S
N580 C572 1.356 . S
N580 H586 0.984 . S
N580 H587 0.984 . S
N581 C574 1.356 . S
N581 H584 0.984 . S
N581 H585 0.985 . S
H582 N577 0.984 . S
H583 N577 0.985 . S
H584 N581 0.984 . S
H585 N581 0.985 . S
H586 N580 0.984 . S
H587 N580 0.984 . S
H588 N576 0.984 . S
H589 N576 0.985 . S
C590 C591 1.363 . S
C590 C596 1.379 . S
C590 N598 1.356 . S
C591 C590 1.363 . S
C591 C597 1.363 . S
C592 C593 1.363 . S
C592 C597 1.379 . S
C592 N599 1.356 . S
C593 C592 1.363 . S
C593 C596 1.363 . S
N594 C596 1.356 . S
N594 H606 0.984 . S
N594 H607 0.985 . S
N595 C597 1.356 . S
N595 H600 0.984 . S
N595 H601 0.985 . S
C596 C590 1.379 . S
C596 C593 1.363 . S
C596 N594 1.356 . S
C597 C591 1.363 . S
C597 C592 1.379 . S
C597 N595 1.356 . S
N598 C590 1.356 . S
N598 H604 0.984 . S
N598 H605 0.984 . S
N599 C592 1.356 . S
N599 H602 0.984 . S
N599 H603 0.985 . S
H600 N595 0.984 . S
H601 N595 0.985 . S
H602 N599 0.984 . S
H603 N599 0.985 . S
H604 N598 0.984 . S
H605 N598 0.984 . S
H606 N594 0.984 . S
H607 N594 0.985 . S
C177 C52 1.547 . S
C179 C8 1.547 . S
C195 C19 1.547 . S
C197 C63 1.547 . S
C213 C74 1.547 . S
C215 C30 1.547 . S
C231 C41 1.547 . S
C233 C85 1.547 . S
C249 C96 1.547 . S
C251 C140 1.547 . S
C267 C151 1.547 . S
C269 C107 1.547 . S
C285 C162 1.547 . S
C287 C118 1.547 . S
C303 C129 1.547 . S
C305 C173 1.547 . S
C321 C7 1.458 . S
C323 C62 1.458 . S
C339 C73 1.458 . S
C341 C18 1.458 . S
C357 C29 1.458 . S
C359 C84 1.458 . S
C375 C40 1.458 . S
C377 C51 1.458 . S
C393 C95 1.458 . S
C395 C150 1.458 . S
C411 C161 1.458 . S
C413 C106 1.458 . S
C429 C117 1.458 . S
C431 C172 1.458 . S
C447 C139 1.458 . S
C449 C128 1.458 . S
C465 C170 1.270 . S
C467 C5 1.270 . S
C483 C137 1.270 . S
C485 C16 1.270 . S
C501 C27 1.270 . S
C503 C148 1.270 . S
C519 C159 1.270 . S
C521 C38 1.270 . S
C537 C49 1.270 . S
C539 C104 1.270 . S
C555 C115 1.270 . S
C557 C60 1.270 . S
C573 C126 1.270 . S
C575 C71 1.270 . S
C591 C93 1.270 . S
C593 C82 1.270 . S
