# Generated by pormake.
# Topology crb, (4)-cn, num edge types: 1
# Building blocks:
#     Node 0, Type 0, BuildingBlock: CEKHIL_clean_sbu_0, # of connection points: 4
#     Node 1, Type 0, BuildingBlock: CEKHIL_clean_sbu_0, # of connection points: 4
#     Node 2, Type 0, BuildingBlock: CEKHIL_clean_sbu_0, # of connection points: 4
#     Node 3, Type 0, BuildingBlock: CEKHIL_clean_sbu_0, # of connection points: 4
#     Node 4, Type 0, BuildingBlock: CEKHIL_clean_sbu_0, # of connection points: 4
#     Node 5, Type 0, BuildingBlock: CEKHIL_clean_sbu_0, # of connection points: 4
#     Node 6, Type 0, BuildingBlock: CEKHIL_clean_sbu_0, # of connection points: 4
#     Node 7, Type 0, BuildingBlock: CEKHIL_clean_sbu_0, # of connection points: 4
#     Edge 8, Type (0, 0), BuildingBlock: EZIPEK_clean_linker_0, # of connection points: 2
#     Edge 9, Type (0, 0), BuildingBlock: EZIPEK_clean_linker_0, # of connection points: 2
#     Edge 10, Type (0, 0), BuildingBlock: EZIPEK_clean_linker_0, # of connection points: 2
#     Edge 11, Type (0, 0), BuildingBlock: EZIPEK_clean_linker_0, # of connection points: 2
#     Edge 12, Type (0, 0), BuildingBlock: EZIPEK_clean_linker_0, # of connection points: 2
#     Edge 13, Type (0, 0), BuildingBlock: EZIPEK_clean_linker_0, # of connection points: 2
#     Edge 14, Type (0, 0), BuildingBlock: EZIPEK_clean_linker_0, # of connection points: 2
#     Edge 15, Type (0, 0), BuildingBlock: EZIPEK_clean_linker_0, # of connection points: 2
#     Edge 16, Type (0, 0), BuildingBlock: EZIPEK_clean_linker_0, # of connection points: 2
#     Edge 17, Type (0, 0), BuildingBlock: EZIPEK_clean_linker_0, # of connection points: 2
#     Edge 18, Type (0, 0), BuildingBlock: EZIPEK_clean_linker_0, # of connection points: 2
#     Edge 19, Type (0, 0), BuildingBlock: EZIPEK_clean_linker_0, # of connection points: 2
#     Edge 20, Type (0, 0), BuildingBlock: EZIPEK_clean_linker_0, # of connection points: 2
#     Edge 21, Type (0, 0), BuildingBlock: EZIPEK_clean_linker_0, # of connection points: 2
#     Edge 22, Type (0, 0), BuildingBlock: EZIPEK_clean_linker_0, # of connection points: 2
#     Edge 23, Type (0, 0), BuildingBlock: EZIPEK_clean_linker_0, # of connection points: 2
# Relax obj value: 0.118
# Max RMSD: 0.159
# Mean RMSD: 0.159
data_MOF--net-crb--node1-CEKHIL_clean_sbu_0--edge1-EZIPEK_clean_linker_0
_symmetry_space_group_name_H-M    P1
_symmetry_Int_Tables_number       1
_symmetry_cell_setting            triclinic
loop_
_symmetry_equiv_pos_as_xyz
'x, y, z'
_cell_length_a     32.303892
_cell_length_b     31.266004
_cell_length_c     16.353539
_cell_angle_alpha  89.983664
_cell_angle_beta   89.626423
_cell_angle_gamma 90.287654
loop_
_atom_site_label
_atom_site_type_symbol
_atom_site_fract_x
_atom_site_fract_y
_atom_site_fract_z
_atom_type_partial_charge
Co0 Co 0.31907 0.33882 0.03014 0.0
O1 O 0.26305 0.33321 0.07502 0.0
O2 O 0.31692 0.29533 0.11353 0.0
C3 C 0.323 0.41117 0.0352 0.0
O4 O 0.38177 0.33579 1.01012 0.0
Co5 Co 0.34477 0.38116 0.87061 0.0
O6 O 0.40057 0.35651 0.88512 0.0
C7 C 0.29642 0.30276 0.86299 0.0
C8 C 0.27804 0.30412 0.12341 0.0
C9 C 0.40983 0.3424 0.95522 0.0
O10 O 0.30416 0.29591 0.93954 0.0
O11 O 0.3068 0.33726 0.82656 0.0
O12 O 0.32926 0.38826 0.10025 0.0
O13 O 0.31207 0.39036 0.97038 0.0
Co14 Co 0.6708 0.33366 0.05544 0.0
O15 O 0.72919 0.33084 0.02376 0.0
O16 O 0.6789 0.2918 0.97093 0.0
C17 C 0.6677 0.40617 0.05536 0.0
O18 O 0.60771 0.32732 0.05662 0.0
Co19 Co 0.63052 0.37332 0.20588 0.0
O20 O 0.57538 0.35984 0.16033 0.0
C21 C 0.68302 0.29749 0.224 0.0
C22 C 0.71759 0.30262 0.9698 0.0
C23 C 0.57452 0.33873 0.09416 0.0
O24 O 0.68055 0.29023 0.1463 0.0
O25 O 0.66783 0.33078 0.25781 0.0
O26 O 0.66515 0.38468 0.98743 0.0
O27 O 0.67264 0.38378 0.121 0.0
Co28 Co 0.68655 0.66357 0.04885 0.0
O29 O 0.74315 0.67357 0.08545 0.0
O30 O 0.68836 0.70976 0.12662 0.0
C31 C 0.68683 0.59149 0.06349 0.0
O32 O 0.62316 0.66196 0.036 0.0
Co33 Co 0.6608 0.61073 0.89711 0.0
O34 O 0.60365 0.61484 0.93976 0.0
C35 C 0.70215 0.69442 0.87441 0.0
C36 C 0.72769 0.70264 0.13363 0.0
C37 C 0.59511 0.64003 0.9985 0.0
O38 O 0.69656 0.70344 0.95106 0.0
O39 O 0.69215 0.65831 0.84329 0.0
O40 O 0.68206 0.61634 0.12641 0.0
O41 O 0.69455 0.61101 0.99533 0.0
Co42 Co 0.33445 0.66845 0.05254 0.0
O43 O 0.27918 0.68193 1.01478 0.0
O44 O 0.33678 0.71412 0.97369 0.0
C45 C 0.32836 0.59695 0.03964 0.0
O46 O 0.39712 0.66252 0.06858 0.0
Co47 Co 0.35333 0.61567 0.20743 0.0
O48 O 0.41219 0.61877 0.17303 0.0
C49 C 0.31815 0.70179 0.22372 0.0
C50 C 0.29698 0.70971 0.96669 0.0
C51 C 0.42327 0.64153 0.11206 0.0
O52 O 0.32747 0.70972 0.14814 0.0
O53 O 0.32265 0.66497 0.25639 0.0
O54 O 0.33625 0.6207 0.97617 0.0
O55 O 0.32125 0.61723 0.10713 0.0
Co56 Co 0.83446 0.83523 0.54714 0.0
O57 O 0.77692 0.82777 0.5843 0.0
O58 O 0.83037 0.79167 0.63001 0.0
C59 C 0.83523 0.90817 0.55115 0.0
O60 O 0.8979 0.83282 0.53867 0.0
Co61 Co 0.86747 0.87831 0.39365 0.0
O62 O 0.92462 0.86633 0.42967 0.0
C63 C 0.81848 0.79999 0.37759 0.0
C64 C 0.79101 0.79892 0.6344 0.0
C65 C 0.92904 0.84575 0.49578 0.0
O66 O 0.82376 0.79232 0.45469 0.0
O67 O 0.83102 0.83443 0.34342 0.0
O68 O 0.84035 0.88562 0.61722 0.0
O69 O 0.82854 0.88645 0.48515 0.0
Co70 Co 0.19017 0.83933 0.55201 0.0
O71 O 0.24663 0.83337 0.51209 0.0
O72 O 0.19383 0.79243 0.47565 0.0
C73 C 0.18667 0.91068 0.53584 0.0
O74 O 0.12708 0.83716 0.56984 0.0
Co75 Co 0.16466 0.89124 0.70509 0.0
O76 O 0.10689 0.87937 0.6735 0.0
C77 C 0.21026 0.81084 0.72473 0.0
C78 C 0.23262 0.80251 0.46652 0.0
C79 C 0.09855 0.85529 0.61308 0.0
O80 O 0.20329 0.80092 0.64924 0.0
O81 O 0.20002 0.84673 0.75608 0.0
O82 O 0.18169 0.88534 0.47364 0.0
O83 O 0.19664 0.8925 0.60381 0.0
Co84 Co 0.16619 0.16787 0.53019 0.0
O85 O 0.22321 0.17491 0.5691 0.0
O86 O 0.16877 0.2094 0.61639 0.0
C87 C 0.16553 0.09513 0.52838 0.0
O88 O 0.10305 0.17011 0.52193 0.0
Co89 Co 0.13407 0.12801 0.37382 0.0
O90 O 0.07674 0.13596 0.41408 0.0
C91 C 0.18342 0.20659 0.36375 0.0
C92 C 0.20807 0.20232 0.62132 0.0
C93 C 0.07215 0.15609 0.48069 0.0
O94 O 0.1776 0.21277 0.44132 0.0
O95 O 0.17086 0.17297 0.32709 0.0
O96 O 0.15997 0.11617 0.5962 0.0
O97 O 0.17282 0.11815 0.46407 0.0
Co98 Co 0.8148 0.16545 0.55568 0.0
O99 O 0.75843 0.17506 0.51903 0.0
O100 O 0.81397 0.20954 0.47371 0.0
C101 C 0.81379 0.09335 0.54869 0.0
O102 O 0.87754 0.1637 0.56928 0.0
Co103 Co 0.83822 0.11749 0.71407 0.0
O104 O 0.89658 0.12525 0.67846 0.0
C105 C 0.80061 0.20264 0.72565 0.0
C106 C 0.7744 0.20287 0.46848 0.0
C107 C 0.90547 0.1466 0.61436 0.0
O108 O 0.80731 0.20858 0.64837 0.0
O109 O 0.80704 0.16688 0.76121 0.0
O110 O 0.81879 0.1162 0.48296 0.0
O111 O 0.80555 0.11452 0.61467 0.0
C112 C 0.29405 0.48202 0.07994 0.0
C113 C 0.32472 0.45879 0.03649 0.0
C114 C 0.3582 0.52627 0.99441 0.0
C115 C 0.32646 0.54947 0.03509 0.0
N116 N 0.25827 0.54935 0.09652 0.0
N117 N 0.38305 0.45833 0.94442 0.0
C118 C 0.29285 0.52735 0.07285 0.0
C119 C 0.35563 0.48089 0.99076 0.0
N120 N 0.26564 0.46082 0.12737 0.0
N121 N 0.39205 0.5472 0.96297 0.0
H122 H 0.38534 0.4254 0.94879 0.0
H123 H 0.40192 0.47183 0.89939 0.0
H124 H 0.39662 0.58008 0.96714 0.0
H125 H 0.41806 0.53185 0.93962 0.0
H126 H 0.24606 0.47611 0.16879 0.0
H127 H 0.26329 0.4276 0.12932 0.0
H128 H 0.2311 0.53461 0.11672 0.0
H129 H 0.25475 0.58211 0.08723 0.0
C130 C 0.46637 0.30256 0.02874 0.0
C131 C 0.45454 0.33772 0.97869 0.0
C132 C 0.52492 0.36806 0.9923 0.0
C133 C 0.53465 0.33558 0.04958 0.0
N134 N 0.51492 0.27331 0.12685 0.0
N135 N 0.47644 0.40034 0.89992 0.0
C136 C 0.50553 0.30305 0.06866 0.0
C137 C 0.48492 0.36928 0.95631 0.0
N138 N 0.44112 0.26741 0.03391 0.0
N139 N 0.55321 0.39987 0.9768 0.0
H140 H 0.44729 0.4085 0.8796 0.0
H141 H 0.49917 0.41788 0.86924 0.0
H142 H 0.58387 0.39844 0.99546 0.0
H143 H 0.54629 0.42886 0.94894 0.0
H144 H 0.44932 0.23915 0.06314 0.0
H145 H 0.41369 0.26458 1.00097 0.0
H146 H 0.4934 0.25191 0.15139 0.0
H147 H 0.54392 0.27177 0.15445 0.0
C148 C 0.64399 0.47884 0.10179 0.0
C149 C 0.67262 0.45361 0.05714 0.0
C150 C 0.71272 0.51839 0.02303 0.0
C151 C 0.68387 0.54373 0.06807 0.0
N152 N 0.62754 0.54567 0.16738 0.0
N153 N 0.73873 0.44781 0.98896 0.0
C154 C 0.65153 0.52326 0.11329 0.0
C155 C 0.70809 0.473 0.0209 0.0
N156 N 0.60791 0.46085 0.12918 0.0
N157 N 0.74552 0.5376 0.98418 0.0
H158 H 0.73686 0.41457 0.98666 0.0
H159 H 0.76757 0.45922 0.97017 0.0
H160 H 0.7551 0.5688 0.99651 0.0
H161 H 0.76322 0.52276 0.9391 0.0
H162 H 0.5832 0.47824 0.15294 0.0
H163 H 0.60103 0.42878 0.12066 0.0
H164 H 0.6089 0.53091 0.21142 0.0
H165 H 0.62661 0.57877 0.17132 0.0
C166 C 0.48851 0.60202 0.07265 0.0
C167 C 0.4679 0.64151 0.08676 0.0
C168 C 0.52979 0.68033 0.0371 0.0
C169 C 0.55133 0.64103 0.02901 0.0
N170 N 0.55309 0.56473 0.05368 0.0
N171 N 0.47205 0.7183 0.09844 0.0
C172 C 0.53118 0.60201 0.05084 0.0
C173 C 0.48943 0.68071 0.07337 0.0
N174 N 0.4671 0.5642 0.07648 0.0
N175 N 0.54705 0.71711 1.00682 0.0
H176 H 0.44321 0.71978 0.12735 0.0
H177 H 0.48786 0.7474 0.09815 0.0
H178 H 0.57603 0.718 0.97839 0.0
H179 H 0.5311 0.74589 1.00288 0.0
H180 H 0.47891 0.53532 0.05511 0.0
H181 H 0.43621 0.56162 0.09409 0.0
H182 H 0.5417 0.53671 0.08011 0.0
H183 H 0.584 0.56231 0.03641 0.0
C184 C 0.79717 0.97475 0.59633 0.0
C185 C 0.83064 0.95587 0.55263 0.0
C186 C 0.85436 0.02761 0.51005 0.0
C187 C 0.81937 0.04608 0.54906 0.0
N188 N 0.75247 0.03623 0.61296 0.0
N189 N 0.88733 0.96438 0.45722 0.0
C190 C 0.78956 0.01943 0.58841 0.0
C191 C 0.85787 0.98237 0.50596 0.0
N192 N 0.7719 0.94995 0.64423 0.0
N193 N 0.88557 0.05311 0.48035 0.0
H194 H 0.89356 0.93208 0.45875 0.0
H195 H 0.90378 0.98097 0.41223 0.0
H196 H 0.88562 0.08629 0.48458 0.0
H197 H 0.91382 0.04145 0.45929 0.0
H198 H 0.75082 0.96247 0.68621 0.0
H199 H 0.77345 0.91676 0.64555 0.0
H200 H 0.72765 0.01778 0.63382 0.0
H201 H 0.74459 0.0682 0.60442 0.0
C202 C 0.02834 0.88812 0.58647 0.0
C203 C 0.05413 0.85116 0.58773 0.0
C204 C 0.99691 0.80911 0.52814 0.0
C205 C 0.9709 0.84537 0.53309 0.0
N206 N 0.95843 0.91511 0.59063 0.0
N207 N 0.05875 0.77417 0.57796 0.0
C208 C 0.98556 0.88344 0.5699 0.0
C209 C 0.03725 0.8109 0.56354 0.0
N210 N 0.04463 0.92827 0.5961 0.0
N211 N 0.98332 0.77323 0.48882 0.0
H212 H 0.08715 0.77386 0.60787 0.0
H213 H 0.04648 0.74374 0.5683 0.0
H214 H 0.95353 0.77063 0.46493 0.0
H215 H 1.0024 0.74738 0.47526 0.0
H216 H 0.0276 0.956 0.58614 0.0
H217 H 0.07591 0.93467 0.60453 0.0
H218 H 0.96689 0.94183 0.62492 0.0
H219 H 0.9266 0.9123 0.58206 0.0
C220 C 0.14382 0.02071 0.48357 0.0
C221 C 0.17145 0.04775 0.5273 0.0
C222 C 0.21303 0.98489 0.56295 0.0
C223 C 0.18204 0.95776 0.52965 0.0
N224 N 0.1152 0.94976 0.46563 0.0
N225 N 0.23253 0.05538 0.61045 0.0
C226 C 0.14686 0.97559 0.49133 0.0
C227 C 0.2059 0.02968 0.56814 0.0
N228 N 0.11484 0.03795 0.4335 0.0
N229 N 0.25058 0.9683 0.58423 0.0
H230 H 0.23156 0.08858 0.60764 0.0
H231 H 0.25449 0.04374 0.65104 0.0
H232 H 0.25813 0.93616 0.57656 0.0
H233 H 0.27593 0.98694 0.60096 0.0
H234 H 0.09751 0.0203 0.39182 0.0
H235 H 0.11067 0.07053 0.42877 0.0
H236 H 0.08679 0.9613 0.44584 0.0
H237 H 0.11509 0.91665 0.47207 0.0
C238 C 0.96584 0.19027 0.56048 0.0
C239 C 0.94967 0.15014 0.58746 0.0
C240 C 0.0172 0.11734 0.55939 0.0
C241 C 0.03075 0.15548 0.52046 0.0
N242 N 0.01739 0.22774 0.47815 0.0
N243 N 0.9592 0.07333 0.59991 0.0
C244 C 0.00492 0.1919 0.51943 0.0
C245 C 0.9752 0.1131 0.58413 0.0
N246 N 0.94479 0.22706 0.57747 0.0
N247 N 0.04477 0.08529 0.57458 0.0
H248 H 0.9286 0.06752 0.61665 0.0
H249 H 0.97536 0.04521 0.58819 0.0
H250 H 0.07598 0.08736 0.55859 0.0
H251 H 0.03772 0.05874 0.61068 0.0
H252 H 0.95673 0.25748 0.56588 0.0
H253 H 0.91732 0.22744 0.61131 0.0
H254 H 0.99806 0.25368 0.46738 0.0
H255 H 0.04628 0.23022 0.44954 0.0
C256 C 0.2431 0.21596 0.26856 0.0
C257 C 0.21055 0.2354 0.31359 0.0
C258 C 0.22523 0.30283 0.24109 0.0
C259 C 0.25273 0.28094 0.18684 0.0
N260 N 0.27864 0.21294 0.13872 0.0
N261 N 0.1673 0.29684 0.3363 0.0
C262 C 0.25919 0.23646 0.19788 0.0
C263 C 0.20069 0.27883 0.29838 0.0
N264 N 0.25906 0.17782 0.29389 0.0
N265 N 0.22382 0.34644 0.24101 0.0
H266 H 0.14927 0.28045 0.37929 0.0
H267 H 0.15591 0.32686 0.32075 0.0
H268 H 0.24248 0.36522 0.20315 0.0
H269 H 0.20731 0.364 0.28431 0.0
H270 H 0.2852 0.16413 0.26709 0.0
H271 H 0.24913 0.16256 0.34737 0.0
H272 H 0.28078 0.17971 0.14124 0.0
H273 H 0.2879 0.22573 0.08257 0.0
C274 C 0.69895 0.22664 0.29333 0.0
C275 C 0.70885 0.27014 0.27789 0.0
C276 C 0.75613 0.27027 0.39458 0.0
C277 C 0.74955 0.22578 0.40569 0.0
N278 N 0.72122 0.1596 0.35274 0.0
N279 N 0.75586 0.32928 0.2993 0.0
C280 C 0.72269 0.20327 0.35157 0.0
C281 C 0.74033 0.29059 0.32401 0.0
N282 N 0.66616 0.20798 0.2547 0.0
N283 N 0.77577 0.29375 0.45336 0.0
H284 H 0.74621 0.34449 0.24594 0.0
H285 H 0.78144 0.34374 0.32654 0.0
H286 H 0.78561 0.28066 0.50856 0.0
H287 H 0.77788 0.32701 0.45147 0.0
H288 H 0.65463 0.17787 0.27035 0.0
H289 H 0.64857 0.22393 0.21111 0.0
H290 H 0.70539 0.14162 0.30926 0.0
H291 H 0.739 0.1411 0.39202 0.0
C292 C 0.80353 0.72834 0.30853 0.0
C293 C 0.79272 0.77143 0.32489 0.0
C294 C 0.74519 0.77033 0.20848 0.0
C295 C 0.75256 0.72609 0.19651 0.0
N296 N 0.78202 0.6607 0.2497 0.0
N297 N 0.74364 0.82845 0.30557 0.0
C298 C 0.77993 0.70431 0.2505 0.0
C299 C 0.76042 0.79073 0.27964 0.0
N300 N 0.83699 0.71068 0.34604 0.0
N301 N 0.72536 0.79365 0.15 0.0
H302 H 0.75276 0.84353 0.35953 0.0
H303 H 0.71759 0.84194 0.27873 0.0
H304 H 0.71624 0.78076 0.09408 0.0
H305 H 0.72256 0.82681 0.15289 0.0
H306 H 0.84905 0.68104 0.32961 0.0
H307 H 0.85451 0.72707 0.38935 0.0
H308 H 0.79834 0.64326 0.29306 0.0
H309 H 0.76416 0.64162 0.21131 0.0
C310 C 0.24321 0.78202 0.31937 0.0
C311 C 0.25822 0.78243 0.40089 0.0
C312 C 0.31973 0.74324 0.35477 0.0
C313 C 0.30083 0.73581 0.27781 0.0
N314 N 0.24183 0.74512 0.18951 0.0
N315 N 0.30979 0.76042 0.49811 0.0
C316 C 0.26207 0.75486 0.26025 0.0
C317 C 0.29656 0.76274 0.41904 0.0
N318 N 0.21157 0.80849 0.29768 0.0
N319 N 0.3601 0.73192 0.36594 0.0
H320 H 0.29345 0.77357 0.54711 0.0
H321 H 0.33516 0.74234 0.51606 0.0
H322 H 0.37801 0.71844 0.31934 0.0
H323 H 0.3769 0.73991 0.41795 0.0
H324 H 0.20214 0.81265 0.23741 0.0
H325 H 0.19777 0.82983 0.33844 0.0
H326 H 0.2113 0.7539 0.17847 0.0
H327 H 0.25419 0.72544 0.14436 0.0
C328 C 0.22143 0.73934 0.79546 0.0
C329 C 0.23438 0.7819 0.77872 0.0
C330 C 0.28328 0.77836 0.89246 0.0
C331 C 0.27373 0.73447 0.90409 0.0
N332 N 0.24062 0.67058 0.8513 0.0
N333 N 0.28662 0.83667 0.79588 0.0
C334 C 0.24469 0.71409 0.85135 0.0
C335 C 0.26817 0.79971 0.82243 0.0
N336 N 0.18625 0.72342 0.76075 0.0
N337 N 0.3051 0.80046 0.95013 0.0
H338 H 0.27775 0.85226 0.74238 0.0
H339 H 0.31364 0.84889 0.82161 0.0
H340 H 0.31438 0.7869 1.00528 0.0
H341 H 0.30956 0.83348 0.94753 0.0
H342 H 0.17306 0.69425 0.77791 0.0
H343 H 0.16832 0.74087 0.71995 0.0
H344 H 0.22283 0.65412 0.80856 0.0
H345 H 0.25834 0.65053 0.8878 0.0
C346 C 0.2377 0.29031 0.76887 0.0
C347 C 0.27113 0.27257 0.81297 0.0
C348 C 0.26188 0.20558 0.73604 0.0
C349 C 0.23316 0.22624 0.68333 0.0
N350 N 0.20327 0.29298 0.63877 0.0
N351 N 0.31881 0.21434 0.83124 0.0
C352 C 0.22375 0.26996 0.69681 0.0
C353 C 0.2843 0.23035 0.79482 0.0
N354 N 0.219 0.32675 0.79625 0.0
N355 N 0.26649 0.16228 0.73307 0.0
H356 H 0.33544 0.23121 0.87524 0.0
H357 H 0.33245 0.18563 0.81353 0.0
H358 H 0.24971 0.14297 0.69346 0.0
H359 H 0.28391 0.14524 0.77534 0.0
H360 H 0.19224 0.33901 0.76994 0.0
H361 H 0.2275 0.34176 0.8507 0.0
H362 H 0.19885 0.32591 0.64317 0.0
H363 H 0.19542 0.28041 0.58183 0.0
C364 C 0.73038 0.28741 0.82157 0.0
C365 C 0.74507 0.28614 0.90329 0.0
C366 C 0.805 0.24517 0.85535 0.0
C367 C 0.78518 0.23804 0.77904 0.0
N368 N 0.72639 0.25094 0.69155 0.0
N369 N 0.79639 0.262 0.99915 0.0
C370 C 0.74751 0.25937 0.7619 0.0
C371 C 0.78284 0.26519 0.92045 0.0
N372 N 0.70034 0.31594 0.8007 0.0
N373 N 0.84521 0.23298 0.86516 0.0
H374 H 0.78104 0.27592 0.04856 0.0
H375 H 0.82118 0.24283 1.01613 0.0
H376 H 0.8625 0.21943 0.81772 0.0
H377 H 0.86252 0.24052 0.91676 0.0
H378 H 0.69107 0.32105 0.74059 0.0
H379 H 0.68816 0.33795 0.84224 0.0
H380 H 0.69643 0.26175 0.68113 0.0
H381 H 0.73717 0.23046 0.64615 0.0
C382 C 0.75848 0.70701 0.77153 0.0
C383 C 0.72545 0.7242 0.8187 0.0
C384 C 0.73547 0.79294 0.74719 0.0
C385 C 0.7646 0.7735 0.69292 0.0
N386 N 0.79353 0.70774 0.64091 0.0
N387 N 0.67798 0.78227 0.84194 0.0
C388 C 0.773 0.72925 0.70144 0.0
C389 C 0.71261 0.76691 0.80402 0.0
N390 N 0.77714 0.66989 0.7951 0.0
N391 N 0.73085 0.83628 0.74757 0.0
H392 H 0.66062 0.76426 0.88358 0.0
H393 H 0.66467 0.81151 0.82699 0.0
H394 H 0.74735 0.85644 0.70858 0.0
H395 H 0.71342 0.85242 0.79149 0.0
H396 H 0.8037 0.65812 0.76657 0.0
H397 H 0.76917 0.65372 0.84883 0.0
H398 H 0.79723 0.67463 0.6414 0.0
H399 H 0.80221 0.72205 0.58572 0.0
loop_
_geom_bond_atom_site_label_1
_geom_bond_atom_site_label_2
_geom_bond_distance
_geom_bond_site_symmetry_2
_ccdc_geom_bond_type
Co0 O1 2.216 . S
Co0 O2 2.091 . S
Co0 O4 2.004 . S
Co0 O10 2.021 1_554 S
Co0 O12 2.137 . S
Co0 O13 2.244 1_554 S
O1 Co0 2.216 . S
O1 C8 1.247 . S
O2 Co0 2.091 . S
O2 C8 1.261 . S
C3 O12 1.247 . S
C3 O13 1.272 1_554 S
O4 Co0 2.004 . S
O4 C9 1.259 1_554 S
Co5 O6 2.061 . S
Co5 O11 2.052 . S
Co5 O13 2.135 . S
O6 Co5 2.061 . S
O6 C9 1.235 . S
C7 O10 1.238 . S
C7 O11 1.241 . S
C8 O1 1.247 . S
C8 O2 1.261 . S
C9 O4 1.259 1_556 S
C9 O6 1.235 . S
O10 Co0 2.021 1_556 S
O10 C7 1.238 . S
O11 Co5 2.052 . S
O11 C7 1.241 . S
O12 Co0 2.137 . S
O12 C3 1.247 . S
O13 Co0 2.244 1_556 S
O13 C3 1.272 1_556 S
O13 Co5 2.135 . S
Co14 O15 2.216 . S
Co14 O16 2.091 . S
Co14 O18 2.004 . S
Co14 O24 2.021 1_556 S
Co14 O26 2.137 . S
Co14 O27 2.244 1_556 S
O15 Co14 2.216 . S
O15 C22 1.247 . S
O16 Co14 2.091 . S
O16 C22 1.261 . S
C17 O26 1.247 . S
C17 O27 1.272 1_556 S
O18 Co14 2.004 . S
O18 C23 1.259 1_556 S
Co19 O20 2.061 . S
Co19 O25 2.052 . S
Co19 O27 2.135 . S
O20 Co19 2.061 . S
O20 C23 1.235 . S
C21 O24 1.238 . S
C21 O25 1.241 . S
C22 O15 1.247 . S
C22 O16 1.261 . S
C23 O18 1.259 1_554 S
C23 O20 1.235 . S
O24 Co14 2.021 1_554 S
O24 C21 1.238 . S
O25 Co19 2.052 . S
O25 C21 1.241 . S
O26 Co14 2.137 . S
O26 C17 1.247 . S
O27 Co14 2.244 1_554 S
O27 C17 1.272 1_554 S
O27 Co19 2.135 . S
Co28 O29 2.216 . S
Co28 O30 2.091 . S
Co28 O32 2.004 . S
Co28 O38 2.021 1_554 S
Co28 O40 2.137 . S
Co28 O41 2.244 1_554 S
O29 Co28 2.216 . S
O29 C36 1.247 . S
O30 Co28 2.091 . S
O30 C36 1.261 . S
C31 O40 1.247 . S
C31 O41 1.272 1_554 S
O32 Co28 2.004 . S
O32 C37 1.259 1_554 S
Co33 O34 2.061 . S
Co33 O39 2.052 . S
Co33 O41 2.135 . S
O34 Co33 2.061 . S
O34 C37 1.235 . S
C35 O38 1.238 . S
C35 O39 1.241 . S
C36 O29 1.247 . S
C36 O30 1.261 . S
C37 O32 1.259 1_556 S
C37 O34 1.235 . S
O38 Co28 2.021 1_556 S
O38 C35 1.238 . S
O39 Co33 2.052 . S
O39 C35 1.241 . S
O40 Co28 2.137 . S
O40 C31 1.247 . S
O41 Co28 2.244 1_556 S
O41 C31 1.272 1_556 S
O41 Co33 2.135 . S
Co42 O43 2.216 . S
Co42 O44 2.091 . S
Co42 O46 2.004 . S
Co42 O52 2.021 1_556 S
Co42 O54 2.137 . S
Co42 O55 2.244 1_556 S
O43 Co42 2.216 . S
O43 C50 1.247 . S
O44 Co42 2.091 . S
O44 C50 1.261 . S
C45 O54 1.247 . S
C45 O55 1.272 1_556 S
O46 Co42 2.004 . S
O46 C51 1.259 1_556 S
Co47 O48 2.061 . S
Co47 O53 2.052 . S
Co47 O55 2.135 . S
O48 Co47 2.061 . S
O48 C51 1.235 . S
C49 O52 1.238 . S
C49 O53 1.241 . S
C50 O43 1.247 . S
C50 O44 1.261 . S
C51 O46 1.259 1_554 S
C51 O48 1.235 . S
O52 Co42 2.021 1_554 S
O52 C49 1.238 . S
O53 Co47 2.052 . S
O53 C49 1.241 . S
O54 Co42 2.137 . S
O54 C45 1.247 . S
O55 Co42 2.244 1_554 S
O55 C45 1.272 1_554 S
O55 Co47 2.135 . S
Co56 O57 2.216 . S
Co56 O58 2.091 . S
Co56 O60 2.004 . S
Co56 O66 2.021 . S
Co56 O68 2.137 . S
Co56 O69 2.244 . S
O57 Co56 2.216 . S
O57 C64 1.247 . S
O58 Co56 2.091 . S
O58 C64 1.261 . S
C59 O68 1.247 . S
C59 O69 1.272 . S
O60 Co56 2.004 . S
O60 C65 1.259 . S
Co61 O62 2.061 . S
Co61 O67 2.052 . S
Co61 O69 2.135 . S
O62 Co61 2.061 . S
O62 C65 1.235 . S
C63 O66 1.238 . S
C63 O67 1.241 . S
C64 O57 1.247 . S
C64 O58 1.261 . S
C65 O60 1.259 . S
C65 O62 1.235 . S
O66 Co56 2.021 . S
O66 C63 1.238 . S
O67 Co61 2.052 . S
O67 C63 1.241 . S
O68 Co56 2.137 . S
O68 C59 1.247 . S
O69 Co56 2.244 . S
O69 C59 1.272 . S
O69 Co61 2.135 . S
Co70 O71 2.216 . S
Co70 O72 2.091 . S
Co70 O74 2.004 . S
Co70 O80 2.021 . S
Co70 O82 2.137 . S
Co70 O83 2.244 . S
O71 Co70 2.216 . S
O71 C78 1.247 . S
O72 Co70 2.091 . S
O72 C78 1.261 . S
C73 O82 1.247 . S
C73 O83 1.272 . S
O74 Co70 2.004 . S
O74 C79 1.259 . S
Co75 O76 2.061 . S
Co75 O81 2.052 . S
Co75 O83 2.135 . S
O76 Co75 2.061 . S
O76 C79 1.235 . S
C77 O80 1.238 . S
C77 O81 1.241 . S
C78 O71 1.247 . S
C78 O72 1.261 . S
C79 O74 1.259 . S
C79 O76 1.235 . S
O80 Co70 2.021 . S
O80 C77 1.238 . S
O81 Co75 2.052 . S
O81 C77 1.241 . S
O82 Co70 2.137 . S
O82 C73 1.247 . S
O83 Co70 2.244 . S
O83 C73 1.272 . S
O83 Co75 2.135 . S
Co84 O85 2.216 . S
Co84 O86 2.091 . S
Co84 O88 2.004 . S
Co84 O94 2.021 . S
Co84 O96 2.137 . S
Co84 O97 2.244 . S
O85 Co84 2.216 . S
O85 C92 1.247 . S
O86 Co84 2.091 . S
O86 C92 1.261 . S
C87 O96 1.247 . S
C87 O97 1.272 . S
O88 Co84 2.004 . S
O88 C93 1.259 . S
Co89 O90 2.061 . S
Co89 O95 2.052 . S
Co89 O97 2.135 . S
O90 Co89 2.061 . S
O90 C93 1.235 . S
C91 O94 1.238 . S
C91 O95 1.241 . S
C92 O85 1.247 . S
C92 O86 1.261 . S
C93 O88 1.259 . S
C93 O90 1.235 . S
O94 Co84 2.021 . S
O94 C91 1.238 . S
O95 Co89 2.052 . S
O95 C91 1.241 . S
O96 Co84 2.137 . S
O96 C87 1.247 . S
O97 Co84 2.244 . S
O97 C87 1.272 . S
O97 Co89 2.135 . S
Co98 O99 2.216 . S
Co98 O100 2.091 . S
Co98 O102 2.004 . S
Co98 O108 2.021 . S
Co98 O110 2.137 . S
Co98 O111 2.244 . S
O99 Co98 2.216 . S
O99 C106 1.247 . S
O100 Co98 2.091 . S
O100 C106 1.261 . S
C101 O110 1.247 . S
C101 O111 1.272 . S
O102 Co98 2.004 . S
O102 C107 1.259 . S
Co103 O104 2.061 . S
Co103 O109 2.052 . S
Co103 O111 2.135 . S
O104 Co103 2.061 . S
O104 C107 1.235 . S
C105 O108 1.238 . S
C105 O109 1.241 . S
C106 O99 1.247 . S
C106 O100 1.261 . S
C107 O102 1.259 . S
C107 O104 1.235 . S
O108 Co98 2.021 . S
O108 C105 1.238 . S
O109 Co103 2.052 . S
O109 C105 1.241 . S
O110 Co98 2.137 . S
O110 C101 1.247 . S
O111 Co98 2.244 . S
O111 C101 1.272 . S
O111 Co103 2.135 . S
C112 C113 1.363 . S
C112 C118 1.379 . S
C112 N120 1.356 . S
C113 C112 1.363 . S
C113 C119 1.363 1_554 S
C114 C115 1.363 1_556 S
C114 C119 1.379 . S
C114 N121 1.356 . S
C115 C114 1.363 1_554 S
C115 C118 1.363 . S
N116 C118 1.356 . S
N116 H128 0.984 . S
N116 H129 0.985 . S
N117 C119 1.356 . S
N117 H122 0.984 . S
N117 H123 0.985 . S
C118 C112 1.379 . S
C118 C115 1.363 . S
C118 N116 1.356 . S
C119 C113 1.363 1_556 S
C119 C114 1.379 . S
C119 N117 1.356 . S
N120 C112 1.356 . S
N120 H126 0.984 . S
N120 H127 0.984 . S
N121 C114 1.356 . S
N121 H124 0.984 . S
N121 H125 0.985 . S
H122 N117 0.984 . S
H123 N117 0.985 . S
H124 N121 0.984 . S
H125 N121 0.985 . S
H126 N120 0.984 . S
H127 N120 0.984 . S
H128 N116 0.984 . S
H129 N116 0.985 . S
C130 C131 1.363 . S
C130 C136 1.379 . S
C130 N138 1.356 . S
C131 C130 1.363 . S
C131 C137 1.363 1_554 S
C132 C133 1.363 1_556 S
C132 C137 1.379 . S
C132 N139 1.356 . S
C133 C132 1.363 1_554 S
C133 C136 1.363 . S
N134 C136 1.356 . S
N134 H146 0.984 . S
N134 H147 0.985 . S
N135 C137 1.356 . S
N135 H140 0.984 . S
N135 H141 0.985 . S
C136 C130 1.379 . S
C136 C133 1.363 . S
C136 N134 1.356 . S
C137 C131 1.363 1_556 S
C137 C132 1.379 . S
C137 N135 1.356 . S
N138 C130 1.356 . S
N138 H144 0.984 . S
N138 H145 0.984 . S
N139 C132 1.356 . S
N139 H142 0.983 1_556 S
N139 H143 0.985 . S
H140 N135 0.984 . S
H141 N135 0.985 . S
H142 N139 0.983 1_554 S
H143 N139 0.985 . S
H144 N138 0.984 . S
H145 N138 0.984 . S
H146 N134 0.984 . S
H147 N134 0.985 . S
C148 C149 1.363 . S
C148 C154 1.379 . S
C148 N156 1.356 . S
C149 C148 1.363 . S
C149 C155 1.363 1_554 S
C150 C151 1.363 1_556 S
C150 C155 1.379 . S
C150 N157 1.356 . S
C151 C150 1.363 1_554 S
C151 C154 1.363 . S
N152 C154 1.356 . S
N152 H164 0.984 . S
N152 H165 0.985 . S
N153 C155 1.356 . S
N153 H158 0.984 . S
N153 H159 0.985 . S
C154 C148 1.379 . S
C154 C151 1.363 . S
C154 N152 1.356 . S
C155 C149 1.363 1_556 S
C155 C150 1.379 . S
C155 N153 1.356 . S
N156 C148 1.356 . S
N156 H162 0.984 . S
N156 H163 0.984 . S
N157 C150 1.356 . S
N157 H160 0.984 . S
N157 H161 0.985 . S
H158 N153 0.984 . S
H159 N153 0.985 . S
H160 N157 0.984 . S
H161 N157 0.985 . S
H162 N156 0.984 . S
H163 N156 0.984 . S
H164 N152 0.984 . S
H165 N152 0.985 . S
C166 C167 1.363 . S
C166 C172 1.379 . S
C166 N174 1.356 . S
C167 C166 1.363 . S
C167 C173 1.363 1_554 S
C168 C169 1.363 1_556 S
C168 C173 1.379 . S
C168 N175 1.356 . S
C169 C168 1.363 1_554 S
C169 C172 1.363 . S
N170 C172 1.356 . S
N170 H182 0.984 . S
N170 H183 0.985 . S
N171 C173 1.356 . S
N171 H176 0.983 1_556 S
N171 H177 0.985 . S
C172 C166 1.379 . S
C172 C169 1.363 . S
C172 N170 1.356 . S
C173 C167 1.363 1_556 S
C173 C168 1.379 . S
C173 N171 1.356 . S
N174 C166 1.356 . S
N174 H180 0.984 . S
N174 H181 0.984 . S
N175 C168 1.356 . S
N175 H178 0.984 . S
N175 H179 0.985 . S
H176 N171 0.983 1_554 S
H177 N171 0.985 . S
H178 N175 0.984 . S
H179 N175 0.985 . S
H180 N174 0.984 . S
H181 N174 0.984 . S
H182 N170 0.984 . S
H183 N170 0.985 . S
C184 C185 1.363 . S
C184 C190 1.379 1_565 S
C184 N192 1.356 . S
C185 C184 1.363 . S
C185 C191 1.363 . S
C186 C187 1.363 . S
C186 C191 1.379 1_545 S
C186 N193 1.356 . S
C187 C186 1.363 . S
C187 C190 1.363 . S
N188 C190 1.356 . S
N188 H200 0.984 . S
N188 H201 0.985 . S
N189 C191 1.356 . S
N189 H194 0.984 . S
N189 H195 0.985 . S
C190 C184 1.379 1_545 S
C190 C187 1.363 . S
C190 N188 1.356 . S
C191 C185 1.363 . S
C191 C186 1.379 1_565 S
C191 N189 1.356 . S
N192 C184 1.356 . S
N192 H198 0.984 . S
N192 H199 0.984 . S
N193 C186 1.356 . S
N193 H196 0.984 . S
N193 H197 0.985 . S
H194 N189 0.984 . S
H195 N189 0.985 . S
H196 N193 0.984 . S
H197 N193 0.985 . S
H198 N192 0.984 . S
H199 N192 0.984 . S
H200 N188 0.984 . S
H201 N188 0.985 . S
C202 C203 1.363 . S
C202 C208 1.379 1_455 S
C202 N210 1.356 . S
C203 C202 1.363 . S
C203 C209 1.363 . S
C204 C205 1.363 . S
C204 C209 1.379 1_655 S
C204 N211 1.356 . S
C205 C204 1.363 . S
C205 C208 1.363 . S
N206 C208 1.356 . S
N206 H218 0.984 . S
N206 H219 0.985 . S
N207 C209 1.356 . S
N207 H212 0.984 . S
N207 H213 0.985 . S
C208 C202 1.379 1_655 S
C208 C205 1.363 . S
C208 N206 1.356 . S
C209 C203 1.363 . S
C209 C204 1.379 1_455 S
C209 N207 1.356 . S
N210 C202 1.356 . S
N210 H216 0.984 . S
N210 H217 0.984 . S
N211 C204 1.356 . S
N211 H214 0.984 . S
N211 H215 0.985 . S
H212 N207 0.984 . S
H213 N207 0.985 . S
H214 N211 0.984 . S
H215 N211 0.985 . S
H216 N210 0.984 . S
H217 N210 0.984 . S
H218 N206 0.984 . S
H219 N206 0.985 . S
C220 C221 1.363 . S
C220 C226 1.379 1_545 S
C220 N228 1.356 . S
C221 C220 1.363 . S
C221 C227 1.363 . S
C222 C223 1.363 . S
C222 C227 1.379 1_565 S
C222 N229 1.356 . S
C223 C222 1.363 . S
C223 C226 1.363 . S
N224 C226 1.356 . S
N224 H236 0.984 . S
N224 H237 0.985 . S
N225 C227 1.356 . S
N225 H230 0.984 . S
N225 H231 0.985 . S
C226 C220 1.379 1_565 S
C226 C223 1.363 . S
C226 N224 1.356 . S
C227 C221 1.363 . S
C227 C222 1.379 1_545 S
C227 N225 1.356 . S
N228 C220 1.356 . S
N228 H234 0.984 . S
N228 H235 0.984 . S
N229 C222 1.356 . S
N229 H232 0.984 . S
N229 H233 0.985 . S
H230 N225 0.984 . S
H231 N225 0.985 . S
H232 N229 0.984 . S
H233 N229 0.985 . S
H234 N228 0.984 . S
H235 N228 0.984 . S
H236 N224 0.984 . S
H237 N224 0.985 . S
C238 C239 1.363 . S
C238 C244 1.379 1_655 S
C238 N246 1.356 . S
C239 C238 1.363 . S
C239 C245 1.363 . S
C240 C241 1.363 . S
C240 C245 1.379 1_455 S
C240 N247 1.356 . S
C241 C240 1.363 . S
C241 C244 1.363 . S
N242 C244 1.356 . S
N242 H254 0.984 . S
N242 H255 0.985 . S
N243 C245 1.356 . S
N243 H248 0.984 . S
N243 H249 0.985 . S
C244 C238 1.379 1_455 S
C244 C241 1.363 . S
C244 N242 1.356 . S
C245 C239 1.363 . S
C245 C240 1.379 1_655 S
C245 N243 1.356 . S
N246 C238 1.356 . S
N246 H252 0.984 . S
N246 H253 0.984 . S
N247 C240 1.356 . S
N247 H250 0.984 . S
N247 H251 0.985 . S
H248 N243 0.984 . S
H249 N243 0.985 . S
H250 N247 0.984 . S
H251 N247 0.985 . S
H252 N246 0.984 . S
H253 N246 0.984 . S
H254 N242 0.984 . S
H255 N242 0.985 . S
C256 C257 1.363 . S
C256 C262 1.379 . S
C256 N264 1.356 . S
C257 C256 1.363 . S
C257 C263 1.363 . S
C258 C259 1.363 . S
C258 C263 1.379 . S
C258 N265 1.356 . S
C259 C258 1.363 . S
C259 C262 1.363 . S
N260 C262 1.356 . S
N260 H272 0.984 . S
N260 H273 0.985 . S
N261 C263 1.356 . S
N261 H266 0.984 . S
N261 H267 0.985 . S
C262 C256 1.379 . S
C262 C259 1.363 . S
C262 N260 1.356 . S
C263 C257 1.363 . S
C263 C258 1.379 . S
C263 N261 1.356 . S
N264 C256 1.356 . S
N264 H270 0.984 . S
N264 H271 0.984 . S
N265 C258 1.356 . S
N265 H268 0.984 . S
N265 H269 0.985 . S
H266 N261 0.984 . S
H267 N261 0.985 . S
H268 N265 0.984 . S
H269 N265 0.985 . S
H270 N264 0.984 . S
H271 N264 0.984 . S
H272 N260 0.984 . S
H273 N260 0.985 . S
C274 C275 1.363 . S
C274 C280 1.379 . S
C274 N282 1.356 . S
C275 C274 1.363 . S
C275 C281 1.363 . S
C276 C277 1.363 . S
C276 C281 1.379 . S
C276 N283 1.356 . S
C277 C276 1.363 . S
C277 C280 1.363 . S
N278 C280 1.356 . S
N278 H290 0.984 . S
N278 H291 0.985 . S
N279 C281 1.356 . S
N279 H284 0.984 . S
N279 H285 0.985 . S
C280 C274 1.379 . S
C280 C277 1.363 . S
C280 N278 1.356 . S
C281 C275 1.363 . S
C281 C276 1.379 . S
C281 N279 1.356 . S
N282 C274 1.356 . S
N282 H288 0.984 . S
N282 H289 0.984 . S
N283 C276 1.356 . S
N283 H286 0.984 . S
N283 H287 0.985 . S
H284 N279 0.984 . S
H285 N279 0.985 . S
H286 N283 0.984 . S
H287 N283 0.985 . S
H288 N282 0.984 . S
H289 N282 0.984 . S
H290 N278 0.984 . S
H291 N278 0.985 . S
C292 C293 1.363 . S
C292 C298 1.379 . S
C292 N300 1.356 . S
C293 C292 1.363 . S
C293 C299 1.363 . S
C294 C295 1.363 . S
C294 C299 1.379 . S
C294 N301 1.356 . S
C295 C294 1.363 . S
C295 C298 1.363 . S
N296 C298 1.356 . S
N296 H308 0.984 . S
N296 H309 0.985 . S
N297 C299 1.356 . S
N297 H302 0.984 . S
N297 H303 0.985 . S
C298 C292 1.379 . S
C298 C295 1.363 . S
C298 N296 1.356 . S
C299 C293 1.363 . S
C299 C294 1.379 . S
C299 N297 1.356 . S
N300 C292 1.356 . S
N300 H306 0.984 . S
N300 H307 0.984 . S
N301 C294 1.356 . S
N301 H304 0.984 . S
N301 H305 0.985 . S
H302 N297 0.984 . S
H303 N297 0.985 . S
H304 N301 0.984 . S
H305 N301 0.985 . S
H306 N300 0.984 . S
H307 N300 0.984 . S
H308 N296 0.984 . S
H309 N296 0.985 . S
C310 C311 1.363 . S
C310 C316 1.379 . S
C310 N318 1.356 . S
C311 C310 1.363 . S
C311 C317 1.363 . S
C312 C313 1.363 . S
C312 C317 1.379 . S
C312 N319 1.356 . S
C313 C312 1.363 . S
C313 C316 1.363 . S
N314 C316 1.356 . S
N314 H326 0.984 . S
N314 H327 0.985 . S
N315 C317 1.356 . S
N315 H320 0.984 . S
N315 H321 0.985 . S
C316 C310 1.379 . S
C316 C313 1.363 . S
C316 N314 1.356 . S
C317 C311 1.363 . S
C317 C312 1.379 . S
C317 N315 1.356 . S
N318 C310 1.356 . S
N318 H324 0.984 . S
N318 H325 0.984 . S
N319 C312 1.356 . S
N319 H322 0.984 . S
N319 H323 0.985 . S
H320 N315 0.984 . S
H321 N315 0.985 . S
H322 N319 0.984 . S
H323 N319 0.985 . S
H324 N318 0.984 . S
H325 N318 0.984 . S
H326 N314 0.984 . S
H327 N314 0.985 . S
C328 C329 1.363 . S
C328 C334 1.379 . S
C328 N336 1.356 . S
C329 C328 1.363 . S
C329 C335 1.363 . S
C330 C331 1.363 . S
C330 C335 1.379 . S
C330 N337 1.356 . S
C331 C330 1.363 . S
C331 C334 1.363 . S
N332 C334 1.356 . S
N332 H344 0.984 . S
N332 H345 0.985 . S
N333 C335 1.356 . S
N333 H338 0.984 . S
N333 H339 0.985 . S
C334 C328 1.379 . S
C334 C331 1.363 . S
C334 N332 1.356 . S
C335 C329 1.363 . S
C335 C330 1.379 . S
C335 N333 1.356 . S
N336 C328 1.356 . S
N336 H342 0.984 . S
N336 H343 0.984 . S
N337 C330 1.356 . S
N337 H340 0.984 . S
N337 H341 0.985 . S
H338 N333 0.984 . S
H339 N333 0.985 . S
H340 N337 0.984 . S
H341 N337 0.985 . S
H342 N336 0.984 . S
H343 N336 0.984 . S
H344 N332 0.984 . S
H345 N332 0.985 . S
C346 C347 1.363 . S
C346 C352 1.379 . S
C346 N354 1.356 . S
C347 C346 1.363 . S
C347 C353 1.363 . S
C348 C349 1.363 . S
C348 C353 1.379 . S
C348 N355 1.356 . S
C349 C348 1.363 . S
C349 C352 1.363 . S
N350 C352 1.356 . S
N350 H362 0.984 . S
N350 H363 0.985 . S
N351 C353 1.356 . S
N351 H356 0.984 . S
N351 H357 0.985 . S
C352 C346 1.379 . S
C352 C349 1.363 . S
C352 N350 1.356 . S
C353 C347 1.363 . S
C353 C348 1.379 . S
C353 N351 1.356 . S
N354 C346 1.356 . S
N354 H360 0.984 . S
N354 H361 0.984 . S
N355 C348 1.356 . S
N355 H358 0.984 . S
N355 H359 0.985 . S
H356 N351 0.984 . S
H357 N351 0.985 . S
H358 N355 0.984 . S
H359 N355 0.985 . S
H360 N354 0.984 . S
H361 N354 0.984 . S
H362 N350 0.984 . S
H363 N350 0.985 . S
C364 C365 1.363 . S
C364 C370 1.379 . S
C364 N372 1.356 . S
C365 C364 1.363 . S
C365 C371 1.363 . S
C366 C367 1.363 . S
C366 C371 1.379 . S
C366 N373 1.356 . S
C367 C366 1.363 . S
C367 C370 1.363 . S
N368 C370 1.356 . S
N368 H380 0.984 . S
N368 H381 0.985 . S
N369 C371 1.356 . S
N369 H374 0.984 . S
N369 H375 0.985 . S
C370 C364 1.379 . S
C370 C367 1.363 . S
C370 N368 1.356 . S
C371 C365 1.363 . S
C371 C366 1.379 . S
C371 N369 1.356 . S
N372 C364 1.356 . S
N372 H378 0.984 . S
N372 H379 0.984 . S
N373 C366 1.356 . S
N373 H376 0.984 . S
N373 H377 0.985 . S
H374 N369 0.984 . S
H375 N369 0.985 . S
H376 N373 0.984 . S
H377 N373 0.985 . S
H378 N372 0.984 . S
H379 N372 0.984 . S
H380 N368 0.984 . S
H381 N368 0.985 . S
C382 C383 1.363 . S
C382 C388 1.379 . S
C382 N390 1.356 . S
C383 C382 1.363 . S
C383 C389 1.363 . S
C384 C385 1.363 . S
C384 C389 1.379 . S
C384 N391 1.356 . S
C385 C384 1.363 . S
C385 C388 1.363 . S
N386 C388 1.356 . S
N386 H398 0.984 . S
N386 H399 0.985 . S
N387 C389 1.356 . S
N387 H392 0.984 . S
N387 H393 0.985 . S
C388 C382 1.379 . S
C388 C385 1.363 . S
C388 N386 1.356 . S
C389 C383 1.363 . S
C389 C384 1.379 . S
C389 N387 1.356 . S
N390 C382 1.356 . S
N390 H396 0.984 . S
N390 H397 0.984 . S
N391 C384 1.356 . S
N391 H394 0.984 . S
N391 H395 0.985 . S
H392 N387 0.984 . S
H393 N387 0.985 . S
H394 N391 0.984 . S
H395 N391 0.985 . S
H396 N390 0.984 . S
H397 N390 0.984 . S
H398 N386 0.984 . S
H399 N386 0.985 . S
C113 C3 1.564 . S
C115 C45 1.564 1_554 S
C131 C9 1.574 1_554 S
C133 C23 1.574 . S
C149 C17 1.564 1_554 S
C151 C31 1.564 . S
C167 C51 1.574 . S
C169 C37 1.574 1_554 S
C185 C59 1.564 . S
C187 C101 1.564 . S
C203 C79 1.574 . S
C205 C65 1.574 . S
C221 C87 1.564 . S
C223 C73 1.564 . S
C239 C107 1.574 . S
C241 C93 1.574 . S
C257 C91 1.469 . S
C259 C8 1.500 . S
C275 C21 1.469 . S
C277 C106 1.500 . S
C293 C63 1.469 . S
C295 C36 1.500 . S
C311 C78 1.500 . S
C313 C49 1.469 . S
C329 C77 1.469 . S
C331 C50 1.500 . S
C347 C7 1.469 . S
C349 C92 1.500 . S
C365 C22 1.500 . S
C367 C105 1.469 . S
C383 C35 1.469 . S
C385 C64 1.500 . S
