# Generated by pormake.
# Topology wiv, (6)-cn, num edge types: 1
# Building blocks:
#     Node 0, Type 0, BuildingBlock: HISSIN_clean_sbu_0, # of connection points: 6
#     Node 1, Type 0, BuildingBlock: HISSIN_clean_sbu_0, # of connection points: 6
#     Node 2, Type 0, BuildingBlock: HISSIN_clean_sbu_0, # of connection points: 6
#     Node 3, Type 0, BuildingBlock: HISSIN_clean_sbu_0, # of connection points: 6
#     Node 4, Type 0, BuildingBlock: HISSIN_clean_sbu_0, # of connection points: 6
#     Node 5, Type 0, BuildingBlock: HISSIN_clean_sbu_0, # of connection points: 6
#     Node 6, Type 0, BuildingBlock: HISSIN_clean_sbu_0, # of connection points: 6
#     Node 7, Type 0, BuildingBlock: HISSIN_clean_sbu_0, # of connection points: 6
#     Node 8, Type 0, BuildingBlock: HISSIN_clean_sbu_0, # of connection points: 6
#     Node 9, Type 0, BuildingBlock: HISSIN_clean_sbu_0, # of connection points: 6
#     Node 10, Type 0, BuildingBlock: HISSIN_clean_sbu_0, # of connection points: 6
#     Node 11, Type 0, BuildingBlock: HISSIN_clean_sbu_0, # of connection points: 6
#     Node 12, Type 0, BuildingBlock: HISSIN_clean_sbu_0, # of connection points: 6
#     Node 13, Type 0, BuildingBlock: HISSIN_clean_sbu_0, # of connection points: 6
#     Node 14, Type 0, BuildingBlock: HISSIN_clean_sbu_0, # of connection points: 6
#     Node 15, Type 0, BuildingBlock: HISSIN_clean_sbu_0, # of connection points: 6
#     Edge 16, Type (0, 0), BuildingBlock: UVAHIK_clean_linker_0, # of connection points: 2
#     Edge 17, Type (0, 0), BuildingBlock: UVAHIK_clean_linker_0, # of connection points: 2
#     Edge 18, Type (0, 0), BuildingBlock: UVAHIK_clean_linker_0, # of connection points: 2
#     Edge 19, Type (0, 0), BuildingBlock: UVAHIK_clean_linker_0, # of connection points: 2
#     Edge 20, Type (0, 0), BuildingBlock: UVAHIK_clean_linker_0, # of connection points: 2
#     Edge 21, Type (0, 0), BuildingBlock: UVAHIK_clean_linker_0, # of connection points: 2
#     Edge 22, Type (0, 0), BuildingBlock: UVAHIK_clean_linker_0, # of connection points: 2
#     Edge 23, Type (0, 0), BuildingBlock: UVAHIK_clean_linker_0, # of connection points: 2
#     Edge 24, Type (0, 0), BuildingBlock: UVAHIK_clean_linker_0, # of connection points: 2
#     Edge 25, Type (0, 0), BuildingBlock: UVAHIK_clean_linker_0, # of connection points: 2
#     Edge 26, Type (0, 0), BuildingBlock: UVAHIK_clean_linker_0, # of connection points: 2
#     Edge 27, Type (0, 0), BuildingBlock: UVAHIK_clean_linker_0, # of connection points: 2
#     Edge 28, Type (0, 0), BuildingBlock: UVAHIK_clean_linker_0, # of connection points: 2
#     Edge 29, Type (0, 0), BuildingBlock: UVAHIK_clean_linker_0, # of connection points: 2
#     Edge 30, Type (0, 0), BuildingBlock: UVAHIK_clean_linker_0, # of connection points: 2
#     Edge 31, Type (0, 0), BuildingBlock: UVAHIK_clean_linker_0, # of connection points: 2
#     Edge 32, Type (0, 0), BuildingBlock: UVAHIK_clean_linker_0, # of connection points: 2
#     Edge 33, Type (0, 0), BuildingBlock: UVAHIK_clean_linker_0, # of connection points: 2
#     Edge 34, Type (0, 0), BuildingBlock: UVAHIK_clean_linker_0, # of connection points: 2
#     Edge 35, Type (0, 0), BuildingBlock: UVAHIK_clean_linker_0, # of connection points: 2
#     Edge 36, Type (0, 0), BuildingBlock: UVAHIK_clean_linker_0, # of connection points: 2
#     Edge 37, Type (0, 0), BuildingBlock: UVAHIK_clean_linker_0, # of connection points: 2
#     Edge 38, Type (0, 0), BuildingBlock: UVAHIK_clean_linker_0, # of connection points: 2
#     Edge 39, Type (0, 0), BuildingBlock: UVAHIK_clean_linker_0, # of connection points: 2
#     Edge 40, Type (0, 0), BuildingBlock: UVAHIK_clean_linker_0, # of connection points: 2
#     Edge 41, Type (0, 0), BuildingBlock: UVAHIK_clean_linker_0, # of connection points: 2
#     Edge 42, Type (0, 0), BuildingBlock: UVAHIK_clean_linker_0, # of connection points: 2
#     Edge 43, Type (0, 0), BuildingBlock: UVAHIK_clean_linker_0, # of connection points: 2
#     Edge 44, Type (0, 0), BuildingBlock: UVAHIK_clean_linker_0, # of connection points: 2
#     Edge 45, Type (0, 0), BuildingBlock: UVAHIK_clean_linker_0, # of connection points: 2
#     Edge 46, Type (0, 0), BuildingBlock: UVAHIK_clean_linker_0, # of connection points: 2
#     Edge 47, Type (0, 0), BuildingBlock: UVAHIK_clean_linker_0, # of connection points: 2
#     Edge 48, Type (0, 0), BuildingBlock: UVAHIK_clean_linker_0, # of connection points: 2
#     Edge 49, Type (0, 0), BuildingBlock: UVAHIK_clean_linker_0, # of connection points: 2
#     Edge 50, Type (0, 0), BuildingBlock: UVAHIK_clean_linker_0, # of connection points: 2
#     Edge 51, Type (0, 0), BuildingBlock: UVAHIK_clean_linker_0, # of connection points: 2
#     Edge 52, Type (0, 0), BuildingBlock: UVAHIK_clean_linker_0, # of connection points: 2
#     Edge 53, Type (0, 0), BuildingBlock: UVAHIK_clean_linker_0, # of connection points: 2
#     Edge 54, Type (0, 0), BuildingBlock: UVAHIK_clean_linker_0, # of connection points: 2
#     Edge 55, Type (0, 0), BuildingBlock: UVAHIK_clean_linker_0, # of connection points: 2
#     Edge 56, Type (0, 0), BuildingBlock: UVAHIK_clean_linker_0, # of connection points: 2
#     Edge 57, Type (0, 0), BuildingBlock: UVAHIK_clean_linker_0, # of connection points: 2
#     Edge 58, Type (0, 0), BuildingBlock: UVAHIK_clean_linker_0, # of connection points: 2
#     Edge 59, Type (0, 0), BuildingBlock: UVAHIK_clean_linker_0, # of connection points: 2
#     Edge 60, Type (0, 0), BuildingBlock: UVAHIK_clean_linker_0, # of connection points: 2
#     Edge 61, Type (0, 0), BuildingBlock: UVAHIK_clean_linker_0, # of connection points: 2
#     Edge 62, Type (0, 0), BuildingBlock: UVAHIK_clean_linker_0, # of connection points: 2
#     Edge 63, Type (0, 0), BuildingBlock: UVAHIK_clean_linker_0, # of connection points: 2
# Relax obj value: 0.100
# Max RMSD: 0.165
# Mean RMSD: 0.165
data_MOF--net-wiv--node1-HISSIN_clean_sbu_0--edge1-UVAHIK_clean_linker_0
_symmetry_space_group_name_H-M    P1
_symmetry_Int_Tables_number       1
_symmetry_cell_setting            triclinic
loop_
_symmetry_equiv_pos_as_xyz
'x, y, z'
_cell_length_a     68.723097
_cell_length_b     68.757155
_cell_length_c     29.67023
_cell_angle_alpha  89.993802
_cell_angle_beta   89.95637
_cell_angle_gamma 90.032825
loop_
_atom_site_label
_atom_site_type_symbol
_atom_site_fract_x
_atom_site_fract_y
_atom_site_fract_z
_atom_type_partial_charge
Eu0 Eu 0.34776 0.10779 0.16364 0.0
Eu1 Eu 0.3756 0.10806 0.07246 0.0
C2 C 0.36572 0.06934 0.12515 0.0
C3 C 0.33015 0.10992 0.2855 0.0
C4 C 0.34907 0.11267 0.30203 0.0
C5 C 0.31769 0.1119 0.36203 0.0
C6 C 0.35232 0.11478 0.34833 0.0
C7 C 0.31448 0.10972 0.31571 0.0
C8 C 0.33668 0.11424 0.37903 0.0
C9 C 0.32676 0.10629 0.23724 0.0
O10 O 0.34577 0.09896 0.051 0.0
O11 O 0.32764 0.11435 0.10489 0.0
C12 C 0.32938 0.10672 0.06441 0.0
O13 O 0.3609 0.13743 0.15855 0.0
O14 O 0.3877 0.09237 1.01512 0.0
O15 O 0.39314 0.12322 0.02188 0.0
O16 O 0.36288 0.13824 0.08181 0.0
C17 C 0.36203 0.14727 0.12087 0.0
O18 O 0.37856 0.10535 0.19023 0.0
O19 O 0.39665 0.11466 0.12812 0.0
O20 O 0.3802 0.0795 0.10851 0.0
O21 O 0.32727 0.12138 0.21058 0.0
O22 O 0.336 0.09143 0.22029 0.0
O23 O 0.34909 0.07782 0.13391 0.0
C24 C 0.38923 0.11069 0.94832 0.0
C25 C 0.36962 0.1119 0.93541 0.0
C26 C 0.39879 0.11335 0.86973 0.0
C27 C 0.36462 0.11366 0.88986 0.0
C28 C 0.40377 0.11152 0.91526 0.0
C29 C 0.37915 0.11432 0.8564 0.0
C30 C 0.3946 0.10798 0.99593 0.0
C31 C 0.39512 0.1107 0.17138 0.0
H32 H 0.36137 0.11281 0.27916 0.0
H33 H 0.30527 0.11172 0.38451 0.0
H34 H 0.36715 0.11631 0.36011 0.0
H35 H 0.29976 0.10764 0.30353 0.0
H36 H 0.35819 0.11134 0.96054 0.0
H37 H 0.41034 0.11356 0.84487 0.0
H38 H 0.34938 0.1146 0.88088 0.0
H39 H 0.41897 0.11053 0.92462 0.0
Eu40 Eu 0.10896 0.63152 0.96305 0.0
Eu41 Eu 0.10803 0.65951 0.87228 0.0
C42 C 0.14786 0.64568 0.91442 0.0
C43 C 0.11149 0.61718 0.08676 0.0
C44 C 0.11262 0.63672 0.10021 0.0
C45 C 0.11353 0.60727 0.1652 0.0
C46 C 0.11404 0.64151 0.14594 0.0
C47 C 0.11205 0.60251 0.11947 0.0
C48 C 0.11442 0.62684 0.17906 0.0
C49 C 0.10912 0.61204 0.03891 0.0
O50 O 0.10462 0.62872 0.84631 0.0
O51 O 0.11638 0.61109 0.90665 0.0
C52 C 0.11125 0.61245 0.86406 0.0
O53 O 0.08016 0.62714 0.92773 0.0
O54 O 0.12142 0.67968 0.82429 0.0
O55 O 0.09126 0.67128 0.81637 0.0
O56 O 0.07839 0.6584 0.90374 0.0
C57 C 0.06989 0.64175 0.91216 0.0
O58 O 0.10021 0.66128 0.98576 0.0
O59 O 0.11461 0.67973 0.93079 0.0
O60 O 0.1379 0.64676 0.8769 0.0
O61 O 0.09339 0.61859 0.01966 0.0
O62 O 0.12441 0.61413 1.01331 0.0
O63 O 0.13895 0.64466 0.95362 0.0
C64 C 0.10926 0.6765 0.75008 0.0
C65 C 0.11141 0.65743 0.73396 0.0
C66 C 0.11125 0.68852 0.6732 0.0
C67 C 0.11327 0.65391 0.68769 0.0
C68 C 0.10935 0.69201 0.71948 0.0
C69 C 0.11305 0.66941 0.65663 0.0
C70 C 0.10609 0.68023 0.79839 0.0
C71 C 0.10749 0.67782 0.97176 0.0
H72 H 0.11226 0.64826 0.07536 0.0
H73 H 0.11353 0.59562 0.18977 0.0
H74 H 0.11494 0.65671 0.15534 0.0
H75 H 0.11111 0.58735 0.10969 0.0
H76 H 0.11131 0.64524 0.75711 0.0
H77 H 0.11133 0.70082 0.6504 0.0
H78 H 0.11438 0.639 0.67623 0.0
H79 H 0.10773 0.70683 0.73134 0.0
Eu80 Eu 0.6612 0.88892 0.16181 0.0
Eu81 Eu 0.63249 0.89457 0.07227 0.0
C82 C 0.64224 0.93005 0.13945 0.0
C83 C 0.67783 0.88622 0.28362 0.0
C84 C 0.65949 0.89241 0.29869 0.0
C85 C 0.6881 0.88246 0.36156 0.0
C86 C 0.65544 0.89353 0.34489 0.0
C87 C 0.69211 0.88133 0.31533 0.0
C88 C 0.66966 0.88846 0.377 0.0
C89 C 0.68183 0.88404 0.23506 0.0
O90 O 0.66222 0.88696 0.04729 0.0
O91 O 0.6807 0.89924 0.10474 0.0
C92 C 0.67879 0.89367 0.06251 0.0
O93 O 0.66191 0.86116 0.1224 0.0
O94 O 0.62293 0.91293 0.01655 0.0
O95 O 0.61228 0.88348 0.02129 0.0
O96 O 0.63122 0.86295 0.0934 0.0
C97 C 0.64622 0.85265 0.10698 0.0
O98 O 0.63054 0.8821 0.18491 0.0
O99 O 0.61171 0.89696 0.13043 0.0
O100 O 0.64066 0.92475 0.09702 0.0
O101 O 0.67236 0.87008 0.21494 0.0
O102 O 0.68206 0.9 0.21118 0.0
O103 O 0.64629 0.91743 0.17105 0.0
C104 C 0.61752 0.89643 0.94829 0.0
C105 C 0.63593 0.89011 0.93402 0.0
C106 C 0.60769 0.89957 0.86991 0.0
C107 C 0.64025 0.88864 0.88799 0.0
C108 C 0.60342 0.90106 0.91595 0.0
C109 C 0.62621 0.89346 0.85526 0.0
C110 C 0.61323 0.89913 0.9966 0.0
C111 C 0.61374 0.8889 0.1704 0.0
H112 H 0.64825 0.89623 0.27468 0.0
H113 H 0.69932 0.8782 0.38518 0.0
H114 H 0.64118 0.89845 0.35545 0.0
H115 H 0.70631 0.87638 0.30432 0.0
H116 H 0.64702 0.8865 0.95852 0.0
H117 H 0.5966 0.90366 0.84579 0.0
H118 H 0.65457 0.88365 0.87808 0.0
H119 H 0.58917 0.90611 0.92631 0.0
Eu120 Eu 0.89484 0.37543 0.95529 0.0
Eu121 Eu 0.88823 0.34675 0.86607 0.0
C122 C 0.85276 0.36336 0.92041 0.0
C123 C 0.89804 0.38995 0.07931 0.0
C124 C 0.89331 0.37105 0.09345 0.0
C125 C 0.9011 0.39971 0.15779 0.0
C126 C 0.89245 0.3665 0.13945 0.0
C127 C 0.90191 0.40424 0.11178 0.0
C128 C 0.89638 0.38077 0.17229 0.0
C129 C 0.89922 0.39481 0.03092 0.0
O130 O 0.88309 0.37762 0.84233 0.0
O131 O 0.89838 0.39598 0.89707 0.0
C132 C 0.89047 0.39418 0.8569 0.0
O133 O 0.92472 0.36523 0.93273 0.0
O134 O 0.86894 0.33656 0.81274 0.0
O135 O 0.89829 0.32528 0.81685 0.0
O136 O 0.91786 0.35961 0.85835 0.0
C137 C 0.93039 0.36276 0.89074 0.0
O138 O 0.88658 0.34596 0.98099 0.0
O139 O 0.8975 0.32677 0.92315 0.0
O140 O 0.86061 0.3471 0.90644 0.0
O141 O 0.91351 0.3869 1.00867 0.0
O142 O 0.88298 0.39408 1.00837 0.0
O143 O 0.8637 0.3783 0.93132 0.0
C144 C 0.88489 0.33001 0.74418 0.0
C145 C 0.89089 0.34834 0.72861 0.0
C146 C 0.88209 0.31905 0.66651 0.0
C147 C 0.89237 0.35204 0.6823 0.0
C148 C 0.8806 0.31538 0.71285 0.0
C149 C 0.88788 0.33747 0.65054 0.0
C150 C 0.88241 0.32631 0.79283 0.0
C151 C 0.89236 0.32907 0.96559 0.0
H152 H 0.89039 0.35979 0.06888 0.0
H153 H 0.90396 0.41113 0.18204 0.0
H154 H 0.88902 0.35171 0.14924 0.0
H155 H 0.90557 0.41892 0.10154 0.0
H156 H 0.8942 0.35986 0.75232 0.0
H157 H 0.87879 0.30739 0.64319 0.0
H158 H 0.89663 0.36646 0.6714 0.0
H159 H 0.87595 0.30114 0.72421 0.0
Eu160 Eu 0.34367 0.39648 0.12036 0.0
Eu161 Eu 0.37205 0.39474 0.21052 0.0
C162 C 0.3624 0.43416 0.16085 0.0
C163 C 0.32642 0.39574 0.99853 0.0
C164 C 0.34516 0.39106 0.98317 0.0
C165 C 0.31509 0.39642 0.92094 0.0
C166 C 0.34891 0.38934 0.93696 0.0
C167 C 0.31139 0.39823 0.96719 0.0
C168 C 0.33396 0.39219 0.90521 0.0
C169 C 0.32276 0.39907 0.04685 0.0
O170 O 0.34246 0.40403 0.23361 0.0
O171 O 0.32364 0.38978 0.17925 0.0
C172 C 0.32578 0.39687 0.22016 0.0
O173 O 0.35617 0.36648 0.1233 0.0
O174 O 0.38549 0.41001 0.26685 0.0
O175 O 0.38884 0.37884 0.26122 0.0
O176 O 0.35904 0.3648 0.19986 0.0
C177 C 0.35773 0.35624 0.16033 0.0
O178 O 0.37443 0.39879 0.09339 0.0
O179 O 0.39266 0.38805 0.15388 0.0
O180 O 0.37689 0.42342 0.17521 0.0
O181 O 0.32286 0.38377 0.07291 0.0
O182 O 0.33222 0.41361 0.06462 0.0
O183 O 0.34555 0.42612 0.15198 0.0
C184 C 0.38632 0.39217 0.33448 0.0
C185 C 0.36683 0.39307 0.34859 0.0
C186 C 0.39637 0.38908 0.41265 0.0
C187 C 0.36216 0.39221 0.3945 0.0
C188 C 0.40102 0.39001 0.36675 0.0
C189 C 0.37689 0.39037 0.42722 0.0
C190 C 0.39146 0.39414 0.28647 0.0
C191 C 0.39094 0.39269 0.11102 0.0
H192 H 0.35695 0.38903 1.00691 0.0
H193 H 0.30329 0.39889 0.89747 0.0
H194 H 0.36354 0.38581 0.92609 0.0
H195 H 0.29685 0.40194 0.97843 0.0
H196 H 0.35526 0.39474 0.32412 0.0
H197 H 0.40808 0.38732 0.43671 0.0
H198 H 0.34704 0.39346 0.40435 0.0
H199 H 0.41613 0.38922 0.35648 0.0
Eu200 Eu 0.39494 0.63194 0.82385 0.0
Eu201 Eu 0.39766 0.65998 0.91447 0.0
C202 C 0.35696 0.64741 0.87428 0.0
C203 C 0.3913 0.61841 0.69972 0.0
C204 C 0.39139 0.63803 0.68665 0.0
C205 C 0.38838 0.60897 0.6211 0.0
C206 C 0.39016 0.64309 0.64102 0.0
C207 C 0.38969 0.60393 0.66672 0.0
C208 C 0.38873 0.62861 0.60761 0.0
C209 C 0.39356 0.61292 0.74743 0.0
O210 O 0.39851 0.62916 0.94134 0.0
O211 O 0.38768 0.61135 0.88016 0.0
C212 C 0.39213 0.61285 0.92319 0.0
O213 O 0.42319 0.62555 0.85947 0.0
O214 O 0.38562 0.68129 0.9617 0.0
O215 O 0.41507 0.67084 0.97039 0.0
O216 O 0.42743 0.65655 0.88395 0.0
C217 C 0.43458 0.63933 0.8749 0.0
O218 O 0.40574 0.66112 0.80172 0.0
O219 O 0.39163 0.6802 0.85565 0.0
O220 O 0.36724 0.64847 0.91136 0.0
O221 O 0.40965 0.6186 0.76657 0.0
O222 O 0.37846 0.61559 0.77338 0.0
O223 O 0.36551 0.64601 0.83473 0.0
C224 C 0.39729 0.67761 0.03626 0.0
C225 C 0.39334 0.65888 0.05264 0.0
C226 C 0.39639 0.68995 0.113 0.0
C227 C 0.39115 0.65565 0.09895 0.0
C228 C 0.39864 0.69314 0.06667 0.0
C229 C 0.39281 0.67112 0.12985 0.0
C230 C 0.40087 0.68089 0.98788 0.0
C231 C 0.39885 0.67792 0.81492 0.0
H232 H 0.39258 0.64943 0.71171 0.0
H233 H 0.38755 0.59744 0.59632 0.0
H234 H 0.39023 0.65835 0.63193 0.0
H235 H 0.38969 0.58871 0.67618 0.0
H236 H 0.39228 0.6467 0.02963 0.0
H237 H 0.39745 0.70226 0.13562 0.0
H238 H 0.38865 0.64092 0.11057 0.0
H239 H 0.40165 0.70771 0.05462 0.0
Eu240 Eu 0.65889 0.60496 0.12538 0.0
Eu241 Eu 0.63029 0.60619 0.21576 0.0
C242 C 0.64022 0.56712 0.16501 0.0
C243 C 0.67652 0.60568 1.00359 0.0
C244 C 0.6575 0.60768 0.98709 0.0
C245 C 0.68879 0.60787 0.92686 0.0
C246 C 0.65411 0.60955 0.94078 0.0
C247 C 0.69214 0.60593 0.97323 0.0
C248 C 0.66971 0.60952 0.90993 0.0
C249 C 0.68003 0.60251 0.05207 0.0
O250 O 0.66016 0.59759 0.23837 0.0
O251 O 0.67856 0.61249 0.18418 0.0
C252 C 0.67658 0.60538 0.2251 0.0
O253 O 0.64574 0.63466 0.12777 0.0
O254 O 0.61774 0.59059 0.27277 0.0
O255 O 0.61296 0.62155 0.26641 0.0
O256 O 0.64202 0.63659 0.20425 0.0
C257 C 0.64347 0.64497 0.16451 0.0
O258 O 0.62821 0.60264 0.09813 0.0
O259 O 0.60934 0.61186 0.15918 0.0
O260 O 0.62569 0.57766 0.17988 0.0
O261 O 0.67964 0.61787 0.0779 0.0
O262 O 0.67073 0.58787 0.06998 0.0
O263 O 0.65708 0.57529 0.1569 0.0
C264 C 0.61642 0.6087 0.33993 0.0
C265 C 0.63599 0.61036 0.35298 0.0
C266 C 0.60682 0.61004 0.41872 0.0
C267 C 0.64095 0.6117 0.39866 0.0
C268 C 0.60189 0.60864 0.37306 0.0
C269 C 0.62642 0.61146 0.43217 0.0
C270 C 0.61113 0.60627 0.29214 0.0
C271 C 0.61142 0.60782 0.11605 0.0
H272 H 0.64526 0.60746 1.01004 0.0
H273 H 0.70118 0.6081 0.90429 0.0
H274 H 0.63921 0.61052 0.92915 0.0
H275 H 0.70694 0.60444 0.98534 0.0
H276 H 0.64743 0.61046 0.32783 0.0
H277 H 0.59527 0.60956 0.44356 0.0
H278 H 0.65616 0.61301 0.40769 0.0
H279 H 0.58672 0.60726 0.36363 0.0
Eu280 Eu 0.60648 0.37421 0.81142 0.0
Eu281 Eu 0.60553 0.34535 0.9016 0.0
C282 C 0.64573 0.36025 0.86063 0.0
C283 C 0.60775 0.3885 0.68744 0.0
C284 C 0.60903 0.36898 0.67391 0.0
C285 C 0.60848 0.39837 0.60881 0.0
C286 C 0.60985 0.36417 0.62807 0.0
C287 C 0.60762 0.40315 0.65464 0.0
C288 C 0.60943 0.3788 0.59484 0.0
C289 C 0.60586 0.39365 0.73547 0.0
O290 O 0.6036 0.37601 0.92898 0.0
O291 O 0.61318 0.39475 0.8681 0.0
C292 C 0.60922 0.3927 0.91126 0.0
O293 O 0.57815 0.37867 0.84841 0.0
O294 O 0.61831 0.32475 0.94953 0.0
O295 O 0.58824 0.33347 0.95669 0.0
O296 O 0.57586 0.34713 0.87001 0.0
C297 C 0.56762 0.36401 0.86271 0.0
O298 O 0.5983 0.34427 0.7883 0.0
O299 O 0.61276 0.32565 0.84276 0.0
O300 O 0.6358 0.35715 0.89769 0.0
O301 O 0.59034 0.38708 0.75566 0.0
O302 O 0.6214 0.39165 0.76023 0.0
O303 O 0.63715 0.36303 0.82152 0.0
C304 C 0.60578 0.32804 0.02352 0.0
C305 C 0.60827 0.3471 0.03945 0.0
C306 C 0.60673 0.31626 0.10079 0.0
C307 C 0.60968 0.35076 0.08573 0.0
C308 C 0.60521 0.31264 0.05443 0.0
C309 C 0.60873 0.3354 0.11706 0.0
C310 C 0.60284 0.32433 0.97505 0.0
C311 C 0.60593 0.3278 0.80166 0.0
H312 H 0.60913 0.35746 0.6988 0.0
H313 H 0.60846 0.41004 0.58431 0.0
H314 H 0.61036 0.34895 0.6187 0.0
H315 H 0.60668 0.4183 0.66445 0.0
H316 H 0.60885 0.35917 0.01606 0.0
H317 H 0.60579 0.30412 0.12395 0.0
H318 H 0.61149 0.36563 0.097 0.0
H319 H 0.60323 0.29783 0.04278 0.0
Eu320 Eu 0.84281 0.61209 0.66821 0.0
Eu321 Eu 0.87085 0.61442 0.5777 0.0
C322 C 0.86212 0.57471 0.62771 0.0
C323 C 0.82588 0.6125 0.7905 0.0
C324 C 0.84492 0.61512 0.80647 0.0
C325 C 0.81392 0.61403 0.86752 0.0
C326 C 0.84846 0.61698 0.85272 0.0
C327 C 0.81041 0.61212 0.82125 0.0
C328 C 0.83302 0.61631 0.88393 0.0
C329 C 0.82215 0.60937 0.74216 0.0
O330 O 0.84152 0.6044 0.55464 0.0
O331 O 0.82236 0.6178 0.60961 0.0
C332 C 0.82464 0.61084 0.56861 0.0
O333 O 0.85448 0.64247 0.66406 0.0
O334 O 0.88465 0.59952 0.52128 0.0
O335 O 0.8875 0.63071 0.52739 0.0
O336 O 0.85659 0.64382 0.5874 0.0
C337 C 0.8553 0.65258 0.62668 0.0
O338 O 0.87367 0.60951 0.69414 0.0
O339 O 0.89098 0.62232 0.63439 0.0
O340 O 0.87628 0.58573 0.61254 0.0
O341 O 0.82229 0.62477 0.71646 0.0
O342 O 0.83145 0.59484 0.7239 0.0
O343 O 0.84517 0.58241 0.63716 0.0
C344 C 0.88525 0.61756 0.45402 0.0
C345 C 0.8657 0.61792 0.44044 0.0
C346 C 0.89518 0.61961 0.37555 0.0
C347 C 0.86091 0.61897 0.39464 0.0
C348 C 0.89994 0.6185 0.42134 0.0
C349 C 0.8756 0.61974 0.36157 0.0
C350 C 0.89042 0.61553 0.50193 0.0
C351 C 0.88976 0.61677 0.67674 0.0
H352 H 0.85708 0.61539 0.78321 0.0
H353 H 0.80165 0.61375 0.89042 0.0
H354 H 0.86336 0.61847 0.86405 0.0
H355 H 0.79561 0.61014 0.80951 0.0
H356 H 0.85414 0.61723 0.46525 0.0
H357 H 0.90687 0.61992 0.35104 0.0
H358 H 0.84569 0.61928 0.38517 0.0
H359 H 0.91512 0.61813 0.43122 0.0
Eu360 Eu 0.61524 0.1341 0.44853 0.0
Eu361 Eu 0.61342 0.16213 0.35798 0.0
C362 C 0.6537 0.14877 0.39884 0.0
C363 C 0.61794 0.11997 0.57249 0.0
C364 C 0.61773 0.13952 0.58618 0.0
C365 C 0.62005 0.11005 0.65091 0.0
C366 C 0.61847 0.1443 0.63202 0.0
C367 C 0.61926 0.10531 0.60508 0.0
C368 C 0.61947 0.12961 0.66505 0.0
C369 C 0.61603 0.11476 0.52458 0.0
O370 O 0.61103 0.13134 0.33132 0.0
O371 O 0.62202 0.11346 0.39213 0.0
C372 C 0.61714 0.11492 0.34937 0.0
O373 O 0.58655 0.12891 0.41359 0.0
O374 O 0.6263 0.18277 0.31031 0.0
O375 O 0.59634 0.17371 0.30233 0.0
O376 O 0.58361 0.16003 0.38892 0.0
C377 C 0.5757 0.14321 0.39869 0.0
O378 O 0.60536 0.16351 0.4711 0.0
O379 O 0.61958 0.18236 0.41674 0.0
O380 O 0.64355 0.14989 0.3616 0.0
O381 O 0.6001 0.12058 0.50499 0.0
O382 O 0.63132 0.11752 0.49928 0.0
O383 O 0.64499 0.1476 0.43823 0.0
C384 C 0.61418 0.17941 0.2361 0.0
C385 C 0.61772 0.1605 0.22035 0.0
C386 C 0.61449 0.19115 0.15883 0.0
C387 C 0.61935 0.15688 0.17409 0.0
C388 C 0.61276 0.19473 0.20513 0.0
C389 C 0.61756 0.17213 0.1427 0.0
C390 C 0.61095 0.18304 0.28443 0.0
C391 C 0.61229 0.18025 0.45748 0.0
H392 H 0.61667 0.15106 0.56144 0.0
H393 H 0.62114 0.09838 0.67527 0.0
H394 H 0.61779 0.15948 0.64159 0.0
H395 H 0.61948 0.09015 0.59512 0.0
H396 H 0.61891 0.14849 0.24382 0.0
H397 H 0.61285 0.20319 0.13561 0.0
H398 H 0.62199 0.14212 0.1629 0.0
H399 H 0.60995 0.2094 0.21669 0.0
Eu400 Eu 0.16041 0.39597 0.66588 0.0
Eu401 Eu 0.13224 0.39459 0.57544 0.0
C402 C 0.14117 0.43367 0.62735 0.0
C403 C 0.17754 0.39508 0.78781 0.0
C404 C 0.15864 0.39122 0.80336 0.0
C405 C 0.1891 0.39504 0.86521 0.0
C406 C 0.15494 0.38953 0.84958 0.0
C407 C 0.19276 0.3968 0.81895 0.0
C408 C 0.17009 0.39162 0.88114 0.0
C409 C 0.18125 0.39837 0.73952 0.0
O410 O 0.16177 0.40431 0.55279 0.0
O411 O 0.18062 0.38996 0.60694 0.0
C412 C 0.17847 0.39721 0.56618 0.0
O413 O 0.14853 0.36578 0.6609 0.0
O414 O 0.11879 0.41 0.51935 0.0
O415 O 0.11537 0.37882 0.52467 0.0
O416 O 0.14608 0.36492 0.5842 0.0
C417 C 0.14749 0.35593 0.62321 0.0
O418 O 0.1296 0.39771 0.69277 0.0
O419 O 0.11197 0.38649 0.63186 0.0
O420 O 0.1269 0.42298 0.61159 0.0
O421 O 0.18102 0.38307 0.7135 0.0
O422 O 0.17194 0.41299 0.7217 0.0
O423 O 0.15811 0.42575 0.63552 0.0
C424 C 0.11793 0.39228 0.45161 0.0
C425 C 0.13745 0.39281 0.43769 0.0
C426 C 0.10792 0.38962 0.37335 0.0
C427 C 0.14217 0.39196 0.39181 0.0
C428 C 0.10323 0.39053 0.41921 0.0
C429 C 0.12745 0.39051 0.35897 0.0
C430 C 0.11277 0.39418 0.49959 0.0
C431 C 0.11339 0.39096 0.67488 0.0
H432 H 0.1467 0.38981 0.77977 0.0
H433 H 0.20106 0.39693 0.88856 0.0
H434 H 0.14019 0.38663 0.8606 0.0
H435 H 0.20743 0.39988 0.80755 0.0
H436 H 0.14902 0.39417 0.46227 0.0
H437 H 0.09622 0.38817 0.34916 0.0
H438 H 0.15733 0.39289 0.38208 0.0
H439 H 0.08809 0.39003 0.42936 0.0
Eu440 Eu 0.39514 0.86996 0.45739 0.0
Eu441 Eu 0.39744 0.84197 0.36682 0.0
C442 C 0.35697 0.85463 0.40797 0.0
C443 C 0.39189 0.88408 0.58117 0.0
C444 C 0.39155 0.86449 0.59454 0.0
C445 C 0.3895 0.89381 0.6597 0.0
C446 C 0.39035 0.85959 0.64027 0.0
C447 C 0.39076 0.89868 0.61398 0.0
C448 C 0.38939 0.8742 0.67348 0.0
C449 C 0.39402 0.88936 0.53333 0.0
O450 O 0.39982 0.87286 0.34078 0.0
O451 O 0.38727 0.89015 0.40085 0.0
C452 C 0.39262 0.88893 0.35836 0.0
O453 O 0.4238 0.87544 0.4223 0.0
O454 O 0.3849 0.82123 0.31894 0.0
O455 O 0.41471 0.83081 0.31094 0.0
O456 O 0.42707 0.8443 0.39818 0.0
C457 C 0.4348 0.86126 0.40727 0.0
O458 O 0.40513 0.84062 0.4802 0.0
O459 O 0.39142 0.82159 0.42547 0.0
O460 O 0.36713 0.85371 0.37068 0.0
O461 O 0.41005 0.8836 0.51401 0.0
O462 O 0.37886 0.88656 0.50774 0.0
O463 O 0.36566 0.85588 0.44735 0.0
C464 C 0.39694 0.82486 0.24467 0.0
C465 C 0.39407 0.84382 0.22847 0.0
C466 C 0.39534 0.81271 0.16784 0.0
C467 C 0.39204 0.84723 0.1822 0.0
C468 C 0.39741 0.80933 0.21413 0.0
C469 C 0.3928 0.83173 0.15119 0.0
C470 C 0.40025 0.82128 0.29301 0.0
C471 C 0.39843 0.82382 0.46644 0.0
H472 H 0.39237 0.853 0.56963 0.0
H473 H 0.38904 0.90542 0.68432 0.0
H474 H 0.39006 0.84437 0.64958 0.0
H475 H 0.39109 0.91387 0.60427 0.0
H476 H 0.39372 0.85602 0.25157 0.0
H477 H 0.39569 0.8004 0.14511 0.0
H478 H 0.39036 0.86208 0.17069 0.0
H479 H 0.39958 0.79459 0.22604 0.0
Eu480 Eu 0.84633 0.90278 0.62306 0.0
Eu481 Eu 0.8748 0.89935 0.71286 0.0
C482 C 0.86676 0.93936 0.66386 0.0
C483 C 0.82959 0.90314 0.50068 0.0
C484 C 0.84859 0.90019 0.48471 0.0
C485 C 0.81768 0.90167 0.42359 0.0
C486 C 0.85215 0.89819 0.43846 0.0
C487 C 0.81416 0.90371 0.46987 0.0
C488 C 0.83675 0.89905 0.40718 0.0
C489 C 0.82587 0.90638 0.54907 0.0
O490 O 0.84582 0.90999 0.73701 0.0
O491 O 0.82585 0.89779 0.68196 0.0
C492 C 0.82861 0.90437 0.72316 0.0
O493 O 0.85691 0.87201 0.62677 0.0
O494 O 0.88925 0.91384 0.76902 0.0
O495 O 0.8911 0.88258 0.76287 0.0
O496 O 0.85959 0.87042 0.70335 0.0
C497 C 0.85772 0.8618 0.66402 0.0
O498 O 0.87717 0.90465 0.59686 0.0
O499 O 0.89434 0.89073 0.65537 0.0
O500 O 0.8808 0.92792 0.67774 0.0
O501 O 0.82533 0.89097 0.57475 0.0
O502 O 0.83567 0.92054 0.56751 0.0
O503 O 0.84951 0.93212 0.65544 0.0
C504 C 0.88933 0.89578 0.83637 0.0
C505 C 0.86976 0.89559 0.85004 0.0
C506 C 0.89921 0.8939 0.91491 0.0
C507 C 0.86495 0.89471 0.89588 0.0
C508 C 0.90399 0.89484 0.86906 0.0
C509 C 0.87962 0.89394 0.92897 0.0
C510 C 0.89452 0.89766 0.78834 0.0
C511 C 0.89302 0.89654 0.61322 0.0
H512 H 0.86073 0.89975 0.50798 0.0
H513 H 0.80543 0.90209 0.40069 0.0
H514 H 0.86704 0.89645 0.42719 0.0
H515 H 0.79939 0.90594 0.48155 0.0
H516 H 0.85822 0.89627 0.82524 0.0
H517 H 0.91088 0.89358 0.93939 0.0
H518 H 0.84973 0.89453 0.90537 0.0
H519 H 0.91917 0.89508 0.85917 0.0
Eu520 Eu 0.90214 0.13379 0.31624 0.0
Eu521 Eu 0.90274 0.16218 0.40665 0.0
C522 C 0.86308 0.14819 0.36382 0.0
C523 C 0.89986 0.11924 0.19244 0.0
C524 C 0.89964 0.13873 0.17834 0.0
C525 C 0.89753 0.109 0.11426 0.0
C526 C 0.89859 0.14333 0.13242 0.0
C527 C 0.89865 0.10443 0.16016 0.0
C528 C 0.89768 0.12851 0.09969 0.0
C529 C 0.90204 0.11424 0.24045 0.0
O530 O 0.90544 0.13152 0.43365 0.0
O531 O 0.89514 0.11323 0.37285 0.0
C532 C 0.89956 0.11497 0.41583 0.0
O533 O 0.93073 0.1292 0.35221 0.0
O534 O 0.88904 0.18238 0.45407 0.0
O535 O 0.91921 0.17426 0.46275 0.0
O536 O 0.9328 0.16033 0.37744 0.0
C537 C 0.94106 0.14361 0.36861 0.0
O538 O 0.91161 0.16336 0.29347 0.0
O539 O 0.89705 0.18225 0.34733 0.0
O540 O 0.87288 0.14941 0.40152 0.0
O541 O 0.91775 0.12075 0.25988 0.0
O542 O 0.88669 0.11644 0.26581 0.0
O543 O 0.87216 0.14704 0.32487 0.0
C544 C 0.90091 0.17924 0.5286 0.0
C545 C 0.89724 0.16027 0.54385 0.0
C546 C 0.90075 0.19055 0.60623 0.0
C547 C 0.89561 0.15641 0.59002 0.0
C548 C 0.90247 0.19437 0.56002 0.0
C549 C 0.89755 0.17147 0.62185 0.0
C550 C 0.90424 0.18309 0.48036 0.0
C551 C 0.90452 0.18008 0.30676 0.0
H552 H 0.90057 0.15037 0.20283 0.0
H553 H 0.89651 0.09721 0.09018 0.0
H554 H 0.89896 0.15849 0.12257 0.0
H555 H 0.89874 0.08931 0.17043 0.0
H556 H 0.89594 0.1484 0.52004 0.0
H557 H 0.9025 0.20246 0.62978 0.0
H558 H 0.89288 0.1416 0.6008 0.0
H559 H 0.9054 0.20909 0.54887 0.0
Eu560 Eu 0.16437 0.10665 0.61957 0.0
Eu561 Eu 0.13585 0.10875 0.70971 0.0
C562 C 0.1454 0.06918 0.66002 0.0
C563 C 0.18116 0.1069 0.49736 0.0
C564 C 0.1621 0.11003 0.48203 0.0
C565 C 0.19256 0.10738 0.41977 0.0
C566 C 0.15826 0.11161 0.43584 0.0
C567 C 0.19636 0.10574 0.466 0.0
C568 C 0.17342 0.11013 0.40406 0.0
C569 C 0.1851 0.10398 0.54571 0.0
O570 O 0.16537 0.09947 0.73323 0.0
O571 O 0.18443 0.11316 0.67836 0.0
C572 C 0.18213 0.10638 0.71953 0.0
O573 O 0.15211 0.13676 0.62287 0.0
O574 O 0.12182 0.0937 0.76566 0.0
O575 O 0.11919 0.12493 0.76019 0.0
O576 O 0.14957 0.13837 0.69949 0.0
C577 C 0.1509 0.14698 0.66002 0.0
O578 O 0.13364 0.10354 0.5934 0.0
O579 O 0.11588 0.11644 0.65235 0.0
O580 O 0.13102 0.07991 0.67512 0.0
O581 O 0.18474 0.11946 0.57115 0.0
O582 O 0.17609 0.08935 0.56435 0.0
O583 O 0.16231 0.07715 0.65148 0.0
C584 C 0.12117 0.11146 0.83338 0.0
C585 C 0.14067 0.11122 0.84742 0.0
C586 C 0.11098 0.11351 0.91167 0.0
C587 C 0.1453 0.11193 0.89336 0.0
C588 C 0.10639 0.11276 0.86575 0.0
C589 C 0.1305 0.11292 0.92616 0.0
C590 C 0.11612 0.10967 0.7853 0.0
C591 C 0.11745 0.11085 0.61007 0.0
H592 H 0.15015 0.111 0.50576 0.0
H593 H 0.20455 0.10597 0.39629 0.0
H594 H 0.1434 0.11399 0.42503 0.0
H595 H 0.21116 0.10324 0.47721 0.0
H596 H 0.1523 0.11019 0.82287 0.0
H597 H 0.09922 0.1146 0.93584 0.0
H598 H 0.16046 0.11122 0.90316 0.0
H599 H 0.09126 0.11301 0.85553 0.0
Eu600 Eu 0.10911 0.87249 0.32257 0.0
Eu601 Eu 0.10781 0.84453 0.41336 0.0
C602 C 0.14781 0.85783 0.37092 0.0
C603 C 0.11177 0.88686 0.19886 0.0
C604 C 0.11269 0.86732 0.18533 0.0
C605 C 0.11381 0.8968 0.12043 0.0
C606 C 0.11401 0.86255 0.13956 0.0
C607 C 0.11244 0.90155 0.16619 0.0
C608 C 0.1145 0.87723 0.10649 0.0
C609 C 0.10951 0.89199 0.24674 0.0
O610 O 0.10494 0.87535 0.43938 0.0
O611 O 0.11692 0.89279 0.37892 0.0
C612 C 0.11184 0.8915 0.42157 0.0
O613 O 0.0804 0.87729 0.358 0.0
O614 O 0.121 0.82425 0.46132 0.0
O615 O 0.09092 0.83287 0.4693 0.0
O616 O 0.07808 0.84611 0.38251 0.0
C617 C 0.06988 0.86286 0.37369 0.0
O618 O 0.09993 0.84284 0.29993 0.0
O619 O 0.11415 0.82426 0.35481 0.0
O620 O 0.13786 0.85687 0.40852 0.0
O621 O 0.0937 0.88564 0.26608 0.0
O622 O 0.12479 0.88968 0.27222 0.0
O623 O 0.1389 0.85894 0.33179 0.0
C624 C 0.10886 0.82755 0.53555 0.0
C625 C 0.11119 0.84661 0.55159 0.0
C626 C 0.11071 0.81556 0.61246 0.0
C627 C 0.11307 0.85015 0.59784 0.0
C628 C 0.10879 0.81206 0.5662 0.0
C629 C 0.11269 0.83467 0.62895 0.0
C630 C 0.10567 0.82382 0.48725 0.0
C631 C 0.10707 0.82624 0.31385 0.0
H632 H 0.11224 0.85577 0.21014 0.0
H633 H 0.11391 0.90847 0.0959 0.0
H634 H 0.11475 0.84735 0.13011 0.0
H635 H 0.11165 0.91671 0.17604 0.0
H636 H 0.11122 0.85879 0.5284 0.0
H637 H 0.11067 0.80328 0.6353 0.0
H638 H 0.11432 0.86505 0.60924 0.0
H639 H 0.10704 0.79725 0.55439 0.0
C640 C 0.40119 0.90849 0.28957 0.0
C641 C 0.39049 0.90638 0.32968 0.0
C642 C 0.39959 0.9255 0.26382 0.0
C643 C 0.38283 0.97683 0.27396 0.0
H644 H 0.38406 0.97622 0.14324 0.0
C645 C 0.3548 0.04016 0.16825 0.0
C646 C 0.36867 0.049 0.14 0.0
C647 C 0.35843 0.02202 0.1874 0.0
C648 C 0.38386 0.97653 0.17974 0.0
H649 H 0.36907 0.92 0.3731 0.0
H650 H 0.36572 0.94911 0.32773 0.0
H651 H 0.38837 0.94578 0.18515 0.0
H652 H 0.39676 0.04522 0.10778 0.0
H653 H 0.40285 0.01301 0.14077 0.0
H654 H 0.37751 0.0074 0.2684 0.0
C655 C 0.37596 0.9381 0.31683 0.0
C656 C 0.38639 0.95917 0.2038 0.0
C657 C 0.37777 0.92131 0.34279 0.0
C658 C 0.38582 0.0388 0.12948 0.0
C659 C 0.38931 0.02041 0.1482 0.0
C660 C 0.37999 0.99402 0.24998 0.0
C661 C 0.38707 0.94062 0.27741 0.0
C662 C 0.3856 0.95907 0.25127 0.0
C663 C 0.37583 0.01215 0.17821 0.0
C664 C 0.38024 0.99399 0.20274 0.0
H665 H 0.41112 0.89722 0.27862 0.0
H666 H 0.40847 0.92695 0.23386 0.0
H667 H 0.38274 0.9775 0.31042 0.0
H668 H 0.34143 0.04756 0.17712 0.0
H669 H 0.34778 0.01584 0.21025 0.0
C670 C 0.90918 0.60776 0.74534 0.0
C671 C 0.90723 0.61863 0.70546 0.0
C672 C 0.92617 0.60909 0.77123 0.0
C673 C 0.9777 0.62551 0.76213 0.0
H674 H 0.97665 0.62368 0.89281 0.0
C675 C 0.04059 0.65301 0.87007 0.0
C676 C 0.04953 0.63887 0.89733 0.0
C677 C 0.02248 0.64948 0.85065 0.0
C678 C 0.97708 0.62404 0.85632 0.0
H679 H 0.92116 0.64004 0.66254 0.0
H680 H 0.95026 0.64294 0.70819 0.0
H681 H 0.94631 0.61977 0.85032 0.0
H682 H 0.04594 0.61037 0.92759 0.0
H683 H 0.01375 0.60445 0.89417 0.0
H684 H 0.00831 0.63063 0.76834 0.0
C685 C 0.93912 0.63278 0.7188 0.0
C686 C 0.95978 0.62174 0.83192 0.0
C687 C 0.92234 0.63123 0.69268 0.0
C688 C 0.03944 0.62152 0.90667 0.0
C689 C 0.02106 0.61813 0.8877 0.0
C690 C 0.99484 0.62812 0.78646 0.0
C691 C 0.94144 0.62151 0.75804 0.0
C692 C 0.95984 0.62275 0.78447 0.0
C693 C 0.01274 0.63191 0.85861 0.0
C694 C 0.99464 0.62765 0.83368 0.0
H695 H 0.89778 0.5979 0.75603 0.0
H696 H 0.92747 0.60008 0.801 0.0
H697 H 0.97849 0.62577 0.72569 0.0
H698 H 0.04791 0.66654 0.86211 0.0
H699 H 0.01624 0.66035 0.82851 0.0
C700 C 0.63397 0.96508 0.12192 0.0
C701 C 0.63858 0.95044 0.15331 0.0
C702 C 0.62979 0.98405 0.13659 0.0
C703 C 0.61272 0.01008 0.2375 0.0
H704 H 0.63871 0.05564 0.1893 0.0
C705 C 0.62168 0.07905 0.34134 0.0
C706 C 0.61813 0.09718 0.3211 0.0
C707 C 0.62225 0.06215 0.31548 0.0
C708 C 0.63109 0.04309 0.20257 0.0
H709 H 0.64282 0.94446 0.22462 0.0
H710 H 0.6356 0.97712 0.24961 0.0
H711 H 0.64314 0.02396 0.15254 0.0
H712 H 0.6127 0.11174 0.25741 0.0
H713 H 0.61392 0.08198 0.212 0.0
H714 H 0.60116 0.02887 0.28823 0.0
C715 C 0.63494 0.974 0.21385 0.0
C716 C 0.63362 0.02499 0.18154 0.0
C717 C 0.63921 0.95525 0.19935 0.0
C718 C 0.61542 0.098 0.2741 0.0
C719 C 0.61617 0.08101 0.24805 0.0
C720 C 0.61023 0.02804 0.25841 0.0
C721 C 0.62995 0.98856 0.18283 0.0
C722 C 0.62495 0.00822 0.19979 0.0
C723 C 0.6194 0.06289 0.26865 0.0
C724 C 0.61989 0.04461 0.2421 0.0
H725 H 0.63341 0.96186 0.08622 0.0
H726 H 0.62603 0.99505 0.11197 0.0
H727 H 0.60553 0.99746 0.25173 0.0
H728 H 0.62388 0.07781 0.37737 0.0
H729 H 0.62511 0.04844 0.33222 0.0
C730 C 0.95724 0.35684 0.83606 0.0
C731 C 0.95126 0.36376 0.87843 0.0
C732 C 0.97654 0.35854 0.82231 0.0
C733 C 0.02034 0.38779 0.83792 0.0
H734 H 0.04361 0.34642 0.76723 0.0
C735 C 0.09613 0.39393 0.74954 0.0
C736 C 0.09622 0.38778 0.70427 0.0
C737 C 0.07995 0.39041 0.77714 0.0
C738 C 0.03732 0.35812 0.78689 0.0
H739 H 0.96101 0.37769 0.93995 0.0
H740 H 0.99506 0.38079 0.91553 0.0
H741 H 0.01284 0.34075 0.80587 0.0
H742 H 0.07926 0.37313 0.65269 0.0
H743 H 0.05127 0.36703 0.70061 0.0
H744 H 0.04472 0.40529 0.8178 0.0
C745 C 0.98462 0.37404 0.8931 0.0
C746 C 0.01971 0.35486 0.80906 0.0
C747 C 0.96519 0.37218 0.90715 0.0
C748 C 0.07977 0.37809 0.68731 0.0
C749 C 0.06374 0.37444 0.71491 0.0
C750 C 0.03806 0.39104 0.81576 0.0
C751 C 0.99046 0.36726 0.85041 0.0
C752 C 0.01068 0.36984 0.8336 0.0
C753 C 0.06366 0.38046 0.76016 0.0
C754 C 0.0464 0.3764 0.78884 0.0
H755 H 0.94695 0.35022 0.81305 0.0
H756 H 0.98043 0.35345 0.78894 0.0
H757 H 0.0137 0.39965 0.8564 0.0
H758 H 0.10856 0.40144 0.76371 0.0
H759 H 0.0803 0.39518 0.81192 0.0
C760 C 0.3844 0.46213 0.14229 0.0
C761 C 0.36552 0.45478 0.14867 0.0
C762 C 0.38719 0.48071 0.12416 0.0
C763 C 0.36149 0.51578 0.05166 0.0
H764 H 0.40481 0.54968 0.08061 0.0
C765 C 0.38436 0.57754 0.9332 0.0
C766 C 0.38972 0.59547 0.95224 0.0
C767 C 0.38155 0.56122 0.96037 0.0
C768 C 0.39253 0.54047 0.07244 0.0
H769 H 0.33478 0.46164 0.14421 0.0
H770 H 0.33963 0.49416 0.11383 0.0
H771 H 0.39919 0.52042 0.12555 0.0
H772 H 0.39659 0.61018 1.01499 0.0
H773 H 0.39139 0.58168 0.06253 0.0
H774 H 0.35463 0.53583 0.99904 0.0
C775 C 0.3523 0.4854 0.12146 0.0
C776 C 0.38942 0.5236 0.0979 0.0
C777 C 0.34952 0.4668 0.13916 0.0
C778 C 0.39246 0.59661 0.99916 0.0
C779 C 0.38957 0.58024 0.02643 0.0
C780 C 0.36456 0.53261 0.02638 0.0
C781 C 0.37115 0.49236 0.11238 0.0
C782 C 0.37394 0.51097 0.08755 0.0
C783 C 0.38392 0.56239 1.00735 0.0
C784 C 0.38025 0.54503 0.03603 0.0
H785 H 0.39703 0.45319 0.14918 0.0
H786 H 0.40191 0.48554 0.11734 0.0
H787 H 0.34959 0.50629 0.04222 0.0
H788 H 0.38229 0.57605 0.89718 0.0
H789 H 0.3776 0.54761 0.94443 0.0
C790 C 0.5962 0.60935 0.03922 0.0
C791 C 0.59414 0.60922 0.0864 0.0
C792 C 0.57992 0.61127 1.01135 0.0
C793 C 0.52687 0.60455 1.00914 0.0
H794 H 0.5276 0.64297 0.91338 0.0
C795 C 0.4612 0.61549 0.8914 0.0
C796 C 0.45486 0.63487 0.88799 0.0
C797 C 0.47943 0.6112 0.90977 0.0
C798 C 0.52723 0.63214 0.93988 0.0
H799 H 0.57325 0.61069 0.1412 0.0
H800 H 0.54487 0.61386 0.09254 0.0
H801 H 0.55691 0.63744 0.95839 0.0
H802 H 0.46311 0.66498 0.89883 0.0
H803 H 0.49494 0.65746 0.93051 0.0
H804 H 0.49712 0.59952 0.9914 0.0
C805 C 0.55911 0.61246 0.07717 0.0
C806 C 0.54402 0.62888 0.96541 0.0
C807 C 0.57539 0.61077 0.10503 0.0
C808 C 0.46753 0.64989 0.90112 0.0
C809 C 0.48582 0.6456 0.91907 0.0
C810 C 0.51017 0.60766 0.98335 0.0
C811 C 0.56121 0.61284 0.03007 0.0
C812 C 0.5439 0.61528 1.00078 0.0
C813 C 0.49176 0.6262 0.92463 0.0
C814 C 0.51008 0.62169 0.9489 0.0
H815 H 0.61041 0.60822 0.02372 0.0
H816 H 0.58194 0.6114 0.97514 0.0
H817 H 0.52643 0.59385 0.03593 0.0
H818 H 0.45178 0.60358 0.8816 0.0
H819 H 0.48373 0.59612 0.91322 0.0
C820 C 0.6529 0.53499 0.13886 0.0
C821 C 0.63701 0.54678 0.15064 0.0
C822 C 0.64991 0.51684 0.11893 0.0
C823 C 0.61248 0.47933 0.09279 0.0
H824 H 0.64635 0.46908 0.99094 0.0
C825 C 0.60883 0.4081 0.98807 0.0
C826 C 0.6114 0.40982 0.94119 0.0
C827 C 0.61175 0.42412 0.01634 0.0
C828 C 0.63667 0.47177 0.01907 0.0
H829 H 0.6055 0.5484 0.15277 0.0
H830 H 0.60029 0.51688 0.11718 0.0
H831 H 0.65183 0.49772 0.03703 0.0
H832 H 0.6185 0.42995 0.88725 0.0
H833 H 0.62322 0.45784 0.9363 0.0
H834 H 0.59688 0.45365 0.07353 0.0
C835 C 0.61507 0.52151 0.12389 0.0
C836 C 0.64 0.48806 0.046 0.0
C837 C 0.61806 0.53962 0.1442 0.0
C838 C 0.61655 0.42802 0.92319 0.0
C839 C 0.61939 0.44402 0.95139 0.0
C840 C 0.6091 0.46301 0.06568 0.0
C841 C 0.63098 0.51014 0.1099 0.0
C842 C 0.6279 0.49212 0.08306 0.0
C843 C 0.61725 0.44222 0.99834 0.0
C844 C 0.62106 0.45916 0.02824 0.0
H845 H 0.66769 0.54 0.14383 0.0
H846 H 0.66249 0.50825 0.10958 0.0
H847 H 0.60298 0.48194 0.12128 0.0
H848 H 0.60483 0.39434 1.00314 0.0
H849 H 0.61013 0.42219 0.05237 0.0
C850 C 0.40678 0.39332 0.03455 0.0
C851 C 0.40823 0.39068 0.08146 0.0
C852 C 0.42301 0.3906 1.00673 0.0
C853 C 0.46235 0.39372 0.95882 0.0
H854 H 0.49726 0.35135 0.98847 0.0
C855 C 0.53981 0.38584 0.88347 0.0
C856 C 0.5472 0.36699 0.87697 0.0
C857 C 0.52151 0.38858 0.90319 0.0
C858 C 0.48755 0.36309 0.97921 0.0
H859 H 0.42811 0.38364 0.13591 0.0
H860 H 0.45633 0.37926 0.08769 0.0
H861 H 0.46812 0.35635 0.03321 0.0
H862 H 0.54067 0.33624 0.88322 0.0
H863 H 0.50864 0.341 0.91645 0.0
H864 H 0.48176 0.40023 0.90428 0.0
C865 C 0.44257 0.38299 0.0722 0.0
C866 C 0.47096 0.36615 1.00538 0.0
C867 C 0.42637 0.38563 0.09993 0.0
C868 C 0.53549 0.35096 0.88824 0.0
C869 C 0.51716 0.3537 0.90759 0.0
C870 C 0.47898 0.39062 0.93248 0.0
C871 C 0.44106 0.38522 0.02522 0.0
C872 C 0.45826 0.38163 0.99588 0.0
C873 C 0.51018 0.37253 0.91655 0.0
C874 C 0.49186 0.37534 0.94258 0.0
H875 H 0.39304 0.3972 0.01915 0.0
H876 H 0.4213 0.39229 0.97066 0.0
H877 H 0.45293 0.40585 0.95072 0.0
H878 H 0.54851 0.3985 0.87528 0.0
H879 H 0.51668 0.40329 0.90988 0.0
C880 C 0.89494 0.42991 0.8433 0.0
C881 C 0.88939 0.4115 0.82724 0.0
C882 C 0.89341 0.44633 0.81576 0.0
C883 C 0.86731 0.46463 0.71575 0.0
H884 H 0.90513 0.50636 0.72345 0.0
C885 C 0.88451 0.54609 0.63624 0.0
C886 C 0.86576 0.55412 0.63966 0.0
C887 C 0.8883 0.52738 0.6526 0.0
C888 C 0.89457 0.49475 0.7203 0.0
H889 H 0.87833 0.39586 0.76906 0.0
H890 H 0.87591 0.42446 0.72092 0.0
H891 H 0.91075 0.47618 0.76439 0.0
H892 H 0.83611 0.54845 0.66128 0.0
H893 H 0.84274 0.51609 0.69011 0.0
H894 H 0.85118 0.48316 0.6715 0.0
C895 C 0.88112 0.42626 0.7551 0.0
C896 C 0.89766 0.47753 0.74431 0.0
C897 C 0.88259 0.40984 0.7827 0.0
C898 C 0.85073 0.54274 0.65808 0.0
C899 C 0.85451 0.52408 0.67441 0.0
C900 C 0.86424 0.48182 0.69167 0.0
C901 C 0.88638 0.44473 0.7714 0.0
C902 C 0.8839 0.46239 0.74298 0.0
C903 C 0.87341 0.51629 0.67266 0.0
C904 C 0.87765 0.49724 0.69429 0.0
H905 H 0.9002 0.43175 0.87744 0.0
H906 H 0.8973 0.46036 0.82969 0.0
H907 H 0.85633 0.45335 0.71417 0.0
H908 H 0.89641 0.55445 0.62212 0.0
H909 H 0.90295 0.5217 0.65014 0.0
C910 C 0.5429 0.15572 0.37694 0.0
C911 C 0.55498 0.13991 0.38758 0.0
C912 C 0.52412 0.15264 0.36054 0.0
C913 C 0.48552 0.11533 0.34322 0.0
H914 H 0.47281 0.14782 0.24057 0.0
C915 C 0.41168 0.1112 0.24706 0.0
C916 C 0.41271 0.11281 0.19984 0.0
C917 C 0.42826 0.11426 0.27361 0.0
C918 C 0.47615 0.13855 0.26903 0.0
H919 H 0.5565 0.10845 0.39149 0.0
H920 H 0.52381 0.10304 0.36196 0.0
H921 H 0.50268 0.15366 0.2819 0.0
H922 H 0.4322 0.1182 0.14353 0.0
H923 H 0.46092 0.12321 0.18952 0.0
H924 H 0.45915 0.09979 0.32897 0.0
C925 C 0.52875 0.11785 0.36686 0.0
C926 C 0.49318 0.14208 0.29321 0.0
C927 C 0.54753 0.12095 0.38365 0.0
C928 C 0.43076 0.11704 0.17978 0.0
C929 C 0.44726 0.12004 0.20621 0.0
C930 C 0.46842 0.11177 0.31889 0.0
C931 C 0.51702 0.13367 0.35396 0.0
C932 C 0.49818 0.13044 0.33039 0.0
C933 C 0.44618 0.11897 0.25344 0.0
C934 C 0.4637 0.1232 0.28113 0.0
H935 H 0.54812 0.17053 0.38011 0.0
H936 H 0.51531 0.16516 0.35196 0.0
H937 H 0.48886 0.1062 0.37192 0.0
H938 H 0.39802 0.10795 0.26364 0.0
H939 H 0.42692 0.11341 0.30993 0.0
C940 C 0.12517 0.5796 0.84911 0.0
C941 C 0.11316 0.59499 0.83532 0.0
C942 C 0.12697 0.56292 0.82279 0.0
C943 C 0.11844 0.54314 0.70787 0.0
H944 H 0.12536 0.49417 0.77078 0.0
C945 C 0.12012 0.46354 0.63196 0.0
C946 C 0.13761 0.45389 0.6423 0.0
C947 C 0.11605 0.48178 0.65084 0.0
C948 C 0.12338 0.50776 0.75286 0.0
H949 H 0.0937 0.60503 0.78274 0.0
H950 H 0.09632 0.5755 0.73726 0.0
H951 H 0.11945 0.52371 0.81377 0.0
H952 H 0.1648 0.45614 0.67929 0.0
H953 H 0.1574 0.48758 0.71282 0.0
H954 H 0.12202 0.52666 0.64677 0.0
C955 C 0.10467 0.57651 0.76809 0.0
C956 C 0.12017 0.52473 0.77739 0.0
C957 C 0.10309 0.5934 0.79426 0.0
C958 C 0.15119 0.46313 0.67053 0.0
C959 C 0.14698 0.48111 0.68987 0.0
C960 C 0.12134 0.52599 0.68322 0.0
C961 C 0.11654 0.56098 0.78225 0.0
C962 C 0.11816 0.54275 0.75537 0.0
C963 C 0.12927 0.4904 0.68083 0.0
C964 C 0.12425 0.50829 0.7057 0.0
H965 H 0.13339 0.58049 0.88019 0.0
H966 H 0.13671 0.55158 0.83421 0.0
H967 H 0.11708 0.55673 0.68974 0.0
H968 H 0.10939 0.4568 0.61027 0.0
H969 H 0.10227 0.48875 0.64359 0.0
C970 C 0.59855 0.88111 0.2452 0.0
C971 C 0.59654 0.88745 0.20036 0.0
C972 C 0.58231 0.87968 0.27341 0.0
C973 C 0.531 0.89588 0.28512 0.0
H974 H 0.52627 0.85041 0.36162 0.0
C975 C 0.4633 0.88369 0.3968 0.0
C976 C 0.45535 0.86487 0.3948 0.0
C977 C 0.48191 0.88739 0.37963 0.0
C978 C 0.52736 0.86319 0.34044 0.0
H979 H 0.57582 0.89735 0.15018 0.0
H980 H 0.54752 0.89448 0.19903 0.0
H981 H 0.55571 0.85518 0.31722 0.0
H982 H 0.46108 0.83502 0.37503 0.0
H983 H 0.49326 0.84149 0.34482 0.0
H984 H 0.50229 0.90343 0.30673 0.0
C985 C 0.56169 0.89095 0.2127 0.0
C986 C 0.54434 0.86604 0.31533 0.0
C987 C 0.57793 0.89246 0.18454 0.0
C988 C 0.46673 0.8497 0.3771 0.0
C989 C 0.48529 0.85339 0.35999 0.0
C990 C 0.514 0.89301 0.31014 0.0
C991 C 0.56367 0.8845 0.25745 0.0
C992 C 0.54623 0.88225 0.28677 0.0
C993 C 0.49297 0.87234 0.36021 0.0
C994 C 0.51184 0.87645 0.33751 0.0
H995 H 0.61269 0.8773 0.25867 0.0
H996 H 0.5844 0.87491 0.30786 0.0
H997 H 0.5321 0.90869 0.26402 0.0
H998 H 0.45493 0.89569 0.41031 0.0
H999 H 0.48752 0.9021 0.3809 0.0
C1000 C 0.88996 0.96601 0.64261 0.0
C1001 C 0.87082 0.95971 0.65069 0.0
C1002 C 0.89346 0.98422 0.62305 0.0
C1003 C 0.86865 0.0194 0.54936 0.0
H1004 H 0.9133 0.05216 0.57428 0.0
C1005 C 0.8919 0.07968 0.42707 0.0
C1006 C 0.89754 0.09767 0.44534 0.0
C1007 C 0.8892 0.06352 0.45485 0.0
C1008 C 0.90067 0.04324 0.56719 0.0
H1009 H 0.84043 0.9681 0.64783 0.0
H1010 H 0.84652 0.99993 0.61487 0.0
H1011 H 0.90714 0.02354 0.62118 0.0
H1012 H 0.90517 0.11262 0.50733 0.0
H1013 H 0.90019 0.08441 0.5559 0.0
H1014 H 0.862 0.03907 0.49584 0.0
C1015 C 0.85883 0.99064 0.62232 0.0
C1016 C 0.89724 0.02675 0.59379 0.0
C1017 C 0.85534 0.97244 0.6415 0.0
C1018 C 0.90078 0.09901 0.49207 0.0
C1019 C 0.89804 0.0828 0.51994 0.0
C1020 C 0.87206 0.03581 0.52289 0.0
C1021 C 0.87787 0.9965 0.61146 0.0
C1022 C 0.88122 0.01459 0.58502 0.0
C1023 C 0.892 0.06492 0.50167 0.0
C1024 C 0.8882 0.04784 0.53115 0.0
H1025 H 0.9022 0.9565 0.64919 0.0
H1026 H 0.90829 0.98822 0.61493 0.0
H1027 H 0.85634 0.01022 0.54113 0.0
H1028 H 0.88942 0.07803 0.39123 0.0
H1029 H 0.88492 0.04987 0.43956 0.0
C1030 C 0.08623 0.12723 0.58974 0.0
C1031 C 0.10057 0.11331 0.57981 0.0
C1032 C 0.07064 0.13017 0.5604 0.0
C1033 C 0.03965 0.10678 0.4794 0.0
H1034 H 0.02872 0.15897 0.43687 0.0
C1035 C 0.97143 0.12326 0.3718 0.0
C1036 C 0.96151 0.14052 0.38251 0.0
C1037 C 0.9901 0.11978 0.38897 0.0
C1038 C 0.0314 0.14433 0.44875 0.0
H1039 H 0.10966 0.09135 0.53172 0.0
H1040 H 0.08188 0.0961 0.48107 0.0
H1041 H 0.0577 0.15293 0.48205 0.0
H1042 H 0.96358 0.16781 0.41899 0.0
H1043 H 0.99549 0.16154 0.44985 0.0
H1044 H 0.01286 0.09827 0.44858 0.0
C1045 C 0.08298 0.10486 0.51132 0.0
C1046 C 0.04808 0.14089 0.47438 0.0
C1047 C 0.09884 0.10219 0.54022 0.0
C1048 C 0.97083 0.15441 0.40971 0.0
C1049 C 0.98929 0.15085 0.42725 0.0
C1050 C 0.02274 0.11027 0.45445 0.0
C1051 C 0.06886 0.119 0.52102 0.0
C1052 C 0.05217 0.12217 0.49051 0.0
C1053 C 0.99914 0.1334 0.41759 0.0
C1054 C 0.01819 0.12918 0.43954 0.0
H1055 H 0.08723 0.13611 0.6198 0.0
H1056 H 0.05983 0.14107 0.56869 0.0
H1057 H 0.0425 0.09223 0.49171 0.0
H1058 H 0.96467 0.1123 0.35078 0.0
H1059 H 0.99733 0.10632 0.38017 0.0
C1060 C 0.10424 0.91065 0.49156 0.0
C1061 C 0.11423 0.90887 0.4504 0.0
C1062 C 0.10638 0.92741 0.51795 0.0
C1063 C 0.12361 0.97869 0.50946 0.0
H1064 H 0.12508 0.9763 0.64006 0.0
C1065 C 0.15542 0.03959 0.61731 0.0
C1066 C 0.14186 0.04891 0.64546 0.0
C1067 C 0.15109 0.02166 0.59786 0.0
C1068 C 0.12454 0.9771 0.60362 0.0
H1069 H 0.13487 0.92287 0.40557 0.0
H1070 H 0.13915 0.95153 0.45195 0.0
H1071 H 0.11935 0.94652 0.59653 0.0
H1072 H 0.11358 0.04616 0.67739 0.0
H1073 H 0.10624 0.0143 0.64391 0.0
H1074 H 0.12969 0.00907 0.51665 0.0
C1075 C 0.12906 0.94047 0.46328 0.0
C1076 C 0.12118 0.96012 0.57865 0.0
C1077 C 0.1267 0.92392 0.43671 0.0
C1078 C 0.1243 0.03935 0.65577 0.0
C1079 C 0.1201 0.02117 0.63678 0.0
C1080 C 0.1273 0.99548 0.53432 0.0
C1081 C 0.11873 0.9426 0.50396 0.0
C1082 C 0.12098 0.96068 0.53116 0.0
C1083 C 0.13327 0.0125 0.60673 0.0
C1084 C 0.12802 0.99478 0.58148 0.0
H1085 H 0.09452 0.89927 0.50299 0.0
H1086 H 0.09808 0.92858 0.54886 0.0
H1087 H 0.12298 0.97986 0.4731 0.0
H1088 H 0.16908 0.04651 0.60858 0.0
H1089 H 0.16147 0.01514 0.57487 0.0
C1090 C 0.03963 0.88337 0.37688 0.0
C1091 C 0.04939 0.86599 0.38723 0.0
C1092 C 0.02092 0.88688 0.39383 0.0
C1093 C 0.97921 0.86235 0.45231 0.0
H1094 H 0.96846 0.91432 0.49658 0.0
C1095 C 0.92374 0.8793 0.59244 0.0
C1096 C 0.90985 0.89371 0.58294 0.0
C1097 C 0.93938 0.8762 0.56327 0.0
C1098 C 0.97121 0.8998 0.48391 0.0
H1099 H 0.04698 0.83849 0.42276 0.0
H1100 H 0.01498 0.8448 0.45326 0.0
H1101 H 0.9982 0.90823 0.4538 0.0
H1102 H 0.90158 0.91635 0.53576 0.0
H1103 H 0.92943 0.91128 0.48542 0.0
H1104 H 0.95269 0.85382 0.48487 0.0
C1105 C 0.02135 0.85558 0.43112 0.0
C1106 C 0.98818 0.89629 0.45914 0.0
C1107 C 0.03986 0.85199 0.41379 0.0
C1108 C 0.91205 0.90511 0.5439 0.0
C1109 C 0.92796 0.90227 0.51519 0.0
C1110 C 0.96246 0.8658 0.47775 0.0
C1111 C 0.01168 0.87316 0.42188 0.0
C1112 C 0.9926 0.87742 0.44373 0.0
C1113 C 0.94166 0.88769 0.5245 0.0
C1114 C 0.95849 0.88448 0.49434 0.0
H1115 H 0.04656 0.89441 0.35634 0.0
H1116 H 0.01382 0.90045 0.38534 0.0
H1117 H 0.9818 0.84775 0.44004 0.0
H1118 H 0.92237 0.8702 0.62209 0.0
H1119 H 0.94987 0.86495 0.57128 0.0
C1120 C 0.36219 0.17802 0.16562 0.0
C1121 C 0.36196 0.16878 0.12332 0.0
C1122 C 0.36175 0.19824 0.16887 0.0
C1123 C 0.37124 0.24325 0.10495 0.0
H1124 H 0.33951 0.26675 0.19842 0.0
C1125 C 0.35748 0.32585 0.11405 0.0
C1126 C 0.3581 0.33475 0.15673 0.0
C1127 C 0.358 0.30565 0.10993 0.0
C1128 C 0.34861 0.26041 0.1725 0.0
H1129 H 0.36124 0.17365 0.05114 0.0
H1130 H 0.36028 0.20915 0.05683 0.0
H1131 H 0.34003 0.23149 0.19013 0.0
H1132 H 0.35975 0.3293 0.22862 0.0
H1133 H 0.36072 0.29389 0.22137 0.0
H1134 H 0.37976 0.27221 0.08726 0.0
C1135 C 0.36099 0.20064 0.0875 0.0
C1136 C 0.3489 0.2402 0.16768 0.0
C1137 C 0.36146 0.18031 0.08422 0.0
C1138 C 0.35921 0.32292 0.19527 0.0
C1139 C 0.35967 0.30264 0.19112 0.0
C1140 C 0.37092 0.26347 0.10972 0.0
C1141 C 0.36101 0.20982 0.12993 0.0
C1142 C 0.36029 0.23136 0.13398 0.0
C1143 C 0.35913 0.29379 0.14835 0.0
C1144 C 0.35963 0.27228 0.14361 0.0
H1145 H 0.36272 0.16964 0.19652 0.0
H1146 H 0.36217 0.2048 0.20203 0.0
H1147 H 0.38038 0.23691 0.07909 0.0
H1148 H 0.35659 0.33448 0.08357 0.0
H1149 H 0.35727 0.29931 0.07656 0.0
C1150 C 0.32654 0.64833 0.92049 0.0
C1151 C 0.33546 0.64759 0.87783 0.0
C1152 C 0.30631 0.64819 0.92455 0.0
C1153 C 0.26155 0.63473 0.86351 0.0
H1154 H 0.23653 0.6675 0.95283 0.0
C1155 C 0.17857 0.64559 0.8693 0.0
C1156 C 0.16938 0.64565 0.91169 0.0
C1157 C 0.1988 0.64562 0.86592 0.0
C1158 C 0.24331 0.65809 0.92812 0.0
H1159 H 0.33004 0.64624 0.80591 0.0
H1160 H 0.2946 0.64624 0.81299 0.0
H1161 H 0.27182 0.66846 0.94435 0.0
H1162 H 0.17435 0.64577 0.98386 0.0
H1163 H 0.20988 0.64577 0.97789 0.0
H1164 H 0.23302 0.62445 0.84713 0.0
C1165 C 0.30334 0.64667 0.84334 0.0
C1166 C 0.26354 0.65865 0.92319 0.0
C1167 C 0.32364 0.64678 0.83925 0.0
C1168 C 0.18096 0.64574 0.95071 0.0
C1169 C 0.2013 0.64584 0.94729 0.0
C1170 C 0.24133 0.6342 0.86838 0.0
C1171 C 0.29445 0.64735 0.88609 0.0
C1172 C 0.2729 0.64698 0.8908 0.0
C1173 C 0.21042 0.64574 0.9048 0.0
C1174 C 0.23197 0.6459 0.90067 0.0
H1175 H 0.33516 0.64887 0.951 0.0
H1176 H 0.29998 0.64842 0.95799 0.0
H1177 H 0.2683 0.6253 0.83881 0.0
H1178 H 0.17014 0.64555 0.83847 0.0
H1179 H 0.20535 0.64583 0.8327 0.0
C1180 C 0.66082 0.82038 0.1257 0.0
C1181 C 0.64499 0.83117 0.10916 0.0
C1182 C 0.65929 0.80034 0.13201 0.0
C1183 C 0.648 0.76113 0.16991 0.0
H1184 H 0.62422 0.72782 0.08013 0.0
C1185 C 0.63796 0.67826 0.1974 0.0
C1186 C 0.64246 0.66641 0.16025 0.0
C1187 C 0.63676 0.69848 0.19238 0.0
C1188 C 0.63095 0.73693 0.1055 0.0
H1189 H 0.61525 0.82921 0.08508 0.0
H1190 H 0.6126 0.79406 0.09605 0.0
H1191 H 0.62541 0.76287 0.06768 0.0
H1192 H 0.64941 0.66655 0.08879 0.0
H1193 H 0.64763 0.70157 0.08039 0.0
H1194 H 0.65409 0.73518 0.2071 0.0
C1195 C 0.62622 0.8012 0.10405 0.0
C1196 C 0.63144 0.75703 0.09855 0.0
C1197 C 0.62773 0.82133 0.0978 0.0
C1198 C 0.64579 0.67519 0.11814 0.0
C1199 C 0.64462 0.69532 0.11317 0.0
C1200 C 0.64749 0.74105 0.17689 0.0
C1201 C 0.6419 0.79055 0.12191 0.0
C1202 C 0.64025 0.76932 0.13036 0.0
C1203 C 0.64004 0.70722 0.15013 0.0
C1204 C 0.63922 0.72868 0.14445 0.0
H1205 H 0.67438 0.82743 0.13462 0.0
H1206 H 0.67177 0.79251 0.14492 0.0
H1207 H 0.65461 0.77026 0.19542 0.0
H1208 H 0.63523 0.67194 0.23024 0.0
H1209 H 0.63305 0.70725 0.22145 0.0
C1210 C 0.82251 0.38295 0.90871 0.0
C1211 C 0.8314 0.36516 0.91965 0.0
C1212 C 0.80232 0.38399 0.90297 0.0
C1213 C 0.75667 0.36461 0.93718 0.0
H1214 H 0.73708 0.37129 0.81559 0.0
C1215 C 0.67653 0.34966 0.89705 0.0
C1216 C 0.66714 0.36081 0.864 0.0
C1217 C 0.6966 0.35101 0.90307 0.0
C1218 C 0.74219 0.36979 0.84991 0.0
H1219 H 0.82623 0.33476 0.93489 0.0
H1220 H 0.79083 0.33683 0.92678 0.0
H1221 H 0.77203 0.37344 0.82996 0.0
H1222 H 0.6713 0.38205 0.81102 0.0
H1223 H 0.70636 0.38517 0.82272 0.0
H1224 H 0.72712 0.36155 0.95793 0.0
C1225 C 0.79955 0.3498 0.92184 0.0
C1226 C 0.76222 0.37094 0.85798 0.0
C1227 C 0.81973 0.34863 0.92644 0.0
C1228 C 0.67825 0.37317 0.83652 0.0
C1229 C 0.69836 0.37489 0.84322 0.0
C1230 C 0.73665 0.36388 0.92938 0.0
C1231 C 0.79075 0.36738 0.90931 0.0
C1232 C 0.76958 0.36805 0.90153 0.0
C1233 C 0.70779 0.36396 0.87698 0.0
C1234 C 0.72911 0.36604 0.88547 0.0
H1235 H 0.83122 0.39584 0.90287 0.0
H1236 H 0.79574 0.39768 0.89332 0.0
H1237 H 0.76211 0.36243 0.97107 0.0
H1238 H 0.66833 0.33981 0.91836 0.0
H1239 H 0.7033 0.34185 0.92834 0.0
C1240 C 0.85517 0.6857 0.59055 0.0
C1241 C 0.85498 0.6741 0.62955 0.0
C1242 C 0.85505 0.70602 0.59394 0.0
C1243 C 0.8436 0.74612 0.67353 0.0
H1244 H 0.87623 0.7767 0.59385 0.0
C1245 C 0.85718 0.8286 0.69977 0.0
C1246 C 0.85688 0.8403 0.66092 0.0
C1247 C 0.85668 0.80829 0.69612 0.0
C1248 C 0.86689 0.76838 0.61609 0.0
H1249 H 0.8546 0.67482 0.70274 0.0
H1250 H 0.85468 0.71003 0.70853 0.0
H1251 H 0.87561 0.7414 0.58633 0.0
H1252 H 0.85571 0.83976 0.58775 0.0
H1253 H 0.85475 0.80455 0.5816 0.0
H1254 H 0.835 0.77314 0.70347 0.0
C1255 C 0.85457 0.70351 0.6753 0.0
C1256 C 0.8665 0.74814 0.61169 0.0
C1257 C 0.85465 0.68327 0.67192 0.0
C1258 C 0.856 0.83124 0.61845 0.0
C1259 C 0.85558 0.81101 0.61483 0.0
C1260 C 0.84404 0.76636 0.678 0.0
C1261 C 0.85476 0.71516 0.6364 0.0
C1262 C 0.85486 0.73675 0.64038 0.0
C1263 C 0.85597 0.79928 0.65357 0.0
C1264 C 0.85568 0.77773 0.64931 0.0
H1265 H 0.85538 0.67911 0.5574 0.0
H1266 H 0.85498 0.71456 0.56328 0.0
H1267 H 0.83423 0.73783 0.69575 0.0
H1268 H 0.85788 0.8351 0.73298 0.0
H1269 H 0.85716 0.79964 0.72661 0.0
C1270 C 0.83012 0.14801 0.32678 0.0
C1271 C 0.84154 0.14821 0.36605 0.0
C1272 C 0.80976 0.14817 0.32972 0.0
C1273 C 0.76956 0.16029 0.40841 0.0
H1274 H 0.73866 0.12782 0.32919 0.0
C1275 C 0.68688 0.14836 0.4346 0.0
C1276 C 0.67522 0.14878 0.39572 0.0
C1277 C 0.70721 0.14832 0.43098 0.0
C1278 C 0.74708 0.13711 0.35129 0.0
H1279 H 0.84046 0.14851 0.43924 0.0
H1280 H 0.80524 0.14853 0.44422 0.0
H1281 H 0.77402 0.12794 0.3219 0.0
H1282 H 0.67583 0.14949 0.32252 0.0
H1283 H 0.71107 0.14953 0.3164 0.0
H1284 H 0.74262 0.16938 0.43794 0.0
C1285 C 0.81191 0.14861 0.41113 0.0
C1286 C 0.76734 0.13721 0.34703 0.0
C1287 C 0.83217 0.14848 0.40821 0.0
C1288 C 0.68432 0.14913 0.35324 0.0
C1289 C 0.70457 0.14902 0.34965 0.0
C1290 C 0.74931 0.16015 0.41273 0.0
C1291 C 0.80044 0.14854 0.37199 0.0
C1292 C 0.77884 0.14877 0.37561 0.0
C1293 C 0.71627 0.1486 0.38842 0.0
C1294 C 0.73783 0.14856 0.38425 0.0
H1295 H 0.83687 0.14783 0.29379 0.0
H1296 H 0.80134 0.14828 0.29889 0.0
H1297 H 0.77794 0.16962 0.4305 0.0
H1298 H 0.68035 0.14805 0.46782 0.0
H1299 H 0.71582 0.14781 0.4615 0.0
C1300 C 0.14845 0.32512 0.6677 0.0
C1301 C 0.148 0.33443 0.6255 0.0
C1302 C 0.14899 0.3049 0.67068 0.0
C1303 C 0.13827 0.26017 0.60692 0.0
H1304 H 0.17095 0.23608 0.69772 0.0
C1305 C 0.1512 0.17743 0.61403 0.0
C1306 C 0.15083 0.16846 0.65664 0.0
C1307 C 0.15094 0.19764 0.61017 0.0
C1308 C 0.16159 0.2426 0.67254 0.0
H1309 H 0.14773 0.32971 0.55324 0.0
H1310 H 0.14889 0.29422 0.55846 0.0
H1311 H 0.17071 0.27137 0.68991 0.0
H1312 H 0.14995 0.17376 0.72867 0.0
H1313 H 0.14945 0.2092 0.72187 0.0
H1314 H 0.12921 0.23135 0.5895 0.0
C1315 C 0.14861 0.30267 0.58927 0.0
C1316 C 0.16146 0.26282 0.668 0.0
C1317 C 0.14804 0.32299 0.58625 0.0
C1318 C 0.15028 0.18021 0.69537 0.0
C1319 C 0.15008 0.2005 0.69147 0.0
C1320 C 0.13844 0.23994 0.61139 0.0
C1321 C 0.14915 0.29341 0.63157 0.0
C1322 C 0.14974 0.27186 0.63527 0.0
C1323 C 0.15035 0.20942 0.64879 0.0
C1324 C 0.15007 0.23093 0.64432 0.0
H1325 H 0.14831 0.33344 0.6987 0.0
H1326 H 0.14903 0.29826 0.70379 0.0
H1327 H 0.12886 0.26667 0.58185 0.0
H1328 H 0.15166 0.16886 0.58343 0.0
H1329 H 0.15143 0.20406 0.57684 0.0
C1330 C 0.3264 0.85389 0.36238 0.0
C1331 C 0.33545 0.85454 0.40486 0.0
C1332 C 0.30617 0.85413 0.35871 0.0
C1333 C 0.26167 0.86775 0.42066 0.0
H1334 H 0.2362 0.83524 0.33154 0.0
C1335 C 0.17857 0.85756 0.41578 0.0
C1336 C 0.16934 0.85762 0.37347 0.0
C1337 C 0.19881 0.85735 0.41897 0.0
C1338 C 0.24312 0.84457 0.3562 0.0
H1339 H 0.33026 0.85581 0.4769 0.0
H1340 H 0.2948 0.85599 0.47051 0.0
H1341 H 0.27151 0.83403 0.33948 0.0
H1342 H 0.17423 0.85752 0.30126 0.0
H1343 H 0.20975 0.8572 0.30688 0.0
H1344 H 0.23326 0.8782 0.43751 0.0
C1345 C 0.30344 0.85555 0.43999 0.0
C1346 C 0.26335 0.84387 0.36082 0.0
C1347 C 0.32376 0.85534 0.44368 0.0
C1348 C 0.18087 0.85746 0.33434 0.0
C1349 C 0.20121 0.85718 0.33757 0.0
C1350 C 0.24144 0.86841 0.4161 0.0
C1351 C 0.29442 0.85497 0.39742 0.0
C1352 C 0.27287 0.85545 0.39311 0.0
C1353 C 0.21038 0.85716 0.37997 0.0
C1354 C 0.23193 0.85681 0.38387 0.0
H1355 H 0.33493 0.85336 0.33169 0.0
H1356 H 0.29974 0.85398 0.3254 0.0
H1357 H 0.26855 0.87711 0.4453 0.0
H1358 H 0.17017 0.85765 0.44669 0.0
H1359 H 0.20539 0.85706 0.45212 0.0
C1360 C 0.21495 0.11836 0.74539 0.0
C1361 C 0.19823 0.10703 0.75271 0.0
C1362 C 0.22914 0.12008 0.77913 0.0
C1363 C 0.26163 0.11215 0.84705 0.0
H1364 H 0.24474 0.11323 0.97187 0.0
C1365 C 0.31455 0.09652 0.99148 0.0
C1366 C 0.31314 0.10733 0.0316 0.0
C1367 C 0.30039 0.09808 0.95812 0.0
C1368 C 0.24973 0.11319 0.93724 0.0
H1369 H 0.18365 0.08807 0.80066 0.0
H1370 H 0.20837 0.09071 0.85841 0.0
H1371 H 0.22064 0.11367 0.91174 0.0
H1372 H 0.29547 0.12806 0.06837 0.0
H1373 H 0.27058 0.13089 1.00961 0.0
H1374 H 0.29073 0.11196 0.87252 0.0
C1375 C 0.21038 0.09874 0.82734 0.0
C1376 C 0.2359 0.11319 0.9027 0.0
C1377 C 0.19625 0.09709 0.7939 0.0
C1378 C 0.29691 0.11945 0.03798 0.0
C1379 C 0.28268 0.12107 1.00429 0.0
C1380 C 0.27546 0.11224 0.88158 0.0
C1381 C 0.22688 0.11045 0.82074 0.0
C1382 C 0.24167 0.11225 0.85719 0.0
C1383 C 0.28442 0.11058 0.96368 0.0
C1384 C 0.26968 0.11233 0.92713 0.0
H1385 H 0.21684 0.1263 0.71416 0.0
H1386 H 0.24165 0.12929 0.77299 0.0
H1387 H 0.26662 0.11136 0.81246 0.0
H1388 H 0.32675 0.0869 0.98546 0.0
H1389 H 0.30197 0.08939 0.9279 0.0
C1390 C 0.09768 0.69255 0.04511 0.0
C1391 C 0.10809 0.6941 1.00442 0.0
C1392 C 0.09922 0.70684 0.07818 0.0
C1393 C 0.11338 0.75789 0.09742 0.0
H1394 H 0.11286 0.74148 0.22256 0.0
C1395 C 0.09742 0.81162 0.24027 0.0
C1396 C 0.1077 0.81 0.28108 0.0
C1397 C 0.09904 0.79738 0.20709 0.0
C1398 C 0.11328 0.74633 0.18786 0.0
H1399 H 0.12808 0.71214 0.96637 0.0
H1400 H 0.1309 0.73724 0.02464 0.0
H1401 H 0.11351 0.71716 0.16297 0.0
H1402 H 0.12757 0.79192 0.31921 0.0
H1403 H 0.13055 0.76692 0.26081 0.0
H1404 H 0.11348 0.78708 0.12232 0.0
C1405 C 0.1214 0.72494 0.03062 0.0
C1406 C 0.11339 0.73238 0.1536 0.0
C1407 C 0.11979 0.71058 0.99722 0.0
C1408 C 0.11936 0.79352 0.28829 0.0
C1409 C 0.12107 0.77922 0.2548 0.0
C1410 C 0.11337 0.77185 0.13168 0.0
C1411 C 0.1113 0.72308 0.07175 0.0
C1412 C 0.11302 0.73798 0.10795 0.0
C1413 C 0.11109 0.78113 0.21356 0.0
C1414 C 0.11289 0.76625 0.17733 0.0
H1415 H 0.08838 0.68015 0.05176 0.0
H1416 H 0.09082 0.70515 0.10884 0.0
H1417 H 0.11304 0.76274 0.0627 0.0
H1418 H 0.08816 0.82404 0.2336 0.0
H1419 H 0.09074 0.79911 0.17634 0.0
C1420 C 0.69347 0.88568 0.98792 0.0
C1421 C 0.69527 0.89471 0.0303 0.0
C1422 C 0.70804 0.88748 0.95555 0.0
C1423 C 0.7598 0.89871 0.939 0.0
H1424 H 0.74363 0.90795 0.81553 0.0
C1425 C 0.8153 0.91419 0.79814 0.0
C1426 C 0.81241 0.9051 0.75615 0.0
C1427 C 0.80089 0.91374 0.83123 0.0
C1428 C 0.74839 0.90516 0.84971 0.0
H1429 H 0.7142 0.91223 0.07227 0.0
H1430 H 0.73992 0.91535 1.01524 0.0
H1431 H 0.71923 0.90576 0.87498 0.0
H1432 H 0.79183 0.88876 0.7158 0.0
H1433 H 0.76657 0.88787 0.77395 0.0
H1434 H 0.78895 0.89791 0.91368 0.0
C1435 C 0.72708 0.90688 1.00735 0.0
C1436 C 0.73441 0.90395 0.88384 0.0
C1437 C 0.71237 0.90512 0.03998 0.0
C1438 C 0.79449 0.89597 0.74767 0.0
C1439 C 0.78001 0.8955 0.78099 0.0
C1440 C 0.77379 0.89988 0.90483 0.0
C1441 C 0.72489 0.89831 0.96452 0.0
C1442 C 0.73994 0.90057 0.92884 0.0
C1443 C 0.78317 0.90417 0.82339 0.0
C1444 C 0.76825 0.90305 0.85972 0.0
H1445 H 0.6807 0.87723 0.97941 0.0
H1446 H 0.70609 0.88029 0.92338 0.0
H1447 H 0.76451 0.89584 0.97319 0.0
H1448 H 0.82884 0.92152 0.80587 0.0
H1449 H 0.80368 0.92092 0.86307 0.0
C1450 C 0.9032 0.29544 0.98888 0.0
C1451 C 0.89286 0.31263 0.99794 0.0
C1452 C 0.90467 0.28085 0.02182 0.0
C1453 C 0.9007 0.274 0.14557 0.0
H1454 H 0.89673 0.21926 0.11603 0.0
C1455 C 0.89429 0.21363 0.2818 0.0
C1456 C 0.90453 0.19629 0.27374 0.0
C1457 C 0.89324 0.22805 0.24842 0.0
C1458 C 0.89808 0.23449 0.1248 0.0
H1459 H 0.87514 0.32748 0.04793 0.0
H1460 H 0.87756 0.30222 0.10445 0.0
H1461 H 0.89428 0.24349 0.05621 0.0
H1462 H 0.92227 0.18087 0.2247 0.0
H1463 H 0.92058 0.20589 0.16735 0.0
H1464 H 0.90445 0.26503 0.21414 0.0
C1465 C 0.88498 0.30013 0.07259 0.0
C1466 C 0.8967 0.24837 0.09046 0.0
C1467 C 0.88353 0.31461 0.03993 0.0
C1468 C 0.91408 0.19394 0.2321 0.0
C1469 C 0.91302 0.20826 0.19893 0.0
C1470 C 0.90207 0.26014 0.17989 0.0
C1471 C 0.89581 0.2832 0.06434 0.0
C1472 C 0.8979 0.2683 0.10045 0.0
C1473 C 0.90239 0.22539 0.20635 0.0
C1474 C 0.90076 0.24021 0.16996 0.0
H1475 H 0.91056 0.29348 0.95692 0.0
H1476 H 0.91317 0.26798 1.01444 0.0
H1477 H 0.90202 0.28923 0.15439 0.0
H1478 H 0.88671 0.21588 0.31339 0.0
H1479 H 0.88483 0.24105 0.25513 0.0
C1480 C 0.31141 0.40688 0.29382 0.0
C1481 C 0.30961 0.39644 0.25326 0.0
C1482 C 0.29723 0.4055 0.32727 0.0
C1483 C 0.27185 0.39159 0.4035 0.0
H1484 H 0.217 0.39168 0.37362 0.0
C1485 C 0.21121 0.38521 0.53967 0.0
C1486 C 0.19463 0.39681 0.53304 0.0
C1487 C 0.22541 0.38369 0.50583 0.0
C1488 C 0.23227 0.39175 0.3826 0.0
H1489 H 0.29122 0.37658 0.21583 0.0
H1490 H 0.26632 0.37406 0.27471 0.0
H1491 H 0.24109 0.39209 0.31338 0.0
H1492 H 0.18035 0.41646 0.48622 0.0
H1493 H 0.20508 0.41417 0.42833 0.0
H1494 H 0.26305 0.39205 0.4727 0.0
C1495 C 0.27874 0.38345 0.28033 0.0
C1496 C 0.24609 0.39172 0.34797 0.0
C1497 C 0.29298 0.38489 0.24656 0.0
C1498 C 0.19283 0.40723 0.49245 0.0
C1499 C 0.20697 0.40578 0.45891 0.0
C1500 C 0.25803 0.3917 0.43812 0.0
C1501 C 0.28084 0.39357 0.32135 0.0
C1502 C 0.26607 0.392 0.35797 0.0
C1503 C 0.22331 0.3938 0.46478 0.0
C1504 C 0.23806 0.39213 0.42812 0.0
H1505 H 0.32391 0.41609 0.30008 0.0
H1506 H 0.29912 0.41391 0.35783 0.0
H1507 H 0.28712 0.39141 0.41248 0.0
H1508 H 0.21297 0.37689 0.5704 0.0
H1509 H 0.23777 0.37425 0.51142 0.0
C1510 C 0.38702 0.7106 0.78788 0.0
C1511 C 0.39857 0.69397 0.78157 0.0
C1512 C 0.38553 0.72464 0.75373 0.0
C1513 C 0.39358 0.75688 0.68521 0.0
H1514 H 0.39393 0.73933 0.5609 0.0
C1515 C 0.40876 0.80956 0.53987 0.0
C1516 C 0.39824 0.80764 0.49945 0.0
C1517 C 0.40745 0.79549 0.57351 0.0
C1518 C 0.39357 0.7445 0.59536 0.0
H1519 H 0.41818 0.67942 0.73505 0.0
H1520 H 0.41597 0.70389 0.67662 0.0
H1521 H 0.39347 0.71555 0.62173 0.0
H1522 H 0.37836 0.78914 0.46241 0.0
H1523 H 0.37595 0.76441 0.52165 0.0
H1524 H 0.39333 0.78583 0.65886 0.0
C1525 C 0.40759 0.70594 0.70718 0.0
C1526 C 0.39357 0.73086 0.63033 0.0
C1527 C 0.409 0.69196 0.74102 0.0
C1528 C 0.38673 0.79098 0.49302 0.0
C1529 C 0.38535 0.77684 0.527 0.0
C1530 C 0.39349 0.77052 0.65026 0.0
C1531 C 0.39563 0.72232 0.71271 0.0
C1532 C 0.39397 0.73687 0.6757 0.0
C1533 C 0.3955 0.77909 0.56793 0.0
C1534 C 0.39389 0.76451 0.60488 0.0
H1535 H 0.3787 0.7125 0.81858 0.0
H1536 H 0.37611 0.73704 0.75904 0.0
H1537 H 0.39394 0.76206 0.71967 0.0
H1538 H 0.41793 0.82211 0.54592 0.0
H1539 H 0.41588 0.79748 0.60398 0.0
C1540 C 0.70898 0.61843 0.25116 0.0
C1541 C 0.69265 0.60651 0.25831 0.0
C1542 C 0.72317 0.62046 0.28481 0.0
C1543 C 0.75607 0.6135 0.35212 0.0
H1544 H 0.73952 0.6131 0.4772 0.0
C1545 C 0.81033 0.60025 0.49537 0.0
C1546 C 0.80834 0.61069 0.53589 0.0
C1547 C 0.796 0.60112 0.46224 0.0
C1548 C 0.74441 0.61348 0.4425 0.0
H1549 H 0.67877 0.58691 0.30598 0.0
H1550 H 0.70351 0.59006 0.36353 0.0
H1551 H 0.71524 0.61281 0.41747 0.0
H1552 H 0.78949 0.63001 0.57359 0.0
H1553 H 0.76435 0.63168 0.51523 0.0
H1554 H 0.78522 0.61455 0.37713 0.0
C1555 C 0.7052 0.5983 0.33266 0.0
C1556 C 0.73048 0.61305 0.40817 0.0
C1557 C 0.69107 0.59635 0.29932 0.0
C1558 C 0.7914 0.62171 0.54288 0.0
C1559 C 0.77701 0.62266 0.50942 0.0
C1560 C 0.76999 0.61404 0.38645 0.0
C1561 C 0.72132 0.61055 0.32619 0.0
C1562 C 0.73614 0.61266 0.36253 0.0
C1563 C 0.77928 0.61255 0.46842 0.0
C1564 C 0.76435 0.61364 0.43209 0.0
H1565 H 0.71056 0.62655 0.22009 0.0
H1566 H 0.73535 0.63011 0.27876 0.0
H1567 H 0.76099 0.61315 0.31745 0.0
H1568 H 0.8231 0.59146 0.48889 0.0
H1569 H 0.79804 0.59272 0.43173 0.0
C1570 C 0.60149 0.19469 0.53038 0.0
C1571 C 0.61222 0.19652 0.49022 0.0
C1572 C 0.60237 0.20898 0.56357 0.0
C1573 C 0.61519 0.26034 0.58391 0.0
H1574 H 0.61406 0.24364 0.70883 0.0
C1575 C 0.61909 0.29549 0.77562 0.0
C1576 C 0.60718 0.31179 0.76833 0.0
C1577 C 0.62131 0.28138 0.74189 0.0
C1578 C 0.61464 0.24859 0.67421 0.0
H1579 H 0.63208 0.21508 0.45318 0.0
H1580 H 0.63377 0.2402 0.51167 0.0
H1581 H 0.61569 0.21948 0.64902 0.0
H1582 H 0.58779 0.3257 0.72035 0.0
H1583 H 0.59129 0.30108 0.66257 0.0
H1584 H 0.61448 0.28947 0.60914 0.0
C1585 C 0.62452 0.22766 0.51715 0.0
C1586 C 0.61531 0.23472 0.63981 0.0
C1587 C 0.62356 0.2133 0.48362 0.0
C1588 C 0.59722 0.31343 0.7271 0.0
C1589 C 0.59937 0.29936 0.69364 0.0
C1590 C 0.61462 0.27422 0.61833 0.0
C1591 C 0.61411 0.22552 0.5578 0.0
C1592 C 0.61518 0.2404 0.59421 0.0
C1593 C 0.61162 0.28327 0.70028 0.0
C1594 C 0.61393 0.26852 0.6639 0.0
H1595 H 0.59243 0.18206 0.53655 0.0
H1596 H 0.59375 0.20706 0.59382 0.0
H1597 H 0.61503 0.26525 0.54924 0.0
H1598 H 0.62706 0.29387 0.80687 0.0
H1599 H 0.63095 0.26922 0.74805 0.0
C1600 C 0.35459 0.12808 0.44594 0.0
C1601 C 0.34022 0.11557 0.42857 0.0
C1602 C 0.3583 0.12884 0.49228 0.0
C1603 C 0.33687 0.11707 0.60366 0.0
H1604 H 0.3905 0.11811 0.64402 0.0
C1605 C 0.35834 0.10472 0.7902 0.0
C1606 C 0.3739 0.11565 0.80776 0.0
C1607 C 0.35383 0.10546 0.74424 0.0
C1608 C 0.37542 0.1181 0.63341 0.0
H1609 H 0.31859 0.09394 0.44678 0.0
H1610 H 0.32496 0.09539 0.52747 0.0
H1611 H 0.38336 0.11819 0.56361 0.0
H1612 H 0.39652 0.13639 0.79077 0.0
H1613 H 0.3886 0.13779 0.71077 0.0
H1614 H 0.32892 0.11697 0.67347 0.0
C1615 C 0.3332 0.1048 0.50525 0.0
C1616 C 0.37133 0.11813 0.58723 0.0
C1617 C 0.32953 0.104 0.4589 0.0
C1618 C 0.38465 0.12754 0.77828 0.0
C1619 C 0.38011 0.12832 0.73235 0.0
C1620 C 0.34096 0.11709 0.64988 0.0
C1621 C 0.34771 0.11714 0.52251 0.0
C1622 C 0.35201 0.11755 0.57175 0.0
C1623 C 0.36473 0.11718 0.71462 0.0
C1624 C 0.3603 0.11754 0.66539 0.0
H1625 H 0.3629 0.13744 0.42374 0.0
H1626 H 0.36938 0.13872 0.5045 0.0
H1627 H 0.32181 0.11689 0.59292 0.0
H1628 H 0.34992 0.0952 0.81181 0.0
H1629 H 0.34207 0.09647 0.73175 0.0
C1630 C 0.10287 0.67639 0.57669 0.0
C1631 C 0.11424 0.66561 0.60717 0.0
C1632 C 0.10364 0.67258 0.5304 0.0
C1633 C 0.11668 0.6342 0.4486 0.0
H1634 H 0.11633 0.67659 0.36241 0.0
C1635 C 0.12701 0.62101 0.2576 0.0
C1636 C 0.11539 0.63189 0.22788 0.0
C1637 C 0.12752 0.62543 0.30363 0.0
C1638 C 0.11622 0.66457 0.38598 0.0
H1639 H 0.13569 0.64258 0.61238 0.0
H1640 H 0.13695 0.63587 0.5317 0.0
H1641 H 0.11602 0.68371 0.44294 0.0
H1642 H 0.09508 0.65595 0.22354 0.0
H1643 H 0.09588 0.6636 0.30372 0.0
H1644 H 0.1167 0.61505 0.39175 0.0
C1645 C 0.12723 0.64713 0.54374 0.0
C1646 C 0.11606 0.66866 0.4322 0.0
C1647 C 0.12649 0.65097 0.59004 0.0
C1648 C 0.10441 0.64743 0.24532 0.0
C1649 C 0.10488 0.65183 0.29137 0.0
C1650 C 0.1168 0.63011 0.4024 0.0
C1651 C 0.11577 0.65785 0.51333 0.0
C1652 C 0.11625 0.65352 0.4641 0.0
C1653 C 0.11637 0.64083 0.32119 0.0
C1654 C 0.11653 0.64523 0.37045 0.0
H1655 H 0.09301 0.68754 0.58865 0.0
H1656 H 0.0944 0.68092 0.50805 0.0
H1657 H 0.11653 0.62218 0.47219 0.0
H1658 H 0.13589 0.60914 0.24523 0.0
H1659 H 0.1368 0.61686 0.3254 0.0
C1660 C 0.64698 0.88304 0.44271 0.0
C1661 C 0.66521 0.88915 0.42629 0.0
C1662 C 0.64286 0.88347 0.48894 0.0
C1663 C 0.66667 0.88505 0.60123 0.0
H1664 H 0.61557 0.90109 0.64221 0.0
C1665 C 0.64922 0.89847 0.78996 0.0
C1666 C 0.63093 0.89245 0.80613 0.0
C1667 C 0.6535 0.89791 0.7438 0.0
C1668 C 0.62985 0.89635 0.63138 0.0
H1669 H 0.69326 0.90082 0.446 0.0
H1670 H 0.68609 0.90158 0.52648 0.0
H1671 H 0.62278 0.90057 0.56179 0.0
H1672 H 0.60296 0.88067 0.78609 0.0
H1673 H 0.6104 0.87969 0.70578 0.0
H1674 H 0.67374 0.88084 0.67086 0.0
C1675 C 0.67506 0.89615 0.50365 0.0
C1676 C 0.63399 0.89605 0.58517 0.0
C1677 C 0.67918 0.89573 0.45741 0.0
C1678 C 0.61708 0.88573 0.77487 0.0
C1679 C 0.62135 0.88518 0.72873 0.0
C1680 C 0.66253 0.88535 0.64746 0.0
C1681 C 0.65685 0.89001 0.52008 0.0
C1682 C 0.65246 0.89039 0.56942 0.0
C1683 C 0.6396 0.89133 0.71251 0.0
C1684 C 0.64405 0.89098 0.6632 0.0
H1685 H 0.63597 0.87757 0.4199 0.0
H1686 H 0.6288 0.87832 0.50033 0.0
H1687 H 0.68096 0.88031 0.59039 0.0
H1688 H 0.66015 0.90402 0.81288 0.0
H1689 H 0.6676 0.90304 0.73257 0.0
C1690 C 0.88095 0.36374 0.23872 0.0
C1691 C 0.89561 0.37593 0.22138 0.0
C1692 C 0.88018 0.35935 0.28481 0.0
C1693 C 0.91032 0.35866 0.38864 0.0
H1694 H 0.86044 0.35761 0.4497 0.0
C1695 C 0.90398 0.35313 0.5831 0.0
C1696 C 0.88896 0.34155 0.60108 0.0
C1697 C 0.90486 0.35708 0.53681 0.0
C1698 C 0.87449 0.35759 0.43313 0.0
H1699 H 0.92116 0.39278 0.23925 0.0
H1700 H 0.91964 0.38536 0.31954 0.0
H1701 H 0.86184 0.36479 0.36931 0.0
H1702 H 0.86297 0.32523 0.58396 0.0
H1703 H 0.86475 0.33176 0.50336 0.0
H1704 H 0.92298 0.35143 0.45242 0.0
C1705 C 0.90879 0.37907 0.29744 0.0
C1706 C 0.87529 0.36173 0.38693 0.0
C1707 C 0.90953 0.38352 0.2514 0.0
C1708 C 0.87488 0.33401 0.57139 0.0
C1709 C 0.87576 0.33798 0.52512 0.0
C1710 C 0.90953 0.35449 0.43483 0.0
C1711 C 0.89408 0.36695 0.31483 0.0
C1712 C 0.89322 0.36236 0.36404 0.0
C1713 C 0.89074 0.34959 0.50715 0.0
C1714 C 0.8916 0.35393 0.45778 0.0
H1715 H 0.86988 0.35777 0.21675 0.0
H1716 H 0.86875 0.34981 0.29685 0.0
H1717 H 0.92437 0.35871 0.37205 0.0
H1718 H 0.9152 0.35903 0.60476 0.0
H1719 H 0.9165 0.36625 0.52438 0.0
C1720 C 0.38402 0.39993 0.5075 0.0
C1721 C 0.37205 0.39021 0.47632 0.0
C1722 C 0.37951 0.39994 0.55347 0.0
C1723 C 0.35053 0.37379 0.64016 0.0
H1724 H 0.35957 0.42059 0.70998 0.0
C1725 C 0.32512 0.38232 0.82594 0.0
C1726 C 0.33815 0.39135 0.85591 0.0
C1727 C 0.32894 0.38193 0.77955 0.0
C1728 C 0.35714 0.40734 0.69109 0.0
H1729 H 0.34592 0.37273 0.46957 0.0
H1730 H 0.3378 0.37315 0.5496 0.0
H1731 H 0.36657 0.4205 0.62949 0.0
H1732 H 0.36537 0.4072 0.86033 0.0
H1733 H 0.37213 0.40634 0.77969 0.0
H1734 H 0.34099 0.3607 0.70193 0.0
C1735 C 0.35086 0.38057 0.53851 0.0
C1736 C 0.36117 0.40727 0.64487 0.0
C1737 C 0.3554 0.38052 0.49246 0.0
C1738 C 0.35512 0.39994 0.83833 0.0
C1739 C 0.35888 0.39964 0.79198 0.0
C1740 C 0.34642 0.37389 0.68642 0.0
C1741 C 0.36284 0.3903 0.56966 0.0
C1742 C 0.35805 0.39046 0.61878 0.0
C1743 C 0.34582 0.39069 0.76196 0.0
C1744 C 0.34979 0.39063 0.71253 0.0
H1745 H 0.39682 0.40777 0.49636 0.0
H1746 H 0.38923 0.40739 0.57641 0.0
H1747 H 0.34819 0.3605 0.62136 0.0
H1748 H 0.31199 0.37543 0.83836 0.0
H1749 H 0.3185 0.37503 0.75738 0.0
C1750 C 0.37788 0.65397 0.19668 0.0
C1751 C 0.39128 0.66755 0.17939 0.0
C1752 C 0.37686 0.65025 0.24302 0.0
C1753 C 0.38977 0.67083 0.35454 0.0
H1754 H 0.38511 0.61741 0.39494 0.0
C1755 C 0.39991 0.64872 0.54149 0.0
C1756 C 0.38797 0.63388 0.55887 0.0
C1757 C 0.39968 0.65323 0.49547 0.0
C1758 C 0.38614 0.63244 0.38433 0.0
H1759 H 0.41423 0.68774 0.19779 0.0
H1760 H 0.41231 0.68137 0.27844 0.0
H1761 H 0.38572 0.62454 0.31452 0.0
H1762 H 0.36597 0.61256 0.54145 0.0
H1763 H 0.36545 0.62049 0.46139 0.0
H1764 H 0.39017 0.67875 0.42434 0.0
C1765 C 0.40242 0.67376 0.25616 0.0
C1766 C 0.3865 0.63653 0.33813 0.0
C1767 C 0.40349 0.67744 0.20982 0.0
C1768 C 0.37559 0.62385 0.52913 0.0
C1769 C 0.37532 0.62839 0.48315 0.0
C1770 C 0.38934 0.66675 0.40077 0.0
C1771 C 0.38916 0.66004 0.27335 0.0
C1772 C 0.38839 0.65577 0.32261 0.0
C1773 C 0.38745 0.64305 0.4656 0.0
C1774 C 0.38757 0.64749 0.41632 0.0
H1775 H 0.36802 0.64631 0.17444 0.0
H1776 H 0.36627 0.63981 0.25515 0.0
H1777 H 0.39096 0.68584 0.34379 0.0
H1778 H 0.40982 0.65657 0.56328 0.0
H1779 H 0.40943 0.66441 0.48317 0.0
C1780 C 0.67714 0.59981 0.82971 0.0
C1781 C 0.66602 0.6108 0.86036 0.0
C1782 C 0.67334 0.60058 0.78338 0.0
C1783 C 0.63448 0.61264 0.70184 0.0
H1784 H 0.67673 0.61375 0.61519 0.0
C1785 C 0.62044 0.62338 0.51132 0.0
C1786 C 0.63164 0.61235 0.48096 0.0
C1787 C 0.62499 0.62376 0.55729 0.0
C1788 C 0.66474 0.61322 0.63887 0.0
H1789 H 0.64242 0.63163 0.86567 0.0
H1790 H 0.63571 0.63283 0.78505 0.0
H1791 H 0.684 0.61334 0.69566 0.0
H1792 H 0.65643 0.59298 0.47552 0.0
H1793 H 0.66431 0.59356 0.55561 0.0
H1794 H 0.61522 0.61231 0.64523 0.0
C1795 C 0.64723 0.62341 0.79698 0.0
C1796 C 0.66892 0.61301 0.68507 0.0
C1797 C 0.65108 0.6227 0.84328 0.0
C1798 C 0.64765 0.60186 0.49777 0.0
C1799 C 0.65217 0.6022 0.54379 0.0
C1800 C 0.6303 0.61279 0.65568 0.0
C1801 C 0.65825 0.61229 0.76642 0.0
C1802 C 0.65385 0.61271 0.71717 0.0
C1803 C 0.64085 0.61308 0.57425 0.0
C1804 C 0.64537 0.61308 0.62351 0.0
H1805 H 0.68854 0.59023 0.84155 0.0
H1806 H 0.68194 0.59162 0.76092 0.0
H1807 H 0.62251 0.61208 0.72556 0.0
H1808 H 0.60822 0.6319 0.49948 0.0
H1809 H 0.61615 0.6326 0.57951 0.0
C1810 C 0.62116 0.35838 0.52945 0.0
C1811 C 0.6096 0.37372 0.54587 0.0
C1812 C 0.62119 0.35364 0.4835 0.0
C1813 C 0.5923 0.36 0.37851 0.0
H1814 H 0.64053 0.34591 0.31902 0.0
C1815 C 0.59869 0.35507 0.18467 0.0
C1816 C 0.60925 0.33941 0.16646 0.0
C1817 C 0.59883 0.3587 0.23107 0.0
C1818 C 0.62689 0.34961 0.33521 0.0
H1819 H 0.58879 0.3959 0.52645 0.0
H1820 H 0.58923 0.38802 0.44655 0.0
H1821 H 0.64058 0.35323 0.39952 0.0
H1822 H 0.62847 0.31545 0.18293 0.0
H1823 H 0.62864 0.32176 0.26403 0.0
H1824 H 0.57866 0.35657 0.31413 0.0
C1825 C 0.59812 0.37946 0.4692 0.0
C1826 C 0.62691 0.35379 0.38144 0.0
C1827 C 0.59808 0.38417 0.51507 0.0
C1828 C 0.62006 0.32754 0.19586 0.0
C1829 C 0.6203 0.33127 0.2423 0.0
C1830 C 0.5923 0.35589 0.33231 0.0
C1831 C 0.60966 0.36411 0.45273 0.0
C1832 C 0.60962 0.35915 0.40369 0.0
C1833 C 0.60961 0.34685 0.26052 0.0
C1834 C 0.60961 0.35075 0.30999 0.0
H1835 H 0.63036 0.35011 0.55203 0.0
H1836 H 0.63011 0.34161 0.47221 0.0
H1837 H 0.57863 0.36367 0.39456 0.0
H1838 H 0.59004 0.36438 0.16311 0.0
H1839 H 0.59059 0.37095 0.24384 0.0
C1840 C 0.82638 0.6059 0.96393 0.0
C1841 C 0.83685 0.61756 0.93337 0.0
C1842 C 0.83022 0.60676 1.01021 0.0
C1843 C 0.8683 0.62092 0.09188 0.0
H1844 H 0.82592 0.61946 0.17817 0.0
C1845 C 0.88114 0.63217 0.28273 0.0
C1846 C 0.87058 0.62033 0.3127 0.0
C1847 C 0.87675 0.63237 0.23668 0.0
C1848 C 0.83795 0.61966 0.15457 0.0
H1849 H 0.85935 0.63958 0.92801 0.0
H1850 H 0.86609 0.641 1.00864 0.0
H1851 H 0.81881 0.61881 0.09766 0.0
H1852 H 0.84714 0.5993 0.31741 0.0
H1853 H 0.83951 0.59958 0.2372 0.0
H1854 H 0.88746 0.62161 0.14869 0.0
C1855 C 0.85507 0.63099 0.99669 0.0
C1856 C 0.83386 0.6193 0.10836 0.0
C1857 C 0.85121 0.63017 0.9504 0.0
C1858 C 0.85539 0.60881 0.29545 0.0
C1859 C 0.85101 0.60898 0.24938 0.0
C1860 C 0.87239 0.62123 0.13807 0.0
C1861 C 0.84466 0.61927 0.02718 0.0
C1862 C 0.84898 0.6199 0.07641 0.0
C1863 C 0.86168 0.6207 0.21933 0.0
C1864 C 0.85728 0.62058 0.17007 0.0
H1865 H 0.81547 0.59577 0.95205 0.0
H1866 H 0.82212 0.59731 0.03261 0.0
H1867 H 0.88032 0.62109 0.06826 0.0
H1868 H 0.89273 0.64147 0.29492 0.0
H1869 H 0.88505 0.64184 0.21473 0.0
C1870 C 0.6089 0.12325 0.74494 0.0
C1871 C 0.61949 0.13459 0.714 0.0
C1872 C 0.6088 0.12786 0.79084 0.0
C1873 C 0.63609 0.15522 0.87806 0.0
H1874 H 0.58835 0.14926 0.9464 0.0
C1875 C 0.6283 0.18065 0.06386 0.0
C1876 C 0.61828 0.16813 0.09336 0.0
C1877 C 0.62863 0.17699 0.01742 0.0
C1878 C 0.60185 0.15082 0.92791 0.0
H1879 H 0.63842 0.15969 0.7075 0.0
H1880 H 0.63792 0.16799 0.78746 0.0
H1881 H 0.58847 0.14232 0.86588 0.0
H1882 H 0.60061 0.14203 0.09694 0.0
H1883 H 0.60136 0.13555 0.01619 0.0
H1884 H 0.64943 0.16379 0.94026 0.0
C1885 C 0.62985 0.15536 0.77623 0.0
C1886 C 0.60194 0.14683 0.8817 0.0
C1887 C 0.62996 0.15072 0.73025 0.0
C1888 C 0.60864 0.15186 0.07528 0.0
C1889 C 0.60888 0.14827 0.02889 0.0
C1890 C 0.63599 0.15927 0.92432 0.0
C1891 C 0.61925 0.14399 0.80714 0.0
C1892 C 0.61909 0.14883 0.85617 0.0
C1893 C 0.61883 0.16081 0.99934 0.0
C1894 C 0.6189 0.15699 0.94988 0.0
H1895 H 0.60045 0.11087 0.73366 0.0
H1896 H 0.60066 0.11863 0.81364 0.0
H1897 H 0.64963 0.15668 0.85966 0.0
H1898 H 0.636 0.19323 0.0767 0.0
H1899 H 0.63631 0.18702 0.99559 0.0
C1900 C 0.12072 0.40046 0.27882 0.0
C1901 C 0.13235 0.39033 0.30995 0.0
C1902 C 0.12528 0.40043 0.23288 0.0
C1903 C 0.15332 0.37349 0.14612 0.0
H1904 H 0.14608 0.42073 0.07676 0.0
C1905 C 0.17869 0.38125 0.96019 0.0
C1906 C 0.16598 0.39087 0.93046 0.0
C1907 C 0.17496 0.38096 1.00661 0.0
C1908 C 0.148 0.40735 0.09552 0.0
H1909 H 0.15793 0.37209 0.31671 0.0
H1910 H 0.16614 0.37239 0.2367 0.0
H1911 H 0.13913 0.42076 0.15727 0.0
H1912 H 0.13946 0.40786 0.9265 0.0
H1913 H 0.13285 0.40714 1.00719 0.0
H1914 H 0.16226 0.36014 0.0842 0.0
C1915 C 0.15331 0.38018 0.24781 0.0
C1916 C 0.144 0.40736 0.14175 0.0
C1917 C 0.14873 0.38019 0.29383 0.0
C1918 C 0.14944 0.40013 0.94831 0.0
C1919 C 0.14577 0.39992 0.99468 0.0
C1920 C 0.15738 0.3735 0.09985 0.0
C1921 C 0.14165 0.39032 0.21672 0.0
C1922 C 0.14647 0.39039 0.16765 0.0
C1923 C 0.15851 0.39038 0.02446 0.0
C1924 C 0.15464 0.39041 0.07391 0.0
H1925 H 0.10815 0.40865 0.28998 0.0
H1926 H 0.11582 0.40821 0.20995 0.0
H1927 H 0.15515 0.36009 0.16481 0.0
H1928 H 0.19148 0.37384 0.94755 0.0
H1929 H 0.18515 0.3736 0.0286 0.0
C1930 C 0.37862 0.84962 0.08465 0.0
C1931 C 0.3914 0.83544 0.10172 0.0
C1932 C 0.37769 0.85341 0.03834 0.0
C1933 C 0.38953 0.83227 0.92668 0.0
H1934 H 0.38681 0.88581 0.8862 0.0
C1935 C 0.40018 0.85393 0.73962 0.0
C1936 C 0.38863 0.86907 0.72229 0.0
C1937 C 0.3999 0.8495 0.78567 0.0
C1938 C 0.3873 0.87076 0.89685 0.0
H1939 H 0.41338 0.81427 0.08303 0.0
H1940 H 0.41166 0.82079 1.00242 0.0
H1941 H 0.38733 0.8787 0.96664 0.0
H1942 H 0.36731 0.89104 0.73987 0.0
H1943 H 0.36675 0.88326 0.82002 0.0
H1944 H 0.3895 0.82432 0.8569 0.0
C1945 C 0.40215 0.82881 0.02483 0.0
C1946 C 0.38761 0.86668 0.94306 0.0
C1947 C 0.40311 0.82505 0.07114 0.0
C1948 C 0.37663 0.8795 0.75214 0.0
C1949 C 0.37633 0.87505 0.79817 0.0
C1950 C 0.38917 0.83635 0.88045 0.0
C1951 C 0.38948 0.84309 1.00784 0.0
C1952 C 0.38879 0.84739 0.95859 0.0
C1953 C 0.38805 0.86006 0.81562 0.0
C1954 C 0.38811 0.85565 0.8649 0.0
H1955 H 0.36915 0.85769 0.10705 0.0
H1956 H 0.36755 0.8643 0.02637 0.0
H1957 H 0.39015 0.81723 0.93744 0.0
H1958 H 0.4098 0.84577 0.71776 0.0
H1959 H 0.40934 0.83806 0.79793 0.0
C1960 C 0.85488 0.88486 0.34081 0.0
C1961 C 0.84062 0.89763 0.3577 0.0
C1962 C 0.85877 0.88387 0.29452 0.0
C1963 C 0.83774 0.89545 0.18251 0.0
H1964 H 0.89132 0.89242 0.14221 0.0
C1965 C 0.85941 0.90512 0.99503 0.0
C1966 C 0.87457 0.89352 0.97793 0.0
C1967 C 0.85501 0.90511 0.04113 0.0
C1968 C 0.87625 0.89299 0.1528 0.0
H1969 H 0.81943 0.91951 0.3386 0.0
H1970 H 0.82612 0.91767 0.25807 0.0
H1971 H 0.88414 0.89322 0.22262 0.0
H1972 H 0.89664 0.8724 0.9961 0.0
H1973 H 0.88891 0.87229 0.0763 0.0
H1974 H 0.82984 0.89521 0.11271 0.0
C1975 C 0.83412 0.90823 0.28061 0.0
C1976 C 0.87213 0.89347 0.19901 0.0
C1977 C 0.83027 0.90926 0.3269 0.0
C1978 C 0.88508 0.88176 1.00813 0.0
C1979 C 0.88065 0.88171 0.05421 0.0
C1980 C 0.84185 0.89493 0.13628 0.0
C1981 C 0.84848 0.89557 0.2638 0.0
C1982 C 0.85282 0.89476 0.21451 0.0
C1983 C 0.86562 0.89347 0.07142 0.0
C1984 C 0.86117 0.89374 0.12075 0.0
H1985 H 0.86293 0.87545 0.36333 0.0
H1986 H 0.86971 0.87374 0.28273 0.0
H1987 H 0.82268 0.89615 0.1932 0.0
H1988 H 0.8512 0.91458 0.97292 0.0
H1989 H 0.84354 0.91458 0.05314 0.0
C1990 C 0.88664 0.14933 0.03441 0.0
C1991 C 0.89731 0.13331 0.05061 0.0
C1992 C 0.88647 0.15384 0.98837 0.0
C1993 C 0.91389 0.14518 0.88214 0.0
H1994 H 0.86622 0.16242 0.82489 0.0
C1995 C 0.90642 0.15079 0.68867 0.0
C1996 C 0.89687 0.16721 0.67111 0.0
C1997 C 0.90629 0.147 0.735 0.0
C1998 C 0.8797 0.15782 0.84046 0.0
H1999 H 0.91637 0.10968 0.03067 0.0
H2000 H 0.91564 0.11721 0.9506 0.0
H2001 H 0.86636 0.15523 0.90545 0.0
H2002 H 0.87941 0.19235 0.68865 0.0
H2003 H 0.87928 0.18579 0.76961 0.0
H2004 H 0.92718 0.14761 0.81709 0.0
C2005 C 0.90758 0.12645 0.9735 0.0
C2006 C 0.8798 0.15371 0.88671 0.0
C2007 C 0.90778 0.12196 0.01948 0.0
C2008 C 0.88704 0.17966 0.70107 0.0
C2009 C 0.88681 0.1758 0.74744 0.0
C2010 C 0.91377 0.14921 0.83593 0.0
C2011 C 0.89696 0.14248 0.95727 0.0
C2012 C 0.89688 0.14725 0.90816 0.0
C2013 C 0.89654 0.15948 0.76501 0.0
C2014 C 0.89666 0.1555 0.81443 0.0
H2015 H 0.87826 0.1583 0.05726 0.0
H2016 H 0.87828 0.16641 0.97723 0.0
H2017 H 0.92741 0.14062 0.89757 0.0
H2018 H 0.91432 0.141 0.66667 0.0
H2019 H 0.91375 0.13418 0.74729 0.0
C2020 C 0.15149 0.1233 0.99174 0.0
C2021 C 0.13532 0.11294 0.97525 0.0
C2022 C 0.15601 0.12316 0.03778 0.0
C2023 C 0.14709 0.09524 0.14309 0.0
H2024 H 0.1646 0.14245 0.20195 0.0
C2025 C 0.15289 0.10134 0.33684 0.0
C2026 C 0.16922 0.11096 0.35476 0.0
C2027 C 0.14911 0.10173 0.29052 0.0
C2028 C 0.15993 0.12908 0.18594 0.0
H2029 H 0.11141 0.09408 0.99462 0.0
H2030 H 0.11898 0.09424 0.0747 0.0
H2031 H 0.15744 0.14283 0.1214 0.0
H2032 H 0.19422 0.12878 0.33778 0.0
H2033 H 0.18772 0.12929 0.25686 0.0
H2034 H 0.14946 0.08153 0.20764 0.0
C2035 C 0.12833 0.10231 0.05203 0.0
C2036 C 0.15583 0.12929 0.13969 0.0
C2037 C 0.12382 0.10244 1.00606 0.0
C2038 C 0.18161 0.12108 0.32512 0.0
C2039 C 0.17777 0.12153 0.27876 0.0
C2040 C 0.15113 0.09505 0.1893 0.0
C2041 C 0.14449 0.11264 0.06856 0.0
C2042 C 0.14927 0.11239 0.11767 0.0
C2043 C 0.16152 0.11178 0.26083 0.0
C2044 C 0.15753 0.11198 0.2114 0.0
H2045 H 0.16058 0.13169 0.96913 0.0
H2046 H 0.16868 0.13113 0.04917 0.0
H2047 H 0.14243 0.08185 0.12719 0.0
H2048 H 0.14316 0.09323 0.35855 0.0
H2049 H 0.13634 0.09424 0.27799 0.0
C2050 C 0.12627 0.85304 0.69546 0.0
C2051 C 0.11389 0.83849 0.67839 0.0
C2052 C 0.12703 0.8569 0.74175 0.0
C2053 C 0.11566 0.83548 0.85333 0.0
H2054 H 0.11678 0.88909 0.89376 0.0
C2055 C 0.10424 0.85677 0.04025 0.0
C2056 C 0.11538 0.87221 0.05765 0.0
C2057 C 0.10464 0.85239 0.99419 0.0
C2058 C 0.11674 0.87403 0.88311 0.0
H2059 H 0.09244 0.81675 0.697 0.0
H2060 H 0.09387 0.82339 0.77758 0.0
H2061 H 0.11654 0.88195 0.81331 0.0
H2062 H 0.13608 0.8948 0.04022 0.0
H2063 H 0.13688 0.88711 0.96003 0.0
H2064 H 0.11586 0.82755 0.92312 0.0
C2065 C 0.1032 0.83165 0.7552 0.0
C2066 C 0.11659 0.86993 0.83692 0.0
C2067 C 0.1024 0.82782 0.70892 0.0
C2068 C 0.12708 0.88302 0.02788 0.0
C2069 C 0.12752 0.87861 0.98184 0.0
C2070 C 0.11586 0.83957 0.89954 0.0
C2071 C 0.11546 0.84629 0.7722 0.0
C2072 C 0.11598 0.85061 0.82142 0.0
C2073 C 0.11623 0.86331 0.96432 0.0
C2074 C 0.11634 0.85891 0.91507 0.0
H2075 H 0.13556 0.86134 0.67309 0.0
H2076 H 0.13685 0.86808 0.75375 0.0
H2077 H 0.11548 0.82043 0.84259 0.0
H2078 H 0.09484 0.84833 0.06207 0.0
H2079 H 0.09553 0.8407 0.98187 0.0
loop_
_geom_bond_atom_site_label_1
_geom_bond_atom_site_label_2
_geom_bond_distance
_geom_bond_site_symmetry_2
_ccdc_geom_bond_type
Eu0 C9 2.828 . S
Eu0 O11 2.392 . S
Eu0 O13 2.418 . S
Eu0 O18 2.373 . S
Eu0 O21 2.488 . S
Eu0 O22 2.471 . S
Eu0 O23 2.349 . S
Eu1 O10 2.373 . S
Eu1 O14 2.488 . S
Eu1 O15 2.471 . S
Eu1 O16 2.349 . S
Eu1 O19 2.392 . S
Eu1 O20 2.418 . S
Eu1 C30 2.828 1_554 S
C2 O20 1.244 . S
C2 O23 1.265 . S
C3 C4 1.379 . S
C3 C7 1.373 . S
C3 C9 1.505 . S
C4 C3 1.379 . S
C4 C6 1.369 . S
C4 H32 0.930 . S
C5 C7 1.383 . S
C5 C8 1.382 . S
C5 H33 0.930 . S
C6 C4 1.369 . S
C6 C8 1.392 . S
C6 H34 0.930 . S
C7 C3 1.373 . S
C7 C5 1.383 . S
C7 H35 0.931 . S
C8 C5 1.382 . S
C8 C6 1.392 . S
C9 Eu0 2.828 . S
C9 C3 1.505 . S
C9 O21 1.249 . S
C9 O22 1.244 . S
O10 Eu1 2.373 . S
O10 C12 1.258 . S
O11 Eu0 2.392 . S
O11 C12 1.242 . S
C12 O10 1.258 . S
C12 O11 1.242 . S
O13 Eu0 2.418 . S
O13 C17 1.244 . S
O14 Eu1 2.488 . S
O14 C30 1.249 1_554 S
O15 Eu1 2.471 . S
O15 C30 1.244 1_554 S
O16 Eu1 2.349 . S
O16 C17 1.265 . S
C17 O13 1.244 . S
C17 O16 1.265 . S
O18 Eu0 2.373 . S
O18 C31 1.258 . S
O19 Eu1 2.392 . S
O19 C31 1.242 . S
O20 Eu1 2.418 . S
O20 C2 1.244 . S
O21 Eu0 2.488 . S
O21 C9 1.249 . S
O22 Eu0 2.471 . S
O22 C9 1.244 . S
O23 Eu0 2.349 . S
O23 C2 1.265 . S
C24 C25 1.379 . S
C24 C28 1.373 . S
C24 C30 1.505 . S
C25 C24 1.379 . S
C25 C27 1.369 . S
C25 H36 0.930 . S
C26 C28 1.383 . S
C26 C29 1.382 . S
C26 H37 0.930 . S
C27 C25 1.369 . S
C27 C29 1.392 . S
C27 H38 0.930 . S
C28 C24 1.373 . S
C28 C26 1.383 . S
C28 H39 0.931 . S
C29 C26 1.382 . S
C29 C27 1.392 . S
C30 Eu1 2.828 1_556 S
C30 O14 1.249 1_556 S
C30 O15 1.244 1_556 S
C30 C24 1.505 . S
C31 O18 1.258 . S
C31 O19 1.242 . S
H32 C4 0.930 . S
H33 C5 0.930 . S
H34 C6 0.930 . S
H35 C7 0.931 . S
H36 C25 0.930 . S
H37 C26 0.930 . S
H38 C27 0.930 . S
H39 C28 0.931 . S
Eu40 C49 2.828 1_556 S
Eu40 O51 2.392 . S
Eu40 O53 2.418 . S
Eu40 O58 2.373 . S
Eu40 O61 2.488 . S
Eu40 O62 2.471 . S
Eu40 O63 2.349 . S
Eu41 O50 2.373 . S
Eu41 O54 2.488 . S
Eu41 O55 2.471 . S
Eu41 O56 2.349 . S
Eu41 O59 2.392 . S
Eu41 O60 2.418 . S
Eu41 C70 2.828 . S
C42 O60 1.244 . S
C42 O63 1.265 . S
C43 C44 1.379 . S
C43 C47 1.373 . S
C43 C49 1.505 . S
C44 C43 1.379 . S
C44 C46 1.369 . S
C44 H72 0.930 . S
C45 C47 1.383 . S
C45 C48 1.382 . S
C45 H73 0.930 . S
C46 C44 1.369 . S
C46 C48 1.392 . S
C46 H74 0.930 . S
C47 C43 1.373 . S
C47 C45 1.383 . S
C47 H75 0.931 . S
C48 C45 1.382 . S
C48 C46 1.392 . S
C49 Eu40 2.828 1_554 S
C49 C43 1.505 . S
C49 O61 1.249 1_554 S
C49 O62 1.244 1_554 S
O50 Eu41 2.373 . S
O50 C52 1.258 . S
O51 Eu40 2.392 . S
O51 C52 1.242 . S
C52 O50 1.258 . S
C52 O51 1.242 . S
O53 Eu40 2.418 . S
O53 C57 1.244 . S
O54 Eu41 2.488 . S
O54 C70 1.249 . S
O55 Eu41 2.471 . S
O55 C70 1.244 . S
O56 Eu41 2.349 . S
O56 C57 1.265 . S
C57 O53 1.244 . S
C57 O56 1.265 . S
O58 Eu40 2.373 . S
O58 C71 1.258 . S
O59 Eu41 2.392 . S
O59 C71 1.242 . S
O60 Eu41 2.418 . S
O60 C42 1.244 . S
O61 Eu40 2.488 . S
O61 C49 1.249 1_556 S
O62 Eu40 2.471 . S
O62 C49 1.244 1_556 S
O63 Eu40 2.349 . S
O63 C42 1.265 . S
C64 C65 1.379 . S
C64 C68 1.373 . S
C64 C70 1.505 . S
C65 C64 1.379 . S
C65 C67 1.369 . S
C65 H76 0.930 . S
C66 C68 1.383 . S
C66 C69 1.382 . S
C66 H77 0.930 . S
C67 C65 1.369 . S
C67 C69 1.392 . S
C67 H78 0.930 . S
C68 C64 1.373 . S
C68 C66 1.383 . S
C68 H79 0.931 . S
C69 C66 1.382 . S
C69 C67 1.392 . S
C70 Eu41 2.828 . S
C70 O54 1.249 . S
C70 O55 1.244 . S
C70 C64 1.505 . S
C71 O58 1.258 . S
C71 O59 1.242 . S
H72 C44 0.930 . S
H73 C45 0.930 . S
H74 C46 0.930 . S
H75 C47 0.931 . S
H76 C65 0.930 . S
H77 C66 0.930 . S
H78 C67 0.930 . S
H79 C68 0.931 . S
Eu80 C89 2.828 . S
Eu80 O91 2.392 . S
Eu80 O93 2.418 . S
Eu80 O98 2.373 . S
Eu80 O101 2.488 . S
Eu80 O102 2.471 . S
Eu80 O103 2.349 . S
Eu81 O90 2.373 . S
Eu81 O94 2.488 . S
Eu81 O95 2.471 . S
Eu81 O96 2.349 . S
Eu81 O99 2.392 . S
Eu81 O100 2.418 . S
Eu81 C110 2.828 1_554 S
C82 O100 1.244 . S
C82 O103 1.265 . S
C83 C84 1.379 . S
C83 C87 1.373 . S
C83 C89 1.505 . S
C84 C83 1.379 . S
C84 C86 1.369 . S
C84 H112 0.930 . S
C85 C87 1.383 . S
C85 C88 1.382 . S
C85 H113 0.930 . S
C86 C84 1.369 . S
C86 C88 1.392 . S
C86 H114 0.930 . S
C87 C83 1.373 . S
C87 C85 1.383 . S
C87 H115 0.931 . S
C88 C85 1.382 . S
C88 C86 1.392 . S
C89 Eu80 2.828 . S
C89 C83 1.505 . S
C89 O101 1.249 . S
C89 O102 1.244 . S
O90 Eu81 2.373 . S
O90 C92 1.258 . S
O91 Eu80 2.392 . S
O91 C92 1.242 . S
C92 O90 1.258 . S
C92 O91 1.242 . S
O93 Eu80 2.418 . S
O93 C97 1.244 . S
O94 Eu81 2.488 . S
O94 C110 1.249 1_554 S
O95 Eu81 2.471 . S
O95 C110 1.244 1_554 S
O96 Eu81 2.349 . S
O96 C97 1.265 . S
C97 O93 1.244 . S
C97 O96 1.265 . S
O98 Eu80 2.373 . S
O98 C111 1.258 . S
O99 Eu81 2.392 . S
O99 C111 1.242 . S
O100 Eu81 2.418 . S
O100 C82 1.244 . S
O101 Eu80 2.488 . S
O101 C89 1.249 . S
O102 Eu80 2.471 . S
O102 C89 1.244 . S
O103 Eu80 2.349 . S
O103 C82 1.265 . S
C104 C105 1.379 . S
C104 C108 1.373 . S
C104 C110 1.505 . S
C105 C104 1.379 . S
C105 C107 1.369 . S
C105 H116 0.930 . S
C106 C108 1.383 . S
C106 C109 1.382 . S
C106 H117 0.930 . S
C107 C105 1.369 . S
C107 C109 1.392 . S
C107 H118 0.930 . S
C108 C104 1.373 . S
C108 C106 1.383 . S
C108 H119 0.931 . S
C109 C106 1.382 . S
C109 C107 1.392 . S
C110 Eu81 2.828 1_556 S
C110 O94 1.249 1_556 S
C110 O95 1.244 1_556 S
C110 C104 1.505 . S
C111 O98 1.258 . S
C111 O99 1.242 . S
H112 C84 0.930 . S
H113 C85 0.930 . S
H114 C86 0.930 . S
H115 C87 0.931 . S
H116 C105 0.930 . S
H117 C106 0.930 . S
H118 C107 0.930 . S
H119 C108 0.931 . S
Eu120 C129 2.828 1_556 S
Eu120 O131 2.392 . S
Eu120 O133 2.418 . S
Eu120 O138 2.373 . S
Eu120 O141 2.488 . S
Eu120 O142 2.471 . S
Eu120 O143 2.349 . S
Eu121 O130 2.373 . S
Eu121 O134 2.488 . S
Eu121 O135 2.471 . S
Eu121 O136 2.349 . S
Eu121 O139 2.392 . S
Eu121 O140 2.418 . S
Eu121 C150 2.828 . S
C122 O140 1.244 . S
C122 O143 1.265 . S
C123 C124 1.379 . S
C123 C127 1.373 . S
C123 C129 1.505 . S
C124 C123 1.379 . S
C124 C126 1.369 . S
C124 H152 0.930 . S
C125 C127 1.383 . S
C125 C128 1.382 . S
C125 H153 0.930 . S
C126 C124 1.369 . S
C126 C128 1.392 . S
C126 H154 0.930 . S
C127 C123 1.373 . S
C127 C125 1.383 . S
C127 H155 0.931 . S
C128 C125 1.382 . S
C128 C126 1.392 . S
C129 Eu120 2.828 1_554 S
C129 C123 1.505 . S
C129 O141 1.249 1_554 S
C129 O142 1.244 1_554 S
O130 Eu121 2.373 . S
O130 C132 1.258 . S
O131 Eu120 2.392 . S
O131 C132 1.242 . S
C132 O130 1.258 . S
C132 O131 1.242 . S
O133 Eu120 2.418 . S
O133 C137 1.244 . S
O134 Eu121 2.488 . S
O134 C150 1.249 . S
O135 Eu121 2.471 . S
O135 C150 1.244 . S
O136 Eu121 2.349 . S
O136 C137 1.265 . S
C137 O133 1.244 . S
C137 O136 1.265 . S
O138 Eu120 2.373 . S
O138 C151 1.258 . S
O139 Eu121 2.392 . S
O139 C151 1.242 . S
O140 Eu121 2.418 . S
O140 C122 1.244 . S
O141 Eu120 2.488 . S
O141 C129 1.249 1_556 S
O142 Eu120 2.471 . S
O142 C129 1.244 1_556 S
O143 Eu120 2.349 . S
O143 C122 1.265 . S
C144 C145 1.379 . S
C144 C148 1.373 . S
C144 C150 1.505 . S
C145 C144 1.379 . S
C145 C147 1.369 . S
C145 H156 0.930 . S
C146 C148 1.383 . S
C146 C149 1.382 . S
C146 H157 0.930 . S
C147 C145 1.369 . S
C147 C149 1.392 . S
C147 H158 0.930 . S
C148 C144 1.373 . S
C148 C146 1.383 . S
C148 H159 0.931 . S
C149 C146 1.382 . S
C149 C147 1.392 . S
C150 Eu121 2.828 . S
C150 O134 1.249 . S
C150 O135 1.244 . S
C150 C144 1.505 . S
C151 O138 1.258 . S
C151 O139 1.242 . S
H152 C124 0.930 . S
H153 C125 0.930 . S
H154 C126 0.930 . S
H155 C127 0.931 . S
H156 C145 0.930 . S
H157 C146 0.930 . S
H158 C147 0.930 . S
H159 C148 0.931 . S
Eu160 C169 2.828 1_554 S
Eu160 O171 2.392 . S
Eu160 O173 2.418 . S
Eu160 O178 2.373 . S
Eu160 O181 2.488 1_554 S
Eu160 O182 2.451 1_554 S
Eu160 O183 2.349 . S
Eu161 O170 2.373 . S
Eu161 O174 2.488 . S
Eu161 O175 2.471 . S
Eu161 O176 2.349 . S
Eu161 O179 2.392 . S
Eu161 O180 2.418 . S
Eu161 C190 2.828 . S
C162 O180 1.244 . S
C162 O183 1.265 . S
C163 C164 1.379 . S
C163 C167 1.373 . S
C163 C169 1.505 . S
C164 C163 1.379 . S
C164 C166 1.369 . S
C164 H192 0.930 . S
C165 C167 1.383 . S
C165 C168 1.382 . S
C165 H193 0.930 . S
C166 C164 1.369 . S
C166 C168 1.392 . S
C166 H194 0.930 . S
C167 C163 1.373 . S
C167 C165 1.383 . S
C167 H195 0.931 . S
C168 C165 1.382 . S
C168 C166 1.392 . S
C169 Eu160 2.828 1_556 S
C169 C163 1.505 . S
C169 O181 1.249 . S
C169 O182 1.257 . S
O170 Eu161 2.373 . S
O170 C172 1.258 . S
O171 Eu160 2.392 . S
O171 C172 1.242 . S
C172 O170 1.258 . S
C172 O171 1.242 . S
O173 Eu160 2.418 . S
O173 C177 1.244 . S
O174 Eu161 2.488 . S
O174 C190 1.249 . S
O175 Eu161 2.471 . S
O175 C190 1.244 . S
O176 Eu161 2.349 . S
O176 C177 1.265 . S
C177 O173 1.244 . S
C177 O176 1.265 . S
O178 Eu160 2.373 . S
O178 C191 1.258 . S
O179 Eu161 2.392 . S
O179 C191 1.242 . S
O180 Eu161 2.418 . S
O180 C162 1.244 . S
O181 Eu160 2.488 1_556 S
O181 C169 1.249 . S
O182 Eu160 2.451 1_556 S
O182 C169 1.257 . S
O183 Eu160 2.349 . S
O183 C162 1.265 . S
C184 C185 1.379 . S
C184 C188 1.373 . S
C184 C190 1.505 . S
C185 C184 1.379 . S
C185 C187 1.369 . S
C185 H196 0.930 . S
C186 C188 1.383 . S
C186 C189 1.382 . S
C186 H197 0.930 . S
C187 C185 1.369 . S
C187 C189 1.392 . S
C187 H198 0.930 . S
C188 C184 1.373 . S
C188 C186 1.383 . S
C188 H199 0.931 . S
C189 C186 1.382 . S
C189 C187 1.392 . S
C190 Eu161 2.828 . S
C190 O174 1.249 . S
C190 O175 1.244 . S
C190 C184 1.505 . S
C191 O178 1.258 . S
C191 O179 1.242 . S
H192 C164 0.930 . S
H193 C165 0.930 . S
H194 C166 0.930 . S
H195 C167 0.931 . S
H196 C185 0.930 . S
H197 C186 0.930 . S
H198 C187 0.930 . S
H199 C188 0.931 . S
Eu200 C209 2.828 . S
Eu200 O211 2.392 . S
Eu200 O213 2.418 . S
Eu200 O218 2.373 . S
Eu200 O221 2.488 . S
Eu200 O222 2.471 . S
Eu200 O223 2.349 . S
Eu201 O210 2.373 . S
Eu201 O214 2.488 1_556 S
Eu201 O215 2.451 1_556 S
Eu201 O216 2.349 . S
Eu201 O219 2.392 . S
Eu201 O220 2.418 . S
Eu201 C230 2.828 1_556 S
C202 O220 1.244 . S
C202 O223 1.265 . S
C203 C204 1.379 . S
C203 C207 1.373 . S
C203 C209 1.505 . S
C204 C203 1.379 . S
C204 C206 1.369 . S
C204 H232 0.930 . S
C205 C207 1.383 . S
C205 C208 1.382 . S
C205 H233 0.930 . S
C206 C204 1.369 . S
C206 C208 1.392 . S
C206 H234 0.930 . S
C207 C203 1.373 . S
C207 C205 1.383 . S
C207 H235 0.931 . S
C208 C205 1.382 . S
C208 C206 1.392 . S
C209 Eu200 2.828 . S
C209 C203 1.505 . S
C209 O221 1.249 . S
C209 O222 1.244 . S
O210 Eu201 2.373 . S
O210 C212 1.258 . S
O211 Eu200 2.392 . S
O211 C212 1.242 . S
C212 O210 1.258 . S
C212 O211 1.242 . S
O213 Eu200 2.418 . S
O213 C217 1.244 . S
O214 Eu201 2.488 1_554 S
O214 C230 1.249 . S
O215 Eu201 2.451 1_554 S
O215 C230 1.257 . S
O216 Eu201 2.349 . S
O216 C217 1.265 . S
C217 O213 1.244 . S
C217 O216 1.265 . S
O218 Eu200 2.373 . S
O218 C231 1.258 . S
O219 Eu201 2.392 . S
O219 C231 1.242 . S
O220 Eu201 2.418 . S
O220 C202 1.244 . S
O221 Eu200 2.488 . S
O221 C209 1.249 . S
O222 Eu200 2.471 . S
O222 C209 1.244 . S
O223 Eu200 2.349 . S
O223 C202 1.265 . S
C224 C225 1.379 . S
C224 C228 1.373 . S
C224 C230 1.505 . S
C225 C224 1.379 . S
C225 C227 1.369 . S
C225 H236 0.930 . S
C226 C228 1.383 . S
C226 C229 1.382 . S
C226 H237 0.930 . S
C227 C225 1.369 . S
C227 C229 1.392 . S
C227 H238 0.930 . S
C228 C224 1.373 . S
C228 C226 1.383 . S
C228 H239 0.931 . S
C229 C226 1.382 . S
C229 C227 1.392 . S
C230 Eu201 2.828 1_554 S
C230 O214 1.249 . S
C230 O215 1.257 . S
C230 C224 1.505 . S
C231 O218 1.258 . S
C231 O219 1.242 . S
H232 C204 0.930 . S
H233 C205 0.930 . S
H234 C206 0.930 . S
H235 C207 0.931 . S
H236 C225 0.930 . S
H237 C226 0.930 . S
H238 C227 0.930 . S
H239 C228 0.931 . S
Eu240 C249 2.828 1_554 S
Eu240 O251 2.392 . S
Eu240 O253 2.418 . S
Eu240 O258 2.373 . S
Eu240 O261 2.488 1_554 S
Eu240 O262 2.451 1_554 S
Eu240 O263 2.349 . S
Eu241 O250 2.373 . S
Eu241 O254 2.488 . S
Eu241 O255 2.471 . S
Eu241 O256 2.349 . S
Eu241 O259 2.392 . S
Eu241 O260 2.418 . S
Eu241 C270 2.828 . S
C242 O260 1.244 . S
C242 O263 1.265 . S
C243 C244 1.379 . S
C243 C247 1.373 . S
C243 C249 1.505 . S
C244 C243 1.379 . S
C244 C246 1.369 . S
C244 H272 0.930 . S
C245 C247 1.383 . S
C245 C248 1.382 . S
C245 H273 0.930 . S
C246 C244 1.369 . S
C246 C248 1.392 . S
C246 H274 0.930 . S
C247 C243 1.373 . S
C247 C245 1.383 . S
C247 H275 0.931 . S
C248 C245 1.382 . S
C248 C246 1.392 . S
C249 Eu240 2.828 1_556 S
C249 C243 1.505 . S
C249 O261 1.249 . S
C249 O262 1.257 . S
O250 Eu241 2.373 . S
O250 C252 1.258 . S
O251 Eu240 2.392 . S
O251 C252 1.242 . S
C252 O250 1.258 . S
C252 O251 1.242 . S
O253 Eu240 2.418 . S
O253 C257 1.244 . S
O254 Eu241 2.488 . S
O254 C270 1.249 . S
O255 Eu241 2.471 . S
O255 C270 1.244 . S
O256 Eu241 2.349 . S
O256 C257 1.265 . S
C257 O253 1.244 . S
C257 O256 1.265 . S
O258 Eu240 2.373 . S
O258 C271 1.258 . S
O259 Eu241 2.392 . S
O259 C271 1.242 . S
O260 Eu241 2.418 . S
O260 C242 1.244 . S
O261 Eu240 2.488 1_556 S
O261 C249 1.249 . S
O262 Eu240 2.451 1_556 S
O262 C249 1.257 . S
O263 Eu240 2.349 . S
O263 C242 1.265 . S
C264 C265 1.379 . S
C264 C268 1.373 . S
C264 C270 1.505 . S
C265 C264 1.379 . S
C265 C267 1.369 . S
C265 H276 0.930 . S
C266 C268 1.383 . S
C266 C269 1.382 . S
C266 H277 0.930 . S
C267 C265 1.369 . S
C267 C269 1.392 . S
C267 H278 0.930 . S
C268 C264 1.373 . S
C268 C266 1.383 . S
C268 H279 0.931 . S
C269 C266 1.382 . S
C269 C267 1.392 . S
C270 Eu241 2.828 . S
C270 O254 1.249 . S
C270 O255 1.244 . S
C270 C264 1.505 . S
C271 O258 1.258 . S
C271 O259 1.242 . S
H272 C244 0.930 . S
H273 C245 0.930 . S
H274 C246 0.930 . S
H275 C247 0.931 . S
H276 C265 0.930 . S
H277 C266 0.930 . S
H278 C267 0.930 . S
H279 C268 0.931 . S
Eu280 C289 2.828 . S
Eu280 O291 2.392 . S
Eu280 O293 2.418 . S
Eu280 O298 2.373 . S
Eu280 O301 2.488 . S
Eu280 O302 2.471 . S
Eu280 O303 2.349 . S
Eu281 O290 2.373 . S
Eu281 O294 2.488 1_556 S
Eu281 O295 2.451 1_556 S
Eu281 O296 2.349 . S
Eu281 O299 2.392 . S
Eu281 O300 2.418 . S
Eu281 C310 2.828 1_556 S
C282 O300 1.244 . S
C282 O303 1.265 . S
C283 C284 1.379 . S
C283 C287 1.373 . S
C283 C289 1.505 . S
C284 C283 1.379 . S
C284 C286 1.369 . S
C284 H312 0.930 . S
C285 C287 1.383 . S
C285 C288 1.382 . S
C285 H313 0.930 . S
C286 C284 1.369 . S
C286 C288 1.392 . S
C286 H314 0.930 . S
C287 C283 1.373 . S
C287 C285 1.383 . S
C287 H315 0.931 . S
C288 C285 1.382 . S
C288 C286 1.392 . S
C289 Eu280 2.828 . S
C289 C283 1.505 . S
C289 O301 1.249 . S
C289 O302 1.244 . S
O290 Eu281 2.373 . S
O290 C292 1.258 . S
O291 Eu280 2.392 . S
O291 C292 1.242 . S
C292 O290 1.258 . S
C292 O291 1.242 . S
O293 Eu280 2.418 . S
O293 C297 1.244 . S
O294 Eu281 2.488 1_554 S
O294 C310 1.249 . S
O295 Eu281 2.451 1_554 S
O295 C310 1.257 . S
O296 Eu281 2.349 . S
O296 C297 1.265 . S
C297 O293 1.244 . S
C297 O296 1.265 . S
O298 Eu280 2.373 . S
O298 C311 1.258 . S
O299 Eu281 2.392 . S
O299 C311 1.242 . S
O300 Eu281 2.418 . S
O300 C282 1.244 . S
O301 Eu280 2.488 . S
O301 C289 1.249 . S
O302 Eu280 2.471 . S
O302 C289 1.244 . S
O303 Eu280 2.349 . S
O303 C282 1.265 . S
C304 C305 1.379 . S
C304 C308 1.373 . S
C304 C310 1.505 . S
C305 C304 1.379 . S
C305 C307 1.369 . S
C305 H316 0.930 . S
C306 C308 1.383 . S
C306 C309 1.382 . S
C306 H317 0.930 . S
C307 C305 1.369 . S
C307 C309 1.392 . S
C307 H318 0.930 . S
C308 C304 1.373 . S
C308 C306 1.383 . S
C308 H319 0.931 . S
C309 C306 1.382 . S
C309 C307 1.392 . S
C310 Eu281 2.828 1_554 S
C310 O294 1.249 . S
C310 O295 1.257 . S
C310 C304 1.505 . S
C311 O298 1.258 . S
C311 O299 1.242 . S
H312 C284 0.930 . S
H313 C285 0.930 . S
H314 C286 0.930 . S
H315 C287 0.931 . S
H316 C305 0.930 . S
H317 C306 0.930 . S
H318 C307 0.930 . S
H319 C308 0.931 . S
Eu320 C329 2.828 . S
Eu320 O331 2.392 . S
Eu320 O333 2.418 . S
Eu320 O338 2.373 . S
Eu320 O341 2.488 . S
Eu320 O342 2.471 . S
Eu320 O343 2.349 . S
Eu321 O330 2.373 . S
Eu321 O334 2.488 . S
Eu321 O335 2.471 . S
Eu321 O336 2.349 . S
Eu321 O339 2.392 . S
Eu321 O340 2.418 . S
Eu321 C350 2.828 . S
C322 O340 1.244 . S
C322 O343 1.265 . S
C323 C324 1.379 . S
C323 C327 1.373 . S
C323 C329 1.505 . S
C324 C323 1.379 . S
C324 C326 1.369 . S
C324 H352 0.930 . S
C325 C327 1.383 . S
C325 C328 1.382 . S
C325 H353 0.930 . S
C326 C324 1.369 . S
C326 C328 1.392 . S
C326 H354 0.930 . S
C327 C323 1.373 . S
C327 C325 1.383 . S
C327 H355 0.931 . S
C328 C325 1.382 . S
C328 C326 1.392 . S
C329 Eu320 2.828 . S
C329 C323 1.505 . S
C329 O341 1.249 . S
C329 O342 1.244 . S
O330 Eu321 2.373 . S
O330 C332 1.258 . S
O331 Eu320 2.392 . S
O331 C332 1.242 . S
C332 O330 1.258 . S
C332 O331 1.242 . S
O333 Eu320 2.418 . S
O333 C337 1.244 . S
O334 Eu321 2.488 . S
O334 C350 1.249 . S
O335 Eu321 2.471 . S
O335 C350 1.244 . S
O336 Eu321 2.349 . S
O336 C337 1.265 . S
C337 O333 1.244 . S
C337 O336 1.265 . S
O338 Eu320 2.373 . S
O338 C351 1.258 . S
O339 Eu321 2.392 . S
O339 C351 1.242 . S
O340 Eu321 2.418 . S
O340 C322 1.244 . S
O341 Eu320 2.488 . S
O341 C329 1.249 . S
O342 Eu320 2.471 . S
O342 C329 1.244 . S
O343 Eu320 2.349 . S
O343 C322 1.265 . S
C344 C345 1.379 . S
C344 C348 1.373 . S
C344 C350 1.505 . S
C345 C344 1.379 . S
C345 C347 1.369 . S
C345 H356 0.930 . S
C346 C348 1.383 . S
C346 C349 1.382 . S
C346 H357 0.930 . S
C347 C345 1.369 . S
C347 C349 1.392 . S
C347 H358 0.930 . S
C348 C344 1.373 . S
C348 C346 1.383 . S
C348 H359 0.931 . S
C349 C346 1.382 . S
C349 C347 1.392 . S
C350 Eu321 2.828 . S
C350 O334 1.249 . S
C350 O335 1.244 . S
C350 C344 1.505 . S
C351 O338 1.258 . S
C351 O339 1.242 . S
H352 C324 0.930 . S
H353 C325 0.930 . S
H354 C326 0.930 . S
H355 C327 0.931 . S
H356 C345 0.930 . S
H357 C346 0.930 . S
H358 C347 0.930 . S
H359 C348 0.931 . S
Eu360 C369 2.828 . S
Eu360 O371 2.392 . S
Eu360 O373 2.418 . S
Eu360 O378 2.373 . S
Eu360 O381 2.488 . S
Eu360 O382 2.471 . S
Eu360 O383 2.349 . S
Eu361 O370 2.373 . S
Eu361 O374 2.488 . S
Eu361 O375 2.471 . S
Eu361 O376 2.349 . S
Eu361 O379 2.392 . S
Eu361 O380 2.418 . S
Eu361 C390 2.828 . S
C362 O380 1.244 . S
C362 O383 1.265 . S
C363 C364 1.379 . S
C363 C367 1.373 . S
C363 C369 1.505 . S
C364 C363 1.379 . S
C364 C366 1.369 . S
C364 H392 0.930 . S
C365 C367 1.383 . S
C365 C368 1.382 . S
C365 H393 0.930 . S
C366 C364 1.369 . S
C366 C368 1.392 . S
C366 H394 0.930 . S
C367 C363 1.373 . S
C367 C365 1.383 . S
C367 H395 0.931 . S
C368 C365 1.382 . S
C368 C366 1.392 . S
C369 Eu360 2.828 . S
C369 C363 1.505 . S
C369 O381 1.249 . S
C369 O382 1.244 . S
O370 Eu361 2.373 . S
O370 C372 1.258 . S
O371 Eu360 2.392 . S
O371 C372 1.242 . S
C372 O370 1.258 . S
C372 O371 1.242 . S
O373 Eu360 2.418 . S
O373 C377 1.244 . S
O374 Eu361 2.488 . S
O374 C390 1.249 . S
O375 Eu361 2.471 . S
O375 C390 1.244 . S
O376 Eu361 2.349 . S
O376 C377 1.265 . S
C377 O373 1.244 . S
C377 O376 1.265 . S
O378 Eu360 2.373 . S
O378 C391 1.258 . S
O379 Eu361 2.392 . S
O379 C391 1.242 . S
O380 Eu361 2.418 . S
O380 C362 1.244 . S
O381 Eu360 2.488 . S
O381 C369 1.249 . S
O382 Eu360 2.471 . S
O382 C369 1.244 . S
O383 Eu360 2.349 . S
O383 C362 1.265 . S
C384 C385 1.379 . S
C384 C388 1.373 . S
C384 C390 1.505 . S
C385 C384 1.379 . S
C385 C387 1.369 . S
C385 H396 0.930 . S
C386 C388 1.383 . S
C386 C389 1.382 . S
C386 H397 0.930 . S
C387 C385 1.369 . S
C387 C389 1.392 . S
C387 H398 0.930 . S
C388 C384 1.373 . S
C388 C386 1.383 . S
C388 H399 0.931 . S
C389 C386 1.382 . S
C389 C387 1.392 . S
C390 Eu361 2.828 . S
C390 O374 1.249 . S
C390 O375 1.244 . S
C390 C384 1.505 . S
C391 O378 1.258 . S
C391 O379 1.242 . S
H392 C364 0.930 . S
H393 C365 0.930 . S
H394 C366 0.930 . S
H395 C367 0.931 . S
H396 C385 0.930 . S
H397 C386 0.930 . S
H398 C387 0.930 . S
H399 C388 0.931 . S
Eu400 C409 2.828 . S
Eu400 O411 2.392 . S
Eu400 O413 2.418 . S
Eu400 O418 2.373 . S
Eu400 O421 2.488 . S
Eu400 O422 2.471 . S
Eu400 O423 2.349 . S
Eu401 O410 2.373 . S
Eu401 O414 2.488 . S
Eu401 O415 2.471 . S
Eu401 O416 2.349 . S
Eu401 O419 2.392 . S
Eu401 O420 2.418 . S
Eu401 C430 2.828 . S
C402 O420 1.244 . S
C402 O423 1.265 . S
C403 C404 1.379 . S
C403 C407 1.373 . S
C403 C409 1.505 . S
C404 C403 1.379 . S
C404 C406 1.369 . S
C404 H432 0.930 . S
C405 C407 1.383 . S
C405 C408 1.382 . S
C405 H433 0.930 . S
C406 C404 1.369 . S
C406 C408 1.392 . S
C406 H434 0.930 . S
C407 C403 1.373 . S
C407 C405 1.383 . S
C407 H435 0.931 . S
C408 C405 1.382 . S
C408 C406 1.392 . S
C409 Eu400 2.828 . S
C409 C403 1.505 . S
C409 O421 1.249 . S
C409 O422 1.244 . S
O410 Eu401 2.373 . S
O410 C412 1.258 . S
O411 Eu400 2.392 . S
O411 C412 1.242 . S
C412 O410 1.258 . S
C412 O411 1.242 . S
O413 Eu400 2.418 . S
O413 C417 1.244 . S
O414 Eu401 2.488 . S
O414 C430 1.249 . S
O415 Eu401 2.471 . S
O415 C430 1.244 . S
O416 Eu401 2.349 . S
O416 C417 1.265 . S
C417 O413 1.244 . S
C417 O416 1.265 . S
O418 Eu400 2.373 . S
O418 C431 1.258 . S
O419 Eu401 2.392 . S
O419 C431 1.242 . S
O420 Eu401 2.418 . S
O420 C402 1.244 . S
O421 Eu400 2.488 . S
O421 C409 1.249 . S
O422 Eu400 2.471 . S
O422 C409 1.244 . S
O423 Eu400 2.349 . S
O423 C402 1.265 . S
C424 C425 1.379 . S
C424 C428 1.373 . S
C424 C430 1.505 . S
C425 C424 1.379 . S
C425 C427 1.369 . S
C425 H436 0.930 . S
C426 C428 1.383 . S
C426 C429 1.382 . S
C426 H437 0.930 . S
C427 C425 1.369 . S
C427 C429 1.392 . S
C427 H438 0.930 . S
C428 C424 1.373 . S
C428 C426 1.383 . S
C428 H439 0.931 . S
C429 C426 1.382 . S
C429 C427 1.392 . S
C430 Eu401 2.828 . S
C430 O414 1.249 . S
C430 O415 1.244 . S
C430 C424 1.505 . S
C431 O418 1.258 . S
C431 O419 1.242 . S
H432 C404 0.930 . S
H433 C405 0.930 . S
H434 C406 0.930 . S
H435 C407 0.931 . S
H436 C425 0.930 . S
H437 C426 0.930 . S
H438 C427 0.930 . S
H439 C428 0.931 . S
Eu440 C449 2.828 . S
Eu440 O451 2.392 . S
Eu440 O453 2.418 . S
Eu440 O458 2.373 . S
Eu440 O461 2.488 . S
Eu440 O462 2.471 . S
Eu440 O463 2.349 . S
Eu441 O450 2.373 . S
Eu441 O454 2.488 . S
Eu441 O455 2.471 . S
Eu441 O456 2.349 . S
Eu441 O459 2.392 . S
Eu441 O460 2.418 . S
Eu441 C470 2.828 . S
C442 O460 1.244 . S
C442 O463 1.265 . S
C443 C444 1.379 . S
C443 C447 1.373 . S
C443 C449 1.505 . S
C444 C443 1.379 . S
C444 C446 1.369 . S
C444 H472 0.930 . S
C445 C447 1.383 . S
C445 C448 1.382 . S
C445 H473 0.930 . S
C446 C444 1.369 . S
C446 C448 1.392 . S
C446 H474 0.930 . S
C447 C443 1.373 . S
C447 C445 1.383 . S
C447 H475 0.931 . S
C448 C445 1.382 . S
C448 C446 1.392 . S
C449 Eu440 2.828 . S
C449 C443 1.505 . S
C449 O461 1.249 . S
C449 O462 1.244 . S
O450 Eu441 2.373 . S
O450 C452 1.258 . S
O451 Eu440 2.392 . S
O451 C452 1.242 . S
C452 O450 1.258 . S
C452 O451 1.242 . S
O453 Eu440 2.418 . S
O453 C457 1.244 . S
O454 Eu441 2.488 . S
O454 C470 1.249 . S
O455 Eu441 2.471 . S
O455 C470 1.244 . S
O456 Eu441 2.349 . S
O456 C457 1.265 . S
C457 O453 1.244 . S
C457 O456 1.265 . S
O458 Eu440 2.373 . S
O458 C471 1.258 . S
O459 Eu441 2.392 . S
O459 C471 1.242 . S
O460 Eu441 2.418 . S
O460 C442 1.244 . S
O461 Eu440 2.488 . S
O461 C449 1.249 . S
O462 Eu440 2.471 . S
O462 C449 1.244 . S
O463 Eu440 2.349 . S
O463 C442 1.265 . S
C464 C465 1.379 . S
C464 C468 1.373 . S
C464 C470 1.505 . S
C465 C464 1.379 . S
C465 C467 1.369 . S
C465 H476 0.930 . S
C466 C468 1.383 . S
C466 C469 1.382 . S
C466 H477 0.930 . S
C467 C465 1.369 . S
C467 C469 1.392 . S
C467 H478 0.930 . S
C468 C464 1.373 . S
C468 C466 1.383 . S
C468 H479 0.931 . S
C469 C466 1.382 . S
C469 C467 1.392 . S
C470 Eu441 2.828 . S
C470 O454 1.249 . S
C470 O455 1.244 . S
C470 C464 1.505 . S
C471 O458 1.258 . S
C471 O459 1.242 . S
H472 C444 0.930 . S
H473 C445 0.930 . S
H474 C446 0.930 . S
H475 C447 0.931 . S
H476 C465 0.930 . S
H477 C466 0.930 . S
H478 C467 0.930 . S
H479 C468 0.931 . S
Eu480 C489 2.828 . S
Eu480 O491 2.392 . S
Eu480 O493 2.418 . S
Eu480 O498 2.373 . S
Eu480 O501 2.488 . S
Eu480 O502 2.471 . S
Eu480 O503 2.349 . S
Eu481 O490 2.373 . S
Eu481 O494 2.488 . S
Eu481 O495 2.471 . S
Eu481 O496 2.349 . S
Eu481 O499 2.392 . S
Eu481 O500 2.418 . S
Eu481 C510 2.828 . S
C482 O500 1.244 . S
C482 O503 1.265 . S
C483 C484 1.379 . S
C483 C487 1.373 . S
C483 C489 1.505 . S
C484 C483 1.379 . S
C484 C486 1.369 . S
C484 H512 0.930 . S
C485 C487 1.383 . S
C485 C488 1.382 . S
C485 H513 0.930 . S
C486 C484 1.369 . S
C486 C488 1.392 . S
C486 H514 0.930 . S
C487 C483 1.373 . S
C487 C485 1.383 . S
C487 H515 0.931 . S
C488 C485 1.382 . S
C488 C486 1.392 . S
C489 Eu480 2.828 . S
C489 C483 1.505 . S
C489 O501 1.249 . S
C489 O502 1.244 . S
O490 Eu481 2.373 . S
O490 C492 1.258 . S
O491 Eu480 2.392 . S
O491 C492 1.242 . S
C492 O490 1.258 . S
C492 O491 1.242 . S
O493 Eu480 2.418 . S
O493 C497 1.244 . S
O494 Eu481 2.488 . S
O494 C510 1.249 . S
O495 Eu481 2.471 . S
O495 C510 1.244 . S
O496 Eu481 2.349 . S
O496 C497 1.265 . S
C497 O493 1.244 . S
C497 O496 1.265 . S
O498 Eu480 2.373 . S
O498 C511 1.258 . S
O499 Eu481 2.392 . S
O499 C511 1.242 . S
O500 Eu481 2.418 . S
O500 C482 1.244 . S
O501 Eu480 2.488 . S
O501 C489 1.249 . S
O502 Eu480 2.471 . S
O502 C489 1.244 . S
O503 Eu480 2.349 . S
O503 C482 1.265 . S
C504 C505 1.379 . S
C504 C508 1.373 . S
C504 C510 1.505 . S
C505 C504 1.379 . S
C505 C507 1.369 . S
C505 H516 0.930 . S
C506 C508 1.383 . S
C506 C509 1.382 . S
C506 H517 0.930 . S
C507 C505 1.369 . S
C507 C509 1.392 . S
C507 H518 0.930 . S
C508 C504 1.373 . S
C508 C506 1.383 . S
C508 H519 0.931 . S
C509 C506 1.382 . S
C509 C507 1.392 . S
C510 Eu481 2.828 . S
C510 O494 1.249 . S
C510 O495 1.244 . S
C510 C504 1.505 . S
C511 O498 1.258 . S
C511 O499 1.242 . S
H512 C484 0.930 . S
H513 C485 0.930 . S
H514 C486 0.930 . S
H515 C487 0.931 . S
H516 C505 0.930 . S
H517 C506 0.930 . S
H518 C507 0.930 . S
H519 C508 0.931 . S
Eu520 C529 2.828 . S
Eu520 O531 2.392 . S
Eu520 O533 2.418 . S
Eu520 O538 2.373 . S
Eu520 O541 2.488 . S
Eu520 O542 2.471 . S
Eu520 O543 2.349 . S
Eu521 O530 2.373 . S
Eu521 O534 2.488 . S
Eu521 O535 2.471 . S
Eu521 O536 2.349 . S
Eu521 O539 2.392 . S
Eu521 O540 2.418 . S
Eu521 C550 2.828 . S
C522 O540 1.244 . S
C522 O543 1.265 . S
C523 C524 1.379 . S
C523 C527 1.373 . S
C523 C529 1.505 . S
C524 C523 1.379 . S
C524 C526 1.369 . S
C524 H552 0.930 . S
C525 C527 1.383 . S
C525 C528 1.382 . S
C525 H553 0.930 . S
C526 C524 1.369 . S
C526 C528 1.392 . S
C526 H554 0.930 . S
C527 C523 1.373 . S
C527 C525 1.383 . S
C527 H555 0.931 . S
C528 C525 1.382 . S
C528 C526 1.392 . S
C529 Eu520 2.828 . S
C529 C523 1.505 . S
C529 O541 1.249 . S
C529 O542 1.244 . S
O530 Eu521 2.373 . S
O530 C532 1.258 . S
O531 Eu520 2.392 . S
O531 C532 1.242 . S
C532 O530 1.258 . S
C532 O531 1.242 . S
O533 Eu520 2.418 . S
O533 C537 1.244 . S
O534 Eu521 2.488 . S
O534 C550 1.249 . S
O535 Eu521 2.471 . S
O535 C550 1.244 . S
O536 Eu521 2.349 . S
O536 C537 1.265 . S
C537 O533 1.244 . S
C537 O536 1.265 . S
O538 Eu520 2.373 . S
O538 C551 1.258 . S
O539 Eu521 2.392 . S
O539 C551 1.242 . S
O540 Eu521 2.418 . S
O540 C522 1.244 . S
O541 Eu520 2.488 . S
O541 C529 1.249 . S
O542 Eu520 2.471 . S
O542 C529 1.244 . S
O543 Eu520 2.349 . S
O543 C522 1.265 . S
C544 C545 1.379 . S
C544 C548 1.373 . S
C544 C550 1.505 . S
C545 C544 1.379 . S
C545 C547 1.369 . S
C545 H556 0.930 . S
C546 C548 1.383 . S
C546 C549 1.382 . S
C546 H557 0.930 . S
C547 C545 1.369 . S
C547 C549 1.392 . S
C547 H558 0.930 . S
C548 C544 1.373 . S
C548 C546 1.383 . S
C548 H559 0.931 . S
C549 C546 1.382 . S
C549 C547 1.392 . S
C550 Eu521 2.828 . S
C550 O534 1.249 . S
C550 O535 1.244 . S
C550 C544 1.505 . S
C551 O538 1.258 . S
C551 O539 1.242 . S
H552 C524 0.930 . S
H553 C525 0.930 . S
H554 C526 0.930 . S
H555 C527 0.931 . S
H556 C545 0.930 . S
H557 C546 0.930 . S
H558 C547 0.930 . S
H559 C548 0.931 . S
Eu560 C569 2.828 . S
Eu560 O571 2.392 . S
Eu560 O573 2.418 . S
Eu560 O578 2.373 . S
Eu560 O581 2.488 . S
Eu560 O582 2.471 . S
Eu560 O583 2.349 . S
Eu561 O570 2.373 . S
Eu561 O574 2.488 . S
Eu561 O575 2.471 . S
Eu561 O576 2.349 . S
Eu561 O579 2.392 . S
Eu561 O580 2.418 . S
Eu561 C590 2.828 . S
C562 O580 1.244 . S
C562 O583 1.265 . S
C563 C564 1.379 . S
C563 C567 1.373 . S
C563 C569 1.505 . S
C564 C563 1.379 . S
C564 C566 1.369 . S
C564 H592 0.930 . S
C565 C567 1.383 . S
C565 C568 1.382 . S
C565 H593 0.930 . S
C566 C564 1.369 . S
C566 C568 1.392 . S
C566 H594 0.930 . S
C567 C563 1.373 . S
C567 C565 1.383 . S
C567 H595 0.931 . S
C568 C565 1.382 . S
C568 C566 1.392 . S
C569 Eu560 2.828 . S
C569 C563 1.505 . S
C569 O581 1.249 . S
C569 O582 1.244 . S
O570 Eu561 2.373 . S
O570 C572 1.258 . S
O571 Eu560 2.392 . S
O571 C572 1.242 . S
C572 O570 1.258 . S
C572 O571 1.242 . S
O573 Eu560 2.418 . S
O573 C577 1.244 . S
O574 Eu561 2.488 . S
O574 C590 1.249 . S
O575 Eu561 2.471 . S
O575 C590 1.244 . S
O576 Eu561 2.349 . S
O576 C577 1.265 . S
C577 O573 1.244 . S
C577 O576 1.265 . S
O578 Eu560 2.373 . S
O578 C591 1.258 . S
O579 Eu561 2.392 . S
O579 C591 1.242 . S
O580 Eu561 2.418 . S
O580 C562 1.244 . S
O581 Eu560 2.488 . S
O581 C569 1.249 . S
O582 Eu560 2.471 . S
O582 C569 1.244 . S
O583 Eu560 2.349 . S
O583 C562 1.265 . S
C584 C585 1.379 . S
C584 C588 1.373 . S
C584 C590 1.505 . S
C585 C584 1.379 . S
C585 C587 1.369 . S
C585 H596 0.930 . S
C586 C588 1.383 . S
C586 C589 1.382 . S
C586 H597 0.930 . S
C587 C585 1.369 . S
C587 C589 1.392 . S
C587 H598 0.930 . S
C588 C584 1.373 . S
C588 C586 1.383 . S
C588 H599 0.931 . S
C589 C586 1.382 . S
C589 C587 1.392 . S
C590 Eu561 2.828 . S
C590 O574 1.249 . S
C590 O575 1.244 . S
C590 C584 1.505 . S
C591 O578 1.258 . S
C591 O579 1.242 . S
H592 C564 0.930 . S
H593 C565 0.930 . S
H594 C566 0.930 . S
H595 C567 0.931 . S
H596 C585 0.930 . S
H597 C586 0.930 . S
H598 C587 0.930 . S
H599 C588 0.931 . S
Eu600 C609 2.828 . S
Eu600 O611 2.392 . S
Eu600 O613 2.418 . S
Eu600 O618 2.373 . S
Eu600 O621 2.488 . S
Eu600 O622 2.471 . S
Eu600 O623 2.349 . S
Eu601 O610 2.373 . S
Eu601 O614 2.488 . S
Eu601 O615 2.471 . S
Eu601 O616 2.349 . S
Eu601 O619 2.392 . S
Eu601 O620 2.418 . S
Eu601 C630 2.828 . S
C602 O620 1.244 . S
C602 O623 1.265 . S
C603 C604 1.379 . S
C603 C607 1.373 . S
C603 C609 1.505 . S
C604 C603 1.379 . S
C604 C606 1.369 . S
C604 H632 0.930 . S
C605 C607 1.383 . S
C605 C608 1.382 . S
C605 H633 0.930 . S
C606 C604 1.369 . S
C606 C608 1.392 . S
C606 H634 0.930 . S
C607 C603 1.373 . S
C607 C605 1.383 . S
C607 H635 0.931 . S
C608 C605 1.382 . S
C608 C606 1.392 . S
C609 Eu600 2.828 . S
C609 C603 1.505 . S
C609 O621 1.249 . S
C609 O622 1.244 . S
O610 Eu601 2.373 . S
O610 C612 1.258 . S
O611 Eu600 2.392 . S
O611 C612 1.242 . S
C612 O610 1.258 . S
C612 O611 1.242 . S
O613 Eu600 2.418 . S
O613 C617 1.244 . S
O614 Eu601 2.488 . S
O614 C630 1.249 . S
O615 Eu601 2.471 . S
O615 C630 1.244 . S
O616 Eu601 2.349 . S
O616 C617 1.265 . S
C617 O613 1.244 . S
C617 O616 1.265 . S
O618 Eu600 2.373 . S
O618 C631 1.258 . S
O619 Eu601 2.392 . S
O619 C631 1.242 . S
O620 Eu601 2.418 . S
O620 C602 1.244 . S
O621 Eu600 2.488 . S
O621 C609 1.249 . S
O622 Eu600 2.471 . S
O622 C609 1.244 . S
O623 Eu600 2.349 . S
O623 C602 1.265 . S
C624 C625 1.379 . S
C624 C628 1.373 . S
C624 C630 1.505 . S
C625 C624 1.379 . S
C625 C627 1.369 . S
C625 H636 0.930 . S
C626 C628 1.383 . S
C626 C629 1.382 . S
C626 H637 0.930 . S
C627 C625 1.369 . S
C627 C629 1.392 . S
C627 H638 0.930 . S
C628 C624 1.373 . S
C628 C626 1.383 . S
C628 H639 0.931 . S
C629 C626 1.382 . S
C629 C627 1.392 . S
C630 Eu601 2.828 . S
C630 O614 1.249 . S
C630 O615 1.244 . S
C630 C624 1.505 . S
C631 O618 1.258 . S
C631 O619 1.242 . S
H632 C604 0.930 . S
H633 C605 0.930 . S
H634 C606 0.930 . S
H635 C607 0.931 . S
H636 C625 0.930 . S
H637 C626 0.930 . S
H638 C627 0.930 . S
H639 C628 0.931 . S
C640 C641 1.349 . S
C640 C642 1.327 . S
C640 H665 0.950 . S
C641 C640 1.349 . S
C641 C657 1.349 . S
C642 C640 1.327 . S
C642 C661 1.429 . S
C642 H666 0.950 . S
C643 C660 1.574 . S
C643 C662 1.368 . S
C643 H667 0.949 . S
H644 C648 0.949 . S
C645 C646 1.349 . S
C645 C647 1.327 . S
C645 H668 0.950 . S
C646 C645 1.349 . S
C646 C658 1.349 . S
C647 C645 1.327 . S
C647 C663 1.429 . S
C647 H669 0.950 . S
C648 H644 0.949 . S
C648 C656 1.574 . S
C648 C664 1.368 . S
H649 C657 0.950 . S
H650 C655 0.950 . S
H651 C656 0.949 . S
H652 C658 0.950 . S
H653 C659 0.950 . S
H654 C660 0.949 1_545 S
C655 H650 0.950 . S
C655 C657 1.327 . S
C655 C661 1.429 . S
C656 C648 1.574 . S
C656 H651 0.949 . S
C656 C662 1.368 . S
C657 C641 1.349 . S
C657 H649 0.950 . S
C657 C655 1.327 . S
C658 C646 1.349 . S
C658 H652 0.950 . S
C658 C659 1.327 . S
C659 H653 0.950 . S
C659 C658 1.327 . S
C659 C663 1.429 . S
C660 C643 1.574 . S
C660 H654 0.949 1_565 S
C660 C664 1.368 . S
C661 C642 1.429 . S
C661 C655 1.429 . S
C661 C662 1.523 . S
C662 C643 1.368 . S
C662 C656 1.368 . S
C662 C661 1.523 . S
C663 C647 1.429 . S
C663 C659 1.429 . S
C663 C664 1.523 1_545 S
C664 C648 1.368 . S
C664 C660 1.368 . S
C664 C663 1.523 1_565 S
H665 C640 0.950 . S
H666 C642 0.950 . S
H667 C643 0.949 . S
H668 C645 0.950 . S
H669 C647 0.950 . S
C670 C671 1.349 . S
C670 C672 1.327 . S
C670 H695 0.950 . S
C671 C670 1.349 . S
C671 C687 1.349 . S
C672 C670 1.327 . S
C672 C691 1.429 . S
C672 H696 0.950 . S
C673 C690 1.574 . S
C673 C692 1.368 . S
C673 H697 0.949 . S
H674 C678 0.949 . S
C675 C676 1.349 . S
C675 C677 1.327 . S
C675 H698 0.950 . S
C676 C675 1.349 . S
C676 C688 1.349 . S
C677 C675 1.327 . S
C677 C693 1.429 . S
C677 H699 0.950 . S
C678 H674 0.949 . S
C678 C686 1.574 . S
C678 C694 1.368 . S
H679 C687 0.950 . S
H680 C685 0.950 . S
H681 C686 0.949 . S
H682 C688 0.950 . S
H683 C689 0.950 . S
H684 C690 0.949 1_455 S
C685 H680 0.950 . S
C685 C687 1.327 . S
C685 C691 1.429 . S
C686 C678 1.574 . S
C686 H681 0.949 . S
C686 C692 1.368 . S
C687 C671 1.349 . S
C687 H679 0.950 . S
C687 C685 1.327 . S
C688 C676 1.349 . S
C688 H682 0.950 . S
C688 C689 1.327 . S
C689 H683 0.950 . S
C689 C688 1.327 . S
C689 C693 1.429 . S
C690 C673 1.574 . S
C690 H684 0.949 1_655 S
C690 C694 1.368 . S
C691 C672 1.429 . S
C691 C685 1.429 . S
C691 C692 1.523 . S
C692 C673 1.368 . S
C692 C686 1.368 . S
C692 C691 1.523 . S
C693 C677 1.429 . S
C693 C689 1.429 . S
C693 C694 1.523 1_455 S
C694 C678 1.368 . S
C694 C690 1.368 . S
C694 C693 1.523 1_655 S
H695 C670 0.950 . S
H696 C672 0.950 . S
H697 C673 0.949 . S
H698 C675 0.950 . S
H699 C677 0.950 . S
C700 C701 1.349 . S
C700 C702 1.327 . S
C700 H725 0.950 . S
C701 C700 1.349 . S
C701 C717 1.349 . S
C702 C700 1.327 . S
C702 C721 1.429 . S
C702 H726 0.950 . S
C703 C720 1.574 . S
C703 C722 1.368 . S
C703 H727 0.949 1_545 S
H704 C708 0.949 . S
C705 C706 1.349 . S
C705 C707 1.327 . S
C705 H728 0.950 . S
C706 C705 1.349 . S
C706 C718 1.349 . S
C707 C705 1.327 . S
C707 C723 1.429 . S
C707 H729 0.950 . S
C708 H704 0.949 . S
C708 C716 1.574 . S
C708 C724 1.368 . S
H709 C717 0.950 . S
H710 C715 0.950 . S
H711 C716 0.949 . S
H712 C718 0.950 . S
H713 C719 0.950 . S
H714 C720 0.949 . S
C715 H710 0.950 . S
C715 C717 1.327 . S
C715 C721 1.429 . S
C716 C708 1.574 . S
C716 H711 0.949 . S
C716 C722 1.368 . S
C717 C701 1.349 . S
C717 H709 0.950 . S
C717 C715 1.327 . S
C718 C706 1.349 . S
C718 H712 0.950 . S
C718 C719 1.327 . S
C719 H713 0.950 . S
C719 C718 1.327 . S
C719 C723 1.429 . S
C720 C703 1.574 . S
C720 H714 0.949 . S
C720 C724 1.368 . S
C721 C702 1.429 . S
C721 C715 1.429 . S
C721 C722 1.523 1_565 S
C722 C703 1.368 . S
C722 C716 1.368 . S
C722 C721 1.523 1_545 S
C723 C707 1.429 . S
C723 C719 1.429 . S
C723 C724 1.523 . S
C724 C708 1.368 . S
C724 C720 1.368 . S
C724 C723 1.523 . S
H725 C700 0.950 . S
H726 C702 0.950 . S
H727 C703 0.949 1_565 S
H728 C705 0.950 . S
H729 C707 0.950 . S
C730 C731 1.349 . S
C730 C732 1.327 . S
C730 H755 0.950 . S
C731 C730 1.349 . S
C731 C747 1.349 . S
C732 C730 1.327 . S
C732 C751 1.429 . S
C732 H756 0.950 . S
C733 C750 1.574 . S
C733 C752 1.368 . S
C733 H757 0.949 . S
H734 C738 0.949 . S
C735 C736 1.349 . S
C735 C737 1.327 . S
C735 H758 0.950 . S
C736 C735 1.349 . S
C736 C748 1.349 . S
C737 C735 1.327 . S
C737 C753 1.429 . S
C737 H759 0.950 . S
C738 H734 0.949 . S
C738 C746 1.574 . S
C738 C754 1.368 . S
H739 C747 0.950 . S
H740 C745 0.950 . S
H741 C746 0.949 1_655 S
H742 C748 0.950 . S
H743 C749 0.950 . S
H744 C750 0.949 . S
C745 H740 0.950 . S
C745 C747 1.327 . S
C745 C751 1.429 . S
C746 C738 1.574 . S
C746 H741 0.949 1_455 S
C746 C752 1.368 . S
C747 C731 1.349 . S
C747 H739 0.950 . S
C747 C745 1.327 . S
C748 C736 1.349 . S
C748 H742 0.950 . S
C748 C749 1.327 . S
C749 H743 0.950 . S
C749 C748 1.327 . S
C749 C753 1.429 . S
C750 C733 1.574 . S
C750 H744 0.949 . S
C750 C754 1.368 . S
C751 C732 1.429 . S
C751 C745 1.429 . S
C751 C752 1.523 1_655 S
C752 C733 1.368 . S
C752 C746 1.368 . S
C752 C751 1.523 1_455 S
C753 C737 1.429 . S
C753 C749 1.429 . S
C753 C754 1.523 . S
C754 C738 1.368 . S
C754 C750 1.368 . S
C754 C753 1.523 . S
H755 C730 0.950 . S
H756 C732 0.950 . S
H757 C733 0.949 . S
H758 C735 0.950 . S
H759 C737 0.950 . S
C760 C761 1.349 . S
C760 C762 1.327 . S
C760 H785 0.950 . S
C761 C760 1.349 . S
C761 C777 1.349 . S
C762 C760 1.327 . S
C762 C781 1.429 . S
C762 H786 0.950 . S
C763 C780 1.574 1_554 S
C763 C782 1.368 . S
C763 H787 0.949 1_554 S
H764 C768 0.949 . S
C765 C766 1.349 . S
C765 C767 1.327 . S
C765 H788 0.950 . S
C766 C765 1.349 . S
C766 C778 1.349 . S
C767 C765 1.327 . S
C767 C783 1.429 . S
C767 H789 0.950 . S
C768 H764 0.949 . S
C768 C776 1.574 . S
C768 C784 1.368 . S
H769 C777 0.950 . S
H770 C775 0.950 . S
H771 C776 0.949 . S
H772 C778 0.950 1_554 S
H773 C779 0.950 . S
H774 C780 0.949 . S
C775 H770 0.950 . S
C775 C777 1.327 . S
C775 C781 1.429 . S
C776 C768 1.574 . S
C776 H771 0.949 . S
C776 C782 1.368 . S
C777 C761 1.349 . S
C777 H769 0.950 . S
C777 C775 1.327 . S
C778 C766 1.349 . S
C778 H772 0.950 1_556 S
C778 C779 1.327 1_556 S
C779 H773 0.950 . S
C779 C778 1.327 1_554 S
C779 C783 1.429 1_554 S
C780 C763 1.574 1_556 S
C780 H774 0.949 . S
C780 C784 1.368 1_556 S
C781 C762 1.429 . S
C781 C775 1.429 . S
C781 C782 1.523 . S
C782 C763 1.368 . S
C782 C776 1.368 . S
C782 C781 1.523 . S
C783 C767 1.429 . S
C783 C779 1.429 1_556 S
C783 C784 1.523 1_556 S
C784 C768 1.368 . S
C784 C780 1.368 1_554 S
C784 C783 1.523 1_554 S
H785 C760 0.950 . S
H786 C762 0.950 . S
H787 C763 0.949 1_556 S
H788 C765 0.950 . S
H789 C767 0.950 . S
C790 C791 1.349 . S
C790 C792 1.327 . S
C790 H815 0.950 . S
C791 C790 1.349 . S
C791 C807 1.349 . S
C792 C790 1.327 . S
C792 C811 1.429 . S
C792 H816 0.950 1_554 S
C793 C810 1.574 . S
C793 C812 1.368 . S
C793 H817 0.949 1_556 S
H794 C798 0.949 . S
C795 C796 1.349 . S
C795 C797 1.327 . S
C795 H818 0.950 . S
C796 C795 1.349 . S
C796 C808 1.349 . S
C797 C795 1.327 . S
C797 C813 1.429 . S
C797 H819 0.950 . S
C798 H794 0.949 . S
C798 C806 1.574 . S
C798 C814 1.368 . S
H799 C807 0.950 . S
H800 C805 0.950 . S
H801 C806 0.949 . S
H802 C808 0.950 . S
H803 C809 0.950 . S
H804 C810 0.949 . S
C805 H800 0.950 . S
C805 C807 1.327 . S
C805 C811 1.429 . S
C806 C798 1.574 . S
C806 H801 0.949 . S
C806 C812 1.368 . S
C807 C791 1.349 . S
C807 H799 0.950 . S
C807 C805 1.327 . S
C808 C796 1.349 . S
C808 H802 0.950 . S
C808 C809 1.327 . S
C809 H803 0.950 . S
C809 C808 1.327 . S
C809 C813 1.429 . S
C810 C793 1.574 . S
C810 H804 0.949 . S
C810 C814 1.368 . S
C811 C792 1.429 . S
C811 C805 1.429 . S
C811 C812 1.523 1_554 S
C812 C793 1.368 . S
C812 C806 1.368 . S
C812 C811 1.523 1_556 S
C813 C797 1.429 . S
C813 C809 1.429 . S
C813 C814 1.523 . S
C814 C798 1.368 . S
C814 C810 1.368 . S
C814 C813 1.523 . S
H815 C790 0.950 . S
H816 C792 0.950 1_556 S
H817 C793 0.949 1_554 S
H818 C795 0.950 . S
H819 C797 0.950 . S
C820 C821 1.349 . S
C820 C822 1.327 . S
C820 H845 0.950 . S
C821 C820 1.349 . S
C821 C837 1.349 . S
C822 C820 1.327 . S
C822 C841 1.429 . S
C822 H846 0.950 . S
C823 C840 1.574 . S
C823 C842 1.368 . S
C823 H847 0.949 . S
H824 C828 0.949 . S
C825 C826 1.349 . S
C825 C827 1.327 1_556 S
C825 H848 0.950 1_556 S
C826 C825 1.349 . S
C826 C838 1.349 . S
C827 C825 1.327 1_554 S
C827 C843 1.429 1_554 S
C827 H849 0.950 . S
C828 H824 0.949 . S
C828 C836 1.574 1_556 S
C828 C844 1.368 1_556 S
H829 C837 0.950 . S
H830 C835 0.950 . S
H831 C836 0.949 1_556 S
H832 C838 0.950 . S
H833 C839 0.950 . S
H834 C840 0.949 . S
C835 H830 0.950 . S
C835 C837 1.327 . S
C835 C841 1.429 . S
C836 C828 1.574 1_554 S
C836 H831 0.949 1_554 S
C836 C842 1.368 . S
C837 C821 1.349 . S
C837 H829 0.950 . S
C837 C835 1.327 . S
C838 C826 1.349 . S
C838 H832 0.950 . S
C838 C839 1.327 . S
C839 H833 0.950 . S
C839 C838 1.327 . S
C839 C843 1.429 . S
C840 C823 1.574 . S
C840 H834 0.949 . S
C840 C844 1.368 . S
C841 C822 1.429 . S
C841 C835 1.429 . S
C841 C842 1.523 . S
C842 C823 1.368 . S
C842 C836 1.368 . S
C842 C841 1.523 . S
C843 C827 1.429 1_556 S
C843 C839 1.429 . S
C843 C844 1.523 1_556 S
C844 C828 1.368 1_554 S
C844 C840 1.368 . S
C844 C843 1.523 1_554 S
H845 C820 0.950 . S
H846 C822 0.950 . S
H847 C823 0.949 . S
H848 C825 0.950 1_554 S
H849 C827 0.950 . S
C850 C851 1.349 . S
C850 C852 1.327 1_554 S
C850 H875 0.954 . S
C851 C850 1.349 . S
C851 C867 1.349 . S
C852 C850 1.327 1_556 S
C852 C871 1.429 1_556 S
C852 H876 0.950 . S
C853 C870 1.574 1_554 S
C853 C872 1.368 1_554 S
C853 H877 0.949 . S
H854 C858 0.949 . S
C855 C856 1.349 . S
C855 C857 1.327 . S
C855 H878 0.950 . S
C856 C855 1.349 . S
C856 C868 1.349 . S
C857 C855 1.327 . S
C857 C873 1.429 . S
C857 H879 0.950 . S
C858 H854 0.949 . S
C858 C866 1.574 . S
C858 C874 1.368 . S
H859 C867 0.950 . S
H860 C865 0.950 . S
H861 C866 0.949 . S
H862 C868 0.950 . S
H863 C869 0.950 . S
H864 C870 0.949 1_554 S
C865 H860 0.950 . S
C865 C867 1.327 . S
C865 C871 1.429 . S
C866 C858 1.574 . S
C866 H861 0.949 . S
C866 C872 1.368 . S
C867 C851 1.349 . S
C867 H859 0.950 . S
C867 C865 1.327 . S
C868 C856 1.349 . S
C868 H862 0.950 . S
C868 C869 1.327 . S
C869 H863 0.950 . S
C869 C868 1.327 . S
C869 C873 1.429 . S
C870 C853 1.574 1_556 S
C870 H864 0.949 1_556 S
C870 C874 1.368 . S
C871 C852 1.429 1_554 S
C871 C865 1.429 . S
C871 C872 1.523 1_554 S
C872 C853 1.368 1_556 S
C872 C866 1.368 . S
C872 C871 1.523 1_556 S
C873 C857 1.429 . S
C873 C869 1.429 . S
C873 C874 1.523 . S
C874 C858 1.368 . S
C874 C870 1.368 . S
C874 C873 1.523 . S
H875 C850 0.954 . S
H876 C852 0.950 . S
H877 C853 0.949 . S
H878 C855 0.950 . S
H879 C857 0.950 . S
C880 C881 1.349 . S
C880 C882 1.327 . S
C880 H905 0.950 . S
C881 C880 1.349 . S
C881 C897 1.349 . S
C882 C880 1.327 . S
C882 C901 1.429 . S
C882 H906 0.950 . S
C883 C900 1.574 . S
C883 C902 1.368 . S
C883 H907 0.949 . S
H884 C888 0.949 . S
C885 C886 1.349 . S
C885 C887 1.327 . S
C885 H908 0.950 . S
C886 C885 1.349 . S
C886 C898 1.349 . S
C887 C885 1.327 . S
C887 C903 1.429 . S
C887 H909 0.950 . S
C888 H884 0.949 . S
C888 C896 1.574 . S
C888 C904 1.368 . S
H889 C897 0.950 . S
H890 C895 0.950 . S
H891 C896 0.949 . S
H892 C898 0.950 . S
H893 C899 0.950 . S
H894 C900 0.949 . S
C895 H890 0.950 . S
C895 C897 1.327 . S
C895 C901 1.429 . S
C896 C888 1.574 . S
C896 H891 0.949 . S
C896 C902 1.368 . S
C897 C881 1.349 . S
C897 H889 0.950 . S
C897 C895 1.327 . S
C898 C886 1.349 . S
C898 H892 0.950 . S
C898 C899 1.327 . S
C899 H893 0.950 . S
C899 C898 1.327 . S
C899 C903 1.429 . S
C900 C883 1.574 . S
C900 H894 0.949 . S
C900 C904 1.368 . S
C901 C882 1.429 . S
C901 C895 1.429 . S
C901 C902 1.523 . S
C902 C883 1.368 . S
C902 C896 1.368 . S
C902 C901 1.523 . S
C903 C887 1.429 . S
C903 C899 1.429 . S
C903 C904 1.523 . S
C904 C888 1.368 . S
C904 C900 1.368 . S
C904 C903 1.523 . S
H905 C880 0.950 . S
H906 C882 0.950 . S
H907 C883 0.949 . S
H908 C885 0.950 . S
H909 C887 0.950 . S
C910 C911 1.349 . S
C910 C912 1.327 . S
C910 H935 0.950 . S
C911 C910 1.349 . S
C911 C927 1.349 . S
C912 C910 1.327 . S
C912 C931 1.429 . S
C912 H936 0.950 . S
C913 C930 1.574 . S
C913 C932 1.368 . S
C913 H937 0.949 . S
H914 C918 0.949 . S
C915 C916 1.349 . S
C915 C917 1.327 . S
C915 H938 0.950 . S
C916 C915 1.349 . S
C916 C928 1.349 . S
C917 C915 1.327 . S
C917 C933 1.429 . S
C917 H939 0.950 . S
C918 H914 0.949 . S
C918 C926 1.574 . S
C918 C934 1.368 . S
H919 C927 0.950 . S
H920 C925 0.950 . S
H921 C926 0.949 . S
H922 C928 0.950 . S
H923 C929 0.950 . S
H924 C930 0.949 . S
C925 H920 0.950 . S
C925 C927 1.327 . S
C925 C931 1.429 . S
C926 C918 1.574 . S
C926 H921 0.949 . S
C926 C932 1.368 . S
C927 C911 1.349 . S
C927 H919 0.950 . S
C927 C925 1.327 . S
C928 C916 1.349 . S
C928 H922 0.950 . S
C928 C929 1.327 . S
C929 H923 0.950 . S
C929 C928 1.327 . S
C929 C933 1.429 . S
C930 C913 1.574 . S
C930 H924 0.949 . S
C930 C934 1.368 . S
C931 C912 1.429 . S
C931 C925 1.429 . S
C931 C932 1.523 . S
C932 C913 1.368 . S
C932 C926 1.368 . S
C932 C931 1.523 . S
C933 C917 1.429 . S
C933 C929 1.429 . S
C933 C934 1.523 . S
C934 C918 1.368 . S
C934 C930 1.368 . S
C934 C933 1.523 . S
H935 C910 0.950 . S
H936 C912 0.950 . S
H937 C913 0.949 . S
H938 C915 0.950 . S
H939 C917 0.950 . S
C940 C941 1.349 . S
C940 C942 1.327 . S
C940 H965 0.950 . S
C941 C940 1.349 . S
C941 C957 1.349 . S
C942 C940 1.327 . S
C942 C961 1.429 . S
C942 H966 0.950 . S
C943 C960 1.574 . S
C943 C962 1.368 . S
C943 H967 0.949 . S
H944 C948 0.949 . S
C945 C946 1.349 . S
C945 C947 1.327 . S
C945 H968 0.950 . S
C946 C945 1.349 . S
C946 C958 1.349 . S
C947 C945 1.327 . S
C947 C963 1.429 . S
C947 H969 0.950 . S
C948 H944 0.949 . S
C948 C956 1.574 . S
C948 C964 1.368 . S
H949 C957 0.950 . S
H950 C955 0.950 . S
H951 C956 0.949 . S
H952 C958 0.950 . S
H953 C959 0.950 . S
H954 C960 0.949 . S
C955 H950 0.950 . S
C955 C957 1.327 . S
C955 C961 1.429 . S
C956 C948 1.574 . S
C956 H951 0.949 . S
C956 C962 1.368 . S
C957 C941 1.349 . S
C957 H949 0.950 . S
C957 C955 1.327 . S
C958 C946 1.349 . S
C958 H952 0.950 . S
C958 C959 1.327 . S
C959 H953 0.950 . S
C959 C958 1.327 . S
C959 C963 1.429 . S
C960 C943 1.574 . S
C960 H954 0.949 . S
C960 C964 1.368 . S
C961 C942 1.429 . S
C961 C955 1.429 . S
C961 C962 1.523 . S
C962 C943 1.368 . S
C962 C956 1.368 . S
C962 C961 1.523 . S
C963 C947 1.429 . S
C963 C959 1.429 . S
C963 C964 1.523 . S
C964 C948 1.368 . S
C964 C960 1.368 . S
C964 C963 1.523 . S
H965 C940 0.950 . S
H966 C942 0.950 . S
H967 C943 0.949 . S
H968 C945 0.950 . S
H969 C947 0.950 . S
C970 C971 1.349 . S
C970 C972 1.327 . S
C970 H995 0.950 . S
C971 C970 1.349 . S
C971 C987 1.349 . S
C972 C970 1.327 . S
C972 C991 1.429 . S
C972 H996 0.950 . S
C973 C990 1.574 . S
C973 C992 1.368 . S
C973 H997 0.949 . S
H974 C978 0.949 . S
C975 C976 1.349 . S
C975 C977 1.327 . S
C975 H998 0.950 . S
C976 C975 1.349 . S
C976 C988 1.349 . S
C977 C975 1.327 . S
C977 C993 1.429 . S
C977 H999 0.950 . S
C978 H974 0.949 . S
C978 C986 1.574 . S
C978 C994 1.368 . S
H979 C987 0.950 . S
H980 C985 0.950 . S
H981 C986 0.949 . S
H982 C988 0.950 . S
H983 C989 0.950 . S
H984 C990 0.949 . S
C985 H980 0.950 . S
C985 C987 1.327 . S
C985 C991 1.429 . S
C986 C978 1.574 . S
C986 H981 0.949 . S
C986 C992 1.368 . S
C987 C971 1.349 . S
C987 H979 0.950 . S
C987 C985 1.327 . S
C988 C976 1.349 . S
C988 H982 0.950 . S
C988 C989 1.327 . S
C989 H983 0.950 . S
C989 C988 1.327 . S
C989 C993 1.429 . S
C990 C973 1.574 . S
C990 H984 0.949 . S
C990 C994 1.368 . S
C991 C972 1.429 . S
C991 C985 1.429 . S
C991 C992 1.523 . S
C992 C973 1.368 . S
C992 C986 1.368 . S
C992 C991 1.523 . S
C993 C977 1.429 . S
C993 C989 1.429 . S
C993 C994 1.523 . S
C994 C978 1.368 . S
C994 C990 1.368 . S
C994 C993 1.523 . S
H995 C970 0.950 . S
H996 C972 0.950 . S
H997 C973 0.949 . S
H998 C975 0.950 . S
H999 C977 0.950 . S
C1000 C1001 1.349 . S
C1000 C1002 1.327 . S
C1000 H1025 0.950 . S
C1001 C1000 1.349 . S
C1001 C1017 1.349 . S
C1002 C1000 1.327 . S
C1002 C1021 1.429 . S
C1002 H1026 0.950 . S
C1003 C1020 1.574 . S
C1003 C1022 1.368 . S
C1003 H1027 0.949 1_545 S
H1004 C1008 0.949 . S
C1005 C1006 1.349 . S
C1005 C1007 1.327 . S
C1005 H1028 0.950 . S
C1006 C1005 1.349 . S
C1006 C1018 1.349 . S
C1007 C1005 1.327 . S
C1007 C1023 1.429 . S
C1007 H1029 0.950 . S
C1008 H1004 0.949 . S
C1008 C1016 1.574 . S
C1008 C1024 1.368 . S
H1009 C1017 0.950 . S
H1010 C1015 0.950 . S
H1011 C1016 0.949 . S
H1012 C1018 0.950 . S
H1013 C1019 0.950 . S
H1014 C1020 0.949 . S
C1015 H1010 0.950 . S
C1015 C1017 1.327 . S
C1015 C1021 1.429 . S
C1016 C1008 1.574 . S
C1016 H1011 0.949 . S
C1016 C1022 1.368 . S
C1017 C1001 1.349 . S
C1017 H1009 0.950 . S
C1017 C1015 1.327 . S
C1018 C1006 1.349 . S
C1018 H1012 0.950 . S
C1018 C1019 1.327 . S
C1019 H1013 0.950 . S
C1019 C1018 1.327 . S
C1019 C1023 1.429 . S
C1020 C1003 1.574 . S
C1020 H1014 0.949 . S
C1020 C1024 1.368 . S
C1021 C1002 1.429 . S
C1021 C1015 1.429 . S
C1021 C1022 1.523 1_565 S
C1022 C1003 1.368 . S
C1022 C1016 1.368 . S
C1022 C1021 1.523 1_545 S
C1023 C1007 1.429 . S
C1023 C1019 1.429 . S
C1023 C1024 1.523 . S
C1024 C1008 1.368 . S
C1024 C1020 1.368 . S
C1024 C1023 1.523 . S
H1025 C1000 0.950 . S
H1026 C1002 0.950 . S
H1027 C1003 0.949 1_565 S
H1028 C1005 0.950 . S
H1029 C1007 0.950 . S
C1030 C1031 1.349 . S
C1030 C1032 1.327 . S
C1030 H1055 0.950 . S
C1031 C1030 1.349 . S
C1031 C1047 1.349 . S
C1032 C1030 1.327 . S
C1032 C1051 1.429 . S
C1032 H1056 0.950 . S
C1033 C1050 1.574 . S
C1033 C1052 1.368 . S
C1033 H1057 0.949 . S
H1034 C1038 0.949 . S
C1035 C1036 1.349 . S
C1035 C1037 1.327 . S
C1035 H1058 0.950 . S
C1036 C1035 1.349 . S
C1036 C1048 1.349 . S
C1037 C1035 1.327 . S
C1037 C1053 1.429 . S
C1037 H1059 0.950 . S
C1038 H1034 0.949 . S
C1038 C1046 1.574 . S
C1038 C1054 1.368 . S
H1039 C1047 0.950 . S
H1040 C1045 0.950 . S
H1041 C1046 0.949 . S
H1042 C1048 0.950 . S
H1043 C1049 0.950 . S
H1044 C1050 0.945 . S
C1045 H1040 0.950 . S
C1045 C1047 1.327 . S
C1045 C1051 1.429 . S
C1046 C1038 1.574 . S
C1046 H1041 0.949 . S
C1046 C1052 1.368 . S
C1047 C1031 1.349 . S
C1047 H1039 0.950 . S
C1047 C1045 1.327 . S
C1048 C1036 1.349 . S
C1048 H1042 0.950 . S
C1048 C1049 1.327 . S
C1049 H1043 0.950 . S
C1049 C1048 1.327 . S
C1049 C1053 1.429 . S
C1050 C1033 1.574 . S
C1050 H1044 0.945 . S
C1050 C1054 1.368 . S
C1051 C1032 1.429 . S
C1051 C1045 1.429 . S
C1051 C1052 1.523 . S
C1052 C1033 1.368 . S
C1052 C1046 1.368 . S
C1052 C1051 1.523 . S
C1053 C1037 1.429 . S
C1053 C1049 1.429 . S
C1053 C1054 1.523 1_655 S
C1054 C1038 1.368 . S
C1054 C1050 1.368 . S
C1054 C1053 1.523 1_455 S
H1055 C1030 0.950 . S
H1056 C1032 0.950 . S
H1057 C1033 0.949 . S
H1058 C1035 0.950 . S
H1059 C1037 0.950 . S
C1060 C1061 1.349 . S
C1060 C1062 1.327 . S
C1060 H1085 0.950 . S
C1061 C1060 1.349 . S
C1061 C1077 1.349 . S
C1062 C1060 1.327 . S
C1062 C1081 1.429 . S
C1062 H1086 0.950 . S
C1063 C1080 1.574 . S
C1063 C1082 1.368 . S
C1063 H1087 0.949 . S
H1064 C1068 0.949 . S
C1065 C1066 1.349 . S
C1065 C1067 1.327 . S
C1065 H1088 0.950 . S
C1066 C1065 1.349 . S
C1066 C1078 1.349 . S
C1067 C1065 1.327 . S
C1067 C1083 1.429 . S
C1067 H1089 0.950 . S
C1068 H1064 0.949 . S
C1068 C1076 1.574 . S
C1068 C1084 1.368 . S
H1069 C1077 0.950 . S
H1070 C1075 0.950 . S
H1071 C1076 0.949 . S
H1072 C1078 0.950 . S
H1073 C1079 0.950 . S
H1074 C1080 0.949 1_545 S
C1075 H1070 0.950 . S
C1075 C1077 1.327 . S
C1075 C1081 1.429 . S
C1076 C1068 1.574 . S
C1076 H1071 0.949 . S
C1076 C1082 1.368 . S
C1077 C1061 1.349 . S
C1077 H1069 0.950 . S
C1077 C1075 1.327 . S
C1078 C1066 1.349 . S
C1078 H1072 0.950 . S
C1078 C1079 1.327 . S
C1079 H1073 0.950 . S
C1079 C1078 1.327 . S
C1079 C1083 1.429 . S
C1080 C1063 1.574 . S
C1080 H1074 0.949 1_565 S
C1080 C1084 1.368 . S
C1081 C1062 1.429 . S
C1081 C1075 1.429 . S
C1081 C1082 1.523 . S
C1082 C1063 1.368 . S
C1082 C1076 1.368 . S
C1082 C1081 1.523 . S
C1083 C1067 1.429 . S
C1083 C1079 1.429 . S
C1083 C1084 1.523 1_545 S
C1084 C1068 1.368 . S
C1084 C1080 1.368 . S
C1084 C1083 1.523 1_565 S
H1085 C1060 0.950 . S
H1086 C1062 0.950 . S
H1087 C1063 0.949 . S
H1088 C1065 0.950 . S
H1089 C1067 0.950 . S
C1090 C1091 1.349 . S
C1090 C1092 1.327 . S
C1090 H1115 0.950 . S
C1091 C1090 1.349 . S
C1091 C1107 1.349 . S
C1092 C1090 1.327 . S
C1092 C1111 1.429 . S
C1092 H1116 0.950 . S
C1093 C1110 1.574 . S
C1093 C1112 1.368 . S
C1093 H1117 0.949 . S
H1094 C1098 0.949 . S
C1095 C1096 1.349 . S
C1095 C1097 1.327 . S
C1095 H1118 0.950 . S
C1096 C1095 1.349 . S
C1096 C1108 1.349 . S
C1097 C1095 1.327 . S
C1097 C1113 1.429 . S
C1097 H1119 0.950 . S
C1098 H1094 0.949 . S
C1098 C1106 1.574 . S
C1098 C1114 1.368 . S
H1099 C1107 0.950 . S
H1100 C1105 0.950 . S
H1101 C1106 0.932 1_455 S
H1102 C1108 0.950 . S
H1103 C1109 0.950 . S
H1104 C1110 0.949 . S
C1105 H1100 0.950 . S
C1105 C1107 1.327 . S
C1105 C1111 1.429 . S
C1106 C1098 1.574 . S
C1106 H1101 0.932 1_655 S
C1106 C1112 1.368 . S
C1107 C1091 1.349 . S
C1107 H1099 0.950 . S
C1107 C1105 1.327 . S
C1108 C1096 1.349 . S
C1108 H1102 0.950 . S
C1108 C1109 1.327 . S
C1109 H1103 0.950 . S
C1109 C1108 1.327 . S
C1109 C1113 1.429 . S
C1110 C1093 1.574 . S
C1110 H1104 0.949 . S
C1110 C1114 1.368 . S
C1111 C1092 1.429 . S
C1111 C1105 1.429 . S
C1111 C1112 1.523 1_455 S
C1112 C1093 1.368 . S
C1112 C1106 1.368 . S
C1112 C1111 1.523 1_655 S
C1113 C1097 1.429 . S
C1113 C1109 1.429 . S
C1113 C1114 1.523 . S
C1114 C1098 1.368 . S
C1114 C1110 1.368 . S
C1114 C1113 1.523 . S
H1115 C1090 0.950 . S
H1116 C1092 0.950 . S
H1117 C1093 0.949 . S
H1118 C1095 0.950 . S
H1119 C1097 0.950 . S
C1120 C1121 1.349 . S
C1120 C1122 1.327 . S
C1120 H1145 0.950 . S
C1121 C1120 1.349 . S
C1121 C1137 1.349 . S
C1122 C1120 1.327 . S
C1122 C1141 1.429 . S
C1122 H1146 0.950 . S
C1123 C1140 1.574 . S
C1123 C1142 1.368 . S
C1123 H1147 0.949 . S
H1124 C1128 0.949 . S
C1125 C1126 1.349 . S
C1125 C1127 1.327 . S
C1125 H1148 0.950 . S
C1126 C1125 1.349 . S
C1126 C1138 1.349 . S
C1127 C1125 1.327 . S
C1127 C1143 1.429 . S
C1127 H1149 0.950 . S
C1128 H1124 0.949 . S
C1128 C1136 1.574 . S
C1128 C1144 1.368 . S
H1129 C1137 0.950 . S
H1130 C1135 0.950 . S
H1131 C1136 0.949 . S
H1132 C1138 0.950 . S
H1133 C1139 0.950 . S
H1134 C1140 0.949 . S
C1135 H1130 0.950 . S
C1135 C1137 1.327 . S
C1135 C1141 1.429 . S
C1136 C1128 1.574 . S
C1136 H1131 0.949 . S
C1136 C1142 1.368 . S
C1137 C1121 1.349 . S
C1137 H1129 0.950 . S
C1137 C1135 1.327 . S
C1138 C1126 1.349 . S
C1138 H1132 0.950 . S
C1138 C1139 1.327 . S
C1139 H1133 0.950 . S
C1139 C1138 1.327 . S
C1139 C1143 1.429 . S
C1140 C1123 1.574 . S
C1140 H1134 0.949 . S
C1140 C1144 1.368 . S
C1141 C1122 1.429 . S
C1141 C1135 1.429 . S
C1141 C1142 1.523 . S
C1142 C1123 1.368 . S
C1142 C1136 1.368 . S
C1142 C1141 1.523 . S
C1143 C1127 1.429 . S
C1143 C1139 1.429 . S
C1143 C1144 1.523 . S
C1144 C1128 1.368 . S
C1144 C1140 1.368 . S
C1144 C1143 1.523 . S
H1145 C1120 0.950 . S
H1146 C1122 0.950 . S
H1147 C1123 0.949 . S
H1148 C1125 0.950 . S
H1149 C1127 0.950 . S
C1150 C1151 1.349 . S
C1150 C1152 1.327 . S
C1150 H1175 0.950 . S
C1151 C1150 1.349 . S
C1151 C1167 1.349 . S
C1152 C1150 1.327 . S
C1152 C1171 1.429 . S
C1152 H1176 0.950 . S
C1153 C1170 1.574 . S
C1153 C1172 1.368 . S
C1153 H1177 0.949 . S
H1154 C1158 0.949 . S
C1155 C1156 1.349 . S
C1155 C1157 1.327 . S
C1155 H1178 0.950 . S
C1156 C1155 1.349 . S
C1156 C1168 1.349 . S
C1157 C1155 1.327 . S
C1157 C1173 1.429 . S
C1157 H1179 0.950 . S
C1158 H1154 0.949 . S
C1158 C1166 1.574 . S
C1158 C1174 1.368 . S
H1159 C1167 0.950 . S
H1160 C1165 0.950 . S
H1161 C1166 0.949 . S
H1162 C1168 0.950 . S
H1163 C1169 0.950 . S
H1164 C1170 0.949 . S
C1165 H1160 0.950 . S
C1165 C1167 1.327 . S
C1165 C1171 1.429 . S
C1166 C1158 1.574 . S
C1166 H1161 0.949 . S
C1166 C1172 1.368 . S
C1167 C1151 1.349 . S
C1167 H1159 0.950 . S
C1167 C1165 1.327 . S
C1168 C1156 1.349 . S
C1168 H1162 0.950 . S
C1168 C1169 1.327 . S
C1169 H1163 0.950 . S
C1169 C1168 1.327 . S
C1169 C1173 1.429 . S
C1170 C1153 1.574 . S
C1170 H1164 0.949 . S
C1170 C1174 1.368 . S
C1171 C1152 1.429 . S
C1171 C1165 1.429 . S
C1171 C1172 1.523 . S
C1172 C1153 1.368 . S
C1172 C1166 1.368 . S
C1172 C1171 1.523 . S
C1173 C1157 1.429 . S
C1173 C1169 1.429 . S
C1173 C1174 1.523 . S
C1174 C1158 1.368 . S
C1174 C1170 1.368 . S
C1174 C1173 1.523 . S
H1175 C1150 0.950 . S
H1176 C1152 0.950 . S
H1177 C1153 0.949 . S
H1178 C1155 0.950 . S
H1179 C1157 0.950 . S
C1180 C1181 1.349 . S
C1180 C1182 1.327 . S
C1180 H1205 0.950 . S
C1181 C1180 1.349 . S
C1181 C1197 1.349 . S
C1182 C1180 1.327 . S
C1182 C1201 1.429 . S
C1182 H1206 0.950 . S
C1183 C1200 1.574 . S
C1183 C1202 1.368 . S
C1183 H1207 0.949 . S
H1184 C1188 0.949 . S
C1185 C1186 1.349 . S
C1185 C1187 1.327 . S
C1185 H1208 0.950 . S
C1186 C1185 1.349 . S
C1186 C1198 1.349 . S
C1187 C1185 1.327 . S
C1187 C1203 1.429 . S
C1187 H1209 0.950 . S
C1188 H1184 0.949 . S
C1188 C1196 1.574 . S
C1188 C1204 1.368 . S
H1189 C1197 0.950 . S
H1190 C1195 0.950 . S
H1191 C1196 0.949 . S
H1192 C1198 0.950 . S
H1193 C1199 0.950 . S
H1194 C1200 0.949 . S
C1195 H1190 0.950 . S
C1195 C1197 1.327 . S
C1195 C1201 1.429 . S
C1196 C1188 1.574 . S
C1196 H1191 0.949 . S
C1196 C1202 1.368 . S
C1197 C1181 1.349 . S
C1197 H1189 0.950 . S
C1197 C1195 1.327 . S
C1198 C1186 1.349 . S
C1198 H1192 0.950 . S
C1198 C1199 1.327 . S
C1199 H1193 0.950 . S
C1199 C1198 1.327 . S
C1199 C1203 1.429 . S
C1200 C1183 1.574 . S
C1200 H1194 0.949 . S
C1200 C1204 1.368 . S
C1201 C1182 1.429 . S
C1201 C1195 1.429 . S
C1201 C1202 1.523 . S
C1202 C1183 1.368 . S
C1202 C1196 1.368 . S
C1202 C1201 1.523 . S
C1203 C1187 1.429 . S
C1203 C1199 1.429 . S
C1203 C1204 1.523 . S
C1204 C1188 1.368 . S
C1204 C1200 1.368 . S
C1204 C1203 1.523 . S
H1205 C1180 0.950 . S
H1206 C1182 0.950 . S
H1207 C1183 0.949 . S
H1208 C1185 0.950 . S
H1209 C1187 0.950 . S
C1210 C1211 1.349 . S
C1210 C1212 1.327 . S
C1210 H1235 0.950 . S
C1211 C1210 1.349 . S
C1211 C1227 1.349 . S
C1212 C1210 1.327 . S
C1212 C1231 1.429 . S
C1212 H1236 0.950 . S
C1213 C1230 1.574 . S
C1213 C1232 1.368 . S
C1213 H1237 0.949 . S
H1214 C1218 0.949 . S
C1215 C1216 1.349 . S
C1215 C1217 1.327 . S
C1215 H1238 0.950 . S
C1216 C1215 1.349 . S
C1216 C1228 1.349 . S
C1217 C1215 1.327 . S
C1217 C1233 1.429 . S
C1217 H1239 0.950 . S
C1218 H1214 0.949 . S
C1218 C1226 1.574 . S
C1218 C1234 1.368 . S
H1219 C1227 0.950 . S
H1220 C1225 0.950 . S
H1221 C1226 0.949 . S
H1222 C1228 0.950 . S
H1223 C1229 0.950 . S
H1224 C1230 0.949 . S
C1225 H1220 0.950 . S
C1225 C1227 1.327 . S
C1225 C1231 1.429 . S
C1226 C1218 1.574 . S
C1226 H1221 0.949 . S
C1226 C1232 1.368 . S
C1227 C1211 1.349 . S
C1227 H1219 0.950 . S
C1227 C1225 1.327 . S
C1228 C1216 1.349 . S
C1228 H1222 0.950 . S
C1228 C1229 1.327 . S
C1229 H1223 0.950 . S
C1229 C1228 1.327 . S
C1229 C1233 1.429 . S
C1230 C1213 1.574 . S
C1230 H1224 0.949 . S
C1230 C1234 1.368 . S
C1231 C1212 1.429 . S
C1231 C1225 1.429 . S
C1231 C1232 1.523 . S
C1232 C1213 1.368 . S
C1232 C1226 1.368 . S
C1232 C1231 1.523 . S
C1233 C1217 1.429 . S
C1233 C1229 1.429 . S
C1233 C1234 1.523 . S
C1234 C1218 1.368 . S
C1234 C1230 1.368 . S
C1234 C1233 1.523 . S
H1235 C1210 0.950 . S
H1236 C1212 0.950 . S
H1237 C1213 0.949 . S
H1238 C1215 0.950 . S
H1239 C1217 0.950 . S
C1240 C1241 1.349 . S
C1240 C1242 1.327 . S
C1240 H1265 0.950 . S
C1241 C1240 1.349 . S
C1241 C1257 1.349 . S
C1242 C1240 1.327 . S
C1242 C1261 1.429 . S
C1242 H1266 0.950 . S
C1243 C1260 1.574 . S
C1243 C1262 1.368 . S
C1243 H1267 0.949 . S
H1244 C1248 0.949 . S
C1245 C1246 1.349 . S
C1245 C1247 1.327 . S
C1245 H1268 0.950 . S
C1246 C1245 1.349 . S
C1246 C1258 1.349 . S
C1247 C1245 1.327 . S
C1247 C1263 1.429 . S
C1247 H1269 0.950 . S
C1248 H1244 0.949 . S
C1248 C1256 1.574 . S
C1248 C1264 1.368 . S
H1249 C1257 0.950 . S
H1250 C1255 0.950 . S
H1251 C1256 0.949 . S
H1252 C1258 0.950 . S
H1253 C1259 0.950 . S
H1254 C1260 0.949 . S
C1255 H1250 0.950 . S
C1255 C1257 1.327 . S
C1255 C1261 1.429 . S
C1256 C1248 1.574 . S
C1256 H1251 0.949 . S
C1256 C1262 1.368 . S
C1257 C1241 1.349 . S
C1257 H1249 0.950 . S
C1257 C1255 1.327 . S
C1258 C1246 1.349 . S
C1258 H1252 0.950 . S
C1258 C1259 1.327 . S
C1259 H1253 0.950 . S
C1259 C1258 1.327 . S
C1259 C1263 1.429 . S
C1260 C1243 1.574 . S
C1260 H1254 0.949 . S
C1260 C1264 1.368 . S
C1261 C1242 1.429 . S
C1261 C1255 1.429 . S
C1261 C1262 1.523 . S
C1262 C1243 1.368 . S
C1262 C1256 1.368 . S
C1262 C1261 1.523 . S
C1263 C1247 1.429 . S
C1263 C1259 1.429 . S
C1263 C1264 1.523 . S
C1264 C1248 1.368 . S
C1264 C1260 1.368 . S
C1264 C1263 1.523 . S
H1265 C1240 0.950 . S
H1266 C1242 0.950 . S
H1267 C1243 0.949 . S
H1268 C1245 0.950 . S
H1269 C1247 0.950 . S
C1270 C1271 1.349 . S
C1270 C1272 1.327 . S
C1270 H1295 0.950 . S
C1271 C1270 1.349 . S
C1271 C1287 1.349 . S
C1272 C1270 1.327 . S
C1272 C1291 1.429 . S
C1272 H1296 0.950 . S
C1273 C1290 1.574 . S
C1273 C1292 1.368 . S
C1273 H1297 0.949 . S
H1274 C1278 0.949 . S
C1275 C1276 1.349 . S
C1275 C1277 1.327 . S
C1275 H1298 0.950 . S
C1276 C1275 1.349 . S
C1276 C1288 1.349 . S
C1277 C1275 1.327 . S
C1277 C1293 1.429 . S
C1277 H1299 0.950 . S
C1278 H1274 0.949 . S
C1278 C1286 1.574 . S
C1278 C1294 1.368 . S
H1279 C1287 0.950 . S
H1280 C1285 0.950 . S
H1281 C1286 0.949 . S
H1282 C1288 0.950 . S
H1283 C1289 0.950 . S
H1284 C1290 0.949 . S
C1285 H1280 0.950 . S
C1285 C1287 1.327 . S
C1285 C1291 1.429 . S
C1286 C1278 1.574 . S
C1286 H1281 0.949 . S
C1286 C1292 1.368 . S
C1287 C1271 1.349 . S
C1287 H1279 0.950 . S
C1287 C1285 1.327 . S
C1288 C1276 1.349 . S
C1288 H1282 0.950 . S
C1288 C1289 1.327 . S
C1289 H1283 0.950 . S
C1289 C1288 1.327 . S
C1289 C1293 1.429 . S
C1290 C1273 1.574 . S
C1290 H1284 0.949 . S
C1290 C1294 1.368 . S
C1291 C1272 1.429 . S
C1291 C1285 1.429 . S
C1291 C1292 1.523 . S
C1292 C1273 1.368 . S
C1292 C1286 1.368 . S
C1292 C1291 1.523 . S
C1293 C1277 1.429 . S
C1293 C1289 1.429 . S
C1293 C1294 1.523 . S
C1294 C1278 1.368 . S
C1294 C1290 1.368 . S
C1294 C1293 1.523 . S
H1295 C1270 0.950 . S
H1296 C1272 0.950 . S
H1297 C1273 0.949 . S
H1298 C1275 0.950 . S
H1299 C1277 0.950 . S
C1300 C1301 1.349 . S
C1300 C1302 1.327 . S
C1300 H1325 0.950 . S
C1301 C1300 1.349 . S
C1301 C1317 1.349 . S
C1302 C1300 1.327 . S
C1302 C1321 1.429 . S
C1302 H1326 0.950 . S
C1303 C1320 1.574 . S
C1303 C1322 1.368 . S
C1303 H1327 0.949 . S
H1304 C1308 0.949 . S
C1305 C1306 1.349 . S
C1305 C1307 1.327 . S
C1305 H1328 0.950 . S
C1306 C1305 1.349 . S
C1306 C1318 1.349 . S
C1307 C1305 1.327 . S
C1307 C1323 1.429 . S
C1307 H1329 0.950 . S
C1308 H1304 0.949 . S
C1308 C1316 1.574 . S
C1308 C1324 1.368 . S
H1309 C1317 0.950 . S
H1310 C1315 0.950 . S
H1311 C1316 0.949 . S
H1312 C1318 0.950 . S
H1313 C1319 0.950 . S
H1314 C1320 0.949 . S
C1315 H1310 0.950 . S
C1315 C1317 1.327 . S
C1315 C1321 1.429 . S
C1316 C1308 1.574 . S
C1316 H1311 0.949 . S
C1316 C1322 1.368 . S
C1317 C1301 1.349 . S
C1317 H1309 0.950 . S
C1317 C1315 1.327 . S
C1318 C1306 1.349 . S
C1318 H1312 0.950 . S
C1318 C1319 1.327 . S
C1319 H1313 0.950 . S
C1319 C1318 1.327 . S
C1319 C1323 1.429 . S
C1320 C1303 1.574 . S
C1320 H1314 0.949 . S
C1320 C1324 1.368 . S
C1321 C1302 1.429 . S
C1321 C1315 1.429 . S
C1321 C1322 1.523 . S
C1322 C1303 1.368 . S
C1322 C1316 1.368 . S
C1322 C1321 1.523 . S
C1323 C1307 1.429 . S
C1323 C1319 1.429 . S
C1323 C1324 1.523 . S
C1324 C1308 1.368 . S
C1324 C1320 1.368 . S
C1324 C1323 1.523 . S
H1325 C1300 0.950 . S
H1326 C1302 0.950 . S
H1327 C1303 0.949 . S
H1328 C1305 0.950 . S
H1329 C1307 0.950 . S
C1330 C1331 1.349 . S
C1330 C1332 1.327 . S
C1330 H1355 0.950 . S
C1331 C1330 1.349 . S
C1331 C1347 1.349 . S
C1332 C1330 1.327 . S
C1332 C1351 1.429 . S
C1332 H1356 0.950 . S
C1333 C1350 1.574 . S
C1333 C1352 1.368 . S
C1333 H1357 0.949 . S
H1334 C1338 0.949 . S
C1335 C1336 1.349 . S
C1335 C1337 1.327 . S
C1335 H1358 0.950 . S
C1336 C1335 1.349 . S
C1336 C1348 1.349 . S
C1337 C1335 1.327 . S
C1337 C1353 1.429 . S
C1337 H1359 0.950 . S
C1338 H1334 0.949 . S
C1338 C1346 1.574 . S
C1338 C1354 1.368 . S
H1339 C1347 0.950 . S
H1340 C1345 0.950 . S
H1341 C1346 0.949 . S
H1342 C1348 0.950 . S
H1343 C1349 0.950 . S
H1344 C1350 0.949 . S
C1345 H1340 0.950 . S
C1345 C1347 1.327 . S
C1345 C1351 1.429 . S
C1346 C1338 1.574 . S
C1346 H1341 0.949 . S
C1346 C1352 1.368 . S
C1347 C1331 1.349 . S
C1347 H1339 0.950 . S
C1347 C1345 1.327 . S
C1348 C1336 1.349 . S
C1348 H1342 0.950 . S
C1348 C1349 1.327 . S
C1349 H1343 0.950 . S
C1349 C1348 1.327 . S
C1349 C1353 1.429 . S
C1350 C1333 1.574 . S
C1350 H1344 0.949 . S
C1350 C1354 1.368 . S
C1351 C1332 1.429 . S
C1351 C1345 1.429 . S
C1351 C1352 1.523 . S
C1352 C1333 1.368 . S
C1352 C1346 1.368 . S
C1352 C1351 1.523 . S
C1353 C1337 1.429 . S
C1353 C1349 1.429 . S
C1353 C1354 1.523 . S
C1354 C1338 1.368 . S
C1354 C1350 1.368 . S
C1354 C1353 1.523 . S
H1355 C1330 0.950 . S
H1356 C1332 0.950 . S
H1357 C1333 0.949 . S
H1358 C1335 0.950 . S
H1359 C1337 0.950 . S
C1360 C1361 1.349 . S
C1360 C1362 1.327 . S
C1360 H1385 0.950 . S
C1361 C1360 1.349 . S
C1361 C1377 1.349 . S
C1362 C1360 1.327 . S
C1362 C1381 1.429 . S
C1362 H1386 0.950 . S
C1363 C1380 1.574 . S
C1363 C1382 1.368 . S
C1363 H1387 0.949 . S
H1364 C1368 0.949 . S
C1365 C1366 1.349 1_556 S
C1365 C1367 1.327 . S
C1365 H1388 0.950 . S
C1366 C1365 1.349 1_554 S
C1366 C1378 1.349 . S
C1367 C1365 1.327 . S
C1367 C1383 1.429 . S
C1367 H1389 0.950 . S
C1368 H1364 0.949 . S
C1368 C1376 1.574 . S
C1368 C1384 1.368 . S
H1369 C1377 0.950 . S
H1370 C1375 0.950 . S
H1371 C1376 0.949 . S
H1372 C1378 0.950 . S
H1373 C1379 0.950 . S
H1374 C1380 0.949 . S
C1375 H1370 0.950 . S
C1375 C1377 1.327 . S
C1375 C1381 1.429 . S
C1376 C1368 1.574 . S
C1376 H1371 0.949 . S
C1376 C1382 1.368 . S
C1377 C1361 1.349 . S
C1377 H1369 0.950 . S
C1377 C1375 1.327 . S
C1378 C1366 1.349 . S
C1378 H1372 0.950 . S
C1378 C1379 1.327 1_554 S
C1379 H1373 0.950 . S
C1379 C1378 1.327 1_556 S
C1379 C1383 1.429 . S
C1380 C1363 1.574 . S
C1380 H1374 0.949 . S
C1380 C1384 1.368 . S
C1381 C1362 1.429 . S
C1381 C1375 1.429 . S
C1381 C1382 1.523 . S
C1382 C1363 1.368 . S
C1382 C1376 1.368 . S
C1382 C1381 1.523 . S
C1383 C1367 1.429 . S
C1383 C1379 1.429 . S
C1383 C1384 1.523 . S
C1384 C1368 1.368 . S
C1384 C1380 1.368 . S
C1384 C1383 1.523 . S
H1385 C1360 0.950 . S
H1386 C1362 0.950 . S
H1387 C1363 0.949 . S
H1388 C1365 0.950 . S
H1389 C1367 0.950 . S
C1390 C1391 1.349 1_554 S
C1390 C1392 1.327 . S
C1390 H1415 0.950 . S
C1391 C1390 1.349 1_556 S
C1391 C1407 1.349 . S
C1392 C1390 1.327 . S
C1392 C1411 1.429 . S
C1392 H1416 0.950 . S
C1393 C1410 1.574 . S
C1393 C1412 1.368 . S
C1393 H1417 0.949 . S
H1394 C1398 0.949 . S
C1395 C1396 1.349 . S
C1395 C1397 1.327 . S
C1395 H1418 0.950 . S
C1396 C1395 1.349 . S
C1396 C1408 1.349 . S
C1397 C1395 1.327 . S
C1397 C1413 1.429 . S
C1397 H1419 0.950 . S
C1398 H1394 0.949 . S
C1398 C1406 1.574 . S
C1398 C1414 1.368 . S
H1399 C1407 0.950 . S
H1400 C1405 0.950 . S
H1401 C1406 0.949 . S
H1402 C1408 0.950 . S
H1403 C1409 0.950 . S
H1404 C1410 0.949 . S
C1405 H1400 0.950 . S
C1405 C1407 1.327 1_554 S
C1405 C1411 1.429 . S
C1406 C1398 1.574 . S
C1406 H1401 0.949 . S
C1406 C1412 1.368 . S
C1407 C1391 1.349 . S
C1407 H1399 0.950 . S
C1407 C1405 1.327 1_556 S
C1408 C1396 1.349 . S
C1408 H1402 0.950 . S
C1408 C1409 1.327 . S
C1409 H1403 0.950 . S
C1409 C1408 1.327 . S
C1409 C1413 1.429 . S
C1410 C1393 1.574 . S
C1410 H1404 0.949 . S
C1410 C1414 1.368 . S
C1411 C1392 1.429 . S
C1411 C1405 1.429 . S
C1411 C1412 1.523 . S
C1412 C1393 1.368 . S
C1412 C1406 1.368 . S
C1412 C1411 1.523 . S
C1413 C1397 1.429 . S
C1413 C1409 1.429 . S
C1413 C1414 1.523 . S
C1414 C1398 1.368 . S
C1414 C1410 1.368 . S
C1414 C1413 1.523 . S
H1415 C1390 0.950 . S
H1416 C1392 0.950 . S
H1417 C1393 0.949 . S
H1418 C1395 0.950 . S
H1419 C1397 0.950 . S
C1420 C1421 1.349 1_556 S
C1420 C1422 1.327 . S
C1420 H1445 0.950 . S
C1421 C1420 1.349 1_554 S
C1421 C1437 1.349 . S
C1422 C1420 1.327 . S
C1422 C1441 1.429 . S
C1422 H1446 0.950 . S
C1423 C1440 1.574 . S
C1423 C1442 1.368 . S
C1423 H1447 0.949 . S
H1424 C1428 0.949 . S
C1425 C1426 1.349 . S
C1425 C1427 1.327 . S
C1425 H1448 0.950 . S
C1426 C1425 1.349 . S
C1426 C1438 1.349 . S
C1427 C1425 1.327 . S
C1427 C1443 1.429 . S
C1427 H1449 0.950 . S
C1428 H1424 0.949 . S
C1428 C1436 1.574 . S
C1428 C1444 1.368 . S
H1429 C1437 0.950 . S
H1430 C1435 0.950 . S
H1431 C1436 0.949 . S
H1432 C1438 0.950 . S
H1433 C1439 0.950 . S
H1434 C1440 0.949 . S
C1435 H1430 0.950 . S
C1435 C1437 1.327 1_556 S
C1435 C1441 1.429 . S
C1436 C1428 1.574 . S
C1436 H1431 0.949 . S
C1436 C1442 1.368 . S
C1437 C1421 1.349 . S
C1437 H1429 0.950 . S
C1437 C1435 1.327 1_554 S
C1438 C1426 1.349 . S
C1438 H1432 0.950 . S
C1438 C1439 1.327 . S
C1439 H1433 0.950 . S
C1439 C1438 1.327 . S
C1439 C1443 1.429 . S
C1440 C1423 1.574 . S
C1440 H1434 0.949 . S
C1440 C1444 1.368 . S
C1441 C1422 1.429 . S
C1441 C1435 1.429 . S
C1441 C1442 1.523 . S
C1442 C1423 1.368 . S
C1442 C1436 1.368 . S
C1442 C1441 1.523 . S
C1443 C1427 1.429 . S
C1443 C1439 1.429 . S
C1443 C1444 1.523 . S
C1444 C1428 1.368 . S
C1444 C1440 1.368 . S
C1444 C1443 1.523 . S
H1445 C1420 0.950 . S
H1446 C1422 0.950 . S
H1447 C1423 0.949 . S
H1448 C1425 0.950 . S
H1449 C1427 0.950 . S
C1450 C1451 1.349 . S
C1450 C1452 1.327 1_556 S
C1450 H1475 0.950 . S
C1451 C1450 1.349 . S
C1451 C1467 1.349 1_556 S
C1452 C1450 1.327 1_554 S
C1452 C1471 1.429 . S
C1452 H1476 0.950 . S
C1453 C1470 1.574 . S
C1453 C1472 1.368 . S
C1453 H1477 0.949 . S
H1454 C1458 0.949 . S
C1455 C1456 1.349 . S
C1455 C1457 1.327 . S
C1455 H1478 0.950 . S
C1456 C1455 1.349 . S
C1456 C1468 1.349 . S
C1457 C1455 1.327 . S
C1457 C1473 1.429 . S
C1457 H1479 0.950 . S
C1458 H1454 0.949 . S
C1458 C1466 1.574 . S
C1458 C1474 1.368 . S
H1459 C1467 0.950 . S
H1460 C1465 0.950 . S
H1461 C1466 0.949 . S
H1462 C1468 0.950 . S
H1463 C1469 0.950 . S
H1464 C1470 0.949 . S
C1465 H1460 0.950 . S
C1465 C1467 1.327 . S
C1465 C1471 1.429 . S
C1466 C1458 1.574 . S
C1466 H1461 0.949 . S
C1466 C1472 1.368 . S
C1467 C1451 1.349 1_554 S
C1467 H1459 0.950 . S
C1467 C1465 1.327 . S
C1468 C1456 1.349 . S
C1468 H1462 0.950 . S
C1468 C1469 1.327 . S
C1469 H1463 0.950 . S
C1469 C1468 1.327 . S
C1469 C1473 1.429 . S
C1470 C1453 1.574 . S
C1470 H1464 0.949 . S
C1470 C1474 1.368 . S
C1471 C1452 1.429 . S
C1471 C1465 1.429 . S
C1471 C1472 1.523 . S
C1472 C1453 1.368 . S
C1472 C1466 1.368 . S
C1472 C1471 1.523 . S
C1473 C1457 1.429 . S
C1473 C1469 1.429 . S
C1473 C1474 1.523 . S
C1474 C1458 1.368 . S
C1474 C1470 1.368 . S
C1474 C1473 1.523 . S
H1475 C1450 0.950 . S
H1476 C1452 0.950 . S
H1477 C1453 0.949 . S
H1478 C1455 0.950 . S
H1479 C1457 0.950 . S
C1480 C1481 1.349 . S
C1480 C1482 1.327 . S
C1480 H1505 0.950 . S
C1481 C1480 1.349 . S
C1481 C1497 1.349 . S
C1482 C1480 1.327 . S
C1482 C1501 1.429 . S
C1482 H1506 0.950 . S
C1483 C1500 1.574 . S
C1483 C1502 1.368 . S
C1483 H1507 0.949 . S
H1484 C1488 0.949 . S
C1485 C1486 1.349 . S
C1485 C1487 1.327 . S
C1485 H1508 0.950 . S
C1486 C1485 1.349 . S
C1486 C1498 1.349 . S
C1487 C1485 1.327 . S
C1487 C1503 1.429 . S
C1487 H1509 0.950 . S
C1488 H1484 0.949 . S
C1488 C1496 1.574 . S
C1488 C1504 1.368 . S
H1489 C1497 0.950 . S
H1490 C1495 0.950 . S
H1491 C1496 0.949 . S
H1492 C1498 0.950 . S
H1493 C1499 0.950 . S
H1494 C1500 0.949 . S
C1495 H1490 0.950 . S
C1495 C1497 1.327 . S
C1495 C1501 1.429 . S
C1496 C1488 1.574 . S
C1496 H1491 0.949 . S
C1496 C1502 1.368 . S
C1497 C1481 1.349 . S
C1497 H1489 0.950 . S
C1497 C1495 1.327 . S
C1498 C1486 1.349 . S
C1498 H1492 0.950 . S
C1498 C1499 1.327 . S
C1499 H1493 0.950 . S
C1499 C1498 1.327 . S
C1499 C1503 1.429 . S
C1500 C1483 1.574 . S
C1500 H1494 0.949 . S
C1500 C1504 1.368 . S
C1501 C1482 1.429 . S
C1501 C1495 1.429 . S
C1501 C1502 1.523 . S
C1502 C1483 1.368 . S
C1502 C1496 1.368 . S
C1502 C1501 1.523 . S
C1503 C1487 1.429 . S
C1503 C1499 1.429 . S
C1503 C1504 1.523 . S
C1504 C1488 1.368 . S
C1504 C1500 1.368 . S
C1504 C1503 1.523 . S
H1505 C1480 0.950 . S
H1506 C1482 0.950 . S
H1507 C1483 0.949 . S
H1508 C1485 0.950 . S
H1509 C1487 0.950 . S
C1510 C1511 1.349 . S
C1510 C1512 1.327 . S
C1510 H1535 0.950 . S
C1511 C1510 1.349 . S
C1511 C1527 1.349 . S
C1512 C1510 1.327 . S
C1512 C1531 1.429 . S
C1512 H1536 0.950 . S
C1513 C1530 1.574 . S
C1513 C1532 1.368 . S
C1513 H1537 0.949 . S
H1514 C1518 0.949 . S
C1515 C1516 1.349 . S
C1515 C1517 1.327 . S
C1515 H1538 0.950 . S
C1516 C1515 1.349 . S
C1516 C1528 1.349 . S
C1517 C1515 1.327 . S
C1517 C1533 1.429 . S
C1517 H1539 0.950 . S
C1518 H1514 0.949 . S
C1518 C1526 1.574 . S
C1518 C1534 1.368 . S
H1519 C1527 0.950 . S
H1520 C1525 0.950 . S
H1521 C1526 0.949 . S
H1522 C1528 0.950 . S
H1523 C1529 0.950 . S
H1524 C1530 0.949 . S
C1525 H1520 0.950 . S
C1525 C1527 1.327 . S
C1525 C1531 1.429 . S
C1526 C1518 1.574 . S
C1526 H1521 0.949 . S
C1526 C1532 1.368 . S
C1527 C1511 1.349 . S
C1527 H1519 0.950 . S
C1527 C1525 1.327 . S
C1528 C1516 1.349 . S
C1528 H1522 0.950 . S
C1528 C1529 1.327 . S
C1529 H1523 0.950 . S
C1529 C1528 1.327 . S
C1529 C1533 1.429 . S
C1530 C1513 1.574 . S
C1530 H1524 0.949 . S
C1530 C1534 1.368 . S
C1531 C1512 1.429 . S
C1531 C1525 1.429 . S
C1531 C1532 1.523 . S
C1532 C1513 1.368 . S
C1532 C1526 1.368 . S
C1532 C1531 1.523 . S
C1533 C1517 1.429 . S
C1533 C1529 1.429 . S
C1533 C1534 1.523 . S
C1534 C1518 1.368 . S
C1534 C1530 1.368 . S
C1534 C1533 1.523 . S
H1535 C1510 0.950 . S
H1536 C1512 0.950 . S
H1537 C1513 0.949 . S
H1538 C1515 0.950 . S
H1539 C1517 0.950 . S
C1540 C1541 1.349 . S
C1540 C1542 1.327 . S
C1540 H1565 0.950 . S
C1541 C1540 1.349 . S
C1541 C1557 1.349 . S
C1542 C1540 1.327 . S
C1542 C1561 1.429 . S
C1542 H1566 0.950 . S
C1543 C1560 1.574 . S
C1543 C1562 1.368 . S
C1543 H1567 0.949 . S
H1544 C1548 0.949 . S
C1545 C1546 1.349 . S
C1545 C1547 1.327 . S
C1545 H1568 0.950 . S
C1546 C1545 1.349 . S
C1546 C1558 1.349 . S
C1547 C1545 1.327 . S
C1547 C1563 1.429 . S
C1547 H1569 0.950 . S
C1548 H1544 0.949 . S
C1548 C1556 1.574 . S
C1548 C1564 1.368 . S
H1549 C1557 0.950 . S
H1550 C1555 0.950 . S
H1551 C1556 0.949 . S
H1552 C1558 0.950 . S
H1553 C1559 0.950 . S
H1554 C1560 0.949 . S
C1555 H1550 0.950 . S
C1555 C1557 1.327 . S
C1555 C1561 1.429 . S
C1556 C1548 1.574 . S
C1556 H1551 0.949 . S
C1556 C1562 1.368 . S
C1557 C1541 1.349 . S
C1557 H1549 0.950 . S
C1557 C1555 1.327 . S
C1558 C1546 1.349 . S
C1558 H1552 0.950 . S
C1558 C1559 1.327 . S
C1559 H1553 0.950 . S
C1559 C1558 1.327 . S
C1559 C1563 1.429 . S
C1560 C1543 1.574 . S
C1560 H1554 0.949 . S
C1560 C1564 1.368 . S
C1561 C1542 1.429 . S
C1561 C1555 1.429 . S
C1561 C1562 1.523 . S
C1562 C1543 1.368 . S
C1562 C1556 1.368 . S
C1562 C1561 1.523 . S
C1563 C1547 1.429 . S
C1563 C1559 1.429 . S
C1563 C1564 1.523 . S
C1564 C1548 1.368 . S
C1564 C1560 1.368 . S
C1564 C1563 1.523 . S
H1565 C1540 0.950 . S
H1566 C1542 0.950 . S
H1567 C1543 0.949 . S
H1568 C1545 0.950 . S
H1569 C1547 0.950 . S
C1570 C1571 1.349 . S
C1570 C1572 1.327 . S
C1570 H1595 0.950 . S
C1571 C1570 1.349 . S
C1571 C1587 1.349 . S
C1572 C1570 1.327 . S
C1572 C1591 1.429 . S
C1572 H1596 0.950 . S
C1573 C1590 1.574 . S
C1573 C1592 1.368 . S
C1573 H1597 0.949 . S
H1574 C1578 0.949 . S
C1575 C1576 1.349 . S
C1575 C1577 1.327 . S
C1575 H1598 0.950 . S
C1576 C1575 1.349 . S
C1576 C1588 1.349 . S
C1577 C1575 1.327 . S
C1577 C1593 1.429 . S
C1577 H1599 0.950 . S
C1578 H1574 0.949 . S
C1578 C1586 1.574 . S
C1578 C1594 1.368 . S
H1579 C1587 0.950 . S
H1580 C1585 0.950 . S
H1581 C1586 0.949 . S
H1582 C1588 0.950 . S
H1583 C1589 0.950 . S
H1584 C1590 0.949 . S
C1585 H1580 0.950 . S
C1585 C1587 1.327 . S
C1585 C1591 1.429 . S
C1586 C1578 1.574 . S
C1586 H1581 0.949 . S
C1586 C1592 1.368 . S
C1587 C1571 1.349 . S
C1587 H1579 0.950 . S
C1587 C1585 1.327 . S
C1588 C1576 1.349 . S
C1588 H1582 0.950 . S
C1588 C1589 1.327 . S
C1589 H1583 0.950 . S
C1589 C1588 1.327 . S
C1589 C1593 1.429 . S
C1590 C1573 1.574 . S
C1590 H1584 0.949 . S
C1590 C1594 1.368 . S
C1591 C1572 1.429 . S
C1591 C1585 1.429 . S
C1591 C1592 1.523 . S
C1592 C1573 1.368 . S
C1592 C1586 1.368 . S
C1592 C1591 1.523 . S
C1593 C1577 1.429 . S
C1593 C1589 1.429 . S
C1593 C1594 1.523 . S
C1594 C1578 1.368 . S
C1594 C1590 1.368 . S
C1594 C1593 1.523 . S
H1595 C1570 0.950 . S
H1596 C1572 0.950 . S
H1597 C1573 0.949 . S
H1598 C1575 0.950 . S
H1599 C1577 0.950 . S
C1600 C1601 1.349 . S
C1600 C1602 1.327 . S
C1600 H1625 0.950 . S
C1601 C1600 1.349 . S
C1601 C1617 1.349 . S
C1602 C1600 1.327 . S
C1602 C1621 1.429 . S
C1602 H1626 0.950 . S
C1603 C1620 1.574 . S
C1603 C1622 1.368 . S
C1603 H1627 0.949 . S
H1604 C1608 0.949 . S
C1605 C1606 1.349 . S
C1605 C1607 1.327 . S
C1605 H1628 0.950 . S
C1606 C1605 1.349 . S
C1606 C1618 1.349 . S
C1607 C1605 1.327 . S
C1607 C1623 1.429 . S
C1607 H1629 0.950 . S
C1608 H1604 0.949 . S
C1608 C1616 1.574 . S
C1608 C1624 1.368 . S
H1609 C1617 0.950 . S
H1610 C1615 0.950 . S
H1611 C1616 0.949 . S
H1612 C1618 0.950 . S
H1613 C1619 0.950 . S
H1614 C1620 0.949 . S
C1615 H1610 0.950 . S
C1615 C1617 1.327 . S
C1615 C1621 1.429 . S
C1616 C1608 1.574 . S
C1616 H1611 0.949 . S
C1616 C1622 1.368 . S
C1617 C1601 1.349 . S
C1617 H1609 0.950 . S
C1617 C1615 1.327 . S
C1618 C1606 1.349 . S
C1618 H1612 0.950 . S
C1618 C1619 1.327 . S
C1619 H1613 0.950 . S
C1619 C1618 1.327 . S
C1619 C1623 1.429 . S
C1620 C1603 1.574 . S
C1620 H1614 0.949 . S
C1620 C1624 1.368 . S
C1621 C1602 1.429 . S
C1621 C1615 1.429 . S
C1621 C1622 1.523 . S
C1622 C1603 1.368 . S
C1622 C1616 1.368 . S
C1622 C1621 1.523 . S
C1623 C1607 1.429 . S
C1623 C1619 1.429 . S
C1623 C1624 1.523 . S
C1624 C1608 1.368 . S
C1624 C1620 1.368 . S
C1624 C1623 1.523 . S
H1625 C1600 0.950 . S
H1626 C1602 0.950 . S
H1627 C1603 0.949 . S
H1628 C1605 0.950 . S
H1629 C1607 0.950 . S
C1630 C1631 1.349 . S
C1630 C1632 1.327 . S
C1630 H1655 0.950 . S
C1631 C1630 1.349 . S
C1631 C1647 1.349 . S
C1632 C1630 1.327 . S
C1632 C1651 1.429 . S
C1632 H1656 0.950 . S
C1633 C1650 1.574 . S
C1633 C1652 1.368 . S
C1633 H1657 0.949 . S
H1634 C1638 0.949 . S
C1635 C1636 1.349 . S
C1635 C1637 1.327 . S
C1635 H1658 0.950 . S
C1636 C1635 1.349 . S
C1636 C1648 1.349 . S
C1637 C1635 1.327 . S
C1637 C1653 1.429 . S
C1637 H1659 0.950 . S
C1638 H1634 0.949 . S
C1638 C1646 1.574 . S
C1638 C1654 1.368 . S
H1639 C1647 0.950 . S
H1640 C1645 0.950 . S
H1641 C1646 0.949 . S
H1642 C1648 0.950 . S
H1643 C1649 0.950 . S
H1644 C1650 0.949 . S
C1645 H1640 0.950 . S
C1645 C1647 1.327 . S
C1645 C1651 1.429 . S
C1646 C1638 1.574 . S
C1646 H1641 0.949 . S
C1646 C1652 1.368 . S
C1647 C1631 1.349 . S
C1647 H1639 0.950 . S
C1647 C1645 1.327 . S
C1648 C1636 1.349 . S
C1648 H1642 0.950 . S
C1648 C1649 1.327 . S
C1649 H1643 0.950 . S
C1649 C1648 1.327 . S
C1649 C1653 1.429 . S
C1650 C1633 1.574 . S
C1650 H1644 0.949 . S
C1650 C1654 1.368 . S
C1651 C1632 1.429 . S
C1651 C1645 1.429 . S
C1651 C1652 1.523 . S
C1652 C1633 1.368 . S
C1652 C1646 1.368 . S
C1652 C1651 1.523 . S
C1653 C1637 1.429 . S
C1653 C1649 1.429 . S
C1653 C1654 1.523 . S
C1654 C1638 1.368 . S
C1654 C1650 1.368 . S
C1654 C1653 1.523 . S
H1655 C1630 0.950 . S
H1656 C1632 0.950 . S
H1657 C1633 0.949 . S
H1658 C1635 0.950 . S
H1659 C1637 0.950 . S
C1660 C1661 1.349 . S
C1660 C1662 1.327 . S
C1660 H1685 0.950 . S
C1661 C1660 1.349 . S
C1661 C1677 1.349 . S
C1662 C1660 1.327 . S
C1662 C1681 1.429 . S
C1662 H1686 0.950 . S
C1663 C1680 1.574 . S
C1663 C1682 1.368 . S
C1663 H1687 0.949 . S
H1664 C1668 0.949 . S
C1665 C1666 1.349 . S
C1665 C1667 1.327 . S
C1665 H1688 0.950 . S
C1666 C1665 1.349 . S
C1666 C1678 1.349 . S
C1667 C1665 1.327 . S
C1667 C1683 1.429 . S
C1667 H1689 0.950 . S
C1668 H1664 0.949 . S
C1668 C1676 1.574 . S
C1668 C1684 1.368 . S
H1669 C1677 0.950 . S
H1670 C1675 0.950 . S
H1671 C1676 0.949 . S
H1672 C1678 0.950 . S
H1673 C1679 0.950 . S
H1674 C1680 0.949 . S
C1675 H1670 0.950 . S
C1675 C1677 1.327 . S
C1675 C1681 1.429 . S
C1676 C1668 1.574 . S
C1676 H1671 0.949 . S
C1676 C1682 1.368 . S
C1677 C1661 1.349 . S
C1677 H1669 0.950 . S
C1677 C1675 1.327 . S
C1678 C1666 1.349 . S
C1678 H1672 0.950 . S
C1678 C1679 1.327 . S
C1679 H1673 0.950 . S
C1679 C1678 1.327 . S
C1679 C1683 1.429 . S
C1680 C1663 1.574 . S
C1680 H1674 0.949 . S
C1680 C1684 1.368 . S
C1681 C1662 1.429 . S
C1681 C1675 1.429 . S
C1681 C1682 1.523 . S
C1682 C1663 1.368 . S
C1682 C1676 1.368 . S
C1682 C1681 1.523 . S
C1683 C1667 1.429 . S
C1683 C1679 1.429 . S
C1683 C1684 1.523 . S
C1684 C1668 1.368 . S
C1684 C1680 1.368 . S
C1684 C1683 1.523 . S
H1685 C1660 0.950 . S
H1686 C1662 0.950 . S
H1687 C1663 0.949 . S
H1688 C1665 0.950 . S
H1689 C1667 0.950 . S
C1690 C1691 1.349 . S
C1690 C1692 1.327 . S
C1690 H1715 0.950 . S
C1691 C1690 1.349 . S
C1691 C1707 1.349 . S
C1692 C1690 1.327 . S
C1692 C1711 1.429 . S
C1692 H1716 0.950 . S
C1693 C1710 1.574 . S
C1693 C1712 1.368 . S
C1693 H1717 0.949 . S
H1694 C1698 0.949 . S
C1695 C1696 1.349 . S
C1695 C1697 1.327 . S
C1695 H1718 0.950 . S
C1696 C1695 1.349 . S
C1696 C1708 1.349 . S
C1697 C1695 1.327 . S
C1697 C1713 1.429 . S
C1697 H1719 0.950 . S
C1698 H1694 0.949 . S
C1698 C1706 1.574 . S
C1698 C1714 1.368 . S
H1699 C1707 0.950 . S
H1700 C1705 0.950 . S
H1701 C1706 0.949 . S
H1702 C1708 0.950 . S
H1703 C1709 0.950 . S
H1704 C1710 0.949 . S
C1705 H1700 0.950 . S
C1705 C1707 1.327 . S
C1705 C1711 1.429 . S
C1706 C1698 1.574 . S
C1706 H1701 0.949 . S
C1706 C1712 1.368 . S
C1707 C1691 1.349 . S
C1707 H1699 0.950 . S
C1707 C1705 1.327 . S
C1708 C1696 1.349 . S
C1708 H1702 0.950 . S
C1708 C1709 1.327 . S
C1709 H1703 0.950 . S
C1709 C1708 1.327 . S
C1709 C1713 1.429 . S
C1710 C1693 1.574 . S
C1710 H1704 0.949 . S
C1710 C1714 1.368 . S
C1711 C1692 1.429 . S
C1711 C1705 1.429 . S
C1711 C1712 1.523 . S
C1712 C1693 1.368 . S
C1712 C1706 1.368 . S
C1712 C1711 1.523 . S
C1713 C1697 1.429 . S
C1713 C1709 1.429 . S
C1713 C1714 1.523 . S
C1714 C1698 1.368 . S
C1714 C1710 1.368 . S
C1714 C1713 1.523 . S
H1715 C1690 0.950 . S
H1716 C1692 0.950 . S
H1717 C1693 0.949 . S
H1718 C1695 0.950 . S
H1719 C1697 0.950 . S
C1720 C1721 1.349 . S
C1720 C1722 1.327 . S
C1720 H1745 0.950 . S
C1721 C1720 1.349 . S
C1721 C1737 1.349 . S
C1722 C1720 1.327 . S
C1722 C1741 1.429 . S
C1722 H1746 0.950 . S
C1723 C1740 1.574 . S
C1723 C1742 1.368 . S
C1723 H1747 0.949 . S
H1724 C1728 0.949 . S
C1725 C1726 1.349 . S
C1725 C1727 1.327 . S
C1725 H1748 0.950 . S
C1726 C1725 1.349 . S
C1726 C1738 1.349 . S
C1727 C1725 1.327 . S
C1727 C1743 1.429 . S
C1727 H1749 0.950 . S
C1728 H1724 0.949 . S
C1728 C1736 1.574 . S
C1728 C1744 1.368 . S
H1729 C1737 0.950 . S
H1730 C1735 0.950 . S
H1731 C1736 0.949 . S
H1732 C1738 0.950 . S
H1733 C1739 0.950 . S
H1734 C1740 0.949 . S
C1735 H1730 0.950 . S
C1735 C1737 1.327 . S
C1735 C1741 1.429 . S
C1736 C1728 1.574 . S
C1736 H1731 0.949 . S
C1736 C1742 1.368 . S
C1737 C1721 1.349 . S
C1737 H1729 0.950 . S
C1737 C1735 1.327 . S
C1738 C1726 1.349 . S
C1738 H1732 0.950 . S
C1738 C1739 1.327 . S
C1739 H1733 0.950 . S
C1739 C1738 1.327 . S
C1739 C1743 1.429 . S
C1740 C1723 1.574 . S
C1740 H1734 0.949 . S
C1740 C1744 1.368 . S
C1741 C1722 1.429 . S
C1741 C1735 1.429 . S
C1741 C1742 1.523 . S
C1742 C1723 1.368 . S
C1742 C1736 1.368 . S
C1742 C1741 1.523 . S
C1743 C1727 1.429 . S
C1743 C1739 1.429 . S
C1743 C1744 1.523 . S
C1744 C1728 1.368 . S
C1744 C1740 1.368 . S
C1744 C1743 1.523 . S
H1745 C1720 0.950 . S
H1746 C1722 0.950 . S
H1747 C1723 0.949 . S
H1748 C1725 0.950 . S
H1749 C1727 0.950 . S
C1750 C1751 1.349 . S
C1750 C1752 1.327 . S
C1750 H1775 0.950 . S
C1751 C1750 1.349 . S
C1751 C1767 1.349 . S
C1752 C1750 1.327 . S
C1752 C1771 1.429 . S
C1752 H1776 0.950 . S
C1753 C1770 1.574 . S
C1753 C1772 1.368 . S
C1753 H1777 0.949 . S
H1754 C1758 0.949 . S
C1755 C1756 1.349 . S
C1755 C1757 1.327 . S
C1755 H1778 0.950 . S
C1756 C1755 1.349 . S
C1756 C1768 1.349 . S
C1757 C1755 1.327 . S
C1757 C1773 1.429 . S
C1757 H1779 0.950 . S
C1758 H1754 0.949 . S
C1758 C1766 1.574 . S
C1758 C1774 1.368 . S
H1759 C1767 0.950 . S
H1760 C1765 0.950 . S
H1761 C1766 0.949 . S
H1762 C1768 0.950 . S
H1763 C1769 0.950 . S
H1764 C1770 0.949 . S
C1765 H1760 0.950 . S
C1765 C1767 1.327 . S
C1765 C1771 1.429 . S
C1766 C1758 1.574 . S
C1766 H1761 0.949 . S
C1766 C1772 1.368 . S
C1767 C1751 1.349 . S
C1767 H1759 0.950 . S
C1767 C1765 1.327 . S
C1768 C1756 1.349 . S
C1768 H1762 0.950 . S
C1768 C1769 1.327 . S
C1769 H1763 0.950 . S
C1769 C1768 1.327 . S
C1769 C1773 1.429 . S
C1770 C1753 1.574 . S
C1770 H1764 0.949 . S
C1770 C1774 1.368 . S
C1771 C1752 1.429 . S
C1771 C1765 1.429 . S
C1771 C1772 1.523 . S
C1772 C1753 1.368 . S
C1772 C1766 1.368 . S
C1772 C1771 1.523 . S
C1773 C1757 1.429 . S
C1773 C1769 1.429 . S
C1773 C1774 1.523 . S
C1774 C1758 1.368 . S
C1774 C1770 1.368 . S
C1774 C1773 1.523 . S
H1775 C1750 0.950 . S
H1776 C1752 0.950 . S
H1777 C1753 0.949 . S
H1778 C1755 0.950 . S
H1779 C1757 0.950 . S
C1780 C1781 1.349 . S
C1780 C1782 1.327 . S
C1780 H1805 0.950 . S
C1781 C1780 1.349 . S
C1781 C1797 1.349 . S
C1782 C1780 1.327 . S
C1782 C1801 1.429 . S
C1782 H1806 0.950 . S
C1783 C1800 1.574 . S
C1783 C1802 1.368 . S
C1783 H1807 0.949 . S
H1784 C1788 0.949 . S
C1785 C1786 1.349 . S
C1785 C1787 1.327 . S
C1785 H1808 0.950 . S
C1786 C1785 1.349 . S
C1786 C1798 1.349 . S
C1787 C1785 1.327 . S
C1787 C1803 1.429 . S
C1787 H1809 0.950 . S
C1788 H1784 0.949 . S
C1788 C1796 1.574 . S
C1788 C1804 1.368 . S
H1789 C1797 0.950 . S
H1790 C1795 0.950 . S
H1791 C1796 0.949 . S
H1792 C1798 0.950 . S
H1793 C1799 0.950 . S
H1794 C1800 0.949 . S
C1795 H1790 0.950 . S
C1795 C1797 1.327 . S
C1795 C1801 1.429 . S
C1796 C1788 1.574 . S
C1796 H1791 0.949 . S
C1796 C1802 1.368 . S
C1797 C1781 1.349 . S
C1797 H1789 0.950 . S
C1797 C1795 1.327 . S
C1798 C1786 1.349 . S
C1798 H1792 0.950 . S
C1798 C1799 1.327 . S
C1799 H1793 0.950 . S
C1799 C1798 1.327 . S
C1799 C1803 1.429 . S
C1800 C1783 1.574 . S
C1800 H1794 0.949 . S
C1800 C1804 1.368 . S
C1801 C1782 1.429 . S
C1801 C1795 1.429 . S
C1801 C1802 1.523 . S
C1802 C1783 1.368 . S
C1802 C1796 1.368 . S
C1802 C1801 1.523 . S
C1803 C1787 1.429 . S
C1803 C1799 1.429 . S
C1803 C1804 1.523 . S
C1804 C1788 1.368 . S
C1804 C1800 1.368 . S
C1804 C1803 1.523 . S
H1805 C1780 0.950 . S
H1806 C1782 0.950 . S
H1807 C1783 0.949 . S
H1808 C1785 0.950 . S
H1809 C1787 0.950 . S
C1810 C1811 1.349 . S
C1810 C1812 1.327 . S
C1810 H1835 0.950 . S
C1811 C1810 1.349 . S
C1811 C1827 1.349 . S
C1812 C1810 1.327 . S
C1812 C1831 1.429 . S
C1812 H1836 0.950 . S
C1813 C1830 1.574 . S
C1813 C1832 1.368 . S
C1813 H1837 0.949 . S
H1814 C1818 0.949 . S
C1815 C1816 1.349 . S
C1815 C1817 1.327 . S
C1815 H1838 0.950 . S
C1816 C1815 1.349 . S
C1816 C1828 1.349 . S
C1817 C1815 1.327 . S
C1817 C1833 1.429 . S
C1817 H1839 0.950 . S
C1818 H1814 0.949 . S
C1818 C1826 1.574 . S
C1818 C1834 1.368 . S
H1819 C1827 0.950 . S
H1820 C1825 0.950 . S
H1821 C1826 0.949 . S
H1822 C1828 0.950 . S
H1823 C1829 0.950 . S
H1824 C1830 0.949 . S
C1825 H1820 0.950 . S
C1825 C1827 1.327 . S
C1825 C1831 1.429 . S
C1826 C1818 1.574 . S
C1826 H1821 0.949 . S
C1826 C1832 1.368 . S
C1827 C1811 1.349 . S
C1827 H1819 0.950 . S
C1827 C1825 1.327 . S
C1828 C1816 1.349 . S
C1828 H1822 0.950 . S
C1828 C1829 1.327 . S
C1829 H1823 0.950 . S
C1829 C1828 1.327 . S
C1829 C1833 1.429 . S
C1830 C1813 1.574 . S
C1830 H1824 0.949 . S
C1830 C1834 1.368 . S
C1831 C1812 1.429 . S
C1831 C1825 1.429 . S
C1831 C1832 1.523 . S
C1832 C1813 1.368 . S
C1832 C1826 1.368 . S
C1832 C1831 1.523 . S
C1833 C1817 1.429 . S
C1833 C1829 1.429 . S
C1833 C1834 1.523 . S
C1834 C1818 1.368 . S
C1834 C1830 1.368 . S
C1834 C1833 1.523 . S
H1835 C1810 0.950 . S
H1836 C1812 0.950 . S
H1837 C1813 0.949 . S
H1838 C1815 0.950 . S
H1839 C1817 0.950 . S
C1840 C1841 1.349 . S
C1840 C1842 1.327 1_556 S
C1840 H1865 0.950 . S
C1841 C1840 1.349 . S
C1841 C1857 1.349 . S
C1842 C1840 1.327 1_554 S
C1842 C1861 1.429 . S
C1842 H1866 0.950 . S
C1843 C1860 1.574 . S
C1843 C1862 1.368 . S
C1843 H1867 0.949 . S
H1844 C1848 0.949 . S
C1845 C1846 1.349 . S
C1845 C1847 1.327 . S
C1845 H1868 0.950 . S
C1846 C1845 1.349 . S
C1846 C1858 1.349 . S
C1847 C1845 1.327 . S
C1847 C1863 1.429 . S
C1847 H1869 0.950 . S
C1848 H1844 0.949 . S
C1848 C1856 1.574 . S
C1848 C1864 1.368 . S
H1849 C1857 0.950 . S
H1850 C1855 0.950 . S
H1851 C1856 0.949 . S
H1852 C1858 0.950 . S
H1853 C1859 0.950 . S
H1854 C1860 0.949 . S
C1855 H1850 0.950 . S
C1855 C1857 1.327 1_554 S
C1855 C1861 1.429 . S
C1856 C1848 1.574 . S
C1856 H1851 0.949 . S
C1856 C1862 1.368 . S
C1857 C1841 1.349 . S
C1857 H1849 0.950 . S
C1857 C1855 1.327 1_556 S
C1858 C1846 1.349 . S
C1858 H1852 0.950 . S
C1858 C1859 1.327 . S
C1859 H1853 0.950 . S
C1859 C1858 1.327 . S
C1859 C1863 1.429 . S
C1860 C1843 1.574 . S
C1860 H1854 0.949 . S
C1860 C1864 1.368 . S
C1861 C1842 1.429 . S
C1861 C1855 1.429 . S
C1861 C1862 1.523 . S
C1862 C1843 1.368 . S
C1862 C1856 1.368 . S
C1862 C1861 1.523 . S
C1863 C1847 1.429 . S
C1863 C1859 1.429 . S
C1863 C1864 1.523 . S
C1864 C1848 1.368 . S
C1864 C1860 1.368 . S
C1864 C1863 1.523 . S
H1865 C1840 0.950 . S
H1866 C1842 0.950 . S
H1867 C1843 0.949 . S
H1868 C1845 0.950 . S
H1869 C1847 0.950 . S
C1870 C1871 1.349 . S
C1870 C1872 1.327 . S
C1870 H1895 0.950 . S
C1871 C1870 1.349 . S
C1871 C1887 1.349 . S
C1872 C1870 1.327 . S
C1872 C1891 1.429 . S
C1872 H1896 0.950 . S
C1873 C1890 1.574 . S
C1873 C1892 1.368 . S
C1873 H1897 0.949 . S
H1874 C1878 0.949 . S
C1875 C1876 1.349 . S
C1875 C1877 1.327 1_554 S
C1875 H1898 0.950 . S
C1876 C1875 1.349 . S
C1876 C1888 1.349 . S
C1877 C1875 1.327 1_556 S
C1877 C1893 1.429 . S
C1877 H1899 0.950 . S
C1878 H1874 0.949 . S
C1878 C1886 1.574 . S
C1878 C1894 1.368 . S
H1879 C1887 0.950 . S
H1880 C1885 0.950 . S
H1881 C1886 0.949 . S
H1882 C1888 0.950 . S
H1883 C1889 0.950 . S
H1884 C1890 0.949 . S
C1885 H1880 0.950 . S
C1885 C1887 1.327 . S
C1885 C1891 1.429 . S
C1886 C1878 1.574 . S
C1886 H1881 0.949 . S
C1886 C1892 1.368 . S
C1887 C1871 1.349 . S
C1887 H1879 0.950 . S
C1887 C1885 1.327 . S
C1888 C1876 1.349 . S
C1888 H1882 0.950 . S
C1888 C1889 1.327 1_554 S
C1889 H1883 0.950 . S
C1889 C1888 1.327 1_556 S
C1889 C1893 1.429 . S
C1890 C1873 1.574 . S
C1890 H1884 0.949 . S
C1890 C1894 1.368 . S
C1891 C1872 1.429 . S
C1891 C1885 1.429 . S
C1891 C1892 1.523 . S
C1892 C1873 1.368 . S
C1892 C1886 1.368 . S
C1892 C1891 1.523 . S
C1893 C1877 1.429 . S
C1893 C1889 1.429 . S
C1893 C1894 1.523 . S
C1894 C1878 1.368 . S
C1894 C1890 1.368 . S
C1894 C1893 1.523 . S
H1895 C1870 0.950 . S
H1896 C1872 0.950 . S
H1897 C1873 0.949 . S
H1898 C1875 0.950 . S
H1899 C1877 0.950 . S
C1900 C1901 1.349 . S
C1900 C1902 1.327 . S
C1900 H1925 0.950 . S
C1901 C1900 1.349 . S
C1901 C1917 1.349 . S
C1902 C1900 1.327 . S
C1902 C1921 1.429 . S
C1902 H1926 0.950 . S
C1903 C1920 1.574 . S
C1903 C1922 1.368 . S
C1903 H1927 0.949 . S
H1904 C1908 0.949 . S
C1905 C1906 1.349 . S
C1905 C1907 1.327 1_556 S
C1905 H1928 0.950 . S
C1906 C1905 1.349 . S
C1906 C1918 1.349 . S
C1907 C1905 1.327 1_554 S
C1907 C1923 1.429 . S
C1907 H1929 0.950 . S
C1908 H1904 0.949 . S
C1908 C1916 1.574 . S
C1908 C1924 1.368 . S
H1909 C1917 0.950 . S
H1910 C1915 0.950 . S
H1911 C1916 0.949 . S
H1912 C1918 0.950 . S
H1913 C1919 0.950 . S
H1914 C1920 0.949 . S
C1915 H1910 0.950 . S
C1915 C1917 1.327 . S
C1915 C1921 1.429 . S
C1916 C1908 1.574 . S
C1916 H1911 0.949 . S
C1916 C1922 1.368 . S
C1917 C1901 1.349 . S
C1917 H1909 0.950 . S
C1917 C1915 1.327 . S
C1918 C1906 1.349 . S
C1918 H1912 0.950 . S
C1918 C1919 1.327 1_556 S
C1919 H1913 0.950 . S
C1919 C1918 1.327 1_554 S
C1919 C1923 1.429 . S
C1920 C1903 1.574 . S
C1920 H1914 0.949 . S
C1920 C1924 1.368 . S
C1921 C1902 1.429 . S
C1921 C1915 1.429 . S
C1921 C1922 1.523 . S
C1922 C1903 1.368 . S
C1922 C1916 1.368 . S
C1922 C1921 1.523 . S
C1923 C1907 1.429 . S
C1923 C1919 1.429 . S
C1923 C1924 1.523 . S
C1924 C1908 1.368 . S
C1924 C1920 1.368 . S
C1924 C1923 1.523 . S
H1925 C1900 0.950 . S
H1926 C1902 0.950 . S
H1927 C1903 0.949 . S
H1928 C1905 0.950 . S
H1929 C1907 0.950 . S
C1930 C1931 1.349 . S
C1930 C1932 1.327 1_554 S
C1930 H1955 0.950 . S
C1931 C1930 1.349 . S
C1931 C1947 1.349 . S
C1932 C1930 1.327 1_556 S
C1932 C1951 1.429 . S
C1932 H1956 0.950 . S
C1933 C1950 1.574 . S
C1933 C1952 1.368 . S
C1933 H1957 0.949 . S
H1934 C1938 0.949 . S
C1935 C1936 1.349 . S
C1935 C1937 1.327 . S
C1935 H1958 0.950 . S
C1936 C1935 1.349 . S
C1936 C1948 1.349 . S
C1937 C1935 1.327 . S
C1937 C1953 1.429 . S
C1937 H1959 0.950 . S
C1938 H1934 0.949 . S
C1938 C1946 1.574 . S
C1938 C1954 1.368 . S
H1939 C1947 0.950 . S
H1940 C1945 0.950 . S
H1941 C1946 0.949 . S
H1942 C1948 0.950 . S
H1943 C1949 0.950 . S
H1944 C1950 0.949 . S
C1945 H1940 0.950 . S
C1945 C1947 1.327 1_556 S
C1945 C1951 1.429 . S
C1946 C1938 1.574 . S
C1946 H1941 0.949 . S
C1946 C1952 1.368 . S
C1947 C1931 1.349 . S
C1947 H1939 0.950 . S
C1947 C1945 1.327 1_554 S
C1948 C1936 1.349 . S
C1948 H1942 0.950 . S
C1948 C1949 1.327 . S
C1949 H1943 0.950 . S
C1949 C1948 1.327 . S
C1949 C1953 1.429 . S
C1950 C1933 1.574 . S
C1950 H1944 0.949 . S
C1950 C1954 1.368 . S
C1951 C1932 1.429 . S
C1951 C1945 1.429 . S
C1951 C1952 1.523 . S
C1952 C1933 1.368 . S
C1952 C1946 1.368 . S
C1952 C1951 1.523 . S
C1953 C1937 1.429 . S
C1953 C1949 1.429 . S
C1953 C1954 1.523 . S
C1954 C1938 1.368 . S
C1954 C1950 1.368 . S
C1954 C1953 1.523 . S
H1955 C1930 0.950 . S
H1956 C1932 0.950 . S
H1957 C1933 0.949 . S
H1958 C1935 0.950 . S
H1959 C1937 0.950 . S
C1960 C1961 1.349 . S
C1960 C1962 1.327 . S
C1960 H1985 0.950 . S
C1961 C1960 1.349 . S
C1961 C1977 1.349 . S
C1962 C1960 1.327 . S
C1962 C1981 1.429 . S
C1962 H1986 0.950 . S
C1963 C1980 1.574 . S
C1963 C1982 1.368 . S
C1963 H1987 0.949 . S
H1964 C1968 0.949 . S
C1965 C1966 1.349 . S
C1965 C1967 1.327 1_556 S
C1965 H1988 0.950 . S
C1966 C1965 1.349 . S
C1966 C1978 1.349 . S
C1967 C1965 1.327 1_554 S
C1967 C1983 1.429 . S
C1967 H1989 0.950 . S
C1968 H1964 0.949 . S
C1968 C1976 1.574 . S
C1968 C1984 1.368 . S
H1969 C1977 0.950 . S
H1970 C1975 0.950 . S
H1971 C1976 0.949 . S
H1972 C1978 0.950 . S
H1973 C1979 0.950 . S
H1974 C1980 0.949 . S
C1975 H1970 0.950 . S
C1975 C1977 1.327 . S
C1975 C1981 1.429 . S
C1976 C1968 1.574 . S
C1976 H1971 0.949 . S
C1976 C1982 1.368 . S
C1977 C1961 1.349 . S
C1977 H1969 0.950 . S
C1977 C1975 1.327 . S
C1978 C1966 1.349 . S
C1978 H1972 0.950 . S
C1978 C1979 1.327 1_556 S
C1979 H1973 0.950 . S
C1979 C1978 1.327 1_554 S
C1979 C1983 1.429 . S
C1980 C1963 1.574 . S
C1980 H1974 0.949 . S
C1980 C1984 1.368 . S
C1981 C1962 1.429 . S
C1981 C1975 1.429 . S
C1981 C1982 1.523 . S
C1982 C1963 1.368 . S
C1982 C1976 1.368 . S
C1982 C1981 1.523 . S
C1983 C1967 1.429 . S
C1983 C1979 1.429 . S
C1983 C1984 1.523 . S
C1984 C1968 1.368 . S
C1984 C1980 1.368 . S
C1984 C1983 1.523 . S
H1985 C1960 0.950 . S
H1986 C1962 0.950 . S
H1987 C1963 0.949 . S
H1988 C1965 0.950 . S
H1989 C1967 0.950 . S
C1990 C1991 1.349 . S
C1990 C1992 1.327 1_554 S
C1990 H2015 0.950 . S
C1991 C1990 1.349 . S
C1991 C2007 1.349 . S
C1992 C1990 1.327 1_556 S
C1992 C2011 1.429 . S
C1992 H2016 0.950 . S
C1993 C2010 1.574 . S
C1993 C2012 1.368 . S
C1993 H2017 0.949 . S
H1994 C1998 0.949 . S
C1995 C1996 1.349 . S
C1995 C1997 1.327 . S
C1995 H2018 0.950 . S
C1996 C1995 1.349 . S
C1996 C2008 1.349 . S
C1997 C1995 1.327 . S
C1997 C2013 1.429 . S
C1997 H2019 0.950 . S
C1998 H1994 0.949 . S
C1998 C2006 1.574 . S
C1998 C2014 1.368 . S
H1999 C2007 0.950 . S
H2000 C2005 0.950 . S
H2001 C2006 0.949 . S
H2002 C2008 0.950 . S
H2003 C2009 0.950 . S
H2004 C2010 0.949 . S
C2005 H2000 0.950 . S
C2005 C2007 1.327 1_556 S
C2005 C2011 1.429 . S
C2006 C1998 1.574 . S
C2006 H2001 0.949 . S
C2006 C2012 1.368 . S
C2007 C1991 1.349 . S
C2007 H1999 0.950 . S
C2007 C2005 1.327 1_554 S
C2008 C1996 1.349 . S
C2008 H2002 0.950 . S
C2008 C2009 1.327 . S
C2009 H2003 0.950 . S
C2009 C2008 1.327 . S
C2009 C2013 1.429 . S
C2010 C1993 1.574 . S
C2010 H2004 0.949 . S
C2010 C2014 1.368 . S
C2011 C1992 1.429 . S
C2011 C2005 1.429 . S
C2011 C2012 1.523 . S
C2012 C1993 1.368 . S
C2012 C2006 1.368 . S
C2012 C2011 1.523 . S
C2013 C1997 1.429 . S
C2013 C2009 1.429 . S
C2013 C2014 1.523 . S
C2014 C1998 1.368 . S
C2014 C2010 1.368 . S
C2014 C2013 1.523 . S
H2015 C1990 0.950 . S
H2016 C1992 0.950 . S
H2017 C1993 0.949 . S
H2018 C1995 0.950 . S
H2019 C1997 0.950 . S
C2020 C2021 1.349 . S
C2020 C2022 1.327 1_556 S
C2020 H2045 0.950 . S
C2021 C2020 1.349 . S
C2021 C2037 1.349 . S
C2022 C2020 1.327 1_554 S
C2022 C2041 1.429 . S
C2022 H2046 0.950 . S
C2023 C2040 1.574 . S
C2023 C2042 1.368 . S
C2023 H2047 0.949 . S
H2024 C2028 0.949 . S
C2025 C2026 1.349 . S
C2025 C2027 1.327 . S
C2025 H2048 0.950 . S
C2026 C2025 1.349 . S
C2026 C2038 1.349 . S
C2027 C2025 1.327 . S
C2027 C2043 1.429 . S
C2027 H2049 0.950 . S
C2028 H2024 0.949 . S
C2028 C2036 1.574 . S
C2028 C2044 1.368 . S
H2029 C2037 0.950 . S
H2030 C2035 0.950 . S
H2031 C2036 0.949 . S
H2032 C2038 0.950 . S
H2033 C2039 0.950 . S
H2034 C2040 0.949 . S
C2035 H2030 0.950 . S
C2035 C2037 1.327 1_554 S
C2035 C2041 1.429 . S
C2036 C2028 1.574 . S
C2036 H2031 0.949 . S
C2036 C2042 1.368 . S
C2037 C2021 1.349 . S
C2037 H2029 0.950 . S
C2037 C2035 1.327 1_556 S
C2038 C2026 1.349 . S
C2038 H2032 0.950 . S
C2038 C2039 1.327 . S
C2039 H2033 0.950 . S
C2039 C2038 1.327 . S
C2039 C2043 1.429 . S
C2040 C2023 1.574 . S
C2040 H2034 0.949 . S
C2040 C2044 1.368 . S
C2041 C2022 1.429 . S
C2041 C2035 1.429 . S
C2041 C2042 1.523 . S
C2042 C2023 1.368 . S
C2042 C2036 1.368 . S
C2042 C2041 1.523 . S
C2043 C2027 1.429 . S
C2043 C2039 1.429 . S
C2043 C2044 1.523 . S
C2044 C2028 1.368 . S
C2044 C2040 1.368 . S
C2044 C2043 1.523 . S
H2045 C2020 0.950 . S
H2046 C2022 0.950 . S
H2047 C2023 0.949 . S
H2048 C2025 0.950 . S
H2049 C2027 0.950 . S
C2050 C2051 1.349 . S
C2050 C2052 1.327 . S
C2050 H2075 0.950 . S
C2051 C2050 1.349 . S
C2051 C2067 1.349 . S
C2052 C2050 1.327 . S
C2052 C2071 1.429 . S
C2052 H2076 0.950 . S
C2053 C2070 1.574 . S
C2053 C2072 1.368 . S
C2053 H2077 0.949 . S
H2054 C2058 0.949 . S
C2055 C2056 1.349 . S
C2055 C2057 1.327 1_554 S
C2055 H2078 0.950 . S
C2056 C2055 1.349 . S
C2056 C2068 1.349 . S
C2057 C2055 1.327 1_556 S
C2057 C2073 1.429 . S
C2057 H2079 0.950 . S
C2058 H2054 0.949 . S
C2058 C2066 1.574 . S
C2058 C2074 1.368 . S
H2059 C2067 0.950 . S
H2060 C2065 0.950 . S
H2061 C2066 0.949 . S
H2062 C2068 0.950 . S
H2063 C2069 0.950 . S
H2064 C2070 0.949 . S
C2065 H2060 0.950 . S
C2065 C2067 1.327 . S
C2065 C2071 1.429 . S
C2066 C2058 1.574 . S
C2066 H2061 0.949 . S
C2066 C2072 1.368 . S
C2067 C2051 1.349 . S
C2067 H2059 0.950 . S
C2067 C2065 1.327 . S
C2068 C2056 1.349 . S
C2068 H2062 0.950 . S
C2068 C2069 1.327 1_554 S
C2069 H2063 0.950 . S
C2069 C2068 1.327 1_556 S
C2069 C2073 1.429 . S
C2070 C2053 1.574 . S
C2070 H2064 0.949 . S
C2070 C2074 1.368 . S
C2071 C2052 1.429 . S
C2071 C2065 1.429 . S
C2071 C2072 1.523 . S
C2072 C2053 1.368 . S
C2072 C2066 1.368 . S
C2072 C2071 1.523 . S
C2073 C2057 1.429 . S
C2073 C2069 1.429 . S
C2073 C2074 1.523 . S
C2074 C2058 1.368 . S
C2074 C2070 1.368 . S
C2074 C2073 1.523 . S
H2075 C2050 0.950 . S
H2076 C2052 0.950 . S
H2077 C2053 0.949 . S
H2078 C2055 0.950 . S
H2079 C2057 0.950 . S
C641 C452 1.731 . S
C646 C2 1.717 . S
C671 C351 1.731 . S
C676 C57 1.717 . S
C701 C82 1.717 . S
C706 C372 1.731 . S
C731 C137 1.717 . S
C736 C431 1.731 . S
C761 C162 1.717 . S
C766 C212 1.731 . S
C791 C271 1.731 . S
C796 C217 1.717 . S
C821 C242 1.717 . S
C826 C292 1.731 . S
C851 C191 1.731 . S
C856 C297 1.717 . S
C881 C132 1.731 . S
C886 C322 1.717 . S
C911 C377 1.717 . S
C916 C31 1.731 . S
C941 C52 1.731 . S
C946 C402 1.717 . S
C971 C111 1.731 . S
C976 C457 1.717 . S
C1001 C482 1.717 . S
C1006 C532 1.731 . S
C1031 C591 1.731 . S
C1036 C537 1.717 . S
C1061 C612 1.731 . S
C1066 C562 1.717 . S
C1091 C617 1.717 . S
C1096 C511 1.731 . S
C1121 C17 1.177 . S
C1126 C177 1.177 . S
C1151 C202 1.177 . S
C1156 C42 1.177 . S
C1181 C97 1.177 . S
C1186 C257 1.177 . S
C1211 C122 1.177 . S
C1216 C282 1.177 . S
C1241 C337 1.177 . S
C1246 C497 1.177 . S
C1271 C522 1.177 . S
C1276 C362 1.177 . S
C1301 C417 1.177 . S
C1306 C577 1.177 . S
C1331 C442 1.177 . S
C1336 C602 1.177 . S
C1361 C572 2.224 . S
C1366 C12 2.224 . S
C1391 C71 2.224 . S
C1396 C631 2.224 . S
C1421 C92 2.224 . S
C1426 C492 2.224 . S
C1451 C151 2.224 . S
C1456 C551 2.224 . S
C1481 C172 2.224 . S
C1486 C412 2.224 . S
C1511 C231 2.224 . S
C1516 C471 2.224 . S
C1541 C252 2.224 . S
C1546 C332 2.224 . S
C1571 C391 2.224 . S
C1576 C311 2.224 . S
C1601 C8 1.059 . S
C1606 C29 1.059 . S
C1631 C69 1.059 . S
C1636 C48 1.059 . S
C1661 C88 1.059 . S
C1666 C109 1.059 . S
C1691 C128 1.059 . S
C1696 C149 1.059 . S
C1721 C189 1.059 . S
C1726 C168 1.059 . S
C1751 C229 1.059 . S
C1756 C208 1.059 . S
C1781 C248 1.059 . S
C1786 C269 1.059 . S
C1811 C288 1.059 . S
C1816 C309 1.059 . S
C1841 C328 1.059 . S
C1846 C349 1.059 . S
C1871 C368 1.059 . S
C1876 C389 1.059 . S
C1901 C429 1.059 . S
C1906 C408 1.059 . S
C1931 C469 1.059 . S
C1936 C448 1.059 . S
C1961 C488 1.059 . S
C1966 C509 1.059 . S
C1991 C528 1.059 . S
C1996 C549 1.059 . S
C2021 C589 1.059 . S
C2026 C568 1.059 . S
C2051 C629 1.059 . S
C2056 C608 1.059 . S
