# Generated by pormake.
# Topology wmi, (6)-cn, num edge types: 1
# Building blocks:
#     Node 0, Type 0, BuildingBlock: KUMJIN_clean_sbu_1, # of connection points: 6
#     Node 1, Type 0, BuildingBlock: KUMJIN_clean_sbu_1, # of connection points: 6
#     Node 2, Type 0, BuildingBlock: KUMJIN_clean_sbu_1, # of connection points: 6
#     Node 3, Type 0, BuildingBlock: KUMJIN_clean_sbu_1, # of connection points: 6
#     Node 4, Type 0, BuildingBlock: KUMJIN_clean_sbu_1, # of connection points: 6
#     Node 5, Type 0, BuildingBlock: KUMJIN_clean_sbu_1, # of connection points: 6
#     Node 6, Type 0, BuildingBlock: KUMJIN_clean_sbu_1, # of connection points: 6
#     Node 7, Type 0, BuildingBlock: KUMJIN_clean_sbu_1, # of connection points: 6
#     Node 8, Type 0, BuildingBlock: KUMJIN_clean_sbu_1, # of connection points: 6
#     Node 9, Type 0, BuildingBlock: KUMJIN_clean_sbu_1, # of connection points: 6
#     Node 10, Type 0, BuildingBlock: KUMJIN_clean_sbu_1, # of connection points: 6
#     Node 11, Type 0, BuildingBlock: KUMJIN_clean_sbu_1, # of connection points: 6
#     Node 12, Type 0, BuildingBlock: KUMJIN_clean_sbu_1, # of connection points: 6
#     Node 13, Type 0, BuildingBlock: KUMJIN_clean_sbu_1, # of connection points: 6
#     Node 14, Type 0, BuildingBlock: KUMJIN_clean_sbu_1, # of connection points: 6
#     Node 15, Type 0, BuildingBlock: KUMJIN_clean_sbu_1, # of connection points: 6
#     Node 16, Type 0, BuildingBlock: KUMJIN_clean_sbu_1, # of connection points: 6
#     Node 17, Type 0, BuildingBlock: KUMJIN_clean_sbu_1, # of connection points: 6
#     Edge 18, Type (0, 0), BuildingBlock: ZUJKAS_clean_linker_0, # of connection points: 2
#     Edge 19, Type (0, 0), BuildingBlock: ZUJKAS_clean_linker_0, # of connection points: 2
#     Edge 20, Type (0, 0), BuildingBlock: ZUJKAS_clean_linker_0, # of connection points: 2
#     Edge 21, Type (0, 0), BuildingBlock: ZUJKAS_clean_linker_0, # of connection points: 2
#     Edge 22, Type (0, 0), BuildingBlock: ZUJKAS_clean_linker_0, # of connection points: 2
#     Edge 23, Type (0, 0), BuildingBlock: ZUJKAS_clean_linker_0, # of connection points: 2
#     Edge 24, Type (0, 0), BuildingBlock: ZUJKAS_clean_linker_0, # of connection points: 2
#     Edge 25, Type (0, 0), BuildingBlock: ZUJKAS_clean_linker_0, # of connection points: 2
#     Edge 26, Type (0, 0), BuildingBlock: ZUJKAS_clean_linker_0, # of connection points: 2
#     Edge 27, Type (0, 0), BuildingBlock: ZUJKAS_clean_linker_0, # of connection points: 2
#     Edge 28, Type (0, 0), BuildingBlock: ZUJKAS_clean_linker_0, # of connection points: 2
#     Edge 29, Type (0, 0), BuildingBlock: ZUJKAS_clean_linker_0, # of connection points: 2
#     Edge 30, Type (0, 0), BuildingBlock: ZUJKAS_clean_linker_0, # of connection points: 2
#     Edge 31, Type (0, 0), BuildingBlock: ZUJKAS_clean_linker_0, # of connection points: 2
#     Edge 32, Type (0, 0), BuildingBlock: ZUJKAS_clean_linker_0, # of connection points: 2
#     Edge 33, Type (0, 0), BuildingBlock: ZUJKAS_clean_linker_0, # of connection points: 2
#     Edge 34, Type (0, 0), BuildingBlock: ZUJKAS_clean_linker_0, # of connection points: 2
#     Edge 35, Type (0, 0), BuildingBlock: ZUJKAS_clean_linker_0, # of connection points: 2
#     Edge 36, Type (0, 0), BuildingBlock: ZUJKAS_clean_linker_0, # of connection points: 2
#     Edge 37, Type (0, 0), BuildingBlock: ZUJKAS_clean_linker_0, # of connection points: 2
#     Edge 38, Type (0, 0), BuildingBlock: ZUJKAS_clean_linker_0, # of connection points: 2
#     Edge 39, Type (0, 0), BuildingBlock: ZUJKAS_clean_linker_0, # of connection points: 2
#     Edge 40, Type (0, 0), BuildingBlock: ZUJKAS_clean_linker_0, # of connection points: 2
#     Edge 41, Type (0, 0), BuildingBlock: ZUJKAS_clean_linker_0, # of connection points: 2
#     Edge 42, Type (0, 0), BuildingBlock: ZUJKAS_clean_linker_0, # of connection points: 2
#     Edge 43, Type (0, 0), BuildingBlock: ZUJKAS_clean_linker_0, # of connection points: 2
#     Edge 44, Type (0, 0), BuildingBlock: ZUJKAS_clean_linker_0, # of connection points: 2
#     Edge 45, Type (0, 0), BuildingBlock: ZUJKAS_clean_linker_0, # of connection points: 2
#     Edge 46, Type (0, 0), BuildingBlock: ZUJKAS_clean_linker_0, # of connection points: 2
#     Edge 47, Type (0, 0), BuildingBlock: ZUJKAS_clean_linker_0, # of connection points: 2
#     Edge 48, Type (0, 0), BuildingBlock: ZUJKAS_clean_linker_0, # of connection points: 2
#     Edge 49, Type (0, 0), BuildingBlock: ZUJKAS_clean_linker_0, # of connection points: 2
#     Edge 50, Type (0, 0), BuildingBlock: ZUJKAS_clean_linker_0, # of connection points: 2
#     Edge 51, Type (0, 0), BuildingBlock: ZUJKAS_clean_linker_0, # of connection points: 2
#     Edge 52, Type (0, 0), BuildingBlock: ZUJKAS_clean_linker_0, # of connection points: 2
#     Edge 53, Type (0, 0), BuildingBlock: ZUJKAS_clean_linker_0, # of connection points: 2
#     Edge 54, Type (0, 0), BuildingBlock: ZUJKAS_clean_linker_0, # of connection points: 2
#     Edge 55, Type (0, 0), BuildingBlock: ZUJKAS_clean_linker_0, # of connection points: 2
#     Edge 56, Type (0, 0), BuildingBlock: ZUJKAS_clean_linker_0, # of connection points: 2
#     Edge 57, Type (0, 0), BuildingBlock: ZUJKAS_clean_linker_0, # of connection points: 2
#     Edge 58, Type (0, 0), BuildingBlock: ZUJKAS_clean_linker_0, # of connection points: 2
#     Edge 59, Type (0, 0), BuildingBlock: ZUJKAS_clean_linker_0, # of connection points: 2
#     Edge 60, Type (0, 0), BuildingBlock: ZUJKAS_clean_linker_0, # of connection points: 2
#     Edge 61, Type (0, 0), BuildingBlock: ZUJKAS_clean_linker_0, # of connection points: 2
#     Edge 62, Type (0, 0), BuildingBlock: ZUJKAS_clean_linker_0, # of connection points: 2
#     Edge 63, Type (0, 0), BuildingBlock: ZUJKAS_clean_linker_0, # of connection points: 2
#     Edge 64, Type (0, 0), BuildingBlock: ZUJKAS_clean_linker_0, # of connection points: 2
#     Edge 65, Type (0, 0), BuildingBlock: ZUJKAS_clean_linker_0, # of connection points: 2
#     Edge 66, Type (0, 0), BuildingBlock: ZUJKAS_clean_linker_0, # of connection points: 2
#     Edge 67, Type (0, 0), BuildingBlock: ZUJKAS_clean_linker_0, # of connection points: 2
#     Edge 68, Type (0, 0), BuildingBlock: ZUJKAS_clean_linker_0, # of connection points: 2
#     Edge 69, Type (0, 0), BuildingBlock: ZUJKAS_clean_linker_0, # of connection points: 2
#     Edge 70, Type (0, 0), BuildingBlock: ZUJKAS_clean_linker_0, # of connection points: 2
#     Edge 71, Type (0, 0), BuildingBlock: ZUJKAS_clean_linker_0, # of connection points: 2
# Relax obj value: 0.065
# Max RMSD: 0.171
# Mean RMSD: 0.171
data_MOF--net-wmi--node1-KUMJIN_clean_sbu_1--edge1-ZUJKAS_clean_linker_0
_symmetry_space_group_name_H-M    P1
_symmetry_Int_Tables_number       1
_symmetry_cell_setting            triclinic
loop_
_symmetry_equiv_pos_as_xyz
'x, y, z'
_cell_length_a     48.35542
_cell_length_b     48.406797
_cell_length_c     104.49831
_cell_angle_alpha  90.026525
_cell_angle_beta   89.951368
_cell_angle_gamma 119.89761
loop_
_atom_site_label
_atom_site_type_symbol
_atom_site_fract_x
_atom_site_fract_y
_atom_site_fract_z
_atom_type_partial_charge
Eu0 Eu 0.45012 0.99668 0.09957 0.0
C1 C 0.57122 0.01345 0.126 0.0
N2 N 0.55241 0.02591 0.12918 0.0
C3 C 0.5508 0.01011 0.151 0.0
C4 C 0.57952 0.99759 0.13522 0.0
C5 C 0.54297 0.02539 0.14152 0.0
C6 C 0.56891 0.99589 0.14782 0.0
C7 C 0.6005 1.00265 0.10981 0.0
C8 C 0.58149 0.01595 0.11341 0.0
C9 C 0.6084 0.98638 0.11892 0.0
C10 C 0.59794 0.98385 0.13159 0.0
Eu11 Eu 0.54021 0.05121 0.11268 0.0
N12 N 0.57334 0.03173 0.10476 0.0
C13 C 0.61146 0.0065 0.09719 0.0
C14 C 0.58574 0.03727 0.09268 0.0
C15 C 0.60441 0.02426 0.08865 0.0
H16 H 0.52948 0.03684 0.14408 0.0
H17 H 0.6137 0.0283 0.07899 0.0
H18 H 0.45351 0.98875 0.06752 0.0
H19 H 0.37548 0.03127 0.12619 0.0
H20 H 0.58205 0.05228 0.08612 0.0
H21 H 0.62606 0.99659 0.09405 0.0
H22 H 0.40874 0.0061 0.12289 0.0
H23 H 0.54294 0.00938 0.16076 0.0
H24 H 0.62289 0.97594 0.11629 0.0
H25 H 0.60435 0.97135 0.13851 0.0
H26 H 0.44074 0.00835 0.04791 0.0
H27 H 0.57481 0.98393 0.15518 0.0
H28 H 0.36447 0.05704 0.10796 0.0
N29 N 0.43749 0.01255 0.08007 0.0
C30 C 0.42103 0.02846 0.08108 0.0
C31 C 0.4355 0.0146 0.05718 0.0
C32 C 0.4125 0.03944 0.07011 0.0
C33 C 0.44321 0.00399 0.06834 0.0
C34 C 0.42071 0.03301 0.05807 0.0
N35 N 0.41792 0.01956 0.10336 0.0
C36 C 0.40451 0.01796 0.11503 0.0
C37 C 0.39141 0.04589 0.09439 0.0
C38 C 0.41052 0.03164 0.09305 0.0
C39 C 0.37928 0.04634 0.10653 0.0
C40 C 0.38548 0.03187 0.11686 0.0
H41 H 0.41455 0.04099 0.0494 0.0
H42 H 0.38845 0.06412 0.06313 0.0
H43 H 0.37002 0.06981 0.08442 0.0
O44 O 0.41665 0.95398 0.11009 0.0
O45 O 0.46675 0.04792 0.10608 0.0
O46 O 0.51828 0.07169 0.09955 0.0
O47 O 0.4099 0.95709 0.08987 0.0
O48 O 0.45905 0.99451 0.12065 0.0
O49 O 0.49957 0.04465 0.12639 0.0
O50 O 0.59059 0.08943 0.11185 0.0
O51 O 0.51263 0.99792 0.11642 0.0
O52 O 0.48551 0.97923 0.09771 0.0
O53 O 0.55752 0.09263 0.12524 0.0
O54 O 0.53417 0.05243 0.09078 0.0
O55 O 0.48942 0.00397 0.08558 0.0
C56 C 0.49332 0.0737 0.10281 0.0
C57 C 0.39625 0.90684 0.09822 0.0
C58 C 0.36333 0.84945 0.10082 0.0
C59 C 0.38861 0.84573 0.0962 0.0
C60 C 0.42104 0.90271 0.0934 0.0
C61 C 0.41726 0.87227 0.09247 0.0
C62 C 0.36735 0.88019 0.10183 0.0
C63 C 0.47232 0.01811 0.12885 0.0
C64 C 0.40077 0.93887 0.09993 0.0
C65 C 0.39491 0.05522 0.07145 0.0
C66 C 0.38436 0.05841 0.08357 0.0
C67 C 0.50135 0.9765 0.10732 0.0
C68 C 0.61248 0.13667 0.12569 0.0
C69 C 0.6672 0.1819 0.12496 0.0
C70 C 0.66114 0.19357 0.1363 0.0
C71 C 0.60725 0.14918 0.13697 0.0
C72 C 0.64261 0.15337 0.11958 0.0
C73 C 0.63139 0.1774 0.1422 0.0
C74 C 0.51627 0.02982 0.08245 0.0
C75 C 0.58659 0.10574 0.12083 0.0
H76 H 0.38597 0.82225 0.09525 0.0
H77 H 0.44323 0.923 0.09036 0.0
H78 H 0.43651 0.86922 0.0888 0.0
H79 H 0.34822 0.88341 0.10557 0.0
H80 H 0.67948 0.21551 0.14057 0.0
H81 H 0.5845 0.13694 0.14188 0.0
H82 H 0.6471 0.14406 0.11088 0.0
H83 H 0.62707 0.18673 0.15092 0.0
Eu84 Eu 0.0545 0.48243 0.09639 0.0
C85 C 0.03613 0.58029 0.12808 0.0
N86 N 0.02392 0.5491 0.1312 0.0
C87 C 0.03987 0.5632 0.15302 0.0
C88 C 0.0514 0.60435 0.13738 0.0
C89 C 0.02526 0.5402 0.14346 0.0
C90 C 0.05312 0.59543 0.14996 0.0
C91 C 0.04706 0.62037 0.11192 0.0
C92 C 0.03426 0.58814 0.11545 0.0
C93 C 0.06262 0.64444 0.12111 0.0
C94 C 0.06477 0.63645 0.13381 0.0
Eu95 Eu 1.00039 0.51171 0.11453 0.0
N96 N 0.01952 0.56431 0.10668 0.0
C97 C 0.04326 0.62748 0.0993 0.0
C98 C 0.01322 0.57113 0.09472 0.0
C99 C 0.02571 0.6027 0.09074 0.0
H100 H 0.01485 0.51531 0.14589 0.0
H101 H 0.02119 0.60788 0.08115 0.0
H102 H 0.05853 0.49994 0.06518 0.0
H103 H 0.01132 0.36778 0.12033 0.0
H104 H 0.99762 0.55253 0.0883 0.0
H105 H 0.05271 0.65192 0.09622 0.0
H106 H 0.03425 0.42582 0.11905 0.0
H107 H 0.04095 0.55605 0.16274 0.0
H108 H 0.07277 0.66931 0.11853 0.0
H109 H 0.07675 0.65528 0.1408 0.0
H110 H 0.04339 0.4712 0.04448 0.0
H111 H 0.06462 0.61321 0.15738 0.0
H112 H 0.99614 0.3356 0.1005 0.0
N113 N 0.04199 0.45775 0.0762 0.0
C114 C 0.02924 0.42558 0.07618 0.0
C115 C 0.03929 0.45817 0.05334 0.0
C116 C 0.02084 0.40838 0.0646 0.0
C117 C 0.04749 0.47428 0.06505 0.0
C118 C 0.02588 0.42509 0.05311 0.0
N119 N 0.03174 0.42682 0.09883 0.0
C120 C 0.02766 0.41224 0.11038 0.0
C121 C 0.01107 0.37636 0.08805 0.0
C122 C 0.02435 0.40972 0.08778 0.0
C123 C 1.00627 0.36119 0.0999 0.0
C124 C 0.01472 0.37925 0.11111 0.0
H125 H 0.01964 0.41271 0.04401 0.0
H126 H 1.00108 0.36155 0.05602 0.0
H127 H 0.99258 0.33355 0.07654 0.0
O128 O 0.09811 0.48786 0.105 0.0
O129 O 1.00024 0.44824 0.09574 0.0
O130 O 0.98465 0.4596 0.1147 0.0
O131 O 0.09598 0.49386 0.08456 0.0
O132 O 0.05941 0.48699 0.11791 0.0
O133 O 0.01318 0.48086 0.12737 0.0
O134 O 0.95449 0.50883 0.1095 0.0
O135 O 0.05417 0.54058 0.11706 0.0
O136 O 0.06954 0.53473 0.09717 0.0
O137 O 0.96513 0.50302 0.12928 0.0
O138 O 0.99312 0.50157 0.09269 0.0
O139 O 0.04419 0.51718 0.08641 0.0
C140 C 0.97842 0.4416 0.1046 0.0
C141 C 0.13118 0.47679 0.09189 0.0
C142 C 0.18145 0.47698 0.09351 0.0
C143 C 0.16825 0.44858 0.08644 0.0
C144 C 0.11808 0.44814 0.08498 0.0
C145 C 0.13661 0.43411 0.0823 0.0
C146 C 0.16275 0.49092 0.09631 0.0
C147 C 0.04002 0.47961 0.12776 0.0
C148 C 0.11295 0.49312 0.09408 0.0
C149 C 0.00766 0.37515 0.06483 0.0
C150 C 1.00283 0.3592 0.07652 0.0
C151 C 0.07524 0.55086 0.10783 0.0
C152 C 0.91377 0.49918 0.12575 0.0
C153 C 0.86762 0.50684 0.12368 0.0
C154 C 0.85641 0.49184 0.13556 0.0
C155 C 0.90183 0.48416 0.13759 0.0
C156 C 0.89625 0.51018 0.11866 0.0
C157 C 0.8733 0.48041 0.14241 0.0
C158 C 0.01512 0.51033 0.08366 0.0
C159 C 0.94503 0.50416 0.12137 0.0
H160 H 0.18243 0.43758 0.08416 0.0
H161 H 0.09377 0.43691 0.08153 0.0
H162 H 0.12653 0.41215 0.07689 0.0
H163 H 0.17301 0.51314 0.10161 0.0
H164 H 0.83441 0.48893 0.13955 0.0
H165 H 0.91466 0.47535 0.1432 0.0
H166 H 0.90522 0.52204 0.10955 0.0
H167 H 0.86439 0.46883 0.15155 0.0
Eu168 Eu 0.57559 0.60274 0.09769 0.0
C169 C 0.46778 0.48503 0.12636 0.0
N170 N 0.49904 0.50251 0.12968 0.0
C171 C 0.48463 0.50397 0.15151 0.0
C172 C 0.44357 0.47684 0.13556 0.0
C173 C 0.50781 0.5118 0.14204 0.0
C174 C 0.45237 0.48651 0.14825 0.0
C175 C 0.42775 0.45841 0.10991 0.0
C176 C 0.46006 0.47626 0.11362 0.0
C177 C 0.40358 0.45056 0.11902 0.0
C178 C 0.41146 0.45973 0.13181 0.0
Eu179 Eu 0.53672 0.5153 0.11315 0.0
N180 N 0.48401 0.48464 0.10494 0.0
C181 C 0.42064 0.44836 0.0972 0.0
C182 C 0.47702 0.47241 0.09283 0.0
C183 C 0.44538 0.45488 0.08869 0.0
H184 H 0.53271 0.52507 0.14464 0.0
H185 H 0.4401 0.44586 0.079 0.0
H186 H 0.5727 0.59409 0.06594 0.0
H187 H 0.67883 0.66273 0.1296 0.0
H188 H 0.49545 0.475 0.08635 0.0
H189 H 0.39614 0.43457 0.09398 0.0
H190 H 0.62237 0.6384 0.12367 0.0
H191 H 0.49166 0.51141 0.1613 0.0
H192 H 0.37867 0.43709 0.1163 0.0
H193 H 0.39254 0.4534 0.13873 0.0
H194 H 0.60984 0.60365 0.04801 0.0
H195 H 0.43446 0.48065 0.1556 0.0
H196 H 0.71901 0.67087 0.11313 0.0
N197 N 0.60919 0.61283 0.07995 0.0
C198 C 0.64103 0.62767 0.08243 0.0
C199 C 0.61887 0.6102 0.05766 0.0
C200 C 0.66307 0.63344 0.07253 0.0
C201 C 0.59787 0.60456 0.0678 0.0
C202 C 0.65158 0.62445 0.06004 0.0
N203 N 0.6295 0.62928 0.10444 0.0
C204 C 0.63915 0.64005 0.11658 0.0
C205 C 0.68425 0.65062 0.09788 0.0
C206 C 0.65145 0.63596 0.09501 0.0
C207 C 0.69402 0.65952 0.11054 0.0
C208 C 0.6714 0.65473 0.11988 0.0
H209 H 0.66777 0.62854 0.05216 0.0
H210 H 0.71295 0.65198 0.06795 0.0
H211 H 0.73149 0.66708 0.09011 0.0
O212 O 0.57832 0.64663 0.10466 0.0
O213 O 0.6007 0.57338 0.09529 0.0
O214 O 0.58959 0.54796 0.11443 0.0
O215 O 0.57382 0.63662 0.08441 0.0
O216 O 0.56525 0.59887 0.11893 0.0
O217 O 0.56964 0.55638 0.12667 0.0
O218 O 0.5408 0.47302 0.1072 0.0
O219 O 0.51092 0.54302 0.11642 0.0
O220 O 0.52142 0.57238 0.09802 0.0
O221 O 0.53876 0.48392 0.12729 0.0
O222 O 0.54494 0.52076 0.0911 0.0
O223 O 0.5376 0.56301 0.0861 0.0
C224 C 0.60784 0.55935 0.1044 0.0
C225 C 0.54553 0.66036 0.09297 0.0
C226 C 0.52232 0.6938 0.09788 0.0
C227 C 0.49242 0.66909 0.09382 0.0
C228 C 0.51555 0.63626 0.08874 0.0
C229 C 0.48916 0.64059 0.08922 0.0
C230 C 0.54891 0.68927 0.09744 0.0
C231 C 0.57023 0.58385 0.12833 0.0
C232 C 0.5726 0.65449 0.09346 0.0
C233 C 0.69568 0.64756 0.07542 0.0
C234 C 0.70623 0.6561 0.08805 0.0
C235 C 0.50299 0.55752 0.10785 0.0
C236 C 0.54459 0.43799 0.12367 0.0
C237 C 0.54129 0.38613 0.12106 0.0
C238 C 0.55284 0.38862 0.13357 0.0
C239 C 0.55607 0.43961 0.13617 0.0
C240 C 0.53703 0.41091 0.11606 0.0
C241 C 0.56009 0.41512 0.14106 0.0
C242 C 0.53788 0.53705 0.08277 0.0
C243 C 0.54068 0.46485 0.11909 0.0
H244 H 0.47166 0.67209 0.09393 0.0
H245 H 0.51253 0.61403 0.08509 0.0
H246 H 0.46612 0.62186 0.08598 0.0
H247 H 0.57199 0.70794 0.10074 0.0
H248 H 0.55612 0.3698 0.13759 0.0
H249 H 0.56211 0.46 0.14224 0.0
H250 H 0.52804 0.40914 0.10642 0.0
H251 H 0.56892 0.41671 0.1507 0.0
Eu252 Eu 0.99424 0.44915 0.92976 0.0
C253 C 0.03334 0.57912 0.89964 0.0
N254 N 0.04054 0.55545 0.89827 0.0
C255 C 0.03081 0.55359 0.87569 0.0
C256 C 0.02357 0.5902 0.88904 0.0
C257 C 0.04038 0.54336 0.88644 0.0
C258 C 0.02209 0.5769 0.87701 0.0
C259 C 0.02832 0.61689 0.91335 0.0
C260 C 0.03571 0.59232 0.9117 0.0
C261 C 0.01819 0.62762 0.90284 0.0
C262 C 0.01583 0.61432 0.89073 0.0
Eu263 Eu 0.05721 0.5404 0.91698 0.0
N264 N 0.04507 0.58115 0.92179 0.0
C265 C 0.03128 0.63002 0.92553 0.0
C266 C 0.04932 0.59496 0.93358 0.0
C267 C 0.04208 0.61918 0.93566 0.0
H268 H 0.04849 0.52651 0.88508 0.0
H269 H 0.04524 0.62977 0.94505 0.0
H270 H 0.98776 0.44769 0.9622 0.0
H271 H 0.01319 0.36831 0.89962 0.0
H272 H 0.05912 0.58826 0.94144 0.0
H273 H 0.02578 0.64886 0.92718 0.0
H274 H 0.99441 0.40604 0.90492 0.0
H275 H 0.03057 0.54376 0.86636 0.0
H276 H 0.01228 0.64633 0.90397 0.0
H277 H 0.00819 0.62301 0.88269 0.0
H278 H 1.00443 0.42801 0.98065 0.0
H279 H 0.01478 0.58484 0.86864 0.0
H280 H 0.03606 0.3501 0.91659 0.0
N281 N 0.00711 0.42961 0.94834 0.0
C282 C 0.01918 0.40993 0.94628 0.0
C283 C 0.00918 0.42313 0.97103 0.0
C284 C 0.02815 0.39728 0.95659 0.0
C285 C 1.00026 0.43473 0.96051 0.0
C286 C 0.02378 0.40485 0.96907 0.0
N287 N 0.00924 0.4112 0.92426 0.0
C288 C 1.0054 0.39904 0.91221 0.0
C289 C 0.03011 0.37797 0.93143 0.0
C290 C 0.01989 0.4001 0.93389 0.0
C291 C 0.02842 0.3671 0.91887 0.0
C292 C 0.01555 0.37734 0.90926 0.0
H293 H 0.03033 0.39559 0.97725 0.0
H294 H 0.04711 0.36671 0.96194 0.0
H295 H 0.04903 0.34996 0.93988 0.0
O296 O 0.95029 0.41431 0.92014 0.0
O297 O 0.04393 0.45971 0.92346 0.0
O298 O 0.06845 0.5106 0.9301 0.0
O299 O 0.95046 0.42149 0.94052 0.0
O300 O 0.99388 0.46419 0.90931 0.0
O301 O 0.04612 0.49754 0.90375 0.0
O302 O 0.10111 0.58407 0.92184 0.0
O303 O 1.00463 0.52304 0.91412 0.0
O304 O 0.98358 0.48963 0.93137 0.0
O305 O 0.10033 0.55706 0.90532 0.0
O306 O 0.05139 0.53716 0.93894 0.0
O307 O 0.0117 0.48626 0.94549 0.0
C308 C 0.07033 0.48618 0.92607 0.0
C309 C 0.91667 0.37007 0.93291 0.0
C310 C 0.86819 0.31939 0.93036 0.0
C311 C 0.88198 0.30432 0.93718 0.0
C312 C 0.9303 0.3549 0.93979 0.0
C313 C 0.91293 0.32213 0.94193 0.0
C314 C 0.8855 0.35229 0.9283 0.0
C315 C 0.01747 0.47298 0.9012 0.0
C316 C 0.93432 0.40445 0.93079 0.0
C317 C 0.03979 0.37638 0.95415 0.0
C318 C 0.04081 0.36677 0.94159 0.0
C319 C 0.9808 0.50572 0.92186 0.0
C320 C 0.13253 0.61375 0.90447 0.0
C321 C 0.1715 0.67078 0.90382 0.0
C322 C 0.16026 0.67243 0.89161 0.0
C323 C 0.12184 0.61606 0.89224 0.0
C324 C 0.15766 0.6412 0.91019 0.0
C325 C 0.13571 0.64523 0.88586 0.0
C326 C 0.03281 0.51638 0.94774 0.0
C327 C 0.11641 0.58357 0.91172 0.0
H328 H 0.86865 0.27888 0.93892 0.0
H329 H 0.95415 0.36834 0.94361 0.0
H330 H 0.92344 0.31054 0.94729 0.0
H331 H 0.87479 0.36395 0.92306 0.0
H332 H 0.17069 0.69478 0.88643 0.0
H333 H 0.10264 0.59545 0.88762 0.0
H334 H 0.16579 0.6397 0.91969 0.0
H335 H 0.12728 0.6468 0.87645 0.0
Eu336 Eu 0.59919 0.56573 0.93162 0.0
C337 C 0.48031 0.46515 0.90109 0.0
N338 N 0.49958 0.49644 0.89819 0.0
C339 C 0.50059 0.48341 0.87615 0.0
C340 C 0.4708 0.44157 0.89152 0.0
C341 C 0.50965 0.50592 0.88595 0.0
C342 C 0.48113 0.45109 0.87894 0.0
C343 C 0.45155 0.42426 0.91702 0.0
C344 C 0.47115 0.45666 0.91375 0.0
C345 C 0.44229 0.4007 0.90754 0.0
C346 C 0.45186 0.40933 0.89483 0.0
Eu347 Eu 0.51361 0.53295 0.91519 0.0
N348 N 0.48085 0.47998 0.9228 0.0
C349 C 0.44123 0.41646 0.92968 0.0
C350 C 0.46833 0.47251 0.93486 0.0
C351 C 0.44917 0.44074 0.93857 0.0
H352 H 0.52448 0.53091 0.88372 0.0
H353 H 0.43992 0.43505 0.94823 0.0
H354 H 0.58638 0.56271 0.96317 0.0
H355 H 0.67268 0.66853 0.90093 0.0
H356 H 0.47176 0.49068 0.94162 0.0
H357 H 0.42614 0.39188 0.93257 0.0
H358 H 0.64252 0.61178 0.90652 0.0
H359 H 0.50863 0.49099 0.86644 0.0
H360 H 0.42742 0.37572 0.90992 0.0
H361 H 0.44448 0.39088 0.88763 0.0
H362 H 0.5964 0.59993 0.98106 0.0
H363 H 0.47433 0.43368 0.87134 0.0
H364 H 0.68202 0.70922 0.91729 0.0
N365 N 0.60915 0.59934 0.94936 0.0
C366 C 0.62695 0.63118 0.94709 0.0
C367 C 0.60486 0.60904 0.97154 0.0
C368 C 0.63355 0.65332 0.95702 0.0
C369 C 0.59877 0.588 0.96138 0.0
C370 C 0.62213 0.64186 0.96933 0.0
N371 N 0.63086 0.6196 0.92527 0.0
C372 C 0.64443 0.62896 0.91347 0.0
C373 C 0.65611 0.67448 0.93209 0.0
C374 C 0.63786 0.64158 0.9347 0.0
C375 C 0.66789 0.68417 0.91968 0.0
C376 C 0.66247 0.66129 0.9104 0.0
H377 H 0.62676 0.65814 0.97722 0.0
H378 H 0.65643 0.70346 0.96185 0.0
H379 H 0.67628 0.72197 0.94007 0.0
O380 O 0.64286 0.56464 0.92621 0.0
O381 O 0.57262 0.59373 0.93405 0.0
O382 O 0.54817 0.58573 0.9147 0.0
O383 O 0.62708 0.55871 0.94617 0.0
O384 O 0.59722 0.55801 0.91015 0.0
O385 O 0.55655 0.56564 0.90238 0.0
O386 O 0.4709 0.53619 0.92099 0.0
O387 O 0.53872 0.5045 0.91157 0.0
O388 O 0.56647 0.51224 0.93021 0.0
O389 O 0.48488 0.53964 0.90096 0.0
O390 O 0.51785 0.54055 0.93722 0.0
O391 O 0.55652 0.52804 0.94208 0.0
C392 C 0.56075 0.6032 0.92487 0.0
C393 C 0.67536 0.55679 0.94229 0.0
C394 C 0.71997 0.54817 0.93796 0.0
C395 C 0.72638 0.55001 0.95112 0.0
C396 C 0.68213 0.55842 0.95544 0.0
C397 C 0.70749 0.55504 0.9598 0.0
C398 C 0.69435 0.55148 0.9335 0.0
C399 C 0.58356 0.56517 0.90083 0.0
C400 C 0.648 0.55992 0.93804 0.0
C401 C 0.6512 0.68607 0.95435 0.0
C402 C 0.66244 0.69661 0.94193 0.0
C403 C 0.55336 0.49574 0.91978 0.0
C404 C 0.43806 0.5442 0.90484 0.0
C405 C 0.38518 0.53878 0.9073 0.0
C406 C 0.38907 0.55378 0.89543 0.0
C407 C 0.44107 0.55904 0.89296 0.0
C408 C 0.4098 0.53393 0.91208 0.0
C409 C 0.41679 0.56378 0.88832 0.0
C410 C 0.53242 0.53146 0.94554 0.0
C411 C 0.46453 0.53931 0.90915 0.0
H412 H 0.74596 0.54734 0.95467 0.0
H413 H 0.66783 0.56234 0.9624 0.0
H414 H 0.7125 0.55629 0.96994 0.0
H415 H 0.68929 0.54987 0.92334 0.0
H416 H 0.37042 0.55763 0.89161 0.0
H417 H 0.46237 0.56714 0.88719 0.0
H418 H 0.40692 0.52224 0.92122 0.0
H419 H 0.41945 0.57524 0.87915 0.0
Eu420 Eu 0.48143 0.05124 0.93213 0.0
C421 C 0.58403 0.03552 0.90152 0.0
N422 N 0.55271 0.02196 0.89831 0.0
C423 C 0.56667 0.037 0.87641 0.0
C424 C 0.60806 0.05099 0.89222 0.0
C425 C 0.54368 0.02227 0.88598 0.0
C426 C 0.59901 0.05151 0.87954 0.0
C427 C 0.62432 0.04933 0.9179 0.0
C428 C 0.59196 0.035 0.91427 0.0
C429 C 0.64835 0.06503 0.90868 0.0
C430 C 0.64024 0.06584 0.89588 0.0
Eu431 Eu 0.51527 0.99854 0.91498 0.0
N432 N 0.56813 0.02017 0.92305 0.0
C433 C 0.63161 0.04694 0.93064 0.0
C434 C 0.57528 0.01531 0.93519 0.0
C435 C 0.60697 0.02931 0.93926 0.0
H436 H 0.51869 0.01107 0.88352 0.0
H437 H 0.61237 0.02591 0.94898 0.0
H438 H 0.48691 0.04386 0.96372 0.0
H439 H 0.37682 0.01901 0.90217 0.0
H440 H 0.55695 0.99976 0.94172 0.0
H441 H 0.65615 0.05759 0.93381 0.0
H442 H 0.43387 0.04394 0.90688 0.0
H443 H 0.55945 0.03727 0.86663 0.0
H444 H 0.6733 0.07636 0.91134 0.0
H445 H 0.65904 0.078 0.88889 0.0
H446 H 0.45082 0.02074 0.98228 0.0
H447 H 0.61678 0.06315 0.87212 0.0
H448 H 0.33726 0.99283 0.91947 0.0
N449 N 0.44924 0.03042 0.95039 0.0
C450 C 0.41735 0.01764 0.94854 0.0
C451 C 0.44108 0.0195 0.97284 0.0
C452 C 0.3959 0.00456 0.95887 0.0
C453 C 0.46142 0.03213 0.96231 0.0
C454 C 0.40816 0.0055 0.97111 0.0
N455 N 0.42728 0.02926 0.92634 0.0
C456 C 0.41718 0.03124 0.91437 0.0
C457 C 0.37302 1.00319 0.934 0.0
C458 C 0.40606 0.0169 0.93619 0.0
C459 C 0.36245 1.00324 0.92155 0.0
C460 C 0.38467 0.01775 0.91174 0.0
H461 H 0.39243 0.99568 0.97929 0.0
H462 H 0.34616 0.98067 0.96449 0.0
H463 H 0.32617 0.97951 0.94276 0.0
O464 O 0.48402 0.09681 0.92639 0.0
O465 O 0.45112 0.99683 0.93392 0.0
O466 O 0.46337 0.98349 0.91481 0.0
O467 O 0.48976 0.08685 0.94634 0.0
O468 O 0.4889 0.05718 0.91063 0.0
O469 O 0.48382 0.01038 0.90201 0.0
O470 O 0.51299 0.95307 0.92046 0.0
O471 O 0.54256 0.05186 0.91178 0.0
O472 O 0.53432 0.06891 0.93098 0.0
O473 O 0.50727 0.96281 0.90058 0.0
O474 O 0.50558 0.99286 0.93682 0.0
O475 O 0.51768 0.0435 0.94251 0.0
C476 C 0.44592 0.97543 0.92511 0.0
C477 C 0.49179 0.13681 0.94283 0.0
C478 C 0.50704 0.19269 0.93993 0.0
C479 C 0.49985 0.19403 0.95289 0.0
C480 C 0.48487 0.13895 0.95574 0.0
C481 C 0.48879 0.16733 0.96069 0.0
C482 C 0.50249 0.16371 0.93484 0.0
C483 C 0.48368 0.03772 0.90092 0.0
C484 C 0.48878 0.10664 0.93824 0.0
C485 C 0.36301 0.99083 0.95667 0.0
C486 C 0.35162 0.99012 0.94428 0.0
C487 C 0.55041 0.07431 0.92031 0.0
C488 C 0.50425 0.91193 0.90444 0.0
C489 C 0.51112 0.86531 0.907 0.0
C490 C 0.49707 0.85433 0.89496 0.0
C491 C 0.49022 0.90012 0.89243 0.0
C492 C 0.51456 0.89418 0.91183 0.0
C493 C 0.48662 0.87156 0.88778 0.0
C494 C 0.51285 0.01522 0.94557 0.0
C495 C 0.50874 0.94321 0.90865 0.0
H496 H 0.50252 0.21579 0.95698 0.0
H497 H 0.47642 0.11858 0.96207 0.0
H498 H 0.48333 0.16869 0.97064 0.0
H499 H 0.50811 0.1624 0.92489 0.0
H500 H 0.49423 0.83227 0.89111 0.0
H501 H 0.48202 0.91306 0.88656 0.0
H502 H 0.52565 0.90297 0.92107 0.0
H503 H 0.47583 0.86282 0.8785 0.0
Eu504 Eu 0.12127 0.32766 0.43131 0.0
C505 C 0.23893 0.34445 0.46269 0.0
N506 N 0.22015 0.35713 0.46556 0.0
C507 C 0.21837 0.34259 0.48757 0.0
C508 C 0.24781 0.32981 0.47224 0.0
C509 C 0.20997 0.35664 0.47777 0.0
C510 C 0.2373 0.32903 0.48479 0.0
C511 C 0.26776 0.33207 0.44682 0.0
C512 C 0.24839 0.34524 0.45006 0.0
C513 C 0.27649 0.3173 0.45629 0.0
C514 C 0.26649 0.31611 0.46896 0.0
Eu515 Eu 0.20628 0.37964 0.44851 0.0
N516 N 0.23925 0.35939 0.44104 0.0
C517 C 0.27843 0.33477 0.4342 0.0
C518 C 0.25221 0.3647 0.42905 0.0
C519 C 0.27114 0.35173 0.42535 0.0
H520 H 0.19549 0.36728 0.47998 0.0
H521 H 0.2807 0.35545 0.41574 0.0
H522 H 0.1364 0.33807 0.39986 0.0
H523 H 0.04846 0.35973 0.46127 0.0
H524 H 0.24926 0.37989 0.42237 0.0
H525 H 0.29331 0.32496 0.43133 0.0
H526 H 0.07856 0.33265 0.45617 0.0
H527 H 0.21022 0.34219 0.49725 0.0
H528 H 0.29127 0.30701 0.45394 0.0
H529 H 0.27343 0.30463 0.47616 0.0
H530 H 0.12792 0.36607 0.38182 0.0
H531 H 0.24362 0.31799 0.49239 0.0
H532 H 0.03959 0.39063 0.44455 0.0
N533 N 0.11282 0.35189 0.41337 0.0
C534 C 0.095 0.36612 0.41537 0.0
C535 C 0.11874 0.36642 0.39122 0.0
C536 C 0.08919 0.38197 0.40533 0.0
C537 C 0.12398 0.35108 0.40148 0.0
C538 C 0.10144 0.3821 0.39317 0.0
N539 N 0.09005 0.3508 0.43725 0.0
C540 C 0.07657 0.34742 0.44902 0.0
C541 C 0.06552 0.38088 0.43002 0.0
C542 C 0.08349 0.36573 0.42765 0.0
C543 C 0.05353 0.37932 0.44235 0.0
C544 C 0.05868 0.36211 0.45183 0.0
H545 H 0.0975 0.39404 0.38521 0.0
H546 H 0.06705 0.40979 0.40014 0.0
H547 H 0.04624 0.40873 0.42172 0.0
O548 O 0.0767 0.28322 0.4364 0.0
O549 O 0.14781 0.38228 0.42957 0.0
O550 O 0.17104 0.39699 0.44916 0.0
O551 O 0.09361 0.29355 0.4166 0.0
O552 O 0.12226 0.3209 0.45273 0.0
O553 O 0.16282 0.36815 0.46127 0.0
O554 O 0.24815 0.42562 0.44247 0.0
O555 O 0.18101 0.32611 0.45164 0.0
O556 O 0.15353 0.30611 0.43287 0.0
O557 O 0.23532 0.4154 0.46262 0.0
O558 O 0.20256 0.38352 0.42653 0.0
O559 O 0.16429 0.33269 0.42109 0.0
C560 C 0.15949 0.40303 0.43896 0.0
C561 C 0.04423 0.2444 0.41975 0.0
C562 C 1.00195 0.18919 0.42257 0.0
C563 C 0.99464 0.18782 0.40948 0.0
C564 C 0.03633 0.24233 0.40671 0.0
C565 C 0.01162 0.21427 0.40165 0.0
C566 C 0.02657 0.21782 0.42777 0.0
C567 C 0.13555 0.34075 0.46237 0.0
C568 C 0.07193 0.27395 0.42448 0.0
C569 C 0.07166 0.39739 0.40774 0.0
C570 C 0.05986 0.39684 0.42004 0.0
C571 C 0.16757 0.30327 0.44315 0.0
C572 C 0.28149 0.46701 0.45827 0.0
C573 C 0.33354 0.51505 0.45505 0.0
C574 C 0.32993 0.52674 0.46686 0.0
C575 C 0.27883 0.47943 0.47007 0.0
C576 C 0.30918 0.48496 0.45072 0.0
C577 C 0.30284 0.50902 0.4743 0.0
C578 C 0.18884 0.36022 0.41805 0.0
C579 C 0.25498 0.43541 0.45426 0.0
H580 H 0.97557 0.16619 0.40531 0.0
H581 H 0.04941 0.26244 0.40036 0.0
H582 H 1.00575 0.21293 0.3916 0.0
H583 H 0.03259 0.21899 0.43782 0.0
H584 H 0.34833 0.54969 0.47036 0.0
H585 H 0.25795 0.46631 0.47606 0.0
H586 H 0.31175 0.47574 0.44161 0.0
H587 H 0.30042 0.5183 0.4834 0.0
Eu588 Eu 0.72247 0.81427 0.42865 0.0
C589 C 0.69992 0.90948 0.46265 0.0
N590 N 0.68674 0.87767 0.46473 0.0
C591 C 0.69467 0.88656 0.48731 0.0
C592 C 0.71153 0.93124 0.47292 0.0
C593 C 0.68363 0.86592 0.47682 0.0
C594 C 0.70883 0.91938 0.48535 0.0
C595 C 0.71519 0.95314 0.44776 0.0
C596 C 0.70185 0.92024 0.45019 0.0
C597 C 0.72736 0.97494 0.45794 0.0
C598 C 0.72548 0.96401 0.47049 0.0
Eu599 Eu 0.66911 0.84431 0.44662 0.0
N600 N 0.6901 0.89854 0.4405 0.0
C601 C 0.71524 0.96314 0.43521 0.0
C602 C 0.68752 0.90811 0.42848 0.0
C603 C 0.70077 0.94046 0.42558 0.0
H604 H 0.67209 0.84056 0.47838 0.0
H605 H 0.69915 0.94782 0.41596 0.0
H606 H 0.7217 0.82794 0.39724 0.0
H607 H 0.67646 0.70148 0.45463 0.0
H608 H 0.67419 0.89116 0.42114 0.0
H609 H 0.72525 0.98818 0.43296 0.0
H610 H 0.70347 0.75952 0.4523 0.0
H611 H 0.69215 0.87713 0.49689 0.0
H612 H 0.73786 1.00028 0.45622 0.0
H613 H 0.7347 0.9811 0.47825 0.0
H614 H 0.7015 0.79704 0.37728 0.0
H615 H 0.7174 0.93533 0.4935 0.0
H616 H 0.65519 0.66701 0.43554 0.0
N617 N 0.70387 0.78703 0.40911 0.0
C618 C 0.68962 0.75472 0.40968 0.0
C619 C 0.69762 0.78483 0.38634 0.0
C620 C 0.67806 0.73612 0.3985 0.0
C621 C 0.70856 0.80227 0.39766 0.0
C622 C 0.68211 0.7516 0.38675 0.0
N623 N 0.69686 0.75863 0.43223 0.0
C624 C 0.69404 0.74511 0.44395 0.0
C625 C 0.67061 0.70662 0.42241 0.0
C626 C 0.68609 0.74013 0.42154 0.0
C627 C 0.66698 0.69267 0.43447 0.0
C628 C 0.67886 0.71202 0.44527 0.0
H629 H 0.67365 0.73814 0.37794 0.0
H630 H 0.65384 0.68812 0.39087 0.0
H631 H 0.6472 0.66232 0.41179 0.0
O632 O 0.7655 0.81223 0.43464 0.0
O633 O 0.6678 0.78457 0.427 0.0
O634 O 0.65373 0.79223 0.44688 0.0
O635 O 0.75959 0.82387 0.41495 0.0
O636 O 0.729 0.81975 0.45009 0.0
O637 O 0.68304 0.81438 0.45964 0.0
O638 O 0.62457 0.8405 0.4395 0.0
O639 O 0.72262 0.87444 0.44976 0.0
O640 O 0.74314 0.86771 0.43096 0.0
O641 O 0.62904 0.8328 0.45946 0.0
O642 O 0.66579 0.83805 0.4245 0.0
O643 O 0.71715 0.85272 0.41918 0.0
C644 C 0.6471 0.77542 0.43643 0.0
C645 C 0.80762 0.82218 0.41894 0.0
C646 C 0.86019 0.82922 0.42335 0.0
C647 C 0.86482 0.82754 0.41015 0.0
C648 C 0.81285 0.82061 0.40579 0.0
C649 C 0.8413 0.82333 0.40145 0.0
C650 C 0.83155 0.82675 0.42776 0.0
C651 C 0.71015 0.81354 0.46008 0.0
C652 C 0.7773 0.81954 0.42309 0.0
C653 C 0.66286 0.70278 0.39936 0.0
C654 C 0.65911 0.68808 0.41128 0.0
C655 C 0.74602 0.8838 0.44149 0.0
C656 C 0.59857 0.85742 0.45419 0.0
C657 C 0.55829 0.87376 0.45161 0.0
C658 C 0.57529 0.89862 0.46037 0.0
C659 C 0.6147 0.88236 0.46299 0.0
C660 C 0.56997 0.85294 0.44858 0.0
C661 C 0.60316 0.90276 0.46602 0.0
C662 C 0.68923 0.84852 0.41603 0.0
C663 C 0.61181 0.83652 0.45081 0.0
H664 H 0.8869 0.82981 0.40657 0.0
H665 H 0.79487 0.81719 0.3988 0.0
H666 H 0.84514 0.82219 0.39131 0.0
H667 H 0.82792 0.82823 0.43792 0.0
H668 H 0.56671 0.91469 0.463 0.0
H669 H 0.6362 0.8861 0.46764 0.0
H670 H 0.55719 0.83374 0.4418 0.0
H671 H 0.61585 0.92186 0.47283 0.0
Eu672 Eu 0.24016 0.93286 0.43213 0.0
C673 C 0.13595 0.80787 0.46162 0.0
N674 N 0.16705 0.82924 0.46426 0.0
C675 C 0.15372 0.83091 0.48625 0.0
C676 C 0.11235 0.79801 0.4712 0.0
C677 C 0.17629 0.84019 0.47643 0.0
C678 C 0.1216 0.80994 0.48361 0.0
C679 C 0.09542 0.77462 0.44613 0.0
C680 C 0.12755 0.79624 0.44919 0.0
C681 C 0.07189 0.76506 0.45563 0.0
C682 C 0.08033 0.7767 0.46813 0.0
Eu683 Eu 0.20312 0.84317 0.44694 0.0
N684 N 0.15062 0.80708 0.44001 0.0
C685 C 0.08781 0.7636 0.43353 0.0
C686 C 0.1435 0.79517 0.42786 0.0
C687 C 0.11201 0.77369 0.4244 0.0
H688 H 0.20111 0.85558 0.47874 0.0
H689 H 0.10647 0.76471 0.4147 0.0
H690 H 0.24652 0.92059 0.40108 0.0
H691 H 0.33251 0.00409 0.46722 0.0
H692 H 0.16196 0.80156 0.42082 0.0
H693 H 0.06341 0.74707 0.43078 0.0
H694 H 0.27782 0.97453 0.45883 0.0
H695 H 0.16116 0.83979 0.49587 0.0
H696 H 0.04708 0.74869 0.45341 0.0
H697 H 0.06187 0.76906 0.47536 0.0
H698 H 0.28913 0.93231 0.38528 0.0
H699 H 0.10418 0.80288 0.49123 0.0
H700 H 0.37795 0.01385 0.45332 0.0
N701 N 0.27875 0.94305 0.41641 0.0
C702 C 0.30965 0.96074 0.42022 0.0
C703 C 0.2952 0.94026 0.39508 0.0
C704 C 0.33472 0.96811 0.41155 0.0
C705 C 0.27114 0.93339 0.40403 0.0
C706 C 0.32714 0.95754 0.39887 0.0
N707 N 0.29143 0.96326 0.44114 0.0
C708 C 0.29707 0.97645 0.45304 0.0
C709 C 0.34799 0.98867 0.43713 0.0
C710 C 0.31612 0.97058 0.43295 0.0
C711 C 0.3538 0.99984 0.44975 0.0
C712 C 0.32823 0.9942 0.45766 0.0
H713 H 0.34575 0.96272 0.39192 0.0
H714 H 0.386 0.99118 0.4093 0.0
H715 H 0.39763 0.00937 0.43164 0.0
O716 O 0.24654 0.98043 0.43548 0.0
O717 O 0.26519 0.90348 0.42914 0.0
O718 O 0.25466 0.88034 0.44853 0.0
O719 O 0.23145 0.9579 0.41661 0.0
O720 O 0.22683 0.92697 0.45314 0.0
O721 O 0.23295 0.88525 0.46063 0.0
O722 O 0.213 0.80533 0.43994 0.0
O723 O 0.16702 0.85933 0.44471 0.0
O724 O 0.18893 0.91225 0.43825 0.0
O725 O 0.20617 0.81078 0.46028 0.0
O726 O 0.21094 0.84991 0.42504 0.0
O727 O 0.2023 0.89179 0.42087 0.0
C728 C 0.27233 0.88964 0.43832 0.0
C729 C 0.23643 0.01016 0.41918 0.0
C730 C 0.22274 0.05189 0.42231 0.0
C731 C 0.22797 0.05914 0.40921 0.0
C732 C 0.2415 0.01784 0.40613 0.0
C733 C 0.23752 0.04238 0.40121 0.0
C734 C 0.22756 0.02764 0.42735 0.0
C735 C 0.23171 0.91173 0.46248 0.0
C736 C 0.23777 0.98223 0.42387 0.0
C737 C 0.36641 0.98543 0.41581 0.0
C738 C 0.37302 0.99567 0.42855 0.0
C739 C 0.1652 0.8849 0.4422 0.0
C740 C 0.21883 0.76993 0.45546 0.0
C741 C 0.21329 0.71713 0.45322 0.0
C742 C 0.23085 0.72234 0.46453 0.0
C743 C 0.23634 0.7745 0.46676 0.0
C744 C 0.20733 0.74108 0.44862 0.0
C745 C 0.24233 0.75086 0.47123 0.0
C746 C 0.20305 0.86632 0.41713 0.0
C747 C 0.21099 0.79455 0.45154 0.0
H748 H 0.22474 0.07794 0.40515 0.0
H749 H 0.24827 0.00465 0.3997 0.0
H750 H 0.24147 0.04818 0.39113 0.0
H751 H 0.22308 0.02155 0.43741 0.0
H752 H 0.23559 0.70417 0.4682 0.0
H753 H 0.24524 0.79635 0.47221 0.0
H754 H 0.19342 0.73705 0.43999 0.0
H755 H 0.25574 0.75458 0.47997 0.0
Eu756 Eu 0.66328 0.78607 0.26451 0.0
C757 C 0.68279 0.90591 0.23648 0.0
N758 N 0.69466 0.88683 0.23293 0.0
C759 C 0.67783 0.88603 0.21131 0.0
C760 C 0.66712 0.91515 0.22753 0.0
C761 C 0.69277 0.8771 0.22054 0.0
C762 C 0.66483 0.90504 0.21482 0.0
C763 C 0.67205 0.93391 0.25325 0.0
C764 C 0.68498 0.91484 0.24925 0.0
C765 C 0.65624 0.94299 0.24438 0.0
C766 C 0.65378 0.93364 0.23156 0.0
Eu767 Eu 0.71919 0.87246 0.24906 0.0
N768 N 0.69982 0.90508 0.25772 0.0
C769 C 0.6758 0.94372 0.26603 0.0
C770 C 0.70585 0.91695 0.26989 0.0
C771 C 0.69327 0.93567 0.27431 0.0
H772 H 0.7029 0.86251 0.21778 0.0
H773 H 0.69758 0.9444 0.28406 0.0
H774 H 0.67323 0.79533 0.29619 0.0
H775 H 0.67692 0.70393 0.23262 0.0
H776 H 0.72121 0.91314 0.27618 0.0
H777 H 0.66622 0.95837 0.26947 0.0
H778 H 0.65843 0.74088 0.2389 0.0
H779 H 0.67626 0.87819 0.20151 0.0
H780 H 0.646 0.95744 0.24733 0.0
H781 H 0.64146 0.94078 0.22485 0.0
H782 H 0.69528 0.77765 0.31368 0.0
H783 H 0.65301 0.91167 0.20767 0.0
H784 H 0.70356 0.68727 0.24851 0.0
N785 N 0.68243 0.7698 0.28189 0.0
C786 C 0.69277 0.74896 0.2792 0.0
C787 C 0.69485 0.76965 0.30402 0.0
C788 C 0.705 0.73792 0.28892 0.0
C789 C 0.68275 0.77985 0.29409 0.0
C790 C 0.70616 0.74874 0.30143 0.0
N791 N 0.67889 0.74946 0.25745 0.0
C792 C 0.67224 0.73599 0.24558 0.0
C793 C 0.70073 0.71626 0.26367 0.0
C794 C 0.69108 0.73863 0.26664 0.0
C795 C 0.69656 0.70456 0.25116 0.0
C796 C 0.68172 0.71405 0.24214 0.0
H797 H 0.71542 0.74085 0.30918 0.0
H798 H 0.72508 0.70777 0.29325 0.0
H799 H 0.72103 0.68854 0.27118 0.0
O800 O 0.61631 0.75122 0.25729 0.0
O801 O 0.71753 0.80666 0.2665 0.0
O802 O 0.73583 0.83672 0.24837 0.0
O803 O 0.62518 0.75539 0.27768 0.0
O804 O 0.65988 0.79126 0.24307 0.0
O805 O 0.70922 0.8305 0.23577 0.0
O806 O 0.76557 0.91523 0.25418 0.0
O807 O 0.66574 0.84774 0.24586 0.0
O808 O 0.64826 0.82342 0.26512 0.0
O809 O 0.7532 0.90037 0.23433 0.0
O810 O 0.72409 0.86655 0.27091 0.0
O811 O 0.67298 0.82842 0.27654 0.0
C812 C 0.74056 0.82312 0.25824 0.0
C813 C 0.58799 0.70471 0.26947 0.0
C814 C 0.53998 0.6539 0.26534 0.0
C815 C 0.55557 0.63806 0.27009 0.0
C816 C 0.60315 0.68852 0.27418 0.0
C817 C 0.58692 0.65532 0.2745 0.0
C818 C 0.55637 0.68737 0.26511 0.0
C819 C 0.68156 0.80401 0.23401 0.0
C820 C 0.60508 0.73956 0.26857 0.0
C821 C 0.71554 0.71644 0.2859 0.0
C822 C 0.71335 0.70558 0.27331 0.0
C823 C 0.64414 0.83639 0.25486 0.0
C824 C 0.80462 0.94741 0.23739 0.0
C825 C 0.85365 0.99877 0.2398 0.0
C826 C 0.86186 0.9964 0.22713 0.0
C827 C 0.81353 0.94588 0.22471 0.0
C828 C 0.8248 0.97422 0.24497 0.0
C829 C 0.84188 0.97019 0.21964 0.0
C830 C 0.70143 0.8516 0.27962 0.0
C831 C 0.77392 0.92101 0.24219 0.0
H832 H 0.54333 0.61229 0.27058 0.0
H833 H 0.62745 0.70146 0.27761 0.0
H834 H 0.59866 0.64292 0.27819 0.0
H835 H 0.54475 0.6999 0.26137 0.0
H836 H 0.88379 0.0151 0.22298 0.0
H837 H 0.79857 0.92575 0.21863 0.0
H838 H 0.81825 0.97598 0.25473 0.0
H839 H 0.84841 0.9687 0.20986 0.0
Eu840 Eu 0.26975 0.90795 0.26307 0.0
C841 C 0.1485 0.80154 0.23723 0.0
N842 N 0.16621 0.83266 0.2338 0.0
C843 C 0.16611 0.81776 0.21194 0.0
C844 C 0.14003 0.77712 0.22812 0.0
C845 C 0.17428 0.84114 0.22133 0.0
C846 C 0.14918 0.7856 0.21536 0.0
C847 C 0.1219 0.76205 0.25385 0.0
C848 C 0.13959 0.7942 0.24997 0.0
C849 C 0.11411 0.73763 0.24487 0.0
C850 C 0.12304 0.74515 0.23204 0.0
Eu851 Eu 0.17962 0.87073 0.25014 0.0
N852 N 0.14774 0.81838 0.25849 0.0
C853 C 0.11209 0.75533 0.26661 0.0
C854 C 0.13609 0.81179 0.27069 0.0
C855 C 0.11876 0.7803 0.275 0.0
H856 H 0.18701 0.86595 0.2186 0.0
H857 H 0.11015 0.7753 0.28476 0.0
H858 H 0.26068 0.89991 0.29534 0.0
H859 H 0.34375 0.01567 0.23572 0.0
H860 H 0.13926 0.83048 0.27715 0.0
H861 H 0.09852 0.73096 0.26997 0.0
H862 H 0.31242 0.95749 0.23969 0.0
H863 H 0.17288 0.82455 0.20207 0.0
H864 H 0.10079 0.71284 0.24773 0.0
H865 H 0.11662 0.72606 0.2252 0.0
H866 H 0.26536 0.93329 0.31389 0.0
H867 H 0.14309 0.76754 0.20808 0.0
H868 H 0.34963 0.0534 0.25296 0.0
N869 N 0.27688 0.93791 0.28193 0.0
C870 C 0.29204 0.97008 0.28041 0.0
C871 C 0.27245 0.94391 0.30449 0.0
C872 C 0.29661 0.99037 0.29085 0.0
C873 C 0.269 0.92488 0.29387 0.0
C874 C 0.28575 0.97677 0.30293 0.0
N875 N 0.30033 0.96276 0.25871 0.0
C876 C 0.31493 0.97397 0.24718 0.0
C877 C 0.32218 0.01616 0.26672 0.0
C878 C 0.30474 0.98292 0.26852 0.0
C879 C 0.33599 0.02799 0.25472 0.0
C880 C 0.3327 0.00678 0.24496 0.0
H881 H 0.28875 0.99152 0.3112 0.0
H882 H 0.31622 0.03948 0.29688 0.0
H883 H 0.33859 0.06204 0.27574 0.0
O884 O 0.30724 0.90288 0.25367 0.0
O885 O 0.25159 0.94018 0.25533 0.0
O886 O 0.20108 0.91393 0.26291 0.0
O887 O 0.30901 0.90986 0.2741 0.0
O888 O 0.26174 0.89537 0.24215 0.0
O889 O 0.22015 0.90317 0.2359 0.0
O890 O 0.12901 0.85801 0.25103 0.0
O891 O 0.2076 0.84554 0.24596 0.0
O892 O 0.23633 0.85458 0.26431 0.0
O893 O 0.16175 0.89459 0.2377 0.0
O894 O 0.18639 0.87851 0.27203 0.0
O895 O 0.23057 0.87334 0.27636 0.0
C896 C 0.22598 0.94043 0.25927 0.0
C897 C 0.32591 0.87541 0.26596 0.0
C898 C 0.35835 0.8507 0.26227 0.0
C899 C 0.33346 0.82174 0.26702 0.0
C900 C 0.30147 0.8465 0.27088 0.0
C901 C 0.30526 0.81979 0.27138 0.0
C902 C 0.35439 0.87751 0.26175 0.0
C903 C 0.24773 0.90409 0.2336 0.0
C904 C 0.32094 0.90268 0.26434 0.0
C905 C 0.31277 0.02354 0.28899 0.0
C906 C 0.32559 0.0364 0.27696 0.0
C907 C 0.22015 0.83596 0.25476 0.0
C908 C 0.10652 0.88305 0.2373 0.0
C909 C 0.05349 0.87773 0.23926 0.0
C910 C 0.05887 0.89445 0.2277 0.0
C911 C 0.11102 0.89963 0.22577 0.0
C912 C 0.0773 0.87158 0.24399 0.0
C913 C 0.0873 0.9051 0.22099 0.0
C914 C 0.20397 0.8723 0.27997 0.0
C915 C 0.13271 0.87833 0.24212 0.0
H916 H 0.3361 0.80083 0.26761 0.0
H917 H 0.27946 0.84457 0.27429 0.0
H918 H 0.28632 0.79758 0.27517 0.0
H919 H 0.37319 0.8998 0.25788 0.0
H920 H 0.04088 0.89918 0.2238 0.0
H921 H 0.13295 0.90838 0.22037 0.0
H922 H 0.07343 0.85879 0.25292 0.0
H923 H 0.09105 0.91785 0.21207 0.0
Eu924 Eu 0.14281 0.38672 0.26497 0.0
C925 C 0.25147 0.37336 0.23817 0.0
N926 N 0.22016 0.36005 0.23503 0.0
C927 C 0.23393 0.37422 0.21304 0.0
C928 C 0.27544 0.38891 0.22885 0.0
C929 C 0.21102 0.35934 0.22263 0.0
C930 C 0.26629 0.38938 0.21618 0.0
C931 C 0.29186 0.38548 0.25434 0.0
C932 C 0.25948 0.37161 0.25079 0.0
C933 C 0.31583 0.40179 0.24516 0.0
C934 C 0.30764 0.40342 0.23244 0.0
Eu935 Eu 0.18297 0.33612 0.25172 0.0
N936 N 0.23572 0.35566 0.25948 0.0
C937 C 0.29922 0.38203 0.26696 0.0
C938 C 0.24288 0.35039 0.27156 0.0
C939 C 0.27462 0.36399 0.27554 0.0
H940 H 0.18608 0.34717 0.22009 0.0
H941 H 0.28009 0.36017 0.2852 0.0
H942 H 0.14763 0.38134 0.29722 0.0
H943 H 0.03746 0.3517 0.23571 0.0
H944 H 0.22443 0.33517 0.27816 0.0
H945 H 0.32378 0.39236 0.27006 0.0
H946 H 0.0952 0.37963 0.24069 0.0
H947 H 0.22661 0.37392 0.20324 0.0
H948 H 0.3408 0.41278 0.24775 0.0
H949 H 0.32639 0.41572 0.22543 0.0
H950 H 0.11252 0.35051 0.31502 0.0
H951 H 0.28398 0.401 0.20873 0.0
H952 H 0.99826 0.31845 0.25228 0.0
N953 N 0.11111 0.3611 0.28316 0.0
C954 C 0.07908 0.34398 0.28108 0.0
C955 C 0.10285 0.34798 0.30548 0.0
C956 C 0.05779 0.32697 0.2911 0.0
C957 C 0.12293 0.36479 0.29527 0.0
C958 C 0.07019 0.32853 0.30334 0.0
N959 N 0.0884 0.36129 0.25958 0.0
C960 C 0.07815 0.36491 0.24787 0.0
C961 C 0.03427 0.32832 0.26666 0.0
C962 C 0.06734 0.34464 0.26903 0.0
C963 C 0.02351 0.33063 0.25447 0.0
C964 C 0.04555 0.34931 0.24508 0.0
H965 H 0.05463 0.3158 0.3113 0.0
H966 H 0.00816 0.29634 0.29625 0.0
H967 H 0.98759 0.29748 0.27484 0.0
O968 O 0.14508 0.4285 0.256 0.0
O969 O 0.11257 0.3364 0.25698 0.0
O970 O 0.1411 0.3154 0.2651 0.0
O971 O 0.13936 0.42262 0.27645 0.0
O972 O 0.15836 0.39338 0.24454 0.0
O973 O 0.15095 0.34496 0.23751 0.0
O974 O 0.19494 0.29764 0.25202 0.0
O975 O 0.20836 0.38929 0.248 0.0
O976 O 0.19673 0.40868 0.26601 0.0
O977 O 0.15655 0.29397 0.23977 0.0
O978 O 0.17727 0.33637 0.27372 0.0
O979 O 0.17777 0.38354 0.2785 0.0
C980 C 0.11394 0.3116 0.26113 0.0
C981 C 0.17174 0.4745 0.26843 0.0
C982 C 0.19516 0.53141 0.26456 0.0
C983 C 0.22438 0.53628 0.26939 0.0
C984 C 0.20096 0.47987 0.27342 0.0
C985 C 0.22716 0.51063 0.27385 0.0
C986 C 0.16879 0.50035 0.26411 0.0
C987 C 0.15001 0.37168 0.23562 0.0
C988 C 0.14521 0.44183 0.26682 0.0
C989 C 0.02483 0.30974 0.28868 0.0
C990 C 0.0131 0.31046 0.2765 0.0
C991 C 0.21625 0.41149 0.25669 0.0
C992 C 0.16661 0.24937 0.23884 0.0
C993 C 0.17205 0.20171 0.24002 0.0
C994 C 0.15172 0.18911 0.22943 0.0
C995 C 0.1464 0.23606 0.22822 0.0
C996 C 0.1798 0.23214 0.24469 0.0
C997 C 0.13916 0.20624 0.22355 0.0
C998 C 0.18227 0.35973 0.28173 0.0
C999 C 0.17289 0.28078 0.24369 0.0
H1000 H 0.24494 0.56003 0.26991 0.0
H1001 H 0.20353 0.46025 0.2769 0.0
H1002 H 0.24967 0.5146 0.27765 0.0
H1003 H 0.14631 0.49625 0.26017 0.0
H1004 H 0.14558 0.16586 0.22568 0.0
H1005 H 0.13607 0.2487 0.22349 0.0
H1006 H 0.19534 0.24192 0.25292 0.0
H1007 H 0.12356 0.19628 0.21536 0.0
Eu1008 Eu 0.78825 0.66013 0.76594 0.0
C1009 C 0.90637 0.6743 0.79549 0.0
N1010 N 0.88993 0.68963 0.79819 0.0
C1011 C 0.89084 0.67944 0.82056 0.0
C1012 C 0.91545 0.66059 0.80536 0.0
C1013 C 0.88227 0.69261 0.81047 0.0
C1014 C 0.90748 0.66334 0.81799 0.0
C1015 C 0.92958 0.655 0.77973 0.0
C1016 C 0.91284 0.67111 0.78276 0.0
C1017 C 0.93894 0.64162 0.78955 0.0
C1018 C 0.93175 0.64425 0.80231 0.0
Eu1019 Eu 0.87653 0.71119 0.78068 0.0
N1020 N 0.90291 0.68379 0.77339 0.0
C1021 C 0.93683 0.65318 0.76691 0.0
C1022 C 0.91223 0.68417 0.76103 0.0
C1023 C 0.9285 0.66821 0.75755 0.0
H1024 H 0.86976 0.70539 0.81252 0.0
H1025 H 0.93531 0.66821 0.74768 0.0
H1026 H 0.79765 0.66694 0.73413 0.0
H1027 H 0.71378 0.68751 0.79685 0.0
H1028 H 0.90864 0.69783 0.75383 0.0
H1029 H 0.94968 0.64106 0.76419 0.0
H1030 H 0.745 0.66184 0.79106 0.0
H1031 H 0.88467 0.68176 0.8303 0.0
H1032 H 0.95179 0.62916 0.78737 0.0
H1033 H 0.93892 0.63355 0.80976 0.0
H1034 H 0.78637 0.69349 0.71629 0.0
H1035 H 0.91399 0.65307 0.82583 0.0
H1036 H 0.70329 0.71836 0.78061 0.0
N1037 N 0.77565 0.68142 0.7481 0.0
C1038 C 0.75804 0.69567 0.75048 0.0
C1039 C 0.77843 0.69435 0.72587 0.0
C1040 C 0.75063 0.71064 0.74058 0.0
C1041 C 0.78517 0.67977 0.73599 0.0
C1042 C 0.76129 0.71005 0.72818 0.0
N1043 N 0.75546 0.68106 0.77227 0.0
C1044 C 0.74222 0.67671 0.78413 0.0
C1045 C 0.72922 0.70991 0.76565 0.0
C1046 C 0.74779 0.6956 0.76291 0.0
C1047 C 0.71771 0.70774 0.77812 0.0
C1048 C 0.72373 0.69053 0.78733 0.0
H1049 H 0.75615 0.72136 0.72031 0.0
H1050 H 0.72721 0.73756 0.73588 0.0
H1051 H 0.70825 0.73671 0.75781 0.0
O1052 O 0.74765 0.61563 0.77294 0.0
O1053 O 0.81406 0.71468 0.7636 0.0
O1054 O 0.84548 0.73351 0.78157 0.0
O1055 O 0.75914 0.62199 0.75271 0.0
O1056 O 0.79299 0.65796 0.7875 0.0
O1057 O 0.83632 0.70599 0.79415 0.0
O1058 O 0.92074 0.75092 0.77311 0.0
O1059 O 0.84862 0.65836 0.78527 0.0
O1060 O 0.82243 0.64127 0.76648 0.0
O1061 O 0.91117 0.74852 0.79329 0.0
O1062 O 0.87006 0.71473 0.7588 0.0
O1063 O 0.82928 0.66446 0.7544 0.0
C1064 C 0.82963 0.73713 0.77218 0.0
C1065 C 0.70623 0.58384 0.75827 0.0
C1066 C 0.65791 0.53185 0.75863 0.0
C1067 C 0.6439 0.54306 0.7498 0.0
C1068 C 0.69178 0.59487 0.7496 0.0
C1069 C 0.66068 0.57448 0.74541 0.0
C1070 C 0.68905 0.5525 0.76294 0.0
C1071 C 0.80823 0.68009 0.79622 0.0
C1072 C 0.7401 0.60313 0.76153 0.0
C1073 C 0.73296 0.72575 0.74336 0.0
C1074 C 0.72225 0.72534 0.75586 0.0
C1075 C 0.83273 0.63542 0.77709 0.0
C1076 C 0.94513 0.79964 0.7844 0.0
C1077 C 0.99138 0.85283 0.78124 0.0
C1078 C 0.97208 0.86608 0.7843 0.0
C1079 C 0.92649 0.81346 0.78746 0.0
C1080 C 0.97769 0.8194 0.78139 0.0
C1081 C 0.93995 0.84651 0.78742 0.0
C1082 C 0.85318 0.69158 0.75056 0.0
C1083 C 0.93087 0.76472 0.78414 0.0
H1084 H 0.61987 0.52755 0.74636 0.0
H1085 H 0.70475 0.61893 0.74586 0.0
H1086 H 0.64967 0.58292 0.73862 0.0
H1087 H 0.70035 0.54382 0.76951 0.0
H1088 H 0.98198 0.89168 0.78442 0.0
H1089 H 0.90158 0.79865 0.78989 0.0
H1090 H 0.99216 0.80877 0.77898 0.0
H1091 H 0.9254 0.85702 0.78981 0.0
Eu1092 Eu 0.39066 0.14908 0.76369 0.0
C1093 C 0.36283 0.24314 0.79561 0.0
N1094 N 0.35154 0.21168 0.79796 0.0
C1095 C 0.36029 0.22205 0.82043 0.0
C1096 C 0.37363 0.26544 0.80569 0.0
C1097 C 0.34995 0.20082 0.81013 0.0
C1098 C 0.37221 0.25451 0.81821 0.0
C1099 C 0.37592 0.28559 0.78031 0.0
C1100 C 0.36412 0.25306 0.78303 0.0
C1101 C 0.38677 0.30789 0.79033 0.0
C1102 C 0.38562 0.29784 0.80298 0.0
Eu1103 Eu 0.33367 0.17739 0.78015 0.0
N1104 N 0.35386 0.23094 0.77348 0.0
C1105 C 0.37608 0.29473 0.76761 0.0
C1106 C 0.35207 0.23958 0.76122 0.0
C1107 C 0.36373 0.27156 0.75805 0.0
H1108 H 0.34023 0.17568 0.81192 0.0
H1109 H 0.36261 0.27823 0.74826 0.0
H1110 H 0.38435 0.15266 0.73195 0.0
H1111 H 0.36771 0.04777 0.79412 0.0
H1112 H 0.34067 0.22203 0.75387 0.0
H1113 H 0.38489 0.31947 0.76513 0.0
H1114 H 0.38925 0.10426 0.78891 0.0
H1115 H 0.35894 0.21337 0.83008 0.0
H1116 H 0.39595 0.33296 0.7884 0.0
H1117 H 0.39404 0.31533 0.81061 0.0
H1118 H 0.3627 0.11559 0.71362 0.0
H1119 H 0.38023 0.2709 0.82622 0.0
H1120 H 0.34195 0.0069 0.77724 0.0
N1121 N 0.3722 0.11589 0.74559 0.0
C1122 C 0.36057 0.08429 0.74768 0.0
C1123 C 0.36173 0.10645 0.72316 0.0
C1124 C 0.34817 0.0623 0.73751 0.0
C1125 C 0.37363 0.12733 0.73355 0.0
C1126 C 0.3487 0.07376 0.72516 0.0
N1127 N 0.37283 0.09571 0.76972 0.0
C1128 C 0.37655 0.0868 0.78167 0.0
C1129 C 0.34895 0.04125 0.76251 0.0
C1130 C 0.36081 0.0739 0.76008 0.0
C1131 C 0.35073 0.03175 0.77499 0.0
C1132 C 0.36506 0.05471 0.78456 0.0
H1133 H 0.33943 0.05761 0.71709 0.0
H1134 H 0.32603 0.01244 0.73228 0.0
H1135 H 0.3268 0.99403 0.75414 0.0
O1136 O 0.43772 0.1566 0.77006 0.0
O1137 O 0.33638 0.11551 0.76215 0.0
O1138 O 0.32099 0.12614 0.7812 0.0
O1139 O 0.42791 0.16028 0.74985 0.0
O1140 O 0.39626 0.15792 0.78516 0.0
O1141 O 0.34718 0.1475 0.79317 0.0
O1142 O 0.28891 0.17345 0.77326 0.0
O1143 O 0.38698 0.20962 0.7831 0.0
O1144 O 0.40435 0.20104 0.76414 0.0
O1145 O 0.29377 0.16529 0.79313 0.0
O1146 O 0.32869 0.16743 0.75828 0.0
O1147 O 0.38 0.18222 0.75249 0.0
C1148 C 0.31501 0.10777 0.77126 0.0
C1149 C 0.48124 0.17174 0.75446 0.0
C1150 C 0.53337 0.1779 0.75887 0.0
C1151 C 0.54365 0.19087 0.74662 0.0
C1152 C 0.49203 0.1849 0.74223 0.0
C1153 C 0.52308 0.19445 0.73837 0.0
C1154 C 0.50219 0.16856 0.76287 0.0
C1155 C 0.37566 0.15007 0.79462 0.0
C1156 C 0.4486 0.16284 0.75836 0.0
C1157 C 0.33577 0.02971 0.73997 0.0
C1158 C 0.33616 0.01922 0.75243 0.0
C1159 C 0.40969 0.21764 0.77464 0.0
C1160 C 0.26352 0.19032 0.78826 0.0
C1161 C 0.22473 0.20841 0.78544 0.0
C1162 C 0.24088 0.23181 0.79483 0.0
C1163 C 0.27878 0.21372 0.79774 0.0
C1164 C 0.23608 0.18746 0.7822 0.0
C1165 C 0.26758 0.23432 0.80095 0.0
C1166 C 0.35106 0.17543 0.74945 0.0
C1167 C 0.27646 0.16933 0.78463 0.0
H1168 H 0.56772 0.19833 0.74346 0.0
H1169 H 0.47656 0.18811 0.73565 0.0
H1170 H 0.53122 0.20465 0.72896 0.0
H1171 H 0.49431 0.15867 0.77236 0.0
H1172 H 0.23249 0.24796 0.79758 0.0
H1173 H 0.2993 0.21611 0.80279 0.0
H1174 H 0.22394 0.16944 0.77491 0.0
H1175 H 0.27962 0.25226 0.80825 0.0
Eu1176 Eu 0.90067 0.26247 0.76606 0.0
C1177 C 0.80641 0.14115 0.79605 0.0
N1178 N 0.83784 0.16037 0.79879 0.0
C1179 C 0.82568 0.15922 0.82107 0.0
C1180 C 0.78319 0.13069 0.80579 0.0
C1181 C 0.84782 0.16927 0.81107 0.0
C1182 C 0.79321 0.13995 0.81842 0.0
C1183 C 0.76499 0.11314 0.78023 0.0
C1184 C 0.79748 0.13278 0.78337 0.0
C1185 C 0.74176 0.10287 0.7899 0.0
C1186 C 0.75082 0.11164 0.80264 0.0
Eu1187 Eu 0.87373 0.177 0.78146 0.0
N1188 N 0.82051 0.14368 0.77416 0.0
C1189 C 0.75683 0.10401 0.76747 0.0
C1190 C 0.81274 0.13264 0.76191 0.0
C1191 C 0.78086 0.11335 0.75832 0.0
H1192 H 0.87292 0.184 0.81317 0.0
H1193 H 0.7749 0.10522 0.74854 0.0
H1194 H 0.90347 0.25317 0.7345 0.0
H1195 H 0.99366 0.34733 0.79822 0.0
H1196 H 0.83083 0.1375 0.75489 0.0
H1197 H 0.73215 0.08892 0.76467 0.0
H1198 H 0.9388 0.31 0.79146 0.0
H1199 H 0.83365 0.16637 0.8308 0.0
H1200 H 0.7167 0.08794 0.78763 0.0
H1201 H 0.73262 0.1035 0.80999 0.0
H1202 H 0.94419 0.27044 0.7174 0.0
H1203 H 0.7761 0.13236 0.82618 0.0
H1204 H 0.03821 0.36297 0.78297 0.0
N1205 N 0.93726 0.27878 0.74903 0.0
C1206 C 0.96817 0.29987 0.75196 0.0
C1207 C 0.95118 0.27865 0.72708 0.0
C1208 C 0.99203 0.31069 0.74247 0.0
C1209 C 0.92831 0.26862 0.73679 0.0
C1210 C 0.9832 0.29959 0.72993 0.0
N1211 N 0.95222 0.30006 0.77343 0.0
C1212 C 0.95806 0.3144 0.78512 0.0
C1213 C 0.00761 0.33316 0.76771 0.0
C1214 C 0.97588 0.31057 0.76451 0.0
C1215 C 0.01417 0.3455 0.78015 0.0
C1216 C 0.98915 0.33657 0.78881 0.0
H1217 H 1.00083 0.30734 0.72236 0.0
H1218 H 0.04247 0.34074 0.73859 0.0
H1219 H 0.05608 0.36067 0.76066 0.0
O1220 O 0.88873 0.29815 0.77239 0.0
O1221 O 0.93399 0.24172 0.76315 0.0
O1222 O 0.9248 0.21554 0.78197 0.0
O1223 O 0.89173 0.29067 0.75214 0.0
O1224 O 0.89276 0.25776 0.78765 0.0
O1225 O 0.90484 0.21965 0.7948 0.0
O1226 O 0.87885 0.13698 0.77441 0.0
O1227 O 0.84298 0.19926 0.78535 0.0
O1228 O 0.84844 0.22458 0.76639 0.0
O1229 O 0.88512 0.1487 0.79443 0.0
O1230 O 0.88219 0.18298 0.75941 0.0
O1231 O 0.86742 0.22002 0.75426 0.0
C1232 C 0.94191 0.227 0.77169 0.0
C1233 C 0.90567 0.34247 0.75902 0.0
C1234 C 0.90968 0.3937 0.76316 0.0
C1235 C 0.93944 0.40891 0.75696 0.0
C1236 C 0.93541 0.35787 0.75284 0.0
C1237 C 0.95212 0.39101 0.75178 0.0
C1238 C 0.89279 0.36041 0.76407 0.0
C1239 C 0.90265 0.24569 0.79666 0.0
C1240 C 0.88821 0.30792 0.76083 0.0
C1241 C 0.02379 0.33226 0.74576 0.0
C1242 C 0.03156 0.34351 0.75833 0.0
C1243 C 0.83217 0.21113 0.77679 0.0
C1244 C 0.86191 0.094 0.78903 0.0
C1245 C 0.84922 0.03841 0.78743 0.0
C1246 C 0.82394 0.02969 0.79605 0.0
C1247 C 0.83633 0.08447 0.79761 0.0
C1248 C 0.86812 0.07067 0.78382 0.0
C1249 C 0.81746 0.05256 0.80103 0.0
C1250 C 0.87312 0.19726 0.75093 0.0
C1251 C 0.88236 0.12817 0.78577 0.0
H1252 H 0.95272 0.43461 0.75602 0.0
H1253 H 0.94575 0.3444 0.74889 0.0
H1254 H 0.97501 0.40285 0.74699 0.0
H1255 H 0.86995 0.3485 0.76896 0.0
H1256 H 0.80916 0.00505 0.79893 0.0
H1257 H 0.83108 0.10168 0.80185 0.0
H1258 H 0.88782 0.07761 0.77723 0.0
H1259 H 0.79791 0.04557 0.80768 0.0
Eu1260 Eu 0.32832 0.11973 0.59781 0.0
C1261 C 0.36008 0.24368 0.56667 0.0
N1262 N 0.37075 0.223 0.56422 0.0
C1263 C 0.36254 0.22551 0.54176 0.0
C1264 C 0.3499 0.25593 0.55663 0.0
C1265 C 0.37228 0.21388 0.55201 0.0
C1266 C 0.35128 0.24661 0.54407 0.0
C1267 C 0.34754 0.27327 0.5821 0.0
C1268 C 0.35872 0.25201 0.5793 0.0
C1269 C 0.33735 0.2855 0.57212 0.0
C1270 C 0.33853 0.27686 0.55943 0.0
Eu1271 Eu 0.38803 0.20563 0.58191 0.0
N1272 N 0.36846 0.23951 0.5888 0.0
C1273 C 0.34738 0.28203 0.59483 0.0
C1274 C 0.37031 0.24975 0.6011 0.0
C1275 C 0.35918 0.27051 0.60435 0.0
H1276 H 0.38148 0.19801 0.55016 0.0
H1277 H 0.36035 0.27815 0.61417 0.0
H1278 H 0.32927 0.12878 0.62954 0.0
H1279 H 0.35386 0.04061 0.56909 0.0
H1280 H 0.38141 0.24317 0.60845 0.0
H1281 H 0.33903 0.29834 0.59737 0.0
H1282 H 0.33403 0.07766 0.57309 0.0
H1283 H 0.36384 0.21831 0.53207 0.0
H1284 H 0.32867 0.30183 0.57412 0.0
H1285 H 0.33061 0.28653 0.55184 0.0
H1286 H 0.34647 0.11157 0.64876 0.0
H1287 H 0.34374 0.25557 0.5361 0.0
H1288 H 0.37444 0.02277 0.58704 0.0
N1289 N 0.34284 0.10375 0.61665 0.0
C1290 C 0.35402 0.08315 0.61519 0.0
C1291 C 0.34888 0.10354 0.63937 0.0
C1292 C 0.36358 0.07226 0.62588 0.0
C1293 C 0.33952 0.11354 0.62849 0.0
C1294 C 0.36115 0.08296 0.63806 0.0
N1295 N 0.3463 0.08374 0.59279 0.0
C1296 C 0.34451 0.07161 0.58085 0.0
C1297 C 0.36643 0.05078 0.60117 0.0
C1298 C 0.35563 0.07272 0.60294 0.0
C1299 C 0.36645 0.03974 0.58879 0.0
C1300 C 0.35504 0.04989 0.57862 0.0
H1301 H 0.3683 0.07516 0.64652 0.0
H1302 H 0.38249 0.04233 0.63221 0.0
H1303 H 0.3848 0.0234 0.6106 0.0
O1304 O 0.28276 0.08324 0.58998 0.0
O1305 O 0.38203 0.13852 0.60025 0.0
O1306 O 0.39895 0.16581 0.58163 0.0
O1307 O 0.28749 0.09257 0.61033 0.0
O1308 O 0.32551 0.12347 0.57615 0.0
O1309 O 0.37532 0.16246 0.56881 0.0
O1310 O 0.43309 0.24566 0.58891 0.0
O1311 O 0.3351 0.18518 0.57809 0.0
O1312 O 0.31727 0.15969 0.597 0.0
O1313 O 0.42841 0.23259 0.56905 0.0
O1314 O 0.39118 0.19973 0.60386 0.0
O1315 O 0.33924 0.16362 0.60905 0.0
C1316 C 0.40484 0.15444 0.5919 0.0
C1317 C 0.2521 0.04003 0.60361 0.0
C1318 C 0.20538 0.98807 0.60002 0.0
C1319 C 0.21953 0.97398 0.60728 0.0
C1320 C 0.26589 0.02566 0.61089 0.0
C1321 C 0.24957 0.99276 0.61273 0.0
C1322 C 0.22173 0.02121 0.59827 0.0
C1323 C 0.34694 0.13672 0.567 0.0
C1324 C 0.2693 0.07439 0.60118 0.0
C1325 C 0.37497 0.05092 0.6241 0.0
C1326 C 0.37633 0.04017 0.61179 0.0
C1327 C 0.31189 0.17005 0.58629 0.0
C1328 C 0.45947 0.28768 0.57395 0.0
C1329 C 0.49929 0.34408 0.57672 0.0
C1330 C 0.48326 0.352 0.5675 0.0
C1331 C 0.44439 0.29642 0.56459 0.0
C1332 C 0.48736 0.31174 0.57991 0.0
C1333 C 0.45614 0.3283 0.56145 0.0
C1334 C 0.36823 0.18501 0.61245 0.0
C1335 C 0.44584 0.25372 0.57758 0.0
H1336 H 0.20714 0.94848 0.60888 0.0
H1337 H 0.28917 0.03976 0.61515 0.0
H1338 H 0.26025 0.98179 0.61837 0.0
H1339 H 0.21109 0.03225 0.5926 0.0
H1340 H 0.49212 0.37662 0.56482 0.0
H1341 H 0.42356 0.27868 0.55959 0.0
H1342 H 0.49945 0.3054 0.58707 0.0
H1343 H 0.44421 0.33466 0.55425 0.0
Eu1344 Eu 0.93184 0.22963 0.59898 0.0
C1345 C 0.80865 0.13628 0.56788 0.0
N1346 N 0.82848 0.16783 0.56561 0.0
C1347 C 0.82608 0.15804 0.54306 0.0
C1348 C 0.79703 0.11421 0.55772 0.0
C1349 C 0.83716 0.17903 0.55344 0.0
C1350 C 0.80598 0.12549 0.5452 0.0
C1351 C 0.78036 0.09336 0.5831 0.0
C1352 C 0.80063 0.12602 0.58046 0.0
C1353 C 0.76881 0.07129 0.57299 0.0
C1354 C 0.77712 0.08169 0.56034 0.0
Eu1355 Eu 0.84544 0.20173 0.58355 0.0
N1356 N 0.81259 0.14792 0.59009 0.0
C1357 C 0.77193 0.08385 0.5958 0.0
C1358 C 0.80267 0.13888 0.60238 0.0
C1359 C 0.78281 0.10677 0.60546 0.0
H1360 H 0.85225 0.20423 0.55171 0.0
H1361 H 0.77543 0.09978 0.61527 0.0
H1362 H 0.92226 0.22658 0.63072 0.0
H1363 H 0.01254 0.32926 0.56838 0.0
H1364 H 0.80887 0.15616 0.60986 0.0
H1365 H 0.75638 0.059 0.59822 0.0
H1366 H 0.97565 0.27326 0.57364 0.0
H1367 H 0.83296 0.16699 0.53341 0.0
H1368 H 0.75329 0.04613 0.57486 0.0
H1369 H 0.76799 0.06438 0.55265 0.0
H1370 H 0.93879 0.2639 0.649 0.0
H1371 H 0.79749 0.10928 0.53713 0.0
H1372 H 0.02933 0.37045 0.58522 0.0
N1373 N 0.94761 0.26293 0.61703 0.0
C1374 C 0.9683 0.29435 0.61486 0.0
C1375 C 0.94711 0.27279 0.63944 0.0
C1376 C 0.9789 0.31642 0.62502 0.0
C1377 C 0.93742 0.25177 0.62908 0.0
C1378 C 0.96783 0.3053 0.6374 0.0
N1379 N 0.96799 0.28259 0.59277 0.0
C1380 C 0.98092 0.29097 0.58084 0.0
C1381 C 1.00077 0.33679 0.59996 0.0
C1382 C 0.97875 0.30445 0.60241 0.0
C1383 C 0.01228 0.34587 0.58748 0.0
C1384 C 1.0027 0.32274 0.57793 0.0
H1385 H 0.97539 0.32154 0.64545 0.0
H1386 H 0.00853 0.36609 0.63021 0.0
H1387 H 0.02792 0.38386 0.60831 0.0
O1388 O 0.96773 0.21916 0.59152 0.0
O1389 O 0.91147 0.26327 0.60168 0.0
O1390 O 0.88417 0.25278 0.58308 0.0
O1391 O 0.96098 0.21953 0.61198 0.0
O1392 O 0.92728 0.22215 0.57747 0.0
O1393 O 0.88798 0.23248 0.5702 0.0
O1394 O 0.80402 0.20434 0.59073 0.0
O1395 O 0.86697 0.17028 0.57963 0.0
O1396 O 0.8934 0.17783 0.59839 0.0
O1397 O 0.81831 0.21564 0.57106 0.0
O1398 O 0.85151 0.21025 0.60558 0.0
O1399 O 0.8889 0.19577 0.61041 0.0
C1400 C 0.89561 0.27015 0.59329 0.0
C1401 C 0.01269 0.23474 0.60442 0.0
C1402 C 0.06407 0.23911 0.59988 0.0
C1403 C 0.07925 0.26863 0.60626 0.0
C1404 C 0.02816 0.26424 0.61074 0.0
C1405 C 0.06134 0.28101 0.61168 0.0
C1406 C 0.03067 0.22215 0.59908 0.0
C1407 C 0.91403 0.23034 0.56833 0.0
C1408 C 0.97801 0.21727 0.60282 0.0
C1409 C 1.00017 0.34876 0.62252 0.0
C1410 C 0.01114 0.35889 0.61004 0.0
C1411 C 0.88192 0.16185 0.58777 0.0
C1412 C 0.76292 0.19094 0.57541 0.0
C1413 C 0.70708 0.17764 0.57657 0.0
C1414 C 0.69977 0.15574 0.56656 0.0
C1415 C 0.75483 0.16874 0.56542 0.0
C1416 C 0.73872 0.19508 0.58109 0.0
C1417 C 0.72348 0.15121 0.56109 0.0
C1418 C 0.86643 0.20173 0.61398 0.0
C1419 C 0.79658 0.21051 0.57954 0.0
H1420 H 0.10498 0.28194 0.60718 0.0
H1421 H 0.01469 0.27433 0.61491 0.0
H1422 H 0.07321 0.3037 0.61659 0.0
H1423 H 0.01871 0.19949 0.59409 0.0
H1424 H 0.67558 0.14212 0.56297 0.0
H1425 H 0.77274 0.16521 0.56076 0.0
H1426 H 0.74456 0.21224 0.58875 0.0
H1427 H 0.71761 0.13429 0.55337 0.0
Eu1428 Eu 0.81865 0.72188 0.59855 0.0
C1429 C 0.9148 0.69386 0.56742 0.0
N1430 N 0.88305 0.68107 0.56519 0.0
C1431 C 0.89241 0.68703 0.54259 0.0
C1432 C 0.93675 0.7042 0.5572 0.0
C1433 C 0.87155 0.67733 0.55302 0.0
C1434 C 0.92516 0.70058 0.54468 0.0
C1435 C 0.95827 0.71092 0.58258 0.0
C1436 C 0.92537 0.69725 0.57999 0.0
C1437 C 0.98022 0.72142 0.57242 0.0
C1438 C 0.96949 0.71802 0.55977 0.0
Eu1439 Eu 0.84938 0.6649 0.58323 0.0
N1440 N 0.90356 0.68733 0.58966 0.0
C1441 C 0.96815 0.71333 0.5953 0.0
C1442 C 0.91304 0.6877 0.60199 0.0
C1443 C 0.94539 0.70125 0.60502 0.0
H1444 H 0.84621 0.66643 0.55133 0.0
H1445 H 0.95269 0.70186 0.61485 0.0
H1446 H 0.82524 0.72122 0.6303 0.0
H1447 H 0.71365 0.68802 0.5686 0.0
H1448 H 0.89601 0.67671 0.60956 0.0
H1449 H 0.99319 0.7237 0.59768 0.0
H1450 H 0.77063 0.71038 0.57302 0.0
H1451 H 0.88321 0.68398 0.53294 0.0
H1452 H 1.00555 0.73206 0.57426 0.0
H1453 H 0.98671 0.72617 0.55204 0.0
H1454 H 0.79004 0.70355 0.64929 0.0
H1455 H 0.94126 0.70817 0.53657 0.0
H1456 H 0.6748 0.66824 0.58642 0.0
N1457 N 0.78721 0.70649 0.61712 0.0
C1458 C 0.75539 0.69445 0.61538 0.0
C1459 C 0.77996 0.70066 0.63981 0.0
C1460 C 0.73443 0.68461 0.62592 0.0
C1461 C 0.79981 0.7102 0.62907 0.0
C1462 C 0.7471 0.6877 0.63823 0.0
N1463 N 0.76447 0.70091 0.59296 0.0
C1464 C 0.75412 0.70058 0.5808 0.0
C1465 C 0.7108 0.67939 0.60093 0.0
C1466 C 0.74372 0.69173 0.60298 0.0
C1467 C 0.6999 0.67753 0.58839 0.0
C1468 C 0.72172 0.68848 0.5783 0.0
H1469 H 0.73176 0.6804 0.64658 0.0
H1470 H 0.68515 0.66435 0.63186 0.0
H1471 H 0.6645 0.65988 0.61001 0.0
O1472 O 0.82331 0.76577 0.59061 0.0
O1473 O 0.78616 0.66797 0.6014 0.0
O1474 O 0.79823 0.65244 0.58284 0.0
O1475 O 0.8308 0.7626 0.61087 0.0
O1476 O 0.82705 0.72529 0.57718 0.0
O1477 O 0.81917 0.67681 0.56951 0.0
O1478 O 0.84725 0.62148 0.59081 0.0
O1479 O 0.88006 0.7178 0.57939 0.0
O1480 O 0.87114 0.73713 0.59784 0.0
O1481 O 0.83606 0.62347 0.57105 0.0
O1482 O 0.84125 0.66296 0.60528 0.0
O1483 O 0.8537 0.7143 0.6098 0.0
C1484 C 0.78085 0.64547 0.59312 0.0
C1485 C 0.81302 0.79788 0.60458 0.0
C1486 C 0.81254 0.84778 0.60324 0.0
C1487 C 0.78539 0.8348 0.61114 0.0
C1488 C 0.78573 0.78506 0.61236 0.0
C1489 C 0.77198 0.80353 0.61559 0.0
C1490 C 0.82611 0.82905 0.59992 0.0
C1491 C 0.82082 0.70485 0.56782 0.0
C1492 C 0.82924 0.77994 0.6017 0.0
C1493 C 0.70163 0.67205 0.62387 0.0
C1494 C 0.68986 0.66949 0.61142 0.0
C1495 C 0.88762 0.74137 0.58735 0.0
C1496 C 0.861 0.59316 0.57589 0.0
C1497 C 0.87423 0.55059 0.57739 0.0
C1498 C 0.89693 0.56532 0.56765 0.0
C1499 C 0.88399 0.60738 0.56616 0.0
C1500 C 0.85635 0.56468 0.58159 0.0
C1501 C 0.90185 0.5936 0.56214 0.0
C1502 C 0.84891 0.68646 0.61356 0.0
C1503 C 0.84124 0.60735 0.57973 0.0
H1504 H 0.77443 0.84879 0.61379 0.0
H1505 H 0.77534 0.76105 0.61605 0.0
H1506 H 0.75104 0.79367 0.62165 0.0
H1507 H 0.84738 0.83902 0.594 0.0
H1508 H 0.91085 0.55482 0.56431 0.0
H1509 H 0.88792 0.62891 0.56149 0.0
H1510 H 0.83859 0.55327 0.58904 0.0
H1511 H 0.91938 0.60475 0.55461 0.0
H1512 H 0.51187 0.94961 0.12838 0.0
H1513 H 0.51959 0.90328 0.12899 0.0
H1514 H 0.50995 0.89498 0.08793 0.0
H1515 H 0.50275 0.94149 0.08724 0.0
H1516 H 0.47109 0.83834 0.10104 0.0
H1517 H 0.59681 0.8948 0.11781 0.0
H1518 H 0.57065 0.90363 0.12698 0.0
H1519 H 0.58011 0.91729 0.11074 0.0
C1520 C 0.51196 0.9382 0.11947 0.0
C1521 C 0.50679 0.94913 0.10776 0.0
C1522 C 0.51639 0.91178 0.11984 0.0
C1523 C 0.51568 0.89594 0.10849 0.0
C1524 C 0.51069 0.90697 0.09679 0.0
H1525 H 0.56648 0.7537 0.09011 0.0
H1526 H 0.56591 0.80326 0.09428 0.0
C1527 C 0.50642 0.93341 0.09641 0.0
C1528 C 0.51831 0.86677 0.10876 0.0
H1529 H 0.56901 0.83875 0.11552 0.0
C1530 C 0.49244 0.83836 0.10425 0.0
C1531 C 0.54631 0.86705 0.11287 0.0
C1532 C 0.57522 0.89732 0.1173 0.0
C1533 C 0.49386 0.81018 0.10357 0.0
C1534 C 0.52172 0.81027 0.10782 0.0
C1535 C 0.54758 0.83869 0.11241 0.0
C1536 C 0.52488 0.78141 0.10686 0.0
C1537 C 0.46587 0.78088 0.09791 0.0
C1538 C 0.50292 0.75306 0.11299 0.0
C1539 C 0.50302 0.72477 0.11053 0.0
C1540 C 0.52547 0.72447 0.10206 0.0
C1541 C 0.54896 0.75331 0.09668 0.0
C1542 C 0.5486 0.78157 0.09904 0.0
H1543 H 0.45017 0.78692 0.09224 0.0
H1544 H 0.47404 0.76784 0.09162 0.0
H1545 H 0.45135 0.76467 0.10575 0.0
H1546 H 0.48496 0.75259 0.11933 0.0
H1547 H 0.48499 0.70292 0.11495 0.0
H1548 H 0.30365 0.83544 0.09349 0.0
H1549 H 0.25345 0.78625 0.09758 0.0
H1550 H 0.30372 0.75082 0.12026 0.0
H1551 H 0.35408 0.7996 0.11585 0.0
H1552 H 0.26774 0.70856 0.10342 0.0
H1553 H 0.19466 0.75172 0.12758 0.0
H1554 H 0.20981 0.77141 0.11256 0.0
H1555 H 0.23712 0.7767 0.1253 0.0
C1556 C 0.30382 0.81735 0.09954 0.0
C1557 C 0.33266 0.82117 0.10433 0.0
C1558 C 0.27512 0.78936 0.10195 0.0
C1559 C 0.27471 0.76504 0.10941 0.0
C1560 C 0.30344 0.76932 0.11452 0.0
H1561 H 0.10101 0.58718 0.12929 0.0
H1562 H 0.14894 0.63994 0.13057 0.0
C1563 C 0.33217 0.79709 0.11197 0.0
C1564 C 0.24502 0.73391 0.11078 0.0
H1565 H 0.166 0.69887 0.11856 0.0
C1566 C 0.24563 0.70647 0.10689 0.0
C1567 C 0.21621 0.73107 0.11545 0.0
C1568 C 0.21446 0.75928 0.12059 0.0
C1569 C 0.21808 0.67645 0.10714 0.0
C1570 C 0.1889 0.67391 0.11103 0.0
C1571 C 0.18837 0.70106 0.11539 0.0
C1572 C 0.15867 0.64328 0.11025 0.0
C1573 C 0.22048 0.6477 0.10322 0.0
C1574 C 0.14793 0.62823 0.09836 0.0
C1575 C 0.1207 0.59826 0.0976 0.0
C1576 C 0.10352 0.58294 0.10871 0.0
C1577 C 0.11372 0.5985 0.12057 0.0
C1578 C 0.14106 0.62856 0.12132 0.0
H1579 H 0.24529 0.6522 0.10412 0.0
H1580 H 0.20453 0.62658 0.10912 0.0
H1581 H 0.21323 0.642 0.09306 0.0
H1582 H 0.16088 0.63956 0.08968 0.0
H1583 H 0.11319 0.58709 0.0883 0.0
H1584 H 0.23361 0.50441 0.07829 0.0
H1585 H 0.28933 0.5247 0.08459 0.0
H1586 H 0.26043 0.50343 0.12408 0.0
H1587 H 0.20453 0.48349 0.11778 0.0
H1588 H 0.33035 0.57357 0.1043 0.0
H1589 H 0.30413 0.44932 0.11352 0.0
H1590 H 0.27792 0.45773 0.10409 0.0
H1591 H 0.27924 0.46241 0.12114 0.0
C1592 C 0.23933 0.50455 0.08832 0.0
C1593 C 0.21508 0.49233 0.09757 0.0
C1594 C 0.27103 0.51619 0.09191 0.0
C1595 C 0.27884 0.5153 0.10477 0.0
C1596 C 0.25476 0.50417 0.11411 0.0
H1597 H 0.46584 0.54503 0.12914 0.0
H1598 H 0.41155 0.53665 0.13029 0.0
C1599 C 0.22301 0.49289 0.11052 0.0
C1600 C 0.31183 0.52367 0.10808 0.0
H1601 H 0.35765 0.48989 0.11457 0.0
C1602 C 0.33634 0.5554 0.10673 0.0
C1603 C 0.31946 0.49985 0.11126 0.0
C1604 C 0.29395 0.46533 0.11255 0.0
C1605 C 0.36847 0.56376 0.1081 0.0
C1606 C 0.37609 0.53967 0.11066 0.0
C1607 C 0.35157 0.50822 0.11259 0.0
C1608 C 0.40929 0.54606 0.1102 0.0
C1609 C 0.39413 0.59814 0.10659 0.0
C1610 C 0.42561 0.55355 0.09849 0.0
C1611 C 0.45619 0.55753 0.09774 0.0
C1612 C 0.47112 0.55445 0.10873 0.0
C1613 C 0.45482 0.54728 0.12049 0.0
C1614 C 0.42397 0.54275 0.1212 0.0
H1615 H 0.38446 0.61455 0.10776 0.0
H1616 H 0.41351 0.60456 0.11368 0.0
H1617 H 0.4047 0.60174 0.09688 0.0
H1618 H 0.41434 0.55554 0.08985 0.0
H1619 H 0.46777 0.5622 0.08849 0.0
H1620 H 0.97399 0.5579 0.91991 0.0
H1621 H 0.92454 0.55954 0.91784 0.0
H1622 H 0.87091 0.45668 0.91788 0.0
H1623 H 0.9206 0.45529 0.92054 0.0
H1624 H 0.87863 0.53908 0.90052 0.0
H1625 H 0.82704 0.47437 0.94607 0.0
H1626 H 0.86774 0.48786 0.94152 0.0
H1627 H 0.83568 0.45206 0.93465 0.0
C1628 C 0.95169 0.53574 0.9194 0.0
C1629 C 0.95099 0.50654 0.92043 0.0
C1630 C 0.92339 0.53662 0.91822 0.0
C1631 C 0.89386 0.50823 0.91792 0.0
C1632 C 0.89326 0.47892 0.91848 0.0
H1633 H 0.70674 0.49227 0.92677 0.0
H1634 H 0.74626 0.47951 0.91804 0.0
C1635 C 0.9216 0.4781 0.91996 0.0
C1636 C 0.8639 0.50969 0.91745 0.0
H1637 H 0.79573 0.48949 0.93416 0.0
C1638 C 0.86038 0.528 0.90782 0.0
C1639 C 0.83997 0.49517 0.92695 0.0
C1640 C 0.84284 0.47652 0.93795 0.0
C1641 C 0.8341 0.53292 0.90767 0.0
C1642 C 0.8108 0.51921 0.91739 0.0
C1643 C 0.81353 0.49974 0.92665 0.0
C1644 C 0.78571 0.52788 0.91928 0.0
C1645 C 0.83175 0.55318 0.89725 0.0
C1646 C 0.79462 0.55943 0.92243 0.0
C1647 C 0.77216 0.56664 0.9274 0.0
C1648 C 0.74049 0.54245 0.92923 0.0
C1649 C 0.73097 0.51133 0.92519 0.0
C1650 C 0.75351 0.50405 0.92028 0.0
H1651 H 0.84493 0.5532 0.88853 0.0
H1652 H 0.8065 0.54472 0.89466 0.0
H1653 H 0.84252 0.57813 0.90068 0.0
H1654 H 0.8194 0.57804 0.92204 0.0
H1655 H 0.78 0.59064 0.93071 0.0
H1656 H 0.55486 0.25193 0.94589 0.0
H1657 H 0.5655 0.30199 0.93617 0.0
H1658 H 0.49747 0.25021 0.90632 0.0
H1659 H 0.48569 0.19963 0.91644 0.0
H1660 H 0.58488 0.33281 0.91367 0.0
H1661 H 0.45787 0.29766 0.92273 0.0
H1662 H 0.47505 0.27461 0.92868 0.0
H1663 H 0.46454 0.27247 0.91207 0.0
C1664 C 0.54249 0.25119 0.93714 0.0
C1665 C 0.5189 0.22196 0.93209 0.0
C1666 C 0.5487 0.27983 0.93155 0.0
C1667 C 0.5316 0.27989 0.92072 0.0
C1668 C 0.51028 0.2507 0.91489 0.0
H1669 H 0.53437 0.45756 0.89846 0.0
H1670 H 0.52882 0.40466 0.89617 0.0
C1671 C 0.50386 0.22185 0.92057 0.0
C1672 C 0.53411 0.31044 0.91663 0.0
H1673 H 0.49236 0.35036 0.91664 0.0
C1674 C 0.56453 0.33649 0.91407 0.0
C1675 C 0.50754 0.31532 0.91723 0.0
C1676 C 0.47442 0.28868 0.92041 0.0
C1677 C 0.56929 0.36742 0.91273 0.0
C1678 C 0.54303 0.37237 0.91396 0.0
C1679 C 0.51237 0.34625 0.9157 0.0
C1680 C 0.54736 0.40472 0.91499 0.0
C1681 C 0.60251 0.39488 0.9105 0.0
C1682 C 0.55935 0.42199 0.92636 0.0
C1683 C 0.56165 0.45173 0.92785 0.0
C1684 C 0.55209 0.46479 0.91795 0.0
C1685 C 0.54093 0.44775 0.90642 0.0
C1686 C 0.53813 0.41772 0.90501 0.0
H1687 H 0.61915 0.38664 0.90735 0.0
H1688 H 0.6022 0.41137 0.90319 0.0
H1689 H 0.61175 0.40849 0.91954 0.0
H1690 H 0.56637 0.41214 0.93419 0.0
H1691 H 0.5705 0.46422 0.93684 0.0
H1692 H 0.58448 0.11724 0.93894 0.0
H1693 H 0.63788 0.1636 0.93701 0.0
H1694 H 0.63962 0.14404 0.89685 0.0
H1695 H 0.58583 0.09782 0.89859 0.0
H1696 H 0.69159 0.15277 0.92487 0.0
H1697 H 0.67032 0.24583 0.9032 0.0
H1698 H 0.64079 0.21482 0.9133 0.0
H1699 H 0.64831 0.20515 0.89762 0.0
C1700 C 0.59597 0.12306 0.92965 0.0
C1701 C 0.58124 0.10374 0.91894 0.0
C1702 C 0.62638 0.14949 0.92858 0.0
C1703 C 0.64228 0.15707 0.91679 0.0
C1704 C 0.62737 0.13852 0.90598 0.0
H1705 H 0.84792 0.2753 0.9116 0.0
H1706 H 0.79242 0.23798 0.90566 0.0
C1707 C 0.59689 0.11205 0.90703 0.0
C1708 C 0.67562 0.18265 0.9162 0.0
H1709 H 0.72338 0.26118 0.90887 0.0
C1710 C 0.69873 0.17642 0.92126 0.0
C1711 C 0.68434 0.21323 0.91152 0.0
C1712 C 0.65977 0.22048 0.9061 0.0
C1713 C 0.73062 0.20046 0.92207 0.0
C1714 C 0.73947 0.23128 0.9175 0.0
C1715 C 0.71637 0.2374 0.91225 0.0
C1716 C 0.7724 0.25763 0.91893 0.0
C1717 C 0.75435 0.19298 0.92826 0.0
C1718 C 0.7792 0.28189 0.92784 0.0
C1719 C 0.81078 0.30338 0.9311 0.0
C1720 C 0.8356 0.30048 0.92552 0.0
C1721 C 0.82887 0.27753 0.91604 0.0
C1722 C 0.79738 0.25639 0.91266 0.0
H1723 H 0.74245 0.16987 0.93344 0.0
H1724 H 0.7699 0.1916 0.92077 0.0
H1725 H 0.76978 0.21204 0.93511 0.0
H1726 H 0.76009 0.28305 0.93278 0.0
H1727 H 0.81575 0.32105 0.93845 0.0
H1728 H 0.25111 0.08709 0.44379 0.0
H1729 H 0.23934 0.12599 0.45391 0.0
H1730 H 0.15904 0.09666 0.42858 0.0
H1731 H 0.17063 0.05798 0.41859 0.0
H1732 H 0.24281 0.17514 0.43985 0.0
H1733 H 0.12329 0.10896 0.46182 0.0
H1734 H 0.14673 0.09034 0.45808 0.0
H1735 H 0.12305 0.09504 0.44589 0.0
C1736 C 0.23033 0.08828 0.44073 0.0
C1737 C 0.21186 0.0698 0.43038 0.0
C1738 C 0.22368 0.11051 0.44648 0.0
C1739 C 0.19815 0.11408 0.44208 0.0
C1740 C 0.17844 0.09396 0.43234 0.0
H1741 H 0.1619 0.26108 0.42461 0.0
H1742 H 0.17023 0.21542 0.4268 0.0
C1743 C 0.18522 0.07203 0.42655 0.0
C1744 C 0.19495 0.14182 0.446 0.0
H1745 H 0.13948 0.16269 0.45438 0.0
C1746 C 0.22049 0.17245 0.44337 0.0
C1747 C 0.16586 0.13839 0.45062 0.0
C1748 C 0.13831 0.10638 0.45439 0.0
C1749 C 0.21691 0.1994 0.44433 0.0
C1750 C 0.18711 0.19558 0.44797 0.0
C1751 C 0.16221 0.16537 0.45144 0.0
C1752 C 0.18078 0.22234 0.44703 0.0
C1753 C 0.24448 0.23172 0.44091 0.0
C1754 C 0.18375 0.24102 0.45774 0.0
C1755 C 0.17894 0.2671 0.45654 0.0
C1756 C 0.17121 0.27488 0.44459 0.0
C1757 C 0.16773 0.25568 0.43394 0.0
C1758 C 0.17254 0.22966 0.43516 0.0
H1759 H 0.2671 0.23132 0.43969 0.0
H1760 H 0.23909 0.24004 0.43184 0.0
H1761 H 0.24781 0.24922 0.44847 0.0
H1762 H 0.19013 0.23565 0.46697 0.0
H1763 H 0.18125 0.28114 0.46495 0.0
H1764 H 0.96706 0.18193 0.44425 0.0
H1765 H 0.92718 0.13109 0.4539 0.0
H1766 H 0.9542 0.08038 0.42734 0.0
H1767 H 0.99408 0.13072 0.41797 0.0
H1768 H 0.87674 0.08706 0.44095 0.0
H1769 H 0.94281 0.02982 0.45908 0.0
H1770 H 0.96234 0.07188 0.45548 0.0
H1771 H 0.95506 0.04324 0.44301 0.0
C1772 C 0.96518 0.15991 0.44085 0.0
C1773 C 0.98351 0.16011 0.43038 0.0
C1774 C 0.94232 0.13092 0.4463 0.0
C1775 C 0.93785 0.10185 0.44144 0.0
C1776 C 0.95761 0.10237 0.43149 0.0
H1777 H 0.79431 0.91684 0.42438 0.0
H1778 H 0.8406 0.97011 0.42693 0.0
C1779 C 0.98026 0.13117 0.42606 0.0
C1780 C 0.90997 0.07095 0.44532 0.0
H1781 H 0.88834 0.99352 0.45169 0.0
C1782 C 0.87928 0.06681 0.44367 0.0
C1783 C 0.91316 0.04446 0.44892 0.0
C1784 C 0.94517 0.04771 0.45185 0.0
C1785 C 0.85195 0.03653 0.44457 0.0
C1786 C 0.85547 0.00982 0.44711 0.0
C1787 C 0.88586 0.01411 0.44956 0.0
C1788 C 0.82815 0.97707 0.44606 0.0
C1789 C 0.81953 0.03282 0.4421 0.0
C1790 C 0.80615 0.96333 0.45607 0.0
C1791 C 0.77983 0.93269 0.45472 0.0
C1792 C 0.77479 0.91556 0.44324 0.0
C1793 C 0.7973 0.92935 0.43333 0.0
C1794 C 0.82376 0.95979 0.43475 0.0
H1795 H 0.82081 0.05601 0.44019 0.0
H1796 H 0.80824 0.01684 0.43377 0.0
H1797 H 0.80386 0.02152 0.45052 0.0
H1798 H 0.80929 0.97633 0.46489 0.0
H1799 H 0.76347 0.9225 0.46267 0.0
H1800 H 0.15244 0.93055 0.4508 0.0
H1801 H 0.09965 0.92531 0.45392 0.0
H1802 H 0.05513 0.82877 0.43979 0.0
H1803 H 0.10752 0.83418 0.43651 0.0
H1804 H 0.05421 0.91249 0.43583 0.0
H1805 H 1.00523 0.81751 0.47245 0.0
H1806 H 0.04735 0.84039 0.46886 0.0
H1807 H 0.02114 0.80698 0.459 0.0
C1808 C 0.13128 0.90823 0.44843 0.0
C1809 C 0.13384 0.8824 0.44375 0.0
C1810 C 0.10126 0.9052 0.45029 0.0
C1811 C 0.07351 0.87631 0.44749 0.0
C1812 C 0.07618 0.85082 0.44252 0.0
H1813 H 0.88655 0.79176 0.4257 0.0
H1814 H 0.93781 0.80629 0.4355 0.0
C1815 C 0.10608 0.85386 0.44068 0.0
C1816 C 0.04167 0.87331 0.44869 0.0
H1817 H 0.96647 0.82316 0.45969 0.0
C1818 C 0.03512 0.89353 0.44131 0.0
C1819 C 0.01699 0.84863 0.45591 0.0
C1820 C 0.02311 0.82736 0.46461 0.0
C1821 C 1.00392 0.88805 0.44007 0.0
C1822 C 0.9788 0.86199 0.44661 0.0
C1823 C 0.98577 0.84313 0.4547 0.0
C1824 C 0.94506 0.85077 0.4434 0.0
C1825 C 0.99781 0.90867 0.43099 0.0
C1826 C 0.93135 0.87016 0.4452 0.0
C1827 C 0.90193 0.86182 0.43956 0.0
C1828 C 0.88607 0.83402 0.43213 0.0
C1829 C 0.8985 0.81336 0.43136 0.0
C1830 C 0.92772 0.82164 0.43696 0.0
H1831 H 0.01931 0.92485 0.4253 0.0
H1832 H 0.9782 0.89369 0.42427 0.0
H1833 H 0.99052 0.92354 0.43653 0.0
H1834 H 0.9442 0.89252 0.45031 0.0
H1835 H 0.89276 0.87814 0.44023 0.0
H1836 H 0.36661 0.81101 0.24623 0.0
H1837 H 0.4166 0.81177 0.24143 0.0
H1838 H 0.46814 0.89582 0.2648 0.0
H1839 H 0.41838 0.89569 0.26929 0.0
H1840 H 0.50203 0.8975 0.24335 0.0
H1841 H 0.45451 0.78177 0.26881 0.0
H1842 H 0.43109 0.78085 0.25534 0.0
H1843 H 0.43448 0.80473 0.26909 0.0
C1844 C 0.38871 0.8298 0.25021 0.0
C1845 C 0.38872 0.85304 0.25826 0.0
C1846 C 0.41716 0.8302 0.24748 0.0
C1847 C 0.44589 0.85342 0.253 0.0
C1848 C 0.44618 0.87764 0.26048 0.0
H1849 H 0.60733 0.83719 0.27436 0.0
H1850 H 0.56048 0.84366 0.27281 0.0
C1851 C 0.4178 0.87752 0.26306 0.0
C1852 C 0.47511 0.85103 0.25193 0.0
H1853 H 0.50576 0.80337 0.25989 0.0
C1854 C 0.5029 0.87689 0.24689 0.0
C1855 C 0.47615 0.82424 0.25673 0.0
C1856 C 0.44758 0.79643 0.26291 0.0
C1857 C 0.53189 0.87678 0.24665 0.0
C1858 C 0.53277 0.8499 0.25141 0.0
C1859 C 0.50488 0.82389 0.25623 0.0
C1860 C 0.56259 0.84862 0.25219 0.0
C1861 C 0.5615 0.90576 0.24177 0.0
C1862 C 0.57927 0.84935 0.24109 0.0
C1863 C 0.60604 0.84562 0.24196 0.0
C1864 C 0.61633 0.84093 0.25392 0.0
C1865 C 0.59975 0.84049 0.26501 0.0
C1866 C 0.57312 0.84435 0.26414 0.0
H1867 H 0.55821 0.92684 0.24102 0.0
H1868 H 0.58212 0.9118 0.24814 0.0
H1869 H 0.5674 0.90065 0.2321 0.0
H1870 H 0.57112 0.85194 0.23176 0.0
H1871 H 0.61822 0.84566 0.23325 0.0
H1872 H 0.22084 0.80009 0.27464 0.0
H1873 H 0.2134 0.74634 0.27378 0.0
H1874 H 0.19983 0.74406 0.23292 0.0
H1875 H 0.20798 0.79826 0.23368 0.0
H1876 H 0.15519 0.68693 0.24598 0.0
H1877 H 0.28081 0.72683 0.25868 0.0
H1878 H 0.26126 0.73906 0.27008 0.0
H1879 H 0.26761 0.75425 0.25398 0.0
C1880 C 0.21648 0.78823 0.26546 0.0
C1881 C 0.2151 0.80334 0.25421 0.0
C1882 C 0.21212 0.75752 0.265 0.0
C1883 C 0.20641 0.74145 0.25327 0.0
C1884 C 0.20427 0.75615 0.24206 0.0
H1885 H 0.23396 0.5779 0.24793 0.0
H1886 H 0.23382 0.62721 0.24298 0.0
C1887 C 0.20882 0.787 0.24251 0.0
C1888 C 0.20365 0.70966 0.25277 0.0
H1889 H 0.2443 0.67097 0.25989 0.0
C1890 C 0.1747 0.68334 0.2489 0.0
C1891 C 0.22937 0.70527 0.25634 0.0
C1892 C 0.26162 0.7329 0.25987 0.0
C1893 C 0.17044 0.65242 0.24895 0.0
C1894 C 0.19565 0.64784 0.25322 0.0
C1895 C 0.22489 0.6744 0.25668 0.0
C1896 C 0.19236 0.61584 0.25458 0.0
C1897 C 0.13912 0.62512 0.24437 0.0
C1898 C 0.16867 0.59271 0.26252 0.0
C1899 C 0.16849 0.56433 0.26522 0.0
C1900 C 0.19242 0.55901 0.26024 0.0
C1901 C 0.21541 0.58162 0.25196 0.0
C1902 C 0.2153 0.60972 0.24911 0.0
H1903 H 0.12704 0.63343 0.23764 0.0
H1904 H 0.1425 0.60657 0.23955 0.0
H1905 H 0.12308 0.6141 0.25271 0.0
H1906 H 0.15123 0.5972 0.26713 0.0
H1907 H 0.15072 0.54736 0.27174 0.0
H1908 H 0.49006 0.66335 0.27118 0.0
H1909 H 0.43331 0.62674 0.26686 0.0
H1910 H 0.45772 0.56584 0.24537 0.0
H1911 H 0.51431 0.60216 0.24963 0.0
H1912 H 0.39381 0.59415 0.24297 0.0
H1913 H 0.40661 0.5152 0.27827 0.0
H1914 H 0.43549 0.55707 0.27685 0.0
H1915 H 0.43484 0.52924 0.26531 0.0
C1916 C 0.48334 0.64257 0.26526 0.0
C1917 C 0.50646 0.63518 0.26095 0.0
C1918 C 0.45098 0.62176 0.26279 0.0
C1919 C 0.44147 0.5935 0.25595 0.0
C1920 C 0.46468 0.58744 0.25077 0.0
H1921 H 0.25463 0.43629 0.23573 0.0
H1922 H 0.30868 0.48238 0.23503 0.0
C1923 C 0.49691 0.60806 0.25329 0.0
C1924 C 0.40762 0.56825 0.25573 0.0
H1925 H 0.35701 0.49451 0.26787 0.0
C1926 C 0.38563 0.57235 0.2484 0.0
C1927 C 0.39714 0.5401 0.26298 0.0
C1928 C 0.41961 0.53507 0.27139 0.0
C1929 C 0.35329 0.54854 0.24798 0.0
C1930 C 0.34306 0.52012 0.25503 0.0
C1931 C 0.36504 0.51632 0.26245 0.0
C1932 C 0.30957 0.49396 0.25509 0.0
C1933 C 0.33022 0.55402 0.2402 0.0
C1934 C 0.29247 0.48496 0.26663 0.0
C1935 C 0.26193 0.45837 0.26711 0.0
C1936 C 0.24799 0.44031 0.25604 0.0
C1937 C 0.26495 0.44963 0.24443 0.0
C1938 C 0.2956 0.47618 0.24398 0.0
H1939 H 0.34045 0.57947 0.2375 0.0
H1940 H 0.32422 0.53969 0.23129 0.0
H1941 H 0.30773 0.54626 0.24559 0.0
H1942 H 0.30304 0.49823 0.27534 0.0
H1943 H 0.24961 0.45152 0.27621 0.0
H1944 H 0.84711 0.61245 0.79844 0.0
H1945 H 0.85462 0.56603 0.79969 0.0
H1946 H 0.82652 0.54412 0.76018 0.0
H1947 H 0.81955 0.59061 0.75872 0.0
H1948 H 0.80778 0.49314 0.79003 0.0
H1949 H 0.9258 0.56775 0.76674 0.0
H1950 H 0.90469 0.58449 0.77494 0.0
H1951 H 0.89222 0.56776 0.75929 0.0
C1952 C 0.84233 0.5976 0.79005 0.0
C1953 C 0.83338 0.60547 0.77841 0.0
C1954 C 0.84625 0.57096 0.79084 0.0
C1955 C 0.84099 0.55184 0.78003 0.0
C1956 C 0.83047 0.55866 0.76862 0.0
H1957 H 0.8502 0.38556 0.75952 0.0
H1958 H 0.83111 0.42161 0.76629 0.0
C1959 C 0.82662 0.58526 0.76781 0.0
C1960 C 0.85023 0.52718 0.78009 0.0
H1961 H 0.90781 0.51278 0.76879 0.0
C1962 C 0.82976 0.49732 0.78553 0.0
C1963 C 0.879 0.53308 0.77428 0.0
C1964 C 0.90192 0.56505 0.76853 0.0
C1965 C 0.83713 0.4727 0.78498 0.0
C1966 C 0.86546 0.47833 0.77874 0.0
C1967 C 0.88617 0.50854 0.77362 0.0
C1968 C 0.87401 0.4533 0.7768 0.0
C1969 C 0.81463 0.44104 0.79104 0.0
C1970 C 0.90432 0.45908 0.78052 0.0
C1971 C 0.91546 0.439 0.77643 0.0
C1972 C 0.89638 0.41269 0.76864 0.0
C1973 C 0.86528 0.40573 0.76556 0.0
C1974 C 0.85426 0.4261 0.76952 0.0
H1975 H 0.79999 0.44357 0.79865 0.0
H1976 H 0.79814 0.42476 0.78363 0.0
H1977 H 0.8278 0.42987 0.79523 0.0
H1978 H 0.91993 0.48 0.78611 0.0
H1979 H 0.93934 0.44451 0.77907 0.0
H1980 H 0.62947 0.4783 0.74406 0.0
H1981 H 0.59439 0.42349 0.75131 0.0
H1982 H 0.61052 0.45534 0.79054 0.0
H1983 H 0.64607 0.51038 0.78331 0.0
H1984 H 0.60431 0.38259 0.77226 0.0
H1985 H 0.51069 0.41569 0.78111 0.0
H1986 H 0.54396 0.43892 0.77057 0.0
H1987 H 0.55018 0.44035 0.78752 0.0
C1988 C 0.62584 0.4735 0.75423 0.0
C1989 C 0.64001 0.49847 0.76314 0.0
C1990 C 0.60604 0.44225 0.75836 0.0
C1991 C 0.59983 0.43555 0.77143 0.0
C1992 C 0.61513 0.46017 0.78041 0.0
H1993 H 0.42904 0.25908 0.79493 0.0
H1994 H 0.47768 0.31094 0.79657 0.0
C1995 C 0.63533 0.49147 0.77628 0.0
C1996 C 0.57462 0.40346 0.77537 0.0
H1997 H 0.49491 0.36151 0.78179 0.0
C1998 C 0.58049 0.37792 0.77457 0.0
C1999 C 0.54373 0.39762 0.77848 0.0
C2000 C 0.53645 0.42445 0.77947 0.0
C2001 C 0.55579 0.34639 0.77635 0.0
C2002 C 0.52435 0.34037 0.77853 0.0
C2003 C 0.51896 0.36612 0.78003 0.0
C2004 C 0.49628 0.30776 0.77812 0.0
C2005 C 0.56358 0.31988 0.77574 0.0
C2006 C 0.49042 0.28883 0.76717 0.0
C2007 C 0.46259 0.25932 0.76616 0.0
C2008 C 0.43979 0.24828 0.77603 0.0
C2009 C 0.44589 0.26705 0.78708 0.0
C2010 C 0.47379 0.29661 0.78808 0.0
H2011 H 0.58857 0.32838 0.77877 0.0
H2012 H 0.54732 0.29947 0.7819 0.0
H2013 H 0.56111 0.31136 0.76572 0.0
H2014 H 0.50695 0.29729 0.7592 0.0
H2015 H 0.45869 0.24547 0.75752 0.0
H2016 H 0.56537 0.21357 0.7796 0.0
H2017 H 0.61343 0.21678 0.7891 0.0
H2018 H 0.60103 0.13856 0.76528 0.0
H2019 H 0.55304 0.13515 0.75598 0.0
H2020 H 0.62758 0.13954 0.78943 0.0
H2021 H 0.6895 0.25662 0.76432 0.0
H2022 H 0.66109 0.25223 0.77638 0.0
H2023 H 0.6477 0.22872 0.76203 0.0
C2024 C 0.57232 0.19631 0.77684 0.0
C2025 C 0.55583 0.17412 0.76712 0.0
C2026 C 0.59979 0.19828 0.78217 0.0
C2027 C 0.61101 0.17826 0.77771 0.0
C2028 C 0.59276 0.15421 0.76885 0.0
H2029 H 0.79295 0.20973 0.75787 0.0
H2030 H 0.73889 0.20093 0.7601 0.0
C2031 C 0.56542 0.15225 0.76354 0.0
C2032 C 0.6438 0.18513 0.78051 0.0
H2033 H 0.72134 0.23784 0.77309 0.0
C2034 C 0.64822 0.16123 0.78608 0.0
C2035 C 0.67052 0.21328 0.77589 0.0
C2036 C 0.66716 0.23914 0.76923 0.0
C2037 C 0.67862 0.1642 0.78671 0.0
C2038 C 0.70517 0.19206 0.78182 0.0
C2039 C 0.70087 0.21652 0.7768 0.0
C2040 C 0.73722 0.19546 0.7807 0.0
C2041 C 0.68177 0.13685 0.79194 0.0
C2042 C 0.75412 0.19511 0.79155 0.0
C2043 C 0.78498 0.19991 0.79027 0.0
C2044 C 0.79949 0.20556 0.77816 0.0
C2045 C 0.78248 0.20577 0.76733 0.0
C2046 C 0.75158 0.20065 0.76859 0.0
H2047 H 0.65829 0.11469 0.7928 0.0
H2048 H 0.69749 0.13198 0.78572 0.0
H2049 H 0.69267 0.14316 0.8016 0.0
H2050 H 0.74377 0.19181 0.801 0.0
H2051 H 0.79772 0.19986 0.79878 0.0
H2052 H 0.05522 0.17902 0.60255 0.0
H2053 H 0.09247 0.16089 0.59618 0.0
H2054 H 0.15312 0.2517 0.57823 0.0
H2055 H 0.11622 0.27 0.5846 0.0
H2056 H 0.12705 0.16203 0.57105 0.0
H2057 H 0.20198 0.24252 0.61025 0.0
H2058 H 0.15993 0.22902 0.60885 0.0
H2059 H 0.18807 0.25989 0.5985 0.0
C2060 C 0.0761 0.19477 0.59696 0.0
C2061 C 0.0833 0.22613 0.59428 0.0
C2062 C 0.09723 0.18436 0.5933 0.0
C2063 C 0.12554 0.20514 0.58686 0.0
C2064 C 0.1314 0.23547 0.58327 0.0
H2065 H 0.29378 0.19426 0.56628 0.0
H2066 H 0.24585 0.19925 0.56504 0.0
C2067 C 0.11051 0.24595 0.587 0.0
C2068 C 0.15124 0.19732 0.5857 0.0
H2069 H 0.22404 0.21733 0.59811 0.0
C2070 C 0.14831 0.17407 0.57692 0.0
C2071 C 0.17867 0.21293 0.59351 0.0
C2072 C 0.18243 0.23733 0.60339 0.0
C2073 C 0.17263 0.16635 0.57566 0.0
C2074 C 0.20013 0.1823 0.58338 0.0
C2075 C 0.20286 0.20534 0.59218 0.0
C2076 C 0.22622 0.17497 0.58297 0.0
C2077 C 0.1688 0.141 0.5663 0.0
C2078 C 0.23074 0.15957 0.59342 0.0
C2079 C 0.25816 0.15708 0.59425 0.0
C2080 C 0.28167 0.17022 0.58468 0.0
C2081 C 0.27637 0.1844 0.57391 0.0
C2082 C 0.24887 0.18693 0.5731 0.0
H2083 H 0.14486 0.12899 0.56175 0.0
H2084 H 0.18719 0.15193 0.55869 0.0
H2085 H 0.1726 0.12285 0.57124 0.0
H2086 H 0.21352 0.15044 0.60115 0.0
H2087 H 0.26131 0.14568 0.6026 0.0
H2088 H 0.82827 0.90042 0.61753 0.0
H2089 H 0.8481 0.95494 0.60992 0.0
H2090 H 0.849 0.92471 0.57118 0.0
H2091 H 0.82926 0.86988 0.57876 0.0
H2092 H 0.9081 0.99513 0.58935 0.0
H2093 H 0.78376 0.96492 0.57727 0.0
H2094 H 0.79069 0.94359 0.58987 0.0
H2095 H 0.7983 0.93796 0.57357 0.0
C2096 C 0.8329 0.90546 0.60741 0.0
C2097 C 0.82691 0.88102 0.5987 0.0
C2098 C 0.84442 0.93654 0.6031 0.0
C2099 C 0.84989 0.94358 0.59003 0.0
C2100 C 0.84499 0.91954 0.58132 0.0
H2101 H 0.8613 0.12273 0.56679 0.0
H2102 H 0.85763 0.07074 0.56444 0.0
C2103 C 0.83374 0.88839 0.58565 0.0
C2104 C 0.85801 0.97561 0.58561 0.0
H2105 H 0.82248 0.01919 0.57836 0.0
C2106 C 0.8896 1.00047 0.58666 0.0
C2107 C 0.8338 0.9822 0.58197 0.0
C2108 C 0.79964 0.95589 0.58055 0.0
C2109 C 0.89734 0.03223 0.58481 0.0
C2110 C 0.87261 0.03908 0.58229 0.0
C2111 C 0.84138 0.01394 0.58039 0.0
C2112 C 0.87775 0.07183 0.58306 0.0
C2113 C 0.93178 0.05811 0.58583 0.0
C2114 C 0.89002 0.08954 0.59434 0.0
C2115 C 0.892 0.1191 0.59573 0.0
C2116 C 0.88128 0.13132 0.58594 0.0
C2117 C 0.8694 0.11379 0.57457 0.0
C2118 C 0.8675 0.08419 0.57317 0.0
H2119 H 0.94798 0.04919 0.58284 0.0
H2120 H 0.93682 0.07909 0.57986 0.0
H2121 H 0.93731 0.06587 0.59595 0.0
H2122 H 0.89714 0.08006 0.60226 0.0
H2123 H 0.90123 0.13197 0.60462 0.0
H2124 H 0.1857 0.93512 0.58547 0.0
H2125 H 0.13121 0.89747 0.57873 0.0
H2126 H 0.09848 0.95737 0.59574 0.0
H2127 H 0.15325 0.99558 0.60216 0.0
H2128 H 0.086 0.86593 0.59569 0.0
H2129 H 0.04621 0.92999 0.56342 0.0
H2130 H 0.08769 0.94514 0.56732 0.0
H2131 H 0.06205 0.95081 0.57819 0.0
C2132 C 0.16692 0.9405 0.58752 0.0
C2133 C 0.17344 0.96794 0.59442 0.0
C2134 C 0.13589 0.91912 0.58363 0.0
C2135 C 0.11081 0.92468 0.58666 0.0
C2136 C 0.11753 0.95292 0.59303 0.0
H2137 H 0.9174 0.79042 0.60432 0.0
H2138 H 0.97107 0.83651 0.60257 0.0
C2139 C 0.14875 0.97459 0.59678 0.0
C2140 C 0.07746 0.89887 0.58486 0.0
H2141 H 1.00479 0.88145 0.57289 0.0
C2142 C 0.06842 0.86926 0.59053 0.0
C2143 C 0.05452 0.90323 0.57814 0.0
C2144 C 0.06317 0.93393 0.57131 0.0
C2145 C 0.03694 0.84418 0.58996 0.0
C2146 C 0.01385 0.84899 0.58372 0.0
C2147 C 0.02276 0.87817 0.57776 0.0
C2148 C 0.98016 0.82388 0.58382 0.0
C2149 C 0.02826 0.81275 0.5962 0.0
C2150 C 0.96766 0.80205 0.57372 0.0
C2151 C 0.93703 0.77569 0.57467 0.0
C2152 C 0.91872 0.77069 0.5858 0.0
C2153 C 0.93097 0.79344 0.59567 0.0
C2154 C 0.96152 0.81983 0.59468 0.0
H2155 H 0.04958 0.81195 0.59965 0.0
H2156 H 0.01225 0.80871 0.60447 0.0
H2157 H 0.01509 0.79291 0.58933 0.0
H2158 H 0.98196 0.80486 0.56531 0.0
H2159 H 0.92802 0.75895 0.5668 0.0
H2160 H 0.50551 0.06349 0.06443 0.0
H2161 H 0.5076 0.05837 0.04124 0.0
H2162 H 0.55221 1.00093 0.04653 0.0
H2163 H 0.54585 1.00259 0.06972 0.0
H2164 H 0.54459 0.07321 0.0239 0.0
H2165 H 0.48814 0.94194 0.02353 0.0
H2166 H 0.492 0.9636 0.03803 0.0
H2167 H 0.52491 0.95939 0.03217 0.0
C2168 C 0.51594 0.04995 0.06058 0.0
C2169 C 0.52544 0.03338 0.06881 0.0
C2170 C 0.51715 0.04694 0.04728 0.0
C2171 C 0.52903 0.0282 0.04187 0.0
C2172 C 0.54127 0.01406 0.05024 0.0
H2173 H 0.56606 0.05206 0.95932 0.0
H2174 H 0.57197 0.05305 0.98256 0.0
C2175 C 0.53852 0.01575 0.06355 0.0
C2176 C 0.52828 0.02361 0.02759 0.0
H2177 H 0.51033 0.96822 1.00387 0.0
C2178 C 0.53676 0.05007 0.01962 0.0
C2179 C 0.51763 0.99343 0.02171 0.0
C2180 C 0.50483 0.96298 0.02932 0.0
C2181 C 0.53462 0.04732 1.0062 0.0
C2182 C 0.52594 0.01762 1.00034 0.0
C2183 C 0.51756 0.99114 1.00826 0.0
C2184 C 0.52448 0.01346 0.98608 0.0
C2185 C 0.54028 0.07616 0.99856 0.0
C2186 C 0.49712 0.98884 0.9801 0.0
C2187 C 0.49444 0.98722 0.96668 0.0
C2188 C 0.51881 0.01053 0.95907 0.0
C2189 C 0.54691 0.03378 0.965 0.0
C2190 C 0.55001 0.03475 0.97832 0.0
H2191 H 0.53555 0.09258 1.00438 0.0
H2192 H 0.56562 0.08958 0.99551 0.0
H2193 H 0.52486 0.06928 0.98993 0.0
H2194 H 0.47712 0.97185 0.98579 0.0
H2195 H 0.47232 0.96941 0.96235 0.0
H2196 H 0.05505 0.4944 0.9664 0.0
H2197 H 0.05011 0.49872 0.98948 0.0
H2198 H 0.01502 0.56392 0.98306 0.0
H2199 H 0.01826 0.55794 0.95979 0.0
H2200 H 0.07519 0.54486 1.00628 0.0
H2201 H 0.94471 0.4993 1.00509 0.0
H2202 H 0.96653 0.4985 0.99122 0.0
H2203 H 0.96791 0.53493 0.99594 0.0
C2204 C 0.04652 0.50985 0.96994 0.0
C2205 C 0.03692 0.52572 0.96136 0.0
C2206 C 0.04371 0.51235 0.98315 0.0
C2207 C 0.03139 0.53102 0.98811 0.0
C2208 C 0.02368 0.5486 0.97952 0.0
H2209 H 0.04855 0.56549 0.07073 0.0
H2210 H 0.05039 0.573 0.04757 0.0
C2211 C 0.02615 0.54574 0.96623 0.0
C2212 C 0.02642 0.5313 1.00223 0.0
H2213 H 0.96972 0.51412 0.02531 0.0
C2214 C 0.05211 0.53823 1.01041 0.0
C2215 C 0.99623 0.52227 1.00772 0.0
C2216 C 0.96717 0.51303 0.99956 0.0
C2217 C 0.04854 0.53612 0.02379 0.0
C2218 C 0.01847 0.52757 0.0293 0.0
C2219 C 0.99278 0.52083 0.02114 0.0
C2220 C 0.01322 0.52476 0.04346 0.0
C2221 C 0.07706 0.54232 0.0318 0.0
C2222 C 0.98985 0.49596 0.04903 0.0
C2223 C 0.98797 0.49201 0.06239 0.0
C2224 C 0.00954 0.51675 0.07035 0.0
C2225 C 0.03138 0.54614 0.06481 0.0
C2226 C 0.03281 0.55028 0.05154 0.0
H2227 H 0.09406 0.53776 0.02629 0.0
H2228 H 0.08992 0.56771 0.03475 0.0
H2229 H 0.06996 0.52736 0.04054 0.0
H2230 H 0.97431 0.47593 0.04302 0.0
H2231 H 0.97148 0.46891 0.06641 0.0
H2232 H 0.53705 0.4891 0.96096 0.0
H2233 H 0.53222 0.48487 0.98418 0.0
H2234 H 0.50252 0.55533 0.98473 0.0
H2235 H 0.50752 0.55981 0.96122 0.0
H2236 H 0.56843 0.53676 1.00077 0.0
H2237 H 0.43831 0.48429 1.00915 0.0
H2238 H 0.45446 0.48176 0.99388 0.0
H2239 H 0.45662 0.51837 0.99872 0.0
C2240 C 0.52881 0.50326 0.96596 0.0
C2241 C 0.52262 0.5248 0.95922 0.0
C2242 C 0.52619 0.50088 0.97928 0.0
C2243 C 0.517 0.51971 0.98626 0.0
C2244 C 0.50927 0.54021 0.97955 0.0
H2245 H 0.50405 0.55262 0.06656 0.0
H2246 H 0.49887 0.54607 0.04351 0.0
C2247 C 0.51195 0.54267 0.96611 0.0
C2248 C 0.51789 0.51923 1.00056 0.0
H2249 H 0.4715 0.50027 0.02741 0.0
C2250 C 0.54722 0.5287 1.00661 0.0
C2251 C 0.49027 0.50871 1.00818 0.0
C2252 C 0.45802 0.49744 1.00221 0.0
C2253 C 0.54988 0.52874 0.02004 0.0
C2254 C 0.5222 0.51803 0.02774 0.0
C2255 C 0.49277 0.50828 0.02162 0.0
C2256 C 0.52355 0.51922 0.04209 0.0
C2257 C 0.58263 0.54146 0.02579 0.0
C2258 C 0.53821 0.50535 0.04929 0.0
C2259 C 0.54173 0.50955 0.06266 0.0
C2260 C 0.53026 0.52734 0.06909 0.0
C2261 C 0.51367 0.53916 0.06195 0.0
C2262 C 0.51056 0.53535 0.04869 0.0
H2263 H 0.60175 0.55682 0.01894 0.0
H2264 H 0.58542 0.55552 0.03456 0.0
H2265 H 0.58616 0.5212 0.02836 0.0
H2266 H 0.54754 0.49181 0.04456 0.0
H2267 H 0.55443 0.49996 0.06786 0.0
H2268 H 0.20998 0.4126 0.40231 0.0
H2269 H 0.21582 0.41303 0.37885 0.0
H2270 H 0.19723 0.31621 0.38008 0.0
H2271 H 0.19097 0.31555 0.40328 0.0
H2272 H 0.25431 0.39972 0.36155 0.0
H2273 H 0.1258 0.31009 0.35718 0.0
H2274 H 0.14328 0.33004 0.37206 0.0
H2275 H 0.14797 0.29725 0.36684 0.0
C2276 C 0.20808 0.39181 0.39757 0.0
C2277 C 0.19991 0.36402 0.40459 0.0
C2278 C 0.21113 0.39194 0.38418 0.0
C2279 C 0.20617 0.36435 0.37766 0.0
C2280 C 0.20039 0.3375 0.38482 0.0
H2281 H 0.17353 0.30875 0.29659 0.0
H2282 H 0.18327 0.30929 0.31972 0.0
C2283 C 0.19709 0.33727 0.3981 0.0
C2284 C 0.20532 0.36277 0.3634 0.0
H2285 H 0.15635 0.32349 0.33816 0.0
C2286 C 0.23289 0.38312 0.35642 0.0
C2287 C 0.17749 0.34077 0.35668 0.0
C2288 C 0.14686 0.31848 0.36355 0.0
C2289 C 0.2335 0.38189 0.34296 0.0
C2290 C 0.20541 0.36041 0.33621 0.0
C2291 C 0.17795 0.33986 0.34323 0.0
C2292 C 0.20313 0.36025 0.32192 0.0
C2293 C 0.26456 0.40319 0.33618 0.0
C2294 C 0.2114 0.3886 0.31534 0.0
C2295 C 0.20649 0.38836 0.30217 0.0
C2296 C 0.19218 0.35963 0.29521 0.0
C2297 C 0.18472 0.33127 0.30165 0.0
C2298 C 0.19007 0.33158 0.31489 0.0
H2299 H 0.28529 0.40836 0.34235 0.0
H2300 H 0.26661 0.39233 0.32713 0.0
H2301 H 0.266 0.42627 0.33394 0.0
H2302 H 0.22054 0.41091 0.32046 0.0
H2303 H 0.21265 0.41073 0.29754 0.0
H2304 H 0.73238 0.8975 0.40172 0.0
H2305 H 0.73321 0.90298 0.37852 0.0
H2306 H 0.63934 0.82011 0.37627 0.0
H2307 H 0.63874 0.81424 0.39971 0.0
H2308 H 0.68079 0.81578 0.36009 0.0
H2309 H 0.69189 0.93417 0.35347 0.0
H2310 H 0.72165 0.93562 0.36412 0.0
H2311 H 0.68018 0.91313 0.36853 0.0
C2312 C 0.71146 0.881 0.39632 0.0
C2313 C 0.68532 0.85563 0.40255 0.0
C2314 C 0.71194 0.88421 0.38302 0.0
C2315 C 0.68619 0.86227 0.37555 0.0
C2316 C 0.6594 0.83757 0.3818 0.0
H2317 H 0.6625 0.8656 0.2932 0.0
H2318 H 0.66056 0.87035 0.31646 0.0
C2319 C 0.65885 0.83441 0.39521 0.0
C2320 C 0.6888 0.8636 0.36127 0.0
H2321 H 0.7057 0.91295 0.33539 0.0
C2322 C 0.68613 0.83703 0.35472 0.0
C2323 C 0.69554 0.89119 0.35414 0.0
C2324 C 0.69717 0.92002 0.36041 0.0
C2325 C 0.69071 0.83753 0.34141 0.0
C2326 C 0.69855 0.86544 0.33434 0.0
C2327 C 0.70042 0.89177 0.3408 0.0
C2328 C 0.70266 0.86679 0.32012 0.0
C2329 C 0.68662 0.80793 0.33495 0.0
C2330 C 0.72778 0.86452 0.31432 0.0
C2331 C 0.72933 0.86248 0.30091 0.0
C2332 C 0.70557 0.86232 0.29314 0.0
C2333 C 0.68135 0.86604 0.29896 0.0
C2334 C 0.68011 0.86858 0.31226 0.0
H2335 H 0.67501 0.78673 0.3413 0.0
H2336 H 0.67204 0.80296 0.32614 0.0
H2337 H 0.71044 0.81174 0.3322 0.0
H2338 H 0.7456 0.86329 0.32017 0.0
H2339 H 0.74777 0.85887 0.29672 0.0
H2340 H 0.21131 0.82959 0.29419 0.0
H2341 H 0.20461 0.82092 0.31726 0.0
H2342 H 0.17054 0.88786 0.31983 0.0
H2343 H 0.1765 0.89595 0.29654 0.0
H2344 H 0.23593 0.86337 0.33529 0.0
H2345 H 0.10704 0.81832 0.34256 0.0
H2346 H 0.12394 0.82062 0.32692 0.0
H2347 H 0.12657 0.85559 0.33418 0.0
C2348 C 0.20163 0.8419 0.29963 0.0
C2349 C 0.19424 0.86334 0.29353 0.0
C2350 C 0.19796 0.83703 0.31286 0.0
C2351 C 0.18684 0.8535 0.3204 0.0
C2352 C 0.17845 0.87423 0.31427 0.0
H2353 H 0.17591 0.88836 0.40016 0.0
H2354 H 0.17128 0.88158 0.37714 0.0
C2355 C 0.18183 0.87887 0.30093 0.0
C2356 C 0.18647 0.85062 0.33469 0.0
H2357 H 0.13959 0.83486 0.36128 0.0
C2358 C 0.21474 0.85683 0.34096 0.0
C2359 C 0.15889 0.842 0.34217 0.0
C2360 C 0.12731 0.83344 0.33612 0.0
C2361 C 0.2166 0.85594 0.3544 0.0
C2362 C 0.18917 0.84791 0.36192 0.0
C2363 C 0.16068 0.84098 0.35561 0.0
C2364 C 0.19018 0.84945 0.37627 0.0
C2365 C 0.24841 0.86503 0.36039 0.0
C2366 C 0.20148 0.83287 0.38375 0.0
C2367 C 0.20469 0.83713 0.39713 0.0
C2368 C 0.19625 0.85773 0.40329 0.0
C2369 C 0.18312 0.87262 0.39582 0.0
C2370 C 0.18031 0.86868 0.38255 0.0
H2371 H 0.26845 0.87805 0.35357 0.0
H2372 H 0.25282 0.8802 0.36897 0.0
H2373 H 0.24854 0.84309 0.36337 0.0
H2374 H 0.2083 0.81702 0.37925 0.0
H2375 H 0.21459 0.82506 0.40256 0.0
H2376 H 0.87799 0.7432 0.73407 0.0
H2377 H 0.88276 0.7414 0.71059 0.0
H2378 H 0.85304 0.64151 0.71283 0.0
H2379 H 0.84833 0.64314 0.73601 0.0
H2380 H 0.91745 0.71822 0.69383 0.0
H2381 H 0.78574 0.64591 0.68944 0.0
H2382 H 0.80517 0.66575 0.7041 0.0
H2383 H 0.80349 0.62916 0.69965 0.0
C2384 C 0.8733 0.72114 0.72955 0.0
C2385 C 0.8626 0.69331 0.73689 0.0
C2386 C 0.87577 0.72003 0.71614 0.0
C2387 C 0.86759 0.69111 0.70992 0.0
C2388 C 0.85888 0.66391 0.71736 0.0
H2389 H 0.82693 0.63288 0.62898 0.0
H2390 H 0.83443 0.63205 0.65228 0.0
C2391 C 0.85636 0.66498 0.73064 0.0
C2392 C 0.86664 0.68862 0.69566 0.0
H2393 H 0.8156 0.65398 0.67049 0.0
C2394 C 0.8952 0.7043 0.6887 0.0
C2395 C 0.83769 0.66973 0.68897 0.0
C2396 C 0.80621 0.65183 0.69589 0.0
C2397 C 0.89564 0.70155 0.67528 0.0
C2398 C 0.86649 0.68372 0.6685 0.0
C2399 C 0.83799 0.66768 0.67554 0.0
C2400 C 0.86464 0.68324 0.65416 0.0
C2401 C 0.9276 0.71712 0.66863 0.0
C2402 C 0.87928 0.71199 0.64732 0.0
C2403 C 0.87574 0.71233 0.63409 0.0
C2404 C 0.85631 0.68405 0.62724 0.0
C2405 C 0.84214 0.65503 0.63394 0.0
C2406 C 0.84623 0.65464 0.64728 0.0
H2407 H 0.94638 0.71788 0.67498 0.0
H2408 H 0.92697 0.7044 0.6597 0.0
H2409 H 0.93464 0.74212 0.66624 0.0
H2410 H 0.89262 0.73454 0.65225 0.0
H2411 H 0.88719 0.73522 0.62929 0.0
H2412 H 0.33584 0.2069 0.62625 0.0
H2413 H 0.33415 0.21078 0.64951 0.0
H2414 H 0.40512 0.18188 0.65293 0.0
H2415 H 0.40864 0.18079 0.62956 0.0
H2416 H 0.31378 0.16879 0.66583 0.0
H2417 H 0.43964 0.24664 0.67943 0.0
H2418 H 0.42682 0.24192 0.66301 0.0
H2419 H 0.43534 0.21328 0.67042 0.0
C2420 C 0.35213 0.20282 0.632 0.0
C2421 C 0.37305 0.19446 0.62611 0.0
C2422 C 0.35082 0.20454 0.64534 0.0
C2423 C 0.3697 0.19696 0.65321 0.0
C2424 C 0.3911 0.1891 0.64726 0.0
H2425 H 0.30983 0.13128 0.73242 0.0
H2426 H 0.31313 0.13597 0.70907 0.0
C2427 C 0.3932 0.18848 0.63384 0.0
C2428 C 0.36505 0.19506 0.6675 0.0
H2429 H 0.40449 0.21454 0.69613 0.0
C2430 C 0.33374 0.17928 0.67242 0.0
C2431 C 0.39076 0.20889 0.6763 0.0
C2432 C 0.42496 0.22892 0.67201 0.0
C2433 C 0.32745 0.17696 0.68567 0.0
C2434 C 0.35318 0.1891 0.69448 0.0
C2435 C 0.3845 0.20489 0.68955 0.0
C2436 C 0.34856 0.18632 0.70878 0.0
C2437 C 0.29319 0.16245 0.68995 0.0
C2438 C 0.36754 0.21266 0.71667 0.0
C2439 C 0.36649 0.20954 0.73001 0.0
C2440 C 0.34564 0.18032 0.73589 0.0
C2441 C 0.32524 0.15439 0.72815 0.0
C2442 C 0.3272 0.15714 0.71473 0.0
H2443 H 0.27839 0.1654 0.68254 0.0
H2444 H 0.28312 0.13649 0.69146 0.0
H2445 H 0.29108 0.17336 0.69897 0.0
H2446 H 0.38416 0.23553 0.71252 0.0
H2447 H 0.38298 0.22975 0.73574 0.0
H2448 H 0.86343 0.15439 0.62868 0.0
H2449 H 0.85895 0.14932 0.65188 0.0
H2450 H 0.84454 0.23025 0.65382 0.0
H2451 H 0.84959 0.23573 0.63033 0.0
H2452 H 0.89105 0.23561 0.67037 0.0
H2453 H 0.78487 0.11615 0.67639 0.0
H2454 H 0.81401 0.11573 0.66589 0.0
H2455 H 0.79431 0.13751 0.6614 0.0
C2456 C 0.85848 0.17067 0.634 0.0
C2457 C 0.85657 0.19532 0.62765 0.0
C2458 C 0.85581 0.16765 0.64731 0.0
C2459 C 0.85095 0.18907 0.65469 0.0
C2460 C 0.84799 0.2132 0.64835 0.0
H2461 H 0.82081 0.18407 0.73704 0.0
H2462 H 0.81502 0.18017 0.71373 0.0
C2463 C 0.85052 0.21615 0.63492 0.0
C2464 C 0.85169 0.18764 0.669 0.0
H2465 H 0.81882 0.13773 0.69471 0.0
C2466 C 0.87505 0.21427 0.67567 0.0
C2467 C 0.8309 0.15981 0.67602 0.0
C2468 C 0.80441 0.13079 0.66957 0.0
C2469 C 0.87855 0.21364 0.68904 0.0
C2470 C 0.85851 0.18551 0.696 0.0
C2471 C 0.83464 0.15911 0.68938 0.0
C2472 C 0.86082 0.18388 0.71024 0.0
C2473 C 0.90361 0.24323 0.69564 0.0
C2474 C 0.88798 0.18595 0.71615 0.0
C2475 C 0.891 0.18739 0.72958 0.0
C2476 C 0.86711 0.18727 0.73729 0.0
C2477 C 0.83946 0.18386 0.73135 0.0
C2478 C 0.83619 0.18182 0.71801 0.0
H2479 H 0.91258 0.26465 0.68944 0.0
H2480 H 0.89401 0.24755 0.70461 0.0
H2481 H 0.92404 0.23987 0.69813 0.0
H2482 H 0.90726 0.18743 0.71037 0.0
H2483 H 0.91287 0.19078 0.73387 0.0
H2484 H 0.27924 0.87896 0.22128 0.0
H2485 H 0.31664 0.90152 0.20349 0.0
H2486 H 0.29449 0.97713 0.20006 0.0
H2487 H 0.25682 0.95449 0.21815 0.0
H2488 H 0.31026 0.91448 0.17826 0.0
H2489 H 0.39201 0.02626 0.20405 0.0
H2490 H 0.3605 0.99193 0.21207 0.0
H2491 H 0.35134 0.01741 0.20269 0.0
C2492 C 0.28182 0.90011 0.21661 0.0
C2493 C 0.26479 0.91478 0.2211 0.0
C2494 C 0.30342 0.91309 0.20643 0.0
C2495 C 0.30906 0.94145 0.20051 0.0
C2496 C 0.29109 0.95555 0.2046 0.0
H2497 H 0.45143 0.05483 0.14105 0.0
H2498 H 0.41191 0.03735 0.1585 0.0
C2499 C 0.26911 0.94231 0.21479 0.0
C2500 C 0.33409 0.95597 0.19024 0.0
H2501 H 0.40671 0.02091 0.18307 0.0
C2502 C 0.33125 0.93784 0.1793 0.0
C2503 C 0.36169 0.98643 0.19153 0.0
C2504 C 0.36689 0.00665 0.20324 0.0
C2505 C 0.35481 0.94923 0.16965 0.0
C2506 C 0.38286 0.97944 0.17105 0.0
C2507 C 0.38548 0.9978 0.18192 0.0
C2508 C 0.40969 0.99198 0.16144 0.0
C2509 C 0.34885 0.92882 0.15792 0.0
C2510 C 0.42315 0.97334 0.15765 0.0
C2511 C 0.44538 0.98318 0.14764 0.0
C2512 C 0.45576 0.01248 0.14141 0.0
C2513 C 0.4444 0.03244 0.14584 0.0
C2514 C 0.4215 0.02223 0.15573 0.0
H2515 H 0.32293 0.91248 0.15636 0.0
H2516 H 0.35898 0.94358 0.14919 0.0
H2517 H 0.36009 0.91386 0.15924 0.0
H2518 H 0.41567 0.95055 0.16215 0.0
H2519 H 0.45362 0.96723 0.14441 0.0
H2520 H 0.01267 0.46472 0.1522 0.0
H2521 H 0.03042 0.44578 0.17066 0.0
H2522 H 0.10438 0.44634 0.14742 0.0
H2523 H 0.08871 0.46683 0.12962 0.0
H2524 H 0.03465 0.39441 0.17575 0.0
H2525 H 0.15752 0.49568 0.17642 0.0
H2526 H 0.127 0.49595 0.16665 0.0
H2527 H 0.14914 0.47742 0.16095 0.0
C2528 C 0.03304 0.46132 0.15112 0.0
C2529 C 0.04942 0.46799 0.13937 0.0
C2530 C 0.04309 0.45028 0.16167 0.0
C2531 C 0.06948 0.44543 0.16062 0.0
C2532 C 0.08489 0.45103 0.14876 0.0
H2533 H 0.11472 0.33225 0.21527 0.0
H2534 H 0.09477 0.34796 0.19648 0.0
C2535 C 0.07553 0.46266 0.13845 0.0
C2536 C 0.08116 0.43418 0.17164 0.0
H2537 H 0.14954 0.44812 0.1868 0.0
C2538 C 0.05972 0.40639 0.1783 0.0
C2539 C 0.11384 0.44986 0.17515 0.0
C2540 C 0.13805 0.48155 0.1695 0.0
C2541 C 0.07007 0.3937 0.18816 0.0
C2542 C 0.10305 0.40837 0.19113 0.0
C2543 C 0.12433 0.43627 0.18448 0.0
C2544 C 0.11599 0.39769 0.20195 0.0
C2545 C 0.04535 0.3653 0.19554 0.0
C2546 C 0.13607 0.42039 0.21091 0.0
C2547 C 0.14829 0.41174 0.22122 0.0
C2548 C 0.14042 0.37981 0.22322 0.0
C2549 C 0.12123 0.35698 0.21406 0.0
C2550 C 0.10932 0.36591 0.20344 0.0
H2551 H 0.02121 0.36249 0.1945 0.0
H2552 H 0.04433 0.34338 0.19178 0.0
H2553 H 0.05136 0.36742 0.20587 0.0
H2554 H 0.14193 0.44504 0.21011 0.0
H2555 H 0.16335 0.43034 0.22789 0.0
H2556 H 0.62274 0.76817 0.2237 0.0
H2557 H 0.60706 0.73026 0.20608 0.0
H2558 H 0.7058 0.76021 0.1988 0.0
H2559 H 0.72183 0.79853 0.21666 0.0
H2560 H 0.66643 0.74999 0.17602 0.0
H2561 H 0.61123 0.64699 0.20924 0.0
H2562 H 0.59774 0.67521 0.21136 0.0
H2563 H 0.63867 0.68703 0.21456 0.0
C2564 C 0.64127 0.76714 0.21824 0.0
C2565 C 0.6736 0.78637 0.22164 0.0
C2566 C 0.63219 0.74518 0.20822 0.0
C2567 C 0.65512 0.74173 0.20129 0.0
C2568 C 0.68762 0.76222 0.2041 0.0
H2569 H 0.60851 0.58193 0.14769 0.0
H2570 H 0.63076 0.61916 0.16591 0.0
C2571 C 0.69681 0.78434 0.21422 0.0
C2572 C 0.64471 0.71625 0.19134 0.0
H2573 H 0.5995 0.63545 0.18705 0.0
C2574 C 0.65215 0.72495 0.17845 0.0
C2575 C 0.62611 0.68345 0.19447 0.0
C2576 C 0.61814 0.67247 0.20817 0.0
C2577 C 0.64056 0.70192 0.16863 0.0
C2578 C 0.62094 0.66924 0.17173 0.0
C2579 C 0.61446 0.66043 0.18464 0.0
C2580 C 0.60542 0.64437 0.16159 0.0
C2581 C 0.64909 0.71278 0.15495 0.0
C2582 C 0.58275 0.64516 0.1535 0.0
C2583 C 0.56988 0.62389 0.14327 0.0
C2584 C 0.57926 0.6011 0.14082 0.0
C2585 C 0.60057 0.59896 0.14937 0.0
C2586 C 0.6135 0.62043 0.15971 0.0
H2587 H 0.67033 0.73702 0.15434 0.0
H2588 H 0.65387 0.69599 0.14943 0.0
H2589 H 0.62876 0.7135 0.15036 0.0
H2590 H 0.57558 0.66289 0.15489 0.0
H2591 H 0.55333 0.62613 0.13696 0.0
H2592 H 0.9612 0.44423 0.88831 0.0
H2593 H 0.94527 0.40659 0.87051 0.0
H2594 H 0.04009 0.4197 0.86894 0.0
H2595 H 0.05646 0.45809 0.88681 0.0
H2596 H 0.97541 0.41489 0.84422 0.0
H2597 H 0.9748 0.31955 0.87415 0.0
H2598 H 0.9715 0.35203 0.88103 0.0
H2599 H 0.00914 0.35899 0.87496 0.0
C2600 C 0.97894 0.43963 0.88405 0.0
C2601 C 0.01025 0.45445 0.88898 0.0
C2602 C 0.96969 0.41793 0.87387 0.0
C2603 C 0.99126 0.40988 0.86841 0.0
C2604 C 0.02288 0.4253 0.87302 0.0
H2605 H 0.95408 0.25816 0.81209 0.0
H2606 H 0.97666 0.29792 0.82941 0.0
C2607 C 0.03236 0.44756 0.88314 0.0
C2608 C 0.9801 0.38483 0.85814 0.0
H2609 H 0.95913 0.30693 0.85266 0.0
C2610 C 0.97205 0.39135 0.84605 0.0
C2611 C 0.97559 0.35401 0.86045 0.0
C2612 C 0.98299 0.34538 0.87335 0.0
C2613 C 0.95997 0.36818 0.83623 0.0
C2614 C 0.95456 0.33694 0.83863 0.0
C2615 C 0.96305 0.33061 0.85071 0.0
C2616 C 0.93956 0.31057 0.82883 0.0
C2617 C 0.95379 0.37783 0.82329 0.0
C2618 C 0.91035 0.303 0.82306 0.0
C2619 C 0.89756 0.28043 0.81318 0.0
C2620 C 0.91312 0.26406 0.80892 0.0
C2621 C 0.94123 0.26995 0.81524 0.0
C2622 C 0.95432 0.29298 0.82508 0.0
H2623 H 0.96873 0.40395 0.82176 0.0
H2624 H 0.95868 0.36539 0.81543 0.0
H2625 H 0.92845 0.37171 0.82271 0.0
H2626 H 0.89764 0.31508 0.82599 0.0
H2627 H 0.87584 0.27649 0.80856 0.0
H2628 H 0.62159 0.54414 0.89088 0.0
H2629 H 0.65873 0.56608 0.87296 0.0
H2630 H 0.62532 0.63192 0.86514 0.0
H2631 H 0.58777 0.60987 0.88326 0.0
H2632 H 0.64864 0.57244 0.84637 0.0
H2633 H 0.72349 0.68999 0.86975 0.0
H2634 H 0.69488 0.65529 0.87855 0.0
H2635 H 0.68151 0.67621 0.86842 0.0
C2636 C 0.62171 0.56298 0.88524 0.0
C2637 C 0.60158 0.57518 0.88851 0.0
C2638 C 0.64311 0.57559 0.87499 0.0
C2639 C 0.64536 0.60107 0.86778 0.0
C2640 C 0.62443 0.61259 0.87067 0.0
H2641 H 0.78585 0.71544 0.80825 0.0
H2642 H 0.74596 0.69691 0.82552 0.0
C2643 C 0.60264 0.59968 0.88091 0.0
C2644 C 0.67008 0.61555 0.85746 0.0
H2645 H 0.74019 0.68256 0.84952 0.0
C2646 C 0.66857 0.59659 0.84702 0.0
C2647 C 0.69613 0.64709 0.85825 0.0
C2648 C 0.69944 0.66841 0.86936 0.0
C2649 C 0.69206 0.60821 0.83735 0.0
C2650 C 0.71885 0.63947 0.83833 0.0
C2651 C 0.72003 0.6586 0.84871 0.0
C2652 C 0.74573 0.65256 0.82875 0.0
C2653 C 0.68719 0.5869 0.82602 0.0
C2654 C 0.76046 0.63493 0.82515 0.0
C2655 C 0.78273 0.64526 0.81515 0.0
C2656 C 0.79205 0.67421 0.80883 0.0
C2657 C 0.77961 0.69334 0.81313 0.0
C2658 C 0.7565 0.68251 0.82292 0.0
H2659 H 0.6615 0.56946 0.82453 0.0
H2660 H 0.69682 0.60088 0.81708 0.0
H2661 H 0.69947 0.57309 0.82783 0.0
H2662 H 0.75395 0.61251 0.82979 0.0
H2663 H 0.79182 0.62996 0.81199 0.0
H2664 H 0.43547 0.16917 0.80335 0.0
H2665 H 0.45125 0.14742 0.8211 0.0
H2666 H 0.35247 0.08647 0.83119 0.0
H2667 H 0.33635 0.10854 0.81332 0.0
H2668 H 0.39194 0.11296 0.85254 0.0
H2669 H 0.44345 0.05981 0.82013 0.0
H2670 H 0.45976 0.10177 0.81764 0.0
H2671 H 0.41819 0.07482 0.81444 0.0
C2672 C 0.41699 0.15139 0.80941 0.0
C2673 C 0.38456 0.14048 0.80683 0.0
C2674 C 0.42611 0.13872 0.81951 0.0
C2675 C 0.4031 0.11455 0.82729 0.0
C2676 C 0.37071 0.10481 0.82523 0.0
H2677 H 0.44745 0.99949 0.88073 0.0
H2678 H 0.42648 0.01582 0.86249 0.0
C2679 C 0.36149 0.11762 0.81508 0.0
C2680 C 0.41316 0.09955 0.83744 0.0
H2681 H 0.45636 0.06184 0.84233 0.0
C2682 C 0.40574 0.10151 0.85028 0.0
C2683 C 0.43091 0.08419 0.83455 0.0
C2684 C 0.4383 0.07969 0.82093 0.0
C2685 C 0.41651 0.08969 0.86027 0.0
C2686 C 0.43557 0.07575 0.85742 0.0
C2687 C 0.44201 0.0727 0.84456 0.0
C2688 C 0.45017 0.06571 0.86774 0.0
C2689 C 0.4074 0.09231 0.87384 0.0
C2690 C 0.47155 0.08839 0.87641 0.0
C2691 C 0.48362 0.07921 0.88669 0.0
C2692 C 0.4748 0.04702 0.88862 0.0
C2693 C 0.45482 0.02444 0.87952 0.0
C2694 C 0.44265 0.03374 0.86915 0.0
H2695 H 0.38592 0.09503 0.87418 0.0
H2696 H 0.40269 0.07104 0.87954 0.0
H2697 H 0.42735 0.11363 0.87841 0.0
H2698 H 0.47847 0.11328 0.87538 0.0
H2699 H 0.49927 0.09741 0.89339 0.0
H2700 H 0.91805 0.27464 0.55057 0.0
H2701 H 0.95598 0.29676 0.53261 0.0
H2702 H 0.98936 0.231 0.54072 0.0
H2703 H 0.95202 0.20915 0.55852 0.0
H2704 H 0.03897 0.29227 0.53834 0.0
H2705 H 0.95612 0.26121 0.49716 0.0
H2706 H 0.95025 0.28292 0.50982 0.0
H2707 H 0.94301 0.24328 0.51274 0.0
C2708 C 0.93287 0.26436 0.54828 0.0
C2709 C 0.93184 0.24003 0.55597 0.0
C2710 C 0.95471 0.27713 0.53804 0.0
C2711 C 0.9757 0.26561 0.53526 0.0
C2712 C 0.9737 0.24052 0.54266 0.0
H2713 H 0.08819 0.28178 0.46926 0.0
H2714 H 0.05154 0.26687 0.48722 0.0
C2715 C 0.95208 0.22787 0.55281 0.0
C2716 C 1.00063 0.28008 0.52501 0.0
H2717 H 0.01118 0.29172 0.49267 0.0
C2718 C 0.03288 0.29239 0.52837 0.0
C2719 C 0.99283 0.27995 0.51195 0.0
C2720 C 0.95869 0.26592 0.50762 0.0
C2721 C 0.0573 0.30423 0.51907 0.0
C2722 C 0.04949 0.30419 0.50602 0.0
C2723 C 0.0173 0.29214 0.50267 0.0
C2724 C 0.07381 0.31395 0.49557 0.0
C2725 C 0.09117 0.31559 0.52321 0.0
C2726 C 0.09927 0.34547 0.49432 0.0
C2727 C 0.12061 0.35428 0.48391 0.0
C2728 C 0.11678 0.33171 0.47455 0.0
C2729 C 0.09194 0.29999 0.47618 0.0
C2730 C 0.07073 0.29134 0.48647 0.0
H2731 H 0.09249 0.30885 0.53326 0.0
H2732 H 0.10247 0.30559 0.51688 0.0
H2733 H 0.10521 0.34194 0.52245 0.0
H2734 H 0.10206 0.36348 0.50116 0.0
H2735 H 0.13923 0.37892 0.48292 0.0
H2736 H 0.68529 0.80225 0.48503 0.0
H2737 H 0.70427 0.78525 0.50366 0.0
H2738 H 0.77409 0.7797 0.47979 0.0
H2739 H 0.75771 0.79904 0.46183 0.0
H2740 H 0.70659 0.73513 0.51025 0.0
H2741 H 0.83222 0.82951 0.50706 0.0
H2742 H 0.80184 0.83058 0.49749 0.0
H2743 H 0.8209 0.8086 0.49217 0.0
C2744 C 0.70515 0.79813 0.48383 0.0
C2745 C 0.72016 0.80284 0.47184 0.0
C2746 C 0.71589 0.78812 0.4945 0.0
C2747 C 0.74154 0.7821 0.49335 0.0
C2748 C 0.75544 0.78556 0.48126 0.0
H2749 H 0.78199 0.66656 0.54804 0.0
H2750 H 0.76242 0.68402 0.52972 0.0
C2751 C 0.74558 0.79643 0.47084 0.0
C2752 C 0.75362 0.7714 0.50448 0.0
H2753 H 0.82243 0.78221 0.51835 0.0
C2754 C 0.73192 0.74572 0.51211 0.0
C2755 C 0.78669 0.78538 0.50723 0.0
C2756 C 0.81162 0.81526 0.50063 0.0
C2757 C 0.74231 0.73327 0.52206 0.0
C2758 C 0.77546 0.74576 0.52413 0.0
C2759 C 0.79704 0.77186 0.51667 0.0
C2760 C 0.78853 0.73423 0.53462 0.0
C2761 C 0.71752 0.70753 0.53048 0.0
C2762 C 0.81127 0.75648 0.54308 0.0
C2763 C 0.82314 0.74667 0.5532 0.0
C2764 C 0.81248 0.71414 0.55539 0.0
C2765 C 0.79083 0.69175 0.54663 0.0
C2766 C 0.77912 0.70174 0.53629 0.0
H2767 H 0.69449 0.7074 0.53014 0.0
H2768 H 0.71311 0.68397 0.52708 0.0
H2769 H 0.72561 0.71062 0.54059 0.0
H2770 H 0.81933 0.78166 0.54209 0.0
H2771 H 0.83998 0.76475 0.55965 0.0
H2772 H 0.27894 0.91893 0.47922 0.0
H2773 H 0.30053 0.95669 0.49727 0.0
H2774 H 0.22808 0.98246 0.4914 0.0
H2775 H 0.20684 0.94533 0.4734 0.0
H2776 H 0.32138 0.02764 0.49467 0.0
H2777 H 0.22655 0.96338 0.531 0.0
H2778 H 0.23354 0.94306 0.51796 0.0
H2779 H 0.21352 0.96525 0.51506 0.0
C2780 C 0.26706 0.93192 0.48206 0.0
C2781 C 0.24085 0.92875 0.475 0.0
C2782 C 0.27966 0.95381 0.49226 0.0
C2783 C 0.26589 0.97242 0.49575 0.0
C2784 C 0.239 0.96827 0.489 0.0
H2785 H 0.29049 0.10977 0.5544 0.0
H2786 H 0.27327 0.07206 0.53661 0.0
C2787 C 0.22676 0.94688 0.47874 0.0
C2788 C 0.28014 0.99722 0.50601 0.0
H2789 H 0.26499 0.01668 0.53563 0.0
C2790 C 0.30926 0.0252 0.5037 0.0
C2791 C 0.2641 0.99433 0.51768 0.0
C2792 C 0.23277 0.96485 0.52069 0.0
C2793 C 0.3223 0.05066 0.51255 0.0
C2794 C 0.3064 0.04772 0.52435 0.0
C2795 C 0.27743 0.01936 0.52667 0.0
C2796 C 0.31862 0.07372 0.53431 0.0
C2797 C 0.3522 0.08092 0.50884 0.0
C2798 C 0.35024 0.08836 0.53893 0.0
C2799 C 0.36049 0.11103 0.54886 0.0
C2800 C 0.33906 0.11882 0.5547 0.0
C2801 C 0.30769 0.10458 0.54999 0.0
C2802 C 0.29772 0.08267 0.53988 0.0
H2803 H 0.35512 0.08326 0.49828 0.0
H2804 H 0.35206 0.1023 0.5126 0.0
H2805 H 0.37323 0.0804 0.51279 0.0
H2806 H 0.36676 0.08137 0.53524 0.0
H2807 H 0.3845 0.12082 0.55255 0.0
H2808 H 0.48285 0.33483 0.11586 0.0
H2809 H 0.4723 0.28105 0.11023 0.0
H2810 H 0.57319 0.31756 0.10534 0.0
H2811 H 0.5837 0.37099 0.11113 0.0
H2812 H 0.48867 0.25148 0.08951 0.0
H2813 H 0.54784 0.25408 0.13538 0.0
H2814 H 0.53596 0.28299 0.13148 0.0
H2815 H 0.57185 0.28655 0.12478 0.0
C2816 C 0.50258 0.3315 0.11306 0.0
C2817 C 0.53405 0.35703 0.11377 0.0
C2818 C 0.49659 0.30077 0.10996 0.0
C2819 C 0.52201 0.29518 0.10761 0.0
C2820 C 0.55324 0.32121 0.1073 0.0
H2821 H 0.5457 0.13107 0.09717 0.0
H2822 H 0.55091 0.18388 0.09789 0.0
C2823 C 0.55922 0.35179 0.11044 0.0
C2824 C 0.51641 0.26206 0.10677 0.0
H2825 H 0.53374 0.20977 0.12185 0.0
C2826 C 0.49835 0.24228 0.09661 0.0
C2827 C 0.52887 0.24995 0.1161 0.0
C2828 C 0.54696 0.26933 0.12763 0.0
C2829 C 0.49317 0.21105 0.09538 0.0
C2830 C 0.50614 0.19931 0.10459 0.0
C2831 C 0.5239 0.21892 0.11479 0.0
C2832 C 0.50215 0.16691 0.1037 0.0
C2833 C 0.47454 0.19092 0.08412 0.0
C2834 C 0.47304 0.13982 0.10688 0.0
C2835 C 0.47004 0.10948 0.10665 0.0
C2836 C 0.49596 0.10564 0.10307 0.0
C2837 C 0.52507 0.13296 0.09988 0.0
C2838 C 0.52815 0.16324 0.10026 0.0
H2839 H 0.46865 0.2045 0.07714 0.0
H2840 H 0.48838 0.18141 0.07917 0.0
H2841 H 0.45199 0.17024 0.08757 0.0
H2842 H 0.45281 0.14223 0.10976 0.0
H2843 H 0.44759 0.08918 0.10944 0.0
H2844 H 0.68273 0.20733 0.1008 0.0
H2845 H 0.73617 0.2467 0.09298 0.0
H2846 H 0.77727 0.23881 0.12844 0.0
H2847 H 0.72427 0.19967 0.13618 0.0
H2848 H 0.77413 0.30481 0.10457 0.0
H2849 H 0.83957 0.23841 0.10235 0.0
H2850 H 0.79654 0.21871 0.10294 0.0
H2851 H 0.81963 0.23309 0.1174 0.0
C2852 C 0.70335 0.21329 0.10672 0.0
C2853 C 0.69941 0.20034 0.11907 0.0
C2854 C 0.73382 0.23592 0.1023 0.0
C2855 C 0.76089 0.24552 0.11006 0.0
C2856 C 0.757 0.2314 0.12215 0.0
H2857 H 0.92888 0.42269 0.12124 0.0
H2858 H 0.87676 0.37493 0.12055 0.0
C2859 C 0.72665 0.2091 0.12659 0.0
C2860 C 0.79262 0.27268 0.10628 0.0
H2861 H 0.87184 0.29563 0.1043 0.0
C2862 C 0.79539 0.30264 0.10427 0.0
C2863 C 0.82045 0.26997 0.10576 0.0
C2864 C 0.81891 0.23823 0.1071 0.0
C2865 C 0.82528 0.33012 0.10248 0.0
C2866 C 0.85331 0.32775 0.10287 0.0
C2867 C 0.85044 0.29755 0.10413 0.0
C2868 C 0.88566 0.3566 0.10309 0.0
C2869 C 0.82659 0.3616 0.10042 0.0
C2870 C 0.90863 0.36192 0.09369 0.0
C2871 C 0.93892 0.38947 0.09406 0.0
C2872 C 0.94684 0.41191 0.10397 0.0
C2873 C 0.92382 0.40607 0.11344 0.0
C2874 C 0.89376 0.37878 0.11303 0.0
H2875 H 0.80389 0.3582 0.09633 0.0
H2876 H 0.83039 0.3739 0.10976 0.0
H2877 H 0.84649 0.37727 0.09392 0.0
H2878 H 0.903 0.34498 0.08598 0.0
H2879 H 0.95597 0.39321 0.0866 0.0
H2880 H 0.63568 0.54499 0.1239 0.0
H2881 H 0.6831 0.53967 0.12323 0.0
H2882 H 0.6946 0.56316 0.08304 0.0
H2883 H 0.64692 0.56887 0.08367 0.0
H2884 H 0.69223 0.49766 0.1092 0.0
H2885 H 0.78408 0.62186 0.09681 0.0
H2886 H 0.74456 0.61155 0.10216 0.0
H2887 H 0.75076 0.60288 0.08605 0.0
C2888 C 0.6483 0.54923 0.1149 0.0
C2889 C 0.63751 0.55747 0.10384 0.0
C2890 C 0.67549 0.54617 0.11454 0.0
C2891 C 0.69264 0.55124 0.10313 0.0
C2892 C 0.68213 0.5597 0.09203 0.0
H2893 H 0.83207 0.48404 0.10189 0.0
H2894 H 0.79108 0.49614 0.09428 0.0
C2895 C 0.65484 0.5629 0.09239 0.0
C2896 C 0.72068 0.5463 0.10298 0.0
H2897 H 0.80179 0.58472 0.09947 0.0
C2898 C 0.71614 0.5166 0.10693 0.0
C2899 C 0.7519 0.5711 0.10009 0.0
C2900 C 0.75835 0.60375 0.09613 0.0
C2901 C 0.74194 0.51124 0.10844 0.0
C2902 C 0.77323 0.53608 0.10568 0.0
C2903 C 0.77776 0.5656 0.10143 0.0
C2904 C 0.80153 0.53264 0.10848 0.0
C2905 C 0.73565 0.47947 0.11358 0.0
C2906 C 0.82197 0.55018 0.11855 0.0
C2907 C 0.8453 0.54336 0.12284 0.0
C2908 C 0.84893 0.51918 0.11704 0.0
C2909 C 0.83001 0.5031 0.10639 0.0
C2910 C 0.80644 0.5098 0.10213 0.0
H2911 H 0.71101 0.465 0.11736 0.0
H2912 H 0.73891 0.46579 0.10578 0.0
H2913 H 0.75273 0.48288 0.12134 0.0
H2914 H 0.81861 0.56784 0.1236 0.0
H2915 H 0.8594 0.5558 0.13116 0.0
H2916 H 0.33289 0.47931 0.9083 0.0
H2917 H 0.27825 0.46668 0.91366 0.0
H2918 H 0.31406 0.56357 0.9261 0.0
H2919 H 0.36844 0.57623 0.92059 0.0
H2920 H 0.24528 0.47357 0.9358 0.0
H2921 H 0.25576 0.55265 0.89538 0.0
H2922 H 0.28393 0.53902 0.89788 0.0
H2923 H 0.28631 0.5712 0.90732 0.0
C2924 C 0.32913 0.49748 0.91267 0.0
C2925 C 0.35483 0.52861 0.91421 0.0
C2926 C 0.29793 0.49035 0.91563 0.0
C2927 C 0.29199 0.51433 0.92007 0.0
C2928 C 0.318 0.54479 0.92253 0.0
H2929 H 0.12844 0.53875 0.93011 0.0
H2930 H 0.18089 0.54332 0.92897 0.0
C2931 C 0.34909 0.55193 0.91954 0.0
C2932 C 0.25876 0.50857 0.92087 0.0
H2933 H 0.2091 0.53247 0.90799 0.0
C2934 C 0.23728 0.4863 0.92969 0.0
C2935 C 0.24824 0.52505 0.91283 0.0
C2936 C 0.26961 0.54811 0.90273 0.0
C2937 C 0.2059 0.48085 0.93094 0.0
C2938 C 0.19558 0.49766 0.923 0.0
C2939 C 0.21699 0.5196 0.91409 0.0
C2940 C 0.16314 0.49391 0.92402 0.0
C2941 C 0.18433 0.4579 0.94101 0.0
C2942 C 0.1355 0.46462 0.92146 0.0
C2943 C 0.10523 0.46191 0.92204 0.0
C2944 C 0.10208 0.48846 0.92521 0.0
C2945 C 0.12986 0.51773 0.92769 0.0
C2946 C 0.15997 0.52043 0.92705 0.0
H2947 H 0.19788 0.45237 0.94816 0.0
H2948 H 0.17094 0.46773 0.94609 0.0
H2949 H 0.16675 0.43528 0.93635 0.0
H2950 H 0.13736 0.44396 0.91883 0.0
H2951 H 0.08439 0.43912 0.91998 0.0
H2952 H 0.47893 0.81993 0.92508 0.0
H2953 H 0.49064 0.77838 0.93211 0.0
H2954 H 0.5779 0.82303 0.91023 0.0
H2955 H 0.56629 0.86459 0.90336 0.0
H2956 H 0.49452 0.73694 0.9159 0.0
H2957 H 0.60801 0.80073 0.9427 0.0
H2958 H 0.58365 0.81848 0.93927 0.0
H2959 H 0.61017 0.818 0.92728 0.0
C2960 C 0.50126 0.82154 0.92226 0.0
C2961 C 0.52216 0.8459 0.91398 0.0
C2962 C 0.5078 0.79764 0.92615 0.0
C2963 C 0.53541 0.79766 0.92186 0.0
C2964 C 0.55691 0.8228 0.91398 0.0
H2965 H 0.56728 0.64276 0.90534 0.0
H2966 H 0.56199 0.69043 0.90603 0.0
C2967 C 0.55033 0.84663 0.91007 0.0
C2968 C 0.53989 0.76973 0.92434 0.0
H2969 H 0.59356 0.74834 0.93504 0.0
C2970 C 0.51601 0.73946 0.92026 0.0
C2971 C 0.56786 0.77276 0.93006 0.0
C2972 C 0.59375 0.8042 0.9352 0.0
C2973 C 0.51984 0.71259 0.92128 0.0
C2974 C 0.54835 0.71593 0.92647 0.0
C2975 C 0.57178 0.74585 0.931 0.0
C2976 C 0.55469 0.68883 0.92649 0.0
C2977 C 0.49352 0.68072 0.91664 0.0
C2978 C 0.55352 0.67274 0.93786 0.0
C2979 C 0.55692 0.64553 0.93751 0.0
C2980 C 0.56117 0.63395 0.92576 0.0
C2981 C 0.56355 0.65088 0.91451 0.0
C2982 C 0.56055 0.67812 0.91488 0.0
H2983 H 0.47108 0.68102 0.91473 0.0
H2984 H 0.50111 0.67422 0.90764 0.0
H2985 H 0.48866 0.66191 0.92382 0.0
H2986 H 0.54901 0.68062 0.94692 0.0
H2987 H 0.55487 0.63284 0.94631 0.0
H2988 H 0.4355 0.9246 0.91064 0.0
H2989 H 0.38844 0.87175 0.91022 0.0
H2990 H 0.3464 0.8985 0.94074 0.0
H2991 H 0.39417 0.95165 0.94148 0.0
H2992 H 0.33663 0.8339 0.94244 0.0
H2993 H 0.30497 0.86088 0.89485 0.0
H2994 H 0.34477 0.86712 0.89575 0.0
H2995 H 0.33401 0.89142 0.9052 0.0
C2996 C 0.41638 0.91934 0.91734 0.0
C2997 C 0.41828 0.94268 0.9259 0.0
C2998 C 0.38948 0.88904 0.91707 0.0
C2999 C 0.36367 0.88143 0.92525 0.0
C3000 C 0.36602 0.90402 0.93428 0.0
H3001 H 0.17482 0.72834 0.90602 0.0
H3002 H 0.2201 0.77867 0.91314 0.0
C3003 C 0.39323 0.93444 0.93464 0.0
C3004 C 0.33369 0.85059 0.92368 0.0
H3005 H 0.27604 0.80711 0.90171 0.0
C3006 C 0.32314 0.82803 0.93359 0.0
C3007 C 0.31602 0.84317 0.91218 0.0
C3008 C 0.32529 0.867 0.90142 0.0
C3009 C 0.29567 0.79787 0.93216 0.0
C3010 C 0.27868 0.79004 0.92045 0.0
C3011 C 0.28905 0.81295 0.91067 0.0
C3012 C 0.24989 0.7585 0.91797 0.0
C3013 C 0.28494 0.77489 0.94324 0.0
C3014 C 0.25117 0.73013 0.91857 0.0
C3015 C 0.22505 0.70116 0.9146 0.0
C3016 C 0.19749 0.70022 0.90975 0.0
C3017 C 0.19589 0.72841 0.9096 0.0
C3018 C 0.22173 0.75717 0.91369 0.0
H3019 H 0.29452 0.78746 0.95248 0.0
H3020 H 0.25852 0.76095 0.94386 0.0
H3021 H 0.29392 0.758 0.94187 0.0
H3022 H 0.27282 0.73057 0.92156 0.0
H3023 H 0.22702 0.67983 0.91472 0.0
H3024 H 0.24475 0.70161 0.43577 0.0
H3025 H 0.23172 0.6477 0.42934 0.0
H3026 H 0.14403 0.60866 0.45087 0.0
H3027 H 0.15691 0.66266 0.45707 0.0
H3028 H 0.22758 0.60464 0.44605 0.0
H3029 H 0.11379 0.55285 0.41942 0.0
H3030 H 0.13815 0.59513 0.42227 0.0
H3031 H 0.11159 0.56936 0.43451 0.0
C3032 C 0.22207 0.68154 0.43864 0.0
C3033 C 0.20147 0.68618 0.44666 0.0
C3034 C 0.21474 0.65073 0.43507 0.0
C3035 C 0.1867 0.62397 0.43949 0.0
C3036 C 0.16538 0.6288 0.44704 0.0
H3037 H 0.16663 0.44268 0.45865 0.0
H3038 H 0.17201 0.49539 0.45769 0.0
C3039 C 0.1727 0.65965 0.45059 0.0
C3040 C 0.18193 0.59131 0.43765 0.0
H3041 H 0.12806 0.51554 0.42808 0.0
C3042 C 0.20596 0.58531 0.44196 0.0
C3043 C 0.1539 0.56599 0.43221 0.0
C3044 C 0.12803 0.57119 0.42672 0.0
C3045 C 0.20234 0.55471 0.44138 0.0
C3046 C 0.17354 0.529 0.43664 0.0
C3047 C 0.14996 0.53512 0.43187 0.0
C3048 C 0.16724 0.49559 0.43711 0.0
C3049 C 0.22955 0.55028 0.44587 0.0
C3050 C 0.16104 0.47726 0.42592 0.0
C3051 C 0.15753 0.44667 0.42645 0.0
C3052 C 0.16019 0.43399 0.4382 0.0
C3053 C 0.16501 0.45191 0.44941 0.0
C3054 C 0.16822 0.48217 0.44888 0.0
H3055 H 0.25272 0.57292 0.44536 0.0
H3056 H 0.2255 0.54241 0.45601 0.0
H3057 H 0.23136 0.53199 0.44009 0.0
H3058 H 0.15987 0.48698 0.41673 0.0
H3059 H 0.15378 0.43344 0.41765 0.0
H3060 H 0.61815 0.73348 0.45577 0.0
H3061 H 0.5658 0.68536 0.45571 0.0
H3062 H 0.55386 0.70134 0.41595 0.0
H3063 H 0.60743 0.7486 0.41584 0.0
H3064 H 0.51166 0.68111 0.45316 0.0
H3065 H 0.52057 0.60866 0.41402 0.0
H3066 H 0.55506 0.64374 0.42017 0.0
H3067 H 0.52904 0.64737 0.40881 0.0
C3068 C 0.60456 0.72636 0.44695 0.0
C3069 C 0.61678 0.74471 0.43581 0.0
C3070 C 0.57455 0.69884 0.44692 0.0
C3071 C 0.55562 0.68925 0.43581 0.0
C3072 C 0.56809 0.70744 0.42457 0.0
H3073 H 0.3495 0.57017 0.44269 0.0
H3074 H 0.40321 0.61133 0.43621 0.0
C3075 C 0.59865 0.73462 0.42452 0.0
C3076 C 0.52216 0.66176 0.43647 0.0
H3077 H 0.46857 0.5907 0.4226 0.0
C3078 C 0.50246 0.66136 0.44647 0.0
C3079 C 0.5098 0.63571 0.42781 0.0
C3080 C 0.52981 0.63367 0.41718 0.0
C3081 C 0.47121 0.63593 0.44809 0.0
C3082 C 0.45864 0.61033 0.43928 0.0
C3083 C 0.47813 0.61049 0.42928 0.0
C3084 C 0.42539 0.58319 0.44063 0.0
C3085 C 0.45203 0.63633 0.45942 0.0
C3086 C 0.41966 0.55305 0.44462 0.0
C3087 C 0.3888 0.52931 0.44818 0.0
C3088 C 0.36323 0.53534 0.44773 0.0
C3089 C 0.3687 0.56474 0.44291 0.0
C3090 C 0.39941 0.58835 0.43932 0.0
H3091 H 0.46723 0.65426 0.46669 0.0
H3092 H 0.43384 0.64231 0.45612 0.0
H3093 H 0.4394 0.61254 0.46406 0.0
H3094 H 0.43936 0.54858 0.44576 0.0
H3095 H 0.38535 0.50713 0.45215 0.0
H3096 H 0.5509 0.91937 0.43956 0.0
H3097 H 0.50093 0.91819 0.43457 0.0
H3098 H 0.44784 0.81999 0.4465 0.0
H3099 H 0.49816 0.82102 0.45147 0.0
H3100 H 0.42203 0.83771 0.42379 0.0
H3101 H 0.44665 0.91657 0.46595 0.0
H3102 H 0.47845 0.9305 0.45445 0.0
H3103 H 0.46716 0.89451 0.46324 0.0
C3104 C 0.52861 0.89729 0.44085 0.0
C3105 C 0.52843 0.87036 0.446 0.0
C3106 C 0.50006 0.89668 0.43803 0.0
C3107 C 0.47063 0.8692 0.44036 0.0
C3108 C 0.4703 0.84149 0.44465 0.0
H3109 H 0.29375 0.86506 0.45667 0.0
H3110 H 0.34039 0.85839 0.45611 0.0
C3111 C 0.49903 0.84204 0.44744 0.0
C3112 C 0.44064 0.87068 0.43952 0.0
H3113 H 0.4027 0.90704 0.45308 0.0
C3114 C 0.41772 0.85281 0.43018 0.0
C3115 C 0.43487 0.89015 0.44797 0.0
C3116 C 0.4579 0.90885 0.45855 0.0
C3117 C 0.38944 0.85433 0.42897 0.0
C3118 C 0.3841 0.8744 0.43724 0.0
C3119 C 0.4069 0.89191 0.44665 0.0
C3120 C 0.35439 0.87652 0.43688 0.0
C3121 C 0.36517 0.83399 0.41904 0.0
C3122 C 0.34642 0.88881 0.42618 0.0
C3123 C 0.31946 0.89264 0.42645 0.0
C3124 C 0.30022 0.88459 0.43747 0.0
C3125 C 0.30805 0.87178 0.44804 0.0
C3126 C 0.33479 0.86789 0.44775 0.0
H3127 H 0.36969 0.81515 0.41526 0.0
H3128 H 0.34069 0.82255 0.4231 0.0
H3129 H 0.36624 0.84927 0.41093 0.0
H3130 H 0.36139 0.89605 0.41774 0.0
H3131 H 0.31384 0.90206 0.41809 0.0
H3132 H 0.79412 0.86147 0.24461 0.0
H3133 H 0.84552 0.8638 0.24513 0.0
H3134 H 0.8113 0.79213 0.27464 0.0
H3135 H 0.75922 0.78967 0.27427 0.0
H3136 H 0.87894 0.85377 0.27731 0.0
H3137 H 0.85693 0.78602 0.23193 0.0
H3138 H 0.84572 0.81633 0.2321 0.0
H3139 H 0.82497 0.78197 0.24219 0.0
C3140 C 0.79724 0.84601 0.25122 0.0
C3141 C 0.77212 0.82489 0.25926 0.0
C3142 C 0.8268 0.84749 0.25151 0.0
C3143 C 0.83214 0.8279 0.2598 0.0
C3144 C 0.80759 0.80737 0.26812 0.0
H3145 H 1.00636 0.81715 0.24543 0.0
H3146 H 0.95189 0.80102 0.25271 0.0
C3147 C 0.77779 0.8059 0.26787 0.0
C3148 C 0.86336 0.8289 0.25937 0.0
H3149 H 0.91053 0.81457 0.23925 0.0
C3150 C 0.88573 0.8447 0.26912 0.0
C3151 C 0.87213 0.81695 0.24871 0.0
C3152 C 0.84869 0.79913 0.23814 0.0
C3153 C 0.91714 0.85018 0.26816 0.0
C3154 C 0.92648 0.83984 0.25712 0.0
C3155 C 0.90353 0.82257 0.24771 0.0
C3156 C 0.96039 0.84919 0.25453 0.0
C3157 C 0.94023 0.86749 0.27888 0.0
C3158 C 0.98341 0.88155 0.25329 0.0
C3159 C 0.01429 0.89069 0.24914 0.0
C3160 C 0.02298 0.86772 0.24612 0.0
C3161 C 1.00044 0.83533 0.24788 0.0
C3162 C 0.9693 0.82614 0.25195 0.0
H3163 H 0.92754 0.86462 0.28808 0.0
H3164 H 0.95741 0.85879 0.28011 0.0
H3165 H 0.95388 0.89331 0.27662 0.0
H3166 H 0.97708 0.8998 0.25492 0.0
H3167 H 0.0311 0.91579 0.24773 0.0
H3168 H 0.26743 0.99704 0.24768 0.0
H3169 H 0.26429 0.04588 0.24691 0.0
H3170 H 0.17583 0.99917 0.26797 0.0
H3171 H 0.17965 0.9508 0.26928 0.0
H3172 H 0.21984 0.05556 0.23594 0.0
H3173 H 0.22278 0.0812 0.28768 0.0
H3174 H 0.23294 0.05258 0.28148 0.0
H3175 H 0.19181 0.04173 0.28367 0.0
C3176 C 0.24775 0.9974 0.25242 0.0
C3177 C 0.22418 0.97017 0.25876 0.0
C3178 C 0.24581 0.0253 0.25189 0.0
C3179 C 0.22018 0.02657 0.25763 0.0
C3180 C 0.19636 0.99922 0.2638 0.0
H3181 H 0.13821 0.14809 0.25406 0.0
H3182 H 0.15347 0.10815 0.25938 0.0
C3183 C 0.19841 0.97141 0.26442 0.0
C3184 C 0.21734 0.05579 0.2565 0.0
H3185 H 0.20577 0.10928 0.27378 0.0
C3186 C 0.21721 0.06755 0.24423 0.0
C3187 C 0.21389 0.07152 0.26731 0.0
C3188 C 0.21568 0.06132 0.28078 0.0
C3189 C 0.21263 0.09379 0.24245 0.0
C3190 C 0.20844 0.10905 0.25324 0.0
C3191 C 0.20906 0.09764 0.26552 0.0
C3192 C 0.20134 0.1355 0.25181 0.0
C3193 C 0.21113 0.10428 0.229 0.0
C3194 C 0.22362 0.16478 0.24629 0.0
C3195 C 0.21501 0.18781 0.24339 0.0
C3196 C 0.18402 0.18189 0.24599 0.0
C3197 C 0.16239 0.15337 0.25215 0.0
C3198 C 0.17104 0.1305 0.25512 0.0
H3199 H 0.20878 0.08641 0.22176 0.0
H3200 H 0.1907 0.10853 0.22794 0.0
H3201 H 0.23334 0.12698 0.22693 0.0
H3202 H 0.24723 0.16926 0.24376 0.0
H3203 H 0.2319 0.20937 0.23845 0.0
H3204 H 0.91235 0.0139 0.24822 0.0
H3205 H 0.95494 0.06659 0.25486 0.0
H3206 H 0.88918 0.10229 0.25297 0.0
H3207 H 0.84634 0.04918 0.24661 0.0
H3208 H 0.97668 0.11728 0.23949 0.0
H3209 H 0.93786 0.14527 0.28523 0.0
H3210 H 0.91974 0.10533 0.27886 0.0
H3211 H 0.90848 0.1331 0.2728 0.0
C3212 C 0.90676 0.03271 0.24976 0.0
C3213 C 0.87603 0.02745 0.24715 0.0
C3214 C 0.93113 0.06288 0.25343 0.0
C3215 C 0.92535 0.08849 0.25449 0.0
C3216 C 0.89416 0.08284 0.25251 0.0
H3217 H 0.05586 0.29291 0.25 0.0
H3218 H 0.0095 0.23904 0.24908 0.0
C3219 C 0.86964 0.05249 0.24891 0.0
C3220 C 0.95264 0.12149 0.25613 0.0
H3221 H 0.9815 0.1888 0.27449 0.0
C3222 C 0.97776 0.13276 0.24721 0.0
C3223 C 0.95414 0.14184 0.26618 0.0
C3224 C 0.92877 0.13072 0.27639 0.0
C3225 C 1.004 0.16377 0.24799 0.0
C3226 C 1.00519 0.18415 0.25789 0.0
C3227 C 0.98029 0.17307 0.26685 0.0
C3228 C 0.03254 0.21695 0.2591 0.0
C3229 C 0.03033 0.17484 0.23818 0.0
C3230 C 0.06074 0.22226 0.26505 0.0
C3231 C 0.0871 0.25303 0.26574 0.0
C3232 C 0.08578 0.27908 0.26044 0.0
C3233 C 0.05746 0.27357 0.25442 0.0
C3234 C 0.031 0.24279 0.25383 0.0
H3235 H 0.02501 0.15671 0.23063 0.0
H3236 H 0.03416 0.19718 0.2336 0.0
H3237 H 0.05294 0.18021 0.24299 0.0
H3238 H 0.06241 0.20253 0.26909 0.0
H3239 H 0.10856 0.25636 0.27039 0.0
H3240 H 0.84539 0.78058 0.79125 0.0
H3241 H 0.85176 0.8336 0.79011 0.0
H3242 H 0.82055 0.81716 0.75081 0.0
H3243 H 0.81495 0.76379 0.75175 0.0
H3244 H 0.89213 0.88373 0.77283 0.0
H3245 H 0.76397 0.8487 0.76847 0.0
H3246 H 0.77654 0.82141 0.77409 0.0
H3247 H 0.77918 0.83101 0.75739 0.0
C3248 C 0.84003 0.78815 0.78229 0.0
C3249 C 0.8301 0.76802 0.77152 0.0
C3250 C 0.84359 0.81853 0.78169 0.0
C3251 C 0.8367 0.82943 0.77039 0.0
C3252 C 0.82583 0.80915 0.75967 0.0
H3253 H 0.83655 0.01097 0.76373 0.0
H3254 H 0.83659 0.96187 0.75756 0.0
C3255 C 0.82254 0.77863 0.76022 0.0
C3256 C 0.84142 0.86223 0.77004 0.0
H3257 H 0.80109 0.90348 0.76979 0.0
C3258 C 0.87227 0.88811 0.77201 0.0
C3259 C 0.81554 0.86792 0.76896 0.0
C3260 C 0.78185 0.84089 0.76719 0.0
C3261 C 0.87783 0.91941 0.77319 0.0
C3262 C 0.85177 0.92499 0.77264 0.0
C3263 C 0.82108 0.89925 0.77019 0.0
C3264 C 0.85535 0.95671 0.77565 0.0
C3265 C 0.91157 0.9462 0.77511 0.0
C3266 C 0.86622 0.97036 0.78778 0.0
C3267 C 0.8662 0.99825 0.79127 0.0
C3268 C 0.85546 0.01318 0.78269 0.0
C3269 C 0.8456 1.00025 0.7704 0.0
C3270 C 0.84538 0.97211 0.76692 0.0
H3271 H 0.92917 0.93995 0.77125 0.0
H3272 H 0.91545 0.96845 0.77043 0.0
H3273 H 0.91621 0.95087 0.7855 0.0
H3274 H 0.87333 0.95863 0.79479 0.0
H3275 H 0.87327 0.00745 0.80089 0.0
H3276 H 0.27345 0.08057 0.79093 0.0
H3277 H 0.22072 0.03375 0.79061 0.0
H3278 H 0.23242 0.01918 0.75069 0.0
H3279 H 0.28629 0.06628 0.75101 0.0
H3280 H 0.17144 0.02705 0.77691 0.0
H3281 H 0.19568 0.92935 0.76493 0.0
H3282 H 0.22666 0.96833 0.76994 0.0
H3283 H 0.21178 0.96206 0.75383 0.0
C3284 C 0.26515 0.06734 0.78207 0.0
C3285 C 0.28413 0.07738 0.77096 0.0
C3286 C 0.23484 0.04045 0.78192 0.0
C3287 C 0.22245 0.02275 0.77066 0.0
C3288 C 0.24158 0.0321 0.75957 0.0
H3289 H 0.01579 0.90211 0.76428 0.0
H3290 H 0.07178 0.94139 0.76045 0.0
C3291 C 0.2723 0.05912 0.75973 0.0
C3292 C 0.18875 0.99607 0.77061 0.0
H3293 H 0.14132 0.91564 0.76635 0.0
C3294 C 0.1649 1.00271 0.77455 0.0
C3295 C 0.18018 0.96421 0.76771 0.0
C3296 C 0.20489 0.95535 0.76397 0.0
C3297 C 0.13295 0.97857 0.77582 0.0
C3298 C 0.12415 0.94676 0.77265 0.0
C3299 C 0.14795 0.94002 0.76866 0.0
C3300 C 0.09041 0.92037 0.77371 0.0
C3301 C 0.10918 0.98736 0.78099 0.0
C3302 C 0.08214 0.89427 0.78186 0.0
C3303 C 0.04999 0.87137 0.78391 0.0
C3304 C 0.02557 0.87433 0.7779 0.0
C3305 C 0.03404 0.89953 0.76924 0.0
C3306 C 0.06606 0.92207 0.76707 0.0
H3307 H 0.12112 0.01024 0.78634 0.0
H3308 H 0.09599 0.99024 0.7729 0.0
H3309 H 0.09168 0.96855 0.78746 0.0
H3310 H 0.10049 0.89228 0.78703 0.0
H3311 H 0.0442 0.85221 0.79063 0.0
H3312 H 0.16402 0.15714 0.78424 0.0
H3313 H 0.11532 0.15822 0.77841 0.0
H3314 H 0.17233 0.25701 0.76757 0.0
H3315 H 0.22068 0.2561 0.7736 0.0
H3316 H 0.12729 0.24817 0.78475 0.0
H3317 H 0.07148 0.1601 0.74553 0.0
H3318 H 0.08072 0.1447 0.75952 0.0
H3319 H 0.1125 0.1756 0.75031 0.0
C3320 C 0.1661 0.17873 0.78023 0.0
C3321 C 0.19607 0.20654 0.77937 0.0
C3322 C 0.13828 0.17936 0.77689 0.0
C3323 C 0.1401 0.20769 0.77247 0.0
C3324 C 0.17025 0.23488 0.77094 0.0
H3325 H 0.98765 0.25024 0.75256 0.0
H3326 H 0.03615 0.24571 0.75143 0.0
C3327 C 0.19788 0.23433 0.77436 0.0
C3328 C 0.11092 0.21037 0.77083 0.0
H3329 H 0.03939 0.17931 0.75519 0.0
C3330 C 0.1083 0.23333 0.77816 0.0
C3331 C 0.08601 0.19099 0.76227 0.0
C3332 C 0.08783 0.16664 0.75386 0.0
C3333 C 0.08138 0.23704 0.77733 0.0
C3334 C 0.05626 0.21727 0.76899 0.0
C3335 C 0.05887 0.19459 0.7615 0.0
C3336 C 0.02615 0.2183 0.76888 0.0
C3337 C 0.07957 0.26172 0.78555 0.0
C3338 C 1.00458 0.20424 0.77898 0.0
C3339 C 0.97727 0.20697 0.7797 0.0
C3340 C 0.9708 0.22389 0.77032 0.0
C3341 C 0.99208 0.23737 0.75999 0.0
C3342 C 0.01964 0.23462 0.75929 0.0
H3343 H 0.10289 0.27839 0.79002 0.0
H3344 H 0.07151 0.27566 0.77979 0.0
H3345 H 0.06181 0.24957 0.79329 0.0
H3346 H 0.0092 0.19157 0.78646 0.0
H3347 H 0.96137 0.19596 0.78775 0.0
H3348 H 0.42594 0.12699 0.60976 0.0
H3349 H 0.47969 0.13351 0.61128 0.0
H3350 H 0.5095 0.19615 0.57858 0.0
H3351 H 0.45676 0.19022 0.57708 0.0
H3352 H 0.51265 0.11905 0.59309 0.0
H3353 H 0.57997 0.24795 0.60386 0.0
H3354 H 0.53713 0.22455 0.60541 0.0
H3355 H 0.55516 0.23953 0.59001 0.0
C3356 C 0.44407 0.14231 0.60297 0.0
C3357 C 0.43699 0.15804 0.59331 0.0
C3358 C 0.47474 0.14603 0.60385 0.0
C3359 C 0.49884 0.16588 0.5952 0.0
C3360 C 0.49164 0.18141 0.58557 0.0
H3361 H 0.67715 0.20522 0.56478 0.0
H3362 H 0.62768 0.20349 0.57148 0.0
C3363 C 0.46123 0.17768 0.58466 0.0
C3364 C 0.53117 0.16936 0.59563 0.0
H3365 H 0.61048 0.22534 0.59505 0.0
C3366 C 0.53407 0.14219 0.59381 0.0
C3367 C 0.55914 0.1996 0.59653 0.0
C3368 C 0.55773 0.22951 0.59919 0.0
C3369 C 0.56409 0.14465 0.59215 0.0
C3370 C 0.59193 0.17504 0.59248 0.0
C3371 C 0.58912 0.20208 0.59479 0.0
C3372 C 0.62383 0.17937 0.58937 0.0
C3373 C 0.56575 0.11492 0.58938 0.0
C3374 C 0.63867 0.1674 0.59743 0.0
C3375 C 0.66721 0.1688 0.59368 0.0
C3376 C 0.68114 0.18208 0.58182 0.0
C3377 C 0.66697 0.19521 0.57403 0.0
C3378 C 0.63871 0.1941 0.57783 0.0
H3379 H 0.54182 0.09395 0.58758 0.0
H3380 H 0.58114 0.11862 0.58092 0.0
H3381 H 0.57651 0.10949 0.59769 0.0
H3382 H 0.62768 0.15614 0.60642 0.0
H3383 H 0.67751 0.15812 0.59974 0.0
H3384 H 0.92433 0.3199 0.61061 0.0
H3385 H 0.91838 0.36748 0.61172 0.0
H3386 H 0.85328 0.33251 0.57981 0.0
H3387 H 0.85875 0.28541 0.57871 0.0
H3388 H 0.93188 0.41335 0.59278 0.0
H3389 H 0.80384 0.35417 0.60535 0.0
H3390 H 0.82713 0.33456 0.60694 0.0
H3391 H 0.8111 0.33645 0.59162 0.0
C3392 C 0.9086 0.3223 0.60391 0.0
C3393 C 0.8921 0.29881 0.59457 0.0
C3394 C 0.90521 0.34948 0.60455 0.0
C3395 C 0.88487 0.35329 0.596 0.0
C3396 C 0.86847 0.32982 0.58672 0.0
H3397 H 0.84257 0.49212 0.56646 0.0
H3398 H 0.84427 0.44421 0.57288 0.0
C3399 C 0.87191 0.30293 0.58604 0.0
C3400 C 0.88174 0.38236 0.59616 0.0
H3401 H 0.82634 0.40666 0.59621 0.0
C3402 C 0.90892 0.41203 0.59379 0.0
C3403 C 0.85172 0.3806 0.59741 0.0
C3404 C 0.82185 0.34976 0.6006 0.0
C3405 C 0.90667 0.43966 0.59201 0.0
C3406 C 0.87649 0.43766 0.59281 0.0
C3407 C 0.84945 0.40819 0.59558 0.0
C3408 C 0.87231 0.46546 0.58993 0.0
C3409 C 0.93638 0.47048 0.58865 0.0
C3410 C 0.88648 0.49292 0.59763 0.0
C3411 C 0.88516 0.52016 0.59404 0.0
C3412 C 0.86959 0.52026 0.58272 0.0
C3413 C 0.85426 0.49236 0.57533 0.0
C3414 C 0.85539 0.46512 0.57896 0.0
H3415 H 0.95662 0.46677 0.58612 0.0
H3416 H 0.93177 0.48229 0.58048 0.0
H3417 H 0.9436 0.48686 0.59697 0.0
H3418 H 0.89938 0.4936 0.6062 0.0
H3419 H 0.8976 0.5416 0.59976 0.0
H3420 H 0.55982 0.35326 0.57582 0.0
H3421 H 0.6094 0.40236 0.58146 0.0
H3422 H 0.55431 0.44349 0.59578 0.0
H3423 H 0.50494 0.39482 0.59002 0.0
H3424 H 0.62027 0.46505 0.57031 0.0
H3425 H 0.62709 0.46451 0.62344 0.0
H3426 H 0.6067 0.42825 0.61414 0.0
H3427 H 0.58879 0.45262 0.61638 0.0
C3428 C 0.55838 0.37243 0.58054 0.0
C3429 C 0.52863 0.37025 0.58258 0.0
C3430 C 0.58664 0.40048 0.58369 0.0
C3431 C 0.58549 0.42646 0.58913 0.0
C3432 C 0.55574 0.4236 0.59177 0.0
H3433 H 0.72481 0.62499 0.60667 0.0
H3434 H 0.67731 0.57157 0.60607 0.0
C3435 C 0.52759 0.39583 0.58847 0.0
C3436 C 0.61501 0.45778 0.59066 0.0
H3437 H 0.66382 0.5121 0.61287 0.0
C3438 C 0.63 0.47526 0.5796 0.0
C3439 C 0.62717 0.47126 0.60279 0.0
C3440 C 0.61183 0.45325 0.61492 0.0
C3441 C 0.6566 0.50607 0.58033 0.0
C3442 C 0.66933 0.51943 0.59248 0.0
C3443 C 0.65422 0.50191 0.60357 0.0
C3444 C 0.69864 0.55125 0.59376 0.0
C3445 C 0.67005 0.52432 0.56804 0.0
C3446 C 0.72675 0.55737 0.58746 0.0
C3447 C 0.75343 0.58784 0.58756 0.0
C3448 C 0.75309 0.61286 0.59427 0.0
C3449 C 0.72571 0.60635 0.60131 0.0
C3450 C 0.6986 0.57579 0.60099 0.0
H3451 H 0.6519 0.51544 0.5603 0.0
H3452 H 0.67902 0.55018 0.56938 0.0
H3453 H 0.69013 0.52112 0.5648 0.0
H3454 H 0.72789 0.53865 0.58222 0.0
H3455 H 0.77431 0.59187 0.58222 0.0
loop_
_geom_bond_atom_site_label_1
_geom_bond_atom_site_label_2
_geom_bond_distance
_geom_bond_site_symmetry_2
_ccdc_geom_bond_type
Eu0 N29 2.602 . S
Eu0 N35 2.562 . S
Eu0 O44 2.462 . S
Eu0 O45 2.373 1_565 S
Eu0 O47 2.432 . S
Eu0 O48 2.291 . S
Eu0 O52 2.335 . S
Eu0 O55 2.372 . S
Eu0 C64 2.787 . S
C1 N2 1.365 . S
C1 C4 1.405 1_545 S
C1 C8 1.448 . S
N2 C1 1.365 . S
N2 C5 1.319 . S
N2 Eu11 2.600 . S
C3 C5 1.397 . S
C3 C6 1.367 1_545 S
C3 H23 0.931 . S
C4 C1 1.405 1_565 S
C4 C6 1.403 . S
C4 C10 1.439 . S
C5 N2 1.319 . S
C5 C3 1.397 . S
C5 H16 0.930 . S
C6 C3 1.367 1_565 S
C6 C4 1.403 . S
C6 H27 0.929 . S
C7 C8 1.430 1_565 S
C7 C9 1.387 . S
C7 C13 1.404 . S
C8 C1 1.448 . S
C8 C7 1.430 1_545 S
C8 N12 1.351 . S
C9 C7 1.387 . S
C9 C10 1.374 . S
C9 H24 0.931 . S
C10 C4 1.439 . S
C10 C9 1.374 . S
C10 H25 0.931 . S
Eu11 N2 2.600 . S
Eu11 N12 2.562 . S
Eu11 O46 2.335 . S
Eu11 O49 2.372 . S
Eu11 O50 2.462 . S
Eu11 O51 2.373 1_545 S
Eu11 O53 2.432 . S
Eu11 O54 2.291 . S
Eu11 C75 2.787 . S
N12 C8 1.351 . S
N12 Eu11 2.562 . S
N12 C14 1.325 . S
C13 C7 1.404 . S
C13 C15 1.366 1_565 S
C13 H21 0.930 . S
C14 N12 1.325 . S
C14 C15 1.416 . S
C14 H20 0.929 . S
C15 C13 1.366 1_545 S
C15 C14 1.416 . S
C15 H17 0.930 . S
H16 C5 0.930 . S
H17 C15 0.930 . S
H18 C33 0.931 1_565 S
H19 C40 0.930 . S
H20 C14 0.929 . S
H21 C13 0.930 . S
H22 C36 0.929 . S
H23 C3 0.931 . S
H24 C9 0.931 . S
H25 C10 0.931 . S
H26 C31 0.931 . S
H27 C6 0.929 . S
H28 C39 0.930 . S
N29 Eu0 2.602 . S
N29 C30 1.362 1_565 S
N29 C33 1.319 1_565 S
C30 N29 1.362 1_545 S
C30 C32 1.405 . S
C30 C38 1.448 . S
C31 H26 0.931 . S
C31 C33 1.396 . S
C31 C34 1.367 . S
C32 C30 1.405 . S
C32 C34 1.403 . S
C32 C65 1.439 . S
C33 H18 0.931 1_545 S
C33 N29 1.319 1_545 S
C33 C31 1.396 . S
C34 C31 1.367 . S
C34 C32 1.403 . S
C34 H41 0.929 . S
N35 Eu0 2.562 . S
N35 C36 1.325 . S
N35 C38 1.351 1_565 S
C36 H22 0.929 . S
C36 N35 1.325 . S
C36 C40 1.416 1_565 S
C37 C38 1.430 . S
C37 C39 1.404 . S
C37 C66 1.387 . S
C38 C30 1.448 . S
C38 N35 1.351 1_545 S
C38 C37 1.430 . S
C39 H28 0.930 . S
C39 C37 1.404 . S
C39 C40 1.366 . S
C40 H19 0.930 . S
C40 C36 1.416 1_545 S
C40 C39 1.366 . S
H41 C34 0.929 . S
H42 C65 0.931 . S
H43 C66 0.931 . S
O44 Eu0 2.462 . S
O44 C64 1.252 . S
O45 Eu0 2.373 1_545 S
O45 C56 1.249 . S
O46 Eu11 2.335 . S
O46 C56 1.264 . S
O47 Eu0 2.432 . S
O47 C64 1.268 . S
O48 Eu0 2.291 . S
O48 C63 1.255 . S
O49 Eu11 2.372 . S
O49 C63 1.257 1_545 S
O50 Eu11 2.462 . S
O50 C75 1.252 . S
O51 Eu11 2.373 1_565 S
O51 C67 1.249 . S
O52 Eu0 2.335 . S
O52 C67 1.264 . S
O53 Eu11 2.432 . S
O53 C75 1.268 . S
O54 Eu11 2.291 . S
O54 C74 1.255 . S
O55 Eu0 2.372 . S
O55 C74 1.257 1_565 S
C56 O45 1.249 . S
C56 O46 1.264 . S
C57 C60 1.382 . S
C57 C62 1.390 . S
C57 C64 1.506 . S
C58 C59 1.398 . S
C58 C62 1.392 . S
C59 C58 1.398 . S
C59 C61 1.372 . S
C59 H76 0.931 . S
C60 C57 1.382 . S
C60 C61 1.390 . S
C60 H77 0.931 . S
C61 C59 1.372 . S
C61 C60 1.390 . S
C61 H78 0.929 . S
C62 C57 1.390 . S
C62 C58 1.392 . S
C62 H79 0.930 . S
C63 O48 1.255 . S
C63 O49 1.257 1_565 S
C64 Eu0 2.787 . S
C64 O44 1.252 . S
C64 O47 1.268 . S
C64 C57 1.506 . S
C65 C32 1.439 . S
C65 H42 0.931 . S
C65 C66 1.374 . S
C66 C37 1.387 . S
C66 H43 0.931 . S
C66 C65 1.374 . S
C67 O51 1.249 . S
C67 O52 1.264 . S
C68 C71 1.382 . S
C68 C72 1.390 . S
C68 C75 1.506 . S
C69 C70 1.398 . S
C69 C72 1.392 . S
C70 C69 1.398 . S
C70 C73 1.372 . S
C70 H80 0.931 . S
C71 C68 1.382 . S
C71 C73 1.390 . S
C71 H81 0.931 . S
C72 C68 1.390 . S
C72 C69 1.392 . S
C72 H82 0.930 . S
C73 C70 1.372 . S
C73 C71 1.390 . S
C73 H83 0.929 . S
C74 O54 1.255 . S
C74 O55 1.257 1_545 S
C75 Eu11 2.787 . S
C75 O50 1.252 . S
C75 O53 1.268 . S
C75 C68 1.506 . S
H76 C59 0.931 . S
H77 C60 0.931 . S
H78 C61 0.929 . S
H79 C62 0.930 . S
H80 C70 0.931 . S
H81 C71 0.931 . S
H82 C72 0.930 . S
H83 C73 0.929 . S
Eu84 N113 2.600 . S
Eu84 N119 2.562 . S
Eu84 O128 2.462 . S
Eu84 O129 2.373 . S
Eu84 O131 2.432 . S
Eu84 O132 2.291 . S
Eu84 O136 2.335 . S
Eu84 O139 2.372 . S
Eu84 C148 2.787 . S
C85 N86 1.365 . S
C85 C88 1.405 . S
C85 C92 1.448 . S
N86 C85 1.365 . S
N86 C89 1.319 . S
N86 Eu95 2.600 . S
C87 C89 1.397 . S
C87 C90 1.367 . S
C87 H107 0.931 . S
C88 C85 1.405 . S
C88 C90 1.403 . S
C88 C94 1.439 . S
C89 N86 1.319 . S
C89 C87 1.397 . S
C89 H100 0.930 . S
C90 C87 1.367 . S
C90 C88 1.403 . S
C90 H111 0.929 . S
C91 C92 1.430 . S
C91 C93 1.387 . S
C91 C97 1.404 . S
C92 C85 1.448 . S
C92 C91 1.430 . S
C92 N96 1.351 . S
C93 C91 1.387 . S
C93 C94 1.374 . S
C93 H108 0.931 . S
C94 C88 1.439 . S
C94 C93 1.374 . S
C94 H109 0.931 . S
Eu95 N86 2.600 . S
Eu95 N96 2.562 . S
Eu95 O130 2.335 1_455 S
Eu95 O133 2.372 . S
Eu95 O134 2.462 1_455 S
Eu95 O135 2.373 . S
Eu95 O137 2.432 1_455 S
Eu95 O138 2.291 . S
Eu95 C159 2.787 1_455 S
N96 C92 1.351 . S
N96 Eu95 2.562 . S
N96 C98 1.325 . S
C97 C91 1.404 . S
C97 C99 1.366 . S
C97 H105 0.930 . S
C98 N96 1.325 . S
C98 C99 1.416 . S
C98 H104 0.929 . S
C99 C97 1.366 . S
C99 C98 1.416 . S
C99 H101 0.930 . S
H100 C89 0.930 . S
H101 C99 0.930 . S
H102 C117 0.930 . S
H103 C124 0.930 . S
H104 C98 0.929 . S
H105 C97 0.930 . S
H106 C120 0.929 . S
H107 C87 0.931 . S
H108 C93 0.931 . S
H109 C94 0.931 . S
H110 C115 0.931 . S
H111 C90 0.929 . S
H112 C123 0.930 . S
N113 Eu84 2.600 . S
N113 C114 1.365 . S
N113 C117 1.319 . S
C114 N113 1.365 . S
C114 C116 1.405 . S
C114 C122 1.448 . S
C115 H110 0.931 . S
C115 C117 1.397 . S
C115 C118 1.367 . S
C116 C114 1.405 . S
C116 C118 1.403 . S
C116 C149 1.439 . S
C117 H102 0.930 . S
C117 N113 1.319 . S
C117 C115 1.397 . S
C118 C115 1.367 . S
C118 C116 1.403 . S
C118 H125 0.929 . S
N119 Eu84 2.562 . S
N119 C120 1.325 . S
N119 C122 1.351 . S
C120 H106 0.929 . S
C120 N119 1.325 . S
C120 C124 1.416 . S
C121 C122 1.430 . S
C121 C123 1.404 . S
C121 C150 1.387 . S
C122 C114 1.448 . S
C122 N119 1.351 . S
C122 C121 1.430 . S
C123 H112 0.930 . S
C123 C121 1.404 . S
C123 C124 1.366 . S
C124 H103 0.930 . S
C124 C120 1.416 . S
C124 C123 1.366 . S
H125 C118 0.929 . S
H126 C149 0.931 1_655 S
H127 C150 0.939 1_655 S
O128 Eu84 2.462 . S
O128 C148 1.252 . S
O129 Eu84 2.373 . S
O129 C140 1.249 1_455 S
O130 Eu95 2.335 1_655 S
O130 C140 1.264 . S
O131 Eu84 2.432 . S
O131 C148 1.268 . S
O132 Eu84 2.291 . S
O132 C147 1.255 . S
O133 Eu95 2.372 . S
O133 C147 1.257 . S
O134 Eu95 2.462 1_655 S
O134 C159 1.252 . S
O135 Eu95 2.373 . S
O135 C151 1.249 . S
O136 Eu84 2.335 . S
O136 C151 1.264 . S
O137 Eu95 2.432 1_655 S
O137 C159 1.268 . S
O138 Eu95 2.291 . S
O138 C158 1.255 . S
O139 Eu84 2.372 . S
O139 C158 1.257 . S
C140 O129 1.249 1_655 S
C140 O130 1.264 . S
C141 C144 1.382 . S
C141 C146 1.390 . S
C141 C148 1.506 . S
C142 C143 1.398 . S
C142 C146 1.392 . S
C143 C142 1.398 . S
C143 C145 1.372 . S
C143 H160 0.931 . S
C144 C141 1.382 . S
C144 C145 1.390 . S
C144 H161 0.931 . S
C145 C143 1.372 . S
C145 C144 1.390 . S
C145 H162 0.929 . S
C146 C141 1.390 . S
C146 C142 1.392 . S
C146 H163 0.930 . S
C147 O132 1.255 . S
C147 O133 1.257 . S
C148 Eu84 2.787 . S
C148 O128 1.252 . S
C148 O131 1.268 . S
C148 C141 1.506 . S
C149 C116 1.439 . S
C149 H126 0.931 1_455 S
C149 C150 1.374 . S
C150 C121 1.387 . S
C150 H127 0.939 1_455 S
C150 C149 1.374 . S
C151 O135 1.249 . S
C151 O136 1.264 . S
C152 C155 1.382 . S
C152 C156 1.390 . S
C152 C159 1.506 . S
C153 C154 1.398 . S
C153 C156 1.392 . S
C154 C153 1.398 . S
C154 C157 1.372 . S
C154 H164 0.931 . S
C155 C152 1.382 . S
C155 C157 1.390 . S
C155 H165 0.931 . S
C156 C152 1.390 . S
C156 C153 1.392 . S
C156 H166 0.930 . S
C157 C154 1.372 . S
C157 C155 1.390 . S
C157 H167 0.929 . S
C158 O138 1.255 . S
C158 O139 1.257 . S
C159 Eu95 2.787 1_655 S
C159 O134 1.252 . S
C159 O137 1.268 . S
C159 C152 1.506 . S
H160 C143 0.931 . S
H161 C144 0.931 . S
H162 C145 0.929 . S
H163 C146 0.930 . S
H164 C154 0.931 . S
H165 C155 0.931 . S
H166 C156 0.930 . S
H167 C157 0.929 . S
Eu168 N197 2.600 . S
Eu168 N203 2.562 . S
Eu168 O212 2.462 . S
Eu168 O213 2.373 . S
Eu168 O215 2.432 . S
Eu168 O216 2.291 . S
Eu168 O220 2.335 . S
Eu168 O223 2.372 . S
Eu168 C232 2.787 . S
C169 N170 1.365 . S
C169 C172 1.405 . S
C169 C176 1.448 . S
N170 C169 1.365 . S
N170 C173 1.319 . S
N170 Eu179 2.600 . S
C171 C173 1.397 . S
C171 C174 1.367 . S
C171 H191 0.931 . S
C172 C169 1.405 . S
C172 C174 1.403 . S
C172 C178 1.439 . S
C173 N170 1.319 . S
C173 C171 1.397 . S
C173 H184 0.930 . S
C174 C171 1.367 . S
C174 C172 1.403 . S
C174 H195 0.929 . S
C175 C176 1.430 . S
C175 C177 1.387 . S
C175 C181 1.404 . S
C176 C169 1.448 . S
C176 C175 1.430 . S
C176 N180 1.351 . S
C177 C175 1.387 . S
C177 C178 1.374 . S
C177 H192 0.931 . S
C178 C172 1.439 . S
C178 C177 1.374 . S
C178 H193 0.931 . S
Eu179 N170 2.600 . S
Eu179 N180 2.562 . S
Eu179 O214 2.335 . S
Eu179 O217 2.372 . S
Eu179 O218 2.462 . S
Eu179 O219 2.373 . S
Eu179 O221 2.432 . S
Eu179 O222 2.291 . S
Eu179 C243 2.787 . S
N180 C176 1.351 . S
N180 Eu179 2.562 . S
N180 C182 1.325 . S
C181 C175 1.404 . S
C181 C183 1.366 . S
C181 H189 0.930 . S
C182 N180 1.325 . S
C182 C183 1.416 . S
C182 H188 0.929 . S
C183 C181 1.366 . S
C183 C182 1.416 . S
C183 H185 0.930 . S
H184 C173 0.930 . S
H185 C183 0.930 . S
H186 C201 0.930 . S
H187 C208 0.930 . S
H188 C182 0.929 . S
H189 C181 0.930 . S
H190 C204 0.929 . S
H191 C171 0.931 . S
H192 C177 0.931 . S
H193 C178 0.931 . S
H194 C199 0.931 . S
H195 C174 0.929 . S
H196 C207 0.930 . S
N197 Eu168 2.600 . S
N197 C198 1.365 . S
N197 C201 1.319 . S
C198 N197 1.365 . S
C198 C200 1.405 . S
C198 C206 1.448 . S
C199 H194 0.931 . S
C199 C201 1.397 . S
C199 C202 1.367 . S
C200 C198 1.405 . S
C200 C202 1.403 . S
C200 C233 1.439 . S
C201 H186 0.930 . S
C201 N197 1.319 . S
C201 C199 1.397 . S
C202 C199 1.367 . S
C202 C200 1.403 . S
C202 H209 0.929 . S
N203 Eu168 2.562 . S
N203 C204 1.325 . S
N203 C206 1.351 . S
C204 H190 0.929 . S
C204 N203 1.325 . S
C204 C208 1.416 . S
C205 C206 1.430 . S
C205 C207 1.404 . S
C205 C234 1.387 . S
C206 C198 1.448 . S
C206 N203 1.351 . S
C206 C205 1.430 . S
C207 H196 0.930 . S
C207 C205 1.404 . S
C207 C208 1.366 . S
C208 H187 0.930 . S
C208 C204 1.416 . S
C208 C207 1.366 . S
H209 C202 0.929 . S
H210 C233 0.931 . S
H211 C234 0.931 . S
O212 Eu168 2.462 . S
O212 C232 1.252 . S
O213 Eu168 2.373 . S
O213 C224 1.249 . S
O214 Eu179 2.335 . S
O214 C224 1.264 . S
O215 Eu168 2.432 . S
O215 C232 1.268 . S
O216 Eu168 2.291 . S
O216 C231 1.255 . S
O217 Eu179 2.372 . S
O217 C231 1.257 . S
O218 Eu179 2.462 . S
O218 C243 1.252 . S
O219 Eu179 2.373 . S
O219 C235 1.249 . S
O220 Eu168 2.335 . S
O220 C235 1.264 . S
O221 Eu179 2.432 . S
O221 C243 1.268 . S
O222 Eu179 2.291 . S
O222 C242 1.255 . S
O223 Eu168 2.372 . S
O223 C242 1.257 . S
C224 O213 1.249 . S
C224 O214 1.264 . S
C225 C228 1.382 . S
C225 C230 1.390 . S
C225 C232 1.506 . S
C226 C227 1.398 . S
C226 C230 1.392 . S
C227 C226 1.398 . S
C227 C229 1.372 . S
C227 H244 0.931 . S
C228 C225 1.382 . S
C228 C229 1.390 . S
C228 H245 0.931 . S
C229 C227 1.372 . S
C229 C228 1.390 . S
C229 H246 0.929 . S
C230 C225 1.390 . S
C230 C226 1.392 . S
C230 H247 0.930 . S
C231 O216 1.255 . S
C231 O217 1.257 . S
C232 Eu168 2.787 . S
C232 O212 1.252 . S
C232 O215 1.268 . S
C232 C225 1.506 . S
C233 C200 1.439 . S
C233 H210 0.931 . S
C233 C234 1.374 . S
C234 C205 1.387 . S
C234 H211 0.931 . S
C234 C233 1.374 . S
C235 O219 1.249 . S
C235 O220 1.264 . S
C236 C239 1.382 . S
C236 C240 1.390 . S
C236 C243 1.506 . S
C237 C238 1.398 . S
C237 C240 1.392 . S
C238 C237 1.398 . S
C238 C241 1.372 . S
C238 H248 0.931 . S
C239 C236 1.382 . S
C239 C241 1.390 . S
C239 H249 0.931 . S
C240 C236 1.390 . S
C240 C237 1.392 . S
C240 H250 0.930 . S
C241 C238 1.372 . S
C241 C239 1.390 . S
C241 H251 0.929 . S
C242 O222 1.255 . S
C242 O223 1.257 . S
C243 Eu179 2.787 . S
C243 O218 1.252 . S
C243 O221 1.268 . S
C243 C236 1.506 . S
H244 C227 0.931 . S
H245 C228 0.931 . S
H246 C229 0.929 . S
H247 C230 0.930 . S
H248 C238 0.931 . S
H249 C239 0.931 . S
H250 C240 0.930 . S
H251 C241 0.929 . S
Eu252 N281 2.602 . S
Eu252 N287 2.562 . S
Eu252 O296 2.462 . S
Eu252 O297 2.373 1_655 S
Eu252 O299 2.432 . S
Eu252 O300 2.291 . S
Eu252 O304 2.335 . S
Eu252 O307 2.372 . S
Eu252 C316 2.787 . S
C253 N254 1.365 . S
C253 C256 1.405 1_455 S
C253 C260 1.448 . S
N254 C253 1.365 . S
N254 C257 1.319 . S
N254 Eu263 2.600 . S
C255 C257 1.397 . S
C255 C258 1.367 1_455 S
C255 H275 0.931 . S
C256 C253 1.405 1_655 S
C256 C258 1.403 . S
C256 C262 1.439 . S
C257 N254 1.319 . S
C257 C255 1.397 . S
C257 H268 0.930 . S
C258 C255 1.367 1_655 S
C258 C256 1.403 . S
C258 H279 0.929 . S
C259 C260 1.430 1_655 S
C259 C261 1.387 . S
C259 C265 1.404 . S
C260 C253 1.448 . S
C260 C259 1.430 1_455 S
C260 N264 1.351 . S
C261 C259 1.387 . S
C261 C262 1.374 . S
C261 H276 0.931 . S
C262 C256 1.439 . S
C262 C261 1.374 . S
C262 H277 0.931 . S
Eu263 N254 2.600 . S
Eu263 N264 2.562 . S
Eu263 O298 2.335 . S
Eu263 O301 2.372 . S
Eu263 O302 2.462 . S
Eu263 O303 2.373 1_455 S
Eu263 O305 2.432 . S
Eu263 O306 2.291 . S
Eu263 C327 2.787 . S
N264 C260 1.351 . S
N264 Eu263 2.562 . S
N264 C266 1.325 . S
C265 C259 1.404 . S
C265 C267 1.366 1_655 S
C265 H273 0.930 . S
C266 N264 1.325 . S
C266 C267 1.416 . S
C266 H272 0.929 . S
C267 C265 1.366 1_455 S
C267 C266 1.416 . S
C267 H269 0.930 . S
H268 C257 0.930 . S
H269 C267 0.930 . S
H270 C285 0.931 1_655 S
H271 C292 0.930 . S
H272 C266 0.929 . S
H273 C265 0.930 . S
H274 C288 0.929 . S
H275 C255 0.931 . S
H276 C261 0.931 . S
H277 C262 0.931 . S
H278 C283 0.931 . S
H279 C258 0.929 . S
H280 C291 0.930 . S
N281 Eu252 2.602 . S
N281 C282 1.362 1_655 S
N281 C285 1.319 1_655 S
C282 N281 1.362 1_455 S
C282 C284 1.405 . S
C282 C290 1.448 . S
C283 H278 0.931 . S
C283 C285 1.396 . S
C283 C286 1.367 . S
C284 C282 1.405 . S
C284 C286 1.403 . S
C284 C317 1.439 . S
C285 H270 0.931 1_455 S
C285 N281 1.319 1_455 S
C285 C283 1.396 . S
C286 C283 1.367 . S
C286 C284 1.403 . S
C286 H293 0.929 . S
N287 Eu252 2.562 . S
N287 C288 1.325 . S
N287 C290 1.351 1_655 S
C288 H274 0.929 . S
C288 N287 1.325 . S
C288 C292 1.416 1_655 S
C289 C290 1.430 . S
C289 C291 1.404 . S
C289 C318 1.387 . S
C290 C282 1.448 . S
C290 N287 1.351 1_455 S
C290 C289 1.430 . S
C291 H280 0.930 . S
C291 C289 1.404 . S
C291 C292 1.366 . S
C292 H271 0.930 . S
C292 C288 1.416 1_455 S
C292 C291 1.366 . S
H293 C286 0.929 . S
H294 C317 0.931 . S
H295 C318 0.931 . S
O296 Eu252 2.462 . S
O296 C316 1.252 . S
O297 Eu252 2.373 1_455 S
O297 C308 1.249 . S
O298 Eu263 2.335 . S
O298 C308 1.264 . S
O299 Eu252 2.432 . S
O299 C316 1.268 . S
O300 Eu252 2.291 . S
O300 C315 1.255 . S
O301 Eu263 2.372 . S
O301 C315 1.257 1_455 S
O302 Eu263 2.462 . S
O302 C327 1.252 . S
O303 Eu263 2.373 1_655 S
O303 C319 1.249 . S
O304 Eu252 2.335 . S
O304 C319 1.264 . S
O305 Eu263 2.432 . S
O305 C327 1.268 . S
O306 Eu263 2.291 . S
O306 C326 1.255 . S
O307 Eu252 2.372 . S
O307 C326 1.257 1_655 S
C308 O297 1.249 . S
C308 O298 1.264 . S
C309 C312 1.382 . S
C309 C314 1.390 . S
C309 C316 1.506 . S
C310 C311 1.398 . S
C310 C314 1.392 . S
C311 C310 1.398 . S
C311 C313 1.372 . S
C311 H328 0.931 . S
C312 C309 1.382 . S
C312 C313 1.390 . S
C312 H329 0.931 . S
C313 C311 1.372 . S
C313 C312 1.390 . S
C313 H330 0.929 . S
C314 C309 1.390 . S
C314 C310 1.392 . S
C314 H331 0.930 . S
C315 O300 1.255 . S
C315 O301 1.257 1_655 S
C316 Eu252 2.787 . S
C316 O296 1.252 . S
C316 O299 1.268 . S
C316 C309 1.506 . S
C317 C284 1.439 . S
C317 H294 0.931 . S
C317 C318 1.374 . S
C318 C289 1.387 . S
C318 H295 0.931 . S
C318 C317 1.374 . S
C319 O303 1.249 . S
C319 O304 1.264 . S
C320 C323 1.382 . S
C320 C324 1.390 . S
C320 C327 1.506 . S
C321 C322 1.398 . S
C321 C324 1.392 . S
C322 C321 1.398 . S
C322 C325 1.372 . S
C322 H332 0.931 . S
C323 C320 1.382 . S
C323 C325 1.390 . S
C323 H333 0.931 . S
C324 C320 1.390 . S
C324 C321 1.392 . S
C324 H334 0.930 . S
C325 C322 1.372 . S
C325 C323 1.390 . S
C325 H335 0.929 . S
C326 O306 1.255 . S
C326 O307 1.257 1_455 S
C327 Eu263 2.787 . S
C327 O302 1.252 . S
C327 O305 1.268 . S
C327 C320 1.506 . S
H328 C311 0.931 . S
H329 C312 0.931 . S
H330 C313 0.929 . S
H331 C314 0.930 . S
H332 C322 0.931 . S
H333 C323 0.931 . S
H334 C324 0.930 . S
H335 C325 0.929 . S
Eu336 N365 2.600 . S
Eu336 N371 2.562 . S
Eu336 O380 2.462 . S
Eu336 O381 2.373 . S
Eu336 O383 2.432 . S
Eu336 O384 2.291 . S
Eu336 O388 2.335 . S
Eu336 O391 2.372 . S
Eu336 C400 2.787 . S
C337 N338 1.365 . S
C337 C340 1.405 . S
C337 C344 1.448 . S
N338 C337 1.365 . S
N338 C341 1.319 . S
N338 Eu347 2.600 . S
C339 C341 1.397 . S
C339 C342 1.367 . S
C339 H359 0.931 . S
C340 C337 1.405 . S
C340 C342 1.403 . S
C340 C346 1.439 . S
C341 N338 1.319 . S
C341 C339 1.397 . S
C341 H352 0.930 . S
C342 C339 1.367 . S
C342 C340 1.403 . S
C342 H363 0.929 . S
C343 C344 1.430 . S
C343 C345 1.387 . S
C343 C349 1.404 . S
C344 C337 1.448 . S
C344 C343 1.430 . S
C344 N348 1.351 . S
C345 C343 1.387 . S
C345 C346 1.374 . S
C345 H360 0.931 . S
C346 C340 1.439 . S
C346 C345 1.374 . S
C346 H361 0.931 . S
Eu347 N338 2.600 . S
Eu347 N348 2.562 . S
Eu347 O382 2.335 . S
Eu347 O385 2.372 . S
Eu347 O386 2.462 . S
Eu347 O387 2.373 . S
Eu347 O389 2.432 . S
Eu347 O390 2.291 . S
Eu347 C411 2.787 . S
N348 C344 1.351 . S
N348 Eu347 2.562 . S
N348 C350 1.325 . S
C349 C343 1.404 . S
C349 C351 1.366 . S
C349 H357 0.930 . S
C350 N348 1.325 . S
C350 C351 1.416 . S
C350 H356 0.929 . S
C351 C349 1.366 . S
C351 C350 1.416 . S
C351 H353 0.930 . S
H352 C341 0.930 . S
H353 C351 0.930 . S
H354 C369 0.930 . S
H355 C376 0.930 . S
H356 C350 0.929 . S
H357 C349 0.930 . S
H358 C372 0.929 . S
H359 C339 0.931 . S
H360 C345 0.931 . S
H361 C346 0.931 . S
H362 C367 0.931 . S
H363 C342 0.929 . S
H364 C375 0.930 . S
N365 Eu336 2.600 . S
N365 C366 1.365 . S
N365 C369 1.319 . S
C366 N365 1.365 . S
C366 C368 1.405 . S
C366 C374 1.448 . S
C367 H362 0.931 . S
C367 C369 1.397 . S
C367 C370 1.367 . S
C368 C366 1.405 . S
C368 C370 1.403 . S
C368 C401 1.439 . S
C369 H354 0.930 . S
C369 N365 1.319 . S
C369 C367 1.397 . S
C370 C367 1.367 . S
C370 C368 1.403 . S
C370 H377 0.929 . S
N371 Eu336 2.562 . S
N371 C372 1.325 . S
N371 C374 1.351 . S
C372 H358 0.929 . S
C372 N371 1.325 . S
C372 C376 1.416 . S
C373 C374 1.430 . S
C373 C375 1.404 . S
C373 C402 1.387 . S
C374 C366 1.448 . S
C374 N371 1.351 . S
C374 C373 1.430 . S
C375 H364 0.930 . S
C375 C373 1.404 . S
C375 C376 1.366 . S
C376 H355 0.930 . S
C376 C372 1.416 . S
C376 C375 1.366 . S
H377 C370 0.929 . S
H378 C401 0.931 . S
H379 C402 0.931 . S
O380 Eu336 2.462 . S
O380 C400 1.252 . S
O381 Eu336 2.373 . S
O381 C392 1.249 . S
O382 Eu347 2.335 . S
O382 C392 1.264 . S
O383 Eu336 2.432 . S
O383 C400 1.268 . S
O384 Eu336 2.291 . S
O384 C399 1.255 . S
O385 Eu347 2.372 . S
O385 C399 1.257 . S
O386 Eu347 2.462 . S
O386 C411 1.252 . S
O387 Eu347 2.373 . S
O387 C403 1.249 . S
O388 Eu336 2.335 . S
O388 C403 1.264 . S
O389 Eu347 2.432 . S
O389 C411 1.268 . S
O390 Eu347 2.291 . S
O390 C410 1.255 . S
O391 Eu336 2.372 . S
O391 C410 1.257 . S
C392 O381 1.249 . S
C392 O382 1.264 . S
C393 C396 1.382 . S
C393 C398 1.390 . S
C393 C400 1.506 . S
C394 C395 1.398 . S
C394 C398 1.392 . S
C395 C394 1.398 . S
C395 C397 1.372 . S
C395 H412 0.931 . S
C396 C393 1.382 . S
C396 C397 1.390 . S
C396 H413 0.931 . S
C397 C395 1.372 . S
C397 C396 1.390 . S
C397 H414 0.929 . S
C398 C393 1.390 . S
C398 C394 1.392 . S
C398 H415 0.930 . S
C399 O384 1.255 . S
C399 O385 1.257 . S
C400 Eu336 2.787 . S
C400 O380 1.252 . S
C400 O383 1.268 . S
C400 C393 1.506 . S
C401 C368 1.439 . S
C401 H378 0.931 . S
C401 C402 1.374 . S
C402 C373 1.387 . S
C402 H379 0.931 . S
C402 C401 1.374 . S
C403 O387 1.249 . S
C403 O388 1.264 . S
C404 C407 1.382 . S
C404 C408 1.390 . S
C404 C411 1.506 . S
C405 C406 1.398 . S
C405 C408 1.392 . S
C406 C405 1.398 . S
C406 C409 1.372 . S
C406 H416 0.931 . S
C407 C404 1.382 . S
C407 C409 1.390 . S
C407 H417 0.931 . S
C408 C404 1.390 . S
C408 C405 1.392 . S
C408 H418 0.930 . S
C409 C406 1.372 . S
C409 C407 1.390 . S
C409 H419 0.929 . S
C410 O390 1.255 . S
C410 O391 1.257 . S
C411 Eu347 2.787 . S
C411 O386 1.252 . S
C411 O389 1.268 . S
C411 C404 1.506 . S
H412 C395 0.931 . S
H413 C396 0.931 . S
H414 C397 0.929 . S
H415 C398 0.930 . S
H416 C406 0.931 . S
H417 C407 0.931 . S
H418 C408 0.930 . S
H419 C409 0.929 . S
Eu420 N449 2.600 . S
Eu420 N455 2.562 . S
Eu420 O464 2.462 . S
Eu420 O465 2.373 . S
Eu420 O467 2.432 . S
Eu420 O468 2.291 . S
Eu420 O472 2.335 . S
Eu420 O475 2.372 . S
Eu420 C484 2.787 . S
C421 N422 1.365 . S
C421 C424 1.405 . S
C421 C428 1.448 . S
N422 C421 1.365 . S
N422 C425 1.319 . S
N422 Eu431 2.600 . S
C423 C425 1.397 . S
C423 C426 1.367 . S
C423 H443 0.931 . S
C424 C421 1.405 . S
C424 C426 1.403 . S
C424 C430 1.439 . S
C425 N422 1.319 . S
C425 C423 1.397 . S
C425 H436 0.930 . S
C426 C423 1.367 . S
C426 C424 1.403 . S
C426 H447 0.929 . S
C427 C428 1.430 . S
C427 C429 1.387 . S
C427 C433 1.404 . S
C428 C421 1.448 . S
C428 C427 1.430 . S
C428 N432 1.351 . S
C429 C427 1.387 . S
C429 C430 1.374 . S
C429 H444 0.931 . S
C430 C424 1.439 . S
C430 C429 1.374 . S
C430 H445 0.931 . S
Eu431 N422 2.600 . S
Eu431 N432 2.562 . S
Eu431 O466 2.335 1_545 S
Eu431 O469 2.372 . S
Eu431 O470 2.462 1_545 S
Eu431 O471 2.373 . S
Eu431 O473 2.432 1_545 S
Eu431 O474 2.291 . S
Eu431 C495 2.787 1_545 S
N432 C428 1.351 . S
N432 Eu431 2.562 . S
N432 C434 1.325 . S
C433 C427 1.404 . S
C433 C435 1.366 . S
C433 H441 0.930 . S
C434 N432 1.325 . S
C434 C435 1.416 . S
C434 H440 0.929 . S
C435 C433 1.366 . S
C435 C434 1.416 . S
C435 H437 0.930 . S
H436 C425 0.930 . S
H437 C435 0.930 . S
H438 C453 0.930 . S
H439 C460 0.930 . S
H440 C434 0.929 . S
H441 C433 0.930 . S
H442 C456 0.929 . S
H443 C423 0.931 . S
H444 C429 0.931 . S
H445 C430 0.931 . S
H446 C451 0.931 . S
H447 C426 0.929 . S
H448 C459 0.930 . S
N449 Eu420 2.600 . S
N449 C450 1.365 . S
N449 C453 1.319 . S
C450 N449 1.365 . S
C450 C452 1.405 . S
C450 C458 1.448 . S
C451 H446 0.931 . S
C451 C453 1.397 . S
C451 C454 1.367 . S
C452 C450 1.405 . S
C452 C454 1.403 . S
C452 C485 1.439 . S
C453 H438 0.930 . S
C453 N449 1.319 . S
C453 C451 1.397 . S
C454 C451 1.367 . S
C454 C452 1.403 . S
C454 H461 0.929 . S
N455 Eu420 2.562 . S
N455 C456 1.325 . S
N455 C458 1.351 . S
C456 H442 0.929 . S
C456 N455 1.325 . S
C456 C460 1.416 . S
C457 C458 1.430 . S
C457 C459 1.404 . S
C457 C486 1.387 . S
C458 C450 1.448 . S
C458 N455 1.351 . S
C458 C457 1.430 . S
C459 H448 0.930 . S
C459 C457 1.404 . S
C459 C460 1.366 . S
C460 H439 0.930 . S
C460 C456 1.416 . S
C460 C459 1.366 . S
H461 C454 0.929 . S
H462 C485 0.931 1_565 S
H463 C486 0.939 1_565 S
O464 Eu420 2.462 . S
O464 C484 1.252 . S
O465 Eu420 2.373 . S
O465 C476 1.249 1_545 S
O466 Eu431 2.335 1_565 S
O466 C476 1.264 . S
O467 Eu420 2.432 . S
O467 C484 1.268 . S
O468 Eu420 2.291 . S
O468 C483 1.255 . S
O469 Eu431 2.372 . S
O469 C483 1.257 . S
O470 Eu431 2.462 1_565 S
O470 C495 1.252 . S
O471 Eu431 2.373 . S
O471 C487 1.249 . S
O472 Eu420 2.335 . S
O472 C487 1.264 . S
O473 Eu431 2.432 1_565 S
O473 C495 1.268 . S
O474 Eu431 2.291 . S
O474 C494 1.255 . S
O475 Eu420 2.372 . S
O475 C494 1.257 . S
C476 O465 1.249 1_565 S
C476 O466 1.264 . S
C477 C480 1.382 . S
C477 C482 1.390 . S
C477 C484 1.506 . S
C478 C479 1.398 . S
C478 C482 1.392 . S
C479 C478 1.398 . S
C479 C481 1.372 . S
C479 H496 0.931 . S
C480 C477 1.382 . S
C480 C481 1.390 . S
C480 H497 0.931 . S
C481 C479 1.372 . S
C481 C480 1.390 . S
C481 H498 0.929 . S
C482 C477 1.390 . S
C482 C478 1.392 . S
C482 H499 0.930 . S
C483 O468 1.255 . S
C483 O469 1.257 . S
C484 Eu420 2.787 . S
C484 O464 1.252 . S
C484 O467 1.268 . S
C484 C477 1.506 . S
C485 C452 1.439 . S
C485 H462 0.931 1_545 S
C485 C486 1.374 . S
C486 C457 1.387 . S
C486 H463 0.939 1_545 S
C486 C485 1.374 . S
C487 O471 1.249 . S
C487 O472 1.264 . S
C488 C491 1.382 . S
C488 C492 1.390 . S
C488 C495 1.506 . S
C489 C490 1.398 . S
C489 C492 1.392 . S
C490 C489 1.398 . S
C490 C493 1.372 . S
C490 H500 0.931 . S
C491 C488 1.382 . S
C491 C493 1.390 . S
C491 H501 0.931 . S
C492 C488 1.390 . S
C492 C489 1.392 . S
C492 H502 0.930 . S
C493 C490 1.372 . S
C493 C491 1.390 . S
C493 H503 0.929 . S
C494 O474 1.255 . S
C494 O475 1.257 . S
C495 Eu431 2.787 1_565 S
C495 O470 1.252 . S
C495 O473 1.268 . S
C495 C488 1.506 . S
H496 C479 0.931 . S
H497 C480 0.931 . S
H498 C481 0.929 . S
H499 C482 0.930 . S
H500 C490 0.931 . S
H501 C491 0.931 . S
H502 C492 0.930 . S
H503 C493 0.929 . S
Eu504 N533 2.600 . S
Eu504 N539 2.562 . S
Eu504 O548 2.462 . S
Eu504 O549 2.373 . S
Eu504 O551 2.432 . S
Eu504 O552 2.291 . S
Eu504 O556 2.335 . S
Eu504 O559 2.372 . S
Eu504 C568 2.787 . S
C505 N506 1.365 . S
C505 C508 1.405 . S
C505 C512 1.448 . S
N506 C505 1.365 . S
N506 C509 1.319 . S
N506 Eu515 2.600 . S
C507 C509 1.397 . S
C507 C510 1.367 . S
C507 H527 0.931 . S
C508 C505 1.405 . S
C508 C510 1.403 . S
C508 C514 1.439 . S
C509 N506 1.319 . S
C509 C507 1.397 . S
C509 H520 0.930 . S
C510 C507 1.367 . S
C510 C508 1.403 . S
C510 H531 0.929 . S
C511 C512 1.430 . S
C511 C513 1.387 . S
C511 C517 1.404 . S
C512 C505 1.448 . S
C512 C511 1.430 . S
C512 N516 1.351 . S
C513 C511 1.387 . S
C513 C514 1.374 . S
C513 H528 0.931 . S
C514 C508 1.439 . S
C514 C513 1.374 . S
C514 H529 0.931 . S
Eu515 N506 2.600 . S
Eu515 N516 2.562 . S
Eu515 O550 2.335 . S
Eu515 O553 2.372 . S
Eu515 O554 2.462 . S
Eu515 O555 2.373 . S
Eu515 O557 2.432 . S
Eu515 O558 2.291 . S
Eu515 C579 2.787 . S
N516 C512 1.351 . S
N516 Eu515 2.562 . S
N516 C518 1.325 . S
C517 C511 1.404 . S
C517 C519 1.366 . S
C517 H525 0.930 . S
C518 N516 1.325 . S
C518 C519 1.416 . S
C518 H524 0.929 . S
C519 C517 1.366 . S
C519 C518 1.416 . S
C519 H521 0.930 . S
H520 C509 0.930 . S
H521 C519 0.930 . S
H522 C537 0.930 . S
H523 C544 0.930 . S
H524 C518 0.929 . S
H525 C517 0.930 . S
H526 C540 0.929 . S
H527 C507 0.931 . S
H528 C513 0.931 . S
H529 C514 0.931 . S
H530 C535 0.931 . S
H531 C510 0.929 . S
H532 C543 0.930 . S
N533 Eu504 2.600 . S
N533 C534 1.365 . S
N533 C537 1.319 . S
C534 N533 1.365 . S
C534 C536 1.405 . S
C534 C542 1.448 . S
C535 H530 0.931 . S
C535 C537 1.397 . S
C535 C538 1.367 . S
C536 C534 1.405 . S
C536 C538 1.403 . S
C536 C569 1.439 . S
C537 H522 0.930 . S
C537 N533 1.319 . S
C537 C535 1.397 . S
C538 C535 1.367 . S
C538 C536 1.403 . S
C538 H545 0.929 . S
N539 Eu504 2.562 . S
N539 C540 1.325 . S
N539 C542 1.351 . S
C540 H526 0.929 . S
C540 N539 1.325 . S
C540 C544 1.416 . S
C541 C542 1.430 . S
C541 C543 1.404 . S
C541 C570 1.387 . S
C542 C534 1.448 . S
C542 N539 1.351 . S
C542 C541 1.430 . S
C543 H532 0.930 . S
C543 C541 1.404 . S
C543 C544 1.366 . S
C544 H523 0.930 . S
C544 C540 1.416 . S
C544 C543 1.366 . S
H545 C538 0.929 . S
H546 C569 0.931 . S
H547 C570 0.931 . S
O548 Eu504 2.462 . S
O548 C568 1.252 . S
O549 Eu504 2.373 . S
O549 C560 1.249 . S
O550 Eu515 2.335 . S
O550 C560 1.264 . S
O551 Eu504 2.432 . S
O551 C568 1.268 . S
O552 Eu504 2.291 . S
O552 C567 1.255 . S
O553 Eu515 2.372 . S
O553 C567 1.257 . S
O554 Eu515 2.462 . S
O554 C579 1.252 . S
O555 Eu515 2.373 . S
O555 C571 1.249 . S
O556 Eu504 2.335 . S
O556 C571 1.264 . S
O557 Eu515 2.432 . S
O557 C579 1.268 . S
O558 Eu515 2.291 . S
O558 C578 1.255 . S
O559 Eu504 2.372 . S
O559 C578 1.257 . S
C560 O549 1.249 . S
C560 O550 1.264 . S
C561 C564 1.382 . S
C561 C566 1.390 . S
C561 C568 1.506 . S
C562 C563 1.393 1_455 S
C562 C566 1.409 . S
C563 C562 1.393 1_655 S
C563 C565 1.372 1_655 S
C563 H580 0.931 . S
C564 C561 1.382 . S
C564 C565 1.390 . S
C564 H581 0.931 . S
C565 C563 1.372 1_455 S
C565 C564 1.390 . S
C565 H582 0.929 . S
C566 C561 1.390 . S
C566 C562 1.409 . S
C566 H583 0.930 . S
C567 O552 1.255 . S
C567 O553 1.257 . S
C568 Eu504 2.787 . S
C568 O548 1.252 . S
C568 O551 1.268 . S
C568 C561 1.506 . S
C569 C536 1.439 . S
C569 H546 0.931 . S
C569 C570 1.374 . S
C570 C541 1.387 . S
C570 H547 0.931 . S
C570 C569 1.374 . S
C571 O555 1.249 . S
C571 O556 1.264 . S
C572 C575 1.382 . S
C572 C576 1.390 . S
C572 C579 1.506 . S
C573 C574 1.398 . S
C573 C576 1.392 . S
C574 C573 1.398 . S
C574 C577 1.372 . S
C574 H584 0.931 . S
C575 C572 1.382 . S
C575 C577 1.390 . S
C575 H585 0.931 . S
C576 C572 1.390 . S
C576 C573 1.392 . S
C576 H586 0.930 . S
C577 C574 1.372 . S
C577 C575 1.390 . S
C577 H587 0.929 . S
C578 O558 1.255 . S
C578 O559 1.257 . S
C579 Eu515 2.787 . S
C579 O554 1.252 . S
C579 O557 1.268 . S
C579 C572 1.506 . S
H580 C563 0.931 . S
H581 C564 0.931 . S
H582 C565 0.929 . S
H583 C566 0.930 . S
H584 C574 0.931 . S
H585 C575 0.931 . S
H586 C576 0.930 . S
H587 C577 0.929 . S
Eu588 N617 2.600 . S
Eu588 N623 2.562 . S
Eu588 O632 2.462 . S
Eu588 O633 2.373 . S
Eu588 O635 2.432 . S
Eu588 O636 2.291 . S
Eu588 O640 2.335 . S
Eu588 O643 2.372 . S
Eu588 C652 2.787 . S
C589 N590 1.365 . S
C589 C592 1.405 . S
C589 C596 1.448 . S
N590 C589 1.365 . S
N590 C593 1.319 . S
N590 Eu599 2.600 . S
C591 C593 1.397 . S
C591 C594 1.367 . S
C591 H611 0.931 . S
C592 C589 1.405 . S
C592 C594 1.403 . S
C592 C598 1.439 . S
C593 N590 1.319 . S
C593 C591 1.397 . S
C593 H604 0.930 . S
C594 C591 1.367 . S
C594 C592 1.403 . S
C594 H615 0.929 . S
C595 C596 1.430 . S
C595 C597 1.387 1_565 S
C595 C601 1.404 . S
C596 C589 1.448 . S
C596 C595 1.430 . S
C596 N600 1.351 . S
C597 C595 1.387 1_545 S
C597 C598 1.374 1_545 S
C597 H612 0.931 . S
C598 C592 1.439 . S
C598 C597 1.374 1_565 S
C598 H613 0.931 1_565 S
Eu599 N590 2.600 . S
Eu599 N600 2.562 . S
Eu599 O634 2.335 . S
Eu599 O637 2.372 . S
Eu599 O638 2.462 . S
Eu599 O639 2.373 . S
Eu599 O641 2.432 . S
Eu599 O642 2.291 . S
Eu599 C663 2.787 . S
N600 C596 1.351 . S
N600 Eu599 2.562 . S
N600 C602 1.325 . S
C601 C595 1.404 . S
C601 C603 1.366 . S
C601 H609 0.930 1_565 S
C602 N600 1.325 . S
C602 C603 1.416 . S
C602 H608 0.929 . S
C603 C601 1.366 . S
C603 C602 1.416 . S
C603 H605 0.930 . S
H604 C593 0.930 . S
H605 C603 0.930 . S
H606 C621 0.930 . S
H607 C628 0.930 . S
H608 C602 0.929 . S
H609 C601 0.930 1_545 S
H610 C624 0.929 . S
H611 C591 0.931 . S
H612 C597 0.931 . S
H613 C598 0.931 1_545 S
H614 C619 0.931 . S
H615 C594 0.929 . S
H616 C627 0.930 . S
N617 Eu588 2.600 . S
N617 C618 1.365 . S
N617 C621 1.319 . S
C618 N617 1.365 . S
C618 C620 1.405 . S
C618 C626 1.448 . S
C619 H614 0.931 . S
C619 C621 1.397 . S
C619 C622 1.367 . S
C620 C618 1.405 . S
C620 C622 1.403 . S
C620 C653 1.439 . S
C621 H606 0.930 . S
C621 N617 1.319 . S
C621 C619 1.397 . S
C622 C619 1.367 . S
C622 C620 1.403 . S
C622 H629 0.929 . S
N623 Eu588 2.562 . S
N623 C624 1.325 . S
N623 C626 1.351 . S
C624 H610 0.929 . S
C624 N623 1.325 . S
C624 C628 1.416 . S
C625 C626 1.430 . S
C625 C627 1.404 . S
C625 C654 1.387 . S
C626 C618 1.448 . S
C626 N623 1.351 . S
C626 C625 1.430 . S
C627 H616 0.930 . S
C627 C625 1.404 . S
C627 C628 1.366 . S
C628 H607 0.930 . S
C628 C624 1.416 . S
C628 C627 1.366 . S
H629 C622 0.929 . S
H630 C653 0.931 . S
H631 C654 0.931 . S
O632 Eu588 2.462 . S
O632 C652 1.252 . S
O633 Eu588 2.373 . S
O633 C644 1.249 . S
O634 Eu599 2.335 . S
O634 C644 1.264 . S
O635 Eu588 2.432 . S
O635 C652 1.268 . S
O636 Eu588 2.291 . S
O636 C651 1.255 . S
O637 Eu599 2.372 . S
O637 C651 1.257 . S
O638 Eu599 2.462 . S
O638 C663 1.252 . S
O639 Eu599 2.373 . S
O639 C655 1.249 . S
O640 Eu588 2.335 . S
O640 C655 1.264 . S
O641 Eu599 2.432 . S
O641 C663 1.268 . S
O642 Eu599 2.291 . S
O642 C662 1.255 . S
O643 Eu588 2.372 . S
O643 C662 1.257 . S
C644 O633 1.249 . S
C644 O634 1.264 . S
C645 C648 1.382 . S
C645 C650 1.390 . S
C645 C652 1.506 . S
C646 C647 1.398 . S
C646 C650 1.392 . S
C647 C646 1.398 . S
C647 C649 1.372 . S
C647 H664 0.931 . S
C648 C645 1.382 . S
C648 C649 1.390 . S
C648 H665 0.931 . S
C649 C647 1.372 . S
C649 C648 1.390 . S
C649 H666 0.929 . S
C650 C645 1.390 . S
C650 C646 1.392 . S
C650 H667 0.930 . S
C651 O636 1.255 . S
C651 O637 1.257 . S
C652 Eu588 2.787 . S
C652 O632 1.252 . S
C652 O635 1.268 . S
C652 C645 1.506 . S
C653 C620 1.439 . S
C653 H630 0.931 . S
C653 C654 1.374 . S
C654 C625 1.387 . S
C654 H631 0.931 . S
C654 C653 1.374 . S
C655 O639 1.249 . S
C655 O640 1.264 . S
C656 C659 1.382 . S
C656 C660 1.390 . S
C656 C663 1.506 . S
C657 C658 1.398 . S
C657 C660 1.392 . S
C658 C657 1.398 . S
C658 C661 1.372 . S
C658 H668 0.931 . S
C659 C656 1.382 . S
C659 C661 1.390 . S
C659 H669 0.931 . S
C660 C656 1.390 . S
C660 C657 1.392 . S
C660 H670 0.930 . S
C661 C658 1.372 . S
C661 C659 1.390 . S
C661 H671 0.929 . S
C662 O642 1.255 . S
C662 O643 1.257 . S
C663 Eu599 2.787 . S
C663 O638 1.252 . S
C663 O641 1.268 . S
C663 C656 1.506 . S
H664 C647 0.931 . S
H665 C648 0.931 . S
H666 C649 0.929 . S
H667 C650 0.930 . S
H668 C658 0.931 . S
H669 C659 0.931 . S
H670 C660 0.930 . S
H671 C661 0.929 . S
Eu672 N701 2.600 . S
Eu672 N707 2.562 . S
Eu672 O716 2.462 . S
Eu672 O717 2.373 . S
Eu672 O719 2.432 . S
Eu672 O720 2.291 . S
Eu672 O724 2.335 . S
Eu672 O727 2.372 . S
Eu672 C736 2.787 . S
C673 N674 1.365 . S
C673 C676 1.405 . S
C673 C680 1.448 . S
N674 C673 1.365 . S
N674 C677 1.319 . S
N674 Eu683 2.600 . S
C675 C677 1.397 . S
C675 C678 1.367 . S
C675 H695 0.931 . S
C676 C673 1.405 . S
C676 C678 1.403 . S
C676 C682 1.439 . S
C677 N674 1.319 . S
C677 C675 1.397 . S
C677 H688 0.930 . S
C678 C675 1.367 . S
C678 C676 1.403 . S
C678 H699 0.929 . S
C679 C680 1.430 . S
C679 C681 1.387 . S
C679 C685 1.404 . S
C680 C673 1.448 . S
C680 C679 1.430 . S
C680 N684 1.351 . S
C681 C679 1.387 . S
C681 C682 1.374 . S
C681 H696 0.931 . S
C682 C676 1.439 . S
C682 C681 1.374 . S
C682 H697 0.931 . S
Eu683 N674 2.600 . S
Eu683 N684 2.562 . S
Eu683 O718 2.335 . S
Eu683 O721 2.372 . S
Eu683 O722 2.462 . S
Eu683 O723 2.373 . S
Eu683 O725 2.432 . S
Eu683 O726 2.291 . S
Eu683 C747 2.787 . S
N684 C680 1.351 . S
N684 Eu683 2.562 . S
N684 C686 1.325 . S
C685 C679 1.404 . S
C685 C687 1.366 . S
C685 H693 0.930 . S
C686 N684 1.325 . S
C686 C687 1.416 . S
C686 H692 0.929 . S
C687 C685 1.366 . S
C687 C686 1.416 . S
C687 H689 0.930 . S
H688 C677 0.930 . S
H689 C687 0.930 . S
H690 C705 0.930 . S
H691 C712 0.930 . S
H692 C686 0.929 . S
H693 C685 0.930 . S
H694 C708 0.929 . S
H695 C675 0.931 . S
H696 C681 0.931 . S
H697 C682 0.931 . S
H698 C703 0.931 . S
H699 C678 0.929 . S
H700 C711 0.930 1_545 S
N701 Eu672 2.600 . S
N701 C702 1.365 . S
N701 C705 1.319 . S
C702 N701 1.365 . S
C702 C704 1.405 . S
C702 C710 1.448 . S
C703 H698 0.931 . S
C703 C705 1.397 . S
C703 C706 1.367 . S
C704 C702 1.405 . S
C704 C706 1.403 . S
C704 C737 1.439 . S
C705 H690 0.930 . S
C705 N701 1.319 . S
C705 C703 1.397 . S
C706 C703 1.367 . S
C706 C704 1.403 . S
C706 H713 0.929 . S
N707 Eu672 2.562 . S
N707 C708 1.325 . S
N707 C710 1.351 . S
C708 H694 0.929 . S
C708 N707 1.325 . S
C708 C712 1.416 . S
C709 C710 1.430 . S
C709 C711 1.404 . S
C709 C738 1.387 . S
C710 C702 1.448 . S
C710 N707 1.351 . S
C710 C709 1.430 . S
C711 H700 0.930 1_565 S
C711 C709 1.404 . S
C711 C712 1.366 . S
C712 H691 0.930 . S
C712 C708 1.416 . S
C712 C711 1.366 . S
H713 C706 0.929 . S
H714 C737 0.931 . S
H715 C738 0.930 1_545 S
O716 Eu672 2.462 . S
O716 C736 1.252 . S
O717 Eu672 2.373 . S
O717 C728 1.249 . S
O718 Eu683 2.335 . S
O718 C728 1.264 . S
O719 Eu672 2.432 . S
O719 C736 1.268 . S
O720 Eu672 2.291 . S
O720 C735 1.255 . S
O721 Eu683 2.372 . S
O721 C735 1.257 . S
O722 Eu683 2.462 . S
O722 C747 1.252 . S
O723 Eu683 2.373 . S
O723 C739 1.249 . S
O724 Eu672 2.335 . S
O724 C739 1.264 . S
O725 Eu683 2.432 . S
O725 C747 1.268 . S
O726 Eu683 2.291 . S
O726 C746 1.255 . S
O727 Eu672 2.372 . S
O727 C746 1.257 . S
C728 O717 1.249 . S
C728 O718 1.264 . S
C729 C732 1.382 1_565 S
C729 C734 1.390 1_565 S
C729 C736 1.506 . S
C730 C731 1.398 . S
C730 C734 1.392 . S
C731 C730 1.398 . S
C731 C733 1.372 . S
C731 H748 0.931 . S
C732 C729 1.382 1_545 S
C732 C733 1.390 . S
C732 H749 0.931 1_545 S
C733 C731 1.372 . S
C733 C732 1.390 . S
C733 H750 0.929 . S
C734 C729 1.390 1_545 S
C734 C730 1.392 . S
C734 H751 0.930 . S
C735 O720 1.255 . S
C735 O721 1.257 . S
C736 Eu672 2.787 . S
C736 O716 1.252 . S
C736 O719 1.268 . S
C736 C729 1.506 . S
C737 C704 1.439 . S
C737 H714 0.931 . S
C737 C738 1.375 . S
C738 C709 1.387 . S
C738 H715 0.930 1_565 S
C738 C737 1.375 . S
C739 O723 1.249 . S
C739 O724 1.264 . S
C740 C743 1.382 . S
C740 C744 1.390 . S
C740 C747 1.506 . S
C741 C742 1.398 . S
C741 C744 1.392 . S
C742 C741 1.398 . S
C742 C745 1.372 . S
C742 H752 0.931 . S
C743 C740 1.382 . S
C743 C745 1.390 . S
C743 H753 0.931 . S
C744 C740 1.390 . S
C744 C741 1.392 . S
C744 H754 0.930 . S
C745 C742 1.372 . S
C745 C743 1.390 . S
C745 H755 0.929 . S
C746 O726 1.255 . S
C746 O727 1.257 . S
C747 Eu683 2.787 . S
C747 O722 1.252 . S
C747 O725 1.268 . S
C747 C740 1.506 . S
H748 C731 0.931 . S
H749 C732 0.931 1_565 S
H750 C733 0.929 . S
H751 C734 0.930 . S
H752 C742 0.931 . S
H753 C743 0.931 . S
H754 C744 0.930 . S
H755 C745 0.929 . S
Eu756 N785 2.600 . S
Eu756 N791 2.562 . S
Eu756 O800 2.462 . S
Eu756 O801 2.373 . S
Eu756 O803 2.432 . S
Eu756 O804 2.291 . S
Eu756 O808 2.335 . S
Eu756 O811 2.372 . S
Eu756 C820 2.787 . S
C757 N758 1.365 . S
C757 C760 1.405 . S
C757 C764 1.448 . S
N758 C757 1.365 . S
N758 C761 1.319 . S
N758 Eu767 2.600 . S
C759 C761 1.397 . S
C759 C762 1.367 . S
C759 H779 0.931 . S
C760 C757 1.405 . S
C760 C762 1.403 . S
C760 C766 1.439 . S
C761 N758 1.319 . S
C761 C759 1.397 . S
C761 H772 0.930 . S
C762 C759 1.367 . S
C762 C760 1.403 . S
C762 H783 0.929 . S
C763 C764 1.430 . S
C763 C765 1.387 . S
C763 C769 1.404 . S
C764 C757 1.448 . S
C764 C763 1.430 . S
C764 N768 1.351 . S
C765 C763 1.387 . S
C765 C766 1.374 . S
C765 H780 0.931 . S
C766 C760 1.439 . S
C766 C765 1.374 . S
C766 H781 0.931 . S
Eu767 N758 2.600 . S
Eu767 N768 2.562 . S
Eu767 O802 2.335 . S
Eu767 O805 2.372 . S
Eu767 O806 2.462 . S
Eu767 O807 2.373 . S
Eu767 O809 2.432 . S
Eu767 O810 2.291 . S
Eu767 C831 2.787 . S
N768 C764 1.351 . S
N768 Eu767 2.562 . S
N768 C770 1.325 . S
C769 C763 1.404 . S
C769 C771 1.366 . S
C769 H777 0.930 . S
C770 N768 1.325 . S
C770 C771 1.416 . S
C770 H776 0.929 . S
C771 C769 1.366 . S
C771 C770 1.416 . S
C771 H773 0.930 . S
H772 C761 0.930 . S
H773 C771 0.930 . S
H774 C789 0.930 . S
H775 C796 0.930 . S
H776 C770 0.929 . S
H777 C769 0.930 . S
H778 C792 0.929 . S
H779 C759 0.931 . S
H780 C765 0.931 . S
H781 C766 0.931 . S
H782 C787 0.931 . S
H783 C762 0.929 . S
H784 C795 0.930 . S
N785 Eu756 2.600 . S
N785 C786 1.365 . S
N785 C789 1.319 . S
C786 N785 1.365 . S
C786 C788 1.405 . S
C786 C794 1.448 . S
C787 H782 0.931 . S
C787 C789 1.397 . S
C787 C790 1.367 . S
C788 C786 1.405 . S
C788 C790 1.403 . S
C788 C821 1.439 . S
C789 H774 0.930 . S
C789 N785 1.319 . S
C789 C787 1.397 . S
C790 C787 1.367 . S
C790 C788 1.403 . S
C790 H797 0.929 . S
N791 Eu756 2.562 . S
N791 C792 1.325 . S
N791 C794 1.351 . S
C792 H778 0.929 . S
C792 N791 1.325 . S
C792 C796 1.416 . S
C793 C794 1.430 . S
C793 C795 1.404 . S
C793 C822 1.387 . S
C794 C786 1.448 . S
C794 N791 1.351 . S
C794 C793 1.430 . S
C795 H784 0.930 . S
C795 C793 1.404 . S
C795 C796 1.366 . S
C796 H775 0.930 . S
C796 C792 1.416 . S
C796 C795 1.366 . S
H797 C790 0.929 . S
H798 C821 0.931 . S
H799 C822 0.931 . S
O800 Eu756 2.462 . S
O800 C820 1.252 . S
O801 Eu756 2.373 . S
O801 C812 1.249 . S
O802 Eu767 2.335 . S
O802 C812 1.264 . S
O803 Eu756 2.432 . S
O803 C820 1.268 . S
O804 Eu756 2.291 . S
O804 C819 1.255 . S
O805 Eu767 2.372 . S
O805 C819 1.257 . S
O806 Eu767 2.462 . S
O806 C831 1.252 . S
O807 Eu767 2.373 . S
O807 C823 1.249 . S
O808 Eu756 2.335 . S
O808 C823 1.264 . S
O809 Eu767 2.432 . S
O809 C831 1.268 . S
O810 Eu767 2.291 . S
O810 C830 1.255 . S
O811 Eu756 2.372 . S
O811 C830 1.257 . S
C812 O801 1.249 . S
C812 O802 1.264 . S
C813 C816 1.382 . S
C813 C818 1.390 . S
C813 C820 1.506 . S
C814 C815 1.398 . S
C814 C818 1.392 . S
C815 C814 1.398 . S
C815 C817 1.372 . S
C815 H832 0.931 . S
C816 C813 1.382 . S
C816 C817 1.390 . S
C816 H833 0.931 . S
C817 C815 1.372 . S
C817 C816 1.390 . S
C817 H834 0.929 . S
C818 C813 1.390 . S
C818 C814 1.392 . S
C818 H835 0.930 . S
C819 O804 1.255 . S
C819 O805 1.257 . S
C820 Eu756 2.787 . S
C820 O800 1.252 . S
C820 O803 1.268 . S
C820 C813 1.506 . S
C821 C788 1.439 . S
C821 H798 0.931 . S
C821 C822 1.374 . S
C822 C793 1.387 . S
C822 H799 0.931 . S
C822 C821 1.374 . S
C823 O807 1.249 . S
C823 O808 1.264 . S
C824 C827 1.382 . S
C824 C828 1.390 . S
C824 C831 1.506 . S
C825 C826 1.398 . S
C825 C828 1.392 1_545 S
C826 C825 1.398 . S
C826 C829 1.370 . S
C826 H836 0.931 . S
C827 C824 1.382 . S
C827 C829 1.391 1_565 S
C827 H837 0.931 . S
C828 C824 1.390 . S
C828 C825 1.392 1_565 S
C828 H838 0.930 . S
C829 C826 1.370 . S
C829 C827 1.391 1_545 S
C829 H839 0.929 . S
C830 O810 1.255 . S
C830 O811 1.257 . S
C831 Eu767 2.787 . S
C831 O806 1.252 . S
C831 O809 1.268 . S
C831 C824 1.506 . S
H832 C815 0.931 . S
H833 C816 0.931 . S
H834 C817 0.929 . S
H835 C818 0.930 . S
H836 C826 0.931 . S
H837 C827 0.931 . S
H838 C828 0.930 . S
H839 C829 0.929 . S
Eu840 N869 2.600 . S
Eu840 N875 2.562 . S
Eu840 O884 2.462 . S
Eu840 O885 2.373 . S
Eu840 O887 2.432 . S
Eu840 O888 2.291 . S
Eu840 O892 2.335 . S
Eu840 O895 2.372 . S
Eu840 C904 2.787 . S
C841 N842 1.365 . S
C841 C844 1.405 . S
C841 C848 1.448 . S
N842 C841 1.365 . S
N842 C845 1.319 . S
N842 Eu851 2.600 . S
C843 C845 1.397 . S
C843 C846 1.367 . S
C843 H863 0.931 . S
C844 C841 1.405 . S
C844 C846 1.403 . S
C844 C850 1.439 . S
C845 N842 1.319 . S
C845 C843 1.397 . S
C845 H856 0.930 . S
C846 C843 1.367 . S
C846 C844 1.403 . S
C846 H867 0.929 . S
C847 C848 1.430 . S
C847 C849 1.387 . S
C847 C853 1.404 . S
C848 C841 1.448 . S
C848 C847 1.430 . S
C848 N852 1.351 . S
C849 C847 1.387 . S
C849 C850 1.374 . S
C849 H864 0.931 . S
C850 C844 1.439 . S
C850 C849 1.374 . S
C850 H865 0.931 . S
Eu851 N842 2.600 . S
Eu851 N852 2.562 . S
Eu851 O886 2.335 . S
Eu851 O889 2.372 . S
Eu851 O890 2.462 . S
Eu851 O891 2.373 . S
Eu851 O893 2.432 . S
Eu851 O894 2.291 . S
Eu851 C915 2.787 . S
N852 C848 1.351 . S
N852 Eu851 2.562 . S
N852 C854 1.325 . S
C853 C847 1.404 . S
C853 C855 1.366 . S
C853 H861 0.930 . S
C854 N852 1.325 . S
C854 C855 1.416 . S
C854 H860 0.929 . S
C855 C853 1.366 . S
C855 C854 1.416 . S
C855 H857 0.930 . S
H856 C845 0.930 . S
H857 C855 0.930 . S
H858 C873 0.930 . S
H859 C880 0.930 . S
H860 C854 0.929 . S
H861 C853 0.930 . S
H862 C876 0.929 . S
H863 C843 0.931 . S
H864 C849 0.931 . S
H865 C850 0.931 . S
H866 C871 0.931 . S
H867 C846 0.929 . S
H868 C879 0.934 . S
N869 Eu840 2.600 . S
N869 C870 1.365 . S
N869 C873 1.319 . S
C870 N869 1.365 . S
C870 C872 1.405 . S
C870 C878 1.448 . S
C871 H866 0.931 . S
C871 C873 1.397 . S
C871 C874 1.367 . S
C872 C870 1.405 . S
C872 C874 1.403 . S
C872 C905 1.439 1_565 S
C873 H858 0.930 . S
C873 N869 1.319 . S
C873 C871 1.397 . S
C874 C871 1.367 . S
C874 C872 1.403 . S
C874 H881 0.929 . S
N875 Eu840 2.562 . S
N875 C876 1.325 . S
N875 C878 1.351 . S
C876 H862 0.929 . S
C876 N875 1.325 . S
C876 C880 1.416 . S
C877 C878 1.430 . S
C877 C879 1.404 1_565 S
C877 C906 1.387 1_565 S
C878 C870 1.448 . S
C878 N875 1.351 . S
C878 C877 1.430 . S
C879 H868 0.934 . S
C879 C877 1.404 1_545 S
C879 C880 1.363 1_545 S
C880 H859 0.930 . S
C880 C876 1.416 . S
C880 C879 1.363 1_565 S
H881 C874 0.929 . S
H882 C905 0.931 . S
H883 C906 0.931 . S
O884 Eu840 2.462 . S
O884 C904 1.252 . S
O885 Eu840 2.373 . S
O885 C896 1.249 . S
O886 Eu851 2.335 . S
O886 C896 1.264 . S
O887 Eu840 2.432 . S
O887 C904 1.268 . S
O888 Eu840 2.291 . S
O888 C903 1.255 . S
O889 Eu851 2.372 . S
O889 C903 1.257 . S
O890 Eu851 2.462 . S
O890 C915 1.252 . S
O891 Eu851 2.373 . S
O891 C907 1.249 . S
O892 Eu840 2.335 . S
O892 C907 1.264 . S
O893 Eu851 2.432 . S
O893 C915 1.268 . S
O894 Eu851 2.291 . S
O894 C914 1.255 . S
O895 Eu840 2.372 . S
O895 C914 1.257 . S
C896 O885 1.249 . S
C896 O886 1.264 . S
C897 C900 1.382 . S
C897 C902 1.390 . S
C897 C904 1.506 . S
C898 C899 1.398 . S
C898 C902 1.392 . S
C899 C898 1.398 . S
C899 C901 1.372 . S
C899 H916 0.931 . S
C900 C897 1.382 . S
C900 C901 1.390 . S
C900 H917 0.931 . S
C901 C899 1.372 . S
C901 C900 1.390 . S
C901 H918 0.929 . S
C902 C897 1.390 . S
C902 C898 1.392 . S
C902 H919 0.930 . S
C903 O888 1.255 . S
C903 O889 1.257 . S
C904 Eu840 2.787 . S
C904 O884 1.252 . S
C904 O887 1.268 . S
C904 C897 1.506 . S
C905 C872 1.439 1_545 S
C905 H882 0.931 . S
C905 C906 1.374 . S
C906 C877 1.387 1_545 S
C906 H883 0.931 . S
C906 C905 1.374 . S
C907 O891 1.249 . S
C907 O892 1.264 . S
C908 C911 1.382 . S
C908 C912 1.390 . S
C908 C915 1.506 . S
C909 C910 1.398 . S
C909 C912 1.392 . S
C910 C909 1.398 . S
C910 C913 1.372 . S
C910 H920 0.931 . S
C911 C908 1.382 . S
C911 C913 1.390 . S
C911 H921 0.931 . S
C912 C908 1.390 . S
C912 C909 1.392 . S
C912 H922 0.930 . S
C913 C910 1.372 . S
C913 C911 1.390 . S
C913 H923 0.929 . S
C914 O894 1.255 . S
C914 O895 1.257 . S
C915 Eu851 2.787 . S
C915 O890 1.252 . S
C915 O893 1.268 . S
C915 C908 1.506 . S
H916 C899 0.931 . S
H917 C900 0.931 . S
H918 C901 0.929 . S
H919 C902 0.930 . S
H920 C910 0.931 . S
H921 C911 0.931 . S
H922 C912 0.930 . S
H923 C913 0.929 . S
Eu924 N953 2.600 . S
Eu924 N959 2.562 . S
Eu924 O968 2.462 . S
Eu924 O969 2.373 . S
Eu924 O971 2.432 . S
Eu924 O972 2.291 . S
Eu924 O976 2.335 . S
Eu924 O979 2.372 . S
Eu924 C988 2.787 . S
C925 N926 1.365 . S
C925 C928 1.405 . S
C925 C932 1.448 . S
N926 C925 1.365 . S
N926 C929 1.319 . S
N926 Eu935 2.600 . S
C927 C929 1.397 . S
C927 C930 1.367 . S
C927 H947 0.931 . S
C928 C925 1.405 . S
C928 C930 1.403 . S
C928 C934 1.439 . S
C929 N926 1.319 . S
C929 C927 1.397 . S
C929 H940 0.930 . S
C930 C927 1.367 . S
C930 C928 1.403 . S
C930 H951 0.929 . S
C931 C932 1.430 . S
C931 C933 1.387 . S
C931 C937 1.404 . S
C932 C925 1.448 . S
C932 C931 1.430 . S
C932 N936 1.351 . S
C933 C931 1.387 . S
C933 C934 1.374 . S
C933 H948 0.931 . S
C934 C928 1.439 . S
C934 C933 1.374 . S
C934 H949 0.931 . S
Eu935 N926 2.600 . S
Eu935 N936 2.562 . S
Eu935 O970 2.335 . S
Eu935 O973 2.372 . S
Eu935 O974 2.462 . S
Eu935 O975 2.373 . S
Eu935 O977 2.432 . S
Eu935 O978 2.291 . S
Eu935 C999 2.787 . S
N936 C932 1.351 . S
N936 Eu935 2.562 . S
N936 C938 1.325 . S
C937 C931 1.404 . S
C937 C939 1.366 . S
C937 H945 0.930 . S
C938 N936 1.325 . S
C938 C939 1.416 . S
C938 H944 0.929 . S
C939 C937 1.366 . S
C939 C938 1.416 . S
C939 H941 0.930 . S
H940 C929 0.930 . S
H941 C939 0.930 . S
H942 C957 0.930 . S
H943 C964 0.930 . S
H944 C938 0.929 . S
H945 C937 0.930 . S
H946 C960 0.929 . S
H947 C927 0.931 . S
H948 C933 0.931 . S
H949 C934 0.931 . S
H950 C955 0.931 . S
H951 C930 0.929 . S
H952 C963 0.930 . S
N953 Eu924 2.600 . S
N953 C954 1.365 . S
N953 C957 1.319 . S
C954 N953 1.365 . S
C954 C956 1.405 . S
C954 C962 1.448 . S
C955 H950 0.931 . S
C955 C957 1.397 . S
C955 C958 1.367 . S
C956 C954 1.405 . S
C956 C958 1.403 . S
C956 C989 1.439 . S
C957 H942 0.930 . S
C957 N953 1.319 . S
C957 C955 1.397 . S
C958 C955 1.367 . S
C958 C956 1.403 . S
C958 H965 0.929 . S
N959 Eu924 2.562 . S
N959 C960 1.325 . S
N959 C962 1.351 . S
C960 H946 0.929 . S
C960 N959 1.325 . S
C960 C964 1.416 . S
C961 C962 1.430 . S
C961 C963 1.404 . S
C961 C990 1.387 . S
C962 C954 1.448 . S
C962 N959 1.351 . S
C962 C961 1.430 . S
C963 H952 0.930 . S
C963 C961 1.404 . S
C963 C964 1.366 . S
C964 H943 0.930 . S
C964 C960 1.416 . S
C964 C963 1.366 . S
H965 C958 0.929 . S
H966 C989 0.931 . S
H967 C990 0.931 . S
O968 Eu924 2.462 . S
O968 C988 1.252 . S
O969 Eu924 2.373 . S
O969 C980 1.249 . S
O970 Eu935 2.335 . S
O970 C980 1.264 . S
O971 Eu924 2.432 . S
O971 C988 1.268 . S
O972 Eu924 2.291 . S
O972 C987 1.255 . S
O973 Eu935 2.372 . S
O973 C987 1.257 . S
O974 Eu935 2.462 . S
O974 C999 1.252 . S
O975 Eu935 2.373 . S
O975 C991 1.249 . S
O976 Eu924 2.335 . S
O976 C991 1.264 . S
O977 Eu935 2.432 . S
O977 C999 1.268 . S
O978 Eu935 2.291 . S
O978 C998 1.255 . S
O979 Eu924 2.372 . S
O979 C998 1.257 . S
C980 O969 1.249 . S
C980 O970 1.264 . S
C981 C984 1.382 . S
C981 C986 1.390 . S
C981 C988 1.506 . S
C982 C983 1.398 . S
C982 C986 1.392 . S
C983 C982 1.398 . S
C983 C985 1.372 . S
C983 H1000 0.931 . S
C984 C981 1.382 . S
C984 C985 1.390 . S
C984 H1001 0.931 . S
C985 C983 1.372 . S
C985 C984 1.390 . S
C985 H1002 0.929 . S
C986 C981 1.390 . S
C986 C982 1.392 . S
C986 H1003 0.930 . S
C987 O972 1.255 . S
C987 O973 1.257 . S
C988 Eu924 2.787 . S
C988 O968 1.252 . S
C988 O971 1.268 . S
C988 C981 1.506 . S
C989 C956 1.439 . S
C989 H966 0.931 . S
C989 C990 1.374 . S
C990 C961 1.387 . S
C990 H967 0.931 . S
C990 C989 1.374 . S
C991 O975 1.249 . S
C991 O976 1.264 . S
C992 C995 1.382 . S
C992 C996 1.390 . S
C992 C999 1.506 . S
C993 C994 1.398 . S
C993 C996 1.392 . S
C994 C993 1.398 . S
C994 C997 1.372 . S
C994 H1004 0.931 . S
C995 C992 1.382 . S
C995 C997 1.390 . S
C995 H1005 0.931 . S
C996 C992 1.390 . S
C996 C993 1.392 . S
C996 H1006 0.930 . S
C997 C994 1.372 . S
C997 C995 1.390 . S
C997 H1007 0.929 . S
C998 O978 1.255 . S
C998 O979 1.257 . S
C999 Eu935 2.787 . S
C999 O974 1.252 . S
C999 O977 1.268 . S
C999 C992 1.506 . S
H1000 C983 0.931 . S
H1001 C984 0.931 . S
H1002 C985 0.929 . S
H1003 C986 0.930 . S
H1004 C994 0.931 . S
H1005 C995 0.931 . S
H1006 C996 0.930 . S
H1007 C997 0.929 . S
Eu1008 N1037 2.600 . S
Eu1008 N1043 2.562 . S
Eu1008 O1052 2.462 . S
Eu1008 O1053 2.373 . S
Eu1008 O1055 2.432 . S
Eu1008 O1056 2.291 . S
Eu1008 O1060 2.335 . S
Eu1008 O1063 2.372 . S
Eu1008 C1072 2.787 . S
C1009 N1010 1.365 . S
C1009 C1012 1.405 . S
C1009 C1016 1.448 . S
N1010 C1009 1.365 . S
N1010 C1013 1.319 . S
N1010 Eu1019 2.600 . S
C1011 C1013 1.397 . S
C1011 C1014 1.367 . S
C1011 H1031 0.931 . S
C1012 C1009 1.405 . S
C1012 C1014 1.403 . S
C1012 C1018 1.439 . S
C1013 N1010 1.319 . S
C1013 C1011 1.397 . S
C1013 H1024 0.930 . S
C1014 C1011 1.367 . S
C1014 C1012 1.403 . S
C1014 H1035 0.929 . S
C1015 C1016 1.430 . S
C1015 C1017 1.387 . S
C1015 C1021 1.404 . S
C1016 C1009 1.448 . S
C1016 C1015 1.430 . S
C1016 N1020 1.351 . S
C1017 C1015 1.387 . S
C1017 C1018 1.374 . S
C1017 H1032 0.931 . S
C1018 C1012 1.439 . S
C1018 C1017 1.374 . S
C1018 H1033 0.931 . S
Eu1019 N1010 2.600 . S
Eu1019 N1020 2.562 . S
Eu1019 O1054 2.335 . S
Eu1019 O1057 2.372 . S
Eu1019 O1058 2.462 . S
Eu1019 O1059 2.373 . S
Eu1019 O1061 2.432 . S
Eu1019 O1062 2.291 . S
Eu1019 C1083 2.787 . S
N1020 C1016 1.351 . S
N1020 Eu1019 2.562 . S
N1020 C1022 1.325 . S
C1021 C1015 1.404 . S
C1021 C1023 1.366 . S
C1021 H1029 0.930 . S
C1022 N1020 1.325 . S
C1022 C1023 1.416 . S
C1022 H1028 0.929 . S
C1023 C1021 1.366 . S
C1023 C1022 1.416 . S
C1023 H1025 0.930 . S
H1024 C1013 0.930 . S
H1025 C1023 0.930 . S
H1026 C1041 0.930 . S
H1027 C1048 0.930 . S
H1028 C1022 0.929 . S
H1029 C1021 0.930 . S
H1030 C1044 0.929 . S
H1031 C1011 0.931 . S
H1032 C1017 0.931 . S
H1033 C1018 0.931 . S
H1034 C1039 0.931 . S
H1035 C1014 0.929 . S
H1036 C1047 0.930 . S
N1037 Eu1008 2.600 . S
N1037 C1038 1.365 . S
N1037 C1041 1.319 . S
C1038 N1037 1.365 . S
C1038 C1040 1.405 . S
C1038 C1046 1.448 . S
C1039 H1034 0.931 . S
C1039 C1041 1.397 . S
C1039 C1042 1.367 . S
C1040 C1038 1.405 . S
C1040 C1042 1.403 . S
C1040 C1073 1.439 . S
C1041 H1026 0.930 . S
C1041 N1037 1.319 . S
C1041 C1039 1.397 . S
C1042 C1039 1.367 . S
C1042 C1040 1.403 . S
C1042 H1049 0.929 . S
N1043 Eu1008 2.562 . S
N1043 C1044 1.325 . S
N1043 C1046 1.351 . S
C1044 H1030 0.929 . S
C1044 N1043 1.325 . S
C1044 C1048 1.416 . S
C1045 C1046 1.430 . S
C1045 C1047 1.404 . S
C1045 C1074 1.387 . S
C1046 C1038 1.448 . S
C1046 N1043 1.351 . S
C1046 C1045 1.430 . S
C1047 H1036 0.930 . S
C1047 C1045 1.404 . S
C1047 C1048 1.366 . S
C1048 H1027 0.930 . S
C1048 C1044 1.416 . S
C1048 C1047 1.366 . S
H1049 C1042 0.929 . S
H1050 C1073 0.931 . S
H1051 C1074 0.931 . S
O1052 Eu1008 2.462 . S
O1052 C1072 1.252 . S
O1053 Eu1008 2.373 . S
O1053 C1064 1.249 . S
O1054 Eu1019 2.335 . S
O1054 C1064 1.264 . S
O1055 Eu1008 2.432 . S
O1055 C1072 1.268 . S
O1056 Eu1008 2.291 . S
O1056 C1071 1.255 . S
O1057 Eu1019 2.372 . S
O1057 C1071 1.257 . S
O1058 Eu1019 2.462 . S
O1058 C1083 1.252 . S
O1059 Eu1019 2.373 . S
O1059 C1075 1.249 . S
O1060 Eu1008 2.335 . S
O1060 C1075 1.264 . S
O1061 Eu1019 2.432 . S
O1061 C1083 1.268 . S
O1062 Eu1019 2.291 . S
O1062 C1082 1.255 . S
O1063 Eu1008 2.372 . S
O1063 C1082 1.257 . S
C1064 O1053 1.249 . S
C1064 O1054 1.264 . S
C1065 C1068 1.382 . S
C1065 C1070 1.390 . S
C1065 C1072 1.506 . S
C1066 C1067 1.398 . S
C1066 C1070 1.392 . S
C1067 C1066 1.398 . S
C1067 C1069 1.372 . S
C1067 H1084 0.931 . S
C1068 C1065 1.382 . S
C1068 C1069 1.390 . S
C1068 H1085 0.931 . S
C1069 C1067 1.372 . S
C1069 C1068 1.390 . S
C1069 H1086 0.929 . S
C1070 C1065 1.390 . S
C1070 C1066 1.392 . S
C1070 H1087 0.930 . S
C1071 O1056 1.255 . S
C1071 O1057 1.257 . S
C1072 Eu1008 2.787 . S
C1072 O1052 1.252 . S
C1072 O1055 1.268 . S
C1072 C1065 1.506 . S
C1073 C1040 1.439 . S
C1073 H1050 0.931 . S
C1073 C1074 1.374 . S
C1074 C1045 1.387 . S
C1074 H1051 0.931 . S
C1074 C1073 1.374 . S
C1075 O1059 1.249 . S
C1075 O1060 1.264 . S
C1076 C1079 1.382 . S
C1076 C1080 1.390 . S
C1076 C1083 1.506 . S
C1077 C1078 1.398 . S
C1077 C1080 1.392 1_455 S
C1078 C1077 1.398 . S
C1078 C1081 1.370 . S
C1078 H1088 0.931 . S
C1079 C1076 1.382 . S
C1079 C1081 1.391 1_655 S
C1079 H1089 0.931 . S
C1080 C1076 1.390 . S
C1080 C1077 1.392 1_655 S
C1080 H1090 0.930 . S
C1081 C1078 1.370 . S
C1081 C1079 1.391 1_455 S
C1081 H1091 0.929 . S
C1082 O1062 1.255 . S
C1082 O1063 1.257 . S
C1083 Eu1019 2.787 . S
C1083 O1058 1.252 . S
C1083 O1061 1.268 . S
C1083 C1076 1.506 . S
H1084 C1067 0.931 . S
H1085 C1068 0.931 . S
H1086 C1069 0.929 . S
H1087 C1070 0.930 . S
H1088 C1078 0.931 . S
H1089 C1079 0.931 . S
H1090 C1080 0.930 . S
H1091 C1081 0.929 . S
Eu1092 N1121 2.600 . S
Eu1092 N1127 2.562 . S
Eu1092 O1136 2.462 . S
Eu1092 O1137 2.373 . S
Eu1092 O1139 2.432 . S
Eu1092 O1140 2.291 . S
Eu1092 O1144 2.335 . S
Eu1092 O1147 2.372 . S
Eu1092 C1156 2.787 . S
C1093 N1094 1.365 . S
C1093 C1096 1.405 . S
C1093 C1100 1.448 . S
N1094 C1093 1.365 . S
N1094 C1097 1.319 . S
N1094 Eu1103 2.600 . S
C1095 C1097 1.397 . S
C1095 C1098 1.367 . S
C1095 H1115 0.931 . S
C1096 C1093 1.405 . S
C1096 C1098 1.403 . S
C1096 C1102 1.439 . S
C1097 N1094 1.319 . S
C1097 C1095 1.397 . S
C1097 H1108 0.930 . S
C1098 C1095 1.367 . S
C1098 C1096 1.403 . S
C1098 H1119 0.929 . S
C1099 C1100 1.430 . S
C1099 C1101 1.387 . S
C1099 C1105 1.404 . S
C1100 C1093 1.448 . S
C1100 C1099 1.430 . S
C1100 N1104 1.351 . S
C1101 C1099 1.387 . S
C1101 C1102 1.374 . S
C1101 H1116 0.931 . S
C1102 C1096 1.439 . S
C1102 C1101 1.374 . S
C1102 H1117 0.931 . S
Eu1103 N1094 2.600 . S
Eu1103 N1104 2.562 . S
Eu1103 O1138 2.335 . S
Eu1103 O1141 2.372 . S
Eu1103 O1142 2.462 . S
Eu1103 O1143 2.373 . S
Eu1103 O1145 2.432 . S
Eu1103 O1146 2.291 . S
Eu1103 C1167 2.787 . S
N1104 C1100 1.351 . S
N1104 Eu1103 2.562 . S
N1104 C1106 1.325 . S
C1105 C1099 1.404 . S
C1105 C1107 1.366 . S
C1105 H1113 0.930 . S
C1106 N1104 1.325 . S
C1106 C1107 1.416 . S
C1106 H1112 0.929 . S
C1107 C1105 1.366 . S
C1107 C1106 1.416 . S
C1107 H1109 0.930 . S
H1108 C1097 0.930 . S
H1109 C1107 0.930 . S
H1110 C1125 0.930 . S
H1111 C1132 0.930 . S
H1112 C1106 0.929 . S
H1113 C1105 0.930 . S
H1114 C1128 0.929 . S
H1115 C1095 0.931 . S
H1116 C1101 0.931 . S
H1117 C1102 0.931 . S
H1118 C1123 0.931 . S
H1119 C1098 0.929 . S
H1120 C1131 0.930 . S
N1121 Eu1092 2.600 . S
N1121 C1122 1.365 . S
N1121 C1125 1.319 . S
C1122 N1121 1.365 . S
C1122 C1124 1.405 . S
C1122 C1130 1.448 . S
C1123 H1118 0.931 . S
C1123 C1125 1.397 . S
C1123 C1126 1.367 . S
C1124 C1122 1.405 . S
C1124 C1126 1.403 . S
C1124 C1157 1.439 . S
C1125 H1110 0.930 . S
C1125 N1121 1.319 . S
C1125 C1123 1.397 . S
C1126 C1123 1.367 . S
C1126 C1124 1.403 . S
C1126 H1133 0.929 . S
N1127 Eu1092 2.562 . S
N1127 C1128 1.325 . S
N1127 C1130 1.351 . S
C1128 H1114 0.929 . S
C1128 N1127 1.325 . S
C1128 C1132 1.416 . S
C1129 C1130 1.430 . S
C1129 C1131 1.404 . S
C1129 C1158 1.387 . S
C1130 C1122 1.448 . S
C1130 N1127 1.351 . S
C1130 C1129 1.430 . S
C1131 H1120 0.930 . S
C1131 C1129 1.404 . S
C1131 C1132 1.366 . S
C1132 H1111 0.930 . S
C1132 C1128 1.416 . S
C1132 C1131 1.366 . S
H1133 C1126 0.929 . S
H1134 C1157 0.931 . S
H1135 C1158 0.931 . S
O1136 Eu1092 2.462 . S
O1136 C1156 1.252 . S
O1137 Eu1092 2.373 . S
O1137 C1148 1.249 . S
O1138 Eu1103 2.335 . S
O1138 C1148 1.264 . S
O1139 Eu1092 2.432 . S
O1139 C1156 1.268 . S
O1140 Eu1092 2.291 . S
O1140 C1155 1.255 . S
O1141 Eu1103 2.372 . S
O1141 C1155 1.257 . S
O1142 Eu1103 2.462 . S
O1142 C1167 1.252 . S
O1143 Eu1103 2.373 . S
O1143 C1159 1.249 . S
O1144 Eu1092 2.335 . S
O1144 C1159 1.264 . S
O1145 Eu1103 2.432 . S
O1145 C1167 1.268 . S
O1146 Eu1103 2.291 . S
O1146 C1166 1.255 . S
O1147 Eu1092 2.372 . S
O1147 C1166 1.257 . S
C1148 O1137 1.249 . S
C1148 O1138 1.264 . S
C1149 C1152 1.382 . S
C1149 C1154 1.390 . S
C1149 C1156 1.506 . S
C1150 C1151 1.398 . S
C1150 C1154 1.392 . S
C1151 C1150 1.398 . S
C1151 C1153 1.372 . S
C1151 H1168 0.931 . S
C1152 C1149 1.382 . S
C1152 C1153 1.390 . S
C1152 H1169 0.931 . S
C1153 C1151 1.372 . S
C1153 C1152 1.390 . S
C1153 H1170 0.929 . S
C1154 C1149 1.390 . S
C1154 C1150 1.392 . S
C1154 H1171 0.930 . S
C1155 O1140 1.255 . S
C1155 O1141 1.257 . S
C1156 Eu1092 2.787 . S
C1156 O1136 1.252 . S
C1156 O1139 1.268 . S
C1156 C1149 1.506 . S
C1157 C1124 1.439 . S
C1157 H1134 0.931 . S
C1157 C1158 1.374 . S
C1158 C1129 1.387 . S
C1158 H1135 0.931 . S
C1158 C1157 1.374 . S
C1159 O1143 1.249 . S
C1159 O1144 1.264 . S
C1160 C1163 1.382 . S
C1160 C1164 1.390 . S
C1160 C1167 1.506 . S
C1161 C1162 1.398 . S
C1161 C1164 1.392 . S
C1162 C1161 1.398 . S
C1162 C1165 1.372 . S
C1162 H1172 0.931 . S
C1163 C1160 1.382 . S
C1163 C1165 1.390 . S
C1163 H1173 0.931 . S
C1164 C1160 1.390 . S
C1164 C1161 1.392 . S
C1164 H1174 0.930 . S
C1165 C1162 1.372 . S
C1165 C1163 1.390 . S
C1165 H1175 0.929 . S
C1166 O1146 1.255 . S
C1166 O1147 1.257 . S
C1167 Eu1103 2.787 . S
C1167 O1142 1.252 . S
C1167 O1145 1.268 . S
C1167 C1160 1.506 . S
H1168 C1151 0.931 . S
H1169 C1152 0.931 . S
H1170 C1153 0.929 . S
H1171 C1154 0.930 . S
H1172 C1162 0.931 . S
H1173 C1163 0.931 . S
H1174 C1164 0.930 . S
H1175 C1165 0.929 . S
Eu1176 N1205 2.600 . S
Eu1176 N1211 2.562 . S
Eu1176 O1220 2.462 . S
Eu1176 O1221 2.373 . S
Eu1176 O1223 2.432 . S
Eu1176 O1224 2.291 . S
Eu1176 O1228 2.335 . S
Eu1176 O1231 2.372 . S
Eu1176 C1240 2.787 . S
C1177 N1178 1.365 . S
C1177 C1180 1.405 . S
C1177 C1184 1.448 . S
N1178 C1177 1.365 . S
N1178 C1181 1.319 . S
N1178 Eu1187 2.600 . S
C1179 C1181 1.397 . S
C1179 C1182 1.367 . S
C1179 H1199 0.931 . S
C1180 C1177 1.405 . S
C1180 C1182 1.403 . S
C1180 C1186 1.439 . S
C1181 N1178 1.319 . S
C1181 C1179 1.397 . S
C1181 H1192 0.930 . S
C1182 C1179 1.367 . S
C1182 C1180 1.403 . S
C1182 H1203 0.929 . S
C1183 C1184 1.430 . S
C1183 C1185 1.387 . S
C1183 C1189 1.404 . S
C1184 C1177 1.448 . S
C1184 C1183 1.430 . S
C1184 N1188 1.351 . S
C1185 C1183 1.387 . S
C1185 C1186 1.374 . S
C1185 H1200 0.931 . S
C1186 C1180 1.439 . S
C1186 C1185 1.374 . S
C1186 H1201 0.931 . S
Eu1187 N1178 2.600 . S
Eu1187 N1188 2.562 . S
Eu1187 O1222 2.335 . S
Eu1187 O1225 2.372 . S
Eu1187 O1226 2.462 . S
Eu1187 O1227 2.373 . S
Eu1187 O1229 2.432 . S
Eu1187 O1230 2.291 . S
Eu1187 C1251 2.787 . S
N1188 C1184 1.351 . S
N1188 Eu1187 2.562 . S
N1188 C1190 1.325 . S
C1189 C1183 1.404 . S
C1189 C1191 1.366 . S
C1189 H1197 0.930 . S
C1190 N1188 1.325 . S
C1190 C1191 1.416 . S
C1190 H1196 0.929 . S
C1191 C1189 1.366 . S
C1191 C1190 1.416 . S
C1191 H1193 0.930 . S
H1192 C1181 0.930 . S
H1193 C1191 0.930 . S
H1194 C1209 0.930 . S
H1195 C1216 0.930 . S
H1196 C1190 0.929 . S
H1197 C1189 0.930 . S
H1198 C1212 0.929 . S
H1199 C1179 0.931 . S
H1200 C1185 0.931 . S
H1201 C1186 0.931 . S
H1202 C1207 0.931 . S
H1203 C1182 0.929 . S
H1204 C1215 0.934 . S
N1205 Eu1176 2.600 . S
N1205 C1206 1.365 . S
N1205 C1209 1.319 . S
C1206 N1205 1.365 . S
C1206 C1208 1.405 . S
C1206 C1214 1.448 . S
C1207 H1202 0.931 . S
C1207 C1209 1.397 . S
C1207 C1210 1.367 . S
C1208 C1206 1.405 . S
C1208 C1210 1.403 . S
C1208 C1241 1.439 1_655 S
C1209 H1194 0.930 . S
C1209 N1205 1.319 . S
C1209 C1207 1.397 . S
C1210 C1207 1.367 . S
C1210 C1208 1.403 . S
C1210 H1217 0.929 . S
N1211 Eu1176 2.562 . S
N1211 C1212 1.325 . S
N1211 C1214 1.351 . S
C1212 H1198 0.929 . S
C1212 N1211 1.325 . S
C1212 C1216 1.416 . S
C1213 C1214 1.430 . S
C1213 C1215 1.404 1_655 S
C1213 C1242 1.387 1_655 S
C1214 C1206 1.448 . S
C1214 N1211 1.351 . S
C1214 C1213 1.430 . S
C1215 H1204 0.934 . S
C1215 C1213 1.404 1_455 S
C1215 C1216 1.363 1_455 S
C1216 H1195 0.930 . S
C1216 C1212 1.416 . S
C1216 C1215 1.363 1_655 S
H1217 C1210 0.929 . S
H1218 C1241 0.931 . S
H1219 C1242 0.931 . S
O1220 Eu1176 2.462 . S
O1220 C1240 1.252 . S
O1221 Eu1176 2.373 . S
O1221 C1232 1.249 . S
O1222 Eu1187 2.335 . S
O1222 C1232 1.264 . S
O1223 Eu1176 2.432 . S
O1223 C1240 1.268 . S
O1224 Eu1176 2.291 . S
O1224 C1239 1.255 . S
O1225 Eu1187 2.372 . S
O1225 C1239 1.257 . S
O1226 Eu1187 2.462 . S
O1226 C1251 1.252 . S
O1227 Eu1187 2.373 . S
O1227 C1243 1.249 . S
O1228 Eu1176 2.335 . S
O1228 C1243 1.264 . S
O1229 Eu1187 2.432 . S
O1229 C1251 1.268 . S
O1230 Eu1187 2.291 . S
O1230 C1250 1.255 . S
O1231 Eu1176 2.372 . S
O1231 C1250 1.257 . S
C1232 O1221 1.249 . S
C1232 O1222 1.264 . S
C1233 C1236 1.382 . S
C1233 C1238 1.390 . S
C1233 C1240 1.506 . S
C1234 C1235 1.398 . S
C1234 C1238 1.392 . S
C1235 C1234 1.398 . S
C1235 C1237 1.372 . S
C1235 H1252 0.931 . S
C1236 C1233 1.382 . S
C1236 C1237 1.390 . S
C1236 H1253 0.931 . S
C1237 C1235 1.372 . S
C1237 C1236 1.390 . S
C1237 H1254 0.929 . S
C1238 C1233 1.390 . S
C1238 C1234 1.392 . S
C1238 H1255 0.930 . S
C1239 O1224 1.255 . S
C1239 O1225 1.257 . S
C1240 Eu1176 2.787 . S
C1240 O1220 1.252 . S
C1240 O1223 1.268 . S
C1240 C1233 1.506 . S
C1241 C1208 1.439 1_455 S
C1241 H1218 0.931 . S
C1241 C1242 1.374 . S
C1242 C1213 1.387 1_455 S
C1242 H1219 0.931 . S
C1242 C1241 1.374 . S
C1243 O1227 1.249 . S
C1243 O1228 1.264 . S
C1244 C1247 1.382 . S
C1244 C1248 1.390 . S
C1244 C1251 1.506 . S
C1245 C1246 1.398 . S
C1245 C1248 1.392 . S
C1246 C1245 1.398 . S
C1246 C1249 1.372 . S
C1246 H1256 0.931 . S
C1247 C1244 1.382 . S
C1247 C1249 1.390 . S
C1247 H1257 0.931 . S
C1248 C1244 1.390 . S
C1248 C1245 1.392 . S
C1248 H1258 0.930 . S
C1249 C1246 1.372 . S
C1249 C1247 1.390 . S
C1249 H1259 0.929 . S
C1250 O1230 1.255 . S
C1250 O1231 1.257 . S
C1251 Eu1187 2.787 . S
C1251 O1226 1.252 . S
C1251 O1229 1.268 . S
C1251 C1244 1.506 . S
H1252 C1235 0.931 . S
H1253 C1236 0.931 . S
H1254 C1237 0.929 . S
H1255 C1238 0.930 . S
H1256 C1246 0.931 . S
H1257 C1247 0.931 . S
H1258 C1248 0.930 . S
H1259 C1249 0.929 . S
Eu1260 N1289 2.600 . S
Eu1260 N1295 2.562 . S
Eu1260 O1304 2.462 . S
Eu1260 O1305 2.373 . S
Eu1260 O1307 2.432 . S
Eu1260 O1308 2.291 . S
Eu1260 O1312 2.335 . S
Eu1260 O1315 2.372 . S
Eu1260 C1324 2.787 . S
C1261 N1262 1.365 . S
C1261 C1264 1.405 . S
C1261 C1268 1.448 . S
N1262 C1261 1.365 . S
N1262 C1265 1.319 . S
N1262 Eu1271 2.600 . S
C1263 C1265 1.397 . S
C1263 C1266 1.367 . S
C1263 H1283 0.931 . S
C1264 C1261 1.405 . S
C1264 C1266 1.403 . S
C1264 C1270 1.439 . S
C1265 N1262 1.319 . S
C1265 C1263 1.397 . S
C1265 H1276 0.930 . S
C1266 C1263 1.367 . S
C1266 C1264 1.403 . S
C1266 H1287 0.929 . S
C1267 C1268 1.430 . S
C1267 C1269 1.387 . S
C1267 C1273 1.404 . S
C1268 C1261 1.448 . S
C1268 C1267 1.430 . S
C1268 N1272 1.351 . S
C1269 C1267 1.387 . S
C1269 C1270 1.374 . S
C1269 H1284 0.931 . S
C1270 C1264 1.439 . S
C1270 C1269 1.374 . S
C1270 H1285 0.931 . S
Eu1271 N1262 2.600 . S
Eu1271 N1272 2.562 . S
Eu1271 O1306 2.335 . S
Eu1271 O1309 2.372 . S
Eu1271 O1310 2.462 . S
Eu1271 O1311 2.373 . S
Eu1271 O1313 2.432 . S
Eu1271 O1314 2.291 . S
Eu1271 C1335 2.787 . S
N1272 C1268 1.351 . S
N1272 Eu1271 2.562 . S
N1272 C1274 1.325 . S
C1273 C1267 1.404 . S
C1273 C1275 1.366 . S
C1273 H1281 0.930 . S
C1274 N1272 1.325 . S
C1274 C1275 1.416 . S
C1274 H1280 0.929 . S
C1275 C1273 1.366 . S
C1275 C1274 1.416 . S
C1275 H1277 0.930 . S
H1276 C1265 0.930 . S
H1277 C1275 0.930 . S
H1278 C1293 0.930 . S
H1279 C1300 0.930 . S
H1280 C1274 0.929 . S
H1281 C1273 0.930 . S
H1282 C1296 0.929 . S
H1283 C1263 0.931 . S
H1284 C1269 0.931 . S
H1285 C1270 0.931 . S
H1286 C1291 0.931 . S
H1287 C1266 0.929 . S
H1288 C1299 0.930 . S
N1289 Eu1260 2.600 . S
N1289 C1290 1.365 . S
N1289 C1293 1.319 . S
C1290 N1289 1.365 . S
C1290 C1292 1.405 . S
C1290 C1298 1.448 . S
C1291 H1286 0.931 . S
C1291 C1293 1.397 . S
C1291 C1294 1.367 . S
C1292 C1290 1.405 . S
C1292 C1294 1.403 . S
C1292 C1325 1.439 . S
C1293 H1278 0.930 . S
C1293 N1289 1.319 . S
C1293 C1291 1.397 . S
C1294 C1291 1.367 . S
C1294 C1292 1.403 . S
C1294 H1301 0.929 . S
N1295 Eu1260 2.562 . S
N1295 C1296 1.325 . S
N1295 C1298 1.351 . S
C1296 H1282 0.929 . S
C1296 N1295 1.325 . S
C1296 C1300 1.416 . S
C1297 C1298 1.430 . S
C1297 C1299 1.404 . S
C1297 C1326 1.387 . S
C1298 C1290 1.448 . S
C1298 N1295 1.351 . S
C1298 C1297 1.430 . S
C1299 H1288 0.930 . S
C1299 C1297 1.404 . S
C1299 C1300 1.366 . S
C1300 H1279 0.930 . S
C1300 C1296 1.416 . S
C1300 C1299 1.366 . S
H1301 C1294 0.929 . S
H1302 C1325 0.931 . S
H1303 C1326 0.931 . S
O1304 Eu1260 2.462 . S
O1304 C1324 1.252 . S
O1305 Eu1260 2.373 . S
O1305 C1316 1.249 . S
O1306 Eu1271 2.335 . S
O1306 C1316 1.264 . S
O1307 Eu1260 2.432 . S
O1307 C1324 1.268 . S
O1308 Eu1260 2.291 . S
O1308 C1323 1.255 . S
O1309 Eu1271 2.372 . S
O1309 C1323 1.257 . S
O1310 Eu1271 2.462 . S
O1310 C1335 1.252 . S
O1311 Eu1271 2.373 . S
O1311 C1327 1.249 . S
O1312 Eu1260 2.335 . S
O1312 C1327 1.264 . S
O1313 Eu1271 2.432 . S
O1313 C1335 1.268 . S
O1314 Eu1271 2.291 . S
O1314 C1334 1.255 . S
O1315 Eu1260 2.372 . S
O1315 C1334 1.257 . S
C1316 O1305 1.249 . S
C1316 O1306 1.264 . S
C1317 C1320 1.382 . S
C1317 C1322 1.390 . S
C1317 C1324 1.506 . S
C1318 C1319 1.393 1_545 S
C1318 C1322 1.409 . S
C1319 C1318 1.393 1_565 S
C1319 C1321 1.372 1_565 S
C1319 H1336 0.931 . S
C1320 C1317 1.382 . S
C1320 C1321 1.390 . S
C1320 H1337 0.931 . S
C1321 C1319 1.372 1_545 S
C1321 C1320 1.390 . S
C1321 H1338 0.929 . S
C1322 C1317 1.390 . S
C1322 C1318 1.409 . S
C1322 H1339 0.930 . S
C1323 O1308 1.255 . S
C1323 O1309 1.257 . S
C1324 Eu1260 2.787 . S
C1324 O1304 1.252 . S
C1324 O1307 1.268 . S
C1324 C1317 1.506 . S
C1325 C1292 1.439 . S
C1325 H1302 0.931 . S
C1325 C1326 1.374 . S
C1326 C1297 1.387 . S
C1326 H1303 0.931 . S
C1326 C1325 1.374 . S
C1327 O1311 1.249 . S
C1327 O1312 1.264 . S
C1328 C1331 1.382 . S
C1328 C1332 1.390 . S
C1328 C1335 1.506 . S
C1329 C1330 1.398 . S
C1329 C1332 1.392 . S
C1330 C1329 1.398 . S
C1330 C1333 1.372 . S
C1330 H1340 0.931 . S
C1331 C1328 1.382 . S
C1331 C1333 1.390 . S
C1331 H1341 0.931 . S
C1332 C1328 1.390 . S
C1332 C1329 1.392 . S
C1332 H1342 0.930 . S
C1333 C1330 1.372 . S
C1333 C1331 1.390 . S
C1333 H1343 0.929 . S
C1334 O1314 1.255 . S
C1334 O1315 1.257 . S
C1335 Eu1271 2.787 . S
C1335 O1310 1.252 . S
C1335 O1313 1.268 . S
C1335 C1328 1.506 . S
H1336 C1319 0.931 . S
H1337 C1320 0.931 . S
H1338 C1321 0.929 . S
H1339 C1322 0.930 . S
H1340 C1330 0.931 . S
H1341 C1331 0.931 . S
H1342 C1332 0.930 . S
H1343 C1333 0.929 . S
Eu1344 N1373 2.600 . S
Eu1344 N1379 2.562 . S
Eu1344 O1388 2.462 . S
Eu1344 O1389 2.373 . S
Eu1344 O1391 2.432 . S
Eu1344 O1392 2.291 . S
Eu1344 O1396 2.335 . S
Eu1344 O1399 2.372 . S
Eu1344 C1408 2.787 . S
C1345 N1346 1.365 . S
C1345 C1348 1.405 . S
C1345 C1352 1.448 . S
N1346 C1345 1.365 . S
N1346 C1349 1.319 . S
N1346 Eu1355 2.600 . S
C1347 C1349 1.397 . S
C1347 C1350 1.367 . S
C1347 H1367 0.931 . S
C1348 C1345 1.405 . S
C1348 C1350 1.403 . S
C1348 C1354 1.439 . S
C1349 N1346 1.319 . S
C1349 C1347 1.397 . S
C1349 H1360 0.930 . S
C1350 C1347 1.367 . S
C1350 C1348 1.403 . S
C1350 H1371 0.929 . S
C1351 C1352 1.430 . S
C1351 C1353 1.387 . S
C1351 C1357 1.404 . S
C1352 C1345 1.448 . S
C1352 C1351 1.430 . S
C1352 N1356 1.351 . S
C1353 C1351 1.387 . S
C1353 C1354 1.374 . S
C1353 H1368 0.931 . S
C1354 C1348 1.439 . S
C1354 C1353 1.374 . S
C1354 H1369 0.931 . S
Eu1355 N1346 2.600 . S
Eu1355 N1356 2.562 . S
Eu1355 O1390 2.335 . S
Eu1355 O1393 2.372 . S
Eu1355 O1394 2.462 . S
Eu1355 O1395 2.373 . S
Eu1355 O1397 2.432 . S
Eu1355 O1398 2.291 . S
Eu1355 C1419 2.787 . S
N1356 C1352 1.351 . S
N1356 Eu1355 2.562 . S
N1356 C1358 1.325 . S
C1357 C1351 1.404 . S
C1357 C1359 1.366 . S
C1357 H1365 0.930 . S
C1358 N1356 1.325 . S
C1358 C1359 1.416 . S
C1358 H1364 0.929 . S
C1359 C1357 1.366 . S
C1359 C1358 1.416 . S
C1359 H1361 0.930 . S
H1360 C1349 0.930 . S
H1361 C1359 0.930 . S
H1362 C1377 0.930 . S
H1363 C1384 0.930 . S
H1364 C1358 0.929 . S
H1365 C1357 0.930 . S
H1366 C1380 0.929 . S
H1367 C1347 0.931 . S
H1368 C1353 0.931 . S
H1369 C1354 0.931 . S
H1370 C1375 0.931 . S
H1371 C1350 0.929 . S
H1372 C1383 0.930 1_455 S
N1373 Eu1344 2.600 . S
N1373 C1374 1.365 . S
N1373 C1377 1.319 . S
C1374 N1373 1.365 . S
C1374 C1376 1.405 . S
C1374 C1382 1.448 . S
C1375 H1370 0.931 . S
C1375 C1377 1.397 . S
C1375 C1378 1.367 . S
C1376 C1374 1.405 . S
C1376 C1378 1.403 . S
C1376 C1409 1.439 . S
C1377 H1362 0.930 . S
C1377 N1373 1.319 . S
C1377 C1375 1.397 . S
C1378 C1375 1.367 . S
C1378 C1376 1.403 . S
C1378 H1385 0.929 . S
N1379 Eu1344 2.562 . S
N1379 C1380 1.325 . S
N1379 C1382 1.351 . S
C1380 H1366 0.929 . S
C1380 N1379 1.325 . S
C1380 C1384 1.416 . S
C1381 C1382 1.430 . S
C1381 C1383 1.404 . S
C1381 C1410 1.387 . S
C1382 C1374 1.448 . S
C1382 N1379 1.351 . S
C1382 C1381 1.430 . S
C1383 H1372 0.930 1_655 S
C1383 C1381 1.404 . S
C1383 C1384 1.366 . S
C1384 H1363 0.930 . S
C1384 C1380 1.416 . S
C1384 C1383 1.366 . S
H1385 C1378 0.929 . S
H1386 C1409 0.931 . S
H1387 C1410 0.930 1_455 S
O1388 Eu1344 2.462 . S
O1388 C1408 1.252 . S
O1389 Eu1344 2.373 . S
O1389 C1400 1.249 . S
O1390 Eu1355 2.335 . S
O1390 C1400 1.264 . S
O1391 Eu1344 2.432 . S
O1391 C1408 1.268 . S
O1392 Eu1344 2.291 . S
O1392 C1407 1.255 . S
O1393 Eu1355 2.372 . S
O1393 C1407 1.257 . S
O1394 Eu1355 2.462 . S
O1394 C1419 1.252 . S
O1395 Eu1355 2.373 . S
O1395 C1411 1.249 . S
O1396 Eu1344 2.335 . S
O1396 C1411 1.264 . S
O1397 Eu1355 2.432 . S
O1397 C1419 1.268 . S
O1398 Eu1355 2.291 . S
O1398 C1418 1.255 . S
O1399 Eu1344 2.372 . S
O1399 C1418 1.257 . S
C1400 O1389 1.249 . S
C1400 O1390 1.264 . S
C1401 C1404 1.382 1_655 S
C1401 C1406 1.390 1_655 S
C1401 C1408 1.506 . S
C1402 C1403 1.398 . S
C1402 C1406 1.392 . S
C1403 C1402 1.398 . S
C1403 C1405 1.372 . S
C1403 H1420 0.931 . S
C1404 C1401 1.382 1_455 S
C1404 C1405 1.390 . S
C1404 H1421 0.931 1_455 S
C1405 C1403 1.372 . S
C1405 C1404 1.390 . S
C1405 H1422 0.929 . S
C1406 C1401 1.390 1_455 S
C1406 C1402 1.392 . S
C1406 H1423 0.930 . S
C1407 O1392 1.255 . S
C1407 O1393 1.257 . S
C1408 Eu1344 2.787 . S
C1408 O1388 1.252 . S
C1408 O1391 1.268 . S
C1408 C1401 1.506 . S
C1409 C1376 1.439 . S
C1409 H1386 0.931 . S
C1409 C1410 1.375 . S
C1410 C1381 1.387 . S
C1410 H1387 0.930 1_655 S
C1410 C1409 1.375 . S
C1411 O1395 1.249 . S
C1411 O1396 1.264 . S
C1412 C1415 1.382 . S
C1412 C1416 1.390 . S
C1412 C1419 1.506 . S
C1413 C1414 1.398 . S
C1413 C1416 1.392 . S
C1414 C1413 1.398 . S
C1414 C1417 1.372 . S
C1414 H1424 0.931 . S
C1415 C1412 1.382 . S
C1415 C1417 1.390 . S
C1415 H1425 0.931 . S
C1416 C1412 1.390 . S
C1416 C1413 1.392 . S
C1416 H1426 0.930 . S
C1417 C1414 1.372 . S
C1417 C1415 1.390 . S
C1417 H1427 0.929 . S
C1418 O1398 1.255 . S
C1418 O1399 1.257 . S
C1419 Eu1355 2.787 . S
C1419 O1394 1.252 . S
C1419 O1397 1.268 . S
C1419 C1412 1.506 . S
H1420 C1403 0.931 . S
H1421 C1404 0.931 1_655 S
H1422 C1405 0.929 . S
H1423 C1406 0.930 . S
H1424 C1414 0.931 . S
H1425 C1415 0.931 . S
H1426 C1416 0.930 . S
H1427 C1417 0.929 . S
Eu1428 N1457 2.600 . S
Eu1428 N1463 2.562 . S
Eu1428 O1472 2.462 . S
Eu1428 O1473 2.373 . S
Eu1428 O1475 2.432 . S
Eu1428 O1476 2.291 . S
Eu1428 O1480 2.335 . S
Eu1428 O1483 2.372 . S
Eu1428 C1492 2.787 . S
C1429 N1430 1.365 . S
C1429 C1432 1.405 . S
C1429 C1436 1.448 . S
N1430 C1429 1.365 . S
N1430 C1433 1.319 . S
N1430 Eu1439 2.600 . S
C1431 C1433 1.397 . S
C1431 C1434 1.367 . S
C1431 H1451 0.931 . S
C1432 C1429 1.405 . S
C1432 C1434 1.403 . S
C1432 C1438 1.439 . S
C1433 N1430 1.319 . S
C1433 C1431 1.397 . S
C1433 H1444 0.930 . S
C1434 C1431 1.367 . S
C1434 C1432 1.403 . S
C1434 H1455 0.929 . S
C1435 C1436 1.430 . S
C1435 C1437 1.387 1_655 S
C1435 C1441 1.404 . S
C1436 C1429 1.448 . S
C1436 C1435 1.430 . S
C1436 N1440 1.351 . S
C1437 C1435 1.387 1_455 S
C1437 C1438 1.374 1_455 S
C1437 H1452 0.931 . S
C1438 C1432 1.439 . S
C1438 C1437 1.374 1_655 S
C1438 H1453 0.931 1_655 S
Eu1439 N1430 2.600 . S
Eu1439 N1440 2.562 . S
Eu1439 O1474 2.335 . S
Eu1439 O1477 2.372 . S
Eu1439 O1478 2.462 . S
Eu1439 O1479 2.373 . S
Eu1439 O1481 2.432 . S
Eu1439 O1482 2.291 . S
Eu1439 C1503 2.787 . S
N1440 C1436 1.351 . S
N1440 Eu1439 2.562 . S
N1440 C1442 1.325 . S
C1441 C1435 1.404 . S
C1441 C1443 1.366 . S
C1441 H1449 0.930 1_655 S
C1442 N1440 1.325 . S
C1442 C1443 1.416 . S
C1442 H1448 0.929 . S
C1443 C1441 1.366 . S
C1443 C1442 1.416 . S
C1443 H1445 0.930 . S
H1444 C1433 0.930 . S
H1445 C1443 0.930 . S
H1446 C1461 0.930 . S
H1447 C1468 0.930 . S
H1448 C1442 0.929 . S
H1449 C1441 0.930 1_455 S
H1450 C1464 0.929 . S
H1451 C1431 0.931 . S
H1452 C1437 0.931 . S
H1453 C1438 0.931 1_455 S
H1454 C1459 0.931 . S
H1455 C1434 0.929 . S
H1456 C1467 0.930 . S
N1457 Eu1428 2.600 . S
N1457 C1458 1.365 . S
N1457 C1461 1.319 . S
C1458 N1457 1.365 . S
C1458 C1460 1.405 . S
C1458 C1466 1.448 . S
C1459 H1454 0.931 . S
C1459 C1461 1.397 . S
C1459 C1462 1.367 . S
C1460 C1458 1.405 . S
C1460 C1462 1.403 . S
C1460 C1493 1.439 . S
C1461 H1446 0.930 . S
C1461 N1457 1.319 . S
C1461 C1459 1.397 . S
C1462 C1459 1.367 . S
C1462 C1460 1.403 . S
C1462 H1469 0.929 . S
N1463 Eu1428 2.562 . S
N1463 C1464 1.325 . S
N1463 C1466 1.351 . S
C1464 H1450 0.929 . S
C1464 N1463 1.325 . S
C1464 C1468 1.416 . S
C1465 C1466 1.430 . S
C1465 C1467 1.404 . S
C1465 C1494 1.387 . S
C1466 C1458 1.448 . S
C1466 N1463 1.351 . S
C1466 C1465 1.430 . S
C1467 H1456 0.930 . S
C1467 C1465 1.404 . S
C1467 C1468 1.366 . S
C1468 H1447 0.930 . S
C1468 C1464 1.416 . S
C1468 C1467 1.366 . S
H1469 C1462 0.929 . S
H1470 C1493 0.931 . S
H1471 C1494 0.931 . S
O1472 Eu1428 2.462 . S
O1472 C1492 1.252 . S
O1473 Eu1428 2.373 . S
O1473 C1484 1.249 . S
O1474 Eu1439 2.335 . S
O1474 C1484 1.264 . S
O1475 Eu1428 2.432 . S
O1475 C1492 1.268 . S
O1476 Eu1428 2.291 . S
O1476 C1491 1.255 . S
O1477 Eu1439 2.372 . S
O1477 C1491 1.257 . S
O1478 Eu1439 2.462 . S
O1478 C1503 1.252 . S
O1479 Eu1439 2.373 . S
O1479 C1495 1.249 . S
O1480 Eu1428 2.335 . S
O1480 C1495 1.264 . S
O1481 Eu1439 2.432 . S
O1481 C1503 1.268 . S
O1482 Eu1439 2.291 . S
O1482 C1502 1.255 . S
O1483 Eu1428 2.372 . S
O1483 C1502 1.257 . S
C1484 O1473 1.249 . S
C1484 O1474 1.264 . S
C1485 C1488 1.382 . S
C1485 C1490 1.390 . S
C1485 C1492 1.506 . S
C1486 C1487 1.398 . S
C1486 C1490 1.392 . S
C1487 C1486 1.398 . S
C1487 C1489 1.372 . S
C1487 H1504 0.931 . S
C1488 C1485 1.382 . S
C1488 C1489 1.390 . S
C1488 H1505 0.931 . S
C1489 C1487 1.372 . S
C1489 C1488 1.390 . S
C1489 H1506 0.929 . S
C1490 C1485 1.390 . S
C1490 C1486 1.392 . S
C1490 H1507 0.930 . S
C1491 O1476 1.255 . S
C1491 O1477 1.257 . S
C1492 Eu1428 2.787 . S
C1492 O1472 1.252 . S
C1492 O1475 1.268 . S
C1492 C1485 1.506 . S
C1493 C1460 1.439 . S
C1493 H1470 0.931 . S
C1493 C1494 1.374 . S
C1494 C1465 1.387 . S
C1494 H1471 0.931 . S
C1494 C1493 1.374 . S
C1495 O1479 1.249 . S
C1495 O1480 1.264 . S
C1496 C1499 1.382 . S
C1496 C1500 1.390 . S
C1496 C1503 1.506 . S
C1497 C1498 1.398 . S
C1497 C1500 1.392 . S
C1498 C1497 1.398 . S
C1498 C1501 1.372 . S
C1498 H1508 0.931 . S
C1499 C1496 1.382 . S
C1499 C1501 1.390 . S
C1499 H1509 0.931 . S
C1500 C1496 1.390 . S
C1500 C1497 1.392 . S
C1500 H1510 0.930 . S
C1501 C1498 1.372 . S
C1501 C1499 1.390 . S
C1501 H1511 0.929 . S
C1502 O1482 1.255 . S
C1502 O1483 1.257 . S
C1503 Eu1439 2.787 . S
C1503 O1478 1.252 . S
C1503 O1481 1.268 . S
C1503 C1496 1.506 . S
H1504 C1487 0.931 . S
H1505 C1488 0.931 . S
H1506 C1489 0.929 . S
H1507 C1490 0.930 . S
H1508 C1498 0.931 . S
H1509 C1499 0.931 . S
H1510 C1500 0.930 . S
H1511 C1501 0.929 . S
H1512 C1520 0.929 . S
H1513 C1522 0.930 . S
H1514 C1524 0.930 . S
H1515 C1527 0.929 . S
H1516 C1530 0.930 . S
H1517 C1532 0.960 . S
H1518 C1532 0.960 . S
H1519 C1532 0.960 . S
C1520 H1512 0.929 . S
C1520 C1521 1.377 . S
C1520 C1522 1.384 . S
C1521 C1520 1.377 . S
C1521 C1527 1.390 . S
C1522 H1513 0.930 . S
C1522 C1520 1.384 . S
C1522 C1523 1.372 . S
C1523 C1522 1.372 . S
C1523 C1524 1.400 . S
C1523 C1528 1.490 . S
C1524 H1514 0.930 . S
C1524 C1523 1.400 . S
C1524 C1527 1.386 . S
H1525 C1541 0.930 . S
H1526 C1542 0.931 . S
C1527 H1515 0.929 . S
C1527 C1521 1.390 . S
C1527 C1524 1.386 . S
C1528 C1523 1.490 . S
C1528 C1530 1.395 . S
C1528 C1531 1.403 . S
H1529 C1535 0.930 . S
C1530 H1516 0.930 . S
C1530 C1528 1.395 . S
C1530 C1533 1.403 . S
C1531 C1528 1.403 . S
C1531 C1532 1.524 . S
C1531 C1535 1.400 . S
C1532 H1517 0.960 . S
C1532 H1518 0.960 . S
C1532 H1519 0.960 . S
C1532 C1531 1.524 . S
C1533 C1530 1.403 . S
C1533 C1534 1.392 . S
C1533 C1537 1.495 . S
C1534 C1533 1.392 . S
C1534 C1535 1.385 . S
C1534 C1536 1.478 . S
C1535 H1529 0.930 . S
C1535 C1531 1.400 . S
C1535 C1534 1.385 . S
C1536 C1534 1.478 . S
C1536 C1538 1.381 . S
C1536 C1542 1.383 . S
C1537 C1533 1.495 . S
C1537 H1543 0.959 . S
C1537 H1544 0.961 . S
C1537 H1545 0.960 . S
C1538 C1536 1.381 . S
C1538 C1539 1.394 . S
C1538 H1546 0.930 . S
C1539 C1538 1.394 . S
C1539 C1540 1.383 . S
C1539 H1547 0.929 . S
C1540 C1539 1.383 . S
C1540 C1541 1.377 . S
C1541 H1525 0.930 . S
C1541 C1540 1.377 . S
C1541 C1542 1.379 . S
C1542 H1526 0.931 . S
C1542 C1536 1.383 . S
C1542 C1541 1.379 . S
H1543 C1537 0.959 . S
H1544 C1537 0.961 . S
H1545 C1537 0.960 . S
H1546 C1538 0.930 . S
H1547 C1539 0.929 . S
H1548 C1556 0.929 . S
H1549 C1558 0.930 . S
H1550 C1560 0.930 . S
H1551 C1563 0.929 . S
H1552 C1566 0.930 . S
H1553 C1568 0.960 . S
H1554 C1568 0.960 . S
H1555 C1568 0.960 . S
C1556 H1548 0.929 . S
C1556 C1557 1.377 . S
C1556 C1558 1.384 . S
C1557 C1556 1.377 . S
C1557 C1563 1.390 . S
C1558 H1549 0.930 . S
C1558 C1556 1.384 . S
C1558 C1559 1.372 . S
C1559 C1558 1.372 . S
C1559 C1560 1.400 . S
C1559 C1564 1.490 . S
C1560 H1550 0.930 . S
C1560 C1559 1.400 . S
C1560 C1563 1.386 . S
H1561 C1577 0.930 . S
H1562 C1578 0.931 . S
C1563 H1551 0.929 . S
C1563 C1557 1.390 . S
C1563 C1560 1.386 . S
C1564 C1559 1.490 . S
C1564 C1566 1.395 . S
C1564 C1567 1.403 . S
H1565 C1571 0.930 . S
C1566 H1552 0.930 . S
C1566 C1564 1.395 . S
C1566 C1569 1.403 . S
C1567 C1564 1.403 . S
C1567 C1568 1.524 . S
C1567 C1571 1.400 . S
C1568 H1553 0.960 . S
C1568 H1554 0.960 . S
C1568 H1555 0.960 . S
C1568 C1567 1.524 . S
C1569 C1566 1.403 . S
C1569 C1570 1.392 . S
C1569 C1573 1.495 . S
C1570 C1569 1.392 . S
C1570 C1571 1.385 . S
C1570 C1572 1.478 . S
C1571 H1565 0.930 . S
C1571 C1567 1.400 . S
C1571 C1570 1.385 . S
C1572 C1570 1.478 . S
C1572 C1574 1.381 . S
C1572 C1578 1.383 . S
C1573 C1569 1.495 . S
C1573 H1579 0.959 . S
C1573 H1580 0.961 . S
C1573 H1581 0.960 . S
C1574 C1572 1.381 . S
C1574 C1575 1.394 . S
C1574 H1582 0.930 . S
C1575 C1574 1.394 . S
C1575 C1576 1.383 . S
C1575 H1583 0.929 . S
C1576 C1575 1.383 . S
C1576 C1577 1.377 . S
C1577 H1561 0.930 . S
C1577 C1576 1.377 . S
C1577 C1578 1.379 . S
C1578 H1562 0.931 . S
C1578 C1572 1.383 . S
C1578 C1577 1.379 . S
H1579 C1573 0.959 . S
H1580 C1573 0.961 . S
H1581 C1573 0.960 . S
H1582 C1574 0.930 . S
H1583 C1575 0.929 . S
H1584 C1592 0.929 . S
H1585 C1594 0.930 . S
H1586 C1596 0.930 . S
H1587 C1599 0.929 . S
H1588 C1602 0.930 . S
H1589 C1604 0.960 . S
H1590 C1604 0.960 . S
H1591 C1604 0.960 . S
C1592 H1584 0.929 . S
C1592 C1593 1.377 . S
C1592 C1594 1.384 . S
C1593 C1592 1.377 . S
C1593 C1599 1.390 . S
C1594 H1585 0.930 . S
C1594 C1592 1.384 . S
C1594 C1595 1.372 . S
C1595 C1594 1.372 . S
C1595 C1596 1.400 . S
C1595 C1600 1.490 . S
C1596 H1586 0.930 . S
C1596 C1595 1.400 . S
C1596 C1599 1.386 . S
H1597 C1613 0.930 . S
H1598 C1614 0.931 . S
C1599 H1587 0.929 . S
C1599 C1593 1.390 . S
C1599 C1596 1.386 . S
C1600 C1595 1.490 . S
C1600 C1602 1.395 . S
C1600 C1603 1.403 . S
H1601 C1607 0.930 . S
C1602 H1588 0.930 . S
C1602 C1600 1.395 . S
C1602 C1605 1.403 . S
C1603 C1600 1.403 . S
C1603 C1604 1.524 . S
C1603 C1607 1.400 . S
C1604 H1589 0.960 . S
C1604 H1590 0.960 . S
C1604 H1591 0.960 . S
C1604 C1603 1.524 . S
C1605 C1602 1.403 . S
C1605 C1606 1.392 . S
C1605 C1609 1.495 . S
C1606 C1605 1.392 . S
C1606 C1607 1.385 . S
C1606 C1608 1.478 . S
C1607 H1601 0.930 . S
C1607 C1603 1.400 . S
C1607 C1606 1.385 . S
C1608 C1606 1.478 . S
C1608 C1610 1.381 . S
C1608 C1614 1.383 . S
C1609 C1605 1.495 . S
C1609 H1615 0.959 . S
C1609 H1616 0.961 . S
C1609 H1617 0.960 . S
C1610 C1608 1.381 . S
C1610 C1611 1.394 . S
C1610 H1618 0.930 . S
C1611 C1610 1.394 . S
C1611 C1612 1.383 . S
C1611 H1619 0.929 . S
C1612 C1611 1.383 . S
C1612 C1613 1.377 . S
C1613 H1597 0.930 . S
C1613 C1612 1.377 . S
C1613 C1614 1.379 . S
C1614 H1598 0.931 . S
C1614 C1608 1.383 . S
C1614 C1613 1.379 . S
H1615 C1609 0.959 . S
H1616 C1609 0.961 . S
H1617 C1609 0.960 . S
H1618 C1610 0.930 . S
H1619 C1611 0.929 . S
H1620 C1628 0.929 . S
H1621 C1630 0.930 . S
H1622 C1632 0.930 . S
H1623 C1635 0.929 . S
H1624 C1638 0.930 . S
H1625 C1640 0.960 . S
H1626 C1640 0.960 . S
H1627 C1640 0.960 . S
C1628 H1620 0.929 . S
C1628 C1629 1.377 . S
C1628 C1630 1.384 . S
C1629 C1628 1.377 . S
C1629 C1635 1.390 . S
C1630 H1621 0.930 . S
C1630 C1628 1.384 . S
C1630 C1631 1.372 . S
C1631 C1630 1.372 . S
C1631 C1632 1.400 . S
C1631 C1636 1.490 . S
C1632 H1622 0.930 . S
C1632 C1631 1.400 . S
C1632 C1635 1.386 . S
H1633 C1649 0.930 . S
H1634 C1650 0.931 . S
C1635 H1623 0.929 . S
C1635 C1629 1.390 . S
C1635 C1632 1.386 . S
C1636 C1631 1.490 . S
C1636 C1638 1.395 . S
C1636 C1639 1.403 . S
H1637 C1643 0.930 . S
C1638 H1624 0.930 . S
C1638 C1636 1.395 . S
C1638 C1641 1.403 . S
C1639 C1636 1.403 . S
C1639 C1640 1.524 . S
C1639 C1643 1.400 . S
C1640 H1625 0.960 . S
C1640 H1626 0.960 . S
C1640 H1627 0.960 . S
C1640 C1639 1.524 . S
C1641 C1638 1.403 . S
C1641 C1642 1.392 . S
C1641 C1645 1.495 . S
C1642 C1641 1.392 . S
C1642 C1643 1.385 . S
C1642 C1644 1.478 . S
C1643 H1637 0.930 . S
C1643 C1639 1.400 . S
C1643 C1642 1.385 . S
C1644 C1642 1.478 . S
C1644 C1646 1.381 . S
C1644 C1650 1.383 . S
C1645 C1641 1.495 . S
C1645 H1651 0.959 . S
C1645 H1652 0.961 . S
C1645 H1653 0.960 . S
C1646 C1644 1.381 . S
C1646 C1647 1.394 . S
C1646 H1654 0.930 . S
C1647 C1646 1.394 . S
C1647 C1648 1.383 . S
C1647 H1655 0.929 . S
C1648 C1647 1.383 . S
C1648 C1649 1.377 . S
C1649 H1633 0.930 . S
C1649 C1648 1.377 . S
C1649 C1650 1.379 . S
C1650 H1634 0.931 . S
C1650 C1644 1.383 . S
C1650 C1649 1.379 . S
H1651 C1645 0.959 . S
H1652 C1645 0.961 . S
H1653 C1645 0.960 . S
H1654 C1646 0.930 . S
H1655 C1647 0.929 . S
H1656 C1664 0.929 . S
H1657 C1666 0.930 . S
H1658 C1668 0.930 . S
H1659 C1671 0.929 . S
H1660 C1674 0.930 . S
H1661 C1676 0.960 . S
H1662 C1676 0.960 . S
H1663 C1676 0.960 . S
C1664 H1656 0.929 . S
C1664 C1665 1.377 . S
C1664 C1666 1.384 . S
C1665 C1664 1.377 . S
C1665 C1671 1.390 . S
C1666 H1657 0.930 . S
C1666 C1664 1.384 . S
C1666 C1667 1.372 . S
C1667 C1666 1.372 . S
C1667 C1668 1.400 . S
C1667 C1672 1.490 . S
C1668 H1658 0.930 . S
C1668 C1667 1.400 . S
C1668 C1671 1.386 . S
H1669 C1685 0.930 . S
H1670 C1686 0.931 . S
C1671 H1659 0.929 . S
C1671 C1665 1.390 . S
C1671 C1668 1.386 . S
C1672 C1667 1.490 . S
C1672 C1674 1.395 . S
C1672 C1675 1.403 . S
H1673 C1679 0.930 . S
C1674 H1660 0.930 . S
C1674 C1672 1.395 . S
C1674 C1677 1.403 . S
C1675 C1672 1.403 . S
C1675 C1676 1.524 . S
C1675 C1679 1.400 . S
C1676 H1661 0.960 . S
C1676 H1662 0.960 . S
C1676 H1663 0.960 . S
C1676 C1675 1.524 . S
C1677 C1674 1.403 . S
C1677 C1678 1.392 . S
C1677 C1681 1.495 . S
C1678 C1677 1.392 . S
C1678 C1679 1.385 . S
C1678 C1680 1.478 . S
C1679 H1673 0.930 . S
C1679 C1675 1.400 . S
C1679 C1678 1.385 . S
C1680 C1678 1.478 . S
C1680 C1682 1.381 . S
C1680 C1686 1.383 . S
C1681 C1677 1.495 . S
C1681 H1687 0.959 . S
C1681 H1688 0.961 . S
C1681 H1689 0.960 . S
C1682 C1680 1.381 . S
C1682 C1683 1.394 . S
C1682 H1690 0.930 . S
C1683 C1682 1.394 . S
C1683 C1684 1.383 . S
C1683 H1691 0.929 . S
C1684 C1683 1.383 . S
C1684 C1685 1.377 . S
C1685 H1669 0.930 . S
C1685 C1684 1.377 . S
C1685 C1686 1.379 . S
C1686 H1670 0.931 . S
C1686 C1680 1.383 . S
C1686 C1685 1.379 . S
H1687 C1681 0.959 . S
H1688 C1681 0.961 . S
H1689 C1681 0.960 . S
H1690 C1682 0.930 . S
H1691 C1683 0.929 . S
H1692 C1700 0.929 . S
H1693 C1702 0.930 . S
H1694 C1704 0.930 . S
H1695 C1707 0.929 . S
H1696 C1710 0.930 . S
H1697 C1712 0.960 . S
H1698 C1712 0.960 . S
H1699 C1712 0.960 . S
C1700 H1692 0.929 . S
C1700 C1701 1.377 . S
C1700 C1702 1.384 . S
C1701 C1700 1.377 . S
C1701 C1707 1.390 . S
C1702 H1693 0.930 . S
C1702 C1700 1.384 . S
C1702 C1703 1.372 . S
C1703 C1702 1.372 . S
C1703 C1704 1.400 . S
C1703 C1708 1.490 . S
C1704 H1694 0.930 . S
C1704 C1703 1.400 . S
C1704 C1707 1.386 . S
H1705 C1721 0.930 . S
H1706 C1722 0.931 . S
C1707 H1695 0.929 . S
C1707 C1701 1.390 . S
C1707 C1704 1.386 . S
C1708 C1703 1.490 . S
C1708 C1710 1.395 . S
C1708 C1711 1.403 . S
H1709 C1715 0.930 . S
C1710 H1696 0.930 . S
C1710 C1708 1.395 . S
C1710 C1713 1.403 . S
C1711 C1708 1.403 . S
C1711 C1712 1.524 . S
C1711 C1715 1.400 . S
C1712 H1697 0.960 . S
C1712 H1698 0.960 . S
C1712 H1699 0.960 . S
C1712 C1711 1.524 . S
C1713 C1710 1.403 . S
C1713 C1714 1.392 . S
C1713 C1717 1.495 . S
C1714 C1713 1.392 . S
C1714 C1715 1.385 . S
C1714 C1716 1.478 . S
C1715 H1709 0.930 . S
C1715 C1711 1.400 . S
C1715 C1714 1.385 . S
C1716 C1714 1.478 . S
C1716 C1718 1.381 . S
C1716 C1722 1.383 . S
C1717 C1713 1.495 . S
C1717 H1723 0.959 . S
C1717 H1724 0.961 . S
C1717 H1725 0.960 . S
C1718 C1716 1.381 . S
C1718 C1719 1.394 . S
C1718 H1726 0.930 . S
C1719 C1718 1.394 . S
C1719 C1720 1.383 . S
C1719 H1727 0.929 . S
C1720 C1719 1.383 . S
C1720 C1721 1.377 . S
C1721 H1705 0.930 . S
C1721 C1720 1.377 . S
C1721 C1722 1.379 . S
C1722 H1706 0.931 . S
C1722 C1716 1.383 . S
C1722 C1721 1.379 . S
H1723 C1717 0.959 . S
H1724 C1717 0.961 . S
H1725 C1717 0.960 . S
H1726 C1718 0.930 . S
H1727 C1719 0.929 . S
H1728 C1736 0.929 . S
H1729 C1738 0.930 . S
H1730 C1740 0.930 . S
H1731 C1743 0.929 . S
H1732 C1746 0.930 . S
H1733 C1748 0.960 . S
H1734 C1748 0.960 . S
H1735 C1748 0.960 . S
C1736 H1728 0.929 . S
C1736 C1737 1.377 . S
C1736 C1738 1.384 . S
C1737 C1736 1.377 . S
C1737 C1743 1.390 . S
C1738 H1729 0.930 . S
C1738 C1736 1.384 . S
C1738 C1739 1.372 . S
C1739 C1738 1.372 . S
C1739 C1740 1.400 . S
C1739 C1744 1.490 . S
C1740 H1730 0.930 . S
C1740 C1739 1.400 . S
C1740 C1743 1.386 . S
H1741 C1757 0.930 . S
H1742 C1758 0.931 . S
C1743 H1731 0.929 . S
C1743 C1737 1.390 . S
C1743 C1740 1.386 . S
C1744 C1739 1.490 . S
C1744 C1746 1.395 . S
C1744 C1747 1.403 . S
H1745 C1751 0.930 . S
C1746 H1732 0.930 . S
C1746 C1744 1.395 . S
C1746 C1749 1.403 . S
C1747 C1744 1.403 . S
C1747 C1748 1.524 . S
C1747 C1751 1.400 . S
C1748 H1733 0.960 . S
C1748 H1734 0.960 . S
C1748 H1735 0.960 . S
C1748 C1747 1.524 . S
C1749 C1746 1.403 . S
C1749 C1750 1.392 . S
C1749 C1753 1.495 . S
C1750 C1749 1.392 . S
C1750 C1751 1.385 . S
C1750 C1752 1.478 . S
C1751 H1745 0.930 . S
C1751 C1747 1.400 . S
C1751 C1750 1.385 . S
C1752 C1750 1.478 . S
C1752 C1754 1.381 . S
C1752 C1758 1.383 . S
C1753 C1749 1.495 . S
C1753 H1759 0.959 . S
C1753 H1760 0.961 . S
C1753 H1761 0.960 . S
C1754 C1752 1.381 . S
C1754 C1755 1.394 . S
C1754 H1762 0.930 . S
C1755 C1754 1.394 . S
C1755 C1756 1.383 . S
C1755 H1763 0.929 . S
C1756 C1755 1.383 . S
C1756 C1757 1.377 . S
C1757 H1741 0.930 . S
C1757 C1756 1.377 . S
C1757 C1758 1.379 . S
C1758 H1742 0.931 . S
C1758 C1752 1.383 . S
C1758 C1757 1.379 . S
H1759 C1753 0.959 . S
H1760 C1753 0.961 . S
H1761 C1753 0.960 . S
H1762 C1754 0.930 . S
H1763 C1755 0.929 . S
H1764 C1772 0.929 . S
H1765 C1774 0.930 . S
H1766 C1776 0.930 . S
H1767 C1779 0.917 1_455 S
H1768 C1782 0.930 . S
H1769 C1784 0.960 . S
H1770 C1784 0.960 . S
H1771 C1784 0.960 . S
C1772 H1764 0.929 . S
C1772 C1773 1.377 . S
C1772 C1774 1.384 . S
C1773 C1772 1.377 . S
C1773 C1779 1.390 . S
C1774 H1765 0.930 . S
C1774 C1772 1.384 . S
C1774 C1775 1.372 . S
C1775 C1774 1.372 . S
C1775 C1776 1.400 . S
C1775 C1780 1.490 . S
C1776 H1766 0.930 . S
C1776 C1775 1.400 . S
C1776 C1779 1.386 . S
H1777 C1793 0.930 . S
H1778 C1794 0.931 . S
C1779 H1767 0.917 1_655 S
C1779 C1773 1.390 . S
C1779 C1776 1.386 . S
C1780 C1775 1.490 . S
C1780 C1782 1.395 . S
C1780 C1783 1.403 . S
H1781 C1787 0.900 1_565 S
C1782 H1768 0.930 . S
C1782 C1780 1.395 . S
C1782 C1785 1.403 . S
C1783 C1780 1.403 . S
C1783 C1784 1.524 . S
C1783 C1787 1.400 . S
C1784 H1769 0.960 . S
C1784 H1770 0.960 . S
C1784 H1771 0.960 . S
C1784 C1783 1.524 . S
C1785 C1782 1.403 . S
C1785 C1786 1.392 . S
C1785 C1789 1.495 . S
C1786 C1785 1.392 . S
C1786 C1787 1.385 . S
C1786 C1788 1.478 1_545 S
C1787 H1781 0.900 1_545 S
C1787 C1783 1.400 . S
C1787 C1786 1.385 . S
C1788 C1786 1.478 1_565 S
C1788 C1790 1.381 . S
C1788 C1794 1.383 . S
C1789 C1785 1.495 . S
C1789 H1795 0.959 . S
C1789 H1796 0.961 . S
C1789 H1797 0.960 . S
C1790 C1788 1.381 . S
C1790 C1791 1.394 . S
C1790 H1798 0.930 . S
C1791 C1790 1.394 . S
C1791 C1792 1.383 . S
C1791 H1799 0.929 . S
C1792 C1791 1.383 . S
C1792 C1793 1.377 . S
C1793 H1777 0.930 . S
C1793 C1792 1.377 . S
C1793 C1794 1.379 . S
C1794 H1778 0.931 . S
C1794 C1788 1.383 . S
C1794 C1793 1.379 . S
H1795 C1789 0.959 . S
H1796 C1789 0.961 . S
H1797 C1789 0.960 . S
H1798 C1790 0.930 . S
H1799 C1791 0.929 . S
H1800 C1808 0.929 . S
H1801 C1810 0.930 . S
H1802 C1812 0.930 . S
H1803 C1815 0.929 . S
H1804 C1818 0.930 . S
H1805 C1820 0.960 1_655 S
H1806 C1820 0.960 . S
H1807 C1820 0.960 . S
C1808 H1800 0.929 . S
C1808 C1809 1.377 . S
C1808 C1810 1.384 . S
C1809 C1808 1.377 . S
C1809 C1815 1.390 . S
C1810 H1801 0.930 . S
C1810 C1808 1.384 . S
C1810 C1811 1.372 . S
C1811 C1810 1.372 . S
C1811 C1812 1.400 . S
C1811 C1816 1.490 . S
C1812 H1802 0.930 . S
C1812 C1811 1.400 . S
C1812 C1815 1.386 . S
H1813 C1829 0.930 . S
H1814 C1830 0.931 . S
C1815 H1803 0.929 . S
C1815 C1809 1.390 . S
C1815 C1812 1.386 . S
C1816 C1811 1.490 . S
C1816 C1818 1.395 . S
C1816 C1819 1.403 . S
H1817 C1823 0.930 . S
C1818 H1804 0.930 . S
C1818 C1816 1.395 . S
C1818 C1821 1.403 1_455 S
C1819 C1816 1.403 . S
C1819 C1820 1.524 . S
C1819 C1823 1.400 1_455 S
C1820 H1805 0.960 1_455 S
C1820 H1806 0.960 . S
C1820 H1807 0.960 . S
C1820 C1819 1.524 . S
C1821 C1818 1.403 1_655 S
C1821 C1822 1.392 . S
C1821 C1825 1.495 . S
C1822 C1821 1.392 . S
C1822 C1823 1.385 . S
C1822 C1824 1.478 . S
C1823 H1817 0.930 . S
C1823 C1819 1.400 1_655 S
C1823 C1822 1.385 . S
C1824 C1822 1.478 . S
C1824 C1826 1.381 . S
C1824 C1830 1.383 . S
C1825 C1821 1.495 . S
C1825 H1831 0.959 1_655 S
C1825 H1832 0.961 . S
C1825 H1833 0.960 . S
C1826 C1824 1.381 . S
C1826 C1827 1.394 . S
C1826 H1834 0.930 . S
C1827 C1826 1.394 . S
C1827 C1828 1.383 . S
C1827 H1835 0.929 . S
C1828 C1827 1.383 . S
C1828 C1829 1.377 . S
C1829 H1813 0.930 . S
C1829 C1828 1.377 . S
C1829 C1830 1.379 . S
C1830 H1814 0.931 . S
C1830 C1824 1.383 . S
C1830 C1829 1.379 . S
H1831 C1825 0.959 1_455 S
H1832 C1825 0.961 . S
H1833 C1825 0.960 . S
H1834 C1826 0.930 . S
H1835 C1827 0.929 . S
H1836 C1844 0.929 . S
H1837 C1846 0.930 . S
H1838 C1848 0.930 . S
H1839 C1851 0.929 . S
H1840 C1854 0.930 . S
H1841 C1856 0.960 . S
H1842 C1856 0.960 . S
H1843 C1856 0.960 . S
C1844 H1836 0.929 . S
C1844 C1845 1.377 . S
C1844 C1846 1.384 . S
C1845 C1844 1.377 . S
C1845 C1851 1.390 . S
C1846 H1837 0.930 . S
C1846 C1844 1.384 . S
C1846 C1847 1.372 . S
C1847 C1846 1.372 . S
C1847 C1848 1.400 . S
C1847 C1852 1.490 . S
C1848 H1838 0.930 . S
C1848 C1847 1.400 . S
C1848 C1851 1.386 . S
H1849 C1865 0.930 . S
H1850 C1866 0.931 . S
C1851 H1839 0.929 . S
C1851 C1845 1.390 . S
C1851 C1848 1.386 . S
C1852 C1847 1.490 . S
C1852 C1854 1.395 . S
C1852 C1855 1.403 . S
H1853 C1859 0.930 . S
C1854 H1840 0.930 . S
C1854 C1852 1.395 . S
C1854 C1857 1.403 . S
C1855 C1852 1.403 . S
C1855 C1856 1.524 . S
C1855 C1859 1.400 . S
C1856 H1841 0.960 . S
C1856 H1842 0.960 . S
C1856 H1843 0.960 . S
C1856 C1855 1.524 . S
C1857 C1854 1.403 . S
C1857 C1858 1.392 . S
C1857 C1861 1.495 . S
C1858 C1857 1.392 . S
C1858 C1859 1.385 . S
C1858 C1860 1.478 . S
C1859 H1853 0.930 . S
C1859 C1855 1.400 . S
C1859 C1858 1.385 . S
C1860 C1858 1.478 . S
C1860 C1862 1.381 . S
C1860 C1866 1.383 . S
C1861 C1857 1.495 . S
C1861 H1867 0.959 . S
C1861 H1868 0.961 . S
C1861 H1869 0.960 . S
C1862 C1860 1.381 . S
C1862 C1863 1.394 . S
C1862 H1870 0.930 . S
C1863 C1862 1.394 . S
C1863 C1864 1.383 . S
C1863 H1871 0.929 . S
C1864 C1863 1.383 . S
C1864 C1865 1.377 . S
C1865 H1849 0.930 . S
C1865 C1864 1.377 . S
C1865 C1866 1.379 . S
C1866 H1850 0.931 . S
C1866 C1860 1.383 . S
C1866 C1865 1.379 . S
H1867 C1861 0.959 . S
H1868 C1861 0.961 . S
H1869 C1861 0.960 . S
H1870 C1862 0.930 . S
H1871 C1863 0.929 . S
H1872 C1880 0.929 . S
H1873 C1882 0.930 . S
H1874 C1884 0.930 . S
H1875 C1887 0.929 . S
H1876 C1890 0.930 . S
H1877 C1892 0.960 . S
H1878 C1892 0.960 . S
H1879 C1892 0.960 . S
C1880 H1872 0.929 . S
C1880 C1881 1.377 . S
C1880 C1882 1.384 . S
C1881 C1880 1.377 . S
C1881 C1887 1.390 . S
C1882 H1873 0.930 . S
C1882 C1880 1.384 . S
C1882 C1883 1.372 . S
C1883 C1882 1.372 . S
C1883 C1884 1.400 . S
C1883 C1888 1.490 . S
C1884 H1874 0.930 . S
C1884 C1883 1.400 . S
C1884 C1887 1.386 . S
H1885 C1901 0.930 . S
H1886 C1902 0.931 . S
C1887 H1875 0.929 . S
C1887 C1881 1.390 . S
C1887 C1884 1.386 . S
C1888 C1883 1.490 . S
C1888 C1890 1.395 . S
C1888 C1891 1.403 . S
H1889 C1895 0.930 . S
C1890 H1876 0.930 . S
C1890 C1888 1.395 . S
C1890 C1893 1.403 . S
C1891 C1888 1.403 . S
C1891 C1892 1.524 . S
C1891 C1895 1.400 . S
C1892 H1877 0.960 . S
C1892 H1878 0.960 . S
C1892 H1879 0.960 . S
C1892 C1891 1.524 . S
C1893 C1890 1.403 . S
C1893 C1894 1.392 . S
C1893 C1897 1.495 . S
C1894 C1893 1.392 . S
C1894 C1895 1.385 . S
C1894 C1896 1.478 . S
C1895 H1889 0.930 . S
C1895 C1891 1.400 . S
C1895 C1894 1.385 . S
C1896 C1894 1.478 . S
C1896 C1898 1.381 . S
C1896 C1902 1.383 . S
C1897 C1893 1.495 . S
C1897 H1903 0.959 . S
C1897 H1904 0.961 . S
C1897 H1905 0.960 . S
C1898 C1896 1.381 . S
C1898 C1899 1.394 . S
C1898 H1906 0.930 . S
C1899 C1898 1.394 . S
C1899 C1900 1.383 . S
C1899 H1907 0.929 . S
C1900 C1899 1.383 . S
C1900 C1901 1.377 . S
C1901 H1885 0.930 . S
C1901 C1900 1.377 . S
C1901 C1902 1.379 . S
C1902 H1886 0.931 . S
C1902 C1896 1.383 . S
C1902 C1901 1.379 . S
H1903 C1897 0.959 . S
H1904 C1897 0.961 . S
H1905 C1897 0.960 . S
H1906 C1898 0.930 . S
H1907 C1899 0.929 . S
H1908 C1916 0.929 . S
H1909 C1918 0.930 . S
H1910 C1920 0.930 . S
H1911 C1923 0.929 . S
H1912 C1926 0.930 . S
H1913 C1928 0.960 . S
H1914 C1928 0.960 . S
H1915 C1928 0.960 . S
C1916 H1908 0.929 . S
C1916 C1917 1.377 . S
C1916 C1918 1.384 . S
C1917 C1916 1.377 . S
C1917 C1923 1.390 . S
C1918 H1909 0.930 . S
C1918 C1916 1.384 . S
C1918 C1919 1.372 . S
C1919 C1918 1.372 . S
C1919 C1920 1.400 . S
C1919 C1924 1.490 . S
C1920 H1910 0.930 . S
C1920 C1919 1.400 . S
C1920 C1923 1.386 . S
H1921 C1937 0.930 . S
H1922 C1938 0.931 . S
C1923 H1911 0.929 . S
C1923 C1917 1.390 . S
C1923 C1920 1.386 . S
C1924 C1919 1.490 . S
C1924 C1926 1.395 . S
C1924 C1927 1.403 . S
H1925 C1931 0.930 . S
C1926 H1912 0.930 . S
C1926 C1924 1.395 . S
C1926 C1929 1.403 . S
C1927 C1924 1.403 . S
C1927 C1928 1.524 . S
C1927 C1931 1.400 . S
C1928 H1913 0.960 . S
C1928 H1914 0.960 . S
C1928 H1915 0.960 . S
C1928 C1927 1.524 . S
C1929 C1926 1.403 . S
C1929 C1930 1.392 . S
C1929 C1933 1.495 . S
C1930 C1929 1.392 . S
C1930 C1931 1.385 . S
C1930 C1932 1.478 . S
C1931 H1925 0.930 . S
C1931 C1927 1.400 . S
C1931 C1930 1.385 . S
C1932 C1930 1.478 . S
C1932 C1934 1.381 . S
C1932 C1938 1.383 . S
C1933 C1929 1.495 . S
C1933 H1939 0.959 . S
C1933 H1940 0.961 . S
C1933 H1941 0.960 . S
C1934 C1932 1.381 . S
C1934 C1935 1.394 . S
C1934 H1942 0.930 . S
C1935 C1934 1.394 . S
C1935 C1936 1.383 . S
C1935 H1943 0.929 . S
C1936 C1935 1.383 . S
C1936 C1937 1.377 . S
C1937 H1921 0.930 . S
C1937 C1936 1.377 . S
C1937 C1938 1.379 . S
C1938 H1922 0.931 . S
C1938 C1932 1.383 . S
C1938 C1937 1.379 . S
H1939 C1933 0.959 . S
H1940 C1933 0.961 . S
H1941 C1933 0.960 . S
H1942 C1934 0.930 . S
H1943 C1935 0.929 . S
H1944 C1952 0.929 . S
H1945 C1954 0.930 . S
H1946 C1956 0.930 . S
H1947 C1959 0.929 . S
H1948 C1962 0.930 . S
H1949 C1964 0.960 . S
H1950 C1964 0.960 . S
H1951 C1964 0.960 . S
C1952 H1944 0.929 . S
C1952 C1953 1.377 . S
C1952 C1954 1.384 . S
C1953 C1952 1.377 . S
C1953 C1959 1.390 . S
C1954 H1945 0.930 . S
C1954 C1952 1.384 . S
C1954 C1955 1.372 . S
C1955 C1954 1.372 . S
C1955 C1956 1.400 . S
C1955 C1960 1.490 . S
C1956 H1946 0.930 . S
C1956 C1955 1.400 . S
C1956 C1959 1.386 . S
H1957 C1973 0.930 . S
H1958 C1974 0.931 . S
C1959 H1947 0.929 . S
C1959 C1953 1.390 . S
C1959 C1956 1.386 . S
C1960 C1955 1.490 . S
C1960 C1962 1.395 . S
C1960 C1963 1.403 . S
H1961 C1967 0.930 . S
C1962 H1948 0.930 . S
C1962 C1960 1.395 . S
C1962 C1965 1.403 . S
C1963 C1960 1.403 . S
C1963 C1964 1.524 . S
C1963 C1967 1.400 . S
C1964 H1949 0.960 . S
C1964 H1950 0.960 . S
C1964 H1951 0.960 . S
C1964 C1963 1.524 . S
C1965 C1962 1.403 . S
C1965 C1966 1.392 . S
C1965 C1969 1.495 . S
C1966 C1965 1.392 . S
C1966 C1967 1.385 . S
C1966 C1968 1.478 . S
C1967 H1961 0.930 . S
C1967 C1963 1.400 . S
C1967 C1966 1.385 . S
C1968 C1966 1.478 . S
C1968 C1970 1.381 . S
C1968 C1974 1.383 . S
C1969 C1965 1.495 . S
C1969 H1975 0.959 . S
C1969 H1976 0.961 . S
C1969 H1977 0.960 . S
C1970 C1968 1.381 . S
C1970 C1971 1.394 . S
C1970 H1978 0.930 . S
C1971 C1970 1.394 . S
C1971 C1972 1.383 . S
C1971 H1979 0.929 . S
C1972 C1971 1.383 . S
C1972 C1973 1.377 . S
C1973 H1957 0.930 . S
C1973 C1972 1.377 . S
C1973 C1974 1.379 . S
C1974 H1958 0.931 . S
C1974 C1968 1.383 . S
C1974 C1973 1.379 . S
H1975 C1969 0.959 . S
H1976 C1969 0.961 . S
H1977 C1969 0.960 . S
H1978 C1970 0.930 . S
H1979 C1971 0.929 . S
H1980 C1988 0.929 . S
H1981 C1990 0.930 . S
H1982 C1992 0.930 . S
H1983 C1995 0.929 . S
H1984 C1998 0.930 . S
H1985 C2000 0.960 . S
H1986 C2000 0.960 . S
H1987 C2000 0.960 . S
C1988 H1980 0.929 . S
C1988 C1989 1.377 . S
C1988 C1990 1.384 . S
C1989 C1988 1.377 . S
C1989 C1995 1.390 . S
C1990 H1981 0.930 . S
C1990 C1988 1.384 . S
C1990 C1991 1.372 . S
C1991 C1990 1.372 . S
C1991 C1992 1.400 . S
C1991 C1996 1.490 . S
C1992 H1982 0.930 . S
C1992 C1991 1.400 . S
C1992 C1995 1.386 . S
H1993 C2009 0.930 . S
H1994 C2010 0.931 . S
C1995 H1983 0.929 . S
C1995 C1989 1.390 . S
C1995 C1992 1.386 . S
C1996 C1991 1.490 . S
C1996 C1998 1.395 . S
C1996 C1999 1.403 . S
H1997 C2003 0.930 . S
C1998 H1984 0.930 . S
C1998 C1996 1.395 . S
C1998 C2001 1.403 . S
C1999 C1996 1.403 . S
C1999 C2000 1.524 . S
C1999 C2003 1.400 . S
C2000 H1985 0.960 . S
C2000 H1986 0.960 . S
C2000 H1987 0.960 . S
C2000 C1999 1.524 . S
C2001 C1998 1.403 . S
C2001 C2002 1.392 . S
C2001 C2005 1.495 . S
C2002 C2001 1.392 . S
C2002 C2003 1.385 . S
C2002 C2004 1.478 . S
C2003 H1997 0.930 . S
C2003 C1999 1.400 . S
C2003 C2002 1.385 . S
C2004 C2002 1.478 . S
C2004 C2006 1.381 . S
C2004 C2010 1.383 . S
C2005 C2001 1.495 . S
C2005 H2011 0.959 . S
C2005 H2012 0.961 . S
C2005 H2013 0.960 . S
C2006 C2004 1.381 . S
C2006 C2007 1.394 . S
C2006 H2014 0.930 . S
C2007 C2006 1.394 . S
C2007 C2008 1.383 . S
C2007 H2015 0.929 . S
C2008 C2007 1.383 . S
C2008 C2009 1.377 . S
C2009 H1993 0.930 . S
C2009 C2008 1.377 . S
C2009 C2010 1.379 . S
C2010 H1994 0.931 . S
C2010 C2004 1.383 . S
C2010 C2009 1.379 . S
H2011 C2005 0.959 . S
H2012 C2005 0.961 . S
H2013 C2005 0.960 . S
H2014 C2006 0.930 . S
H2015 C2007 0.929 . S
H2016 C2024 0.929 . S
H2017 C2026 0.930 . S
H2018 C2028 0.930 . S
H2019 C2031 0.929 . S
H2020 C2034 0.930 . S
H2021 C2036 0.960 . S
H2022 C2036 0.960 . S
H2023 C2036 0.960 . S
C2024 H2016 0.929 . S
C2024 C2025 1.377 . S
C2024 C2026 1.384 . S
C2025 C2024 1.377 . S
C2025 C2031 1.390 . S
C2026 H2017 0.930 . S
C2026 C2024 1.384 . S
C2026 C2027 1.372 . S
C2027 C2026 1.372 . S
C2027 C2028 1.400 . S
C2027 C2032 1.490 . S
C2028 H2018 0.930 . S
C2028 C2027 1.400 . S
C2028 C2031 1.386 . S
H2029 C2045 0.930 . S
H2030 C2046 0.931 . S
C2031 H2019 0.929 . S
C2031 C2025 1.390 . S
C2031 C2028 1.386 . S
C2032 C2027 1.490 . S
C2032 C2034 1.395 . S
C2032 C2035 1.403 . S
H2033 C2039 0.930 . S
C2034 H2020 0.930 . S
C2034 C2032 1.395 . S
C2034 C2037 1.403 . S
C2035 C2032 1.403 . S
C2035 C2036 1.524 . S
C2035 C2039 1.400 . S
C2036 H2021 0.960 . S
C2036 H2022 0.960 . S
C2036 H2023 0.960 . S
C2036 C2035 1.524 . S
C2037 C2034 1.403 . S
C2037 C2038 1.392 . S
C2037 C2041 1.495 . S
C2038 C2037 1.392 . S
C2038 C2039 1.385 . S
C2038 C2040 1.478 . S
C2039 H2033 0.930 . S
C2039 C2035 1.400 . S
C2039 C2038 1.385 . S
C2040 C2038 1.478 . S
C2040 C2042 1.381 . S
C2040 C2046 1.383 . S
C2041 C2037 1.495 . S
C2041 H2047 0.959 . S
C2041 H2048 0.961 . S
C2041 H2049 0.960 . S
C2042 C2040 1.381 . S
C2042 C2043 1.394 . S
C2042 H2050 0.930 . S
C2043 C2042 1.394 . S
C2043 C2044 1.383 . S
C2043 H2051 0.929 . S
C2044 C2043 1.383 . S
C2044 C2045 1.377 . S
C2045 H2029 0.930 . S
C2045 C2044 1.377 . S
C2045 C2046 1.379 . S
C2046 H2030 0.931 . S
C2046 C2040 1.383 . S
C2046 C2045 1.379 . S
H2047 C2041 0.959 . S
H2048 C2041 0.961 . S
H2049 C2041 0.960 . S
H2050 C2042 0.930 . S
H2051 C2043 0.929 . S
H2052 C2060 0.929 . S
H2053 C2062 0.930 . S
H2054 C2064 0.930 . S
H2055 C2067 0.929 . S
H2056 C2070 0.930 . S
H2057 C2072 0.960 . S
H2058 C2072 0.960 . S
H2059 C2072 0.960 . S
C2060 H2052 0.929 . S
C2060 C2061 1.377 . S
C2060 C2062 1.384 . S
C2061 C2060 1.377 . S
C2061 C2067 1.390 . S
C2062 H2053 0.930 . S
C2062 C2060 1.384 . S
C2062 C2063 1.372 . S
C2063 C2062 1.372 . S
C2063 C2064 1.400 . S
C2063 C2068 1.490 . S
C2064 H2054 0.930 . S
C2064 C2063 1.400 . S
C2064 C2067 1.386 . S
H2065 C2081 0.930 . S
H2066 C2082 0.931 . S
C2067 H2055 0.929 . S
C2067 C2061 1.390 . S
C2067 C2064 1.386 . S
C2068 C2063 1.490 . S
C2068 C2070 1.395 . S
C2068 C2071 1.403 . S
H2069 C2075 0.930 . S
C2070 H2056 0.930 . S
C2070 C2068 1.395 . S
C2070 C2073 1.403 . S
C2071 C2068 1.403 . S
C2071 C2072 1.524 . S
C2071 C2075 1.400 . S
C2072 H2057 0.960 . S
C2072 H2058 0.960 . S
C2072 H2059 0.960 . S
C2072 C2071 1.524 . S
C2073 C2070 1.403 . S
C2073 C2074 1.392 . S
C2073 C2077 1.495 . S
C2074 C2073 1.392 . S
C2074 C2075 1.385 . S
C2074 C2076 1.478 . S
C2075 H2069 0.930 . S
C2075 C2071 1.400 . S
C2075 C2074 1.385 . S
C2076 C2074 1.478 . S
C2076 C2078 1.381 . S
C2076 C2082 1.383 . S
C2077 C2073 1.495 . S
C2077 H2083 0.959 . S
C2077 H2084 0.961 . S
C2077 H2085 0.960 . S
C2078 C2076 1.381 . S
C2078 C2079 1.394 . S
C2078 H2086 0.930 . S
C2079 C2078 1.394 . S
C2079 C2080 1.383 . S
C2079 H2087 0.929 . S
C2080 C2079 1.383 . S
C2080 C2081 1.377 . S
C2081 H2065 0.930 . S
C2081 C2080 1.377 . S
C2081 C2082 1.379 . S
C2082 H2066 0.931 . S
C2082 C2076 1.383 . S
C2082 C2081 1.379 . S
H2083 C2077 0.959 . S
H2084 C2077 0.961 . S
H2085 C2077 0.960 . S
H2086 C2078 0.930 . S
H2087 C2079 0.929 . S
H2088 C2096 0.929 . S
H2089 C2098 0.930 . S
H2090 C2100 0.930 . S
H2091 C2103 0.929 . S
H2092 C2106 0.930 . S
H2093 C2108 0.960 . S
H2094 C2108 0.960 . S
H2095 C2108 0.960 . S
C2096 H2088 0.929 . S
C2096 C2097 1.377 . S
C2096 C2098 1.384 . S
C2097 C2096 1.377 . S
C2097 C2103 1.390 . S
C2098 H2089 0.930 . S
C2098 C2096 1.384 . S
C2098 C2099 1.372 . S
C2099 C2098 1.372 . S
C2099 C2100 1.400 . S
C2099 C2104 1.490 . S
C2100 H2090 0.930 . S
C2100 C2099 1.400 . S
C2100 C2103 1.386 . S
H2101 C2117 0.930 . S
H2102 C2118 0.931 . S
C2103 H2091 0.929 . S
C2103 C2097 1.390 . S
C2103 C2100 1.386 . S
C2104 C2099 1.490 . S
C2104 C2106 1.395 . S
C2104 C2107 1.403 . S
H2105 C2111 0.930 . S
C2106 H2092 0.930 . S
C2106 C2104 1.395 . S
C2106 C2109 1.403 1_565 S
C2107 C2104 1.403 . S
C2107 C2108 1.524 . S
C2107 C2111 1.400 1_565 S
C2108 H2093 0.960 . S
C2108 H2094 0.960 . S
C2108 H2095 0.960 . S
C2108 C2107 1.524 . S
C2109 C2106 1.403 1_545 S
C2109 C2110 1.392 . S
C2109 C2113 1.495 . S
C2110 C2109 1.392 . S
C2110 C2111 1.385 . S
C2110 C2112 1.478 . S
C2111 H2105 0.930 . S
C2111 C2107 1.400 1_545 S
C2111 C2110 1.385 . S
C2112 C2110 1.478 . S
C2112 C2114 1.381 . S
C2112 C2118 1.383 . S
C2113 C2109 1.495 . S
C2113 H2119 0.959 . S
C2113 H2120 0.961 . S
C2113 H2121 0.960 . S
C2114 C2112 1.381 . S
C2114 C2115 1.394 . S
C2114 H2122 0.930 . S
C2115 C2114 1.394 . S
C2115 C2116 1.383 . S
C2115 H2123 0.929 . S
C2116 C2115 1.383 . S
C2116 C2117 1.377 . S
C2117 H2101 0.930 . S
C2117 C2116 1.377 . S
C2117 C2118 1.379 . S
C2118 H2102 0.931 . S
C2118 C2112 1.383 . S
C2118 C2117 1.379 . S
H2119 C2113 0.959 . S
H2120 C2113 0.961 . S
H2121 C2113 0.960 . S
H2122 C2114 0.930 . S
H2123 C2115 0.929 . S
H2124 C2132 0.929 . S
H2125 C2134 0.930 . S
H2126 C2136 0.930 . S
H2127 C2139 0.929 1_545 S
H2128 C2142 0.930 . S
H2129 C2144 0.960 . S
H2130 C2144 0.960 . S
H2131 C2144 0.960 . S
C2132 H2124 0.929 . S
C2132 C2133 1.377 . S
C2132 C2134 1.384 . S
C2133 C2132 1.377 . S
C2133 C2139 1.390 . S
C2134 H2125 0.930 . S
C2134 C2132 1.384 . S
C2134 C2135 1.372 . S
C2135 C2134 1.372 . S
C2135 C2136 1.400 . S
C2135 C2140 1.490 . S
C2136 H2126 0.930 . S
C2136 C2135 1.400 . S
C2136 C2139 1.386 . S
H2137 C2153 0.930 . S
H2138 C2154 0.931 . S
C2139 H2127 0.929 1_565 S
C2139 C2133 1.390 . S
C2139 C2136 1.386 . S
C2140 C2135 1.490 . S
C2140 C2142 1.395 . S
C2140 C2143 1.403 . S
H2141 C2147 0.967 . S
C2142 H2128 0.930 . S
C2142 C2140 1.395 . S
C2142 C2145 1.403 . S
C2143 C2140 1.403 . S
C2143 C2144 1.524 . S
C2143 C2147 1.400 . S
C2144 H2129 0.960 . S
C2144 H2130 0.960 . S
C2144 H2131 0.960 . S
C2144 C2143 1.524 . S
C2145 C2142 1.403 . S
C2145 C2146 1.392 . S
C2145 C2149 1.495 . S
C2146 C2145 1.392 . S
C2146 C2147 1.385 . S
C2146 C2148 1.478 1_455 S
C2147 H2141 0.967 . S
C2147 C2143 1.400 . S
C2147 C2146 1.385 . S
C2148 C2146 1.478 1_655 S
C2148 C2150 1.381 . S
C2148 C2154 1.383 . S
C2149 C2145 1.495 . S
C2149 H2155 0.959 . S
C2149 H2156 0.961 . S
C2149 H2157 0.960 . S
C2150 C2148 1.381 . S
C2150 C2151 1.394 . S
C2150 H2158 0.930 . S
C2151 C2150 1.394 . S
C2151 C2152 1.383 . S
C2151 H2159 0.929 . S
C2152 C2151 1.383 . S
C2152 C2153 1.377 . S
C2153 H2137 0.930 . S
C2153 C2152 1.377 . S
C2153 C2154 1.379 . S
C2154 H2138 0.931 . S
C2154 C2148 1.383 . S
C2154 C2153 1.379 . S
H2155 C2149 0.959 . S
H2156 C2149 0.961 . S
H2157 C2149 0.960 . S
H2158 C2150 0.930 . S
H2159 C2151 0.929 . S
H2160 C2168 0.929 . S
H2161 C2170 0.930 . S
H2162 C2172 0.930 . S
H2163 C2175 0.929 . S
H2164 C2178 0.930 . S
H2165 C2180 0.960 . S
H2166 C2180 0.960 . S
H2167 C2180 0.960 . S
C2168 H2160 0.929 . S
C2168 C2169 1.377 . S
C2168 C2170 1.384 . S
C2169 C2168 1.377 . S
C2169 C2175 1.390 . S
C2170 H2161 0.930 . S
C2170 C2168 1.384 . S
C2170 C2171 1.372 . S
C2171 C2170 1.372 . S
C2171 C2172 1.400 . S
C2171 C2176 1.490 . S
C2172 H2162 0.930 . S
C2172 C2171 1.400 . S
C2172 C2175 1.386 . S
H2173 C2189 0.930 . S
H2174 C2190 0.931 . S
C2175 H2163 0.929 . S
C2175 C2169 1.390 . S
C2175 C2172 1.386 . S
C2176 C2171 1.490 . S
C2176 C2178 1.395 . S
C2176 C2179 1.403 . S
H2177 C2183 0.930 1_565 S
C2178 H2164 0.930 . S
C2178 C2176 1.395 . S
C2178 C2181 1.403 1_554 S
C2179 C2176 1.403 . S
C2179 C2180 1.524 1_545 S
C2179 C2183 1.400 1_554 S
C2180 H2165 0.960 . S
C2180 H2166 0.960 . S
C2180 H2167 0.960 . S
C2180 C2179 1.524 1_565 S
C2181 C2178 1.403 1_556 S
C2181 C2182 1.392 . S
C2181 C2185 1.495 . S
C2182 C2181 1.392 . S
C2182 C2183 1.385 . S
C2182 C2184 1.478 . S
C2183 H2177 0.930 1_545 S
C2183 C2179 1.400 1_556 S
C2183 C2182 1.385 . S
C2184 C2182 1.478 . S
C2184 C2186 1.381 . S
C2184 C2190 1.383 . S
C2185 C2181 1.495 . S
C2185 H2191 0.959 . S
C2185 H2192 0.961 . S
C2185 H2193 0.960 . S
C2186 C2184 1.381 . S
C2186 C2187 1.394 . S
C2186 H2194 0.930 . S
C2187 C2186 1.394 . S
C2187 C2188 1.383 . S
C2187 H2195 0.928 . S
C2188 C2187 1.383 . S
C2188 C2189 1.377 . S
C2189 H2173 0.930 . S
C2189 C2188 1.377 . S
C2189 C2190 1.379 . S
C2190 H2174 0.931 . S
C2190 C2184 1.383 . S
C2190 C2189 1.379 . S
H2191 C2185 0.959 . S
H2192 C2185 0.961 . S
H2193 C2185 0.960 . S
H2194 C2186 0.930 . S
H2195 C2187 0.928 . S
H2196 C2204 0.929 . S
H2197 C2206 0.930 . S
H2198 C2208 0.930 . S
H2199 C2211 0.929 . S
H2200 C2214 0.930 . S
H2201 C2216 0.960 . S
H2202 C2216 0.960 . S
H2203 C2216 0.960 . S
C2204 H2196 0.929 . S
C2204 C2205 1.377 . S
C2204 C2206 1.384 . S
C2205 C2204 1.377 . S
C2205 C2211 1.390 . S
C2206 H2197 0.930 . S
C2206 C2204 1.384 . S
C2206 C2207 1.372 . S
C2207 C2206 1.372 . S
C2207 C2208 1.400 . S
C2207 C2212 1.490 . S
C2208 H2198 0.930 . S
C2208 C2207 1.400 . S
C2208 C2211 1.386 . S
H2209 C2225 0.930 . S
H2210 C2226 0.931 . S
C2211 H2199 0.929 . S
C2211 C2205 1.390 . S
C2211 C2208 1.386 . S
C2212 C2207 1.490 . S
C2212 C2214 1.395 . S
C2212 C2215 1.435 . S
H2213 C2219 0.930 1_655 S
C2214 H2200 0.930 . S
C2214 C2212 1.395 . S
C2214 C2217 1.403 1_556 S
C2215 C2212 1.435 . S
C2215 C2216 1.490 1_455 S
C2215 C2219 1.403 1_556 S
C2216 H2201 0.960 . S
C2216 H2202 0.960 . S
C2216 H2203 0.960 . S
C2216 C2215 1.490 1_655 S
C2217 C2214 1.403 1_554 S
C2217 C2218 1.392 . S
C2217 C2221 1.495 . S
C2218 C2217 1.392 . S
C2218 C2219 1.385 . S
C2218 C2220 1.478 . S
C2219 H2213 0.930 1_455 S
C2219 C2215 1.403 1_554 S
C2219 C2218 1.385 . S
C2220 C2218 1.478 . S
C2220 C2222 1.381 . S
C2220 C2226 1.383 . S
C2221 C2217 1.495 . S
C2221 H2227 0.959 . S
C2221 H2228 0.961 . S
C2221 H2229 0.960 . S
C2222 C2220 1.381 . S
C2222 C2223 1.394 . S
C2222 H2230 0.930 . S
C2223 C2222 1.394 . S
C2223 C2224 1.383 . S
C2223 H2231 0.927 . S
C2224 C2223 1.383 . S
C2224 C2225 1.377 . S
C2225 H2209 0.930 . S
C2225 C2224 1.377 . S
C2225 C2226 1.379 . S
C2226 H2210 0.931 . S
C2226 C2220 1.383 . S
C2226 C2225 1.379 . S
H2227 C2221 0.959 . S
H2228 C2221 0.961 . S
H2229 C2221 0.960 . S
H2230 C2222 0.930 . S
H2231 C2223 0.927 . S
H2232 C2240 0.929 . S
H2233 C2242 0.930 . S
H2234 C2244 0.930 . S
H2235 C2247 0.929 . S
H2236 C2250 0.930 . S
H2237 C2252 0.960 . S
H2238 C2252 0.960 . S
H2239 C2252 0.960 . S
C2240 H2232 0.929 . S
C2240 C2241 1.377 . S
C2240 C2242 1.384 . S
C2241 C2240 1.377 . S
C2241 C2247 1.390 . S
C2242 H2233 0.930 . S
C2242 C2240 1.384 . S
C2242 C2243 1.372 . S
C2243 C2242 1.372 . S
C2243 C2244 1.400 . S
C2243 C2248 1.490 . S
C2244 H2234 0.930 . S
C2244 C2243 1.400 . S
C2244 C2247 1.386 . S
H2245 C2261 0.930 . S
H2246 C2262 0.931 . S
C2247 H2235 0.929 . S
C2247 C2241 1.390 . S
C2247 C2244 1.386 . S
C2248 C2243 1.490 . S
C2248 C2250 1.395 . S
C2248 C2251 1.403 . S
H2249 C2255 0.930 . S
C2250 H2236 0.930 . S
C2250 C2248 1.395 . S
C2250 C2253 1.403 1_556 S
C2251 C2248 1.403 . S
C2251 C2252 1.524 . S
C2251 C2255 1.400 1_556 S
C2252 H2237 0.960 . S
C2252 H2238 0.960 . S
C2252 H2239 0.960 . S
C2252 C2251 1.524 . S
C2253 C2250 1.403 1_554 S
C2253 C2254 1.392 . S
C2253 C2257 1.495 . S
C2254 C2253 1.392 . S
C2254 C2255 1.385 . S
C2254 C2256 1.478 . S
C2255 H2249 0.930 . S
C2255 C2251 1.400 1_554 S
C2255 C2254 1.385 . S
C2256 C2254 1.478 . S
C2256 C2258 1.381 . S
C2256 C2262 1.383 . S
C2257 C2253 1.495 . S
C2257 H2263 0.959 . S
C2257 H2264 0.961 . S
C2257 H2265 0.960 . S
C2258 C2256 1.381 . S
C2258 C2259 1.394 . S
C2258 H2266 0.930 . S
C2259 C2258 1.394 . S
C2259 C2260 1.383 . S
C2259 H2267 0.929 . S
C2260 C2259 1.383 . S
C2260 C2261 1.377 . S
C2261 H2245 0.930 . S
C2261 C2260 1.377 . S
C2261 C2262 1.379 . S
C2262 H2246 0.931 . S
C2262 C2256 1.383 . S
C2262 C2261 1.379 . S
H2263 C2257 0.959 . S
H2264 C2257 0.961 . S
H2265 C2257 0.960 . S
H2266 C2258 0.930 . S
H2267 C2259 0.929 . S
H2268 C2276 0.929 . S
H2269 C2278 0.930 . S
H2270 C2280 0.930 . S
H2271 C2283 0.929 . S
H2272 C2286 0.930 . S
H2273 C2288 0.960 . S
H2274 C2288 0.960 . S
H2275 C2288 0.960 . S
C2276 H2268 0.929 . S
C2276 C2277 1.377 . S
C2276 C2278 1.384 . S
C2277 C2276 1.377 . S
C2277 C2283 1.390 . S
C2278 H2269 0.930 . S
C2278 C2276 1.384 . S
C2278 C2279 1.372 . S
C2279 C2278 1.372 . S
C2279 C2280 1.400 . S
C2279 C2284 1.490 . S
C2280 H2270 0.930 . S
C2280 C2279 1.400 . S
C2280 C2283 1.386 . S
H2281 C2297 0.930 . S
H2282 C2298 0.931 . S
C2283 H2271 0.929 . S
C2283 C2277 1.390 . S
C2283 C2280 1.386 . S
C2284 C2279 1.490 . S
C2284 C2286 1.395 . S
C2284 C2287 1.403 . S
H2285 C2291 0.930 . S
C2286 H2272 0.930 . S
C2286 C2284 1.395 . S
C2286 C2289 1.403 . S
C2287 C2284 1.403 . S
C2287 C2288 1.524 . S
C2287 C2291 1.400 . S
C2288 H2273 0.960 . S
C2288 H2274 0.960 . S
C2288 H2275 0.960 . S
C2288 C2287 1.524 . S
C2289 C2286 1.403 . S
C2289 C2290 1.392 . S
C2289 C2293 1.495 . S
C2290 C2289 1.392 . S
C2290 C2291 1.385 . S
C2290 C2292 1.478 . S
C2291 H2285 0.930 . S
C2291 C2287 1.400 . S
C2291 C2290 1.385 . S
C2292 C2290 1.478 . S
C2292 C2294 1.381 . S
C2292 C2298 1.383 . S
C2293 C2289 1.495 . S
C2293 H2299 0.959 . S
C2293 H2300 0.961 . S
C2293 H2301 0.960 . S
C2294 C2292 1.381 . S
C2294 C2295 1.394 . S
C2294 H2302 0.930 . S
C2295 C2294 1.394 . S
C2295 C2296 1.383 . S
C2295 H2303 0.929 . S
C2296 C2295 1.383 . S
C2296 C2297 1.377 . S
C2297 H2281 0.930 . S
C2297 C2296 1.377 . S
C2297 C2298 1.379 . S
C2298 H2282 0.931 . S
C2298 C2292 1.383 . S
C2298 C2297 1.379 . S
H2299 C2293 0.959 . S
H2300 C2293 0.961 . S
H2301 C2293 0.960 . S
H2302 C2294 0.930 . S
H2303 C2295 0.929 . S
H2304 C2312 0.929 . S
H2305 C2314 0.930 . S
H2306 C2316 0.930 . S
H2307 C2319 0.929 . S
H2308 C2322 0.930 . S
H2309 C2324 0.960 . S
H2310 C2324 0.960 . S
H2311 C2324 0.960 . S
C2312 H2304 0.929 . S
C2312 C2313 1.377 . S
C2312 C2314 1.384 . S
C2313 C2312 1.377 . S
C2313 C2319 1.390 . S
C2314 H2305 0.930 . S
C2314 C2312 1.384 . S
C2314 C2315 1.372 . S
C2315 C2314 1.372 . S
C2315 C2316 1.400 . S
C2315 C2320 1.490 . S
C2316 H2306 0.930 . S
C2316 C2315 1.400 . S
C2316 C2319 1.386 . S
H2317 C2333 0.930 . S
H2318 C2334 0.931 . S
C2319 H2307 0.929 . S
C2319 C2313 1.390 . S
C2319 C2316 1.386 . S
C2320 C2315 1.490 . S
C2320 C2322 1.395 . S
C2320 C2323 1.403 . S
H2321 C2327 0.930 . S
C2322 H2308 0.930 . S
C2322 C2320 1.395 . S
C2322 C2325 1.403 . S
C2323 C2320 1.403 . S
C2323 C2324 1.524 . S
C2323 C2327 1.400 . S
C2324 H2309 0.960 . S
C2324 H2310 0.960 . S
C2324 H2311 0.960 . S
C2324 C2323 1.524 . S
C2325 C2322 1.403 . S
C2325 C2326 1.392 . S
C2325 C2329 1.495 . S
C2326 C2325 1.392 . S
C2326 C2327 1.385 . S
C2326 C2328 1.478 . S
C2327 H2321 0.930 . S
C2327 C2323 1.400 . S
C2327 C2326 1.385 . S
C2328 C2326 1.478 . S
C2328 C2330 1.381 . S
C2328 C2334 1.383 . S
C2329 C2325 1.495 . S
C2329 H2335 0.959 . S
C2329 H2336 0.961 . S
C2329 H2337 0.960 . S
C2330 C2328 1.381 . S
C2330 C2331 1.394 . S
C2330 H2338 0.930 . S
C2331 C2330 1.394 . S
C2331 C2332 1.383 . S
C2331 H2339 0.929 . S
C2332 C2331 1.383 . S
C2332 C2333 1.377 . S
C2333 H2317 0.930 . S
C2333 C2332 1.377 . S
C2333 C2334 1.379 . S
C2334 H2318 0.931 . S
C2334 C2328 1.383 . S
C2334 C2333 1.379 . S
H2335 C2329 0.959 . S
H2336 C2329 0.961 . S
H2337 C2329 0.960 . S
H2338 C2330 0.930 . S
H2339 C2331 0.929 . S
H2340 C2348 0.929 . S
H2341 C2350 0.930 . S
H2342 C2352 0.930 . S
H2343 C2355 0.929 . S
H2344 C2358 0.930 . S
H2345 C2360 0.960 . S
H2346 C2360 0.960 . S
H2347 C2360 0.960 . S
C2348 H2340 0.929 . S
C2348 C2349 1.377 . S
C2348 C2350 1.384 . S
C2349 C2348 1.377 . S
C2349 C2355 1.390 . S
C2350 H2341 0.930 . S
C2350 C2348 1.384 . S
C2350 C2351 1.372 . S
C2351 C2350 1.372 . S
C2351 C2352 1.400 . S
C2351 C2356 1.490 . S
C2352 H2342 0.930 . S
C2352 C2351 1.400 . S
C2352 C2355 1.386 . S
H2353 C2369 0.930 . S
H2354 C2370 0.931 . S
C2355 H2343 0.929 . S
C2355 C2349 1.390 . S
C2355 C2352 1.386 . S
C2356 C2351 1.490 . S
C2356 C2358 1.395 . S
C2356 C2359 1.403 . S
H2357 C2363 0.930 . S
C2358 H2344 0.930 . S
C2358 C2356 1.395 . S
C2358 C2361 1.403 . S
C2359 C2356 1.403 . S
C2359 C2360 1.524 . S
C2359 C2363 1.400 . S
C2360 H2345 0.960 . S
C2360 H2346 0.960 . S
C2360 H2347 0.960 . S
C2360 C2359 1.524 . S
C2361 C2358 1.403 . S
C2361 C2362 1.392 . S
C2361 C2365 1.495 . S
C2362 C2361 1.392 . S
C2362 C2363 1.385 . S
C2362 C2364 1.478 . S
C2363 H2357 0.930 . S
C2363 C2359 1.400 . S
C2363 C2362 1.385 . S
C2364 C2362 1.478 . S
C2364 C2366 1.381 . S
C2364 C2370 1.383 . S
C2365 C2361 1.495 . S
C2365 H2371 0.959 . S
C2365 H2372 0.961 . S
C2365 H2373 0.960 . S
C2366 C2364 1.381 . S
C2366 C2367 1.394 . S
C2366 H2374 0.930 . S
C2367 C2366 1.394 . S
C2367 C2368 1.383 . S
C2367 H2375 0.929 . S
C2368 C2367 1.383 . S
C2368 C2369 1.377 . S
C2369 H2353 0.930 . S
C2369 C2368 1.377 . S
C2369 C2370 1.379 . S
C2370 H2354 0.931 . S
C2370 C2364 1.383 . S
C2370 C2369 1.379 . S
H2371 C2365 0.959 . S
H2372 C2365 0.961 . S
H2373 C2365 0.960 . S
H2374 C2366 0.930 . S
H2375 C2367 0.929 . S
H2376 C2384 0.929 . S
H2377 C2386 0.930 . S
H2378 C2388 0.930 . S
H2379 C2391 0.929 . S
H2380 C2394 0.930 . S
H2381 C2396 0.960 . S
H2382 C2396 0.960 . S
H2383 C2396 0.960 . S
C2384 H2376 0.929 . S
C2384 C2385 1.377 . S
C2384 C2386 1.384 . S
C2385 C2384 1.377 . S
C2385 C2391 1.390 . S
C2386 H2377 0.930 . S
C2386 C2384 1.384 . S
C2386 C2387 1.372 . S
C2387 C2386 1.372 . S
C2387 C2388 1.400 . S
C2387 C2392 1.490 . S
C2388 H2378 0.930 . S
C2388 C2387 1.400 . S
C2388 C2391 1.386 . S
H2389 C2405 0.930 . S
H2390 C2406 0.931 . S
C2391 H2379 0.929 . S
C2391 C2385 1.390 . S
C2391 C2388 1.386 . S
C2392 C2387 1.490 . S
C2392 C2394 1.395 . S
C2392 C2395 1.403 . S
H2393 C2399 0.930 . S
C2394 H2380 0.930 . S
C2394 C2392 1.395 . S
C2394 C2397 1.403 . S
C2395 C2392 1.403 . S
C2395 C2396 1.524 . S
C2395 C2399 1.400 . S
C2396 H2381 0.960 . S
C2396 H2382 0.960 . S
C2396 H2383 0.960 . S
C2396 C2395 1.524 . S
C2397 C2394 1.403 . S
C2397 C2398 1.392 . S
C2397 C2401 1.495 . S
C2398 C2397 1.392 . S
C2398 C2399 1.385 . S
C2398 C2400 1.478 . S
C2399 H2393 0.930 . S
C2399 C2395 1.400 . S
C2399 C2398 1.385 . S
C2400 C2398 1.478 . S
C2400 C2402 1.381 . S
C2400 C2406 1.383 . S
C2401 C2397 1.495 . S
C2401 H2407 0.959 . S
C2401 H2408 0.961 . S
C2401 H2409 0.960 . S
C2402 C2400 1.381 . S
C2402 C2403 1.394 . S
C2402 H2410 0.930 . S
C2403 C2402 1.394 . S
C2403 C2404 1.383 . S
C2403 H2411 0.929 . S
C2404 C2403 1.383 . S
C2404 C2405 1.377 . S
C2405 H2389 0.930 . S
C2405 C2404 1.377 . S
C2405 C2406 1.379 . S
C2406 H2390 0.931 . S
C2406 C2400 1.383 . S
C2406 C2405 1.379 . S
H2407 C2401 0.959 . S
H2408 C2401 0.961 . S
H2409 C2401 0.960 . S
H2410 C2402 0.930 . S
H2411 C2403 0.929 . S
H2412 C2420 0.929 . S
H2413 C2422 0.930 . S
H2414 C2424 0.930 . S
H2415 C2427 0.929 . S
H2416 C2430 0.930 . S
H2417 C2432 0.960 . S
H2418 C2432 0.960 . S
H2419 C2432 0.960 . S
C2420 H2412 0.929 . S
C2420 C2421 1.377 . S
C2420 C2422 1.384 . S
C2421 C2420 1.377 . S
C2421 C2427 1.390 . S
C2422 H2413 0.930 . S
C2422 C2420 1.384 . S
C2422 C2423 1.372 . S
C2423 C2422 1.372 . S
C2423 C2424 1.400 . S
C2423 C2428 1.490 . S
C2424 H2414 0.930 . S
C2424 C2423 1.400 . S
C2424 C2427 1.386 . S
H2425 C2441 0.930 . S
H2426 C2442 0.931 . S
C2427 H2415 0.929 . S
C2427 C2421 1.390 . S
C2427 C2424 1.386 . S
C2428 C2423 1.490 . S
C2428 C2430 1.395 . S
C2428 C2431 1.403 . S
H2429 C2435 0.930 . S
C2430 H2416 0.930 . S
C2430 C2428 1.395 . S
C2430 C2433 1.403 . S
C2431 C2428 1.403 . S
C2431 C2432 1.524 . S
C2431 C2435 1.400 . S
C2432 H2417 0.960 . S
C2432 H2418 0.960 . S
C2432 H2419 0.960 . S
C2432 C2431 1.524 . S
C2433 C2430 1.403 . S
C2433 C2434 1.392 . S
C2433 C2437 1.495 . S
C2434 C2433 1.392 . S
C2434 C2435 1.385 . S
C2434 C2436 1.478 . S
C2435 H2429 0.930 . S
C2435 C2431 1.400 . S
C2435 C2434 1.385 . S
C2436 C2434 1.478 . S
C2436 C2438 1.381 . S
C2436 C2442 1.383 . S
C2437 C2433 1.495 . S
C2437 H2443 0.959 . S
C2437 H2444 0.961 . S
C2437 H2445 0.960 . S
C2438 C2436 1.381 . S
C2438 C2439 1.394 . S
C2438 H2446 0.930 . S
C2439 C2438 1.394 . S
C2439 C2440 1.383 . S
C2439 H2447 0.929 . S
C2440 C2439 1.383 . S
C2440 C2441 1.377 . S
C2441 H2425 0.930 . S
C2441 C2440 1.377 . S
C2441 C2442 1.379 . S
C2442 H2426 0.931 . S
C2442 C2436 1.383 . S
C2442 C2441 1.379 . S
H2443 C2437 0.959 . S
H2444 C2437 0.961 . S
H2445 C2437 0.960 . S
H2446 C2438 0.930 . S
H2447 C2439 0.929 . S
H2448 C2456 0.929 . S
H2449 C2458 0.930 . S
H2450 C2460 0.930 . S
H2451 C2463 0.929 . S
H2452 C2466 0.930 . S
H2453 C2468 0.960 . S
H2454 C2468 0.960 . S
H2455 C2468 0.960 . S
C2456 H2448 0.929 . S
C2456 C2457 1.377 . S
C2456 C2458 1.384 . S
C2457 C2456 1.377 . S
C2457 C2463 1.390 . S
C2458 H2449 0.930 . S
C2458 C2456 1.384 . S
C2458 C2459 1.372 . S
C2459 C2458 1.372 . S
C2459 C2460 1.400 . S
C2459 C2464 1.490 . S
C2460 H2450 0.930 . S
C2460 C2459 1.400 . S
C2460 C2463 1.386 . S
H2461 C2477 0.930 . S
H2462 C2478 0.931 . S
C2463 H2451 0.929 . S
C2463 C2457 1.390 . S
C2463 C2460 1.386 . S
C2464 C2459 1.490 . S
C2464 C2466 1.395 . S
C2464 C2467 1.403 . S
H2465 C2471 0.930 . S
C2466 H2452 0.930 . S
C2466 C2464 1.395 . S
C2466 C2469 1.403 . S
C2467 C2464 1.403 . S
C2467 C2468 1.524 . S
C2467 C2471 1.400 . S
C2468 H2453 0.960 . S
C2468 H2454 0.960 . S
C2468 H2455 0.960 . S
C2468 C2467 1.524 . S
C2469 C2466 1.403 . S
C2469 C2470 1.392 . S
C2469 C2473 1.495 . S
C2470 C2469 1.392 . S
C2470 C2471 1.385 . S
C2470 C2472 1.478 . S
C2471 H2465 0.930 . S
C2471 C2467 1.400 . S
C2471 C2470 1.385 . S
C2472 C2470 1.478 . S
C2472 C2474 1.381 . S
C2472 C2478 1.383 . S
C2473 C2469 1.495 . S
C2473 H2479 0.959 . S
C2473 H2480 0.961 . S
C2473 H2481 0.960 . S
C2474 C2472 1.381 . S
C2474 C2475 1.394 . S
C2474 H2482 0.930 . S
C2475 C2474 1.394 . S
C2475 C2476 1.383 . S
C2475 H2483 0.929 . S
C2476 C2475 1.383 . S
C2476 C2477 1.377 . S
C2477 H2461 0.930 . S
C2477 C2476 1.377 . S
C2477 C2478 1.379 . S
C2478 H2462 0.931 . S
C2478 C2472 1.383 . S
C2478 C2477 1.379 . S
H2479 C2473 0.959 . S
H2480 C2473 0.961 . S
H2481 C2473 0.960 . S
H2482 C2474 0.930 . S
H2483 C2475 0.929 . S
H2484 C2492 0.929 . S
H2485 C2494 0.930 . S
H2486 C2496 0.930 . S
H2487 C2499 0.929 . S
H2488 C2502 0.930 . S
H2489 C2504 0.960 . S
H2490 C2504 0.960 . S
H2491 C2504 0.960 . S
C2492 H2484 0.929 . S
C2492 C2493 1.377 . S
C2492 C2494 1.384 . S
C2493 C2492 1.377 . S
C2493 C2499 1.390 . S
C2494 H2485 0.930 . S
C2494 C2492 1.384 . S
C2494 C2495 1.372 . S
C2495 C2494 1.372 . S
C2495 C2496 1.400 . S
C2495 C2500 1.490 . S
C2496 H2486 0.930 . S
C2496 C2495 1.400 . S
C2496 C2499 1.386 . S
H2497 C2513 0.930 . S
H2498 C2514 0.931 . S
C2499 H2487 0.929 . S
C2499 C2493 1.390 . S
C2499 C2496 1.386 . S
C2500 C2495 1.490 . S
C2500 C2502 1.395 . S
C2500 C2503 1.403 . S
H2501 C2507 0.930 . S
C2502 H2488 0.930 . S
C2502 C2500 1.395 . S
C2502 C2505 1.403 . S
C2503 C2500 1.403 . S
C2503 C2504 1.524 . S
C2503 C2507 1.400 . S
C2504 H2489 0.960 . S
C2504 H2490 0.960 . S
C2504 H2491 0.960 . S
C2504 C2503 1.524 . S
C2505 C2502 1.403 . S
C2505 C2506 1.392 . S
C2505 C2509 1.495 . S
C2506 C2505 1.392 . S
C2506 C2507 1.385 . S
C2506 C2508 1.478 . S
C2507 H2501 0.930 . S
C2507 C2503 1.400 . S
C2507 C2506 1.385 . S
C2508 C2506 1.478 . S
C2508 C2510 1.381 . S
C2508 C2514 1.383 . S
C2509 C2505 1.495 . S
C2509 H2515 0.959 . S
C2509 H2516 0.961 . S
C2509 H2517 0.960 . S
C2510 C2508 1.381 . S
C2510 C2511 1.394 . S
C2510 H2518 0.930 . S
C2511 C2510 1.394 . S
C2511 C2512 1.383 . S
C2511 H2519 0.929 . S
C2512 C2511 1.383 . S
C2512 C2513 1.377 . S
C2513 H2497 0.930 . S
C2513 C2512 1.377 . S
C2513 C2514 1.379 . S
C2514 H2498 0.931 . S
C2514 C2508 1.383 . S
C2514 C2513 1.379 . S
H2515 C2509 0.959 . S
H2516 C2509 0.961 . S
H2517 C2509 0.960 . S
H2518 C2510 0.930 . S
H2519 C2511 0.929 . S
H2520 C2528 0.929 . S
H2521 C2530 0.930 . S
H2522 C2532 0.930 . S
H2523 C2535 0.929 . S
H2524 C2538 0.930 . S
H2525 C2540 0.960 . S
H2526 C2540 0.960 . S
H2527 C2540 0.960 . S
C2528 H2520 0.929 . S
C2528 C2529 1.377 . S
C2528 C2530 1.384 . S
C2529 C2528 1.377 . S
C2529 C2535 1.390 . S
C2530 H2521 0.930 . S
C2530 C2528 1.384 . S
C2530 C2531 1.372 . S
C2531 C2530 1.372 . S
C2531 C2532 1.400 . S
C2531 C2536 1.490 . S
C2532 H2522 0.930 . S
C2532 C2531 1.400 . S
C2532 C2535 1.386 . S
H2533 C2549 0.930 . S
H2534 C2550 0.931 . S
C2535 H2523 0.929 . S
C2535 C2529 1.390 . S
C2535 C2532 1.386 . S
C2536 C2531 1.490 . S
C2536 C2538 1.395 . S
C2536 C2539 1.403 . S
H2537 C2543 0.930 . S
C2538 H2524 0.930 . S
C2538 C2536 1.395 . S
C2538 C2541 1.403 . S
C2539 C2536 1.403 . S
C2539 C2540 1.524 . S
C2539 C2543 1.400 . S
C2540 H2525 0.960 . S
C2540 H2526 0.960 . S
C2540 H2527 0.960 . S
C2540 C2539 1.524 . S
C2541 C2538 1.403 . S
C2541 C2542 1.392 . S
C2541 C2545 1.495 . S
C2542 C2541 1.392 . S
C2542 C2543 1.385 . S
C2542 C2544 1.478 . S
C2543 H2537 0.930 . S
C2543 C2539 1.400 . S
C2543 C2542 1.385 . S
C2544 C2542 1.478 . S
C2544 C2546 1.381 . S
C2544 C2550 1.383 . S
C2545 C2541 1.495 . S
C2545 H2551 0.959 . S
C2545 H2552 0.961 . S
C2545 H2553 0.960 . S
C2546 C2544 1.381 . S
C2546 C2547 1.394 . S
C2546 H2554 0.930 . S
C2547 C2546 1.394 . S
C2547 C2548 1.383 . S
C2547 H2555 0.929 . S
C2548 C2547 1.383 . S
C2548 C2549 1.377 . S
C2549 H2533 0.930 . S
C2549 C2548 1.377 . S
C2549 C2550 1.379 . S
C2550 H2534 0.931 . S
C2550 C2544 1.383 . S
C2550 C2549 1.379 . S
H2551 C2545 0.959 . S
H2552 C2545 0.961 . S
H2553 C2545 0.960 . S
H2554 C2546 0.930 . S
H2555 C2547 0.929 . S
H2556 C2564 0.929 . S
H2557 C2566 0.930 . S
H2558 C2568 0.930 . S
H2559 C2571 0.929 . S
H2560 C2574 0.930 . S
H2561 C2576 0.960 . S
H2562 C2576 0.960 . S
H2563 C2576 0.960 . S
C2564 H2556 0.929 . S
C2564 C2565 1.377 . S
C2564 C2566 1.384 . S
C2565 C2564 1.377 . S
C2565 C2571 1.390 . S
C2566 H2557 0.930 . S
C2566 C2564 1.384 . S
C2566 C2567 1.372 . S
C2567 C2566 1.372 . S
C2567 C2568 1.400 . S
C2567 C2572 1.490 . S
C2568 H2558 0.930 . S
C2568 C2567 1.400 . S
C2568 C2571 1.386 . S
H2569 C2585 0.930 . S
H2570 C2586 0.931 . S
C2571 H2559 0.929 . S
C2571 C2565 1.390 . S
C2571 C2568 1.386 . S
C2572 C2567 1.490 . S
C2572 C2574 1.395 . S
C2572 C2575 1.403 . S
H2573 C2579 0.930 . S
C2574 H2560 0.930 . S
C2574 C2572 1.395 . S
C2574 C2577 1.403 . S
C2575 C2572 1.403 . S
C2575 C2576 1.524 . S
C2575 C2579 1.400 . S
C2576 H2561 0.960 . S
C2576 H2562 0.960 . S
C2576 H2563 0.960 . S
C2576 C2575 1.524 . S
C2577 C2574 1.403 . S
C2577 C2578 1.392 . S
C2577 C2581 1.495 . S
C2578 C2577 1.392 . S
C2578 C2579 1.385 . S
C2578 C2580 1.478 . S
C2579 H2573 0.930 . S
C2579 C2575 1.400 . S
C2579 C2578 1.385 . S
C2580 C2578 1.478 . S
C2580 C2582 1.381 . S
C2580 C2586 1.383 . S
C2581 C2577 1.495 . S
C2581 H2587 0.959 . S
C2581 H2588 0.961 . S
C2581 H2589 0.960 . S
C2582 C2580 1.381 . S
C2582 C2583 1.394 . S
C2582 H2590 0.930 . S
C2583 C2582 1.394 . S
C2583 C2584 1.383 . S
C2583 H2591 0.929 . S
C2584 C2583 1.383 . S
C2584 C2585 1.377 . S
C2585 H2569 0.930 . S
C2585 C2584 1.377 . S
C2585 C2586 1.379 . S
C2586 H2570 0.931 . S
C2586 C2580 1.383 . S
C2586 C2585 1.379 . S
H2587 C2581 0.959 . S
H2588 C2581 0.961 . S
H2589 C2581 0.960 . S
H2590 C2582 0.930 . S
H2591 C2583 0.929 . S
H2592 C2600 0.929 . S
H2593 C2602 0.930 . S
H2594 C2604 0.930 . S
H2595 C2607 0.929 1_455 S
H2596 C2610 0.930 . S
H2597 C2612 0.960 . S
H2598 C2612 0.960 . S
H2599 C2612 0.960 . S
C2600 H2592 0.929 . S
C2600 C2601 1.377 . S
C2600 C2602 1.384 . S
C2601 C2600 1.377 . S
C2601 C2607 1.390 . S
C2602 H2593 0.930 . S
C2602 C2600 1.384 . S
C2602 C2603 1.372 . S
C2603 C2602 1.372 . S
C2603 C2604 1.400 . S
C2603 C2608 1.490 . S
C2604 H2594 0.930 . S
C2604 C2603 1.400 . S
C2604 C2607 1.386 . S
H2605 C2621 0.930 . S
H2606 C2622 0.931 . S
C2607 H2595 0.929 1_655 S
C2607 C2601 1.390 . S
C2607 C2604 1.386 . S
C2608 C2603 1.490 . S
C2608 C2610 1.395 . S
C2608 C2611 1.403 . S
H2609 C2615 0.930 . S
C2610 H2596 0.930 . S
C2610 C2608 1.395 . S
C2610 C2613 1.403 . S
C2611 C2608 1.403 . S
C2611 C2612 1.524 . S
C2611 C2615 1.400 . S
C2612 H2597 0.960 . S
C2612 H2598 0.960 . S
C2612 H2599 0.960 . S
C2612 C2611 1.524 . S
C2613 C2610 1.403 . S
C2613 C2614 1.392 . S
C2613 C2617 1.495 . S
C2614 C2613 1.392 . S
C2614 C2615 1.385 . S
C2614 C2616 1.478 . S
C2615 H2609 0.930 . S
C2615 C2611 1.400 . S
C2615 C2614 1.385 . S
C2616 C2614 1.478 . S
C2616 C2618 1.381 . S
C2616 C2622 1.383 . S
C2617 C2613 1.495 . S
C2617 H2623 0.959 . S
C2617 H2624 0.961 . S
C2617 H2625 0.960 . S
C2618 C2616 1.381 . S
C2618 C2619 1.394 . S
C2618 H2626 0.930 . S
C2619 C2618 1.394 . S
C2619 C2620 1.383 . S
C2619 H2627 0.929 . S
C2620 C2619 1.383 . S
C2620 C2621 1.377 . S
C2621 H2605 0.930 . S
C2621 C2620 1.377 . S
C2621 C2622 1.379 . S
C2622 H2606 0.931 . S
C2622 C2616 1.383 . S
C2622 C2621 1.379 . S
H2623 C2617 0.959 . S
H2624 C2617 0.961 . S
H2625 C2617 0.960 . S
H2626 C2618 0.930 . S
H2627 C2619 0.929 . S
H2628 C2636 0.929 . S
H2629 C2638 0.930 . S
H2630 C2640 0.930 . S
H2631 C2643 0.929 . S
H2632 C2646 0.930 . S
H2633 C2648 0.960 . S
H2634 C2648 0.960 . S
H2635 C2648 0.960 . S
C2636 H2628 0.929 . S
C2636 C2637 1.377 . S
C2636 C2638 1.384 . S
C2637 C2636 1.377 . S
C2637 C2643 1.390 . S
C2638 H2629 0.930 . S
C2638 C2636 1.384 . S
C2638 C2639 1.372 . S
C2639 C2638 1.372 . S
C2639 C2640 1.400 . S
C2639 C2644 1.490 . S
C2640 H2630 0.930 . S
C2640 C2639 1.400 . S
C2640 C2643 1.386 . S
H2641 C2657 0.930 . S
H2642 C2658 0.931 . S
C2643 H2631 0.929 . S
C2643 C2637 1.390 . S
C2643 C2640 1.386 . S
C2644 C2639 1.490 . S
C2644 C2646 1.395 . S
C2644 C2647 1.403 . S
H2645 C2651 0.930 . S
C2646 H2632 0.930 . S
C2646 C2644 1.395 . S
C2646 C2649 1.403 . S
C2647 C2644 1.403 . S
C2647 C2648 1.524 . S
C2647 C2651 1.400 . S
C2648 H2633 0.960 . S
C2648 H2634 0.960 . S
C2648 H2635 0.960 . S
C2648 C2647 1.524 . S
C2649 C2646 1.403 . S
C2649 C2650 1.392 . S
C2649 C2653 1.495 . S
C2650 C2649 1.392 . S
C2650 C2651 1.385 . S
C2650 C2652 1.478 . S
C2651 H2645 0.930 . S
C2651 C2647 1.400 . S
C2651 C2650 1.385 . S
C2652 C2650 1.478 . S
C2652 C2654 1.381 . S
C2652 C2658 1.383 . S
C2653 C2649 1.495 . S
C2653 H2659 0.959 . S
C2653 H2660 0.961 . S
C2653 H2661 0.960 . S
C2654 C2652 1.381 . S
C2654 C2655 1.394 . S
C2654 H2662 0.930 . S
C2655 C2654 1.394 . S
C2655 C2656 1.383 . S
C2655 H2663 0.929 . S
C2656 C2655 1.383 . S
C2656 C2657 1.377 . S
C2657 H2641 0.930 . S
C2657 C2656 1.377 . S
C2657 C2658 1.379 . S
C2658 H2642 0.931 . S
C2658 C2652 1.383 . S
C2658 C2657 1.379 . S
H2659 C2653 0.959 . S
H2660 C2653 0.961 . S
H2661 C2653 0.960 . S
H2662 C2654 0.930 . S
H2663 C2655 0.929 . S
H2664 C2672 0.929 . S
H2665 C2674 0.930 . S
H2666 C2676 0.930 . S
H2667 C2679 0.929 . S
H2668 C2682 0.930 . S
H2669 C2684 0.960 . S
H2670 C2684 0.960 . S
H2671 C2684 0.960 . S
C2672 H2664 0.929 . S
C2672 C2673 1.377 . S
C2672 C2674 1.384 . S
C2673 C2672 1.377 . S
C2673 C2679 1.390 . S
C2674 H2665 0.930 . S
C2674 C2672 1.384 . S
C2674 C2675 1.372 . S
C2675 C2674 1.372 . S
C2675 C2676 1.400 . S
C2675 C2680 1.490 . S
C2676 H2666 0.930 . S
C2676 C2675 1.400 . S
C2676 C2679 1.386 . S
H2677 C2693 0.930 . S
H2678 C2694 0.931 . S
C2679 H2667 0.929 . S
C2679 C2673 1.390 . S
C2679 C2676 1.386 . S
C2680 C2675 1.490 . S
C2680 C2682 1.395 . S
C2680 C2683 1.403 . S
H2681 C2687 0.930 . S
C2682 H2668 0.930 . S
C2682 C2680 1.395 . S
C2682 C2685 1.403 . S
C2683 C2680 1.403 . S
C2683 C2684 1.524 . S
C2683 C2687 1.400 . S
C2684 H2669 0.960 . S
C2684 H2670 0.960 . S
C2684 H2671 0.960 . S
C2684 C2683 1.524 . S
C2685 C2682 1.403 . S
C2685 C2686 1.392 . S
C2685 C2689 1.495 . S
C2686 C2685 1.392 . S
C2686 C2687 1.385 . S
C2686 C2688 1.478 . S
C2687 H2681 0.930 . S
C2687 C2683 1.400 . S
C2687 C2686 1.385 . S
C2688 C2686 1.478 . S
C2688 C2690 1.381 . S
C2688 C2694 1.383 . S
C2689 C2685 1.495 . S
C2689 H2695 0.959 . S
C2689 H2696 0.961 . S
C2689 H2697 0.960 . S
C2690 C2688 1.381 . S
C2690 C2691 1.394 . S
C2690 H2698 0.930 . S
C2691 C2690 1.394 . S
C2691 C2692 1.383 . S
C2691 H2699 0.929 . S
C2692 C2691 1.383 . S
C2692 C2693 1.377 . S
C2693 H2677 0.930 . S
C2693 C2692 1.377 . S
C2693 C2694 1.379 . S
C2694 H2678 0.931 . S
C2694 C2688 1.383 . S
C2694 C2693 1.379 . S
H2695 C2689 0.959 . S
H2696 C2689 0.961 . S
H2697 C2689 0.960 . S
H2698 C2690 0.930 . S
H2699 C2691 0.929 . S
H2700 C2708 0.929 . S
H2701 C2710 0.930 . S
H2702 C2712 0.930 . S
H2703 C2715 0.929 . S
H2704 C2718 0.930 . S
H2705 C2720 0.960 . S
H2706 C2720 0.960 . S
H2707 C2720 0.960 . S
C2708 H2700 0.929 . S
C2708 C2709 1.377 . S
C2708 C2710 1.384 . S
C2709 C2708 1.377 . S
C2709 C2715 1.390 . S
C2710 H2701 0.930 . S
C2710 C2708 1.384 . S
C2710 C2711 1.372 . S
C2711 C2710 1.372 . S
C2711 C2712 1.400 . S
C2711 C2716 1.490 . S
C2712 H2702 0.930 . S
C2712 C2711 1.400 . S
C2712 C2715 1.386 . S
H2713 C2729 0.930 . S
H2714 C2730 0.931 . S
C2715 H2703 0.929 . S
C2715 C2709 1.390 . S
C2715 C2712 1.386 . S
C2716 C2711 1.490 . S
C2716 C2718 1.395 1_655 S
C2716 C2719 1.403 . S
H2717 C2723 0.930 . S
C2718 H2704 0.930 . S
C2718 C2716 1.395 1_455 S
C2718 C2721 1.403 . S
C2719 C2716 1.403 . S
C2719 C2720 1.524 . S
C2719 C2723 1.400 1_655 S
C2720 H2705 0.960 . S
C2720 H2706 0.960 . S
C2720 H2707 0.960 . S
C2720 C2719 1.524 . S
C2721 C2718 1.403 . S
C2721 C2722 1.392 . S
C2721 C2725 1.495 . S
C2722 C2721 1.392 . S
C2722 C2723 1.385 . S
C2722 C2724 1.478 . S
C2723 H2717 0.930 . S
C2723 C2719 1.400 1_455 S
C2723 C2722 1.385 . S
C2724 C2722 1.478 . S
C2724 C2726 1.381 . S
C2724 C2730 1.383 . S
C2725 C2721 1.495 . S
C2725 H2731 0.959 . S
C2725 H2732 0.961 . S
C2725 H2733 0.960 . S
C2726 C2724 1.381 . S
C2726 C2727 1.394 . S
C2726 H2734 0.930 . S
C2727 C2726 1.394 . S
C2727 C2728 1.383 . S
C2727 H2735 0.929 . S
C2728 C2727 1.383 . S
C2728 C2729 1.377 . S
C2729 H2713 0.930 . S
C2729 C2728 1.377 . S
C2729 C2730 1.379 . S
C2730 H2714 0.931 . S
C2730 C2724 1.383 . S
C2730 C2729 1.379 . S
H2731 C2725 0.959 . S
H2732 C2725 0.961 . S
H2733 C2725 0.960 . S
H2734 C2726 0.930 . S
H2735 C2727 0.929 . S
H2736 C2744 0.929 . S
H2737 C2746 0.930 . S
H2738 C2748 0.930 . S
H2739 C2751 0.929 . S
H2740 C2754 0.930 . S
H2741 C2756 0.960 . S
H2742 C2756 0.960 . S
H2743 C2756 0.960 . S
C2744 H2736 0.929 . S
C2744 C2745 1.377 . S
C2744 C2746 1.384 . S
C2745 C2744 1.377 . S
C2745 C2751 1.390 . S
C2746 H2737 0.930 . S
C2746 C2744 1.384 . S
C2746 C2747 1.372 . S
C2747 C2746 1.372 . S
C2747 C2748 1.400 . S
C2747 C2752 1.490 . S
C2748 H2738 0.930 . S
C2748 C2747 1.400 . S
C2748 C2751 1.386 . S
H2749 C2765 0.930 . S
H2750 C2766 0.931 . S
C2751 H2739 0.929 . S
C2751 C2745 1.390 . S
C2751 C2748 1.386 . S
C2752 C2747 1.490 . S
C2752 C2754 1.395 . S
C2752 C2755 1.403 . S
H2753 C2759 0.930 . S
C2754 H2740 0.930 . S
C2754 C2752 1.395 . S
C2754 C2757 1.403 . S
C2755 C2752 1.403 . S
C2755 C2756 1.524 . S
C2755 C2759 1.400 . S
C2756 H2741 0.960 . S
C2756 H2742 0.960 . S
C2756 H2743 0.960 . S
C2756 C2755 1.524 . S
C2757 C2754 1.403 . S
C2757 C2758 1.392 . S
C2757 C2761 1.495 . S
C2758 C2757 1.392 . S
C2758 C2759 1.385 . S
C2758 C2760 1.478 . S
C2759 H2753 0.930 . S
C2759 C2755 1.400 . S
C2759 C2758 1.385 . S
C2760 C2758 1.478 . S
C2760 C2762 1.381 . S
C2760 C2766 1.383 . S
C2761 C2757 1.495 . S
C2761 H2767 0.959 . S
C2761 H2768 0.961 . S
C2761 H2769 0.960 . S
C2762 C2760 1.381 . S
C2762 C2763 1.394 . S
C2762 H2770 0.930 . S
C2763 C2762 1.394 . S
C2763 C2764 1.383 . S
C2763 H2771 0.929 . S
C2764 C2763 1.383 . S
C2764 C2765 1.377 . S
C2765 H2749 0.930 . S
C2765 C2764 1.377 . S
C2765 C2766 1.379 . S
C2766 H2750 0.931 . S
C2766 C2760 1.383 . S
C2766 C2765 1.379 . S
H2767 C2761 0.959 . S
H2768 C2761 0.961 . S
H2769 C2761 0.960 . S
H2770 C2762 0.930 . S
H2771 C2763 0.929 . S
H2772 C2780 0.929 . S
H2773 C2782 0.930 . S
H2774 C2784 0.930 . S
H2775 C2787 0.929 . S
H2776 C2790 0.930 . S
H2777 C2792 0.960 . S
H2778 C2792 0.960 . S
H2779 C2792 0.960 . S
C2780 H2772 0.929 . S
C2780 C2781 1.377 . S
C2780 C2782 1.384 . S
C2781 C2780 1.377 . S
C2781 C2787 1.390 . S
C2782 H2773 0.930 . S
C2782 C2780 1.384 . S
C2782 C2783 1.372 . S
C2783 C2782 1.372 . S
C2783 C2784 1.400 . S
C2783 C2788 1.490 . S
C2784 H2774 0.930 . S
C2784 C2783 1.400 . S
C2784 C2787 1.386 . S
H2785 C2801 0.930 . S
H2786 C2802 0.931 . S
C2787 H2775 0.929 . S
C2787 C2781 1.390 . S
C2787 C2784 1.386 . S
C2788 C2783 1.490 . S
C2788 C2790 1.395 1_565 S
C2788 C2791 1.403 . S
H2789 C2795 0.930 . S
C2790 H2776 0.930 . S
C2790 C2788 1.395 1_545 S
C2790 C2793 1.403 . S
C2791 C2788 1.403 . S
C2791 C2792 1.524 . S
C2791 C2795 1.400 1_565 S
C2792 H2777 0.960 . S
C2792 H2778 0.960 . S
C2792 H2779 0.960 . S
C2792 C2791 1.524 . S
C2793 C2790 1.403 . S
C2793 C2794 1.392 . S
C2793 C2797 1.495 . S
C2794 C2793 1.392 . S
C2794 C2795 1.385 . S
C2794 C2796 1.478 . S
C2795 H2789 0.930 . S
C2795 C2791 1.400 1_545 S
C2795 C2794 1.385 . S
C2796 C2794 1.478 . S
C2796 C2798 1.381 . S
C2796 C2802 1.383 . S
C2797 C2793 1.495 . S
C2797 H2803 0.959 . S
C2797 H2804 0.961 . S
C2797 H2805 0.960 . S
C2798 C2796 1.381 . S
C2798 C2799 1.394 . S
C2798 H2806 0.930 . S
C2799 C2798 1.394 . S
C2799 C2800 1.383 . S
C2799 H2807 0.929 . S
C2800 C2799 1.383 . S
C2800 C2801 1.377 . S
C2801 H2785 0.930 . S
C2801 C2800 1.377 . S
C2801 C2802 1.379 . S
C2802 H2786 0.931 . S
C2802 C2796 1.383 . S
C2802 C2801 1.379 . S
H2803 C2797 0.959 . S
H2804 C2797 0.961 . S
H2805 C2797 0.960 . S
H2806 C2798 0.930 . S
H2807 C2799 0.929 . S
H2808 C2816 0.929 . S
H2809 C2818 0.930 . S
H2810 C2820 0.930 . S
H2811 C2823 0.929 . S
H2812 C2826 0.930 . S
H2813 C2828 0.960 . S
H2814 C2828 0.960 . S
H2815 C2828 0.960 . S
C2816 H2808 0.929 . S
C2816 C2817 1.377 . S
C2816 C2818 1.384 . S
C2817 C2816 1.377 . S
C2817 C2823 1.390 . S
C2818 H2809 0.930 . S
C2818 C2816 1.384 . S
C2818 C2819 1.372 . S
C2819 C2818 1.372 . S
C2819 C2820 1.400 . S
C2819 C2824 1.490 . S
C2820 H2810 0.930 . S
C2820 C2819 1.400 . S
C2820 C2823 1.386 . S
H2821 C2837 0.930 . S
H2822 C2838 0.931 . S
C2823 H2811 0.929 . S
C2823 C2817 1.390 . S
C2823 C2820 1.386 . S
C2824 C2819 1.490 . S
C2824 C2826 1.395 . S
C2824 C2827 1.403 . S
H2825 C2831 0.930 . S
C2826 H2812 0.930 . S
C2826 C2824 1.395 . S
C2826 C2829 1.403 . S
C2827 C2824 1.403 . S
C2827 C2828 1.524 . S
C2827 C2831 1.400 . S
C2828 H2813 0.960 . S
C2828 H2814 0.960 . S
C2828 H2815 0.960 . S
C2828 C2827 1.524 . S
C2829 C2826 1.403 . S
C2829 C2830 1.392 . S
C2829 C2833 1.495 . S
C2830 C2829 1.392 . S
C2830 C2831 1.385 . S
C2830 C2832 1.478 . S
C2831 H2825 0.930 . S
C2831 C2827 1.400 . S
C2831 C2830 1.385 . S
C2832 C2830 1.478 . S
C2832 C2834 1.381 . S
C2832 C2838 1.383 . S
C2833 C2829 1.495 . S
C2833 H2839 0.959 . S
C2833 H2840 0.961 . S
C2833 H2841 0.960 . S
C2834 C2832 1.381 . S
C2834 C2835 1.394 . S
C2834 H2842 0.930 . S
C2835 C2834 1.394 . S
C2835 C2836 1.383 . S
C2835 H2843 0.929 . S
C2836 C2835 1.383 . S
C2836 C2837 1.377 . S
C2837 H2821 0.930 . S
C2837 C2836 1.377 . S
C2837 C2838 1.379 . S
C2838 H2822 0.931 . S
C2838 C2832 1.383 . S
C2838 C2837 1.379 . S
H2839 C2833 0.959 . S
H2840 C2833 0.961 . S
H2841 C2833 0.960 . S
H2842 C2834 0.930 . S
H2843 C2835 0.929 . S
H2844 C2852 0.929 . S
H2845 C2854 0.930 . S
H2846 C2856 0.930 . S
H2847 C2859 0.929 . S
H2848 C2862 0.930 . S
H2849 C2864 0.960 . S
H2850 C2864 0.960 . S
H2851 C2864 0.960 . S
C2852 H2844 0.929 . S
C2852 C2853 1.377 . S
C2852 C2854 1.384 . S
C2853 C2852 1.377 . S
C2853 C2859 1.390 . S
C2854 H2845 0.930 . S
C2854 C2852 1.384 . S
C2854 C2855 1.372 . S
C2855 C2854 1.372 . S
C2855 C2856 1.400 . S
C2855 C2860 1.490 . S
C2856 H2846 0.930 . S
C2856 C2855 1.400 . S
C2856 C2859 1.386 . S
H2857 C2873 0.930 . S
H2858 C2874 0.931 . S
C2859 H2847 0.929 . S
C2859 C2853 1.390 . S
C2859 C2856 1.386 . S
C2860 C2855 1.490 . S
C2860 C2862 1.395 . S
C2860 C2863 1.403 . S
H2861 C2867 0.930 . S
C2862 H2848 0.930 . S
C2862 C2860 1.395 . S
C2862 C2865 1.403 . S
C2863 C2860 1.403 . S
C2863 C2864 1.524 . S
C2863 C2867 1.400 . S
C2864 H2849 0.960 . S
C2864 H2850 0.960 . S
C2864 H2851 0.960 . S
C2864 C2863 1.524 . S
C2865 C2862 1.403 . S
C2865 C2866 1.392 . S
C2865 C2869 1.495 . S
C2866 C2865 1.392 . S
C2866 C2867 1.385 . S
C2866 C2868 1.478 . S
C2867 H2861 0.930 . S
C2867 C2863 1.400 . S
C2867 C2866 1.385 . S
C2868 C2866 1.478 . S
C2868 C2870 1.381 . S
C2868 C2874 1.383 . S
C2869 C2865 1.495 . S
C2869 H2875 0.959 . S
C2869 H2876 0.961 . S
C2869 H2877 0.960 . S
C2870 C2868 1.381 . S
C2870 C2871 1.394 . S
C2870 H2878 0.930 . S
C2871 C2870 1.394 . S
C2871 C2872 1.383 . S
C2871 H2879 0.929 . S
C2872 C2871 1.383 . S
C2872 C2873 1.377 . S
C2873 H2857 0.930 . S
C2873 C2872 1.377 . S
C2873 C2874 1.379 . S
C2874 H2858 0.931 . S
C2874 C2868 1.383 . S
C2874 C2873 1.379 . S
H2875 C2869 0.959 . S
H2876 C2869 0.961 . S
H2877 C2869 0.960 . S
H2878 C2870 0.930 . S
H2879 C2871 0.929 . S
H2880 C2888 0.929 . S
H2881 C2890 0.930 . S
H2882 C2892 0.930 . S
H2883 C2895 0.929 . S
H2884 C2898 0.930 . S
H2885 C2900 0.960 . S
H2886 C2900 0.960 . S
H2887 C2900 0.960 . S
C2888 H2880 0.929 . S
C2888 C2889 1.377 . S
C2888 C2890 1.384 . S
C2889 C2888 1.377 . S
C2889 C2895 1.390 . S
C2890 H2881 0.930 . S
C2890 C2888 1.384 . S
C2890 C2891 1.372 . S
C2891 C2890 1.372 . S
C2891 C2892 1.400 . S
C2891 C2896 1.490 . S
C2892 H2882 0.930 . S
C2892 C2891 1.400 . S
C2892 C2895 1.386 . S
H2893 C2909 0.930 . S
H2894 C2910 0.931 . S
C2895 H2883 0.929 . S
C2895 C2889 1.390 . S
C2895 C2892 1.386 . S
C2896 C2891 1.490 . S
C2896 C2898 1.395 . S
C2896 C2899 1.403 . S
H2897 C2903 0.930 . S
C2898 H2884 0.930 . S
C2898 C2896 1.395 . S
C2898 C2901 1.403 . S
C2899 C2896 1.403 . S
C2899 C2900 1.524 . S
C2899 C2903 1.400 . S
C2900 H2885 0.960 . S
C2900 H2886 0.960 . S
C2900 H2887 0.960 . S
C2900 C2899 1.524 . S
C2901 C2898 1.403 . S
C2901 C2902 1.392 . S
C2901 C2905 1.495 . S
C2902 C2901 1.392 . S
C2902 C2903 1.385 . S
C2902 C2904 1.478 . S
C2903 H2897 0.930 . S
C2903 C2899 1.400 . S
C2903 C2902 1.385 . S
C2904 C2902 1.478 . S
C2904 C2906 1.381 . S
C2904 C2910 1.383 . S
C2905 C2901 1.495 . S
C2905 H2911 0.959 . S
C2905 H2912 0.961 . S
C2905 H2913 0.960 . S
C2906 C2904 1.381 . S
C2906 C2907 1.394 . S
C2906 H2914 0.930 . S
C2907 C2906 1.394 . S
C2907 C2908 1.383 . S
C2907 H2915 0.929 . S
C2908 C2907 1.383 . S
C2908 C2909 1.377 . S
C2909 H2893 0.930 . S
C2909 C2908 1.377 . S
C2909 C2910 1.379 . S
C2910 H2894 0.931 . S
C2910 C2904 1.383 . S
C2910 C2909 1.379 . S
H2911 C2905 0.959 . S
H2912 C2905 0.961 . S
H2913 C2905 0.960 . S
H2914 C2906 0.930 . S
H2915 C2907 0.929 . S
H2916 C2924 0.929 . S
H2917 C2926 0.930 . S
H2918 C2928 0.930 . S
H2919 C2931 0.929 . S
H2920 C2934 0.930 . S
H2921 C2936 0.960 . S
H2922 C2936 0.960 . S
H2923 C2936 0.960 . S
C2924 H2916 0.929 . S
C2924 C2925 1.377 . S
C2924 C2926 1.384 . S
C2925 C2924 1.377 . S
C2925 C2931 1.390 . S
C2926 H2917 0.930 . S
C2926 C2924 1.384 . S
C2926 C2927 1.372 . S
C2927 C2926 1.372 . S
C2927 C2928 1.400 . S
C2927 C2932 1.490 . S
C2928 H2918 0.930 . S
C2928 C2927 1.400 . S
C2928 C2931 1.386 . S
H2929 C2945 0.930 . S
H2930 C2946 0.931 . S
C2931 H2919 0.929 . S
C2931 C2925 1.390 . S
C2931 C2928 1.386 . S
C2932 C2927 1.490 . S
C2932 C2934 1.395 . S
C2932 C2935 1.403 . S
H2933 C2939 0.930 . S
C2934 H2920 0.930 . S
C2934 C2932 1.395 . S
C2934 C2937 1.403 . S
C2935 C2932 1.403 . S
C2935 C2936 1.524 . S
C2935 C2939 1.400 . S
C2936 H2921 0.960 . S
C2936 H2922 0.960 . S
C2936 H2923 0.960 . S
C2936 C2935 1.524 . S
C2937 C2934 1.403 . S
C2937 C2938 1.392 . S
C2937 C2941 1.495 . S
C2938 C2937 1.392 . S
C2938 C2939 1.385 . S
C2938 C2940 1.478 . S
C2939 H2933 0.930 . S
C2939 C2935 1.400 . S
C2939 C2938 1.385 . S
C2940 C2938 1.478 . S
C2940 C2942 1.381 . S
C2940 C2946 1.383 . S
C2941 C2937 1.495 . S
C2941 H2947 0.959 . S
C2941 H2948 0.961 . S
C2941 H2949 0.960 . S
C2942 C2940 1.381 . S
C2942 C2943 1.394 . S
C2942 H2950 0.930 . S
C2943 C2942 1.394 . S
C2943 C2944 1.383 . S
C2943 H2951 0.929 . S
C2944 C2943 1.383 . S
C2944 C2945 1.377 . S
C2945 H2929 0.930 . S
C2945 C2944 1.377 . S
C2945 C2946 1.379 . S
C2946 H2930 0.931 . S
C2946 C2940 1.383 . S
C2946 C2945 1.379 . S
H2947 C2941 0.959 . S
H2948 C2941 0.961 . S
H2949 C2941 0.960 . S
H2950 C2942 0.930 . S
H2951 C2943 0.929 . S
H2952 C2960 0.929 . S
H2953 C2962 0.930 . S
H2954 C2964 0.930 . S
H2955 C2967 0.929 . S
H2956 C2970 0.930 . S
H2957 C2972 0.960 . S
H2958 C2972 0.960 . S
H2959 C2972 0.960 . S
C2960 H2952 0.929 . S
C2960 C2961 1.377 . S
C2960 C2962 1.384 . S
C2961 C2960 1.377 . S
C2961 C2967 1.390 . S
C2962 H2953 0.930 . S
C2962 C2960 1.384 . S
C2962 C2963 1.372 . S
C2963 C2962 1.372 . S
C2963 C2964 1.400 . S
C2963 C2968 1.490 . S
C2964 H2954 0.930 . S
C2964 C2963 1.400 . S
C2964 C2967 1.386 . S
H2965 C2981 0.930 . S
H2966 C2982 0.931 . S
C2967 H2955 0.929 . S
C2967 C2961 1.390 . S
C2967 C2964 1.386 . S
C2968 C2963 1.490 . S
C2968 C2970 1.395 . S
C2968 C2971 1.403 . S
H2969 C2975 0.930 . S
C2970 H2956 0.930 . S
C2970 C2968 1.395 . S
C2970 C2973 1.403 . S
C2971 C2968 1.403 . S
C2971 C2972 1.524 . S
C2971 C2975 1.400 . S
C2972 H2957 0.960 . S
C2972 H2958 0.960 . S
C2972 H2959 0.960 . S
C2972 C2971 1.524 . S
C2973 C2970 1.403 . S
C2973 C2974 1.392 . S
C2973 C2977 1.495 . S
C2974 C2973 1.392 . S
C2974 C2975 1.385 . S
C2974 C2976 1.478 . S
C2975 H2969 0.930 . S
C2975 C2971 1.400 . S
C2975 C2974 1.385 . S
C2976 C2974 1.478 . S
C2976 C2978 1.381 . S
C2976 C2982 1.383 . S
C2977 C2973 1.495 . S
C2977 H2983 0.959 . S
C2977 H2984 0.961 . S
C2977 H2985 0.960 . S
C2978 C2976 1.381 . S
C2978 C2979 1.394 . S
C2978 H2986 0.930 . S
C2979 C2978 1.394 . S
C2979 C2980 1.383 . S
C2979 H2987 0.929 . S
C2980 C2979 1.383 . S
C2980 C2981 1.377 . S
C2981 H2965 0.930 . S
C2981 C2980 1.377 . S
C2981 C2982 1.379 . S
C2982 H2966 0.931 . S
C2982 C2976 1.383 . S
C2982 C2981 1.379 . S
H2983 C2977 0.959 . S
H2984 C2977 0.961 . S
H2985 C2977 0.960 . S
H2986 C2978 0.930 . S
H2987 C2979 0.929 . S
H2988 C2996 0.929 . S
H2989 C2998 0.930 . S
H2990 C3000 0.930 . S
H2991 C3003 0.929 . S
H2992 C3006 0.930 . S
H2993 C3008 0.960 . S
H2994 C3008 0.960 . S
H2995 C3008 0.960 . S
C2996 H2988 0.929 . S
C2996 C2997 1.377 . S
C2996 C2998 1.384 . S
C2997 C2996 1.377 . S
C2997 C3003 1.390 . S
C2998 H2989 0.930 . S
C2998 C2996 1.384 . S
C2998 C2999 1.372 . S
C2999 C2998 1.372 . S
C2999 C3000 1.400 . S
C2999 C3004 1.490 . S
C3000 H2990 0.930 . S
C3000 C2999 1.400 . S
C3000 C3003 1.386 . S
H3001 C3017 0.930 . S
H3002 C3018 0.931 . S
C3003 H2991 0.929 . S
C3003 C2997 1.390 . S
C3003 C3000 1.386 . S
C3004 C2999 1.490 . S
C3004 C3006 1.395 . S
C3004 C3007 1.403 . S
H3005 C3011 0.930 . S
C3006 H2992 0.930 . S
C3006 C3004 1.395 . S
C3006 C3009 1.403 . S
C3007 C3004 1.403 . S
C3007 C3008 1.524 . S
C3007 C3011 1.400 . S
C3008 H2993 0.960 . S
C3008 H2994 0.960 . S
C3008 H2995 0.960 . S
C3008 C3007 1.524 . S
C3009 C3006 1.403 . S
C3009 C3010 1.392 . S
C3009 C3013 1.495 . S
C3010 C3009 1.392 . S
C3010 C3011 1.385 . S
C3010 C3012 1.478 . S
C3011 H3005 0.930 . S
C3011 C3007 1.400 . S
C3011 C3010 1.385 . S
C3012 C3010 1.478 . S
C3012 C3014 1.381 . S
C3012 C3018 1.383 . S
C3013 C3009 1.495 . S
C3013 H3019 0.959 . S
C3013 H3020 0.961 . S
C3013 H3021 0.960 . S
C3014 C3012 1.381 . S
C3014 C3015 1.394 . S
C3014 H3022 0.930 . S
C3015 C3014 1.394 . S
C3015 C3016 1.383 . S
C3015 H3023 0.929 . S
C3016 C3015 1.383 . S
C3016 C3017 1.377 . S
C3017 H3001 0.930 . S
C3017 C3016 1.377 . S
C3017 C3018 1.379 . S
C3018 H3002 0.931 . S
C3018 C3012 1.383 . S
C3018 C3017 1.379 . S
H3019 C3013 0.959 . S
H3020 C3013 0.961 . S
H3021 C3013 0.960 . S
H3022 C3014 0.930 . S
H3023 C3015 0.929 . S
H3024 C3032 0.929 . S
H3025 C3034 0.930 . S
H3026 C3036 0.930 . S
H3027 C3039 0.929 . S
H3028 C3042 0.930 . S
H3029 C3044 0.960 . S
H3030 C3044 0.960 . S
H3031 C3044 0.960 . S
C3032 H3024 0.929 . S
C3032 C3033 1.377 . S
C3032 C3034 1.384 . S
C3033 C3032 1.377 . S
C3033 C3039 1.390 . S
C3034 H3025 0.930 . S
C3034 C3032 1.384 . S
C3034 C3035 1.372 . S
C3035 C3034 1.372 . S
C3035 C3036 1.400 . S
C3035 C3040 1.490 . S
C3036 H3026 0.930 . S
C3036 C3035 1.400 . S
C3036 C3039 1.386 . S
H3037 C3053 0.930 . S
H3038 C3054 0.931 . S
C3039 H3027 0.929 . S
C3039 C3033 1.390 . S
C3039 C3036 1.386 . S
C3040 C3035 1.490 . S
C3040 C3042 1.395 . S
C3040 C3043 1.403 . S
H3041 C3047 0.930 . S
C3042 H3028 0.930 . S
C3042 C3040 1.395 . S
C3042 C3045 1.403 . S
C3043 C3040 1.403 . S
C3043 C3044 1.524 . S
C3043 C3047 1.400 . S
C3044 H3029 0.960 . S
C3044 H3030 0.960 . S
C3044 H3031 0.960 . S
C3044 C3043 1.524 . S
C3045 C3042 1.403 . S
C3045 C3046 1.392 . S
C3045 C3049 1.495 . S
C3046 C3045 1.392 . S
C3046 C3047 1.385 . S
C3046 C3048 1.478 . S
C3047 H3041 0.930 . S
C3047 C3043 1.400 . S
C3047 C3046 1.385 . S
C3048 C3046 1.478 . S
C3048 C3050 1.381 . S
C3048 C3054 1.383 . S
C3049 C3045 1.495 . S
C3049 H3055 0.959 . S
C3049 H3056 0.961 . S
C3049 H3057 0.960 . S
C3050 C3048 1.381 . S
C3050 C3051 1.394 . S
C3050 H3058 0.930 . S
C3051 C3050 1.394 . S
C3051 C3052 1.383 . S
C3051 H3059 0.929 . S
C3052 C3051 1.383 . S
C3052 C3053 1.377 . S
C3053 H3037 0.930 . S
C3053 C3052 1.377 . S
C3053 C3054 1.379 . S
C3054 H3038 0.931 . S
C3054 C3048 1.383 . S
C3054 C3053 1.379 . S
H3055 C3049 0.959 . S
H3056 C3049 0.961 . S
H3057 C3049 0.960 . S
H3058 C3050 0.930 . S
H3059 C3051 0.929 . S
H3060 C3068 0.929 . S
H3061 C3070 0.930 . S
H3062 C3072 0.930 . S
H3063 C3075 0.929 . S
H3064 C3078 0.930 . S
H3065 C3080 0.960 . S
H3066 C3080 0.960 . S
H3067 C3080 0.960 . S
C3068 H3060 0.929 . S
C3068 C3069 1.377 . S
C3068 C3070 1.384 . S
C3069 C3068 1.377 . S
C3069 C3075 1.390 . S
C3070 H3061 0.930 . S
C3070 C3068 1.384 . S
C3070 C3071 1.372 . S
C3071 C3070 1.372 . S
C3071 C3072 1.400 . S
C3071 C3076 1.490 . S
C3072 H3062 0.930 . S
C3072 C3071 1.400 . S
C3072 C3075 1.386 . S
H3073 C3089 0.930 . S
H3074 C3090 0.931 . S
C3075 H3063 0.929 . S
C3075 C3069 1.390 . S
C3075 C3072 1.386 . S
C3076 C3071 1.490 . S
C3076 C3078 1.395 . S
C3076 C3079 1.403 . S
H3077 C3083 0.930 . S
C3078 H3064 0.930 . S
C3078 C3076 1.395 . S
C3078 C3081 1.403 . S
C3079 C3076 1.403 . S
C3079 C3080 1.524 . S
C3079 C3083 1.400 . S
C3080 H3065 0.960 . S
C3080 H3066 0.960 . S
C3080 H3067 0.960 . S
C3080 C3079 1.524 . S
C3081 C3078 1.403 . S
C3081 C3082 1.392 . S
C3081 C3085 1.495 . S
C3082 C3081 1.392 . S
C3082 C3083 1.385 . S
C3082 C3084 1.478 . S
C3083 H3077 0.930 . S
C3083 C3079 1.400 . S
C3083 C3082 1.385 . S
C3084 C3082 1.478 . S
C3084 C3086 1.381 . S
C3084 C3090 1.383 . S
C3085 C3081 1.495 . S
C3085 H3091 0.959 . S
C3085 H3092 0.961 . S
C3085 H3093 0.960 . S
C3086 C3084 1.381 . S
C3086 C3087 1.394 . S
C3086 H3094 0.930 . S
C3087 C3086 1.394 . S
C3087 C3088 1.383 . S
C3087 H3095 0.929 . S
C3088 C3087 1.383 . S
C3088 C3089 1.377 . S
C3089 H3073 0.930 . S
C3089 C3088 1.377 . S
C3089 C3090 1.379 . S
C3090 H3074 0.931 . S
C3090 C3084 1.383 . S
C3090 C3089 1.379 . S
H3091 C3085 0.959 . S
H3092 C3085 0.961 . S
H3093 C3085 0.960 . S
H3094 C3086 0.930 . S
H3095 C3087 0.929 . S
H3096 C3104 0.929 . S
H3097 C3106 0.930 . S
H3098 C3108 0.930 . S
H3099 C3111 0.929 . S
H3100 C3114 0.930 . S
H3101 C3116 0.960 . S
H3102 C3116 0.960 . S
H3103 C3116 0.960 . S
C3104 H3096 0.929 . S
C3104 C3105 1.377 . S
C3104 C3106 1.384 . S
C3105 C3104 1.377 . S
C3105 C3111 1.390 . S
C3106 H3097 0.930 . S
C3106 C3104 1.384 . S
C3106 C3107 1.372 . S
C3107 C3106 1.372 . S
C3107 C3108 1.400 . S
C3107 C3112 1.490 . S
C3108 H3098 0.930 . S
C3108 C3107 1.400 . S
C3108 C3111 1.386 . S
H3109 C3125 0.930 . S
H3110 C3126 0.931 . S
C3111 H3099 0.929 . S
C3111 C3105 1.390 . S
C3111 C3108 1.386 . S
C3112 C3107 1.490 . S
C3112 C3114 1.395 . S
C3112 C3115 1.403 . S
H3113 C3119 0.930 . S
C3114 H3100 0.930 . S
C3114 C3112 1.395 . S
C3114 C3117 1.403 . S
C3115 C3112 1.403 . S
C3115 C3116 1.524 . S
C3115 C3119 1.400 . S
C3116 H3101 0.960 . S
C3116 H3102 0.960 . S
C3116 H3103 0.960 . S
C3116 C3115 1.524 . S
C3117 C3114 1.403 . S
C3117 C3118 1.392 . S
C3117 C3121 1.495 . S
C3118 C3117 1.392 . S
C3118 C3119 1.385 . S
C3118 C3120 1.478 . S
C3119 H3113 0.930 . S
C3119 C3115 1.400 . S
C3119 C3118 1.385 . S
C3120 C3118 1.478 . S
C3120 C3122 1.381 . S
C3120 C3126 1.383 . S
C3121 C3117 1.495 . S
C3121 H3127 0.959 . S
C3121 H3128 0.961 . S
C3121 H3129 0.960 . S
C3122 C3120 1.381 . S
C3122 C3123 1.394 . S
C3122 H3130 0.930 . S
C3123 C3122 1.394 . S
C3123 C3124 1.383 . S
C3123 H3131 0.929 . S
C3124 C3123 1.383 . S
C3124 C3125 1.377 . S
C3125 H3109 0.930 . S
C3125 C3124 1.377 . S
C3125 C3126 1.379 . S
C3126 H3110 0.931 . S
C3126 C3120 1.383 . S
C3126 C3125 1.379 . S
H3127 C3121 0.959 . S
H3128 C3121 0.961 . S
H3129 C3121 0.960 . S
H3130 C3122 0.930 . S
H3131 C3123 0.929 . S
H3132 C3140 0.929 . S
H3133 C3142 0.930 . S
H3134 C3144 0.930 . S
H3135 C3147 0.929 . S
H3136 C3150 0.930 . S
H3137 C3152 0.960 . S
H3138 C3152 0.960 . S
H3139 C3152 0.960 . S
C3140 H3132 0.929 . S
C3140 C3141 1.377 . S
C3140 C3142 1.384 . S
C3141 C3140 1.377 . S
C3141 C3147 1.390 . S
C3142 H3133 0.930 . S
C3142 C3140 1.384 . S
C3142 C3143 1.372 . S
C3143 C3142 1.372 . S
C3143 C3144 1.400 . S
C3143 C3148 1.490 . S
C3144 H3134 0.930 . S
C3144 C3143 1.400 . S
C3144 C3147 1.386 . S
H3145 C3161 0.930 . S
H3146 C3162 0.931 . S
C3147 H3135 0.929 . S
C3147 C3141 1.390 . S
C3147 C3144 1.386 . S
C3148 C3143 1.490 . S
C3148 C3150 1.395 . S
C3148 C3151 1.403 . S
H3149 C3155 0.930 . S
C3150 H3136 0.930 . S
C3150 C3148 1.395 . S
C3150 C3153 1.403 . S
C3151 C3148 1.403 . S
C3151 C3152 1.524 . S
C3151 C3155 1.400 . S
C3152 H3137 0.960 . S
C3152 H3138 0.960 . S
C3152 H3139 0.960 . S
C3152 C3151 1.524 . S
C3153 C3150 1.403 . S
C3153 C3154 1.392 . S
C3153 C3157 1.495 . S
C3154 C3153 1.392 . S
C3154 C3155 1.385 . S
C3154 C3156 1.478 . S
C3155 H3149 0.930 . S
C3155 C3151 1.400 . S
C3155 C3154 1.385 . S
C3156 C3154 1.478 . S
C3156 C3158 1.381 . S
C3156 C3162 1.383 . S
C3157 C3153 1.495 . S
C3157 H3163 0.959 . S
C3157 H3164 0.961 . S
C3157 H3165 0.960 . S
C3158 C3156 1.381 . S
C3158 C3159 1.394 1_655 S
C3158 H3166 0.930 . S
C3159 C3158 1.394 1_455 S
C3159 C3160 1.383 . S
C3159 H3167 0.929 . S
C3160 C3159 1.383 . S
C3160 C3161 1.377 1_455 S
C3161 H3145 0.930 . S
C3161 C3160 1.377 1_655 S
C3161 C3162 1.379 . S
C3162 H3146 0.931 . S
C3162 C3156 1.383 . S
C3162 C3161 1.379 . S
H3163 C3157 0.959 . S
H3164 C3157 0.961 . S
H3165 C3157 0.960 . S
H3166 C3158 0.930 . S
H3167 C3159 0.929 . S
H3168 C3176 0.929 . S
H3169 C3178 0.930 . S
H3170 C3180 0.930 . S
H3171 C3183 0.929 . S
H3172 C3186 0.930 . S
H3173 C3188 0.960 . S
H3174 C3188 0.960 . S
H3175 C3188 0.960 . S
C3176 H3168 0.929 . S
C3176 C3177 1.377 . S
C3176 C3178 1.384 1_565 S
C3177 C3176 1.377 . S
C3177 C3183 1.390 . S
C3178 H3169 0.930 . S
C3178 C3176 1.384 1_545 S
C3178 C3179 1.372 . S
C3179 C3178 1.372 . S
C3179 C3180 1.400 1_545 S
C3179 C3184 1.490 . S
C3180 H3170 0.930 . S
C3180 C3179 1.400 1_565 S
C3180 C3183 1.386 . S
H3181 C3197 0.930 . S
H3182 C3198 0.931 . S
C3183 H3171 0.929 . S
C3183 C3177 1.390 . S
C3183 C3180 1.386 . S
C3184 C3179 1.490 . S
C3184 C3186 1.395 . S
C3184 C3187 1.403 . S
H3185 C3191 0.930 . S
C3186 H3172 0.930 . S
C3186 C3184 1.395 . S
C3186 C3189 1.403 . S
C3187 C3184 1.403 . S
C3187 C3188 1.524 . S
C3187 C3191 1.400 . S
C3188 H3173 0.960 . S
C3188 H3174 0.960 . S
C3188 H3175 0.960 . S
C3188 C3187 1.524 . S
C3189 C3186 1.403 . S
C3189 C3190 1.392 . S
C3189 C3193 1.495 . S
C3190 C3189 1.392 . S
C3190 C3191 1.385 . S
C3190 C3192 1.478 . S
C3191 H3185 0.930 . S
C3191 C3187 1.400 . S
C3191 C3190 1.385 . S
C3192 C3190 1.478 . S
C3192 C3194 1.381 . S
C3192 C3198 1.383 . S
C3193 C3189 1.495 . S
C3193 H3199 0.959 . S
C3193 H3200 0.961 . S
C3193 H3201 0.960 . S
C3194 C3192 1.381 . S
C3194 C3195 1.394 . S
C3194 H3202 0.930 . S
C3195 C3194 1.394 . S
C3195 C3196 1.383 . S
C3195 H3203 0.929 . S
C3196 C3195 1.383 . S
C3196 C3197 1.377 . S
C3197 H3181 0.930 . S
C3197 C3196 1.377 . S
C3197 C3198 1.379 . S
C3198 H3182 0.931 . S
C3198 C3192 1.383 . S
C3198 C3197 1.379 . S
H3199 C3193 0.959 . S
H3200 C3193 0.961 . S
H3201 C3193 0.960 . S
H3202 C3194 0.930 . S
H3203 C3195 0.929 . S
H3204 C3212 0.929 . S
H3205 C3214 0.930 . S
H3206 C3216 0.930 . S
H3207 C3219 0.929 . S
H3208 C3222 0.930 . S
H3209 C3224 0.960 . S
H3210 C3224 0.960 . S
H3211 C3224 0.960 . S
C3212 H3204 0.929 . S
C3212 C3213 1.377 . S
C3212 C3214 1.384 . S
C3213 C3212 1.377 . S
C3213 C3219 1.390 . S
C3214 H3205 0.930 . S
C3214 C3212 1.384 . S
C3214 C3215 1.372 . S
C3215 C3214 1.372 . S
C3215 C3216 1.400 . S
C3215 C3220 1.490 . S
C3216 H3206 0.930 . S
C3216 C3215 1.400 . S
C3216 C3219 1.386 . S
H3217 C3233 0.930 . S
H3218 C3234 0.931 . S
C3219 H3207 0.929 . S
C3219 C3213 1.390 . S
C3219 C3216 1.386 . S
C3220 C3215 1.490 . S
C3220 C3222 1.395 . S
C3220 C3223 1.403 . S
H3221 C3227 0.930 . S
C3222 H3208 0.930 . S
C3222 C3220 1.395 . S
C3222 C3225 1.403 . S
C3223 C3220 1.403 . S
C3223 C3224 1.524 . S
C3223 C3227 1.400 . S
C3224 H3209 0.960 . S
C3224 H3210 0.960 . S
C3224 H3211 0.960 . S
C3224 C3223 1.524 . S
C3225 C3222 1.403 . S
C3225 C3226 1.392 1_655 S
C3225 C3229 1.495 1_655 S
C3226 C3225 1.392 1_455 S
C3226 C3227 1.385 1_455 S
C3226 C3228 1.478 . S
C3227 H3221 0.930 . S
C3227 C3223 1.400 . S
C3227 C3226 1.385 1_655 S
C3228 C3226 1.478 . S
C3228 C3230 1.381 . S
C3228 C3234 1.383 . S
C3229 C3225 1.495 1_455 S
C3229 H3235 0.959 . S
C3229 H3236 0.961 . S
C3229 H3237 0.960 . S
C3230 C3228 1.381 . S
C3230 C3231 1.394 . S
C3230 H3238 0.930 . S
C3231 C3230 1.394 . S
C3231 C3232 1.383 . S
C3231 H3239 0.929 . S
C3232 C3231 1.383 . S
C3232 C3233 1.377 . S
C3233 H3217 0.930 . S
C3233 C3232 1.377 . S
C3233 C3234 1.379 . S
C3234 H3218 0.931 . S
C3234 C3228 1.383 . S
C3234 C3233 1.379 . S
H3235 C3229 0.959 . S
H3236 C3229 0.961 . S
H3237 C3229 0.960 . S
H3238 C3230 0.930 . S
H3239 C3231 0.929 . S
H3240 C3248 0.929 . S
H3241 C3250 0.930 . S
H3242 C3252 0.930 . S
H3243 C3255 0.929 . S
H3244 C3258 0.930 . S
H3245 C3260 0.960 . S
H3246 C3260 0.960 . S
H3247 C3260 0.960 . S
C3248 H3240 0.929 . S
C3248 C3249 1.377 . S
C3248 C3250 1.384 . S
C3249 C3248 1.377 . S
C3249 C3255 1.390 . S
C3250 H3241 0.930 . S
C3250 C3248 1.384 . S
C3250 C3251 1.372 . S
C3251 C3250 1.372 . S
C3251 C3252 1.400 . S
C3251 C3256 1.490 . S
C3252 H3242 0.930 . S
C3252 C3251 1.400 . S
C3252 C3255 1.386 . S
H3253 C3269 0.930 . S
H3254 C3270 0.931 . S
C3255 H3243 0.929 . S
C3255 C3249 1.390 . S
C3255 C3252 1.386 . S
C3256 C3251 1.490 . S
C3256 C3258 1.395 . S
C3256 C3259 1.403 . S
H3257 C3263 0.930 . S
C3258 H3244 0.930 . S
C3258 C3256 1.395 . S
C3258 C3261 1.403 . S
C3259 C3256 1.403 . S
C3259 C3260 1.524 . S
C3259 C3263 1.400 . S
C3260 H3245 0.960 . S
C3260 H3246 0.960 . S
C3260 H3247 0.960 . S
C3260 C3259 1.524 . S
C3261 C3258 1.403 . S
C3261 C3262 1.392 . S
C3261 C3265 1.495 . S
C3262 C3261 1.392 . S
C3262 C3263 1.385 . S
C3262 C3264 1.478 . S
C3263 H3257 0.930 . S
C3263 C3259 1.400 . S
C3263 C3262 1.385 . S
C3264 C3262 1.478 . S
C3264 C3266 1.381 . S
C3264 C3270 1.383 . S
C3265 C3261 1.495 . S
C3265 H3271 0.959 . S
C3265 H3272 0.961 . S
C3265 H3273 0.960 . S
C3266 C3264 1.381 . S
C3266 C3267 1.394 . S
C3266 H3274 0.930 . S
C3267 C3266 1.394 . S
C3267 C3268 1.383 1_565 S
C3267 H3275 0.929 1_565 S
C3268 C3267 1.383 1_545 S
C3268 C3269 1.377 1_545 S
C3269 H3253 0.930 . S
C3269 C3268 1.377 1_565 S
C3269 C3270 1.379 . S
C3270 H3254 0.931 . S
C3270 C3264 1.383 . S
C3270 C3269 1.379 . S
H3271 C3265 0.959 . S
H3272 C3265 0.961 . S
H3273 C3265 0.960 . S
H3274 C3266 0.930 . S
H3275 C3267 0.929 1_545 S
H3276 C3284 0.929 . S
H3277 C3286 0.930 . S
H3278 C3288 0.930 . S
H3279 C3291 0.929 . S
H3280 C3294 0.930 . S
H3281 C3296 0.960 . S
H3282 C3296 0.960 . S
H3283 C3296 0.960 . S
C3284 H3276 0.929 . S
C3284 C3285 1.377 . S
C3284 C3286 1.384 . S
C3285 C3284 1.377 . S
C3285 C3291 1.390 . S
C3286 H3277 0.930 . S
C3286 C3284 1.384 . S
C3286 C3287 1.372 . S
C3287 C3286 1.372 . S
C3287 C3288 1.400 . S
C3287 C3292 1.490 . S
C3288 H3278 0.930 . S
C3288 C3287 1.400 . S
C3288 C3291 1.386 . S
H3289 C3305 0.930 . S
H3290 C3306 0.931 . S
C3291 H3279 0.929 . S
C3291 C3285 1.390 . S
C3291 C3288 1.386 . S
C3292 C3287 1.490 . S
C3292 C3294 1.395 . S
C3292 C3295 1.403 1_545 S
H3293 C3299 0.930 . S
C3294 H3280 0.930 . S
C3294 C3292 1.395 . S
C3294 C3297 1.403 1_545 S
C3295 C3292 1.403 1_565 S
C3295 C3296 1.524 . S
C3295 C3299 1.400 . S
C3296 H3281 0.960 . S
C3296 H3282 0.960 . S
C3296 H3283 0.960 . S
C3296 C3295 1.524 . S
C3297 C3294 1.403 1_565 S
C3297 C3298 1.392 . S
C3297 C3301 1.495 . S
C3298 C3297 1.392 . S
C3298 C3299 1.385 . S
C3298 C3300 1.478 . S
C3299 H3293 0.930 . S
C3299 C3295 1.400 . S
C3299 C3298 1.385 . S
C3300 C3298 1.478 . S
C3300 C3302 1.381 . S
C3300 C3306 1.383 . S
C3301 C3297 1.495 . S
C3301 H3307 0.959 1_565 S
C3301 H3308 0.961 . S
C3301 H3309 0.960 . S
C3302 C3300 1.381 . S
C3302 C3303 1.394 . S
C3302 H3310 0.930 . S
C3303 C3302 1.394 . S
C3303 C3304 1.383 . S
C3303 H3311 0.929 . S
C3304 C3303 1.383 . S
C3304 C3305 1.377 . S
C3305 H3289 0.930 . S
C3305 C3304 1.377 . S
C3305 C3306 1.379 . S
C3306 H3290 0.931 . S
C3306 C3300 1.383 . S
C3306 C3305 1.379 . S
H3307 C3301 0.959 1_545 S
H3308 C3301 0.961 . S
H3309 C3301 0.960 . S
H3310 C3302 0.930 . S
H3311 C3303 0.929 . S
H3312 C3320 0.929 . S
H3313 C3322 0.930 . S
H3314 C3324 0.930 . S
H3315 C3327 0.929 . S
H3316 C3330 0.930 . S
H3317 C3332 0.960 . S
H3318 C3332 0.960 . S
H3319 C3332 0.960 . S
C3320 H3312 0.929 . S
C3320 C3321 1.377 . S
C3320 C3322 1.384 . S
C3321 C3320 1.377 . S
C3321 C3327 1.390 . S
C3322 H3313 0.930 . S
C3322 C3320 1.384 . S
C3322 C3323 1.372 . S
C3323 C3322 1.372 . S
C3323 C3324 1.400 . S
C3323 C3328 1.490 . S
C3324 H3314 0.930 . S
C3324 C3323 1.400 . S
C3324 C3327 1.386 . S
H3325 C3341 0.930 . S
H3326 C3342 0.931 1_455 S
C3327 H3315 0.929 . S
C3327 C3321 1.390 . S
C3327 C3324 1.386 . S
C3328 C3323 1.490 . S
C3328 C3330 1.395 . S
C3328 C3331 1.403 . S
H3329 C3335 0.930 . S
C3330 H3316 0.930 . S
C3330 C3328 1.395 . S
C3330 C3333 1.403 . S
C3331 C3328 1.403 . S
C3331 C3332 1.524 . S
C3331 C3335 1.400 . S
C3332 H3317 0.960 . S
C3332 H3318 0.960 . S
C3332 H3319 0.960 . S
C3332 C3331 1.524 . S
C3333 C3330 1.403 . S
C3333 C3334 1.392 . S
C3333 C3337 1.495 . S
C3334 C3333 1.392 . S
C3334 C3335 1.385 . S
C3334 C3336 1.478 . S
C3335 H3329 0.930 . S
C3335 C3331 1.400 . S
C3335 C3334 1.385 . S
C3336 C3334 1.478 . S
C3336 C3338 1.381 1_455 S
C3336 C3342 1.383 1_455 S
C3337 C3333 1.495 . S
C3337 H3343 0.959 . S
C3337 H3344 0.961 . S
C3337 H3345 0.960 . S
C3338 C3336 1.381 1_655 S
C3338 C3339 1.394 . S
C3338 H3346 0.930 . S
C3339 C3338 1.394 . S
C3339 C3340 1.383 . S
C3339 H3347 0.929 . S
C3340 C3339 1.383 . S
C3340 C3341 1.377 . S
C3341 H3325 0.930 . S
C3341 C3340 1.377 . S
C3341 C3342 1.379 . S
C3342 H3326 0.931 1_655 S
C3342 C3336 1.383 1_655 S
C3342 C3341 1.379 . S
H3343 C3337 0.959 . S
H3344 C3337 0.961 . S
H3345 C3337 0.960 . S
H3346 C3338 0.930 . S
H3347 C3339 0.929 . S
H3348 C3356 0.929 . S
H3349 C3358 0.930 . S
H3350 C3360 0.930 . S
H3351 C3363 0.929 . S
H3352 C3366 0.930 . S
H3353 C3368 0.960 . S
H3354 C3368 0.960 . S
H3355 C3368 0.960 . S
C3356 H3348 0.929 . S
C3356 C3357 1.377 . S
C3356 C3358 1.384 . S
C3357 C3356 1.377 . S
C3357 C3363 1.390 . S
C3358 H3349 0.930 . S
C3358 C3356 1.384 . S
C3358 C3359 1.372 . S
C3359 C3358 1.372 . S
C3359 C3360 1.400 . S
C3359 C3364 1.490 . S
C3360 H3350 0.930 . S
C3360 C3359 1.400 . S
C3360 C3363 1.386 . S
H3361 C3377 0.930 . S
H3362 C3378 0.931 . S
C3363 H3351 0.929 . S
C3363 C3357 1.390 . S
C3363 C3360 1.386 . S
C3364 C3359 1.490 . S
C3364 C3366 1.395 . S
C3364 C3367 1.403 . S
H3365 C3371 0.930 . S
C3366 H3352 0.930 . S
C3366 C3364 1.395 . S
C3366 C3369 1.403 . S
C3367 C3364 1.403 . S
C3367 C3368 1.524 . S
C3367 C3371 1.400 . S
C3368 H3353 0.960 . S
C3368 H3354 0.960 . S
C3368 H3355 0.960 . S
C3368 C3367 1.524 . S
C3369 C3366 1.403 . S
C3369 C3370 1.392 . S
C3369 C3373 1.495 . S
C3370 C3369 1.392 . S
C3370 C3371 1.385 . S
C3370 C3372 1.478 . S
C3371 H3365 0.930 . S
C3371 C3367 1.400 . S
C3371 C3370 1.385 . S
C3372 C3370 1.478 . S
C3372 C3374 1.381 . S
C3372 C3378 1.383 . S
C3373 C3369 1.495 . S
C3373 H3379 0.959 . S
C3373 H3380 0.961 . S
C3373 H3381 0.960 . S
C3374 C3372 1.381 . S
C3374 C3375 1.394 . S
C3374 H3382 0.930 . S
C3375 C3374 1.394 . S
C3375 C3376 1.383 . S
C3375 H3383 0.929 . S
C3376 C3375 1.383 . S
C3376 C3377 1.377 . S
C3377 H3361 0.930 . S
C3377 C3376 1.377 . S
C3377 C3378 1.379 . S
C3378 H3362 0.931 . S
C3378 C3372 1.383 . S
C3378 C3377 1.379 . S
H3379 C3373 0.959 . S
H3380 C3373 0.961 . S
H3381 C3373 0.960 . S
H3382 C3374 0.930 . S
H3383 C3375 0.929 . S
H3384 C3392 0.929 . S
H3385 C3394 0.930 . S
H3386 C3396 0.930 . S
H3387 C3399 0.929 . S
H3388 C3402 0.930 . S
H3389 C3404 0.960 . S
H3390 C3404 0.960 . S
H3391 C3404 0.960 . S
C3392 H3384 0.929 . S
C3392 C3393 1.377 . S
C3392 C3394 1.384 . S
C3393 C3392 1.377 . S
C3393 C3399 1.390 . S
C3394 H3385 0.930 . S
C3394 C3392 1.384 . S
C3394 C3395 1.372 . S
C3395 C3394 1.372 . S
C3395 C3396 1.400 . S
C3395 C3400 1.490 . S
C3396 H3386 0.930 . S
C3396 C3395 1.400 . S
C3396 C3399 1.386 . S
H3397 C3413 0.930 . S
H3398 C3414 0.931 . S
C3399 H3387 0.929 . S
C3399 C3393 1.390 . S
C3399 C3396 1.386 . S
C3400 C3395 1.490 . S
C3400 C3402 1.395 . S
C3400 C3403 1.403 . S
H3401 C3407 0.930 . S
C3402 H3388 0.930 . S
C3402 C3400 1.395 . S
C3402 C3405 1.403 . S
C3403 C3400 1.403 . S
C3403 C3404 1.524 . S
C3403 C3407 1.400 . S
C3404 H3389 0.960 . S
C3404 H3390 0.960 . S
C3404 H3391 0.960 . S
C3404 C3403 1.524 . S
C3405 C3402 1.403 . S
C3405 C3406 1.392 . S
C3405 C3409 1.495 . S
C3406 C3405 1.392 . S
C3406 C3407 1.385 . S
C3406 C3408 1.478 . S
C3407 H3401 0.930 . S
C3407 C3403 1.400 . S
C3407 C3406 1.385 . S
C3408 C3406 1.478 . S
C3408 C3410 1.381 . S
C3408 C3414 1.383 . S
C3409 C3405 1.495 . S
C3409 H3415 0.959 . S
C3409 H3416 0.961 . S
C3409 H3417 0.960 . S
C3410 C3408 1.381 . S
C3410 C3411 1.394 . S
C3410 H3418 0.930 . S
C3411 C3410 1.394 . S
C3411 C3412 1.383 . S
C3411 H3419 0.929 . S
C3412 C3411 1.383 . S
C3412 C3413 1.377 . S
C3413 H3397 0.930 . S
C3413 C3412 1.377 . S
C3413 C3414 1.379 . S
C3414 H3398 0.931 . S
C3414 C3408 1.383 . S
C3414 C3413 1.379 . S
H3415 C3409 0.959 . S
H3416 C3409 0.961 . S
H3417 C3409 0.960 . S
H3418 C3410 0.930 . S
H3419 C3411 0.929 . S
H3420 C3428 0.929 . S
H3421 C3430 0.930 . S
H3422 C3432 0.930 . S
H3423 C3435 0.929 . S
H3424 C3438 0.930 . S
H3425 C3440 0.960 . S
H3426 C3440 0.960 . S
H3427 C3440 0.960 . S
C3428 H3420 0.929 . S
C3428 C3429 1.377 . S
C3428 C3430 1.384 . S
C3429 C3428 1.377 . S
C3429 C3435 1.390 . S
C3430 H3421 0.930 . S
C3430 C3428 1.384 . S
C3430 C3431 1.372 . S
C3431 C3430 1.372 . S
C3431 C3432 1.400 . S
C3431 C3436 1.490 . S
C3432 H3422 0.930 . S
C3432 C3431 1.400 . S
C3432 C3435 1.386 . S
H3433 C3449 0.930 . S
H3434 C3450 0.931 . S
C3435 H3423 0.929 . S
C3435 C3429 1.390 . S
C3435 C3432 1.386 . S
C3436 C3431 1.490 . S
C3436 C3438 1.395 . S
C3436 C3439 1.403 . S
H3437 C3443 0.930 . S
C3438 H3424 0.930 . S
C3438 C3436 1.395 . S
C3438 C3441 1.403 . S
C3439 C3436 1.403 . S
C3439 C3440 1.524 . S
C3439 C3443 1.400 . S
C3440 H3425 0.960 . S
C3440 H3426 0.960 . S
C3440 H3427 0.960 . S
C3440 C3439 1.524 . S
C3441 C3438 1.403 . S
C3441 C3442 1.392 . S
C3441 C3445 1.495 . S
C3442 C3441 1.392 . S
C3442 C3443 1.385 . S
C3442 C3444 1.478 . S
C3443 H3437 0.930 . S
C3443 C3439 1.400 . S
C3443 C3442 1.385 . S
C3444 C3442 1.478 . S
C3444 C3446 1.381 . S
C3444 C3450 1.383 . S
C3445 C3441 1.495 . S
C3445 H3451 0.959 . S
C3445 H3452 0.961 . S
C3445 H3453 0.960 . S
C3446 C3444 1.381 . S
C3446 C3447 1.394 . S
C3446 H3454 0.930 . S
C3447 C3446 1.394 . S
C3447 C3448 1.383 . S
C3447 H3455 0.929 . S
C3448 C3447 1.383 . S
C3448 C3449 1.377 . S
C3449 H3433 0.930 . S
C3449 C3448 1.377 . S
C3449 C3450 1.379 . S
C3450 H3434 0.931 . S
C3450 C3444 1.383 . S
C3450 C3449 1.379 . S
H3451 C3445 0.959 . S
H3452 C3445 0.961 . S
H3453 C3445 0.960 . S
H3454 C3446 0.930 . S
H3455 C3447 0.929 . S
C1521 C67 0.843 . S
C1540 C226 0.783 . S
C1557 C58 0.799 . S
C1576 C151 0.853 . S
C1593 C142 0.794 . S
C1612 C235 0.845 . S
C1629 C319 0.850 . S
C1648 C394 0.879 . S
C1665 C478 0.794 . S
C1684 C403 0.844 . S
C1701 C487 0.849 . S
C1720 C310 0.782 . S
C1737 C730 0.824 . S
C1756 C571 0.851 . S
C1773 C562 0.811 1_655 S
C1792 C655 0.849 . S
C1809 C739 0.843 . S
C1828 C646 0.743 . S
C1845 C898 0.816 . S
C1864 C823 0.838 . S
C1881 C907 0.850 . S
C1900 C982 0.829 . S
C1917 C814 0.792 . S
C1936 C991 0.835 . S
C1953 C1075 0.844 . S
C1972 C1234 0.840 . S
C1989 C1066 0.798 . S
C2008 C1159 0.851 . S
C2025 C1150 0.813 . S
C2044 C1243 0.834 . S
C2061 C1402 0.792 . S
C2080 C1327 0.833 . S
C2097 C1486 0.797 . S
C2116 C1411 0.850 . S
C2133 C1318 0.812 1_565 S
C2152 C1495 0.858 . S
C2169 C74 1.909 . S
C2188 C494 1.885 . S
C2205 C326 1.909 . S
C2224 C158 1.885 . S
C2241 C410 1.916 . S
C2260 C242 1.915 . S
C2277 C578 1.911 . S
C2296 C998 1.896 . S
C2313 C662 1.910 . S
C2332 C830 1.891 . S
C2349 C914 1.919 . S
C2368 C746 1.929 . S
C2385 C1082 1.913 . S
C2404 C1502 1.906 . S
C2421 C1334 1.919 . S
C2440 C1166 1.931 . S
C2457 C1418 1.910 . S
C2476 C1250 1.890 . S
C2493 C903 2.080 . S
C2512 C63 2.081 . S
C2529 C147 2.083 . S
C2548 C987 2.065 . S
C2565 C819 2.082 . S
C2584 C231 2.068 . S
C2601 C315 2.081 . S
C2620 C1239 2.073 . S
C2637 C399 2.078 . S
C2656 C1071 2.083 . S
C2673 C1155 2.082 . S
C2692 C483 2.068 . S
C2709 C1407 2.079 . S
C2728 C567 2.086 . S
C2745 C651 2.082 . S
C2764 C1491 2.064 . S
C2781 C735 2.081 . S
C2800 C1323 2.075 . S
C2817 C237 1.583 . S
C2836 C56 1.769 . S
C2853 C69 1.595 . S
C2872 C140 1.768 . S
C2889 C224 1.782 . S
C2908 C153 1.566 . S
C2925 C405 1.582 . S
C2944 C308 1.772 . S
C2961 C489 1.597 . S
C2980 C392 1.775 . S
C2997 C476 1.780 . S
C3016 C321 1.624 . S
C3033 C741 1.597 . S
C3052 C560 1.775 . S
C3069 C644 1.781 . S
C3088 C573 1.548 . S
C3105 C657 1.591 . S
C3124 C728 1.765 . S
C3141 C812 1.780 . S
C3160 C909 1.624 . S
C3177 C896 1.780 . S
C3196 C993 1.547 . S
C3213 C825 1.595 . S
C3232 C980 1.783 . S
C3249 C1064 1.782 . S
C3268 C1245 1.581 . S
C3285 C1148 1.782 . S
C3304 C1077 1.571 . S
C3321 C1161 1.586 . S
C3340 C1232 1.787 . S
C3357 C1316 1.778 . S
C3376 C1413 1.577 . S
C3393 C1400 1.778 . S
C3412 C1497 1.575 . S
C3429 C1329 1.593 . S
C3448 C1484 1.785 . S
