# Generated by pormake.
# Topology wka, (5)-cn, num edge types: 1
# Building blocks:
#     Node 0, Type 0, BuildingBlock: XOMCOT_clean_sbu_0, # of connection points: 5
#     Node 1, Type 0, BuildingBlock: XOMCOT_clean_sbu_0, # of connection points: 5
#     Node 2, Type 0, BuildingBlock: XOMCOT_clean_sbu_0, # of connection points: 5
#     Node 3, Type 0, BuildingBlock: XOMCOT_clean_sbu_0, # of connection points: 5
#     Node 4, Type 0, BuildingBlock: XOMCOT_clean_sbu_0, # of connection points: 5
#     Node 5, Type 0, BuildingBlock: XOMCOT_clean_sbu_0, # of connection points: 5
#     Node 6, Type 0, BuildingBlock: XOMCOT_clean_sbu_0, # of connection points: 5
#     Node 7, Type 0, BuildingBlock: XOMCOT_clean_sbu_0, # of connection points: 5
#     Node 8, Type 0, BuildingBlock: XOMCOT_clean_sbu_0, # of connection points: 5
#     Node 9, Type 0, BuildingBlock: XOMCOT_clean_sbu_0, # of connection points: 5
#     Node 10, Type 0, BuildingBlock: XOMCOT_clean_sbu_0, # of connection points: 5
#     Node 11, Type 0, BuildingBlock: XOMCOT_clean_sbu_0, # of connection points: 5
#     Edge 12, Type (0, 0), BuildingBlock: UVAHIK_clean_linker_0, # of connection points: 2
#     Edge 13, Type (0, 0), BuildingBlock: UVAHIK_clean_linker_0, # of connection points: 2
#     Edge 14, Type (0, 0), BuildingBlock: UVAHIK_clean_linker_0, # of connection points: 2
#     Edge 15, Type (0, 0), BuildingBlock: UVAHIK_clean_linker_0, # of connection points: 2
#     Edge 16, Type (0, 0), BuildingBlock: UVAHIK_clean_linker_0, # of connection points: 2
#     Edge 17, Type (0, 0), BuildingBlock: UVAHIK_clean_linker_0, # of connection points: 2
#     Edge 18, Type (0, 0), BuildingBlock: UVAHIK_clean_linker_0, # of connection points: 2
#     Edge 19, Type (0, 0), BuildingBlock: UVAHIK_clean_linker_0, # of connection points: 2
#     Edge 20, Type (0, 0), BuildingBlock: UVAHIK_clean_linker_0, # of connection points: 2
#     Edge 21, Type (0, 0), BuildingBlock: UVAHIK_clean_linker_0, # of connection points: 2
#     Edge 22, Type (0, 0), BuildingBlock: UVAHIK_clean_linker_0, # of connection points: 2
#     Edge 23, Type (0, 0), BuildingBlock: UVAHIK_clean_linker_0, # of connection points: 2
#     Edge 24, Type (0, 0), BuildingBlock: UVAHIK_clean_linker_0, # of connection points: 2
#     Edge 25, Type (0, 0), BuildingBlock: UVAHIK_clean_linker_0, # of connection points: 2
#     Edge 26, Type (0, 0), BuildingBlock: UVAHIK_clean_linker_0, # of connection points: 2
#     Edge 27, Type (0, 0), BuildingBlock: UVAHIK_clean_linker_0, # of connection points: 2
#     Edge 28, Type (0, 0), BuildingBlock: UVAHIK_clean_linker_0, # of connection points: 2
#     Edge 29, Type (0, 0), BuildingBlock: UVAHIK_clean_linker_0, # of connection points: 2
#     Edge 30, Type (0, 0), BuildingBlock: UVAHIK_clean_linker_0, # of connection points: 2
#     Edge 31, Type (0, 0), BuildingBlock: UVAHIK_clean_linker_0, # of connection points: 2
#     Edge 32, Type (0, 0), BuildingBlock: UVAHIK_clean_linker_0, # of connection points: 2
#     Edge 33, Type (0, 0), BuildingBlock: UVAHIK_clean_linker_0, # of connection points: 2
#     Edge 34, Type (0, 0), BuildingBlock: UVAHIK_clean_linker_0, # of connection points: 2
#     Edge 35, Type (0, 0), BuildingBlock: UVAHIK_clean_linker_0, # of connection points: 2
#     Edge 36, Type (0, 0), BuildingBlock: UVAHIK_clean_linker_0, # of connection points: 2
#     Edge 37, Type (0, 0), BuildingBlock: UVAHIK_clean_linker_0, # of connection points: 2
#     Edge 38, Type (0, 0), BuildingBlock: UVAHIK_clean_linker_0, # of connection points: 2
#     Edge 39, Type (0, 0), BuildingBlock: UVAHIK_clean_linker_0, # of connection points: 2
#     Edge 40, Type (0, 0), BuildingBlock: UVAHIK_clean_linker_0, # of connection points: 2
#     Edge 41, Type (0, 0), BuildingBlock: UVAHIK_clean_linker_0, # of connection points: 2
# Relax obj value: 0.219
# Max RMSD: 0.182
# Mean RMSD: 0.182
data_MOF--net-wka--node1-XOMCOT_clean_sbu_0--edge1-UVAHIK_clean_linker_0
_symmetry_space_group_name_H-M    P1
_symmetry_Int_Tables_number       1
_symmetry_cell_setting            triclinic
loop_
_symmetry_equiv_pos_as_xyz
'x, y, z'
_cell_length_a     85.859465
_cell_length_b     85.878964
_cell_length_c     21.543879
_cell_angle_alpha  89.999851
_cell_angle_beta   90.025719
_cell_angle_gamma 120.00723
loop_
_atom_site_label
_atom_site_type_symbol
_atom_site_fract_x
_atom_site_fract_y
_atom_site_fract_z
_atom_type_partial_charge
Co0 Co 0.10778 0.41407 0.09675 0.0
C1 C 0.09945 0.41194 0.22912 0.0
C2 C 0.07783 0.3903 0.17917 0.0
C3 C 0.07403 0.38779 0.24181 0.0
N4 N 0.09378 0.40543 0.17165 0.0
N5 N 0.08772 0.40139 0.27309 0.0
H6 H 0.11247 0.42357 0.23857 0.0
H7 H 0.06993 0.38131 0.14212 0.0
C8 C 0.08178 0.41233 0.00259 0.0
O9 O 0.0939 0.4289 0.98773 0.0
N10 N 0.12204 0.42213 0.02084 0.0
C11 C 0.13924 0.43535 0.01241 0.0
C12 C 0.1437 0.43586 0.95073 0.0
C13 C 0.11691 0.41397 0.96495 0.0
N14 N 0.12954 0.42246 0.92093 0.0
C15 C 0.12435 0.45249 0.11451 0.0
C16 C 0.09256 0.45322 0.11857 0.0
C17 C 0.10888 0.46952 0.11656 0.0
C18 C 0.12495 0.46902 0.117 0.0
C19 C 0.09263 0.43704 0.11596 0.0
N20 N 0.10836 0.43686 0.10853 0.0
H21 H 0.13674 0.45231 0.11813 0.0
H22 H 0.07992 0.4246 0.1176 0.0
H23 H 0.14834 0.44372 0.04818 0.0
H24 H 0.10396 0.40222 0.95622 0.0
O25 O 0.1289 0.41919 0.14306 0.0
O26 O 0.11074 0.39322 0.09617 0.0
O27 O 0.08497 0.40417 0.04614 0.0
C28 C 0.1249 0.40279 0.13041 0.0
H29 H 0.06238 0.37653 0.26264 0.0
H30 H 0.15644 0.44524 0.92962 0.0
H31 H 0.0798 0.45291 0.11981 0.0
H32 H 0.13786 0.48129 0.11914 0.0
Co33 Co 0.69365 0.10807 0.25028 0.0
C34 C 0.68815 0.09913 0.38441 0.0
C35 C 0.69601 0.0826 0.33464 0.0
C36 C 0.69559 0.07887 0.39684 0.0
N37 N 0.69094 0.09503 0.32664 0.0
N38 N 0.69068 0.08933 0.42798 0.0
H39 H 0.68607 0.11018 0.39534 0.0
H40 H 0.70065 0.07731 0.298 0.0
C41 C 0.6717 0.06964 0.21651 0.0
O42 O 0.6621 0.0679 0.26625 0.0
N43 N 0.69701 0.12122 0.17477 0.0
C44 C 0.69518 0.13578 0.16706 0.0
C45 C 0.69712 0.14012 0.10497 0.0
C46 C 0.70024 0.11698 0.11804 0.0
N47 N 0.70028 0.12826 0.07442 0.0
C48 C 0.6657 0.11367 0.2997 0.0
C49 C 0.64049 0.0948 0.20891 0.0
C50 C 0.63609 0.10323 0.25594 0.0
C51 C 0.6491 0.11294 0.30137 0.0
C52 C 0.65739 0.09622 0.20829 0.0
N53 N 0.66947 0.10473 0.25519 0.0
H54 H 0.67583 0.12232 0.33238 0.0
H55 H 0.66087 0.09086 0.16878 0.0
H56 H 0.69206 0.14239 0.20371 0.0
H57 H 0.70168 0.1054 0.10847 0.0
O58 O 0.70635 0.13032 0.29469 0.0
O59 O 0.71904 0.11582 0.25237 0.0
O60 O 0.6849 0.08505 0.20186 0.0
C61 C 0.72081 0.12945 0.28468 0.0
H62 H 0.69935 0.06974 0.41757 0.0
H63 H 0.69594 0.15092 0.08381 0.0
H64 H 0.63111 0.08734 0.17211 0.0
H65 H 0.64683 0.12055 0.3367 0.0
Co66 Co 0.58048 0.69035 0.41552 0.0
C67 C 0.58379 0.68856 0.55129 0.0
C68 C 0.605 0.68739 0.50366 0.0
C69 C 0.60891 0.68936 0.56598 0.0
N70 N 0.58893 0.68637 0.49432 0.0
N71 N 0.59563 0.69029 0.59562 0.0
H72 H 0.57254 0.69058 0.55981 0.0
H73 H 0.61419 0.68846 0.46749 0.0
C74 C 0.59256 0.66464 0.38221 0.0
O75 O 0.5829 0.65485 0.42932 0.0
N76 N 0.5729 0.69525 0.33779 0.0
C77 C 0.5575 0.69524 0.32572 0.0
C78 C 0.55752 0.6995 0.26409 0.0
C79 C 0.58214 0.69966 0.28433 0.0
N80 N 0.57301 0.70221 0.23831 0.0
C81 C 0.5468 0.66244 0.46663 0.0
C82 C 0.53691 0.64044 0.36322 0.0
C83 C 0.52523 0.6352 0.41403 0.0
C84 C 0.53034 0.64637 0.46634 0.0
C85 C 0.5533 0.65647 0.36574 0.0
N86 N 0.55832 0.66712 0.41751 0.0
H87 H 0.54986 0.67134 0.50542 0.0
H88 H 0.56186 0.66048 0.32525 0.0
H89 H 0.54693 0.69208 0.35915 0.0
H90 H 0.5953 0.70101 0.27938 0.0
O91 O 0.57207 0.70466 0.45604 0.0
O92 O 0.59974 0.71503 0.41934 0.0
O93 O 0.59336 0.67959 0.37001 0.0
C94 C 0.58815 0.71823 0.44711 0.0
H95 H 0.62132 0.69161 0.58702 0.0
H96 H 0.54676 0.70002 0.23979 0.0
H97 H 0.5334 0.63224 0.32172 0.0
H98 H 0.5214 0.64301 0.50581 0.0
Co99 Co 0.88429 0.58436 0.56953 0.0
C100 C 0.89375 0.58773 0.70382 0.0
C101 C 0.90895 0.61245 0.65413 0.0
C102 C 0.91373 0.61559 0.71568 0.0
N103 N 0.89665 0.59491 0.64655 0.0
N104 N 0.90415 0.59999 0.74668 0.0
H105 H 0.88357 0.57423 0.71517 0.0
H106 H 0.91386 0.62237 0.61741 0.0
C107 C 0.92299 0.59875 0.54321 0.0
O108 O 0.92374 0.59124 0.59545 0.0
N109 N 0.87201 0.57443 0.49277 0.0
C110 C 0.85719 0.55826 0.48416 0.0
C111 C 0.85394 0.55556 0.42139 0.0
C112 C 0.87744 0.58148 0.43596 0.0
N113 N 0.86671 0.57019 0.39146 0.0
C114 C 0.87512 0.55017 0.62372 0.0
C115 C 0.89427 0.5417 0.54078 0.0
C116 C 0.88404 0.52916 0.58665 0.0
C117 C 0.87432 0.53356 0.62836 0.0
C118 C 0.89456 0.55804 0.5375 0.0
N119 N 0.8858 0.56258 0.58053 0.0
H120 H 0.86636 0.55257 0.65293 0.0
H121 H 0.90125 0.56664 0.49838 0.0
H122 H 0.84969 0.54885 0.52078 0.0
H123 H 0.8895 0.59421 0.42718 0.0
O124 O 0.86151 0.57656 0.60895 0.0
O125 O 0.87825 0.60319 0.56421 0.0
O126 O 0.90806 0.59703 0.52476 0.0
C127 C 0.86361 0.59215 0.59379 0.0
H128 H 0.92324 0.62839 0.7361 0.0
H129 H 0.84327 0.54364 0.39944 0.0
H130 H 0.90177 0.53883 0.50673 0.0
H131 H 0.86552 0.52397 0.66265 0.0
Co132 Co 0.30294 0.88934 0.75579 0.0
C133 C 0.30928 0.89788 0.88998 0.0
C134 C 0.30593 0.91757 0.84054 0.0
C135 C 0.30664 0.92123 0.90292 0.0
N136 N 0.30816 0.90322 0.83203 0.0
N137 N 0.30871 0.90877 0.93387 0.0
H138 H 0.30841 0.8852 0.90067 0.0
H139 H 0.3027 0.92422 0.80438 0.0
C140 C 0.32624 0.92685 0.71483 0.0
O141 O 0.33707 0.92818 0.76026 0.0
N142 N 0.29696 0.87532 0.6808 0.0
C143 C 0.29693 0.85975 0.67288 0.0
C144 C 0.29402 0.85515 0.61106 0.0
C145 C 0.29384 0.87988 0.62435 0.0
N146 N 0.29217 0.86788 0.58069 0.0
C147 C 0.33271 0.8855 0.80027 0.0
C148 C 0.35313 0.89835 0.69357 0.0
C149 C 0.35984 0.893 0.7433 0.0
C150 C 0.34941 0.88644 0.79713 0.0
C151 C 0.3365 0.89738 0.69894 0.0
N152 N 0.32673 0.89164 0.75266 0.0
H153 H 0.32439 0.87918 0.84001 0.0
H154 H 0.33139 0.90111 0.65926 0.0
H155 H 0.29964 0.85268 0.70903 0.0
H156 H 0.29388 0.89226 0.61475 0.0
O157 O 0.29054 0.86752 0.8029 0.0
O158 O 0.27807 0.88284 0.7655 0.0
O159 O 0.31163 0.91204 0.70568 0.0
C160 C 0.27634 0.86915 0.79725 0.0
H161 H 0.30482 0.93166 0.92385 0.0
H162 H 0.29384 0.84363 0.58987 0.0
H163 H 0.36066 0.90326 0.65078 0.0
H164 H 0.35384 0.88151 0.83564 0.0
Co165 Co 0.40744 0.29846 0.90301 0.0
C166 C 0.40335 0.30377 0.03737 0.0
C167 C 0.37828 0.29148 0.98826 0.0
C168 C 0.37491 0.29298 0.04966 0.0
N169 N 0.39615 0.29847 0.98048 0.0
N170 N 0.39072 0.30077 0.08027 0.0
H171 H 0.4173 0.30897 0.0483 0.0
H172 H 0.36838 0.28559 0.95164 0.0
C173 C 0.39082 0.32112 0.88189 0.0
O174 O 0.3974 0.32869 0.93589 0.0
N175 N 0.41817 0.29794 0.82568 0.0
C176 C 0.43485 0.30057 0.81671 0.0
C177 C 0.43786 0.30099 0.7538 0.0
C178 C 0.41115 0.29653 0.76894 0.0
N179 N 0.42292 0.29844 0.72418 0.0
C180 C 0.44119 0.32365 0.95943 0.0
C181 C 0.44818 0.35245 0.88422 0.0
C182 C 0.46122 0.35446 0.92764 0.0
C183 C 0.45752 0.33972 0.96556 0.0
C184 C 0.43225 0.33607 0.87877 0.0
N185 N 0.42844 0.32209 0.91801 0.0
H186 H 0.43923 0.31219 0.98616 0.0
H187 H 0.42348 0.33453 0.84061 0.0
H188 H 0.44433 0.30262 0.85325 0.0
H189 H 0.39802 0.29497 0.76054 0.0
O190 O 0.41604 0.28372 0.93926 0.0
O191 O 0.38952 0.27343 0.89311 0.0
O192 O 0.39397 0.30907 0.86076 0.0
C193 C 0.40083 0.27004 0.92185 0.0
H194 H 0.36185 0.28857 0.07015 0.0
H195 H 0.45014 0.3033 0.73159 0.0
H196 H 0.45035 0.36329 0.85328 0.0
H197 H 0.46744 0.34027 -0.00209 0.0
Co198 Co 0.57825 0.88693 0.7393 0.0
C199 C 0.58165 0.89576 0.60704 0.0
C200 C 0.60498 0.915 0.65737 0.0
C201 C 0.60795 0.9188 0.59484 0.0
N202 N 0.5885 0.90054 0.6646 0.0
N203 N 0.59327 0.9066 0.56334 0.0
H204 H 0.56885 0.88387 0.59728 0.0
H205 H 0.61448 0.92179 0.69453 0.0
C206 C 0.58503 0.91442 0.83539 0.0
O207 O 0.56811 0.90436 0.85198 0.0
N208 N 0.56838 0.87297 0.81499 0.0
C209 C 0.5525 0.85778 0.82439 0.0
C210 C 0.5511 0.85315 0.88613 0.0
C211 C 0.57683 0.87656 0.87044 0.0
N212 N 0.56634 0.86514 0.91523 0.0
C213 C 0.54124 0.87559 0.71304 0.0
C214 C 0.54465 0.90929 0.71804 0.0
C215 C 0.52755 0.89423 0.71 0.0
C216 C 0.52602 0.87726 0.70545 0.0
C217 C 0.55956 0.90699 0.72445 0.0
N218 N 0.55752 0.89016 0.72714 0.0
H219 H 0.53991 0.86256 0.70632 0.0
H220 H 0.57273 0.91881 0.72752 0.0
H221 H 0.54254 0.85028 0.78958 0.0
H222 H 0.59013 0.88788 0.8785 0.0
O223 O 0.56992 0.86509 0.69325 0.0
O224 O 0.59654 0.88004 0.73944 0.0
O225 O 0.59133 0.90969 0.78995 0.0
C226 C 0.58536 0.86644 0.70546 0.0
H227 H 0.62017 0.92937 0.57421 0.0
H228 H 0.53964 0.84192 0.90796 0.0
H229 H 0.5465 0.92273 0.71878 0.0
H230 H 0.51313 0.86532 0.69707 0.0
Co231 Co 0.68764 0.5731 0.91962 0.0
C232 C 0.68027 0.57297 0.78731 0.0
C233 C 0.68014 0.59505 0.83342 0.0
C234 C 0.67934 0.59715 0.77028 0.0
N235 N 0.68081 0.57993 0.84371 0.0
N236 N 0.67972 0.58338 0.74154 0.0
H237 H 0.68155 0.56121 0.77988 0.0
H238 H 0.68161 0.60463 0.86878 0.0
C239 C 0.66572 0.57828 0.01483 0.0
O240 O 0.66093 0.56198 0.03428 0.0
N241 N 0.69548 0.56708 -0.00377 0.0
C242 C 0.70025 0.55454 0.00729 0.0
C243 C 0.70523 0.55558 0.06863 0.0
C244 C 0.69921 0.57649 0.04957 0.0
N245 N 0.70429 0.56928 0.0953 0.0
C246 C 0.66461 0.53443 0.91961 0.0
C247 C 0.63266 0.53467 0.90857 0.0
C248 C 0.63215 0.51826 0.91649 0.0
C249 C 0.64836 0.51818 0.92093 0.0
C250 C 0.64919 0.55061 0.90868 0.0
N251 N 0.66488 0.55044 0.91776 0.0
H252 H 0.67687 0.53401 0.91851 0.0
H253 H 0.64935 0.56317 0.9025 0.0
H254 H 0.70075 0.54556 0.97342 0.0
H255 H 0.69839 0.58856 0.05488 0.0
O256 O 0.70197 0.5659 0.87294 0.0
O257 O 0.71166 0.5934 0.90993 0.0
O258 O 0.67645 0.58504 0.96876 0.0
C259 C 0.71492 0.58248 0.87774 0.0
H260 H 0.68006 0.6087 0.7473 0.0
H261 H 0.7089 0.54671 0.09187 0.0
H262 H 0.62039 0.53522 0.90356 0.0
H263 H 0.64847 0.50564 0.92415 0.0
Co264 Co 0.10717 0.68921 0.06961 0.0
C265 C 0.09921 0.68506 0.93686 0.0
C266 C 0.07898 0.68747 0.98742 0.0
C267 C 0.0753 0.68684 0.92485 0.0
N268 N 0.09397 0.68637 0.99445 0.0
N269 N 0.08809 0.68537 0.89326 0.0
H270 H 0.11148 0.68488 0.92713 0.0
H271 H 0.07163 0.68927 0.02485 0.0
C272 C 0.07961 0.66583 0.16133 0.0
O273 O 0.09043 0.65971 0.17623 0.0
N274 N 0.12066 0.69282 0.14604 0.0
C275 C 0.13658 0.69357 0.15553 0.0
C276 C 0.14106 0.69697 0.21734 0.0
C277 C 0.1164 0.69696 0.20154 0.0
N278 N 0.12825 0.69895 0.24623 0.0
C279 C 0.12073 0.6654 0.0415 0.0
C280 C 0.08778 0.6341 0.04 0.0
C281 C 0.10347 0.63295 0.03656 0.0
C282 C 0.1201 0.64894 0.03475 0.0
C283 C 0.0891 0.65088 0.04657 0.0
N284 N 0.10549 0.66611 0.05299 0.0
H285 H 0.13352 0.67754 0.03708 0.0
H286 H 0.07687 0.65155 0.04784 0.0
H287 H 0.14486 0.69237 0.12058 0.0
H288 H 0.10452 0.69801 0.2094 0.0
O289 O 0.12929 0.70451 0.02706 0.0
O290 O 0.11256 0.71388 0.07521 0.0
O291 O 0.08396 0.67749 0.1181 0.0
C292 C 0.12697 0.71778 0.04349 0.0
H293 H 0.06431 0.68781 0.90428 0.0
H294 H 0.15292 0.69805 0.23917 0.0
H295 H 0.07461 0.62214 0.03817 0.0
H296 H 0.13258 0.64879 0.02992 0.0
Co297 Co 0.41722 0.11057 0.24428 0.0
C298 C 0.41706 0.1034 0.11174 0.0
C299 C 0.39463 0.08152 0.15767 0.0
C300 C 0.3924 0.07876 0.0945 0.0
N301 N 0.41006 0.09703 0.16811 0.0
N302 N 0.4064 0.09271 0.06588 0.0
H303 H 0.42907 0.11628 0.1044 0.0
H304 H 0.38494 0.07357 0.19297 0.0
C305 C 0.4107 0.08292 0.33895 0.0
O306 O 0.42712 0.09385 0.35887 0.0
N307 N 0.4236 0.12436 0.32114 0.0
C308 C 0.43643 0.14159 0.33205 0.0
C309 C 0.43549 0.14569 0.39325 0.0
C310 C 0.41416 0.11894 0.37448 0.0
N311 N 0.42158 0.13126 0.42003 0.0
C312 C 0.45567 0.12486 0.2455 0.0
C313 C 0.45415 0.09211 0.23256 0.0
C314 C 0.47084 0.10764 0.241 0.0
C315 C 0.47158 0.12421 0.24655 0.0
C316 C 0.43855 0.09334 0.23315 0.0
N317 N 0.43935 0.10948 0.24288 0.0
H318 H 0.45662 0.13779 0.24517 0.0
H319 H 0.42574 0.08121 0.2266 0.0
H320 H 0.44551 0.15093 0.29807 0.0
H321 H 0.40187 0.10623 0.37984 0.0
O322 O 0.42533 0.13231 0.19799 0.0
O323 O 0.39758 0.11527 0.23421 0.0
O324 O 0.40441 0.08742 0.29286 0.0
C325 C 0.40895 0.12932 0.20241 0.0
H326 H 0.38064 0.0682 0.07148 0.0
H327 H 0.44454 0.15822 0.41627 0.0
H328 H 0.45314 0.0791 0.2267 0.0
H329 H 0.48437 0.13658 0.25036 0.0
Co330 Co 0.30221 0.41383 0.39625 0.0
C331 C 0.30816 0.41176 0.26444 0.0
C332 C 0.3069 0.38934 0.31294 0.0
C333 C 0.30716 0.38653 0.24995 0.0
N334 N 0.30745 0.40513 0.3215 0.0
N335 N 0.3077 0.40056 0.21972 0.0
H336 H 0.30789 0.42404 0.25599 0.0
H337 H 0.30508 0.37994 0.34948 0.0
C338 C 0.3243 0.41006 0.4944 0.0
O339 O 0.329 0.42654 0.51149 0.0
N340 N 0.29618 0.42192 0.472 0.0
C341 C 0.29659 0.43743 0.48612 0.0
C342 C 0.29223 0.43705 0.54789 0.0
C343 C 0.29057 0.41202 0.52432 0.0
N344 N 0.28875 0.42114 0.57196 0.0
C345 C 0.32475 0.45176 0.37227 0.0
C346 C 0.3571 0.45227 0.38143 0.0
C347 C 0.35724 0.46857 0.37559 0.0
C348 C 0.34083 0.46817 0.36835 0.0
C349 C 0.34073 0.43622 0.38437 0.0
N350 N 0.32484 0.43627 0.3856 0.0
H351 H 0.31225 0.45155 0.36445 0.0
H352 H 0.34091 0.42375 0.38654 0.0
H353 H 0.3 0.44849 0.45511 0.0
H354 H 0.28865 0.3986 0.52802 0.0
O355 O 0.28666 0.41964 0.34982 0.0
O356 O 0.27813 0.39339 0.39559 0.0
O357 O 0.31408 0.40296 0.44728 0.0
C358 C 0.27395 0.40331 0.36163 0.0
H359 H 0.30565 0.37449 0.2282 0.0
H360 H 0.29256 0.44802 0.57371 0.0
H361 H 0.36953 0.45194 0.38374 0.0
H362 H 0.34039 0.48043 0.36121 0.0
Co363 Co 0.88537 0.30696 0.59227 0.0
C364 C 0.89056 0.3091 0.45655 0.0
C365 C 0.9129 0.31019 0.50431 0.0
C366 C 0.91494 0.30841 0.44194 0.0
N367 N 0.89781 0.31112 0.51358 0.0
N368 N 0.90074 0.30752 0.41223 0.0
H369 H 0.87731 0.3071 0.44792 0.0
H370 H 0.92101 0.3091 0.54056 0.0
C371 C 0.92314 0.33341 0.6248 0.0
O372 O 0.92319 0.34299 0.57711 0.0
N373 N 0.87293 0.30202 0.66999 0.0
C374 C 0.85739 0.30171 0.68193 0.0
C375 C 0.8532 0.29745 0.74358 0.0
C376 C 0.87793 0.29783 0.72354 0.0
N377 N 0.86619 0.29508 0.7695 0.0
C378 C 0.877 0.33304 0.54156 0.0
C379 C 0.89105 0.35699 0.63937 0.0
C380 C 0.88301 0.36098 0.58996 0.0
C381 C 0.87582 0.34868 0.54076 0.0
C382 C 0.8918 0.34115 0.63854 0.0
N383 N 0.88547 0.32969 0.58892 0.0
H384 H 0.87039 0.32333 0.50534 0.0
H385 H 0.89724 0.33797 0.67862 0.0
H386 H 0.8498 0.30459 0.64836 0.0
H387 H 0.88989 0.29674 0.72857 0.0
O388 O 0.86275 0.29185 0.55205 0.0
O389 O 0.88087 0.28259 0.58969 0.0
O390 O 0.90905 0.31848 0.63756 0.0
C391 C 0.86592 0.27873 0.56164 0.0
H392 H 0.92515 0.30624 0.42086 0.0
H393 H 0.84179 0.29668 0.76778 0.0
H394 H 0.8967 0.36596 0.67867 0.0
H395 H 0.86881 0.3508 0.50281 0.0
C396 C 0.11442 0.61214 0.00169 0.0
C397 C 0.1026 0.61525 0.03776 0.0
C398 C 0.11469 0.59609 0.00765 0.0
C399 C 0.0886 0.54949 0.06617 0.0
H400 H 0.13542 0.55323 0.07916 0.0
C401 C 0.09679 0.48986 0.14484 0.0
C402 C 0.10909 0.48684 0.11138 0.0
C403 C 0.09614 0.50563 0.136 0.0
C404 C 0.12225 0.55193 0.07498 0.0
H405 H 0.08161 0.60381 0.10759 0.0
H406 H 0.08203 0.57579 0.11767 0.0
H407 H 0.13344 0.58016 0.05983 0.0
H408 H 0.13039 0.49805 0.04265 0.0
H409 H 0.12927 0.52557 0.02733 0.0
H410 H 0.0774 0.52127 0.08143 0.0
C411 C 0.09095 0.58568 0.08432 0.0
C412 C 0.12111 0.56735 0.06377 0.0
C413 C 0.09068 0.60173 0.07843 0.0
C414 C 0.12096 0.50011 0.06989 0.0
C415 C 0.1203 0.51586 0.06101 0.0
C416 C 0.08973 0.53407 0.07732 0.0
C417 C 0.10315 0.5828 0.04972 0.0
C418 C 0.10428 0.5663 0.05939 0.0
C419 C 0.10776 0.51872 0.09347 0.0
C420 C 0.10657 0.53513 0.08203 0.0
H421 H 0.12356 0.62218 0.96921 0.0
H422 H 0.12403 0.59411 0.97957 0.0
H423 H 0.07544 0.54823 0.06229 0.0
H424 H 0.08764 0.48 0.17777 0.0
H425 H 0.08654 0.50759 0.16253 0.0
C426 C 0.49887 0.11345 0.29529 0.0
C427 C 0.48746 0.10662 0.24368 0.0
C428 C 0.51454 0.11237 0.2984 0.0
C429 C 0.53723 0.0896 0.22468 0.0
H430 H 0.57932 0.12784 0.30616 0.0
C431 C 0.6099 0.10229 0.19969 0.0
C432 C 0.61847 0.10269 0.25594 0.0
C433 C 0.59349 0.10198 0.1997 0.0
C434 C 0.5676 0.11704 0.28363 0.0
H435 H 0.4834 0.0936 0.15443 0.0
H436 H 0.51122 0.0925 0.15795 0.0
H437 H 0.55168 0.12926 0.30169 0.0
H438 H 0.61615 0.10284 0.3564 0.0
H439 H 0.58792 0.10324 0.35584 0.0
H440 H 0.55369 0.07795 0.20423 0.0
C441 C 0.50786 0.09809 0.19731 0.0
C442 C 0.55171 0.11775 0.28133 0.0
C443 C 0.49198 0.09882 0.19491 0.0
C444 C 0.61019 0.10288 0.31214 0.0
C445 C 0.59397 0.10298 0.31201 0.0
C446 C 0.55325 0.08912 0.22586 0.0
C447 C 0.51934 0.10479 0.24924 0.0
C448 C 0.53628 0.10401 0.25191 0.0
C449 C 0.58551 0.10248 0.2558 0.0
C450 C 0.56851 0.10281 0.25546 0.0
H451 H 0.49549 0.11935 0.33372 0.0
H452 H 0.52276 0.11732 0.33975 0.0
H453 H 0.52559 0.07856 0.20281 0.0
H454 H 0.61598 0.10258 0.15539 0.0
H455 H 0.58724 0.1018 0.1558 0.0
C456 C 0.3869 0.4887 0.42554 0.0
C457 C 0.37442 0.48583 0.37848 0.0
C458 C 0.403 0.50502 0.42963 0.0
C459 C 0.42514 0.55249 0.37686 0.0
H460 H 0.46844 0.55247 0.42823 0.0
C461 C 0.49652 0.61454 0.35895 0.0
C462 C 0.50758 0.61845 0.41144 0.0
C463 C 0.48 0.59859 0.3558 0.0
C464 C 0.45642 0.55267 0.41435 0.0
H465 H 0.36903 0.49763 0.29835 0.0
H466 H 0.39745 0.52604 0.30422 0.0
H467 H 0.44029 0.52407 0.41897 0.0
H468 H 0.51012 0.60883 0.50173 0.0
H469 H 0.48124 0.58075 0.49592 0.0
H470 H 0.44154 0.58116 0.37082 0.0
C471 C 0.39462 0.51585 0.33899 0.0
C472 C 0.44026 0.53642 0.40918 0.0
C473 C 0.37838 0.49957 0.33537 0.0
C474 C 0.50179 0.60616 0.46089 0.0
C475 C 0.48537 0.59008 0.45737 0.0
C476 C 0.44137 0.56874 0.38134 0.0
C477 C 0.40713 0.51879 0.38627 0.0
C478 C 0.42439 0.53611 0.39064 0.0
C479 C 0.47435 0.58615 0.40474 0.0
C480 C 0.45713 0.56897 0.40035 0.0
H481 H 0.38403 0.47843 0.46001 0.0
H482 H 0.4121 0.50691 0.46745 0.0
H483 H 0.41315 0.55282 0.3635 0.0
H484 H 0.50061 0.62388 0.32043 0.0
H485 H 0.4718 0.59583 0.31456 0.0
C486 C 0.88387 0.38728 0.53551 0.0
C487 C 0.88175 0.37762 0.59059 0.0
C488 C 0.88298 0.40309 0.53636 0.0
C489 C 0.88955 0.43983 0.63856 0.0
H490 H 0.86189 0.44843 0.5149 0.0
C491 C 0.88207 0.50298 0.64579 0.0
C492 C 0.88277 0.51126 0.58874 0.0
C493 C 0.88097 0.48618 0.64749 0.0
C494 C 0.86986 0.44634 0.54934 0.0
H495 H 0.87648 0.37681 0.68949 0.0
H496 H 0.87538 0.40461 0.69097 0.0
H497 H 0.86196 0.42007 0.51436 0.0
H498 H 0.88239 0.50806 0.48866 0.0
H499 H 0.88126 0.47927 0.49166 0.0
H500 H 0.89787 0.46622 0.67268 0.0
C501 C 0.87786 0.39998 0.64732 0.0
C502 C 0.86984 0.43008 0.54907 0.0
C503 C 0.87858 0.38409 0.64642 0.0
C504 C 0.88221 0.50227 0.53348 0.0
C505 C 0.88126 0.48558 0.53519 0.0
C506 C 0.88972 0.45618 0.63849 0.0
C507 C 0.8801 0.40964 0.59234 0.0
C508 C 0.87974 0.4267 0.59352 0.0
C509 C 0.88064 0.47732 0.59218 0.0
C510 C 0.87995 0.45967 0.59367 0.0
H511 H 0.88658 0.38284 0.49186 0.0
H512 H 0.88495 0.4104 0.4934 0.0
H513 H 0.89747 0.43764 0.67295 0.0
H514 H 0.88259 0.50956 0.68923 0.0
H515 H 0.88028 0.48012 0.69222 0.0
C516 C 0.39006 0.90103 0.78623 0.0
C517 C 0.37737 0.89371 0.73809 0.0
C518 C 0.40671 0.90193 0.78074 0.0
C519 C 0.42903 0.8807 0.70264 0.0
H520 H 0.47313 0.92487 0.74099 0.0
C521 C 0.49811 0.88697 0.66199 0.0
C522 C 0.51134 0.89608 0.7074 0.0
C523 C 0.48221 0.88768 0.6625 0.0
C524 C 0.46094 0.91236 0.7308 0.0
H525 H 0.37193 0.88131 0.64705 0.0
H526 H 0.40098 0.88274 0.63771 0.0
H527 H 0.44428 0.92382 0.75011 0.0
H528 H 0.5185 0.91322 0.78849 0.0
H529 H 0.49059 0.91414 0.79051 0.0
H530 H 0.44546 0.86901 0.68501 0.0
C531 C 0.39809 0.88786 0.67947 0.0
C532 C 0.44444 0.9118 0.7359 0.0
C533 C 0.38155 0.88716 0.68463 0.0
C534 C 0.50857 0.90623 0.75254 0.0
C535 C 0.49259 0.90678 0.75353 0.0
C536 C 0.44548 0.88119 0.6982 0.0
C537 C 0.41084 0.8953 0.72738 0.0
C538 C 0.42834 0.89596 0.72186 0.0
C539 C 0.47911 0.89734 0.70893 0.0
C540 C 0.46166 0.89703 0.7122 0.0
H541 H 0.3872 0.90626 0.82776 0.0
H542 H 0.41627 0.9076 0.81854 0.0
H543 H 0.41678 0.86825 0.69227 0.0
H544 H 0.50003 0.87923 0.6262 0.0
H545 H 0.47232 0.88058 0.62662 0.0
C546 C 0.61109 0.48941 0.96953 0.0
C547 C 0.61477 0.5013 0.91977 0.0
C548 C 0.59441 0.47366 0.97393 0.0
C549 C 0.54772 0.45223 0.91113 0.0
H550 H 0.54442 0.40874 0.97808 0.0
C551 C 0.48678 0.38139 0.87617 0.0
C552 C 0.47892 0.3714 0.93052 0.0
C553 C 0.50321 0.39739 0.87856 0.0
C554 C 0.54519 0.42087 0.95981 0.0
H555 H 0.60431 0.50597 0.83476 0.0
H556 H 0.5755 0.47812 0.84057 0.0
H557 H 0.57363 0.43629 0.97329 0.0
H558 H 0.48251 0.37053 0.03007 0.0
H559 H 0.51173 0.39822 0.03336 0.0
H560 H 0.51934 0.43641 0.89508 0.0
C561 C 0.58512 0.48117 0.87763 0.0
C562 C 0.56188 0.43668 0.95725 0.0
C563 C 0.60166 0.49707 0.87391 0.0
C564 C 0.4882 0.37771 0.98716 0.0
C565 C 0.50486 0.39359 0.98925 0.0
C566 C 0.53114 0.43635 0.91263 0.0
C567 C 0.58119 0.46932 0.92802 0.0
C568 C 0.56338 0.45256 0.93248 0.0
C569 C 0.51237 0.40361 0.93501 0.0
C570 C 0.52977 0.42055 0.93668 0.0
H571 H 0.62097 0.49252 0.00578 0.0
H572 H 0.59182 0.46507 0.01393 0.0
H573 H 0.54822 0.46425 0.89325 0.0
H574 H 0.48041 0.37677 0.83135 0.0
H575 H 0.50892 0.4048 0.836 0.0
C576 C 0.05131 0.38562 0.98294 0.0
C577 C 0.06508 0.40287 0.96591 0.0
C578 C 0.03575 0.37662 0.9468 0.0
C579 C 0.01896 0.37555 0.78896 0.0
H580 H 0.97185 0.35302 0.86603 0.0
C581 C 0.9549 0.3563 0.64989 0.0
C582 C 0.93931 0.33999 0.66402 0.0
C583 C 0.97018 0.36264 0.68707 0.0
C584 C 0.98491 0.35901 0.84388 0.0
H585 H 0.07334 0.42423 0.89789 0.0
H586 H 0.04626 0.40859 0.8353 0.0
H587 H -0.00123 0.36641 0.93106 0.0
H588 H 0.92749 0.3175 0.72824 0.0
H589 H 0.95429 0.32854 0.79289 0.0
H590 H 0.0052 0.36833 0.70186 0.0
C591 C 0.04753 0.40194 0.87614 0.0
C592 C 0.0003 0.36668 0.8811 0.0
C593 C 0.06298 0.41096 0.91233 0.0
C594 C 0.93931 0.33013 0.71611 0.0
C595 C 0.95462 0.33648 0.75334 0.0
C596 C 0.00361 0.36786 0.75182 0.0
C597 C 0.03379 0.38468 0.89283 0.0
C598 C 0.01746 0.37529 0.85391 0.0
C599 C 0.97021 0.3528 0.73915 0.0
C600 C 0.98643 0.35978 0.77884 0.0
H601 H 0.05256 0.37905 0.02401 0.0
H602 H 0.02538 0.36328 0.96052 0.0
H603 H 0.03204 0.38182 0.76682 0.0
H604 H 0.95532 0.36425 0.61025 0.0
H605 H 0.98189 0.37541 0.67553 0.0
C606 C 0.61361 0.94383 0.84783 0.0
C607 C 0.59695 0.93061 0.87169 0.0
C608 C 0.62483 0.95909 0.88298 0.0
C609 C 0.63417 0.97565 0.0433 0.0
H610 H 0.65091 0.0229 0.97226 0.0
C611 C 0.65225 0.03702 0.19358 0.0
C612 C 0.66654 0.05391 0.17617 0.0
C613 C 0.64679 0.02216 0.15507 0.0
C614 C 0.64668 0.00984 0.99246 0.0
H615 H 0.57909 0.92279 0.95122 0.0
H616 H 0.59869 0.9493 0.01247 0.0
H617 H 0.63575 0.99626 0.90623 0.0
H618 H 0.68653 0.06844 0.10507 0.0
H619 H 0.67698 0.0423 0.03761 0.0
H620 H 0.64473 0.98907 0.12966 0.0
C621 C 0.60308 0.94789 0.96673 0.0
C622 C 0.63798 0.99461 0.95468 0.0
C623 C 0.5918 0.9328 0.93141 0.0
C624 C 0.67545 0.05558 0.11971 0.0
C625 C 0.66995 0.04065 0.08099 0.0
C626 C 0.64295 0.99084 0.0809 0.0
C627 C 0.61968 0.96118 0.94286 0.0
C628 C 0.63117 0.97737 0.98027 0.0
C629 C 0.6555 0.0238 0.09824 0.0
C630 C 0.64878 0.00805 0.05634 0.0
H631 H 0.6179 0.94246 0.80187 0.0
H632 H 0.63758 0.96917 0.86367 0.0
H633 H 0.62931 0.9625 0.06384 0.0
H634 H 0.64508 0.03526 0.23672 0.0
H635 H 0.63539 0.00945 0.1692 0.0
C636 C 0.61147 0.6676 0.28947 0.0
C637 C 0.60246 0.65831 0.34357 0.0
C638 C 0.62054 0.66128 0.25262 0.0
C639 C 0.63999 0.63146 0.25743 0.0
H640 H 0.63218 0.62773 0.0794 0.0
C641 C 0.65142 0.58319 0.10763 0.0
C642 C 0.65997 0.58927 0.04999 0.0
C643 C 0.64638 0.59366 0.14221 0.0
C644 C 0.63472 0.62896 0.12891 0.0
H645 H 0.59597 0.63518 0.40159 0.0
H646 H 0.61161 0.62414 0.33727 0.0
H647 H 0.6199 0.64264 0.14286 0.0
H648 H 0.66987 0.61104 0.98307 0.0
H649 H 0.66087 0.62935 0.0437 0.0
H650 H 0.65439 0.61738 0.2438 0.0
C651 C 0.61189 0.63642 0.32367 0.0
C652 C 0.62771 0.63749 0.16521 0.0
C653 C 0.6028 0.64268 0.36029 0.0
C654 C 0.66328 0.60601 0.02737 0.0
C655 C 0.6581 0.61645 0.06189 0.0
C656 C 0.64695 0.62292 0.22124 0.0
C657 C 0.62083 0.64562 0.26943 0.0
C658 C 0.62993 0.63845 0.23001 0.0
C659 C 0.6497 0.6104 0.11982 0.0
C660 C 0.64403 0.62121 0.15684 0.0
H661 H 0.61142 0.67968 0.27531 0.0
H662 H 0.6274 0.66869 0.21121 0.0
H663 H 0.64224 0.63234 0.30711 0.0
H664 H 0.64872 0.57039 0.12649 0.0
H665 H 0.63967 0.58852 0.18627 0.0
C666 C 0.93866 0.6161 0.44755 0.0
C667 C 0.93913 0.60803 0.50373 0.0
C668 C 0.95386 0.62439 0.40954 0.0
C669 C 0.00315 0.64262 0.41129 0.0
H670 H -0.00278 0.63333 0.23416 0.0
C671 C 0.06071 0.65121 0.25447 0.0
C672 C 0.06311 0.66018 0.19774 0.0
C673 C 0.04554 0.64648 0.29062 0.0
C674 C -0.00096 0.63623 0.28342 0.0
H675 H 0.95593 0.60241 0.56431 0.0
H676 H 0.98223 0.61651 0.49772 0.0
H677 H 0.97069 0.62229 0.3004 0.0
H678 H 0.05142 0.67105 0.13386 0.0
H679 H 0.02464 0.66248 0.19709 0.0
H680 H 0.03149 0.65604 0.39448 0.0
C681 C 0.97027 0.61677 0.48343 0.0
C682 C 0.98388 0.62996 0.32134 0.0
C683 C 0.95513 0.60856 0.52143 0.0
C684 C 0.04991 0.66414 0.17744 0.0
C685 C 0.0346 0.65921 0.21342 0.0
C686 C 0.01827 0.64876 0.3735 0.0
C687 C 0.9698 0.62473 0.42697 0.0
C688 C 0.98579 0.6328 0.38586 0.0
C689 C 0.03238 0.65048 0.27057 0.0
C690 C 0.01635 0.64534 0.30942 0.0
H691 H 0.92653 0.61596 0.43271 0.0
H692 H 0.95313 0.63057 0.36662 0.0
H693 H 0.00507 0.64538 0.46061 0.0
H694 H 0.07067 0.64803 0.2715 0.0
H695 H 0.04403 0.63954 0.33414 0.0
C696 C 0.38242 0.05313 0.34954 0.0
C697 C 0.39897 0.06641 0.37408 0.0
C698 C 0.37125 0.03772 0.38404 0.0
C699 C 0.3621 0.02076 0.54417 0.0
H700 H 0.34505 0.97367 0.4712 0.0
C701 C 0.3459 0.95929 0.69027 0.0
C702 C 0.33112 0.94253 0.67465 0.0
C703 C 0.35097 0.97415 0.65219 0.0
C704 C 0.34938 0.98671 0.4919 0.0
H705 H 0.41672 0.07406 0.45397 0.0
H706 H 0.39726 0.04728 0.51385 0.0
H707 H 0.35995 0.00048 0.40577 0.0
H708 H 0.30991 0.92817 0.60702 0.0
H709 H 0.3189 0.95432 0.53994 0.0
H710 H 0.35204 0.00713 0.63052 0.0
C711 C 0.39288 0.04879 0.46822 0.0
C712 C 0.35792 0.00203 0.4545 0.0
C713 C 0.4041 0.06404 0.43362 0.0
C714 C 0.32137 0.94095 0.62027 0.0
C715 C 0.32653 0.95586 0.58181 0.0
C716 C 0.35354 0.00549 0.58141 0.0
C717 C 0.37635 0.0355 0.44386 0.0
C718 C 0.36487 0.01921 0.4808 0.0
C719 C 0.34139 0.97261 0.59748 0.0
C720 C 0.34765 0.98837 0.55608 0.0
H721 H 0.37814 0.05462 0.30371 0.0
H722 H 0.35855 0.02765 0.36431 0.0
H723 H 0.36703 0.03385 0.5653 0.0
H724 H 0.3537 0.96097 0.73183 0.0
H725 H 0.36269 0.9868 0.66492 0.0
C726 C 0.37425 0.31994 0.78483 0.0
C727 C 0.38129 0.32781 0.84286 0.0
C728 C 0.36601 0.32685 0.74672 0.0
C729 C 0.34611 0.35646 0.74816 0.0
H730 H 0.35878 0.36272 0.5735 0.0
C731 C 0.33722 0.40546 0.59155 0.0
C732 C 0.32987 0.3994 0.53225 0.0
C733 C 0.34187 0.39513 0.62873 0.0
C734 C 0.35493 0.36083 0.622 0.0
H735 H 0.38493 0.34887 0.90691 0.0
H736 H 0.37087 0.36112 0.84007 0.0
H737 H 0.36957 0.34724 0.64063 0.0
H738 H 0.32171 0.37787 0.46508 0.0
H739 H 0.33011 0.35989 0.53011 0.0
H740 H 0.33192 0.37054 0.7297 0.0
C741 C 0.37144 0.34943 0.82436 0.0
C742 C 0.36106 0.35194 0.66042 0.0
C743 C 0.37961 0.34248 0.86252 0.0
C744 C 0.32738 0.38288 0.51059 0.0
C745 C 0.33222 0.37262 0.54764 0.0
C746 C 0.34008 0.36544 0.70983 0.0
C747 C 0.36467 0.34179 0.76584 0.0
C748 C 0.35694 0.34989 0.72411 0.0
C749 C 0.33941 0.37862 0.60716 0.0
C750 C 0.34466 0.36793 0.64661 0.0
H751 H 0.37525 0.30854 0.76851 0.0
H752 H 0.36071 0.32053 0.70223 0.0
H753 H 0.34241 0.35479 0.79678 0.0
H754 H 0.33919 0.41808 0.60972 0.0
H755 H 0.34759 0.40017 0.67417 0.0
C756 C 0.14655 0.40356 0.20817 0.0
C757 C 0.13574 0.39541 0.15593 0.0
C758 C 0.15751 0.39731 0.23166 0.0
C759 C 0.18385 0.37818 0.18015 0.0
H760 H 0.19249 0.37749 0.35667 0.0
C761 C 0.24101 0.38085 0.3601 0.0
C762 C 0.25585 0.39625 0.33528 0.0
C763 C 0.22378 0.37473 0.33592 0.0
C764 C 0.19003 0.3772 0.30725 0.0
H765 H 0.12745 0.37407 0.08808 0.0
H766 H 0.14726 0.36342 0.12835 0.0
H767 H 0.16522 0.37696 0.32114 0.0
H768 H 0.26459 0.4168 0.26417 0.0
H769 H 0.23465 0.40613 0.222 0.0
H770 H 0.20923 0.37959 0.16638 0.0
C771 C 0.14699 0.37449 0.15135 0.0
C772 C 0.1745 0.37701 0.28698 0.0
C773 C 0.13572 0.38058 0.12839 0.0
C774 C 0.25334 0.40501 0.28461 0.0
C775 C 0.23624 0.39876 0.25994 0.0
C776 C 0.19946 0.37852 0.20044 0.0
C777 C 0.15808 0.38293 0.20293 0.0
C778 C 0.1717 0.37832 0.2234 0.0
C779 C 0.22126 0.38373 0.28586 0.0
C780 C 0.20304 0.37885 0.26421 0.0
H781 H 0.14669 0.41491 0.23064 0.0
H782 H 0.16614 0.40425 0.27084 0.0
H783 H 0.18203 0.37926 0.13088 0.0
H784 H 0.24264 0.37383 0.39908 0.0
H785 H 0.21242 0.36314 0.35673 0.0
C786 C 0.75348 0.14108 0.3078 0.0
C787 C 0.738 0.14263 0.31331 0.0
C788 C 0.76925 0.153 0.33963 0.0
C789 C 0.80271 0.18841 0.38363 0.0
H790 H 0.79643 0.20166 0.55012 0.0
C791 C 0.85858 0.24788 0.52815 0.0
C792 C 0.85302 0.2604 0.54127 0.0
C793 C 0.84618 0.23076 0.50586 0.0
C794 C 0.79843 0.1979 0.50406 0.0
H795 H 0.72698 0.15808 0.35486 0.0
H796 H 0.75428 0.17874 0.40948 0.0
H797 H 0.77139 0.17611 0.49863 0.0
H798 H 0.83032 0.26487 0.54315 0.0
H799 H 0.80868 0.23492 0.50596 0.0
H800 H 0.82963 0.21083 0.38859 0.0
C801 C 0.75424 0.1682 0.38172 0.0
C802 C 0.78413 0.18338 0.47451 0.0
C803 C 0.73864 0.15645 0.3499 0.0
C804 C 0.83493 0.25547 0.53322 0.0
C805 C 0.82255 0.23833 0.51236 0.0
C806 C 0.81712 0.20294 0.41351 0.0
C807 C 0.76961 0.16645 0.37775 0.0
C808 C 0.78587 0.17905 0.41298 0.0
C809 C 0.82808 0.22589 0.49813 0.0
C810 C 0.81477 0.20823 0.47283 0.0
H811 H 0.75333 0.13052 0.27989 0.0
H812 H 0.78098 0.15146 0.33559 0.0
H813 H 0.80437 0.18533 0.33618 0.0
H814 H 0.87252 0.25148 0.5337 0.0
H815 H 0.85068 0.22133 0.49482 0.0
C816 C 0.60723 0.85557 0.68648 0.0
C817 C 0.5901 0.85362 0.67824 0.0
C818 C 0.61168 0.8438 0.6568 0.0
C819 C 0.59759 0.81244 0.52418 0.0
H820 H 0.61655 0.78692 0.61727 0.0
C821 C 0.57898 0.74046 0.47501 0.0
C822 C 0.59275 0.73637 0.46726 0.0
C823 C 0.58297 0.75749 0.49468 0.0
C824 C 0.61165 0.79426 0.59041 0.0
H825 H 0.56411 0.83766 0.63383 0.0
H826 H 0.57176 0.81723 0.5831 0.0
H827 H 0.61564 0.81237 0.66525 0.0
H828 H 0.62146 0.74666 0.47447 0.0
H829 H 0.6284 0.77661 0.51128 0.0
H830 H 0.59244 0.7936 0.45109 0.0
C831 C 0.5819 0.82798 0.61125 0.0
C832 C 0.61113 0.80877 0.61774 0.0
C833 C 0.57746 0.8396 0.64087 0.0
C834 C 0.61064 0.74959 0.47982 0.0
C835 C 0.6146 0.76661 0.50092 0.0
C836 C 0.59798 0.79791 0.49723 0.0
C837 C 0.5991 0.83006 0.61816 0.0
C838 C 0.60335 0.81745 0.58573 0.0
C839 C 0.60076 0.77066 0.50802 0.0
C840 C 0.60435 0.78829 0.53102 0.0
H841 H 0.61723 0.86629 0.71506 0.0
H842 H 0.62501 0.84562 0.66308 0.0
H843 H 0.5919 0.81917 0.49797 0.0
H844 H 0.56509 0.73052 0.46548 0.0
H845 H 0.57207 0.76029 0.50054 0.0
C846 C 0.74606 0.60653 0.84767 0.0
C847 C 0.7318 0.58871 0.8431 0.0
C848 C 0.76158 0.61231 0.81167 0.0
C849 C 0.77778 0.59994 0.67124 0.0
H850 H 0.82399 0.62141 0.75453 0.0
C851 C 0.83189 0.58302 0.6159 0.0
C852 C 0.84979 0.5968 0.60931 0.0
C853 C 0.81869 0.587 0.63353 0.0
C854 C 0.81126 0.61587 0.73021 0.0
H855 H 0.72254 0.56303 0.79738 0.0
H856 H 0.74943 0.57298 0.73568 0.0
H857 H 0.79793 0.6193 0.80868 0.0
H858 H 0.86807 0.62554 0.61519 0.0
H859 H 0.8448 0.63249 0.64883 0.0
H860 H 0.79078 0.59522 0.59474 0.0
C861 C 0.74864 0.5826 0.76613 0.0
C862 C 0.79637 0.61465 0.76113 0.0
C863 C 0.7333 0.57683 0.80216 0.0
C864 C 0.85429 0.61472 0.6198 0.0
C865 C 0.84107 0.61869 0.639 0.0
C866 C 0.79258 0.60103 0.64067 0.0
C867 C 0.7629 0.6004 0.77014 0.0
C868 C 0.77932 0.60584 0.73296 0.0
C869 C 0.82319 0.60481 0.64604 0.0
C870 C 0.80921 0.60824 0.67101 0.0
H871 H 0.74519 0.61599 0.87871 0.0
H872 H 0.77243 0.62608 0.81578 0.0
H873 H 0.76485 0.59345 0.64797 0.0
H874 H 0.8281 0.56911 0.60778 0.0
H875 H 0.80502 0.57606 0.63949 0.0
C876 C 0.24418 0.85852 0.82493 0.0
C877 C 0.25941 0.85647 0.82845 0.0
C878 C 0.2284 0.84664 0.85662 0.0
C879 C 0.21214 0.81329 0.9843 0.0
H880 H 0.16692 0.79011 0.89449 0.0
C881 C 0.15836 0.74058 0.01811 0.0
C882 C 0.14056 0.73638 0.02839 0.0
C883 C 0.17147 0.75804 0.00303 0.0
C884 C 0.17936 0.79679 0.92061 0.0
H885 H 0.27008 0.84042 0.86741 0.0
H886 H 0.24269 0.81969 0.92147 0.0
H887 H 0.1931 0.81616 0.84883 0.0
H888 H 0.12233 0.74696 0.03099 0.0
H889 H 0.14545 0.77774 0.00192 0.0
H890 H 0.19875 0.79311 0.05384 0.0
C891 C 0.24294 0.83061 0.89547 0.0
C892 C 0.19433 0.81166 0.89459 0.0
C893 C 0.25859 0.84239 0.86389 0.0
C894 C 0.13603 0.74996 0.02341 0.0
C895 C 0.14916 0.76745 0.00681 0.0
C896 C 0.19728 0.79838 0.0099 0.0
C897 C 0.2277 0.83264 0.89255 0.0
C898 C 0.21105 0.81954 0.92505 0.0
C899 C 0.16697 0.77157 -0.00315 0.0
C900 C 0.181 0.78962 0.97713 0.0
H901 H 0.24447 0.86932 0.79804 0.0
H902 H 0.21685 0.8485 0.85353 0.0
H903 H 0.22475 0.81938 0.0095 0.0
H904 H 0.16221 0.73037 0.02199 0.0
H905 H 0.18511 0.7609 -0.0052 0.0
C906 C 0.3855 0.1368 0.16825 0.0
C907 C 0.4034 0.14049 0.16762 0.0
C908 C 0.38034 0.14688 0.13138 0.0
C909 C 0.39533 0.17713 -0.00508 0.0
H910 H 0.37091 0.19973 0.07258 0.0
C911 C 0.41078 0.24801 0.94304 0.0
C912 C 0.39668 0.25159 0.93493 0.0
C913 C 0.40714 0.23082 0.95908 0.0
C914 C 0.37732 0.19316 0.04974 0.0
H915 H 0.42992 0.15763 0.12848 0.0
H916 H 0.42104 0.17522 0.06546 0.0
H917 H 0.37267 0.17565 0.12694 0.0
H918 H 0.36774 0.24016 0.93614 0.0
H919 H 0.36137 0.20995 0.96682 0.0
H920 H 0.40115 0.19558 0.91992 0.0
C921 C 0.41088 0.16439 0.09325 0.0
C922 C 0.37834 0.17941 0.08078 0.0
C923 C 0.41602 0.15444 0.13005 0.0
C924 C 0.37881 0.23764 0.94198 0.0
C925 C 0.37517 0.22045 0.9595 0.0
C926 C 0.39444 0.19093 0.96425 0.0
C927 C 0.39298 0.16065 0.09305 0.0
C928 C 0.38812 0.1719 0.05488 0.0
C929 C 0.38935 0.21698 0.96842 0.0
C930 C 0.38613 0.19958 0.99268 0.0
H931 H 0.37548 0.12603 0.19659 0.0
H932 H 0.36646 0.14378 0.13222 0.0
H933 H 0.40258 0.17125 0.97327 0.0
H934 H 0.42466 0.25855 0.93756 0.0
H935 H 0.41831 0.22851 0.96655 0.0
C936 C 0.10242 0.42001 0.36568 0.0
C937 C 0.09069 0.40314 0.33926 0.0
C938 C 0.10665 0.42155 0.42878 0.0
C939 C 0.09135 0.39872 0.5795 0.0
H940 H 0.14148 0.42854 0.62577 0.0
C941 C 0.11502 0.40207 0.83193 0.0
C942 C 0.12723 0.41924 0.85502 0.0
C943 C 0.11119 0.39939 0.7685 0.0
C944 C 0.12741 0.42029 0.61372 0.0
H945 H 0.07389 0.37469 0.35924 0.0
H946 H 0.0811 0.37744 0.46956 0.0
H947 H 0.13285 0.42553 0.5167 0.0
H948 H 0.1453 0.447 0.82926 0.0
H949 H 0.13862 0.4424 0.71882 0.0
H950 H 0.08583 0.39368 0.67649 0.0
C951 C 0.08698 0.38948 0.44127 0.0
C952 C 0.12247 0.41858 0.55123 0.0
C953 C 0.0828 0.38792 0.37801 0.0
C954 C 0.13603 0.43356 0.81295 0.0
C955 C 0.13216 0.43091 0.74955 0.0
C956 C 0.09628 0.4005 0.64205 0.0
C957 C 0.09917 0.40627 0.46709 0.0
C958 C 0.10438 0.40786 0.53347 0.0
C959 C 0.11946 0.41386 0.72669 0.0
C960 C 0.11436 0.41137 0.65994 0.0
H961 H 0.10845 0.43205 0.33751 0.0
H962 H 0.1158 0.43473 0.4476 0.0
H963 H 0.07728 0.39051 0.56728 0.0
H964 H 0.10824 0.3907 0.86299 0.0
H965 H 0.10163 0.38601 0.75228 0.0
C966 C 0.69131 0.13111 0.96824 0.0
C967 C 0.70115 0.12639 0.00849 0.0
C968 C 0.6907 0.1276 0.90483 0.0
C969 C 0.7135 0.11792 0.77933 0.0
H970 H 0.66622 0.09396 0.70312 0.0
C971 C 0.70195 0.08848 0.53274 0.0
C972 C 0.69073 0.09176 0.49402 0.0
C973 C 0.70303 0.09226 0.59609 0.0
C974 C 0.67953 0.10081 0.72354 0.0
H975 H 0.71877 0.11515 0.01378 0.0
H976 H 0.71767 0.10893 0.9028 0.0
H977 H 0.66933 0.10277 0.81196 0.0
H978 H 0.67128 0.10083 0.49179 0.0
H979 H 0.67347 0.10785 0.60193 0.0
H980 H 0.72375 0.11612 0.69083 0.0
C981 C 0.71042 0.11532 0.92036 0.0
C982 C 0.6813 0.10587 0.78577 0.0
C983 C 0.71093 0.11873 0.98382 0.0
C984 C 0.68023 0.0984 0.52028 0.0
C985 C 0.68134 0.10223 0.58351 0.0
C986 C 0.71175 0.11295 0.71696 0.0
C987 C 0.70003 0.11942 0.8805 0.0
C988 C 0.6983 0.11447 0.81419 0.0
C989 C 0.69291 0.09941 0.62195 0.0
C990 C 0.69474 0.10434 0.68845 0.0
H991 H 0.68353 0.13689 0.986 0.0
H992 H 0.68275 0.13107 0.8749 0.0
H993 H 0.72678 0.12468 0.80009 0.0
H994 H 0.71032 0.08351 0.51394 0.0
H995 H 0.71188 0.0897 0.62475 0.0
C996 C 0.58761 0.70534 0.67671 0.0
C997 C 0.59559 0.69514 0.65939 0.0
C998 C 0.58727 0.70974 0.73873 0.0
C999 C 0.60806 0.71293 0.89122 0.0
H1000 H 0.56177 0.70299 0.95538 0.0
C1001 C 0.58921 0.69962 0.14821 0.0
C1002 C 0.57812 0.70562 0.17412 0.0
C1003 C 0.5933 0.70188 0.08518 0.0
C1004 C 0.57489 0.70621 0.93804 0.0
H1005 H 0.60978 0.68189 0.69298 0.0
H1006 H 0.60911 0.6895 0.80182 0.0
H1007 H 0.56535 0.70027 0.84459 0.0
H1008 H 0.5633 0.71939 0.15494 0.0
H1009 H 0.57046 0.72335 0.04428 0.0
H1010 H 0.61747 0.71845 0.98503 0.0
C1011 C 0.60329 0.69424 0.76723 0.0
C1012 C 0.57693 0.70461 0.87461 0.0
C1013 C 0.60362 0.68982 0.70512 0.0
C1014 C 0.57163 0.71439 0.136 0.0
C1015 C 0.57576 0.71669 0.07281 0.0
C1016 C 0.60604 0.71458 0.95469 0.0
C1017 C 0.59495 0.70408 0.78463 0.0
C1018 C 0.59342 0.70758 0.85082 0.0
C1019 C 0.58643 0.71022 0.04667 0.0
C1020 C 0.58932 0.71084 0.97886 0.0
H1021 H 0.58177 0.7101 0.64236 0.0
H1022 H 0.581 0.71758 0.75081 0.0
H1023 H 0.621 0.71558 0.87385 0.0
H1024 H 0.59418 0.69254 0.17607 0.0
H1025 H 0.60127 0.69644 0.06621 0.0
C1026 C 0.89804 0.57995 0.83633 0.0
C1027 C 0.9035 0.59717 0.81256 0.0
C1028 C 0.89552 0.57669 0.89988 0.0
C1029 C 0.90578 0.59838 0.05294 0.0
H1030 H 0.85974 0.55762 0.09972 0.0
C1031 C 0.8781 0.58989 0.30012 0.0
C1032 C 0.86982 0.57257 0.32588 0.0
C1033 C 0.88257 0.59246 0.23738 0.0
C1034 C 0.87275 0.56889 0.08747 0.0
H1035 H 0.91133 0.62463 0.83703 0.0
H1036 H 0.90709 0.61896 0.94824 0.0
H1037 H 0.86822 0.56295 0.99058 0.0
H1038 H 0.85957 0.54433 0.30644 0.0
H1039 H 0.86747 0.5488 0.1966 0.0
H1040 H 0.91032 0.60436 0.14977 0.0
C1041 C 0.90482 0.60802 0.91756 0.0
C1042 C 0.8776 0.57193 0.02507 0.0
C1043 C 0.90726 0.61127 0.85391 0.0
C1044 C 0.86571 0.55779 0.2875 0.0
C1045 C 0.87028 0.56037 0.22473 0.0
C1046 C 0.90097 0.59529 0.11541 0.0
C1047 C 0.89854 0.59062 0.94088 0.0
C1048 C 0.89407 0.58679 0.00725 0.0
C1049 C 0.87894 0.57776 0.19925 0.0
C1050 C 0.88432 0.58063 0.13321 0.0
H1051 H 0.89544 0.56892 0.80569 0.0
H1052 H 0.89097 0.56322 0.91693 0.0
H1053 H 0.91864 0.60982 0.04033 0.0
H1054 H 0.88118 0.60146 0.32864 0.0
H1055 H 0.88887 0.60598 0.21874 0.0
C1056 C 0.29977 0.8634 0.47424 0.0
C1057 C 0.29154 0.86996 0.51466 0.0
C1058 C 0.30088 0.8671 0.41085 0.0
C1059 C 0.28195 0.88156 0.28519 0.0
H1060 H 0.3287 0.89871 0.20924 0.0
C1061 C 0.29814 0.91132 0.03814 0.0
C1062 C 0.30771 0.90577 -0.00019 0.0
C1063 C 0.29621 0.90727 0.10142 0.0
C1064 C 0.31552 0.89377 0.22957 0.0
H1065 H 0.27723 0.88474 0.51996 0.0
H1066 H 0.27928 0.89134 0.40908 0.0
H1067 H 0.32431 0.88988 0.31811 0.0
H1068 H 0.32326 0.8922 -0.00182 0.0
H1069 H 0.3196 0.88482 0.10818 0.0
H1070 H 0.27313 0.88535 0.19649 0.0
C1071 C 0.28486 0.88334 0.42653 0.0
C1072 C 0.313 0.8887 0.29186 0.0
C1073 C 0.28382 0.8797 0.49 0.0
C1074 C 0.31564 0.89647 0.02637 0.0
C1075 C 0.31369 0.8924 0.08952 0.0
C1076 C 0.28445 0.88658 0.22274 0.0
C1077 C 0.29372 0.87737 0.38656 0.0
C1078 C 0.29619 0.8825 0.32024 0.0
C1079 C 0.30383 0.89762 0.12764 0.0
C1080 C 0.30126 0.89271 0.19427 0.0
H1081 H 0.30599 0.856 0.49179 0.0
H1082 H 0.30758 0.86214 0.38092 0.0
H1083 H 0.26882 0.87669 0.30582 0.0
H1084 H 0.29173 0.91836 0.01911 0.0
H1085 H 0.28873 0.91167 0.1298 0.0
C1086 C 0.40328 0.28953 0.63258 0.0
C1087 C 0.42048 0.29949 0.65883 0.0
C1088 C 0.40054 0.29149 0.57006 0.0
C1089 C 0.42416 0.30711 0.42113 0.0
H1090 H 0.38073 0.30737 0.37292 0.0
C1091 C 0.41041 0.31724 0.16836 0.0
C1092 C 0.39361 0.30389 0.14583 0.0
C1093 C 0.41392 0.31905 0.23186 0.0
C1094 C 0.39289 0.30731 0.38586 0.0
H1095 H 0.44833 0.31926 0.64064 0.0
H1096 H 0.44357 0.32283 0.53108 0.0
H1097 H 0.38683 0.30568 0.48264 0.0
H1098 H 0.36707 0.28253 0.17235 0.0
H1099 H 0.37317 0.28582 0.28342 0.0
H1100 H 0.43014 0.30863 0.32428 0.0
C1101 C 0.43224 0.3133 0.55867 0.0
C1102 C 0.39636 0.30626 0.44847 0.0
C1103 C 0.43499 0.31124 0.62123 0.0
C1104 C 0.38009 0.29302 0.18824 0.0
C1105 C 0.38357 0.29489 0.25182 0.0
C1106 C 0.42075 0.30827 0.35858 0.0
C1107 C 0.41495 0.30357 0.53265 0.0
C1108 C 0.41188 0.30585 0.46662 0.0
C1109 C 0.40065 0.30765 0.27399 0.0
C1110 C 0.40496 0.30811 0.34041 0.0
H1111 H 0.39194 0.2802 0.6605 0.0
H1112 H 0.38715 0.28349 0.55098 0.0
H1113 H 0.43612 0.30661 0.43365 0.0
H1114 H 0.42095 0.32612 0.13687 0.0
H1115 H 0.42711 0.32918 0.24801 0.0
C1116 C 0.58715 0.87698 0.00483 0.0
C1117 C 0.56953 0.86743 0.98123 0.0
C1118 C 0.59018 0.88107 0.06806 0.0
C1119 C 0.56828 0.88751 0.20435 0.0
H1120 H 0.60511 0.88425 0.29802 0.0
C1121 C 0.57391 0.89497 0.47045 0.0
C1122 C 0.59117 0.90402 0.49708 0.0
C1123 C 0.57173 0.89117 0.407 0.0
C1124 C 0.59494 0.88547 0.27228 0.0
H1125 H 0.54128 0.85427 0.00633 0.0
H1126 H 0.54658 0.86108 0.11645 0.0
H1127 H 0.60039 0.87548 0.18879 0.0
H1128 H 0.6197 0.91645 0.47735 0.0
H1129 H 0.61591 0.91018 0.36634 0.0
H1130 H 0.56285 0.89755 0.28748 0.0
C1131 C 0.55805 0.86562 0.08587 0.0
C1132 C 0.59221 0.8804 0.20978 0.0
C1133 C 0.55502 0.86149 0.02277 0.0
C1134 C 0.60623 0.9096 0.45838 0.0
C1135 C 0.60404 0.90579 0.39483 0.0
C1136 C 0.57104 0.89263 0.26669 0.0
C1137 C 0.57565 0.87574 0.10904 0.0
C1138 C 0.57876 0.88124 0.17527 0.0
C1139 C 0.58676 0.89635 0.36853 0.0
C1140 C 0.58432 0.89157 0.30154 0.0
H1141 H 0.59862 0.88158 0.97427 0.0
H1142 H 0.60391 0.88893 0.08449 0.0
H1143 H 0.55806 0.88867 0.17867 0.0
H1144 H 0.56205 0.89068 0.49876 0.0
H1145 H 0.55822 0.88375 0.38841 0.0
C1146 C 0.69629 0.58195 0.18437 0.0
C1147 C 0.70558 0.57364 0.16035 0.0
C1148 C 0.69596 0.58464 0.24794 0.0
C1149 C 0.69896 0.56572 0.39572 0.0
H1150 H 0.7006 0.6083 0.46412 0.0
C1151 C 0.69389 0.57511 0.65813 0.0
C1152 C 0.68307 0.58229 0.67676 0.0
C1153 C 0.69795 0.57485 0.59567 0.0
C1154 C 0.69996 0.59627 0.44557 0.0
H1155 H 0.72241 0.56235 0.18453 0.0
H1156 H 0.72172 0.56699 0.29623 0.0
H1157 H 0.70669 0.60731 0.35399 0.0
H1158 H 0.66794 0.5947 0.64469 0.0
H1159 H 0.67484 0.59405 0.53489 0.0
H1160 H 0.69191 0.55453 0.48692 0.0
C1161 C 0.71458 0.57124 0.2654 0.0
C1162 C 0.70352 0.59573 0.38266 0.0
C1163 C 0.71497 0.56858 0.20152 0.0
C1164 C 0.67636 0.58916 0.63154 0.0
C1165 C 0.68039 0.58886 0.56888 0.0
C1166 C 0.69538 0.56624 0.4586 0.0
C1167 C 0.70484 0.57906 0.28923 0.0
C1168 C 0.70284 0.58037 0.35696 0.0
C1169 C 0.69127 0.58174 0.55037 0.0
C1170 C 0.69564 0.58144 0.48404 0.0
H1171 H 0.68857 0.58569 0.15452 0.0
H1172 H 0.68807 0.59041 0.26493 0.0
H1173 H 0.69805 0.55358 0.37702 0.0
H1174 H 0.69969 0.57016 0.69193 0.0
H1175 H 0.70662 0.56956 0.58299 0.0
C1176 C 0.11617 0.70815 0.33411 0.0
C1177 C 0.12624 0.70051 0.31189 0.0
C1178 C 0.11258 0.7079 0.39743 0.0
C1179 C 0.12678 0.7011 0.55261 0.0
H1180 H 0.07788 0.68715 0.59948 0.0
C1181 C 0.10065 0.67885 0.80042 0.0
C1182 C 0.0908 0.68617 0.82712 0.0
C1183 C 0.10474 0.681 0.73727 0.0
C1184 C 0.09163 0.69124 0.58709 0.0
H1185 H 0.14074 0.68694 0.33903 0.0
H1186 H 0.13451 0.68648 0.44926 0.0
H1187 H 0.08634 0.69124 0.49005 0.0
H1188 H 0.07713 0.70113 0.80789 0.0
H1189 H 0.08414 0.70473 0.69728 0.0
H1190 H 0.13198 0.70083 0.64959 0.0
C1191 C 0.12956 0.69289 0.41789 0.0
C1192 C 0.0965 0.69364 0.52448 0.0
C1193 C 0.13317 0.69317 0.35463 0.0
C1194 C 0.08458 0.69516 0.78873 0.0
C1195 C 0.08863 0.69727 0.7254 0.0
C1196 C 0.12189 0.69864 0.61512 0.0
C1197 C 0.11899 0.69999 0.4399 0.0
C1198 C 0.1141 0.69846 0.50654 0.0
C1199 C 0.09902 0.69047 0.69929 0.0
C1200 C 0.10423 0.69352 0.63296 0.0
H1201 H 0.11089 0.71417 0.30249 0.0
H1202 H 0.10467 0.71378 0.41309 0.0
H1203 H 0.14051 0.70511 0.54038 0.0
H1204 H 0.10531 0.67153 0.82843 0.0
H1205 H 0.11244 0.67527 0.71814 0.0
C1206 C 0.40821 0.1109 0.5095 0.0
C1207 C 0.41706 0.12844 0.48502 0.0
C1208 C 0.40535 0.10805 0.5731 0.0
C1209 C 0.42462 0.12999 0.72055 0.0
H1210 H 0.38138 0.08986 0.78909 0.0
C1211 C 0.41514 0.11539 0.98302 0.0
C1212 C 0.40754 0.09731 0.00124 0.0
C1213 C 0.41545 0.11988 0.9207 0.0
C1214 C 0.39358 0.10103 0.77052 0.0
H1215 H 0.42912 0.1567 0.50839 0.0
H1216 H 0.42421 0.15169 0.6201 0.0
H1217 H 0.38258 0.09695 0.67889 0.0
H1218 H 0.39438 0.0698 0.96861 0.0
H1219 H 0.3951 0.07762 0.85909 0.0
H1220 H 0.43577 0.13386 0.81179 0.0
C1221 C 0.41966 0.14019 0.58963 0.0
C1222 C 0.39424 0.10513 0.70756 0.0
C1223 C 0.42248 0.14305 0.52573 0.0
C1224 C 0.40026 0.08381 0.95578 0.0
C1225 C 0.40059 0.0883 0.89328 0.0
C1226 C 0.42396 0.12588 0.78349 0.0
C1227 C 0.41131 0.12266 0.61395 0.0
C1228 C 0.40986 0.1195 0.68178 0.0
C1229 C 0.40815 0.10639 0.87516 0.0
C1230 C 0.40853 0.11121 0.80894 0.0
H1231 H 0.40414 0.0993 0.48004 0.0
H1232 H 0.39916 0.0944 0.59047 0.0
H1233 H 0.43694 0.14097 0.70181 0.0
H1234 H 0.42043 0.1261 0.01705 0.0
H1235 H 0.42108 0.1339 0.90833 0.0
C1236 C 0.29391 0.40544 0.65856 0.0
C1237 C 0.28725 0.41643 0.6367 0.0
C1238 C 0.29429 0.40239 0.72194 0.0
C1239 C 0.29587 0.42318 0.87214 0.0
H1240 H 0.28695 0.37745 0.93853 0.0
C1241 C 0.29601 0.41088 0.13405 0.0
C1242 C 0.30489 0.4018 0.15445 0.0
C1243 C 0.29297 0.4119 0.07107 0.0
C1244 C 0.28964 0.39033 0.9205 0.0
H1245 H 0.27502 0.43215 0.6641 0.0
H1246 H 0.27552 0.42668 0.77522 0.0
H1247 H 0.28205 0.38003 0.82823 0.0
H1248 H 0.31741 0.38655 0.12472 0.0
H1249 H 0.31214 0.38838 0.01395 0.0
H1250 H 0.30357 0.43352 0.96417 0.0
C1251 C 0.28074 0.4207 0.74316 0.0
C1252 C 0.2868 0.3918 0.85744 0.0
C1253 C 0.28041 0.4238 0.67961 0.0
C1254 C 0.31049 0.39357 0.11034 0.0
C1255 C 0.30743 0.39459 0.04708 0.0
C1256 C 0.29868 0.4217 0.93511 0.0
C1257 C 0.28799 0.41022 0.76503 0.0
C1258 C 0.28996 0.40827 0.83254 0.0
C1259 C 0.2987 0.40384 0.02686 0.0
C1260 C 0.29566 0.40528 0.95992 0.0
H1261 H 0.2996 0.39981 0.62705 0.0
H1262 H 0.30023 0.3945 0.73724 0.0
H1263 H 0.29879 0.43614 0.85421 0.0
H1264 H 0.29103 0.41691 0.16677 0.0
H1265 H 0.28588 0.4188 0.05703 0.0
C1266 C 0.90928 0.30819 0.30276 0.0
C1267 C 0.8959 0.30272 0.34841 0.0
C1268 C 0.90457 0.30373 0.24065 0.0
C1269 C 0.86769 0.29276 0.13304 0.0
H1270 H 0.89488 0.27946 0.02304 0.0
C1271 C 0.8527 0.2827 0.87169 0.0
C1272 C 0.86795 0.29172 0.83368 0.0
C1273 C 0.85457 0.28044 0.93488 0.0
C1274 C 0.88718 0.28317 0.05326 0.0
H1275 H 0.86713 0.28747 0.36534 0.0
H1276 H 0.85893 0.27989 0.25688 0.0
H1277 H 0.90128 0.28248 0.13424 0.0
H1278 H 0.89711 0.30525 0.83192 0.0
H1279 H 0.90038 0.30142 0.9418 0.0
H1280 H 0.854 0.29406 0.05214 0.0
C1281 C 0.87303 0.28788 0.26901 0.0
C1282 C 0.89085 0.28492 0.11674 0.0
C1283 C 0.87774 0.29234 0.33103 0.0
C1284 C 0.88508 0.298 0.8597 0.0
C1285 C 0.88696 0.29576 0.92273 0.0
C1286 C 0.86405 0.29106 0.06961 0.0
C1287 C 0.88639 0.29368 0.22318 0.0
C1288 C 0.88138 0.29008 0.15699 0.0
C1289 C 0.87175 0.28719 0.96112 0.0
C1290 C 0.87402 0.28663 0.02894 0.0
H1291 H 0.92335 0.31625 0.31498 0.0
H1292 H 0.91514 0.30858 0.20611 0.0
H1293 H 0.86031 0.29695 0.16293 0.0
H1294 H 0.83933 0.27748 0.85265 0.0
H1295 H 0.84261 0.27359 0.96332 0.0
loop_
_geom_bond_atom_site_label_1
_geom_bond_atom_site_label_2
_geom_bond_distance
_geom_bond_site_symmetry_2
_ccdc_geom_bond_type
Co0 N4 2.148 . S
Co0 N10 2.128 1_554 S
Co0 N20 2.194 . S
Co0 O25 2.351 . S
Co0 O26 2.155 . S
Co0 O27 2.096 . S
C1 N4 1.301 . S
C1 N5 1.328 . S
C1 H6 0.930 . S
C2 C3 1.333 . S
C2 N4 1.317 . S
C2 H7 0.930 . S
C3 C2 1.333 . S
C3 N5 1.350 . S
C3 H29 0.931 . S
N4 Co0 2.148 . S
N4 C1 1.301 . S
N4 C2 1.317 . S
N5 C1 1.328 . S
N5 C3 1.350 . S
H6 C1 0.930 . S
H7 C2 0.930 . S
C8 O9 1.224 . S
C8 O27 1.247 . S
O9 C8 1.224 . S
N10 Co0 2.128 1_556 S
N10 C11 1.355 . S
N10 C13 1.311 . S
C11 N10 1.355 . S
C11 C12 1.363 . S
C11 H23 0.929 . S
C12 C11 1.363 . S
C12 N14 1.375 . S
C12 H30 0.931 . S
C13 N10 1.311 . S
C13 N14 1.347 . S
C13 H24 0.929 . S
N14 C12 1.375 . S
N14 C13 1.347 . S
C15 C18 1.365 . S
C15 N20 1.328 . S
C15 H21 0.929 . S
C16 C17 1.362 . S
C16 C19 1.378 . S
C16 H31 0.929 . S
C17 C16 1.362 . S
C17 C18 1.366 . S
C18 C15 1.365 . S
C18 C17 1.366 . S
C18 H32 0.930 . S
C19 C16 1.378 . S
C19 N20 1.315 . S
C19 H22 0.930 . S
N20 Co0 2.194 . S
N20 C15 1.328 . S
N20 C19 1.315 . S
H21 C15 0.929 . S
H22 C19 0.930 . S
H23 C11 0.929 . S
H24 C13 0.929 . S
O25 Co0 2.351 . S
O25 C28 1.244 . S
O26 Co0 2.155 . S
O26 C28 1.240 . S
O27 Co0 2.096 . S
O27 C8 1.247 . S
C28 O25 1.244 . S
C28 O26 1.240 . S
H29 C3 0.931 . S
H30 C12 0.931 . S
H31 C16 0.929 . S
H32 C18 0.930 . S
Co33 N37 2.148 . S
Co33 N43 2.128 . S
Co33 N53 2.194 . S
Co33 O58 2.351 . S
Co33 O59 2.155 . S
Co33 O60 2.096 . S
C34 N37 1.301 . S
C34 N38 1.328 . S
C34 H39 0.930 . S
C35 C36 1.333 . S
C35 N37 1.317 . S
C35 H40 0.930 . S
C36 C35 1.333 . S
C36 N38 1.350 . S
C36 H62 0.931 . S
N37 Co33 2.148 . S
N37 C34 1.301 . S
N37 C35 1.317 . S
N38 C34 1.328 . S
N38 C36 1.350 . S
H39 C34 0.930 . S
H40 C35 0.930 . S
C41 O42 1.224 . S
C41 O60 1.247 . S
O42 C41 1.224 . S
N43 Co33 2.128 . S
N43 C44 1.355 . S
N43 C46 1.311 . S
C44 N43 1.355 . S
C44 C45 1.363 . S
C44 H56 0.929 . S
C45 C44 1.363 . S
C45 N47 1.375 . S
C45 H63 0.931 . S
C46 N43 1.311 . S
C46 N47 1.347 . S
C46 H57 0.929 . S
N47 C45 1.375 . S
N47 C46 1.347 . S
C48 C51 1.365 . S
C48 N53 1.328 . S
C48 H54 0.929 . S
C49 C50 1.362 . S
C49 C52 1.378 . S
C49 H64 0.929 . S
C50 C49 1.362 . S
C50 C51 1.366 . S
C51 C48 1.365 . S
C51 C50 1.366 . S
C51 H65 0.930 . S
C52 C49 1.378 . S
C52 N53 1.315 . S
C52 H55 0.930 . S
N53 Co33 2.194 . S
N53 C48 1.328 . S
N53 C52 1.315 . S
H54 C48 0.929 . S
H55 C52 0.930 . S
H56 C44 0.929 . S
H57 C46 0.929 . S
O58 Co33 2.351 . S
O58 C61 1.244 . S
O59 Co33 2.155 . S
O59 C61 1.240 . S
O60 Co33 2.096 . S
O60 C41 1.247 . S
C61 O58 1.244 . S
C61 O59 1.240 . S
H62 C36 0.931 . S
H63 C45 0.931 . S
H64 C49 0.929 . S
H65 C51 0.930 . S
Co66 N70 2.148 . S
Co66 N76 2.128 . S
Co66 N86 2.194 . S
Co66 O91 2.351 . S
Co66 O92 2.155 . S
Co66 O93 2.096 . S
C67 N70 1.301 . S
C67 N71 1.328 . S
C67 H72 0.930 . S
C68 C69 1.333 . S
C68 N70 1.317 . S
C68 H73 0.930 . S
C69 C68 1.333 . S
C69 N71 1.350 . S
C69 H95 0.931 . S
N70 Co66 2.148 . S
N70 C67 1.301 . S
N70 C68 1.317 . S
N71 C67 1.328 . S
N71 C69 1.350 . S
H72 C67 0.930 . S
H73 C68 0.930 . S
C74 O75 1.224 . S
C74 O93 1.247 . S
O75 C74 1.224 . S
N76 Co66 2.128 . S
N76 C77 1.355 . S
N76 C79 1.311 . S
C77 N76 1.355 . S
C77 C78 1.363 . S
C77 H89 0.929 . S
C78 C77 1.363 . S
C78 N80 1.375 . S
C78 H96 0.931 . S
C79 N76 1.311 . S
C79 N80 1.347 . S
C79 H90 0.929 . S
N80 C78 1.375 . S
N80 C79 1.347 . S
C81 C84 1.365 . S
C81 N86 1.328 . S
C81 H87 0.929 . S
C82 C83 1.362 . S
C82 C85 1.378 . S
C82 H97 0.929 . S
C83 C82 1.362 . S
C83 C84 1.366 . S
C84 C81 1.365 . S
C84 C83 1.366 . S
C84 H98 0.930 . S
C85 C82 1.378 . S
C85 N86 1.315 . S
C85 H88 0.930 . S
N86 Co66 2.194 . S
N86 C81 1.328 . S
N86 C85 1.315 . S
H87 C81 0.929 . S
H88 C85 0.930 . S
H89 C77 0.929 . S
H90 C79 0.929 . S
O91 Co66 2.351 . S
O91 C94 1.244 . S
O92 Co66 2.155 . S
O92 C94 1.240 . S
O93 Co66 2.096 . S
O93 C74 1.247 . S
C94 O91 1.244 . S
C94 O92 1.240 . S
H95 C69 0.931 . S
H96 C78 0.931 . S
H97 C82 0.929 . S
H98 C84 0.930 . S
Co99 N103 2.148 . S
Co99 N109 2.128 . S
Co99 N119 2.194 . S
Co99 O124 2.351 . S
Co99 O125 2.155 . S
Co99 O126 2.096 . S
C100 N103 1.301 . S
C100 N104 1.328 . S
C100 H105 0.930 . S
C101 C102 1.333 . S
C101 N103 1.317 . S
C101 H106 0.930 . S
C102 C101 1.333 . S
C102 N104 1.350 . S
C102 H128 0.931 . S
N103 Co99 2.148 . S
N103 C100 1.301 . S
N103 C101 1.317 . S
N104 C100 1.328 . S
N104 C102 1.350 . S
H105 C100 0.930 . S
H106 C101 0.930 . S
C107 O108 1.224 . S
C107 O126 1.247 . S
O108 C107 1.224 . S
N109 Co99 2.128 . S
N109 C110 1.355 . S
N109 C112 1.311 . S
C110 N109 1.355 . S
C110 C111 1.363 . S
C110 H122 0.929 . S
C111 C110 1.363 . S
C111 N113 1.375 . S
C111 H129 0.931 . S
C112 N109 1.311 . S
C112 N113 1.347 . S
C112 H123 0.929 . S
N113 C111 1.375 . S
N113 C112 1.347 . S
C114 C117 1.365 . S
C114 N119 1.328 . S
C114 H120 0.929 . S
C115 C116 1.362 . S
C115 C118 1.378 . S
C115 H130 0.929 . S
C116 C115 1.362 . S
C116 C117 1.366 . S
C117 C114 1.365 . S
C117 C116 1.366 . S
C117 H131 0.930 . S
C118 C115 1.378 . S
C118 N119 1.315 . S
C118 H121 0.930 . S
N119 Co99 2.194 . S
N119 C114 1.328 . S
N119 C118 1.315 . S
H120 C114 0.929 . S
H121 C118 0.930 . S
H122 C110 0.929 . S
H123 C112 0.929 . S
O124 Co99 2.351 . S
O124 C127 1.244 . S
O125 Co99 2.155 . S
O125 C127 1.240 . S
O126 Co99 2.096 . S
O126 C107 1.247 . S
C127 O124 1.244 . S
C127 O125 1.240 . S
H128 C102 0.931 . S
H129 C111 0.931 . S
H130 C115 0.929 . S
H131 C117 0.930 . S
Co132 N136 2.148 . S
Co132 N142 2.128 . S
Co132 N152 2.194 . S
Co132 O157 2.351 . S
Co132 O158 2.155 . S
Co132 O159 2.096 . S
C133 N136 1.301 . S
C133 N137 1.328 . S
C133 H138 0.930 . S
C134 C135 1.333 . S
C134 N136 1.317 . S
C134 H139 0.930 . S
C135 C134 1.333 . S
C135 N137 1.350 . S
C135 H161 0.931 . S
N136 Co132 2.148 . S
N136 C133 1.301 . S
N136 C134 1.317 . S
N137 C133 1.328 . S
N137 C135 1.350 . S
H138 C133 0.930 . S
H139 C134 0.930 . S
C140 O141 1.224 . S
C140 O159 1.247 . S
O141 C140 1.224 . S
N142 Co132 2.128 . S
N142 C143 1.355 . S
N142 C145 1.311 . S
C143 N142 1.355 . S
C143 C144 1.363 . S
C143 H155 0.929 . S
C144 C143 1.363 . S
C144 N146 1.375 . S
C144 H162 0.931 . S
C145 N142 1.311 . S
C145 N146 1.347 . S
C145 H156 0.929 . S
N146 C144 1.375 . S
N146 C145 1.347 . S
C147 C150 1.365 . S
C147 N152 1.328 . S
C147 H153 0.929 . S
C148 C149 1.362 . S
C148 C151 1.378 . S
C148 H163 0.929 . S
C149 C148 1.362 . S
C149 C150 1.366 . S
C150 C147 1.365 . S
C150 C149 1.366 . S
C150 H164 0.930 . S
C151 C148 1.378 . S
C151 N152 1.315 . S
C151 H154 0.930 . S
N152 Co132 2.194 . S
N152 C147 1.328 . S
N152 C151 1.315 . S
H153 C147 0.929 . S
H154 C151 0.930 . S
H155 C143 0.929 . S
H156 C145 0.929 . S
O157 Co132 2.351 . S
O157 C160 1.244 . S
O158 Co132 2.155 . S
O158 C160 1.240 . S
O159 Co132 2.096 . S
O159 C140 1.247 . S
C160 O157 1.244 . S
C160 O158 1.240 . S
H161 C135 0.931 . S
H162 C144 0.931 . S
H163 C148 0.929 . S
H164 C150 0.930 . S
Co165 N169 2.148 . S
Co165 N175 2.128 . S
Co165 N185 2.194 . S
Co165 O190 2.351 . S
Co165 O191 2.155 . S
Co165 O192 2.096 . S
C166 N169 1.301 1_554 S
C166 N170 1.328 . S
C166 H171 0.930 . S
C167 C168 1.333 . S
C167 N169 1.317 1_554 S
C167 H172 0.930 1_554 S
C168 C167 1.333 . S
C168 N170 1.350 . S
C168 H194 0.931 . S
N169 Co165 2.148 . S
N169 C166 1.301 1_556 S
N169 C167 1.317 1_556 S
N170 C166 1.328 . S
N170 C168 1.350 . S
H171 C166 0.930 . S
H172 C167 0.930 1_556 S
C173 O174 1.224 . S
C173 O192 1.247 . S
O174 C173 1.224 . S
N175 Co165 2.128 . S
N175 C176 1.355 . S
N175 C178 1.311 . S
C176 N175 1.355 . S
C176 C177 1.363 . S
C176 H188 0.929 . S
C177 C176 1.363 . S
C177 N179 1.375 . S
C177 H195 0.931 . S
C178 N175 1.311 . S
C178 N179 1.347 . S
C178 H189 0.929 . S
N179 C177 1.375 . S
N179 C178 1.347 . S
C180 C183 1.365 . S
C180 N185 1.328 . S
C180 H186 0.929 . S
C181 C182 1.362 . S
C181 C184 1.378 . S
C181 H196 0.929 . S
C182 C181 1.362 . S
C182 C183 1.366 . S
C183 C180 1.365 . S
C183 C182 1.366 . S
C183 H197 0.930 . S
C184 C181 1.378 . S
C184 N185 1.315 . S
C184 H187 0.930 . S
N185 Co165 2.194 . S
N185 C180 1.328 . S
N185 C184 1.315 . S
H186 C180 0.929 . S
H187 C184 0.930 . S
H188 C176 0.929 . S
H189 C178 0.929 . S
O190 Co165 2.351 . S
O190 C193 1.244 . S
O191 Co165 2.155 . S
O191 C193 1.240 . S
O192 Co165 2.096 . S
O192 C173 1.247 . S
C193 O190 1.244 . S
C193 O191 1.240 . S
H194 C168 0.931 . S
H195 C177 0.931 . S
H196 C181 0.929 . S
H197 C183 0.930 . S
Co198 N202 2.148 . S
Co198 N208 2.128 . S
Co198 N218 2.194 . S
Co198 O223 2.351 . S
Co198 O224 2.155 . S
Co198 O225 2.096 . S
C199 N202 1.301 . S
C199 N203 1.328 . S
C199 H204 0.930 . S
C200 C201 1.333 . S
C200 N202 1.317 . S
C200 H205 0.930 . S
C201 C200 1.333 . S
C201 N203 1.350 . S
C201 H227 0.931 . S
N202 Co198 2.148 . S
N202 C199 1.301 . S
N202 C200 1.317 . S
N203 C199 1.328 . S
N203 C201 1.350 . S
H204 C199 0.930 . S
H205 C200 0.930 . S
C206 O207 1.224 . S
C206 O225 1.247 . S
O207 C206 1.224 . S
N208 Co198 2.128 . S
N208 C209 1.355 . S
N208 C211 1.311 . S
C209 N208 1.355 . S
C209 C210 1.363 . S
C209 H221 0.929 . S
C210 C209 1.363 . S
C210 N212 1.375 . S
C210 H228 0.931 . S
C211 N208 1.311 . S
C211 N212 1.347 . S
C211 H222 0.929 . S
N212 C210 1.375 . S
N212 C211 1.347 . S
C213 C216 1.365 . S
C213 N218 1.328 . S
C213 H219 0.929 . S
C214 C215 1.362 . S
C214 C217 1.378 . S
C214 H229 0.929 . S
C215 C214 1.362 . S
C215 C216 1.366 . S
C216 C213 1.365 . S
C216 C215 1.366 . S
C216 H230 0.930 . S
C217 C214 1.378 . S
C217 N218 1.315 . S
C217 H220 0.930 . S
N218 Co198 2.194 . S
N218 C213 1.328 . S
N218 C217 1.315 . S
H219 C213 0.929 . S
H220 C217 0.930 . S
H221 C209 0.929 . S
H222 C211 0.929 . S
O223 Co198 2.351 . S
O223 C226 1.244 . S
O224 Co198 2.155 . S
O224 C226 1.240 . S
O225 Co198 2.096 . S
O225 C206 1.247 . S
C226 O223 1.244 . S
C226 O224 1.240 . S
H227 C201 0.931 . S
H228 C210 0.931 . S
H229 C214 0.929 . S
H230 C216 0.930 . S
Co231 N235 2.148 . S
Co231 N241 2.128 1_556 S
Co231 N251 2.194 . S
Co231 O256 2.351 . S
Co231 O257 2.155 . S
Co231 O258 2.096 . S
C232 N235 1.301 . S
C232 N236 1.328 . S
C232 H237 0.930 . S
C233 C234 1.333 . S
C233 N235 1.317 . S
C233 H238 0.930 . S
C234 C233 1.333 . S
C234 N236 1.350 . S
C234 H260 0.931 . S
N235 Co231 2.148 . S
N235 C232 1.301 . S
N235 C233 1.317 . S
N236 C232 1.328 . S
N236 C234 1.350 . S
H237 C232 0.930 . S
H238 C233 0.930 . S
C239 O240 1.224 . S
C239 O258 1.247 . S
O240 C239 1.224 . S
N241 Co231 2.128 1_554 S
N241 C242 1.355 . S
N241 C244 1.311 . S
C242 N241 1.355 . S
C242 C243 1.363 . S
C242 H254 0.929 . S
C243 C242 1.363 . S
C243 N245 1.375 . S
C243 H261 0.931 . S
C244 N241 1.311 . S
C244 N245 1.347 . S
C244 H255 0.929 . S
N245 C243 1.375 . S
N245 C244 1.347 . S
C246 C249 1.365 . S
C246 N251 1.328 . S
C246 H252 0.929 . S
C247 C248 1.362 . S
C247 C250 1.378 . S
C247 H262 0.929 . S
C248 C247 1.362 . S
C248 C249 1.366 . S
C249 C246 1.365 . S
C249 C248 1.366 . S
C249 H263 0.930 . S
C250 C247 1.378 . S
C250 N251 1.315 . S
C250 H253 0.930 . S
N251 Co231 2.194 . S
N251 C246 1.328 . S
N251 C250 1.315 . S
H252 C246 0.929 . S
H253 C250 0.930 . S
H254 C242 0.929 . S
H255 C244 0.929 . S
O256 Co231 2.351 . S
O256 C259 1.244 . S
O257 Co231 2.155 . S
O257 C259 1.240 . S
O258 Co231 2.096 . S
O258 C239 1.247 . S
C259 O256 1.244 . S
C259 O257 1.240 . S
H260 C234 0.931 . S
H261 C243 0.931 . S
H262 C247 0.929 . S
H263 C249 0.930 . S
Co264 N268 2.148 . S
Co264 N274 2.128 . S
Co264 N284 2.194 . S
Co264 O289 2.351 . S
Co264 O290 2.155 . S
Co264 O291 2.096 . S
C265 N268 1.301 1_556 S
C265 N269 1.328 . S
C265 H270 0.930 . S
C266 C267 1.333 1_554 S
C266 N268 1.317 . S
C266 H271 0.930 . S
C267 C266 1.333 1_556 S
C267 N269 1.350 . S
C267 H293 0.931 . S
N268 Co264 2.148 . S
N268 C265 1.301 1_554 S
N268 C266 1.317 . S
N269 C265 1.328 . S
N269 C267 1.350 . S
H270 C265 0.930 . S
H271 C266 0.930 . S
C272 O273 1.224 . S
C272 O291 1.247 . S
O273 C272 1.224 . S
N274 Co264 2.128 . S
N274 C275 1.355 . S
N274 C277 1.311 . S
C275 N274 1.355 . S
C275 C276 1.363 . S
C275 H287 0.929 . S
C276 C275 1.363 . S
C276 N278 1.375 . S
C276 H294 0.931 . S
C277 N274 1.311 . S
C277 N278 1.347 . S
C277 H288 0.929 . S
N278 C276 1.375 . S
N278 C277 1.347 . S
C279 C282 1.365 . S
C279 N284 1.328 . S
C279 H285 0.929 . S
C280 C281 1.362 . S
C280 C283 1.378 . S
C280 H295 0.929 . S
C281 C280 1.362 . S
C281 C282 1.366 . S
C282 C279 1.365 . S
C282 C281 1.366 . S
C282 H296 0.930 . S
C283 C280 1.378 . S
C283 N284 1.315 . S
C283 H286 0.930 . S
N284 Co264 2.194 . S
N284 C279 1.328 . S
N284 C283 1.315 . S
H285 C279 0.929 . S
H286 C283 0.930 . S
H287 C275 0.929 . S
H288 C277 0.929 . S
O289 Co264 2.351 . S
O289 C292 1.244 . S
O290 Co264 2.155 . S
O290 C292 1.240 . S
O291 Co264 2.096 . S
O291 C272 1.247 . S
C292 O289 1.244 . S
C292 O290 1.240 . S
H293 C267 0.931 . S
H294 C276 0.931 . S
H295 C280 0.929 . S
H296 C282 0.930 . S
Co297 N301 2.148 . S
Co297 N307 2.128 . S
Co297 N317 2.194 . S
Co297 O322 2.351 . S
Co297 O323 2.155 . S
Co297 O324 2.096 . S
C298 N301 1.301 . S
C298 N302 1.328 . S
C298 H303 0.930 . S
C299 C300 1.333 . S
C299 N301 1.317 . S
C299 H304 0.930 . S
C300 C299 1.333 . S
C300 N302 1.350 . S
C300 H326 0.931 . S
N301 Co297 2.148 . S
N301 C298 1.301 . S
N301 C299 1.317 . S
N302 C298 1.328 . S
N302 C300 1.350 . S
H303 C298 0.930 . S
H304 C299 0.930 . S
C305 O306 1.224 . S
C305 O324 1.247 . S
O306 C305 1.224 . S
N307 Co297 2.128 . S
N307 C308 1.355 . S
N307 C310 1.311 . S
C308 N307 1.355 . S
C308 C309 1.363 . S
C308 H320 0.929 . S
C309 C308 1.363 . S
C309 N311 1.375 . S
C309 H327 0.931 . S
C310 N307 1.311 . S
C310 N311 1.347 . S
C310 H321 0.929 . S
N311 C309 1.375 . S
N311 C310 1.347 . S
C312 C315 1.365 . S
C312 N317 1.328 . S
C312 H318 0.929 . S
C313 C314 1.362 . S
C313 C316 1.378 . S
C313 H328 0.929 . S
C314 C313 1.362 . S
C314 C315 1.366 . S
C315 C312 1.365 . S
C315 C314 1.366 . S
C315 H329 0.930 . S
C316 C313 1.378 . S
C316 N317 1.315 . S
C316 H319 0.930 . S
N317 Co297 2.194 . S
N317 C312 1.328 . S
N317 C316 1.315 . S
H318 C312 0.929 . S
H319 C316 0.930 . S
H320 C308 0.929 . S
H321 C310 0.929 . S
O322 Co297 2.351 . S
O322 C325 1.244 . S
O323 Co297 2.155 . S
O323 C325 1.240 . S
O324 Co297 2.096 . S
O324 C305 1.247 . S
C325 O322 1.244 . S
C325 O323 1.240 . S
H326 C300 0.931 . S
H327 C309 0.931 . S
H328 C313 0.929 . S
H329 C315 0.930 . S
Co330 N334 2.148 . S
Co330 N340 2.128 . S
Co330 N350 2.194 . S
Co330 O355 2.351 . S
Co330 O356 2.155 . S
Co330 O357 2.096 . S
C331 N334 1.301 . S
C331 N335 1.328 . S
C331 H336 0.930 . S
C332 C333 1.333 . S
C332 N334 1.317 . S
C332 H337 0.930 . S
C333 C332 1.333 . S
C333 N335 1.350 . S
C333 H359 0.931 . S
N334 Co330 2.148 . S
N334 C331 1.301 . S
N334 C332 1.317 . S
N335 C331 1.328 . S
N335 C333 1.350 . S
H336 C331 0.930 . S
H337 C332 0.930 . S
C338 O339 1.224 . S
C338 O357 1.247 . S
O339 C338 1.224 . S
N340 Co330 2.128 . S
N340 C341 1.355 . S
N340 C343 1.311 . S
C341 N340 1.355 . S
C341 C342 1.363 . S
C341 H353 0.929 . S
C342 C341 1.363 . S
C342 N344 1.375 . S
C342 H360 0.931 . S
C343 N340 1.311 . S
C343 N344 1.347 . S
C343 H354 0.929 . S
N344 C342 1.375 . S
N344 C343 1.347 . S
C345 C348 1.365 . S
C345 N350 1.328 . S
C345 H351 0.929 . S
C346 C347 1.362 . S
C346 C349 1.378 . S
C346 H361 0.929 . S
C347 C346 1.362 . S
C347 C348 1.366 . S
C348 C345 1.365 . S
C348 C347 1.366 . S
C348 H362 0.930 . S
C349 C346 1.378 . S
C349 N350 1.315 . S
C349 H352 0.930 . S
N350 Co330 2.194 . S
N350 C345 1.328 . S
N350 C349 1.315 . S
H351 C345 0.929 . S
H352 C349 0.930 . S
H353 C341 0.929 . S
H354 C343 0.929 . S
O355 Co330 2.351 . S
O355 C358 1.244 . S
O356 Co330 2.155 . S
O356 C358 1.240 . S
O357 Co330 2.096 . S
O357 C338 1.247 . S
C358 O355 1.244 . S
C358 O356 1.240 . S
H359 C333 0.931 . S
H360 C342 0.931 . S
H361 C346 0.929 . S
H362 C348 0.930 . S
Co363 N367 2.148 . S
Co363 N373 2.128 . S
Co363 N383 2.194 . S
Co363 O388 2.351 . S
Co363 O389 2.155 . S
Co363 O390 2.096 . S
C364 N367 1.301 . S
C364 N368 1.328 . S
C364 H369 0.930 . S
C365 C366 1.333 . S
C365 N367 1.317 . S
C365 H370 0.930 . S
C366 C365 1.333 . S
C366 N368 1.350 . S
C366 H392 0.931 . S
N367 Co363 2.148 . S
N367 C364 1.301 . S
N367 C365 1.317 . S
N368 C364 1.328 . S
N368 C366 1.350 . S
H369 C364 0.930 . S
H370 C365 0.930 . S
C371 O372 1.224 . S
C371 O390 1.247 . S
O372 C371 1.224 . S
N373 Co363 2.128 . S
N373 C374 1.355 . S
N373 C376 1.311 . S
C374 N373 1.355 . S
C374 C375 1.363 . S
C374 H386 0.929 . S
C375 C374 1.363 . S
C375 N377 1.375 . S
C375 H393 0.931 . S
C376 N373 1.311 . S
C376 N377 1.347 . S
C376 H387 0.929 . S
N377 C375 1.375 . S
N377 C376 1.347 . S
C378 C381 1.365 . S
C378 N383 1.328 . S
C378 H384 0.929 . S
C379 C380 1.362 . S
C379 C382 1.378 . S
C379 H394 0.929 . S
C380 C379 1.362 . S
C380 C381 1.366 . S
C381 C378 1.365 . S
C381 C380 1.366 . S
C381 H395 0.930 . S
C382 C379 1.378 . S
C382 N383 1.315 . S
C382 H385 0.930 . S
N383 Co363 2.194 . S
N383 C378 1.328 . S
N383 C382 1.315 . S
H384 C378 0.929 . S
H385 C382 0.930 . S
H386 C374 0.929 . S
H387 C376 0.929 . S
O388 Co363 2.351 . S
O388 C391 1.244 . S
O389 Co363 2.155 . S
O389 C391 1.240 . S
O390 Co363 2.096 . S
O390 C371 1.247 . S
C391 O388 1.244 . S
C391 O389 1.240 . S
H392 C366 0.931 . S
H393 C375 0.931 . S
H394 C379 0.929 . S
H395 C381 0.930 . S
C396 C397 1.349 . S
C396 C398 1.327 . S
C396 H421 0.950 . S
C397 C396 1.349 . S
C397 C413 1.349 . S
C398 C396 1.327 . S
C398 C417 1.429 . S
C398 H422 0.950 . S
C399 C416 1.574 . S
C399 C418 1.368 . S
C399 H423 0.949 . S
H400 C404 0.949 . S
C401 C402 1.349 . S
C401 C403 1.327 . S
C401 H424 0.950 . S
C402 C401 1.349 . S
C402 C414 1.349 . S
C403 C401 1.327 . S
C403 C419 1.429 . S
C403 H425 0.950 . S
C404 H400 0.949 . S
C404 C412 1.574 . S
C404 C420 1.368 . S
H405 C413 0.950 . S
H406 C411 0.950 . S
H407 C412 0.949 . S
H408 C414 0.948 1_556 S
H409 C415 0.950 . S
H410 C416 0.949 . S
C411 H406 0.950 . S
C411 C413 1.327 . S
C411 C417 1.429 . S
C412 C404 1.574 . S
C412 H407 0.949 . S
C412 C418 1.368 . S
C413 C397 1.349 . S
C413 H405 0.950 . S
C413 C411 1.327 . S
C414 C402 1.349 . S
C414 H408 0.948 1_554 S
C414 C415 1.327 . S
C415 H409 0.950 . S
C415 C414 1.327 . S
C415 C419 1.429 . S
C416 C399 1.574 . S
C416 H410 0.949 . S
C416 C420 1.368 . S
C417 C398 1.429 . S
C417 C411 1.429 . S
C417 C418 1.523 . S
C418 C399 1.368 . S
C418 C412 1.368 . S
C418 C417 1.523 . S
C419 C403 1.429 . S
C419 C415 1.429 . S
C419 C420 1.523 . S
C420 C404 1.368 . S
C420 C416 1.368 . S
C420 C419 1.523 . S
H421 C396 0.950 . S
H422 C398 0.950 . S
H423 C399 0.949 . S
H424 C401 0.950 . S
H425 C403 0.950 . S
C426 C427 1.349 . S
C426 C428 1.327 . S
C426 H451 0.950 . S
C427 C426 1.349 . S
C427 C443 1.349 . S
C428 C426 1.327 . S
C428 C447 1.429 . S
C428 H452 0.950 . S
C429 C446 1.574 . S
C429 C448 1.368 . S
C429 H453 0.949 . S
H430 C434 0.949 . S
C431 C432 1.349 . S
C431 C433 1.327 . S
C431 H454 0.950 . S
C432 C431 1.349 . S
C432 C444 1.349 . S
C433 C431 1.327 . S
C433 C449 1.429 . S
C433 H455 0.950 . S
C434 H430 0.949 . S
C434 C442 1.574 . S
C434 C450 1.368 . S
H435 C443 0.950 . S
H436 C441 0.950 . S
H437 C442 0.949 . S
H438 C444 0.950 . S
H439 C445 0.950 . S
H440 C446 0.949 . S
C441 H436 0.950 . S
C441 C443 1.327 . S
C441 C447 1.429 . S
C442 C434 1.574 . S
C442 H437 0.949 . S
C442 C448 1.368 . S
C443 C427 1.349 . S
C443 H435 0.950 . S
C443 C441 1.327 . S
C444 C432 1.349 . S
C444 H438 0.950 . S
C444 C445 1.327 . S
C445 H439 0.950 . S
C445 C444 1.327 . S
C445 C449 1.429 . S
C446 C429 1.574 . S
C446 H440 0.949 . S
C446 C450 1.368 . S
C447 C428 1.429 . S
C447 C441 1.429 . S
C447 C448 1.523 . S
C448 C429 1.368 . S
C448 C442 1.368 . S
C448 C447 1.523 . S
C449 C433 1.429 . S
C449 C445 1.429 . S
C449 C450 1.523 . S
C450 C434 1.368 . S
C450 C446 1.368 . S
C450 C449 1.523 . S
H451 C426 0.950 . S
H452 C428 0.950 . S
H453 C429 0.949 . S
H454 C431 0.950 . S
H455 C433 0.950 . S
C456 C457 1.349 . S
C456 C458 1.327 . S
C456 H481 0.950 . S
C457 C456 1.349 . S
C457 C473 1.349 . S
C458 C456 1.327 . S
C458 C477 1.429 . S
C458 H482 0.950 . S
C459 C476 1.574 . S
C459 C478 1.368 . S
C459 H483 0.949 . S
H460 C464 0.949 . S
C461 C462 1.349 . S
C461 C463 1.327 . S
C461 H484 0.950 . S
C462 C461 1.349 . S
C462 C474 1.349 . S
C463 C461 1.327 . S
C463 C479 1.429 . S
C463 H485 0.950 . S
C464 H460 0.949 . S
C464 C472 1.574 . S
C464 C480 1.368 . S
H465 C473 0.950 . S
H466 C471 0.950 . S
H467 C472 0.949 . S
H468 C474 0.950 . S
H469 C475 0.950 . S
H470 C476 0.949 . S
C471 H466 0.950 . S
C471 C473 1.327 . S
C471 C477 1.429 . S
C472 C464 1.574 . S
C472 H467 0.949 . S
C472 C478 1.368 . S
C473 C457 1.349 . S
C473 H465 0.950 . S
C473 C471 1.327 . S
C474 C462 1.349 . S
C474 H468 0.950 . S
C474 C475 1.327 . S
C475 H469 0.950 . S
C475 C474 1.327 . S
C475 C479 1.429 . S
C476 C459 1.574 . S
C476 H470 0.949 . S
C476 C480 1.368 . S
C477 C458 1.429 . S
C477 C471 1.429 . S
C477 C478 1.523 . S
C478 C459 1.368 . S
C478 C472 1.368 . S
C478 C477 1.523 . S
C479 C463 1.429 . S
C479 C475 1.429 . S
C479 C480 1.523 . S
C480 C464 1.368 . S
C480 C476 1.368 . S
C480 C479 1.523 . S
H481 C456 0.950 . S
H482 C458 0.950 . S
H483 C459 0.949 . S
H484 C461 0.950 . S
H485 C463 0.950 . S
C486 C487 1.349 . S
C486 C488 1.327 . S
C486 H511 0.950 . S
C487 C486 1.349 . S
C487 C503 1.349 . S
C488 C486 1.327 . S
C488 C507 1.429 . S
C488 H512 0.950 . S
C489 C506 1.574 . S
C489 C508 1.368 . S
C489 H513 0.949 . S
H490 C494 0.949 . S
C491 C492 1.349 . S
C491 C493 1.327 . S
C491 H514 0.950 . S
C492 C491 1.349 . S
C492 C504 1.349 . S
C493 C491 1.327 . S
C493 C509 1.429 . S
C493 H515 0.950 . S
C494 H490 0.949 . S
C494 C502 1.574 . S
C494 C510 1.368 . S
H495 C503 0.950 . S
H496 C501 0.950 . S
H497 C502 0.949 . S
H498 C504 0.950 . S
H499 C505 0.950 . S
H500 C506 0.949 . S
C501 H496 0.950 . S
C501 C503 1.327 . S
C501 C507 1.429 . S
C502 C494 1.574 . S
C502 H497 0.949 . S
C502 C508 1.368 . S
C503 C487 1.349 . S
C503 H495 0.950 . S
C503 C501 1.327 . S
C504 C492 1.349 . S
C504 H498 0.950 . S
C504 C505 1.327 . S
C505 H499 0.950 . S
C505 C504 1.327 . S
C505 C509 1.429 . S
C506 C489 1.574 . S
C506 H500 0.949 . S
C506 C510 1.368 . S
C507 C488 1.429 . S
C507 C501 1.429 . S
C507 C508 1.523 . S
C508 C489 1.368 . S
C508 C502 1.368 . S
C508 C507 1.523 . S
C509 C493 1.429 . S
C509 C505 1.429 . S
C509 C510 1.523 . S
C510 C494 1.368 . S
C510 C506 1.368 . S
C510 C509 1.523 . S
H511 C486 0.950 . S
H512 C488 0.950 . S
H513 C489 0.949 . S
H514 C491 0.950 . S
H515 C493 0.950 . S
C516 C517 1.349 . S
C516 C518 1.327 . S
C516 H541 0.950 . S
C517 C516 1.349 . S
C517 C533 1.349 . S
C518 C516 1.327 . S
C518 C537 1.429 . S
C518 H542 0.950 . S
C519 C536 1.574 . S
C519 C538 1.368 . S
C519 H543 0.949 . S
H520 C524 0.949 . S
C521 C522 1.349 . S
C521 C523 1.327 . S
C521 H544 0.950 . S
C522 C521 1.349 . S
C522 C534 1.349 . S
C523 C521 1.327 . S
C523 C539 1.429 . S
C523 H545 0.950 . S
C524 H520 0.949 . S
C524 C532 1.574 . S
C524 C540 1.368 . S
H525 C533 0.950 . S
H526 C531 0.950 . S
H527 C532 0.949 . S
H528 C534 0.950 . S
H529 C535 0.950 . S
H530 C536 0.949 . S
C531 H526 0.950 . S
C531 C533 1.327 . S
C531 C537 1.429 . S
C532 C524 1.574 . S
C532 H527 0.949 . S
C532 C538 1.368 . S
C533 C517 1.349 . S
C533 H525 0.950 . S
C533 C531 1.327 . S
C534 C522 1.349 . S
C534 H528 0.950 . S
C534 C535 1.327 . S
C535 H529 0.950 . S
C535 C534 1.327 . S
C535 C539 1.429 . S
C536 C519 1.574 . S
C536 H530 0.949 . S
C536 C540 1.368 . S
C537 C518 1.429 . S
C537 C531 1.429 . S
C537 C538 1.523 . S
C538 C519 1.368 . S
C538 C532 1.368 . S
C538 C537 1.523 . S
C539 C523 1.429 . S
C539 C535 1.429 . S
C539 C540 1.523 . S
C540 C524 1.368 . S
C540 C536 1.368 . S
C540 C539 1.523 . S
H541 C516 0.950 . S
H542 C518 0.950 . S
H543 C519 0.949 . S
H544 C521 0.950 . S
H545 C523 0.950 . S
C546 C547 1.349 . S
C546 C548 1.327 . S
C546 H571 0.950 . S
C547 C546 1.349 . S
C547 C563 1.349 . S
C548 C546 1.327 . S
C548 C567 1.429 . S
C548 H572 0.950 . S
C549 C566 1.574 . S
C549 C568 1.368 . S
C549 H573 0.949 . S
H550 C554 0.949 . S
C551 C552 1.349 . S
C551 C553 1.327 . S
C551 H574 0.950 . S
C552 C551 1.349 . S
C552 C564 1.349 . S
C553 C551 1.327 . S
C553 C569 1.429 . S
C553 H575 0.950 . S
C554 H550 0.949 . S
C554 C562 1.574 . S
C554 C570 1.368 . S
H555 C563 0.950 . S
H556 C561 0.950 . S
H557 C562 0.949 . S
H558 C564 0.950 . S
H559 C565 0.950 . S
H560 C566 0.949 . S
C561 H556 0.950 . S
C561 C563 1.327 . S
C561 C567 1.429 . S
C562 C554 1.574 . S
C562 H557 0.949 . S
C562 C568 1.368 . S
C563 C547 1.349 . S
C563 H555 0.950 . S
C563 C561 1.327 . S
C564 C552 1.349 . S
C564 H558 0.950 . S
C564 C565 1.327 . S
C565 H559 0.950 . S
C565 C564 1.327 . S
C565 C569 1.429 . S
C566 C549 1.574 . S
C566 H560 0.949 . S
C566 C570 1.368 . S
C567 C548 1.429 . S
C567 C561 1.429 . S
C567 C568 1.523 . S
C568 C549 1.368 . S
C568 C562 1.368 . S
C568 C567 1.523 . S
C569 C553 1.429 . S
C569 C565 1.429 . S
C569 C570 1.523 . S
C570 C554 1.368 . S
C570 C566 1.368 . S
C570 C569 1.523 . S
H571 C546 0.950 . S
H572 C548 0.950 . S
H573 C549 0.949 . S
H574 C551 0.950 . S
H575 C553 0.950 . S
C576 C577 1.349 1_554 S
C576 C578 1.327 1_554 S
C576 H601 0.950 . S
C577 C576 1.349 1_556 S
C577 C593 1.349 . S
C578 C576 1.327 1_556 S
C578 C597 1.429 . S
C578 H602 0.950 . S
C579 C596 1.574 1_455 S
C579 C598 1.368 . S
C579 H603 0.949 . S
H580 C584 0.949 . S
C581 C582 1.349 . S
C581 C583 1.327 . S
C581 H604 0.950 . S
C582 C581 1.349 . S
C582 C594 1.349 . S
C583 C581 1.327 . S
C583 C599 1.429 . S
C583 H605 0.950 . S
C584 H580 0.949 . S
C584 C592 1.574 1_655 S
C584 C600 1.368 . S
H585 C593 0.950 . S
H586 C591 0.950 . S
H587 C592 0.949 . S
H588 C594 0.950 . S
H589 C595 0.950 . S
H590 C596 0.949 . S
C591 H586 0.950 . S
C591 C593 1.327 . S
C591 C597 1.429 . S
C592 C584 1.574 1_455 S
C592 H587 0.949 . S
C592 C598 1.368 . S
C593 C577 1.349 . S
C593 H585 0.950 . S
C593 C591 1.327 . S
C594 C582 1.349 . S
C594 H588 0.950 . S
C594 C595 1.327 . S
C595 H589 0.950 . S
C595 C594 1.327 . S
C595 C599 1.429 . S
C596 C579 1.574 1_655 S
C596 H590 0.949 . S
C596 C600 1.368 . S
C597 C578 1.429 . S
C597 C591 1.429 . S
C597 C598 1.523 . S
C598 C579 1.368 . S
C598 C592 1.368 . S
C598 C597 1.523 . S
C599 C583 1.429 . S
C599 C595 1.429 . S
C599 C600 1.523 . S
C600 C584 1.368 . S
C600 C596 1.368 . S
C600 C599 1.523 . S
H601 C576 0.950 . S
H602 C578 0.950 . S
H603 C579 0.949 . S
H604 C581 0.950 . S
H605 C583 0.950 . S
C606 C607 1.349 . S
C606 C608 1.327 . S
C606 H631 0.950 . S
C607 C606 1.349 . S
C607 C623 1.349 . S
C608 C606 1.327 . S
C608 C627 1.429 . S
C608 H632 0.950 . S
C609 C626 1.534 1_565 S
C609 C628 1.368 1_554 S
C609 H633 0.949 . S
H610 C614 0.949 . S
C611 C612 1.349 . S
C611 C613 1.327 . S
C611 H634 0.950 . S
C612 C611 1.349 . S
C612 C624 1.349 . S
C613 C611 1.327 . S
C613 C629 1.429 . S
C613 H635 0.950 . S
C614 H610 0.949 . S
C614 C622 1.534 1_545 S
C614 C630 1.368 1_556 S
H615 C623 0.950 . S
H616 C621 0.950 . S
H617 C622 0.939 . S
H618 C624 0.950 . S
H619 C625 0.950 . S
H620 C626 0.939 . S
C621 H616 0.950 . S
C621 C623 1.327 . S
C621 C627 1.429 . S
C622 C614 1.534 1_565 S
C622 H617 0.939 . S
C622 C628 1.422 . S
C623 C607 1.349 . S
C623 H615 0.950 . S
C623 C621 1.327 . S
C624 C612 1.349 . S
C624 H618 0.950 . S
C624 C625 1.327 . S
C625 H619 0.950 . S
C625 C624 1.327 . S
C625 C629 1.429 . S
C626 C609 1.534 1_545 S
C626 H620 0.939 . S
C626 C630 1.422 . S
C627 C608 1.429 . S
C627 C621 1.429 . S
C627 C628 1.523 . S
C628 C609 1.368 1_556 S
C628 C622 1.422 . S
C628 C627 1.523 . S
C629 C613 1.429 . S
C629 C625 1.429 . S
C629 C630 1.523 . S
C630 C614 1.368 1_554 S
C630 C626 1.422 . S
C630 C629 1.523 . S
H631 C606 0.950 . S
H632 C608 0.950 . S
H633 C609 0.949 . S
H634 C611 0.950 . S
H635 C613 0.950 . S
C636 C637 1.349 . S
C636 C638 1.327 . S
C636 H661 0.950 . S
C637 C636 1.349 . S
C637 C653 1.349 . S
C638 C636 1.327 . S
C638 C657 1.429 . S
C638 H662 0.950 . S
C639 C656 1.574 . S
C639 C658 1.368 . S
C639 H663 0.949 . S
H640 C644 0.949 . S
C641 C642 1.349 . S
C641 C643 1.327 . S
C641 H664 0.950 . S
C642 C641 1.349 . S
C642 C654 1.349 . S
C643 C641 1.327 . S
C643 C659 1.429 . S
C643 H665 0.950 . S
C644 H640 0.949 . S
C644 C652 1.574 . S
C644 C660 1.368 . S
H645 C653 0.950 . S
H646 C651 0.950 . S
H647 C652 0.949 . S
H648 C654 0.950 1_556 S
H649 C655 0.950 . S
H650 C656 0.949 . S
C651 H646 0.950 . S
C651 C653 1.327 . S
C651 C657 1.429 . S
C652 C644 1.574 . S
C652 H647 0.949 . S
C652 C658 1.368 . S
C653 C637 1.349 . S
C653 H645 0.950 . S
C653 C651 1.327 . S
C654 C642 1.349 . S
C654 H648 0.950 1_554 S
C654 C655 1.327 . S
C655 H649 0.950 . S
C655 C654 1.327 . S
C655 C659 1.429 . S
C656 C639 1.574 . S
C656 H650 0.949 . S
C656 C660 1.368 . S
C657 C638 1.429 . S
C657 C651 1.429 . S
C657 C658 1.523 . S
C658 C639 1.368 . S
C658 C652 1.368 . S
C658 C657 1.523 . S
C659 C643 1.429 . S
C659 C655 1.429 . S
C659 C660 1.523 . S
C660 C644 1.368 . S
C660 C656 1.368 . S
C660 C659 1.523 . S
H661 C636 0.950 . S
H662 C638 0.950 . S
H663 C639 0.949 . S
H664 C641 0.950 . S
H665 C643 0.950 . S
C666 C667 1.349 . S
C666 C668 1.327 . S
C666 H691 0.950 . S
C667 C666 1.349 . S
C667 C683 1.349 . S
C668 C666 1.327 . S
C668 C687 1.429 . S
C668 H692 0.950 . S
C669 C686 1.574 1_655 S
C669 C688 1.368 . S
C669 H693 0.949 . S
H670 C674 0.949 . S
C671 C672 1.349 . S
C671 C673 1.327 . S
C671 H694 0.950 . S
C672 C671 1.349 . S
C672 C684 1.349 . S
C673 C671 1.327 . S
C673 C689 1.429 . S
C673 H695 0.950 . S
C674 H670 0.949 . S
C674 C682 1.574 1_455 S
C674 C690 1.368 . S
H675 C683 0.950 . S
H676 C681 0.950 . S
H677 C682 0.949 . S
H678 C684 0.950 . S
H679 C685 0.950 . S
H680 C686 0.949 . S
C681 H676 0.950 . S
C681 C683 1.327 . S
C681 C687 1.429 . S
C682 C674 1.574 1_655 S
C682 H677 0.949 . S
C682 C688 1.368 . S
C683 C667 1.349 . S
C683 H675 0.950 . S
C683 C681 1.327 . S
C684 C672 1.349 . S
C684 H678 0.950 . S
C684 C685 1.327 . S
C685 H679 0.950 . S
C685 C684 1.327 . S
C685 C689 1.429 . S
C686 C669 1.574 1_455 S
C686 H680 0.949 . S
C686 C690 1.368 . S
C687 C668 1.429 . S
C687 C681 1.429 . S
C687 C688 1.523 . S
C688 C669 1.368 . S
C688 C682 1.368 . S
C688 C687 1.523 . S
C689 C673 1.429 . S
C689 C685 1.429 . S
C689 C690 1.523 . S
C690 C674 1.368 . S
C690 C686 1.368 . S
C690 C689 1.523 . S
H691 C666 0.950 . S
H692 C668 0.950 . S
H693 C669 0.949 . S
H694 C671 0.950 . S
H695 C673 0.950 . S
C696 C697 1.349 . S
C696 C698 1.327 . S
C696 H721 0.950 . S
C697 C696 1.349 . S
C697 C713 1.349 . S
C698 C696 1.327 . S
C698 C717 1.429 . S
C698 H722 0.950 . S
C699 C716 1.574 1_545 S
C699 C718 1.368 . S
C699 H723 0.949 . S
H700 C704 0.949 . S
C701 C702 1.349 . S
C701 C703 1.327 . S
C701 H724 0.950 . S
C702 C701 1.349 . S
C702 C714 1.349 . S
C703 C701 1.327 . S
C703 C719 1.429 . S
C703 H725 0.950 . S
C704 H700 0.949 . S
C704 C712 1.574 1_565 S
C704 C720 1.368 . S
H705 C713 0.950 . S
H706 C711 0.950 . S
H707 C712 0.949 . S
H708 C714 0.950 . S
H709 C715 0.950 . S
H710 C716 0.949 . S
C711 H706 0.950 . S
C711 C713 1.327 . S
C711 C717 1.429 . S
C712 C704 1.574 1_545 S
C712 H707 0.949 . S
C712 C718 1.368 . S
C713 C697 1.349 . S
C713 H705 0.950 . S
C713 C711 1.327 . S
C714 C702 1.349 . S
C714 H708 0.950 . S
C714 C715 1.327 . S
C715 H709 0.950 . S
C715 C714 1.327 . S
C715 C719 1.429 . S
C716 C699 1.574 1_565 S
C716 H710 0.949 . S
C716 C720 1.368 . S
C717 C698 1.429 . S
C717 C711 1.429 . S
C717 C718 1.523 . S
C718 C699 1.368 . S
C718 C712 1.368 . S
C718 C717 1.523 . S
C719 C703 1.429 . S
C719 C715 1.429 . S
C719 C720 1.523 . S
C720 C704 1.368 . S
C720 C716 1.368 . S
C720 C719 1.523 . S
H721 C696 0.950 . S
H722 C698 0.950 . S
H723 C699 0.949 . S
H724 C701 0.950 . S
H725 C703 0.950 . S
C726 C727 1.349 . S
C726 C728 1.327 . S
C726 H751 0.950 . S
C727 C726 1.349 . S
C727 C743 1.349 . S
C728 C726 1.327 . S
C728 C747 1.429 . S
C728 H752 0.950 . S
C729 C746 1.574 . S
C729 C748 1.368 . S
C729 H753 0.949 . S
H730 C734 0.949 . S
C731 C732 1.349 . S
C731 C733 1.327 . S
C731 H754 0.950 . S
C732 C731 1.349 . S
C732 C744 1.349 . S
C733 C731 1.327 . S
C733 C749 1.429 . S
C733 H755 0.950 . S
C734 H730 0.949 . S
C734 C742 1.574 . S
C734 C750 1.368 . S
H735 C743 0.950 . S
H736 C741 0.950 . S
H737 C742 0.949 . S
H738 C744 0.950 . S
H739 C745 0.950 . S
H740 C746 0.949 . S
C741 H736 0.950 . S
C741 C743 1.327 . S
C741 C747 1.429 . S
C742 C734 1.574 . S
C742 H737 0.949 . S
C742 C748 1.368 . S
C743 C727 1.349 . S
C743 H735 0.950 . S
C743 C741 1.327 . S
C744 C732 1.349 . S
C744 H738 0.950 . S
C744 C745 1.327 . S
C745 H739 0.950 . S
C745 C744 1.327 . S
C745 C749 1.429 . S
C746 C729 1.574 . S
C746 H740 0.949 . S
C746 C750 1.368 . S
C747 C728 1.429 . S
C747 C741 1.429 . S
C747 C748 1.523 . S
C748 C729 1.368 . S
C748 C742 1.368 . S
C748 C747 1.523 . S
C749 C733 1.429 . S
C749 C745 1.429 . S
C749 C750 1.523 . S
C750 C734 1.368 . S
C750 C746 1.368 . S
C750 C749 1.523 . S
H751 C726 0.950 . S
H752 C728 0.950 . S
H753 C729 0.949 . S
H754 C731 0.950 . S
H755 C733 0.950 . S
C756 C757 1.349 . S
C756 C758 1.327 . S
C756 H781 0.950 . S
C757 C756 1.349 . S
C757 C773 1.349 . S
C758 C756 1.327 . S
C758 C777 1.429 . S
C758 H782 0.950 . S
C759 C776 1.574 . S
C759 C778 1.368 . S
C759 H783 0.949 . S
H760 C764 0.949 . S
C761 C762 1.349 . S
C761 C763 1.327 . S
C761 H784 0.950 . S
C762 C761 1.349 . S
C762 C774 1.349 . S
C763 C761 1.327 . S
C763 C779 1.429 . S
C763 H785 0.950 . S
C764 H760 0.949 . S
C764 C772 1.574 . S
C764 C780 1.368 . S
H765 C773 0.950 . S
H766 C771 0.950 . S
H767 C772 0.949 . S
H768 C774 0.950 . S
H769 C775 0.950 . S
H770 C776 0.949 . S
C771 H766 0.950 . S
C771 C773 1.327 . S
C771 C777 1.429 . S
C772 C764 1.574 . S
C772 H767 0.949 . S
C772 C778 1.368 . S
C773 C757 1.349 . S
C773 H765 0.950 . S
C773 C771 1.327 . S
C774 C762 1.349 . S
C774 H768 0.950 . S
C774 C775 1.327 . S
C775 H769 0.950 . S
C775 C774 1.327 . S
C775 C779 1.429 . S
C776 C759 1.574 . S
C776 H770 0.949 . S
C776 C780 1.368 . S
C777 C758 1.429 . S
C777 C771 1.429 . S
C777 C778 1.523 . S
C778 C759 1.368 . S
C778 C772 1.368 . S
C778 C777 1.523 . S
C779 C763 1.429 . S
C779 C775 1.429 . S
C779 C780 1.523 . S
C780 C764 1.368 . S
C780 C776 1.368 . S
C780 C779 1.523 . S
H781 C756 0.950 . S
H782 C758 0.950 . S
H783 C759 0.949 . S
H784 C761 0.950 . S
H785 C763 0.950 . S
C786 C787 1.349 . S
C786 C788 1.327 . S
C786 H811 0.950 . S
C787 C786 1.349 . S
C787 C803 1.349 . S
C788 C786 1.327 . S
C788 C807 1.429 . S
C788 H812 0.950 . S
C789 C806 1.574 . S
C789 C808 1.368 . S
C789 H813 0.949 . S
H790 C794 0.949 . S
C791 C792 1.349 . S
C791 C793 1.327 . S
C791 H814 0.950 . S
C792 C791 1.349 . S
C792 C804 1.349 . S
C793 C791 1.327 . S
C793 C809 1.429 . S
C793 H815 0.950 . S
C794 H790 0.949 . S
C794 C802 1.574 . S
C794 C810 1.368 . S
H795 C803 0.950 . S
H796 C801 0.950 . S
H797 C802 0.949 . S
H798 C804 0.950 . S
H799 C805 0.950 . S
H800 C806 0.949 . S
C801 H796 0.950 . S
C801 C803 1.327 . S
C801 C807 1.429 . S
C802 C794 1.574 . S
C802 H797 0.949 . S
C802 C808 1.368 . S
C803 C787 1.349 . S
C803 H795 0.950 . S
C803 C801 1.327 . S
C804 C792 1.349 . S
C804 H798 0.950 . S
C804 C805 1.327 . S
C805 H799 0.950 . S
C805 C804 1.327 . S
C805 C809 1.429 . S
C806 C789 1.574 . S
C806 H800 0.949 . S
C806 C810 1.368 . S
C807 C788 1.429 . S
C807 C801 1.429 . S
C807 C808 1.523 . S
C808 C789 1.368 . S
C808 C802 1.368 . S
C808 C807 1.523 . S
C809 C793 1.429 . S
C809 C805 1.429 . S
C809 C810 1.523 . S
C810 C794 1.368 . S
C810 C806 1.368 . S
C810 C809 1.523 . S
H811 C786 0.950 . S
H812 C788 0.950 . S
H813 C789 0.949 . S
H814 C791 0.950 . S
H815 C793 0.950 . S
C816 C817 1.349 . S
C816 C818 1.327 . S
C816 H841 0.950 . S
C817 C816 1.349 . S
C817 C833 1.349 . S
C818 C816 1.327 . S
C818 C837 1.429 . S
C818 H842 0.950 . S
C819 C836 1.574 . S
C819 C838 1.368 . S
C819 H843 0.949 . S
H820 C824 0.949 . S
C821 C822 1.349 . S
C821 C823 1.327 . S
C821 H844 0.950 . S
C822 C821 1.349 . S
C822 C834 1.349 . S
C823 C821 1.327 . S
C823 C839 1.429 . S
C823 H845 0.950 . S
C824 H820 0.949 . S
C824 C832 1.574 . S
C824 C840 1.368 . S
H825 C833 0.950 . S
H826 C831 0.950 . S
H827 C832 0.949 . S
H828 C834 0.950 . S
H829 C835 0.950 . S
H830 C836 0.949 . S
C831 H826 0.950 . S
C831 C833 1.327 . S
C831 C837 1.429 . S
C832 C824 1.574 . S
C832 H827 0.949 . S
C832 C838 1.368 . S
C833 C817 1.349 . S
C833 H825 0.950 . S
C833 C831 1.327 . S
C834 C822 1.349 . S
C834 H828 0.950 . S
C834 C835 1.327 . S
C835 H829 0.950 . S
C835 C834 1.327 . S
C835 C839 1.429 . S
C836 C819 1.574 . S
C836 H830 0.949 . S
C836 C840 1.368 . S
C837 C818 1.429 . S
C837 C831 1.429 . S
C837 C838 1.523 . S
C838 C819 1.368 . S
C838 C832 1.368 . S
C838 C837 1.523 . S
C839 C823 1.429 . S
C839 C835 1.429 . S
C839 C840 1.523 . S
C840 C824 1.368 . S
C840 C836 1.368 . S
C840 C839 1.523 . S
H841 C816 0.950 . S
H842 C818 0.950 . S
H843 C819 0.949 . S
H844 C821 0.950 . S
H845 C823 0.950 . S
C846 C847 1.349 . S
C846 C848 1.327 . S
C846 H871 0.950 . S
C847 C846 1.349 . S
C847 C863 1.349 . S
C848 C846 1.327 . S
C848 C867 1.429 . S
C848 H872 0.950 . S
C849 C866 1.574 . S
C849 C868 1.368 . S
C849 H873 0.949 . S
H850 C854 0.949 . S
C851 C852 1.349 . S
C851 C853 1.327 . S
C851 H874 0.950 . S
C852 C851 1.349 . S
C852 C864 1.349 . S
C853 C851 1.327 . S
C853 C869 1.429 . S
C853 H875 0.950 . S
C854 H850 0.949 . S
C854 C862 1.574 . S
C854 C870 1.368 . S
H855 C863 0.950 . S
H856 C861 0.950 . S
H857 C862 0.949 . S
H858 C864 0.950 . S
H859 C865 0.950 . S
H860 C866 0.949 . S
C861 H856 0.950 . S
C861 C863 1.327 . S
C861 C867 1.429 . S
C862 C854 1.574 . S
C862 H857 0.949 . S
C862 C868 1.368 . S
C863 C847 1.349 . S
C863 H855 0.950 . S
C863 C861 1.327 . S
C864 C852 1.349 . S
C864 H858 0.950 . S
C864 C865 1.327 . S
C865 H859 0.950 . S
C865 C864 1.327 . S
C865 C869 1.429 . S
C866 C849 1.574 . S
C866 H860 0.949 . S
C866 C870 1.368 . S
C867 C848 1.429 . S
C867 C861 1.429 . S
C867 C868 1.523 . S
C868 C849 1.368 . S
C868 C862 1.368 . S
C868 C867 1.523 . S
C869 C853 1.429 . S
C869 C865 1.429 . S
C869 C870 1.523 . S
C870 C854 1.368 . S
C870 C866 1.368 . S
C870 C869 1.523 . S
H871 C846 0.950 . S
H872 C848 0.950 . S
H873 C849 0.949 . S
H874 C851 0.950 . S
H875 C853 0.950 . S
C876 C877 1.349 . S
C876 C878 1.327 . S
C876 H901 0.950 . S
C877 C876 1.349 . S
C877 C893 1.349 . S
C878 C876 1.327 . S
C878 C897 1.429 . S
C878 H902 0.950 . S
C879 C896 1.574 . S
C879 C898 1.368 . S
C879 H903 0.949 . S
H880 C884 0.949 1_554 S
C881 C882 1.349 . S
C881 C883 1.327 1_554 S
C881 H904 0.950 1_554 S
C882 C881 1.349 . S
C882 C894 1.349 . S
C883 C881 1.327 1_556 S
C883 C899 1.429 . S
C883 H905 0.950 . S
C884 H880 0.949 1_556 S
C884 C892 1.574 . S
C884 C900 1.368 . S
H885 C893 0.950 . S
H886 C891 0.950 . S
H887 C892 0.949 . S
H888 C894 0.950 . S
H889 C895 0.950 . S
H890 C896 0.949 . S
C891 H886 0.950 . S
C891 C893 1.327 . S
C891 C897 1.429 . S
C892 C884 1.574 . S
C892 H887 0.949 . S
C892 C898 1.368 . S
C893 C877 1.349 . S
C893 H885 0.950 . S
C893 C891 1.327 . S
C894 C882 1.349 . S
C894 H888 0.950 . S
C894 C895 1.327 . S
C895 H889 0.950 . S
C895 C894 1.327 . S
C895 C899 1.429 1_554 S
C896 C879 1.574 . S
C896 H890 0.949 . S
C896 C900 1.368 . S
C897 C878 1.429 . S
C897 C891 1.429 . S
C897 C898 1.523 . S
C898 C879 1.368 . S
C898 C892 1.368 . S
C898 C897 1.523 . S
C899 C883 1.429 . S
C899 C895 1.429 1_556 S
C899 C900 1.523 . S
C900 C884 1.368 . S
C900 C896 1.368 . S
C900 C899 1.523 . S
H901 C876 0.950 . S
H902 C878 0.950 . S
H903 C879 0.949 . S
H904 C881 0.950 1_556 S
H905 C883 0.950 . S
C906 C907 1.349 . S
C906 C908 1.327 . S
C906 H931 0.950 . S
C907 C906 1.349 . S
C907 C923 1.349 . S
C908 C906 1.327 . S
C908 C927 1.429 . S
C908 H932 0.950 . S
C909 C926 1.574 . S
C909 C928 1.368 . S
C909 H933 0.949 . S
H910 C914 0.949 . S
C911 C912 1.349 . S
C911 C913 1.327 . S
C911 H934 0.950 . S
C912 C911 1.349 . S
C912 C924 1.349 . S
C913 C911 1.327 . S
C913 C929 1.429 1_556 S
C913 H935 0.950 . S
C914 H910 0.949 . S
C914 C922 1.574 . S
C914 C930 1.368 . S
H915 C923 0.950 . S
H916 C921 0.950 . S
H917 C922 0.949 . S
H918 C924 0.950 . S
H919 C925 0.950 . S
H920 C926 0.949 . S
C921 H916 0.950 . S
C921 C923 1.327 . S
C921 C927 1.429 . S
C922 C914 1.574 . S
C922 H917 0.949 . S
C922 C928 1.368 . S
C923 C907 1.349 . S
C923 H915 0.950 . S
C923 C921 1.327 . S
C924 C912 1.349 . S
C924 H918 0.950 . S
C924 C925 1.327 1_556 S
C925 H919 0.950 . S
C925 C924 1.327 1_554 S
C925 C929 1.429 . S
C926 C909 1.574 . S
C926 H920 0.949 . S
C926 C930 1.368 . S
C927 C908 1.429 . S
C927 C921 1.429 . S
C927 C928 1.523 . S
C928 C909 1.368 . S
C928 C922 1.368 . S
C928 C927 1.523 . S
C929 C913 1.429 1_554 S
C929 C925 1.429 . S
C929 C930 1.523 . S
C930 C914 1.368 . S
C930 C926 1.368 . S
C930 C929 1.523 . S
H931 C906 0.950 . S
H932 C908 0.950 . S
H933 C909 0.949 . S
H934 C911 0.950 . S
H935 C913 0.950 . S
C936 C937 1.349 . S
C936 C938 1.327 . S
C936 H961 0.950 . S
C937 C936 1.349 . S
C937 C953 1.349 . S
C938 C936 1.327 . S
C938 C957 1.429 . S
C938 H962 0.950 . S
C939 C956 1.574 . S
C939 C958 1.368 . S
C939 H963 0.949 . S
H940 C944 0.949 . S
C941 C942 1.349 . S
C941 C943 1.327 . S
C941 H964 0.950 . S
C942 C941 1.349 . S
C942 C954 1.349 . S
C943 C941 1.327 . S
C943 C959 1.429 . S
C943 H965 0.950 . S
C944 H940 0.949 . S
C944 C952 1.574 . S
C944 C960 1.368 . S
H945 C953 0.950 . S
H946 C951 0.950 . S
H947 C952 0.949 . S
H948 C954 0.950 . S
H949 C955 0.950 . S
H950 C956 0.949 . S
C951 H946 0.950 . S
C951 C953 1.327 . S
C951 C957 1.429 . S
C952 C944 1.574 . S
C952 H947 0.949 . S
C952 C958 1.368 . S
C953 C937 1.349 . S
C953 H945 0.950 . S
C953 C951 1.327 . S
C954 C942 1.349 . S
C954 H948 0.950 . S
C954 C955 1.327 . S
C955 H949 0.950 . S
C955 C954 1.327 . S
C955 C959 1.429 . S
C956 C939 1.574 . S
C956 H950 0.949 . S
C956 C960 1.368 . S
C957 C938 1.429 . S
C957 C951 1.429 . S
C957 C958 1.523 . S
C958 C939 1.368 . S
C958 C952 1.368 . S
C958 C957 1.523 . S
C959 C943 1.429 . S
C959 C955 1.429 . S
C959 C960 1.523 . S
C960 C944 1.368 . S
C960 C956 1.368 . S
C960 C959 1.523 . S
H961 C936 0.950 . S
H962 C938 0.950 . S
H963 C939 0.949 . S
H964 C941 0.950 . S
H965 C943 0.950 . S
C966 C967 1.349 . S
C966 C968 1.327 . S
C966 H991 0.950 . S
C967 C966 1.349 . S
C967 C983 1.349 . S
C968 C966 1.327 . S
C968 C987 1.429 . S
C968 H992 0.950 . S
C969 C986 1.574 . S
C969 C988 1.368 . S
C969 H993 0.949 . S
H970 C974 0.949 . S
C971 C972 1.349 . S
C971 C973 1.327 . S
C971 H994 0.950 . S
C972 C971 1.349 . S
C972 C984 1.349 . S
C973 C971 1.327 . S
C973 C989 1.429 . S
C973 H995 0.950 . S
C974 H970 0.949 . S
C974 C982 1.574 . S
C974 C990 1.368 . S
H975 C983 0.950 . S
H976 C981 0.950 . S
H977 C982 0.949 . S
H978 C984 0.950 . S
H979 C985 0.950 . S
H980 C986 0.949 . S
C981 H976 0.950 . S
C981 C983 1.327 . S
C981 C987 1.429 . S
C982 C974 1.574 . S
C982 H977 0.949 . S
C982 C988 1.368 . S
C983 C967 1.349 . S
C983 H975 0.950 . S
C983 C981 1.327 . S
C984 C972 1.349 . S
C984 H978 0.950 . S
C984 C985 1.327 . S
C985 H979 0.950 . S
C985 C984 1.327 . S
C985 C989 1.429 . S
C986 C969 1.574 . S
C986 H980 0.949 . S
C986 C990 1.368 . S
C987 C968 1.429 . S
C987 C981 1.429 . S
C987 C988 1.523 . S
C988 C969 1.368 . S
C988 C982 1.368 . S
C988 C987 1.523 . S
C989 C973 1.429 . S
C989 C985 1.429 . S
C989 C990 1.523 . S
C990 C974 1.368 . S
C990 C986 1.368 . S
C990 C989 1.523 . S
H991 C966 0.950 . S
H992 C968 0.950 . S
H993 C969 0.949 . S
H994 C971 0.950 . S
H995 C973 0.950 . S
C996 C997 1.349 . S
C996 C998 1.327 . S
C996 H1021 0.950 . S
C997 C996 1.349 . S
C997 C1013 1.349 . S
C998 C996 1.327 . S
C998 C1017 1.429 . S
C998 H1022 0.950 . S
C999 C1016 1.574 . S
C999 C1018 1.368 . S
C999 H1023 0.949 . S
H1000 C1004 0.949 . S
C1001 C1002 1.349 . S
C1001 C1003 1.327 . S
C1001 H1024 0.950 . S
C1002 C1001 1.349 . S
C1002 C1014 1.349 . S
C1003 C1001 1.327 . S
C1003 C1019 1.429 . S
C1003 H1025 0.950 . S
C1004 H1000 0.949 . S
C1004 C1012 1.574 . S
C1004 C1020 1.368 . S
H1005 C1013 0.950 . S
H1006 C1011 0.950 . S
H1007 C1012 0.949 . S
H1008 C1014 0.950 . S
H1009 C1015 0.950 . S
H1010 C1016 0.949 . S
C1011 H1006 0.950 . S
C1011 C1013 1.327 . S
C1011 C1017 1.429 . S
C1012 C1004 1.574 . S
C1012 H1007 0.949 . S
C1012 C1018 1.368 . S
C1013 C997 1.349 . S
C1013 H1005 0.950 . S
C1013 C1011 1.327 . S
C1014 C1002 1.349 . S
C1014 H1008 0.950 . S
C1014 C1015 1.327 . S
C1015 H1009 0.950 . S
C1015 C1014 1.327 . S
C1015 C1019 1.429 . S
C1016 C999 1.574 . S
C1016 H1010 0.949 . S
C1016 C1020 1.368 . S
C1017 C998 1.429 . S
C1017 C1011 1.429 . S
C1017 C1018 1.523 . S
C1018 C999 1.368 . S
C1018 C1012 1.368 . S
C1018 C1017 1.523 . S
C1019 C1003 1.429 . S
C1019 C1015 1.429 . S
C1019 C1020 1.523 1_554 S
C1020 C1004 1.368 . S
C1020 C1016 1.368 . S
C1020 C1019 1.523 1_556 S
H1021 C996 0.950 . S
H1022 C998 0.950 . S
H1023 C999 0.949 . S
H1024 C1001 0.950 . S
H1025 C1003 0.950 . S
C1026 C1027 1.349 . S
C1026 C1028 1.327 . S
C1026 H1051 0.950 . S
C1027 C1026 1.349 . S
C1027 C1043 1.349 . S
C1028 C1026 1.327 . S
C1028 C1047 1.429 . S
C1028 H1052 0.950 . S
C1029 C1046 1.574 . S
C1029 C1048 1.368 1_554 S
C1029 H1053 0.949 1_554 S
H1030 C1034 0.949 . S
C1031 C1032 1.349 . S
C1031 C1033 1.327 . S
C1031 H1054 0.950 . S
C1032 C1031 1.349 . S
C1032 C1044 1.349 . S
C1033 C1031 1.327 . S
C1033 C1049 1.429 . S
C1033 H1055 0.950 . S
C1034 H1030 0.949 . S
C1034 C1042 1.574 . S
C1034 C1050 1.368 . S
H1035 C1043 0.950 . S
H1036 C1041 0.950 . S
H1037 C1042 0.949 1_556 S
H1038 C1044 0.950 . S
H1039 C1045 0.950 . S
H1040 C1046 0.949 . S
C1041 H1036 0.950 . S
C1041 C1043 1.327 . S
C1041 C1047 1.429 . S
C1042 C1034 1.574 . S
C1042 H1037 0.949 1_554 S
C1042 C1048 1.368 1_554 S
C1043 C1027 1.349 . S
C1043 H1035 0.950 . S
C1043 C1041 1.327 . S
C1044 C1032 1.349 . S
C1044 H1038 0.950 . S
C1044 C1045 1.327 . S
C1045 H1039 0.950 . S
C1045 C1044 1.327 . S
C1045 C1049 1.429 . S
C1046 C1029 1.574 . S
C1046 H1040 0.949 . S
C1046 C1050 1.368 . S
C1047 C1028 1.429 . S
C1047 C1041 1.429 . S
C1047 C1048 1.523 . S
C1048 C1029 1.368 1_556 S
C1048 C1042 1.368 1_556 S
C1048 C1047 1.523 . S
C1049 C1033 1.429 . S
C1049 C1045 1.429 . S
C1049 C1050 1.523 . S
C1050 C1034 1.368 . S
C1050 C1046 1.368 . S
C1050 C1049 1.523 . S
H1051 C1026 0.950 . S
H1052 C1028 0.950 . S
H1053 C1029 0.949 1_556 S
H1054 C1031 0.950 . S
H1055 C1033 0.950 . S
C1056 C1057 1.349 . S
C1056 C1058 1.327 . S
C1056 H1081 0.950 . S
C1057 C1056 1.349 . S
C1057 C1073 1.349 . S
C1058 C1056 1.327 . S
C1058 C1077 1.429 . S
C1058 H1082 0.950 . S
C1059 C1076 1.574 . S
C1059 C1078 1.368 . S
C1059 H1083 0.949 . S
H1060 C1064 0.949 . S
C1061 C1062 1.349 . S
C1061 C1063 1.327 1_556 S
C1061 H1084 0.950 . S
C1062 C1061 1.349 . S
C1062 C1074 1.357 . S
C1063 C1061 1.327 1_554 S
C1063 C1079 1.429 . S
C1063 H1085 0.950 . S
C1064 H1060 0.949 . S
C1064 C1072 1.574 . S
C1064 C1080 1.368 . S
H1065 C1073 0.950 . S
H1066 C1071 0.950 . S
H1067 C1072 0.949 . S
H1068 C1074 0.956 . S
H1069 C1075 0.950 . S
H1070 C1076 0.949 . S
C1071 H1066 0.950 . S
C1071 C1073 1.327 . S
C1071 C1077 1.429 . S
C1072 C1064 1.574 . S
C1072 H1067 0.949 . S
C1072 C1078 1.368 . S
C1073 C1057 1.349 . S
C1073 H1065 0.950 . S
C1073 C1071 1.327 . S
C1074 C1062 1.357 . S
C1074 H1068 0.956 . S
C1074 C1075 1.312 1_556 S
C1075 H1069 0.950 . S
C1075 C1074 1.312 1_554 S
C1075 C1079 1.429 . S
C1076 C1059 1.574 . S
C1076 H1070 0.949 . S
C1076 C1080 1.368 . S
C1077 C1058 1.429 . S
C1077 C1071 1.429 . S
C1077 C1078 1.523 . S
C1078 C1059 1.368 . S
C1078 C1072 1.368 . S
C1078 C1077 1.523 . S
C1079 C1063 1.429 . S
C1079 C1075 1.429 . S
C1079 C1080 1.523 . S
C1080 C1064 1.368 . S
C1080 C1076 1.368 . S
C1080 C1079 1.523 . S
H1081 C1056 0.950 . S
H1082 C1058 0.950 . S
H1083 C1059 0.949 . S
H1084 C1061 0.950 . S
H1085 C1063 0.950 . S
C1086 C1087 1.349 . S
C1086 C1088 1.327 . S
C1086 H1111 0.950 . S
C1087 C1086 1.349 . S
C1087 C1103 1.349 . S
C1088 C1086 1.327 . S
C1088 C1107 1.429 . S
C1088 H1112 0.950 . S
C1089 C1106 1.574 . S
C1089 C1108 1.368 . S
C1089 H1113 0.949 . S
H1090 C1094 0.949 . S
C1091 C1092 1.349 . S
C1091 C1093 1.327 . S
C1091 H1114 0.950 . S
C1092 C1091 1.349 . S
C1092 C1104 1.349 . S
C1093 C1091 1.327 . S
C1093 C1109 1.429 . S
C1093 H1115 0.950 . S
C1094 H1090 0.949 . S
C1094 C1102 1.574 . S
C1094 C1110 1.368 . S
H1095 C1103 0.950 . S
H1096 C1101 0.950 . S
H1097 C1102 0.949 . S
H1098 C1104 0.950 . S
H1099 C1105 0.950 . S
H1100 C1106 0.949 . S
C1101 H1096 0.950 . S
C1101 C1103 1.327 . S
C1101 C1107 1.429 . S
C1102 C1094 1.574 . S
C1102 H1097 0.949 . S
C1102 C1108 1.368 . S
C1103 C1087 1.349 . S
C1103 H1095 0.950 . S
C1103 C1101 1.327 . S
C1104 C1092 1.349 . S
C1104 H1098 0.950 . S
C1104 C1105 1.327 . S
C1105 H1099 0.950 . S
C1105 C1104 1.327 . S
C1105 C1109 1.429 . S
C1106 C1089 1.574 . S
C1106 H1100 0.949 . S
C1106 C1110 1.368 . S
C1107 C1088 1.429 . S
C1107 C1101 1.429 . S
C1107 C1108 1.523 . S
C1108 C1089 1.368 . S
C1108 C1102 1.368 . S
C1108 C1107 1.523 . S
C1109 C1093 1.429 . S
C1109 C1105 1.429 . S
C1109 C1110 1.523 . S
C1110 C1094 1.368 . S
C1110 C1106 1.368 . S
C1110 C1109 1.523 . S
H1111 C1086 0.950 . S
H1112 C1088 0.950 . S
H1113 C1089 0.949 . S
H1114 C1091 0.950 . S
H1115 C1093 0.950 . S
C1116 C1117 1.349 . S
C1116 C1118 1.327 . S
C1116 H1141 0.950 . S
C1117 C1116 1.349 . S
C1117 C1133 1.349 . S
C1118 C1116 1.327 . S
C1118 C1137 1.429 . S
C1118 H1142 0.950 . S
C1119 C1136 1.574 . S
C1119 C1138 1.368 . S
C1119 H1143 0.949 . S
H1120 C1124 0.949 . S
C1121 C1122 1.349 . S
C1121 C1123 1.327 . S
C1121 H1144 0.950 . S
C1122 C1121 1.349 . S
C1122 C1134 1.349 . S
C1123 C1121 1.327 . S
C1123 C1139 1.429 . S
C1123 H1145 0.950 . S
C1124 H1120 0.949 . S
C1124 C1132 1.574 . S
C1124 C1140 1.368 . S
H1125 C1133 0.950 . S
H1126 C1131 0.950 . S
H1127 C1132 0.949 . S
H1128 C1134 0.950 . S
H1129 C1135 0.950 . S
H1130 C1136 0.949 . S
C1131 H1126 0.950 . S
C1131 C1133 1.327 . S
C1131 C1137 1.429 . S
C1132 C1124 1.574 . S
C1132 H1127 0.949 . S
C1132 C1138 1.368 . S
C1133 C1117 1.349 . S
C1133 H1125 0.950 . S
C1133 C1131 1.327 . S
C1134 C1122 1.349 . S
C1134 H1128 0.950 . S
C1134 C1135 1.327 . S
C1135 H1129 0.950 . S
C1135 C1134 1.327 . S
C1135 C1139 1.429 . S
C1136 C1119 1.574 . S
C1136 H1130 0.949 . S
C1136 C1140 1.368 . S
C1137 C1118 1.429 . S
C1137 C1131 1.429 . S
C1137 C1138 1.523 . S
C1138 C1119 1.368 . S
C1138 C1132 1.368 . S
C1138 C1137 1.523 . S
C1139 C1123 1.429 . S
C1139 C1135 1.429 . S
C1139 C1140 1.523 . S
C1140 C1124 1.368 . S
C1140 C1136 1.368 . S
C1140 C1139 1.523 . S
H1141 C1116 0.950 . S
H1142 C1118 0.950 . S
H1143 C1119 0.949 . S
H1144 C1121 0.950 . S
H1145 C1123 0.950 . S
C1146 C1147 1.349 . S
C1146 C1148 1.327 . S
C1146 H1171 0.950 . S
C1147 C1146 1.349 . S
C1147 C1163 1.349 . S
C1148 C1146 1.327 . S
C1148 C1167 1.429 . S
C1148 H1172 0.950 . S
C1149 C1166 1.574 . S
C1149 C1168 1.368 . S
C1149 H1173 0.949 . S
H1150 C1154 0.949 . S
C1151 C1152 1.349 . S
C1151 C1153 1.327 . S
C1151 H1174 0.950 . S
C1152 C1151 1.349 . S
C1152 C1164 1.349 . S
C1153 C1151 1.327 . S
C1153 C1169 1.429 . S
C1153 H1175 0.950 . S
C1154 H1150 0.949 . S
C1154 C1162 1.574 . S
C1154 C1170 1.368 . S
H1155 C1163 0.950 . S
H1156 C1161 0.950 . S
H1157 C1162 0.949 . S
H1158 C1164 0.950 . S
H1159 C1165 0.950 . S
H1160 C1166 0.949 . S
C1161 H1156 0.950 . S
C1161 C1163 1.327 . S
C1161 C1167 1.429 . S
C1162 C1154 1.574 . S
C1162 H1157 0.949 . S
C1162 C1168 1.368 . S
C1163 C1147 1.349 . S
C1163 H1155 0.950 . S
C1163 C1161 1.327 . S
C1164 C1152 1.349 . S
C1164 H1158 0.950 . S
C1164 C1165 1.327 . S
C1165 H1159 0.950 . S
C1165 C1164 1.327 . S
C1165 C1169 1.429 . S
C1166 C1149 1.574 . S
C1166 H1160 0.949 . S
C1166 C1170 1.368 . S
C1167 C1148 1.429 . S
C1167 C1161 1.429 . S
C1167 C1168 1.523 . S
C1168 C1149 1.368 . S
C1168 C1162 1.368 . S
C1168 C1167 1.523 . S
C1169 C1153 1.429 . S
C1169 C1165 1.429 . S
C1169 C1170 1.523 . S
C1170 C1154 1.368 . S
C1170 C1166 1.368 . S
C1170 C1169 1.523 . S
H1171 C1146 0.950 . S
H1172 C1148 0.950 . S
H1173 C1149 0.949 . S
H1174 C1151 0.950 . S
H1175 C1153 0.950 . S
C1176 C1177 1.349 . S
C1176 C1178 1.327 . S
C1176 H1201 0.950 . S
C1177 C1176 1.349 . S
C1177 C1193 1.349 . S
C1178 C1176 1.327 . S
C1178 C1197 1.429 . S
C1178 H1202 0.950 . S
C1179 C1196 1.574 . S
C1179 C1198 1.368 . S
C1179 H1203 0.949 . S
H1180 C1184 0.949 . S
C1181 C1182 1.349 . S
C1181 C1183 1.327 . S
C1181 H1204 0.950 . S
C1182 C1181 1.349 . S
C1182 C1194 1.349 . S
C1183 C1181 1.327 . S
C1183 C1199 1.429 . S
C1183 H1205 0.950 . S
C1184 H1180 0.949 . S
C1184 C1192 1.574 . S
C1184 C1200 1.368 . S
H1185 C1193 0.950 . S
H1186 C1191 0.950 . S
H1187 C1192 0.949 . S
H1188 C1194 0.950 . S
H1189 C1195 0.950 . S
H1190 C1196 0.949 . S
C1191 H1186 0.950 . S
C1191 C1193 1.327 . S
C1191 C1197 1.429 . S
C1192 C1184 1.574 . S
C1192 H1187 0.949 . S
C1192 C1198 1.368 . S
C1193 C1177 1.349 . S
C1193 H1185 0.950 . S
C1193 C1191 1.327 . S
C1194 C1182 1.349 . S
C1194 H1188 0.950 . S
C1194 C1195 1.327 . S
C1195 H1189 0.950 . S
C1195 C1194 1.327 . S
C1195 C1199 1.429 . S
C1196 C1179 1.574 . S
C1196 H1190 0.949 . S
C1196 C1200 1.368 . S
C1197 C1178 1.429 . S
C1197 C1191 1.429 . S
C1197 C1198 1.523 . S
C1198 C1179 1.368 . S
C1198 C1192 1.368 . S
C1198 C1197 1.523 . S
C1199 C1183 1.429 . S
C1199 C1195 1.429 . S
C1199 C1200 1.523 . S
C1200 C1184 1.368 . S
C1200 C1196 1.368 . S
C1200 C1199 1.523 . S
H1201 C1176 0.950 . S
H1202 C1178 0.950 . S
H1203 C1179 0.949 . S
H1204 C1181 0.950 . S
H1205 C1183 0.950 . S
C1206 C1207 1.349 . S
C1206 C1208 1.327 . S
C1206 H1231 0.950 . S
C1207 C1206 1.349 . S
C1207 C1223 1.349 . S
C1208 C1206 1.327 . S
C1208 C1227 1.429 . S
C1208 H1232 0.950 . S
C1209 C1226 1.574 . S
C1209 C1228 1.368 . S
C1209 H1233 0.949 . S
H1210 C1214 0.949 . S
C1211 C1212 1.349 . S
C1211 C1213 1.327 1_554 S
C1211 H1234 0.950 . S
C1212 C1211 1.349 . S
C1212 C1224 1.349 . S
C1213 C1211 1.327 1_556 S
C1213 C1229 1.429 . S
C1213 H1235 0.950 . S
C1214 H1210 0.949 . S
C1214 C1222 1.574 . S
C1214 C1230 1.368 . S
H1215 C1223 0.950 . S
H1216 C1221 0.950 . S
H1217 C1222 0.949 . S
H1218 C1224 0.950 . S
H1219 C1225 0.950 . S
H1220 C1226 0.949 . S
C1221 H1216 0.950 . S
C1221 C1223 1.327 . S
C1221 C1227 1.429 . S
C1222 C1214 1.574 . S
C1222 H1217 0.949 . S
C1222 C1228 1.368 . S
C1223 C1207 1.349 . S
C1223 H1215 0.950 . S
C1223 C1221 1.327 . S
C1224 C1212 1.349 . S
C1224 H1218 0.950 . S
C1224 C1225 1.327 1_554 S
C1225 H1219 0.950 . S
C1225 C1224 1.327 1_556 S
C1225 C1229 1.429 . S
C1226 C1209 1.574 . S
C1226 H1220 0.949 . S
C1226 C1230 1.368 . S
C1227 C1208 1.429 . S
C1227 C1221 1.429 . S
C1227 C1228 1.523 . S
C1228 C1209 1.368 . S
C1228 C1222 1.368 . S
C1228 C1227 1.523 . S
C1229 C1213 1.429 . S
C1229 C1225 1.429 . S
C1229 C1230 1.523 . S
C1230 C1214 1.368 . S
C1230 C1226 1.368 . S
C1230 C1229 1.523 . S
H1231 C1206 0.950 . S
H1232 C1208 0.950 . S
H1233 C1209 0.949 . S
H1234 C1211 0.950 . S
H1235 C1213 0.950 . S
C1236 C1237 1.349 . S
C1236 C1238 1.327 . S
C1236 H1261 0.950 . S
C1237 C1236 1.349 . S
C1237 C1253 1.349 . S
C1238 C1236 1.327 . S
C1238 C1257 1.429 . S
C1238 H1262 0.950 . S
C1239 C1256 1.574 . S
C1239 C1258 1.368 . S
C1239 H1263 0.949 . S
H1240 C1244 0.949 . S
C1241 C1242 1.349 . S
C1241 C1243 1.327 . S
C1241 H1264 0.950 . S
C1242 C1241 1.349 . S
C1242 C1254 1.349 . S
C1243 C1241 1.327 . S
C1243 C1259 1.429 . S
C1243 H1265 0.950 . S
C1244 H1240 0.949 . S
C1244 C1252 1.574 . S
C1244 C1260 1.368 1_556 S
H1245 C1253 0.950 . S
H1246 C1251 0.950 . S
H1247 C1252 0.949 . S
H1248 C1254 0.950 . S
H1249 C1255 0.950 . S
H1250 C1256 0.949 1_554 S
C1251 H1246 0.950 . S
C1251 C1253 1.327 . S
C1251 C1257 1.429 . S
C1252 C1244 1.574 . S
C1252 H1247 0.949 . S
C1252 C1258 1.368 . S
C1253 C1237 1.349 . S
C1253 H1245 0.950 . S
C1253 C1251 1.327 . S
C1254 C1242 1.349 . S
C1254 H1248 0.950 . S
C1254 C1255 1.327 . S
C1255 H1249 0.950 . S
C1255 C1254 1.327 . S
C1255 C1259 1.429 . S
C1256 C1239 1.574 . S
C1256 H1250 0.949 1_556 S
C1256 C1260 1.368 1_556 S
C1257 C1238 1.429 . S
C1257 C1251 1.429 . S
C1257 C1258 1.523 . S
C1258 C1239 1.368 . S
C1258 C1252 1.368 . S
C1258 C1257 1.523 . S
C1259 C1243 1.429 . S
C1259 C1255 1.429 . S
C1259 C1260 1.523 . S
C1260 C1244 1.368 1_554 S
C1260 C1256 1.368 1_554 S
C1260 C1259 1.523 . S
H1261 C1236 0.950 . S
H1262 C1238 0.950 . S
H1263 C1239 0.949 . S
H1264 C1241 0.950 . S
H1265 C1243 0.950 . S
C1266 C1267 1.349 . S
C1266 C1268 1.327 . S
C1266 H1291 0.950 . S
C1267 C1266 1.349 . S
C1267 C1283 1.349 . S
C1268 C1266 1.327 . S
C1268 C1287 1.429 . S
C1268 H1292 0.950 . S
C1269 C1286 1.574 . S
C1269 C1288 1.368 . S
C1269 H1293 0.949 . S
H1270 C1274 0.949 . S
C1271 C1272 1.349 . S
C1271 C1273 1.327 . S
C1271 H1294 0.950 . S
C1272 C1271 1.349 . S
C1272 C1284 1.349 . S
C1273 C1271 1.327 . S
C1273 C1289 1.429 . S
C1273 H1295 0.950 . S
C1274 H1270 0.949 . S
C1274 C1282 1.574 . S
C1274 C1290 1.368 . S
H1275 C1283 0.950 . S
H1276 C1281 0.950 . S
H1277 C1282 0.949 . S
H1278 C1284 0.950 . S
H1279 C1285 0.950 . S
H1280 C1286 0.949 . S
C1281 H1276 0.950 . S
C1281 C1283 1.327 . S
C1281 C1287 1.429 . S
C1282 C1274 1.574 . S
C1282 H1277 0.949 . S
C1282 C1288 1.368 . S
C1283 C1267 1.349 . S
C1283 H1275 0.950 . S
C1283 C1281 1.327 . S
C1284 C1272 1.349 . S
C1284 H1278 0.950 . S
C1284 C1285 1.327 . S
C1285 H1279 0.950 . S
C1285 C1284 1.327 . S
C1285 C1289 1.429 . S
C1286 C1269 1.574 . S
C1286 H1280 0.949 . S
C1286 C1290 1.368 . S
C1287 C1268 1.429 . S
C1287 C1281 1.429 . S
C1287 C1288 1.523 . S
C1288 C1269 1.368 . S
C1288 C1282 1.368 . S
C1288 C1287 1.523 . S
C1289 C1273 1.429 . S
C1289 C1285 1.429 . S
C1289 C1290 1.523 1_556 S
C1290 C1274 1.368 . S
C1290 C1286 1.368 . S
C1290 C1289 1.523 1_554 S
H1291 C1266 0.950 . S
H1292 C1268 0.950 . S
H1293 C1269 0.949 . S
H1294 C1271 0.950 . S
H1295 C1273 0.950 . S
C397 C281 1.653 . S
C402 C17 1.653 . S
C427 C314 1.653 . S
C432 C50 1.653 . S
C457 C347 1.653 . S
C462 C83 1.653 . S
C487 C380 1.653 . S
C492 C116 1.653 . S
C517 C149 1.653 . S
C522 C215 1.653 . S
C547 C248 1.653 . S
C552 C182 1.653 . S
C577 C8 0.990 1_556 S
C582 C371 0.990 . S
C607 C206 0.989 . S
C612 C41 0.989 . S
C637 C74 0.990 . S
C642 C239 0.990 1_554 S
C667 C107 0.990 . S
C672 C272 0.990 . S
C697 C305 0.989 . S
C702 C140 0.989 . S
C727 C173 0.991 . S
C732 C338 0.991 . S
C757 C28 1.232 . S
C762 C358 1.232 . S
C787 C61 1.231 . S
C792 C391 1.231 . S
C817 C226 1.231 . S
C822 C94 1.231 . S
C847 C259 1.232 . S
C852 C127 1.232 . S
C877 C160 1.231 . S
C882 C292 1.231 . S
C907 C325 1.231 . S
C912 C193 1.231 . S
C937 N5 0.910 . S
C942 N14 0.909 . S
C967 N47 0.909 1_556 S
C972 N38 0.910 . S
C997 N71 0.910 . S
C1002 N80 0.909 . S
C1027 N104 0.910 . S
C1032 N113 0.909 . S
C1057 N146 0.909 . S
C1062 N137 0.910 . S
C1087 N179 0.909 . S
C1092 N170 0.910 . S
C1117 N212 0.909 1_554 S
C1122 N203 0.910 . S
C1147 N245 0.909 . S
C1152 N236 0.910 . S
C1177 N278 0.909 . S
C1182 N269 0.910 . S
C1207 N311 0.909 . S
C1212 N302 0.910 . S
C1237 N344 0.909 . S
C1242 N335 0.910 . S
C1267 N368 0.910 . S
C1272 N377 0.909 . S
