# Generated by pormake.
# Topology gsi, (4)-cn, num edge types: 1
# Building blocks:
#     Node 0, Type 0, BuildingBlock: QUQFOY_clean_sbu_3, # of connection points: 4
#     Node 1, Type 0, BuildingBlock: QUQFOY_clean_sbu_3, # of connection points: 4
#     Node 2, Type 0, BuildingBlock: QUQFOY_clean_sbu_3, # of connection points: 4
#     Node 3, Type 0, BuildingBlock: QUQFOY_clean_sbu_3, # of connection points: 4
#     Node 4, Type 0, BuildingBlock: QUQFOY_clean_sbu_3, # of connection points: 4
#     Node 5, Type 0, BuildingBlock: QUQFOY_clean_sbu_3, # of connection points: 4
#     Node 6, Type 0, BuildingBlock: QUQFOY_clean_sbu_3, # of connection points: 4
#     Node 7, Type 0, BuildingBlock: QUQFOY_clean_sbu_3, # of connection points: 4
#     Node 8, Type 0, BuildingBlock: QUQFOY_clean_sbu_3, # of connection points: 4
#     Node 9, Type 0, BuildingBlock: QUQFOY_clean_sbu_3, # of connection points: 4
#     Node 10, Type 0, BuildingBlock: QUQFOY_clean_sbu_3, # of connection points: 4
#     Node 11, Type 0, BuildingBlock: QUQFOY_clean_sbu_3, # of connection points: 4
#     Node 12, Type 0, BuildingBlock: QUQFOY_clean_sbu_3, # of connection points: 4
#     Node 13, Type 0, BuildingBlock: QUQFOY_clean_sbu_3, # of connection points: 4
#     Node 14, Type 0, BuildingBlock: QUQFOY_clean_sbu_3, # of connection points: 4
#     Node 15, Type 0, BuildingBlock: QUQFOY_clean_sbu_3, # of connection points: 4
#     Edge 16, Type (0, 0), BuildingBlock: EYOCIG_clean_linker_4, # of connection points: 2
#     Edge 17, Type (0, 0), BuildingBlock: EYOCIG_clean_linker_4, # of connection points: 2
#     Edge 18, Type (0, 0), BuildingBlock: EYOCIG_clean_linker_4, # of connection points: 2
#     Edge 19, Type (0, 0), BuildingBlock: EYOCIG_clean_linker_4, # of connection points: 2
#     Edge 20, Type (0, 0), BuildingBlock: EYOCIG_clean_linker_4, # of connection points: 2
#     Edge 21, Type (0, 0), BuildingBlock: EYOCIG_clean_linker_4, # of connection points: 2
#     Edge 22, Type (0, 0), BuildingBlock: EYOCIG_clean_linker_4, # of connection points: 2
#     Edge 23, Type (0, 0), BuildingBlock: EYOCIG_clean_linker_4, # of connection points: 2
#     Edge 24, Type (0, 0), BuildingBlock: EYOCIG_clean_linker_4, # of connection points: 2
#     Edge 25, Type (0, 0), BuildingBlock: EYOCIG_clean_linker_4, # of connection points: 2
#     Edge 26, Type (0, 0), BuildingBlock: EYOCIG_clean_linker_4, # of connection points: 2
#     Edge 27, Type (0, 0), BuildingBlock: EYOCIG_clean_linker_4, # of connection points: 2
#     Edge 28, Type (0, 0), BuildingBlock: EYOCIG_clean_linker_4, # of connection points: 2
#     Edge 29, Type (0, 0), BuildingBlock: EYOCIG_clean_linker_4, # of connection points: 2
#     Edge 30, Type (0, 0), BuildingBlock: EYOCIG_clean_linker_4, # of connection points: 2
#     Edge 31, Type (0, 0), BuildingBlock: EYOCIG_clean_linker_4, # of connection points: 2
#     Edge 32, Type (0, 0), BuildingBlock: EYOCIG_clean_linker_4, # of connection points: 2
#     Edge 33, Type (0, 0), BuildingBlock: EYOCIG_clean_linker_4, # of connection points: 2
#     Edge 34, Type (0, 0), BuildingBlock: EYOCIG_clean_linker_4, # of connection points: 2
#     Edge 35, Type (0, 0), BuildingBlock: EYOCIG_clean_linker_4, # of connection points: 2
#     Edge 36, Type (0, 0), BuildingBlock: EYOCIG_clean_linker_4, # of connection points: 2
#     Edge 37, Type (0, 0), BuildingBlock: EYOCIG_clean_linker_4, # of connection points: 2
#     Edge 38, Type (0, 0), BuildingBlock: EYOCIG_clean_linker_4, # of connection points: 2
#     Edge 39, Type (0, 0), BuildingBlock: EYOCIG_clean_linker_4, # of connection points: 2
#     Edge 40, Type (0, 0), BuildingBlock: EYOCIG_clean_linker_4, # of connection points: 2
#     Edge 41, Type (0, 0), BuildingBlock: EYOCIG_clean_linker_4, # of connection points: 2
#     Edge 42, Type (0, 0), BuildingBlock: EYOCIG_clean_linker_4, # of connection points: 2
#     Edge 43, Type (0, 0), BuildingBlock: EYOCIG_clean_linker_4, # of connection points: 2
#     Edge 44, Type (0, 0), BuildingBlock: EYOCIG_clean_linker_4, # of connection points: 2
#     Edge 45, Type (0, 0), BuildingBlock: EYOCIG_clean_linker_4, # of connection points: 2
#     Edge 46, Type (0, 0), BuildingBlock: EYOCIG_clean_linker_4, # of connection points: 2
#     Edge 47, Type (0, 0), BuildingBlock: EYOCIG_clean_linker_4, # of connection points: 2
# Relax obj value: 0.137
# Max RMSD: 0.121
# Mean RMSD: 0.120
data_MOF--net-gsi--node1-QUQFOY_clean_sbu_3--edge1-EYOCIG_clean_linker_4
_symmetry_space_group_name_H-M    P1
_symmetry_Int_Tables_number       1
_symmetry_cell_setting            triclinic
loop_
_symmetry_equiv_pos_as_xyz
'x, y, z'
_cell_length_a     38.672228
_cell_length_b     30.772184
_cell_length_c     37.007262
_cell_angle_alpha  90.024878
_cell_angle_beta   90.001211
_cell_angle_gamma 90.025217
loop_
_atom_site_label
_atom_site_type_symbol
_atom_site_fract_x
_atom_site_fract_y
_atom_site_fract_z
_atom_type_partial_charge
C0 C 0.03676 0.18458 0.13185 0.0
O1 O 0.04236 0.19596 0.16429 0.0
Cd2 Cd 0.09147 0.1847 0.20169 0.0
O3 O 0.05983 0.16582 0.11268 0.0
Cd4 Cd 0.12259 0.14608 0.12046 0.0
C5 C 0.10067 0.07347 0.18601 0.0
O6 O 0.13672 0.20218 0.16263 0.0
O7 O 0.17547 0.15221 0.15675 0.0
O8 O 0.14001 0.18778 0.06687 0.0
C9 C 0.16575 0.18704 0.17178 0.0
O10 O 0.09474 0.10642 0.20581 0.0
C11 C 0.1577 0.15734 0.053 0.0
O12 O 0.10967 0.07697 0.15285 0.0
O13 O 0.15664 0.12047 0.06848 0.0
C14 C 0.89084 0.27995 0.13175 0.0
O15 O 0.8854 0.26996 0.16453 0.0
Cd16 Cd 0.83657 0.28278 0.2019 0.0
O17 O 0.86785 0.29846 0.11233 0.0
Cd18 Cd 0.80546 0.31926 0.12026 0.0
C19 C 0.82758 0.39352 0.18458 0.0
O20 O 0.79194 0.26298 0.16264 0.0
O21 O 0.75254 0.31199 0.15636 0.0
O22 O 0.78847 0.27787 0.06629 0.0
C23 C 0.76252 0.27724 0.1713 0.0
O24 O 0.83347 0.36117 0.20503 0.0
C25 C 0.77078 0.30832 0.05247 0.0
O26 O 0.81847 0.38903 0.15155 0.0
O27 O 0.77147 0.34498 0.0683 0.0
C28 C 0.03735 0.77944 0.33759 0.0
O29 O 0.04301 0.76941 0.30485 0.0
Cd30 Cd 0.0921 0.78276 0.26766 0.0
O31 O 0.06016 0.7982 0.35707 0.0
Cd32 Cd 0.12238 0.81945 0.34906 0.0
C33 C 0.10061 0.8935 0.28459 0.0
O34 O 0.13755 0.76389 0.30642 0.0
O35 O 0.1758 0.81423 0.31378 0.0
O36 O 0.13989 0.77874 0.40314 0.0
C37 C 0.16675 0.77942 0.29828 0.0
O38 O 0.09501 0.86112 0.26404 0.0
C39 C 0.15699 0.80983 0.41685 0.0
O40 O 0.10927 0.88901 0.31774 0.0
O41 O 0.15558 0.8464 0.40094 0.0
C42 C 0.89144 0.6842 0.33776 0.0
O43 O 0.88588 0.69575 0.30537 0.0
Cd44 Cd 0.83666 0.68476 0.26814 0.0
O45 O 0.86833 0.66537 0.35683 0.0
Cd46 Cd 0.80567 0.64571 0.34869 0.0
C47 C 0.8278 0.57345 0.28313 0.0
O48 O 0.79151 0.70314 0.30742 0.0
O49 O 0.75308 0.65261 0.31257 0.0
O50 O 0.78755 0.68622 0.40263 0.0
C51 C 0.76223 0.68833 0.29867 0.0
O52 O 0.83367 0.60651 0.26347 0.0
C53 C 0.76981 0.65542 0.41585 0.0
O54 O 0.81863 0.57679 0.31623 0.0
O55 O 0.7713 0.61881 0.39998 0.0
C56 C 0.39116 0.78071 0.63197 0.0
O57 O 0.38557 0.7699 0.66453 0.0
Cd58 Cd 0.33647 0.78162 0.70172 0.0
O59 O 0.36817 0.7994 0.61265 0.0
Cd60 Cd 0.30569 0.81993 0.62069 0.0
C61 C 0.32829 0.89277 0.68588 0.0
O62 O 0.29174 0.76273 0.66217 0.0
O63 O 0.25287 0.81258 0.6567 0.0
O64 O 0.28774 0.77969 0.56646 0.0
C65 C 0.26237 0.77717 0.67089 0.0
O66 O 0.33393 0.8599 0.70582 0.0
C67 C 0.27011 0.81061 0.55328 0.0
O68 O 0.31909 0.88909 0.6528 0.0
O69 O 0.27151 0.84707 0.56939 0.0
C70 C 0.88335 0.76673 0.85913 0.0
O71 O 0.86587 0.73197 0.85817 0.0
Cd72 Cd 0.80546 0.72048 0.85363 0.0
O73 O 0.86924 0.80392 0.85546 0.0
Cd74 Cd 0.80906 0.82687 0.8389 0.0
C75 C 0.77119 0.79277 0.91658 0.0
O76 O 0.79208 0.7642 0.80366 0.0
O77 O 0.75099 0.80942 0.81634 0.0
O78 O 0.8352 0.86367 0.78737 0.0
C79 C 0.76074 0.77508 0.80052 0.0
O80 O 0.77573 0.75446 0.90447 0.0
C81 C 0.82231 0.90067 0.79382 0.0
O82 O 0.783 0.82614 0.90013 0.0
O83 O 0.80386 0.90455 0.8221 0.0
C84 C 0.04487 0.70085 0.85907 0.0
O85 O 0.06318 0.73492 0.85834 0.0
Cd86 Cd 0.12374 0.74424 0.8536 0.0
O87 O 0.0581 0.66317 0.85529 0.0
Cd88 Cd 0.1182 0.63914 0.83934 0.0
C89 C 0.15684 0.67186 0.91678 0.0
O90 O 0.1361 0.7008 0.80283 0.0
O91 O 0.17648 0.65554 0.81782 0.0
O92 O 0.09345 0.60104 0.78763 0.0
C93 C 0.16719 0.68868 0.80011 0.0
O94 O 0.15318 0.71024 0.90454 0.0
C95 C 0.10669 0.56441 0.79471 0.0
O96 O 0.14416 0.63891 0.90048 0.0
O97 O 0.12432 0.56124 0.82358 0.0
C98 C 0.88317 0.19941 0.61089 0.0
O99 O 0.86524 0.2338 0.6113 0.0
Cd100 Cd 0.80463 0.24425 0.61531 0.0
O101 O 0.86947 0.16201 0.61466 0.0
Cd102 Cd 0.80931 0.13884 0.63077 0.0
C103 C 0.77051 0.17104 0.55315 0.0
O104 O 0.79127 0.20148 0.66605 0.0
O105 O 0.75102 0.15537 0.65247 0.0
O106 O 0.8353 0.10237 0.68258 0.0
C107 C 0.76007 0.18969 0.66875 0.0
O108 O 0.77462 0.20956 0.56497 0.0
C109 C 0.82256 0.06527 0.67614 0.0
O110 O 0.78309 0.13815 0.56962 0.0
O111 O 0.80428 0.0612 0.64776 0.0
C112 C 0.04481 0.26556 0.6111 0.0
O113 O 0.06279 0.23123 0.61152 0.0
Cd114 Cd 0.1233 0.22063 0.61549 0.0
O115 O 0.05844 0.30305 0.61479 0.0
Cd116 Cd 0.11876 0.32638 0.63047 0.0
C117 C 0.15669 0.29335 0.55256 0.0
O118 O 0.13648 0.26398 0.66585 0.0
O119 O 0.17713 0.30936 0.652 0.0
O120 O 0.09363 0.36326 0.68252 0.0
C121 C 0.16776 0.27535 0.66853 0.0
O122 O 0.15268 0.25496 0.56466 0.0
C123 C 0.10689 0.40007 0.67608 0.0
O124 O 0.14445 0.32644 0.56905 0.0
O125 O 0.12474 0.4039 0.64739 0.0
C126 C 0.54472 0.19975 0.35844 0.0
O127 O 0.56286 0.23398 0.35814 0.0
Cd128 Cd 0.62347 0.24401 0.35398 0.0
O129 O 0.55819 0.16223 0.35466 0.0
Cd130 Cd 0.61842 0.13895 0.33906 0.0
C131 C 0.65746 0.17128 0.4164 0.0
O132 O 0.6364 0.20117 0.30303 0.0
O133 O 0.6766 0.15545 0.31755 0.0
O134 O 0.59364 0.10092 0.2873 0.0
C135 C 0.66753 0.18911 0.30042 0.0
O136 O 0.65358 0.20973 0.4044 0.0
C137 C 0.6068 0.06427 0.29446 0.0
O138 O 0.6446 0.13841 0.40013 0.0
O139 O 0.62448 0.06115 0.32331 0.0
C140 C 0.53724 0.68539 0.63217 0.0
O141 O 0.5429 0.69565 0.66486 0.0
Cd142 Cd 0.59202 0.68281 0.70197 0.0
O143 O 0.56015 0.66685 0.61267 0.0
Cd144 Cd 0.62259 0.64613 0.62032 0.0
C145 C 0.60037 0.57201 0.6847 0.0
O146 O 0.63712 0.70171 0.66298 0.0
O147 O 0.67589 0.65201 0.65615 0.0
O148 O 0.6396 0.68719 0.56618 0.0
C149 C 0.66628 0.6866 0.67164 0.0
O150 O 0.59476 0.60439 0.70525 0.0
C151 C 0.65688 0.65638 0.55232 0.0
O152 O 0.60927 0.5765 0.65161 0.0
O153 O 0.65592 0.61979 0.56823 0.0
C154 C 0.53657 0.28053 0.83893 0.0
O155 O 0.54173 0.26913 0.80641 0.0
Cd156 Cd 0.59042 0.28072 0.76832 0.0
O157 O 0.55986 0.29953 0.85765 0.0
Cd158 Cd 0.62246 0.31963 0.84882 0.0
C159 C 0.59995 0.39202 0.78329 0.0
O160 O 0.63645 0.26342 0.80656 0.0
O161 O 0.67518 0.31348 0.81239 0.0
O162 O 0.64051 0.27819 0.90226 0.0
C163 C 0.66545 0.27867 0.79733 0.0
O164 O 0.59371 0.35899 0.76369 0.0
C165 C 0.65818 0.3088 0.91592 0.0
O166 O 0.60934 0.38864 0.81634 0.0
O167 O 0.65678 0.34565 0.90045 0.0
C168 C 0.39085 0.18589 0.83886 0.0
O169 O 0.38571 0.19624 0.8061 0.0
Cd170 Cd 0.33714 0.18299 0.76813 0.0
O171 O 0.36767 0.16709 0.85783 0.0
Cd172 Cd 0.30533 0.14619 0.84909 0.0
C173 C 0.32848 0.07215 0.7849 0.0
O174 O 0.2911 0.20157 0.80614 0.0
O175 O 0.25234 0.15174 0.81285 0.0
O176 O 0.28791 0.18816 0.90256 0.0
C177 C 0.262 0.18628 0.79734 0.0
O178 O 0.33449 0.10463 0.76462 0.0
C179 C 0.27032 0.15771 0.91654 0.0
O180 O 0.31898 0.07646 0.81784 0.0
O181 O 0.27133 0.12082 0.90109 0.0
C182 C 0.38324 0.26619 0.35842 0.0
O183 O 0.36535 0.23175 0.3579 0.0
Cd184 Cd 0.30483 0.22075 0.35354 0.0
O185 O 0.36951 0.30358 0.35477 0.0
Cd186 Cd 0.30919 0.32634 0.33892 0.0
C187 C 0.26978 0.29312 0.41576 0.0
O188 O 0.29146 0.26397 0.30313 0.0
O189 O 0.251 0.30948 0.31736 0.0
O190 O 0.33396 0.36373 0.28697 0.0
C191 C 0.26021 0.27555 0.30064 0.0
O192 O 0.2741 0.25478 0.40365 0.0
C193 C 0.32071 0.40042 0.29378 0.0
O194 O 0.28257 0.32626 0.39981 0.0
O195 O 0.30305 0.40394 0.32263 0.0
C196 C 0.3829 0.70061 0.10977 0.0
O197 O 0.36467 0.73474 0.11017 0.0
Cd198 Cd 0.30423 0.74491 0.11536 0.0
O199 O 0.36964 0.66301 0.11405 0.0
Cd200 Cd 0.30956 0.63919 0.13036 0.0
C201 C 0.26981 0.67156 0.05348 0.0
O202 O 0.29261 0.70161 0.16612 0.0
O203 O 0.25157 0.6566 0.15269 0.0
O204 O 0.33433 0.6013 0.18213 0.0
C205 C 0.2614 0.69027 0.1694 0.0
O206 O 0.27376 0.71002 0.06548 0.0
C207 C 0.32088 0.56473 0.17522 0.0
O208 O 0.28286 0.63869 0.06955 0.0
O209 O 0.30316 0.56149 0.1464 0.0
C210 C 0.54426 0.76685 0.10954 0.0
O211 O 0.56185 0.73222 0.11076 0.0
Cd212 Cd 0.6223 0.72146 0.11605 0.0
O213 O 0.55824 0.80411 0.11315 0.0
Cd214 Cd 0.6184 0.82634 0.13003 0.0
C215 C 0.65803 0.79272 0.05348 0.0
O216 O 0.63561 0.76453 0.16681 0.0
O217 O 0.67638 0.80915 0.15131 0.0
O218 O 0.59353 0.86317 0.18218 0.0
C219 C 0.66683 0.77632 0.1693 0.0
O220 O 0.65341 0.75451 0.06573 0.0
C221 C 0.60684 0.89995 0.17584 0.0
O222 O 0.64543 0.82607 0.06929 0.0
O223 O 0.62459 0.90389 0.14709 0.0
C224 C 0.19873 0.21616 0.22876 0.0
C225 C 0.18333 0.20328 0.20277 0.0
C226 C 0.21835 0.23434 0.25673 0.0
C227 C 0.23713 0.25357 0.27693 0.0
C228 C 0.72908 0.24606 0.22718 0.0
C229 C 0.74459 0.26004 0.20167 0.0
C230 C 0.7093 0.22817 0.25514 0.0
C231 C 0.69051 0.20996 0.27595 0.0
C232 C 0.22107 0.73173 0.21462 0.0
C233 C 0.23912 0.71237 0.19382 0.0
C234 C 0.20164 0.75015 0.24263 0.0
C235 C 0.18556 0.76336 0.26804 0.0
C236 C 0.72725 0.72096 0.24445 0.0
C237 C 0.74347 0.70634 0.26921 0.0
C238 C 0.70756 0.73875 0.21639 0.0
C239 C 0.68933 0.75635 0.19471 0.0
C240 C 0.2281 0.74471 0.72569 0.0
C241 C 0.24398 0.75927 0.70067 0.0
C242 C 0.20838 0.72669 0.75365 0.0
C243 C 0.18989 0.70894 0.77502 0.0
C244 C 0.69968 0.71496 0.72864 0.0
C245 C 0.6841 0.7024 0.70264 0.0
C246 C 0.71941 0.73292 0.75665 0.0
C247 C 0.73832 0.75218 0.7767 0.0
C248 C 0.69853 0.24925 0.74051 0.0
C249 C 0.68314 0.26235 0.76644 0.0
C250 C 0.71819 0.23102 0.71256 0.0
C251 C 0.73699 0.21176 0.69242 0.0
C252 C 0.20899 0.23339 0.71256 0.0
C253 C 0.19059 0.25305 0.69228 0.0
C254 C 0.22838 0.215 0.74062 0.0
C255 C 0.24403 0.20224 0.76649 0.0
C256 C 0.09653 0.96691 0.24876 0.0
C257 C 0.09901 0.93562 0.26817 0.0
C258 C 0.09655 0.00108 0.22331 0.0
C259 C 0.09908 0.03191 0.2034 0.0
C260 C 0.83235 0.4669 0.22039 0.0
C261 C 0.82951 0.43563 0.201 0.0
C262 C 0.83243 0.5011 0.24582 0.0
C263 C 0.82969 0.53195 0.26569 0.0
C264 C 0.22676 0.16931 0.97098 0.0
C265 C 0.24706 0.16578 0.94627 0.0
C266 C 0.20158 0.16918 -0.00114 0.0
C267 C 0.18116 0.16545 0.02344 0.0
C268 C 0.7277 0.29706 -0.00243 0.0
C269 C 0.74779 0.30044 0.02247 0.0
C270 C 0.70254 0.29725 0.96966 0.0
C271 C 0.68193 0.30093 0.94526 0.0
C272 C 0.22583 0.80018 0.49929 0.0
C273 C 0.24638 0.80344 0.52379 0.0
C274 C 0.20059 0.79993 0.47146 0.0
C275 C 0.18032 0.80281 0.44667 0.0
C276 C 0.69996 0.66674 0.49731 0.0
C277 C 0.67989 0.66376 0.52226 0.0
C278 C 0.72518 0.66638 0.46946 0.0
C279 C 0.74588 0.66286 0.44512 0.0
C280 C 0.94815 0.24373 0.10942 0.0
C281 C 0.92149 0.26264 0.11546 0.0
C282 C -0.02151 0.21824 0.10948 0.0
C283 C 0.00556 0.20028 0.11552 0.0
C284 C 0.94973 0.71761 0.36021 0.0
C285 C 0.92263 0.69971 0.35418 0.0
C286 C -0.01991 0.74308 0.36006 0.0
C287 C 0.00672 0.76199 0.35382 0.0
C288 C 0.47951 0.72072 0.60995 0.0
C289 C 0.50634 0.70223 0.61604 0.0
C290 C 0.44913 0.74613 0.60981 0.0
C291 C 0.42219 0.76443 0.61574 0.0
C292 C 0.82983 0.00037 0.72247 0.0
C293 C 0.8267 0.03022 0.70153 0.0
C294 C 0.82976 0.96573 0.74766 0.0
C295 C 0.82653 0.93584 0.76854 0.0
C296 C 0.10137 0.49892 0.74859 0.0
C297 C 0.10373 0.52889 0.76956 0.0
C298 C 0.10137 0.4645 0.72318 0.0
C299 C 0.1038 0.43498 0.70179 0.0
C300 C 0.70274 0.79905 -0.00042 0.0
C301 C 0.68215 0.79801 0.02415 0.0
C302 C 0.72795 0.79908 0.97176 0.0
C303 C 0.74786 0.79807 0.94659 0.0
C304 C 0.20013 0.66427 0.97175 0.0
C305 C 0.18014 0.66579 0.94668 0.0
C306 C 0.22537 0.66406 -0.00049 0.0
C307 C 0.2459 0.66537 0.02412 0.0
C308 C 0.70141 0.16353 0.47082 0.0
C309 C 0.68112 0.16507 0.446 0.0
C310 C 0.72664 0.16345 0.49863 0.0
C311 C 0.74688 0.16487 0.5235 0.0
C312 C 0.19983 0.30029 0.49736 0.0
C313 C 0.17992 0.29915 0.52253 0.0
C314 C 0.22506 0.30016 0.46957 0.0
C315 C 0.24567 0.29885 0.44503 0.0
C316 C -0.02 0.72319 0.86369 0.0
C317 C 0.00829 0.70704 0.86171 0.0
C318 C 0.94861 0.74656 0.86376 0.0
C319 C 0.92005 0.76197 0.86184 0.0
C320 C -0.02027 0.24399 0.60759 0.0
C321 C 0.00815 0.2599 0.6091 0.0
C322 C 0.94834 0.2206 0.60752 0.0
C323 C 0.91986 0.20488 0.60897 0.0
C324 C 0.47969 0.22151 0.36177 0.0
C325 C 0.50808 0.20556 0.36032 0.0
C326 C 0.44836 0.24497 0.3618 0.0
C327 C 0.41992 0.26076 0.36037 0.0
C328 C 0.59571 0.49857 0.72045 0.0
C329 C 0.59846 0.52987 0.70108 0.0
C330 C 0.59566 0.46436 0.74588 0.0
C331 C 0.59829 0.43352 0.76578 0.0
C332 C 0.33361 -0.00086 0.74862 0.0
C333 C 0.33059 0.03015 0.76829 0.0
C334 C 0.3336 0.96524 0.7229 0.0
C335 C 0.33055 0.93446 0.70299 0.0
C336 C 0.44816 0.22143 0.86215 0.0
C337 C 0.42145 0.2028 0.85564 0.0
C338 C 0.47863 0.24675 0.86221 0.0
C339 C 0.50562 0.26478 0.8558 0.0
C340 C 0.32591 0.49957 0.22162 0.0
C341 C 0.32366 0.52936 0.2005 0.0
C342 C 0.32589 0.4652 0.24704 0.0
C343 C 0.32358 0.43557 0.26831 0.0
C344 C 0.60137 -0.00127 0.24843 0.0
C345 C 0.60381 0.02868 0.26939 0.0
C346 C 0.6014 0.9643 0.22303 0.0
C347 C 0.60376 0.93478 0.20163 0.0
C348 C 0.47909 0.74636 0.10469 0.0
C349 C 0.5076 0.76189 0.10667 0.0
C350 C 0.44775 0.72289 0.10485 0.0
C351 C 0.41947 0.70672 0.10701 0.0
loop_
_geom_bond_atom_site_label_1
_geom_bond_atom_site_label_2
_geom_bond_distance
_geom_bond_site_symmetry_2
_ccdc_geom_bond_type
C0 O1 1.306 . S
C0 O3 1.160 . S
O1 C0 1.306 . S
O1 Cd2 2.228 . S
Cd2 O1 2.228 . S
Cd2 O6 2.273 . S
Cd2 O10 2.277 . S
O3 C0 1.160 . S
O3 Cd4 2.203 . S
Cd4 O3 2.203 . S
Cd4 O6 2.411 . S
Cd4 O7 2.333 . S
Cd4 O8 2.352 . S
Cd4 O12 2.277 . S
Cd4 O13 2.356 . S
C5 O10 1.209 . S
C5 O12 1.226 . S
O6 Cd2 2.273 . S
O6 Cd4 2.411 . S
O6 C9 1.320 . S
O7 Cd4 2.333 . S
O7 C9 1.214 . S
O8 Cd4 2.352 . S
O8 C11 1.258 . S
C9 O6 1.320 . S
C9 O7 1.214 . S
O10 Cd2 2.277 . S
O10 C5 1.209 . S
C11 O8 1.258 . S
C11 O13 1.282 . S
O12 Cd4 2.277 . S
O12 C5 1.226 . S
O13 Cd4 2.356 . S
O13 C11 1.282 . S
C14 O15 1.306 . S
C14 O17 1.160 . S
O15 C14 1.306 . S
O15 Cd16 2.228 . S
Cd16 O15 2.228 . S
Cd16 O20 2.273 . S
Cd16 O24 2.277 . S
O17 C14 1.160 . S
O17 Cd18 2.203 . S
Cd18 O17 2.203 . S
Cd18 O20 2.411 . S
Cd18 O21 2.333 . S
Cd18 O22 2.352 . S
Cd18 O26 2.277 . S
Cd18 O27 2.356 . S
C19 O24 1.209 . S
C19 O26 1.226 . S
O20 Cd16 2.273 . S
O20 Cd18 2.411 . S
O20 C23 1.320 . S
O21 Cd18 2.333 . S
O21 C23 1.214 . S
O22 Cd18 2.352 . S
O22 C25 1.258 . S
C23 O20 1.320 . S
C23 O21 1.214 . S
O24 Cd16 2.277 . S
O24 C19 1.209 . S
C25 O22 1.258 . S
C25 O27 1.282 . S
O26 Cd18 2.277 . S
O26 C19 1.226 . S
O27 Cd18 2.356 . S
O27 C25 1.282 . S
C28 O29 1.306 . S
C28 O31 1.160 . S
O29 C28 1.306 . S
O29 Cd30 2.228 . S
Cd30 O29 2.228 . S
Cd30 O34 2.273 . S
Cd30 O38 2.277 . S
O31 C28 1.160 . S
O31 Cd32 2.203 . S
Cd32 O31 2.203 . S
Cd32 O34 2.411 . S
Cd32 O35 2.333 . S
Cd32 O36 2.352 . S
Cd32 O40 2.277 . S
Cd32 O41 2.356 . S
C33 O38 1.209 . S
C33 O40 1.226 . S
O34 Cd30 2.273 . S
O34 Cd32 2.411 . S
O34 C37 1.320 . S
O35 Cd32 2.333 . S
O35 C37 1.214 . S
O36 Cd32 2.352 . S
O36 C39 1.258 . S
C37 O34 1.320 . S
C37 O35 1.214 . S
O38 Cd30 2.277 . S
O38 C33 1.209 . S
C39 O36 1.258 . S
C39 O41 1.282 . S
O40 Cd32 2.277 . S
O40 C33 1.226 . S
O41 Cd32 2.356 . S
O41 C39 1.282 . S
C42 O43 1.306 . S
C42 O45 1.160 . S
O43 C42 1.306 . S
O43 Cd44 2.228 . S
Cd44 O43 2.228 . S
Cd44 O48 2.273 . S
Cd44 O52 2.277 . S
O45 C42 1.160 . S
O45 Cd46 2.203 . S
Cd46 O45 2.203 . S
Cd46 O48 2.411 . S
Cd46 O49 2.333 . S
Cd46 O50 2.352 . S
Cd46 O54 2.277 . S
Cd46 O55 2.356 . S
C47 O52 1.209 . S
C47 O54 1.226 . S
O48 Cd44 2.273 . S
O48 Cd46 2.411 . S
O48 C51 1.320 . S
O49 Cd46 2.333 . S
O49 C51 1.214 . S
O50 Cd46 2.352 . S
O50 C53 1.258 . S
C51 O48 1.320 . S
C51 O49 1.214 . S
O52 Cd44 2.277 . S
O52 C47 1.209 . S
C53 O50 1.258 . S
C53 O55 1.282 . S
O54 Cd46 2.277 . S
O54 C47 1.226 . S
O55 Cd46 2.356 . S
O55 C53 1.282 . S
C56 O57 1.306 . S
C56 O59 1.160 . S
O57 C56 1.306 . S
O57 Cd58 2.228 . S
Cd58 O57 2.228 . S
Cd58 O62 2.273 . S
Cd58 O66 2.277 . S
O59 C56 1.160 . S
O59 Cd60 2.203 . S
Cd60 O59 2.203 . S
Cd60 O62 2.411 . S
Cd60 O63 2.333 . S
Cd60 O64 2.352 . S
Cd60 O68 2.277 . S
Cd60 O69 2.356 . S
C61 O66 1.209 . S
C61 O68 1.226 . S
O62 Cd58 2.273 . S
O62 Cd60 2.411 . S
O62 C65 1.320 . S
O63 Cd60 2.333 . S
O63 C65 1.214 . S
O64 Cd60 2.352 . S
O64 C67 1.258 . S
C65 O62 1.320 . S
C65 O63 1.214 . S
O66 Cd58 2.277 . S
O66 C61 1.209 . S
C67 O64 1.258 . S
C67 O69 1.282 . S
O68 Cd60 2.277 . S
O68 C61 1.226 . S
O69 Cd60 2.356 . S
O69 C67 1.282 . S
C70 O71 1.306 . S
C70 O73 1.160 . S
O71 C70 1.306 . S
O71 Cd72 2.228 . S
Cd72 O71 2.228 . S
Cd72 O76 2.273 . S
Cd72 O80 2.277 . S
O73 C70 1.160 . S
O73 Cd74 2.203 . S
Cd74 O73 2.203 . S
Cd74 O76 2.411 . S
Cd74 O77 2.333 . S
Cd74 O78 2.352 . S
Cd74 O82 2.277 . S
Cd74 O83 2.356 . S
C75 O80 1.209 . S
C75 O82 1.226 . S
O76 Cd72 2.273 . S
O76 Cd74 2.411 . S
O76 C79 1.320 . S
O77 Cd74 2.333 . S
O77 C79 1.214 . S
O78 Cd74 2.352 . S
O78 C81 1.258 . S
C79 O76 1.320 . S
C79 O77 1.214 . S
O80 Cd72 2.277 . S
O80 C75 1.209 . S
C81 O78 1.258 . S
C81 O83 1.282 . S
O82 Cd74 2.277 . S
O82 C75 1.226 . S
O83 Cd74 2.356 . S
O83 C81 1.282 . S
C84 O85 1.306 . S
C84 O87 1.160 . S
O85 C84 1.306 . S
O85 Cd86 2.228 . S
Cd86 O85 2.228 . S
Cd86 O90 2.273 . S
Cd86 O94 2.277 . S
O87 C84 1.160 . S
O87 Cd88 2.203 . S
Cd88 O87 2.203 . S
Cd88 O90 2.411 . S
Cd88 O91 2.333 . S
Cd88 O92 2.352 . S
Cd88 O96 2.277 . S
Cd88 O97 2.356 . S
C89 O94 1.209 . S
C89 O96 1.226 . S
O90 Cd86 2.273 . S
O90 Cd88 2.411 . S
O90 C93 1.320 . S
O91 Cd88 2.333 . S
O91 C93 1.214 . S
O92 Cd88 2.352 . S
O92 C95 1.258 . S
C93 O90 1.320 . S
C93 O91 1.214 . S
O94 Cd86 2.277 . S
O94 C89 1.209 . S
C95 O92 1.258 . S
C95 O97 1.282 . S
O96 Cd88 2.277 . S
O96 C89 1.226 . S
O97 Cd88 2.356 . S
O97 C95 1.282 . S
C98 O99 1.306 . S
C98 O101 1.160 . S
O99 C98 1.306 . S
O99 Cd100 2.228 . S
Cd100 O99 2.228 . S
Cd100 O104 2.273 . S
Cd100 O108 2.277 . S
O101 C98 1.160 . S
O101 Cd102 2.203 . S
Cd102 O101 2.203 . S
Cd102 O104 2.411 . S
Cd102 O105 2.333 . S
Cd102 O106 2.352 . S
Cd102 O110 2.277 . S
Cd102 O111 2.356 . S
C103 O108 1.209 . S
C103 O110 1.226 . S
O104 Cd100 2.273 . S
O104 Cd102 2.411 . S
O104 C107 1.320 . S
O105 Cd102 2.333 . S
O105 C107 1.214 . S
O106 Cd102 2.352 . S
O106 C109 1.258 . S
C107 O104 1.320 . S
C107 O105 1.214 . S
O108 Cd100 2.277 . S
O108 C103 1.209 . S
C109 O106 1.258 . S
C109 O111 1.282 . S
O110 Cd102 2.277 . S
O110 C103 1.226 . S
O111 Cd102 2.356 . S
O111 C109 1.282 . S
C112 O113 1.306 . S
C112 O115 1.160 . S
O113 C112 1.306 . S
O113 Cd114 2.228 . S
Cd114 O113 2.228 . S
Cd114 O118 2.273 . S
Cd114 O122 2.277 . S
O115 C112 1.160 . S
O115 Cd116 2.203 . S
Cd116 O115 2.203 . S
Cd116 O118 2.411 . S
Cd116 O119 2.333 . S
Cd116 O120 2.352 . S
Cd116 O124 2.277 . S
Cd116 O125 2.356 . S
C117 O122 1.209 . S
C117 O124 1.226 . S
O118 Cd114 2.273 . S
O118 Cd116 2.411 . S
O118 C121 1.320 . S
O119 Cd116 2.333 . S
O119 C121 1.214 . S
O120 Cd116 2.352 . S
O120 C123 1.258 . S
C121 O118 1.320 . S
C121 O119 1.214 . S
O122 Cd114 2.277 . S
O122 C117 1.209 . S
C123 O120 1.258 . S
C123 O125 1.282 . S
O124 Cd116 2.277 . S
O124 C117 1.226 . S
O125 Cd116 2.356 . S
O125 C123 1.282 . S
C126 O127 1.306 . S
C126 O129 1.160 . S
O127 C126 1.306 . S
O127 Cd128 2.228 . S
Cd128 O127 2.228 . S
Cd128 O132 2.273 . S
Cd128 O136 2.277 . S
O129 C126 1.160 . S
O129 Cd130 2.203 . S
Cd130 O129 2.203 . S
Cd130 O132 2.411 . S
Cd130 O133 2.333 . S
Cd130 O134 2.352 . S
Cd130 O138 2.277 . S
Cd130 O139 2.356 . S
C131 O136 1.209 . S
C131 O138 1.226 . S
O132 Cd128 2.273 . S
O132 Cd130 2.411 . S
O132 C135 1.320 . S
O133 Cd130 2.333 . S
O133 C135 1.214 . S
O134 Cd130 2.352 . S
O134 C137 1.258 . S
C135 O132 1.320 . S
C135 O133 1.214 . S
O136 Cd128 2.277 . S
O136 C131 1.209 . S
C137 O134 1.258 . S
C137 O139 1.282 . S
O138 Cd130 2.277 . S
O138 C131 1.226 . S
O139 Cd130 2.356 . S
O139 C137 1.282 . S
C140 O141 1.306 . S
C140 O143 1.160 . S
O141 C140 1.306 . S
O141 Cd142 2.228 . S
Cd142 O141 2.228 . S
Cd142 O146 2.273 . S
Cd142 O150 2.277 . S
O143 C140 1.160 . S
O143 Cd144 2.203 . S
Cd144 O143 2.203 . S
Cd144 O146 2.411 . S
Cd144 O147 2.333 . S
Cd144 O148 2.352 . S
Cd144 O152 2.277 . S
Cd144 O153 2.356 . S
C145 O150 1.209 . S
C145 O152 1.226 . S
O146 Cd142 2.273 . S
O146 Cd144 2.411 . S
O146 C149 1.320 . S
O147 Cd144 2.333 . S
O147 C149 1.214 . S
O148 Cd144 2.352 . S
O148 C151 1.258 . S
C149 O146 1.320 . S
C149 O147 1.214 . S
O150 Cd142 2.277 . S
O150 C145 1.209 . S
C151 O148 1.258 . S
C151 O153 1.282 . S
O152 Cd144 2.277 . S
O152 C145 1.226 . S
O153 Cd144 2.356 . S
O153 C151 1.282 . S
C154 O155 1.306 . S
C154 O157 1.160 . S
O155 C154 1.306 . S
O155 Cd156 2.228 . S
Cd156 O155 2.228 . S
Cd156 O160 2.273 . S
Cd156 O164 2.277 . S
O157 C154 1.160 . S
O157 Cd158 2.203 . S
Cd158 O157 2.203 . S
Cd158 O160 2.411 . S
Cd158 O161 2.333 . S
Cd158 O162 2.352 . S
Cd158 O166 2.277 . S
Cd158 O167 2.356 . S
C159 O164 1.209 . S
C159 O166 1.226 . S
O160 Cd156 2.273 . S
O160 Cd158 2.411 . S
O160 C163 1.320 . S
O161 Cd158 2.333 . S
O161 C163 1.214 . S
O162 Cd158 2.352 . S
O162 C165 1.258 . S
C163 O160 1.320 . S
C163 O161 1.214 . S
O164 Cd156 2.277 . S
O164 C159 1.209 . S
C165 O162 1.258 . S
C165 O167 1.282 . S
O166 Cd158 2.277 . S
O166 C159 1.226 . S
O167 Cd158 2.356 . S
O167 C165 1.282 . S
C168 O169 1.306 . S
C168 O171 1.160 . S
O169 C168 1.306 . S
O169 Cd170 2.228 . S
Cd170 O169 2.228 . S
Cd170 O174 2.273 . S
Cd170 O178 2.277 . S
O171 C168 1.160 . S
O171 Cd172 2.203 . S
Cd172 O171 2.203 . S
Cd172 O174 2.411 . S
Cd172 O175 2.333 . S
Cd172 O176 2.352 . S
Cd172 O180 2.277 . S
Cd172 O181 2.356 . S
C173 O178 1.209 . S
C173 O180 1.226 . S
O174 Cd170 2.273 . S
O174 Cd172 2.411 . S
O174 C177 1.320 . S
O175 Cd172 2.333 . S
O175 C177 1.214 . S
O176 Cd172 2.352 . S
O176 C179 1.258 . S
C177 O174 1.320 . S
C177 O175 1.214 . S
O178 Cd170 2.277 . S
O178 C173 1.209 . S
C179 O176 1.258 . S
C179 O181 1.282 . S
O180 Cd172 2.277 . S
O180 C173 1.226 . S
O181 Cd172 2.356 . S
O181 C179 1.282 . S
C182 O183 1.306 . S
C182 O185 1.160 . S
O183 C182 1.306 . S
O183 Cd184 2.228 . S
Cd184 O183 2.228 . S
Cd184 O188 2.273 . S
Cd184 O192 2.277 . S
O185 C182 1.160 . S
O185 Cd186 2.203 . S
Cd186 O185 2.203 . S
Cd186 O188 2.411 . S
Cd186 O189 2.333 . S
Cd186 O190 2.352 . S
Cd186 O194 2.277 . S
Cd186 O195 2.356 . S
C187 O192 1.209 . S
C187 O194 1.226 . S
O188 Cd184 2.273 . S
O188 Cd186 2.411 . S
O188 C191 1.320 . S
O189 Cd186 2.333 . S
O189 C191 1.214 . S
O190 Cd186 2.352 . S
O190 C193 1.258 . S
C191 O188 1.320 . S
C191 O189 1.214 . S
O192 Cd184 2.277 . S
O192 C187 1.209 . S
C193 O190 1.258 . S
C193 O195 1.282 . S
O194 Cd186 2.277 . S
O194 C187 1.226 . S
O195 Cd186 2.356 . S
O195 C193 1.282 . S
C196 O197 1.306 . S
C196 O199 1.160 . S
O197 C196 1.306 . S
O197 Cd198 2.228 . S
Cd198 O197 2.228 . S
Cd198 O202 2.273 . S
Cd198 O206 2.277 . S
O199 C196 1.160 . S
O199 Cd200 2.203 . S
Cd200 O199 2.203 . S
Cd200 O202 2.411 . S
Cd200 O203 2.333 . S
Cd200 O204 2.352 . S
Cd200 O208 2.277 . S
Cd200 O209 2.356 . S
C201 O206 1.209 . S
C201 O208 1.226 . S
O202 Cd198 2.273 . S
O202 Cd200 2.411 . S
O202 C205 1.320 . S
O203 Cd200 2.333 . S
O203 C205 1.214 . S
O204 Cd200 2.352 . S
O204 C207 1.258 . S
C205 O202 1.320 . S
C205 O203 1.214 . S
O206 Cd198 2.277 . S
O206 C201 1.209 . S
C207 O204 1.258 . S
C207 O209 1.282 . S
O208 Cd200 2.277 . S
O208 C201 1.226 . S
O209 Cd200 2.356 . S
O209 C207 1.282 . S
C210 O211 1.306 . S
C210 O213 1.160 . S
O211 C210 1.306 . S
O211 Cd212 2.228 . S
Cd212 O211 2.228 . S
Cd212 O216 2.273 . S
Cd212 O220 2.277 . S
O213 C210 1.160 . S
O213 Cd214 2.203 . S
Cd214 O213 2.203 . S
Cd214 O216 2.411 . S
Cd214 O217 2.333 . S
Cd214 O218 2.352 . S
Cd214 O222 2.277 . S
Cd214 O223 2.356 . S
C215 O220 1.209 . S
C215 O222 1.226 . S
O216 Cd212 2.273 . S
O216 Cd214 2.411 . S
O216 C219 1.320 . S
O217 Cd214 2.333 . S
O217 C219 1.214 . S
O218 Cd214 2.352 . S
O218 C221 1.258 . S
C219 O216 1.320 . S
C219 O217 1.214 . S
O220 Cd212 2.277 . S
O220 C215 1.209 . S
C221 O218 1.258 . S
C221 O223 1.282 . S
O222 Cd214 2.277 . S
O222 C215 1.226 . S
O223 Cd214 2.356 . S
O223 C221 1.282 . S
C224 C225 1.170 . S
C224 C226 1.380 . S
C225 C224 1.170 . S
C226 C224 1.380 . S
C226 C227 1.170 . S
C227 C226 1.170 . S
C228 C229 1.170 . S
C228 C230 1.380 . S
C229 C228 1.170 . S
C230 C228 1.380 . S
C230 C231 1.170 . S
C231 C230 1.170 . S
C232 C233 1.170 . S
C232 C234 1.380 . S
C233 C232 1.170 . S
C234 C232 1.380 . S
C234 C235 1.170 . S
C235 C234 1.170 . S
C236 C237 1.170 . S
C236 C238 1.380 . S
C237 C236 1.170 . S
C238 C236 1.380 . S
C238 C239 1.170 . S
C239 C238 1.170 . S
C240 C241 1.170 . S
C240 C242 1.380 . S
C241 C240 1.170 . S
C242 C240 1.380 . S
C242 C243 1.170 . S
C243 C242 1.170 . S
C244 C245 1.170 . S
C244 C246 1.380 . S
C245 C244 1.170 . S
C246 C244 1.380 . S
C246 C247 1.170 . S
C247 C246 1.170 . S
C248 C249 1.170 . S
C248 C250 1.380 . S
C249 C248 1.170 . S
C250 C248 1.380 . S
C250 C251 1.170 . S
C251 C250 1.170 . S
C252 C253 1.170 . S
C252 C254 1.380 . S
C253 C252 1.170 . S
C254 C252 1.380 . S
C254 C255 1.170 . S
C255 C254 1.170 . S
C256 C257 1.170 . S
C256 C258 1.380 1_565 S
C257 C256 1.170 . S
C258 C256 1.380 1_545 S
C258 C259 1.170 . S
C259 C258 1.170 . S
C260 C261 1.170 . S
C260 C262 1.380 . S
C261 C260 1.170 . S
C262 C260 1.380 . S
C262 C263 1.170 . S
C263 C262 1.170 . S
C264 C265 1.170 . S
C264 C266 1.380 1_556 S
C265 C264 1.170 . S
C266 C264 1.380 1_554 S
C266 C267 1.170 . S
C267 C266 1.170 . S
C268 C269 1.170 . S
C268 C270 1.380 1_554 S
C269 C268 1.170 . S
C270 C268 1.380 1_556 S
C270 C271 1.170 . S
C271 C270 1.170 . S
C272 C273 1.170 . S
C272 C274 1.380 . S
C273 C272 1.170 . S
C274 C272 1.380 . S
C274 C275 1.170 . S
C275 C274 1.170 . S
C276 C277 1.170 . S
C276 C278 1.380 . S
C277 C276 1.170 . S
C278 C276 1.380 . S
C278 C279 1.170 . S
C279 C278 1.170 . S
C280 C281 1.170 . S
C280 C282 1.380 1_655 S
C281 C280 1.170 . S
C282 C280 1.380 1_455 S
C282 C283 1.170 . S
C283 C282 1.170 . S
C284 C285 1.170 . S
C284 C286 1.380 1_655 S
C285 C284 1.170 . S
C286 C284 1.380 1_455 S
C286 C287 1.170 . S
C287 C286 1.170 . S
C288 C289 1.170 . S
C288 C290 1.380 . S
C289 C288 1.170 . S
C290 C288 1.380 . S
C290 C291 1.170 . S
C291 C290 1.170 . S
C292 C293 1.170 . S
C292 C294 1.380 1_545 S
C293 C292 1.170 . S
C294 C292 1.380 1_565 S
C294 C295 1.170 . S
C295 C294 1.170 . S
C296 C297 1.170 . S
C296 C298 1.380 . S
C297 C296 1.170 . S
C298 C296 1.380 . S
C298 C299 1.170 . S
C299 C298 1.170 . S
C300 C301 1.170 . S
C300 C302 1.380 1_554 S
C301 C300 1.170 . S
C302 C300 1.380 1_556 S
C302 C303 1.170 . S
C303 C302 1.170 . S
C304 C305 1.170 . S
C304 C306 1.380 1_556 S
C305 C304 1.170 . S
C306 C304 1.380 1_554 S
C306 C307 1.170 . S
C307 C306 1.170 . S
C308 C309 1.170 . S
C308 C310 1.380 . S
C309 C308 1.170 . S
C310 C308 1.380 . S
C310 C311 1.170 . S
C311 C310 1.170 . S
C312 C313 1.170 . S
C312 C314 1.380 . S
C313 C312 1.170 . S
C314 C312 1.380 . S
C314 C315 1.170 . S
C315 C314 1.170 . S
C316 C317 1.170 . S
C316 C318 1.380 1_455 S
C317 C316 1.170 . S
C318 C316 1.380 1_655 S
C318 C319 1.170 . S
C319 C318 1.170 . S
C320 C321 1.170 . S
C320 C322 1.380 1_455 S
C321 C320 1.170 . S
C322 C320 1.380 1_655 S
C322 C323 1.170 . S
C323 C322 1.170 . S
C324 C325 1.170 . S
C324 C326 1.380 . S
C325 C324 1.170 . S
C326 C324 1.380 . S
C326 C327 1.170 . S
C327 C326 1.170 . S
C328 C329 1.170 . S
C328 C330 1.380 . S
C329 C328 1.170 . S
C330 C328 1.380 . S
C330 C331 1.170 . S
C331 C330 1.170 . S
C332 C333 1.170 . S
C332 C334 1.380 1_545 S
C333 C332 1.170 . S
C334 C332 1.380 1_565 S
C334 C335 1.170 . S
C335 C334 1.170 . S
C336 C337 1.170 . S
C336 C338 1.380 . S
C337 C336 1.170 . S
C338 C336 1.380 . S
C338 C339 1.170 . S
C339 C338 1.170 . S
C340 C341 1.170 . S
C340 C342 1.380 . S
C341 C340 1.170 . S
C342 C340 1.380 . S
C342 C343 1.170 . S
C343 C342 1.170 . S
C344 C345 1.170 . S
C344 C346 1.380 1_545 S
C345 C344 1.170 . S
C346 C344 1.380 1_565 S
C346 C347 1.170 . S
C347 C346 1.170 . S
C348 C349 1.170 . S
C348 C350 1.380 . S
C349 C348 1.170 . S
C350 C348 1.380 . S
C350 C351 1.170 . S
C351 C350 1.170 . S
C225 C9 1.182 . S
C227 C191 1.186 . S
C229 C23 1.188 . S
C231 C135 1.167 . S
C233 C205 1.183 . S
C235 C37 1.189 . S
C237 C51 1.195 . S
C239 C219 1.156 . S
C241 C65 1.193 . S
C243 C93 1.158 . S
C245 C149 1.182 . S
C247 C79 1.191 . S
C249 C163 1.182 . S
C251 C107 1.186 . S
C253 C121 1.190 . S
C255 C177 1.182 . S
C257 C33 1.622 . S
C259 C5 1.621 . S
C261 C19 1.625 . S
C263 C47 1.624 . S
C265 C179 1.712 . S
C267 C11 1.707 . S
C269 C25 1.720 . S
C271 C165 1.697 . S
C273 C67 1.698 . S
C275 C39 1.712 . S
C277 C151 1.719 . S
C279 C53 1.693 . S
C281 C14 1.428 . S
C283 C0 1.436 . S
C285 C42 1.441 . S
C287 C28 1.431 . S
C289 C140 1.428 . S
C291 C56 1.431 . S
C293 C109 1.570 . S
C295 C81 1.571 . S
C297 C95 1.560 . S
C299 C123 1.555 . S
C301 C215 1.774 . S
C303 C75 1.791 . S
C305 C89 1.784 . S
C307 C201 1.768 . S
C309 C131 1.773 . S
C311 C103 1.774 . S
C313 C117 1.789 . S
C315 C187 1.769 . S
C317 C84 1.482 . S
C319 C70 1.508 . S
C321 C112 1.491 . S
C323 C98 1.498 . S
C325 C126 1.492 . S
C327 C182 1.497 . S
C329 C145 1.625 . S
C331 C159 1.624 . S
C333 C173 1.629 . S
C335 C61 1.628 . S
C337 C168 1.454 . S
C339 C154 1.460 . S
C341 C207 1.556 . S
C343 C193 1.554 . S
C345 C137 1.560 . S
C347 C221 1.555 . S
C349 C210 1.509 . S
C351 C196 1.483 . S
