# Generated by pormake.
# Topology zfr, (5)-cn, num edge types: 1
# Building blocks:
#     Node 0, Type 0, BuildingBlock: XOMCOT_clean_sbu_0, # of connection points: 5
#     Node 1, Type 0, BuildingBlock: XOMCOT_clean_sbu_0, # of connection points: 5
#     Node 2, Type 0, BuildingBlock: XOMCOT_clean_sbu_0, # of connection points: 5
#     Node 3, Type 0, BuildingBlock: XOMCOT_clean_sbu_0, # of connection points: 5
#     Node 4, Type 0, BuildingBlock: XOMCOT_clean_sbu_0, # of connection points: 5
#     Node 5, Type 0, BuildingBlock: XOMCOT_clean_sbu_0, # of connection points: 5
#     Node 6, Type 0, BuildingBlock: XOMCOT_clean_sbu_0, # of connection points: 5
#     Node 7, Type 0, BuildingBlock: XOMCOT_clean_sbu_0, # of connection points: 5
#     Edge 8, Type (0, 0), BuildingBlock: KIFKEQ_clean_linker_1, # of connection points: 2
#     Edge 9, Type (0, 0), BuildingBlock: KIFKEQ_clean_linker_1, # of connection points: 2
#     Edge 10, Type (0, 0), BuildingBlock: KIFKEQ_clean_linker_1, # of connection points: 2
#     Edge 11, Type (0, 0), BuildingBlock: KIFKEQ_clean_linker_1, # of connection points: 2
#     Edge 12, Type (0, 0), BuildingBlock: KIFKEQ_clean_linker_1, # of connection points: 2
#     Edge 13, Type (0, 0), BuildingBlock: KIFKEQ_clean_linker_1, # of connection points: 2
#     Edge 14, Type (0, 0), BuildingBlock: KIFKEQ_clean_linker_1, # of connection points: 2
#     Edge 15, Type (0, 0), BuildingBlock: KIFKEQ_clean_linker_1, # of connection points: 2
#     Edge 16, Type (0, 0), BuildingBlock: KIFKEQ_clean_linker_1, # of connection points: 2
#     Edge 17, Type (0, 0), BuildingBlock: KIFKEQ_clean_linker_1, # of connection points: 2
#     Edge 18, Type (0, 0), BuildingBlock: KIFKEQ_clean_linker_1, # of connection points: 2
#     Edge 19, Type (0, 0), BuildingBlock: KIFKEQ_clean_linker_1, # of connection points: 2
#     Edge 20, Type (0, 0), BuildingBlock: KIFKEQ_clean_linker_1, # of connection points: 2
#     Edge 21, Type (0, 0), BuildingBlock: KIFKEQ_clean_linker_1, # of connection points: 2
#     Edge 22, Type (0, 0), BuildingBlock: KIFKEQ_clean_linker_1, # of connection points: 2
#     Edge 23, Type (0, 0), BuildingBlock: KIFKEQ_clean_linker_1, # of connection points: 2
#     Edge 24, Type (0, 0), BuildingBlock: KIFKEQ_clean_linker_1, # of connection points: 2
#     Edge 25, Type (0, 0), BuildingBlock: KIFKEQ_clean_linker_1, # of connection points: 2
#     Edge 26, Type (0, 0), BuildingBlock: KIFKEQ_clean_linker_1, # of connection points: 2
#     Edge 27, Type (0, 0), BuildingBlock: KIFKEQ_clean_linker_1, # of connection points: 2
# Relax obj value: 0.174
# Max RMSD: 0.171
# Mean RMSD: 0.171
data_MOF--net-zfr--node1-XOMCOT_clean_sbu_0--edge1-KIFKEQ_clean_linker_1
_symmetry_space_group_name_H-M    P1
_symmetry_Int_Tables_number       1
_symmetry_cell_setting            triclinic
loop_
_symmetry_equiv_pos_as_xyz
'x, y, z'
_cell_length_a     52.08658
_cell_length_b     52.072427
_cell_length_c     17.666707
_cell_angle_alpha  89.99402
_cell_angle_beta   89.998771
_cell_angle_gamma 90.008273
loop_
_atom_site_label
_atom_site_type_symbol
_atom_site_fract_x
_atom_site_fract_y
_atom_site_fract_z
_atom_type_partial_charge
Co0 Co 0.12805 0.31526 0.22518 0.0
C1 C 0.1223 0.31619 0.39019 0.0
C2 C 0.09059 0.29671 0.33795 0.0
C3 C 0.088 0.29495 0.41555 0.0
N4 N 0.11208 0.31008 0.32252 0.0
N5 N 0.10811 0.30704 0.44817 0.0
H6 H 0.14014 0.3266 0.39658 0.0
H7 H 0.07827 0.28797 0.29596 0.0
C8 C 0.08519 0.33304 0.12802 0.0
O9 O 0.10037 0.35224 0.10977 0.0
N10 N 0.14453 0.31925 0.12639 0.0
C11 C 0.16886 0.32651 0.11067 0.0
C12 C 0.17281 0.32518 0.03371 0.0
C13 C 0.13485 0.31179 0.05881 0.0
N14 N 0.15127 0.31611 0.00108 0.0
C15 C 0.1488 0.36635 0.241 0.0
C16 C 0.10289 0.39004 0.27674 0.0
C17 C 0.12489 0.40515 0.2669 0.0
C18 C 0.14821 0.3929 0.25094 0.0
C19 C 0.10437 0.36351 0.26604 0.0
N20 N 0.1268 0.35218 0.24337 0.0
H21 H 0.16708 0.35727 0.23294 0.0
H22 H 0.08723 0.35212 0.27392 0.0
H23 H 0.18342 0.33125 0.15177 0.0
H24 H 0.11614 0.30321 0.05175 0.0
O25 O 0.16084 0.30849 0.27029 0.0
O26 O 0.1354 0.27879 0.22031 0.0
O27 O 0.09304 0.31583 0.1745 0.0
C28 C 0.15676 0.28442 0.25521 0.0
H29 H 0.07318 0.28449 0.44543 0.0
H30 H 0.19044 0.32989 0.0044 0.0
H31 H 0.08456 0.39864 0.2906 0.0
H32 H 0.16592 0.40372 0.24681 0.0
Co33 Co 0.687 0.12363 0.48963 0.0
C34 C 0.68684 0.11812 0.65709 0.0
C35 C 0.70578 0.08664 0.6033 0.0
C36 C 0.70839 0.08392 0.68037 0.0
N37 N 0.69143 0.10764 0.58845 0.0
N38 N 0.69645 0.10381 0.71412 0.0
H39 H 0.67891 0.13703 0.66544 0.0
H40 H 0.71499 0.07476 0.56115 0.0
C41 C 0.67697 0.06849 0.45687 0.0
O42 O 0.66194 0.06843 0.51665 0.0
N43 N 0.68375 0.13965 0.3919 0.0
C44 C 0.66993 0.16068 0.37449 0.0
C45 C 0.67056 0.164 0.29714 0.0
C46 C 0.69283 0.13065 0.32574 0.0
N47 N 0.68484 0.14499 0.26657 0.0
C48 C 0.63657 0.13327 0.55212 0.0
C49 C 0.60938 0.11019 0.43629 0.0
C50 C 0.59589 0.12087 0.49714 0.0
C51 C 0.60979 0.13265 0.55538 0.0
C52 C 0.63617 0.11095 0.43578 0.0
N53 N 0.64958 0.1215 0.49472 0.0
H54 H 0.64662 0.14415 0.59429 0.0
H55 H 0.64611 0.10334 0.38707 0.0
H56 H 0.65929 0.1721 0.41485 0.0
H57 H 0.70464 0.11366 0.32107 0.0
O58 O 0.69169 0.15692 0.53493 0.0
O59 O 0.72309 0.1322 0.4913 0.0
O60 O 0.68906 0.08894 0.43854 0.0
C61 C 0.71616 0.1535 0.52424 0.0
H62 H 0.71899 0.06891 0.70893 0.0
H63 H 0.66026 0.17858 0.26577 0.0
H64 H 0.59934 0.10133 0.38937 0.0
H65 H 0.60002 0.14211 0.60178 0.0
Co66 Co 0.87275 0.68718 0.74923 0.0
C67 C 0.87886 0.68606 0.91627 0.0
C68 C 0.91021 0.70541 0.86309 0.0
C69 C 0.91263 0.70813 0.94035 0.0
N70 N 0.88939 0.69085 0.84769 0.0
N71 N 0.89275 0.69605 0.9737 0.0
H72 H 0.86039 0.67719 0.92422 0.0
H73 H 0.92187 0.71506 0.82126 0.0
C74 C 0.92809 0.67951 0.70897 0.0
O75 O 0.93034 0.66389 0.76705 0.0
N76 N 0.85593 0.6845 0.65211 0.0
C77 C 0.83451 0.67109 0.63629 0.0
C78 C 0.83061 0.67156 0.55917 0.0
C79 C 0.86457 0.69322 0.58496 0.0
N80 N 0.84969 0.68531 0.52672 0.0
C81 C 0.86441 0.63606 0.80768 0.0
C82 C 0.88765 0.61037 0.6892 0.0
C83 C 0.87745 0.59613 0.74931 0.0
C84 C 0.86557 0.60928 0.80887 0.0
C85 C 0.88638 0.63715 0.69081 0.0
N86 N 0.87573 0.64981 0.75102 0.0
H87 H 0.85346 0.6455 0.85088 0.0
H88 H 0.89358 0.64768 0.64262 0.0
H89 H 0.82309 0.66087 0.67763 0.0
H90 H 0.88197 0.70424 0.57874 0.0
O91 O 0.83978 0.69089 0.79743 0.0
O92 O 0.86368 0.72306 0.75448 0.0
O93 O 0.90675 0.6907 0.69562 0.0
C94 C 0.84286 0.71553 0.78876 0.0
H95 H 0.9269 0.71962 0.96926 0.0
H96 H 0.81516 0.66201 0.52951 0.0
H97 H 0.89653 0.60091 0.64129 0.0
H98 H 0.85645 0.59892 0.85475 0.0
Co99 Co 0.30813 0.87011 0.95887 0.0
C100 C 0.30953 0.87655 0.12607 0.0
C101 C 0.28861 0.90677 0.07224 0.0
C102 C 0.28623 0.90958 0.14936 0.0
N103 N 0.30392 0.88648 0.05729 0.0
N104 N 0.29937 0.89046 0.18318 0.0
H105 H 0.31858 0.85818 0.1346 0.0
H106 H 0.27853 0.91795 0.03015 0.0
C107 C 0.31552 0.92568 0.92195 0.0
O108 O 0.33053 0.9276 0.98151 0.0
N109 N 0.31137 0.85371 0.86152 0.0
C110 C 0.32625 0.83343 0.84411 0.0
C111 C 0.32585 0.83008 0.76674 0.0
C112 C 0.30184 0.86219 0.79524 0.0
N113 N 0.31063 0.84833 0.736 0.0
C114 C 0.35877 0.86042 0.01692 0.0
C115 C 0.38521 0.88584 0.90383 0.0
C116 C 0.39908 0.87368 0.96148 0.0
C117 C 0.38552 0.86074 0.01831 0.0
C118 C 0.35843 0.88491 0.90441 0.0
N119 N 0.34542 0.87323 0.96227 0.0
H120 H 0.34898 0.84885 0.05806 0.0
H121 H 0.34822 0.89295 0.85679 0.0
H122 H 0.33761 0.82269 0.88442 0.0
H123 H 0.28921 0.87857 0.79052 0.0
O124 O 0.30464 0.837 0.00592 0.0
O125 O 0.2723 0.86061 0.96291 0.0
O126 O 0.30467 0.90433 0.90621 0.0
C127 C 0.28003 0.83979 0.99693 0.0
H128 H 0.27487 0.92401 0.17794 0.0
H129 H 0.33703 0.81615 0.73548 0.0
H130 H 0.39498 0.8952 0.85725 0.0
H131 H 0.39549 0.85063 0.06313 0.0
Co132 Co 0.12682 0.68958 0.28867 0.0
C133 C 0.12034 0.68819 0.12151 0.0
C134 C 0.09018 0.70921 0.17526 0.0
C135 C 0.0874 0.71159 0.09811 0.0
N136 N 0.11042 0.69384 0.19028 0.0
N137 N 0.10647 0.69838 0.06434 0.0
H138 H 0.13868 0.67908 0.11304 0.0
H139 H 0.07904 0.71936 0.21729 0.0
C140 C 0.07126 0.68281 0.32649 0.0
O141 O 0.06907 0.66771 0.26722 0.0
N142 N 0.14329 0.68629 0.38595 0.0
C143 C 0.1634 0.67118 0.40335 0.0
C144 C 0.16677 0.67155 0.48073 0.0
C145 C 0.13493 0.69592 0.45225 0.0
N146 N 0.14869 0.68697 0.51149 0.0
C147 C 0.13529 0.63867 0.23035 0.0
C148 C 0.10966 0.61286 0.34427 0.0
C149 C 0.12072 0.59868 0.28528 0.0
C150 C 0.13393 0.61194 0.2283 0.0
C151 C 0.11154 0.63959 0.34414 0.0
N152 N 0.1232 0.65232 0.28575 0.0
H153 H 0.14703 0.64817 0.18903 0.0
H154 H 0.10398 0.64999 0.39207 0.0
H155 H 0.17399 0.65968 0.36305 0.0
H156 H 0.1187 0.70872 0.457 0.0
O157 O 0.15993 0.69267 0.24123 0.0
O158 O 0.13667 0.72529 0.2842 0.0
O159 O 0.09273 0.69351 0.34161 0.0
C160 C 0.15736 0.71734 0.24996 0.0
H161 H 0.073 0.72299 0.06948 0.0
H162 H 0.18056 0.6602 0.512 0.0
H163 H 0.0997 0.60343 0.39035 0.0
H164 H 0.14388 0.60173 0.18368 0.0
Co165 Co 0.31077 0.12595 0.5054 0.0
C166 C 0.3119 0.1199 0.33832 0.0
C167 C 0.2928 0.0884 0.39154 0.0
C168 C 0.2901 0.08594 0.31429 0.0
N169 N 0.30719 0.10933 0.40691 0.0
N170 N 0.30201 0.10592 0.28093 0.0
H171 H 0.32062 0.13844 0.33031 0.0
H172 H 0.28325 0.07666 0.4334 0.0
C173 C 0.3191 0.07064 0.54496 0.0
O174 O 0.3347 0.06869 0.48677 0.0
N175 N 0.31335 0.14273 0.60259 0.0
C176 C 0.32642 0.16437 0.61838 0.0
C177 C 0.32591 0.16825 0.6955 0.0
C178 C 0.30482 0.13392 0.66976 0.0
N179 N 0.31249 0.14893 0.72796 0.0
C180 C 0.36163 0.13531 0.44699 0.0
C181 C 0.38788 0.11199 0.56416 0.0
C182 C 0.40197 0.12283 0.50451 0.0
C183 C 0.3884 0.13471 0.44556 0.0
C184 C 0.36108 0.11279 0.56287 0.0
N185 N 0.34816 0.12346 0.50324 0.0
H186 H 0.35193 0.14617 0.40409 0.0
H187 H 0.35075 0.10531 0.61106 0.0
H188 H 0.33639 0.17598 0.577 0.0
H189 H 0.29411 0.11632 0.67601 0.0
O190 O 0.30667 0.15891 0.45744 0.0
O191 O 0.27477 0.13466 0.50041 0.0
O192 O 0.3077 0.09185 0.55877 0.0
C193 C 0.28208 0.15559 0.46619 0.0
H194 H 0.27872 0.07157 0.28539 0.0
H195 H 0.33519 0.18386 0.72516 0.0
H196 H 0.39742 0.10354 0.61258 0.0
H197 H 0.39831 0.1437 0.39865 0.0
Co198 Co 0.8733 0.31093 0.76443 0.0
C199 C 0.87873 0.3111 0.59698 0.0
C200 C 0.90973 0.2913 0.65053 0.0
C201 C 0.9121 0.28833 0.57343 0.0
N202 N 0.88922 0.30635 0.66552 0.0
N203 N 0.89246 0.30071 0.53991 0.0
H204 H 0.86045 0.3203 0.58875 0.0
H205 H 0.92129 0.2817 0.69272 0.0
C206 C 0.92859 0.32057 0.796 0.0
O207 O 0.9287 0.33536 0.73569 0.0
N208 N 0.85727 0.31437 0.86219 0.0
C209 C 0.83527 0.32683 0.87791 0.0
C210 C 0.83153 0.32642 0.95506 0.0
C211 C 0.86652 0.30638 0.92936 0.0
N212 N 0.85128 0.31366 0.9874 0.0
C213 C 0.86291 0.36129 0.70284 0.0
C214 C 0.88737 0.38863 0.81573 0.0
C215 C 0.87613 0.40217 0.75565 0.0
C216 C 0.86357 0.38807 0.69903 0.0
C217 C 0.88648 0.36184 0.81681 0.0
N218 N 0.87538 0.34835 0.75898 0.0
H219 H 0.8515 0.35121 0.662 0.0
H220 H 0.89438 0.35197 0.86528 0.0
H221 H 0.82317 0.3361 0.83635 0.0
H222 H 0.88451 0.29628 0.93573 0.0
O223 O 0.84004 0.30611 0.71906 0.0
O224 O 0.86477 0.27481 0.76324 0.0
O225 O 0.90803 0.30885 0.81523 0.0
C226 C 0.8435 0.28165 0.73001 0.0
H227 H 0.92621 0.27658 0.54472 0.0
H228 H 0.81559 0.33511 0.98482 0.0
H229 H 0.89626 0.3986 0.8627 0.0
H230 H 0.85413 0.39755 0.65213 0.0
Co231 Co 0.68241 0.86896 0.02821 0.0
C232 C 0.68148 0.87468 0.86321 0.0
C233 C 0.70078 0.9065 0.91544 0.0
C234 C 0.70252 0.9091 0.83785 0.0
N235 N 0.68754 0.88493 0.93087 0.0
N236 N 0.69054 0.88893 0.80524 0.0
H237 H 0.67116 0.85677 0.85683 0.0
H238 H 0.70945 0.91887 0.95744 0.0
C239 C 0.66441 0.91184 0.12506 0.0
O240 O 0.64526 0.89661 0.14344 0.0
N241 N 0.67845 0.8525 0.12704 0.0
C242 C 0.67129 0.82813 0.14281 0.0
C243 C 0.67261 0.82422 0.21977 0.0
C244 C 0.68582 0.86225 0.19461 0.0
N245 N 0.68156 0.84582 0.25237 0.0
C246 C 0.63161 0.84778 0.01162 0.0
C247 C 0.60743 0.89346 0.97609 0.0
C248 C 0.59259 0.87123 0.98527 0.0
C249 C 0.6051 0.84805 0.00112 0.0
C250 C 0.63395 0.89229 0.98729 0.0
N251 N 0.6455 0.86996 0.00984 0.0
H252 H 0.6409 0.82959 0.01947 0.0
H253 H 0.64515 0.90957 0.97971 0.0
H254 H 0.66664 0.81354 0.10175 0.0
H255 H 0.6943 0.88101 0.20165 0.0
O256 O 0.68938 0.83618 0.9833 0.0
O257 O 0.71891 0.86181 0.03332 0.0
O258 O 0.68164 0.90401 0.07866 0.0
C259 C 0.71341 0.84038 0.99857 0.0
H260 H 0.71288 0.924 0.80797 0.0
H261 H 0.66798 0.80657 0.24911 0.0
H262 H 0.59862 0.91169 0.96222 0.0
H263 H 0.59452 0.83018 0.00465 0.0
H264 H 0.22961 0.15395 0.47445 0.0
H265 H 0.29254 0.19851 0.38414 0.0
H266 H 0.19908 0.1843 0.4191 0.0
H267 H 0.26217 0.22841 0.32787 0.0
H268 H 0.20276 0.29251 0.32282 0.0
H269 H 0.23244 0.26084 0.37248 0.0
H270 H 0.18255 0.19989 0.29562 0.0
H271 H 0.1523 0.23191 0.24663 0.0
C272 C 0.2369 0.1702 0.44279 0.0
C273 C 0.26346 0.17401 0.43429 0.0
C274 C 0.21943 0.18743 0.41053 0.0
C275 C 0.22821 0.20879 0.36926 0.0
C276 C 0.25479 0.21237 0.36028 0.0
C277 C 0.2722 0.19521 0.39248 0.0
C278 C 0.19811 0.27236 0.31599 0.0
C279 C 0.1752 0.26469 0.28064 0.0
C280 C 0.21522 0.25419 0.34421 0.0
C281 C 0.2099 0.22785 0.3378 0.0
C282 C 0.18705 0.22008 0.30196 0.0
C283 C 0.16985 0.23837 0.27342 0.0
H284 H 0.79879 0.29119 0.65556 0.0
H285 H 0.84601 0.22923 0.73963 0.0
H286 H 0.76856 0.26019 0.60393 0.0
H287 H 0.81539 0.19807 0.68894 0.0
H288 H 0.7686 0.15092 0.51631 0.0
H289 H 0.79959 0.18178 0.56669 0.0
H290 H 0.73722 0.22906 0.64774 0.0
H291 H 0.70639 0.19859 0.59641 0.0
C292 C 0.80261 0.27093 0.6636 0.0
C293 C 0.82473 0.26264 0.70193 0.0
C294 C 0.78522 0.25315 0.63418 0.0
C295 C 0.78954 0.22666 0.6424 0.0
C296 C 0.81167 0.21835 0.68092 0.0
C297 C 0.82909 0.23618 0.71047 0.0
C298 C 0.76156 0.16799 0.54452 0.0
C299 C 0.73508 0.17239 0.55211 0.0
C300 C 0.77929 0.18555 0.57389 0.0
C301 C 0.77086 0.20787 0.61124 0.0
C302 C 0.74435 0.21224 0.61842 0.0
C303 C 0.72667 0.19472 0.5892 0.0
H304 H 0.8001 0.70477 0.87132 0.0
H305 H 0.84407 0.76798 0.78018 0.0
H306 H 0.77002 0.73498 0.92766 0.0
H307 H 0.81357 0.79833 0.83557 0.0
H308 H 0.76587 0.8451 0.00721 0.0
H309 H 0.79803 0.81488 0.95889 0.0
H310 H 0.73735 0.76448 0.88312 0.0
H311 H 0.70554 0.79414 0.93212 0.0
C312 C 0.80323 0.72513 0.86283 0.0
C313 C 0.82431 0.734 0.82076 0.0
C314 C 0.78598 0.74245 0.89507 0.0
C315 C 0.78937 0.76905 0.88588 0.0
C316 C 0.8106 0.77796 0.84434 0.0
C317 C 0.82791 0.76058 0.81205 0.0
C318 C 0.75951 0.82744 0.98081 0.0
C319 C 0.73322 0.82196 0.97364 0.0
C320 C 0.77787 0.81026 0.95267 0.0
C321 C 0.77022 0.78728 0.91728 0.0
C322 C 0.74391 0.7818 0.91103 0.0
C323 C 0.72566 0.79891 0.93885 0.0
H324 H 0.20064 0.70546 0.17128 0.0
H325 H 0.15586 0.76985 0.25109 0.0
H326 H 0.2298 0.73479 0.10726 0.0
H327 H 0.18545 0.79934 0.18804 0.0
H328 H 0.22752 0.84182 0.99684 0.0
H329 H 0.19789 0.81216 0.05918 0.0
H330 H 0.26218 0.76673 0.1364 0.0
H331 H 0.29162 0.79593 0.07311 0.0
C332 C 0.19719 0.72592 0.1759 0.0
C333 C 0.17601 0.73537 0.21642 0.0
C334 C 0.21395 0.74273 0.1393 0.0
C335 C 0.20991 0.76939 0.14242 0.0
C336 C 0.18886 0.77888 0.18372 0.0
C337 C 0.17207 0.76202 0.22042 0.0
C338 C 0.23526 0.82535 0.02654 0.0
C339 C 0.26186 0.82114 0.02985 0.0
C340 C 0.21833 0.80852 0.06282 0.0
C341 C 0.22771 0.78715 0.10295 0.0
C342 C 0.25432 0.78283 0.10525 0.0
C343 C 0.27119 0.79962 0.0691 0.0
H344 H 0.07513 0.30547 0.56686 0.0
H345 H 0.15564 0.31008 0.51012 0.0
H346 H 0.08602 0.30672 0.70125 0.0
H347 H 0.16652 0.31122 0.64389 0.0
H348 H 0.17366 0.34213 0.88581 0.0
H349 H 0.16321 0.33948 0.75189 0.0
H350 H 0.10638 0.28132 0.80021 0.0
H351 H 0.11684 0.28397 0.93438 0.0
C352 C 0.09513 0.30659 0.58303 0.0
C353 C 0.11446 0.30788 0.52763 0.0
C354 C 0.1014 0.30724 0.66004 0.0
C355 C 0.12716 0.30912 0.68341 0.0
C356 C 0.14647 0.31023 0.62794 0.0
C357 C 0.14021 0.30963 0.55109 0.0
C358 C 0.15922 0.32848 0.86793 0.0
C359 C 0.14612 0.31328 0.92119 0.0
C360 C 0.15318 0.327 0.79099 0.0
C361 C 0.1339 0.31024 0.76522 0.0
C362 C 0.12103 0.29476 0.81826 0.0
C363 C 0.12707 0.29625 0.89529 0.0
H364 H 0.68223 0.17874 0.14977 0.0
H365 H 0.69536 0.09873 0.20242 0.0
H366 H 0.68595 0.16902 0.01517 0.0
H367 H 0.69945 0.08922 0.06833 0.0
H368 H 0.72944 0.08762 0.82366 0.0
H369 H 0.72792 0.0981 0.95801 0.0
H370 H 0.66045 0.14451 0.92012 0.0
H371 H 0.66163 0.13376 0.78616 0.0
C372 C 0.68589 0.15911 0.13284 0.0
C373 C 0.68845 0.13956 0.18722 0.0
C374 C 0.68805 0.15356 0.05573 0.0
C375 C 0.69295 0.12835 0.0313 0.0
C376 C 0.69601 0.10889 0.08553 0.0
C377 C 0.69372 0.1144 0.16256 0.0
C378 C 0.71414 0.09985 0.84388 0.0
C379 C 0.69569 0.10987 0.79377 0.0
C380 C 0.71333 0.10592 0.9209 0.0
C381 C 0.69414 0.12222 0.94945 0.0
C382 C 0.67573 0.13225 0.89952 0.0
C383 C 0.67644 0.12608 0.82268 0.0
H384 H 0.92535 0.70066 0.0927 0.0
H385 H 0.84514 0.69168 0.03601 0.0
H386 H 0.9144 0.69949 0.22711 0.0
H387 H 0.83437 0.69015 0.1697 0.0
H388 H 0.83077 0.65664 0.41048 0.0
H389 H 0.84096 0.66056 0.27698 0.0
H390 H 0.89109 0.72446 0.32576 0.0
H391 H 0.88064 0.72093 0.4597 0.0
C392 C 0.9054 0.69863 0.10873 0.0
C393 C 0.88622 0.69599 0.05321 0.0
C394 C 0.89912 0.69797 0.18576 0.0
C395 C 0.87353 0.69457 0.20905 0.0
C396 C 0.85433 0.69232 0.15362 0.0
C397 C 0.86056 0.69309 0.07676 0.0
C398 C 0.84364 0.67183 0.39319 0.0
C399 C 0.85482 0.68845 0.44672 0.0
C400 C 0.84954 0.67402 0.3163 0.0
C401 C 0.86688 0.69279 0.29074 0.0
C402 C 0.87793 0.70956 0.34382 0.0
C403 C 0.8719 0.7075 0.42078 0.0
H404 H 0.26531 0.90468 0.29232 0.0
H405 H 0.33562 0.86238 0.25582 0.0
H406 H 0.2669 0.89391 0.42638 0.0
H407 H 0.33694 0.85135 0.3897 0.0
H408 H 0.31622 0.81527 0.61817 0.0
H409 H 0.31288 0.82526 0.48366 0.0
H410 H 0.29378 0.90378 0.53829 0.0
H411 H 0.29742 0.89401 0.67217 0.0
C412 C 0.28121 0.89326 0.31272 0.0
C413 C 0.30033 0.8844 0.2629 0.0
C414 C 0.28206 0.88702 0.38965 0.0
C415 C 0.30199 0.87169 0.41853 0.0
C416 C 0.3211 0.86283 0.3689 0.0
C417 C 0.32033 0.86918 0.2921 0.0
C418 C 0.3114 0.83468 0.60163 0.0
C419 C 0.30714 0.85379 0.65649 0.0
C420 C 0.30948 0.8404 0.5245 0.0
C421 C 0.30312 0.86532 0.50039 0.0
C422 C 0.29838 0.88431 0.55506 0.0
C423 C 0.30042 0.87864 0.63209 0.0
H424 H 0.13447 0.66202 0.99183 0.0
H425 H 0.09236 0.73244 0.95505 0.0
H426 H 0.14552 0.66063 0.85798 0.0
H427 H 0.10316 0.73079 0.82102 0.0
H428 H 0.10308 0.70038 0.57523 0.0
H429 H 0.09329 0.70403 0.7091 0.0
H430 H 0.17167 0.68449 0.76391 0.0
H431 H 0.18167 0.68113 0.62939 0.0
C432 C 0.12772 0.67733 0.95549 0.0
C433 C 0.11254 0.69737 0.98462 0.0
C434 C 0.13408 0.67652 0.8787 0.0
C435 C 0.12528 0.69564 0.82898 0.0
C436 C 0.11 0.71561 0.8578 0.0
C437 C 0.10374 0.7165 0.93472 0.0
C438 C 0.11842 0.69729 0.61536 0.0
C439 C 0.14323 0.69045 0.59101 0.0
C440 C 0.11274 0.69933 0.69238 0.0
C441 C 0.13167 0.69447 0.74711 0.0
C442 C 0.15656 0.68798 0.72304 0.0
C443 C 0.16229 0.68606 0.64591 0.0
H444 H 0.29782 0.07323 0.16203 0.0
H445 H 0.30587 0.15356 0.21857 0.0
H446 H 0.29893 0.08415 0.0276 0.0
H447 H 0.30733 0.16432 0.08485 0.0
H448 H 0.34091 0.16821 0.84418 0.0
H449 H 0.33705 0.15803 0.97772 0.0
H450 H 0.27374 0.10716 0.92887 0.0
H451 H 0.27722 0.1176 0.7949 0.0
C452 C 0.29964 0.0932 0.14595 0.0
C453 C 0.30204 0.11242 0.20142 0.0
C454 C 0.30027 0.09946 0.06892 0.0
C455 C 0.30338 0.12509 0.0456 0.0
C456 C 0.30538 0.14434 0.10097 0.0
C457 C 0.30465 0.13811 0.17784 0.0
C458 C 0.32586 0.15518 0.86148 0.0
C459 C 0.3094 0.14379 0.80795 0.0
C460 C 0.3237 0.14928 0.93838 0.0
C461 C 0.30512 0.13174 0.96391 0.0
C462 C 0.2885 0.12048 0.91082 0.0
C463 C 0.29053 0.1265 0.83386 0.0
H464 H 0.9254 0.2963 0.42197 0.0
H465 H 0.84507 0.30541 0.47691 0.0
H466 H 0.9149 0.29809 0.28737 0.0
H467 H 0.83471 0.30751 0.34292 0.0
H468 H 0.83236 0.34223 0.10336 0.0
H469 H 0.84203 0.33771 0.23723 0.0
H470 H 0.8917 0.2735 0.18779 0.0
H471 H 0.88178 0.2777 0.05359 0.0
C472 C 0.90552 0.29847 0.40544 0.0
C473 C 0.88616 0.30098 0.46041 0.0
C474 C 0.8995 0.29949 0.32836 0.0
C475 C 0.87399 0.30309 0.30463 0.0
C476 C 0.8546 0.30518 0.3595 0.0
C477 C 0.86059 0.30407 0.43643 0.0
C478 C 0.84502 0.32688 0.12076 0.0
C479 C 0.85626 0.31035 0.06721 0.0
C480 C 0.85061 0.32434 0.19769 0.0
C481 C 0.86765 0.30528 0.22301 0.0
C482 C 0.87876 0.2886 0.16981 0.0
C483 C 0.87307 0.29105 0.09283 0.0
H484 H 0.71355 0.88039 0.31905 0.0
H485 H 0.65562 0.82333 0.3676 0.0
H486 H 0.71617 0.89084 0.45323 0.0
H487 H 0.65824 0.83377 0.50153 0.0
H488 H 0.68771 0.84139 0.74321 0.0
H489 H 0.68658 0.83053 0.60943 0.0
H490 H 0.69066 0.9111 0.55222 0.0
H491 H 0.69189 0.92196 0.68663 0.0
C492 C 0.70131 0.87011 0.35814 0.0
C493 C 0.68436 0.85099 0.33225 0.0
C494 C 0.70279 0.87615 0.43516 0.0
C495 C 0.68736 0.86321 0.48819 0.0
C496 C 0.67068 0.84387 0.46243 0.0
C497 C 0.66921 0.83783 0.38549 0.0
C498 C 0.68807 0.85684 0.70228 0.0
C499 C 0.6897 0.88259 0.72578 0.0
C500 C 0.68747 0.85059 0.62542 0.0
C501 C 0.68847 0.86993 0.57 0.0
C502 C 0.69023 0.8957 0.59341 0.0
C503 C 0.69087 0.90195 0.67042 0.0
H504 H 0.05369 0.29066 0.11921 0.0
H505 H 0.06097 0.36935 0.0445 0.0
H506 H 0.01546 0.28568 0.03947 0.0
H507 H 0.02294 0.36453 0.96666 0.0
H508 H 0.97595 0.34031 0.76669 0.0
H509 H 0.01292 0.34176 0.85043 0.0
H510 H 0.97037 0.30038 0.02126 0.0
H511 H 0.93331 0.29844 0.9365 0.0
C512 C 0.04695 0.30695 0.08669 0.0
C513 C 0.06051 0.3303 0.08748 0.0
C514 C 0.02509 0.30411 0.04111 0.0
C515 C 0.01646 0.32458 0.9957 0.0
C516 C 0.02946 0.34818 0.99934 0.0
C517 C 0.0512 0.35098 0.04445 0.0
C518 C 0.97446 0.33136 0.82186 0.0
C519 C 0.95158 0.31947 0.84509 0.0
C520 C 0.99563 0.33232 0.87009 0.0
C521 C 0.99444 0.32154 0.94299 0.0
C522 C 0.9719 0.30881 0.96539 0.0
C523 C 0.95065 0.30778 0.91688 0.0
H524 H 0.70665 0.94353 0.13307 0.0
H525 H 0.6281 0.93603 0.20868 0.0
H526 H 0.71158 0.98187 0.21241 0.0
H527 H 0.63288 0.97418 0.28611 0.0
H528 H 0.65736 0.02108 0.48606 0.0
H529 H 0.65582 0.98419 0.40206 0.0
H530 H 0.69677 0.02698 0.23086 0.0
H531 H 0.69882 0.06399 0.31596 0.0
C532 C 0.69038 0.95025 0.1657 0.0
C533 C 0.66709 0.93659 0.16531 0.0
C534 C 0.69319 0.97218 0.21103 0.0
C535 C 0.67276 0.98077 0.25659 0.0
C536 C 0.6492 0.96769 0.25329 0.0
C537 C 0.64643 0.94588 0.20844 0.0
C538 C 0.6662 0.02265 0.43074 0.0
C539 C 0.67802 0.04556 0.40753 0.0
C540 C 0.66518 0.00152 0.38236 0.0
C541 C 0.67581 0.00279 0.30931 0.0
C542 C 0.68846 0.02539 0.28687 0.0
C543 C 0.68956 0.0466 0.33555 0.0
H544 H 0.07262 0.70272 0.46941 0.0
H545 H 0.02141 0.66765 0.30712 0.0
H546 H 0.03827 0.70314 0.56314 0.0
H547 H 0.98689 0.66851 0.40085 0.0
H548 H 0.9263 0.69997 0.56666 0.0
H549 H 0.96072 0.70228 0.47383 0.0
H550 H 0.01293 0.66797 0.63435 0.0
H551 H 0.9783 0.66532 0.72764 0.0
C552 C 0.05401 0.69527 0.4535 0.0
C553 C 0.0498 0.68501 0.38092 0.0
C554 C 0.03439 0.69543 0.50735 0.0
C555 C 0.01001 0.68576 0.48925 0.0
C556 C 0.00552 0.67619 0.41606 0.0
C557 C 0.02528 0.67565 0.36255 0.0
C558 C 0.94508 0.69303 0.58259 0.0
C559 C 0.9495 0.68238 0.65461 0.0
C560 C 0.96477 0.69425 0.52914 0.0
C561 C 0.98941 0.68523 0.5469 0.0
C562 C 0.99409 0.67518 0.61944 0.0
C563 C 0.97426 0.67359 0.67265 0.0
H564 H 0.33023 0.97554 0.94389 0.0
H565 H 0.29652 0.92477 0.77795 0.0
H566 H 0.32954 0.01051 0.85156 0.0
H567 H 0.2962 0.95959 0.68566 0.0
H568 H 0.33382 0.02065 0.52491 0.0
H569 H 0.33122 0.98559 0.61678 0.0
H570 H 0.29605 0.03681 0.77846 0.0
H571 H 0.29835 0.0717 0.687 0.0
C572 C 0.32256 0.97186 0.88793 0.0
C573 C 0.31351 0.94735 0.86816 0.0
C574 C 0.32211 0.99188 0.83523 0.0
C575 C 0.31293 0.98766 0.76146 0.0
C576 C 0.3036 0.96327 0.74193 0.0
C577 C 0.30368 0.94338 0.79495 0.0
C578 C 0.32539 0.02439 0.57986 0.0
C579 C 0.31635 0.049 0.59862 0.0
C580 C 0.32381 0.00431 0.63226 0.0
C581 C 0.31352 0.00857 0.70471 0.0
C582 C 0.30428 0.03308 0.72322 0.0
C583 C 0.3055 0.05302 0.67056 0.0
H584 H 0.14748 0.43984 0.17289 0.0
H585 H 0.09921 0.43452 0.37114 0.0
H586 H 0.14538 0.48651 0.17908 0.0
H587 H 0.0966 0.4814 0.37626 0.0
H588 H 0.12564 0.56553 0.40503 0.0
H589 H 0.12544 0.51867 0.40186 0.0
H590 H 0.11305 0.52061 0.16021 0.0
H591 H 0.11296 0.5674 0.16331 0.0
C592 C 0.1365 0.44867 0.21799 0.0
C593 C 0.12358 0.43353 0.27168 0.0
C594 C 0.13505 0.47539 0.221 0.0
C595 C 0.12072 0.48759 0.27793 0.0
C596 C 0.1079 0.4725 0.33199 0.0
C597 C 0.10922 0.4457 0.3287 0.0
C598 C 0.12248 0.55596 0.3514 0.0
C599 C 0.11944 0.5702 0.28433 0.0
C600 C 0.1224 0.52913 0.34963 0.0
C601 C 0.11939 0.516 0.28073 0.0
C602 C 0.11585 0.53022 0.21396 0.0
C603 C 0.11583 0.55701 0.21575 0.0
H604 H 0.56313 0.1334 0.3824 0.0
H605 H 0.56455 0.10798 0.61503 0.0
H606 H 0.5162 0.13357 0.38501 0.0
H607 H 0.51755 0.10822 0.6177 0.0
H608 H 0.4339 0.08438 0.55415 0.0
H609 H 0.48076 0.08381 0.5539 0.0
H610 H 0.48176 0.15935 0.45353 0.0
H611 H 0.43503 0.16047 0.45599 0.0
C612 C 0.55338 0.1277 0.4339 0.0
C613 C 0.56744 0.12064 0.4985 0.0
C614 C 0.52657 0.128 0.43558 0.0
C615 C 0.51328 0.12094 0.50159 0.0
C616 C 0.52732 0.1136 0.56595 0.0
C617 C 0.55416 0.11363 0.56459 0.0
C618 C 0.44406 0.10104 0.53295 0.0
C619 C 0.43057 0.12243 0.50477 0.0
C620 C 0.4709 0.10064 0.53261 0.0
C621 C 0.48484 0.12148 0.50334 0.0
C622 C 0.47146 0.14286 0.47537 0.0
C623 C 0.44466 0.14342 0.47651 0.0
H624 H 0.89154 0.56427 0.86456 0.0
H625 H 0.86498 0.56392 0.63303 0.0
H626 H 0.89176 0.51727 0.86496 0.0
H627 H 0.86524 0.51692 0.63341 0.0
H628 H 0.83852 0.43524 0.70648 0.0
H629 H 0.83986 0.48198 0.70245 0.0
H630 H 0.91603 0.48096 0.79842 0.0
H631 H 0.91525 0.43412 0.80009 0.0
C632 C 0.88577 0.55411 0.81382 0.0
C633 C 0.87825 0.56769 0.74877 0.0
C634 C 0.88607 0.52727 0.81388 0.0
C635 C 0.8785 0.51351 0.74923 0.0
C636 C 0.87101 0.52708 0.68414 0.0
C637 C 0.87105 0.55392 0.68374 0.0
C638 C 0.85577 0.44486 0.72556 0.0
C639 C 0.87682 0.43077 0.75341 0.0
C640 C 0.85646 0.47167 0.72349 0.0
C641 C 0.87804 0.48505 0.75011 0.0
C642 C 0.89904 0.47111 0.77827 0.0
C643 C 0.89851 0.44427 0.77948 0.0
H644 H 0.55796 0.84796 0.0778 0.0
H645 H 0.56318 0.89664 0.88041 0.0
H646 H 0.51137 0.84892 0.06951 0.0
H647 H 0.51635 0.89741 0.87149 0.0
H648 H 0.43153 0.91385 0.93324 0.0
H649 H 0.47845 0.91366 0.9368 0.0
H650 H 0.47749 0.83266 0.99006 0.0
H651 H 0.43077 0.83297 0.9874 0.0
C652 C 0.54912 0.85865 0.0321 0.0
C653 C 0.56422 0.87209 0.97947 0.0
C654 C 0.52241 0.85918 0.02728 0.0
C655 C 0.51014 0.87309 0.9695 0.0
C656 C 0.52522 0.88673 0.91713 0.0
C657 C 0.55202 0.88627 0.92215 0.0
C658 C 0.44142 0.896 0.94516 0.0
C659 C 0.42752 0.87349 0.96082 0.0
C660 C 0.46826 0.89587 0.94704 0.0
C661 C 0.48169 0.87319 0.9643 0.0
C662 C 0.46773 0.85058 0.97823 0.0
C663 C 0.44096 0.85074 0.97668 0.0
loop_
_geom_bond_atom_site_label_1
_geom_bond_atom_site_label_2
_geom_bond_distance
_geom_bond_site_symmetry_2
_ccdc_geom_bond_type
Co0 N4 2.148 . S
Co0 N10 2.128 . S
Co0 N20 2.194 . S
Co0 O25 2.351 . S
Co0 O26 2.155 . S
Co0 O27 2.096 . S
C1 N4 1.301 . S
C1 N5 1.328 . S
C1 H6 0.930 . S
C2 C3 1.333 . S
C2 N4 1.317 . S
C2 H7 0.930 . S
C3 C2 1.333 . S
C3 N5 1.350 . S
C3 H29 0.931 . S
N4 Co0 2.148 . S
N4 C1 1.301 . S
N4 C2 1.317 . S
N5 C1 1.328 . S
N5 C3 1.350 . S
H6 C1 0.930 . S
H7 C2 0.930 . S
C8 O9 1.224 . S
C8 O27 1.247 . S
O9 C8 1.224 . S
N10 Co0 2.128 . S
N10 C11 1.355 . S
N10 C13 1.311 . S
C11 N10 1.355 . S
C11 C12 1.363 1_554 S
C11 H23 0.929 . S
C12 C11 1.363 1_556 S
C12 N14 1.375 . S
C12 H30 0.931 . S
C13 N10 1.311 . S
C13 N14 1.347 1_554 S
C13 H24 0.929 . S
N14 C12 1.375 . S
N14 C13 1.347 1_556 S
C15 C18 1.365 . S
C15 N20 1.328 . S
C15 H21 0.929 . S
C16 C17 1.362 . S
C16 C19 1.378 . S
C16 H31 0.929 . S
C17 C16 1.362 . S
C17 C18 1.366 . S
C18 C15 1.365 . S
C18 C17 1.366 . S
C18 H32 0.930 . S
C19 C16 1.378 . S
C19 N20 1.315 . S
C19 H22 0.930 . S
N20 Co0 2.194 . S
N20 C15 1.328 . S
N20 C19 1.315 . S
H21 C15 0.929 . S
H22 C19 0.930 . S
H23 C11 0.929 . S
H24 C13 0.929 . S
O25 Co0 2.351 . S
O25 C28 1.244 . S
O26 Co0 2.155 . S
O26 C28 1.240 . S
O27 Co0 2.096 . S
O27 C8 1.247 . S
C28 O25 1.244 . S
C28 O26 1.240 . S
H29 C3 0.931 . S
H30 C12 0.931 . S
H31 C16 0.929 . S
H32 C18 0.930 . S
Co33 N37 2.148 . S
Co33 N43 2.128 . S
Co33 N53 2.194 . S
Co33 O58 2.351 . S
Co33 O59 2.155 . S
Co33 O60 2.096 . S
C34 N37 1.301 . S
C34 N38 1.328 . S
C34 H39 0.930 . S
C35 C36 1.333 . S
C35 N37 1.317 . S
C35 H40 0.930 . S
C36 C35 1.333 . S
C36 N38 1.350 . S
C36 H62 0.931 . S
N37 Co33 2.148 . S
N37 C34 1.301 . S
N37 C35 1.317 . S
N38 C34 1.328 . S
N38 C36 1.350 . S
H39 C34 0.930 . S
H40 C35 0.930 . S
C41 O42 1.224 . S
C41 O60 1.247 . S
O42 C41 1.224 . S
N43 Co33 2.128 . S
N43 C44 1.355 . S
N43 C46 1.311 . S
C44 N43 1.355 . S
C44 C45 1.363 . S
C44 H56 0.929 . S
C45 C44 1.363 . S
C45 N47 1.375 . S
C45 H63 0.931 . S
C46 N43 1.311 . S
C46 N47 1.347 . S
C46 H57 0.929 . S
N47 C45 1.375 . S
N47 C46 1.347 . S
C48 C51 1.365 . S
C48 N53 1.328 . S
C48 H54 0.929 . S
C49 C50 1.362 . S
C49 C52 1.378 . S
C49 H64 0.929 . S
C50 C49 1.362 . S
C50 C51 1.366 . S
C51 C48 1.365 . S
C51 C50 1.366 . S
C51 H65 0.930 . S
C52 C49 1.378 . S
C52 N53 1.315 . S
C52 H55 0.930 . S
N53 Co33 2.194 . S
N53 C48 1.328 . S
N53 C52 1.315 . S
H54 C48 0.929 . S
H55 C52 0.930 . S
H56 C44 0.929 . S
H57 C46 0.929 . S
O58 Co33 2.351 . S
O58 C61 1.244 . S
O59 Co33 2.155 . S
O59 C61 1.240 . S
O60 Co33 2.096 . S
O60 C41 1.247 . S
C61 O58 1.244 . S
C61 O59 1.240 . S
H62 C36 0.931 . S
H63 C45 0.931 . S
H64 C49 0.929 . S
H65 C51 0.930 . S
Co66 N70 2.148 . S
Co66 N76 2.128 . S
Co66 N86 2.194 . S
Co66 O91 2.351 . S
Co66 O92 2.155 . S
Co66 O93 2.096 . S
C67 N70 1.301 . S
C67 N71 1.328 . S
C67 H72 0.930 . S
C68 C69 1.333 . S
C68 N70 1.317 . S
C68 H73 0.930 . S
C69 C68 1.333 . S
C69 N71 1.350 . S
C69 H95 0.931 . S
N70 Co66 2.148 . S
N70 C67 1.301 . S
N70 C68 1.317 . S
N71 C67 1.328 . S
N71 C69 1.350 . S
H72 C67 0.930 . S
H73 C68 0.930 . S
C74 O75 1.224 . S
C74 O93 1.247 . S
O75 C74 1.224 . S
N76 Co66 2.128 . S
N76 C77 1.355 . S
N76 C79 1.311 . S
C77 N76 1.355 . S
C77 C78 1.363 . S
C77 H89 0.929 . S
C78 C77 1.363 . S
C78 N80 1.375 . S
C78 H96 0.931 . S
C79 N76 1.311 . S
C79 N80 1.347 . S
C79 H90 0.929 . S
N80 C78 1.375 . S
N80 C79 1.347 . S
C81 C84 1.365 . S
C81 N86 1.328 . S
C81 H87 0.929 . S
C82 C83 1.362 . S
C82 C85 1.378 . S
C82 H97 0.929 . S
C83 C82 1.362 . S
C83 C84 1.366 . S
C84 C81 1.365 . S
C84 C83 1.366 . S
C84 H98 0.930 . S
C85 C82 1.378 . S
C85 N86 1.315 . S
C85 H88 0.930 . S
N86 Co66 2.194 . S
N86 C81 1.328 . S
N86 C85 1.315 . S
H87 C81 0.929 . S
H88 C85 0.930 . S
H89 C77 0.929 . S
H90 C79 0.929 . S
O91 Co66 2.351 . S
O91 C94 1.244 . S
O92 Co66 2.155 . S
O92 C94 1.240 . S
O93 Co66 2.096 . S
O93 C74 1.247 . S
C94 O91 1.244 . S
C94 O92 1.240 . S
H95 C69 0.931 . S
H96 C78 0.931 . S
H97 C82 0.929 . S
H98 C84 0.930 . S
Co99 N103 2.148 1_556 S
Co99 N109 2.128 . S
Co99 N119 2.194 . S
Co99 O124 2.351 . S
Co99 O125 2.155 . S
Co99 O126 2.096 . S
C100 N103 1.301 . S
C100 N104 1.328 . S
C100 H105 0.930 . S
C101 C102 1.333 . S
C101 N103 1.317 . S
C101 H106 0.930 . S
C102 C101 1.333 . S
C102 N104 1.350 . S
C102 H128 0.931 . S
N103 Co99 2.148 1_554 S
N103 C100 1.301 . S
N103 C101 1.317 . S
N104 C100 1.328 . S
N104 C102 1.350 . S
H105 C100 0.930 . S
H106 C101 0.930 . S
C107 O108 1.224 . S
C107 O126 1.247 . S
O108 C107 1.224 . S
N109 Co99 2.128 . S
N109 C110 1.355 . S
N109 C112 1.311 . S
C110 N109 1.355 . S
C110 C111 1.363 . S
C110 H122 0.929 . S
C111 C110 1.363 . S
C111 N113 1.375 . S
C111 H129 0.931 . S
C112 N109 1.311 . S
C112 N113 1.347 . S
C112 H123 0.929 . S
N113 C111 1.375 . S
N113 C112 1.347 . S
C114 C117 1.365 . S
C114 N119 1.328 . S
C114 H120 0.929 1_556 S
C115 C116 1.362 . S
C115 C118 1.378 . S
C115 H130 0.929 . S
C116 C115 1.362 . S
C116 C117 1.366 . S
C117 C114 1.365 . S
C117 C116 1.366 . S
C117 H131 0.930 1_556 S
C118 C115 1.378 . S
C118 N119 1.315 . S
C118 H121 0.930 . S
N119 Co99 2.194 . S
N119 C114 1.328 . S
N119 C118 1.315 . S
H120 C114 0.929 1_554 S
H121 C118 0.930 . S
H122 C110 0.929 . S
H123 C112 0.929 . S
O124 Co99 2.351 . S
O124 C127 1.244 . S
O125 Co99 2.155 . S
O125 C127 1.240 . S
O126 Co99 2.096 . S
O126 C107 1.247 . S
C127 O124 1.244 . S
C127 O125 1.240 . S
H128 C102 0.931 . S
H129 C111 0.931 . S
H130 C115 0.929 . S
H131 C117 0.930 1_554 S
Co132 N136 2.148 . S
Co132 N142 2.128 . S
Co132 N152 2.194 . S
Co132 O157 2.351 . S
Co132 O158 2.155 . S
Co132 O159 2.096 . S
C133 N136 1.301 . S
C133 N137 1.328 . S
C133 H138 0.930 . S
C134 C135 1.333 . S
C134 N136 1.317 . S
C134 H139 0.930 . S
C135 C134 1.333 . S
C135 N137 1.350 . S
C135 H161 0.931 . S
N136 Co132 2.148 . S
N136 C133 1.301 . S
N136 C134 1.317 . S
N137 C133 1.328 . S
N137 C135 1.350 . S
H138 C133 0.930 . S
H139 C134 0.930 . S
C140 O141 1.224 . S
C140 O159 1.247 . S
O141 C140 1.224 . S
N142 Co132 2.128 . S
N142 C143 1.355 . S
N142 C145 1.311 . S
C143 N142 1.355 . S
C143 C144 1.363 . S
C143 H155 0.929 . S
C144 C143 1.363 . S
C144 N146 1.375 . S
C144 H162 0.931 . S
C145 N142 1.311 . S
C145 N146 1.347 . S
C145 H156 0.929 . S
N146 C144 1.375 . S
N146 C145 1.347 . S
C147 C150 1.365 . S
C147 N152 1.328 . S
C147 H153 0.929 . S
C148 C149 1.362 . S
C148 C151 1.378 . S
C148 H163 0.929 . S
C149 C148 1.362 . S
C149 C150 1.366 . S
C150 C147 1.365 . S
C150 C149 1.366 . S
C150 H164 0.930 . S
C151 C148 1.378 . S
C151 N152 1.315 . S
C151 H154 0.930 . S
N152 Co132 2.194 . S
N152 C147 1.328 . S
N152 C151 1.315 . S
H153 C147 0.929 . S
H154 C151 0.930 . S
H155 C143 0.929 . S
H156 C145 0.929 . S
O157 Co132 2.351 . S
O157 C160 1.244 . S
O158 Co132 2.155 . S
O158 C160 1.240 . S
O159 Co132 2.096 . S
O159 C140 1.247 . S
C160 O157 1.244 . S
C160 O158 1.240 . S
H161 C135 0.931 . S
H162 C144 0.931 . S
H163 C148 0.929 . S
H164 C150 0.930 . S
Co165 N169 2.148 . S
Co165 N175 2.128 . S
Co165 N185 2.194 . S
Co165 O190 2.351 . S
Co165 O191 2.155 . S
Co165 O192 2.096 . S
C166 N169 1.301 . S
C166 N170 1.328 . S
C166 H171 0.930 . S
C167 C168 1.333 . S
C167 N169 1.317 . S
C167 H172 0.930 . S
C168 C167 1.333 . S
C168 N170 1.350 . S
C168 H194 0.931 . S
N169 Co165 2.148 . S
N169 C166 1.301 . S
N169 C167 1.317 . S
N170 C166 1.328 . S
N170 C168 1.350 . S
H171 C166 0.930 . S
H172 C167 0.930 . S
C173 O174 1.224 . S
C173 O192 1.247 . S
O174 C173 1.224 . S
N175 Co165 2.128 . S
N175 C176 1.355 . S
N175 C178 1.311 . S
C176 N175 1.355 . S
C176 C177 1.363 . S
C176 H188 0.929 . S
C177 C176 1.363 . S
C177 N179 1.375 . S
C177 H195 0.931 . S
C178 N175 1.311 . S
C178 N179 1.347 . S
C178 H189 0.929 . S
N179 C177 1.375 . S
N179 C178 1.347 . S
C180 C183 1.365 . S
C180 N185 1.328 . S
C180 H186 0.929 . S
C181 C182 1.362 . S
C181 C184 1.378 . S
C181 H196 0.929 . S
C182 C181 1.362 . S
C182 C183 1.366 . S
C183 C180 1.365 . S
C183 C182 1.366 . S
C183 H197 0.930 . S
C184 C181 1.378 . S
C184 N185 1.315 . S
C184 H187 0.930 . S
N185 Co165 2.194 . S
N185 C180 1.328 . S
N185 C184 1.315 . S
H186 C180 0.929 . S
H187 C184 0.930 . S
H188 C176 0.929 . S
H189 C178 0.929 . S
O190 Co165 2.351 . S
O190 C193 1.244 . S
O191 Co165 2.155 . S
O191 C193 1.240 . S
O192 Co165 2.096 . S
O192 C173 1.247 . S
C193 O190 1.244 . S
C193 O191 1.240 . S
H194 C168 0.931 . S
H195 C177 0.931 . S
H196 C181 0.929 . S
H197 C183 0.930 . S
Co198 N202 2.148 . S
Co198 N208 2.128 . S
Co198 N218 2.194 . S
Co198 O223 2.351 . S
Co198 O224 2.155 . S
Co198 O225 2.096 . S
C199 N202 1.301 . S
C199 N203 1.328 . S
C199 H204 0.930 . S
C200 C201 1.333 . S
C200 N202 1.317 . S
C200 H205 0.930 . S
C201 C200 1.333 . S
C201 N203 1.350 . S
C201 H227 0.931 . S
N202 Co198 2.148 . S
N202 C199 1.301 . S
N202 C200 1.317 . S
N203 C199 1.328 . S
N203 C201 1.350 . S
H204 C199 0.930 . S
H205 C200 0.930 . S
C206 O207 1.224 . S
C206 O225 1.247 . S
O207 C206 1.224 . S
N208 Co198 2.128 . S
N208 C209 1.355 . S
N208 C211 1.311 . S
C209 N208 1.355 . S
C209 C210 1.363 1_556 S
C209 H221 0.929 . S
C210 C209 1.363 1_554 S
C210 N212 1.375 . S
C210 H228 0.931 . S
C211 N208 1.311 . S
C211 N212 1.347 1_556 S
C211 H222 0.929 . S
N212 C210 1.375 . S
N212 C211 1.347 1_554 S
C213 C216 1.365 . S
C213 N218 1.328 . S
C213 H219 0.929 . S
C214 C215 1.362 . S
C214 C217 1.378 . S
C214 H229 0.929 . S
C215 C214 1.362 . S
C215 C216 1.366 . S
C216 C213 1.365 . S
C216 C215 1.366 . S
C216 H230 0.930 . S
C217 C214 1.378 . S
C217 N218 1.315 . S
C217 H220 0.930 . S
N218 Co198 2.194 . S
N218 C213 1.328 . S
N218 C217 1.315 . S
H219 C213 0.929 . S
H220 C217 0.930 . S
H221 C209 0.929 . S
H222 C211 0.929 . S
O223 Co198 2.351 . S
O223 C226 1.244 . S
O224 Co198 2.155 . S
O224 C226 1.240 . S
O225 Co198 2.096 . S
O225 C206 1.247 . S
C226 O223 1.244 . S
C226 O224 1.240 . S
H227 C201 0.931 . S
H228 C210 0.931 . S
H229 C214 0.929 . S
H230 C216 0.930 . S
Co231 N235 2.148 1_554 S
Co231 N241 2.128 . S
Co231 N251 2.194 . S
Co231 O256 2.351 . S
Co231 O257 2.155 . S
Co231 O258 2.096 . S
C232 N235 1.301 . S
C232 N236 1.328 . S
C232 H237 0.930 . S
C233 C234 1.333 . S
C233 N235 1.317 . S
C233 H238 0.930 . S
C234 C233 1.333 . S
C234 N236 1.350 . S
C234 H260 0.931 . S
N235 Co231 2.148 1_556 S
N235 C232 1.301 . S
N235 C233 1.317 . S
N236 C232 1.328 . S
N236 C234 1.350 . S
H237 C232 0.930 . S
H238 C233 0.930 . S
C239 O240 1.224 . S
C239 O258 1.247 . S
O240 C239 1.224 . S
N241 Co231 2.128 . S
N241 C242 1.355 . S
N241 C244 1.311 . S
C242 N241 1.355 . S
C242 C243 1.363 . S
C242 H254 0.929 . S
C243 C242 1.363 . S
C243 N245 1.375 . S
C243 H261 0.931 . S
C244 N241 1.311 . S
C244 N245 1.347 . S
C244 H255 0.929 . S
N245 C243 1.375 . S
N245 C244 1.347 . S
C246 C249 1.365 . S
C246 N251 1.328 . S
C246 H252 0.929 1_554 S
C247 C248 1.362 . S
C247 C250 1.378 . S
C247 H262 0.929 . S
C248 C247 1.362 . S
C248 C249 1.366 . S
C249 C246 1.365 . S
C249 C248 1.366 . S
C249 H263 0.930 1_554 S
C250 C247 1.378 . S
C250 N251 1.315 . S
C250 H253 0.930 . S
N251 Co231 2.194 . S
N251 C246 1.328 . S
N251 C250 1.315 . S
H252 C246 0.929 1_556 S
H253 C250 0.930 . S
H254 C242 0.929 . S
H255 C244 0.929 . S
O256 Co231 2.351 . S
O256 C259 1.244 . S
O257 Co231 2.155 . S
O257 C259 1.240 . S
O258 Co231 2.096 . S
O258 C239 1.247 . S
C259 O256 1.244 . S
C259 O257 1.240 . S
H260 C234 0.931 . S
H261 C243 0.931 . S
H262 C247 0.929 . S
H263 C249 0.930 1_556 S
H264 C272 0.950 . S
H265 C277 0.950 . S
H266 C274 0.950 . S
H267 C276 0.950 . S
H268 C278 0.950 . S
H269 C280 0.950 . S
H270 C282 0.950 . S
H271 C283 0.950 . S
C272 H264 0.950 . S
C272 C273 1.386 . S
C272 C274 1.391 . S
C273 C272 1.386 . S
C273 C277 1.393 . S
C274 H266 0.950 . S
C274 C272 1.391 . S
C274 C275 1.400 . S
C275 C274 1.400 . S
C275 C276 1.398 . S
C275 C281 1.491 . S
C276 H267 0.950 . S
C276 C275 1.398 . S
C276 C277 1.391 . S
C277 H265 0.950 . S
C277 C273 1.393 . S
C277 C276 1.391 . S
C278 H268 0.950 . S
C278 C279 1.386 . S
C278 C280 1.391 . S
C279 C278 1.386 . S
C279 C283 1.393 . S
C280 H269 0.950 . S
C280 C278 1.391 . S
C280 C281 1.400 . S
C281 C275 1.491 . S
C281 C280 1.400 . S
C281 C282 1.398 . S
C282 H270 0.950 . S
C282 C281 1.398 . S
C282 C283 1.391 . S
C283 H271 0.950 . S
C283 C279 1.393 . S
C283 C282 1.391 . S
H284 C292 0.950 . S
H285 C297 0.950 . S
H286 C294 0.950 . S
H287 C296 0.950 . S
H288 C298 0.950 . S
H289 C300 0.950 . S
H290 C302 0.950 . S
H291 C303 0.950 . S
C292 H284 0.950 . S
C292 C293 1.386 . S
C292 C294 1.391 . S
C293 C292 1.386 . S
C293 C297 1.393 . S
C294 H286 0.950 . S
C294 C292 1.391 . S
C294 C295 1.400 . S
C295 C294 1.400 . S
C295 C296 1.398 . S
C295 C301 1.491 . S
C296 H287 0.950 . S
C296 C295 1.398 . S
C296 C297 1.391 . S
C297 H285 0.950 . S
C297 C293 1.393 . S
C297 C296 1.391 . S
C298 H288 0.950 . S
C298 C299 1.386 . S
C298 C300 1.391 . S
C299 C298 1.386 . S
C299 C303 1.393 . S
C300 H289 0.950 . S
C300 C298 1.391 . S
C300 C301 1.400 . S
C301 C295 1.491 . S
C301 C300 1.400 . S
C301 C302 1.398 . S
C302 H290 0.950 . S
C302 C301 1.398 . S
C302 C303 1.391 . S
C303 H291 0.950 . S
C303 C299 1.393 . S
C303 C302 1.391 . S
H304 C312 0.950 . S
H305 C317 0.950 . S
H306 C314 0.950 . S
H307 C316 0.950 . S
H308 C318 0.950 . S
H309 C320 0.950 . S
H310 C322 0.950 . S
H311 C323 0.950 . S
C312 H304 0.950 . S
C312 C313 1.386 . S
C312 C314 1.391 . S
C313 C312 1.386 . S
C313 C317 1.393 . S
C314 H306 0.950 . S
C314 C312 1.391 . S
C314 C315 1.400 . S
C315 C314 1.400 . S
C315 C316 1.398 . S
C315 C321 1.491 . S
C316 H307 0.950 . S
C316 C315 1.398 . S
C316 C317 1.391 . S
C317 H305 0.950 . S
C317 C313 1.393 . S
C317 C316 1.391 . S
C318 H308 0.950 . S
C318 C319 1.386 . S
C318 C320 1.391 . S
C319 C318 1.386 . S
C319 C323 1.393 . S
C320 H309 0.950 . S
C320 C318 1.391 . S
C320 C321 1.400 . S
C321 C315 1.491 . S
C321 C320 1.400 . S
C321 C322 1.398 . S
C322 H310 0.950 . S
C322 C321 1.398 . S
C322 C323 1.391 . S
C323 H311 0.950 . S
C323 C319 1.393 . S
C323 C322 1.391 . S
H324 C332 0.950 . S
H325 C337 0.950 . S
H326 C334 0.950 . S
H327 C336 0.950 . S
H328 C338 0.950 1_556 S
H329 C340 0.950 . S
H330 C342 0.950 . S
H331 C343 0.950 . S
C332 H324 0.950 . S
C332 C333 1.386 . S
C332 C334 1.391 . S
C333 C332 1.386 . S
C333 C337 1.393 . S
C334 H326 0.950 . S
C334 C332 1.391 . S
C334 C335 1.400 . S
C335 C334 1.400 . S
C335 C336 1.398 . S
C335 C341 1.491 . S
C336 H327 0.950 . S
C336 C335 1.398 . S
C336 C337 1.391 . S
C337 H325 0.950 . S
C337 C333 1.393 . S
C337 C336 1.391 . S
C338 H328 0.950 1_554 S
C338 C339 1.386 . S
C338 C340 1.391 . S
C339 C338 1.386 . S
C339 C343 1.393 . S
C340 H329 0.950 . S
C340 C338 1.391 . S
C340 C341 1.400 . S
C341 C335 1.491 . S
C341 C340 1.400 . S
C341 C342 1.398 . S
C342 H330 0.950 . S
C342 C341 1.398 . S
C342 C343 1.391 . S
C343 H331 0.950 . S
C343 C339 1.393 . S
C343 C342 1.391 . S
H344 C352 0.950 . S
H345 C357 0.950 . S
H346 C354 0.950 . S
H347 C356 0.950 . S
H348 C358 0.950 . S
H349 C360 0.950 . S
H350 C362 0.950 . S
H351 C363 0.950 . S
C352 H344 0.950 . S
C352 C353 1.386 . S
C352 C354 1.391 . S
C353 C352 1.386 . S
C353 C357 1.393 . S
C354 H346 0.950 . S
C354 C352 1.391 . S
C354 C355 1.400 . S
C355 C354 1.400 . S
C355 C356 1.398 . S
C355 C361 1.491 . S
C356 H347 0.950 . S
C356 C355 1.398 . S
C356 C357 1.391 . S
C357 H345 0.950 . S
C357 C353 1.393 . S
C357 C356 1.391 . S
C358 H348 0.950 . S
C358 C359 1.386 . S
C358 C360 1.391 . S
C359 C358 1.386 . S
C359 C363 1.393 . S
C360 H349 0.950 . S
C360 C358 1.391 . S
C360 C361 1.400 . S
C361 C355 1.491 . S
C361 C360 1.400 . S
C361 C362 1.398 . S
C362 H350 0.950 . S
C362 C361 1.398 . S
C362 C363 1.391 . S
C363 H351 0.950 . S
C363 C359 1.393 . S
C363 C362 1.391 . S
H364 C372 0.950 . S
H365 C377 0.950 . S
H366 C374 0.950 1_556 S
H367 C376 0.950 . S
H368 C378 0.950 . S
H369 C380 0.950 . S
H370 C382 0.950 . S
H371 C383 0.950 . S
C372 H364 0.950 . S
C372 C373 1.386 . S
C372 C374 1.391 . S
C373 C372 1.386 . S
C373 C377 1.393 . S
C374 H366 0.950 1_554 S
C374 C372 1.391 . S
C374 C375 1.400 1_554 S
C375 C374 1.400 1_556 S
C375 C376 1.398 1_556 S
C375 C381 1.491 . S
C376 H367 0.950 . S
C376 C375 1.398 1_554 S
C376 C377 1.391 . S
C377 H365 0.950 . S
C377 C373 1.393 . S
C377 C376 1.391 . S
C378 H368 0.950 . S
C378 C379 1.386 . S
C378 C380 1.391 . S
C379 C378 1.386 . S
C379 C383 1.393 . S
C380 H369 0.950 . S
C380 C378 1.391 . S
C380 C381 1.400 . S
C381 C375 1.491 . S
C381 C380 1.400 . S
C381 C382 1.398 . S
C382 H370 0.950 . S
C382 C381 1.398 . S
C382 C383 1.391 . S
C383 H371 0.950 . S
C383 C379 1.393 . S
C383 C382 1.391 . S
H384 C392 0.950 . S
H385 C397 0.950 . S
H386 C394 0.950 . S
H387 C396 0.950 . S
H388 C398 0.950 . S
H389 C400 0.950 . S
H390 C402 0.950 . S
H391 C403 0.950 . S
C392 H384 0.950 . S
C392 C393 1.386 1_554 S
C392 C394 1.391 . S
C393 C392 1.386 1_556 S
C393 C397 1.393 1_556 S
C394 H386 0.950 . S
C394 C392 1.391 . S
C394 C395 1.400 . S
C395 C394 1.400 . S
C395 C396 1.398 . S
C395 C401 1.491 . S
C396 H387 0.950 . S
C396 C395 1.398 . S
C396 C397 1.391 . S
C397 H385 0.950 . S
C397 C393 1.393 1_554 S
C397 C396 1.391 . S
C398 H388 0.950 . S
C398 C399 1.386 . S
C398 C400 1.391 . S
C399 C398 1.386 . S
C399 C403 1.393 . S
C400 H389 0.950 . S
C400 C398 1.391 . S
C400 C401 1.400 . S
C401 C395 1.491 . S
C401 C400 1.400 . S
C401 C402 1.398 . S
C402 H390 0.950 . S
C402 C401 1.398 . S
C402 C403 1.391 . S
C403 H391 0.950 . S
C403 C399 1.393 . S
C403 C402 1.391 . S
H404 C412 0.950 . S
H405 C417 0.950 . S
H406 C414 0.950 . S
H407 C416 0.950 . S
H408 C418 0.950 . S
H409 C420 0.950 . S
H410 C422 0.950 . S
H411 C423 0.950 . S
C412 H404 0.950 . S
C412 C413 1.386 . S
C412 C414 1.391 . S
C413 C412 1.386 . S
C413 C417 1.393 . S
C414 H406 0.950 . S
C414 C412 1.391 . S
C414 C415 1.400 . S
C415 C414 1.400 . S
C415 C416 1.398 . S
C415 C421 1.491 . S
C416 H407 0.950 . S
C416 C415 1.398 . S
C416 C417 1.391 . S
C417 H405 0.950 . S
C417 C413 1.393 . S
C417 C416 1.391 . S
C418 H408 0.950 . S
C418 C419 1.386 . S
C418 C420 1.391 . S
C419 C418 1.386 . S
C419 C423 1.393 . S
C420 H409 0.950 . S
C420 C418 1.391 . S
C420 C421 1.400 . S
C421 C415 1.491 . S
C421 C420 1.400 . S
C421 C422 1.398 . S
C422 H410 0.950 . S
C422 C421 1.398 . S
C422 C423 1.391 . S
C423 H411 0.950 . S
C423 C419 1.393 . S
C423 C422 1.391 . S
H424 C432 0.950 1_554 S
H425 C437 0.950 . S
H426 C434 0.950 . S
H427 C436 0.950 . S
H428 C438 0.950 . S
H429 C440 0.950 . S
H430 C442 0.950 . S
H431 C443 0.950 . S
C432 H424 0.950 1_556 S
C432 C433 1.389 . S
C432 C434 1.391 . S
C433 C432 1.389 . S
C433 C437 1.398 . S
C434 H426 0.950 . S
C434 C432 1.391 . S
C434 C435 1.400 . S
C435 C434 1.400 . S
C435 C436 1.398 . S
C435 C441 1.491 . S
C436 H427 0.950 . S
C436 C435 1.398 . S
C436 C437 1.391 . S
C437 H425 0.950 . S
C437 C433 1.398 . S
C437 C436 1.391 . S
C438 H428 0.950 . S
C438 C439 1.386 . S
C438 C440 1.391 . S
C439 C438 1.386 . S
C439 C443 1.393 . S
C440 H429 0.950 . S
C440 C438 1.391 . S
C440 C441 1.400 . S
C441 C435 1.491 . S
C441 C440 1.400 . S
C441 C442 1.398 . S
C442 H430 0.950 . S
C442 C441 1.398 . S
C442 C443 1.391 . S
C443 H431 0.950 . S
C443 C439 1.393 . S
C443 C442 1.391 . S
H444 C452 0.950 . S
H445 C457 0.950 . S
H446 C454 0.950 . S
H447 C456 0.950 . S
H448 C458 0.950 . S
H449 C460 0.950 1_554 S
H450 C462 0.950 . S
H451 C463 0.950 . S
C452 H444 0.950 . S
C452 C453 1.386 . S
C452 C454 1.391 . S
C453 C452 1.386 . S
C453 C457 1.393 . S
C454 H446 0.950 . S
C454 C452 1.391 . S
C454 C455 1.400 . S
C455 C454 1.400 . S
C455 C456 1.398 . S
C455 C461 1.491 . S
C456 H447 0.950 . S
C456 C455 1.398 . S
C456 C457 1.391 . S
C457 H445 0.950 . S
C457 C453 1.393 . S
C457 C456 1.391 . S
C458 H448 0.950 . S
C458 C459 1.386 . S
C458 C460 1.391 . S
C459 C458 1.386 . S
C459 C463 1.393 . S
C460 H449 0.950 1_556 S
C460 C458 1.391 . S
C460 C461 1.400 1_556 S
C461 C455 1.491 . S
C461 C460 1.400 1_554 S
C461 C462 1.398 1_554 S
C462 H450 0.950 . S
C462 C461 1.398 1_556 S
C462 C463 1.391 . S
C463 H451 0.950 . S
C463 C459 1.393 . S
C463 C462 1.391 . S
H464 C472 0.950 . S
H465 C477 0.950 . S
H466 C474 0.950 . S
H467 C476 0.950 . S
H468 C478 0.950 . S
H469 C480 0.950 . S
H470 C482 0.950 . S
H471 C483 0.950 . S
C472 H464 0.950 . S
C472 C473 1.386 . S
C472 C474 1.391 . S
C473 C472 1.386 . S
C473 C477 1.393 . S
C474 H466 0.950 . S
C474 C472 1.391 . S
C474 C475 1.400 . S
C475 C474 1.400 . S
C475 C476 1.398 . S
C475 C481 1.491 . S
C476 H467 0.950 . S
C476 C475 1.398 . S
C476 C477 1.391 . S
C477 H465 0.950 . S
C477 C473 1.393 . S
C477 C476 1.391 . S
C478 H468 0.950 . S
C478 C479 1.386 . S
C478 C480 1.391 . S
C479 C478 1.386 . S
C479 C483 1.393 . S
C480 H469 0.950 . S
C480 C478 1.391 . S
C480 C481 1.400 . S
C481 C475 1.491 . S
C481 C480 1.400 . S
C481 C482 1.398 . S
C482 H470 0.950 . S
C482 C481 1.398 . S
C482 C483 1.391 . S
C483 H471 0.950 . S
C483 C479 1.393 . S
C483 C482 1.391 . S
H484 C492 0.950 . S
H485 C497 0.950 . S
H486 C494 0.950 . S
H487 C496 0.950 . S
H488 C498 0.950 . S
H489 C500 0.950 . S
H490 C502 0.950 . S
H491 C503 0.950 . S
C492 H484 0.950 . S
C492 C493 1.386 . S
C492 C494 1.391 . S
C493 C492 1.386 . S
C493 C497 1.393 . S
C494 H486 0.950 . S
C494 C492 1.391 . S
C494 C495 1.400 . S
C495 C494 1.400 . S
C495 C496 1.398 . S
C495 C501 1.491 . S
C496 H487 0.950 . S
C496 C495 1.398 . S
C496 C497 1.391 . S
C497 H485 0.950 . S
C497 C493 1.393 . S
C497 C496 1.391 . S
C498 H488 0.950 . S
C498 C499 1.386 . S
C498 C500 1.391 . S
C499 C498 1.386 . S
C499 C503 1.393 . S
C500 H489 0.950 . S
C500 C498 1.391 . S
C500 C501 1.400 . S
C501 C495 1.491 . S
C501 C500 1.400 . S
C501 C502 1.398 . S
C502 H490 0.950 . S
C502 C501 1.398 . S
C502 C503 1.391 . S
C503 H491 0.950 . S
C503 C499 1.393 . S
C503 C502 1.391 . S
H504 C512 0.950 . S
H505 C517 0.950 . S
H506 C514 0.950 . S
H507 C516 0.950 . S
H508 C518 0.950 . S
H509 C520 0.950 . S
H510 C522 0.950 . S
H511 C523 0.950 . S
C512 H504 0.950 . S
C512 C513 1.386 . S
C512 C514 1.391 . S
C513 C512 1.386 . S
C513 C517 1.393 . S
C514 H506 0.950 . S
C514 C512 1.391 . S
C514 C515 1.400 . S
C515 C514 1.400 . S
C515 C516 1.398 . S
C515 C521 1.491 1_454 S
C516 H507 0.950 . S
C516 C515 1.398 . S
C516 C517 1.391 . S
C517 H505 0.950 . S
C517 C513 1.393 . S
C517 C516 1.391 . S
C518 H508 0.950 . S
C518 C519 1.386 . S
C518 C520 1.391 . S
C519 C518 1.386 . S
C519 C523 1.393 . S
C520 H509 0.950 . S
C520 C518 1.391 . S
C520 C521 1.400 . S
C521 C515 1.491 1_656 S
C521 C520 1.400 . S
C521 C522 1.398 . S
C522 H510 0.950 . S
C522 C521 1.398 . S
C522 C523 1.391 . S
C523 H511 0.950 . S
C523 C519 1.393 . S
C523 C522 1.391 . S
H524 C532 0.950 . S
H525 C537 0.950 . S
H526 C534 0.950 . S
H527 C536 0.950 . S
H528 C538 0.950 . S
H529 C540 0.950 . S
H530 C542 0.950 . S
H531 C543 0.950 . S
C532 H524 0.950 . S
C532 C533 1.386 . S
C532 C534 1.391 . S
C533 C532 1.386 . S
C533 C537 1.393 . S
C534 H526 0.950 . S
C534 C532 1.391 . S
C534 C535 1.400 . S
C535 C534 1.400 . S
C535 C536 1.398 . S
C535 C541 1.491 1_565 S
C536 H527 0.950 . S
C536 C535 1.398 . S
C536 C537 1.391 . S
C537 H525 0.950 . S
C537 C533 1.393 . S
C537 C536 1.391 . S
C538 H528 0.950 . S
C538 C539 1.386 . S
C538 C540 1.391 . S
C539 C538 1.386 . S
C539 C543 1.393 . S
C540 H529 0.950 . S
C540 C538 1.391 . S
C540 C541 1.400 . S
C541 C535 1.491 1_545 S
C541 C540 1.400 . S
C541 C542 1.398 . S
C542 H530 0.950 . S
C542 C541 1.398 . S
C542 C543 1.391 . S
C543 H531 0.950 . S
C543 C539 1.393 . S
C543 C542 1.391 . S
H544 C552 0.950 . S
H545 C557 0.950 . S
H546 C554 0.950 . S
H547 C556 0.950 1_655 S
H548 C558 0.950 . S
H549 C560 0.950 . S
H550 C562 0.950 1_455 S
H551 C563 0.950 . S
C552 H544 0.950 . S
C552 C553 1.386 . S
C552 C554 1.391 . S
C553 C552 1.386 . S
C553 C557 1.393 . S
C554 H546 0.950 . S
C554 C552 1.391 . S
C554 C555 1.400 . S
C555 C554 1.400 . S
C555 C556 1.398 . S
C555 C561 1.491 1_455 S
C556 H547 0.950 1_455 S
C556 C555 1.398 . S
C556 C557 1.391 . S
C557 H545 0.950 . S
C557 C553 1.393 . S
C557 C556 1.391 . S
C558 H548 0.950 . S
C558 C559 1.386 . S
C558 C560 1.391 . S
C559 C558 1.386 . S
C559 C563 1.393 . S
C560 H549 0.950 . S
C560 C558 1.391 . S
C560 C561 1.400 . S
C561 C555 1.491 1_655 S
C561 C560 1.400 . S
C561 C562 1.398 . S
C562 H550 0.950 1_655 S
C562 C561 1.398 . S
C562 C563 1.391 . S
C563 H551 0.950 . S
C563 C559 1.393 . S
C563 C562 1.391 . S
H564 C572 0.950 . S
H565 C577 0.950 . S
H566 C574 0.950 1_545 S
H567 C576 0.950 . S
H568 C578 0.950 . S
H569 C580 0.950 1_565 S
H570 C582 0.950 . S
H571 C583 0.950 . S
C572 H564 0.950 . S
C572 C573 1.386 . S
C572 C574 1.391 . S
C573 C572 1.386 . S
C573 C577 1.393 . S
C574 H566 0.950 1_565 S
C574 C572 1.391 . S
C574 C575 1.400 . S
C575 C574 1.400 . S
C575 C576 1.398 . S
C575 C581 1.491 1_565 S
C576 H567 0.950 . S
C576 C575 1.398 . S
C576 C577 1.391 . S
C577 H565 0.950 . S
C577 C573 1.393 . S
C577 C576 1.391 . S
C578 H568 0.950 . S
C578 C579 1.386 . S
C578 C580 1.391 . S
C579 C578 1.386 . S
C579 C583 1.393 . S
C580 H569 0.950 1_545 S
C580 C578 1.391 . S
C580 C581 1.400 . S
C581 C575 1.491 1_545 S
C581 C580 1.400 . S
C581 C582 1.398 . S
C582 H570 0.950 . S
C582 C581 1.398 . S
C582 C583 1.391 . S
C583 H571 0.950 . S
C583 C579 1.393 . S
C583 C582 1.391 . S
H584 C592 0.950 . S
H585 C597 0.950 . S
H586 C594 0.950 . S
H587 C596 0.950 . S
H588 C598 0.950 . S
H589 C600 0.950 . S
H590 C602 0.950 . S
H591 C603 0.950 . S
C592 H584 0.950 . S
C592 C593 1.386 . S
C592 C594 1.391 . S
C593 C592 1.386 . S
C593 C597 1.393 . S
C594 H586 0.950 . S
C594 C592 1.391 . S
C594 C595 1.400 . S
C595 C594 1.400 . S
C595 C596 1.398 . S
C595 C601 1.491 . S
C596 H587 0.950 . S
C596 C595 1.398 . S
C596 C597 1.391 . S
C597 H585 0.950 . S
C597 C593 1.393 . S
C597 C596 1.391 . S
C598 H588 0.950 . S
C598 C599 1.386 . S
C598 C600 1.391 . S
C599 C598 1.386 . S
C599 C603 1.393 . S
C600 H589 0.950 . S
C600 C598 1.391 . S
C600 C601 1.400 . S
C601 C595 1.491 . S
C601 C600 1.400 . S
C601 C602 1.398 . S
C602 H590 0.950 . S
C602 C601 1.398 . S
C602 C603 1.391 . S
C603 H591 0.950 . S
C603 C599 1.393 . S
C603 C602 1.391 . S
H604 C612 0.950 . S
H605 C617 0.950 . S
H606 C614 0.950 . S
H607 C616 0.950 . S
H608 C618 0.950 . S
H609 C620 0.950 . S
H610 C622 0.950 . S
H611 C623 0.950 . S
C612 H604 0.950 . S
C612 C613 1.386 . S
C612 C614 1.391 . S
C613 C612 1.386 . S
C613 C617 1.393 . S
C614 H606 0.950 . S
C614 C612 1.391 . S
C614 C615 1.400 . S
C615 C614 1.400 . S
C615 C616 1.398 . S
C615 C621 1.491 . S
C616 H607 0.950 . S
C616 C615 1.398 . S
C616 C617 1.391 . S
C617 H605 0.950 . S
C617 C613 1.393 . S
C617 C616 1.391 . S
C618 H608 0.950 . S
C618 C619 1.386 . S
C618 C620 1.391 . S
C619 C618 1.386 . S
C619 C623 1.393 . S
C620 H609 0.950 . S
C620 C618 1.391 . S
C620 C621 1.400 . S
C621 C615 1.491 . S
C621 C620 1.400 . S
C621 C622 1.398 . S
C622 H610 0.950 . S
C622 C621 1.398 . S
C622 C623 1.391 . S
C623 H611 0.950 . S
C623 C619 1.393 . S
C623 C622 1.391 . S
H624 C632 0.950 . S
H625 C637 0.950 . S
H626 C634 0.950 . S
H627 C636 0.950 . S
H628 C638 0.950 . S
H629 C640 0.950 . S
H630 C642 0.950 . S
H631 C643 0.950 . S
C632 H624 0.950 . S
C632 C633 1.386 . S
C632 C634 1.391 . S
C633 C632 1.386 . S
C633 C637 1.393 . S
C634 H626 0.950 . S
C634 C632 1.391 . S
C634 C635 1.400 . S
C635 C634 1.400 . S
C635 C636 1.398 . S
C635 C641 1.491 . S
C636 H627 0.950 . S
C636 C635 1.398 . S
C636 C637 1.391 . S
C637 H625 0.950 . S
C637 C633 1.393 . S
C637 C636 1.391 . S
C638 H628 0.950 . S
C638 C639 1.386 . S
C638 C640 1.391 . S
C639 C638 1.386 . S
C639 C643 1.393 . S
C640 H629 0.950 . S
C640 C638 1.391 . S
C640 C641 1.400 . S
C641 C635 1.491 . S
C641 C640 1.400 . S
C641 C642 1.398 . S
C642 H630 0.950 . S
C642 C641 1.398 . S
C642 C643 1.391 . S
C643 H631 0.950 . S
C643 C639 1.393 . S
C643 C642 1.391 . S
H644 C652 0.950 . S
H645 C657 0.950 . S
H646 C654 0.950 1_556 S
H647 C656 0.950 . S
H648 C658 0.950 . S
H649 C660 0.950 1_554 S
H650 C662 0.950 . S
H651 C663 0.950 . S
C652 H644 0.950 . S
C652 C653 1.386 . S
C652 C654 1.391 . S
C653 C652 1.386 . S
C653 C657 1.393 . S
C654 H646 0.950 1_554 S
C654 C652 1.391 . S
C654 C655 1.400 . S
C655 C654 1.400 . S
C655 C656 1.398 . S
C655 C661 1.491 1_554 S
C656 H647 0.950 . S
C656 C655 1.398 . S
C656 C657 1.391 . S
C657 H645 0.950 . S
C657 C653 1.393 . S
C657 C656 1.391 . S
C658 H648 0.950 . S
C658 C659 1.386 . S
C658 C660 1.391 . S
C659 C658 1.386 . S
C659 C663 1.393 . S
C660 H649 0.950 1_556 S
C660 C658 1.391 . S
C660 C661 1.400 . S
C661 C655 1.491 1_556 S
C661 C660 1.400 . S
C661 C662 1.398 . S
C662 H650 0.950 . S
C662 C661 1.398 . S
C662 C663 1.391 . S
C663 H651 0.950 . S
C663 C659 1.393 . S
C663 C662 1.391 . S
C273 C193 1.199 . S
C279 C28 1.197 . S
C293 C226 1.185 . S
C299 C61 1.188 . S
C313 C94 1.183 . S
C319 C259 1.184 1_556 S
C333 C160 1.185 . S
C339 C127 1.184 1_554 S
C353 N5 1.164 . S
C359 N14 1.162 . S
C373 N47 1.165 . S
C379 N38 1.165 . S
C393 N71 1.165 . S
C399 N80 1.164 . S
C413 N104 1.165 . S
C419 N113 1.165 . S
C433 N137 1.153 1_556 S
C439 N146 1.160 . S
C453 N170 1.165 . S
C459 N179 1.163 . S
C473 N203 1.160 . S
C479 N212 1.157 . S
C493 N245 1.161 . S
C499 N236 1.163 . S
C513 C8 1.342 . S
C519 C206 1.338 . S
C533 C239 1.342 . S
C539 C41 1.339 . S
C553 C140 1.341 . S
C559 C74 1.323 . S
C573 C107 1.325 . S
C579 C173 1.343 . S
C593 C17 1.560 . S
C599 C149 1.567 . S
C613 C50 1.563 . S
C619 C182 1.566 . S
C633 C83 1.560 . S
C639 C215 1.555 . S
C653 C248 1.564 . S
C659 C116 1.565 . S
