# Generated by pormake.
# Topology nfc, (4)-cn, num edge types: 1
# Building blocks:
#     Node 0, Type 0, BuildingBlock: MUDLON_clean_sbu_0, # of connection points: 4
#     Node 1, Type 0, BuildingBlock: MUDLON_clean_sbu_0, # of connection points: 4
#     Node 2, Type 0, BuildingBlock: MUDLON_clean_sbu_0, # of connection points: 4
#     Node 3, Type 0, BuildingBlock: MUDLON_clean_sbu_0, # of connection points: 4
#     Node 4, Type 0, BuildingBlock: MUDLON_clean_sbu_0, # of connection points: 4
#     Node 5, Type 0, BuildingBlock: MUDLON_clean_sbu_0, # of connection points: 4
#     Node 6, Type 0, BuildingBlock: MUDLON_clean_sbu_0, # of connection points: 4
#     Node 7, Type 0, BuildingBlock: MUDLON_clean_sbu_0, # of connection points: 4
#     Node 8, Type 0, BuildingBlock: MUDLON_clean_sbu_0, # of connection points: 4
#     Node 9, Type 0, BuildingBlock: MUDLON_clean_sbu_0, # of connection points: 4
#     Node 10, Type 0, BuildingBlock: MUDLON_clean_sbu_0, # of connection points: 4
#     Node 11, Type 0, BuildingBlock: MUDLON_clean_sbu_0, # of connection points: 4
#     Node 12, Type 0, BuildingBlock: MUDLON_clean_sbu_0, # of connection points: 4
#     Node 13, Type 0, BuildingBlock: MUDLON_clean_sbu_0, # of connection points: 4
#     Node 14, Type 0, BuildingBlock: MUDLON_clean_sbu_0, # of connection points: 4
#     Node 15, Type 0, BuildingBlock: MUDLON_clean_sbu_0, # of connection points: 4
#     Edge 16, Type (0, 0), BuildingBlock: AJUNOK_clean_linker_0, # of connection points: 2
#     Edge 17, Type (0, 0), BuildingBlock: AJUNOK_clean_linker_0, # of connection points: 2
#     Edge 18, Type (0, 0), BuildingBlock: AJUNOK_clean_linker_0, # of connection points: 2
#     Edge 19, Type (0, 0), BuildingBlock: AJUNOK_clean_linker_0, # of connection points: 2
#     Edge 20, Type (0, 0), BuildingBlock: AJUNOK_clean_linker_0, # of connection points: 2
#     Edge 21, Type (0, 0), BuildingBlock: AJUNOK_clean_linker_0, # of connection points: 2
#     Edge 22, Type (0, 0), BuildingBlock: AJUNOK_clean_linker_0, # of connection points: 2
#     Edge 23, Type (0, 0), BuildingBlock: AJUNOK_clean_linker_0, # of connection points: 2
#     Edge 24, Type (0, 0), BuildingBlock: AJUNOK_clean_linker_0, # of connection points: 2
#     Edge 25, Type (0, 0), BuildingBlock: AJUNOK_clean_linker_0, # of connection points: 2
#     Edge 26, Type (0, 0), BuildingBlock: AJUNOK_clean_linker_0, # of connection points: 2
#     Edge 27, Type (0, 0), BuildingBlock: AJUNOK_clean_linker_0, # of connection points: 2
#     Edge 28, Type (0, 0), BuildingBlock: AJUNOK_clean_linker_0, # of connection points: 2
#     Edge 29, Type (0, 0), BuildingBlock: AJUNOK_clean_linker_0, # of connection points: 2
#     Edge 30, Type (0, 0), BuildingBlock: AJUNOK_clean_linker_0, # of connection points: 2
#     Edge 31, Type (0, 0), BuildingBlock: AJUNOK_clean_linker_0, # of connection points: 2
#     Edge 32, Type (0, 0), BuildingBlock: AJUNOK_clean_linker_0, # of connection points: 2
#     Edge 33, Type (0, 0), BuildingBlock: AJUNOK_clean_linker_0, # of connection points: 2
#     Edge 34, Type (0, 0), BuildingBlock: AJUNOK_clean_linker_0, # of connection points: 2
#     Edge 35, Type (0, 0), BuildingBlock: AJUNOK_clean_linker_0, # of connection points: 2
#     Edge 36, Type (0, 0), BuildingBlock: AJUNOK_clean_linker_0, # of connection points: 2
#     Edge 37, Type (0, 0), BuildingBlock: AJUNOK_clean_linker_0, # of connection points: 2
#     Edge 38, Type (0, 0), BuildingBlock: AJUNOK_clean_linker_0, # of connection points: 2
#     Edge 39, Type (0, 0), BuildingBlock: AJUNOK_clean_linker_0, # of connection points: 2
#     Edge 40, Type (0, 0), BuildingBlock: AJUNOK_clean_linker_0, # of connection points: 2
#     Edge 41, Type (0, 0), BuildingBlock: AJUNOK_clean_linker_0, # of connection points: 2
#     Edge 42, Type (0, 0), BuildingBlock: AJUNOK_clean_linker_0, # of connection points: 2
#     Edge 43, Type (0, 0), BuildingBlock: AJUNOK_clean_linker_0, # of connection points: 2
#     Edge 44, Type (0, 0), BuildingBlock: AJUNOK_clean_linker_0, # of connection points: 2
#     Edge 45, Type (0, 0), BuildingBlock: AJUNOK_clean_linker_0, # of connection points: 2
#     Edge 46, Type (0, 0), BuildingBlock: AJUNOK_clean_linker_0, # of connection points: 2
#     Edge 47, Type (0, 0), BuildingBlock: AJUNOK_clean_linker_0, # of connection points: 2
# Relax obj value: 0.326
# Max RMSD: 0.219
# Mean RMSD: 0.216
data_MOF--net-nfc--node1-MUDLON_clean_sbu_0--edge1-AJUNOK_clean_linker_0
_symmetry_space_group_name_H-M    P1
_symmetry_Int_Tables_number       1
_symmetry_cell_setting            triclinic
loop_
_symmetry_equiv_pos_as_xyz
'x, y, z'
_cell_length_a     21.298396
_cell_length_b     34.010934
_cell_length_c     20.199814
_cell_angle_alpha  89.957406
_cell_angle_beta   89.300974
_cell_angle_gamma 90.226656
loop_
_atom_site_label
_atom_site_type_symbol
_atom_site_fract_x
_atom_site_fract_y
_atom_site_fract_z
_atom_type_partial_charge
Mg0 Mg 0.22437 0.21491 0.01439 0.0
C1 C 0.19184 0.12155 0.00639 0.0
O2 O 0.21071 0.12109 0.06805 0.0
C3 C 0.24856 0.30817 0.02942 0.0
O4 O 0.21837 0.3098 0.97315 0.0
C5 C 0.22607 0.22248 0.86466 0.0
O6 O 0.17079 0.20697 0.87801 0.0
O7 O 0.26276 0.23045 0.91192 0.0
O8 O 0.19207 0.15394 0.97463 0.0
O9 O 0.18104 0.20156 0.11491 0.0
C10 C 0.14169 0.22608 0.13817 0.0
O11 O 0.12756 0.25726 0.10301 0.0
O12 O 0.25837 0.27476 0.0558 0.0
Mg13 Mg 0.41377 0.96659 0.29818 0.0
C14 C 0.38952 0.89541 0.21217 0.0
O15 O 0.37287 0.92304 0.17052 0.0
C16 C 0.31439 1.00308 0.38845 0.0
O17 O 0.34303 0.98158 0.43277 0.0
C18 C 0.42526 1.02308 0.18322 0.0
O19 O 0.37733 0.03892 0.21472 0.0
O20 O 0.45326 0.99431 0.20993 0.0
O21 O 0.40302 0.90504 0.27115 0.0
O22 O 0.47247 0.9702 0.38487 0.0
C23 C 0.47764 0.93967 0.42075 0.0
O24 O 0.46003 0.90574 0.39599 0.0
O25 O 0.32958 0.99897 0.32762 0.0
Mg26 Mg 0.56935 0.28487 0.48853 0.0
C27 C 0.46927 0.221 0.52636 0.0
O28 O 0.48993 0.2029 0.473 0.0
C29 C 0.58672 0.3724 0.50018 0.0
O30 O 0.61269 0.36162 0.55591 0.0
C31 C 0.67064 0.24737 0.57291 0.0
O32 O 0.64798 0.21514 0.54635 0.0
O33 O 0.6475 0.2803 0.55635 0.0
O34 O 0.49052 0.25515 0.53944 0.0
O35 O 0.60202 0.26561 0.39128 0.0
C36 C 0.65028 0.28558 0.37383 0.0
O37 O 0.67432 0.31002 0.41708 0.0
O38 O 0.55625 0.34699 0.46743 0.0
Mg39 Mg 0.51164 0.50264 0.68412 0.0
C40 C 0.47774 0.58548 0.6452 0.0
O41 O 0.46514 0.58614 0.70901 0.0
C42 C 0.58096 0.42713 0.69319 0.0
O43 O 0.52242 0.41531 0.6895 0.0
C44 C 0.40144 0.44533 0.63075 0.0
O45 O 0.34777 0.42824 0.64612 0.0
O46 O 0.42581 0.4678 0.67409 0.0
O47 O 0.50331 0.55489 0.6206 0.0
O48 O 0.51087 0.5211 0.78767 0.0
C49 C 0.55961 0.51651 0.82269 0.0
O50 O 0.61185 0.50445 0.79462 0.0
O51 O 0.59308 0.46328 0.6821 0.0
Mg52 Mg 0.15814 0.22207 0.54029 0.0
C53 C 0.20558 0.15204 0.46991 0.0
O54 O 0.22236 0.18185 0.43215 0.0
C55 C 0.04541 0.25438 0.61986 0.0
O56 O 1.0181 0.25187 0.56204 0.0
C57 C 0.08445 0.21588 0.41691 0.0
O58 O 0.06569 0.1839 0.44785 0.0
O59 O 0.11757 0.24075 0.44797 0.0
O60 O 0.17462 0.15906 0.52291 0.0
O61 O 0.25032 0.25111 0.54314 0.0
C62 C 0.28599 0.25999 0.59123 0.0
O63 O 0.33822 0.27927 0.57851 0.0
O64 O 0.10127 0.24157 0.62536 0.0
Mg65 Mg 0.35197 0.03479 0.77429 0.0
C66 C 0.2937 0.96312 0.82919 0.0
O67 O 0.35213 0.96203 0.84914 0.0
C68 C 0.36146 0.11801 0.72691 0.0
O69 O 0.39014 0.11993 0.78401 0.0
C70 C 0.43254 0.03708 0.89801 0.0
O71 O 0.46864 1.01406 0.86197 0.0
O72 O 0.38391 0.0517 0.87192 0.0
O73 O 0.27619 0.99223 0.79421 0.0
O74 O 0.42454 1.00626 0.71503 0.0
C75 C 0.41457 0.97293 0.68861 0.0
O76 O 0.36301 0.95368 0.7043 0.0
O77 O 0.33333 0.08616 0.71214 0.0
Mg78 Mg 0.75148 0.25297 0.95647 0.0
C79 C 0.72451 0.33256 0.87539 0.0
O80 O 0.77799 0.34485 0.89983 0.0
C81 C 0.8566 0.20306 0.03077 0.0
O82 O 0.89642 0.22725 1.00159 0.0
C83 C 0.81073 0.24836 0.81521 0.0
O84 O 0.83849 0.28064 0.83552 0.0
O85 O 0.78346 0.22652 0.85789 0.0
O86 O 0.70174 0.29969 0.89437 0.0
O87 O 0.71048 0.27578 0.05436 0.0
C88 C 0.74682 0.28352 0.10211 0.0
O89 O 0.80774 0.2836 0.0912 0.0
O90 O 0.79844 0.20535 0.01795 0.0
Mg91 Mg 0.46197 0.48859 0.22946 0.0
C92 C 0.36827 0.44893 0.13608 0.0
O93 O 0.40007 0.46947 0.09192 0.0
C94 C 0.51785 0.55715 0.28101 0.0
O95 O 0.56183 0.53309 0.25986 0.0
C96 C 0.51459 0.52079 0.10597 0.0
O97 O 0.47708 0.54849 0.12825 0.0
O98 O 0.52305 0.49065 0.1422 0.0
O99 O 0.37882 0.45484 0.19731 0.0
O100 O 0.49515 0.46119 0.32044 0.0
C101 C 0.45557 0.43975 0.35146 0.0
O102 O 0.40422 0.42907 0.32099 0.0
O103 O 0.46075 0.54822 0.26972 0.0
Mg104 Mg 0.89738 0.44669 0.84058 0.0
C105 C 0.95271 0.37255 0.80156 0.0
O106 O 0.99885 0.39497 0.82225 0.0
C107 C 0.79515 0.47543 0.93509 0.0
O108 O 0.82428 0.45128 0.97493 0.0
C109 C 0.89725 0.50206 0.72413 0.0
O110 O 0.84402 0.5123 0.75256 0.0
O111 O 0.93196 0.47732 0.75324 0.0
O112 O 0.89693 0.38573 0.80612 0.0
O113 O 0.95936 0.45363 0.92426 0.0
C114 C 0.9606 0.42739 0.9691 0.0
O115 O 0.93191 0.39375 0.95832 0.0
O116 O 0.81086 0.47581 0.87404 0.0
Mg117 Mg 0.96892 1.02897 0.31265 0.0
C118 C 0.92485 0.098 0.24593 0.0
O119 O 0.87772 0.0846 0.28213 0.0
C120 C 0.0804 0.99017 0.38145 0.0
O121 O 0.06416 1.01478 0.42863 0.0
C122 C 0.92212 0.97528 0.20681 0.0
O123 O 0.97997 0.96239 0.21156 0.0
O124 O 0.9017 0.99893 0.25055 0.0
O125 O 0.97822 0.08186 0.25263 0.0
O126 O 0.9285 0.0415 0.40934 0.0
C127 C 0.94533 0.07144 0.44248 0.0
O128 O 0.98472 0.09665 0.41518 0.0
O129 O 0.05185 0.99187 0.32636 0.0
Mg130 Mg 0.84236 0.52736 0.31041 0.0
C131 C 0.7268 0.50186 0.38773 0.0
O132 O 0.752 0.52657 0.42976 0.0
C133 C 0.8913 0.60296 0.25704 0.0
O134 O 0.92519 0.59743 0.31013 0.0
C135 C 0.91018 0.5151 0.43935 0.0
O136 O 0.92682 0.48245 0.40926 0.0
O137 O 0.87956 0.54059 0.40731 0.0
O138 O 0.75179 0.49851 0.33037 0.0
O139 O 0.897 0.48451 0.25554 0.0
C140 C 0.94884 0.49406 0.22798 0.0
O141 O 0.97457 0.52795 0.24315 0.0
O142 O 0.84639 0.57921 0.24585 0.0
Mg143 Mg 0.93506 0.97309 0.80305 0.0
C144 C 0.92579 0.04718 0.72294 0.0
O145 O 0.9777 0.05506 0.75483 0.0
C146 C 0.86403 0.98493 0.93221 0.0
O147 O 0.86255 1.0213 0.91034 0.0
C148 C 0.87396 0.917 0.71667 0.0
O149 O 0.82965 0.94009 0.74013 0.0
O150 O 0.92997 0.92243 0.73653 0.0
O151 O 0.8927 1.01799 0.74192 0.0
O152 O 0.02655 0.99642 0.83438 0.0
C153 C 0.04217 0.99498 0.89509 0.0
O154 O 1.00877 0.97305 0.93586 0.0
O155 O 0.88511 0.95835 0.89394 0.0
Mg156 Mg 0.71244 0.71831 0.52967 0.0
C157 C 0.62898 0.66118 0.47325 0.0
O158 O 0.6618 0.64374 0.51942 0.0
C159 C 0.79919 0.78692 0.54715 0.0
O160 O 0.83969 0.75814 0.54056 0.0
C161 C 0.80561 0.66802 0.44863 0.0
O162 O 0.85448 0.64503 0.44055 0.0
O163 O 0.79422 0.6826 0.50554 0.0
O164 O 0.63753 0.69792 0.46454 0.0
O165 O 0.68349 0.70658 0.63137 0.0
C166 C 0.6276 0.69793 0.649 0.0
O167 O 0.58392 0.69358 0.6043 0.0
O168 O 0.74129 0.77984 0.53664 0.0
Mg169 Mg 0.02623 0.78726 0.98865 0.0
C170 C 0.13298 0.8324 0.91094 0.0
O171 O 0.14457 0.79607 0.89264 0.0
C172 C 0.99522 0.70865 0.05565 0.0
O173 O 0.05643 0.70809 0.04686 0.0
C174 C 1.01481 0.75182 0.85174 0.0
O175 O 0.04203 0.72366 0.88533 0.0
O176 O 0.99143 0.78054 0.88365 0.0
O177 O 0.08742 0.83878 0.95079 0.0
O178 O 0.06954 0.79109 0.09044 0.0
C179 C 0.12738 0.78255 0.09503 0.0
O180 O 0.16062 0.77671 0.04075 0.0
O181 O 0.96456 0.73672 0.02998 0.0
Mg182 Mg 0.60157 0.69016 0.07673 0.0
C183 C 0.6535 0.60251 0.05974 0.0
O184 O 0.62188 0.59627 0.11503 0.0
C185 C 0.49003 0.75127 0.09986 0.0
O186 O 0.46236 0.7301 0.05425 0.0
C187 C 0.56629 0.68113 0.92833 0.0
O188 O 0.55042 0.64592 0.94956 0.0
O189 O 0.58147 0.70715 0.97034 0.0
O190 O 0.65567 0.63701 0.03546 0.0
O191 O 0.63288 0.67611 0.18128 0.0
C192 C 0.66094 0.70273 0.21404 0.0
O193 O 0.66649 0.73807 0.18827 0.0
O194 O 0.54541 0.74243 0.1174 0.0
Mg195 Mg 0.23853 0.76614 0.49578 0.0
C196 C 0.19386 0.84113 0.44138 0.0
O197 O 0.15515 0.81445 0.41846 0.0
C198 C 0.3371 0.70284 0.50039 0.0
O199 O 0.30124 0.69029 0.45233 0.0
C200 C 0.24164 0.75655 0.35064 0.0
O201 O 0.29478 0.77519 0.36109 0.0
O202 O 0.21015 0.7442 0.40033 0.0
O203 O 0.23774 0.83035 0.47985 0.0
O204 O 0.16719 0.75214 0.57056 0.0
C205 C 0.13539 0.77916 0.5985 0.0
O206 O 0.14462 0.81573 0.57983 0.0
O207 O 0.32478 0.73615 0.52641 0.0
C208 C 0.10164 0.25581 0.24326 0.0
C209 C 0.11775 0.22202 0.20675 0.0
C210 C 0.08699 0.2534 0.31095 0.0
C211 C 0.08594 0.217 0.34391 0.0
H212 H 0.10377 0.28461 0.22037 0.0
H213 H 0.0787 0.28034 0.33824 0.0
S214 S 0.118 0.11938 0.26886 0.0
N215 N 0.12856 0.15092 0.20759 0.0
N216 N 0.09726 0.14603 0.33373 0.0
C217 C 0.09757 0.1827 0.30686 0.0
C218 C 0.11458 0.18531 0.23854 0.0
C219 C 0.4906 0.98248 0.52025 0.0
C220 C 0.48168 0.9446 0.49367 0.0
C221 C 0.47498 0.99076 0.58635 0.0
C222 C 0.4496 0.96147 0.62807 0.0
H223 H 0.50493 1.00671 0.48859 0.0
H224 H 0.47755 1.02102 0.60283 0.0
S225 S 0.43241 0.85564 0.58815 0.0
N226 N 0.4579 0.87593 0.51852 0.0
N227 N 0.4276 0.89185 0.64235 0.0
C228 C 0.44771 0.92264 0.6046 0.0
C229 C 0.46418 0.91407 0.53748 0.0
C230 C 0.77777 0.28084 0.71069 0.0
C231 C 0.78913 0.24591 0.74587 0.0
C232 C 0.74227 0.28069 0.65277 0.0
C233 C 0.71697 0.24557 0.62735 0.0
H234 H 0.7921 0.30898 0.73058 0.0
H235 H 0.73198 0.30869 0.62978 0.0
S236 S 0.74277 0.14532 0.69489 0.0
N237 N 0.77913 0.17479 0.74699 0.0
N238 N 0.71302 0.17419 0.63756 0.0
C239 C 0.73258 0.21002 0.659 0.0
C240 C 0.76842 0.21028 0.7184 0.0
C241 C 0.52105 0.54995 0.92487 0.0
C242 C 0.55518 0.51937 0.89539 0.0
C243 C 0.51175 0.55129 0.99357 0.0
C244 C 0.53464 0.52144 0.03528 0.0
H245 H 0.50061 0.57271 0.89451 0.0
H246 H 0.48408 0.57524 0.01361 0.0
S247 S 0.62805 0.43495 0.98136 0.0
N248 N 0.61405 0.4592 0.91228 0.0
N249 N 0.5948 0.46082 0.04134 0.0
C250 C 0.57038 0.49112 0.00626 0.0
C251 C 0.581 0.4903 0.93631 0.0
C252 C 0.28739 0.27565 0.71199 0.0
C253 C 0.27023 0.24992 0.66061 0.0
C254 C 0.27488 0.26619 0.77855 0.0
C255 C 0.24383 0.23103 0.7955 0.0
H256 H 0.31054 0.30332 0.70071 0.0
H257 H 0.28802 0.28693 0.81668 0.0
S258 S 0.19676 0.1519 0.68077 0.0
N259 N 0.22843 0.18594 0.63263 0.0
N260 N 0.1998 0.16958 0.75664 0.0
C261 C 0.22754 0.20495 0.74487 0.0
C262 C 0.24195 0.21406 0.67763 0.0
C263 C 0.95392 0.4917 0.54659 0.0
C264 C 0.91556 0.51824 0.5124 0.0
C265 C 0.95119 0.48872 0.61577 0.0
C266 C 0.90938 0.51188 0.65351 0.0
H267 H 0.98439 0.47176 0.5196 0.0
H268 H 0.97942 0.46641 0.63928 0.0
S269 S 0.80495 0.5898 0.58898 0.0
N270 N 0.8394 0.57127 0.52243 0.0
N271 N 0.83394 0.56536 0.65219 0.0
C272 C 0.8741 0.54054 0.62042 0.0
C273 C 0.87728 0.54383 0.54996 0.0
C274 C 0.66328 0.26891 0.18757 0.0
C275 C 0.72163 0.28619 0.17087 0.0
C276 C 0.64104 0.26801 0.25336 0.0
C277 C 0.67594 0.28475 0.30498 0.0
H278 H 0.63501 0.2552 0.14974 0.0
H279 H 0.5959 0.2544 0.26364 0.0
S280 S 0.83072 0.33498 0.28702 0.0
N281 N 0.81315 0.32119 0.21115 0.0
N282 N 0.77162 0.31989 0.33426 0.0
C283 C 0.73405 0.3026 0.28868 0.0
C284 C 0.75679 0.30323 0.22186 0.0
C285 C 0.90813 0.94233 0.09778 0.0
C286 C 0.89023 0.97222 0.1421 0.0
C287 C 0.89338 0.94453 0.03049 0.0
C288 C 0.8614 0.97722 1.00459 0.0
H289 H 0.93729 0.91831 0.11434 0.0
H290 H 0.91196 0.92201 0.9979 0.0
S291 S 0.7927 0.0592 0.10192 0.0
N292 N 0.82934 0.03214 0.15714 0.0
N293 N 0.80319 0.03669 0.03029 0.0
C294 C 0.83758 1.00517 0.04943 0.0
C295 C 0.85162 1.00258 0.1183 0.0
C296 C 0.5753 0.66293 0.743 0.0
C297 C 0.61109 0.69486 0.71975 0.0
C298 C 0.5592 0.65938 0.81025 0.0
C299 C 0.57801 0.68791 0.85661 0.0
H300 H 0.56122 0.64001 0.70916 0.0
H301 H 0.53278 0.6337 0.82604 0.0
S302 S 0.67158 0.77797 0.81904 0.0
N303 N 0.66431 0.75583 0.74684 0.0
N304 N 0.63392 0.74983 0.8732 0.0
C305 C 0.61315 0.72047 0.83331 0.0
C306 C 0.62999 0.7237 0.76493 0.0
C307 C 0.94699 0.41867 0.09111 0.0
C308 C 0.97505 0.43927 0.03791 0.0
C309 C 0.94366 0.43517 0.15455 0.0
C310 C 0.96894 0.47265 0.16742 0.0
H311 H 0.92278 0.39107 0.08287 0.0
H312 H 0.91737 0.41955 0.19265 0.0
S313 S 0.06004 0.53446 0.04849 0.0
N314 N 0.03785 0.49596 1.00474 0.0
N315 N 0.03231 0.52686 0.12411 0.0
C316 C 1.0036 0.49141 0.11654 0.0
C317 C 1.00645 0.47474 0.0517 0.0
C318 C 0.22045 0.7793 0.16861 0.0
C319 C 0.15543 0.77474 0.1602 0.0
C320 C 0.24832 0.77184 0.22977 0.0
C321 C 0.21237 0.7588 0.28455 0.0
H322 H 0.24992 0.78944 0.12799 0.0
H323 H 0.29833 0.77702 0.2343 0.0
S324 S 0.04069 0.73843 0.28599 0.0
N325 N 0.05621 0.7541 0.21019 0.0
N326 N 0.10844 0.73924 0.32478 0.0
C327 C 0.14751 0.75253 0.27588 0.0
C328 C 0.11905 0.76082 0.21387 0.0
C329 C 0.87993 0.04134 0.61005 0.0
C330 C 0.91848 0.06208 0.6543 0.0
C331 C 0.88581 0.04669 0.54152 0.0
C332 C 0.92999 0.07323 0.51438 0.0
H333 H 0.84823 1.01859 0.62787 0.0
H334 H 0.85792 1.02816 0.50955 0.0
S335 S 0.03175 0.14124 0.60945 0.0
N336 N 0.99458 0.11503 0.6666 0.0
N337 N 1.00553 0.12516 0.53779 0.0
C338 C 0.9638 0.09727 0.55828 0.0
C339 C 0.95798 0.09169 0.62823 0.0
C340 C 0.71636 0.72362 0.31728 0.0
C341 C 0.69304 0.69326 0.27683 0.0
C342 C 0.75133 0.71527 0.37407 0.0
C343 C 0.76488 0.67632 0.3918 0.0
H344 H 0.70823 0.75411 0.30465 0.0
H345 H 0.76919 0.73944 0.40334 0.0
S346 S 0.71129 0.58645 0.30565 0.0
N347 N 0.68315 0.62274 0.26114 0.0
N348 N 0.75018 0.60719 0.36673 0.0
C349 C 0.74112 0.64577 0.35263 0.0
C350 C 0.70462 0.6542 0.29562 0.0
C351 C 0.39382 0.05657 0.07859 0.0
C352 C 0.43681 0.0327 0.11228 0.0
C353 C 0.39544 0.05988 0.00949 0.0
C354 C 0.44032 0.03952 0.97099 0.0
H355 H 0.35619 0.07124 0.10529 0.0
H356 H 0.35911 0.07698 0.98607 0.0
S357 S 0.57102 0.97923 0.03588 0.0
N358 N 0.5311 0.99281 0.10254 0.0
N359 N 0.5344 0.9991 0.97263 0.0
C360 C 0.48699 1.01835 1.00439 0.0
C361 C 0.48524 1.01488 0.07496 0.0
C362 C 0.03918 0.79529 0.75526 0.0
C363 C 0.03177 0.75705 0.78092 0.0
C364 C 0.07048 0.80189 0.69494 0.0
C365 C 0.09464 0.77055 0.65704 0.0
H366 H 0.02481 0.82066 0.78402 0.0
H367 H 0.0784 0.83207 0.67977 0.0
S368 S 0.07758 0.66439 0.69695 0.0
N369 N 0.04443 0.68714 0.76045 0.0
N370 N 0.10182 0.6994 0.64592 0.0
C371 C 0.08299 0.73196 0.67957 0.0
C372 C 0.05177 0.72527 0.74163 0.0
C373 C 0.47989 0.46677 0.46409 0.0
C374 C 0.45721 0.43586 0.42452 0.0
C375 C 0.46625 0.46824 0.53244 0.0
C376 C 0.4289 0.4392 0.56331 0.0
H377 H 0.50453 0.4913 0.44151 0.0
H378 H 0.48136 0.49359 0.55997 0.0
S379 S 0.36909 0.34838 0.4833 0.0
N380 N 0.40405 0.37281 0.42267 0.0
N381 N 0.3781 0.37543 0.55037 0.0
C382 C 0.41112 0.40639 0.52514 0.0
C383 C 0.42525 0.40484 0.45596 0.0
C384 C 0.28365 0.37855 0.02072 0.0
C385 C 0.27354 0.34486 0.06 0.0
C386 C 0.31159 0.4126 0.04671 0.0
C387 C 0.32979 0.41479 0.11346 0.0
H388 H 0.27193 0.37825 0.96869 0.0
H389 H 0.3204 0.43711 0.01355 0.0
S390 S 0.30754 0.33605 0.23931 0.0
N391 N 0.27982 0.3168 0.1705 0.0
N392 N 0.33145 0.38083 0.21951 0.0
C393 C 0.31698 0.38199 0.15423 0.0
C394 C 0.28925 0.34706 0.12747 0.0
C395 C 0.24034 0.10416 0.38382 0.0
C396 C 0.22474 0.1117 0.45045 0.0
C397 C 0.26475 0.06788 0.36367 0.0
C398 C 0.27688 0.03785 0.4097 0.0
H399 H 0.2353 0.12694 0.34681 0.0
H400 H 0.27729 0.06429 0.31191 0.0
S401 S 0.24329 0.04239 0.59058 0.0
N402 N 0.22028 0.08547 0.56227 0.0
N403 N 0.26944 1.01785 0.52539 0.0
C404 C 0.25989 0.04455 0.4765 0.0
C405 C 0.23319 0.08131 0.49665 0.0
C406 C 0.37436 0.13835 0.60763 0.0
C407 C 0.37572 0.14823 0.67533 0.0
C408 C 0.40149 0.16314 0.55924 0.0
C409 C 0.43049 0.19901 0.57641 0.0
H410 H 0.35584 0.11017 0.59212 0.0
H411 H 0.40209 0.15324 0.50828 0.0
S412 S 0.43692 0.24127 0.74586 0.0
N413 N 0.40143 0.19847 0.75604 0.0
N414 N 0.45177 0.24505 0.66572 0.0
C415 C 0.42732 0.21064 0.64337 0.0
C416 C 0.40015 0.18527 0.69257 0.0
C417 C 0.67528 0.41793 0.76545 0.0
C418 C 0.62642 0.4015 0.72792 0.0
C419 C 0.70771 0.39532 0.81217 0.0
C420 C 0.69293 0.35539 0.82261 0.0
H421 H 0.68659 0.44887 0.76136 0.0
H422 H 0.74303 0.4096 0.8419 0.0
S423 S 0.58085 0.29612 0.72439 0.0
N424 N 0.57292 0.3413 0.69603 0.0
N425 N 0.63429 0.29883 0.78263 0.0
C426 C 0.64841 0.33783 0.7809 0.0
C427 C 0.61532 0.36083 0.73369 0.0
C428 C 0.1273 0.06018 0.01825 0.0
C429 C 0.16192 0.08604 0.97736 0.0
C430 C 0.09106 0.0297 0.99134 0.0
C431 C 0.08868 1.02338 0.9224 0.0
H432 H 0.12553 0.0647 0.07133 0.0
H433 H 0.06272 1.01201 0.02494 0.0
S434 S 0.18399 0.07625 0.79584 0.0
N435 N 0.20018 0.09914 0.86573 0.0
N436 N 0.1329 0.0414 0.81517 0.0
C437 C 0.12738 0.04693 0.88155 0.0
C438 C 0.16379 0.07831 0.90897 0.0
C439 C 0.93432 0.32538 0.70797 0.0
C440 C 0.96834 0.33623 0.76431 0.0
C441 C 0.95756 0.29684 0.66367 0.0
C442 C 1.01584 0.27821 0.67393 0.0
H443 H 0.89177 0.34091 0.69552 0.0
H444 H 0.93116 0.291 0.61924 0.0
S445 S 0.11733 0.29233 0.82031 0.0
N446 N 0.05863 0.32297 0.83252 0.0
N447 N 0.10274 0.26973 0.74982 0.0
C448 C 0.04754 0.28673 0.73308 0.0
C449 C 0.02374 0.31567 0.77798 0.0
C450 C 0.66425 0.47178 0.48015 0.0
C451 C 0.67857 0.47336 0.41191 0.0
C452 C 0.63057 0.44021 0.50762 0.0
C453 C 0.60834 0.40937 0.46805 0.0
H454 H 0.68258 0.49376 0.51364 0.0
H455 H 0.62458 0.439 0.56077 0.0
S456 S 0.62381 0.40259 0.285 0.0
N457 N 0.66119 0.44358 0.30414 0.0
N458 N 0.59665 0.38462 0.35574 0.0
C459 C 0.61715 0.41233 0.39892 0.0
C460 C 0.65243 0.44428 0.37089 0.0
C461 C 0.85199 0.14423 0.19003 0.0
C462 C 0.91204 0.12712 0.19279 0.0
C463 C 0.83472 0.16842 0.13732 0.0
C464 C 0.87703 0.1772 0.08542 0.0
H465 H 0.81714 0.13832 0.22829 0.0
H466 H 0.78772 0.18052 0.13758 0.0
S467 S 0.04011 0.14103 0.06863 0.0
N468 N 1.0139 0.12079 0.13804 0.0
N469 N 0.98201 0.16795 0.04037 0.0
C470 C 0.93776 0.1614 0.08813 0.0
C471 C 0.95514 0.13598 0.14139 0.0
C472 C 0.7747 0.84309 0.62284 0.0
C473 C 0.81848 0.82323 0.58255 0.0
C474 C 0.79344 0.87338 0.66535 0.0
C475 C 0.85679 0.88524 0.66951 0.0
H476 H 0.72581 0.83415 0.62375 0.0
H477 H 0.75787 0.88695 0.69646 0.0
S478 S 0.98825 0.84699 0.56635 0.0
N479 N 0.92705 0.8203 0.54424 0.0
N480 N 0.96223 0.8775 0.62399 0.0
C481 C 0.9007 0.8669 0.62723 0.0
C482 C 0.88154 0.83592 0.5838 0.0
C483 C 0.70682 0.53709 0.06261 0.0
C484 C 0.68625 0.56958 0.02587 0.0
C485 C 0.74007 0.5063 0.0323 0.0
C486 C 0.75335 0.50632 0.96369 0.0
H487 H 0.69851 0.53581 0.1156 0.0
H488 H 0.75627 0.48254 0.06337 0.0
S489 S 0.70389 0.58302 0.84417 0.0
N490 N 0.67779 0.59892 0.91657 0.0
N491 N 0.73922 0.54088 0.85931 0.0
C492 C 0.73068 0.53799 0.92592 0.0
C493 C 0.69753 0.56964 0.95705 0.0
C494 C 0.97915 0.63849 0.20079 0.0
C495 C 0.91437 0.63061 0.20521 0.0
C496 C 1.00424 0.66283 0.15126 0.0
C497 C 0.96569 0.68121 0.10445 0.0
H498 H 1.01129 0.6252 0.23534 0.0
H499 H 0.05452 0.6678 0.15071 0.0
S500 S 0.79242 0.67091 0.095 0.0
N501 N 0.81174 0.64294 0.15844 0.0
N502 N 0.85876 0.69006 0.06615 0.0
C503 C 0.90053 0.67395 0.10847 0.0
C504 C 0.87497 0.6483 0.1585 0.0
C505 C 0.16325 0.8923 0.36061 0.0
C506 C 0.18101 0.88273 0.42545 0.0
C507 C 0.13513 0.92842 0.34597 0.0
C508 C 0.1224 0.95624 0.39593 0.0
H509 H 0.16824 0.87078 0.32133 0.0
H510 H 0.12002 0.93349 0.2957 0.0
S511 S 0.16371 0.94591 0.57354 0.0
N512 N 0.18817 0.90458 0.53924 0.0
N513 N 0.13425 0.97237 0.51281 0.0
C514 C 0.14369 0.94793 0.46047 0.0
C515 C 0.17321 0.91118 0.47501 0.0
C516 C 0.56736 0.57041 0.388 0.0
C517 C 0.53507 0.5852 0.33333 0.0
C518 C 0.59384 0.59544 0.43471 0.0
C519 C 0.59081 0.63661 0.42791 0.0
H520 H 0.57427 0.53904 0.39351 0.0
H521 H 0.61965 0.58207 0.47469 0.0
S522 S 0.50699 0.69013 0.29547 0.0
N523 N 0.49725 0.64322 0.27663 0.0
N524 N 0.54858 0.69102 0.36405 0.0
C525 C 0.55607 0.65192 0.37482 0.0
C526 C 0.52798 0.62604 0.32747 0.0
C527 C 0.47715 0.79923 0.1927 0.0
C528 C 0.45795 0.7856 0.13036 0.0
C529 C 0.4516 0.83338 0.22075 0.0
C530 C 0.40655 0.85576 0.18707 0.0
H531 H 0.51317 0.7838 0.2197 0.0
H532 H 0.46968 0.84325 0.26782 0.0
S533 S 0.33621 0.83099 0.02506 0.0
N534 N 0.3874 0.79553 0.038 0.0
N535 N 0.34031 0.86018 0.09017 0.0
C536 C 0.3848 0.84151 0.12606 0.0
C537 C 0.41021 0.80633 0.09787 0.0
C538 C 0.18886 0.93565 0.8644 0.0
C539 C 0.25149 0.92954 0.84461 0.0
C540 C 0.15068 0.90415 0.88591 0.0
C541 C 0.17343 0.86526 0.8867 0.0
H542 H 0.17004 0.96509 0.86533 0.0
H543 H 0.10305 0.91032 0.90204 0.0
S544 S 0.33312 0.83354 0.83424 0.0
N545 N 0.33385 0.8817 0.82424 0.0
N546 N 0.26213 0.82251 0.86247 0.0
C547 C 0.23543 0.85873 0.86455 0.0
C548 C 0.27447 0.89085 0.84411 0.0
C549 C 0.406 0.68308 0.59488 0.0
C550 C 0.38307 0.67545 0.53108 0.0
C551 C 0.43941 0.65448 0.63004 0.0
C552 C 0.45274 0.61736 0.60244 0.0
H553 H 0.39505 0.71051 0.61958 0.0
H554 H 0.45263 0.66107 0.68042 0.0
S555 S 0.40679 0.58321 0.43548 0.0
N556 N 0.37929 0.62843 0.44029 0.0
N557 N 0.44274 0.5752 0.50609 0.0
C558 C 0.43355 0.61017 0.53717 0.0
C559 C 0.39867 0.63908 0.50161 0.0
loop_
_geom_bond_atom_site_label_1
_geom_bond_atom_site_label_2
_geom_bond_distance
_geom_bond_site_symmetry_2
_ccdc_geom_bond_type
Mg0 O7 2.141 1_554 S
Mg0 O8 2.048 1_554 S
Mg0 O9 2.048 . S
Mg0 O12 2.141 . S
C1 O2 1.313 1_556 S
C1 O8 1.195 . S
O2 C1 1.313 1_554 S
C3 O4 1.245 . S
C3 O12 1.289 . S
O4 C3 1.245 . S
C5 O6 1.245 . S
C5 O7 1.289 . S
O6 C5 1.245 . S
O7 Mg0 2.141 1_556 S
O7 C5 1.289 . S
O8 Mg0 2.048 1_556 S
O8 C1 1.195 . S
O9 Mg0 2.048 . S
O9 C10 1.195 . S
C10 O9 1.195 . S
C10 O11 1.313 . S
O11 C10 1.313 . S
O12 Mg0 2.141 . S
O12 C3 1.289 . S
Mg13 O20 2.141 . S
Mg13 O21 2.048 . S
Mg13 O22 2.048 . S
Mg13 O25 2.141 1_565 S
C14 O15 1.313 . S
C14 O21 1.195 . S
O15 C14 1.313 . S
C16 O17 1.245 1_545 S
C16 O25 1.289 . S
O17 C16 1.245 1_565 S
C18 O19 1.245 . S
C18 O20 1.289 . S
O19 C18 1.245 . S
O20 Mg13 2.141 . S
O20 C18 1.289 . S
O21 Mg13 2.048 . S
O21 C14 1.195 . S
O22 Mg13 2.048 . S
O22 C23 1.195 . S
C23 O22 1.195 . S
C23 O24 1.313 . S
O24 C23 1.313 . S
O25 Mg13 2.141 1_545 S
O25 C16 1.289 . S
Mg26 O33 2.141 . S
Mg26 O34 2.048 . S
Mg26 O35 2.048 . S
Mg26 O38 2.141 . S
C27 O28 1.313 . S
C27 O34 1.195 . S
O28 C27 1.313 . S
C29 O30 1.245 . S
C29 O38 1.289 . S
O30 C29 1.245 . S
C31 O32 1.245 . S
C31 O33 1.289 . S
O32 C31 1.245 . S
O33 Mg26 2.141 . S
O33 C31 1.289 . S
O34 Mg26 2.048 . S
O34 C27 1.195 . S
O35 Mg26 2.048 . S
O35 C36 1.195 . S
C36 O35 1.195 . S
C36 O37 1.313 . S
O37 C36 1.313 . S
O38 Mg26 2.141 . S
O38 C29 1.289 . S
Mg39 O46 2.141 . S
Mg39 O47 2.048 . S
Mg39 O48 2.048 . S
Mg39 O51 2.141 . S
C40 O41 1.313 . S
C40 O47 1.195 . S
O41 C40 1.313 . S
C42 O43 1.245 . S
C42 O51 1.289 . S
O43 C42 1.245 . S
C44 O45 1.245 . S
C44 O46 1.289 . S
O45 C44 1.245 . S
O46 Mg39 2.141 . S
O46 C44 1.289 . S
O47 Mg39 2.048 . S
O47 C40 1.195 . S
O48 Mg39 2.048 . S
O48 C49 1.195 . S
C49 O48 1.195 . S
C49 O50 1.313 . S
O50 C49 1.313 . S
O51 Mg39 2.141 . S
O51 C42 1.289 . S
Mg52 O59 2.141 . S
Mg52 O60 2.048 . S
Mg52 O61 2.048 . S
Mg52 O64 2.141 . S
C53 O54 1.313 . S
C53 O60 1.195 . S
O54 C53 1.313 . S
C55 O56 1.245 . S
C55 O64 1.289 . S
O56 C55 1.245 . S
C57 O58 1.245 . S
C57 O59 1.289 . S
O58 C57 1.245 . S
O59 Mg52 2.141 . S
O59 C57 1.289 . S
O60 Mg52 2.048 . S
O60 C53 1.195 . S
O61 Mg52 2.048 . S
O61 C62 1.195 . S
C62 O61 1.195 . S
C62 O63 1.313 . S
O63 C62 1.313 . S
O64 Mg52 2.141 . S
O64 C55 1.289 . S
Mg65 O72 2.141 . S
Mg65 O73 2.048 . S
Mg65 O74 2.048 . S
Mg65 O77 2.141 1_565 S
C66 O67 1.313 . S
C66 O73 1.195 . S
O67 C66 1.313 . S
C68 O69 1.245 1_545 S
C68 O77 1.289 . S
O69 C68 1.245 1_565 S
C70 O71 1.245 . S
C70 O72 1.289 . S
O71 C70 1.245 . S
O72 Mg65 2.141 . S
O72 C70 1.289 . S
O73 Mg65 2.048 . S
O73 C66 1.195 . S
O74 Mg65 2.048 . S
O74 C75 1.195 . S
C75 O74 1.195 . S
C75 O76 1.313 . S
O76 C75 1.313 . S
O77 Mg65 2.141 1_545 S
O77 C68 1.289 . S
Mg78 O85 2.141 1_554 S
Mg78 O86 2.048 1_554 S
Mg78 O87 2.048 . S
Mg78 O90 2.141 . S
C79 O80 1.313 1_556 S
C79 O86 1.195 . S
O80 C79 1.313 1_554 S
C81 O82 1.245 . S
C81 O90 1.289 . S
O82 C81 1.245 . S
C83 O84 1.245 . S
C83 O85 1.289 . S
O84 C83 1.245 . S
O85 Mg78 2.141 1_556 S
O85 C83 1.289 . S
O86 Mg78 2.048 1_556 S
O86 C79 1.195 . S
O87 Mg78 2.048 . S
O87 C88 1.195 . S
C88 O87 1.195 . S
C88 O89 1.313 . S
O89 C88 1.313 . S
O90 Mg78 2.141 . S
O90 C81 1.289 . S
Mg91 O98 2.141 . S
Mg91 O99 2.048 . S
Mg91 O100 2.048 . S
Mg91 O103 2.141 . S
C92 O93 1.313 . S
C92 O99 1.195 . S
O93 C92 1.313 . S
C94 O95 1.245 . S
C94 O103 1.289 . S
O95 C94 1.245 . S
C96 O97 1.245 . S
C96 O98 1.289 . S
O97 C96 1.245 . S
O98 Mg91 2.141 . S
O98 C96 1.289 . S
O99 Mg91 2.048 . S
O99 C92 1.195 . S
O100 Mg91 2.048 . S
O100 C101 1.195 . S
C101 O100 1.195 . S
C101 O102 1.313 . S
O102 C101 1.313 . S
O103 Mg91 2.141 . S
O103 C94 1.289 . S
Mg104 O111 2.141 . S
Mg104 O112 2.048 . S
Mg104 O113 2.048 . S
Mg104 O116 2.141 . S
C105 O106 1.313 . S
C105 O112 1.195 . S
O106 C105 1.313 . S
C107 O108 1.245 . S
C107 O116 1.289 . S
O108 C107 1.245 . S
C109 O110 1.245 . S
C109 O111 1.289 . S
O110 C109 1.245 . S
O111 Mg104 2.141 . S
O111 C109 1.289 . S
O112 Mg104 2.048 . S
O112 C105 1.195 . S
O113 Mg104 2.048 . S
O113 C114 1.195 . S
C114 O113 1.195 . S
C114 O115 1.313 . S
O115 C114 1.313 . S
O116 Mg104 2.141 . S
O116 C107 1.289 . S
Mg117 O124 2.141 . S
Mg117 O125 2.048 1_565 S
Mg117 O126 2.048 . S
Mg117 O129 2.141 . S
C118 O119 1.313 . S
C118 O125 1.195 . S
O119 C118 1.313 . S
C120 O121 1.245 1_655 S
C120 O129 1.289 . S
O121 C120 1.245 1_455 S
C122 O123 1.245 . S
C122 O124 1.289 . S
O123 C122 1.245 . S
O124 Mg117 2.141 . S
O124 C122 1.289 . S
O125 Mg117 2.048 1_545 S
O125 C118 1.195 . S
O126 Mg117 2.048 . S
O126 C127 1.195 . S
C127 O126 1.195 . S
C127 O128 1.313 1_565 S
O128 C127 1.313 1_545 S
O129 Mg117 2.141 . S
O129 C120 1.289 . S
Mg130 O137 2.141 . S
Mg130 O138 2.048 . S
Mg130 O139 2.048 . S
Mg130 O142 2.141 . S
C131 O132 1.313 . S
C131 O138 1.195 . S
O132 C131 1.313 . S
C133 O134 1.245 1_655 S
C133 O142 1.289 . S
O134 C133 1.245 1_455 S
C135 O136 1.245 . S
C135 O137 1.289 . S
O136 C135 1.245 . S
O137 Mg130 2.141 . S
O137 C135 1.289 . S
O138 Mg130 2.048 . S
O138 C131 1.195 . S
O139 Mg130 2.048 . S
O139 C140 1.195 . S
C140 O139 1.195 . S
C140 O141 1.313 . S
O141 C140 1.313 . S
O142 Mg130 2.141 . S
O142 C133 1.289 . S
Mg143 O150 2.141 . S
Mg143 O151 2.048 . S
Mg143 O152 2.048 1_565 S
Mg143 O155 2.141 . S
C144 O145 1.313 . S
C144 O151 1.195 . S
O145 C144 1.313 . S
C146 O147 1.245 . S
C146 O155 1.289 . S
O147 C146 1.245 . S
C148 O149 1.245 . S
C148 O150 1.289 . S
O149 C148 1.245 . S
O150 Mg143 2.141 . S
O150 C148 1.289 . S
O151 Mg143 2.048 . S
O151 C144 1.195 . S
O152 Mg143 2.048 1_545 S
O152 C153 1.195 . S
C153 O152 1.195 . S
C153 O154 1.313 1_655 S
O154 C153 1.313 1_455 S
O155 Mg143 2.141 . S
O155 C146 1.289 . S
Mg156 O163 2.141 . S
Mg156 O164 2.048 . S
Mg156 O165 2.048 . S
Mg156 O168 2.141 . S
C157 O158 1.313 . S
C157 O164 1.195 . S
O158 C157 1.313 . S
C159 O160 1.245 . S
C159 O168 1.289 . S
O160 C159 1.245 . S
C161 O162 1.245 . S
C161 O163 1.289 . S
O162 C161 1.245 . S
O163 Mg156 2.141 . S
O163 C161 1.289 . S
O164 Mg156 2.048 . S
O164 C157 1.195 . S
O165 Mg156 2.048 . S
O165 C166 1.195 . S
C166 O165 1.195 . S
C166 O167 1.313 . S
O167 C166 1.313 . S
O168 Mg156 2.141 . S
O168 C159 1.289 . S
Mg169 O176 2.141 1_554 S
Mg169 O177 2.048 1_554 S
Mg169 O178 2.048 . S
Mg169 O181 2.141 . S
C170 O171 1.313 . S
C170 O177 1.195 . S
O171 C170 1.313 . S
C172 O173 1.245 . S
C172 O181 1.289 . S
O173 C172 1.245 . S
C174 O175 1.245 . S
C174 O176 1.289 . S
O175 C174 1.245 . S
O176 Mg169 2.141 1_556 S
O176 C174 1.289 . S
O177 Mg169 2.048 1_556 S
O177 C170 1.195 . S
O178 Mg169 2.048 . S
O178 C179 1.195 . S
C179 O178 1.195 . S
C179 O180 1.313 . S
O180 C179 1.313 . S
O181 Mg169 2.141 . S
O181 C172 1.289 . S
Mg182 O189 2.141 1_554 S
Mg182 O190 2.048 1_554 S
Mg182 O191 2.048 . S
Mg182 O194 2.141 . S
C183 O184 1.313 1_556 S
C183 O190 1.195 . S
O184 C183 1.313 1_554 S
C185 O186 1.245 . S
C185 O194 1.289 . S
O186 C185 1.245 . S
C187 O188 1.245 . S
C187 O189 1.289 . S
O188 C187 1.245 . S
O189 Mg182 2.141 1_556 S
O189 C187 1.289 . S
O190 Mg182 2.048 1_556 S
O190 C183 1.195 . S
O191 Mg182 2.048 . S
O191 C192 1.195 . S
C192 O191 1.195 . S
C192 O193 1.313 . S
O193 C192 1.313 . S
O194 Mg182 2.141 . S
O194 C185 1.289 . S
Mg195 O202 2.141 . S
Mg195 O203 2.048 . S
Mg195 O204 2.048 . S
Mg195 O207 2.141 . S
C196 O197 1.313 . S
C196 O203 1.195 . S
O197 C196 1.313 . S
C198 O199 1.245 . S
C198 O207 1.289 . S
O199 C198 1.245 . S
C200 O201 1.245 . S
C200 O202 1.289 . S
O201 C200 1.245 . S
O202 Mg195 2.141 . S
O202 C200 1.289 . S
O203 Mg195 2.048 . S
O203 C196 1.195 . S
O204 Mg195 2.048 . S
O204 C205 1.195 . S
C205 O204 1.195 . S
C205 O206 1.313 . S
O206 C205 1.313 . S
O207 Mg195 2.141 . S
O207 C198 1.289 . S
C208 C209 1.369 . S
C208 C210 1.419 . S
C208 H212 0.930 . S
C209 C208 1.369 . S
C209 C218 1.429 . S
C210 C208 1.419 . S
C210 C211 1.363 . S
C210 H213 0.929 . S
C211 C210 1.363 . S
C211 C217 1.428 . S
H212 C208 0.930 . S
H213 C210 0.929 . S
S214 N215 1.613 . S
S214 N216 1.610 . S
N215 S214 1.613 . S
N215 C218 1.350 . S
N216 S214 1.610 . S
N216 C217 1.351 . S
C217 C211 1.428 . S
C217 N216 1.351 . S
C217 C218 1.434 . S
C218 C209 1.429 . S
C218 N215 1.350 . S
C218 C217 1.434 . S
C219 C220 1.369 . S
C219 C221 1.419 . S
C219 H223 0.930 . S
C220 C219 1.369 . S
C220 C229 1.429 . S
C221 C219 1.419 . S
C221 C222 1.363 . S
C221 H224 0.929 . S
C222 C221 1.363 . S
C222 C228 1.428 . S
H223 C219 0.930 . S
H224 C221 0.929 . S
S225 N226 1.613 . S
S225 N227 1.610 . S
N226 S225 1.613 . S
N226 C229 1.350 . S
N227 S225 1.610 . S
N227 C228 1.351 . S
C228 C222 1.428 . S
C228 N227 1.351 . S
C228 C229 1.434 . S
C229 C220 1.429 . S
C229 N226 1.350 . S
C229 C228 1.434 . S
C230 C231 1.369 . S
C230 C232 1.419 . S
C230 H234 0.930 . S
C231 C230 1.369 . S
C231 C240 1.429 . S
C232 C230 1.419 . S
C232 C233 1.363 . S
C232 H235 0.929 . S
C233 C232 1.363 . S
C233 C239 1.428 . S
H234 C230 0.930 . S
H235 C232 0.929 . S
S236 N237 1.613 . S
S236 N238 1.610 . S
N237 S236 1.613 . S
N237 C240 1.350 . S
N238 S236 1.610 . S
N238 C239 1.351 . S
C239 C233 1.428 . S
C239 N238 1.351 . S
C239 C240 1.434 . S
C240 C231 1.429 . S
C240 N237 1.350 . S
C240 C239 1.434 . S
C241 C242 1.369 . S
C241 C243 1.419 1_556 S
C241 H245 0.930 . S
C242 C241 1.369 . S
C242 C251 1.429 . S
C243 C241 1.419 1_554 S
C243 C244 1.363 . S
C243 H246 0.929 . S
C244 C243 1.363 . S
C244 C250 1.428 . S
H245 C241 0.930 . S
H246 C243 0.929 . S
S247 N248 1.613 . S
S247 N249 1.610 1_556 S
N248 S247 1.613 . S
N248 C251 1.350 . S
N249 S247 1.610 1_554 S
N249 C250 1.351 . S
C250 C244 1.428 . S
C250 N249 1.351 . S
C250 C251 1.434 1_554 S
C251 C242 1.429 . S
C251 N248 1.350 . S
C251 C250 1.434 1_556 S
C252 C253 1.369 . S
C252 C254 1.419 . S
C252 H256 0.930 . S
C253 C252 1.369 . S
C253 C262 1.429 . S
C254 C252 1.419 . S
C254 C255 1.363 . S
C254 H257 0.929 . S
C255 C254 1.363 . S
C255 C261 1.428 . S
H256 C252 0.930 . S
H257 C254 0.929 . S
S258 N259 1.613 . S
S258 N260 1.610 . S
N259 S258 1.613 . S
N259 C262 1.350 . S
N260 S258 1.610 . S
N260 C261 1.351 . S
C261 C255 1.428 . S
C261 N260 1.351 . S
C261 C262 1.434 . S
C262 C253 1.429 . S
C262 N259 1.350 . S
C262 C261 1.434 . S
C263 C264 1.369 . S
C263 C265 1.419 . S
C263 H267 0.930 . S
C264 C263 1.369 . S
C264 C273 1.429 . S
C265 C263 1.419 . S
C265 C266 1.363 . S
C265 H268 0.929 . S
C266 C265 1.363 . S
C266 C272 1.428 . S
H267 C263 0.930 . S
H268 C265 0.929 . S
S269 N270 1.613 . S
S269 N271 1.610 . S
N270 S269 1.613 . S
N270 C273 1.350 . S
N271 S269 1.610 . S
N271 C272 1.351 . S
C272 C266 1.428 . S
C272 N271 1.351 . S
C272 C273 1.434 . S
C273 C264 1.429 . S
C273 N270 1.350 . S
C273 C272 1.434 . S
C274 C275 1.369 . S
C274 C276 1.419 . S
C274 H278 0.930 . S
C275 C274 1.369 . S
C275 C284 1.429 . S
C276 C274 1.419 . S
C276 C277 1.363 . S
C276 H279 0.929 . S
C277 C276 1.363 . S
C277 C283 1.428 . S
H278 C274 0.930 . S
H279 C276 0.929 . S
S280 N281 1.613 . S
S280 N282 1.610 . S
N281 S280 1.613 . S
N281 C284 1.350 . S
N282 S280 1.610 . S
N282 C283 1.351 . S
C283 C277 1.428 . S
C283 N282 1.351 . S
C283 C284 1.434 . S
C284 C275 1.429 . S
C284 N281 1.350 . S
C284 C283 1.434 . S
C285 C286 1.369 . S
C285 C287 1.419 1_554 S
C285 H289 0.930 1_655 S
C286 C285 1.369 . S
C286 C295 1.429 . S
C287 C285 1.419 1_556 S
C287 C288 1.363 . S
C287 H290 0.929 . S
C288 C287 1.363 . S
C288 C294 1.428 1_556 S
H289 C285 0.930 1_455 S
H290 C287 0.929 . S
S291 N292 1.613 . S
S291 N293 1.610 . S
N292 S291 1.613 . S
N292 C295 1.350 . S
N293 S291 1.610 . S
N293 C294 1.351 . S
C294 C288 1.428 1_554 S
C294 N293 1.351 . S
C294 C295 1.434 . S
C295 C286 1.429 . S
C295 N292 1.350 . S
C295 C294 1.434 . S
C296 C297 1.369 . S
C296 C298 1.419 . S
C296 H300 0.930 . S
C297 C296 1.369 . S
C297 C306 1.429 . S
C298 C296 1.419 . S
C298 C299 1.363 . S
C298 H301 0.929 . S
C299 C298 1.363 . S
C299 C305 1.428 . S
H300 C296 0.930 . S
H301 C298 0.929 . S
S302 N303 1.613 . S
S302 N304 1.610 . S
N303 S302 1.613 . S
N303 C306 1.350 . S
N304 S302 1.610 . S
N304 C305 1.351 . S
C305 C299 1.428 . S
C305 N304 1.351 . S
C305 C306 1.434 . S
C306 C297 1.429 . S
C306 N303 1.350 . S
C306 C305 1.434 . S
C307 C308 1.369 . S
C307 C309 1.419 1_556 S
C307 H311 0.930 . S
C308 C307 1.369 . S
C308 C317 1.429 . S
C309 C307 1.419 1_554 S
C309 C310 1.363 . S
C309 H312 0.929 . S
C310 C309 1.363 . S
C310 C316 1.428 . S
H311 C307 0.930 . S
H312 C309 0.929 . S
S313 N314 1.613 1_454 S
S313 N315 1.610 1_455 S
N314 S313 1.613 1_656 S
N314 C317 1.350 . S
N315 S313 1.610 1_655 S
N315 C316 1.351 . S
C316 C310 1.428 . S
C316 N315 1.351 . S
C316 C317 1.434 1_554 S
C317 C308 1.429 . S
C317 N314 1.350 . S
C317 C316 1.434 1_556 S
C318 C319 1.369 . S
C318 C320 1.419 . S
C318 H322 0.930 . S
C319 C318 1.369 . S
C319 C328 1.429 . S
C320 C318 1.419 . S
C320 C321 1.363 . S
C320 H323 0.929 . S
C321 C320 1.363 . S
C321 C327 1.428 . S
H322 C318 0.930 . S
H323 C320 0.929 . S
S324 N325 1.613 . S
S324 N326 1.610 . S
N325 S324 1.613 . S
N325 C328 1.350 . S
N326 S324 1.610 . S
N326 C327 1.351 . S
C327 C321 1.428 . S
C327 N326 1.351 . S
C327 C328 1.434 . S
C328 C319 1.429 . S
C328 N325 1.350 . S
C328 C327 1.434 . S
C329 C330 1.369 . S
C329 C331 1.419 . S
C329 H333 0.930 . S
C330 C329 1.369 . S
C330 C339 1.424 1_565 S
C331 C329 1.419 . S
C331 C332 1.363 . S
C331 H334 0.929 . S
C332 C331 1.363 . S
C332 C338 1.425 1_565 S
H333 C329 0.930 . S
H334 C331 0.929 . S
S335 N336 1.613 . S
S335 N337 1.610 . S
N336 S335 1.613 . S
N336 C339 1.356 1_455 S
N337 S335 1.610 . S
N337 C338 1.356 1_455 S
C338 C332 1.425 1_545 S
C338 N337 1.356 1_655 S
C338 C339 1.434 . S
C339 C330 1.424 1_545 S
C339 N336 1.356 1_655 S
C339 C338 1.434 . S
C340 C341 1.369 . S
C340 C342 1.419 . S
C340 H344 0.930 . S
C341 C340 1.369 . S
C341 C350 1.429 . S
C342 C340 1.419 . S
C342 C343 1.363 . S
C342 H345 0.929 . S
C343 C342 1.363 . S
C343 C349 1.428 . S
H344 C340 0.930 . S
H345 C342 0.929 . S
S346 N347 1.613 . S
S346 N348 1.610 . S
N347 S346 1.613 . S
N347 C350 1.350 . S
N348 S346 1.610 . S
N348 C349 1.351 . S
C349 C343 1.428 . S
C349 N348 1.351 . S
C349 C350 1.434 . S
C350 C341 1.429 . S
C350 N347 1.350 . S
C350 C349 1.434 . S
C351 C352 1.369 . S
C351 C353 1.419 1_554 S
C351 H355 0.930 . S
C352 C351 1.369 . S
C352 C361 1.429 . S
C353 C351 1.419 1_556 S
C353 C354 1.363 . S
C353 H356 0.929 . S
C354 C353 1.363 . S
C354 C360 1.428 1_556 S
H355 C351 0.930 . S
H356 C353 0.929 . S
S357 N358 1.613 . S
S357 N359 1.610 . S
N358 S357 1.613 . S
N358 C361 1.350 . S
N359 S357 1.610 . S
N359 C360 1.351 . S
C360 C354 1.428 1_554 S
C360 N359 1.351 . S
C360 C361 1.434 . S
C361 C352 1.429 . S
C361 N358 1.350 . S
C361 C360 1.434 . S
C362 C363 1.369 . S
C362 C364 1.419 . S
C362 H366 0.930 . S
C363 C362 1.369 . S
C363 C372 1.429 . S
C364 C362 1.419 . S
C364 C365 1.363 . S
C364 H367 0.929 . S
C365 C364 1.363 . S
C365 C371 1.428 . S
H366 C362 0.930 . S
H367 C364 0.929 . S
S368 N369 1.613 . S
S368 N370 1.610 . S
N369 S368 1.613 . S
N369 C372 1.350 . S
N370 S368 1.610 . S
N370 C371 1.351 . S
C371 C365 1.428 . S
C371 N370 1.351 . S
C371 C372 1.434 . S
C372 C363 1.429 . S
C372 N369 1.350 . S
C372 C371 1.434 . S
C373 C374 1.369 . S
C373 C375 1.419 . S
C373 H377 0.930 . S
C374 C373 1.369 . S
C374 C383 1.429 . S
C375 C373 1.419 . S
C375 C376 1.363 . S
C375 H378 0.929 . S
C376 C375 1.363 . S
C376 C382 1.428 . S
H377 C373 0.930 . S
H378 C375 0.929 . S
S379 N380 1.613 . S
S379 N381 1.610 . S
N380 S379 1.613 . S
N380 C383 1.350 . S
N381 S379 1.610 . S
N381 C382 1.351 . S
C382 C376 1.428 . S
C382 N381 1.351 . S
C382 C383 1.434 . S
C383 C374 1.429 . S
C383 N380 1.350 . S
C383 C382 1.434 . S
C384 C385 1.369 . S
C384 C386 1.419 . S
C384 H388 0.930 . S
C385 C384 1.369 . S
C385 C394 1.429 . S
C386 C384 1.419 . S
C386 C387 1.363 . S
C386 H389 0.929 . S
C387 C386 1.363 . S
C387 C393 1.428 . S
H388 C384 0.930 . S
H389 C386 0.929 . S
S390 N391 1.613 . S
S390 N392 1.610 . S
N391 S390 1.613 . S
N391 C394 1.350 . S
N392 S390 1.610 . S
N392 C393 1.351 . S
C393 C387 1.428 . S
C393 N392 1.351 . S
C393 C394 1.434 . S
C394 C385 1.429 . S
C394 N391 1.350 . S
C394 C393 1.434 . S
C395 C396 1.369 . S
C395 C397 1.419 . S
C395 H399 0.930 . S
C396 C395 1.369 . S
C396 C405 1.429 . S
C397 C395 1.419 . S
C397 C398 1.363 . S
C397 H400 0.929 . S
C398 C397 1.363 . S
C398 C404 1.428 . S
H399 C395 0.930 . S
H400 C397 0.929 . S
S401 N402 1.613 . S
S401 N403 1.610 . S
N402 S401 1.613 . S
N402 C405 1.350 . S
N403 S401 1.610 . S
N403 C404 1.351 . S
C404 C398 1.428 . S
C404 N403 1.351 . S
C404 C405 1.434 . S
C405 C396 1.429 . S
C405 N402 1.350 . S
C405 C404 1.434 . S
C406 C407 1.369 . S
C406 C408 1.419 . S
C406 H410 0.930 . S
C407 C406 1.369 . S
C407 C416 1.429 . S
C408 C406 1.419 . S
C408 C409 1.363 . S
C408 H411 0.929 . S
C409 C408 1.363 . S
C409 C415 1.428 . S
H410 C406 0.930 . S
H411 C408 0.929 . S
S412 N413 1.613 . S
S412 N414 1.610 . S
N413 S412 1.613 . S
N413 C416 1.350 . S
N414 S412 1.610 . S
N414 C415 1.351 . S
C415 C409 1.428 . S
C415 N414 1.351 . S
C415 C416 1.434 . S
C416 C407 1.429 . S
C416 N413 1.350 . S
C416 C415 1.434 . S
C417 C418 1.369 . S
C417 C419 1.419 . S
C417 H421 0.930 . S
C418 C417 1.369 . S
C418 C427 1.429 . S
C419 C417 1.419 . S
C419 C420 1.363 . S
C419 H422 0.921 1_556 S
C420 C419 1.363 . S
C420 C426 1.428 . S
H421 C417 0.930 . S
H422 C419 0.921 1_554 S
S423 N424 1.613 . S
S423 N425 1.610 . S
N424 S423 1.613 . S
N424 C427 1.350 . S
N425 S423 1.610 . S
N425 C426 1.351 . S
C426 C420 1.428 . S
C426 N425 1.351 . S
C426 C427 1.434 . S
C427 C418 1.429 . S
C427 N424 1.350 . S
C427 C426 1.434 . S
C428 C429 1.369 . S
C428 C430 1.419 1_455 S
C428 H432 0.922 1_556 S
C429 C428 1.369 . S
C429 C438 1.429 . S
C430 C428 1.419 1_655 S
C430 C431 1.363 . S
C430 H433 0.929 . S
C431 C430 1.363 . S
C431 C437 1.428 1_655 S
H432 C428 0.922 1_554 S
H433 C430 0.929 . S
S434 N435 1.613 . S
S434 N436 1.610 . S
N435 S434 1.613 . S
N435 C438 1.350 . S
N436 S434 1.610 . S
N436 C437 1.351 . S
C437 C431 1.428 1_455 S
C437 N436 1.351 . S
C437 C438 1.434 . S
C438 C429 1.429 . S
C438 N435 1.350 . S
C438 C437 1.434 . S
C439 C440 1.369 . S
C439 C441 1.419 . S
C439 H443 0.930 . S
C440 C439 1.369 . S
C440 C449 1.429 1_655 S
C441 C439 1.419 . S
C441 C442 1.363 1_655 S
C441 H444 0.929 . S
C442 C441 1.363 1_455 S
C442 C448 1.428 . S
H443 C439 0.930 . S
H444 C441 0.929 . S
S445 N446 1.613 . S
S445 N447 1.610 . S
N446 S445 1.613 . S
N446 C449 1.350 . S
N447 S445 1.610 . S
N447 C448 1.351 . S
C448 C442 1.428 . S
C448 N447 1.351 . S
C448 C449 1.434 . S
C449 C440 1.429 1_455 S
C449 N446 1.350 . S
C449 C448 1.434 . S
C450 C451 1.369 . S
C450 C452 1.419 . S
C450 H454 0.930 . S
C451 C450 1.369 . S
C451 C460 1.429 . S
C452 C450 1.419 . S
C452 C453 1.363 . S
C452 H455 0.929 . S
C453 C452 1.363 . S
C453 C459 1.428 . S
H454 C450 0.930 . S
H455 C452 0.929 . S
S456 N457 1.613 . S
S456 N458 1.610 . S
N457 S456 1.613 . S
N457 C460 1.350 . S
N458 S456 1.610 . S
N458 C459 1.351 . S
C459 C453 1.428 . S
C459 N458 1.351 . S
C459 C460 1.434 . S
C460 C451 1.429 . S
C460 N457 1.350 . S
C460 C459 1.434 . S
C461 C462 1.369 . S
C461 C463 1.419 . S
C461 H465 0.930 . S
C462 C461 1.369 . S
C462 C471 1.429 . S
C463 C461 1.419 . S
C463 C464 1.363 . S
C463 H466 0.929 . S
C464 C463 1.363 . S
C464 C470 1.428 . S
H465 C461 0.930 . S
H466 C463 0.929 . S
S467 N468 1.613 . S
S467 N469 1.610 . S
N468 S467 1.613 . S
N468 C471 1.350 . S
N469 S467 1.610 . S
N469 C470 1.351 . S
C470 C464 1.428 . S
C470 N469 1.351 . S
C470 C471 1.434 . S
C471 C462 1.429 . S
C471 N468 1.350 . S
C471 C470 1.434 . S
C472 C473 1.369 . S
C472 C474 1.419 . S
C472 H476 0.930 . S
C473 C472 1.369 . S
C473 C482 1.429 . S
C474 C472 1.419 . S
C474 C475 1.363 . S
C474 H477 0.929 . S
C475 C474 1.363 . S
C475 C481 1.428 . S
H476 C472 0.930 . S
H477 C474 0.929 . S
S478 N479 1.613 . S
S478 N480 1.610 . S
N479 S478 1.613 . S
N479 C482 1.350 . S
N480 S478 1.610 . S
N480 C481 1.351 . S
C481 C475 1.428 . S
C481 N480 1.351 . S
C481 C482 1.434 . S
C482 C473 1.429 . S
C482 N479 1.350 . S
C482 C481 1.434 . S
C483 C484 1.369 . S
C483 C485 1.419 . S
C483 H487 0.930 . S
C484 C483 1.369 . S
C484 C493 1.429 . S
C485 C483 1.419 . S
C485 C486 1.363 . S
C485 H488 0.929 . S
C486 C485 1.363 . S
C486 C492 1.428 . S
H487 C483 0.930 . S
H488 C485 0.929 . S
S489 N490 1.613 . S
S489 N491 1.610 . S
N490 S489 1.613 . S
N490 C493 1.350 . S
N491 S489 1.610 . S
N491 C492 1.351 . S
C492 C486 1.428 . S
C492 N491 1.351 . S
C492 C493 1.434 . S
C493 C484 1.429 . S
C493 N490 1.350 . S
C493 C492 1.434 . S
C494 C495 1.369 . S
C494 C496 1.419 . S
C494 H498 0.930 . S
C495 C494 1.369 . S
C495 C504 1.429 1_455 S
C496 C494 1.419 . S
C496 C497 1.363 . S
C496 H499 0.929 . S
C497 C496 1.363 . S
C497 C503 1.428 1_455 S
H498 C494 0.930 . S
H499 C496 0.929 . S
S500 N501 1.613 . S
S500 N502 1.610 . S
N501 S500 1.613 . S
N501 C504 1.350 . S
N502 S500 1.610 . S
N502 C503 1.351 . S
C503 C497 1.428 1_655 S
C503 N502 1.351 . S
C503 C504 1.434 . S
C504 C495 1.429 1_655 S
C504 N501 1.350 . S
C504 C503 1.434 . S
C505 C506 1.369 . S
C505 C507 1.422 . S
C505 H509 0.930 . S
C506 C505 1.369 . S
C506 C515 1.429 . S
C507 C505 1.422 . S
C507 C508 1.366 . S
C507 H510 0.922 1_455 S
C508 C507 1.366 . S
C508 C514 1.428 . S
H509 C505 0.930 . S
H510 C507 0.922 1_655 S
S511 N512 1.613 . S
S511 N513 1.610 . S
N512 S511 1.613 . S
N512 C515 1.350 . S
N513 S511 1.610 . S
N513 C514 1.351 . S
C514 C508 1.428 . S
C514 N513 1.351 . S
C514 C515 1.434 . S
C515 C506 1.429 . S
C515 N512 1.350 . S
C515 C514 1.434 . S
C516 C517 1.369 . S
C516 C518 1.419 . S
C516 H520 0.930 . S
C517 C516 1.369 . S
C517 C526 1.429 . S
C518 C516 1.419 . S
C518 C519 1.363 . S
C518 H521 0.929 . S
C519 C518 1.363 . S
C519 C525 1.428 . S
H520 C516 0.930 . S
H521 C518 0.929 . S
S522 N523 1.613 . S
S522 N524 1.610 . S
N523 S522 1.613 . S
N523 C526 1.350 . S
N524 S522 1.610 . S
N524 C525 1.351 . S
C525 C519 1.428 . S
C525 N524 1.351 . S
C525 C526 1.434 . S
C526 C517 1.429 . S
C526 N523 1.350 . S
C526 C525 1.434 . S
C527 C528 1.369 . S
C527 C529 1.419 . S
C527 H531 0.930 . S
C528 C527 1.369 . S
C528 C537 1.429 . S
C529 C527 1.419 . S
C529 C530 1.363 . S
C529 H532 0.929 . S
C530 C529 1.363 . S
C530 C536 1.428 . S
H531 C527 0.930 . S
H532 C529 0.929 . S
S533 N534 1.613 . S
S533 N535 1.610 . S
N534 S533 1.613 . S
N534 C537 1.350 . S
N535 S533 1.610 . S
N535 C536 1.351 . S
C536 C530 1.428 . S
C536 N535 1.351 . S
C536 C537 1.434 . S
C537 C528 1.429 . S
C537 N534 1.350 . S
C537 C536 1.434 . S
C538 C539 1.369 . S
C538 C540 1.419 . S
C538 H542 0.930 . S
C539 C538 1.369 . S
C539 C548 1.429 . S
C540 C538 1.419 . S
C540 C541 1.363 . S
C540 H543 0.929 . S
C541 C540 1.363 . S
C541 C547 1.428 . S
H542 C538 0.930 . S
H543 C540 0.929 . S
S544 N545 1.613 . S
S544 N546 1.610 . S
N545 S544 1.613 . S
N545 C548 1.350 . S
N546 S544 1.610 . S
N546 C547 1.351 . S
C547 C541 1.428 . S
C547 N546 1.351 . S
C547 C548 1.434 . S
C548 C539 1.429 . S
C548 N545 1.350 . S
C548 C547 1.434 . S
C549 C550 1.369 . S
C549 C551 1.419 . S
C549 H553 0.930 . S
C550 C549 1.369 . S
C550 C559 1.429 . S
C551 C549 1.419 . S
C551 C552 1.363 . S
C551 H554 0.929 . S
C552 C551 1.363 . S
C552 C558 1.428 . S
H553 C549 0.930 . S
H554 C551 0.929 . S
S555 N556 1.613 . S
S555 N557 1.610 . S
N556 S555 1.613 . S
N556 C559 1.350 . S
N557 S555 1.610 . S
N557 C558 1.351 . S
C558 C552 1.428 . S
C558 N557 1.351 . S
C558 C559 1.434 . S
C559 C550 1.429 . S
C559 N556 1.350 . S
C559 C558 1.434 . S
C209 C10 0.968 . S
C211 C57 0.954 . S
C220 C23 0.857 . S
C222 C75 0.857 . S
C231 C83 0.953 . S
C233 C31 0.940 . S
C242 C49 0.872 . S
C244 C96 0.878 . S
C253 C62 0.950 . S
C255 C5 0.936 . S
C264 C135 0.932 . S
C266 C109 0.939 . S
C275 C88 0.920 . S
C277 C36 0.926 . S
C286 C122 0.918 . S
C288 C146 0.900 . S
C297 C166 0.960 . S
C299 C187 0.959 . S
C308 C114 0.855 . S
C310 C140 0.847 . S
C319 C179 0.992 . S
C321 C200 0.985 . S
C330 C144 0.883 . S
C332 C127 0.875 . S
C341 C192 0.980 . S
C343 C161 0.959 . S
C352 C18 0.943 . S
C354 C70 0.949 . S
C363 C174 0.946 . S
C365 C205 0.962 . S
C374 C101 0.871 . S
C376 C44 0.866 . S
C385 C3 1.670 . S
C387 C92 1.715 . S
C396 C53 1.662 . S
C398 C16 1.657 . S
C407 C68 1.713 . S
C409 C27 1.686 . S
C418 C42 1.678 . S
C420 C79 1.674 . S
C429 C1 1.687 . S
C431 C153 1.694 . S
C440 C105 1.672 . S
C442 C55 1.657 . S
C451 C131 1.685 . S
C453 C29 1.651 . S
C462 C118 1.702 . S
C464 C81 1.676 . S
C473 C159 1.647 . S
C475 C148 1.642 . S
C484 C183 1.656 . S
C486 C107 1.655 . S
C495 C133 1.693 1_455 S
C497 C172 1.658 . S
C506 C196 1.641 . S
C508 C120 1.633 1_455 S
C517 C94 1.688 . S
C519 C157 1.657 . S
C528 C185 1.655 . S
C530 C14 1.663 . S
C539 C66 1.706 . S
C541 C170 1.673 . S
C550 C198 1.679 . S
C552 C40 1.667 . S
