# Generated by pormake.
# Topology upc, (4)-cn, num edge types: 1
# Building blocks:
#     Node 0, Type 0, BuildingBlock: QUQFOY_clean_sbu_1, # of connection points: 4
#     Node 1, Type 0, BuildingBlock: QUQFOY_clean_sbu_1, # of connection points: 4
#     Node 2, Type 0, BuildingBlock: QUQFOY_clean_sbu_1, # of connection points: 4
#     Node 3, Type 0, BuildingBlock: QUQFOY_clean_sbu_1, # of connection points: 4
#     Node 4, Type 0, BuildingBlock: QUQFOY_clean_sbu_1, # of connection points: 4
#     Node 5, Type 0, BuildingBlock: QUQFOY_clean_sbu_1, # of connection points: 4
#     Node 6, Type 0, BuildingBlock: QUQFOY_clean_sbu_1, # of connection points: 4
#     Node 7, Type 0, BuildingBlock: QUQFOY_clean_sbu_1, # of connection points: 4
#     Node 8, Type 0, BuildingBlock: QUQFOY_clean_sbu_1, # of connection points: 4
#     Node 9, Type 0, BuildingBlock: QUQFOY_clean_sbu_1, # of connection points: 4
#     Node 10, Type 0, BuildingBlock: QUQFOY_clean_sbu_1, # of connection points: 4
#     Node 11, Type 0, BuildingBlock: QUQFOY_clean_sbu_1, # of connection points: 4
#     Node 12, Type 0, BuildingBlock: QUQFOY_clean_sbu_1, # of connection points: 4
#     Node 13, Type 0, BuildingBlock: QUQFOY_clean_sbu_1, # of connection points: 4
#     Node 14, Type 0, BuildingBlock: QUQFOY_clean_sbu_1, # of connection points: 4
#     Node 15, Type 0, BuildingBlock: QUQFOY_clean_sbu_1, # of connection points: 4
#     Edge 16, Type (0, 0), BuildingBlock: XIVTED_clean_linker_0, # of connection points: 2
#     Edge 17, Type (0, 0), BuildingBlock: XIVTED_clean_linker_0, # of connection points: 2
#     Edge 18, Type (0, 0), BuildingBlock: XIVTED_clean_linker_0, # of connection points: 2
#     Edge 19, Type (0, 0), BuildingBlock: XIVTED_clean_linker_0, # of connection points: 2
#     Edge 20, Type (0, 0), BuildingBlock: XIVTED_clean_linker_0, # of connection points: 2
#     Edge 21, Type (0, 0), BuildingBlock: XIVTED_clean_linker_0, # of connection points: 2
#     Edge 22, Type (0, 0), BuildingBlock: XIVTED_clean_linker_0, # of connection points: 2
#     Edge 23, Type (0, 0), BuildingBlock: XIVTED_clean_linker_0, # of connection points: 2
#     Edge 24, Type (0, 0), BuildingBlock: XIVTED_clean_linker_0, # of connection points: 2
#     Edge 25, Type (0, 0), BuildingBlock: XIVTED_clean_linker_0, # of connection points: 2
#     Edge 26, Type (0, 0), BuildingBlock: XIVTED_clean_linker_0, # of connection points: 2
#     Edge 27, Type (0, 0), BuildingBlock: XIVTED_clean_linker_0, # of connection points: 2
#     Edge 28, Type (0, 0), BuildingBlock: XIVTED_clean_linker_0, # of connection points: 2
#     Edge 29, Type (0, 0), BuildingBlock: XIVTED_clean_linker_0, # of connection points: 2
#     Edge 30, Type (0, 0), BuildingBlock: XIVTED_clean_linker_0, # of connection points: 2
#     Edge 31, Type (0, 0), BuildingBlock: XIVTED_clean_linker_0, # of connection points: 2
#     Edge 32, Type (0, 0), BuildingBlock: XIVTED_clean_linker_0, # of connection points: 2
#     Edge 33, Type (0, 0), BuildingBlock: XIVTED_clean_linker_0, # of connection points: 2
#     Edge 34, Type (0, 0), BuildingBlock: XIVTED_clean_linker_0, # of connection points: 2
#     Edge 35, Type (0, 0), BuildingBlock: XIVTED_clean_linker_0, # of connection points: 2
#     Edge 36, Type (0, 0), BuildingBlock: XIVTED_clean_linker_0, # of connection points: 2
#     Edge 37, Type (0, 0), BuildingBlock: XIVTED_clean_linker_0, # of connection points: 2
#     Edge 38, Type (0, 0), BuildingBlock: XIVTED_clean_linker_0, # of connection points: 2
#     Edge 39, Type (0, 0), BuildingBlock: XIVTED_clean_linker_0, # of connection points: 2
#     Edge 40, Type (0, 0), BuildingBlock: XIVTED_clean_linker_0, # of connection points: 2
#     Edge 41, Type (0, 0), BuildingBlock: XIVTED_clean_linker_0, # of connection points: 2
#     Edge 42, Type (0, 0), BuildingBlock: XIVTED_clean_linker_0, # of connection points: 2
#     Edge 43, Type (0, 0), BuildingBlock: XIVTED_clean_linker_0, # of connection points: 2
#     Edge 44, Type (0, 0), BuildingBlock: XIVTED_clean_linker_0, # of connection points: 2
#     Edge 45, Type (0, 0), BuildingBlock: XIVTED_clean_linker_0, # of connection points: 2
#     Edge 46, Type (0, 0), BuildingBlock: XIVTED_clean_linker_0, # of connection points: 2
#     Edge 47, Type (0, 0), BuildingBlock: XIVTED_clean_linker_0, # of connection points: 2
# Relax obj value: 0.087
# Max RMSD: 0.197
# Mean RMSD: 0.197
data_MOF--net-upc--node1-QUQFOY_clean_sbu_1--edge1-XIVTED_clean_linker_0
_symmetry_space_group_name_H-M    P1
_symmetry_Int_Tables_number       1
_symmetry_cell_setting            triclinic
loop_
_symmetry_equiv_pos_as_xyz
'x, y, z'
_cell_length_a     36.897696
_cell_length_b     36.801882
_cell_length_c     44.188437
_cell_angle_alpha  90.011138
_cell_angle_beta   89.881226
_cell_angle_gamma 90.047522
loop_
_atom_site_label
_atom_site_type_symbol
_atom_site_fract_x
_atom_site_fract_y
_atom_site_fract_z
_atom_type_partial_charge
O0 O 0.03464 0.57048 0.14804 0.0
Cd1 Cd 0.00158 0.59403 0.11486 0.0
Cd2 Cd 0.08251 0.64694 0.14332 0.0
O3 O 0.08435 0.59807 0.16649 0.0
O4 O 0.96828 0.55785 0.09623 0.0
O5 O 0.01619 0.5816 0.07283 0.0
C6 C 0.98928 0.55898 0.07276 0.0
C7 C 0.1252 0.6929 0.14665 0.0
C8 C 0.06248 0.57105 0.16534 0.0
C9 C 0.00695 0.6643 0.12902 0.0
O10 O 0.03663 0.65178 0.11902 0.0
O11 O 0.97933 0.64481 0.12436 0.0
O12 O 0.09859 0.69088 0.16565 0.0
O13 O 0.12784 0.66814 0.12592 0.0
O14 O 0.94811 0.07037 0.13673 0.0
Cd15 Cd 0.90453 0.04969 0.11385 0.0
Cd16 Cd 0.87558 0.12002 0.13999 0.0
O17 O 0.92897 0.12334 0.15436 0.0
O18 O 0.92672 0.00899 0.09061 0.0
O19 O 0.90341 0.0577 0.0688 0.0
C20 C 0.92073 0.02732 0.06631 0.0
C21 C 0.84109 0.17369 0.13797 0.0
C22 C 0.95385 0.09979 0.15096 0.0
C23 C 0.84111 0.04485 0.15513 0.0
O24 O 0.84339 0.07918 0.15701 0.0
O25 O 0.8629 0.02663 0.13884 0.0
O26 O 0.85329 0.16081 0.16297 0.0
O27 O 0.85051 0.15746 0.11329 0.0
O28 O 0.44175 0.95295 0.19398 0.0
Cd29 Cd 0.44945 0.90517 0.171 0.0
Cd30 Cd 0.3798 0.89364 0.19538 0.0
O31 O 0.38539 0.94681 0.21004 0.0
O32 O 0.49175 0.91679 0.1446 0.0
O33 O 0.43699 0.90557 0.12663 0.0
C34 C 0.47012 0.91547 0.12176 0.0
C35 C 0.32425 0.87187 0.17792 0.0
C36 C 0.41412 0.96563 0.2075 0.0
C37 C 0.44139 0.84332 0.21426 0.0
O38 O 0.40875 0.85368 0.21716 0.0
O39 O 0.46289 0.85941 0.19613 0.0
O40 O 0.32904 0.88049 0.20587 0.0
O41 O 0.35057 0.87772 0.15921 0.0
O42 O 0.56687 0.47898 0.16669 0.0
Cd43 Cd 0.61699 0.47831 0.1461 0.0
Cd44 Cd 0.61725 0.41512 0.17115 0.0
O45 O 0.56178 0.42014 0.17463 0.0
O46 O 0.61231 0.51352 0.11239 0.0
O47 O 0.61798 0.45406 0.10565 0.0
C48 C 0.61169 0.48587 0.09439 0.0
C49 C 0.64761 0.36295 0.15511 0.0
C50 C 0.54786 0.45172 0.17451 0.0
C51 C 0.66466 0.47319 0.19786 0.0
O52 O 0.64638 0.44444 0.20239 0.0
O53 O 0.66141 0.49033 0.17304 0.0
O54 O 0.63048 0.36401 0.18056 0.0
O55 O 0.64524 0.39086 0.1375 0.0
O56 O 0.06441 0.96526 0.2987 0.0
Cd57 Cd 0.05457 0.91852 0.32254 0.0
Cd58 Cd 0.12436 0.90389 0.29767 0.0
O59 O 0.12025 0.95675 0.28208 0.0
O60 O 0.01165 0.9328 0.34725 0.0
O61 O 0.06524 0.9209 0.36719 0.0
C62 C 0.03234 0.93223 0.3707 0.0
C63 C 0.17953 0.88113 0.31498 0.0
C64 C 0.09231 0.97664 0.28478 0.0
C65 C 0.0608 0.8548 0.28067 0.0
O66 O 0.09369 0.86415 0.27721 0.0
O67 O 0.04 0.87214 0.29857 0.0
O68 O 0.17455 0.889 0.2869 0.0
O69 O 0.15367 0.88822 0.33383 0.0
O70 O 0.56809 0.0698 0.34245 0.0
Cd71 Cd 0.61538 0.05616 0.36445 0.0
Cd72 Cd 0.63187 0.11985 0.33554 0.0
O73 O 0.57696 0.12732 0.33049 0.0
O74 O 0.59768 0.01497 0.38968 0.0
O75 O 0.61518 0.06748 0.40906 0.0
C76 C 0.60035 0.03598 0.41288 0.0
C77 C 0.67258 0.1672 0.3456 0.0
C78 C 0.55619 0.09991 0.33252 0.0
C79 C 0.66508 0.04986 0.3132 0.0
O80 O 0.65368 0.08154 0.30711 0.0
O81 O 0.65773 0.03518 0.33853 0.0
O82 O 0.65537 0.16498 0.32033 0.0
O83 O 0.66483 0.14372 0.36636 0.0
O84 O 0.45152 0.56614 0.34368 0.0
Cd85 Cd 0.48275 0.5842 0.38018 0.0
Cd86 Cd 0.40934 0.64605 0.35274 0.0
O87 O 0.40641 0.60064 0.32516 0.0
O88 O 0.51366 0.54448 0.39649 0.0
O89 O 0.46608 0.56755 0.42072 0.0
C90 C 0.49205 0.54393 0.41957 0.0
C91 C 0.3697 0.69456 0.35025 0.0
C92 C 0.42548 0.5716 0.32512 0.0
C93 C 0.48405 0.65614 0.37081 0.0
O94 O 0.45311 0.64599 0.38 0.0
O95 O 0.5094 0.63355 0.3745 0.0
O96 O 0.39801 0.69316 0.33299 0.0
O97 O 0.36385 0.66795 0.36882 0.0
O98 O 0.96956 0.46116 0.34541 0.0
Cd99 Cd 0.92956 0.4703 0.37656 0.0
Cd100 Cd 0.90692 0.40076 0.34967 0.0
O101 O 0.95681 0.40615 0.32822 0.0
O102 O 0.95069 0.50962 0.40188 0.0
O103 O 0.93887 0.45458 0.41945 0.0
C104 C 0.95238 0.48658 0.42379 0.0
C105 C 0.87885 0.34354 0.35396 0.0
C106 C 0.97717 0.43409 0.32876 0.0
C107 C 0.86 0.47039 0.34392 0.0
O108 O 0.86733 0.43741 0.33826 0.0
O109 O 0.88086 0.48977 0.36008 0.0
O110 O 0.88626 0.35792 0.32819 0.0
O111 O 0.89028 0.36016 0.37783 0.0
O112 O 0.94995 0.44595 0.8198 0.0
Cd113 Cd 0.95071 0.39513 0.83963 0.0
Cd114 Cd 0.89181 0.39173 0.80833 0.0
O115 O 0.89264 0.44757 0.80608 0.0
O116 O 0.98733 0.40142 0.87208 0.0
O117 O 0.92879 0.39388 0.88124 0.0
C118 C 0.96087 0.40132 0.8912 0.0
C119 C 0.84475 0.35577 0.82644 0.0
C120 C 0.92279 0.46355 0.80995 0.0
C121 C 0.95244 0.34628 0.78701 0.0
O122 O 0.92533 0.36492 0.77864 0.0
O123 O 0.96493 0.35006 0.81365 0.0
O124 O 0.84255 0.37211 0.80064 0.0
O125 O 0.87276 0.36222 0.84315 0.0
O126 O 0.02521 0.92619 0.79909 0.0
Cd127 Cd 0.06801 0.93568 0.82757 0.0
Cd128 Cd 0.08744 0.86611 0.80301 0.0
O129 O 0.03753 0.87101 0.78223 0.0
O130 O 0.05008 0.97626 0.8533 0.0
O131 O 0.0614 0.92127 0.87115 0.0
C132 C 0.04936 0.95381 0.87568 0.0
C133 C 0.10837 0.80895 0.81788 0.0
C134 C 0.01681 0.89853 0.7834 0.0
C135 C 0.13779 0.93166 0.79366 0.0
O136 O 0.12965 0.8986 0.78895 0.0
O137 O 0.11716 0.95211 0.8092 0.0
O138 O 0.10447 0.81731 0.7898 0.0
O139 O 0.0983 0.83246 0.83791 0.0
O140 O 0.58108 0.02847 0.85264 0.0
Cd141 Cd 0.55908 0.06525 0.88226 0.0
Cd142 Cd 0.62681 0.10548 0.85855 0.0
O143 O 0.63127 0.05572 0.83687 0.0
O144 O 0.52131 0.03652 0.90413 0.0
O145 O 0.56941 0.05965 0.92681 0.0
C146 C 0.5402 0.04034 0.92842 0.0
C147 C 0.67804 0.14393 0.856 0.0
C148 C 0.60976 0.02868 0.83667 0.0
C149 C 0.54815 0.13573 0.85079 0.0
O150 O 0.58243 0.13691 0.84868 0.0
O151 O 0.53216 0.10904 0.86324 0.0
O152 O 0.66099 0.13325 0.83236 0.0
O153 O 0.66762 0.13094 0.88169 0.0
O154 O 0.42416 0.53821 0.84076 0.0
Cd155 Cd 0.40681 0.50871 0.87831 0.0
Cd156 Cd 0.34188 0.57702 0.84995 0.0
O157 O 0.3863 0.5798 0.82116 0.0
O158 O 0.44719 0.47936 0.89516 0.0
O159 O 0.4229 0.52715 0.91838 0.0
C160 C 0.44709 0.50168 0.91776 0.0
C161 C 0.29275 0.61573 0.84686 0.0
C162 C 0.4165 0.56273 0.82129 0.0
C163 C 0.33487 0.50347 0.86979 0.0
O164 O 0.34275 0.53493 0.87935 0.0
O165 O 0.35916 0.47966 0.87312 0.0
O166 O 0.29427 0.58658 0.83053 0.0
O167 O 0.31961 0.62292 0.86472 0.0
O168 O 0.91932 0.04243 0.62907 0.0
Cd169 Cd 0.9312 0.08765 0.60307 0.0
Cd170 Cd 0.86896 0.10719 0.63731 0.0
O171 O 0.86357 0.05257 0.6452 0.0
O172 O 0.97291 0.06848 0.57912 0.0
O173 O 0.92054 0.08306 0.55838 0.0
C174 C 0.95255 0.06926 0.55552 0.0
C175 C 0.81855 0.14567 0.6337 0.0
C176 C 0.89062 0.03156 0.64225 0.0
C177 C 0.94029 0.14386 0.65007 0.0
O178 O 0.91038 0.13208 0.6603 0.0
O179 O 0.95172 0.13394 0.62419 0.0
O180 O 0.82695 0.12956 0.65855 0.0
O181 O 0.83737 0.13799 0.60988 0.0
O182 O 0.47188 0.96147 0.66875 0.0
Cd183 Cd 0.42662 0.96713 0.64171 0.0
Cd184 Cd 0.41762 0.90105 0.66358 0.0
O185 O 0.47257 0.90169 0.6709 0.0
O186 O 0.44014 0.00733 0.61388 0.0
O187 O 0.43397 0.95009 0.59909 0.0
C188 C 0.44374 0.98307 0.59299 0.0
C189 C 0.38526 0.84844 0.65138 0.0
C190 C 0.48807 0.93202 0.67532 0.0
C191 C 0.36911 0.95993 0.68616 0.0
O192 O 0.3872 0.93178 0.69287 0.0
O193 O 0.3766 0.97736 0.66209 0.0
O194 O 0.40245 0.85174 0.67655 0.0
O195 O 0.38914 0.87391 0.63153 0.0
O196 O 0.51525 0.41788 0.66597 0.0
Cd197 Cd 0.51941 0.36792 0.64526 0.0
Cd198 Cd 0.58174 0.37183 0.67078 0.0
O199 O 0.57353 0.42717 0.67324 0.0
O200 O 0.48476 0.371 0.61105 0.0
O201 O 0.54443 0.36942 0.6051 0.0
C202 C 0.51263 0.37411 0.59349 0.0
C203 C 0.63462 0.34326 0.65435 0.0
C204 C 0.54115 0.43892 0.67326 0.0
C205 C 0.52673 0.32108 0.69749 0.0
O206 O 0.55369 0.34176 0.7023 0.0
O207 O 0.5103 0.32245 0.67223 0.0
O208 O 0.63343 0.3608 0.67962 0.0
O209 O 0.60637 0.34431 0.63714 0.0
O210 O 0.0667 0.58591 0.68137 0.0
Cd211 Cd 0.11098 0.56742 0.65808 0.0
Cd212 Cd 0.13742 0.63385 0.68278 0.0
O213 O 0.0849 0.63904 0.69909 0.0
O214 O 0.08968 0.52675 0.63431 0.0
O215 O 0.11156 0.5766 0.61316 0.0
C216 C 0.09476 0.54596 0.61032 0.0
C217 C 0.17223 0.68413 0.66846 0.0
C218 C 0.06046 0.61498 0.69593 0.0
C219 C 0.17279 0.562 0.70104 0.0
O220 O 0.16999 0.59621 0.70365 0.0
O221 O 0.15231 0.54428 0.68325 0.0
O222 O 0.16203 0.67907 0.69601 0.0
O223 O 0.16002 0.66209 0.64814 0.0
H224 H 0.12669 0.74818 0.1879 0.0
H225 H 0.31156 0.83439 0.12525 0.0
H226 H 0.1841 0.70623 0.11017 0.0
H227 H 0.26172 0.86376 0.21025 0.0
H228 H 0.26033 0.79382 0.11488 0.0
H229 H 0.17164 0.79649 0.19225 0.0
C230 C 0.14874 0.74914 0.17169 0.0
C231 C 0.15184 0.72286 0.14881 0.0
C232 C 0.26046 0.80949 0.13563 0.0
C233 C 0.20343 0.77836 0.1536 0.0
C234 C 0.28955 0.83284 0.14145 0.0
C235 C 0.29104 0.85227 0.16875 0.0
C236 C 0.23267 0.80573 0.15721 0.0
C237 C 0.26185 0.84909 0.189 0.0
C238 C 0.17439 0.77681 0.17416 0.0
C239 C 0.18082 0.72574 0.1283 0.0
N240 N 0.23404 0.82608 0.18292 0.0
N241 N 0.2056 0.7529 0.13126 0.0
H242 H 0.81114 0.2054 0.18754 0.0
H243 H 0.68926 0.35149 0.10402 0.0
H244 H 0.80937 0.20983 0.0899 0.0
H245 H 0.66373 0.30544 0.19137 0.0
H246 H 0.73701 0.30539 0.09769 0.0
H247 H 0.76251 0.24975 0.18924 0.0
C248 C 0.80079 0.21596 0.16637 0.0
C249 C 0.81436 0.20371 0.13849 0.0
C250 C 0.72057 0.30528 0.11801 0.0
C251 C 0.75816 0.25468 0.14039 0.0
C252 C 0.69329 0.33144 0.12163 0.0
C253 C 0.67256 0.33247 0.14835 0.0
C254 C 0.72742 0.28056 0.14151 0.0
C255 C 0.67903 0.30588 0.17044 0.0
C256 C 0.77274 0.24112 0.1674 0.0
C257 C 0.79967 0.21851 0.11187 0.0
N258 N 0.70611 0.2814 0.16668 0.0
N259 N 0.7723 0.24335 0.11345 0.0
H260 H 0.24223 0.87226 0.283 0.0
H261 H 0.31038 0.70859 0.38585 0.0
H262 H 0.19094 0.84301 0.36743 0.0
H263 H 0.37163 0.75159 0.31058 0.0
H264 H 0.26763 0.75899 0.38084 0.0
H265 H 0.29161 0.83047 0.29434 0.0
C266 C 0.24164 0.85744 0.30418 0.0
C267 C 0.2123 0.86094 0.32422 0.0
C268 C 0.29058 0.75754 0.36558 0.0
C269 C 0.26852 0.81246 0.33711 0.0
C270 C 0.31492 0.72869 0.36834 0.0
C271 C 0.34444 0.72567 0.34843 0.0
C272 C 0.29561 0.7834 0.34257 0.0
C273 C 0.34913 0.75267 0.32631 0.0
C274 C 0.26985 0.8335 0.31062 0.0
C275 C 0.21304 0.84113 0.35135 0.0
N276 N 0.32481 0.7802 0.32383 0.0
N277 N 0.24045 0.81733 0.35681 0.0
H278 H 0.84676 0.31234 0.40425 0.0
H279 H 0.69984 0.21243 0.30256 0.0
H280 H 0.85264 0.30387 0.30692 0.0
H281 H 0.71418 0.18209 0.39615 0.0
H282 H 0.7525 0.25181 0.30613 0.0
H283 H 0.79667 0.26806 0.40407 0.0
C284 C 0.83806 0.30071 0.38295 0.0
C285 C 0.85379 0.31207 0.35553 0.0
C286 C 0.74421 0.23659 0.32596 0.0
C287 C 0.7962 0.26236 0.35517 0.0
C288 C 0.71386 0.21426 0.32402 0.0
C289 C 0.7025 0.19381 0.3491 0.0
C290 C 0.76342 0.239 0.35326 0.0
C291 C 0.722 0.19738 0.37626 0.0
C292 C 0.80937 0.27563 0.38287 0.0
C293 C 0.84125 0.29623 0.32861 0.0
N294 N 0.75155 0.21965 0.37768 0.0
N295 N 0.81301 0.27264 0.3291 0.0
H296 H 0.84101 0.31469 0.87859 0.0
H297 H 0.70229 0.17554 0.80429 0.0
H298 H 0.78827 0.33117 0.79256 0.0
H299 H 0.71664 0.17878 0.90121 0.0
H300 H 0.74174 0.22798 0.79932 0.0
H301 H 0.80144 0.26192 0.88766 0.0
C302 C 0.82084 0.30757 0.86183 0.0
C303 C 0.81804 0.32735 0.83471 0.0
C304 C 0.73639 0.21727 0.82172 0.0
C305 C 0.77356 0.26679 0.84466 0.0
C306 C 0.71402 0.18706 0.8246 0.0
C307 C 0.70589 0.17278 0.85327 0.0
C308 C 0.75118 0.23346 0.84763 0.0
C309 C 0.72215 0.18895 0.87868 0.0
C310 C 0.79842 0.27743 0.867 0.0
C311 C 0.79153 0.31681 0.81376 0.0
N312 N 0.74407 0.21857 0.87529 0.0
N313 N 0.77067 0.28711 0.81904 0.0
H314 H 0.23687 0.61371 0.8062 0.0
H315 H 0.14058 0.79217 0.87196 0.0
H316 H 0.27663 0.67373 0.88327 0.0
H317 H 0.12115 0.7496 0.78244 0.0
H318 H 0.18184 0.74134 0.88167 0.0
H319 H 0.18637 0.65647 0.80215 0.0
C320 C 0.23489 0.63576 0.82238 0.0
C321 C 0.26123 0.64041 0.84493 0.0
C322 C 0.16815 0.74292 0.86006 0.0
C323 C 0.20333 0.68918 0.84056 0.0
C324 C 0.14438 0.77174 0.8546 0.0
C325 C 0.12768 0.77526 0.82626 0.0
C326 C 0.17495 0.71737 0.8371 0.0
C327 C 0.13373 0.7481 0.80452 0.0
C328 C 0.20605 0.66014 0.82004 0.0
C329 C 0.25715 0.66935 0.86535 0.0
N330 N 0.15706 0.72044 0.81031 0.0
N331 N 0.22881 0.6927 0.86264 0.0
H332 H 0.69325 0.3294 0.68989 0.0
H333 H 0.78572 0.17944 0.58505 0.0
H334 H 0.64634 0.30125 0.60356 0.0
H335 H 0.78855 0.17847 0.68271 0.0
H336 H 0.74273 0.23069 0.58723 0.0
H337 H 0.73873 0.28225 0.68264 0.0
C338 C 0.69281 0.31371 0.66915 0.0
C339 C 0.66566 0.31911 0.64743 0.0
C340 C 0.75279 0.219 0.60807 0.0
C341 C 0.71774 0.26477 0.63912 0.0
C342 C 0.77718 0.1898 0.60687 0.0
C343 C 0.7906 0.17453 0.63374 0.0
C344 C 0.74262 0.23338 0.63629 0.0
C345 C 0.77879 0.18913 0.66141 0.0
C346 C 0.71866 0.28659 0.66515 0.0
C347 C 0.66666 0.29787 0.62096 0.0
N348 N 0.75581 0.21784 0.66193 0.0
N349 N 0.69221 0.27143 0.61758 0.0
H350 H 0.20043 0.70469 0.61291 0.0
H351 H 0.37251 0.79241 0.68997 0.0
H352 H 0.21023 0.72439 0.7089 0.0
H353 H 0.33491 0.83849 0.60583 0.0
H354 H 0.31971 0.75283 0.6909 0.0
H355 H 0.25449 0.74304 0.60446 0.0
C356 C 0.21356 0.71739 0.63209 0.0
C357 C 0.20084 0.71121 0.66168 0.0
C358 C 0.32324 0.77133 0.67205 0.0
C359 C 0.26278 0.75363 0.65221 0.0
C360 C 0.35353 0.79378 0.67133 0.0
C361 C 0.35795 0.81922 0.64798 0.0
C362 C 0.29719 0.77389 0.64912 0.0
C363 C 0.33244 0.81939 0.62434 0.0
C364 C 0.24435 0.73906 0.62724 0.0
C365 C 0.21896 0.72822 0.68571 0.0
N366 N 0.30282 0.79719 0.6256 0.0
N367 N 0.24921 0.74814 0.68048 0.0
H368 H 0.98432 0.40121 0.27337 0.0
H369 H 0.10058 0.56964 0.2187 0.0
H370 H 0.03615 0.47847 0.33264 0.0
H371 H 0.03391 0.50281 0.16094 0.0
H372 H 0.09497 0.52391 0.25864 0.0
H373 H 0.02052 0.42465 0.23122 0.0
C374 C 0.00421 0.42221 0.27775 0.0
C375 C 0.00653 0.43866 0.30631 0.0
C376 C 0.08225 0.5189 0.23697 0.0
C377 C 0.04743 0.466 0.25824 0.0
C378 C 0.08553 0.54497 0.21413 0.0
C379 C 0.06681 0.54051 0.18678 0.0
C380 C 0.06009 0.48828 0.23235 0.0
C381 C 0.04797 0.50782 0.18201 0.0
C382 C 0.02469 0.4358 0.25363 0.0
C383 C 0.03288 0.46567 0.31074 0.0
N384 N 0.04455 0.48329 0.20475 0.0
N385 N 0.05174 0.47907 0.28682 0.0
H386 H 0.01999 0.07416 0.13398 0.0
H387 H 0.05457 0.03659 0.30201 0.0
H388 H 0.96571 0.13152 0.20603 0.0
H389 H 0.12297 0.9956 0.23058 0.0
H390 H 0.03469 0.08544 0.26877 0.0
H391 H 0.06983 0.06046 0.1682 0.0
C392 C 0.01916 0.08487 0.15682 0.0
C393 C 0.98832 0.10307 0.16751 0.0
C394 C 0.05482 0.06646 0.2605 0.0
C395 C 0.04458 0.08644 0.20712 0.0
C396 C 0.06616 0.03854 0.27952 0.0
C397 C 0.08962 0.01155 0.26865 0.0
C398 C 0.06616 0.06664 0.23013 0.0
C399 C 0.10437 0.01561 0.23961 0.0
C400 C 0.04762 0.07699 0.17642 0.0
C401 C 0.98879 0.11687 0.19706 0.0
N402 N 0.09153 0.04201 0.22098 0.0
N403 N 0.01597 0.10727 0.21617 0.0
H404 H 0.49598 0.06594 0.35355 0.0
H405 H 0.37745 0.9899 0.25777 0.0
H406 H 0.53467 0.13233 0.27997 0.0
H407 H 0.45942 0.0214 0.19314 0.0
H408 H 0.3967 0.0399 0.29069 0.0
H409 H 0.44471 0.04732 0.32284 0.0
C410 C 0.49272 0.0778 0.33128 0.0
C411 C 0.51977 0.10016 0.31902 0.0
C412 C 0.41015 0.03615 0.26913 0.0
C413 C 0.46145 0.07851 0.2833 0.0
C414 C 0.39889 0.00787 0.25019 0.0
C415 C 0.41779 1.0008 0.22325 0.0
C416 C 0.44057 0.05709 0.26098 0.0
C417 C 0.44493 0.02524 0.21424 0.0
C418 C 0.46325 0.06728 0.31366 0.0
C419 C 0.51442 0.11484 0.29013 0.0
N420 N 0.45596 0.05188 0.23332 0.0
N421 N 0.48648 0.10274 0.27281 0.0
H422 H 0.51144 0.40971 0.21578 0.0
H423 H 0.40354 0.58472 0.26699 0.0
H424 H 0.50276 0.50909 0.16455 0.0
H425 H 0.43971 0.49897 0.32618 0.0
H426 H 0.41634 0.54569 0.22338 0.0
H427 H 0.46236 0.43074 0.24876 0.0
C428 C 0.49839 0.43538 0.21082 0.0
C429 C 0.51184 0.45824 0.18802 0.0
C430 C 0.42039 0.53503 0.24597 0.0
C431 C 0.45611 0.48245 0.22565 0.0
C432 C 0.4129 0.55722 0.27087 0.0
C433 C 0.42157 0.54533 0.30012 0.0
C434 C 0.43652 0.50088 0.25054 0.0
C435 C 0.43354 0.50944 0.30388 0.0
C436 C 0.47049 0.44743 0.22973 0.0
C437 C 0.49378 0.49109 0.18245 0.0
N438 N 0.44137 0.48871 0.27933 0.0
N439 N 0.46732 0.50258 0.20154 0.0
H440 H 0.99311 0.59593 0.67703 0.0
H441 H 0.96885 0.51351 0.83385 0.0
H442 H 0.0515 0.63492 0.75487 0.0
H443 H 0.88979 0.49927 0.76313 0.0
H444 H 0.98947 0.56927 0.80954 0.0
H445 H 0.94499 0.57405 0.71023 0.0
C446 C 0.99501 0.6012 0.70111 0.0
C447 C 0.02651 0.61654 0.71338 0.0
C448 C 0.96694 0.55462 0.79966 0.0
C449 C 0.97251 0.59009 0.75163 0.0
C450 C 0.95525 0.52268 0.81353 0.0
C451 C 0.92823 0.5014 0.80002 0.0
C452 C 0.95229 0.56468 0.77157 0.0
C453 C 0.91107 0.51471 0.77402 0.0
C454 C 0.96762 0.58851 0.72014 0.0
C455 C 0.02772 0.6229 0.74461 0.0
N456 N 0.92412 0.54501 0.76011 0.0
N457 N 0.00165 0.60852 0.76283 0.0
H458 H 0.0059 0.8666 0.7282 0.0
H459 H 0.85361 0.01224 0.69352 0.0
H460 H 0.95472 0.93624 0.79413 0.0
H461 H 0.93137 0.97199 0.62866 0.0
H462 H 0.87142 0.96378 0.72838 0.0
H463 H 0.96 0.88468 0.69108 0.0
C464 C 0.98431 0.88473 0.73515 0.0
C465 C 0.98453 0.90077 0.76393 0.0
C466 C 0.88372 0.9649 0.70612 0.0
C467 C 0.93227 0.92138 0.72185 0.0
C468 C 0.87344 0.99242 0.68616 0.0
C469 C 0.89185 0.99666 0.65858 0.0
C470 C 0.91239 0.9416 0.69826 0.0
C471 C 0.9172 0.97014 0.6501 0.0
C472 C 0.95824 0.8951 0.71396 0.0
C473 C 0.95594 0.92398 0.77187 0.0
N474 N 0.92729 0.94413 0.67013 0.0
N475 N 0.93127 0.93409 0.75077 0.0
H476 H 0.58363 0.95922 0.83756 0.0
H477 H 0.54032 0.98398 0.67088 0.0
H478 H 0.6426 0.03481 0.78141 0.0
H479 H 0.51374 0.8849 0.71805 0.0
H480 H 0.58838 0.99557 0.70741 0.0
H481 H 0.5696 0.92319 0.79279 0.0
C482 C 0.5947 0.96755 0.81591 0.0
C483 C 0.61337 1.00059 0.81302 0.0
C484 C 0.5728 0.97073 0.70939 0.0
C485 C 0.59645 0.9602 0.76159 0.0
C486 C 0.54526 0.96421 0.68856 0.0
C487 C 0.52259 0.93391 0.69194 0.0
C488 C 0.57684 0.94741 0.73433 0.0
C489 C 0.53039 0.90885 0.71492 0.0
C490 C 0.58663 0.94698 0.79028 0.0
C491 C 0.62755 0.00983 0.78456 0.0
N492 N 0.55622 0.9167 0.73583 0.0
N493 N 0.61776 0.99039 0.75974 0.0
H494 H 0.58089 0.47973 0.71314 0.0
H495 H 0.40052 0.57945 0.76244 0.0
H496 H 0.48086 0.47966 0.66278 0.0
H497 H 0.4898 0.55401 0.8216 0.0
H498 H 0.43927 0.56613 0.71879 0.0
H499 H 0.55726 0.52919 0.74455 0.0
C500 C 0.55445 0.4909 0.70805 0.0
C501 C 0.53232 0.47493 0.68597 0.0
C502 C 0.45069 0.56456 0.74131 0.0
C503 C 0.50514 0.5311 0.72181 0.0
C504 C 0.42864 0.57239 0.76622 0.0
C505 C 0.44177 0.56683 0.79561 0.0
C506 C 0.48592 0.55119 0.74601 0.0
C507 C 0.47842 0.55772 0.79924 0.0
C508 C 0.54092 0.51903 0.72606 0.0
C509 C 0.49839 0.49062 0.68017 0.0
N510 N 0.49904 0.54945 0.77474 0.0
N511 N 0.48552 0.51737 0.69838 0.0
H512 H 0.97944 0.7331 0.13034 0.0
H513 H 0.09646 0.79218 0.26824 0.0
H514 H 0.0334 0.65339 0.18552 0.0
H515 H 0.99511 0.8471 0.25223 0.0
H516 H 0.07715 0.7432 0.23446 0.0
H517 H 0.98668 0.77795 0.17139 0.0
C518 C 0.99243 0.72505 0.15125 0.0
C519 C 0.00673 0.69003 0.15449 0.0
C520 C 0.05892 0.76572 0.23867 0.0
C521 C 0.01537 0.74068 0.20091 0.0
C522 C 0.06994 0.79367 0.25783 0.0
C523 C 0.04724 0.82356 0.26304 0.0
C524 C 0.02542 0.76817 0.22386 0.0
C525 C 0.0132 0.82429 0.24893 0.0
C526 C 0.99648 0.75048 0.17458 0.0
C527 C 0.0229 0.68052 0.18201 0.0
N528 N 0.00352 0.79725 0.22945 0.0
N529 N 0.02749 0.70593 0.20398 0.0
H530 H 0.84901 0.99385 0.19983 0.0
H531 H 0.72808 0.01058 0.32018 0.0
H532 H 0.76942 0.05781 0.15269 0.0
H533 H 0.65201 0.04811 0.25331 0.0
H534 H 0.77022 0.9941 0.27947 0.0
H535 H 0.80356 0.97948 0.23874 0.0
C536 C 0.82158 0.00386 0.19726 0.0
C537 C 0.81275 0.02709 0.17324 0.0
C538 C 0.7439 0.00475 0.2735 0.0
C539 C 0.76114 0.01217 0.21793 0.0
C540 C 0.71983 0.01414 0.29686 0.0
C541 C 0.68691 0.03118 0.28997 0.0
C542 C 0.73456 0.01241 0.24322 0.0
C543 C 0.67746 0.03554 0.25952 0.0
C544 C 0.79577 0.99622 0.21974 0.0
C545 C 0.77719 0.03985 0.17098 0.0
N546 N 0.70132 0.02672 0.23738 0.0
N547 N 0.75285 0.0325 0.19315 0.0
H548 H 0.50775 0.72643 0.37162 0.0
H549 H 0.40534 0.78062 0.22551 0.0
H550 H 0.46568 0.64362 0.31242 0.0
H551 H 0.50474 0.83694 0.24622 0.0
H552 H 0.42227 0.73261 0.26115 0.0
H553 H 0.50364 0.77062 0.32976 0.0
C554 C 0.49814 0.71756 0.34968 0.0
C555 C 0.48653 0.68171 0.34533 0.0
C556 C 0.44062 0.75521 0.25754 0.0
C557 C 0.48116 0.73163 0.29807 0.0
C558 C 0.43097 0.78257 0.23733 0.0
C559 C 0.45383 0.81253 0.23288 0.0
C560 C 0.4728 0.75842 0.27416 0.0
C561 C 0.48663 0.81399 0.24887 0.0
C562 C 0.49587 0.74261 0.32591 0.0
C563 C 0.47437 0.67125 0.31661 0.0
N564 N 0.4949 0.78758 0.26934 0.0
N565 N 0.47128 0.69628 0.29418 0.0
H566 H 0.72433 0.51825 0.19302 0.0
H567 H 0.85373 0.53072 0.30788 0.0
H568 H 0.662 0.45597 0.25744 0.0
H569 H 0.7927 0.44239 0.3467 0.0
H570 H 0.80278 0.54356 0.27377 0.0
H571 H 0.76952 0.53001 0.23239 0.0
C572 C 0.7198 0.50775 0.21561 0.0
C573 C 0.68977 0.48551 0.22181 0.0
C574 C 0.8003 0.52165 0.28994 0.0
C575 C 0.74084 0.49929 0.26719 0.0
C576 C 0.82911 0.51481 0.30978 0.0
C577 C 0.82721 0.48542 0.32991 0.0
C578 C 0.76968 0.49877 0.2905 0.0
C579 C 0.79513 0.46523 0.33137 0.0
C580 C 0.74553 0.51464 0.23822 0.0
C581 C 0.68513 0.47261 0.25143 0.0
N582 N 0.76781 0.4721 0.31177 0.0
N583 N 0.71054 0.47931 0.2728 0.0
H584 H 0.96978 0.20831 0.63123 0.0
H585 H 0.98418 0.28121 0.80142 0.0
H586 H 0.95281 0.142 0.71038 0.0
H587 H 0.95229 0.34731 0.72541 0.0
H588 H 0.99574 0.23053 0.76652 0.0
H589 H 0.98666 0.25941 0.66429 0.0
C590 C 0.97087 0.2042 0.65548 0.0
C591 C 0.95964 0.1712 0.66824 0.0
C592 C 0.987 0.25644 0.7575 0.0
C593 C 0.97871 0.22901 0.70591 0.0
C594 C 0.98055 0.28534 0.77734 0.0
C595 C 0.9667 0.31821 0.76627 0.0
C596 C 0.98004 0.26075 0.72644 0.0
C597 C 0.96239 0.32215 0.73488 0.0
C598 C 0.9802 0.23333 0.6743 0.0
C599 C 0.96103 0.16723 0.69979 0.0
N600 N 0.9687 0.29365 0.71607 0.0
N601 N 0.97003 0.19591 0.71759 0.0
H602 H 0.30897 0.00173 0.67234 0.0
H603 H 0.15344 0.99804 0.76755 0.0
H604 H 0.35684 0.93797 0.74381 0.0
H605 H 0.20116 0.8954 0.79237 0.0
H606 H 0.21127 0.01559 0.74324 0.0
H607 H 0.25215 0.0041 0.70159 0.0
C608 C 0.30789 0.98914 0.69447 0.0
C609 C 0.33749 0.9691 0.70541 0.0
C610 C 0.20893 0.98934 0.75411 0.0
C611 C 0.27299 0.97163 0.73876 0.0
C612 C 0.17619 0.97949 0.76816 0.0
C613 C 0.17262 0.94512 0.78165 0.0
C614 C 0.23814 0.9648 0.75432 0.0
C615 C 0.20271 0.92196 0.78189 0.0
C616 C 0.27549 0.99056 0.71117 0.0
C617 C 0.33455 0.95316 0.73418 0.0
N618 N 0.23415 0.93229 0.76855 0.0
N619 N 0.30274 0.95417 0.74949 0.0
H620 H 0.49228 0.12883 0.81035 0.0
H621 H 0.49069 0.25544 0.69272 0.0
H622 H 0.56019 0.20791 0.85446 0.0
H623 H 0.53784 0.329 0.75765 0.0
H624 H 0.48214 0.21068 0.73315 0.0
H625 H 0.47379 0.1753 0.7737 0.0
C626 C 0.50231 0.15634 0.81286 0.0
C627 C 0.5279 0.16466 0.83525 0.0
C628 C 0.49348 0.23688 0.73884 0.0
C629 C 0.5083 0.21751 0.79289 0.0
C630 C 0.49847 0.26243 0.71562 0.0
C631 C 0.51565 0.29565 0.72174 0.0
C632 C 0.50557 0.24497 0.76834 0.0
C633 C 0.5252 0.30341 0.75175 0.0
C634 C 0.49234 0.18276 0.79156 0.0
C635 C 0.54051 0.20043 0.8374 0.0
N636 N 0.5204 0.27819 0.77373 0.0
N637 N 0.5309 0.22535 0.81632 0.0
H638 H 0.26119 0.49897 0.86884 0.0
H639 H 0.24392 0.57801 0.7077 0.0
H640 H 0.35509 0.50394 0.81089 0.0
H641 H 0.16045 0.50564 0.73989 0.0
H642 H 0.28473 0.5549 0.74692 0.0
H643 H 0.22212 0.50453 0.82393 0.0
C644 C 0.27342 0.50039 0.84656 0.0
C645 C 0.31115 0.50063 0.84327 0.0
C646 C 0.25775 0.54351 0.74498 0.0
C647 C 0.26719 0.50814 0.79242 0.0
C648 C 0.23456 0.55662 0.72267 0.0
C649 C 0.1991 0.5433 0.7205 0.0
C650 C 0.24489 0.51789 0.76592 0.0
C651 C 0.18788 0.51609 0.74067 0.0
C652 C 0.25126 0.50352 0.82106 0.0
C653 C 0.326 0.50325 0.81413 0.0
N654 N 0.21051 0.50474 0.76306 0.0
N655 N 0.30397 0.5076 0.7898 0.0
H656 H 0.93124 0.51419 0.06176 0.0
H657 H 0.02454 0.42234 0.91724 0.0
H658 H 0.03587 0.54494 0.02613 0.0
H659 H 0.90983 0.41382 0.9354 0.0
H660 H 0.03166 0.45798 0.96334 0.0
H661 H 0.92499 0.46994 0.02058 0.0
C662 C 0.95283 0.51173 0.04525 0.0
C663 C 0.98403 0.53348 0.04726 0.0
C664 C 0.00498 0.44799 0.95743 0.0
C665 C 0.97733 0.48251 0.00058 0.0
C666 C 0.00091 0.42733 0.93122 0.0
C667 C 0.96644 0.41537 0.92223 0.0
C668 C 0.9744 0.45674 0.9749 0.0
C669 C 0.93688 0.42263 0.94138 0.0
C670 C 0.94927 0.48642 0.02184 0.0
C671 C 0.01122 0.529 0.02534 0.0
N672 N 0.94146 0.44318 0.9667 0.0
N673 N 0.00728 0.50398 0.003 0.0
H674 H 0.04155 0.91303 0.92737 0.0
H675 H 0.92184 0.06384 0.0122 0.0
H676 H 0.01771 0.01867 0.88996 0.0
H677 H 0.9558 0.96356 0.05407 0.0
H678 H 0.95367 0.04593 0.96594 0.0
H679 H 0.00848 0.9299 0.97337 0.0
C680 C 0.02965 0.93986 0.92892 0.0
C681 C 0.03247 0.96447 0.90478 0.0
C682 C 0.95402 0.02776 0.98521 0.0
C683 C 0.99414 0.98378 0.95714 0.0
C684 C 0.93562 0.03788 0.01156 0.0
C685 C 0.93619 0.01521 0.03707 0.0
C686 C 0.97306 0.9947 0.98432 0.0
C687 C 0.95468 0.98194 0.03498 0.0
C688 C 0.01064 0.94943 0.95513 0.0
C689 C 0.01633 0.99882 0.908 0.0
N690 N 0.97245 0.97275 0.00912 0.0
N691 N 0.99776 0.00737 0.9336 0.0
H692 H 0.53715 0.94091 0.10594 0.0
H693 H 0.47788 0.00217 0.9394 0.0
H694 H 0.4305 0.92142 0.06936 0.0
H695 H 0.57801 0.03509 0.98168 0.0
H696 H 0.46166 0.9687 0.98521 0.0
H697 H 0.55456 0.97034 0.05863 0.0
C698 C 0.51748 0.9424 0.08782 0.0
C699 C 0.48221 0.92874 0.09172 0.0
C700 C 0.48714 0.98329 0.98451 0.0
C701 C 0.50198 0.96289 0.03744 0.0
C702 C 0.49642 0.0025 0.95837 0.0
C703 C 0.52935 0.0216 0.9567 0.0
C704 C 0.51103 0.98291 0.00919 0.0
C705 C 0.55229 0.02092 0.98199 0.0
C706 C 0.52741 0.95945 0.06084 0.0
C707 C 0.45795 0.93155 0.06739 0.0
N708 N 0.54274 0.00183 0.00714 0.0
N709 N 0.46823 0.94846 0.04135 0.0
H710 H 0.49466 0.44593 0.9283 0.0
H711 H 0.59085 0.54839 0.06608 0.0
H712 H 0.46354 0.55191 0.96115 0.0
H713 H 0.59936 0.43259 0.05211 0.0
H714 H 0.55446 0.55298 0.02024 0.0
H715 H 0.54158 0.44317 0.96744 0.0
C716 C 0.49768 0.4686 0.94373 0.0
C717 C 0.47495 0.49908 0.94165 0.0
C718 C 0.56469 0.52663 0.027 0.0
C719 C 0.52888 0.49632 0.98598 0.0
C720 C 0.58577 0.524 0.05304 0.0
C721 C 0.59779 0.48996 0.06321 0.0
C722 C 0.55564 0.49503 0.0109 0.0
C723 C 0.59043 0.45935 0.04524 0.0
C724 C 0.5245 0.46702 0.96597 0.0
C725 C 0.48019 0.52773 0.96212 0.0
N726 N 0.56944 0.46254 0.02011 0.0
N727 N 0.50663 0.52567 0.98338 0.0
H728 H 0.07084 0.94203 0.42321 0.0
H729 H 0.91378 0.05848 0.50326 0.0
H730 H 0.96539 0.95993 0.38384 0.0
H731 H 0.01841 0.03853 0.54344 0.0
H732 H 0.93238 0.02298 0.45902 0.0
H733 H 0.05166 0.9761 0.46801 0.0
C734 C 0.04351 0.95268 0.42414 0.0
C735 C 0.01974 0.94813 0.39968 0.0
C736 C 0.95133 0.02651 0.47747 0.0
C737 C 0.99776 0.98773 0.45069 0.0
C738 C 0.94079 0.04701 0.50265 0.0
C739 C 0.96456 0.05155 0.5271 0.0
C740 C 0.98588 0.01041 0.47674 0.0
C741 C 0.99916 0.0358 0.52513 0.0
C742 C 0.03263 0.97237 0.44965 0.0
C743 C 0.98468 0.96275 0.40211 0.0
N744 N 0.00872 0.01588 0.50047 0.0
N745 N 0.97484 0.98204 0.42704 0.0
H746 H 0.57074 0.97045 0.42837 0.0
H747 H 0.47074 0.04899 0.57533 0.0
H748 H 0.5865 0.07941 0.46203 0.0
H749 H 0.46252 0.9372 0.54654 0.0
H750 H 0.51108 0.06121 0.53269 0.0
H751 H 0.53112 0.95768 0.47138 0.0
C752 C 0.56634 0.99155 0.44507 0.0
C753 C 0.582 0.02609 0.44155 0.0
C754 C 0.50031 0.03405 0.53557 0.0
C755 C 0.53594 0.01183 0.49061 0.0
C756 C 0.47698 0.02709 0.5598 0.0
C757 C 0.46319 0.99197 0.56458 0.0
C758 C 0.50999 0.0057 0.51589 0.0
C759 C 0.47241 0.9647 0.54373 0.0
C760 C 0.54348 0.98428 0.46954 0.0
C761 C 0.57517 0.05235 0.46388 0.0
N762 N 0.49536 0.9721 0.52039 0.0
N763 N 0.55241 0.04477 0.48731 0.0
H764 H 0.44992 0.39398 0.56524 0.0
H765 H 0.54925 0.49782 0.42937 0.0
H766 H 0.56582 0.39028 0.55199 0.0
H767 H 0.44303 0.52545 0.46335 0.0
H768 H 0.55366 0.45015 0.46798 0.0
H769 H 0.44457 0.43215 0.52036 0.0
C770 C 0.4742 0.40049 0.55253 0.0
C771 C 0.50844 0.38922 0.56264 0.0
C772 C 0.52941 0.46666 0.46689 0.0
C773 C 0.50247 0.43343 0.51142 0.0
C774 C 0.52688 0.4939 0.44495 0.0
C775 C 0.49583 0.51585 0.4433 0.0
C776 C 0.50044 0.46099 0.487 0.0
C777 C 0.46762 0.50944 0.46396 0.0
C778 C 0.47113 0.4226 0.52705 0.0
C779 C 0.5389 0.39852 0.54514 0.0
N780 N 0.47057 0.48256 0.48488 0.0
N781 N 0.53526 0.42043 0.52052 0.0
H782 H 0.98542 0.5508 0.43793 0.0
H783 H 0.06153 0.48151 0.59711 0.0
H784 H 0.96495 0.44342 0.47339 0.0
H785 H 0.08903 0.58533 0.55783 0.0
H786 H 0.02674 0.46669 0.55184 0.0
H787 H 0.02254 0.56417 0.48214 0.0
C788 C 0.98847 0.53009 0.45514 0.0
C789 C 0.97197 0.49591 0.45194 0.0
C790 C 0.0406 0.49259 0.55299 0.0
C791 C 0.0149 0.51099 0.5026 0.0
C792 C 0.06064 0.50104 0.5788 0.0
C793 C 0.07819 0.53478 0.58131 0.0
C794 C 0.03784 0.51815 0.52954 0.0
C795 C 0.07602 0.55898 0.55685 0.0
C796 C 0.00989 0.5377 0.48033 0.0
C797 C 0.97705 0.47015 0.47496 0.0
N798 N 0.05596 0.55031 0.53209 0.0
N799 N 0.99811 0.47821 0.49929 0.0
loop_
_geom_bond_atom_site_label_1
_geom_bond_atom_site_label_2
_geom_bond_distance
_geom_bond_site_symmetry_2
_ccdc_geom_bond_type
O0 Cd1 2.223 . S
O0 C8 1.341 . S
Cd1 O0 2.223 . S
Cd1 O4 2.297 . S
Cd1 O5 2.439 1_655 S
Cd1 O11 2.240 1_655 S
Cd2 O3 2.240 . S
Cd2 O10 2.223 . S
Cd2 O12 2.297 . S
Cd2 O13 2.439 . S
O3 Cd2 2.240 . S
O3 C8 1.250 1_455 S
O4 Cd1 2.297 . S
O4 C6 1.238 1_655 S
O5 Cd1 2.439 1_455 S
O5 C6 1.217 . S
C6 O4 1.238 1_455 S
C6 O5 1.217 . S
C7 O12 1.247 . S
C7 O13 1.208 . S
C8 O0 1.341 . S
C8 O3 1.250 1_655 S
C9 O10 1.315 . S
C9 O11 1.279 . S
O10 Cd2 2.223 . S
O10 C9 1.315 . S
O11 Cd1 2.240 1_455 S
O11 C9 1.279 . S
O12 Cd2 2.297 . S
O12 C7 1.247 . S
O13 Cd2 2.439 . S
O13 C7 1.208 . S
O14 Cd15 2.223 . S
O14 C22 1.340 . S
Cd15 O14 2.223 . S
Cd15 O18 2.297 . S
Cd15 O19 2.439 1_565 S
Cd15 O25 2.240 1_565 S
Cd16 O17 2.240 . S
Cd16 O24 2.223 . S
Cd16 O26 2.297 . S
Cd16 O27 2.439 . S
O17 Cd16 2.240 . S
O17 C22 1.250 1_545 S
O18 Cd15 2.297 . S
O18 C20 1.238 1_565 S
O19 Cd15 2.439 1_545 S
O19 C20 1.218 . S
C20 O18 1.238 1_545 S
C20 O19 1.218 . S
C21 O26 1.247 . S
C21 O27 1.208 . S
C22 O14 1.340 . S
C22 O17 1.250 1_565 S
C23 O24 1.315 . S
C23 O25 1.279 . S
O24 Cd16 2.223 . S
O24 C23 1.315 . S
O25 Cd15 2.240 1_545 S
O25 C23 1.279 . S
O26 Cd16 2.297 . S
O26 C21 1.247 . S
O27 Cd16 2.439 . S
O27 C21 1.208 . S
O28 Cd29 2.223 . S
O28 C36 1.315 . S
Cd29 O28 2.223 . S
Cd29 O32 2.297 . S
Cd29 O33 2.439 . S
Cd29 O39 2.240 . S
Cd30 O31 2.240 . S
Cd30 O38 2.223 . S
Cd30 O40 2.297 . S
Cd30 O41 2.439 . S
O31 Cd30 2.240 . S
O31 C36 1.279 . S
O32 Cd29 2.297 . S
O32 C34 1.247 . S
O33 Cd29 2.439 . S
O33 C34 1.208 . S
C34 O32 1.247 . S
C34 O33 1.208 . S
C35 O40 1.247 . S
C35 O41 1.208 . S
C36 O28 1.315 . S
C36 O31 1.279 . S
C37 O38 1.315 . S
C37 O39 1.279 . S
O38 Cd30 2.223 . S
O38 C37 1.315 . S
O39 Cd29 2.240 . S
O39 C37 1.279 . S
O40 Cd30 2.297 . S
O40 C35 1.247 . S
O41 Cd30 2.439 . S
O41 C35 1.208 . S
O42 Cd43 2.223 . S
O42 C50 1.315 . S
Cd43 O42 2.223 . S
Cd43 O46 2.297 . S
Cd43 O47 2.439 . S
Cd43 O53 2.240 . S
Cd44 O45 2.240 . S
Cd44 O52 2.223 . S
Cd44 O54 2.297 . S
Cd44 O55 2.439 . S
O45 Cd44 2.240 . S
O45 C50 1.279 . S
O46 Cd43 2.297 . S
O46 C48 1.247 . S
O47 Cd43 2.439 . S
O47 C48 1.208 . S
C48 O46 1.247 . S
C48 O47 1.208 . S
C49 O54 1.247 . S
C49 O55 1.208 . S
C50 O42 1.315 . S
C50 O45 1.279 . S
C51 O52 1.315 . S
C51 O53 1.279 . S
O52 Cd44 2.223 . S
O52 C51 1.315 . S
O53 Cd43 2.240 . S
O53 C51 1.279 . S
O54 Cd44 2.297 . S
O54 C49 1.247 . S
O55 Cd44 2.439 . S
O55 C49 1.208 . S
O56 Cd57 2.223 . S
O56 C64 1.340 . S
Cd57 O56 2.223 . S
Cd57 O60 2.297 . S
Cd57 O61 2.439 1_655 S
Cd57 O67 2.240 1_655 S
Cd58 O59 2.240 . S
Cd58 O66 2.223 . S
Cd58 O68 2.297 . S
Cd58 O69 2.439 . S
O59 Cd58 2.240 . S
O59 C64 1.250 1_455 S
O60 Cd57 2.297 . S
O60 C62 1.238 1_655 S
O61 Cd57 2.439 1_455 S
O61 C62 1.218 . S
C62 O60 1.238 1_455 S
C62 O61 1.218 . S
C63 O68 1.247 . S
C63 O69 1.208 . S
C64 O56 1.340 . S
C64 O59 1.250 1_655 S
C65 O66 1.315 . S
C65 O67 1.279 . S
O66 Cd58 2.223 . S
O66 C65 1.315 . S
O67 Cd57 2.240 1_455 S
O67 C65 1.279 . S
O68 Cd58 2.297 . S
O68 C63 1.247 . S
O69 Cd58 2.439 . S
O69 C63 1.208 . S
O70 Cd71 2.223 . S
O70 C78 1.341 . S
Cd71 O70 2.223 . S
Cd71 O74 2.297 . S
Cd71 O75 2.439 1_565 S
Cd71 O81 2.240 1_565 S
Cd72 O73 2.240 . S
Cd72 O80 2.223 . S
Cd72 O82 2.297 . S
Cd72 O83 2.439 . S
O73 Cd72 2.240 . S
O73 C78 1.250 1_545 S
O74 Cd71 2.297 . S
O74 C76 1.238 1_565 S
O75 Cd71 2.439 1_545 S
O75 C76 1.217 . S
C76 O74 1.238 1_545 S
C76 O75 1.217 . S
C77 O82 1.247 . S
C77 O83 1.208 . S
C78 O70 1.341 . S
C78 O73 1.250 1_565 S
C79 O80 1.315 . S
C79 O81 1.279 . S
O80 Cd72 2.223 . S
O80 C79 1.315 . S
O81 Cd71 2.240 1_545 S
O81 C79 1.279 . S
O82 Cd72 2.297 . S
O82 C77 1.247 . S
O83 Cd72 2.439 . S
O83 C77 1.208 . S
O84 Cd85 2.223 . S
O84 C92 1.315 . S
Cd85 O84 2.223 . S
Cd85 O88 2.297 . S
Cd85 O89 2.439 . S
Cd85 O95 2.240 . S
Cd86 O87 2.240 . S
Cd86 O94 2.223 . S
Cd86 O96 2.297 . S
Cd86 O97 2.439 . S
O87 Cd86 2.240 . S
O87 C92 1.279 . S
O88 Cd85 2.297 . S
O88 C90 1.247 . S
O89 Cd85 2.439 . S
O89 C90 1.208 . S
C90 O88 1.247 . S
C90 O89 1.208 . S
C91 O96 1.247 . S
C91 O97 1.208 . S
C92 O84 1.315 . S
C92 O87 1.279 . S
C93 O94 1.315 . S
C93 O95 1.279 . S
O94 Cd86 2.223 . S
O94 C93 1.315 . S
O95 Cd85 2.240 . S
O95 C93 1.279 . S
O96 Cd86 2.297 . S
O96 C91 1.247 . S
O97 Cd86 2.439 . S
O97 C91 1.208 . S
O98 Cd99 2.223 . S
O98 C106 1.315 . S
Cd99 O98 2.223 . S
Cd99 O102 2.297 . S
Cd99 O103 2.439 . S
Cd99 O109 2.240 . S
Cd100 O101 2.240 . S
Cd100 O108 2.223 . S
Cd100 O110 2.297 . S
Cd100 O111 2.439 . S
O101 Cd100 2.240 . S
O101 C106 1.279 . S
O102 Cd99 2.297 . S
O102 C104 1.247 . S
O103 Cd99 2.439 . S
O103 C104 1.208 . S
C104 O102 1.247 . S
C104 O103 1.208 . S
C105 O110 1.247 . S
C105 O111 1.208 . S
C106 O98 1.315 . S
C106 O101 1.279 . S
C107 O108 1.315 . S
C107 O109 1.279 . S
O108 Cd100 2.223 . S
O108 C107 1.315 . S
O109 Cd99 2.240 . S
O109 C107 1.279 . S
O110 Cd100 2.297 . S
O110 C105 1.247 . S
O111 Cd100 2.439 . S
O111 C105 1.208 . S
O112 Cd113 2.223 . S
O112 C120 1.341 . S
Cd113 O112 2.223 . S
Cd113 O116 2.297 . S
Cd113 O117 2.439 1_455 S
Cd113 O123 2.240 1_455 S
Cd114 O115 2.240 . S
Cd114 O122 2.223 . S
Cd114 O124 2.297 . S
Cd114 O125 2.439 . S
O115 Cd114 2.240 . S
O115 C120 1.250 1_655 S
O116 Cd113 2.297 . S
O116 C118 1.238 1_455 S
O117 Cd113 2.439 1_655 S
O117 C118 1.217 . S
C118 O116 1.238 1_655 S
C118 O117 1.217 . S
C119 O124 1.247 . S
C119 O125 1.208 . S
C120 O112 1.341 . S
C120 O115 1.250 1_455 S
C121 O122 1.315 . S
C121 O123 1.279 . S
O122 Cd114 2.223 . S
O122 C121 1.315 . S
O123 Cd113 2.240 1_655 S
O123 C121 1.279 . S
O124 Cd114 2.297 . S
O124 C119 1.247 . S
O125 Cd114 2.439 . S
O125 C119 1.208 . S
O126 Cd127 2.223 . S
O126 C134 1.340 . S
Cd127 O126 2.223 . S
Cd127 O130 2.297 . S
Cd127 O131 2.439 1_545 S
Cd127 O137 2.240 1_545 S
Cd128 O129 2.240 . S
Cd128 O136 2.223 . S
Cd128 O138 2.297 . S
Cd128 O139 2.439 . S
O129 Cd128 2.240 . S
O129 C134 1.250 1_565 S
O130 Cd127 2.297 . S
O130 C132 1.238 1_545 S
O131 Cd127 2.439 1_565 S
O131 C132 1.218 . S
C132 O130 1.238 1_565 S
C132 O131 1.218 . S
C133 O138 1.247 . S
C133 O139 1.208 . S
C134 O126 1.340 . S
C134 O129 1.250 1_545 S
C135 O136 1.315 . S
C135 O137 1.279 . S
O136 Cd128 2.223 . S
O136 C135 1.315 . S
O137 Cd127 2.240 1_565 S
O137 C135 1.279 . S
O138 Cd128 2.297 . S
O138 C133 1.247 . S
O139 Cd128 2.439 . S
O139 C133 1.208 . S
O140 Cd141 2.223 . S
O140 C148 1.315 . S
Cd141 O140 2.223 . S
Cd141 O144 2.297 . S
Cd141 O145 2.439 . S
Cd141 O151 2.240 . S
Cd142 O143 2.240 . S
Cd142 O150 2.223 . S
Cd142 O152 2.297 . S
Cd142 O153 2.439 . S
O143 Cd142 2.240 . S
O143 C148 1.279 . S
O144 Cd141 2.297 . S
O144 C146 1.247 . S
O145 Cd141 2.439 . S
O145 C146 1.208 . S
C146 O144 1.247 . S
C146 O145 1.208 . S
C147 O152 1.247 . S
C147 O153 1.208 . S
C148 O140 1.315 . S
C148 O143 1.279 . S
C149 O150 1.315 . S
C149 O151 1.279 . S
O150 Cd142 2.223 . S
O150 C149 1.315 . S
O151 Cd141 2.240 . S
O151 C149 1.279 . S
O152 Cd142 2.297 . S
O152 C147 1.247 . S
O153 Cd142 2.439 . S
O153 C147 1.208 . S
O154 Cd155 2.223 . S
O154 C162 1.315 . S
Cd155 O154 2.223 . S
Cd155 O158 2.297 . S
Cd155 O159 2.439 . S
Cd155 O165 2.240 . S
Cd156 O157 2.240 . S
Cd156 O164 2.223 . S
Cd156 O166 2.297 . S
Cd156 O167 2.439 . S
O157 Cd156 2.240 . S
O157 C162 1.279 . S
O158 Cd155 2.297 . S
O158 C160 1.247 . S
O159 Cd155 2.439 . S
O159 C160 1.208 . S
C160 O158 1.247 . S
C160 O159 1.208 . S
C161 O166 1.247 . S
C161 O167 1.208 . S
C162 O154 1.315 . S
C162 O157 1.279 . S
C163 O164 1.315 . S
C163 O165 1.279 . S
O164 Cd156 2.223 . S
O164 C163 1.315 . S
O165 Cd155 2.240 . S
O165 C163 1.279 . S
O166 Cd156 2.297 . S
O166 C161 1.247 . S
O167 Cd156 2.439 . S
O167 C161 1.208 . S
O168 Cd169 2.223 . S
O168 C176 1.340 . S
Cd169 O168 2.223 . S
Cd169 O172 2.297 . S
Cd169 O173 2.439 1_455 S
Cd169 O179 2.240 1_455 S
Cd170 O171 2.240 . S
Cd170 O178 2.223 . S
Cd170 O180 2.297 . S
Cd170 O181 2.439 . S
O171 Cd170 2.240 . S
O171 C176 1.250 1_655 S
O172 Cd169 2.297 . S
O172 C174 1.238 1_455 S
O173 Cd169 2.439 1_655 S
O173 C174 1.218 . S
C174 O172 1.238 1_655 S
C174 O173 1.218 . S
C175 O180 1.247 . S
C175 O181 1.208 . S
C176 O168 1.340 . S
C176 O171 1.250 1_455 S
C177 O178 1.315 . S
C177 O179 1.279 . S
O178 Cd170 2.223 . S
O178 C177 1.315 . S
O179 Cd169 2.240 1_655 S
O179 C177 1.279 . S
O180 Cd170 2.297 . S
O180 C175 1.247 . S
O181 Cd170 2.439 . S
O181 C175 1.208 . S
O182 Cd183 2.223 . S
O182 C190 1.341 . S
Cd183 O182 2.223 . S
Cd183 O186 2.297 . S
Cd183 O187 2.439 1_545 S
Cd183 O193 2.240 1_545 S
Cd184 O185 2.240 . S
Cd184 O192 2.223 . S
Cd184 O194 2.297 . S
Cd184 O195 2.439 . S
O185 Cd184 2.240 . S
O185 C190 1.250 1_565 S
O186 Cd183 2.297 . S
O186 C188 1.238 1_545 S
O187 Cd183 2.439 1_565 S
O187 C188 1.217 . S
C188 O186 1.238 1_565 S
C188 O187 1.217 . S
C189 O194 1.247 . S
C189 O195 1.208 . S
C190 O182 1.341 . S
C190 O185 1.250 1_545 S
C191 O192 1.315 . S
C191 O193 1.279 . S
O192 Cd184 2.223 . S
O192 C191 1.315 . S
O193 Cd183 2.240 1_565 S
O193 C191 1.279 . S
O194 Cd184 2.297 . S
O194 C189 1.247 . S
O195 Cd184 2.439 . S
O195 C189 1.208 . S
O196 Cd197 2.223 . S
O196 C204 1.315 . S
Cd197 O196 2.223 . S
Cd197 O200 2.297 . S
Cd197 O201 2.439 . S
Cd197 O207 2.240 . S
Cd198 O199 2.240 . S
Cd198 O206 2.223 . S
Cd198 O208 2.297 . S
Cd198 O209 2.439 . S
O199 Cd198 2.240 . S
O199 C204 1.279 . S
O200 Cd197 2.297 . S
O200 C202 1.247 . S
O201 Cd197 2.439 . S
O201 C202 1.208 . S
C202 O200 1.247 . S
C202 O201 1.208 . S
C203 O208 1.247 . S
C203 O209 1.208 . S
C204 O196 1.315 . S
C204 O199 1.279 . S
C205 O206 1.315 . S
C205 O207 1.279 . S
O206 Cd198 2.223 . S
O206 C205 1.315 . S
O207 Cd197 2.240 . S
O207 C205 1.279 . S
O208 Cd198 2.297 . S
O208 C203 1.247 . S
O209 Cd198 2.439 . S
O209 C203 1.208 . S
O210 Cd211 2.223 . S
O210 C218 1.315 . S
Cd211 O210 2.223 . S
Cd211 O214 2.297 . S
Cd211 O215 2.439 . S
Cd211 O221 2.240 . S
Cd212 O213 2.240 . S
Cd212 O220 2.223 . S
Cd212 O222 2.297 . S
Cd212 O223 2.439 . S
O213 Cd212 2.240 . S
O213 C218 1.279 . S
O214 Cd211 2.297 . S
O214 C216 1.247 . S
O215 Cd211 2.439 . S
O215 C216 1.208 . S
C216 O214 1.247 . S
C216 O215 1.208 . S
C217 O222 1.247 . S
C217 O223 1.208 . S
C218 O210 1.315 . S
C218 O213 1.279 . S
C219 O220 1.315 . S
C219 O221 1.279 . S
O220 Cd212 2.223 . S
O220 C219 1.315 . S
O221 Cd211 2.240 . S
O221 C219 1.279 . S
O222 Cd212 2.297 . S
O222 C217 1.247 . S
O223 Cd212 2.439 . S
O223 C217 1.208 . S
H224 C230 0.930 . S
H225 C234 0.930 . S
H226 C239 0.929 . S
H227 C237 0.929 . S
H228 C232 0.929 . S
H229 C238 0.929 . S
C230 H224 0.930 . S
C230 C231 1.367 . S
C230 C238 1.378 . S
C231 C230 1.367 . S
C231 C239 1.433 . S
C232 H228 0.929 . S
C232 C234 1.378 . S
C232 C236 1.350 . S
C233 C236 1.463 . S
C233 C238 1.350 . S
C233 N241 1.427 . S
C234 H225 0.930 . S
C234 C232 1.378 . S
C234 C235 1.367 . S
C235 C234 1.367 . S
C235 C237 1.433 . S
C236 C232 1.350 . S
C236 C233 1.463 . S
C236 N240 1.427 . S
C237 H227 0.929 . S
C237 C235 1.433 . S
C237 N240 1.384 . S
C238 H229 0.929 . S
C238 C230 1.378 . S
C238 C233 1.350 . S
C239 H226 0.929 . S
C239 C231 1.433 . S
C239 N241 1.384 . S
N240 C236 1.427 . S
N240 C237 1.384 . S
N241 C233 1.427 . S
N241 C239 1.384 . S
H242 C248 0.930 . S
H243 C252 0.930 . S
H244 C257 0.929 . S
H245 C255 0.929 . S
H246 C250 0.929 . S
H247 C256 0.929 . S
C248 H242 0.930 . S
C248 C249 1.367 . S
C248 C256 1.378 . S
C249 C248 1.367 . S
C249 C257 1.433 . S
C250 H246 0.929 . S
C250 C252 1.378 . S
C250 C254 1.350 . S
C251 C254 1.463 . S
C251 C256 1.350 . S
C251 N259 1.427 . S
C252 H243 0.930 . S
C252 C250 1.378 . S
C252 C253 1.367 . S
C253 C252 1.367 . S
C253 C255 1.433 . S
C254 C250 1.350 . S
C254 C251 1.463 . S
C254 N258 1.427 . S
C255 H245 0.929 . S
C255 C253 1.433 . S
C255 N258 1.384 . S
C256 H247 0.929 . S
C256 C248 1.378 . S
C256 C251 1.350 . S
C257 H244 0.929 . S
C257 C249 1.433 . S
C257 N259 1.384 . S
N258 C254 1.427 . S
N258 C255 1.384 . S
N259 C251 1.427 . S
N259 C257 1.384 . S
H260 C266 0.930 . S
H261 C270 0.930 . S
H262 C275 0.929 . S
H263 C273 0.929 . S
H264 C268 0.929 . S
H265 C274 0.929 . S
C266 H260 0.930 . S
C266 C267 1.367 . S
C266 C274 1.378 . S
C267 C266 1.367 . S
C267 C275 1.433 . S
C268 H264 0.929 . S
C268 C270 1.378 . S
C268 C272 1.350 . S
C269 C272 1.463 . S
C269 C274 1.350 . S
C269 N277 1.427 . S
C270 H261 0.930 . S
C270 C268 1.378 . S
C270 C271 1.367 . S
C271 C270 1.367 . S
C271 C273 1.433 . S
C272 C268 1.350 . S
C272 C269 1.463 . S
C272 N276 1.427 . S
C273 H263 0.929 . S
C273 C271 1.433 . S
C273 N276 1.384 . S
C274 H265 0.929 . S
C274 C266 1.378 . S
C274 C269 1.350 . S
C275 H262 0.929 . S
C275 C267 1.433 . S
C275 N277 1.384 . S
N276 C272 1.427 . S
N276 C273 1.384 . S
N277 C269 1.427 . S
N277 C275 1.384 . S
H278 C284 0.930 . S
H279 C288 0.930 . S
H280 C293 0.929 . S
H281 C291 0.929 . S
H282 C286 0.929 . S
H283 C292 0.929 . S
C284 H278 0.930 . S
C284 C285 1.367 . S
C284 C292 1.378 . S
C285 C284 1.367 . S
C285 C293 1.433 . S
C286 H282 0.929 . S
C286 C288 1.378 . S
C286 C290 1.350 . S
C287 C290 1.463 . S
C287 C292 1.350 . S
C287 N295 1.427 . S
C288 H279 0.930 . S
C288 C286 1.378 . S
C288 C289 1.367 . S
C289 C288 1.367 . S
C289 C291 1.433 . S
C290 C286 1.350 . S
C290 C287 1.463 . S
C290 N294 1.427 . S
C291 H281 0.929 . S
C291 C289 1.433 . S
C291 N294 1.384 . S
C292 H283 0.929 . S
C292 C284 1.378 . S
C292 C287 1.350 . S
C293 H280 0.929 . S
C293 C285 1.433 . S
C293 N295 1.384 . S
N294 C290 1.427 . S
N294 C291 1.384 . S
N295 C287 1.427 . S
N295 C293 1.384 . S
H296 C302 0.930 . S
H297 C306 0.930 . S
H298 C311 0.929 . S
H299 C309 0.929 . S
H300 C304 0.929 . S
H301 C310 0.929 . S
C302 H296 0.930 . S
C302 C303 1.367 . S
C302 C310 1.378 . S
C303 C302 1.367 . S
C303 C311 1.433 . S
C304 H300 0.929 . S
C304 C306 1.378 . S
C304 C308 1.350 . S
C305 C308 1.463 . S
C305 C310 1.350 . S
C305 N313 1.427 . S
C306 H297 0.930 . S
C306 C304 1.378 . S
C306 C307 1.367 . S
C307 C306 1.367 . S
C307 C309 1.433 . S
C308 C304 1.350 . S
C308 C305 1.463 . S
C308 N312 1.427 . S
C309 H299 0.929 . S
C309 C307 1.433 . S
C309 N312 1.384 . S
C310 H301 0.929 . S
C310 C302 1.378 . S
C310 C305 1.350 . S
C311 H298 0.929 . S
C311 C303 1.433 . S
C311 N313 1.384 . S
N312 C308 1.427 . S
N312 C309 1.384 . S
N313 C305 1.427 . S
N313 C311 1.384 . S
H314 C320 0.930 . S
H315 C324 0.930 . S
H316 C329 0.929 . S
H317 C327 0.929 . S
H318 C322 0.929 . S
H319 C328 0.929 . S
C320 H314 0.930 . S
C320 C321 1.367 . S
C320 C328 1.378 . S
C321 C320 1.367 . S
C321 C329 1.433 . S
C322 H318 0.929 . S
C322 C324 1.378 . S
C322 C326 1.350 . S
C323 C326 1.463 . S
C323 C328 1.350 . S
C323 N331 1.427 . S
C324 H315 0.930 . S
C324 C322 1.378 . S
C324 C325 1.367 . S
C325 C324 1.367 . S
C325 C327 1.433 . S
C326 C322 1.350 . S
C326 C323 1.463 . S
C326 N330 1.427 . S
C327 H317 0.929 . S
C327 C325 1.433 . S
C327 N330 1.384 . S
C328 H319 0.929 . S
C328 C320 1.378 . S
C328 C323 1.350 . S
C329 H316 0.929 . S
C329 C321 1.433 . S
C329 N331 1.384 . S
N330 C326 1.427 . S
N330 C327 1.384 . S
N331 C323 1.427 . S
N331 C329 1.384 . S
H332 C338 0.930 . S
H333 C342 0.930 . S
H334 C347 0.929 . S
H335 C345 0.929 . S
H336 C340 0.929 . S
H337 C346 0.929 . S
C338 H332 0.930 . S
C338 C339 1.367 . S
C338 C346 1.378 . S
C339 C338 1.367 . S
C339 C347 1.433 . S
C340 H336 0.929 . S
C340 C342 1.378 . S
C340 C344 1.350 . S
C341 C344 1.463 . S
C341 C346 1.350 . S
C341 N349 1.427 . S
C342 H333 0.930 . S
C342 C340 1.378 . S
C342 C343 1.367 . S
C343 C342 1.367 . S
C343 C345 1.433 . S
C344 C340 1.350 . S
C344 C341 1.463 . S
C344 N348 1.427 . S
C345 H335 0.929 . S
C345 C343 1.433 . S
C345 N348 1.384 . S
C346 H337 0.929 . S
C346 C338 1.378 . S
C346 C341 1.350 . S
C347 H334 0.929 . S
C347 C339 1.433 . S
C347 N349 1.384 . S
N348 C344 1.427 . S
N348 C345 1.384 . S
N349 C341 1.427 . S
N349 C347 1.384 . S
H350 C356 0.930 . S
H351 C360 0.930 . S
H352 C365 0.929 . S
H353 C363 0.929 . S
H354 C358 0.929 . S
H355 C364 0.929 . S
C356 H350 0.930 . S
C356 C357 1.367 . S
C356 C364 1.378 . S
C357 C356 1.367 . S
C357 C365 1.433 . S
C358 H354 0.929 . S
C358 C360 1.378 . S
C358 C362 1.350 . S
C359 C362 1.463 . S
C359 C364 1.350 . S
C359 N367 1.427 . S
C360 H351 0.930 . S
C360 C358 1.378 . S
C360 C361 1.367 . S
C361 C360 1.367 . S
C361 C363 1.433 . S
C362 C358 1.350 . S
C362 C359 1.463 . S
C362 N366 1.427 . S
C363 H353 0.929 . S
C363 C361 1.433 . S
C363 N366 1.384 . S
C364 H355 0.929 . S
C364 C356 1.378 . S
C364 C359 1.350 . S
C365 H352 0.929 . S
C365 C357 1.433 . S
C365 N367 1.384 . S
N366 C362 1.427 . S
N366 C363 1.384 . S
N367 C359 1.427 . S
N367 C365 1.384 . S
H368 C374 0.930 . S
H369 C378 0.930 1_455 S
H370 C383 0.929 . S
H371 C381 0.929 . S
H372 C376 0.929 . S
H373 C382 0.929 . S
C374 H368 0.930 . S
C374 C375 1.367 . S
C374 C382 1.378 . S
C375 C374 1.367 . S
C375 C383 1.433 . S
C376 H372 0.929 . S
C376 C378 1.378 . S
C376 C380 1.350 . S
C377 C380 1.463 . S
C377 C382 1.350 . S
C377 N385 1.427 . S
C378 H369 0.930 1_655 S
C378 C376 1.378 . S
C378 C379 1.367 . S
C379 C378 1.367 . S
C379 C381 1.433 . S
C380 C376 1.350 . S
C380 C377 1.463 . S
C380 N384 1.427 . S
C381 H371 0.929 . S
C381 C379 1.433 . S
C381 N384 1.384 . S
C382 H373 0.929 . S
C382 C374 1.378 . S
C382 C377 1.350 . S
C383 H370 0.929 . S
C383 C375 1.433 . S
C383 N385 1.384 . S
N384 C380 1.427 . S
N384 C381 1.384 . S
N385 C377 1.427 . S
N385 C383 1.384 . S
H386 C392 0.930 . S
H387 C396 0.930 . S
H388 C401 0.929 . S
H389 C399 0.929 . S
H390 C394 0.929 . S
H391 C400 0.929 . S
C392 H386 0.930 . S
C392 C393 1.367 . S
C392 C400 1.378 . S
C393 C392 1.367 . S
C393 C401 1.433 1_565 S
C394 H390 0.929 . S
C394 C396 1.378 . S
C394 C398 1.350 . S
C395 C398 1.463 . S
C395 C400 1.350 . S
C395 N403 1.427 . S
C396 H387 0.930 . S
C396 C394 1.378 . S
C396 C397 1.367 . S
C397 C396 1.367 . S
C397 C399 1.433 . S
C398 C394 1.350 . S
C398 C395 1.463 . S
C398 N402 1.427 . S
C399 H389 0.929 . S
C399 C397 1.433 . S
C399 N402 1.384 . S
C400 H391 0.929 . S
C400 C392 1.378 . S
C400 C395 1.350 . S
C401 H388 0.929 . S
C401 C393 1.433 1_545 S
C401 N403 1.384 1_545 S
N402 C398 1.427 . S
N402 C399 1.384 . S
N403 C395 1.427 . S
N403 C401 1.384 1_565 S
H404 C410 0.930 . S
H405 C414 0.930 . S
H406 C419 0.929 1_545 S
H407 C417 0.929 . S
H408 C412 0.929 . S
H409 C418 0.929 . S
C410 H404 0.930 . S
C410 C411 1.367 . S
C410 C418 1.378 . S
C411 C410 1.367 . S
C411 C419 1.433 . S
C412 H408 0.929 . S
C412 C414 1.378 . S
C412 C416 1.350 . S
C413 C416 1.463 . S
C413 C418 1.350 . S
C413 N421 1.427 . S
C414 H405 0.930 . S
C414 C412 1.378 . S
C414 C415 1.367 . S
C415 C414 1.367 . S
C415 C417 1.433 . S
C416 C412 1.350 . S
C416 C413 1.463 . S
C416 N420 1.427 . S
C417 H407 0.929 . S
C417 C415 1.433 . S
C417 N420 1.384 . S
C418 H409 0.929 . S
C418 C410 1.378 . S
C418 C413 1.350 . S
C419 H406 0.929 1_565 S
C419 C411 1.433 . S
C419 N421 1.384 . S
N420 C416 1.427 . S
N420 C417 1.384 . S
N421 C413 1.427 . S
N421 C419 1.384 . S
H422 C428 0.930 . S
H423 C432 0.930 . S
H424 C437 0.929 . S
H425 C435 0.929 . S
H426 C430 0.929 . S
H427 C436 0.929 . S
C428 H422 0.930 . S
C428 C429 1.367 . S
C428 C436 1.378 . S
C429 C428 1.367 . S
C429 C437 1.433 . S
C430 H426 0.929 . S
C430 C432 1.378 . S
C430 C434 1.350 . S
C431 C434 1.463 . S
C431 C436 1.350 . S
C431 N439 1.427 . S
C432 H423 0.930 . S
C432 C430 1.378 . S
C432 C433 1.367 . S
C433 C432 1.367 . S
C433 C435 1.433 . S
C434 C430 1.350 . S
C434 C431 1.463 . S
C434 N438 1.427 . S
C435 H425 0.929 . S
C435 C433 1.433 . S
C435 N438 1.384 . S
C436 H427 0.929 . S
C436 C428 1.378 . S
C436 C431 1.350 . S
C437 H424 0.929 . S
C437 C429 1.433 . S
C437 N439 1.384 . S
N438 C434 1.427 . S
N438 C435 1.384 . S
N439 C431 1.427 . S
N439 C437 1.384 . S
H440 C446 0.930 . S
H441 C450 0.930 . S
H442 C455 0.929 . S
H443 C453 0.929 1_655 S
H444 C448 0.929 . S
H445 C454 0.929 . S
C446 H440 0.930 . S
C446 C447 1.367 . S
C446 C454 1.378 . S
C447 C446 1.367 . S
C447 C455 1.433 . S
C448 H444 0.929 . S
C448 C450 1.378 . S
C448 C452 1.350 . S
C449 C452 1.463 . S
C449 C454 1.350 . S
C449 N457 1.427 . S
C450 H441 0.930 . S
C450 C448 1.378 . S
C450 C451 1.367 . S
C451 C450 1.367 . S
C451 C453 1.433 . S
C452 C448 1.350 . S
C452 C449 1.463 . S
C452 N456 1.427 . S
C453 H443 0.929 1_455 S
C453 C451 1.433 . S
C453 N456 1.384 . S
C454 H445 0.929 . S
C454 C446 1.378 . S
C454 C449 1.350 . S
C455 H442 0.929 . S
C455 C447 1.433 . S
C455 N457 1.384 . S
N456 C452 1.427 . S
N456 C453 1.384 . S
N457 C449 1.427 . S
N457 C455 1.384 . S
H458 C464 0.930 . S
H459 C468 0.930 . S
H460 C473 0.929 . S
H461 C471 0.929 . S
H462 C466 0.929 . S
H463 C472 0.929 1_565 S
C464 H458 0.930 . S
C464 C465 1.367 1_565 S
C464 C472 1.378 1_565 S
C465 C464 1.367 1_545 S
C465 C473 1.433 . S
C466 H462 0.929 . S
C466 C468 1.378 . S
C466 C470 1.350 . S
C467 C470 1.463 . S
C467 C472 1.350 . S
C467 N475 1.427 . S
C468 H459 0.930 . S
C468 C466 1.378 . S
C468 C469 1.367 . S
C469 C468 1.367 . S
C469 C471 1.433 . S
C470 C466 1.350 . S
C470 C467 1.463 . S
C470 N474 1.427 . S
C471 H461 0.929 . S
C471 C469 1.433 . S
C471 N474 1.384 . S
C472 H463 0.929 1_545 S
C472 C464 1.378 1_545 S
C472 C467 1.350 . S
C473 H460 0.929 . S
C473 C465 1.433 . S
C473 N475 1.384 . S
N474 C470 1.427 . S
N474 C471 1.384 . S
N475 C467 1.427 . S
N475 C473 1.384 . S
H476 C482 0.930 . S
H477 C486 0.930 . S
H478 C491 0.929 . S
H479 C489 0.929 . S
H480 C484 0.929 . S
H481 C490 0.929 . S
C482 H476 0.930 . S
C482 C483 1.367 . S
C482 C490 1.378 . S
C483 C482 1.367 . S
C483 C491 1.433 . S
C484 H480 0.929 . S
C484 C486 1.378 . S
C484 C488 1.350 . S
C485 C488 1.463 . S
C485 C490 1.350 . S
C485 N493 1.427 . S
C486 H477 0.930 . S
C486 C484 1.378 . S
C486 C487 1.367 . S
C487 C486 1.367 . S
C487 C489 1.433 1_545 S
C488 C484 1.350 . S
C488 C485 1.463 . S
C488 N492 1.427 . S
C489 H479 0.929 . S
C489 C487 1.433 1_565 S
C489 N492 1.384 1_565 S
C490 H481 0.929 . S
C490 C482 1.378 . S
C490 C485 1.350 . S
C491 H478 0.929 . S
C491 C483 1.433 . S
C491 N493 1.384 . S
N492 C488 1.427 . S
N492 C489 1.384 1_545 S
N493 C485 1.427 . S
N493 C491 1.384 . S
H494 C500 0.930 . S
H495 C504 0.930 . S
H496 C509 0.929 . S
H497 C507 0.929 . S
H498 C502 0.929 . S
H499 C508 0.929 . S
C500 H494 0.930 . S
C500 C501 1.367 . S
C500 C508 1.378 . S
C501 C500 1.367 . S
C501 C509 1.433 . S
C502 H498 0.929 . S
C502 C504 1.378 . S
C502 C506 1.350 . S
C503 C506 1.463 . S
C503 C508 1.350 . S
C503 N511 1.427 . S
C504 H495 0.930 . S
C504 C502 1.378 . S
C504 C505 1.367 . S
C505 C504 1.367 . S
C505 C507 1.433 . S
C506 C502 1.350 . S
C506 C503 1.463 . S
C506 N510 1.427 . S
C507 H497 0.929 . S
C507 C505 1.433 . S
C507 N510 1.384 . S
C508 H499 0.929 . S
C508 C500 1.378 . S
C508 C503 1.350 . S
C509 H496 0.929 . S
C509 C501 1.433 . S
C509 N511 1.384 . S
N510 C506 1.427 . S
N510 C507 1.384 . S
N511 C503 1.427 . S
N511 C509 1.384 . S
H512 C518 0.930 . S
H513 C522 0.930 . S
H514 C527 0.929 . S
H515 C525 0.929 . S
H516 C520 0.929 . S
H517 C526 0.929 . S
C518 H512 0.930 . S
C518 C519 1.367 1_655 S
C518 C526 1.378 . S
C519 C518 1.367 1_455 S
C519 C527 1.433 . S
C520 H516 0.929 . S
C520 C522 1.378 . S
C520 C524 1.350 . S
C521 C524 1.463 . S
C521 C526 1.350 1_455 S
C521 N529 1.427 . S
C522 H513 0.930 . S
C522 C520 1.378 . S
C522 C523 1.367 . S
C523 C522 1.367 . S
C523 C525 1.433 1_455 S
C524 C520 1.350 . S
C524 C521 1.463 . S
C524 N528 1.427 1_455 S
C525 H515 0.929 . S
C525 C523 1.433 1_655 S
C525 N528 1.384 . S
C526 H517 0.929 . S
C526 C518 1.378 . S
C526 C521 1.350 1_655 S
C527 H514 0.929 . S
C527 C519 1.433 . S
C527 N529 1.384 . S
N528 C524 1.427 1_655 S
N528 C525 1.384 . S
N529 C521 1.427 . S
N529 C527 1.384 . S
H530 C536 0.930 . S
H531 C540 0.930 . S
H532 C545 0.929 . S
H533 C543 0.929 . S
H534 C538 0.929 . S
H535 C544 0.929 . S
C536 H530 0.930 . S
C536 C537 1.367 1_565 S
C536 C544 1.378 . S
C537 C536 1.367 1_545 S
C537 C545 1.433 . S
C538 H534 0.929 . S
C538 C540 1.378 . S
C538 C542 1.350 . S
C539 C542 1.463 . S
C539 C544 1.350 1_545 S
C539 N547 1.427 . S
C540 H531 0.930 . S
C540 C538 1.378 . S
C540 C541 1.367 . S
C541 C540 1.367 . S
C541 C543 1.433 1_545 S
C542 C538 1.350 . S
C542 C539 1.463 . S
C542 N546 1.427 1_545 S
C543 H533 0.929 . S
C543 C541 1.433 1_565 S
C543 N546 1.384 . S
C544 H535 0.929 . S
C544 C536 1.378 . S
C544 C539 1.350 1_565 S
C545 H532 0.929 . S
C545 C537 1.433 . S
C545 N547 1.384 . S
N546 C542 1.427 1_565 S
N546 C543 1.384 . S
N547 C539 1.427 . S
N547 C545 1.384 . S
H548 C554 0.930 . S
H549 C558 0.930 . S
H550 C563 0.929 . S
H551 C561 0.929 . S
H552 C556 0.929 . S
H553 C562 0.929 . S
C554 H548 0.930 . S
C554 C555 1.367 . S
C554 C562 1.378 . S
C555 C554 1.367 . S
C555 C563 1.433 . S
C556 H552 0.929 . S
C556 C558 1.378 . S
C556 C560 1.350 . S
C557 C560 1.463 . S
C557 C562 1.350 . S
C557 N565 1.427 . S
C558 H549 0.930 . S
C558 C556 1.378 . S
C558 C559 1.367 . S
C559 C558 1.367 . S
C559 C561 1.433 . S
C560 C556 1.350 . S
C560 C557 1.463 . S
C560 N564 1.427 . S
C561 H551 0.929 . S
C561 C559 1.433 . S
C561 N564 1.384 . S
C562 H553 0.929 . S
C562 C554 1.378 . S
C562 C557 1.350 . S
C563 H550 0.929 . S
C563 C555 1.433 . S
C563 N565 1.384 . S
N564 C560 1.427 . S
N564 C561 1.384 . S
N565 C557 1.427 . S
N565 C563 1.384 . S
H566 C572 0.930 . S
H567 C576 0.930 . S
H568 C581 0.929 . S
H569 C579 0.929 . S
H570 C574 0.929 . S
H571 C580 0.929 . S
C572 H566 0.930 . S
C572 C573 1.367 . S
C572 C580 1.378 . S
C573 C572 1.367 . S
C573 C581 1.433 . S
C574 H570 0.929 . S
C574 C576 1.378 . S
C574 C578 1.350 . S
C575 C578 1.463 . S
C575 C580 1.350 . S
C575 N583 1.427 . S
C576 H567 0.930 . S
C576 C574 1.378 . S
C576 C577 1.367 . S
C577 C576 1.367 . S
C577 C579 1.433 . S
C578 C574 1.350 . S
C578 C575 1.463 . S
C578 N582 1.427 . S
C579 H569 0.929 . S
C579 C577 1.433 . S
C579 N582 1.384 . S
C580 H571 0.929 . S
C580 C572 1.378 . S
C580 C575 1.350 . S
C581 H568 0.929 . S
C581 C573 1.433 . S
C581 N583 1.384 . S
N582 C578 1.427 . S
N582 C579 1.384 . S
N583 C575 1.427 . S
N583 C581 1.384 . S
H584 C590 0.930 . S
H585 C594 0.930 . S
H586 C599 0.929 . S
H587 C597 0.929 . S
H588 C592 0.929 . S
H589 C598 0.929 . S
C590 H584 0.930 . S
C590 C591 1.367 . S
C590 C598 1.378 . S
C591 C590 1.367 . S
C591 C599 1.433 1_655 S
C592 H588 0.929 . S
C592 C594 1.378 . S
C592 C596 1.350 1_455 S
C593 C596 1.463 . S
C593 C598 1.350 . S
C593 N601 1.427 1_655 S
C594 H585 0.930 . S
C594 C592 1.378 . S
C594 C595 1.367 1_455 S
C595 C594 1.367 1_655 S
C595 C597 1.433 . S
C596 C592 1.350 1_655 S
C596 C593 1.463 . S
C596 N600 1.427 . S
C597 H587 0.929 . S
C597 C595 1.433 . S
C597 N600 1.384 . S
C598 H589 0.929 . S
C598 C590 1.378 . S
C598 C593 1.350 . S
C599 H586 0.929 . S
C599 C591 1.433 1_455 S
C599 N601 1.384 . S
N600 C596 1.427 . S
N600 C597 1.384 . S
N601 C593 1.427 1_455 S
N601 C599 1.384 . S
H602 C608 0.930 . S
H603 C612 0.930 . S
H604 C617 0.929 . S
H605 C615 0.929 . S
H606 C610 0.929 . S
H607 C616 0.929 . S
C608 H602 0.930 . S
C608 C609 1.367 . S
C608 C616 1.378 . S
C609 C608 1.367 . S
C609 C617 1.433 1_565 S
C610 H606 0.929 . S
C610 C612 1.378 . S
C610 C614 1.350 1_545 S
C611 C614 1.463 . S
C611 C616 1.350 . S
C611 N619 1.427 1_565 S
C612 H603 0.930 . S
C612 C610 1.378 . S
C612 C613 1.367 1_545 S
C613 C612 1.367 1_565 S
C613 C615 1.433 . S
C614 C610 1.350 1_565 S
C614 C611 1.463 . S
C614 N618 1.427 . S
C615 H605 0.929 . S
C615 C613 1.433 . S
C615 N618 1.384 . S
C616 H607 0.929 . S
C616 C608 1.378 . S
C616 C611 1.350 . S
C617 H604 0.929 . S
C617 C609 1.433 1_545 S
C617 N619 1.384 . S
N618 C614 1.427 . S
N618 C615 1.384 . S
N619 C611 1.427 1_545 S
N619 C617 1.384 . S
H620 C626 0.930 . S
H621 C630 0.930 . S
H622 C635 0.929 . S
H623 C633 0.929 . S
H624 C628 0.929 . S
H625 C634 0.929 . S
C626 H620 0.930 . S
C626 C627 1.367 . S
C626 C634 1.378 . S
C627 C626 1.367 . S
C627 C635 1.433 . S
C628 H624 0.929 . S
C628 C630 1.378 . S
C628 C632 1.350 . S
C629 C632 1.463 . S
C629 C634 1.350 . S
C629 N637 1.427 . S
C630 H621 0.930 . S
C630 C628 1.378 . S
C630 C631 1.367 . S
C631 C630 1.367 . S
C631 C633 1.433 . S
C632 C628 1.350 . S
C632 C629 1.463 . S
C632 N636 1.427 . S
C633 H623 0.929 . S
C633 C631 1.433 . S
C633 N636 1.384 . S
C634 H625 0.929 . S
C634 C626 1.378 . S
C634 C629 1.350 . S
C635 H622 0.929 . S
C635 C627 1.433 . S
C635 N637 1.384 . S
N636 C632 1.427 . S
N636 C633 1.384 . S
N637 C629 1.427 . S
N637 C635 1.384 . S
H638 C644 0.930 . S
H639 C648 0.930 . S
H640 C653 0.929 . S
H641 C651 0.929 . S
H642 C646 0.929 . S
H643 C652 0.929 . S
C644 H638 0.930 . S
C644 C645 1.367 . S
C644 C652 1.378 . S
C645 C644 1.367 . S
C645 C653 1.433 . S
C646 H642 0.929 . S
C646 C648 1.378 . S
C646 C650 1.350 . S
C647 C650 1.463 . S
C647 C652 1.350 . S
C647 N655 1.427 . S
C648 H639 0.930 . S
C648 C646 1.378 . S
C648 C649 1.367 . S
C649 C648 1.367 . S
C649 C651 1.433 . S
C650 C646 1.350 . S
C650 C647 1.463 . S
C650 N654 1.427 . S
C651 H641 0.929 . S
C651 C649 1.433 . S
C651 N654 1.384 . S
C652 H643 0.929 . S
C652 C644 1.378 . S
C652 C647 1.350 . S
C653 H640 0.929 . S
C653 C645 1.433 . S
C653 N655 1.384 . S
N654 C650 1.427 . S
N654 C651 1.384 . S
N655 C647 1.427 . S
N655 C653 1.384 . S
H656 C662 0.930 1_556 S
H657 C666 0.930 1_554 S
H658 C671 0.929 . S
H659 C669 0.929 . S
H660 C664 0.929 . S
H661 C670 0.929 . S
C662 H656 0.930 1_554 S
C662 C663 1.363 1_655 S
C662 C670 1.378 1_554 S
C663 C662 1.363 1_455 S
C663 C671 1.437 . S
C664 H660 0.929 . S
C664 C666 1.378 1_554 S
C664 C668 1.351 1_554 S
C665 C668 1.462 1_654 S
C665 C670 1.351 1_554 S
C665 N673 1.427 1_655 S
C666 H657 0.930 1_556 S
C666 C664 1.378 1_556 S
C666 C667 1.363 1_455 S
C667 C666 1.363 1_655 S
C667 C669 1.437 . S
C668 C664 1.351 1_556 S
C668 C665 1.462 1_456 S
C668 N672 1.427 1_455 S
C669 H659 0.929 . S
C669 C667 1.437 . S
C669 N672 1.384 . S
C670 H661 0.929 . S
C670 C662 1.378 1_556 S
C670 C665 1.351 1_556 S
C671 H658 0.929 . S
C671 C663 1.437 . S
C671 N673 1.384 . S
N672 C668 1.427 1_655 S
N672 C669 1.384 . S
N673 C665 1.427 1_455 S
N673 C671 1.384 . S
H674 C680 0.930 . S
H675 C684 0.930 . S
H676 C689 0.929 . S
H677 C687 0.929 . S
H678 C682 0.929 . S
H679 C688 0.929 . S
C680 H674 0.930 . S
C680 C681 1.367 . S
C680 C688 1.378 1_556 S
C681 C680 1.367 . S
C681 C689 1.433 1_565 S
C682 H678 0.929 . S
C682 C684 1.378 1_556 S
C682 C686 1.368 1_556 S
C683 C686 1.461 1_466 S
C683 C688 1.368 1_556 S
C683 N691 1.410 1_565 S
C684 H675 0.930 . S
C684 C682 1.378 1_554 S
C684 C685 1.367 . S
C685 C684 1.367 . S
C685 C687 1.433 1_545 S
C686 C682 1.368 1_554 S
C686 C683 1.461 1_644 S
C686 N690 1.410 1_545 S
C687 H677 0.929 . S
C687 C685 1.433 1_565 S
C687 N690 1.384 . S
C688 H679 0.929 . S
C688 C680 1.378 1_554 S
C688 C683 1.368 1_554 S
C689 H676 0.929 . S
C689 C681 1.433 1_545 S
C689 N691 1.384 . S
N690 C686 1.410 1_565 S
N690 C687 1.384 . S
N691 C683 1.410 1_545 S
N691 C689 1.384 . S
H692 C698 0.930 . S
H693 C702 0.930 . S
H694 C707 0.930 1_556 S
H695 C705 0.930 1_554 S
H696 C700 0.929 1_565 S
H697 C706 0.929 1_545 S
C698 H692 0.930 . S
C698 C699 1.367 . S
C698 C706 1.378 . S
C699 C698 1.367 . S
C699 C707 1.433 . S
C700 H696 0.929 1_545 S
C700 C702 1.378 . S
C700 C704 1.350 . S
C701 C704 1.463 1_564 S
C701 C706 1.350 . S
C701 N709 1.427 1_554 S
C702 H693 0.930 . S
C702 C700 1.378 . S
C702 C703 1.367 . S
C703 C702 1.367 . S
C703 C705 1.433 . S
C704 C700 1.350 . S
C704 C701 1.463 1_546 S
C704 N708 1.427 1_556 S
C705 H695 0.930 1_556 S
C705 C703 1.433 . S
C705 N708 1.384 1_556 S
C706 H697 0.929 1_565 S
C706 C698 1.378 . S
C706 C701 1.350 . S
C707 H694 0.930 1_554 S
C707 C699 1.433 . S
C707 N709 1.384 1_554 S
N708 C704 1.427 1_554 S
N708 C705 1.384 1_554 S
N709 C701 1.427 1_556 S
N709 C707 1.384 1_556 S
H710 C716 0.930 . S
H711 C720 0.930 . S
H712 C725 0.929 . S
H713 C723 0.929 . S
H714 C718 0.929 . S
H715 C724 0.929 . S
C716 H710 0.930 . S
C716 C717 1.367 . S
C716 C724 1.378 . S
C717 C716 1.367 . S
C717 C725 1.433 . S
C718 H714 0.929 . S
C718 C720 1.378 . S
C718 C722 1.350 . S
C719 C722 1.463 1_556 S
C719 C724 1.350 . S
C719 N727 1.427 . S
C720 H711 0.930 . S
C720 C718 1.378 . S
C720 C721 1.367 . S
C721 C720 1.367 . S
C721 C723 1.433 . S
C722 C718 1.350 . S
C722 C719 1.463 1_554 S
C722 N726 1.427 . S
C723 H713 0.929 . S
C723 C721 1.433 . S
C723 N726 1.384 . S
C724 H715 0.929 . S
C724 C716 1.378 . S
C724 C719 1.350 . S
C725 H712 0.929 . S
C725 C717 1.433 . S
C725 N727 1.384 . S
N726 C722 1.427 . S
N726 C723 1.384 . S
N727 C719 1.427 . S
N727 C725 1.384 . S
H728 C734 0.930 . S
H729 C738 0.930 . S
H730 C743 0.929 . S
H731 C741 0.929 . S
H732 C736 0.929 . S
H733 C742 0.929 . S
C734 H728 0.930 . S
C734 C735 1.367 . S
C734 C742 1.378 . S
C735 C734 1.367 . S
C735 C743 1.433 1_455 S
C736 H732 0.929 . S
C736 C738 1.378 . S
C736 C740 1.361 . S
C737 C740 1.461 1_465 S
C737 C742 1.361 . S
C737 N745 1.416 1_455 S
C738 H729 0.930 . S
C738 C736 1.378 . S
C738 C739 1.367 . S
C739 C738 1.367 . S
C739 C741 1.433 1_655 S
C740 C736 1.361 . S
C740 C737 1.461 1_645 S
C740 N744 1.416 1_655 S
C741 H731 0.929 . S
C741 C739 1.433 1_455 S
C741 N744 1.384 . S
C742 H733 0.929 . S
C742 C734 1.378 . S
C742 C737 1.361 . S
C743 H730 0.929 . S
C743 C735 1.433 1_655 S
C743 N745 1.384 . S
N744 C740 1.416 1_455 S
N744 C741 1.384 . S
N745 C737 1.416 1_655 S
N745 C743 1.384 . S
H746 C752 0.930 . S
H747 C756 0.930 . S
H748 C761 0.929 . S
H749 C759 0.929 . S
H750 C754 0.929 . S
H751 C760 0.929 . S
C752 H746 0.930 . S
C752 C753 1.369 1_565 S
C752 C760 1.378 . S
C753 C752 1.369 1_545 S
C753 C761 1.431 . S
C754 H750 0.929 . S
C754 C756 1.378 . S
C754 C758 1.372 . S
C755 C758 1.461 1_565 S
C755 C760 1.372 . S
C755 N763 1.405 1_565 S
C756 H747 0.930 . S
C756 C754 1.378 . S
C756 C757 1.369 1_545 S
C757 C756 1.369 1_565 S
C757 C759 1.431 . S
C758 C754 1.372 . S
C758 C755 1.461 1_545 S
C758 N762 1.405 1_545 S
C759 H749 0.929 . S
C759 C757 1.431 . S
C759 N762 1.384 . S
C760 H751 0.929 . S
C760 C752 1.378 . S
C760 C755 1.372 . S
C761 H748 0.929 . S
C761 C753 1.431 . S
C761 N763 1.384 . S
N762 C758 1.405 1_565 S
N762 C759 1.384 . S
N763 C755 1.405 1_545 S
N763 C761 1.384 . S
H764 C770 0.930 . S
H765 C774 0.930 . S
H766 C779 0.929 . S
H767 C777 0.929 . S
H768 C772 0.929 . S
H769 C778 0.929 . S
C770 H764 0.930 . S
C770 C771 1.367 . S
C770 C778 1.378 . S
C771 C770 1.367 . S
C771 C779 1.433 . S
C772 H768 0.929 . S
C772 C774 1.378 . S
C772 C776 1.350 . S
C773 C776 1.463 . S
C773 C778 1.350 . S
C773 N781 1.427 . S
C774 H765 0.930 . S
C774 C772 1.378 . S
C774 C775 1.367 . S
C775 C774 1.367 . S
C775 C777 1.433 . S
C776 C772 1.350 . S
C776 C773 1.463 . S
C776 N780 1.427 . S
C777 H767 0.929 . S
C777 C775 1.433 . S
C777 N780 1.384 . S
C778 H769 0.929 . S
C778 C770 1.378 . S
C778 C773 1.350 . S
C779 H766 0.929 . S
C779 C771 1.433 . S
C779 N781 1.384 . S
N780 C776 1.427 . S
N780 C777 1.384 . S
N781 C773 1.427 . S
N781 C779 1.384 . S
H782 C788 0.930 . S
H783 C792 0.930 . S
H784 C797 0.929 . S
H785 C795 0.929 . S
H786 C790 0.929 . S
H787 C796 0.929 . S
C788 H782 0.930 . S
C788 C789 1.367 . S
C788 C796 1.378 . S
C789 C788 1.367 . S
C789 C797 1.433 . S
C790 H786 0.929 . S
C790 C792 1.378 . S
C790 C794 1.350 . S
C791 C794 1.463 1_655 S
C791 C796 1.350 . S
C791 N799 1.427 . S
C792 H783 0.930 . S
C792 C790 1.378 . S
C792 C793 1.367 . S
C793 C792 1.367 . S
C793 C795 1.433 . S
C794 C790 1.350 . S
C794 C791 1.463 1_455 S
C794 N798 1.427 . S
C795 H785 0.929 . S
C795 C793 1.433 . S
C795 N798 1.384 . S
C796 H787 0.929 . S
C796 C788 1.378 . S
C796 C791 1.350 . S
C797 H784 0.929 . S
C797 C789 1.433 . S
C797 N799 1.384 . S
N798 C794 1.427 . S
N798 C795 1.384 . S
N799 C791 1.427 . S
N799 C797 1.384 . S
C231 C7 1.562 . S
C235 C35 1.564 . S
C249 C21 1.558 . S
C253 C49 1.569 . S
C267 C63 1.558 . S
C271 C91 1.569 . S
C285 C105 1.570 . S
C289 C77 1.557 . S
C303 C119 1.568 . S
C307 C147 1.559 . S
C321 C161 1.559 . S
C325 C133 1.568 . S
C339 C203 1.559 . S
C343 C175 1.568 . S
C357 C217 1.568 . S
C361 C189 1.559 . S
C375 C106 1.590 . S
C379 C8 1.600 . S
C393 C22 1.596 . S
C397 C64 1.599 . S
C411 C78 1.596 . S
C415 C36 1.591 . S
C429 C50 1.590 . S
C433 C92 1.589 . S
C447 C218 1.586 . S
C451 C120 1.597 . S
C465 C134 1.602 . S
C469 C176 1.597 . S
C483 C148 1.589 . S
C487 C190 1.595 . S
C501 C204 1.587 . S
C505 C162 1.591 . S
C519 C9 0.883 . S
C523 C65 0.868 . S
C537 C23 0.873 . S
C541 C79 0.845 . S
C555 C93 0.883 . S
C559 C37 0.864 . S
C573 C51 0.847 . S
C577 C107 0.875 . S
C591 C177 0.870 . S
C595 C121 0.883 . S
C609 C191 0.842 . S
C613 C135 0.867 . S
C627 C149 0.862 . S
C631 C205 0.840 . S
C645 C163 0.883 . S
C649 C219 0.867 . S
C663 C6 1.801 . S
C667 C118 1.801 . S
C681 C132 1.800 . S
C685 C20 1.800 . S
C699 C34 1.792 . S
C703 C146 1.792 . S
C717 C160 1.793 . S
C721 C48 1.793 . S
C735 C62 1.801 . S
C739 C174 1.801 . S
C753 C76 1.794 . S
C757 C188 1.794 . S
C771 C202 1.801 . S
C775 C90 1.801 . S
C789 C104 1.799 . S
C793 C216 1.799 . S
