# Generated by pormake.
# Topology sma, (6)-cn, num edge types: 1
# Building blocks:
#     Node 0, Type 0, BuildingBlock: NUHQIS_clean_sbu_0, # of connection points: 6
#     Node 1, Type 0, BuildingBlock: NUHQIS_clean_sbu_0, # of connection points: 6
#     Node 2, Type 0, BuildingBlock: NUHQIS_clean_sbu_0, # of connection points: 6
#     Edge 3, Type (0, 0), BuildingBlock: CIFDUS_clean_linker_0, # of connection points: 2
#     Edge 4, Type (0, 0), BuildingBlock: CIFDUS_clean_linker_0, # of connection points: 2
#     Edge 5, Type (0, 0), BuildingBlock: CIFDUS_clean_linker_0, # of connection points: 2
#     Edge 6, Type (0, 0), BuildingBlock: CIFDUS_clean_linker_0, # of connection points: 2
#     Edge 7, Type (0, 0), BuildingBlock: CIFDUS_clean_linker_0, # of connection points: 2
#     Edge 8, Type (0, 0), BuildingBlock: CIFDUS_clean_linker_0, # of connection points: 2
#     Edge 9, Type (0, 0), BuildingBlock: CIFDUS_clean_linker_0, # of connection points: 2
#     Edge 10, Type (0, 0), BuildingBlock: CIFDUS_clean_linker_0, # of connection points: 2
#     Edge 11, Type (0, 0), BuildingBlock: CIFDUS_clean_linker_0, # of connection points: 2
# Relax obj value: 0.063
# Max RMSD: 0.173
# Mean RMSD: 0.168
data_MOF--net-sma--node1-NUHQIS_clean_sbu_0--edge1-CIFDUS_clean_linker_0
_symmetry_space_group_name_H-M    P1
_symmetry_Int_Tables_number       1
_symmetry_cell_setting            triclinic
loop_
_symmetry_equiv_pos_as_xyz
'x, y, z'
_cell_length_a     36.21983
_cell_length_b     36.19549
_cell_length_c     12.989023
_cell_angle_alpha  91.425431
_cell_angle_beta   93.368811
_cell_angle_gamma 120.01925
loop_
_atom_site_label
_atom_site_type_symbol
_atom_site_fract_x
_atom_site_fract_y
_atom_site_fract_z
_atom_type_partial_charge
Tb0 Tb 0.10305 0.53527 0.15145 0.0
Eu1 Eu 1.03379 0.57162 0.16563 0.0
C2 C 0.07527 0.5514 0.36532 0.0
C3 C 1.0046 0.4724 0.17652 0.0
C4 C 0.19989 0.52726 0.09026 0.0
C5 C 0.27765 0.56297 0.11457 0.0
C6 C 0.2383 0.55142 0.15291 0.0
C7 C 0.20184 0.51503 -0.01203 0.0
C8 C 0.24131 0.52655 -0.05042 0.0
C9 C 0.2797 0.55043 0.01269 0.0
C10 C 0.15822 0.51228 0.13473 0.0
O11 O 0.06481 0.51696 0.00652 0.0
O12 O 1.04643 0.56918 0.0024 0.0
O13 O 0.10028 0.62415 0.21858 0.0
O14 O 0.13525 0.60215 0.11475 0.0
C15 C 1.05092 0.53925 -0.04254 0.0
O16 O 1.01725 0.62011 0.12511 0.0
O17 O 0.97646 0.56866 0.21862 0.0
O18 O 1.04374 0.55512 0.32285 0.0
O19 O 0.10477 0.55038 0.31372 0.0
O20 O 1.04451 0.48246 0.20254 0.0
O21 O 0.99492 0.49993 0.13651 0.0
C22 C 0.13455 0.63214 0.17231 0.0
O23 O 0.15786 0.53516 0.21309 0.0
O24 O 0.1242 0.49886 0.07125 0.0
C25 C 0.94336 0.59694 0.11058 0.0
C26 C 0.86729 0.58577 0.00781 0.0
C27 C 0.88369 0.55921 -0.01984 0.0
C28 C 0.92149 0.5648 0.03109 0.0
C29 C 0.92772 0.62402 0.13678 0.0
C30 C 0.89008 0.61855 0.08595 0.0
C31 C 0.9815 0.60174 0.16982 0.0
H32 H 0.30645 0.58069 0.16599 0.0
H33 H 0.23797 0.56073 0.23261 0.0
H34 H 0.17285 0.49601 -0.06209 0.0
H35 H 0.24174 0.51665 0.87051 0.0
H36 H 0.86715 0.53396 0.91967 0.0
H37 H 0.93328 0.54368 0.00966 0.0
H38 H 0.94419 0.64892 0.19818 0.0
H39 H 0.87809 0.63914 0.11037 0.0
Tb40 Tb 0.62347 0.09971 0.47631 0.0
Eu41 Eu 0.51701 1.03609 0.47931 0.0
C42 C 0.57965 0.07912 0.68106 0.0
C43 C 0.58174 0.99938 0.50929 0.0
C44 C 0.73249 0.18647 0.41108 0.0
C45 C 0.76142 0.26194 0.38254 0.0
C46 C 0.73077 0.22426 0.42338 0.0
C47 C 0.7646 0.18677 0.35525 0.0
C48 C 0.79506 0.22428 0.3141 0.0
C49 C 0.7943 0.26255 0.32842 0.0
C50 C 0.70268 0.14688 0.45904 0.0
O51 O 0.59084 0.09405 0.32774 0.0
O52 O 0.53775 1.02478 0.32996 0.0
O53 O 0.52933 0.10203 0.44709 0.0
O54 O 0.60043 0.14393 0.50623 0.0
C55 C 0.5637 0.05725 0.27954 0.0
O56 O 0.45365 1.01357 0.40283 0.0
O57 O 0.45989 0.99064 0.55228 0.0
O58 O 0.5434 0.07146 0.63319 0.0
O59 O 0.61152 0.08176 0.63265 0.0
O60 O 0.61305 1.03467 0.47577 0.0
O61 O 0.54427 0.99481 0.52581 0.0
C62 C 0.56276 0.13934 0.47816 0.0
O63 O 0.68304 0.15043 0.53651 0.0
O64 O 0.67741 0.11384 0.39624 0.0
C65 C 0.39883 0.94399 0.43918 0.0
C66 C 0.32635 0.86424 0.37296 0.0
C67 C 0.35771 0.88732 0.30465 0.0
C68 C 0.39363 0.92689 0.33742 0.0
C69 C 0.36832 0.92034 0.50812 0.0
C70 C 0.33258 0.88089 0.4756 0.0
C71 C 0.43392 0.98733 0.47385 0.0
H72 H 0.76002 0.29085 0.39587 0.0
H73 H 0.70626 0.22492 0.46597 0.0
H74 H 0.76645 0.15797 0.34452 0.0
H75 H 0.81934 0.22328 0.27125 0.0
H76 H 0.3538 0.87551 0.22503 0.0
H77 H 0.41675 0.94445 0.28255 0.0
H78 H 0.3717 0.93283 0.58694 0.0
H79 H 0.30954 0.86358 0.53084 0.0
Tb80 Tb 0.59204 0.62661 0.82627 0.0
Eu81 Eu 0.54956 0.52003 0.78985 0.0
C82 C 0.57406 0.56833 0.00976 0.0
C83 C 0.65164 0.58408 0.82964 0.0
C84 C 0.61178 0.73756 0.79777 0.0
C85 C 0.63028 0.81135 0.77971 0.0
C86 C 0.63962 0.78136 0.82082 0.0
C87 C 0.57422 0.72395 0.7333 0.0
C88 C 0.56474 0.75397 0.69224 0.0
C89 C 0.5928 0.79808 0.71461 0.0
C90 C 0.62318 0.70677 0.83885 0.0
O91 O 0.5641 0.60526 0.67035 0.0
O92 O 0.58154 0.55338 0.65292 0.0
O93 O 0.49473 0.53288 0.77228 0.0
O94 O 0.52519 0.59966 0.85686 0.0
C95 C 0.57431 0.58212 0.61321 0.0
O96 O 0.51246 0.46223 0.68814 0.0
O97 O 0.53598 0.45811 0.84259 0.0
O98 O 0.54425 0.53537 -0.04726 0.0
O99 O 0.60164 0.60422 -0.0281 0.0
O100 O 0.64687 0.61735 0.81287 0.0
O101 O 0.61914 0.54518 0.83497 0.0
C102 C 0.49148 0.56373 0.81886 0.0
O103 O 0.59858 0.68124 0.90542 0.0
O104 O 0.63275 0.68649 0.77075 0.0
C105 C 0.52827 0.40699 0.7142 0.0
C106 C 0.55007 0.3465 0.64368 0.0
C107 C 0.58006 0.3906 0.64704 0.0
C108 C 0.56922 0.42063 0.682 0.0
C109 C 0.49831 0.36324 0.7106 0.0
C110 C 0.50905 0.33327 0.6758 0.0
C111 C 0.51638 0.43759 0.75436 0.0
H112 H 0.65221 0.84498 0.79983 0.0
H113 H 0.66877 0.7924 0.87042 0.0
H114 H 0.55247 0.69019 0.71419 0.0
H115 H 0.53581 0.7427 0.64175 0.0
H116 H 0.6118 0.40189 0.62222 0.0
H117 H 0.59279 0.45439 0.68451 0.0
H118 H 0.46664 0.35218 0.73586 0.0
H119 H 0.48542 0.29964 0.6762 0.0
H120 H 0.29834 0.49919 0.8952 0.0
H121 H 0.3558 0.62572 0.0448 0.0
H122 H 0.42584 0.64163 -0.00599 0.0
H123 H 0.47132 0.61865 0.91397 0.0
H124 H 0.4139 0.49207 0.764 0.0
H125 H 0.34335 0.47764 0.80633 0.0
C126 C 0.32603 0.53051 0.91524 0.0
C127 C 0.32171 0.56108 -0.02562 0.0
C128 C 0.36633 0.53949 0.8858 0.0
C129 C 0.3582 0.6013 0.00079 0.0
C130 C 0.39829 0.61052 -0.02865 0.0
C131 C 0.4434 0.58799 0.88963 0.0
C132 C 0.44818 0.55648 0.83615 0.0
C133 C 0.40284 0.57967 0.91502 0.0
C134 C 0.41142 0.517 0.80529 0.0
C135 C 0.37095 0.50862 0.82973 0.0
H136 H 0.87958 0.29043 0.3318 0.0
H137 H 0.78593 0.32616 0.23854 0.0
H138 H 0.84231 0.39339 0.17995 0.0
H139 H 0.91849 0.44272 0.15848 0.0
H140 H 1.01161 0.40603 0.25089 0.0
H141 H 0.95492 0.33814 0.30404 0.0
C142 C 0.87129 0.31255 0.2972 0.0
C143 C 0.82842 0.30306 0.28974 0.0
C144 C 0.9038 0.35102 0.26308 0.0
C145 C 0.81863 0.33273 0.24661 0.0
C146 C 0.85086 0.37112 0.21243 0.0
C147 C 0.92642 0.41976 0.18928 0.0
C148 C 0.96944 0.42971 0.20053 0.0
C149 C 0.89361 0.38072 0.22076 0.0
C150 C 0.97891 0.39946 0.24121 0.0
C151 C 0.94648 0.36055 0.27198 0.0
H152 H 0.52473 0.92035 0.56975 0.0
H153 H 0.65705 0.99882 0.50671 0.0
H154 H 0.67165 0.94308 0.56139 0.0
H155 H 0.64768 0.87321 0.63351 0.0
H156 H 0.51574 0.79523 0.6987 0.0
H157 H 0.50018 0.84941 0.63548 0.0
C158 C 0.55676 0.92527 0.56724 0.0
C159 C 0.58974 0.964 0.53442 0.0
C160 C 0.56507 0.89313 0.59935 0.0
C161 C 0.63095 0.96947 0.53145 0.0
C162 C 0.63942 0.93761 0.56307 0.0
C163 C 0.61554 0.86813 0.63428 0.0
C164 C 0.583 0.83026 0.67148 0.0
C165 C 0.60686 0.89956 0.59841 0.0
C166 C 0.54134 0.82387 0.66987 0.0
C167 C 0.53246 0.85498 0.63425 0.0
H168 H 0.67528 0.52401 0.85661 0.0
H169 H 0.72733 0.66025 0.84486 0.0
H170 H 0.79896 0.67248 0.89142 0.0
H171 H 0.84627 0.64497 -0.05338 0.0
H172 H 0.79386 0.50899 -0.03707 0.0
H173 H 0.72325 0.4963 0.90147 0.0
C174 C 0.70226 0.55642 0.86348 0.0
C175 C 0.69564 0.59115 0.84819 0.0
C176 C 0.74345 0.56334 0.89113 0.0
C177 C 0.73124 0.63284 0.85654 0.0
C178 C 0.77231 0.63993 0.88344 0.0
C179 C 0.8194 0.61255 -0.06334 0.0
C180 C 0.8254 0.57804 -0.03978 0.0
C181 C 0.77867 0.60549 0.90284 0.0
C182 C 0.79036 0.53617 -0.0553 0.0
C183 C 0.74983 0.52888 0.91032 0.0
H184 H 0.31754 0.7981 0.24623 0.0
H185 H 0.24507 0.83969 0.41854 0.0
H186 H 0.17956 0.7726 0.36826 0.0
H187 H 0.14304 0.70136 0.28086 0.0
H188 H 0.21436 0.65875 0.10725 0.0
H189 H 0.27983 0.72727 0.15082 0.0
C190 C 0.28734 0.79265 0.27183 0.0
C191 C 0.28644 0.82377 0.33731 0.0
C192 C 0.2495 0.75384 0.24225 0.0
C193 C 0.24697 0.816 0.37011 0.0
C194 C 0.20936 0.77772 0.3408 0.0
C195 C 0.17279 0.70702 0.25185 0.0
C196 C 0.17368 0.67478 0.19117 0.0
C197 C 0.21032 0.74625 0.2779 0.0
C198 C 0.21263 0.68295 0.15408 0.0
C199 C 0.25017 0.72211 0.17926 0.0
H200 H 0.50084 0.27336 0.52219 0.0
H201 H 0.62506 0.3467 0.68936 0.0
H202 H 0.64149 0.29074 0.64537 0.0
H203 H 0.61842 0.21852 0.57056 0.0
H204 H 0.49283 0.14444 0.40933 0.0
H205 H 0.47916 0.20298 0.44064 0.0
C206 C 0.5315 0.27711 0.5493 0.0
C207 C 0.56147 0.31409 0.60981 0.0
C208 C 0.54045 0.2445 0.52529 0.0
C209 C 0.60144 0.31877 0.6421 0.0
C210 C 0.61077 0.2866 0.61758 0.0
C211 C 0.58823 0.2153 0.54122 0.0
C212 C 0.55663 0.17685 0.48827 0.0
C213 C 0.58023 0.24899 0.56068 0.0
C214 C 0.5177 0.17343 0.45095 0.0
C215 C 0.50977 0.20692 0.46887 0.0
H216 H 0.09951 0.52607 0.83315 0.0
H217 H 0.9891 0.54183 0.83762 0.0
H218 H 0.98594 0.54477 0.6498 0.0
H219 H 1.01855 0.54965 0.49102 0.0
H220 H 0.13227 0.53907 0.48567 0.0
H221 H 0.13064 0.52789 0.67035 0.0
C222 C 0.07431 0.52921 0.79217 0.0
C223 C 1.04458 0.53379 0.84661 0.0
C224 C 0.07394 0.53276 0.68606 0.0
C225 C 1.01226 0.53845 0.79517 0.0
C226 C 1.01061 0.54033 0.68876 0.0
C227 C 1.04306 0.54491 0.52968 0.0
C228 C 0.07573 0.54565 0.47563 0.0
C229 C 1.04211 0.53884 0.63437 0.0
C230 C 0.10703 0.53909 0.52664 0.0
C231 C 0.10603 0.53246 0.63159 0.0
H232 H 0.62485 0.10543 0.1578 0.0
H233 H 0.49405 1.00218 0.15158 0.0
H234 H 0.48703 1.00128 -0.03701 0.0
H235 H 0.51807 1.03085 0.80162 0.0
H236 H 0.64999 0.13123 0.80792 0.0
H237 H 0.65669 0.13287 -0.00319 0.0
C238 C 0.59483 0.08276 0.11495 0.0
C239 C 0.55991 0.05417 0.16719 0.0
C240 C 0.59124 0.08226 0.00771 0.0
C241 C 0.52134 1.02438 0.1119 0.0
C242 C 0.51725 1.02403 0.00464 0.0
C243 C 0.54808 0.05327 0.8449 0.0
C244 C 0.58337 0.08126 0.79299 0.0
C245 C 0.55191 0.05308 -0.04788 0.0
C246 C 0.62252 0.1096 0.84793 0.0
C247 C 0.62633 0.11047 -0.04482 0.0
H248 H 0.56733 0.52424 0.47023 0.0
H249 H 0.58601 0.65143 0.51108 0.0
H250 H 0.59043 0.65942 0.32499 0.0
H251 H 0.58742 0.62922 0.15173 0.0
H252 H 0.5636 0.50024 0.11165 0.0
H253 H 0.56333 0.4939 0.29862 0.0
C254 C 0.57261 0.55379 0.4384 0.0
C255 C 0.57653 0.58727 0.5029 0.0
C256 C 0.57435 0.55777 0.33258 0.0
C257 C 0.58274 0.62522 0.46162 0.0
C258 C 0.58543 0.62985 0.35589 0.0
C259 C 0.58258 0.6 0.18469 0.0
C260 C 0.57573 0.56528 0.12035 0.0
C261 C 0.58114 0.59624 0.29089 0.0
C262 C 0.56877 0.52714 0.16155 0.0
C263 C 0.56863 0.52356 0.26764 0.0
loop_
_geom_bond_atom_site_label_1
_geom_bond_atom_site_label_2
_geom_bond_distance
_geom_bond_site_symmetry_2
_ccdc_geom_bond_type
Tb0 C10 2.825 . S
Tb0 O11 2.347 . S
Tb0 O14 2.366 . S
Tb0 O19 2.418 . S
Tb0 O20 2.384 1_455 S
Tb0 O23 2.479 . S
Tb0 O24 2.471 . S
Eu1 O12 2.418 1_554 S
Eu1 O13 2.384 1_655 S
Eu1 O16 2.479 . S
Eu1 O17 2.471 . S
Eu1 O18 2.347 1_655 S
Eu1 O21 2.366 . S
Eu1 C31 2.825 . S
C2 O18 1.259 . S
C2 O19 1.265 . S
C3 O20 1.255 . S
C3 O21 1.265 . S
C4 C6 1.380 . S
C4 C7 1.374 . S
C4 C10 1.507 . S
C5 C6 1.384 . S
C5 C9 1.387 . S
C5 H32 0.930 . S
C6 C4 1.380 . S
C6 C5 1.384 . S
C6 H33 0.931 . S
C7 C4 1.374 . S
C7 C8 1.390 . S
C7 H34 0.930 1_554 S
C8 C7 1.390 . S
C8 C9 1.391 . S
C8 H35 0.930 1_554 S
C9 C5 1.387 . S
C9 C8 1.391 . S
C10 Tb0 2.825 . S
C10 C4 1.507 . S
C10 O23 1.238 . S
C10 O24 1.247 . S
O11 Tb0 2.347 . S
O11 C15 1.259 1_554 S
O12 Eu1 2.418 1_556 S
O12 C15 1.265 1_655 S
O13 Eu1 2.384 1_455 S
O13 C22 1.255 . S
O14 Tb0 2.366 . S
O14 C22 1.265 . S
C15 O11 1.259 1_556 S
C15 O12 1.265 1_455 S
O16 Eu1 2.479 . S
O16 C31 1.238 . S
O17 Eu1 2.471 . S
O17 C31 1.247 . S
O18 Eu1 2.347 1_455 S
O18 C2 1.259 . S
O19 Tb0 2.418 . S
O19 C2 1.265 . S
O20 Tb0 2.384 1_655 S
O20 C3 1.255 . S
O21 Eu1 2.366 . S
O21 C3 1.265 . S
C22 O13 1.255 . S
C22 O14 1.265 . S
O23 Tb0 2.479 . S
O23 C10 1.238 . S
O24 Tb0 2.471 . S
O24 C10 1.247 . S
C25 C28 1.380 . S
C25 C29 1.374 . S
C25 C31 1.507 . S
C26 C27 1.387 . S
C26 C30 1.391 . S
C27 C26 1.387 . S
C27 C28 1.384 . S
C27 H36 0.930 . S
C28 C25 1.380 . S
C28 C27 1.384 . S
C28 H37 0.931 . S
C29 C25 1.374 . S
C29 C30 1.390 . S
C29 H38 0.930 . S
C30 C26 1.391 . S
C30 C29 1.390 . S
C30 H39 0.930 . S
C31 Eu1 2.825 . S
C31 O16 1.238 . S
C31 O17 1.247 . S
C31 C25 1.507 . S
H32 C5 0.930 . S
H33 C6 0.931 . S
H34 C7 0.930 1_556 S
H35 C8 0.930 1_556 S
H36 C27 0.930 . S
H37 C28 0.931 . S
H38 C29 0.930 . S
H39 C30 0.930 . S
Tb40 C50 2.825 . S
Tb40 O51 2.347 . S
Tb40 O54 2.366 . S
Tb40 O59 2.418 . S
Tb40 O60 2.384 1_545 S
Tb40 O63 2.479 . S
Tb40 O64 2.471 . S
Eu41 O52 2.418 . S
Eu41 O53 2.384 . S
Eu41 O56 2.479 1_545 S
Eu41 O57 2.471 1_545 S
Eu41 O58 2.347 . S
Eu41 O61 2.366 1_545 S
Eu41 C71 2.825 1_545 S
C42 O58 1.259 . S
C42 O59 1.265 . S
C43 O60 1.255 . S
C43 O61 1.265 . S
C44 C46 1.380 . S
C44 C47 1.374 . S
C44 C50 1.507 . S
C45 C46 1.384 . S
C45 C49 1.387 . S
C45 H72 0.930 . S
C46 C44 1.380 . S
C46 C45 1.384 . S
C46 H73 0.931 . S
C47 C44 1.374 . S
C47 C48 1.390 . S
C47 H74 0.930 . S
C48 C47 1.390 . S
C48 C49 1.391 . S
C48 H75 0.930 . S
C49 C45 1.387 . S
C49 C48 1.391 . S
C50 Tb40 2.825 . S
C50 C44 1.507 . S
C50 O63 1.238 . S
C50 O64 1.247 . S
O51 Tb40 2.347 . S
O51 C55 1.259 . S
O52 Eu41 2.418 . S
O52 C55 1.265 . S
O53 Eu41 2.384 . S
O53 C62 1.255 . S
O54 Tb40 2.366 . S
O54 C62 1.265 . S
C55 O51 1.259 . S
C55 O52 1.265 . S
O56 Eu41 2.479 1_565 S
O56 C71 1.238 . S
O57 Eu41 2.471 1_565 S
O57 C71 1.247 . S
O58 Eu41 2.347 . S
O58 C42 1.259 . S
O59 Tb40 2.418 . S
O59 C42 1.265 . S
O60 Tb40 2.384 1_565 S
O60 C43 1.255 . S
O61 Eu41 2.366 1_565 S
O61 C43 1.265 . S
C62 O53 1.255 . S
C62 O54 1.265 . S
O63 Tb40 2.479 . S
O63 C50 1.238 . S
O64 Tb40 2.471 . S
O64 C50 1.247 . S
C65 C68 1.380 . S
C65 C69 1.374 . S
C65 C71 1.507 . S
C66 C67 1.387 . S
C66 C70 1.391 . S
C67 C66 1.387 . S
C67 C68 1.384 . S
C67 H76 0.930 . S
C68 C65 1.380 . S
C68 C67 1.384 . S
C68 H77 0.931 . S
C69 C65 1.374 . S
C69 C70 1.390 . S
C69 H78 0.930 . S
C70 C66 1.391 . S
C70 C69 1.390 . S
C70 H79 0.930 . S
C71 Eu41 2.825 1_565 S
C71 O56 1.238 . S
C71 O57 1.247 . S
C71 C65 1.507 . S
H72 C45 0.930 . S
H73 C46 0.931 . S
H74 C47 0.930 . S
H75 C48 0.930 . S
H76 C67 0.930 . S
H77 C68 0.931 . S
H78 C69 0.930 . S
H79 C70 0.930 . S
Tb80 C90 2.825 . S
Tb80 O91 2.347 . S
Tb80 O94 2.366 . S
Tb80 O99 2.418 1_556 S
Tb80 O100 2.384 . S
Tb80 O103 2.479 . S
Tb80 O104 2.471 . S
Eu81 O92 2.418 . S
Eu81 O93 2.384 . S
Eu81 O96 2.479 . S
Eu81 O97 2.471 . S
Eu81 O98 2.347 . S
Eu81 O101 2.366 . S
Eu81 C111 2.825 . S
C82 O98 1.259 1_554 S
C82 O99 1.265 . S
C83 O100 1.255 . S
C83 O101 1.265 . S
C84 C86 1.380 . S
C84 C87 1.374 . S
C84 C90 1.507 . S
C85 C86 1.384 . S
C85 C89 1.387 . S
C85 H112 0.930 . S
C86 C84 1.380 . S
C86 C85 1.384 . S
C86 H113 0.931 . S
C87 C84 1.374 . S
C87 C88 1.390 . S
C87 H114 0.930 . S
C88 C87 1.390 . S
C88 C89 1.391 . S
C88 H115 0.930 . S
C89 C85 1.387 . S
C89 C88 1.391 . S
C90 Tb80 2.825 . S
C90 C84 1.507 . S
C90 O103 1.238 . S
C90 O104 1.247 . S
O91 Tb80 2.347 . S
O91 C95 1.259 . S
O92 Eu81 2.418 . S
O92 C95 1.265 . S
O93 Eu81 2.384 . S
O93 C102 1.255 . S
O94 Tb80 2.366 . S
O94 C102 1.265 . S
C95 O91 1.259 . S
C95 O92 1.265 . S
O96 Eu81 2.479 . S
O96 C111 1.238 . S
O97 Eu81 2.471 . S
O97 C111 1.247 . S
O98 Eu81 2.347 . S
O98 C82 1.259 1_556 S
O99 Tb80 2.418 1_554 S
O99 C82 1.265 . S
O100 Tb80 2.384 . S
O100 C83 1.255 . S
O101 Eu81 2.366 . S
O101 C83 1.265 . S
C102 O93 1.255 . S
C102 O94 1.265 . S
O103 Tb80 2.479 . S
O103 C90 1.238 . S
O104 Tb80 2.471 . S
O104 C90 1.247 . S
C105 C108 1.380 . S
C105 C109 1.374 . S
C105 C111 1.507 . S
C106 C107 1.387 . S
C106 C110 1.391 . S
C107 C106 1.387 . S
C107 C108 1.384 . S
C107 H116 0.930 . S
C108 C105 1.380 . S
C108 C107 1.384 . S
C108 H117 0.931 . S
C109 C105 1.374 . S
C109 C110 1.390 . S
C109 H118 0.930 1_556 S
C110 C106 1.391 . S
C110 C109 1.390 . S
C110 H119 0.930 1_556 S
C111 Eu81 2.825 . S
C111 O96 1.238 . S
C111 O97 1.247 . S
C111 C105 1.507 . S
H112 C85 0.930 . S
H113 C86 0.931 . S
H114 C87 0.930 . S
H115 C88 0.930 . S
H116 C107 0.930 . S
H117 C108 0.931 . S
H118 C109 0.930 1_554 S
H119 C110 0.930 1_554 S
H120 C126 0.930 . S
H121 C129 0.930 . S
H122 C130 0.930 . S
H123 C131 0.930 1_554 S
H124 C134 0.930 . S
H125 C135 0.930 . S
C126 H120 0.930 . S
C126 C127 1.355 1_556 S
C126 C128 1.415 . S
C127 C126 1.355 1_554 S
C127 C129 1.419 . S
C128 C126 1.415 . S
C128 C133 1.425 1_556 S
C128 C135 1.409 . S
C129 H121 0.930 . S
C129 C127 1.419 . S
C129 C130 1.362 . S
C130 H122 0.930 . S
C130 C129 1.362 . S
C130 C133 1.409 . S
C131 H123 0.930 1_556 S
C131 C132 1.355 . S
C131 C133 1.415 1_556 S
C132 C131 1.355 . S
C132 C134 1.419 . S
C133 C128 1.425 1_554 S
C133 C130 1.409 . S
C133 C131 1.415 1_554 S
C134 H124 0.930 . S
C134 C132 1.419 . S
C134 C135 1.362 . S
C135 H125 0.930 . S
C135 C128 1.409 . S
C135 C134 1.362 . S
H136 C142 0.930 . S
H137 C145 0.930 . S
H138 C146 0.930 . S
H139 C147 0.930 . S
H140 C150 0.930 . S
H141 C151 0.930 . S
C142 H136 0.930 . S
C142 C143 1.355 . S
C142 C144 1.415 . S
C143 C142 1.355 . S
C143 C145 1.419 . S
C144 C142 1.415 . S
C144 C149 1.425 . S
C144 C151 1.409 . S
C145 H137 0.930 . S
C145 C143 1.419 . S
C145 C146 1.362 . S
C146 H138 0.930 . S
C146 C145 1.362 . S
C146 C149 1.409 . S
C147 H139 0.930 . S
C147 C148 1.355 . S
C147 C149 1.415 . S
C148 C147 1.355 . S
C148 C150 1.419 . S
C149 C144 1.425 . S
C149 C146 1.409 . S
C149 C147 1.415 . S
C150 H140 0.930 . S
C150 C148 1.419 . S
C150 C151 1.362 . S
C151 H141 0.930 . S
C151 C144 1.409 . S
C151 C150 1.362 . S
H152 C158 0.930 . S
H153 C161 0.930 . S
H154 C162 0.930 . S
H155 C163 0.930 . S
H156 C166 0.930 . S
H157 C167 0.930 . S
C158 H152 0.930 . S
C158 C159 1.355 . S
C158 C160 1.415 . S
C159 C158 1.355 . S
C159 C161 1.419 . S
C160 C158 1.415 . S
C160 C165 1.425 . S
C160 C167 1.409 . S
C161 H153 0.930 . S
C161 C159 1.419 . S
C161 C162 1.362 . S
C162 H154 0.930 . S
C162 C161 1.362 . S
C162 C165 1.409 . S
C163 H155 0.930 . S
C163 C164 1.355 . S
C163 C165 1.415 . S
C164 C163 1.355 . S
C164 C166 1.419 . S
C165 C160 1.425 . S
C165 C162 1.409 . S
C165 C163 1.415 . S
C166 H156 0.930 . S
C166 C164 1.419 . S
C166 C167 1.362 . S
C167 H157 0.930 . S
C167 C160 1.409 . S
C167 C166 1.362 . S
H168 C174 0.930 . S
H169 C177 0.930 . S
H170 C178 0.930 . S
H171 C179 0.930 . S
H172 C182 0.930 . S
H173 C183 0.930 . S
C174 H168 0.930 . S
C174 C175 1.355 . S
C174 C176 1.415 . S
C175 C174 1.355 . S
C175 C177 1.419 1_556 S
C176 C174 1.415 . S
C176 C181 1.425 1_556 S
C176 C183 1.409 . S
C177 H169 0.930 . S
C177 C175 1.419 1_554 S
C177 C178 1.362 . S
C178 H170 0.930 . S
C178 C177 1.362 . S
C178 C181 1.409 . S
C179 H171 0.930 . S
C179 C180 1.355 . S
C179 C181 1.415 . S
C180 C179 1.355 . S
C180 C182 1.419 . S
C181 C176 1.425 1_554 S
C181 C178 1.409 . S
C181 C179 1.415 . S
C182 H172 0.930 . S
C182 C180 1.419 . S
C182 C183 1.362 1_554 S
C183 H173 0.930 . S
C183 C176 1.409 . S
C183 C182 1.362 1_556 S
H184 C190 0.930 . S
H185 C193 0.930 . S
H186 C194 0.930 . S
H187 C195 0.930 . S
H188 C198 0.930 . S
H189 C199 0.930 . S
C190 H184 0.930 . S
C190 C191 1.355 . S
C190 C192 1.415 . S
C191 C190 1.355 . S
C191 C193 1.419 . S
C192 C190 1.415 . S
C192 C197 1.425 . S
C192 C199 1.409 . S
C193 H185 0.930 . S
C193 C191 1.419 . S
C193 C194 1.362 . S
C194 H186 0.930 . S
C194 C193 1.362 . S
C194 C197 1.409 . S
C195 H187 0.930 . S
C195 C196 1.355 . S
C195 C197 1.415 . S
C196 C195 1.355 . S
C196 C198 1.419 . S
C197 C192 1.425 . S
C197 C194 1.409 . S
C197 C195 1.415 . S
C198 H188 0.930 . S
C198 C196 1.419 . S
C198 C199 1.362 . S
C199 H189 0.930 . S
C199 C192 1.409 . S
C199 C198 1.362 . S
H200 C206 0.930 . S
H201 C209 0.930 . S
H202 C210 0.930 . S
H203 C211 0.930 . S
H204 C214 0.930 . S
H205 C215 0.930 . S
C206 H200 0.930 . S
C206 C207 1.355 . S
C206 C208 1.415 . S
C207 C206 1.355 . S
C207 C209 1.419 . S
C208 C206 1.415 . S
C208 C213 1.425 . S
C208 C215 1.409 . S
C209 H201 0.930 . S
C209 C207 1.419 . S
C209 C210 1.362 . S
C210 H202 0.930 . S
C210 C209 1.362 . S
C210 C213 1.409 . S
C211 H203 0.930 . S
C211 C212 1.355 . S
C211 C213 1.415 . S
C212 C211 1.355 . S
C212 C214 1.419 . S
C213 C208 1.425 . S
C213 C210 1.409 . S
C213 C211 1.415 . S
C214 H204 0.930 . S
C214 C212 1.419 . S
C214 C215 1.362 . S
C215 H205 0.930 . S
C215 C208 1.409 . S
C215 C214 1.362 . S
H216 C222 0.930 . S
H217 C225 0.930 . S
H218 C226 0.930 . S
H219 C227 0.930 . S
H220 C230 0.930 . S
H221 C231 0.930 . S
C222 H216 0.930 . S
C222 C223 1.355 . S
C222 C224 1.415 . S
C223 C222 1.355 . S
C223 C225 1.419 1_455 S
C224 C222 1.415 . S
C224 C229 1.433 . S
C224 C231 1.409 . S
C225 H217 0.930 . S
C225 C223 1.419 1_655 S
C225 C226 1.362 . S
C226 H218 0.930 . S
C226 C225 1.362 . S
C226 C229 1.403 1_655 S
C227 H219 0.930 . S
C227 C228 1.355 1_655 S
C227 C229 1.413 1_655 S
C228 C227 1.355 1_455 S
C228 C230 1.419 . S
C229 C224 1.433 . S
C229 C226 1.403 1_455 S
C229 C227 1.413 1_455 S
C230 H220 0.930 . S
C230 C228 1.419 . S
C230 C231 1.362 . S
C231 H221 0.930 . S
C231 C224 1.409 . S
C231 C230 1.362 . S
H232 C238 0.930 . S
H233 C241 0.930 . S
H234 C242 0.930 . S
H235 C243 0.930 1_565 S
H236 C246 0.930 . S
H237 C247 0.930 . S
C238 H232 0.930 . S
C238 C239 1.355 . S
C238 C240 1.415 . S
C239 C238 1.355 . S
C239 C241 1.419 1_545 S
C240 C238 1.415 . S
C240 C245 1.425 1_554 S
C240 C247 1.409 1_554 S
C241 H233 0.930 . S
C241 C239 1.419 1_565 S
C241 C242 1.362 . S
C242 H234 0.930 . S
C242 C241 1.362 . S
C242 C245 1.409 1_564 S
C243 H235 0.930 1_545 S
C243 C244 1.355 . S
C243 C245 1.415 . S
C244 C243 1.355 . S
C244 C246 1.419 . S
C245 C240 1.425 1_556 S
C245 C242 1.409 1_546 S
C245 C243 1.415 . S
C246 H236 0.930 . S
C246 C244 1.419 . S
C246 C247 1.362 . S
C247 H237 0.930 . S
C247 C240 1.409 1_556 S
C247 C246 1.362 . S
H248 C254 0.930 . S
H249 C257 0.930 . S
H250 C258 0.930 . S
H251 C259 0.930 . S
H252 C262 0.930 . S
H253 C263 0.930 . S
C254 H248 0.930 . S
C254 C255 1.355 . S
C254 C256 1.415 . S
C255 C254 1.355 . S
C255 C257 1.419 . S
C256 C254 1.415 . S
C256 C261 1.425 . S
C256 C263 1.409 . S
C257 H249 0.930 . S
C257 C255 1.419 . S
C257 C258 1.362 . S
C258 H250 0.930 . S
C258 C257 1.362 . S
C258 C261 1.409 . S
C259 H251 0.930 . S
C259 C260 1.355 . S
C259 C261 1.415 . S
C260 C259 1.355 . S
C260 C262 1.419 . S
C261 C256 1.425 . S
C261 C258 1.409 . S
C261 C259 1.415 . S
C262 H252 0.930 . S
C262 C260 1.419 . S
C262 C263 1.362 . S
C263 H253 0.930 . S
C263 C256 1.409 . S
C263 C262 1.362 . S
C127 C9 1.950 . S
C132 C102 1.938 . S
C143 C49 2.069 . S
C148 C3 2.048 . S
C159 C43 1.932 . S
C164 C89 1.959 . S
C175 C83 2.079 . S
C180 C26 2.020 . S
C191 C66 1.939 . S
C196 C22 1.997 . S
C207 C106 1.983 . S
C212 C62 2.037 . S
C223 C15 0.565 . S
C228 C2 0.565 . S
C239 C55 0.565 . S
C244 C42 0.565 . S
C255 C95 0.674 . S
C260 C82 0.674 . S
