# Generated by pormake.
# Topology nbo-a, (3)-cn, num edge types: 1
# Building blocks:
#     Node 0, Type 0, BuildingBlock: OLANEW_clean_sbu_2, # of connection points: 3
#     Node 1, Type 0, BuildingBlock: OLANEW_clean_sbu_2, # of connection points: 3
#     Node 2, Type 0, BuildingBlock: OLANEW_clean_sbu_2, # of connection points: 3
#     Node 3, Type 0, BuildingBlock: OLANEW_clean_sbu_2, # of connection points: 3
#     Node 4, Type 0, BuildingBlock: OLANEW_clean_sbu_2, # of connection points: 3
#     Node 5, Type 0, BuildingBlock: OLANEW_clean_sbu_2, # of connection points: 3
#     Node 6, Type 0, BuildingBlock: OLANEW_clean_sbu_2, # of connection points: 3
#     Node 7, Type 0, BuildingBlock: OLANEW_clean_sbu_2, # of connection points: 3
#     Node 8, Type 0, BuildingBlock: OLANEW_clean_sbu_2, # of connection points: 3
#     Node 9, Type 0, BuildingBlock: OLANEW_clean_sbu_2, # of connection points: 3
#     Node 10, Type 0, BuildingBlock: OLANEW_clean_sbu_2, # of connection points: 3
#     Node 11, Type 0, BuildingBlock: OLANEW_clean_sbu_2, # of connection points: 3
#     Node 12, Type 0, BuildingBlock: OLANEW_clean_sbu_2, # of connection points: 3
#     Node 13, Type 0, BuildingBlock: OLANEW_clean_sbu_2, # of connection points: 3
#     Node 14, Type 0, BuildingBlock: OLANEW_clean_sbu_2, # of connection points: 3
#     Node 15, Type 0, BuildingBlock: OLANEW_clean_sbu_2, # of connection points: 3
#     Node 16, Type 0, BuildingBlock: OLANEW_clean_sbu_2, # of connection points: 3
#     Node 17, Type 0, BuildingBlock: OLANEW_clean_sbu_2, # of connection points: 3
#     Node 18, Type 0, BuildingBlock: OLANEW_clean_sbu_2, # of connection points: 3
#     Node 19, Type 0, BuildingBlock: OLANEW_clean_sbu_2, # of connection points: 3
#     Node 20, Type 0, BuildingBlock: OLANEW_clean_sbu_2, # of connection points: 3
#     Node 21, Type 0, BuildingBlock: OLANEW_clean_sbu_2, # of connection points: 3
#     Node 22, Type 0, BuildingBlock: OLANEW_clean_sbu_2, # of connection points: 3
#     Node 23, Type 0, BuildingBlock: OLANEW_clean_sbu_2, # of connection points: 3
#     Edge 24, Type (0, 0), BuildingBlock: XIVTED_clean_linker_0, # of connection points: 2
#     Edge 25, Type (0, 0), BuildingBlock: XIVTED_clean_linker_0, # of connection points: 2
#     Edge 26, Type (0, 0), BuildingBlock: XIVTED_clean_linker_0, # of connection points: 2
#     Edge 27, Type (0, 0), BuildingBlock: XIVTED_clean_linker_0, # of connection points: 2
#     Edge 28, Type (0, 0), BuildingBlock: XIVTED_clean_linker_0, # of connection points: 2
#     Edge 29, Type (0, 0), BuildingBlock: XIVTED_clean_linker_0, # of connection points: 2
#     Edge 30, Type (0, 0), BuildingBlock: XIVTED_clean_linker_0, # of connection points: 2
#     Edge 31, Type (0, 0), BuildingBlock: XIVTED_clean_linker_0, # of connection points: 2
#     Edge 32, Type (0, 0), BuildingBlock: XIVTED_clean_linker_0, # of connection points: 2
#     Edge 33, Type (0, 0), BuildingBlock: XIVTED_clean_linker_0, # of connection points: 2
#     Edge 34, Type (0, 0), BuildingBlock: XIVTED_clean_linker_0, # of connection points: 2
#     Edge 35, Type (0, 0), BuildingBlock: XIVTED_clean_linker_0, # of connection points: 2
#     Edge 36, Type (0, 0), BuildingBlock: XIVTED_clean_linker_0, # of connection points: 2
#     Edge 37, Type (0, 0), BuildingBlock: XIVTED_clean_linker_0, # of connection points: 2
#     Edge 38, Type (0, 0), BuildingBlock: XIVTED_clean_linker_0, # of connection points: 2
#     Edge 39, Type (0, 0), BuildingBlock: XIVTED_clean_linker_0, # of connection points: 2
#     Edge 40, Type (0, 0), BuildingBlock: XIVTED_clean_linker_0, # of connection points: 2
#     Edge 41, Type (0, 0), BuildingBlock: XIVTED_clean_linker_0, # of connection points: 2
#     Edge 42, Type (0, 0), BuildingBlock: XIVTED_clean_linker_0, # of connection points: 2
#     Edge 43, Type (0, 0), BuildingBlock: XIVTED_clean_linker_0, # of connection points: 2
#     Edge 44, Type (0, 0), BuildingBlock: XIVTED_clean_linker_0, # of connection points: 2
#     Edge 45, Type (0, 0), BuildingBlock: XIVTED_clean_linker_0, # of connection points: 2
#     Edge 46, Type (0, 0), BuildingBlock: XIVTED_clean_linker_0, # of connection points: 2
#     Edge 47, Type (0, 0), BuildingBlock: XIVTED_clean_linker_0, # of connection points: 2
#     Edge 48, Type (0, 0), BuildingBlock: XIVTED_clean_linker_0, # of connection points: 2
#     Edge 49, Type (0, 0), BuildingBlock: XIVTED_clean_linker_0, # of connection points: 2
#     Edge 50, Type (0, 0), BuildingBlock: XIVTED_clean_linker_0, # of connection points: 2
#     Edge 51, Type (0, 0), BuildingBlock: XIVTED_clean_linker_0, # of connection points: 2
#     Edge 52, Type (0, 0), BuildingBlock: XIVTED_clean_linker_0, # of connection points: 2
#     Edge 53, Type (0, 0), BuildingBlock: XIVTED_clean_linker_0, # of connection points: 2
#     Edge 54, Type (0, 0), BuildingBlock: XIVTED_clean_linker_0, # of connection points: 2
#     Edge 55, Type (0, 0), BuildingBlock: XIVTED_clean_linker_0, # of connection points: 2
#     Edge 56, Type (0, 0), BuildingBlock: XIVTED_clean_linker_0, # of connection points: 2
#     Edge 57, Type (0, 0), BuildingBlock: XIVTED_clean_linker_0, # of connection points: 2
#     Edge 58, Type (0, 0), BuildingBlock: XIVTED_clean_linker_0, # of connection points: 2
#     Edge 59, Type (0, 0), BuildingBlock: XIVTED_clean_linker_0, # of connection points: 2
# Relax obj value: 0.008
# Max RMSD: 0.053
# Mean RMSD: 0.043
data_MOF--net-nbo-a--node1-OLANEW_clean_sbu_2--edge1-XIVTED_clean_linker_0
_symmetry_space_group_name_H-M    P1
_symmetry_Int_Tables_number       1
_symmetry_cell_setting            triclinic
loop_
_symmetry_equiv_pos_as_xyz
'x, y, z'
_cell_length_a     78.564497
_cell_length_b     78.262853
_cell_length_c     78.445648
_cell_angle_alpha  90.274223
_cell_angle_beta   90.829776
_cell_angle_gamma 95.580804
loop_
_atom_site_label
_atom_site_type_symbol
_atom_site_fract_x
_atom_site_fract_y
_atom_site_fract_z
_atom_type_partial_charge
O0 O 0.09113 0.18737 0.53994 0.0
Cd1 Cd 0.06484 0.2017 0.54112 0.0
O2 O 0.0839 0.1735 0.51606 0.0
Cd3 Cd 0.05763 0.18046 0.5155 0.0
O4 O 0.03069 0.17031 0.51552 0.0
C5 C 0.02491 0.16192 0.50242 0.0
O6 O 0.03489 0.16107 0.4892 0.0
C7 C 0.09472 0.17731 0.52802 0.0
C8 C 0.07069 0.23729 0.53775 0.0
O9 O 0.07235 0.23006 0.55223 0.0
O10 O 0.06635 0.22769 0.52481 0.0
O11 O 0.92432 0.06491 0.528 0.0
Cd12 Cd 0.90644 0.03826 0.53383 0.0
O13 O 0.93314 0.05449 0.50395 0.0
Cd14 Cd 0.9238 0.02798 0.50984 0.0
O15 O 0.92964 0.00262 0.51845 0.0
C16 C 0.93559 -0.00749 0.50781 0.0
O17 O 0.93671 -0.00289 0.49175 0.0
C18 C 0.93266 0.06702 0.51426 0.0
C19 C 0.87181 0.04345 0.53464 0.0
O20 O 0.88071 0.0432 0.54845 0.0
O21 O 0.87926 0.04122 0.52049 0.0
O22 O 0.08157 0.90823 0.54962 0.0
Cd23 Cd 0.05674 0.88675 0.54857 0.0
O24 O 0.07321 0.91945 0.57349 0.0
Cd25 Cd 0.04705 0.90731 0.57089 0.0
O26 O 0.02108 0.9123 0.56343 0.0
C27 C 0.01695 0.91205 0.54769 0.0
O28 O 0.02792 0.90726 0.53656 0.0
C29 C 0.08443 0.91866 0.56206 0.0
C30 C 0.0667 0.85349 0.54681 0.0
O31 O 0.06279 0.86144 0.53327 0.0
O32 O 0.06584 0.86124 0.56116 0.0
O33 O 0.17619 0.02827 0.57259 0.0
Cd34 Cd 0.19378 0.0558 0.57237 0.0
O35 O 0.1744 0.02634 0.54463 0.0
Cd36 Cd 0.18369 0.05332 0.54097 0.0
O37 O 0.17783 0.0793 0.53448 0.0
C38 C 0.1763 0.09054 0.54597 0.0
O39 O 0.17959 0.08683 0.56192 0.0
C40 C 0.17148 0.01975 0.55921 0.0
C41 C 0.22831 0.05026 0.5743 0.0
O42 O 0.2196 0.05179 0.58782 0.0
O43 O 0.22074 0.0516 0.55985 0.0
O44 O 0.60512 0.03002 0.1707 0.0
Cd45 Cd 0.61088 0.05627 0.18779 0.0
O46 O 0.5833 0.03926 0.15681 0.0
Cd47 Cd 0.58717 0.06578 0.16608 0.0
O48 O 0.58957 0.0927 0.15817 0.0
C49 C 0.60345 0.09867 0.15132 0.0
O50 O 0.61616 0.08895 0.15068 0.0
C51 C 0.59288 0.02742 0.15993 0.0
C52 C 0.60477 0.05079 0.22246 0.0
O53 O 0.59327 0.05612 0.2126 0.0
O54 O 0.61911 0.048 0.21592 0.0
O55 O 0.09824 0.56137 0.16351 0.0
Cd56 Cd 0.07376 0.54745 0.1788 0.0
O57 O 0.08283 0.57843 0.14892 0.0
Cd58 Cd 0.05803 0.56621 0.15677 0.0
O59 O 0.0329 0.55381 0.14915 0.0
C60 C 0.02733 0.55819 0.13467 0.0
O61 O 0.03656 0.56992 0.12596 0.0
C62 C 0.0973 0.57344 0.15284 0.0
C63 C 0.07816 0.54924 0.21421 0.0
O64 O 0.08422 0.53743 0.20545 0.0
O65 O 0.07009 0.5603 0.20623 0.0
O66 O 0.59684 0.07518 0.895 0.0
Cd67 Cd 0.59958 0.04868 0.87893 0.0
O68 O 0.62264 0.07468 0.90619 0.0
Cd69 Cd 0.62517 0.04792 0.89936 0.0
O70 O 0.6274 0.02205 0.90907 0.0
C71 C 0.61444 0.01101 0.90975 0.0
O72 O 0.59981 0.01484 0.9032 0.0
C73 C 0.6092 0.0823 0.90396 0.0
C74 C 0.59276 0.05218 0.84411 0.0
O75 O 0.58119 0.04559 0.85411 0.0
O76 O 0.60751 0.05715 0.85055 0.0
O77 O 0.10173 0.55221 0.89881 0.0
Cd78 Cd 0.0743 0.55067 0.8834 0.0
O79 O 0.09874 0.52522 0.90687 0.0
Cd80 Cd 0.07181 0.52155 0.89931 0.0
O81 O 0.04685 0.51901 0.91146 0.0
C82 C 0.04535 0.52937 0.92376 0.0
O83 O 0.05807 0.54112 0.9272 0.0
C84 C 0.1077 0.53963 0.90626 0.0
C85 C 0.07759 0.54807 0.8481 0.0
O86 O 0.07945 0.56269 0.85568 0.0
O87 O 0.07431 0.53464 0.85721 0.0
O88 O 0.19269 0.55215 0.01137 0.0
Cd89 Cd 0.20645 0.55686 0.03938 0.0
O90 O 0.19334 0.5798 0.00616 0.0
Cd91 Cd 0.19975 0.58638 0.03274 0.0
O92 O 0.19164 0.58792 0.0592 0.0
C93 C 0.18248 0.5998 0.06323 0.0
O94 O 0.17947 0.61134 0.05174 0.0
C95 C 0.19012 0.5643 0.00121 0.0
C96 C 0.24119 0.55282 0.03723 0.0
O97 O 0.23057 0.54048 0.04228 0.0
O98 O 0.23542 0.5671 0.03343 0.0
O99 O 0.58759 0.19462 0.05877 0.0
Cd100 Cd 0.58154 0.20816 0.03151 0.0
O101 O 0.61077 0.18426 0.04927 0.0
Cd102 Cd 0.60755 0.19108 0.0225 0.0
O103 O 0.60886 0.1814 -0.00363 0.0
C104 C 0.59559 0.17436 -0.01127 0.0
O105 O 0.58071 0.1743 -0.00382 0.0
C106 C 0.60056 0.18638 0.06137 0.0
C107 C 0.5806 0.24376 0.03356 0.0
O108 O 0.56735 0.23346 0.03677 0.0
O109 O 0.59438 0.23724 0.0296 0.0
O110 O 0.91044 0.48812 0.09066 0.0
Cd111 Cd 0.88588 0.47173 0.07695 0.0
O112 O 0.92049 0.49411 0.06528 0.0
Cd113 Cd 0.93916 0.5036 0.04621 0.0
O114 O 0.95666 0.5113 0.02559 0.0
C115 C 0.95524 0.50333 0.0114 0.0
O116 O 0.94317 0.49059 0.00943 0.0
C117 C 0.92208 0.49548 0.08142 0.0
C118 C 0.85491 0.48351 0.08612 0.0
O119 O 0.86148 0.47193 0.09484 0.0
O120 O 0.86304 0.48957 0.07308 0.0
O121 O 0.59351 0.91347 0.00321 0.0
Cd122 Cd 0.58539 0.89868 0.02976 0.0
O123 O 0.61544 0.9293 0.01471 0.0
Cd124 Cd 0.61016 0.92177 0.04107 0.0
O125 O 0.60645 0.93063 0.06715 0.0
C126 C 0.59284 0.93759 0.07019 0.0
O127 O 0.58121 0.93786 0.05802 0.0
C128 C 0.60626 0.92466 0.0017 0.0
C129 C 0.5842 0.86293 0.02719 0.0
O130 O 0.57164 0.87094 0.02205 0.0
O131 O 0.59743 0.8718 0.03343 0.0
O132 O 0.5822 0.68137 0.03297 0.0
Cd133 Cd 0.55842 0.69909 0.02872 0.0
O134 O 0.57357 0.66361 0.01207 0.0
Cd135 Cd 0.5501 0.67512 0.00572 0.0
O136 O 0.52322 0.66702 0.00018 0.0
C137 C 0.51288 0.66454 0.01243 0.0
O138 O 0.51827 0.66873 0.02797 0.0
C139 C 0.5842 0.66814 0.02401 0.0
C140 C 0.5678 0.7344 0.02673 0.0
O141 O 0.56631 0.72685 0.04117 0.0
O142 O 0.56518 0.72522 0.01319 0.0
O143 O 0.41604 0.5611 0.01488 0.0
Cd144 Cd 0.39937 0.5331 0.01554 0.0
O145 O 0.42692 0.55565 -0.01002 0.0
Cd146 Cd 0.41944 0.52805 -0.00851 0.0
O147 O 0.42719 0.50253 -0.00294 0.0
C148 C 0.42616 0.49671 0.01215 0.0
O149 O 0.41913 0.50563 0.02391 0.0
C150 C 0.42494 0.5661 0.0021 0.0
C151 C 0.36486 0.53686 0.0203 0.0
O152 O 0.37457 0.53372 0.03294 0.0
O153 O 0.37142 0.53807 0.00545 0.0
O154 O 0.58616 0.4247 0.03747 0.0
Cd155 Cd 0.56404 0.40485 0.02366 0.0
O156 O 0.57267 0.4255 0.0618 0.0
Cd157 Cd 0.54888 0.41308 0.05083 0.0
O158 O 0.52366 0.41677 0.04014 0.0
C159 C 0.51201 0.42025 0.05031 0.0
O160 O 0.51517 0.42002 0.06679 0.0
C161 C 0.58577 0.42978 0.05287 0.0
C162 C 0.56917 0.37027 0.02824 0.0
O163 O 0.57642 0.37903 0.01613 0.0
O164 O 0.55961 0.37788 0.03831 0.0
O165 O 0.68607 0.51083 0.11433 0.0
Cd166 Cd 0.70891 0.53101 0.12619 0.0
O167 O 0.67962 0.53065 0.09645 0.0
Cd168 Cd 0.66477 0.54339 0.0773 0.0
O169 O 0.65245 0.56312 0.06333 0.0
C170 C 0.65509 0.57853 0.06867 0.0
O171 O 0.66508 0.58185 0.08209 0.0
C172 C 0.67677 0.51546 0.10214 0.0
C173 C 0.74105 0.52126 0.11817 0.0
O174 O 0.73345 0.51591 0.13176 0.0
O175 O 0.73346 0.53129 0.1084 0.0
O176 O 0.08595 0.52078 0.67096 0.0
Cd177 Cd 0.07628 0.54615 0.6848 0.0
O178 O 0.11222 0.53248 0.6672 0.0
Cd179 Cd 0.10618 0.55821 0.67432 0.0
O180 O 0.10251 0.58386 0.66488 0.0
C181 C 0.08971 0.58528 0.65507 0.0
O182 O 0.07874 0.57174 0.65234 0.0
C183 C 0.10112 0.51956 0.66597 0.0
C184 C 0.0788 0.54516 0.72033 0.0
O185 O 0.06581 0.53764 0.71234 0.0
O186 O 0.09071 0.55306 0.71153 0.0
O187 O 0.58736 0.0701 0.66734 0.0
Cd188 Cd 0.56121 0.06652 0.68412 0.0
O189 O 0.57649 0.0884 0.65003 0.0
Cd190 Cd 0.54996 0.08216 0.6576 0.0
O191 O 0.52425 0.0719 0.64926 0.0
C192 C 0.52375 0.06335 0.6354 0.0
O193 O 0.53822 0.06122 0.62784 0.0
C194 C 0.58916 0.08073 0.65512 0.0
C195 C 0.56808 0.0629 0.71893 0.0
O196 O 0.56422 0.04972 0.70938 0.0
O197 O 0.56873 0.07776 0.71205 0.0
O198 O 0.09238 0.57488 0.39196 0.0
Cd199 Cd 0.08894 0.54695 0.37746 0.0
O200 O 0.11573 0.56953 0.40596 0.0
Cd201 Cd 0.11442 0.54245 0.39858 0.0
O202 O 0.11301 0.51588 0.40743 0.0
C203 C 0.1262 0.51078 0.4146 0.0
O204 O 0.14039 0.52117 0.41513 0.0
C205 C 0.10463 0.57975 0.40218 0.0
C206 C 0.08722 0.54955 0.34197 0.0
O207 O 0.07389 0.55035 0.35105 0.0
O208 O 0.10142 0.54767 0.34966 0.0
O209 O 0.60324 0.03821 0.39968 0.0
Cd210 Cd 0.57774 0.02922 0.38231 0.0
O211 O 0.60086 0.01417 0.41425 0.0
Cd212 Cd 0.57423 0.00721 0.4067 0.0
O213 O 0.54885 0.00555 0.41802 0.0
C214 C 0.5463 0.01787 0.428 0.0
O215 O 0.55833 0.03068 0.42973 0.0
C216 C 0.60925 0.02837 0.41063 0.0
C217 C 0.58339 0.03421 0.34749 0.0
O218 O 0.57677 0.04551 0.35647 0.0
O219 O 0.58734 0.02058 0.35495 0.0
O220 O 0.69856 0.0588 0.5119 0.0
Cd221 Cd 0.71304 0.06827 0.53862 0.0
O222 O 0.68852 0.08382 0.50824 0.0
Cd223 Cd 0.69394 0.09213 0.53457 0.0
O224 O 0.68379 0.09661 0.55985 0.0
C225 C 0.68219 0.08458 0.57071 0.0
O226 O 0.688 0.06983 0.56705 0.0
C227 C 0.69065 0.06889 0.5027 0.0
C228 C 0.74756 0.06263 0.53838 0.0
O229 O 0.73651 0.05191 0.54545 0.0
O230 O 0.74231 0.07602 0.53149 0.0
O231 O 0.10949 0.68541 0.56462 0.0
Cd232 Cd 0.1177 0.70283 0.5397 0.0
O233 O 0.08843 0.67 0.55126 0.0
Cd234 Cd 0.09531 0.67937 0.52581 0.0
O235 O 0.10227 0.67187 0.50011 0.0
C236 C 0.09099 0.66966 0.48831 0.0
O237 O 0.07537 0.67339 0.49136 0.0
C238 C 0.09694 0.67386 0.56488 0.0
C239 C 0.10632 0.73548 0.54167 0.0
O240 O 0.09762 0.7233 0.53348 0.0
O241 O 0.12036 0.73222 0.54891 0.0
O242 O 0.40112 0.00986 0.58926 0.0
Cd243 Cd 0.37546 -0.00602 0.57695 0.0
O244 O 0.41282 0.00862 0.56419 0.0
Cd245 Cd 0.43242 0.01337 0.54468 0.0
O246 O 0.4513 0.01691 0.52445 0.0
C247 C 0.45145 0.00586 0.51253 0.0
O248 O 0.44012 -0.00764 0.51257 0.0
C249 C 0.41407 0.01299 0.57985 0.0
C250 C 0.34585 0.01096 0.57756 0.0
O251 O 0.35016 0.00203 0.59029 0.0
O252 O 0.35575 0.01218 0.56468 0.0
O253 O 0.09352 0.41536 0.50714 0.0
Cd254 Cd 0.08418 0.40162 0.53384 0.0
O255 O 0.11887 0.42527 0.5172 0.0
Cd256 Cd 0.11325 0.41785 0.54351 0.0
O257 O 0.10942 0.4257 0.56988 0.0
C258 C 0.12209 0.43359 0.57779 0.0
O259 O 0.13698 0.43546 0.57026 0.0
C260 C 0.10815 0.42342 0.50487 0.0
C261 C 0.08334 0.36588 0.53287 0.0
O262 O 0.0708 0.37353 0.52705 0.0
O263 O 0.09638 0.37513 0.53901 0.0
H264 H 0.16464 0.1006 0.51483 0.0
H265 H 0.11824 0.17789 0.5543 0.0
H266 H 0.16985 0.11678 0.56749 0.0
H267 H 0.10718 0.15629 0.50414 0.0
H268 H 0.14154 0.15954 0.55748 0.0
H269 H 0.14803 0.12478 0.50902 0.0
C270 C 0.1625 0.10936 0.52514 0.0
C271 C 0.16845 0.10649 0.54174 0.0
C272 C 0.13414 0.15898 0.54569 0.0
C273 C 0.14934 0.13418 0.53517 0.0
C274 C 0.12087 0.16951 0.54383 0.0
C275 C 0.11056 0.16847 0.52902 0.0
C276 C 0.13716 0.14735 0.53264 0.0
C277 C 0.11465 0.15739 0.51587 0.0
C278 C 0.15297 0.12315 0.52181 0.0
C279 C 0.16536 0.11836 0.55454 0.0
N280 N 0.1275 0.14715 0.51807 0.0
N281 N 0.15587 0.13158 0.55102 0.0
H282 H 0.94945 0.07681 0.48505 0.0
H283 H 0.00227 0.15798 0.52882 0.0
H284 H 0.93961 0.0947 0.53577 0.0
H285 H 0.00984 0.14116 0.47722 0.0
H286 H 0.9771 0.13708 0.53055 0.0
H287 H 0.96931 0.10232 0.48089 0.0
C288 C 0.95132 0.08619 0.49527 0.0
C289 C 0.94298 0.08349 0.51087 0.0
C290 C 0.98415 0.13811 0.51878 0.0
C291 C 0.9659 0.11274 0.50623 0.0
C292 C -0.00148 0.15006 0.51777 0.0
C293 C 0.00833 0.15118 0.50292 0.0
C294 C 0.9796 0.12714 0.50487 0.0
C295 C 0.00279 0.14064 0.48899 0.0
C296 C 0.96269 0.10079 0.49288 0.0
C297 C 0.94583 0.09619 0.52358 0.0
N298 N -0.01107 0.12895 0.49038 0.0
N299 N 0.95721 0.11016 0.52105 0.0
H300 H 0.93843 0.98087 0.5406 0.0
H301 H 0.00494 0.91461 0.51496 0.0
H302 H 0.95101 0.96922 0.4887 0.0
H303 H -0.0064 0.92718 0.56696 0.0
H304 H 0.9819 0.9311 0.50516 0.0
H305 H 0.95514 0.95797 0.55044 0.0
C306 C 0.94451 0.97336 0.53124 0.0
C307 C 0.9435 0.97715 0.5138 0.0
C308 C 0.98431 0.9301 0.51873 0.0
C309 C 0.96277 0.95097 0.52501 0.0
C310 C -0.00253 0.92065 0.52434 0.0
C311 C 0.00139 0.9197 0.54181 0.0
C312 C 0.97504 0.93876 0.53064 0.0
C313 C -0.00885 0.92768 0.55336 0.0
C314 C 0.95409 0.96029 0.53688 0.0
C315 C 0.95157 0.96689 0.50228 0.0
N316 N 0.97859 0.93705 0.54757 0.0
N317 N 0.96101 0.95442 0.5081 0.0
H318 H 0.10796 0.9255 0.53688 0.0
H319 H 0.15863 0.00387 0.58801 0.0
H320 H 0.09639 0.93991 0.58831 0.0
H321 H 0.16157 -0.00316 0.53354 0.0
H322 H 0.13978 0.9772 0.58957 0.0
H323 H 0.1316 0.9483 0.53684 0.0
C324 C 0.11052 0.93329 0.54825 0.0
C325 C 0.10005 0.9309 0.56256 0.0
C326 C 0.14466 0.98143 0.5773 0.0
C327 C 0.12706 0.95701 0.56257 0.0
C328 C 0.15548 -0.00336 0.57639 0.0
C329 C 0.16156 0.00272 0.56058 0.0
C330 C 0.13996 0.97217 0.56231 0.0
C331 C 0.15706 -0.00726 0.54598 0.0
C332 C 0.12397 0.94635 0.54818 0.0
C333 C 0.104 0.94139 0.57693 0.0
N334 N 0.14645 0.97801 0.54719 0.0
N335 N 0.11712 0.95404 0.57653 0.0
H336 H 0.62875 0.17162 0.07268 0.0
H337 H 0.57847 0.12064 0.14713 0.0
H338 H 0.57771 0.18083 0.08743 0.0
H339 H 0.63055 0.11405 0.13375 0.0
H340 H 0.57911 0.14528 0.128 0.0
H341 H 0.63087 0.1533 0.09751 0.0
C342 C 0.61805 0.16997 0.08127 0.0
C343 C 0.60294 0.17762 0.07782 0.0
C344 C 0.59047 0.13858 0.12942 0.0
C345 C 0.6052 0.1564 0.10626 0.0
C346 C 0.59012 0.12451 0.14036 0.0
C347 C 0.6044 0.11509 0.14188 0.0
C348 C 0.60517 0.14323 0.11986 0.0
C349 C 0.61917 0.12078 0.13286 0.0
C350 C 0.61927 0.15948 0.09547 0.0
C351 C 0.58957 0.17512 0.08952 0.0
N352 N 0.61909 0.13433 0.12211 0.0
N353 N 0.59092 0.16453 0.10308 0.0
H354 H 0.01213 0.565 0.10422 0.0
H355 H 0.93618 0.48963 0.11253 0.0
H356 H 0.00584 0.53201 0.14809 0.0
H357 H 0.94215 0.52339 0.06929 0.0
H358 H 0.96132 0.50529 0.12603 0.0
H359 H -0.01373 0.55017 0.09147 0.0
C360 C 0.00528 0.55467 0.11122 0.0
C361 C 0.01121 0.54972 0.12725 0.0
C362 C 0.9572 0.50921 0.11354 0.0
C363 C 0.98154 0.53261 0.11265 0.0
C364 C 0.94285 0.50029 0.10583 0.0
C365 C 0.93732 0.50493 0.08955 0.0
C366 C 0.96605 0.52299 0.10497 0.0
C367 C 0.94634 0.51892 0.08152 0.0
C368 C -0.0095 0.54619 0.10391 0.0
C369 C 0.00176 0.53625 0.1357 0.0
N370 N 0.96027 0.52744 0.0893 0.0
N371 N -0.01258 0.52813 0.12828 0.0
H372 H 0.5663 0.01629 0.13845 0.0
H373 H 0.61576 0.94244 0.097 0.0
H374 H 0.61449 0.00191 0.15804 0.0
H375 H 0.56618 0.95531 0.0798 0.0
H376 H 0.6142 0.96182 0.12137 0.0
H377 H 0.56465 -0.00819 0.11896 0.0
C378 C 0.57646 0.00787 0.1388 0.0
C379 C 0.59065 0.0113 0.14979 0.0
C380 C 0.60358 0.96025 0.11237 0.0
C381 C 0.58893 0.98325 0.1273 0.0
C382 C 0.60445 0.94916 0.09845 0.0
C383 C 0.59117 0.94739 0.0862 0.0
C384 C 0.58936 0.9697 0.11401 0.0
C385 C 0.5768 0.95637 0.08881 0.0
C386 C 0.57551 -0.00613 0.12764 0.0
C387 C 0.60335 -0.00017 0.14974 0.0
N388 N 0.57636 0.96725 0.10231 0.0
N389 N 0.60229 0.98645 0.13851 0.0
H390 H 0.12897 0.56137 0.15236 0.0
H391 H 0.15995 0.6217 0.07459 0.0
H392 H 0.10062 0.60135 0.13183 0.0
H393 H 0.18373 0.57635 0.08905 0.0
H394 H 0.14165 0.61802 0.09944 0.0
H395 H 0.15246 0.57038 0.13325 0.0
C396 C 0.12779 0.57222 0.14406 0.0
C397 C 0.11268 0.58046 0.14353 0.0
C398 C 0.151 0.60898 0.09729 0.0
C399 C 0.13949 0.59076 0.12159 0.0
C400 C 0.1615 0.61109 0.08311 0.0
C401 C 0.17323 0.59916 0.07957 0.0
C402 C 0.15221 0.59484 0.10804 0.0
C403 C 0.17474 0.58575 0.09117 0.0
C404 C 0.14118 0.57731 0.1331 0.0
C405 C 0.11192 0.59447 0.13253 0.0
N406 N 0.16421 0.58384 0.10478 0.0
N407 N 0.12505 0.59907 0.1219 0.0
H408 H 0.64151 0.00122 0.92854 0.0
H409 H 0.58562 0.92342 0.97309 0.0
H410 H 0.58907 0.9849 0.91455 0.0
H411 H 0.63394 0.94674 -0.00699 0.0
H412 H 0.58909 0.94183 0.94801 0.0
H413 H 0.6412 0.97734 0.9485 0.0
C414 C 0.62999 -0.00751 0.92948 0.0
C415 C 0.61521 -0.00477 0.92 0.0
C416 C 0.59902 0.94276 0.95778 0.0
C417 C 0.61477 0.96787 0.94292 0.0
C418 C 0.59709 0.93219 0.97208 0.0
C419 C 0.6094 0.93367 0.9853 0.0
C420 C 0.61341 0.95483 0.95665 0.0
C421 C 0.62402 0.94528 0.98324 0.0
C422 C 0.62982 0.97888 0.94093 0.0
C423 C 0.60071 0.98341 0.92171 0.0
N424 N 0.62554 0.9555 0.96928 0.0
N425 N 0.6008 0.97034 0.93308 0.0
H426 H 0.12434 0.51567 0.92354 0.0
H427 H 0.18243 0.587 0.97637 0.0
H428 H 0.12792 0.56976 0.91195 0.0
H429 H 0.17936 0.53279 -0.01263 0.0
H430 H 0.1659 0.58052 0.95015 0.0
H431 H 0.1479 0.52121 0.94404 0.0
C432 C 0.13026 0.52868 0.92509 0.0
C433 C 0.12394 0.54231 0.91618 0.0
C434 C 0.16901 0.57002 0.95819 0.0
C435 C 0.15083 0.54878 0.93984 0.0
C436 C 0.17846 0.57372 0.97319 0.0
C437 C 0.1821 0.56044 0.98424 0.0
C438 C 0.16304 0.55294 0.95424 0.0
C439 C 0.17672 0.54346 0.97935 0.0
C440 C 0.1437 0.53185 0.93685 0.0
C441 C 0.13224 0.55888 0.91864 0.0
N442 N 0.1673 0.54022 0.96482 0.0
N443 N 0.14508 0.56168 0.93041 0.0
H444 H 0.57005 0.15733 0.96917 0.0
H445 H 0.63459 0.1035 0.91944 0.0
H446 H 0.62497 0.16779 0.97257 0.0
H447 H 0.58018 0.09843 0.90931 0.0
H448 H 0.63134 0.12851 0.93733 0.0
H449 H 0.57338 0.13731 0.9457 0.0
C450 C 0.58281 0.15559 0.96485 0.0
C451 C 0.59726 0.16412 0.97301 0.0
C452 C 0.62012 0.12207 0.93105 0.0
C453 C 0.60117 0.14108 0.94623 0.0
C454 C 0.62196 0.10775 0.92083 0.0
C455 C 0.60761 0.09873 0.91298 0.0
C456 C 0.60376 0.12733 0.93366 0.0
C457 C 0.59159 0.10495 0.91516 0.0
C458 C 0.5847 0.14415 0.95143 0.0
C459 C 0.61346 0.16142 0.96677 0.0
N460 N 0.59007 0.11872 0.92548 0.0
N461 N 0.61497 0.14999 0.95392 0.0
H462 H 0.03899 0.54898 0.95143 0.0
H463 H 0.95696 0.48775 0.98019 0.0
H464 H 0.01802 0.5046 0.92246 0.0
H465 H 0.98094 0.52962 0.01077 0.0
H466 H 0.97759 0.49514 0.95772 0.0
H467 H 0.01606 0.54364 0.9719 0.0
C468 C 0.02948 0.53817 0.94928 0.0
C469 C 0.03052 0.52714 0.93525 0.0
C470 C 0.9783 0.50275 0.96932 0.0
C471 C 0.00421 0.52089 0.95878 0.0
C472 C 0.96652 0.49854 0.98217 0.0
C473 C 0.96727 0.50802 -0.00255 0.0
C474 C -0.00909 0.51656 0.97174 0.0
C475 C 0.97992 0.52189 -0.00075 0.0
C476 C 0.01639 0.53511 0.96102 0.0
C477 C 0.01777 0.5134 0.93313 0.0
N478 N -0.00875 0.52571 0.98659 0.0
N479 N 0.0052 0.5106 0.94483 0.0
H480 H 0.60807 0.67215 0.05007 0.0
H481 H 0.6347 0.57665 0.03988 0.0
H482 H 0.59073 0.63807 0.00857 0.0
H483 H 0.65602 0.6122 0.0786 0.0
H484 H 0.61969 0.59958 0.02734 0.0
H485 H 0.62721 0.65116 0.05965 0.0
C486 C 0.60844 0.66038 0.04283 0.0
C487 C 0.59764 0.65683 0.02857 0.0
C488 C 0.62774 0.6024 0.03852 0.0
C489 C 0.61937 0.63264 0.0396 0.0
C490 C 0.63629 0.58929 0.04571 0.0
C491 C 0.64655 0.59246 0.0604 0.0
C492 C 0.62936 0.6188 0.04612 0.0
C493 C 0.64819 0.60913 0.06733 0.0
C494 C 0.61934 0.64836 0.04834 0.0
C495 C 0.59872 0.64134 0.0197 0.0
N496 N 0.63959 0.62163 0.06021 0.0
N497 N 0.60923 0.62977 0.02545 0.0
H498 H 0.44293 0.58184 0.97593 0.0
H499 H 0.48823 0.65538 0.03595 0.0
H500 H 0.4282 0.59003 0.02792 0.0
H501 H 0.49985 0.64962 0.98272 0.0
H502 H 0.46362 0.63403 0.03226 0.0
H503 H 0.46122 0.60887 0.97714 0.0
C504 C 0.44339 0.58941 -0.01245 0.0
C505 C 0.43419 0.58352 0.00193 0.0
C506 C 0.4714 0.63761 0.02132 0.0
C507 C 0.45526 0.61447 0.00345 0.0
C508 C 0.48546 0.64983 0.02341 0.0
C509 C 0.4963 0.6541 0.00969 0.0
C510 C 0.46823 0.6295 0.00542 0.0
C511 C 0.49197 0.6466 -0.00628 0.0
C512 C 0.45383 0.60488 -0.01177 0.0
C513 C 0.43517 0.59398 0.01657 0.0
N514 N 0.47843 0.63448 -0.00791 0.0
N515 N 0.4457 0.60883 0.01703 0.0
H516 H 0.50274 0.42563 0.01702 0.0
H517 H 0.42747 0.48151 0.04345 0.0
H518 H 0.48548 0.43073 0.06863 0.0
H519 H 0.44537 0.47752 -0.00806 0.0
H520 H 0.44559 0.45936 0.05213 0.0
H521 H 0.47889 0.44092 0.00692 0.0
C522 C 0.49381 0.42974 0.02622 0.0
C523 C 0.49627 0.4271 0.04374 0.0
C524 C 0.44542 0.46318 0.03888 0.0
C525 C 0.469 0.44474 0.03226 0.0
C526 C 0.43504 0.47583 0.0339 0.0
C527 C 0.43507 0.48158 0.01698 0.0
C528 C 0.45599 0.45626 0.02689 0.0
C529 C 0.44506 0.47362 0.00516 0.0
C530 C 0.4802 0.43851 0.02044 0.0
C531 C 0.48421 0.43264 0.05503 0.0
N532 N 0.45526 0.46152 0.01038 0.0
N533 N 0.47123 0.44136 0.04912 0.0
H534 H 0.658 0.49004 0.11901 0.0
H535 H 0.61135 0.44837 0.03566 0.0
H536 H 0.66447 0.51264 0.0692 0.0
H537 H 0.59231 0.43849 0.08637 0.0
H538 H 0.63338 0.46953 0.04759 0.0
H539 H 0.6361 0.46877 0.10709 0.0
C540 C 0.65471 0.49059 0.10557 0.0
C541 C 0.66287 0.50326 0.09511 0.0
C542 C 0.62439 0.4627 0.05609 0.0
C543 C 0.63807 0.47879 0.08135 0.0
C544 C 0.61189 0.45052 0.04932 0.0
C545 C 0.59995 0.44164 0.06004 0.0
C546 C 0.62511 0.46584 0.07373 0.0
C547 C 0.60121 0.44506 0.07763 0.0
C548 C 0.64221 0.47847 0.0988 0.0
C549 C 0.65821 0.50334 0.07779 0.0
N550 N 0.61359 0.45685 0.08392 0.0
N551 N 0.64618 0.4912 0.0714 0.0
H552 H 0.0699 0.64986 0.57059 0.0
H553 H 0.11182 0.61474 0.65509 0.0
H554 H 0.11557 0.67456 0.59482 0.0
H555 H 0.06502 0.59167 0.63165 0.0
H556 H 0.11159 0.63875 0.63527 0.0
H557 H 0.06607 0.63056 0.59484 0.0
C558 C 0.07903 0.65137 0.5811 0.0
C559 C 0.0932 0.66374 0.58054 0.0
C560 C 0.10126 0.62853 0.63459 0.0
C561 C 0.08896 0.6415 0.60836 0.0
C562 C 0.10137 0.61482 0.64593 0.0
C563 C 0.08853 0.60104 0.6449 0.0
C564 C 0.08827 0.62844 0.62208 0.0
C565 C 0.07528 0.60191 0.63283 0.0
C566 C 0.07683 0.64031 0.59497 0.0
C567 C 0.10452 0.66515 0.59463 0.0
N568 N 0.0756 0.61525 0.62179 0.0
N569 N 0.10227 0.65402 0.60786 0.0
H570 H 0.49108 0.06672 0.64626 0.0
H571 H 0.44686 0.00868 0.57043 0.0
H572 H 0.51893 0.04375 0.60654 0.0
H573 H 0.41822 0.03497 0.60708 0.0
H574 H 0.47336 0.02151 0.58361 0.0
H575 H 0.46421 0.055 0.63252 0.0
C576 C 0.49156 0.0592 0.63468 0.0
C577 C 0.5073 0.05621 0.62756 0.0
C578 C 0.4613 0.02466 0.58868 0.0
C579 C 0.47663 0.0428 0.61176 0.0
C580 C 0.44612 0.01753 0.58095 0.0
C581 C 0.43028 0.02118 0.5873 0.0
C582 C 0.46067 0.03537 0.60304 0.0
C583 C 0.43017 0.03195 0.60167 0.0
C584 C 0.47622 0.05255 0.62682 0.0
C585 C 0.50713 0.0464 0.61251 0.0
N586 N 0.44513 0.03868 0.60905 0.0
N587 N 0.49207 0.04005 0.60515 0.0
H588 H 0.09255 0.43452 0.59595 0.0
H589 H 0.13244 0.51197 0.65485 0.0
H590 H 0.14602 0.45351 0.59667 0.0
H591 H 0.07945 0.49144 0.65633 0.0
H592 H 0.13834 0.48823 0.63627 0.0
H593 H 0.08816 0.45275 0.62058 0.0
C594 C 0.10342 0.44235 0.60141 0.0
C595 C 0.11964 0.44265 0.59407 0.0
C596 C 0.12546 0.48878 0.64082 0.0
C597 C 0.11467 0.46366 0.62221 0.0
C598 C 0.12208 0.50235 0.65146 0.0
C599 C 0.10537 0.50385 0.657 0.0
C600 C 0.11202 0.47668 0.63551 0.0
C601 C 0.0925 0.49089 0.65228 0.0
C602 C 0.1009 0.45278 0.61548 0.0
C603 C 0.13325 0.45298 0.60177 0.0
N604 N 0.09605 0.47799 0.64163 0.0
N605 N 0.13042 0.46321 0.61528 0.0
H606 H 0.66465 0.1117 0.57993 0.0
H607 H 0.6165 0.06138 0.65673 0.0
H608 H 0.67559 0.06129 0.59638 0.0
H609 H 0.599 0.10591 0.63227 0.0
H610 H 0.64176 0.06404 0.63861 0.0
H611 H 0.64428 0.11259 0.60306 0.0
C612 C 0.66295 0.1009 0.58853 0.0
C613 C 0.67169 0.08629 0.58606 0.0
C614 C 0.63246 0.07332 0.63736 0.0
C615 C 0.64829 0.08722 0.61254 0.0
C616 C 0.61807 0.07185 0.64773 0.0
C617 C 0.60551 0.08332 0.64588 0.0
C618 C 0.63434 0.08642 0.62515 0.0
C619 C 0.60824 0.09665 0.63401 0.0
C620 C 0.65126 0.1014 0.60171 0.0
C621 C 0.66901 0.07274 0.59769 0.0
N622 N 0.62229 0.09776 0.62405 0.0
N623 N 0.65744 0.07347 0.61034 0.0
H624 H 0.08675 0.4264 0.47729 0.0
H625 H 0.15148 0.49724 0.43299 0.0
H626 H 0.13837 0.44092 0.49523 0.0
H627 H 0.0981 0.4875 0.41883 0.0
H628 H 0.14829 0.47286 0.45236 0.0
H629 H 0.09217 0.44481 0.45248 0.0
C630 C 0.09931 0.43324 0.4759 0.0
C631 C 0.11205 0.43228 0.48851 0.0
C632 C 0.13731 0.47593 0.44488 0.0
C633 C 0.11829 0.45347 0.46016 0.0
C634 C 0.13913 0.48985 0.43378 0.0
C635 C 0.12497 0.49459 0.42443 0.0
C636 C 0.12121 0.46667 0.44671 0.0
C637 C 0.10932 0.48443 0.4259 0.0
C638 C 0.10237 0.4438 0.46175 0.0
C639 C 0.1281 0.4414 0.48595 0.0
N640 N 0.10782 0.47106 0.43697 0.0
N641 N 0.13069 0.45173 0.47217 0.0
H642 H 0.62638 0.06062 0.4124 0.0
H643 H 0.68696 0.03615 0.48962 0.0
H644 H 0.62781 0.0092 0.4317 0.0
H645 H 0.67591 0.08791 0.47835 0.0
H646 H 0.67032 0.02603 0.46432 0.0
H647 H 0.64954 0.07056 0.43233 0.0
C648 C 0.63175 0.05136 0.42061 0.0
C649 C 0.62498 0.03409 0.42054 0.0
C650 C 0.6717 0.03962 0.4673 0.0
C651 C 0.65142 0.0454 0.44339 0.0
C652 C 0.68125 0.04543 0.48171 0.0
C653 C 0.68265 0.06288 0.48625 0.0
C654 C 0.66357 0.05136 0.45731 0.0
C655 C 0.675 0.07431 0.47546 0.0
C656 C 0.64491 0.05707 0.43204 0.0
C657 C 0.63248 0.02268 0.43146 0.0
N658 N 0.66569 0.06833 0.46157 0.0
N659 N 0.64519 0.02856 0.44253 0.0
H660 H 0.12991 0.59513 0.42309 0.0
H661 H 0.06959 0.66161 0.46091 0.0
H662 H 0.08004 0.60239 0.4021 0.0
H663 H 0.1208 0.65651 0.47958 0.0
H664 H 0.07457 0.64275 0.43696 0.0
H665 H 0.12828 0.62021 0.44135 0.0
C666 C 0.11871 0.60213 0.42214 0.0
C667 C 0.10499 0.59648 0.41119 0.0
C668 C 0.0848 0.64592 0.44617 0.0
C669 C 0.10296 0.62517 0.43227 0.0
C670 C 0.08197 0.65672 0.45986 0.0
C671 C 0.09471 0.66047 0.47243 0.0
C672 C 0.10045 0.63871 0.44509 0.0
C673 C 0.11054 0.65385 0.47031 0.0
C674 C 0.11778 0.61647 0.4326 0.0
C675 C 0.09087 0.60619 0.41043 0.0
N676 N 0.11287 0.64313 0.45704 0.0
N677 N 0.09012 0.6199 0.42101 0.0
H678 H 0.45627 0.98399 0.486 0.0
H679 H 0.53759 0.04203 0.45067 0.0
H680 H 0.47613 0.03265 0.50808 0.0
H681 H 0.52015 -0.00804 0.43022 0.0
H682 H 0.51369 0.03971 0.47026 0.0
H683 H 0.47822 0.98748 0.46417 0.0
C684 C 0.4652 -0.00457 0.48624 0.0
C685 C 0.46439 0.00801 0.49896 0.0
C686 C 0.51501 0.02925 0.46144 0.0
C687 C 0.48955 0.01209 0.47397 0.0
C688 C 0.52866 0.03058 0.4502 0.0
C689 C 0.53096 0.01712 0.43883 0.0
C690 C 0.50353 0.01433 0.46138 0.0
C691 C 0.51892 0.00263 0.4388 0.0
C692 C 0.47774 -0.00258 0.47376 0.0
C693 C 0.4763 0.02258 0.49859 0.0
N694 N 0.50577 0.00158 0.44997 0.0
N695 N 0.48839 0.0242 0.48633 0.0
H696 H 0.06078 0.25714 0.51144 0.0
H697 H 0.10353 0.34559 0.55094 0.0
H698 H 0.08678 0.26044 0.56037 0.0
H699 H 0.06142 0.343 0.51478 0.0
H700 H 0.10125 0.31415 0.55157 0.0
H701 H 0.0646 0.28852 0.50954 0.0
C702 C 0.06738 0.26446 0.52173 0.0
C703 C 0.07341 0.25618 0.53612 0.0
C704 C 0.09255 0.3205 0.54348 0.0
C705 C 0.07794 0.292 0.53394 0.0
C706 C 0.09388 0.33841 0.54305 0.0
C707 C 0.0826 0.34692 0.53284 0.0
C708 C 0.08002 0.31102 0.53342 0.0
C709 C 0.07031 0.33697 0.52291 0.0
C710 C 0.06949 0.28235 0.52066 0.0
C711 C 0.08183 0.2663 0.54909 0.0
N712 N 0.06938 0.31954 0.52341 0.0
N713 N 0.0839 0.28368 0.54767 0.0
H714 H 0.76443 0.04135 0.55881 0.0
H715 H 0.85187 0.05375 0.50852 0.0
H716 H 0.77226 0.07704 0.51724 0.0
H717 H 0.85006 0.03951 0.56159 0.0
H718 H 0.82153 0.05848 0.50945 0.0
H719 H 0.79482 0.03664 0.55802 0.0
C720 C 0.77253 0.04816 0.5495 0.0
C721 C 0.76584 0.05963 0.53809 0.0
C722 C 0.82781 0.05435 0.52088 0.0
C723 C 0.80045 0.05414 0.53701 0.0
C724 C 0.84508 0.05157 0.52035 0.0
C725 C 0.85349 0.04626 0.53501 0.0
C726 C 0.81881 0.05146 0.53609 0.0
C727 C 0.84408 0.04368 0.55001 0.0
C728 C 0.78985 0.04551 0.54911 0.0
C729 C 0.77692 0.06815 0.52632 0.0
N730 N 0.82719 0.04619 0.55014 0.0
N731 N 0.79366 0.06514 0.52599 0.0
H732 H 0.06316 0.83087 0.51996 0.0
H733 H 0.1175 0.76166 0.56353 0.0
H734 H 0.08278 0.83622 0.57158 0.0
H735 H 0.08169 0.74882 0.52213 0.0
H736 H 0.10764 0.79035 0.56492 0.0
H737 H 0.07256 0.80195 0.51875 0.0
C738 C 0.06946 0.82597 0.53103 0.0
C739 C 0.07218 0.83596 0.54591 0.0
C740 C 0.10192 0.78123 0.55556 0.0
C741 C 0.08309 0.80299 0.54453 0.0
C742 C 0.10758 0.76488 0.55472 0.0
C743 C 0.10039 0.75283 0.5427 0.0
C744 C 0.08917 0.78565 0.54414 0.0
C745 C 0.08754 0.75769 0.53163 0.0
C746 C 0.07475 0.80946 0.53035 0.0
C747 C 0.08037 0.82894 0.55988 0.0
N748 N 0.08241 0.77377 0.53254 0.0
N749 N 0.08563 0.81293 0.55882 0.0
H750 H 0.33117 0.02731 0.55113 0.0
H751 H 0.24689 0.04326 0.60279 0.0
H752 H 0.32325 0.0127 0.60363 0.0
H753 H 0.2509 0.04852 0.5482 0.0
H754 H 0.27625 0.03544 0.60404 0.0
H755 H 0.30321 0.03858 0.55061 0.0
C756 C 0.32362 0.02659 0.56259 0.0
C757 C 0.32953 0.01896 0.57742 0.0
C758 C 0.27073 0.03837 0.5918 0.0
C759 C 0.2975 0.03183 0.5769 0.0
C760 C 0.25397 0.04288 0.59107 0.0
C761 C 0.24638 0.04646 0.57535 0.0
C762 C 0.28002 0.03752 0.57671 0.0
C763 C 0.2562 0.04578 0.56059 0.0
C764 C 0.30763 0.03298 0.56227 0.0
C765 C 0.31918 0.01839 0.59189 0.0
N766 N 0.2725 0.04135 0.56163 0.0
N767 N 0.30366 0.02469 0.59125 0.0
H768 H 0.62356 0.03373 0.24527 0.0
H769 H 0.57077 0.05806 0.32657 0.0
H770 H 0.57895 0.0617 0.24157 0.0
H771 H 0.60279 0.01627 0.3264 0.0
H772 H 0.57581 0.06202 0.29605 0.0
H773 H 0.61831 0.02959 0.27573 0.0
C774 C 0.61267 0.03901 0.25086 0.0
C775 C 0.60166 0.04806 0.24086 0.0
C776 C 0.5817 0.05197 0.3027 0.0
C777 C 0.59569 0.04348 0.27571 0.0
C778 C 0.57888 0.04974 0.32013 0.0
C779 C 0.58636 0.0368 0.32904 0.0
C780 C 0.59227 0.04135 0.29417 0.0
C781 C 0.59672 0.02637 0.32002 0.0
C782 C 0.60966 0.03659 0.26823 0.0
C783 C 0.58773 0.05459 0.24879 0.0
N784 N 0.59945 0.02893 0.30311 0.0
N785 N 0.58519 0.05226 0.26577 0.0
H786 H 0.09983 0.53227 0.23415 0.0
H787 H 0.06116 0.55998 0.32225 0.0
H788 H 0.06111 0.56766 0.23706 0.0
H789 H 0.11082 0.5411 0.31881 0.0
H790 H 0.05935 0.56062 0.29108 0.0
H791 H 0.10252 0.53303 0.26528 0.0
C792 C 0.0919 0.54021 0.24133 0.0
C793 C 0.08022 0.54991 0.233 0.0
C794 C 0.07067 0.55642 0.29717 0.0
C795 C 0.08314 0.55071 0.2686 0.0
C796 C 0.07169 0.55599 0.31495 0.0
C797 C 0.08616 0.55047 0.32315 0.0
C798 C 0.08409 0.55102 0.2875 0.0
C799 C 0.09945 0.54549 0.31303 0.0
C800 C 0.09349 0.54068 0.25909 0.0
C801 C 0.07031 0.56001 0.24295 0.0
N802 N 0.09804 0.54576 0.29573 0.0
N803 N 0.0719 0.56005 0.26024 0.0
H804 H 0.61059 0.07307 0.82133 0.0
H805 H 0.55934 0.03512 0.73918 0.0
H806 H 0.567 0.03526 0.82487 0.0
H807 H 0.58499 0.08645 0.74062 0.0
H808 H 0.56524 0.03249 0.76979 0.0
H809 H 0.60457 0.07574 0.79076 0.0
C810 C 0.59978 0.06531 0.81567 0.0
C811 C 0.58925 0.05395 0.82565 0.0
C812 C 0.56954 0.04432 0.76338 0.0
C813 C 0.58246 0.0568 0.79072 0.0
C814 C 0.56626 0.04581 0.74592 0.0
C815 C 0.57166 0.06104 0.73736 0.0
C816 C 0.57859 0.05802 0.77225 0.0
C817 C 0.58053 0.07451 0.74674 0.0
C818 C 0.59632 0.06689 0.79826 0.0
C819 C 0.57539 0.04424 0.81766 0.0
N820 N 0.58382 0.07264 0.76366 0.0
N821 N 0.57246 0.04579 0.80063 0.0
H822 H 0.10014 0.56576 0.74136 0.0
H823 H 0.06696 0.52067 0.82746 0.0
H824 H 0.05978 0.52423 0.74222 0.0
H825 H 0.091 0.57262 0.82601 0.0
H826 H 0.06809 0.51934 0.79629 0.0
H827 H 0.10079 0.56599 0.7726 0.0
C828 C 0.09149 0.55663 0.74811 0.0
C829 C 0.07983 0.54501 0.73918 0.0
C830 C 0.07314 0.531 0.80282 0.0
C831 C 0.08061 0.54513 0.77485 0.0
C832 C 0.07257 0.53176 0.8206 0.0
C833 C 0.07883 0.54681 0.82933 0.0
C834 C 0.08026 0.54531 0.79374 0.0
C835 C 0.08593 0.5608 0.81979 0.0
C836 C 0.09182 0.55682 0.76592 0.0
C837 C 0.0689 0.53348 0.74859 0.0
N838 N 0.0865 0.55969 0.8025 0.0
N839 N 0.06958 0.5338 0.76592 0.0
H840 H 0.25915 0.5282 0.05171 0.0
H841 H 0.34348 0.55236 -0.00116 0.0
H842 H 0.26488 0.57214 0.01852 0.0
H843 H 0.34478 0.52679 0.0474 0.0
H844 H 0.31338 0.55649 0.00331 0.0
H845 H 0.28948 0.52433 0.04788 0.0
C846 C 0.26679 0.53703 0.04363 0.0
C847 C 0.25953 0.55053 0.03543 0.0
C848 C 0.32028 0.55 0.01298 0.0
C849 C 0.29402 0.54602 0.03084 0.0
C850 C 0.33742 0.54756 0.01041 0.0
C851 C 0.34663 0.53924 0.02278 0.0
C852 C 0.31222 0.54379 0.02787 0.0
C853 C 0.33815 0.53334 0.03758 0.0
C854 C 0.28407 0.53484 0.04151 0.0
C855 C 0.27 0.56162 0.02514 0.0
N856 N 0.32136 0.53562 0.03967 0.0
N857 N 0.28669 0.55903 0.02301 0.0
H858 H 0.55142 0.3468 0.04879 0.0
H859 H 0.6044 0.2688 0.02203 0.0
H860 H 0.59219 0.35168 0.01232 0.0
H861 H 0.55509 0.26167 0.04589 0.0
H862 H 0.6023 0.29979 0.02163 0.0
H863 H 0.55477 0.31612 0.0511 0.0
C864 C 0.56113 0.34145 0.04133 0.0
C865 C 0.57149 0.35182 0.03029 0.0
C866 C 0.59196 0.29144 0.02698 0.0
C867 C 0.57544 0.31674 0.03294 0.0
C868 C 0.59318 0.27375 0.02727 0.0
C869 C 0.57987 0.2626 0.03394 0.0
C870 C 0.57742 0.29807 0.03357 0.0
C871 C 0.56561 0.26977 0.04055 0.0
C872 C 0.563 0.32393 0.04262 0.0
C873 C 0.58386 0.34417 0.02093 0.0
N874 N 0.56477 0.28704 0.04022 0.0
N875 N 0.58551 0.3271 0.02248 0.0
H876 H 0.83714 0.50717 0.06972 0.0
H877 H 0.76001 0.49949 0.13582 0.0
H878 H 0.83497 0.47371 0.11339 0.0
H879 H 0.76078 0.53087 0.09067 0.0
H880 H 0.78789 0.49059 0.12826 0.0
H881 H 0.8096 0.5167 0.07765 0.0
C882 C 0.83089 0.50184 0.08099 0.0
C883 C 0.83837 0.4896 0.09089 0.0
C884 C 0.78198 0.49943 0.12001 0.0
C885 C 0.80682 0.50046 0.10004 0.0
C886 C 0.76605 0.50453 0.12432 0.0
C887 C 0.75803 0.51593 0.11385 0.0
C888 C 0.78998 0.50578 0.10511 0.0
C889 C 0.76647 0.52204 0.09911 0.0
C890 C 0.81515 0.50728 0.0855 0.0
C891 C 0.82967 0.48315 0.10536 0.0
N892 N 0.78198 0.51689 0.09518 0.0
N893 N 0.81437 0.48865 0.10949 0.0
H894 H 0.56229 0.75544 -0.00013 0.0
H895 H 0.60325 0.84153 0.04522 0.0
H896 H 0.58223 0.75624 0.05144 0.0
H897 H 0.56295 0.8412 0.00722 0.0
H898 H 0.60047 0.81004 0.04448 0.0
H899 H 0.56733 0.78685 -0.00079 0.0
C900 C 0.56788 0.76221 0.01099 0.0
C901 C 0.57178 0.75324 0.02577 0.0
C902 C 0.5923 0.8169 0.03628 0.0
C903 C 0.5777 0.78906 0.02501 0.0
C904 C 0.59392 0.83484 0.03663 0.0
C905 C 0.58325 0.84397 0.02632 0.0
C906 C 0.58017 0.80806 0.0253 0.0
C907 C 0.57134 0.83465 0.01546 0.0
C908 C 0.57066 0.7801 0.01062 0.0
C909 C 0.57894 0.76266 0.03983 0.0
N910 N 0.57016 0.8172 0.01518 0.0
N911 N 0.58173 0.78007 0.0391 0.0
loop_
_geom_bond_atom_site_label_1
_geom_bond_atom_site_label_2
_geom_bond_distance
_geom_bond_site_symmetry_2
_ccdc_geom_bond_type
O0 Cd1 2.300 . S
O0 C7 1.275 . S
Cd1 O0 2.300 . S
Cd1 O9 2.381 . S
Cd1 O10 2.378 . S
O2 Cd3 2.385 . S
O2 C7 1.255 . S
Cd3 O2 2.385 . S
Cd3 O4 2.317 . S
O4 Cd3 2.317 . S
O4 C5 1.232 . S
C5 O4 1.232 . S
C5 O6 1.218 . S
O6 C5 1.218 . S
C7 O0 1.275 . S
C7 O2 1.255 . S
C8 O9 1.258 . S
C8 O10 1.256 . S
O9 Cd1 2.381 . S
O9 C8 1.258 . S
O10 Cd1 2.378 . S
O10 C8 1.256 . S
O11 Cd12 2.300 . S
O11 C18 1.275 . S
Cd12 O11 2.300 . S
Cd12 O20 2.381 . S
Cd12 O21 2.378 . S
O13 Cd14 2.385 . S
O13 C18 1.255 . S
Cd14 O13 2.385 . S
Cd14 O15 2.317 . S
O15 Cd14 2.317 . S
O15 C16 1.232 . S
C16 O15 1.232 . S
C16 O17 1.218 . S
O17 C16 1.218 . S
C18 O11 1.275 . S
C18 O13 1.255 . S
C19 O20 1.258 . S
C19 O21 1.256 . S
O20 Cd12 2.381 . S
O20 C19 1.258 . S
O21 Cd12 2.378 . S
O21 C19 1.256 . S
O22 Cd23 2.300 . S
O22 C29 1.275 . S
Cd23 O22 2.300 . S
Cd23 O31 2.381 . S
Cd23 O32 2.378 . S
O24 Cd25 2.385 . S
O24 C29 1.255 . S
Cd25 O24 2.385 . S
Cd25 O26 2.317 . S
O26 Cd25 2.317 . S
O26 C27 1.232 . S
C27 O26 1.232 . S
C27 O28 1.218 . S
O28 C27 1.218 . S
C29 O22 1.275 . S
C29 O24 1.255 . S
C30 O31 1.258 . S
C30 O32 1.256 . S
O31 Cd23 2.381 . S
O31 C30 1.258 . S
O32 Cd23 2.378 . S
O32 C30 1.256 . S
O33 Cd34 2.300 . S
O33 C40 1.275 . S
Cd34 O33 2.300 . S
Cd34 O42 2.381 . S
Cd34 O43 2.378 . S
O35 Cd36 2.385 . S
O35 C40 1.255 . S
Cd36 O35 2.385 . S
Cd36 O37 2.317 . S
O37 Cd36 2.317 . S
O37 C38 1.232 . S
C38 O37 1.232 . S
C38 O39 1.218 . S
O39 C38 1.218 . S
C40 O33 1.275 . S
C40 O35 1.255 . S
C41 O42 1.258 . S
C41 O43 1.256 . S
O42 Cd34 2.381 . S
O42 C41 1.258 . S
O43 Cd34 2.378 . S
O43 C41 1.256 . S
O44 Cd45 2.300 . S
O44 C51 1.275 . S
Cd45 O44 2.300 . S
Cd45 O53 2.381 . S
Cd45 O54 2.378 . S
O46 Cd47 2.385 . S
O46 C51 1.255 . S
Cd47 O46 2.385 . S
Cd47 O48 2.317 . S
O48 Cd47 2.317 . S
O48 C49 1.232 . S
C49 O48 1.232 . S
C49 O50 1.218 . S
O50 C49 1.218 . S
C51 O44 1.275 . S
C51 O46 1.255 . S
C52 O53 1.258 . S
C52 O54 1.256 . S
O53 Cd45 2.381 . S
O53 C52 1.258 . S
O54 Cd45 2.378 . S
O54 C52 1.256 . S
O55 Cd56 2.300 . S
O55 C62 1.275 . S
Cd56 O55 2.300 . S
Cd56 O64 2.381 . S
Cd56 O65 2.378 . S
O57 Cd58 2.385 . S
O57 C62 1.255 . S
Cd58 O57 2.385 . S
Cd58 O59 2.317 . S
O59 Cd58 2.317 . S
O59 C60 1.232 . S
C60 O59 1.232 . S
C60 O61 1.218 . S
O61 C60 1.218 . S
C62 O55 1.275 . S
C62 O57 1.255 . S
C63 O64 1.258 . S
C63 O65 1.256 . S
O64 Cd56 2.381 . S
O64 C63 1.258 . S
O65 Cd56 2.378 . S
O65 C63 1.256 . S
O66 Cd67 2.300 . S
O66 C73 1.275 . S
Cd67 O66 2.300 . S
Cd67 O75 2.381 . S
Cd67 O76 2.378 . S
O68 Cd69 2.385 . S
O68 C73 1.255 . S
Cd69 O68 2.385 . S
Cd69 O70 2.317 . S
O70 Cd69 2.317 . S
O70 C71 1.232 . S
C71 O70 1.232 . S
C71 O72 1.218 . S
O72 C71 1.218 . S
C73 O66 1.275 . S
C73 O68 1.255 . S
C74 O75 1.258 . S
C74 O76 1.256 . S
O75 Cd67 2.381 . S
O75 C74 1.258 . S
O76 Cd67 2.378 . S
O76 C74 1.256 . S
O77 Cd78 2.300 . S
O77 C84 1.275 . S
Cd78 O77 2.300 . S
Cd78 O86 2.381 . S
Cd78 O87 2.378 . S
O79 Cd80 2.385 . S
O79 C84 1.255 . S
Cd80 O79 2.385 . S
Cd80 O81 2.317 . S
O81 Cd80 2.317 . S
O81 C82 1.232 . S
C82 O81 1.232 . S
C82 O83 1.218 . S
O83 C82 1.218 . S
C84 O77 1.275 . S
C84 O79 1.255 . S
C85 O86 1.258 . S
C85 O87 1.256 . S
O86 Cd78 2.381 . S
O86 C85 1.258 . S
O87 Cd78 2.378 . S
O87 C85 1.256 . S
O88 Cd89 2.300 . S
O88 C95 1.275 . S
Cd89 O88 2.300 . S
Cd89 O97 2.381 . S
Cd89 O98 2.378 . S
O90 Cd91 2.385 . S
O90 C95 1.255 . S
Cd91 O90 2.385 . S
Cd91 O92 2.317 . S
O92 Cd91 2.317 . S
O92 C93 1.232 . S
C93 O92 1.232 . S
C93 O94 1.218 . S
O94 C93 1.218 . S
C95 O88 1.275 . S
C95 O90 1.255 . S
C96 O97 1.258 . S
C96 O98 1.256 . S
O97 Cd89 2.381 . S
O97 C96 1.258 . S
O98 Cd89 2.378 . S
O98 C96 1.256 . S
O99 Cd100 2.300 . S
O99 C106 1.275 . S
Cd100 O99 2.300 . S
Cd100 O108 2.381 . S
Cd100 O109 2.378 . S
O101 Cd102 2.385 . S
O101 C106 1.255 . S
Cd102 O101 2.385 . S
Cd102 O103 2.317 . S
O103 Cd102 2.317 . S
O103 C104 1.232 . S
C104 O103 1.232 . S
C104 O105 1.218 . S
O105 C104 1.218 . S
C106 O99 1.275 . S
C106 O101 1.255 . S
C107 O108 1.258 . S
C107 O109 1.256 . S
O108 Cd100 2.381 . S
O108 C107 1.258 . S
O109 Cd100 2.378 . S
O109 C107 1.256 . S
O110 Cd111 2.300 . S
O110 C117 1.275 . S
Cd111 O110 2.300 . S
Cd111 O119 2.381 . S
Cd111 O120 2.378 . S
O112 Cd113 2.385 . S
O112 C117 1.255 . S
Cd113 O112 2.385 . S
Cd113 O114 2.317 . S
O114 Cd113 2.317 . S
O114 C115 1.232 . S
C115 O114 1.232 . S
C115 O116 1.218 . S
O116 C115 1.218 . S
C117 O110 1.275 . S
C117 O112 1.255 . S
C118 O119 1.258 . S
C118 O120 1.256 . S
O119 Cd111 2.381 . S
O119 C118 1.258 . S
O120 Cd111 2.378 . S
O120 C118 1.256 . S
O121 Cd122 2.300 . S
O121 C128 1.275 . S
Cd122 O121 2.300 . S
Cd122 O130 2.381 . S
Cd122 O131 2.378 . S
O123 Cd124 2.385 . S
O123 C128 1.255 . S
Cd124 O123 2.385 . S
Cd124 O125 2.317 . S
O125 Cd124 2.317 . S
O125 C126 1.232 . S
C126 O125 1.232 . S
C126 O127 1.218 . S
O127 C126 1.218 . S
C128 O121 1.275 . S
C128 O123 1.255 . S
C129 O130 1.258 . S
C129 O131 1.256 . S
O130 Cd122 2.381 . S
O130 C129 1.258 . S
O131 Cd122 2.378 . S
O131 C129 1.256 . S
O132 Cd133 2.300 . S
O132 C139 1.275 . S
Cd133 O132 2.300 . S
Cd133 O141 2.381 . S
Cd133 O142 2.378 . S
O134 Cd135 2.385 1_554 S
O134 C139 1.255 . S
Cd135 O134 2.385 1_556 S
Cd135 O136 2.317 1_556 S
O136 Cd135 2.317 1_554 S
O136 C137 1.232 . S
C137 O136 1.232 . S
C137 O138 1.218 . S
O138 C137 1.218 . S
C139 O132 1.275 . S
C139 O134 1.255 . S
C140 O141 1.258 . S
C140 O142 1.256 . S
O141 Cd133 2.381 . S
O141 C140 1.258 . S
O142 Cd133 2.378 . S
O142 C140 1.256 . S
O143 Cd144 2.300 . S
O143 C150 1.275 . S
Cd144 O143 2.300 . S
Cd144 O152 2.381 . S
Cd144 O153 2.378 . S
O145 Cd146 2.385 1_554 S
O145 C150 1.255 . S
Cd146 O145 2.385 1_556 S
Cd146 O147 2.317 1_556 S
O147 Cd146 2.317 1_554 S
O147 C148 1.232 . S
C148 O147 1.232 . S
C148 O149 1.218 . S
O149 C148 1.218 . S
C150 O143 1.275 . S
C150 O145 1.255 . S
C151 O152 1.258 . S
C151 O153 1.256 . S
O152 Cd144 2.381 . S
O152 C151 1.258 . S
O153 Cd144 2.378 . S
O153 C151 1.256 . S
O154 Cd155 2.300 . S
O154 C161 1.275 . S
Cd155 O154 2.300 . S
Cd155 O163 2.381 . S
Cd155 O164 2.378 . S
O156 Cd157 2.385 . S
O156 C161 1.255 . S
Cd157 O156 2.385 . S
Cd157 O158 2.317 . S
O158 Cd157 2.317 . S
O158 C159 1.232 . S
C159 O158 1.232 . S
C159 O160 1.218 . S
O160 C159 1.218 . S
C161 O154 1.275 . S
C161 O156 1.255 . S
C162 O163 1.258 . S
C162 O164 1.256 . S
O163 Cd155 2.381 . S
O163 C162 1.258 . S
O164 Cd155 2.378 . S
O164 C162 1.256 . S
O165 Cd166 2.300 . S
O165 C172 1.275 . S
Cd166 O165 2.300 . S
Cd166 O174 2.381 . S
Cd166 O175 2.378 . S
O167 Cd168 2.385 . S
O167 C172 1.255 . S
Cd168 O167 2.385 . S
Cd168 O169 2.317 . S
O169 Cd168 2.317 . S
O169 C170 1.232 . S
C170 O169 1.232 . S
C170 O171 1.218 . S
O171 C170 1.218 . S
C172 O165 1.275 . S
C172 O167 1.255 . S
C173 O174 1.258 . S
C173 O175 1.256 . S
O174 Cd166 2.381 . S
O174 C173 1.258 . S
O175 Cd166 2.378 . S
O175 C173 1.256 . S
O176 Cd177 2.300 . S
O176 C183 1.275 . S
Cd177 O176 2.300 . S
Cd177 O185 2.381 . S
Cd177 O186 2.378 . S
O178 Cd179 2.385 . S
O178 C183 1.255 . S
Cd179 O178 2.385 . S
Cd179 O180 2.317 . S
O180 Cd179 2.317 . S
O180 C181 1.232 . S
C181 O180 1.232 . S
C181 O182 1.218 . S
O182 C181 1.218 . S
C183 O176 1.275 . S
C183 O178 1.255 . S
C184 O185 1.258 . S
C184 O186 1.256 . S
O185 Cd177 2.381 . S
O185 C184 1.258 . S
O186 Cd177 2.378 . S
O186 C184 1.256 . S
O187 Cd188 2.300 . S
O187 C194 1.275 . S
Cd188 O187 2.300 . S
Cd188 O196 2.381 . S
Cd188 O197 2.378 . S
O189 Cd190 2.385 . S
O189 C194 1.255 . S
Cd190 O189 2.385 . S
Cd190 O191 2.317 . S
O191 Cd190 2.317 . S
O191 C192 1.232 . S
C192 O191 1.232 . S
C192 O193 1.218 . S
O193 C192 1.218 . S
C194 O187 1.275 . S
C194 O189 1.255 . S
C195 O196 1.258 . S
C195 O197 1.256 . S
O196 Cd188 2.381 . S
O196 C195 1.258 . S
O197 Cd188 2.378 . S
O197 C195 1.256 . S
O198 Cd199 2.300 . S
O198 C205 1.275 . S
Cd199 O198 2.300 . S
Cd199 O207 2.381 . S
Cd199 O208 2.378 . S
O200 Cd201 2.385 . S
O200 C205 1.255 . S
Cd201 O200 2.385 . S
Cd201 O202 2.317 . S
O202 Cd201 2.317 . S
O202 C203 1.232 . S
C203 O202 1.232 . S
C203 O204 1.218 . S
O204 C203 1.218 . S
C205 O198 1.275 . S
C205 O200 1.255 . S
C206 O207 1.258 . S
C206 O208 1.256 . S
O207 Cd199 2.381 . S
O207 C206 1.258 . S
O208 Cd199 2.378 . S
O208 C206 1.256 . S
O209 Cd210 2.300 . S
O209 C216 1.275 . S
Cd210 O209 2.300 . S
Cd210 O218 2.381 . S
Cd210 O219 2.378 . S
O211 Cd212 2.385 1_545 S
O211 C216 1.255 . S
Cd212 O211 2.385 1_565 S
Cd212 O213 2.317 1_565 S
O213 Cd212 2.317 1_545 S
O213 C214 1.232 . S
C214 O213 1.232 . S
C214 O215 1.218 . S
O215 C214 1.218 . S
C216 O209 1.275 . S
C216 O211 1.255 . S
C217 O218 1.258 . S
C217 O219 1.256 . S
O218 Cd210 2.381 . S
O218 C217 1.258 . S
O219 Cd210 2.378 . S
O219 C217 1.256 . S
O220 Cd221 2.300 . S
O220 C227 1.275 . S
Cd221 O220 2.300 . S
Cd221 O229 2.381 . S
Cd221 O230 2.378 . S
O222 Cd223 2.385 . S
O222 C227 1.255 . S
Cd223 O222 2.385 . S
Cd223 O224 2.317 . S
O224 Cd223 2.317 . S
O224 C225 1.232 . S
C225 O224 1.232 . S
C225 O226 1.218 . S
O226 C225 1.218 . S
C227 O220 1.275 . S
C227 O222 1.255 . S
C228 O229 1.258 . S
C228 O230 1.256 . S
O229 Cd221 2.381 . S
O229 C228 1.258 . S
O230 Cd221 2.378 . S
O230 C228 1.256 . S
O231 Cd232 2.300 . S
O231 C238 1.275 . S
Cd232 O231 2.300 . S
Cd232 O240 2.381 . S
Cd232 O241 2.378 . S
O233 Cd234 2.385 . S
O233 C238 1.255 . S
Cd234 O233 2.385 . S
Cd234 O235 2.317 . S
O235 Cd234 2.317 . S
O235 C236 1.232 . S
C236 O235 1.232 . S
C236 O237 1.218 . S
O237 C236 1.218 . S
C238 O231 1.275 . S
C238 O233 1.255 . S
C239 O240 1.258 . S
C239 O241 1.256 . S
O240 Cd232 2.381 . S
O240 C239 1.258 . S
O241 Cd232 2.378 . S
O241 C239 1.256 . S
O242 Cd243 2.300 . S
O242 C249 1.275 . S
Cd243 O242 2.300 . S
Cd243 O251 2.381 . S
Cd243 O252 2.378 . S
O244 Cd245 2.385 . S
O244 C249 1.255 . S
Cd245 O244 2.385 . S
Cd245 O246 2.317 . S
O246 Cd245 2.317 . S
O246 C247 1.232 . S
C247 O246 1.232 . S
C247 O248 1.218 . S
O248 C247 1.218 . S
C249 O242 1.275 . S
C249 O244 1.255 . S
C250 O251 1.258 . S
C250 O252 1.256 . S
O251 Cd243 2.381 . S
O251 C250 1.258 . S
O252 Cd243 2.378 . S
O252 C250 1.256 . S
O253 Cd254 2.300 . S
O253 C260 1.275 . S
Cd254 O253 2.300 . S
Cd254 O262 2.381 . S
Cd254 O263 2.378 . S
O255 Cd256 2.385 . S
O255 C260 1.255 . S
Cd256 O255 2.385 . S
Cd256 O257 2.317 . S
O257 Cd256 2.317 . S
O257 C258 1.232 . S
C258 O257 1.232 . S
C258 O259 1.218 . S
O259 C258 1.218 . S
C260 O253 1.275 . S
C260 O255 1.255 . S
C261 O262 1.258 . S
C261 O263 1.256 . S
O262 Cd254 2.381 . S
O262 C261 1.258 . S
O263 Cd254 2.378 . S
O263 C261 1.256 . S
H264 C270 0.930 . S
H265 C274 0.930 . S
H266 C279 0.929 . S
H267 C277 0.929 . S
H268 C272 0.929 . S
H269 C278 0.929 . S
C270 H264 0.930 . S
C270 C271 1.367 . S
C270 C278 1.378 . S
C271 C270 1.367 . S
C271 C279 1.433 . S
C272 H268 0.929 . S
C272 C274 1.378 . S
C272 C276 1.350 . S
C273 C276 1.463 . S
C273 C278 1.350 . S
C273 N281 1.427 . S
C274 H265 0.930 . S
C274 C272 1.378 . S
C274 C275 1.367 . S
C275 C274 1.367 . S
C275 C277 1.433 . S
C276 C272 1.350 . S
C276 C273 1.463 . S
C276 N280 1.427 . S
C277 H267 0.929 . S
C277 C275 1.433 . S
C277 N280 1.384 . S
C278 H269 0.929 . S
C278 C270 1.378 . S
C278 C273 1.350 . S
C279 H266 0.929 . S
C279 C271 1.433 . S
C279 N281 1.384 . S
N280 C276 1.427 . S
N280 C277 1.384 . S
N281 C273 1.427 . S
N281 C279 1.384 . S
H282 C288 0.930 . S
H283 C292 0.930 . S
H284 C297 0.929 . S
H285 C295 0.929 . S
H286 C290 0.929 . S
H287 C296 0.929 . S
C288 H282 0.930 . S
C288 C289 1.367 . S
C288 C296 1.378 . S
C289 C288 1.367 . S
C289 C297 1.433 . S
C290 H286 0.929 . S
C290 C292 1.378 1_655 S
C290 C294 1.350 . S
C291 C294 1.463 . S
C291 C296 1.350 . S
C291 N299 1.427 . S
C292 H283 0.930 . S
C292 C290 1.378 1_455 S
C292 C293 1.367 . S
C293 C292 1.367 . S
C293 C295 1.433 . S
C294 C290 1.350 . S
C294 C291 1.463 . S
C294 N298 1.427 1_655 S
C295 H285 0.929 . S
C295 C293 1.433 . S
C295 N298 1.384 . S
C296 H287 0.929 . S
C296 C288 1.378 . S
C296 C291 1.350 . S
C297 H284 0.929 . S
C297 C289 1.433 . S
C297 N299 1.384 . S
N298 C294 1.427 1_455 S
N298 C295 1.384 . S
N299 C291 1.427 . S
N299 C297 1.384 . S
H300 C306 0.930 . S
H301 C310 0.930 . S
H302 C315 0.929 . S
H303 C313 0.941 . S
H304 C308 0.929 . S
H305 C314 0.929 . S
C306 H300 0.930 . S
C306 C307 1.367 1_565 S
C306 C314 1.378 . S
C307 C306 1.367 1_545 S
C307 C315 1.433 . S
C308 H304 0.929 . S
C308 C310 1.378 . S
C308 C312 1.298 1_455 S
C309 C312 1.503 . S
C309 C314 1.350 . S
C309 N317 1.427 . S
C310 H301 0.930 . S
C310 C308 1.378 . S
C310 C311 1.367 . S
C311 C310 1.367 . S
C311 C313 1.433 . S
C312 C308 1.298 1_655 S
C312 C309 1.503 . S
C312 N316 1.444 . S
C313 H303 0.941 . S
C313 C311 1.433 . S
C313 N316 1.384 1_455 S
C314 H305 0.929 . S
C314 C306 1.378 . S
C314 C309 1.350 . S
C315 H302 0.929 . S
C315 C307 1.433 . S
C315 N317 1.384 1_545 S
N316 C312 1.444 . S
N316 C313 1.384 1_655 S
N317 C309 1.427 . S
N317 C315 1.384 1_565 S
H318 C324 0.930 . S
H319 C328 0.930 . S
H320 C333 0.929 . S
H321 C331 0.929 . S
H322 C326 0.929 . S
H323 C332 0.929 . S
C324 H318 0.930 . S
C324 C325 1.367 . S
C324 C332 1.378 . S
C325 C324 1.367 . S
C325 C333 1.433 . S
C326 H322 0.929 . S
C326 C328 1.378 . S
C326 C330 1.350 1_545 S
C327 C330 1.463 . S
C327 C332 1.350 . S
C327 N335 1.427 . S
C328 H319 0.930 . S
C328 C326 1.378 . S
C328 C329 1.367 . S
C329 C328 1.367 . S
C329 C331 1.433 . S
C330 C326 1.350 1_565 S
C330 C327 1.463 . S
C330 N334 1.427 . S
C331 H321 0.929 . S
C331 C329 1.433 . S
C331 N334 1.384 1_545 S
C332 H323 0.929 . S
C332 C324 1.378 . S
C332 C327 1.350 . S
C333 H320 0.929 . S
C333 C325 1.433 . S
C333 N335 1.384 . S
N334 C330 1.427 . S
N334 C331 1.384 1_565 S
N335 C327 1.427 . S
N335 C333 1.384 . S
H336 C342 0.930 . S
H337 C346 0.930 . S
H338 C351 0.929 . S
H339 C349 0.929 . S
H340 C344 0.929 . S
H341 C350 0.929 . S
C342 H336 0.930 . S
C342 C343 1.367 . S
C342 C350 1.378 . S
C343 C342 1.367 . S
C343 C351 1.433 . S
C344 H340 0.929 . S
C344 C346 1.378 . S
C344 C348 1.350 . S
C345 C348 1.463 . S
C345 C350 1.350 . S
C345 N353 1.427 . S
C346 H337 0.930 . S
C346 C344 1.378 . S
C346 C347 1.367 . S
C347 C346 1.367 . S
C347 C349 1.433 . S
C348 C344 1.350 . S
C348 C345 1.463 . S
C348 N352 1.427 . S
C349 H339 0.929 . S
C349 C347 1.433 . S
C349 N352 1.384 . S
C350 H341 0.929 . S
C350 C342 1.378 . S
C350 C345 1.350 . S
C351 H338 0.929 . S
C351 C343 1.433 . S
C351 N353 1.384 . S
N352 C348 1.427 . S
N352 C349 1.384 . S
N353 C345 1.427 . S
N353 C351 1.384 . S
H354 C360 0.930 . S
H355 C364 0.930 . S
H356 C369 0.929 . S
H357 C367 0.929 . S
H358 C362 0.929 . S
H359 C368 0.945 . S
C360 H354 0.930 . S
C360 C361 1.367 . S
C360 C368 1.344 1_455 S
C361 C360 1.367 . S
C361 C369 1.433 . S
C362 H358 0.929 . S
C362 C364 1.378 . S
C362 C366 1.350 . S
C363 C366 1.463 . S
C363 C368 1.371 . S
C363 N371 1.427 . S
C364 H355 0.930 . S
C364 C362 1.378 . S
C364 C365 1.367 . S
C365 C364 1.367 . S
C365 C367 1.433 . S
C366 C362 1.350 . S
C366 C363 1.463 . S
C366 N370 1.427 . S
C367 H357 0.929 . S
C367 C365 1.433 . S
C367 N370 1.384 . S
C368 H359 0.945 . S
C368 C360 1.344 1_655 S
C368 C363 1.371 . S
C369 H356 0.929 . S
C369 C361 1.433 . S
C369 N371 1.384 1_455 S
N370 C366 1.427 . S
N370 C367 1.384 . S
N371 C363 1.427 . S
N371 C369 1.384 1_655 S
H372 C378 0.930 . S
H373 C382 0.930 . S
H374 C387 0.929 . S
H375 C385 0.929 . S
H376 C380 0.929 . S
H377 C386 0.929 . S
C378 H372 0.930 . S
C378 C379 1.367 . S
C378 C386 1.378 . S
C379 C378 1.367 . S
C379 C387 1.433 . S
C380 H376 0.929 . S
C380 C382 1.378 . S
C380 C384 1.350 . S
C381 C384 1.463 1_545 S
C381 C386 1.350 . S
C381 N389 1.427 . S
C382 H373 0.930 . S
C382 C380 1.378 . S
C382 C383 1.367 . S
C383 C382 1.367 . S
C383 C385 1.433 . S
C384 C380 1.350 . S
C384 C381 1.463 1_565 S
C384 N388 1.427 . S
C385 H375 0.929 . S
C385 C383 1.433 . S
C385 N388 1.384 . S
C386 H377 0.929 . S
C386 C378 1.378 . S
C386 C381 1.350 . S
C387 H374 0.929 . S
C387 C379 1.433 . S
C387 N389 1.384 . S
N388 C384 1.427 . S
N388 C385 1.384 . S
N389 C381 1.427 . S
N389 C387 1.384 . S
H390 C396 0.930 . S
H391 C400 0.930 . S
H392 C405 0.929 . S
H393 C403 0.929 . S
H394 C398 0.929 . S
H395 C404 0.929 . S
C396 H390 0.930 . S
C396 C397 1.367 . S
C396 C404 1.378 . S
C397 C396 1.367 . S
C397 C405 1.433 . S
C398 H394 0.929 . S
C398 C400 1.378 . S
C398 C402 1.350 . S
C399 C402 1.463 . S
C399 C404 1.350 . S
C399 N407 1.427 . S
C400 H391 0.930 . S
C400 C398 1.378 . S
C400 C401 1.367 . S
C401 C400 1.367 . S
C401 C403 1.433 . S
C402 C398 1.350 . S
C402 C399 1.463 . S
C402 N406 1.427 . S
C403 H393 0.929 . S
C403 C401 1.433 . S
C403 N406 1.384 . S
C404 H395 0.929 . S
C404 C396 1.378 . S
C404 C399 1.350 . S
C405 H392 0.929 . S
C405 C397 1.433 . S
C405 N407 1.384 . S
N406 C402 1.427 . S
N406 C403 1.384 . S
N407 C399 1.427 . S
N407 C405 1.384 . S
H408 C414 0.930 . S
H409 C418 0.930 . S
H410 C423 0.929 . S
H411 C421 0.929 . S
H412 C416 0.929 1_556 S
H413 C422 0.929 . S
C414 H408 0.930 . S
C414 C415 1.367 . S
C414 C422 1.378 1_545 S
C415 C414 1.367 . S
C415 C423 1.433 . S
C416 H412 0.929 1_554 S
C416 C418 1.378 . S
C416 C420 1.350 1_554 S
C417 C420 1.463 . S
C417 C422 1.350 . S
C417 N425 1.427 . S
C418 H409 0.930 . S
C418 C416 1.378 . S
C418 C419 1.367 . S
C419 C418 1.367 . S
C419 C421 1.433 . S
C420 C416 1.350 1_556 S
C420 C417 1.463 . S
C420 N424 1.419 1_556 S
C421 H411 0.929 . S
C421 C419 1.433 . S
C421 N424 1.405 . S
C422 H413 0.929 . S
C422 C414 1.378 1_565 S
C422 C417 1.350 . S
C423 H410 0.929 . S
C423 C415 1.433 . S
C423 N425 1.384 1_545 S
N424 C420 1.419 1_554 S
N424 C421 1.405 . S
N425 C417 1.427 . S
N425 C423 1.384 1_565 S
H426 C432 0.930 . S
H427 C436 0.930 . S
H428 C441 0.929 . S
H429 C439 0.929 . S
H430 C434 0.929 . S
H431 C440 0.929 . S
C432 H426 0.930 . S
C432 C433 1.367 . S
C432 C440 1.378 . S
C433 C432 1.367 . S
C433 C441 1.433 . S
C434 H430 0.929 . S
C434 C436 1.378 1_556 S
C434 C438 1.350 . S
C435 C438 1.463 . S
C435 C440 1.350 . S
C435 N443 1.427 . S
C436 H427 0.930 . S
C436 C434 1.378 1_554 S
C436 C437 1.367 . S
C437 C436 1.367 . S
C437 C439 1.433 . S
C438 C434 1.350 . S
C438 C435 1.463 . S
C438 N442 1.427 . S
C439 H429 0.929 . S
C439 C437 1.433 . S
C439 N442 1.384 1_554 S
C440 H431 0.929 . S
C440 C432 1.378 . S
C440 C435 1.350 . S
C441 H428 0.929 . S
C441 C433 1.433 . S
C441 N443 1.384 . S
N442 C438 1.427 . S
N442 C439 1.384 1_556 S
N443 C435 1.427 . S
N443 C441 1.384 . S
H444 C450 0.942 . S
H445 C454 0.930 . S
H446 C459 0.929 . S
H447 C457 0.929 . S
H448 C452 0.929 . S
H449 C458 0.929 . S
C450 H444 0.942 . S
C450 C451 1.367 . S
C450 C458 1.367 1_554 S
C451 C450 1.367 . S
C451 C459 1.426 1_554 S
C452 H448 0.929 . S
C452 C454 1.378 . S
C452 C456 1.350 . S
C453 C456 1.463 . S
C453 C458 1.350 . S
C453 N461 1.427 . S
C454 H445 0.930 . S
C454 C452 1.378 . S
C454 C455 1.367 . S
C455 C454 1.367 . S
C455 C457 1.433 . S
C456 C452 1.350 . S
C456 C453 1.463 . S
C456 N460 1.427 . S
C457 H447 0.929 . S
C457 C455 1.433 . S
C457 N460 1.384 . S
C458 H449 0.929 . S
C458 C450 1.367 1_556 S
C458 C453 1.350 . S
C459 H446 0.929 . S
C459 C451 1.426 1_556 S
C459 N461 1.384 . S
N460 C456 1.427 . S
N460 C457 1.384 . S
N461 C453 1.427 . S
N461 C459 1.384 . S
H462 C468 0.930 . S
H463 C472 0.930 . S
H464 C477 0.929 . S
H465 C475 0.929 . S
H466 C470 0.929 . S
H467 C476 0.929 . S
C468 H462 0.930 . S
C468 C469 1.367 . S
C468 C476 1.378 . S
C469 C468 1.367 . S
C469 C477 1.433 . S
C470 H466 0.929 . S
C470 C472 1.378 1_556 S
C470 C474 1.350 . S
C471 C474 1.463 1_455 S
C471 C476 1.350 . S
C471 N479 1.427 . S
C472 H463 0.930 . S
C472 C470 1.378 1_554 S
C472 C473 1.367 . S
C473 C472 1.367 . S
C473 C475 1.433 . S
C474 C470 1.350 . S
C474 C471 1.463 1_655 S
C474 N478 1.427 . S
C475 H465 0.929 . S
C475 C473 1.433 . S
C475 N478 1.384 1_554 S
C476 H467 0.929 . S
C476 C468 1.378 . S
C476 C471 1.350 . S
C477 H464 0.929 . S
C477 C469 1.433 . S
C477 N479 1.384 . S
N478 C474 1.427 . S
N478 C475 1.384 1_556 S
N479 C471 1.427 . S
N479 C477 1.384 . S
H480 C486 0.930 . S
H481 C490 0.930 . S
H482 C495 0.929 . S
H483 C493 0.929 . S
H484 C488 0.929 . S
H485 C494 0.929 . S
C486 H480 0.930 . S
C486 C487 1.367 . S
C486 C494 1.378 . S
C487 C486 1.367 . S
C487 C495 1.433 . S
C488 H484 0.929 . S
C488 C490 1.378 . S
C488 C492 1.350 . S
C489 C492 1.463 . S
C489 C494 1.350 . S
C489 N497 1.427 . S
C490 H481 0.930 . S
C490 C488 1.378 . S
C490 C491 1.367 . S
C491 C490 1.367 . S
C491 C493 1.433 . S
C492 C488 1.350 . S
C492 C489 1.463 . S
C492 N496 1.427 . S
C493 H483 0.929 . S
C493 C491 1.433 . S
C493 N496 1.384 . S
C494 H485 0.929 . S
C494 C486 1.378 . S
C494 C489 1.350 . S
C495 H482 0.929 . S
C495 C487 1.433 . S
C495 N497 1.384 . S
N496 C492 1.427 . S
N496 C493 1.384 . S
N497 C489 1.427 . S
N497 C495 1.384 . S
H498 C504 0.930 1_556 S
H499 C508 0.930 . S
H500 C513 0.929 . S
H501 C511 0.929 1_556 S
H502 C506 0.929 . S
H503 C512 0.929 1_556 S
C504 H498 0.930 1_554 S
C504 C505 1.367 . S
C504 C512 1.378 . S
C505 C504 1.367 . S
C505 C513 1.433 . S
C506 H502 0.929 . S
C506 C508 1.378 . S
C506 C510 1.350 . S
C507 C510 1.463 . S
C507 C512 1.350 . S
C507 N515 1.427 . S
C508 H499 0.930 . S
C508 C506 1.378 . S
C508 C509 1.367 . S
C509 C508 1.367 . S
C509 C511 1.433 . S
C510 C506 1.350 . S
C510 C507 1.463 . S
C510 N514 1.427 . S
C511 H501 0.929 1_554 S
C511 C509 1.433 . S
C511 N514 1.384 . S
C512 H503 0.929 1_554 S
C512 C504 1.378 . S
C512 C507 1.350 . S
C513 H500 0.929 . S
C513 C505 1.433 . S
C513 N515 1.384 . S
N514 C510 1.427 . S
N514 C511 1.384 . S
N515 C507 1.427 . S
N515 C513 1.384 . S
H516 C522 0.930 . S
H517 C526 0.930 . S
H518 C531 0.929 . S
H519 C529 0.929 . S
H520 C524 0.929 . S
H521 C530 0.929 . S
C522 H516 0.930 . S
C522 C523 1.367 . S
C522 C530 1.378 . S
C523 C522 1.367 . S
C523 C531 1.433 . S
C524 H520 0.929 . S
C524 C526 1.378 . S
C524 C528 1.350 . S
C525 C528 1.463 . S
C525 C530 1.350 . S
C525 N533 1.427 . S
C526 H517 0.930 . S
C526 C524 1.378 . S
C526 C527 1.367 . S
C527 C526 1.367 . S
C527 C529 1.433 . S
C528 C524 1.350 . S
C528 C525 1.463 . S
C528 N532 1.427 . S
C529 H519 0.929 . S
C529 C527 1.433 . S
C529 N532 1.384 . S
C530 H521 0.929 . S
C530 C522 1.378 . S
C530 C525 1.350 . S
C531 H518 0.929 . S
C531 C523 1.433 . S
C531 N533 1.384 . S
N532 C528 1.427 . S
N532 C529 1.384 . S
N533 C525 1.427 . S
N533 C531 1.384 . S
H534 C540 0.930 . S
H535 C544 0.930 . S
H536 C549 0.929 . S
H537 C547 0.929 . S
H538 C542 0.929 . S
H539 C548 0.929 . S
C540 H534 0.930 . S
C540 C541 1.367 . S
C540 C548 1.378 . S
C541 C540 1.367 . S
C541 C549 1.433 . S
C542 H538 0.929 . S
C542 C544 1.378 . S
C542 C546 1.350 . S
C543 C546 1.463 . S
C543 C548 1.350 . S
C543 N551 1.427 . S
C544 H535 0.930 . S
C544 C542 1.378 . S
C544 C545 1.367 . S
C545 C544 1.367 . S
C545 C547 1.433 . S
C546 C542 1.350 . S
C546 C543 1.463 . S
C546 N550 1.427 . S
C547 H537 0.929 . S
C547 C545 1.433 . S
C547 N550 1.384 . S
C548 H539 0.929 . S
C548 C540 1.378 . S
C548 C543 1.350 . S
C549 H536 0.929 . S
C549 C541 1.433 . S
C549 N551 1.384 . S
N550 C546 1.427 . S
N550 C547 1.384 . S
N551 C543 1.427 . S
N551 C549 1.384 . S
H552 C558 0.930 . S
H553 C562 0.930 . S
H554 C567 0.929 . S
H555 C565 0.929 . S
H556 C560 0.929 . S
H557 C566 0.929 . S
C558 H552 0.930 . S
C558 C559 1.367 . S
C558 C566 1.378 . S
C559 C558 1.367 . S
C559 C567 1.433 . S
C560 H556 0.929 . S
C560 C562 1.378 . S
C560 C564 1.350 . S
C561 C564 1.463 . S
C561 C566 1.350 . S
C561 N569 1.427 . S
C562 H553 0.930 . S
C562 C560 1.378 . S
C562 C563 1.367 . S
C563 C562 1.367 . S
C563 C565 1.433 . S
C564 C560 1.350 . S
C564 C561 1.463 . S
C564 N568 1.427 . S
C565 H555 0.929 . S
C565 C563 1.433 . S
C565 N568 1.384 . S
C566 H557 0.929 . S
C566 C558 1.378 . S
C566 C561 1.350 . S
C567 H554 0.929 . S
C567 C559 1.433 . S
C567 N569 1.384 . S
N568 C564 1.427 . S
N568 C565 1.384 . S
N569 C561 1.427 . S
N569 C567 1.384 . S
H570 C576 0.930 . S
H571 C580 0.930 . S
H572 C585 0.929 . S
H573 C583 0.929 . S
H574 C578 0.929 . S
H575 C584 0.929 . S
C576 H570 0.930 . S
C576 C577 1.367 . S
C576 C584 1.378 . S
C577 C576 1.367 . S
C577 C585 1.433 . S
C578 H574 0.929 . S
C578 C580 1.378 . S
C578 C582 1.350 . S
C579 C582 1.463 . S
C579 C584 1.350 . S
C579 N587 1.427 . S
C580 H571 0.930 . S
C580 C578 1.378 . S
C580 C581 1.367 . S
C581 C580 1.367 . S
C581 C583 1.433 . S
C582 C578 1.350 . S
C582 C579 1.463 . S
C582 N586 1.427 . S
C583 H573 0.929 . S
C583 C581 1.433 . S
C583 N586 1.384 . S
C584 H575 0.929 . S
C584 C576 1.378 . S
C584 C579 1.350 . S
C585 H572 0.929 . S
C585 C577 1.433 . S
C585 N587 1.384 . S
N586 C582 1.427 . S
N586 C583 1.384 . S
N587 C579 1.427 . S
N587 C585 1.384 . S
H588 C594 0.930 . S
H589 C598 0.930 . S
H590 C603 0.929 . S
H591 C601 0.929 . S
H592 C596 0.929 . S
H593 C602 0.929 . S
C594 H588 0.930 . S
C594 C595 1.367 . S
C594 C602 1.378 . S
C595 C594 1.367 . S
C595 C603 1.433 . S
C596 H592 0.929 . S
C596 C598 1.378 . S
C596 C600 1.350 . S
C597 C600 1.463 . S
C597 C602 1.350 . S
C597 N605 1.427 . S
C598 H589 0.930 . S
C598 C596 1.378 . S
C598 C599 1.367 . S
C599 C598 1.367 . S
C599 C601 1.433 . S
C600 C596 1.350 . S
C600 C597 1.463 . S
C600 N604 1.427 . S
C601 H591 0.929 . S
C601 C599 1.433 . S
C601 N604 1.384 . S
C602 H593 0.929 . S
C602 C594 1.378 . S
C602 C597 1.350 . S
C603 H590 0.929 . S
C603 C595 1.433 . S
C603 N605 1.384 . S
N604 C600 1.427 . S
N604 C601 1.384 . S
N605 C597 1.427 . S
N605 C603 1.384 . S
H606 C612 0.930 . S
H607 C616 0.930 . S
H608 C621 0.929 . S
H609 C619 0.929 . S
H610 C614 0.929 . S
H611 C620 0.929 . S
C612 H606 0.930 . S
C612 C613 1.367 . S
C612 C620 1.378 . S
C613 C612 1.367 . S
C613 C621 1.433 . S
C614 H610 0.929 . S
C614 C616 1.378 . S
C614 C618 1.350 . S
C615 C618 1.463 . S
C615 C620 1.350 . S
C615 N623 1.427 . S
C616 H607 0.930 . S
C616 C614 1.378 . S
C616 C617 1.367 . S
C617 C616 1.367 . S
C617 C619 1.433 . S
C618 C614 1.350 . S
C618 C615 1.463 . S
C618 N622 1.427 . S
C619 H609 0.929 . S
C619 C617 1.433 . S
C619 N622 1.384 . S
C620 H611 0.929 . S
C620 C612 1.378 . S
C620 C615 1.350 . S
C621 H608 0.929 . S
C621 C613 1.433 . S
C621 N623 1.384 . S
N622 C618 1.427 . S
N622 C619 1.384 . S
N623 C615 1.427 . S
N623 C621 1.384 . S
H624 C630 0.930 . S
H625 C634 0.930 . S
H626 C639 0.929 . S
H627 C637 0.929 . S
H628 C632 0.929 . S
H629 C638 0.929 . S
C630 H624 0.930 . S
C630 C631 1.367 . S
C630 C638 1.378 . S
C631 C630 1.367 . S
C631 C639 1.433 . S
C632 H628 0.929 . S
C632 C634 1.378 . S
C632 C636 1.350 . S
C633 C636 1.463 . S
C633 C638 1.350 . S
C633 N641 1.427 . S
C634 H625 0.930 . S
C634 C632 1.378 . S
C634 C635 1.367 . S
C635 C634 1.367 . S
C635 C637 1.433 . S
C636 C632 1.350 . S
C636 C633 1.463 . S
C636 N640 1.427 . S
C637 H627 0.929 . S
C637 C635 1.433 . S
C637 N640 1.384 . S
C638 H629 0.929 . S
C638 C630 1.378 . S
C638 C633 1.350 . S
C639 H626 0.929 . S
C639 C631 1.433 . S
C639 N641 1.384 . S
N640 C636 1.427 . S
N640 C637 1.384 . S
N641 C633 1.427 . S
N641 C639 1.384 . S
H642 C648 0.930 . S
H643 C652 0.930 . S
H644 C657 0.929 . S
H645 C655 0.929 . S
H646 C650 0.929 . S
H647 C656 0.929 . S
C648 H642 0.930 . S
C648 C649 1.367 . S
C648 C656 1.378 . S
C649 C648 1.367 . S
C649 C657 1.433 . S
C650 H646 0.929 . S
C650 C652 1.378 . S
C650 C654 1.350 . S
C651 C654 1.463 . S
C651 C656 1.350 . S
C651 N659 1.427 . S
C652 H643 0.930 . S
C652 C650 1.378 . S
C652 C653 1.367 . S
C653 C652 1.367 . S
C653 C655 1.433 . S
C654 C650 1.350 . S
C654 C651 1.463 . S
C654 N658 1.427 . S
C655 H645 0.929 . S
C655 C653 1.433 . S
C655 N658 1.384 . S
C656 H647 0.929 . S
C656 C648 1.378 . S
C656 C651 1.350 . S
C657 H644 0.929 . S
C657 C649 1.433 . S
C657 N659 1.384 . S
N658 C654 1.427 . S
N658 C655 1.384 . S
N659 C651 1.427 . S
N659 C657 1.384 . S
H660 C666 0.930 . S
H661 C670 0.930 . S
H662 C675 0.929 . S
H663 C673 0.929 . S
H664 C668 0.929 . S
H665 C674 0.929 . S
C666 H660 0.930 . S
C666 C667 1.367 . S
C666 C674 1.378 . S
C667 C666 1.367 . S
C667 C675 1.433 . S
C668 H664 0.929 . S
C668 C670 1.378 . S
C668 C672 1.350 . S
C669 C672 1.463 . S
C669 C674 1.350 . S
C669 N677 1.427 . S
C670 H661 0.930 . S
C670 C668 1.378 . S
C670 C671 1.367 . S
C671 C670 1.367 . S
C671 C673 1.433 . S
C672 C668 1.350 . S
C672 C669 1.463 . S
C672 N676 1.427 . S
C673 H663 0.929 . S
C673 C671 1.433 . S
C673 N676 1.384 . S
C674 H665 0.929 . S
C674 C666 1.378 . S
C674 C669 1.350 . S
C675 H662 0.929 . S
C675 C667 1.433 . S
C675 N677 1.384 . S
N676 C672 1.427 . S
N676 C673 1.384 . S
N677 C669 1.427 . S
N677 C675 1.384 . S
H678 C684 0.930 1_565 S
H679 C688 0.930 . S
H680 C693 0.929 . S
H681 C691 0.929 1_565 S
H682 C686 0.929 . S
H683 C692 0.929 1_565 S
C684 H678 0.930 1_545 S
C684 C685 1.367 . S
C684 C692 1.378 . S
C685 C684 1.367 . S
C685 C693 1.433 . S
C686 H682 0.929 . S
C686 C688 1.378 . S
C686 C690 1.350 . S
C687 C690 1.463 . S
C687 C692 1.350 . S
C687 N695 1.427 . S
C688 H679 0.930 . S
C688 C686 1.378 . S
C688 C689 1.367 . S
C689 C688 1.367 . S
C689 C691 1.433 . S
C690 C686 1.350 . S
C690 C687 1.463 . S
C690 N694 1.427 . S
C691 H681 0.929 1_545 S
C691 C689 1.433 . S
C691 N694 1.384 . S
C692 H683 0.929 1_545 S
C692 C684 1.378 . S
C692 C687 1.350 . S
C693 H680 0.929 . S
C693 C685 1.433 . S
C693 N695 1.384 . S
N694 C690 1.427 . S
N694 C691 1.384 . S
N695 C687 1.427 . S
N695 C693 1.384 . S
H696 C702 0.930 . S
H697 C706 0.930 . S
H698 C711 0.929 . S
H699 C709 0.929 . S
H700 C704 0.929 . S
H701 C710 0.929 . S
C702 H696 0.930 . S
C702 C703 1.367 . S
C702 C710 1.378 . S
C703 C702 1.367 . S
C703 C711 1.433 . S
C704 H700 0.929 . S
C704 C706 1.378 . S
C704 C708 1.350 . S
C705 C708 1.463 . S
C705 C710 1.350 . S
C705 N713 1.427 . S
C706 H697 0.930 . S
C706 C704 1.378 . S
C706 C707 1.367 . S
C707 C706 1.367 . S
C707 C709 1.433 . S
C708 C704 1.350 . S
C708 C705 1.463 . S
C708 N712 1.427 . S
C709 H699 0.929 . S
C709 C707 1.433 . S
C709 N712 1.384 . S
C710 H701 0.929 . S
C710 C702 1.378 . S
C710 C705 1.350 . S
C711 H698 0.929 . S
C711 C703 1.433 . S
C711 N713 1.384 . S
N712 C708 1.427 . S
N712 C709 1.384 . S
N713 C705 1.427 . S
N713 C711 1.384 . S
H714 C720 0.930 . S
H715 C724 0.930 . S
H716 C729 0.929 . S
H717 C727 0.929 . S
H718 C722 0.929 . S
H719 C728 0.929 . S
C720 H714 0.930 . S
C720 C721 1.367 . S
C720 C728 1.378 . S
C721 C720 1.367 . S
C721 C729 1.433 . S
C722 H718 0.929 . S
C722 C724 1.378 . S
C722 C726 1.350 . S
C723 C726 1.463 . S
C723 C728 1.350 . S
C723 N731 1.427 . S
C724 H715 0.930 . S
C724 C722 1.378 . S
C724 C725 1.367 . S
C725 C724 1.367 . S
C725 C727 1.433 . S
C726 C722 1.350 . S
C726 C723 1.463 . S
C726 N730 1.427 . S
C727 H717 0.929 . S
C727 C725 1.433 . S
C727 N730 1.384 . S
C728 H719 0.929 . S
C728 C720 1.378 . S
C728 C723 1.350 . S
C729 H716 0.929 . S
C729 C721 1.433 . S
C729 N731 1.384 . S
N730 C726 1.427 . S
N730 C727 1.384 . S
N731 C723 1.427 . S
N731 C729 1.384 . S
H732 C738 0.930 . S
H733 C742 0.930 . S
H734 C747 0.929 . S
H735 C745 0.929 . S
H736 C740 0.929 . S
H737 C746 0.929 . S
C738 H732 0.930 . S
C738 C739 1.367 . S
C738 C746 1.378 . S
C739 C738 1.367 . S
C739 C747 1.433 . S
C740 H736 0.929 . S
C740 C742 1.378 . S
C740 C744 1.350 . S
C741 C744 1.463 . S
C741 C746 1.350 . S
C741 N749 1.427 . S
C742 H733 0.930 . S
C742 C740 1.378 . S
C742 C743 1.367 . S
C743 C742 1.367 . S
C743 C745 1.433 . S
C744 C740 1.350 . S
C744 C741 1.463 . S
C744 N748 1.427 . S
C745 H735 0.929 . S
C745 C743 1.433 . S
C745 N748 1.384 . S
C746 H737 0.929 . S
C746 C738 1.378 . S
C746 C741 1.350 . S
C747 H734 0.929 . S
C747 C739 1.433 . S
C747 N749 1.384 . S
N748 C744 1.427 . S
N748 C745 1.384 . S
N749 C741 1.427 . S
N749 C747 1.384 . S
H750 C756 0.930 . S
H751 C760 0.930 . S
H752 C765 0.929 . S
H753 C763 0.929 . S
H754 C758 0.929 . S
H755 C764 0.929 . S
C756 H750 0.930 . S
C756 C757 1.367 . S
C756 C764 1.378 . S
C757 C756 1.367 . S
C757 C765 1.433 . S
C758 H754 0.929 . S
C758 C760 1.378 . S
C758 C762 1.350 . S
C759 C762 1.463 . S
C759 C764 1.350 . S
C759 N767 1.427 . S
C760 H751 0.930 . S
C760 C758 1.378 . S
C760 C761 1.367 . S
C761 C760 1.367 . S
C761 C763 1.433 . S
C762 C758 1.350 . S
C762 C759 1.463 . S
C762 N766 1.427 . S
C763 H753 0.929 . S
C763 C761 1.433 . S
C763 N766 1.384 . S
C764 H755 0.929 . S
C764 C756 1.378 . S
C764 C759 1.350 . S
C765 H752 0.929 . S
C765 C757 1.433 . S
C765 N767 1.384 . S
N766 C762 1.427 . S
N766 C763 1.384 . S
N767 C759 1.427 . S
N767 C765 1.384 . S
H768 C774 0.930 . S
H769 C778 0.930 . S
H770 C783 0.929 . S
H771 C781 0.929 . S
H772 C776 0.929 . S
H773 C782 0.929 . S
C774 H768 0.930 . S
C774 C775 1.367 . S
C774 C782 1.378 . S
C775 C774 1.367 . S
C775 C783 1.433 . S
C776 H772 0.929 . S
C776 C778 1.378 . S
C776 C780 1.350 . S
C777 C780 1.463 . S
C777 C782 1.350 . S
C777 N785 1.427 . S
C778 H769 0.930 . S
C778 C776 1.378 . S
C778 C779 1.367 . S
C779 C778 1.367 . S
C779 C781 1.433 . S
C780 C776 1.350 . S
C780 C777 1.463 . S
C780 N784 1.427 . S
C781 H771 0.929 . S
C781 C779 1.433 . S
C781 N784 1.384 . S
C782 H773 0.929 . S
C782 C774 1.378 . S
C782 C777 1.350 . S
C783 H770 0.929 . S
C783 C775 1.433 . S
C783 N785 1.384 . S
N784 C780 1.427 . S
N784 C781 1.384 . S
N785 C777 1.427 . S
N785 C783 1.384 . S
H786 C792 0.930 . S
H787 C796 0.930 . S
H788 C801 0.929 . S
H789 C799 0.929 . S
H790 C794 0.929 . S
H791 C800 0.929 . S
C792 H786 0.930 . S
C792 C793 1.367 . S
C792 C800 1.378 . S
C793 C792 1.367 . S
C793 C801 1.433 . S
C794 H790 0.929 . S
C794 C796 1.378 . S
C794 C798 1.350 . S
C795 C798 1.463 . S
C795 C800 1.350 . S
C795 N803 1.427 . S
C796 H787 0.930 . S
C796 C794 1.378 . S
C796 C797 1.367 . S
C797 C796 1.367 . S
C797 C799 1.433 . S
C798 C794 1.350 . S
C798 C795 1.463 . S
C798 N802 1.427 . S
C799 H789 0.929 . S
C799 C797 1.433 . S
C799 N802 1.384 . S
C800 H791 0.929 . S
C800 C792 1.378 . S
C800 C795 1.350 . S
C801 H788 0.929 . S
C801 C793 1.433 . S
C801 N803 1.384 . S
N802 C798 1.427 . S
N802 C799 1.384 . S
N803 C795 1.427 . S
N803 C801 1.384 . S
H804 C810 0.930 . S
H805 C814 0.930 . S
H806 C819 0.929 . S
H807 C817 0.929 . S
H808 C812 0.929 . S
H809 C818 0.929 . S
C810 H804 0.930 . S
C810 C811 1.367 . S
C810 C818 1.378 . S
C811 C810 1.367 . S
C811 C819 1.433 . S
C812 H808 0.929 . S
C812 C814 1.378 . S
C812 C816 1.350 . S
C813 C816 1.463 . S
C813 C818 1.350 . S
C813 N821 1.427 . S
C814 H805 0.930 . S
C814 C812 1.378 . S
C814 C815 1.367 . S
C815 C814 1.367 . S
C815 C817 1.433 . S
C816 C812 1.350 . S
C816 C813 1.463 . S
C816 N820 1.427 . S
C817 H807 0.929 . S
C817 C815 1.433 . S
C817 N820 1.384 . S
C818 H809 0.929 . S
C818 C810 1.378 . S
C818 C813 1.350 . S
C819 H806 0.929 . S
C819 C811 1.433 . S
C819 N821 1.384 . S
N820 C816 1.427 . S
N820 C817 1.384 . S
N821 C813 1.427 . S
N821 C819 1.384 . S
H822 C828 0.930 . S
H823 C832 0.930 . S
H824 C837 0.929 . S
H825 C835 0.929 . S
H826 C830 0.929 . S
H827 C836 0.929 . S
C828 H822 0.930 . S
C828 C829 1.367 . S
C828 C836 1.378 . S
C829 C828 1.367 . S
C829 C837 1.433 . S
C830 H826 0.929 . S
C830 C832 1.378 . S
C830 C834 1.350 . S
C831 C834 1.463 . S
C831 C836 1.350 . S
C831 N839 1.427 . S
C832 H823 0.930 . S
C832 C830 1.378 . S
C832 C833 1.367 . S
C833 C832 1.367 . S
C833 C835 1.433 . S
C834 C830 1.350 . S
C834 C831 1.463 . S
C834 N838 1.427 . S
C835 H825 0.929 . S
C835 C833 1.433 . S
C835 N838 1.384 . S
C836 H827 0.929 . S
C836 C828 1.378 . S
C836 C831 1.350 . S
C837 H824 0.929 . S
C837 C829 1.433 . S
C837 N839 1.384 . S
N838 C834 1.427 . S
N838 C835 1.384 . S
N839 C831 1.427 . S
N839 C837 1.384 . S
H840 C846 0.930 . S
H841 C850 0.930 . S
H842 C855 0.929 . S
H843 C853 0.929 . S
H844 C848 0.929 . S
H845 C854 0.929 . S
C846 H840 0.930 . S
C846 C847 1.367 . S
C846 C854 1.378 . S
C847 C846 1.367 . S
C847 C855 1.433 . S
C848 H844 0.929 . S
C848 C850 1.378 . S
C848 C852 1.350 . S
C849 C852 1.463 . S
C849 C854 1.350 . S
C849 N857 1.427 . S
C850 H841 0.930 . S
C850 C848 1.378 . S
C850 C851 1.367 . S
C851 C850 1.367 . S
C851 C853 1.433 . S
C852 C848 1.350 . S
C852 C849 1.463 . S
C852 N856 1.427 . S
C853 H843 0.929 . S
C853 C851 1.433 . S
C853 N856 1.384 . S
C854 H845 0.929 . S
C854 C846 1.378 . S
C854 C849 1.350 . S
C855 H842 0.929 . S
C855 C847 1.433 . S
C855 N857 1.384 . S
N856 C852 1.427 . S
N856 C853 1.384 . S
N857 C849 1.427 . S
N857 C855 1.384 . S
H858 C864 0.930 . S
H859 C868 0.930 . S
H860 C873 0.929 . S
H861 C871 0.929 . S
H862 C866 0.929 . S
H863 C872 0.929 . S
C864 H858 0.930 . S
C864 C865 1.367 . S
C864 C872 1.378 . S
C865 C864 1.367 . S
C865 C873 1.433 . S
C866 H862 0.929 . S
C866 C868 1.378 . S
C866 C870 1.350 . S
C867 C870 1.463 . S
C867 C872 1.350 . S
C867 N875 1.427 . S
C868 H859 0.930 . S
C868 C866 1.378 . S
C868 C869 1.367 . S
C869 C868 1.367 . S
C869 C871 1.433 . S
C870 C866 1.350 . S
C870 C867 1.463 . S
C870 N874 1.427 . S
C871 H861 0.929 . S
C871 C869 1.433 . S
C871 N874 1.384 . S
C872 H863 0.929 . S
C872 C864 1.378 . S
C872 C867 1.350 . S
C873 H860 0.929 . S
C873 C865 1.433 . S
C873 N875 1.384 . S
N874 C870 1.427 . S
N874 C871 1.384 . S
N875 C867 1.427 . S
N875 C873 1.384 . S
H876 C882 0.930 . S
H877 C886 0.930 . S
H878 C891 0.929 . S
H879 C889 0.929 . S
H880 C884 0.929 . S
H881 C890 0.929 . S
C882 H876 0.930 . S
C882 C883 1.367 . S
C882 C890 1.378 . S
C883 C882 1.367 . S
C883 C891 1.433 . S
C884 H880 0.929 . S
C884 C886 1.378 . S
C884 C888 1.350 . S
C885 C888 1.463 . S
C885 C890 1.350 . S
C885 N893 1.427 . S
C886 H877 0.930 . S
C886 C884 1.378 . S
C886 C887 1.367 . S
C887 C886 1.367 . S
C887 C889 1.433 . S
C888 C884 1.350 . S
C888 C885 1.463 . S
C888 N892 1.427 . S
C889 H879 0.929 . S
C889 C887 1.433 . S
C889 N892 1.384 . S
C890 H881 0.929 . S
C890 C882 1.378 . S
C890 C885 1.350 . S
C891 H878 0.929 . S
C891 C883 1.433 . S
C891 N893 1.384 . S
N892 C888 1.427 . S
N892 C889 1.384 . S
N893 C885 1.427 . S
N893 C891 1.384 . S
H894 C900 0.930 . S
H895 C904 0.930 . S
H896 C909 0.929 . S
H897 C907 0.929 . S
H898 C902 0.929 . S
H899 C908 0.929 . S
C900 H894 0.930 . S
C900 C901 1.367 . S
C900 C908 1.378 . S
C901 C900 1.367 . S
C901 C909 1.433 . S
C902 H898 0.929 . S
C902 C904 1.378 . S
C902 C906 1.350 . S
C903 C906 1.463 . S
C903 C908 1.350 . S
C903 N911 1.427 . S
C904 H895 0.930 . S
C904 C902 1.378 . S
C904 C905 1.367 . S
C905 C904 1.367 . S
C905 C907 1.433 . S
C906 C902 1.350 . S
C906 C903 1.463 . S
C906 N910 1.427 . S
C907 H897 0.929 . S
C907 C905 1.433 . S
C907 N910 1.384 . S
C908 H899 0.929 . S
C908 C900 1.378 . S
C908 C903 1.350 . S
C909 H896 0.929 . S
C909 C901 1.433 . S
C909 N911 1.384 . S
N910 C906 1.427 . S
N910 C907 1.384 . S
N911 C903 1.427 . S
N911 C909 1.384 . S
C271 C38 1.292 . S
C275 C7 1.616 . S
C289 C18 1.435 . S
C293 C5 1.299 . S
C307 C16 1.399 . S
C311 C27 1.400 . S
C325 C29 1.612 . S
C329 C40 1.571 . S
C343 C106 1.467 . S
C347 C49 1.325 . S
C361 C60 1.375 . S
C365 C117 1.433 . S
C379 C51 1.462 . S
C383 C126 1.302 . S
C397 C62 1.601 . S
C401 C93 1.455 . S
C415 C71 1.301 . S
C419 C128 1.463 . S
C433 C84 1.609 . S
C437 C95 1.607 . S
C451 C104 1.344 . S
C455 C73 1.465 . S
C469 C82 1.303 . S
C473 C115 1.203 . S
C487 C139 1.619 . S
C491 C170 1.299 . S
C505 C150 1.431 . S
C509 C137 1.301 . S
C523 C159 1.402 . S
C527 C148 1.389 . S
C541 C172 1.571 . S
C545 C161 1.615 . S
C559 C238 1.470 . S
C563 C181 1.315 . S
C577 C192 1.392 . S
C581 C249 1.428 . S
C595 C258 1.302 . S
C599 C183 1.462 . S
C613 C225 1.452 . S
C617 C194 1.606 . S
C631 C260 1.456 . S
C635 C203 1.303 . S
C649 C216 1.614 . S
C653 C227 1.604 . S
C667 C205 1.465 . S
C671 C236 1.337 . S
C685 C247 1.205 . S
C689 C214 1.301 . S
C703 C8 1.493 . S
C707 C261 1.494 . S
C721 C228 1.554 . S
C725 C19 1.552 . S
C739 C30 1.543 . S
C743 C239 1.539 . S
C757 C250 1.527 . S
C761 C41 1.530 . S
C775 C52 1.496 . S
C779 C217 1.499 . S
C793 C63 1.527 . S
C797 C206 1.527 . S
C811 C74 1.525 . S
C815 C195 1.530 . S
C829 C184 1.500 . S
C833 C85 1.498 . S
C847 C96 1.555 . S
C851 C151 1.552 . S
C865 C162 1.543 . S
C869 C107 1.543 . S
C883 C118 1.517 . S
C887 C173 1.523 . S
C901 C140 1.495 . S
C905 C129 1.491 . S
