# Generated by pormake.
# Topology uni, (4)-cn, num edge types: 1
# Building blocks:
#     Node 0, Type 0, BuildingBlock: UXUYUI_clean_sbu_0, # of connection points: 4
#     Node 1, Type 0, BuildingBlock: UXUYUI_clean_sbu_0, # of connection points: 4
#     Node 2, Type 0, BuildingBlock: UXUYUI_clean_sbu_0, # of connection points: 4
#     Node 3, Type 0, BuildingBlock: UXUYUI_clean_sbu_0, # of connection points: 4
#     Node 4, Type 0, BuildingBlock: UXUYUI_clean_sbu_0, # of connection points: 4
#     Node 5, Type 0, BuildingBlock: UXUYUI_clean_sbu_0, # of connection points: 4
#     Edge 6, Type (0, 0), BuildingBlock: KIFKEQ_clean_linker_1, # of connection points: 2
#     Edge 7, Type (0, 0), BuildingBlock: KIFKEQ_clean_linker_1, # of connection points: 2
#     Edge 8, Type (0, 0), BuildingBlock: KIFKEQ_clean_linker_1, # of connection points: 2
#     Edge 9, Type (0, 0), BuildingBlock: KIFKEQ_clean_linker_1, # of connection points: 2
#     Edge 10, Type (0, 0), BuildingBlock: KIFKEQ_clean_linker_1, # of connection points: 2
#     Edge 11, Type (0, 0), BuildingBlock: KIFKEQ_clean_linker_1, # of connection points: 2
#     Edge 12, Type (0, 0), BuildingBlock: KIFKEQ_clean_linker_1, # of connection points: 2
#     Edge 13, Type (0, 0), BuildingBlock: KIFKEQ_clean_linker_1, # of connection points: 2
#     Edge 14, Type (0, 0), BuildingBlock: KIFKEQ_clean_linker_1, # of connection points: 2
#     Edge 15, Type (0, 0), BuildingBlock: KIFKEQ_clean_linker_1, # of connection points: 2
#     Edge 16, Type (0, 0), BuildingBlock: KIFKEQ_clean_linker_1, # of connection points: 2
#     Edge 17, Type (0, 0), BuildingBlock: KIFKEQ_clean_linker_1, # of connection points: 2
# Relax obj value: 0.104
# Max RMSD: 0.125
# Mean RMSD: 0.125
data_MOF--net-uni--node1-UXUYUI_clean_sbu_0--edge1-KIFKEQ_clean_linker_1
_symmetry_space_group_name_H-M    P1
_symmetry_Int_Tables_number       1
_symmetry_cell_setting            triclinic
loop_
_symmetry_equiv_pos_as_xyz
'x, y, z'
_cell_length_a     57.697262
_cell_length_b     57.688627
_cell_length_c     34.504946
_cell_angle_alpha  90.009462
_cell_angle_beta   90.011681
_cell_angle_gamma 120.00558
loop_
_atom_site_label
_atom_site_type_symbol
_atom_site_fract_x
_atom_site_fract_y
_atom_site_fract_z
_atom_type_partial_charge
Li0 Li 0.66579 0.03563 0.04325 0.0
Li1 Li 0.6259 0.01847 0.0856 0.0
Li2 Li 0.64164 0.98982 0.05974 0.0
Li3 Li 0.62151 0.00862 0.01564 0.0
C4 C 0.67092 0.0096 0.12143 0.0
N5 N 0.69017 0.98553 0.17113 0.0
C6 C 0.65908 1.00038 0.15769 0.0
C7 C 0.69285 0.00695 0.11073 0.0
C8 C 0.66902 0.98818 0.18234 0.0
C9 C 0.70221 0.99463 0.13617 0.0
C10 C 0.64404 0.06937 0.05273 0.0
C11 C 0.64145 0.10977 0.04861 0.0
N12 N 0.66061 0.12112 0.07646 0.0
C13 C 0.66366 0.08144 0.08144 0.0
C14 C 0.63283 0.08364 0.0362 0.0
C15 C 0.67179 0.10762 0.09296 0.0
C16 C 0.69959 0.0816 1.00068 0.0
N17 N 0.69963 0.06642 0.03078 0.0
C18 C 0.74647 0.09599 0.04074 0.0
C19 C 0.72239 0.07318 0.05096 0.0
C20 C 0.74696 0.11211 0.00984 0.0
C21 C 0.72309 0.10462 0.9897 0.0
H22 H 0.68117 0.0758 0.98522 0.0
H23 H 0.72185 0.06106 0.07517 0.0
C24 C 0.59425 1.00096 0.15242 0.0
N25 N 0.60715 0.02268 0.12888 0.0
C26 C 0.57876 1.0011 0.18342 0.0
C27 C 0.58967 0.04585 0.16532 0.0
C28 C 0.60491 0.04482 0.13464 0.0
C29 C 0.57628 0.02378 0.1902 0.0
H30 H 0.59576 0.98331 0.14677 0.0
H31 H 0.61431 0.06157 0.11516 0.0
C32 C 0.673 0.0155 0.97953 0.0
N33 N 0.71331 0.0393 0.92501 0.0
C34 C 0.66826 0.02438 0.94432 0.0
C35 C 0.69818 0.01844 0.98679 0.0
C36 C 0.6889 0.03641 0.91718 0.0
C37 C 0.71833 0.03063 0.95894 0.0
C38 C 0.57779 0.9756 0.06111 0.0
C39 C 0.55881 0.94892 0.06874 0.0
C40 C 0.56943 0.99426 0.05494 0.0
C41 C 0.53172 0.94131 0.07005 0.0
C42 C 0.54216 0.98586 0.05649 0.0
N43 N 0.52403 0.95979 0.06395 0.0
C44 C 0.6248 0.94137 0.09885 0.0
C45 C 0.66128 0.9529 0.0564 0.0
C46 C 0.62496 0.91827 0.11053 0.0
N47 N 0.64281 0.95813 0.07233 0.0
C48 C 0.66241 0.93021 0.06768 0.0
C49 C 0.64405 0.91254 0.09506 0.0
H50 H 0.61047 0.94615 0.11126 0.0
H51 H 0.67533 0.96651 0.03533 0.0
C52 C 0.60203 0.02591 0.95475 0.0
N53 N 0.59922 0.00352 0.97213 0.0
C54 C 0.5852 0.02388 0.92433 0.0
C55 C 0.56329 0.97567 0.92942 0.0
C56 C 0.5805 0.97866 0.96 0.0
C57 C 0.56535 0.99852 0.91151 0.0
H58 H 0.61736 0.04538 0.96465 0.0
H59 H 0.57866 0.96119 0.9745 0.0
O60 O 0.66102 0.021 0.09648 0.0
O61 O 0.63607 0.04392 0.04036 0.0
O62 O 0.65319 0.00422 0.00684 0.0
O63 O 0.60438 0.98328 0.05992 0.0
H64 H 0.64242 0.00265 0.1668 0.0
H65 H 0.70222 0.01384 0.08277 0.0
H66 H 0.65992 0.98083 0.2104 0.0
H67 H 0.71897 0.99218 0.12803 0.0
H68 H 0.63291 0.12101 0.0361 0.0
H69 H 0.67249 0.07074 0.09482 0.0
H70 H 0.61749 0.0746 0.01418 0.0
H71 H 0.68697 0.1172 0.11508 0.0
H72 H 0.76438 0.10125 0.05731 0.0
H73 H 0.72263 0.11631 0.96548 0.0
H74 H 0.5689 0.98365 0.20193 0.0
H75 H 0.58785 0.06352 0.16886 0.0
H76 H 0.64891 0.02219 0.93807 0.0
H77 H 0.7023 0.01182 0.01386 0.0
H78 H 0.68553 0.04351 0.88991 0.0
H79 H 0.73797 0.03327 0.96437 0.0
H80 H 0.56497 0.93424 0.0736 0.0
H81 H 0.58379 0.01501 0.04907 0.0
H82 H 0.51681 0.92072 0.07592 0.0
H83 H 0.53542 1.00008 0.05178 0.0
H84 H 0.61063 0.90529 0.13197 0.0
H85 H 0.6773 0.92636 0.05487 0.0
H86 H 0.58778 0.04198 0.91087 0.0
H87 H 0.54813 0.95577 0.92053 0.0
Li88 Li 0.6417 0.66436 0.21465 0.0
Li89 Li 0.61943 0.62427 0.25666 0.0
Li90 Li 0.66551 0.64089 0.22931 0.0
Li91 Li 0.62596 0.6183 0.1869 0.0
C92 C 0.65952 0.68144 0.28662 0.0
N93 N 0.67215 0.72794 0.3261 0.0
C94 C 0.64253 0.68122 0.31567 0.0
C95 C 0.68304 0.70522 0.27787 0.0
C96 C 0.64926 0.70497 0.33526 0.0
C97 C 0.68903 0.72855 0.29808 0.0
C98 C 0.57801 0.62402 0.20891 0.0
C99 C 0.5328 0.58801 0.19882 0.0
N100 N 0.52362 0.60529 0.20518 0.0
C101 C 0.56814 0.64146 0.21502 0.0
C102 C 0.56021 0.5971 0.20048 0.0
C103 C 0.54058 0.63159 0.21315 0.0
C104 C 0.65635 0.7102 0.16902 0.0
N105 N 0.64449 0.69812 0.20294 0.0
C106 C 0.6348 0.73299 0.21716 0.0
C107 C 0.63371 0.70895 0.22687 0.0
C108 C 0.64662 0.74584 0.182 0.0
C109 C 0.65758 0.73409 0.15789 0.0
H110 H 0.66438 0.70097 0.15015 0.0
H111 H 0.62389 0.69875 0.25331 0.0
C112 C 0.60597 0.59524 0.32563 0.0
N113 N 0.59711 0.60727 0.30053 0.0
C114 C 0.59027 0.58075 0.35722 0.0
C115 C 0.55676 0.59166 0.33698 0.0
C116 C 0.57323 0.60615 0.30598 0.0
C117 C 0.56514 0.57853 0.36289 0.0
H118 H 0.62506 0.59647 0.32061 0.0
H119 H 0.56676 0.61626 0.28623 0.0
C120 C 0.68338 0.65929 0.15887 0.0
N121 N 0.73122 0.67265 0.12293 0.0
C122 C 0.68455 0.64197 0.13165 0.0
C123 C 0.70643 0.68352 0.16755 0.0
C124 C 0.70895 0.64907 0.11384 0.0
C125 C 0.73046 0.68987 0.14916 0.0
C126 C 0.62398 0.57651 0.23428 0.0
C127 C 0.64013 0.56496 0.23014 0.0
C128 C 0.5965 0.56011 0.2404 0.0
C129 C 0.62843 0.53713 0.23159 0.0
C130 C 0.58556 0.53237 0.24172 0.0
N131 N 0.60161 0.52155 0.23727 0.0
C132 C 0.71322 0.6591 0.2723 0.0
C133 C 0.70892 0.63107 0.21934 0.0
C134 C 0.73739 0.66088 0.28315 0.0
N135 N 0.69951 0.64432 0.24094 0.0
C136 C 0.7331 0.63245 0.22898 0.0
C137 C 0.74757 0.64732 0.26152 0.0
H138 H 0.70518 0.66918 0.2893 0.0
H139 H 0.69741 0.61903 0.19498 0.0
C140 C 0.59596 0.60416 0.11896 0.0
N141 N 0.60932 0.59613 0.14284 0.0
C142 C 0.58125 0.58824 0.0877 0.0
C143 C 0.59515 0.55647 0.10518 0.0
C144 C 0.60965 0.57307 0.13612 0.0
C145 C 0.58033 0.56378 0.0808 0.0
H146 H 0.59628 0.62276 0.12475 0.0
H147 H 0.6208 0.56729 0.15501 0.0
O148 O 0.65321 0.65843 0.26704 0.0
O149 O 0.60496 0.63341 0.21063 0.0
O150 O 0.65976 0.65255 0.17692 0.0
O151 O 0.63516 0.60374 0.23284 0.0
H152 H 0.62429 0.66295 0.32284 0.0
H153 H 0.69642 0.70567 0.25554 0.0
H154 H 0.63626 0.70514 0.3577 0.0
H155 H 0.70709 0.74714 0.29148 0.0
H156 H 0.51882 0.56723 0.19236 0.0
H157 H 0.58159 0.66236 0.22135 0.0
H158 H 0.56744 0.5834 0.1949 0.0
H159 H 0.53267 0.64485 0.21801 0.0
H160 H 0.62639 0.74133 0.23704 0.0
H161 H 0.66642 0.74281 0.13018 0.0
H162 H 0.59739 0.57077 0.37636 0.0
H163 H 0.53768 0.59077 0.34069 0.0
H164 H 0.66684 0.62316 0.1246 0.0
H165 H 0.70577 0.69717 0.18844 0.0
H166 H 0.71021 0.63581 0.09286 0.0
H167 H 0.7485 0.70847 0.15576 0.0
H168 H 0.66146 0.57733 0.22569 0.0
H169 H 0.58377 0.56867 0.24444 0.0
H170 H 0.64068 0.52792 0.22823 0.0
H171 H 0.56432 0.51946 0.24639 0.0
H172 H 0.74798 0.67274 0.30826 0.0
H173 H 0.74001 0.62137 0.21181 0.0
H174 H 0.57063 0.595 0.06923 0.0
H175 H 0.59497 0.53777 0.10111 0.0
Li176 Li 0.99048 0.63788 0.37653 0.0
Li177 Li 0.00752 0.61703 0.41865 0.0
Li178 Li 0.03702 0.66388 0.39111 0.0
Li179 Li 0.01734 0.62243 0.34825 0.0
C180 C 0.98913 0.65454 0.44873 0.0
N181 N 0.95221 0.66243 0.48876 0.0
C182 C 0.96426 0.6327 0.45849 0.0
C183 C 0.99537 0.68036 0.45959 0.0
C184 C 0.94582 0.63712 0.47864 0.0
C185 C 0.97639 0.68394 0.47977 0.0
C186 C 0.97556 0.57378 0.37378 0.0
C187 C 0.98823 0.53977 0.37617 0.0
N188 N 0.96212 0.52058 0.37194 0.0
C189 C 0.94884 0.55369 0.36953 0.0
C190 C 0.99542 0.56675 0.37722 0.0
C191 C 0.94245 0.52692 0.36864 0.0
C192 C 0.93833 0.61925 0.3488 0.0
N193 N 0.9593 0.64082 0.36571 0.0
C194 C 0.9361 0.66545 0.362 0.0
C195 C 0.95855 0.66367 0.37255 0.0
C196 C 0.91417 0.64352 0.34419 0.0
C197 C 0.91547 0.62011 0.33792 0.0
H198 H 0.93953 0.60147 0.34315 0.0
H199 H 0.97567 0.68079 0.38524 0.0
C200 C 0.02597 0.60223 0.48369 0.0
N201 N 1.00358 0.59559 0.46271 0.0
C202 C 0.02504 0.58617 0.51458 0.0
C203 C 0.9778 0.55715 0.50245 0.0
C204 C 0.97964 0.57382 0.47181 0.0
C205 C 1.00079 0.56305 0.52401 0.0
H206 H 0.04468 0.61983 0.47601 0.0
H207 H 0.96208 0.56907 0.45479 0.0
C208 C 0.00904 0.66781 0.31475 0.0
N209 N 0.98423 0.68729 0.26702 0.0
C210 C 0.99271 0.65213 0.28436 0.0
C211 C 0.01291 0.69348 0.32072 0.0
C212 C 0.98027 0.6623 0.26061 0.0
C213 C 1.00017 0.70296 0.29627 0.0
C214 C 0.06748 0.63514 0.38667 0.0
C215 C 0.08682 0.65701 0.36566 0.0
C216 C 0.07373 0.61651 0.40202 0.0
C217 C 0.1121 0.65983 0.36026 0.0
C218 C 0.09922 0.62001 0.39593 0.0
N219 N 0.11772 0.64142 0.37537 0.0
C220 C 0.07816 0.69873 0.43987 0.0
C221 C 0.0792 0.71804 0.37879 0.0
C222 C 0.10121 0.72199 0.45162 0.0
N223 N 0.06771 0.69718 0.40404 0.0
C224 C 0.10216 0.74183 0.3895 0.0
C225 C 0.11352 0.74396 0.42631 0.0
H226 H 0.06864 0.68172 0.4592 0.0
H227 H 0.07081 0.71607 0.35015 0.0
C228 C 0.99918 0.58735 0.28493 0.0
N229 N 0.022 0.60508 0.30366 0.0
C230 C 1.00005 0.57213 0.25414 0.0
C231 C 0.04811 0.59462 0.26082 0.0
C232 C 0.04625 0.6092 0.29185 0.0
C233 C 0.02475 0.57547 0.24179 0.0
H234 H 0.98011 0.58462 0.29439 0.0
H235 H 0.06422 0.62362 0.30644 0.0
O236 O 0.00731 0.65067 0.42867 0.0
O237 O 0.98195 0.60008 0.37495 0.0
O238 O 0.02094 0.65796 0.33875 0.0
O239 O 0.0428 0.63234 0.39307 0.0
H240 H 0.95915 0.61261 0.45016 0.0
H241 H 0.0146 0.69744 0.45224 0.0
H242 H 0.92641 0.62043 0.48618 0.0
H243 H 0.98087 0.70381 0.48822 0.0
H244 H 1.00342 0.5341 0.37873 0.0
H245 H 0.93316 0.55869 0.36711 0.0
H246 H 0.01616 0.58188 0.38053 0.0
H247 H 0.92185 0.51119 0.36537 0.0
H248 H 0.93625 0.68407 0.36685 0.0
H249 H 0.89898 0.60257 0.32477 0.0
H250 H 0.04316 0.5918 0.53084 0.0
H251 H 0.95873 0.53945 0.50847 0.0
H252 H 0.98945 0.6322 0.27941 0.0
H253 H 0.02515 0.70574 0.34446 0.0
H254 H 0.96743 0.65031 0.23715 0.0
H255 H 1.00281 0.7227 0.30074 0.0
H256 H 0.08222 0.67139 0.35302 0.0
H257 H 0.05905 0.59951 0.41848 0.0
H258 H 0.1272 0.67659 0.34391 0.0
H259 H 0.10432 0.60572 0.4076 0.0
H260 H 0.10918 0.72287 0.48035 0.0
H261 H 0.11125 0.75817 0.36894 0.0
H262 H 0.98143 0.55746 0.24083 0.0
H263 H 0.06768 0.5984 0.25187 0.0
Li264 Li 0.40283 0.00442 0.58528 0.0
Li265 Li 0.36355 0.98776 0.5447 0.0
Li266 Li 0.40755 0.01597 0.51749 0.0
Li267 Li 0.3885 0.03464 0.56098 0.0
C268 C 0.38429 0.95412 0.55191 0.0
N269 N 0.36612 0.90196 0.57503 0.0
C270 C 0.36964 0.94447 0.58621 0.0
C271 C 0.38971 0.93725 0.5294 0.0
C272 C 0.36062 0.91804 0.59738 0.0
C273 C 0.38036 0.91094 0.54159 0.0
C274 C 0.34646 0.00372 0.61032 0.0
C275 C 0.30593 0.00494 0.59805 0.0
N276 N 0.30109 0.00335 0.63681 0.0
C277 C 0.3411 1.00211 0.65001 0.0
C278 C 0.32875 0.00516 0.58408 0.0
C279 C 0.31805 1.00194 0.66284 0.0
C280 C 0.42168 0.01162 0.66159 0.0
N281 N 0.41978 0.99819 0.62832 0.0
C282 C 0.4451 0.97992 0.65627 0.0
C283 C 0.43112 0.98252 0.62512 0.0
C284 C 0.4478 0.99388 0.69094 0.0
C285 C 0.43567 0.00978 0.69338 0.0
H286 H 0.41283 0.02429 0.66306 0.0
H287 H 0.4298 0.97241 0.59815 0.0
C288 C 0.32494 0.95098 0.49436 0.0
N289 N 0.32959 0.95747 0.53251 0.0
C290 C 0.30124 0.92841 0.48255 0.0
C291 C 0.28739 0.91969 0.54957 0.0
C292 C 0.31147 0.94234 0.56011 0.0
C293 C 0.28202 0.91233 0.51029 0.0
H294 H 0.33991 0.96318 0.47312 0.0
H295 H 0.31579 0.94769 0.59035 0.0
C296 C 0.45174 0.0473 0.56421 0.0
N297 N 0.50499 0.06131 0.56916 0.0
C298 C 0.47088 0.07294 0.57644 0.0
C299 C 0.4597 0.02878 0.55442 0.0
C300 C 0.4977 0.07965 0.57877 0.0
C301 C 0.4867 0.03625 0.55714 0.0
C302 C 0.38014 0.03815 0.48233 0.0
C303 C 0.40353 0.06306 0.4851 0.0
C304 C 0.36212 0.03335 0.45216 0.0
C305 C 0.40851 0.08275 0.45755 0.0
C306 C 0.36782 0.05357 0.42518 0.0
N307 N 0.3907 0.07764 0.42841 0.0
C308 C 0.4207 0.99931 0.44935 0.0
C309 C 0.45108 0.04476 0.4644 0.0
C310 C 0.43596 1.00058 0.4172 0.0
N311 N 0.42862 0.0211 0.47239 0.0
C312 C 0.46703 0.0469 0.4326 0.0
C313 C 0.45967 0.02452 0.40872 0.0
H314 H 0.40273 0.98077 0.45644 0.0
H315 H 0.45689 0.06185 0.48308 0.0
C316 C 0.40493 0.08302 0.59983 0.0
N317 N 0.38641 0.06566 0.5744 0.0
C318 C 0.40444 0.10591 0.61168 0.0
C319 C 0.36559 0.09254 0.5712 0.0
C320 C 0.36702 0.07002 0.55981 0.0
C321 C 0.38446 0.1109 0.59759 0.0
H322 H 0.42009 0.07901 0.611 0.0
H323 H 0.35251 0.05592 0.53958 0.0
O324 O 0.3932 0.97985 0.54006 0.0
O325 O 0.36904 0.00402 0.59751 0.0
O326 O 0.4254 0.04053 0.56199 0.0
O327 O 0.37464 0.01847 0.50892 0.0
H328 H 0.36528 0.9572 0.60409 0.0
H329 H 0.40105 0.94442 0.50279 0.0
H330 H 0.34925 0.91031 0.62384 0.0
H331 H 0.38441 0.89767 0.52445 0.0
H332 H 0.29206 0.00604 0.57806 0.0
H333 H 0.35465 1.00102 0.67068 0.0
H334 H 0.33253 0.00638 0.55325 0.0
H335 H 0.31365 1.0007 0.69349 0.0
H336 H 0.45381 0.9672 0.65309 0.0
H337 H 0.43759 0.02131 0.71916 0.0
H338 H 0.29833 0.92333 0.45205 0.0
H339 H 0.27312 0.90816 0.572 0.0
H340 H 0.46507 0.08754 0.58403 0.0
H341 H 0.44525 0.00889 0.54471 0.0
H342 H 0.51273 0.09943 0.5882 0.0
H343 H 0.49312 0.02212 0.54967 0.0
H344 H 0.41768 0.06724 0.50828 0.0
H345 H 0.34391 0.01418 0.44966 0.0
H346 H 0.42652 0.10211 0.45936 0.0
H347 H 0.35405 0.05012 0.40168 0.0
H348 H 0.42967 0.98276 0.39986 0.0
H349 H 0.48496 0.06583 0.42683 0.0
H350 H 0.41973 0.11964 0.63145 0.0
H351 H 0.3496 0.09524 0.5599 0.0
Li352 Li 0.40983 0.39972 0.7564 0.0
Li353 Li 0.38787 0.35989 0.71418 0.0
Li354 Li 0.40375 0.40597 0.68661 0.0
Li355 Li 0.36378 0.38316 0.72855 0.0
C356 C 0.45177 0.40097 0.70994 0.0
N357 N 0.50647 0.4213 0.70844 0.0
C358 C 0.46229 0.3841 0.71623 0.0
C359 C 0.46907 0.42812 0.70239 0.0
C360 C 0.49 0.39477 0.71551 0.0
C361 C 0.49666 0.43803 0.70188 0.0
C362 C 0.36915 0.34231 0.78553 0.0
C363 C 0.33877 0.29529 0.79627 0.0
N364 N 0.35545 0.29523 0.82409 0.0
C365 C 0.38591 0.34186 0.81439 0.0
C366 C 0.3453 0.31893 0.77654 0.0
C367 C 0.37865 0.31782 0.83351 0.0
C368 C 0.42389 0.43019 0.82403 0.0
N369 N 0.43186 0.41656 0.80056 0.0
C370 C 0.47088 0.42992 0.83939 0.0
C371 C 0.45461 0.41578 0.80798 0.0
C372 C 0.46348 0.44474 0.86359 0.0
C373 C 0.43946 0.44451 0.85579 0.0
H374 H 0.40561 0.43034 0.81758 0.0
H375 H 0.46026 0.40433 0.78955 0.0
C376 C 0.37264 0.31365 0.66914 0.0
N377 N 0.38504 0.32614 0.70259 0.0
C378 C 0.37126 0.28965 0.6583 0.0
C379 C 0.39511 0.29154 0.71684 0.0
C380 C 0.3963 0.31566 0.72629 0.0
C381 C 0.38267 0.27825 0.6822 0.0
H382 H 0.36425 0.32261 0.65043 0.0
H383 H 0.40652 0.3262 0.75235 0.0
C384 C 0.4042 0.44728 0.73407 0.0
N385 N 0.42423 0.5019 0.7374 0.0
C386 C 0.38708 0.45769 0.72949 0.0
C387 C 0.43145 0.46464 0.74077 0.0
C388 C 0.39761 0.48537 0.73114 0.0
C389 C 0.4412 0.49219 0.74226 0.0
C390 C 0.34672 0.36483 0.65703 0.0
C391 C 0.3461 0.38181 0.62868 0.0
C392 C 0.3235 0.34068 0.66545 0.0
C393 C 0.32206 0.37447 0.60952 0.0
C394 C 0.29986 0.33409 0.64569 0.0
N395 N 0.29963 0.35099 0.61839 0.0
C396 C 0.43338 0.42016 0.61813 0.0
C397 C 0.42048 0.45164 0.63673 0.0
C398 C 0.44765 0.43602 0.58655 0.0
N399 N 0.42048 0.42834 0.64273 0.0
C400 C 0.43471 0.46826 0.60571 0.0
C401 C 0.44872 0.4606 0.58033 0.0
H402 H 0.43299 0.4015 0.62356 0.0
H403 H 0.40963 0.4575 0.65606 0.0
C404 C 0.31703 0.36668 0.77294 0.0
N405 N 0.32973 0.37968 0.73994 0.0
C406 C 0.29289 0.36499 0.78376 0.0
C407 C 0.29508 0.38973 0.72607 0.0
C408 C 0.31933 0.39119 0.71663 0.0
C409 C 0.28159 0.37674 0.76031 0.0
H410 H 0.32595 0.35812 0.79139 0.0
H411 H 0.33005 0.4019 0.69096 0.0
O412 O 0.42467 0.39079 0.71052 0.0
O413 O 0.37599 0.36559 0.76637 0.0
O414 O 0.39417 0.42022 0.73247 0.0
O415 O 0.36999 0.37175 0.67627 0.0
H416 H 0.4492 0.36301 0.72182 0.0
H417 H 0.46132 0.44138 0.69663 0.0
H418 H 0.49841 0.38197 0.72055 0.0
H419 H 0.51027 0.45901 0.69614 0.0
H420 H 0.32045 0.277 0.78947 0.0
H421 H 0.4044 0.35982 0.82175 0.0
H422 H 0.33206 0.31902 0.75441 0.0
H423 H 0.39149 0.31712 0.85578 0.0
H424 H 0.48899 0.42919 0.84475 0.0
H425 H 0.43309 0.45583 0.87345 0.0
H426 H 0.36192 0.28054 0.63098 0.0
H427 H 0.40391 0.28347 0.73651 0.0
H428 H 0.36592 0.44455 0.72453 0.0
H429 H 0.44491 0.45696 0.74514 0.0
H430 H 0.38461 0.4937 0.72745 0.0
H431 H 0.46225 0.50585 0.74738 0.0
H432 H 0.36394 0.40053 0.62177 0.0
H433 H 0.32373 0.32728 0.68717 0.0
H434 H 0.32123 0.38747 0.58765 0.0
H435 H 0.28169 0.31555 0.65206 0.0
H436 H 0.45832 0.42946 0.56782 0.0
H437 H 0.43471 0.48686 0.60156 0.0
H438 H 0.28363 0.35524 0.81079 0.0
H439 H 0.2871 0.3988 0.70675 0.0
Li440 Li 0.02181 0.40735 0.91655 0.0
Li441 Li 0.03888 0.38531 0.87734 0.0
Li442 Li 0.01092 0.40144 0.8474 0.0
Li443 Li 0.99154 0.36124 0.89487 0.0
C444 C 0.06537 0.44841 0.87191 0.0
N445 N 0.10466 0.50179 0.87202 0.0
C446 C 0.09052 0.45632 0.88789 0.0
C447 C 0.06032 0.46765 0.85561 0.0
C448 C 0.11008 0.4834 0.88778 0.0
C449 C 0.08042 0.49453 0.85606 0.0
C450 C 0.04058 0.37443 0.95523 0.0
C451 C 0.05506 0.3509 0.9976 0.0
N452 N 0.07734 0.3745 0.00656 0.0
C453 C 0.06351 0.39845 0.965 0.0
C454 C 0.03619 0.35046 0.97176 0.0
C455 C 0.0819 0.39807 0.99096 0.0
C456 C 0.01472 0.41726 0.99396 0.0
N457 N 0.02712 0.43 0.96061 0.0
C458 C 0.04211 0.47263 0.99037 0.0
C459 C 0.04074 0.45719 0.95839 0.0
C460 C 0.02894 0.45999 0.02479 0.0
C461 C 0.01519 0.43192 0.02649 0.0
H462 H 0.00381 0.39561 0.99489 0.0
H463 H 0.0499 0.46707 0.93167 0.0
C464 C 0.08782 0.40047 0.84156 0.0
N465 N 0.06942 0.38174 0.8658 0.0
C466 C 0.11069 0.39955 0.83112 0.0
C467 C 0.0949 0.35942 0.86955 0.0
C468 C 0.07241 0.36131 0.87968 0.0
C469 C 0.1145 0.37888 0.84521 0.0
H470 H 0.0846 0.41604 0.83002 0.0
H471 H 0.05722 0.34631 0.89822 0.0
C472 C 0.97563 0.40595 0.91216 0.0
N473 N 0.95713 0.43358 0.95562 0.0
C474 C 0.95788 0.39326 0.94278 0.0
C475 C 0.98378 0.43259 0.90337 0.0
C476 C 0.94879 0.40759 0.96447 0.0
C477 C 0.97426 0.44624 0.92576 0.0
C478 C 0.01606 0.35046 0.82193 0.0
C479 C 0.03037 0.36046 0.78747 0.0
C480 C 0.01173 0.32604 0.83664 0.0
C481 C 0.04032 0.3459 0.76838 0.0
C482 C 0.02197 0.31205 0.81664 0.0
N483 N 0.03596 0.32221 0.78324 0.0
C484 C 0.02497 0.4277 0.77578 0.0
C485 C 0.98242 0.41829 0.79883 0.0
C486 C 0.02277 0.44136 0.7439 0.0
N487 N 0.00508 0.41677 0.80255 0.0
C488 C 0.97941 0.43186 0.76743 0.0
C489 C 0.99988 0.44386 0.73964 0.0
H490 H 0.04294 0.42653 0.7799 0.0
H491 H 0.96695 0.40943 0.82067 0.0
C492 C 0.95496 0.32341 0.94685 0.0
N493 N 0.96113 0.32812 0.9086 0.0
C494 C 0.93232 0.2998 0.95873 0.0
C495 C 0.92317 0.28603 0.89164 0.0
C496 C 0.94588 0.31006 0.88102 0.0
C497 C 0.91602 0.28077 0.93095 0.0
H498 H 0.96755 0.33815 0.9681 0.0
H499 H 0.95126 0.31441 0.85078 0.0
O500 O 0.04606 0.42193 0.87125 0.0
O501 O 0.02242 0.37425 0.92962 0.0
O502 O 0.98548 0.39256 0.89144 0.0
O503 O 0.00693 0.36482 0.84175 0.0
H504 H 0.09498 0.4417 0.90003 0.0
H505 H 0.041 0.46198 0.84321 0.0
H506 H 0.1296 0.48979 0.90011 0.0
H507 H 0.07672 0.50963 0.84377 0.0
H508 H 0.05199 0.33249 0.0105 0.0
H509 H 0.06704 0.41717 0.95276 0.0
H510 H 0.01847 0.3317 0.96449 0.0
H511 H 0.09978 0.41651 0.99873 0.0
H512 H 0.05259 0.49424 0.98776 0.0
H513 H 0.00483 0.42146 0.0526 0.0
H514 H 0.12506 0.41464 0.81168 0.0
H515 H 0.09709 0.34314 0.88097 0.0
H516 H 0.95141 0.37266 0.94998 0.0
H517 H 0.99764 0.44274 0.8799 0.0
H518 H 0.93519 0.39809 0.98844 0.0
H519 H 0.98058 0.46694 0.91951 0.0
H520 H 0.03398 0.37939 0.77583 0.0
H521 H 1.00094 0.31818 0.86352 0.0
H522 H 0.05157 0.35347 0.7418 0.0
H523 H 0.01892 0.29321 0.8278 0.0
H524 H 0.03921 0.45064 0.72354 0.0
H525 H 0.96133 0.43308 0.76505 0.0
H526 H 0.9277 0.2964 0.98934 0.0
H527 H 0.91101 0.272 0.8693 0.0
H528 H 0.58682 0.06539 0.23903 0.0
H529 H 0.52743 0.9833 0.21421 0.0
H530 H 0.55857 0.06655 0.29065 0.0
H531 H 0.49971 0.98411 0.26686 0.0
H532 H 0.44416 0.00337 0.33598 0.0
H533 H 0.47238 0.00366 0.28316 0.0
H534 H 0.54249 0.04848 0.35467 0.0
H535 H 0.51427 0.0483 0.40737 0.0
C536 C 0.56774 0.04758 0.24458 0.0
C537 C 0.5594 0.02426 0.22243 0.0
C538 C 0.55167 0.04816 0.27446 0.0
C539 C 0.52685 0.02543 0.28291 0.0
C540 C 0.51855 1.00208 0.26084 0.0
C541 C 0.53462 1.0015 0.23097 0.0
C542 C 0.46559 0.01322 0.34044 0.0
C543 C 0.47695 0.02578 0.37591 0.0
C544 C 0.48177 0.01334 0.3102 0.0
C545 C 0.50971 0.02598 0.31471 0.0
C546 C 0.5211 0.03886 0.35001 0.0
C547 C 0.50491 0.03878 0.38023 0.0
H548 H 0.51165 0.54219 0.35989 0.0
H549 H 0.57891 0.57759 0.43847 0.0
H550 H 0.48284 0.51418 0.41243 0.0
H551 H 0.55016 0.54937 0.49092 0.0
H552 H 0.48334 0.51452 0.58289 0.0
H553 H 0.51095 0.54365 0.53032 0.0
H554 H 0.47858 0.47588 0.45265 0.0
H555 H 0.45075 0.44679 0.50512 0.0
C556 C 0.52022 0.54411 0.38847 0.0
C557 C 0.54753 0.56209 0.3951 0.0
C558 C 0.50379 0.52792 0.41843 0.0
C559 C 0.51426 0.52957 0.45575 0.0
C560 C 0.54149 0.54781 0.46252 0.0
C561 C 0.55798 0.5638 0.43245 0.0
C562 C 0.48194 0.50591 0.55448 0.0
C563 C 0.46488 0.47838 0.54809 0.0
C564 C 0.49792 0.52253 0.52452 0.0
C565 C 0.49695 0.51203 0.48741 0.0
C566 C 0.4796 0.48457 0.48087 0.0
C567 C 0.46384 0.4679 0.51095 0.0
H568 H 0.01386 0.44432 0.66373 0.0
H569 H 0.98179 0.47955 0.74227 0.0
H570 H 0.01297 0.4722 0.61131 0.0
H571 H 0.98106 0.50756 0.68994 0.0
H572 H 0.96134 0.53681 0.57827 0.0
H573 H 0.95948 0.50652 0.62912 0.0
H574 H 0.03642 0.51875 0.59256 0.0
H575 H 0.03774 0.54802 0.5408 0.0
C576 C 0.00669 0.45808 0.66982 0.0
C577 C 0.99796 0.45975 0.7072 0.0
C578 C 0.00622 0.47409 0.6398 0.0
C579 C 0.99708 0.49224 0.64645 0.0
C580 C 0.98789 0.49356 0.68367 0.0
C581 C 0.9883 0.47749 0.71368 0.0
C582 C 0.97772 0.53281 0.58084 0.0
C583 C 0.99971 0.5449 0.55547 0.0
C584 C 0.97679 0.51567 0.61025 0.0
C585 C 0.9978 0.51019 0.61493 0.0
C586 C 0.01974 0.52225 0.5895 0.0
C587 C 0.02067 0.53935 0.56014 0.0
H588 H 0.54931 0.96479 0.84893 0.0
H589 H 0.53943 0.02686 0.90288 0.0
H590 H 0.51964 0.96192 0.79614 0.0
H591 H 0.51018 0.02429 0.84996 0.0
H592 H 0.43774 0.99283 0.76891 0.0
H593 H 0.46515 0.99267 0.82262 0.0
H594 H 0.52138 0.99134 0.74142 0.0
H595 H 0.49443 0.99215 0.68765 0.0
C596 C 0.54067 0.97768 0.84961 0.0
C597 C 0.54677 0.99611 0.87995 0.0
C598 C 0.52388 0.9762 0.81927 0.0
C599 C 0.51261 0.99291 0.8189 0.0
C600 C 0.51837 0.011 0.84959 0.0
C601 C 0.53533 0.01265 0.87969 0.0
C602 C 0.45604 0.99271 0.76243 0.0
C603 C 0.46385 0.99257 0.72383 0.0
C604 C 0.47169 0.99253 0.79324 0.0
C605 C 0.49541 0.99199 0.78623 0.0
C606 C 0.50301 0.99138 0.74774 0.0
C607 C 0.48749 0.99178 0.71692 0.0
H608 H 0.53045 0.55305 0.05841 0.0
H609 H 0.59184 0.53353 0.03141 0.0
H610 H 0.50285 0.52405 0.00622 0.0
H611 H 0.5636 0.50345 0.98024 0.0
H612 H 0.51802 0.47639 0.86415 0.0
H613 H 0.54638 0.50451 0.91677 0.0
H614 H 0.47664 0.47744 0.98964 0.0
H615 H 0.44831 0.44956 0.9369 0.0
C616 C 0.53811 0.54262 0.04128 0.0
C617 C 0.56346 0.54577 0.04903 0.0
C618 C 0.52209 0.52566 0.01167 0.0
C619 C 0.53093 0.5113 0.98908 0.0
C620 C 0.55626 0.51439 0.99683 0.0
C621 C 0.57234 0.53142 0.02646 0.0
C622 C 0.50879 0.47621 0.89157 0.0
C623 C 0.48089 0.46082 0.89629 0.0
C624 C 0.52505 0.49233 0.92176 0.0
C625 C 0.5138 0.49337 0.95742 0.0
C626 C 0.48593 0.47754 0.96233 0.0
C627 C 0.46968 0.46152 0.93212 0.0
H628 H 0.07149 0.50376 0.05718 0.0
H629 H 0.98588 0.45275 0.06699 0.0
H630 H 0.0708 0.53171 0.11008 0.0
H631 H 0.98517 0.4807 0.11985 0.0
H632 H 0.99369 0.55775 0.17613 0.0
H633 H 0.99463 0.52897 0.12519 0.0
H634 H 0.06008 0.52715 0.18279 0.0
H635 H 0.05862 0.5551 0.23469 0.0
C636 C 0.05257 0.49852 0.07077 0.0
C637 C 0.02875 0.47611 0.0581 0.0
C638 C 0.05219 0.51439 0.10112 0.0
C639 C 0.02793 0.50839 0.11894 0.0
C640 C 0.00412 0.48588 0.1064 0.0
C641 C 0.00456 0.46978 0.07645 0.0
C642 C 0.00807 0.55098 0.17835 0.0
C643 C 0.02602 0.55876 0.20977 0.0
C644 C 0.00864 0.53454 0.14905 0.0
C645 C 0.02737 0.52579 0.15013 0.0
C646 C 0.04558 0.53382 0.18109 0.0
C647 C 0.0448 0.54997 0.2107 0.0
H648 H 0.60807 0.75963 0.19507 0.0
H649 H 0.6855 0.78886 0.1415 0.0
H650 H 0.60825 0.80012 0.17567 0.0
H651 H 0.68471 0.82846 0.11946 0.0
H652 H 0.68759 0.90889 0.1172 0.0
H653 H 0.68861 0.86922 0.13925 0.0
H654 H 0.60308 0.82159 0.12161 0.0
H655 H 0.60212 0.8615 0.10108 0.0
C656 C 0.62521 0.77468 0.17924 0.0
C657 C 0.64681 0.77082 0.17004 0.0
C658 C 0.62509 0.79781 0.16746 0.0
C659 C 0.64641 0.81765 0.14568 0.0
C660 C 0.66805 0.81385 0.13655 0.0
C661 C 0.66832 0.79084 0.14873 0.0
C662 C 0.66906 0.88987 0.11796 0.0
C663 C 0.64477 0.88828 0.10752 0.0
C664 C 0.66962 0.86708 0.13046 0.0
C665 C 0.64592 0.84204 0.13236 0.0
C666 C 0.62167 0.84052 0.12141 0.0
C667 C 0.62109 0.86338 0.10942 0.0
H668 H 0.88425 0.62296 0.27824 0.0
H669 H 0.88991 0.66771 0.38171 0.0
H670 H 0.84439 0.62422 0.25873 0.0
H671 H 0.85084 0.67023 0.36111 0.0
H672 H 0.76297 0.64272 0.33472 0.0
H673 H 0.80342 0.64253 0.35436 0.0
H674 H 0.82957 0.65353 0.23502 0.0
H675 H 0.78882 0.65327 0.21539 0.0
C676 C 0.87701 0.63308 0.29688 0.0
C677 C 0.89026 0.64508 0.33173 0.0
C678 C 0.85433 0.63414 0.28537 0.0
C679 C 0.84434 0.64735 0.30829 0.0
C680 C 0.85774 0.65959 0.34295 0.0
C681 C 0.88038 0.65844 0.35454 0.0
C682 C 0.77749 0.64536 0.31273 0.0
C683 C 0.77267 0.64801 0.27348 0.0
C684 C 0.80073 0.6453 0.32399 0.0
C685 C 0.81984 0.64801 0.29632 0.0
C686 C 0.81511 0.65093 0.25708 0.0
C687 C 0.79178 0.65084 0.24579 0.0
H688 H 0.12522 0.79579 0.4169 0.0
H689 H 0.15757 0.74819 0.46257 0.0
H690 H 0.16535 0.8365 0.43773 0.0
H691 H 0.19798 0.78879 0.48255 0.0
H692 H 0.25527 0.86403 0.54799 0.0
H693 H 0.2143 0.82406 0.52836 0.0
H694 H 0.21158 0.86443 0.42442 0.0
H695 H 0.25158 0.90495 0.44529 0.0
C696 C 0.14106 0.79407 0.43104 0.0
C697 C 0.1382 0.76879 0.43821 0.0
C698 C 0.16411 0.8174 0.44292 0.0
C699 C 0.18498 0.81603 0.46195 0.0
C700 C 0.18215 0.79068 0.46873 0.0
C701 C 0.15901 0.76737 0.45716 0.0
C702 C 0.24572 0.86458 0.52126 0.0
C703 C 0.25682 0.88784 0.49831 0.0
C704 C 0.22239 0.84145 0.50967 0.0
C705 C 0.2096 0.84086 0.47464 0.0
C706 C 0.22064 0.86416 0.45177 0.0
C707 C 0.24387 0.88735 0.46351 0.0
H708 H 0.3428 0.23453 0.6441 0.0
H709 H 0.42164 0.26483 0.69358 0.0
H710 H 0.34286 0.1941 0.6235 0.0
H711 H 0.42112 0.224 0.6741 0.0
H712 H 0.39597 0.13443 0.66957 0.0
H713 H 0.39532 0.17451 0.69009 0.0
H714 H 0.3688 0.18179 0.57613 0.0
H715 H 0.37028 0.1422 0.55495 0.0
C716 C 0.3602 0.23271 0.65049 0.0
C717 C 0.38223 0.2531 0.67058 0.0
C718 C 0.36015 0.20946 0.63876 0.0
C719 C 0.38197 0.20588 0.64724 0.0
C720 C 0.40386 0.22605 0.6676 0.0
C721 C 0.40407 0.24943 0.67893 0.0
C722 C 0.39034 0.1447 0.64862 0.0
C723 C 0.38332 0.13503 0.61045 0.0
C724 C 0.38986 0.16763 0.66051 0.0
C725 C 0.38204 0.18128 0.63471 0.0
C726 C 0.37463 0.17149 0.59678 0.0
C727 C 0.3754 0.14872 0.58471 0.0
H728 H 0.16619 0.41976 0.84567 0.0
H729 H 0.11764 0.33555 0.81999 0.0
H730 H 0.20611 0.41867 0.82585 0.0
H731 H 0.15749 0.33447 0.79886 0.0
H732 H 0.23762 0.33644 0.79733 0.0
H733 H 0.19775 0.33675 0.81951 0.0
H734 H 0.22792 0.41555 0.77021 0.0
H735 H 0.26852 0.41604 0.75055 0.0
C736 C 0.16407 0.40104 0.83548 0.0
C737 C 0.1388 0.37777 0.83427 0.0
C738 C 0.18695 0.4004 0.8239 0.0
C739 C 0.18512 0.37653 0.81035 0.0
C740 C 0.15979 0.35315 0.80957 0.0
C741 C 0.13691 0.35374 0.82159 0.0
C742 C 0.23594 0.35399 0.79163 0.0
C743 C 0.25648 0.37625 0.77219 0.0
C744 C 0.21283 0.35401 0.80391 0.0
C745 C 0.20952 0.3762 0.79681 0.0
C746 C 0.22988 0.39827 0.77684 0.0
C747 C 0.25307 0.39835 0.76492 0.0
H748 H 0.87831 0.27559 0.98348 0.0
H749 H 0.89823 0.22962 0.90546 0.0
H750 H 0.83791 0.23475 0.00326 0.0
H751 H 0.85753 0.18875 0.92485 0.0
H752 H 0.79717 0.11878 0.00195 0.0
H753 H 0.83834 0.15948 0.98335 0.0
H754 H 0.7944 0.20171 0.97382 0.0
H755 H 0.75344 0.16124 0.99295 0.0
C756 C 0.87411 0.25673 0.97069 0.0
C757 C 0.89148 0.25582 0.94294 0.0
C758 C 0.85085 0.23338 0.98176 0.0
C759 C 0.84452 0.20853 0.96558 0.0
C760 C 0.86198 0.20757 0.93805 0.0
C761 C 0.88514 0.23099 0.9267 0.0
C762 C 0.79639 0.13682 0.99614 0.0
C763 C 0.77207 0.13681 0.99888 0.0
C764 C 0.81989 0.16004 0.98515 0.0
C765 C 0.81961 0.18379 0.97711 0.0
C766 C 0.79532 0.18379 0.98014 0.0
C767 C 0.77181 0.16055 0.99076 0.0
loop_
_geom_bond_atom_site_label_1
_geom_bond_atom_site_label_2
_geom_bond_distance
_geom_bond_site_symmetry_2
_ccdc_geom_bond_type
Li0 N17 1.990 . S
Li0 O60 1.956 . S
Li0 O61 1.970 . S
Li0 O62 1.961 . S
Li1 N25 1.990 . S
Li1 O60 1.970 . S
Li1 O61 1.956 . S
Li1 O63 1.961 1_545 S
Li2 N47 1.990 . S
Li2 O60 1.961 1_565 S
Li2 O62 1.956 1_565 S
Li2 O63 1.970 . S
Li3 N53 1.989 1_554 S
Li3 O61 1.961 . S
Li3 O62 1.970 . S
Li3 O63 1.956 1_545 S
C4 C6 1.348 . S
C4 C7 1.356 . S
C4 O60 1.325 . S
N5 C8 1.314 . S
N5 C9 1.279 . S
C6 C4 1.348 . S
C6 C8 1.353 . S
C6 H64 0.929 . S
C7 C4 1.356 . S
C7 C9 1.358 . S
C7 H65 0.930 . S
C8 N5 1.314 . S
C8 C6 1.353 . S
C8 H66 0.930 . S
C9 N5 1.279 . S
C9 C7 1.358 . S
C9 H67 0.930 . S
C10 C13 1.348 . S
C10 C14 1.356 . S
C10 O61 1.325 . S
C11 N12 1.279 . S
C11 C14 1.358 . S
C11 H68 0.930 . S
N12 C11 1.279 . S
N12 C15 1.314 . S
C13 C10 1.348 . S
C13 C15 1.353 . S
C13 H69 0.929 . S
C14 C10 1.356 . S
C14 C11 1.358 . S
C14 H70 0.930 . S
C15 N12 1.314 . S
C15 C13 1.353 . S
C15 H71 0.930 . S
C16 N17 1.314 . S
C16 C21 1.353 1_554 S
C16 H22 0.930 1_554 S
N17 Li0 1.990 . S
N17 C16 1.314 . S
N17 C19 1.279 . S
C18 C19 1.358 . S
C18 C20 1.356 . S
C18 H72 0.930 . S
C19 N17 1.279 . S
C19 C18 1.358 . S
C19 H23 0.930 . S
C20 C18 1.356 . S
C20 C21 1.346 1_554 S
C21 C16 1.353 1_556 S
C21 C20 1.346 1_556 S
C21 H73 0.931 . S
H22 C16 0.930 1_556 S
H23 C19 0.930 . S
C24 N25 1.344 . S
C24 C26 1.371 . S
C24 H30 0.878 1_545 S
N25 Li1 1.990 . S
N25 C24 1.344 . S
N25 C28 1.279 . S
C26 C24 1.371 . S
C26 C29 1.348 . S
C26 H74 0.929 1_545 S
C27 C28 1.358 . S
C27 C29 1.356 . S
C27 H75 0.930 . S
C28 N25 1.279 . S
C28 C27 1.358 . S
C28 H31 0.930 . S
C29 C26 1.348 . S
C29 C27 1.356 . S
H30 C24 0.878 1_565 S
H31 C28 0.930 . S
C32 C34 1.348 1_545 S
C32 C35 1.356 . S
C32 O62 1.325 1_556 S
N33 C36 1.314 . S
N33 C37 1.279 1_565 S
C34 C32 1.348 1_565 S
C34 C36 1.353 . S
C34 H76 0.929 . S
C35 C32 1.356 . S
C35 C37 1.358 . S
C35 H77 0.930 1_556 S
C36 N33 1.314 . S
C36 C34 1.353 . S
C36 H78 0.930 . S
C37 N33 1.279 1_545 S
C37 C35 1.358 . S
C37 H79 0.930 . S
C38 C39 1.348 . S
C38 C40 1.356 . S
C38 O63 1.325 . S
C39 C38 1.348 . S
C39 C41 1.353 . S
C39 H80 0.929 . S
C40 C38 1.356 . S
C40 C42 1.358 . S
C40 H81 0.930 . S
C41 C39 1.353 . S
C41 N43 1.314 . S
C41 H82 0.930 . S
C42 C40 1.358 . S
C42 N43 1.279 . S
C42 H83 0.930 . S
N43 C41 1.314 . S
N43 C42 1.279 . S
C44 C46 1.353 . S
C44 N47 1.314 . S
C44 H50 0.930 . S
C45 N47 1.279 . S
C45 C48 1.358 . S
C45 H51 0.930 . S
C46 C44 1.353 . S
C46 C49 1.348 . S
C46 H84 0.929 . S
N47 Li2 1.990 . S
N47 C44 1.314 . S
N47 C45 1.279 . S
C48 C45 1.358 . S
C48 C49 1.356 . S
C48 H85 0.930 . S
C49 C46 1.348 . S
C49 C48 1.356 . S
H50 C44 0.930 . S
H51 C45 0.930 . S
C52 N53 1.317 . S
C52 C54 1.353 . S
C52 H58 0.930 . S
N53 Li3 1.989 1_556 S
N53 C52 1.317 . S
N53 C56 1.277 1_545 S
C54 C52 1.353 . S
C54 C57 1.348 1_545 S
C54 H86 0.929 . S
C55 C56 1.358 . S
C55 C57 1.356 . S
C55 H87 0.930 . S
C56 N53 1.277 1_565 S
C56 C55 1.358 . S
C56 H59 0.930 . S
C57 C54 1.348 1_565 S
C57 C55 1.356 . S
H58 C52 0.930 . S
H59 C56 0.930 . S
O60 Li0 1.956 . S
O60 Li1 1.970 . S
O60 Li2 1.961 1_545 S
O60 C4 1.325 . S
O61 Li0 1.970 . S
O61 Li1 1.956 . S
O61 Li3 1.961 . S
O61 C10 1.325 . S
O62 Li0 1.961 . S
O62 Li2 1.956 1_545 S
O62 Li3 1.970 . S
O62 C32 1.325 1_554 S
O63 Li1 1.961 1_565 S
O63 Li2 1.970 . S
O63 Li3 1.956 1_565 S
O63 C38 1.325 . S
H64 C6 0.929 . S
H65 C7 0.930 . S
H66 C8 0.930 . S
H67 C9 0.930 . S
H68 C11 0.930 . S
H69 C13 0.929 . S
H70 C14 0.930 . S
H71 C15 0.930 . S
H72 C18 0.930 . S
H73 C21 0.931 . S
H74 C26 0.929 1_565 S
H75 C27 0.930 . S
H76 C34 0.929 . S
H77 C35 0.930 1_554 S
H78 C36 0.930 . S
H79 C37 0.930 . S
H80 C39 0.929 . S
H81 C40 0.930 . S
H82 C41 0.930 . S
H83 C42 0.930 . S
H84 C46 0.929 . S
H85 C48 0.930 . S
H86 C54 0.929 . S
H87 C55 0.930 . S
Li88 N105 1.990 . S
Li88 O148 1.956 . S
Li88 O149 1.970 . S
Li88 O150 1.961 . S
Li89 N113 1.990 . S
Li89 O148 1.970 . S
Li89 O149 1.956 . S
Li89 O151 1.961 . S
Li90 N135 1.990 . S
Li90 O148 1.961 . S
Li90 O150 1.956 . S
Li90 O151 1.970 . S
Li91 N141 1.990 . S
Li91 O149 1.961 . S
Li91 O150 1.970 . S
Li91 O151 1.956 . S
C92 C94 1.348 . S
C92 C95 1.356 . S
C92 O148 1.325 . S
N93 C96 1.314 . S
N93 C97 1.279 . S
C94 C92 1.348 . S
C94 C96 1.353 . S
C94 H152 0.929 . S
C95 C92 1.356 . S
C95 C97 1.358 . S
C95 H153 0.930 . S
C96 N93 1.314 . S
C96 C94 1.353 . S
C96 H154 0.930 . S
C97 N93 1.279 . S
C97 C95 1.358 . S
C97 H155 0.930 . S
C98 C101 1.348 . S
C98 C102 1.356 . S
C98 O149 1.325 . S
C99 N100 1.279 . S
C99 C102 1.358 . S
C99 H156 0.930 . S
N100 C99 1.279 . S
N100 C103 1.314 . S
C101 C98 1.348 . S
C101 C103 1.353 . S
C101 H157 0.929 . S
C102 C98 1.356 . S
C102 C99 1.358 . S
C102 H158 0.930 . S
C103 N100 1.314 . S
C103 C101 1.353 . S
C103 H159 0.930 . S
C104 N105 1.314 . S
C104 C109 1.353 . S
C104 H110 0.930 . S
N105 Li88 1.990 . S
N105 C104 1.314 . S
N105 C107 1.279 . S
C106 C107 1.358 . S
C106 C108 1.356 . S
C106 H160 0.930 . S
C107 N105 1.279 . S
C107 C106 1.358 . S
C107 H111 0.930 . S
C108 C106 1.356 . S
C108 C109 1.348 . S
C109 C104 1.353 . S
C109 C108 1.348 . S
C109 H161 0.929 . S
H110 C104 0.930 . S
H111 C107 0.930 . S
C112 N113 1.314 . S
C112 C114 1.353 . S
C112 H118 0.930 . S
N113 Li89 1.990 . S
N113 C112 1.314 . S
N113 C116 1.279 . S
C114 C112 1.353 . S
C114 C117 1.348 . S
C114 H162 0.929 . S
C115 C116 1.358 . S
C115 C117 1.356 . S
C115 H163 0.930 . S
C116 N113 1.279 . S
C116 C115 1.358 . S
C116 H119 0.930 . S
C117 C114 1.348 . S
C117 C115 1.356 . S
H118 C112 0.930 . S
H119 C116 0.930 . S
C120 C122 1.348 . S
C120 C123 1.356 . S
C120 O150 1.325 . S
N121 C124 1.314 . S
N121 C125 1.279 . S
C122 C120 1.348 . S
C122 C124 1.353 . S
C122 H164 0.929 . S
C123 C120 1.356 . S
C123 C125 1.358 . S
C123 H165 0.930 . S
C124 N121 1.314 . S
C124 C122 1.353 . S
C124 H166 0.930 . S
C125 N121 1.279 . S
C125 C123 1.358 . S
C125 H167 0.930 . S
C126 C127 1.348 . S
C126 C128 1.356 . S
C126 O151 1.325 . S
C127 C126 1.348 . S
C127 C129 1.353 . S
C127 H168 0.929 . S
C128 C126 1.356 . S
C128 C130 1.358 . S
C128 H169 0.930 . S
C129 C127 1.353 . S
C129 N131 1.314 . S
C129 H170 0.930 . S
C130 C128 1.358 . S
C130 N131 1.279 . S
C130 H171 0.930 . S
N131 C129 1.314 . S
N131 C130 1.279 . S
C132 C134 1.353 . S
C132 N135 1.314 . S
C132 H138 0.930 . S
C133 N135 1.279 . S
C133 C136 1.358 . S
C133 H139 0.930 . S
C134 C132 1.353 . S
C134 C137 1.348 . S
C134 H172 0.929 . S
N135 Li90 1.990 . S
N135 C132 1.314 . S
N135 C133 1.279 . S
C136 C133 1.358 . S
C136 C137 1.356 . S
C136 H173 0.930 . S
C137 C134 1.348 . S
C137 C136 1.356 . S
H138 C132 0.930 . S
H139 C133 0.930 . S
C140 N141 1.314 . S
C140 C142 1.353 . S
C140 H146 0.930 . S
N141 Li91 1.990 . S
N141 C140 1.314 . S
N141 C144 1.279 . S
C142 C140 1.353 . S
C142 C145 1.348 . S
C142 H174 0.929 . S
C143 C144 1.358 . S
C143 C145 1.356 . S
C143 H175 0.930 . S
C144 N141 1.279 . S
C144 C143 1.358 . S
C144 H147 0.930 . S
C145 C142 1.348 . S
C145 C143 1.356 . S
H146 C140 0.930 . S
H147 C144 0.930 . S
O148 Li88 1.956 . S
O148 Li89 1.970 . S
O148 Li90 1.961 . S
O148 C92 1.325 . S
O149 Li88 1.970 . S
O149 Li89 1.956 . S
O149 Li91 1.961 . S
O149 C98 1.325 . S
O150 Li88 1.961 . S
O150 Li90 1.956 . S
O150 Li91 1.970 . S
O150 C120 1.325 . S
O151 Li89 1.961 . S
O151 Li90 1.970 . S
O151 Li91 1.956 . S
O151 C126 1.325 . S
H152 C94 0.929 . S
H153 C95 0.930 . S
H154 C96 0.930 . S
H155 C97 0.930 . S
H156 C99 0.930 . S
H157 C101 0.929 . S
H158 C102 0.930 . S
H159 C103 0.930 . S
H160 C106 0.930 . S
H161 C109 0.929 . S
H162 C114 0.929 . S
H163 C115 0.930 . S
H164 C122 0.929 . S
H165 C123 0.930 . S
H166 C124 0.930 . S
H167 C125 0.930 . S
H168 C127 0.929 . S
H169 C128 0.930 . S
H170 C129 0.930 . S
H171 C130 0.930 . S
H172 C134 0.929 . S
H173 C136 0.930 . S
H174 C142 0.929 . S
H175 C143 0.930 . S
Li176 N193 1.990 . S
Li176 O236 1.956 1_655 S
Li176 O237 1.970 . S
Li176 O238 1.961 1_655 S
Li177 N201 1.990 . S
Li177 O236 1.970 . S
Li177 O237 1.956 1_455 S
Li177 O239 1.961 . S
Li178 N223 1.990 . S
Li178 O236 1.961 . S
Li178 O238 1.956 . S
Li178 O239 1.970 . S
Li179 N229 1.990 . S
Li179 O237 1.961 1_455 S
Li179 O238 1.970 . S
Li179 O239 1.956 . S
C180 C182 1.348 1_455 S
C180 C183 1.356 . S
C180 O236 1.325 . S
N181 C184 1.314 . S
N181 C185 1.279 1_655 S
C182 C180 1.348 1_655 S
C182 C184 1.353 . S
C182 H240 0.929 . S
C183 C180 1.356 . S
C183 C185 1.358 . S
C183 H241 0.930 . S
C184 N181 1.314 . S
C184 C182 1.353 . S
C184 H242 0.930 . S
C185 N181 1.279 1_455 S
C185 C183 1.358 . S
C185 H243 0.930 . S
C186 C189 1.348 . S
C186 C190 1.356 . S
C186 O237 1.325 . S
C187 N188 1.279 . S
C187 C190 1.358 . S
C187 H244 0.930 . S
N188 C187 1.279 . S
N188 C191 1.314 . S
C189 C186 1.348 . S
C189 C191 1.353 . S
C189 H245 0.929 . S
C190 C186 1.356 . S
C190 C187 1.358 . S
C190 H246 0.930 . S
C191 N188 1.314 . S
C191 C189 1.353 . S
C191 H247 0.930 . S
C192 N193 1.314 . S
C192 C197 1.353 . S
C192 H198 0.930 . S
N193 Li176 1.990 . S
N193 C192 1.314 . S
N193 C195 1.279 . S
C194 C195 1.358 . S
C194 C196 1.356 . S
C194 H248 0.930 . S
C195 N193 1.279 . S
C195 C194 1.358 . S
C195 H199 0.930 . S
C196 C194 1.356 . S
C196 C197 1.348 . S
C197 C192 1.353 . S
C197 C196 1.348 . S
C197 H249 0.929 . S
H198 C192 0.930 . S
H199 C195 0.930 . S
C200 N201 1.314 . S
C200 C202 1.353 . S
C200 H206 0.930 . S
N201 Li177 1.990 . S
N201 C200 1.314 . S
N201 C204 1.279 1_455 S
C202 C200 1.353 . S
C202 C205 1.348 1_455 S
C202 H250 0.929 . S
C203 C204 1.358 . S
C203 C205 1.356 . S
C203 H251 0.930 . S
C204 N201 1.279 1_655 S
C204 C203 1.358 . S
C204 H207 0.930 . S
C205 C202 1.348 1_655 S
C205 C203 1.356 . S
H206 C200 0.930 . S
H207 C204 0.930 . S
C208 C210 1.348 . S
C208 C211 1.356 . S
C208 O238 1.325 . S
N209 C212 1.314 . S
N209 C213 1.279 . S
C210 C208 1.348 . S
C210 C212 1.353 . S
C210 H252 0.929 . S
C211 C208 1.356 . S
C211 C213 1.358 . S
C211 H253 0.930 . S
C212 N209 1.314 . S
C212 C210 1.353 . S
C212 H254 0.930 . S
C213 N209 1.279 . S
C213 C211 1.358 . S
C213 H255 0.930 . S
C214 C215 1.348 . S
C214 C216 1.356 . S
C214 O239 1.325 . S
C215 C214 1.348 . S
C215 C217 1.353 . S
C215 H256 0.929 . S
C216 C214 1.356 . S
C216 C218 1.358 . S
C216 H257 0.930 . S
C217 C215 1.353 . S
C217 N219 1.314 . S
C217 H258 0.930 . S
C218 C216 1.358 . S
C218 N219 1.279 . S
C218 H259 0.930 . S
N219 C217 1.314 . S
N219 C218 1.279 . S
C220 C222 1.353 . S
C220 N223 1.314 . S
C220 H226 0.930 . S
C221 N223 1.279 . S
C221 C224 1.358 . S
C221 H227 0.930 . S
C222 C220 1.353 . S
C222 C225 1.348 . S
C222 H260 0.929 . S
N223 Li178 1.990 . S
N223 C220 1.314 . S
N223 C221 1.279 . S
C224 C221 1.358 . S
C224 C225 1.356 . S
C224 H261 0.930 . S
C225 C222 1.348 . S
C225 C224 1.356 . S
H226 C220 0.930 . S
H227 C221 0.930 . S
C228 N229 1.314 . S
C228 C230 1.353 . S
C228 H234 0.930 1_455 S
N229 Li179 1.990 . S
N229 C228 1.314 . S
N229 C232 1.279 . S
C230 C228 1.353 . S
C230 C233 1.348 . S
C230 H262 0.929 1_455 S
C231 C232 1.358 . S
C231 C233 1.356 . S
C231 H263 0.930 . S
C232 N229 1.279 . S
C232 C231 1.358 . S
C232 H235 0.930 . S
C233 C230 1.348 . S
C233 C231 1.356 . S
H234 C228 0.930 1_655 S
H235 C232 0.930 . S
O236 Li176 1.956 1_455 S
O236 Li177 1.970 . S
O236 Li178 1.961 . S
O236 C180 1.325 . S
O237 Li176 1.970 . S
O237 Li177 1.956 1_655 S
O237 Li179 1.961 1_655 S
O237 C186 1.325 . S
O238 Li176 1.961 1_455 S
O238 Li178 1.956 . S
O238 Li179 1.970 . S
O238 C208 1.325 . S
O239 Li177 1.961 . S
O239 Li178 1.970 . S
O239 Li179 1.956 . S
O239 C214 1.325 . S
H240 C182 0.929 . S
H241 C183 0.930 . S
H242 C184 0.930 . S
H243 C185 0.930 . S
H244 C187 0.930 . S
H245 C189 0.929 . S
H246 C190 0.930 . S
H247 C191 0.930 . S
H248 C194 0.930 . S
H249 C197 0.929 . S
H250 C202 0.929 . S
H251 C203 0.930 . S
H252 C210 0.929 . S
H253 C211 0.930 . S
H254 C212 0.930 . S
H255 C213 0.930 . S
H256 C215 0.929 . S
H257 C216 0.930 . S
H258 C217 0.930 . S
H259 C218 0.930 . S
H260 C222 0.929 . S
H261 C224 0.930 . S
H262 C230 0.929 1_655 S
H263 C231 0.930 . S
Li264 N281 1.992 . S
Li264 O324 1.956 1_545 S
Li264 O325 1.970 . S
Li264 O326 1.961 . S
Li265 N289 1.990 . S
Li265 O324 1.970 . S
Li265 O325 1.956 1_565 S
Li265 O327 1.961 1_565 S
Li266 N311 1.990 . S
Li266 O324 1.961 1_545 S
Li266 O326 1.956 . S
Li266 O327 1.970 . S
Li267 N317 1.990 . S
Li267 O325 1.961 . S
Li267 O326 1.970 . S
Li267 O327 1.956 . S
C268 C270 1.348 . S
C268 C271 1.356 . S
C268 O324 1.325 . S
N269 C272 1.314 . S
N269 C273 1.279 . S
C270 C268 1.348 . S
C270 C272 1.353 . S
C270 H328 0.929 . S
C271 C268 1.356 . S
C271 C273 1.358 . S
C271 H329 0.930 . S
C272 N269 1.314 . S
C272 C270 1.353 . S
C272 H330 0.930 . S
C273 N269 1.279 . S
C273 C271 1.358 . S
C273 H331 0.930 . S
C274 C277 1.348 1_545 S
C274 C278 1.356 . S
C274 O325 1.325 . S
C275 N276 1.279 1_545 S
C275 C278 1.358 . S
C275 H332 0.930 . S
N276 C275 1.279 1_565 S
N276 C279 1.314 . S
C277 C274 1.348 1_565 S
C277 C279 1.353 . S
C277 H333 0.929 . S
C278 C274 1.356 . S
C278 C275 1.358 . S
C278 H334 0.930 . S
C279 N276 1.314 . S
C279 C277 1.353 . S
C279 H335 0.930 . S
C280 N281 1.317 . S
C280 C285 1.353 . S
C280 H286 0.930 . S
N281 Li264 1.992 . S
N281 C280 1.317 . S
N281 C283 1.275 1_545 S
C282 C283 1.358 . S
C282 C284 1.356 . S
C282 H336 0.930 . S
C283 N281 1.275 1_565 S
C283 C282 1.358 . S
C283 H287 0.930 . S
C284 C282 1.356 . S
C284 C285 1.348 1_565 S
C285 C280 1.353 . S
C285 C284 1.348 1_545 S
C285 H337 0.929 . S
H286 C280 0.930 . S
H287 C283 0.930 . S
C288 N289 1.314 . S
C288 C290 1.353 . S
C288 H294 0.930 . S
N289 Li265 1.990 . S
N289 C288 1.314 . S
N289 C292 1.279 . S
C290 C288 1.353 . S
C290 C293 1.348 . S
C290 H338 0.929 . S
C291 C292 1.358 . S
C291 C293 1.356 . S
C291 H339 0.930 . S
C292 N289 1.279 . S
C292 C291 1.358 . S
C292 H295 0.930 . S
C293 C290 1.348 . S
C293 C291 1.356 . S
H294 C288 0.930 . S
H295 C292 0.930 . S
C296 C298 1.348 . S
C296 C299 1.356 . S
C296 O326 1.325 . S
N297 C300 1.314 . S
N297 C301 1.279 . S
C298 C296 1.348 . S
C298 C300 1.353 . S
C298 H340 0.929 . S
C299 C296 1.356 . S
C299 C301 1.358 . S
C299 H341 0.930 . S
C300 N297 1.314 . S
C300 C298 1.353 . S
C300 H342 0.930 . S
C301 N297 1.279 . S
C301 C299 1.358 . S
C301 H343 0.930 . S
C302 C303 1.348 . S
C302 C304 1.356 . S
C302 O327 1.325 . S
C303 C302 1.348 . S
C303 C305 1.353 . S
C303 H344 0.929 . S
C304 C302 1.356 . S
C304 C306 1.358 . S
C304 H345 0.930 . S
C305 C303 1.353 . S
C305 N307 1.314 . S
C305 H346 0.930 . S
C306 C304 1.358 . S
C306 N307 1.279 . S
C306 H347 0.930 . S
N307 C305 1.314 . S
N307 C306 1.279 . S
C308 C310 1.342 . S
C308 N311 1.350 . S
C308 H314 0.903 1_545 S
C309 N311 1.279 . S
C309 C312 1.358 . S
C309 H315 0.930 . S
C310 C308 1.342 . S
C310 C313 1.348 . S
C310 H348 0.929 1_545 S
N311 Li266 1.990 . S
N311 C308 1.350 . S
N311 C309 1.279 . S
C312 C309 1.358 . S
C312 C313 1.356 . S
C312 H349 0.930 . S
C313 C310 1.348 . S
C313 C312 1.356 . S
H314 C308 0.903 1_565 S
H315 C309 0.930 . S
C316 N317 1.314 . S
C316 C318 1.353 . S
C316 H322 0.930 . S
N317 Li267 1.990 . S
N317 C316 1.314 . S
N317 C320 1.279 . S
C318 C316 1.353 . S
C318 C321 1.348 . S
C318 H350 0.929 . S
C319 C320 1.358 . S
C319 C321 1.356 . S
C319 H351 0.930 . S
C320 N317 1.279 . S
C320 C319 1.358 . S
C320 H323 0.930 . S
C321 C318 1.348 . S
C321 C319 1.356 . S
H322 C316 0.930 . S
H323 C320 0.930 . S
O324 Li264 1.956 1_565 S
O324 Li265 1.970 . S
O324 Li266 1.961 1_565 S
O324 C268 1.325 . S
O325 Li264 1.970 . S
O325 Li265 1.956 1_545 S
O325 Li267 1.961 . S
O325 C274 1.325 . S
O326 Li264 1.961 . S
O326 Li266 1.956 . S
O326 Li267 1.970 . S
O326 C296 1.325 . S
O327 Li265 1.961 1_545 S
O327 Li266 1.970 . S
O327 Li267 1.956 . S
O327 C302 1.325 . S
H328 C270 0.929 . S
H329 C271 0.930 . S
H330 C272 0.930 . S
H331 C273 0.930 . S
H332 C275 0.930 . S
H333 C277 0.929 . S
H334 C278 0.930 . S
H335 C279 0.930 . S
H336 C282 0.930 . S
H337 C285 0.929 . S
H338 C290 0.929 . S
H339 C291 0.930 . S
H340 C298 0.929 . S
H341 C299 0.930 . S
H342 C300 0.930 . S
H343 C301 0.930 . S
H344 C303 0.929 . S
H345 C304 0.930 . S
H346 C305 0.930 . S
H347 C306 0.930 . S
H348 C310 0.929 1_565 S
H349 C312 0.930 . S
H350 C318 0.929 . S
H351 C319 0.930 . S
Li352 N369 1.990 . S
Li352 O412 1.956 . S
Li352 O413 1.970 . S
Li352 O414 1.961 . S
Li353 N377 1.990 . S
Li353 O412 1.970 . S
Li353 O413 1.956 . S
Li353 O415 1.961 . S
Li354 N399 1.990 . S
Li354 O412 1.961 . S
Li354 O414 1.956 . S
Li354 O415 1.970 . S
Li355 N405 1.990 . S
Li355 O413 1.961 . S
Li355 O414 1.970 . S
Li355 O415 1.956 . S
C356 C358 1.348 . S
C356 C359 1.356 . S
C356 O412 1.325 . S
N357 C360 1.314 . S
N357 C361 1.279 . S
C358 C356 1.348 . S
C358 C360 1.353 . S
C358 H416 0.929 . S
C359 C356 1.356 . S
C359 C361 1.358 . S
C359 H417 0.930 . S
C360 N357 1.314 . S
C360 C358 1.353 . S
C360 H418 0.930 . S
C361 N357 1.279 . S
C361 C359 1.358 . S
C361 H419 0.930 . S
C362 C365 1.348 . S
C362 C366 1.356 . S
C362 O413 1.325 . S
C363 N364 1.279 . S
C363 C366 1.358 . S
C363 H420 0.930 . S
N364 C363 1.279 . S
N364 C367 1.314 . S
C365 C362 1.348 . S
C365 C367 1.353 . S
C365 H421 0.929 . S
C366 C362 1.356 . S
C366 C363 1.358 . S
C366 H422 0.930 . S
C367 N364 1.314 . S
C367 C365 1.353 . S
C367 H423 0.930 . S
C368 N369 1.314 . S
C368 C373 1.353 . S
C368 H374 0.930 . S
N369 Li352 1.990 . S
N369 C368 1.314 . S
N369 C371 1.279 . S
C370 C371 1.358 . S
C370 C372 1.356 . S
C370 H424 0.930 . S
C371 N369 1.279 . S
C371 C370 1.358 . S
C371 H375 0.930 . S
C372 C370 1.356 . S
C372 C373 1.348 . S
C373 C368 1.353 . S
C373 C372 1.348 . S
C373 H425 0.929 . S
H374 C368 0.930 . S
H375 C371 0.930 . S
C376 N377 1.314 . S
C376 C378 1.353 . S
C376 H382 0.930 . S
N377 Li353 1.990 . S
N377 C376 1.314 . S
N377 C380 1.279 . S
C378 C376 1.353 . S
C378 C381 1.348 . S
C378 H426 0.929 . S
C379 C380 1.358 . S
C379 C381 1.356 . S
C379 H427 0.930 . S
C380 N377 1.279 . S
C380 C379 1.358 . S
C380 H383 0.930 . S
C381 C378 1.348 . S
C381 C379 1.356 . S
H382 C376 0.930 . S
H383 C380 0.930 . S
C384 C386 1.348 . S
C384 C387 1.356 . S
C384 O414 1.325 . S
N385 C388 1.314 . S
N385 C389 1.279 . S
C386 C384 1.348 . S
C386 C388 1.353 . S
C386 H428 0.929 . S
C387 C384 1.356 . S
C387 C389 1.358 . S
C387 H429 0.930 . S
C388 N385 1.314 . S
C388 C386 1.353 . S
C388 H430 0.930 . S
C389 N385 1.279 . S
C389 C387 1.358 . S
C389 H431 0.930 . S
C390 C391 1.348 . S
C390 C392 1.356 . S
C390 O415 1.325 . S
C391 C390 1.348 . S
C391 C393 1.353 . S
C391 H432 0.929 . S
C392 C390 1.356 . S
C392 C394 1.358 . S
C392 H433 0.930 . S
C393 C391 1.353 . S
C393 N395 1.314 . S
C393 H434 0.930 . S
C394 C392 1.358 . S
C394 N395 1.279 . S
C394 H435 0.930 . S
N395 C393 1.314 . S
N395 C394 1.279 . S
C396 C398 1.353 . S
C396 N399 1.314 . S
C396 H402 0.930 . S
C397 N399 1.279 . S
C397 C400 1.358 . S
C397 H403 0.930 . S
C398 C396 1.353 . S
C398 C401 1.348 . S
C398 H436 0.929 . S
N399 Li354 1.990 . S
N399 C396 1.314 . S
N399 C397 1.279 . S
C400 C397 1.358 . S
C400 C401 1.356 . S
C400 H437 0.930 . S
C401 C398 1.348 . S
C401 C400 1.356 . S
H402 C396 0.930 . S
H403 C397 0.930 . S
C404 N405 1.314 . S
C404 C406 1.353 . S
C404 H410 0.930 . S
N405 Li355 1.990 . S
N405 C404 1.314 . S
N405 C408 1.279 . S
C406 C404 1.353 . S
C406 C409 1.348 . S
C406 H438 0.929 . S
C407 C408 1.358 . S
C407 C409 1.356 . S
C407 H439 0.930 . S
C408 N405 1.279 . S
C408 C407 1.358 . S
C408 H411 0.930 . S
C409 C406 1.348 . S
C409 C407 1.356 . S
H410 C404 0.930 . S
H411 C408 0.930 . S
O412 Li352 1.956 . S
O412 Li353 1.970 . S
O412 Li354 1.961 . S
O412 C356 1.325 . S
O413 Li352 1.970 . S
O413 Li353 1.956 . S
O413 Li355 1.961 . S
O413 C362 1.325 . S
O414 Li352 1.961 . S
O414 Li354 1.956 . S
O414 Li355 1.970 . S
O414 C384 1.325 . S
O415 Li353 1.961 . S
O415 Li354 1.970 . S
O415 Li355 1.956 . S
O415 C390 1.325 . S
H416 C358 0.929 . S
H417 C359 0.930 . S
H418 C360 0.930 . S
H419 C361 0.930 . S
H420 C363 0.930 . S
H421 C365 0.929 . S
H422 C366 0.930 . S
H423 C367 0.930 . S
H424 C370 0.930 . S
H425 C373 0.929 . S
H426 C378 0.929 . S
H427 C379 0.930 . S
H428 C386 0.929 . S
H429 C387 0.930 . S
H430 C388 0.930 . S
H431 C389 0.930 . S
H432 C391 0.929 . S
H433 C392 0.930 . S
H434 C393 0.930 . S
H435 C394 0.930 . S
H436 C398 0.929 . S
H437 C400 0.930 . S
H438 C406 0.929 . S
H439 C407 0.930 . S
Li440 N457 1.990 . S
Li440 O500 1.956 . S
Li440 O501 1.970 . S
Li440 O502 1.961 1_455 S
Li441 N465 1.990 . S
Li441 O500 1.970 . S
Li441 O501 1.956 . S
Li441 O503 1.961 . S
Li442 N487 1.990 . S
Li442 O500 1.961 . S
Li442 O502 1.956 1_455 S
Li442 O503 1.970 . S
Li443 N493 1.990 . S
Li443 O501 1.961 1_655 S
Li443 O502 1.970 . S
Li443 O503 1.956 1_655 S
C444 C446 1.348 . S
C444 C447 1.356 . S
C444 O500 1.325 . S
N445 C448 1.314 . S
N445 C449 1.279 . S
C446 C444 1.348 . S
C446 C448 1.353 . S
C446 H504 0.929 . S
C447 C444 1.356 . S
C447 C449 1.358 . S
C447 H505 0.930 . S
C448 N445 1.314 . S
C448 C446 1.353 . S
C448 H506 0.930 . S
C449 N445 1.279 . S
C449 C447 1.358 . S
C449 H507 0.930 . S
C450 C453 1.348 . S
C450 C454 1.356 . S
C450 O501 1.325 . S
C451 N452 1.279 1_556 S
C451 C454 1.358 . S
C451 H508 0.930 . S
N452 C451 1.279 1_554 S
N452 C455 1.314 . S
C453 C450 1.348 . S
C453 C455 1.353 1_556 S
C453 H509 0.929 . S
C454 C450 1.356 . S
C454 C451 1.358 . S
C454 H510 0.930 . S
C455 N452 1.314 . S
C455 C453 1.353 1_554 S
C455 H511 0.930 . S
C456 N457 1.314 . S
C456 C461 1.353 1_556 S
C456 H462 0.930 1_455 S
N457 Li440 1.990 . S
N457 C456 1.314 . S
N457 C459 1.279 . S
C458 C459 1.358 1_554 S
C458 C460 1.356 . S
C458 H512 0.930 . S
C459 N457 1.279 . S
C459 C458 1.358 1_556 S
C459 H463 0.930 . S
C460 C458 1.356 . S
C460 C461 1.348 . S
C461 C456 1.353 1_554 S
C461 C460 1.348 . S
C461 H513 0.929 1_455 S
H462 C456 0.930 1_655 S
H463 C459 0.930 . S
C464 N465 1.314 . S
C464 C466 1.353 . S
C464 H470 0.930 . S
N465 Li441 1.990 . S
N465 C464 1.314 . S
N465 C468 1.279 . S
C466 C464 1.353 . S
C466 C469 1.348 . S
C466 H514 0.929 . S
C467 C468 1.358 . S
C467 C469 1.356 . S
C467 H515 0.930 . S
C468 N465 1.279 . S
C468 C467 1.358 . S
C468 H471 0.930 . S
C469 C466 1.348 . S
C469 C467 1.356 . S
H470 C464 0.930 . S
H471 C468 0.930 . S
C472 C474 1.348 . S
C472 C475 1.356 . S
C472 O502 1.325 . S
N473 C476 1.314 . S
N473 C477 1.279 . S
C474 C472 1.348 . S
C474 C476 1.353 . S
C474 H516 0.929 . S
C475 C472 1.356 . S
C475 C477 1.358 . S
C475 H517 0.930 . S
C476 N473 1.314 . S
C476 C474 1.353 . S
C476 H518 0.930 . S
C477 N473 1.279 . S
C477 C475 1.358 . S
C477 H519 0.930 . S
C478 C479 1.348 1_455 S
C478 C480 1.356 . S
C478 O503 1.325 . S
C479 C478 1.348 1_655 S
C479 C481 1.353 . S
C479 H520 0.929 . S
C480 C478 1.356 . S
C480 C482 1.358 . S
C480 H521 0.930 . S
C481 C479 1.353 . S
C481 N483 1.314 . S
C481 H522 0.930 . S
C482 C480 1.358 . S
C482 N483 1.279 1_455 S
C482 H523 0.930 . S
N483 C481 1.314 . S
N483 C482 1.279 1_655 S
C484 C486 1.353 . S
C484 N487 1.314 . S
C484 H490 0.930 . S
C485 N487 1.279 1_655 S
C485 C488 1.358 . S
C485 H491 0.930 . S
C486 C484 1.353 . S
C486 C489 1.348 1_455 S
C486 H524 0.929 . S
N487 Li442 1.990 . S
N487 C484 1.314 . S
N487 C485 1.279 1_455 S
C488 C485 1.358 . S
C488 C489 1.356 . S
C488 H525 0.930 . S
C489 C486 1.348 1_655 S
C489 C488 1.356 . S
H490 C484 0.930 . S
H491 C485 0.930 . S
C492 N493 1.314 . S
C492 C494 1.353 . S
C492 H498 0.930 . S
N493 Li443 1.990 . S
N493 C492 1.314 . S
N493 C496 1.279 . S
C494 C492 1.353 . S
C494 C497 1.348 . S
C494 H526 0.929 . S
C495 C496 1.358 . S
C495 C497 1.356 . S
C495 H527 0.930 . S
C496 N493 1.279 . S
C496 C495 1.358 . S
C496 H499 0.930 . S
C497 C494 1.348 . S
C497 C495 1.356 . S
H498 C492 0.930 . S
H499 C496 0.930 . S
O500 Li440 1.956 . S
O500 Li441 1.970 . S
O500 Li442 1.961 . S
O500 C444 1.325 . S
O501 Li440 1.970 . S
O501 Li441 1.956 . S
O501 Li443 1.961 1_455 S
O501 C450 1.325 . S
O502 Li440 1.961 1_655 S
O502 Li442 1.956 1_655 S
O502 Li443 1.970 . S
O502 C472 1.325 . S
O503 Li441 1.961 . S
O503 Li442 1.970 . S
O503 Li443 1.956 1_455 S
O503 C478 1.325 . S
H504 C446 0.929 . S
H505 C447 0.930 . S
H506 C448 0.930 . S
H507 C449 0.930 . S
H508 C451 0.930 . S
H509 C453 0.929 . S
H510 C454 0.930 . S
H511 C455 0.930 . S
H512 C458 0.930 . S
H513 C461 0.929 1_655 S
H514 C466 0.929 . S
H515 C467 0.930 . S
H516 C474 0.929 . S
H517 C475 0.930 . S
H518 C476 0.930 . S
H519 C477 0.930 . S
H520 C479 0.929 . S
H521 C480 0.930 . S
H522 C481 0.930 . S
H523 C482 0.930 . S
H524 C486 0.929 . S
H525 C488 0.930 . S
H526 C494 0.929 . S
H527 C495 0.930 . S
H528 C536 0.950 . S
H529 C541 0.950 1_565 S
H530 C538 0.950 . S
H531 C540 0.950 1_565 S
H532 C542 0.950 1_565 S
H533 C544 0.950 1_565 S
H534 C546 0.950 . S
H535 C547 0.950 . S
C536 H528 0.950 . S
C536 C537 1.386 . S
C536 C538 1.391 . S
C537 C536 1.386 . S
C537 C541 1.393 . S
C538 H530 0.950 . S
C538 C536 1.391 . S
C538 C539 1.400 . S
C539 C538 1.400 . S
C539 C540 1.398 . S
C539 C545 1.491 . S
C540 H531 0.950 1_545 S
C540 C539 1.398 . S
C540 C541 1.391 . S
C541 H529 0.950 1_545 S
C541 C537 1.393 . S
C541 C540 1.391 . S
C542 H532 0.950 1_545 S
C542 C543 1.386 . S
C542 C544 1.391 . S
C543 C542 1.386 . S
C543 C547 1.393 . S
C544 H533 0.950 1_545 S
C544 C542 1.391 . S
C544 C545 1.400 . S
C545 C539 1.491 . S
C545 C544 1.400 . S
C545 C546 1.398 . S
C546 H534 0.950 . S
C546 C545 1.398 . S
C546 C547 1.391 . S
C547 H535 0.950 . S
C547 C543 1.393 . S
C547 C546 1.391 . S
H548 C556 0.950 . S
H549 C561 0.950 . S
H550 C558 0.950 . S
H551 C560 0.950 . S
H552 C562 0.950 . S
H553 C564 0.950 . S
H554 C566 0.950 . S
H555 C567 0.950 . S
C556 H548 0.950 . S
C556 C557 1.386 . S
C556 C558 1.391 . S
C557 C556 1.386 . S
C557 C561 1.393 . S
C558 H550 0.950 . S
C558 C556 1.391 . S
C558 C559 1.400 . S
C559 C558 1.400 . S
C559 C560 1.398 . S
C559 C565 1.491 . S
C560 H551 0.950 . S
C560 C559 1.398 . S
C560 C561 1.391 . S
C561 H549 0.950 . S
C561 C557 1.393 . S
C561 C560 1.391 . S
C562 H552 0.950 . S
C562 C563 1.386 . S
C562 C564 1.391 . S
C563 C562 1.386 . S
C563 C567 1.393 . S
C564 H553 0.950 . S
C564 C562 1.391 . S
C564 C565 1.400 . S
C565 C559 1.491 . S
C565 C564 1.400 . S
C565 C566 1.398 . S
C566 H554 0.950 . S
C566 C565 1.398 . S
C566 C567 1.391 . S
C567 H555 0.950 . S
C567 C563 1.393 . S
C567 C566 1.391 . S
H568 C576 0.950 . S
H569 C581 0.950 . S
H570 C578 0.950 . S
H571 C580 0.950 . S
H572 C582 0.950 . S
H573 C584 0.950 . S
H574 C586 0.950 . S
H575 C587 0.950 . S
C576 H568 0.950 . S
C576 C577 1.386 1_455 S
C576 C578 1.391 . S
C577 C576 1.386 1_655 S
C577 C581 1.393 . S
C578 H570 0.950 . S
C578 C576 1.391 . S
C578 C579 1.400 1_455 S
C579 C578 1.400 1_655 S
C579 C580 1.398 . S
C579 C585 1.491 . S
C580 H571 0.950 . S
C580 C579 1.398 . S
C580 C581 1.391 . S
C581 H569 0.950 . S
C581 C577 1.393 . S
C581 C580 1.391 . S
C582 H572 0.950 . S
C582 C583 1.386 . S
C582 C584 1.391 . S
C583 C582 1.386 . S
C583 C587 1.393 1_655 S
C584 H573 0.950 . S
C584 C582 1.391 . S
C584 C585 1.400 . S
C585 C579 1.491 . S
C585 C584 1.400 . S
C585 C586 1.398 1_655 S
C586 H574 0.950 . S
C586 C585 1.398 1_455 S
C586 C587 1.391 . S
C587 H575 0.950 . S
C587 C583 1.393 1_455 S
C587 C586 1.391 . S
H588 C596 0.950 . S
H589 C601 0.950 . S
H590 C598 0.950 . S
H591 C600 0.950 . S
H592 C602 0.950 . S
H593 C604 0.950 . S
H594 C606 0.950 . S
H595 C607 0.950 . S
C596 H588 0.950 . S
C596 C597 1.386 . S
C596 C598 1.391 . S
C597 C596 1.386 . S
C597 C601 1.393 1_565 S
C598 H590 0.950 . S
C598 C596 1.391 . S
C598 C599 1.400 . S
C599 C598 1.400 . S
C599 C600 1.398 1_565 S
C599 C605 1.491 . S
C600 H591 0.950 . S
C600 C599 1.398 1_545 S
C600 C601 1.391 . S
C601 H589 0.950 . S
C601 C597 1.393 1_545 S
C601 C600 1.391 . S
C602 H592 0.950 . S
C602 C603 1.386 1_545 S
C602 C604 1.391 . S
C603 C602 1.386 1_565 S
C603 C607 1.393 . S
C604 H593 0.950 . S
C604 C602 1.391 . S
C604 C605 1.400 1_545 S
C605 C599 1.491 . S
C605 C604 1.400 1_565 S
C605 C606 1.398 . S
C606 H594 0.950 . S
C606 C605 1.398 . S
C606 C607 1.391 . S
C607 H595 0.950 . S
C607 C603 1.393 . S
C607 C606 1.391 . S
H608 C616 0.950 . S
H609 C621 0.950 . S
H610 C618 0.950 . S
H611 C620 0.950 . S
H612 C622 0.950 . S
H613 C624 0.950 . S
H614 C626 0.950 . S
H615 C627 0.950 . S
C616 H608 0.950 . S
C616 C617 1.386 . S
C616 C618 1.391 . S
C617 C616 1.386 . S
C617 C621 1.393 . S
C618 H610 0.950 . S
C618 C616 1.391 . S
C618 C619 1.400 1_554 S
C619 C618 1.400 1_556 S
C619 C620 1.398 . S
C619 C625 1.491 . S
C620 H611 0.950 . S
C620 C619 1.398 . S
C620 C621 1.391 1_556 S
C621 H609 0.950 . S
C621 C617 1.393 . S
C621 C620 1.391 1_554 S
C622 H612 0.950 . S
C622 C623 1.386 . S
C622 C624 1.391 . S
C623 C622 1.386 . S
C623 C627 1.393 . S
C624 H613 0.950 . S
C624 C622 1.391 . S
C624 C625 1.400 . S
C625 C619 1.491 . S
C625 C624 1.400 . S
C625 C626 1.398 . S
C626 H614 0.950 . S
C626 C625 1.398 . S
C626 C627 1.391 . S
C627 H615 0.950 . S
C627 C623 1.393 . S
C627 C626 1.391 . S
H628 C636 0.950 . S
H629 C641 0.950 1_655 S
H630 C638 0.950 . S
H631 C640 0.950 1_655 S
H632 C642 0.950 1_655 S
H633 C644 0.950 1_655 S
H634 C646 0.950 . S
H635 C647 0.950 . S
C636 H628 0.950 . S
C636 C637 1.386 . S
C636 C638 1.391 . S
C637 C636 1.386 . S
C637 C641 1.393 . S
C638 H630 0.950 . S
C638 C636 1.391 . S
C638 C639 1.400 . S
C639 C638 1.400 . S
C639 C640 1.398 . S
C639 C645 1.491 . S
C640 H631 0.950 1_455 S
C640 C639 1.398 . S
C640 C641 1.391 . S
C641 H629 0.950 1_455 S
C641 C637 1.393 . S
C641 C640 1.391 . S
C642 H632 0.950 1_455 S
C642 C643 1.386 . S
C642 C644 1.391 . S
C643 C642 1.386 . S
C643 C647 1.393 . S
C644 H633 0.950 1_455 S
C644 C642 1.391 . S
C644 C645 1.400 . S
C645 C639 1.491 . S
C645 C644 1.400 . S
C645 C646 1.398 . S
C646 H634 0.950 . S
C646 C645 1.398 . S
C646 C647 1.391 . S
C647 H635 0.950 . S
C647 C643 1.393 . S
C647 C646 1.391 . S
H648 C656 0.950 . S
H649 C661 0.950 . S
H650 C658 0.950 . S
H651 C660 0.950 . S
H652 C662 0.950 . S
H653 C664 0.950 . S
H654 C666 0.950 . S
H655 C667 0.950 . S
C656 H648 0.950 . S
C656 C657 1.386 . S
C656 C658 1.391 . S
C657 C656 1.386 . S
C657 C661 1.393 . S
C658 H650 0.950 . S
C658 C656 1.391 . S
C658 C659 1.400 . S
C659 C658 1.400 . S
C659 C660 1.398 . S
C659 C665 1.491 . S
C660 H651 0.950 . S
C660 C659 1.398 . S
C660 C661 1.391 . S
C661 H649 0.950 . S
C661 C657 1.393 . S
C661 C660 1.391 . S
C662 H652 0.950 . S
C662 C663 1.386 . S
C662 C664 1.391 . S
C663 C662 1.386 . S
C663 C667 1.393 . S
C664 H653 0.950 . S
C664 C662 1.391 . S
C664 C665 1.400 . S
C665 C659 1.491 . S
C665 C664 1.400 . S
C665 C666 1.398 . S
C666 H654 0.950 . S
C666 C665 1.398 . S
C666 C667 1.391 . S
C667 H655 0.950 . S
C667 C663 1.393 . S
C667 C666 1.391 . S
H668 C676 0.950 . S
H669 C681 0.950 . S
H670 C678 0.950 . S
H671 C680 0.950 . S
H672 C682 0.950 . S
H673 C684 0.950 . S
H674 C686 0.950 . S
H675 C687 0.950 . S
C676 H668 0.950 . S
C676 C677 1.386 . S
C676 C678 1.391 . S
C677 C676 1.386 . S
C677 C681 1.393 . S
C678 H670 0.950 . S
C678 C676 1.391 . S
C678 C679 1.400 . S
C679 C678 1.400 . S
C679 C680 1.398 . S
C679 C685 1.491 . S
C680 H671 0.950 . S
C680 C679 1.398 . S
C680 C681 1.391 . S
C681 H669 0.950 . S
C681 C677 1.393 . S
C681 C680 1.391 . S
C682 H672 0.950 . S
C682 C683 1.386 . S
C682 C684 1.391 . S
C683 C682 1.386 . S
C683 C687 1.393 . S
C684 H673 0.950 . S
C684 C682 1.391 . S
C684 C685 1.400 . S
C685 C679 1.491 . S
C685 C684 1.400 . S
C685 C686 1.398 . S
C686 H674 0.950 . S
C686 C685 1.398 . S
C686 C687 1.391 . S
C687 H675 0.950 . S
C687 C683 1.393 . S
C687 C686 1.391 . S
H688 C696 0.950 . S
H689 C701 0.950 . S
H690 C698 0.950 . S
H691 C700 0.950 . S
H692 C702 0.950 . S
H693 C704 0.950 . S
H694 C706 0.950 . S
H695 C707 0.950 . S
C696 H688 0.950 . S
C696 C697 1.386 . S
C696 C698 1.391 . S
C697 C696 1.386 . S
C697 C701 1.393 . S
C698 H690 0.950 . S
C698 C696 1.391 . S
C698 C699 1.400 . S
C699 C698 1.400 . S
C699 C700 1.398 . S
C699 C705 1.491 . S
C700 H691 0.950 . S
C700 C699 1.398 . S
C700 C701 1.391 . S
C701 H689 0.950 . S
C701 C697 1.393 . S
C701 C700 1.391 . S
C702 H692 0.950 . S
C702 C703 1.386 . S
C702 C704 1.391 . S
C703 C702 1.386 . S
C703 C707 1.393 . S
C704 H693 0.950 . S
C704 C702 1.391 . S
C704 C705 1.400 . S
C705 C699 1.491 . S
C705 C704 1.400 . S
C705 C706 1.398 . S
C706 H694 0.950 . S
C706 C705 1.398 . S
C706 C707 1.391 . S
C707 H695 0.950 . S
C707 C703 1.393 . S
C707 C706 1.391 . S
H708 C716 0.950 . S
H709 C721 0.950 . S
H710 C718 0.950 . S
H711 C720 0.950 . S
H712 C722 0.950 . S
H713 C724 0.950 . S
H714 C726 0.950 . S
H715 C727 0.950 . S
C716 H708 0.950 . S
C716 C717 1.386 . S
C716 C718 1.391 . S
C717 C716 1.386 . S
C717 C721 1.393 . S
C718 H710 0.950 . S
C718 C716 1.391 . S
C718 C719 1.400 . S
C719 C718 1.400 . S
C719 C720 1.398 . S
C719 C725 1.491 . S
C720 H711 0.950 . S
C720 C719 1.398 . S
C720 C721 1.391 . S
C721 H709 0.950 . S
C721 C717 1.393 . S
C721 C720 1.391 . S
C722 H712 0.950 . S
C722 C723 1.386 . S
C722 C724 1.391 . S
C723 C722 1.386 . S
C723 C727 1.393 . S
C724 H713 0.950 . S
C724 C722 1.391 . S
C724 C725 1.400 . S
C725 C719 1.491 . S
C725 C724 1.400 . S
C725 C726 1.398 . S
C726 H714 0.950 . S
C726 C725 1.398 . S
C726 C727 1.391 . S
C727 H715 0.950 . S
C727 C723 1.393 . S
C727 C726 1.391 . S
H728 C736 0.950 . S
H729 C741 0.950 . S
H730 C738 0.950 . S
H731 C740 0.950 . S
H732 C742 0.950 . S
H733 C744 0.950 . S
H734 C746 0.950 . S
H735 C747 0.950 . S
C736 H728 0.950 . S
C736 C737 1.386 . S
C736 C738 1.391 . S
C737 C736 1.386 . S
C737 C741 1.393 . S
C738 H730 0.950 . S
C738 C736 1.391 . S
C738 C739 1.400 . S
C739 C738 1.400 . S
C739 C740 1.398 . S
C739 C745 1.491 . S
C740 H731 0.950 . S
C740 C739 1.398 . S
C740 C741 1.391 . S
C741 H729 0.950 . S
C741 C737 1.393 . S
C741 C740 1.391 . S
C742 H732 0.950 . S
C742 C743 1.386 . S
C742 C744 1.391 . S
C743 C742 1.386 . S
C743 C747 1.393 . S
C744 H733 0.950 . S
C744 C742 1.391 . S
C744 C745 1.400 . S
C745 C739 1.491 . S
C745 C744 1.400 . S
C745 C746 1.398 . S
C746 H734 0.950 . S
C746 C745 1.398 . S
C746 C747 1.391 . S
C747 H735 0.950 . S
C747 C743 1.393 . S
C747 C746 1.391 . S
H748 C756 0.950 . S
H749 C761 0.950 . S
H750 C758 0.950 . S
H751 C760 0.950 . S
H752 C762 0.950 . S
H753 C764 0.950 . S
H754 C766 0.950 . S
H755 C767 0.950 . S
C756 H748 0.950 . S
C756 C757 1.386 . S
C756 C758 1.391 . S
C757 C756 1.386 . S
C757 C761 1.393 . S
C758 H750 0.950 . S
C758 C756 1.391 . S
C758 C759 1.400 . S
C759 C758 1.400 . S
C759 C760 1.398 . S
C759 C765 1.491 . S
C760 H751 0.950 . S
C760 C759 1.398 . S
C760 C761 1.391 . S
C761 H749 0.950 . S
C761 C757 1.393 . S
C761 C760 1.391 . S
C762 H752 0.950 . S
C762 C763 1.386 . S
C762 C764 1.391 1_554 S
C763 C762 1.386 . S
C763 C767 1.393 . S
C764 H753 0.950 . S
C764 C762 1.391 1_556 S
C764 C765 1.400 . S
C765 C759 1.491 . S
C765 C764 1.400 . S
C765 C766 1.398 . S
C766 H754 0.950 . S
C766 C765 1.398 . S
C766 C767 1.391 1_556 S
C767 H755 0.950 . S
C767 C763 1.393 . S
C767 C766 1.391 1_554 S
C537 C29 1.286 . S
C543 C313 1.283 . S
C557 C117 1.286 . S
C563 C401 1.292 . S
C577 C489 1.297 . S
C583 C205 1.292 . S
C597 C57 1.285 . S
C603 C284 1.284 . S
C617 C145 1.295 . S
C623 C372 1.298 . S
C637 C460 1.286 . S
C643 C233 1.283 . S
C657 C108 1.498 . S
C663 C49 1.496 . S
C677 C196 1.486 . S
C683 C137 1.489 . S
C697 C225 1.482 . S
C703 C293 1.481 . S
C717 C381 1.488 . S
C723 C321 1.491 . S
C737 C469 1.495 . S
C743 C409 1.497 . S
C757 C497 1.498 . S
C763 C20 1.497 . S
