# Generated by pormake.
# Topology ilc, (8)-cn, num edge types: 1
# Building blocks:
#     Node 0, Type 0, BuildingBlock: HISSIN_clean_sbu_1, # of connection points: 8
#     Node 1, Type 0, BuildingBlock: HISSIN_clean_sbu_1, # of connection points: 8
#     Node 2, Type 0, BuildingBlock: HISSIN_clean_sbu_1, # of connection points: 8
#     Edge 3, Type (0, 0), BuildingBlock: FUNLAD_clean_linker_1, # of connection points: 2
#     Edge 4, Type (0, 0), BuildingBlock: FUNLAD_clean_linker_1, # of connection points: 2
#     Edge 5, Type (0, 0), BuildingBlock: FUNLAD_clean_linker_1, # of connection points: 2
#     Edge 6, Type (0, 0), BuildingBlock: FUNLAD_clean_linker_1, # of connection points: 2
#     Edge 7, Type (0, 0), BuildingBlock: FUNLAD_clean_linker_1, # of connection points: 2
#     Edge 8, Type (0, 0), BuildingBlock: FUNLAD_clean_linker_1, # of connection points: 2
#     Edge 9, Type (0, 0), BuildingBlock: FUNLAD_clean_linker_1, # of connection points: 2
#     Edge 10, Type (0, 0), BuildingBlock: FUNLAD_clean_linker_1, # of connection points: 2
#     Edge 11, Type (0, 0), BuildingBlock: FUNLAD_clean_linker_1, # of connection points: 2
#     Edge 12, Type (0, 0), BuildingBlock: FUNLAD_clean_linker_1, # of connection points: 2
#     Edge 13, Type (0, 0), BuildingBlock: FUNLAD_clean_linker_1, # of connection points: 2
#     Edge 14, Type (0, 0), BuildingBlock: FUNLAD_clean_linker_1, # of connection points: 2
# Relax obj value: 0.161
# Max RMSD: 0.202
# Mean RMSD: 0.202
data_MOF--net-ilc--node1-HISSIN_clean_sbu_1--edge1-FUNLAD_clean_linker_1
_symmetry_space_group_name_H-M    P1
_symmetry_Int_Tables_number       1
_symmetry_cell_setting            triclinic
loop_
_symmetry_equiv_pos_as_xyz
'x, y, z'
_cell_length_a     23.233789
_cell_length_b     32.26721
_cell_length_c     19.863348
_cell_angle_alpha  101.44864
_cell_angle_beta   75.741822
_cell_angle_gamma 141.6753
loop_
_atom_site_label
_atom_site_type_symbol
_atom_site_fract_x
_atom_site_fract_y
_atom_site_fract_z
_atom_type_partial_charge
Eu0 Eu 0.92999 0.97001 0.9213 0.0
C1 C 0.14242 0.0769 0.94334 0.0
O2 O 0.92145 0.91291 0.82796 0.0
C3 C 0.14248 1.00391 0.20645 0.0
C4 C 0.19435 1.01225 0.32634 0.0
C5 C 0.19167 0.06046 0.24999 0.0
C6 C 0.21669 0.06445 0.31052 0.0
C7 C 0.11844 0.95103 0.22373 0.0
C8 C 0.14504 0.95504 0.2836 0.0
Eu9 Eu 0.11533 0.07242 0.10317 0.0
O10 O 0.84784 0.92343 0.02757 0.0
O11 O 0.18069 0.15817 0.17891 0.0
O12 O 0.19443 0.11211 0.9935 0.0
O13 O 0.9812 0.01928 0.07094 0.0
C14 C 0.1478 0.17878 0.19872 0.0
O15 O 0.07503 0.14948 0.17342 0.0
O16 O 0.04056 0.98593 0.15938 0.0
C17 C 0.112 0.99918 0.14543 0.0
C18 C 0.8672 0.84981 0.8325 0.0
O19 O 0.81406 0.81854 0.89171 0.0
O20 O 0.17945 0.04687 0.09937 0.0
O21 O 0.05519 0.01839 0.96032 0.0
C22 C 0.94185 0.05199 0.89312 0.0
O23 O 1.00876 0.07114 0.9158 0.0
C24 C 0.97116 0.09076 0.83522 0.0
C25 C 0.02822 0.16841 0.73086 0.0
C26 C 0.06514 0.14079 0.80191 0.0
C27 C 0.09352 0.17941 0.74927 0.0
C28 C 0.9057 0.07947 0.81441 0.0
C29 C 0.93369 0.11719 0.76062 0.0
C30 C 0.89497 0.95672 0.08097 0.0
O31 O 0.8642 0.98652 0.89209 0.0
H32 H 0.21013 1.01473 0.37499 0.0
H33 H 0.20843 0.10052 0.23745 0.0
H34 H 0.07857 0.90672 0.19097 0.0
H35 H 0.05122 0.19874 0.69051 0.0
H36 H 0.11598 0.14938 0.81622 0.0
H37 H 0.83319 0.04102 0.8393 0.0
Eu38 Eu 0.59492 0.28283 0.29021 0.0
C39 C 0.81422 0.42638 0.25591 0.0
O40 O 0.55322 0.20633 0.2078 0.0
C41 C 0.71109 0.28272 0.47728 0.0
C42 C 0.60377 0.17217 0.55728 0.0
C43 C 0.63639 0.25866 0.52778 0.0
C44 C 0.58365 0.20426 0.5689 0.0
C45 C 0.7369 0.25446 0.4709 0.0
C46 C 0.68539 0.20056 0.51336 0.0
Eu47 Eu 0.73009 0.39589 0.41373 0.0
O48 O 0.53341 0.2364 0.39569 0.0
O49 O 0.76366 0.46677 0.50068 0.0
O50 O 0.81059 0.45259 0.31402 0.0
O51 O 0.5764 0.32529 0.44522 0.0
C52 C 0.79793 0.52242 0.48979 0.0
O53 O 0.8215 0.54134 0.42585 0.0
O54 O 0.71861 0.32121 0.38323 0.0
C55 C 0.76238 0.33835 0.43318 0.0
C56 C 0.60592 0.2015 0.18348 0.0
O57 O 0.68378 0.24079 0.20867 0.0
O58 O 0.79973 0.39344 0.46586 0.0
O59 O 0.74956 0.36107 0.24656 0.0
C60 C 0.53449 0.31943 0.26652 0.0
O61 O 0.61743 0.362 0.28477 0.0
C62 C 0.53345 0.33322 0.20068 0.0
C63 C 0.52897 0.35517 0.07391 0.0
C64 C 0.52091 0.29602 0.14131 0.0
C65 C 0.51594 0.30545 0.07853 0.0
C66 C 0.54692 0.3835 0.19555 0.0
C67 C 0.54786 0.39616 0.13105 0.0
C68 C 0.51987 0.26171 0.4468 0.0
O69 O 0.48017 0.25687 0.2748 0.0
H70 H 0.55964 0.12807 0.58703 0.0
H71 H 0.62292 0.28491 0.53765 0.0
H72 H 0.79877 0.27602 0.43532 0.0
H73 H 0.52585 0.36286 0.02501 0.0
H74 H 0.51353 0.25874 0.14404 0.0
H75 H 0.55843 0.41324 0.24083 0.0
Eu76 Eu 0.32069 0.64272 0.62432 0.0
C77 C 0.54102 0.78248 0.57894 0.0
O78 O 0.27105 0.56007 0.54903 0.0
C79 C 0.52352 0.69786 0.83351 0.0
C80 C 0.48114 0.64274 0.95573 0.0
C81 C 0.46692 0.69002 0.89169 0.0
C82 C 0.44511 0.6618 0.95224 0.0
C83 C 0.56019 0.67858 0.83718 0.0
C84 C 0.54054 0.65213 0.89937 0.0
Eu85 Eu 0.49124 0.76875 0.74391 0.0
O86 O 0.2801 0.6071 0.73224 0.0
O87 O 0.54269 0.85168 0.81911 0.0
O88 O 0.54745 0.81194 0.63804 0.0
O89 O 0.3423 0.70033 0.79394 0.0
C90 C 0.52203 0.8796 0.81848 0.0
O91 O 0.47234 0.86002 0.77216 0.0
O92 O 0.47388 0.69113 0.73712 0.0
C93 C 0.54503 0.72802 0.77065 0.0
C94 C 0.3052 0.54064 0.54195 0.0
O95 O 0.36859 0.56926 0.5799 0.0
O96 O 0.59476 0.79043 0.77843 0.0
O97 O 0.47092 0.71697 0.57035 0.0
C98 C 0.24027 0.66614 0.60697 0.0
O99 O 0.33129 0.71371 0.60634 0.0
C100 C 0.20794 0.66237 0.54789 0.0
C101 C 0.12907 0.64284 0.44079 0.0
C102 C 0.18881 0.62134 0.49056 0.0
C103 C 0.14955 0.6117 0.43708 0.0
C104 C 0.19169 0.69659 0.54932 0.0
C105 C 0.15207 0.68701 0.4954 0.0
C106 C 0.27718 0.63517 0.78829 0.0
O107 O 0.19452 0.60834 0.62591 0.0
H108 H 0.46198 0.62012 1.00319 0.0
H109 H 0.43939 0.70542 0.88964 0.0
H110 H 0.60457 0.68506 0.79265 0.0
H111 H 0.1029 0.63697 0.39713 0.0
H112 H 0.20425 0.5968 0.48758 0.0
H113 H 0.20945 0.73022 0.59213 0.0
H114 H 0.20299 0.2579 0.67245 0.0
C115 C 0.18557 0.22435 0.7039 0.0
H116 H 0.20315 0.17084 0.70741 0.0
H117 H 0.06546 0.02374 0.42808 0.0
H118 H 0.94341 0.93522 0.51233 0.0
H119 H 0.94372 0.96081 0.63785 0.0
H120 H 0.06518 0.07428 0.6795 0.0
C121 C 0.21639 0.20214 0.67592 0.0
C122 C 0.21764 0.188 0.59984 0.0
C123 C 0.14461 0.12048 0.57663 0.0
C124 C 0.14426 0.10555 0.50448 0.0
C125 C 0.07024 0.03792 0.48242 0.0
C126 C 0.9992 0.9865 0.53022 0.0
C127 C 0.99936 1.00091 0.60078 0.0
C128 C 0.07044 0.06681 0.62399 0.0
H129 H 0.29401 0.1271 0.39891 0.0
C130 C 0.25603 0.11801 0.36322 0.0
H131 H 0.17862 0.12718 0.35062 0.0
H132 H 0.36323 0.32282 0.62614 0.0
H133 H 0.48073 0.41099 0.54032 0.0
H134 H 0.47946 0.38401 0.41495 0.0
H135 H 0.35953 0.2684 0.37462 0.0
C136 C 0.22329 0.13976 0.38176 0.0
C137 C 0.21741 0.15772 0.45573 0.0
C138 C 0.28682 0.22508 0.47835 0.0
C139 C 0.2868 0.24045 0.55065 0.0
C140 C 0.35813 0.30832 0.5719 0.0
C141 C 0.42652 0.35936 0.52316 0.0
C142 C 0.42601 0.34417 0.45255 0.0
C143 C 0.35722 0.27781 0.43008 0.0
H144 H 0.49337 0.206 0.6336 0.0
C145 C 0.52244 0.19123 0.63245 0.0
H146 H 0.55988 0.1705 0.69453 0.0
H147 H 0.59425 0.36621 0.9115 0.0
H148 H 0.71778 0.45187 0.82483 0.0
H149 H 0.74899 0.42369 0.70833 0.0
H150 H 0.65687 0.31034 0.67812 0.0
C151 C 0.52668 0.18169 0.69299 0.0
C152 C 0.50391 0.19852 0.76042 0.0
C153 C 0.56214 0.26636 0.77757 0.0
C154 C 0.54647 0.28305 0.8452 0.0
C155 C 0.60367 0.35071 0.86107 0.0
C156 C 0.67516 0.40056 0.81182 0.0
C157 C 0.69248 0.38466 0.74626 0.0
C158 C 0.63773 0.31873 0.72931 0.0
H159 H 0.53831 0.25482 1.00989 0.0
C160 C 0.5047 0.26686 0.01642 0.0
H161 H 0.42511 0.26148 0.972 0.0
H162 H 0.37598 0.06394 0.74198 0.0
H163 H 0.25174 0.97836 0.82961 0.0
H164 H 0.23054 1.00868 0.94917 0.0
H165 H 0.3331 0.12471 0.98161 0.0
C166 C 0.46084 0.25123 0.96598 0.0
C167 C 0.47596 0.23265 0.896 0.0
C168 C 0.41811 0.16518 0.87904 0.0
C169 C 0.43111 0.14792 0.8106 0.0
C170 C 0.36997 0.07981 0.79376 0.0
C171 C 0.29827 0.03026 0.84344 0.0
C172 C 0.28627 0.04731 0.91073 0.0
C173 C 0.34553 0.11398 0.9287 0.0
H174 H 0.42211 0.69885 0.04556 0.0
C175 C 0.38812 0.6543 0.01441 0.0
H176 H 0.27551 0.5505 1.0063 0.0
H177 H 0.173 0.49473 0.32514 0.0
H178 H 0.15966 0.41348 0.27084 0.0
H179 H 0.19318 0.4092 0.14348 0.0
H180 H 0.23937 0.48502 0.06992 0.0
C181 C 0.30423 0.59316 0.03868 0.0
C182 C 0.26004 0.5829 0.11239 0.0
C183 C 0.23275 0.53725 0.15431 0.0
C184 C 0.21414 0.53986 0.22783 0.0
C185 C 0.18807 0.49471 0.26905 0.0
C186 C 0.18008 0.44787 0.23859 0.0
C187 C 0.19903 0.44551 0.16691 0.0
C188 C 0.2258 0.48979 0.12508 0.0
H189 H 0.08176 0.54896 0.34525 0.0
C190 C 0.14047 0.57699 0.37175 0.0
H191 H 0.27794 0.62867 0.35886 0.0
H192 H 0.27392 0.65792 0.04675 0.0
H193 H 0.28397 0.73756 0.10082 0.0
H194 H 0.27603 0.75447 0.22802 0.0
H195 H 0.24908 0.68775 0.30154 0.0
C196 C 0.21538 0.59642 0.33537 0.0
C197 C 0.22352 0.58802 0.25885 0.0
C198 C 0.24344 0.62989 0.2168 0.0
C199 C 0.25675 0.62469 0.14345 0.0
C200 C 0.26835 0.6627 0.1026 0.0
C201 C 0.27388 0.70833 0.13302 0.0
C202 C 0.2685 0.71737 0.20457 0.0
C203 C 0.25281 0.67849 0.24627 0.0
H204 H 0.20176 0.78093 0.50749 0.0
C205 C 0.14631 0.72919 0.49015 0.0
H206 H 0.02511 0.65561 0.44114 0.0
H207 H 0.09921 0.9035 0.47078 0.0
H208 H 0.0577 0.88475 0.59509 0.0
H209 H 0.04456 0.81324 0.64493 0.0
H210 H 0.06074 0.75274 0.57021 0.0
C211 C 0.08225 0.70777 0.45655 0.0
C212 C 0.09511 0.75459 0.42812 0.0
C213 C 0.09134 0.79273 0.47279 0.0
C214 C 0.10487 0.83749 0.44429 0.0
C215 C 0.09317 0.87087 0.48984 0.0
C216 C 0.06993 0.86095 0.56128 0.0
C217 C 0.0613 0.8199 0.58927 0.0
C218 C 0.07146 0.78585 0.54579 0.0
H219 H 0.05281 0.84769 0.28546 0.0
C220 C 0.11485 0.8973 0.30392 0.0
H221 H 0.2243 0.95357 0.36229 0.0
H222 H 0.08982 0.68039 0.32649 0.0
H223 H 0.11477 0.69056 0.20241 0.0
H224 H 0.15433 0.77633 0.1537 0.0
H225 H 0.16513 0.85043 0.22895 0.0
C226 C 0.1613 0.90439 0.34429 0.0
C227 C 0.12751 0.8471 0.37142 0.0
C228 C 0.12695 0.80673 0.32653 0.0
C229 C 0.10788 0.75903 0.35488 0.0
C230 C 0.10436 0.71771 0.30852 0.0
C231 C 0.11914 0.72325 0.23687 0.0
C232 C 0.14119 0.77141 0.20944 0.0
C233 C 0.14635 0.81335 0.25343 0.0
H234 H 0.22195 0.46667 0.45943 0.0
C235 C 0.27378 0.48826 0.49006 0.0
H236 H 0.35834 0.48768 0.51012 0.0
H237 H 0.11091 0.19793 0.38366 0.0
H238 H 0.0892 0.1811 0.50529 0.0
H239 H 0.15244 0.27093 0.59145 0.0
H240 H 0.23671 0.37769 0.55708 0.0
C241 C 0.30826 0.46772 0.47869 0.0
C242 C 0.27671 0.41545 0.42531 0.0
C243 C 0.22759 0.35313 0.44621 0.0
C244 C 0.19215 0.30157 0.39611 0.0
C245 C 0.14093 0.23925 0.41903 0.0
C246 C 0.1275 0.22875 0.48881 0.0
C247 C 0.16301 0.27927 0.53739 0.0
C248 C 0.21163 0.34051 0.51683 0.0
H249 H 0.25053 0.255 0.27119 0.0
C250 C 0.19223 0.23376 0.25038 0.0
H251 H 0.10606 0.23808 0.2508 0.0
H252 H 0.38611 0.53364 0.3656 0.0
H253 H 0.42224 0.5544 0.24269 0.0
H254 H 0.36052 0.46528 0.15618 0.0
H255 H 0.26107 0.35415 0.19188 0.0
C256 C 0.1622 0.25733 0.27282 0.0
C257 C 0.20736 0.31288 0.32487 0.0
C258 C 0.26246 0.3768 0.30341 0.0
C259 C 0.2976 0.42822 0.35353 0.0
C260 C 0.3555 0.49225 0.33013 0.0
C261 C 0.37763 0.50508 0.25961 0.0
C262 C 0.34285 0.45483 0.21083 0.0
C263 C 0.28549 0.39125 0.23211 0.0
H264 H 0.68326 0.87697 0.53302 0.0
C265 C 0.6178 0.8256 0.52111 0.0
H266 H 0.54277 0.75303 0.44259 0.0
H267 H 0.88602 0.03843 0.26566 0.0
H268 H 0.831 0.07385 0.34104 0.0
H269 H 0.70474 1.00472 0.44008 0.0
H270 H 0.63391 0.9005 0.4646 0.0
C271 C 0.60774 0.80449 0.45477 0.0
C272 C 0.68569 0.84822 0.39634 0.0
C273 C 0.72361 0.90799 0.38106 0.0
C274 C 0.79412 0.94671 0.32238 0.0
C275 C 0.83192 1.0067 0.30902 0.0
C276 C 0.80081 0.02766 0.35185 0.0
C277 C 0.72994 0.98885 0.40768 0.0
C278 C 0.69068 0.92931 0.42175 0.0
H279 H 0.77915 0.87129 0.15102 0.0
C280 C 0.84836 0.92394 0.14912 0.0
H281 H 0.94906 1.01063 0.20785 0.0
H282 H 0.63636 0.74102 0.41557 0.0
H283 H 0.69677 0.70846 0.3429 0.0
H284 H 0.81659 0.77447 0.23997 0.0
H285 H 0.87616 0.8731 0.20924 0.0
C286 C 0.88219 0.95728 0.20878 0.0
C287 C 0.82289 0.92383 0.27708 0.0
C288 C 0.78877 0.86618 0.29457 0.0
C289 C 0.7201 0.82837 0.35413 0.0
C290 C 0.68773 0.77125 0.37051 0.0
C291 C 0.72214 0.75211 0.32942 0.0
C292 C 0.78952 0.78923 0.2715 0.0
C293 C 0.82279 0.84564 0.25416 0.0
H294 H 0.77334 0.19097 0.47598 0.0
C295 C 0.72334 0.18 0.51864 0.0
H296 H 0.66199 0.14908 0.62378 0.0
H297 H 0.71292 0.9917 0.65477 0.0
H298 H 0.55494 0.89802 0.62486 0.0
H299 H 0.48679 0.91679 0.58015 0.0
H300 H 0.5764 0.0295 0.56421 0.0
C301 C 0.70726 0.1569 0.57891 0.0
C302 C 0.75481 0.1459 0.59159 0.0
C303 C 0.7015 0.0799 0.60105 0.0
C304 C 0.74066 0.06901 0.62703 0.0
C305 C 0.68624 1.00263 0.63538 0.0
C306 C 0.59561 0.94849 0.61847 0.0
C307 C 0.55717 0.95907 0.5933 0.0
C308 C 0.6091 0.02391 0.58469 0.0
H309 H 0.81259 0.0939 0.77276 0.0
C310 C 0.86633 0.10522 0.73534 0.0
H311 H 0.92841 0.12337 0.62988 0.0
H312 H 0.87724 0.27923 0.57825 0.0
H313 H 0.0368 0.37241 0.60327 0.0
H314 H 0.10507 0.35355 0.64764 0.0
H315 H 1.01376 0.24146 0.66748 0.0
C316 C 0.87662 0.11401 0.66783 0.0
C317 C 0.83289 0.12425 0.6437 0.0
C318 C 0.88746 0.19032 0.63199 0.0
C319 C 0.8483 0.2012 0.60611 0.0
C320 C 0.90357 0.26778 0.59684 0.0
C321 C 0.9954 0.32192 0.61121 0.0
C322 C 0.03385 0.31132 0.63613 0.0
C323 C 0.9807 0.24652 0.64691 0.0
H324 H 0.75949 0.53308 0.59923 0.0
C325 C 0.79949 0.55874 0.54973 0.0
H326 H 0.8849 0.64569 0.49476 0.0
H327 H 0.75727 0.7515 0.67727 0.0
H328 H 0.72212 0.73738 0.564 0.0
H329 H 0.73899 0.68488 0.46757 0.0
H330 H 0.79025 0.64569 0.48396 0.0
C331 C 0.84587 0.62069 0.54459 0.0
C332 C 0.83919 0.65465 0.60338 0.0
C333 C 0.80986 0.67812 0.59282 0.0
C334 C 0.80156 0.70955 0.64824 0.0
C335 C 0.76829 0.72968 0.63663 0.0
C336 C 0.74689 0.72128 0.57192 0.0
C337 C 0.75628 0.69165 0.51767 0.0
C338 C 0.78646 0.6697 0.52782 0.0
H339 H 0.92015 0.84531 0.72586 0.0
C340 C 0.87022 0.81595 0.77206 0.0
H341 H 0.76717 0.72211 0.81986 0.0
H342 H 0.91658 0.62929 0.63887 0.0
H343 H 0.95207 0.64394 0.75209 0.0
H344 H 0.92871 0.69222 0.84959 0.0
H345 H 0.87167 0.72741 0.83365 0.0
C346 C 0.81516 0.75114 0.7731 0.0
C347 C 0.82394 0.7186 0.71415 0.0
C348 C 0.85388 0.69567 0.72467 0.0
C349 C 0.86365 0.66517 0.66904 0.0
C350 C 0.90159 0.64839 0.68004 0.0
C351 C 0.92385 0.6576 0.74469 0.0
C352 C 0.91101 0.68496 0.79949 0.0
C353 C 0.87751 0.70454 0.78971 0.0
H354 H 0.4389 0.18282 0.52184 0.0
C355 C 0.45805 0.22464 0.51196 0.0
H356 H 0.45494 0.28803 0.54782 0.0
H357 H 0.19326 0.04271 0.78101 0.0
H358 H 0.12011 0.96244 0.68708 0.0
H359 H 0.16002 0.99853 0.56774 0.0
H360 H 0.27856 0.11539 0.54242 0.0
C361 C 0.43344 0.24589 0.56054 0.0
C362 C 0.38898 0.22076 0.63366 0.0
C363 C 0.31106 0.15135 0.64851 0.0
C364 C 0.27761 0.12953 0.71844 0.0
C365 C 0.21281 0.06124 0.73031 0.0
C366 C 0.17152 1.01463 0.67632 0.0
C367 C 0.19471 0.03494 0.60933 0.0
C368 C 0.26406 0.10248 0.59525 0.0
H369 H 0.12667 0.07478 0.83712 0.0
C370 C 0.1774 0.10245 0.87225 0.0
H371 H 0.31783 0.18161 0.88517 0.0
H372 H 0.54456 0.35851 0.62674 0.0
H373 H 0.59563 0.43632 0.72158 0.0
H374 H 0.51287 0.39647 0.84121 0.0
H375 H 0.38126 0.27855 0.86678 0.0
C376 C 0.26951 0.15375 0.84841 0.0
C377 C 0.30931 0.17592 0.77424 0.0
C378 C 0.38234 0.24502 0.75941 0.0
C379 C 0.42545 0.26768 0.6896 0.0
C380 C 0.50467 0.33759 0.67769 0.0
C381 C 0.53556 0.38322 0.73194 0.0
C382 C 0.48926 0.36083 0.79927 0.0
C383 C 0.41393 0.29274 0.81321 0.0
H384 H 0.53458 0.45889 0.16337 0.0
C385 C 0.5645 0.44986 0.12216 0.0
H386 H 0.64309 0.47665 0.02174 0.0
H387 H 0.42027 0.51902 0.97803 0.0
H388 H 0.27801 0.40111 1.00173 0.0
H389 H 0.28263 0.33553 0.03954 0.0
H390 H 0.42896 0.38796 0.05577 0.0
C391 C 0.60718 0.48193 0.06092 0.0
C392 C 0.60317 0.5215 0.04029 0.0
C393 C 0.51683 0.48906 0.02816 0.0
C394 C 0.5148 0.52616 1.00282 0.0
C395 C 0.42692 0.49325 0.99488 0.0
C396 C 0.34433 0.42533 1.00837 0.0
C397 C 0.34689 0.38849 0.02988 0.0
C398 C 0.43175 0.41959 0.0396 0.0
H399 H 0.57601 0.6034 0.86307 0.0
C400 C 0.57608 0.63013 0.90611 0.0
H401 H 0.6017 0.66533 1.00944 0.0
H402 H 0.78045 0.59827 0.05496 0.0
H403 H 0.92429 0.71542 0.02532 0.0
H404 H 0.92099 0.77851 0.97769 0.0
H405 H 0.77379 0.72472 0.9591 0.0
C406 C 0.59619 0.63527 0.96776 0.0
C407 C 0.59959 0.59483 0.98636 0.0
C408 C 0.68586 0.62666 0.99672 0.0
C409 C 0.68772 0.59005 0.02369 0.0
C410 C 0.77509 0.62346 0.03387 0.0
C411 C 0.85812 0.69074 0.01735 0.0
C412 C 0.85625 0.72631 0.99068 0.0
C413 C 0.77133 0.69493 0.98045 0.0
H414 H 0.58631 0.94111 0.91209 0.0
C415 C 0.55012 0.92959 0.87253 0.0
H416 H 0.49592 0.94975 0.83565 0.0
H417 H 0.49134 0.03585 0.16617 0.0
H418 H 0.35985 0.91659 0.18679 0.0
H419 H 0.31461 0.8372 0.09135 0.0
H420 H 0.40078 0.87666 0.97489 0.0
C421 C 0.52988 0.95926 0.87566 0.0
C422 C 0.55486 1.00698 0.93285 0.0
C423 C 0.50174 0.98305 1.00028 0.0
C424 C 0.52625 0.02884 0.05489 0.0
C425 C 0.47426 1.00346 0.12227 0.0
C426 C 0.39879 0.93502 0.13496 0.0
C427 C 0.37339 0.89032 0.0813 0.0
C428 C 0.42384 0.91373 0.01467 0.0
H429 H 0.51044 0.11889 0.11046 0.0
C430 C 0.57707 0.15207 0.128 0.0
H431 H 0.69896 0.18196 0.11404 0.0
H432 H 0.67015 0.06908 0.80964 0.0
H433 H 0.80178 0.1884 0.7884 0.0
H434 H 0.84348 0.26786 0.88244 0.0
H435 H 0.75376 0.22855 0.99819 0.0
C436 C 0.63063 0.14733 0.09875 0.0
C437 C 0.6026 0.09854 0.0416 0.0
C438 C 0.65553 0.12232 0.97401 0.0
C439 C 0.63132 0.0765 0.9196 0.0
C440 C 0.6854 0.10169 0.85273 0.0
C441 C 0.76115 0.17006 0.83982 0.0
C442 C 0.78463 0.21478 0.89277 0.0
C443 C 0.73262 0.19151 0.95908 0.0
H444 H 0.13541 0.5403 0.83432 0.0
C445 C 0.19964 0.59231 0.84577 0.0
H446 H 0.27212 0.6674 0.92263 0.0
H447 H 0.91599 0.54414 0.13161 0.0
H448 H 0.99099 0.6487 0.10148 0.0
H449 H 0.13061 0.72111 1.01164 0.0
H450 H 0.1939 0.68812 0.94988 0.0
C451 C 0.20753 0.61545 0.91133 0.0
C452 C 0.12763 0.57346 0.96923 0.0
C453 C 0.09337 0.59468 1.0066 0.0
C454 C 1.01517 0.55427 0.06047 0.0
C455 C 0.9781 0.5743 0.09296 0.0
C456 C 1.01984 0.63399 0.07554 0.0
C457 C 0.09826 0.67465 0.02486 0.0
C458 C 0.13421 0.65516 0.99007 0.0
H459 H 0.95865 0.52304 0.21515 0.0
C460 C 0.89552 0.47153 0.20126 0.0
H461 H 0.82855 0.39916 0.12128 0.0
H462 H 0.18311 0.52188 0.91464 0.0
H463 H 0.11169 0.41945 0.94787 0.0
H464 H 0.97793 0.35047 0.04253 0.0
H465 H 0.91464 0.38353 0.10403 0.0
C466 C 0.8918 0.45071 0.13498 0.0
C467 C 0.97429 0.49427 0.07927 0.0
C468 C 1.01026 0.47402 0.04328 0.0
C469 C 0.08691 0.51354 0.98824 0.0
C470 C 0.12264 0.49272 0.95476 0.0
C471 C 0.08302 0.43426 0.97397 0.0
C472 C 1.00798 0.39557 0.02738 0.0
C473 C 0.97207 0.4151 0.06205 0.0
loop_
_geom_bond_atom_site_label_1
_geom_bond_atom_site_label_2
_geom_bond_distance
_geom_bond_site_symmetry_2
_ccdc_geom_bond_type
Eu0 O2 2.323 . S
Eu0 O10 2.328 1_556 S
Eu0 O21 2.316 1_655 S
Eu0 C22 2.837 . S
Eu0 O23 2.488 . S
Eu0 O31 2.461 . S
C1 O12 1.251 . S
C1 O21 1.237 1_545 S
O2 Eu0 2.323 . S
O2 C18 1.279 . S
C3 C5 1.383 . S
C3 C7 1.388 1_545 S
C3 C17 1.491 . S
C4 C6 1.403 . S
C4 C8 1.385 . S
C4 H32 0.931 . S
C5 C3 1.383 . S
C5 C6 1.393 1_545 S
C5 H33 0.930 . S
C6 C4 1.403 . S
C6 C5 1.393 1_565 S
C7 C3 1.388 1_565 S
C7 C8 1.394 . S
C7 H34 0.930 . S
C8 C4 1.385 . S
C8 C7 1.394 . S
Eu9 O11 2.323 . S
Eu9 O12 2.328 1_554 S
Eu9 O13 2.316 1_455 S
Eu9 O16 2.488 . S
Eu9 C17 2.837 . S
Eu9 O20 2.461 . S
O10 Eu0 2.328 1_554 S
O10 C30 1.251 . S
O11 Eu9 2.323 . S
O11 C14 1.279 . S
O12 C1 1.251 . S
O12 Eu9 2.328 1_556 S
O13 Eu9 2.316 1_655 S
O13 C30 1.237 1_545 S
C14 O11 1.279 . S
C14 O15 1.244 . S
O15 C14 1.244 . S
O16 Eu9 2.488 . S
O16 C17 1.271 . S
C17 C3 1.491 . S
C17 Eu9 2.837 . S
C17 O16 1.271 . S
C17 O20 1.261 . S
C18 O2 1.279 . S
C18 O19 1.244 . S
O19 C18 1.244 . S
O20 Eu9 2.461 . S
O20 C17 1.261 . S
O21 Eu0 2.316 1_455 S
O21 C1 1.237 1_565 S
C22 Eu0 2.837 . S
C22 O23 1.271 . S
C22 C24 1.491 . S
C22 O31 1.261 . S
O23 Eu0 2.488 . S
O23 C22 1.271 . S
C24 C22 1.491 . S
C24 C26 1.383 . S
C24 C28 1.388 1_565 S
C25 C27 1.403 . S
C25 C29 1.385 . S
C25 H35 0.931 . S
C26 C24 1.383 . S
C26 C27 1.393 1_565 S
C26 H36 0.930 . S
C27 C25 1.403 . S
C27 C26 1.393 1_545 S
C28 C24 1.388 1_545 S
C28 C29 1.394 . S
C28 H37 0.930 . S
C29 C25 1.385 . S
C29 C28 1.394 . S
C30 O10 1.251 . S
C30 O13 1.237 1_565 S
O31 Eu0 2.461 . S
O31 C22 1.261 . S
H32 C4 0.931 . S
H33 C5 0.930 . S
H34 C7 0.930 . S
H35 C25 0.931 . S
H36 C26 0.930 . S
H37 C28 0.930 . S
Eu38 O40 2.323 . S
Eu38 O48 2.328 . S
Eu38 O59 2.316 . S
Eu38 C60 2.837 . S
Eu38 O61 2.488 . S
Eu38 O69 2.461 . S
C39 O50 1.251 . S
C39 O59 1.237 . S
O40 Eu38 2.323 . S
O40 C56 1.279 . S
C41 C43 1.383 . S
C41 C45 1.388 . S
C41 C55 1.491 . S
C42 C44 1.403 . S
C42 C46 1.385 . S
C42 H70 0.931 . S
C43 C41 1.383 . S
C43 C44 1.393 . S
C43 H71 0.930 . S
C44 C42 1.403 . S
C44 C43 1.393 . S
C45 C41 1.388 . S
C45 C46 1.394 . S
C45 H72 0.930 . S
C46 C42 1.385 . S
C46 C45 1.394 . S
Eu47 O49 2.323 . S
Eu47 O50 2.328 . S
Eu47 O51 2.316 . S
Eu47 O54 2.488 . S
Eu47 C55 2.837 . S
Eu47 O58 2.461 . S
O48 Eu38 2.328 . S
O48 C68 1.251 . S
O49 Eu47 2.323 . S
O49 C52 1.279 . S
O50 C39 1.251 . S
O50 Eu47 2.328 . S
O51 Eu47 2.316 . S
O51 C68 1.237 . S
C52 O49 1.279 . S
C52 O53 1.244 . S
O53 C52 1.244 . S
O54 Eu47 2.488 . S
O54 C55 1.271 . S
C55 C41 1.491 . S
C55 Eu47 2.837 . S
C55 O54 1.271 . S
C55 O58 1.261 . S
C56 O40 1.279 . S
C56 O57 1.244 . S
O57 C56 1.244 . S
O58 Eu47 2.461 . S
O58 C55 1.261 . S
O59 Eu38 2.316 . S
O59 C39 1.237 . S
C60 Eu38 2.837 . S
C60 O61 1.271 . S
C60 C62 1.491 . S
C60 O69 1.261 . S
O61 Eu38 2.488 . S
O61 C60 1.271 . S
C62 C60 1.491 . S
C62 C64 1.383 . S
C62 C66 1.388 . S
C63 C65 1.403 . S
C63 C67 1.385 . S
C63 H73 0.931 . S
C64 C62 1.383 . S
C64 C65 1.393 . S
C64 H74 0.930 . S
C65 C63 1.403 . S
C65 C64 1.393 . S
C66 C62 1.388 . S
C66 C67 1.394 . S
C66 H75 0.930 . S
C67 C63 1.385 . S
C67 C66 1.394 . S
C68 O48 1.251 . S
C68 O51 1.237 . S
O69 Eu38 2.461 . S
O69 C60 1.261 . S
H70 C42 0.931 . S
H71 C43 0.930 . S
H72 C45 0.930 . S
H73 C63 0.931 . S
H74 C64 0.930 . S
H75 C66 0.930 . S
Eu76 O78 2.323 . S
Eu76 O86 2.328 . S
Eu76 O97 2.316 . S
Eu76 C98 2.837 . S
Eu76 O99 2.488 . S
Eu76 O107 2.461 . S
C77 O88 1.251 . S
C77 O97 1.237 . S
O78 Eu76 2.323 . S
O78 C94 1.279 . S
C79 C81 1.383 . S
C79 C83 1.388 . S
C79 C93 1.491 . S
C80 C82 1.403 . S
C80 C84 1.385 . S
C80 H108 0.931 . S
C81 C79 1.383 . S
C81 C82 1.393 . S
C81 H109 0.930 . S
C82 C80 1.403 . S
C82 C81 1.393 . S
C83 C79 1.388 . S
C83 C84 1.394 . S
C83 H110 0.930 . S
C84 C80 1.385 . S
C84 C83 1.394 . S
Eu85 O87 2.323 . S
Eu85 O88 2.328 . S
Eu85 O89 2.316 . S
Eu85 O92 2.488 . S
Eu85 C93 2.837 . S
Eu85 O96 2.461 . S
O86 Eu76 2.328 . S
O86 C106 1.251 . S
O87 Eu85 2.323 . S
O87 C90 1.279 . S
O88 C77 1.251 . S
O88 Eu85 2.328 . S
O89 Eu85 2.316 . S
O89 C106 1.237 . S
C90 O87 1.279 . S
C90 O91 1.244 . S
O91 C90 1.244 . S
O92 Eu85 2.488 . S
O92 C93 1.271 . S
C93 C79 1.491 . S
C93 Eu85 2.837 . S
C93 O92 1.271 . S
C93 O96 1.261 . S
C94 O78 1.279 . S
C94 O95 1.244 . S
O95 C94 1.244 . S
O96 Eu85 2.461 . S
O96 C93 1.261 . S
O97 Eu76 2.316 . S
O97 C77 1.237 . S
C98 Eu76 2.837 . S
C98 O99 1.271 . S
C98 C100 1.491 . S
C98 O107 1.261 . S
O99 Eu76 2.488 . S
O99 C98 1.271 . S
C100 C98 1.491 . S
C100 C102 1.383 . S
C100 C104 1.388 . S
C101 C103 1.403 . S
C101 C105 1.385 . S
C101 H111 0.931 . S
C102 C100 1.383 . S
C102 C103 1.393 . S
C102 H112 0.930 . S
C103 C101 1.403 . S
C103 C102 1.393 . S
C104 C100 1.388 . S
C104 C105 1.394 . S
C104 H113 0.930 . S
C105 C101 1.385 . S
C105 C104 1.394 . S
C106 O86 1.251 . S
C106 O89 1.237 . S
O107 Eu76 2.461 . S
O107 C98 1.261 . S
H108 C80 0.931 . S
H109 C81 0.930 . S
H110 C83 0.930 . S
H111 C101 0.931 . S
H112 C102 0.930 . S
H113 C104 0.930 . S
H114 C115 0.951 . S
C115 H114 0.951 . S
C115 C121 1.265 1_545 S
H116 C121 0.950 . S
H117 C125 0.949 . S
H118 C126 0.950 . S
H119 C127 0.951 . S
H120 C128 0.951 . S
C121 C115 1.265 1_565 S
C121 H116 0.950 . S
C121 C122 1.478 . S
C122 C121 1.478 . S
C122 C123 1.397 . S
C122 C139 1.394 1_665 S
C123 C122 1.397 . S
C123 C124 1.438 . S
C123 C128 1.429 . S
C124 C123 1.438 . S
C124 C125 1.428 . S
C124 C137 1.394 1_665 S
C125 H117 0.949 . S
C125 C124 1.428 . S
C125 C126 1.345 . S
C126 H118 0.950 . S
C126 C125 1.345 . S
C126 C127 1.424 . S
C127 H119 0.951 . S
C127 C126 1.424 . S
C127 C128 1.347 . S
C128 H120 0.951 . S
C128 C123 1.429 . S
C128 C127 1.347 . S
H129 C130 0.951 . S
C130 H129 0.951 . S
C130 C136 1.265 1_565 S
H131 C136 0.950 . S
H132 C140 0.949 . S
H133 C141 0.950 . S
H134 C142 0.951 . S
H135 C143 0.951 . S
C136 C130 1.265 1_545 S
C136 H131 0.950 . S
C136 C137 1.478 . S
C137 C124 1.394 1_445 S
C137 C136 1.478 . S
C137 C138 1.397 . S
C138 C137 1.397 . S
C138 C139 1.438 . S
C138 C143 1.429 . S
C139 C122 1.394 1_445 S
C139 C138 1.438 . S
C139 C140 1.428 . S
C140 H132 0.949 . S
C140 C139 1.428 . S
C140 C141 1.345 . S
C141 H133 0.950 . S
C141 C140 1.345 . S
C141 C142 1.424 . S
C142 H134 0.951 . S
C142 C141 1.424 . S
C142 C143 1.347 . S
C143 H135 0.951 . S
C143 C138 1.429 . S
C143 C142 1.347 . S
H144 C145 0.951 . S
C145 H144 0.951 . S
C145 C151 1.265 . S
H146 C151 0.950 . S
H147 C155 0.949 . S
H148 C156 0.950 . S
H149 C157 0.951 . S
H150 C158 0.951 . S
C151 C145 1.265 . S
C151 H146 0.950 . S
C151 C152 1.478 . S
C152 C151 1.478 . S
C152 C153 1.397 . S
C152 C169 1.394 . S
C153 C152 1.397 . S
C153 C154 1.438 . S
C153 C158 1.429 . S
C154 C153 1.438 . S
C154 C155 1.428 . S
C154 C167 1.394 . S
C155 H147 0.949 . S
C155 C154 1.428 . S
C155 C156 1.345 . S
C156 H148 0.950 . S
C156 C155 1.345 . S
C156 C157 1.424 . S
C157 H149 0.951 . S
C157 C156 1.424 . S
C157 C158 1.347 . S
C158 H150 0.951 . S
C158 C153 1.429 . S
C158 C157 1.347 . S
H159 C160 0.951 . S
C160 H159 0.951 . S
C160 C166 1.265 1_554 S
H161 C166 0.950 . S
H162 C170 0.949 . S
H163 C171 0.950 . S
H164 C172 0.951 . S
H165 C173 0.951 . S
C166 C160 1.265 1_556 S
C166 H161 0.950 . S
C166 C167 1.478 . S
C167 C154 1.394 . S
C167 C166 1.478 . S
C167 C168 1.397 . S
C168 C167 1.397 . S
C168 C169 1.438 . S
C168 C173 1.429 . S
C169 C152 1.394 . S
C169 C168 1.438 . S
C169 C170 1.428 . S
C170 H162 0.949 . S
C170 C169 1.428 . S
C170 C171 1.345 . S
C171 H163 0.950 . S
C171 C170 1.345 . S
C171 C172 1.424 . S
C172 H164 0.951 . S
C172 C171 1.424 . S
C172 C173 1.347 . S
C173 H165 0.951 . S
C173 C168 1.429 . S
C173 C172 1.347 . S
H174 C175 0.951 1_554 S
C175 H174 0.951 1_556 S
C175 C181 1.265 1_556 S
H176 C181 0.950 1_556 S
H177 C185 0.949 . S
H178 C186 0.950 . S
H179 C187 0.951 . S
H180 C188 0.951 . S
C181 C175 1.265 1_554 S
C181 H176 0.950 1_554 S
C181 C182 1.478 . S
C182 C181 1.478 . S
C182 C183 1.397 . S
C182 C199 1.394 . S
C183 C182 1.397 . S
C183 C184 1.438 . S
C183 C188 1.429 . S
C184 C183 1.438 . S
C184 C185 1.428 . S
C184 C197 1.394 . S
C185 H177 0.949 . S
C185 C184 1.428 . S
C185 C186 1.345 . S
C186 H178 0.950 . S
C186 C185 1.345 . S
C186 C187 1.424 . S
C187 H179 0.951 . S
C187 C186 1.424 . S
C187 C188 1.347 . S
C188 H180 0.951 . S
C188 C183 1.429 . S
C188 C187 1.347 . S
H189 C190 0.951 . S
C190 H189 0.951 . S
C190 C196 1.265 . S
H191 C196 0.950 . S
H192 C200 0.949 . S
H193 C201 0.950 . S
H194 C202 0.951 . S
H195 C203 0.951 . S
C196 C190 1.265 . S
C196 H191 0.950 . S
C196 C197 1.478 . S
C197 C184 1.394 . S
C197 C196 1.478 . S
C197 C198 1.397 . S
C198 C197 1.397 . S
C198 C199 1.438 . S
C198 C203 1.429 . S
C199 C182 1.394 . S
C199 C198 1.438 . S
C199 C200 1.428 . S
C200 H192 0.949 . S
C200 C199 1.428 . S
C200 C201 1.345 . S
C201 H193 0.950 . S
C201 C200 1.345 . S
C201 C202 1.424 . S
C202 H194 0.951 . S
C202 C201 1.424 . S
C202 C203 1.347 . S
C203 H195 0.951 . S
C203 C198 1.429 . S
C203 C202 1.347 . S
H204 C205 0.951 . S
C205 H204 0.951 . S
C205 C211 1.265 . S
H206 C211 0.950 . S
H207 C215 0.949 . S
H208 C216 0.950 . S
H209 C217 0.951 . S
H210 C218 0.951 . S
C211 C205 1.265 . S
C211 H206 0.950 . S
C211 C212 1.478 . S
C212 C211 1.478 . S
C212 C213 1.397 . S
C212 C229 1.394 . S
C213 C212 1.397 . S
C213 C214 1.438 . S
C213 C218 1.429 . S
C214 C213 1.438 . S
C214 C215 1.428 . S
C214 C227 1.394 . S
C215 H207 0.949 . S
C215 C214 1.428 . S
C215 C216 1.345 . S
C216 H208 0.950 . S
C216 C215 1.345 . S
C216 C217 1.424 . S
C217 H209 0.951 . S
C217 C216 1.424 . S
C217 C218 1.347 . S
C218 H210 0.951 . S
C218 C213 1.429 . S
C218 C217 1.347 . S
H219 C220 0.951 . S
C220 H219 0.951 . S
C220 C226 1.265 . S
H221 C226 0.950 . S
H222 C230 0.949 . S
H223 C231 0.950 . S
H224 C232 0.951 . S
H225 C233 0.951 . S
C226 C220 1.265 . S
C226 H221 0.950 . S
C226 C227 1.478 . S
C227 C214 1.394 . S
C227 C226 1.478 . S
C227 C228 1.397 . S
C228 C227 1.397 . S
C228 C229 1.438 . S
C228 C233 1.429 . S
C229 C212 1.394 . S
C229 C228 1.438 . S
C229 C230 1.428 . S
C230 H222 0.949 . S
C230 C229 1.428 . S
C230 C231 1.345 . S
C231 H223 0.950 . S
C231 C230 1.345 . S
C231 C232 1.424 . S
C232 H224 0.951 . S
C232 C231 1.424 . S
C232 C233 1.347 . S
C233 H225 0.951 . S
C233 C228 1.429 . S
C233 C232 1.347 . S
H234 C235 0.951 . S
C235 H234 0.951 . S
C235 C241 1.265 . S
H236 C241 0.950 . S
H237 C245 0.949 1_655 S
H238 C246 0.950 . S
H239 C247 0.951 1_655 S
H240 C248 0.951 . S
C241 C235 1.265 . S
C241 H236 0.950 . S
C241 C242 1.478 . S
C242 C241 1.478 . S
C242 C243 1.397 . S
C242 C259 1.394 . S
C243 C242 1.397 . S
C243 C244 1.438 . S
C243 C248 1.429 . S
C244 C243 1.438 . S
C244 C245 1.428 . S
C244 C257 1.394 . S
C245 H237 0.949 1_455 S
C245 C244 1.428 . S
C245 C246 1.345 1_455 S
C246 H238 0.950 . S
C246 C245 1.345 1_655 S
C246 C247 1.424 1_655 S
C247 H239 0.951 1_455 S
C247 C246 1.424 1_455 S
C247 C248 1.347 . S
C248 H240 0.951 . S
C248 C243 1.429 . S
C248 C247 1.347 . S
H249 C250 0.951 . S
C250 H249 0.951 . S
C250 C256 1.265 . S
H251 C256 0.950 . S
H252 C260 0.949 . S
H253 C261 0.950 . S
H254 C262 0.951 . S
H255 C263 0.951 . S
C256 C250 1.265 . S
C256 H251 0.950 . S
C256 C257 1.478 . S
C257 C244 1.394 . S
C257 C256 1.478 . S
C257 C258 1.397 . S
C258 C257 1.397 . S
C258 C259 1.438 . S
C258 C263 1.429 . S
C259 C242 1.394 . S
C259 C258 1.438 . S
C259 C260 1.428 . S
C260 H252 0.949 . S
C260 C259 1.428 . S
C260 C261 1.345 . S
C261 H253 0.950 . S
C261 C260 1.345 . S
C261 C262 1.424 . S
C262 H254 0.951 . S
C262 C261 1.424 . S
C262 C263 1.347 . S
C263 H255 0.951 . S
C263 C258 1.429 . S
C263 C262 1.347 . S
H264 C265 0.951 . S
C265 H264 0.951 . S
C265 C271 1.265 . S
H266 C271 0.950 . S
H267 C275 0.949 . S
H268 C276 0.950 1_545 S
H269 C277 0.951 . S
H270 C278 0.951 . S
C271 C265 1.265 . S
C271 H266 0.950 . S
C271 C272 1.478 . S
C272 C271 1.478 . S
C272 C273 1.397 . S
C272 C289 1.394 . S
C273 C272 1.397 . S
C273 C274 1.438 . S
C273 C278 1.429 . S
C274 C273 1.438 . S
C274 C275 1.428 . S
C274 C287 1.394 . S
C275 H267 0.949 . S
C275 C274 1.428 . S
C275 C276 1.345 . S
C276 H268 0.950 1_565 S
C276 C275 1.345 . S
C276 C277 1.424 . S
C277 H269 0.951 . S
C277 C276 1.424 . S
C277 C278 1.347 . S
C278 H270 0.951 . S
C278 C273 1.429 . S
C278 C277 1.347 . S
H279 C280 0.951 . S
C280 H279 0.951 . S
C280 C286 1.265 . S
H281 C286 0.950 . S
H282 C290 0.949 . S
H283 C291 0.950 . S
H284 C292 0.951 . S
H285 C293 0.951 . S
C286 C280 1.265 . S
C286 H281 0.950 . S
C286 C287 1.478 . S
C287 C274 1.394 . S
C287 C286 1.478 . S
C287 C288 1.397 . S
C288 C287 1.397 . S
C288 C289 1.438 . S
C288 C293 1.429 . S
C289 C272 1.394 . S
C289 C288 1.438 . S
C289 C290 1.428 . S
C290 H282 0.949 . S
C290 C289 1.428 . S
C290 C291 1.345 . S
C291 H283 0.950 . S
C291 C290 1.345 . S
C291 C292 1.424 . S
C292 H284 0.951 . S
C292 C291 1.424 . S
C292 C293 1.347 . S
C293 H285 0.951 . S
C293 C288 1.429 . S
C293 C292 1.347 . S
H294 C295 0.951 . S
C295 H294 0.951 . S
C295 C301 1.265 . S
H296 C301 0.950 . S
H297 C305 0.949 . S
H298 C306 0.950 1_565 S
H299 C307 0.951 1_565 S
H300 C308 0.951 . S
C301 C295 1.265 . S
C301 H296 0.950 . S
C301 C302 1.478 . S
C302 C301 1.478 . S
C302 C303 1.397 . S
C302 C319 1.394 . S
C303 C302 1.397 . S
C303 C304 1.438 . S
C303 C308 1.429 . S
C304 C303 1.438 . S
C304 C305 1.428 . S
C304 C317 1.394 . S
C305 H297 0.949 . S
C305 C304 1.428 . S
C305 C306 1.345 . S
C306 H298 0.950 1_545 S
C306 C305 1.345 . S
C306 C307 1.424 . S
C307 H299 0.951 1_545 S
C307 C306 1.424 . S
C307 C308 1.347 . S
C308 H300 0.951 . S
C308 C303 1.429 . S
C308 C307 1.347 . S
H309 C310 0.951 . S
C310 H309 0.951 . S
C310 C316 1.265 . S
H311 C316 0.950 . S
H312 C320 0.949 . S
H313 C321 0.950 . S
H314 C322 0.951 1_455 S
H315 C323 0.951 . S
C316 C310 1.265 . S
C316 H311 0.950 . S
C316 C317 1.478 . S
C317 C304 1.394 . S
C317 C316 1.478 . S
C317 C318 1.397 . S
C318 C317 1.397 . S
C318 C319 1.438 . S
C318 C323 1.429 . S
C319 C302 1.394 . S
C319 C318 1.438 . S
C319 C320 1.428 . S
C320 H312 0.949 . S
C320 C319 1.428 . S
C320 C321 1.345 . S
C321 H313 0.950 . S
C321 C320 1.345 . S
C321 C322 1.424 . S
C322 H314 0.951 1_655 S
C322 C321 1.424 . S
C322 C323 1.347 . S
C323 H315 0.951 . S
C323 C318 1.429 . S
C323 C322 1.347 . S
H324 C325 0.951 . S
C325 H324 0.951 . S
C325 C331 1.265 . S
H326 C331 0.950 . S
H327 C335 0.949 . S
H328 C336 0.950 . S
H329 C337 0.951 . S
H330 C338 0.951 . S
C331 C325 1.265 . S
C331 H326 0.950 . S
C331 C332 1.478 . S
C332 C331 1.478 . S
C332 C333 1.397 . S
C332 C349 1.394 . S
C333 C332 1.397 . S
C333 C334 1.438 . S
C333 C338 1.429 . S
C334 C333 1.438 . S
C334 C335 1.428 . S
C334 C347 1.394 . S
C335 H327 0.949 . S
C335 C334 1.428 . S
C335 C336 1.345 . S
C336 H328 0.950 . S
C336 C335 1.345 . S
C336 C337 1.424 . S
C337 H329 0.951 . S
C337 C336 1.424 . S
C337 C338 1.347 . S
C338 H330 0.951 . S
C338 C333 1.429 . S
C338 C337 1.347 . S
H339 C340 0.951 . S
C340 H339 0.951 . S
C340 C346 1.265 . S
H341 C346 0.950 . S
H342 C350 0.949 . S
H343 C351 0.950 . S
H344 C352 0.951 . S
H345 C353 0.951 . S
C346 C340 1.265 . S
C346 H341 0.950 . S
C346 C347 1.478 . S
C347 C334 1.394 . S
C347 C346 1.478 . S
C347 C348 1.397 . S
C348 C347 1.397 . S
C348 C349 1.438 . S
C348 C353 1.429 . S
C349 C332 1.394 . S
C349 C348 1.438 . S
C349 C350 1.428 . S
C350 H342 0.949 . S
C350 C349 1.428 . S
C350 C351 1.345 . S
C351 H343 0.950 . S
C351 C350 1.345 . S
C351 C352 1.424 . S
C352 H344 0.951 . S
C352 C351 1.424 . S
C352 C353 1.347 . S
C353 H345 0.951 . S
C353 C348 1.429 . S
C353 C352 1.347 . S
H354 C355 0.951 . S
C355 H354 0.951 . S
C355 C361 1.265 . S
H356 C361 0.950 . S
H357 C365 0.949 . S
H358 C366 0.950 . S
H359 C367 0.951 1_565 S
H360 C368 0.951 . S
C361 C355 1.265 . S
C361 H356 0.950 . S
C361 C362 1.478 . S
C362 C361 1.478 . S
C362 C363 1.397 . S
C362 C379 1.394 . S
C363 C362 1.397 . S
C363 C364 1.438 . S
C363 C368 1.429 . S
C364 C363 1.438 . S
C364 C365 1.428 . S
C364 C377 1.394 . S
C365 H357 0.949 . S
C365 C364 1.428 . S
C365 C366 1.345 1_545 S
C366 H358 0.950 . S
C366 C365 1.345 1_565 S
C366 C367 1.424 1_565 S
C367 H359 0.951 1_545 S
C367 C366 1.424 1_545 S
C367 C368 1.347 . S
C368 H360 0.951 . S
C368 C363 1.429 . S
C368 C367 1.347 . S
H369 C370 0.951 . S
C370 H369 0.951 . S
C370 C376 1.265 . S
H371 C376 0.950 . S
H372 C380 0.949 . S
H373 C381 0.950 . S
H374 C382 0.951 . S
H375 C383 0.951 . S
C376 C370 1.265 . S
C376 H371 0.950 . S
C376 C377 1.478 . S
C377 C364 1.394 . S
C377 C376 1.478 . S
C377 C378 1.397 . S
C378 C377 1.397 . S
C378 C379 1.438 . S
C378 C383 1.429 . S
C379 C362 1.394 . S
C379 C378 1.438 . S
C379 C380 1.428 . S
C380 H372 0.949 . S
C380 C379 1.428 . S
C380 C381 1.345 . S
C381 H373 0.950 . S
C381 C380 1.345 . S
C381 C382 1.424 . S
C382 H374 0.951 . S
C382 C381 1.424 . S
C382 C383 1.347 . S
C383 H375 0.951 . S
C383 C378 1.429 . S
C383 C382 1.347 . S
H384 C385 0.951 . S
C385 H384 0.951 . S
C385 C391 1.265 . S
H386 C391 0.950 . S
H387 C395 0.949 . S
H388 C396 0.950 . S
H389 C397 0.951 . S
H390 C398 0.951 . S
C391 C385 1.265 . S
C391 H386 0.950 . S
C391 C392 1.478 . S
C392 C391 1.478 . S
C392 C393 1.397 . S
C392 C409 1.394 1_554 S
C393 C392 1.397 . S
C393 C394 1.438 . S
C393 C398 1.429 . S
C394 C393 1.438 . S
C394 C395 1.428 . S
C394 C407 1.394 1_554 S
C395 H387 0.949 . S
C395 C394 1.428 . S
C395 C396 1.345 . S
C396 H388 0.950 . S
C396 C395 1.345 . S
C396 C397 1.424 . S
C397 H389 0.951 . S
C397 C396 1.424 . S
C397 C398 1.347 . S
C398 H390 0.951 . S
C398 C393 1.429 . S
C398 C397 1.347 . S
H399 C400 0.951 . S
C400 H399 0.951 . S
C400 C406 1.265 . S
H401 C406 0.950 . S
H402 C410 0.949 . S
H403 C411 0.950 . S
H404 C412 0.951 . S
H405 C413 0.951 . S
C406 C400 1.265 . S
C406 H401 0.950 . S
C406 C407 1.478 . S
C407 C394 1.394 1_556 S
C407 C406 1.478 . S
C407 C408 1.397 . S
C408 C407 1.397 . S
C408 C409 1.438 . S
C408 C413 1.429 . S
C409 C392 1.394 1_556 S
C409 C408 1.438 . S
C409 C410 1.428 . S
C410 H402 0.949 . S
C410 C409 1.428 . S
C410 C411 1.345 . S
C411 H403 0.950 . S
C411 C410 1.345 . S
C411 C412 1.424 . S
C412 H404 0.951 . S
C412 C411 1.424 . S
C412 C413 1.347 . S
C413 H405 0.951 . S
C413 C408 1.429 . S
C413 C412 1.347 . S
H414 C415 0.951 . S
C415 H414 0.951 . S
C415 C421 1.265 . S
H416 C421 0.950 . S
H417 C425 0.949 1_545 S
H418 C426 0.950 . S
H419 C427 0.951 . S
H420 C428 0.951 . S
C421 C415 1.265 . S
C421 H416 0.950 . S
C421 C422 1.478 . S
C422 C421 1.478 . S
C422 C423 1.397 1_556 S
C422 C439 1.394 1_565 S
C423 C422 1.397 1_554 S
C423 C424 1.438 . S
C423 C428 1.429 . S
C424 C423 1.438 . S
C424 C425 1.428 . S
C424 C437 1.394 1_565 S
C425 H417 0.949 1_565 S
C425 C424 1.428 . S
C425 C426 1.345 . S
C426 H418 0.950 . S
C426 C425 1.345 . S
C426 C427 1.424 . S
C427 H419 0.951 . S
C427 C426 1.424 . S
C427 C428 1.347 . S
C428 H420 0.951 . S
C428 C423 1.429 . S
C428 C427 1.347 . S
H429 C430 0.951 . S
C430 H429 0.951 . S
C430 C436 1.265 . S
H431 C436 0.950 . S
H432 C440 0.949 1_565 S
H433 C441 0.950 . S
H434 C442 0.951 . S
H435 C443 0.951 . S
C436 C430 1.265 . S
C436 H431 0.950 . S
C436 C437 1.478 . S
C437 C424 1.394 1_545 S
C437 C436 1.478 . S
C437 C438 1.397 1_554 S
C438 C437 1.397 1_556 S
C438 C439 1.438 . S
C438 C443 1.429 . S
C439 C422 1.394 1_545 S
C439 C438 1.438 . S
C439 C440 1.428 . S
C440 H432 0.949 1_545 S
C440 C439 1.428 . S
C440 C441 1.345 . S
C441 H433 0.950 . S
C441 C440 1.345 . S
C441 C442 1.424 . S
C442 H434 0.951 . S
C442 C441 1.424 . S
C442 C443 1.347 . S
C443 H435 0.951 . S
C443 C438 1.429 . S
C443 C442 1.347 . S
H444 C445 0.951 . S
C445 H444 0.951 . S
C445 C451 1.265 . S
H446 C451 0.950 . S
H447 C455 0.949 . S
H448 C456 0.950 . S
H449 C457 0.951 . S
H450 C458 0.951 1_556 S
C451 C445 1.265 . S
C451 H446 0.950 . S
C451 C452 1.478 . S
C452 C451 1.478 . S
C452 C453 1.397 1_556 S
C452 C469 1.394 1_455 S
C453 C452 1.397 1_554 S
C453 C454 1.438 . S
C453 C458 1.429 . S
C454 C453 1.438 . S
C454 C455 1.428 . S
C454 C467 1.394 1_455 S
C455 H447 0.949 . S
C455 C454 1.428 . S
C455 C456 1.345 . S
C456 H448 0.950 . S
C456 C455 1.345 . S
C456 C457 1.424 . S
C457 H449 0.951 . S
C457 C456 1.424 . S
C457 C458 1.347 . S
C458 H450 0.951 1_554 S
C458 C453 1.429 . S
C458 C457 1.347 . S
H459 C460 0.951 . S
C460 H459 0.951 . S
C460 C466 1.265 . S
H461 C466 0.950 . S
H462 C470 0.949 . S
H463 C471 0.950 . S
H464 C472 0.951 . S
H465 C473 0.951 1_554 S
C466 C460 1.265 . S
C466 H461 0.950 . S
C466 C467 1.478 . S
C467 C454 1.394 1_655 S
C467 C466 1.478 . S
C467 C468 1.397 1_554 S
C468 C467 1.397 1_556 S
C468 C469 1.438 . S
C468 C473 1.429 . S
C469 C452 1.394 1_655 S
C469 C468 1.438 . S
C469 C470 1.428 . S
C470 H462 0.949 . S
C470 C469 1.428 . S
C470 C471 1.345 . S
C471 H463 0.950 . S
C471 C470 1.345 . S
C471 C472 1.424 . S
C472 H464 0.951 . S
C472 C471 1.424 . S
C472 C473 1.347 . S
C473 H465 0.951 1_556 S
C473 C468 1.429 . S
C473 C472 1.347 . S
C115 C27 0.657 . S
C130 C6 0.657 . S
C145 C44 0.604 . S
C160 C65 0.604 . S
C175 C82 0.756 . S
C190 C103 0.756 . S
C205 C105 2.434 . S
C220 C8 2.434 . S
C235 C94 1.266 . S
C250 C14 1.263 . S
C265 C77 1.563 . S
C280 C30 1.563 . S
C295 C46 2.432 . S
C310 C29 2.432 . S
C325 C52 1.349 . S
C340 C18 1.351 . S
C355 C68 1.540 . S
C370 C1 1.541 . S
C385 C67 2.476 . S
C400 C84 2.476 . S
C415 C90 1.220 . S
C430 C56 1.220 . S
C445 C106 1.569 . S
C460 C39 1.569 . S
