# Generated by pormake.
# Topology fnz, (5)-cn, num edge types: 1
# Building blocks:
#     Node 0, Type 0, BuildingBlock: XOMCOT_clean_sbu_0, # of connection points: 5
#     Node 1, Type 0, BuildingBlock: XOMCOT_clean_sbu_0, # of connection points: 5
#     Node 2, Type 0, BuildingBlock: XOMCOT_clean_sbu_0, # of connection points: 5
#     Node 3, Type 0, BuildingBlock: XOMCOT_clean_sbu_0, # of connection points: 5
#     Node 4, Type 0, BuildingBlock: XOMCOT_clean_sbu_0, # of connection points: 5
#     Node 5, Type 0, BuildingBlock: XOMCOT_clean_sbu_0, # of connection points: 5
#     Node 6, Type 0, BuildingBlock: XOMCOT_clean_sbu_0, # of connection points: 5
#     Node 7, Type 0, BuildingBlock: XOMCOT_clean_sbu_0, # of connection points: 5
#     Node 8, Type 0, BuildingBlock: XOMCOT_clean_sbu_0, # of connection points: 5
#     Node 9, Type 0, BuildingBlock: XOMCOT_clean_sbu_0, # of connection points: 5
#     Node 10, Type 0, BuildingBlock: XOMCOT_clean_sbu_0, # of connection points: 5
#     Node 11, Type 0, BuildingBlock: XOMCOT_clean_sbu_0, # of connection points: 5
#     Edge 12, Type (0, 0), BuildingBlock: UVAHIK_clean_linker_0, # of connection points: 2
#     Edge 13, Type (0, 0), BuildingBlock: UVAHIK_clean_linker_0, # of connection points: 2
#     Edge 14, Type (0, 0), BuildingBlock: UVAHIK_clean_linker_0, # of connection points: 2
#     Edge 15, Type (0, 0), BuildingBlock: UVAHIK_clean_linker_0, # of connection points: 2
#     Edge 16, Type (0, 0), BuildingBlock: UVAHIK_clean_linker_0, # of connection points: 2
#     Edge 17, Type (0, 0), BuildingBlock: UVAHIK_clean_linker_0, # of connection points: 2
#     Edge 18, Type (0, 0), BuildingBlock: UVAHIK_clean_linker_0, # of connection points: 2
#     Edge 19, Type (0, 0), BuildingBlock: UVAHIK_clean_linker_0, # of connection points: 2
#     Edge 20, Type (0, 0), BuildingBlock: UVAHIK_clean_linker_0, # of connection points: 2
#     Edge 21, Type (0, 0), BuildingBlock: UVAHIK_clean_linker_0, # of connection points: 2
#     Edge 22, Type (0, 0), BuildingBlock: UVAHIK_clean_linker_0, # of connection points: 2
#     Edge 23, Type (0, 0), BuildingBlock: UVAHIK_clean_linker_0, # of connection points: 2
#     Edge 24, Type (0, 0), BuildingBlock: UVAHIK_clean_linker_0, # of connection points: 2
#     Edge 25, Type (0, 0), BuildingBlock: UVAHIK_clean_linker_0, # of connection points: 2
#     Edge 26, Type (0, 0), BuildingBlock: UVAHIK_clean_linker_0, # of connection points: 2
#     Edge 27, Type (0, 0), BuildingBlock: UVAHIK_clean_linker_0, # of connection points: 2
#     Edge 28, Type (0, 0), BuildingBlock: UVAHIK_clean_linker_0, # of connection points: 2
#     Edge 29, Type (0, 0), BuildingBlock: UVAHIK_clean_linker_0, # of connection points: 2
#     Edge 30, Type (0, 0), BuildingBlock: UVAHIK_clean_linker_0, # of connection points: 2
#     Edge 31, Type (0, 0), BuildingBlock: UVAHIK_clean_linker_0, # of connection points: 2
#     Edge 32, Type (0, 0), BuildingBlock: UVAHIK_clean_linker_0, # of connection points: 2
#     Edge 33, Type (0, 0), BuildingBlock: UVAHIK_clean_linker_0, # of connection points: 2
#     Edge 34, Type (0, 0), BuildingBlock: UVAHIK_clean_linker_0, # of connection points: 2
#     Edge 35, Type (0, 0), BuildingBlock: UVAHIK_clean_linker_0, # of connection points: 2
#     Edge 36, Type (0, 0), BuildingBlock: UVAHIK_clean_linker_0, # of connection points: 2
#     Edge 37, Type (0, 0), BuildingBlock: UVAHIK_clean_linker_0, # of connection points: 2
#     Edge 38, Type (0, 0), BuildingBlock: UVAHIK_clean_linker_0, # of connection points: 2
#     Edge 39, Type (0, 0), BuildingBlock: UVAHIK_clean_linker_0, # of connection points: 2
#     Edge 40, Type (0, 0), BuildingBlock: UVAHIK_clean_linker_0, # of connection points: 2
#     Edge 41, Type (0, 0), BuildingBlock: UVAHIK_clean_linker_0, # of connection points: 2
# Relax obj value: 0.177
# Max RMSD: 0.247
# Mean RMSD: 0.247
data_MOF--net-fnz--node1-XOMCOT_clean_sbu_0--edge1-UVAHIK_clean_linker_0
_symmetry_space_group_name_H-M    P1
_symmetry_Int_Tables_number       1
_symmetry_cell_setting            triclinic
loop_
_symmetry_equiv_pos_as_xyz
'x, y, z'
_cell_length_a     55.817283
_cell_length_b     55.816506
_cell_length_c     39.091847
_cell_angle_alpha  89.987334
_cell_angle_beta   90.01389
_cell_angle_gamma 120.06562
loop_
_atom_site_label
_atom_site_type_symbol
_atom_site_fract_x
_atom_site_fract_y
_atom_site_fract_z
_atom_type_partial_charge
Co0 Co 0.42079 0.14428 0.03411 0.0
C1 C 0.39221 0.17747 0.02797 0.0
C2 C 0.37152 0.14299 0.06203 0.0
C3 C 0.35757 0.15748 0.06215 0.0
N4 N 0.39313 0.15534 0.04032 0.0
N5 N 0.37063 0.17922 0.0407 0.0
H6 H 0.40696 0.19224 0.01037 0.0
H7 H 0.36652 0.12486 0.0772 0.0
C8 C 0.36767 0.09674 0.00834 0.0
O9 O 0.36185 0.1145 0.99394 0.0
N10 N 0.44796 0.13305 0.02914 0.0
C11 C 0.47356 0.14775 0.01584 0.0
C12 C 0.48604 0.13183 0.01737 0.0
C13 C 0.44518 0.10866 0.03879 0.0
N14 N 0.46812 0.10724 0.03178 0.0
C15 C 0.44046 0.18239 0.97779 0.0
C16 C 0.42199 0.14339 0.92619 0.0
C17 C 0.43404 0.17143 0.91748 0.0
C18 C 0.44405 0.19109 0.9438 0.0
C19 C 0.4187 0.13562 0.9606 0.0
N20 N 0.42608 0.15493 0.98597 0.0
H21 H 0.44889 0.1979 -0.00236 0.0
H22 H 0.41046 0.11404 0.96657 0.0
H23 H 0.48244 0.16848 0.00561 0.0
H24 H 0.42682 0.09248 0.0511 0.0
O25 O 0.44843 0.17883 0.05447 0.0
O26 O 0.42143 0.14012 0.08291 0.0
O27 O 0.39069 0.10525 0.02382 0.0
C28 C 0.44075 0.166 0.0837 0.0
H29 H 0.33968 0.15276 0.07767 0.0
H30 H 0.50651 0.13775 0.00801 0.0
H31 H 0.41471 0.12751 0.90665 0.0
H32 H 0.45465 0.21305 0.93819 0.0
Co33 Co 0.2721 0.41877 0.03923 0.0
C34 C 0.21118 0.38863 0.03797 0.0
C35 C 0.22701 0.36343 0.05797 0.0
C36 C 0.19854 0.34787 0.05712 0.0
N37 N 0.2348 0.38884 0.04574 0.0
N38 N 0.18867 0.36377 0.04452 0.0
H39 H 0.21057 0.40611 0.02696 0.0
H40 H 0.24103 0.35665 0.06672 0.0
C41 C 0.30115 0.39253 0.00447 0.0
O42 O 0.31358 0.41409 0.98409 0.0
N43 N 0.30996 0.44873 0.03374 0.0
C44 C 0.31999 0.47436 0.02057 0.0
C45 C 0.34839 0.48857 0.02374 0.0
C46 C 0.33233 0.44818 0.04577 0.0
N47 N 0.35608 0.47196 0.03939 0.0
C48 C 0.25977 0.44409 0.9833 0.0
C49 C 0.24634 0.40219 0.93646 0.0
C50 C 0.24525 0.42569 0.92631 0.0
C51 C 0.25169 0.44664 0.95037 0.0
C52 C 0.25441 0.40045 0.96972 0.0
N53 N 0.2625 0.42192 0.99218 0.0
H54 H 0.26313 0.45972 0.0019 0.0
H55 H 0.25317 0.38134 0.97755 0.0
H56 H 0.30801 0.48274 0.0098 0.0
H57 H 0.33115 0.43059 0.059 0.0
O58 O 0.26239 0.44377 0.06108 0.0
O59 O 0.27867 0.41971 0.08768 0.0
O60 O 0.2837 0.39104 0.02673 0.0
C61 C 0.2699 0.4373 0.08951 0.0
H62 H 0.18607 0.32659 0.06538 0.0
H63 H 0.36229 0.50935 0.01467 0.0
H64 H 0.24023 0.38492 0.91917 0.0
H65 H 0.25047 0.46487 0.94388 0.0
Co66 Co 0.85149 0.2784 0.03448 0.0
C67 C 0.81836 0.21667 0.02927 0.0
C68 C 0.85291 0.23069 0.06328 0.0
C69 C 0.83817 0.20222 0.06402 0.0
N70 N 0.84067 0.23979 0.0412 0.0
N71 N 0.81638 0.1934 0.04263 0.0
H72 H 0.80356 0.21662 0.01168 0.0
H73 H 0.87105 0.24394 0.07838 0.0
C74 C 0.89976 0.27335 0.01013 0.0
O75 O 0.88251 0.24918 -0.00342 0.0
N76 N 0.86236 0.31672 0.02888 0.0
C77 C 0.84728 0.32713 0.0155 0.0
C78 C 0.86293 0.3556 0.01636 0.0
C79 C 0.88674 0.3387 0.03792 0.0
N80 N 0.88776 0.36281 0.03043 0.0
C81 C 0.8133 0.26001 0.97835 0.0
C82 C 0.85205 0.27839 0.92648 0.0
C83 C 0.82386 0.26353 0.91787 0.0
C84 C 0.8044 0.25504 0.94442 0.0
C85 C 0.86001 0.28326 0.9608 0.0
N86 N 0.84076 0.27244 0.98637 0.0
H87 H 0.7979 0.25352 -0.00175 0.0
H88 H 0.88171 0.29612 0.96642 0.0
H89 H 0.82645 0.31492 0.00568 0.0
H90 H 0.90321 0.33699 0.05014 0.0
O91 O 0.81684 0.2712 0.05472 0.0
O92 O 0.85567 0.28363 0.08322 0.0
O93 O 0.89068 0.2878 0.02447 0.0
C94 C 0.82968 0.27663 0.08396 0.0
H95 H 0.84272 0.18918 0.08001 0.0
H96 H 0.85666 0.36981 0.00678 0.0
H97 H 0.86797 0.286 0.90702 0.0
H98 H 0.78241 0.24472 0.93915 0.0
Co99 Co 0.57369 0.85282 0.03404 0.0
C100 C 0.60343 0.82206 0.02959 0.0
C101 C 0.62885 0.86201 0.0524 0.0
C102 C 0.64369 0.84835 0.05127 0.0
N103 N 0.60372 0.84546 0.03871 0.0
N104 N 0.62764 0.82323 0.03688 0.0
H105 H 0.58558 0.80435 0.01852 0.0
H106 H 0.63583 0.88244 0.06269 0.0
C107 C 0.59995 0.91052 0.00571 0.0
O108 O 0.57879 0.90256 0.98491 0.0
N109 N 0.54337 0.86024 0.03027 0.0
C110 C 0.51822 0.84498 0.01574 0.0
C111 C 0.50342 0.85841 0.0201 0.0
C112 C 0.54301 0.88211 0.04437 0.0
N113 N 0.51917 0.88187 0.03786 0.0
C114 C 0.55046 0.81874 0.97464 0.0
C115 C 0.5926 0.85171 0.92997 0.0
C116 C 0.57012 0.82711 0.91794 0.0
C117 C 0.54907 0.81029 0.94078 0.0
C118 C 0.59341 0.85911 0.9642 0.0
N119 N 0.57175 0.84352 0.9857 0.0
H120 H 0.53473 0.80483 0.99219 0.0
H121 H 0.61203 0.87686 0.97345 0.0
H122 H 0.51065 0.82541 0.00301 0.0
H123 H 0.5601 0.89806 0.05883 0.0
O124 O 0.54861 0.81652 0.05224 0.0
O125 O 0.5717 0.85486 0.08303 0.0
O126 O 0.60128 0.89314 0.02577 0.0
C127 C 0.55451 0.82832 0.08215 0.0
H128 H 0.6647 0.8564 0.06018 0.0
H129 H 0.48294 0.85175 0.01012 0.0
H130 H 0.6099 0.86457 0.91338 0.0
H131 H 0.53176 0.79068 0.93259 0.0
Co132 Co 0.71675 0.57365 0.0327 0.0
C133 C 0.77728 0.60262 0.02607 0.0
C134 C 0.76389 0.62692 0.054 0.0
C135 C 0.79239 0.64117 0.05273 0.0
N136 N 0.75458 0.60287 0.03719 0.0
N137 N 0.80084 0.62586 0.03512 0.0
H138 H 0.77634 0.5856 0.01178 0.0
H139 H 0.75089 0.63336 0.06687 0.0
C140 C 0.68707 0.60187 0.00494 0.0
O141 O 0.67368 0.58119 0.98352 0.0
N142 N 0.67844 0.54432 0.02929 0.0
C143 C 0.66716 0.51933 0.01399 0.0
C144 C 0.63888 0.50585 0.01847 0.0
C145 C 0.65698 0.54515 0.04389 0.0
N146 N 0.63252 0.52226 0.03703 0.0
C147 C 0.72557 0.54957 0.97253 0.0
C148 C 0.73669 0.59261 0.9285 0.0
C149 C 0.73743 0.56951 0.91569 0.0
C150 C 0.73213 0.54797 0.93846 0.0
C151 C 0.73054 0.59355 0.9629 0.0
N152 N 0.72351 0.57154 0.98412 0.0
H153 H 0.7231 0.53347 0.98987 0.0
H154 H 0.73233 0.61249 0.97247 0.0
H155 H 0.67819 0.51105 0.00048 0.0
H156 H 0.65932 0.56248 0.05889 0.0
O157 O 0.72705 0.54773 0.05054 0.0
O158 O 0.71311 0.57167 0.08176 0.0
O159 O 0.70529 0.60225 0.02509 0.0
C160 C 0.72188 0.55405 0.08064 0.0
H161 H 0.80571 0.66094 0.06474 0.0
H162 H 0.62414 0.48588 0.00792 0.0
H163 H 0.74107 0.61007 0.9123 0.0
H164 H 0.73384 0.53033 0.93041 0.0
Co165 Co 0.14009 0.72517 0.039 0.0
C166 C 0.16971 0.78606 0.03687 0.0
C167 C 0.12851 0.76951 0.05673 0.0
C168 C 0.14091 0.79794 0.05553 0.0
N169 N 0.14656 0.7622 0.0448 0.0
N170 N 0.16678 0.80825 0.04305 0.0
H171 H 0.18805 0.78707 0.0261 0.0
H172 H 0.10779 0.75521 0.06556 0.0
C173 C 0.08405 0.69401 0.00599 0.0
O174 O 0.09327 0.6816 0.98577 0.0
N175 N 0.13331 0.68767 0.03411 0.0
C176 C 0.1493 0.67846 0.02013 0.0
C177 C 0.13586 0.65007 0.02299 0.0
C178 C 0.11094 0.66484 0.04641 0.0
N179 N 0.11163 0.64155 0.03927 0.0
C180 C 0.17718 0.73828 0.98214 0.0
C181 C 0.14614 0.74836 0.93547 0.0
C182 C 0.17129 0.7509 0.92479 0.0
C183 C 0.18709 0.74617 0.94887 0.0
C184 C 0.13725 0.74083 0.96911 0.0
N185 N 0.15188 0.73427 0.99153 0.0
H186 H 0.19037 0.7362 0.00063 0.0
H187 H 0.11895 0.74115 0.97713 0.0
H188 H 0.16936 0.69101 0.00875 0.0
H189 H 0.09431 0.66534 0.06 0.0
O190 O 0.1754 0.73598 0.06009 0.0
O191 O 0.13546 0.71951 0.08766 0.0
O192 O 0.1002 0.71221 0.02749 0.0
C193 C 0.16199 0.72889 0.08896 0.0
H194 H 0.13168 0.81008 0.06353 0.0
H195 H 0.1431 0.63673 0.013 0.0
H196 H 0.13336 0.75228 0.91814 0.0
H197 H 0.2073 0.74923 0.94242 0.0
Co198 Co 0.8546 0.57616 0.45498 0.0
C199 C 0.82385 0.60588 0.45935 0.0
C200 C 0.86301 0.63051 0.43442 0.0
C201 C 0.84922 0.64522 0.43511 0.0
N202 N 0.84702 0.60596 0.44972 0.0
N203 N 0.82455 0.62968 0.45085 0.0
H204 H 0.80691 0.58863 0.47236 0.0
H205 H 0.88304 0.63705 0.42311 0.0
C206 C 0.91117 0.60258 0.48707 0.0
O207 O 0.90296 0.58093 0.50708 0.0
N208 N 0.86238 0.54613 0.45929 0.0
C209 C 0.8469 0.52069 0.47301 0.0
C210 C 0.86087 0.50633 0.46951 0.0
C211 C 0.88496 0.54641 0.44654 0.0
N212 N 0.8849 0.52266 0.45311 0.0
C213 C 0.81756 0.55103 0.51165 0.0
C214 C 0.8481 0.5917 0.55917 0.0
C215 C 0.82294 0.56886 0.56916 0.0
C216 C 0.80736 0.54856 0.54485 0.0
C217 C 0.85726 0.59362 0.52553 0.0
N218 N 0.84281 0.57272 0.50261 0.0
H219 H 0.80466 0.5358 0.49295 0.0
H220 H 0.87545 0.61252 0.51786 0.0
H221 H 0.82685 0.51266 0.48463 0.0
H222 H 0.90129 0.56389 0.43301 0.0
O223 O 0.81939 0.55129 0.43369 0.0
O224 O 0.85929 0.57554 0.40624 0.0
O225 O 0.89428 0.60402 0.46625 0.0
C226 C 0.83283 0.55815 0.40484 0.0
H227 H 0.85666 0.66553 0.42414 0.0
H228 H 0.85415 0.48574 0.47914 0.0
H229 H 0.8601 0.60843 0.57689 0.0
H230 H 0.78741 0.53098 0.5514 0.0
Co231 Co 0.27713 0.85503 0.45859 0.0
C232 C 0.21654 0.82239 0.46208 0.0
C233 C 0.23003 0.86065 0.43537 0.0
C234 C 0.20149 0.8459 0.43555 0.0
N235 N 0.23928 0.84584 0.4521 0.0
N236 N 0.19298 0.82179 0.45242 0.0
H237 H 0.21745 0.80622 0.47617 0.0
H238 H 0.2431 0.88054 0.42343 0.0
C239 C 0.30503 0.91193 0.4893 0.0
O240 O 0.31751 0.90403 0.51132 0.0
N241 N 0.3154 0.86436 0.46413 0.0
C242 C 0.32592 0.84954 0.47828 0.0
C243 C 0.35431 0.8644 0.47564 0.0
C244 C 0.33752 0.88744 0.45189 0.0
N245 N 0.36157 0.88834 0.45926 0.0
C246 C 0.26663 0.82054 0.51782 0.0
C247 C 0.25306 0.85089 0.56134 0.0
C248 C 0.25267 0.82721 0.57405 0.0
C249 C 0.25918 0.81171 0.55156 0.0
C250 C 0.26021 0.85868 0.52735 0.0
N251 N 0.26855 0.84458 0.50651 0.0
H252 H 0.26986 0.80741 0.50047 0.0
H253 H 0.2582 0.87569 0.51774 0.0
H254 H 0.31424 0.82927 0.48946 0.0
H255 H 0.33595 0.90335 0.43795 0.0
O256 O 0.26825 0.8196 0.43916 0.0
O257 O 0.28272 0.85857 0.41001 0.0
O258 O 0.28776 0.89469 0.46777 0.0
C259 C 0.2745 0.83228 0.40974 0.0
H260 H 0.18821 0.85236 0.42349 0.0
H261 H 0.36849 0.85825 0.48571 0.0
H262 H 0.24775 0.86336 0.57735 0.0
H263 H 0.25777 0.79248 0.5596 0.0
Co264 Co 0.42517 0.27867 0.45483 0.0
C265 C 0.39688 0.21788 0.45788 0.0
C266 C 0.37103 0.23199 0.43538 0.0
C267 C 0.35652 0.20349 0.43626 0.0
N268 N 0.39621 0.24086 0.44906 0.0
N269 N 0.3728 0.19466 0.45048 0.0
H270 H 0.41476 0.21825 0.46919 0.0
H271 H 0.36371 0.2453 0.42557 0.0
C272 C 0.39723 0.30674 0.48762 0.0
O273 O 0.41851 0.31972 0.5083 0.0
N274 N 0.45414 0.31704 0.45952 0.0
C275 C 0.47945 0.32827 0.47401 0.0
C276 C 0.49249 0.35664 0.47069 0.0
C277 C 0.45268 0.33867 0.44658 0.0
N278 N 0.47548 0.36311 0.45368 0.0
C279 C 0.45086 0.26834 0.51231 0.0
C280 C 0.40753 0.25308 0.55745 0.0
C281 C 0.4311 0.2525 0.56859 0.0
C282 C 0.4529 0.2601 0.54542 0.0
C283 C 0.40635 0.26136 0.52414 0.0
N284 N 0.42838 0.27018 0.50242 0.0
H285 H 0.467 0.2722 0.49425 0.0
H286 H 0.38714 0.25955 0.51563 0.0
H287 H 0.48828 0.31717 0.48611 0.0
H288 H 0.43498 0.33646 0.43253 0.0
O289 O 0.45125 0.26985 0.43399 0.0
O290 O 0.42594 0.28398 0.40614 0.0
O291 O 0.39638 0.28921 0.46593 0.0
C292 C 0.44412 0.27592 0.40497 0.0
H293 H 0.33546 0.19035 0.42759 0.0
H294 H 0.51264 0.37134 0.48086 0.0
H295 H 0.38992 0.2469 0.57418 0.0
H296 H 0.47098 0.25878 0.55238 0.0
Co297 Co 0.14741 0.42451 0.45943 0.0
C298 C 0.17985 0.39519 0.46538 0.0
C299 C 0.14651 0.37604 0.42946 0.0
C300 C 0.16102 0.3621 0.42884 0.0
N301 N 0.15811 0.39663 0.45266 0.0
N302 N 0.18206 0.37422 0.45143 0.0
H303 H 0.19415 0.40927 0.48392 0.0
H304 H 0.12903 0.37186 0.41346 0.0
C305 C 0.098 0.37079 0.47966 0.0
O306 O 0.11467 0.36388 0.49485 0.0
N307 N 0.13664 0.452 0.46491 0.0
C308 C 0.15105 0.47696 0.47995 0.0
C309 C 0.1354 0.48975 0.47865 0.0
C310 C 0.11272 0.44992 0.45446 0.0
N311 N 0.11128 0.47264 0.46268 0.0
C312 C 0.18182 0.44051 0.51917 0.0
C313 C 0.13973 0.42164 0.56684 0.0
C314 C 0.16711 0.43334 0.57828 0.0
C315 C 0.18835 0.44333 0.5539 0.0
C316 C 0.13415 0.41922 0.5318 0.0
N317 N 0.15495 0.427 0.50838 0.0
H318 H 0.19857 0.44928 0.50093 0.0
H319 H 0.11311 0.41177 0.52378 0.0
H320 H 0.17131 0.48512 0.49135 0.0
H321 H 0.09683 0.43216 0.44088 0.0
O322 O 0.1834 0.4525 0.44315 0.0
O323 O 0.14643 0.42802 0.41055 0.0
O324 O 0.10765 0.39452 0.4656 0.0
C325 C 0.17248 0.44674 0.41274 0.0
H326 H 0.15693 0.34504 0.4121 0.0
H327 H 0.1411 0.50978 0.48937 0.0
H328 H 0.12277 0.4149 0.58479 0.0
H329 H 0.20988 0.45301 0.56148 0.0
Co330 Co 0.72459 0.14415 0.45457 0.0
C331 C 0.78666 0.17538 0.4543 0.0
C332 C 0.76937 0.13738 0.42615 0.0
C333 C 0.79776 0.15014 0.42425 0.0
N334 N 0.76236 0.15288 0.44564 0.0
N335 N 0.80851 0.17404 0.44191 0.0
H336 H 0.7887 0.19255 0.46911 0.0
H337 H 0.75474 0.11805 0.41409 0.0
C338 C 0.72829 0.0961 0.48223 0.0
O339 O 0.75248 0.11367 0.49552 0.0
N340 N 0.68702 0.13519 0.46231 0.0
C341 C 0.67825 0.15168 0.47567 0.0
C342 C 0.64974 0.13729 0.47614 0.0
C343 C 0.66401 0.1112 0.45465 0.0
N344 N 0.64085 0.11183 0.46293 0.0
C345 C 0.74761 0.1845 0.50815 0.0
C346 C 0.72755 0.14802 0.56245 0.0
C347 C 0.74442 0.17639 0.56924 0.0
C348 C 0.75386 0.19473 0.54145 0.0
C349 C 0.72146 0.13874 0.52867 0.0
N350 N 0.73299 0.15671 0.50191 0.0
H351 H 0.75444 0.19914 0.48733 0.0
H352 H 0.70706 0.11709 0.52435 0.0
H353 H 0.69163 0.17266 0.48443 0.0
H354 H 0.66431 0.09387 0.44272 0.0
O355 O 0.7323 0.17846 0.43307 0.0
O356 O 0.71731 0.13848 0.40616 0.0
O357 O 0.71411 0.10493 0.4666 0.0
C358 C 0.72511 0.16467 0.4045 0.0
H359 H 0.80957 0.14274 0.41039 0.0
H360 H 0.63664 0.14488 0.4859 0.0
H361 H 0.71916 0.13298 0.58293 0.0
H362 H 0.76568 0.21691 0.54527 0.0
Co363 Co 0.58036 0.72357 0.45498 0.0
C364 C 0.61141 0.78452 0.45697 0.0
C365 C 0.63578 0.76817 0.43575 0.0
C366 C 0.65178 0.79659 0.4369 0.0
N367 N 0.61062 0.76072 0.44858 0.0
N368 N 0.6364 0.80679 0.45025 0.0
H369 H 0.59426 0.78545 0.46849 0.0
H370 H 0.64209 0.75394 0.42638 0.0
C371 C 0.60662 0.69309 0.48649 0.0
O372 O 0.5852 0.67965 0.50684 0.0
N373 N 0.55004 0.68592 0.46043 0.0
C374 C 0.52511 0.67619 0.47552 0.0
C375 C 0.51042 0.6478 0.47225 0.0
C376 C 0.54965 0.66341 0.44721 0.0
N377 N 0.52602 0.63982 0.45468 0.0
C378 C 0.55689 0.73654 0.51236 0.0
C379 C 0.59823 0.7462 0.55859 0.0
C380 C 0.57557 0.74842 0.5695 0.0
C381 C 0.55499 0.74408 0.54584 0.0
C382 C 0.59955 0.73912 0.52472 0.0
N383 N 0.57823 0.73273 0.50254 0.0
H384 H 0.54133 0.73422 0.49419 0.0
H385 H 0.61822 0.7397 0.51635 0.0
H386 H 0.51766 0.68839 0.48794 0.0
H387 H 0.5666 0.66436 0.43265 0.0
O388 O 0.55544 0.73409 0.43458 0.0
O389 O 0.57854 0.71749 0.4064 0.0
O390 O 0.60785 0.71129 0.46562 0.0
C391 C 0.5613 0.72673 0.40562 0.0
H392 H 0.673 0.80882 0.42832 0.0
H393 H 0.49011 0.63408 0.48278 0.0
H394 H 0.61517 0.75068 0.57584 0.0
H395 H 0.53754 0.7464 0.55316 0.0
C396 C 0.49906 0.08801 0.04083 0.0
C397 C 0.47223 0.08406 0.03762 0.0
C398 C 0.50304 0.06543 0.0455 0.0
C399 C 0.46855 0.99034 0.03054 0.0
H400 H 0.52621 0.99451 0.08991 0.0
C401 C 0.48545 0.89754 0.04767 0.0
C402 C 0.51301 0.90354 0.04492 0.0
C403 C 0.47942 0.91885 0.05139 0.0
C404 C 0.5101 0.9931 0.07313 0.0
H405 H 0.42852 0.05312 0.03702 0.0
H406 H 0.43545 0.01391 0.04591 0.0
H407 H 0.51759 0.03328 0.08758 0.0
H408 H 0.55588 0.93665 0.04457 0.0
H409 H 0.54536 0.97375 0.05109 0.0
H410 H 0.46131 0.95039 0.01569 0.0
C411 C 0.45344 0.03446 0.04443 0.0
C412 C 0.50519 0.0153 0.07175 0.0
C413 C 0.44946 0.05702 0.03972 0.0
C414 C 0.53444 0.93125 0.04714 0.0
C415 C 0.52841 0.95255 0.05085 0.0
C416 C 0.47342 0.96816 0.03196 0.0
C417 C 0.48028 0.03838 0.04708 0.0
C418 C 0.48456 0.01427 0.05015 0.0
C419 C 0.50082 0.94661 0.05242 0.0
C420 C 0.49443 0.9694 0.05299 0.0
H421 H 0.51704 0.10855 0.03976 0.0
H422 H 0.524 0.06914 0.0471 0.0
H423 H 0.4528 0.98905 0.01322 0.0
H424 H 0.46852 0.87639 0.04661 0.0
H425 H 0.45796 0.91361 0.05308 0.0
C426 C 0.58232 0.49078 0.04577 0.0
C427 C 0.60527 0.51774 0.04454 0.0
C428 C 0.55562 0.48653 0.0503 0.0
C429 C 0.51579 0.52191 0.03676 0.0
H430 H 0.45953 0.46111 0.09004 0.0
C431 C 0.40564 0.50495 0.05003 0.0
C432 C 0.38387 0.47763 0.04573 0.0
C433 C 0.43283 0.51054 0.05413 0.0
C434 C 0.475 0.47809 0.07491 0.0
H435 H 0.61807 0.56137 0.04781 0.0
H436 H 0.57172 0.55393 0.05652 0.0
H437 H 0.50693 0.46962 0.08991 0.0
H438 H 0.37363 0.43471 0.04257 0.0
H439 H 0.42099 0.44445 0.04965 0.0
H440 H 0.48389 0.53015 0.0213 0.0
C441 C 0.57431 0.53607 0.05354 0.0
C442 C 0.50213 0.48295 0.07483 0.0
C443 C 0.60097 0.54031 0.04898 0.0
C444 C 0.38983 0.45595 0.04638 0.0
C445 C 0.41701 0.46154 0.05044 0.0
C446 C 0.48872 0.51707 0.03686 0.0
C447 C 0.55128 0.50915 0.05368 0.0
C448 C 0.52278 0.50478 0.0555 0.0
C449 C 0.43886 0.48892 0.05395 0.0
C450 C 0.46795 0.49496 0.05568 0.0
H451 H 0.58492 0.47295 0.04282 0.0
H452 H 0.5383 0.46553 0.05003 0.0
H453 H 0.53106 0.53859 0.02111 0.0
H454 H 0.40167 0.52204 0.05018 0.0
H455 H 0.44916 0.53183 0.05731 0.0
C456 C 0.06205 0.60681 0.04591 0.0
C457 C 0.08987 0.61339 0.04462 0.0
C458 C 0.04079 0.57931 0.04848 0.0
C459 C 0.02576 0.50888 0.02881 0.0
H460 H 0.96036 0.48692 0.08421 0.0
C461 C 0.93798 0.39521 0.03736 0.0
C462 C 0.91075 0.3904 0.03561 0.0
C463 C 0.96031 0.42202 0.04152 0.0
C464 C 0.9784 0.49278 0.06841 0.0
H465 H 0.11717 0.59627 0.04644 0.0
H466 H 0.08002 0.5482 0.05085 0.0
H467 H -0.00132 0.53458 0.08665 0.0
H468 H 0.88571 0.41008 0.03772 0.0
H469 H 0.92467 0.45688 0.04412 0.0
H470 H 0.00537 0.46731 0.01005 0.0
C471 C 0.07469 0.56434 0.04937 0.0
C472 C 0.00035 0.52005 0.06985 0.0
C473 C 0.09595 0.59186 0.04685 0.0
C474 C 0.90639 0.41304 0.03854 0.0
C475 C 0.92873 0.43986 0.04267 0.0
C476 C 0.00381 0.48165 0.02731 0.0
C477 C 0.04686 0.55774 0.04976 0.0
C478 C 0.02418 0.52845 0.04985 0.0
C479 C 0.95596 0.44468 0.04399 0.0
C480 C 0.97977 0.47333 0.04687 0.0
H481 H 0.05657 0.6228 0.04366 0.0
H482 H 0.01955 0.57488 0.04823 0.0
H483 H 0.04365 0.5148 0.01268 0.0
H484 H 0.94217 0.37835 0.03486 0.0
H485 H 0.98101 0.42499 0.04279 0.0
C486 C 0.0613 0.45451 0.45337 0.0
C487 C 0.08831 0.47711 0.45689 0.0
C488 C 0.03891 0.45875 0.44878 0.0
C489 C 0.02043 0.51145 0.42395 0.0
H490 H 0.9542 0.46552 0.47698 0.0
C491 C 0.93472 0.53877 0.4466 0.0
C492 C 0.90707 0.51704 0.4472 0.0
C493 C 0.95639 0.5332 0.44371 0.0
C494 C 0.97236 0.47823 0.46156 0.0
H495 H 0.11296 0.52193 0.45744 0.0
H496 H 0.07378 0.52934 0.45023 0.0
H497 H 0.99296 0.45719 0.47982 0.0
H498 H 0.88049 0.47255 0.44368 0.0
H499 H 0.91835 0.46279 0.43859 0.0
H500 H -0.00012 0.5328 0.40619 0.0
C501 C 0.06999 0.50832 0.45065 0.0
C502 C 0.9946 0.47347 0.46321 0.0
C503 C 0.09242 0.50407 0.45522 0.0
C504 C 0.90157 0.48968 0.44383 0.0
C505 C 0.92324 0.48411 0.44092 0.0
C506 C 0.99816 0.51624 0.42233 0.0
C507 C 0.04296 0.4857 0.44766 0.0
C508 C 0.01896 0.49014 0.44463 0.0
C509 C 0.9509 0.50579 0.44138 0.0
C510 C 0.97396 0.4998 0.44133 0.0
H511 H 0.05728 0.43346 0.45488 0.0
H512 H 0.01837 0.44089 0.44618 0.0
H513 H 0.03877 0.52439 0.40895 0.0
H514 H 0.93971 0.56005 0.44971 0.0
H515 H 0.97747 0.55034 0.44463 0.0
C516 C 0.59102 0.09584 0.45597 0.0
C517 C 0.6126 0.08987 0.45882 0.0
C518 C 0.5636 0.07452 0.45265 0.0
C519 C 0.52055 0.00081 0.42899 0.0
H520 H 0.46476 0.00443 0.48424 0.0
C521 C 0.41177 0.90656 0.45193 0.0
C522 C 0.38921 0.9111 0.45372 0.0
C523 C 0.43878 0.92883 0.44918 0.0
C524 C 0.47998 0.00329 0.46821 0.0
H525 H 0.62214 0.05667 0.46054 0.0
H526 H 0.57435 0.01953 0.45467 0.0
H527 H 0.51238 0.04251 0.48587 0.0
H528 H 0.37739 0.9427 0.45339 0.0
H529 H 0.42438 0.98143 0.44777 0.0
H530 H 0.48813 0.96143 0.41157 0.0
C531 C 0.5787 0.04075 0.45452 0.0
C532 C 0.50729 0.02511 0.46919 0.0
C533 C 0.60612 0.06206 0.45789 0.0
C534 C 0.39422 0.93839 0.45173 0.0
C535 C 0.42122 0.96065 0.44895 0.0
C536 C 0.49319 0.97899 0.42796 0.0
C537 C 0.55713 0.04673 0.45205 0.0
C538 C 0.52792 0.02402 0.4498 0.0
C539 C 0.44384 0.95615 0.44814 0.0
C540 C 0.47264 0.97989 0.44776 0.0
H541 H 0.5953 0.11701 0.456 0.0
H542 H 0.54746 0.0798 0.45031 0.0
H543 H 0.53592 -0.00043 0.41339 0.0
H544 H 0.40861 0.8858 0.45301 0.0
H545 H 0.45574 0.92465 0.4489 0.0
C546 C 0.50644 0.41338 0.445 0.0
C547 C 0.47961 0.39037 0.44741 0.0
C548 C 0.51042 0.44003 0.44113 0.0
C549 C 0.47564 0.47997 0.45824 0.0
H550 H 0.5338 0.53541 0.40112 0.0
C551 C 0.49235 0.59018 0.44577 0.0
C552 C 0.51989 0.61191 0.44814 0.0
C553 C 0.48642 0.56287 0.44165 0.0
C554 C 0.51757 0.52019 0.41733 0.0
H555 H 0.43587 0.37737 0.4473 0.0
H556 H 0.44279 0.42369 0.43985 0.0
H557 H 0.52531 0.48803 0.4011 0.0
H558 H 0.5628 0.62194 0.44789 0.0
H559 H 0.55249 0.57442 0.44074 0.0
H560 H 0.46817 0.51212 0.47492 0.0
C561 C 0.46078 0.42117 0.44127 0.0
C562 C 0.51272 0.49307 0.41733 0.0
C563 C 0.45682 0.39455 0.44511 0.0
C564 C 0.54138 0.60578 0.44555 0.0
C565 C 0.53546 0.5785 0.44147 0.0
C566 C 0.48048 0.50705 0.45824 0.0
C567 C 0.48763 0.44426 0.43966 0.0
C568 C 0.49187 0.47271 0.43804 0.0
C569 C 0.50791 0.55669 0.43987 0.0
C570 C 0.50168 0.52754 0.43805 0.0
H571 H 0.5244 0.41084 0.44635 0.0
H572 H 0.53137 0.45739 0.44028 0.0
H573 H 0.45971 0.46491 0.47492 0.0
H574 H 0.47536 0.59427 0.44719 0.0
H575 H 0.46498 0.54657 0.43999 0.0
C576 C 0.35498 0.04737 0.01766 0.0
C577 C 0.34733 0.06675 0.00733 0.0
C578 C 0.33541 0.01914 0.01866 0.0
C579 C 0.26101 0.97186 0.02842 0.0
H580 H 0.2773 0.91608 0.9953 0.0
C581 C 0.17832 0.85593 0.02853 0.0
C582 C 0.18688 0.83693 0.03709 0.0
C583 C 0.19778 0.88378 0.02293 0.0
C584 C 0.27252 0.93136 0.00506 0.0
H585 H 0.31325 0.07162 0.98937 0.0
H586 H 0.27903 0.02229 0.99135 0.0
H587 H 0.31162 0.96503 0.98868 0.0
H588 H 0.22253 0.83226 0.04681 0.0
H589 H 0.25653 0.88094 0.03778 0.0
H590 H 0.22228 0.93842 0.04561 0.0
C591 C 0.30017 0.02901 -0.00123 0.0
C592 C 0.29216 0.9594 0.00114 0.0
C593 C 0.3198 0.05723 -0.00257 0.0
C594 C 0.21533 0.84636 0.03983 0.0
C595 C 0.23481 0.87427 0.03455 0.0
C596 C 0.24147 0.94385 0.03262 0.0
C597 C 0.30772 0.00971 0.00967 0.0
C598 C 0.28662 0.97994 0.01282 0.0
C599 C 0.22628 0.89337 0.02608 0.0
C600 C 0.24698 0.92322 0.02105 0.0
H601 H 0.37604 0.054 0.02536 0.0
H602 H 0.34179 0.00477 0.02742 0.0
H603 H 0.25632 0.98722 0.03816 0.0
H604 H 0.15656 0.84919 0.02566 0.0
H605 H 0.19043 0.89774 0.0158 0.0
C606 C 0.33685 0.19571 0.04027 0.0
C607 C 0.36364 0.2004 0.03368 0.0
C608 C 0.33018 0.21632 0.03387 0.0
C609 C 0.36259 0.29212 0.02141 0.0
H610 H 0.2895 0.27273 0.98856 0.0
C611 C 0.33242 0.37445 0.98744 0.0
C612 C 0.30766 0.37 0.00248 0.0
C613 C 0.33935 0.35359 0.98792 0.0
C614 C 0.30997 0.27841 -0.0022 0.0
H615 H 0.40444 0.23092 0.01515 0.0
H616 H 0.39252 0.2662 0.00284 0.0
H617 H 0.30154 0.2366 0.99573 0.0
H618 H 0.27033 0.33999 0.02879 0.0
H619 H 0.28231 0.30358 0.02928 0.0
H620 H 0.37097 0.33397 0.0233 0.0
C621 C 0.37676 0.24673 0.01356 0.0
C622 C 0.31685 0.25773 0.00208 0.0
C623 C 0.3835 0.22622 0.02021 0.0
C624 C 0.28962 0.34407 0.0171 0.0
C625 C 0.29637 0.32316 0.01719 0.0
C626 C 0.35579 0.31282 0.01682 0.0
C627 C 0.35007 0.24211 0.02047 0.0
C628 C 0.34314 0.26427 0.01435 0.0
C629 C 0.32146 0.32781 0.00301 0.0
C630 C 0.32931 0.30613 0.00537 0.0
H631 H 0.32089 0.17607 0.05026 0.0
H632 H 0.30951 0.21212 0.03995 0.0
H633 H 0.38287 0.2979 0.03142 0.0
H634 H 0.34678 0.39427 0.97613 0.0
H635 H 0.35876 0.35765 0.97663 0.0
C636 C 0.94864 0.31165 0.01804 0.0
C637 C 0.92994 0.28402 0.00914 0.0
C638 C 0.97706 0.32136 0.01917 0.0
C639 C 0.031 0.30481 0.99196 0.0
H640 H 0.07236 0.35349 0.06705 0.0
C641 C 0.14056 0.3281 0.0308 0.0
C642 C 0.16012 0.35571 0.03865 0.0
C643 C 0.11284 0.32021 0.02524 0.0
C644 C 0.06116 0.34016 0.04572 0.0
H645 H 0.92645 0.24505 0.9939 0.0
H646 H 0.97598 0.2618 -0.0034 0.0
H647 H 0.02336 0.33812 0.0606 0.0
H648 H 0.16591 0.39666 0.04697 0.0
H649 H 0.11744 0.38289 0.0373 0.0
H650 H 0.06885 0.30642 0.97767 0.0
C651 C 0.96877 0.27614 0.0021 0.0
C652 C 0.03307 0.33139 0.04193 0.0
C653 C 0.94033 0.26648 0.0007 0.0
C654 C 0.15137 0.37529 0.04072 0.0
C655 C 0.12359 0.36736 0.03547 0.0
C656 C 0.05908 0.31343 -0.00409 0.0
C657 C 0.98747 0.30364 0.01172 0.0
C658 C 0.01759 0.31354 0.01506 0.0
C659 C 0.10403 0.33973 0.02771 0.0
C660 C 0.07442 0.33113 0.02289 0.0
H661 H 0.94133 0.32579 0.02436 0.0
H662 H 0.99087 0.3428 0.02598 0.0
H663 H 0.01987 0.29143 0.97065 0.0
H664 H 0.14672 0.31261 0.02863 0.0
H665 H 0.0982 0.29872 0.01958 0.0
C666 C 0.79916 0.14294 0.04391 0.0
C667 C 0.79483 0.16515 0.03648 0.0
C668 C 0.77819 0.11561 0.03848 0.0
C669 C 0.70215 0.07265 0.02708 0.0
H670 H 0.72026 0.01777 0.99544 0.0
C671 C 0.61865 0.96062 0.99178 0.0
C672 C 0.62253 0.93969 0.00601 0.0
C673 C 0.63972 0.98833 0.99348 0.0
C674 C 0.71493 0.03287 0.00443 0.0
H675 H 0.76459 0.17557 0.01746 0.0
H676 H 0.72864 0.12821 0.00686 0.0
H677 H 0.75697 0.06581 0.00198 0.0
H678 H 0.6517 0.93131 0.03256 0.0
H679 H 0.68846 0.97958 0.03522 0.0
H680 H 0.66004 0.0396 0.0292 0.0
C681 C 0.74811 0.1319 0.0175 0.0
C682 C 0.73596 0.06038 0.00832 0.0
C683 C 0.76899 0.15922 0.02316 0.0
C684 C 0.64804 0.94696 0.02142 0.0
C685 C 0.66917 0.97458 0.02276 0.0
C686 C 0.6811 0.04518 0.02288 0.0
C687 C 0.75237 0.10973 0.02524 0.0
C688 C 0.72988 0.08059 0.01999 0.0
C689 C 0.66517 0.99558 0.00905 0.0
C690 C 0.68731 0.02497 0.01181 0.0
H691 H 0.8188 0.14658 0.05381 0.0
H692 H 0.78214 0.09907 0.04517 0.0
H693 H 0.69672 0.08751 0.03665 0.0
H694 H 0.59917 0.95567 0.97987 0.0
H695 H 0.63614 0.0041 0.98251 0.0
C696 C 0.65483 0.80059 0.05115 0.0
C697 C 0.63448 0.8018 0.03122 0.0
C698 C 0.66095 0.77944 0.04621 0.0
C699 C 0.6313 0.7087 0.01215 0.0
H700 H 0.70737 0.72471 0.01447 0.0
C701 C 0.66119 0.62515 0.98432 0.0
C702 C 0.68144 0.62511 0.00566 0.0
C703 C 0.65571 0.647 0.9856 0.0
C704 C 0.686 0.71985 0.01407 0.0
H705 H 0.60521 0.78201 0.98973 0.0
H706 H 0.61577 0.74504 0.98134 0.0
H707 H 0.69747 0.76239 0.02021 0.0
H708 H 0.71181 0.64804 0.04511 0.0
H709 H 0.70202 0.6858 0.04759 0.0
H710 H 0.61979 0.66612 0.00646 0.0
C711 C 0.62669 0.76027 0.00113 0.0
C712 C 0.68033 0.74145 0.01734 0.0
C713 C 0.62062 0.78147 0.00599 0.0
C714 C 0.69613 0.64743 0.02819 0.0
C715 C 0.69065 0.66922 0.02947 0.0
C716 C 0.63696 0.68708 0.00897 0.0
C717 C 0.64685 0.75896 0.02126 0.0
C718 C 0.65292 0.7361 0.01665 0.0
C719 C 0.67037 0.66928 0.00823 0.0
C720 C 0.66437 0.69237 0.01015 0.0
H721 H 0.66564 0.81564 0.07111 0.0
H722 H 0.67633 0.77879 0.06247 0.0
H723 H 0.60993 0.70386 0.01194 0.0
H724 H 0.6495 0.60828 0.96667 0.0
H725 H 0.64014 0.64655 0.96864 0.0
C726 C 0.85125 0.6596 0.03307 0.0
C727 C 0.82901 0.6325 0.02839 0.0
C728 C 0.8785 0.66588 0.0274 0.0
C729 C 0.92167 0.63273 0.0208 0.0
H730 H 0.97598 0.70441 0.98468 0.0
C731 C 0.03459 0.66183 0.98993 0.0
C732 C 0.05486 0.68709 0.00404 0.0
C733 C 0.00675 0.65478 0.98987 0.0
C734 C 0.96102 0.68433 0.99484 0.0
H735 H 0.81859 0.59081 0.01359 0.0
H736 H 0.86573 0.60202 0.00248 0.0
H737 H 0.92775 0.69268 0.98978 0.0
H738 H 0.06204 0.72508 0.02831 0.0
H739 H 0.01354 0.71291 0.02778 0.0
H740 H 0.95507 0.62442 0.02554 0.0
C741 C 0.86212 0.61833 0.01131 0.0
C742 C 0.93341 0.67763 -0.00205 0.0
C743 C 0.83488 0.61197 0.01731 0.0
C744 C 0.04687 0.70542 0.01737 0.0
C745 C 0.01914 0.69855 0.01686 0.0
C746 C 0.94923 0.63933 0.01732 0.0
C747 C 0.88431 0.64531 0.01653 0.0
C748 C 0.91343 0.65188 0.01142 0.0
C749 C -0.00123 0.67306 0.00343 0.0
C750 C 0.96923 0.66533 0.00474 0.0
H751 H 0.84778 0.67614 0.04114 0.0
H752 H 0.89504 0.68682 0.03216 0.0
H753 H 0.90701 0.61288 0.03178 0.0
H754 H 0.04014 0.64724 0.97964 0.0
H755 H 0.99144 0.63505 0.97922 0.0
C756 C 0.15918 0.77349 0.46943 0.0
C757 C 0.16482 0.79985 0.45844 0.0
C758 C 0.13202 0.75232 0.47527 0.0
C759 C 0.06055 0.73947 0.48909 0.0
H760 H 0.03969 0.66443 0.46312 0.0
C761 C 0.94722 0.6515 0.47448 0.0
C762 C 0.94016 0.62549 0.48815 0.0
C763 C 0.97475 0.67288 0.47384 0.0
C764 C 0.0453 0.68523 0.47087 0.0
H765 H 0.14564 0.82425 0.44538 0.0
H766 H 0.09848 0.78717 0.45417 0.0
H767 H 0.08736 0.70151 0.45539 0.0
H768 H 0.95639 0.6015 0.51205 0.0
H769 H 0.00473 0.6389 0.51052 0.0
H770 H 0.01813 0.72312 0.50351 0.0
C771 C 0.11518 0.78304 0.45899 0.0
C772 C 0.07265 0.70652 0.46652 0.0
C773 C 0.14237 0.80432 0.45346 0.0
C774 C 0.9612 0.62137 0.50152 0.0
C775 C 0.98884 0.64268 0.50045 0.0
C776 C 0.03314 0.71822 0.49308 0.0
C777 C 0.10963 0.75675 0.46997 0.0
C778 C 0.08062 0.73396 0.47542 0.0
C779 C 0.99588 0.66861 0.48646 0.0
C780 C 0.02522 0.69091 0.48386 0.0
H781 H 0.17561 0.76888 0.47333 0.0
H782 H 0.12863 0.73249 0.48418 0.0
H783 H 0.066 0.76021 0.49687 0.0
H784 H 0.93146 0.65533 0.46405 0.0
H785 H 0.9796 0.69255 0.46263 0.0
C786 C 0.34537 0.14472 0.43704 0.0
C787 C 0.36585 0.16643 0.45667 0.0
C788 C 0.33853 0.11735 0.44306 0.0
C789 C 0.36566 0.07517 0.48041 0.0
H790 H 0.28864 0.01703 0.47839 0.0
C791 C 0.33135 0.96089 0.51063 0.0
C792 C 0.31113 0.94096 0.48889 0.0
C793 C 0.3377 0.98851 0.50915 0.0
C794 C 0.31026 0.033 0.47876 0.0
H795 H 0.3949 0.17619 0.49847 0.0
H796 H 0.38309 0.12842 0.50878 0.0
H797 H 0.30049 0.06509 0.47094 0.0
H798 H 0.28158 0.93439 0.44872 0.0
H799 H 0.29284 0.98241 0.44594 0.0
H800 H 0.37545 0.04303 0.48775 0.0
C801 C 0.37256 0.13268 0.48845 0.0
C802 C 0.31704 0.06053 0.47449 0.0
C803 C 0.37936 0.16007 0.48248 0.0
C804 C 0.29722 0.94917 0.46593 0.0
C805 C 0.30354 0.97672 0.46447 0.0
C806 C 0.35887 0.0476 0.48461 0.0
C807 C 0.35203 0.11102 0.46884 0.0
C808 C 0.34483 0.0819 0.47492 0.0
C809 C 0.32393 0.99674 0.48595 0.0
C810 C 0.3311 0.02617 0.48347 0.0
H811 H 0.33487 0.14886 0.41661 0.0
H812 H 0.32295 0.10118 0.42712 0.0
H813 H 0.38727 0.09115 0.4805 0.0
H814 H 0.34247 0.95525 0.5286 0.0
H815 H 0.35332 0.00339 0.5263 0.0
C816 C 0.22881 0.38666 0.47252 0.0
C817 C 0.20328 0.36718 0.45802 0.0
C818 C 0.24941 0.37993 0.47854 0.0
C819 C 0.26101 0.32014 0.48625 0.0
H820 H 0.3374 0.37567 0.46819 0.0
C821 C 0.34899 0.29489 0.47267 0.0
C822 C 0.37438 0.31286 0.48855 0.0
C823 C 0.3278 0.30128 0.47187 0.0
C824 C 0.3162 0.36006 0.47375 0.0
H825 H 0.17952 0.32509 0.43897 0.0
H826 H 0.21575 0.31376 0.44825 0.0
H827 H 0.30105 0.38724 0.46054 0.0
H828 H 0.39743 0.35152 0.51625 0.0
H829 H 0.36037 0.3628 0.51458 0.0
H830 H 0.27627 0.29278 0.49852 0.0
C831 C 0.21965 0.33411 0.45559 0.0
C832 C 0.29534 0.36668 0.46943 0.0
C833 C 0.19895 0.34076 0.4498 0.0
C834 C 0.37804 0.33721 0.50398 0.0
C835 C 0.35692 0.34376 0.50282 0.0
C836 C 0.28187 0.31347 0.49028 0.0
C837 C 0.24517 0.35363 0.46997 0.0
C838 C 0.26745 0.34677 0.47547 0.0
C839 C 0.33165 0.32592 0.48659 0.0
C840 C 0.30965 0.33333 0.48391 0.0
H841 H 0.23321 0.40732 0.47885 0.0
H842 H 0.26866 0.39539 0.49006 0.0
H843 H 0.23985 0.30444 0.49176 0.0
H844 H 0.34552 0.27595 0.4606 0.0
H845 H 0.30865 0.28728 0.4589 0.0
C846 C 0.04929 0.36019 0.47033 0.0
C847 C 0.0679 0.35106 0.47864 0.0
C848 C 0.02093 0.34138 0.46799 0.0
C849 C 0.96712 0.26928 0.49076 0.0
H850 H 0.92528 0.28056 0.41966 0.0
C851 C 0.857 0.18545 0.44942 0.0
C852 C 0.83736 0.19406 0.44649 0.0
C853 C 0.88497 0.20483 0.45438 0.0
C854 C 0.93668 0.27729 0.43979 0.0
H855 H 0.07139 0.31509 0.49109 0.0
H856 H 0.02208 0.28214 0.48597 0.0
H857 H 0.9744 0.31387 0.42654 0.0
H858 H 0.83158 0.22965 0.44584 0.0
H859 H 0.88059 0.26363 0.45411 0.0
H860 H 0.92935 0.23217 0.50319 0.0
C861 C 0.02921 0.3039 0.48211 0.0
C862 C 0.96481 0.29643 0.44389 0.0
C863 C 0.05754 0.32278 0.48489 0.0
C864 C 0.84626 0.22244 0.44832 0.0
C865 C 0.87428 0.24186 0.45279 0.0
C866 C 0.93906 0.24996 0.48635 0.0
C867 C 0.01052 0.31292 0.47345 0.0
C868 C 0.98043 0.2927 0.46945 0.0
C869 C 0.89388 0.23323 0.456 0.0
C870 C 0.92358 0.25379 0.46084 0.0
H871 H 0.05663 0.38192 0.46568 0.0
H872 H 0.00717 0.34921 0.46198 0.0
H873 H 0.97828 0.26594 0.51111 0.0
H874 H 0.85065 0.16369 0.44838 0.0
H875 H 0.89969 0.19765 0.45654 0.0
C876 C 0.6905 0.0469 0.47441 0.0
C877 C 0.71782 0.06598 0.48415 0.0
C878 C 0.6812 0.01852 0.47394 0.0
C879 C 0.70703 0.97032 0.46407 0.0
H880 H 0.63498 0.91535 0.4985 0.0
C881 C 0.67279 0.85437 0.46469 0.0
C882 C 0.6451 0.83543 0.45652 0.0
C883 C 0.68139 0.88224 0.47031 0.0
C884 C 0.65502 0.9304 0.48837 0.0
H885 H 0.7566 0.07019 0.5018 0.0
H886 H 0.74038 0.02065 0.50075 0.0
H887 H 0.65031 0.9645 0.50465 0.0
H888 H 0.6047 0.83083 0.44771 0.0
H889 H 0.61975 0.87961 0.45672 0.0
H890 H 0.71161 0.9365 0.44692 0.0
C891 C 0.72623 0.0277 0.49336 0.0
C892 C 0.66382 0.95855 0.49204 0.0
C893 C 0.73544 0.05604 0.49415 0.0
C894 C 0.62611 0.84491 0.45433 0.0
C895 C 0.63476 0.87287 0.45961 0.0
C896 C 0.69816 0.94222 0.46012 0.0
C897 C 0.69911 0.00867 0.48289 0.0
C898 C 0.68992 0.97879 0.47991 0.0
C899 C 0.66256 0.89193 0.46753 0.0
C900 C 0.67204 0.92187 0.47221 0.0
H901 H 0.67637 0.05388 0.46666 0.0
H902 H 0.66026 0.00437 0.46555 0.0
H903 H 0.72706 0.98544 0.45396 0.0
H904 H 0.68777 0.84756 0.46717 0.0
H905 H 0.70282 0.89614 0.47709 0.0
C906 C 0.62569 0.66179 0.49847 0.0
C907 C 0.62977 0.68751 0.48748 0.0
C908 C 0.64734 0.65602 0.49673 0.0
C909 C 0.71438 0.67982 0.45246 0.0
H910 H 0.72349 0.63395 0.51975 0.0
C911 C 0.8091 0.66427 0.45423 0.0
C912 C 0.80323 0.63669 0.45682 0.0
C913 C 0.78836 0.67092 0.45954 0.0
C914 C 0.72108 0.6467 0.50072 0.0
H915 H 0.6599 0.72783 0.46766 0.0
H916 H 0.69778 0.71822 0.46578 0.0
H917 H 0.68664 0.64503 0.52699 0.0
H918 H 0.77041 0.59451 0.46704 0.0
H919 H 0.73468 0.60635 0.47699 0.0
H920 H 0.74908 0.68177 0.42651 0.0
C921 C 0.67774 0.70207 0.47459 0.0
C922 C 0.69992 0.65296 0.50476 0.0
C923 C 0.65606 0.70767 0.47586 0.0
C924 C 0.77607 0.61603 0.4653 0.0
C925 C 0.75544 0.62276 0.47098 0.0
C926 C 0.73568 0.67383 0.44867 0.0
C927 C 0.67356 0.676 0.48437 0.0
C928 C 0.69626 0.66956 0.48062 0.0
C929 C 0.76134 0.65023 0.46794 0.0
C930 C 0.73918 0.65713 0.47266 0.0
H931 H 0.60555 0.64582 0.50731 0.0
H932 H 0.64325 0.63561 0.50412 0.0
H933 H 0.71185 0.69213 0.43292 0.0
H934 H 0.82973 0.68086 0.44833 0.0
H935 H 0.79351 0.69233 0.45737 0.0
C936 C 0.47381 0.26282 0.37081 0.0
C937 C 0.45459 0.27206 0.37198 0.0
C938 C 0.48142 0.2565 0.33946 0.0
C939 C 0.47517 0.22401 0.27464 0.0
H940 H 0.47468 0.26024 0.19024 0.0
C941 C 0.44104 0.1663 0.14742 0.0
C942 C 0.45185 0.18044 0.11651 0.0
C943 C 0.44913 0.18036 0.17853 0.0
C944 C 0.47547 0.25012 0.21349 0.0
H945 H 0.42916 0.28304 0.34126 0.0
H946 H 0.44177 0.27143 0.28696 0.0
H947 H 0.4762 0.28192 0.24475 0.0
H948 H 0.48069 0.2201 0.09395 0.0
H949 H 0.49525 0.24469 0.14851 0.0
H950 H 0.47442 0.19221 0.24339 0.0
C951 C 0.45148 0.26951 0.30998 0.0
C952 C 0.47595 0.26239 0.24482 0.0
C953 C 0.44403 0.27596 0.34122 0.0
C954 C 0.47189 0.2087 0.1174 0.0
C955 C 0.48011 0.2228 0.14863 0.0
C956 C 0.47495 0.21187 0.24332 0.0
C957 C 0.46985 0.25918 0.30871 0.0
C958 C 0.4747 0.24895 0.27576 0.0
C959 C 0.46837 0.2089 0.17953 0.0
C960 C 0.47399 0.22424 0.21239 0.0
H961 H 0.48244 0.2598 0.39414 0.0
H962 H 0.49593 0.24898 0.33938 0.0
H963 H 0.47411 0.21298 0.29789 0.0
H964 H 0.42554 0.14451 0.1476 0.0
H965 H 0.43926 0.16902 0.20167 0.0
C966 C 0.28435 0.44996 0.15016 0.0
C967 C 0.26769 0.4486 0.12255 0.0
C968 C 0.28084 0.45871 0.18227 0.0
C969 C 0.24284 0.48873 0.22836 0.0
H970 H 0.24694 0.4458 0.30379 0.0
C971 C 0.17641 0.45757 0.35051 0.0
C972 C 0.18929 0.45868 0.38177 0.0
C973 C 0.1916 0.46485 0.32015 0.0
C974 C 0.24622 0.45837 0.28312 0.0
H975 H 0.23484 0.45593 0.10626 0.0
H976 H 0.22749 0.46968 0.16256 0.0
H977 H 0.26309 0.44183 0.24767 0.0
H978 H 0.22829 0.46952 0.40627 0.0
H979 H 0.25473 0.48149 0.35285 0.0
H980 H 0.22378 0.50341 0.2639 0.0
C981 C 0.24401 0.46503 0.1595 0.0
C982 C 0.25558 0.4562 0.25084 0.0
C983 C 0.24802 0.45692 0.12721 0.0
C984 C 0.2179 0.46857 0.38247 0.0
C985 C 0.23299 0.47534 0.352 0.0
C986 C 0.23295 0.49044 0.26059 0.0
C987 C 0.26005 0.46557 0.18764 0.0
C988 C 0.25347 0.47087 0.2228 0.0
C989 C 0.21979 0.47288 0.32055 0.0
C990 C 0.2341 0.47485 0.28803 0.0
H991 H 0.29998 0.44403 0.14702 0.0
H992 H 0.29411 0.45956 0.203 0.0
H993 H 0.24146 0.50086 0.20764 0.0
H994 H 0.15438 0.4501 0.34935 0.0
H995 H 0.18091 0.46254 0.29617 0.0
C996 C 0.7864 0.26254 0.11757 0.0
C997 C 0.81506 0.27267 0.11673 0.0
C998 C 0.77219 0.25556 0.14875 0.0
C999 C 0.78276 0.26121 0.24339 0.0
H1000 H 0.7163 0.189 0.24409 0.0
C1001 C 0.72471 0.16433 0.3407 0.0
C1002 C 0.72757 0.17848 0.37146 0.0
C1003 C 0.73009 0.17819 0.30946 0.0
C1004 C 0.73482 0.20921 0.24436 0.0
H1005 H 0.85153 0.28472 0.14785 0.0
H1006 H 0.82687 0.27213 0.20185 0.0
H1007 H 0.73711 0.21071 0.18978 0.0
H1008 H 0.73664 0.21774 0.39366 0.0
H1009 H 0.74545 0.24184 0.33898 0.0
H1010 H 0.78169 0.25884 0.2979 0.0
C1011 C 0.81527 0.26992 0.17871 0.0
C1012 C 0.74655 0.22187 0.21316 0.0
C1013 C 0.82943 0.27694 0.14765 0.0
C1014 C 0.73453 0.20638 0.37032 0.0
C1015 C 0.7397 0.22021 0.33901 0.0
C1016 C 0.77118 0.24846 0.27456 0.0
C1017 C 0.78639 0.25857 0.17963 0.0
C1018 C 0.7712 0.2476 0.21233 0.0
C1019 C 0.73821 0.20646 0.30825 0.0
C1020 C 0.74758 0.22189 0.27542 0.0
H1021 H 0.7748 0.25915 0.09411 0.0
H1022 H 0.75 0.24721 0.14861 0.0
H1023 H 0.80145 0.28129 0.24365 0.0
H1024 H 0.7194 0.14282 0.34078 0.0
H1025 H 0.72914 0.16699 0.28641 0.0
C1026 C 0.53365 0.78345 0.11366 0.0
C1027 C 0.54386 0.81213 0.11383 0.0
C1028 C 0.52709 0.76873 0.14438 0.0
C1029 C 0.51261 0.77006 0.23575 0.0
H1030 H 0.55769 0.7359 0.24852 0.0
C1031 C 0.54322 0.75066 0.36899 0.0
C1032 C 0.54998 0.7298 0.37306 0.0
C1033 C 0.5357 0.75573 0.33686 0.0
C1034 C 0.54429 0.74457 0.24538 0.0
H1035 H 0.55348 0.84759 0.14575 0.0
H1036 H 0.54158 0.82171 0.19944 0.0
H1037 H 0.55519 0.75322 0.19257 0.0
H1038 H 0.5522 0.69643 0.34785 0.0
H1039 H 0.53763 0.70416 0.2922 0.0
H1040 H 0.50169 0.7615 0.28858 0.0
C1041 C 0.53879 0.8107 0.17561 0.0
C1042 C 0.54299 0.75462 0.21321 0.0
C1043 C 0.54579 0.82552 0.14496 0.0
C1044 C 0.54749 0.71295 0.34513 0.0
C1045 C 0.53931 0.71754 0.31322 0.0
C1046 C 0.51347 0.75952 0.26789 0.0
C1047 C 0.53017 0.78236 0.17564 0.0
C1048 C 0.52774 0.76807 0.20833 0.0
C1049 C 0.53423 0.7396 0.30836 0.0
C1050 C 0.52997 0.74733 0.27335 0.0
H1051 H 0.53197 0.77264 0.08998 0.0
H1052 H 0.52043 0.74686 0.14383 0.0
H1053 H 0.50058 0.78024 0.23245 0.0
H1054 H 0.54511 0.76399 0.39021 0.0
H1055 H 0.53236 0.77314 0.33419 0.0
C1056 C 0.83342 0.54766 0.34301 0.0
C1057 C 0.81865 0.54815 0.37176 0.0
C1058 C 0.82084 0.54087 0.31086 0.0
C1059 C 0.75263 0.5146 0.26606 0.0
H1060 H 0.79999 0.55879 0.19148 0.0
C1061 C 0.71651 0.54541 0.14352 0.0
C1062 C 0.72807 0.54384 0.11229 0.0
C1063 C 0.72508 0.53921 0.17419 0.0
C1064 C 0.78659 0.54597 0.21193 0.0
H1065 H 0.77906 0.54128 0.3899 0.0
H1066 H 0.75741 0.53082 0.33366 0.0
H1067 H 0.8201 0.56101 0.24724 0.0
H1068 H 0.75683 0.53362 0.08834 0.0
H1069 H 0.77239 0.52349 0.14221 0.0
H1070 H 0.71887 0.5012 0.23068 0.0
C1071 C 0.7784 0.5347 0.33579 0.0
C1072 C 0.7981 0.5471 0.24398 0.0
C1073 C 0.79083 0.54087 0.36809 0.0
C1074 C 0.74752 0.53488 0.11207 0.0
C1075 C 0.75648 0.5292 0.14282 0.0
C1076 C 0.74105 0.51391 0.23407 0.0
C1077 C 0.7934 0.53513 0.30658 0.0
C1078 C 0.78126 0.53173 0.27168 0.0
C1079 C 0.74571 0.53183 0.17416 0.0
C1080 C 0.75792 0.52985 0.20688 0.0
H1081 H 0.85484 0.55287 0.3453 0.0
H1082 H 0.83287 0.54065 0.28927 0.0
H1083 H 0.73904 0.50201 0.28647 0.0
H1084 H 0.70142 0.5522 0.14436 0.0
H1085 H 0.71663 0.54161 0.19805 0.0
C1086 C 0.16231 0.72951 0.15271 0.0
C1087 C 0.17628 0.73226 0.12185 0.0
C1088 C 0.17625 0.73476 0.18386 0.0
C1089 C 0.20682 0.73833 0.24874 0.0
H1090 H 0.27989 0.80356 0.25044 0.0
C1091 C 0.25923 0.78857 0.37643 0.0
C1092 C 0.27041 0.81739 0.37715 0.0
C1093 C 0.25235 0.77437 0.34522 0.0
C1094 C 0.25951 0.78527 0.25045 0.0
H1095 H 0.21541 0.74126 0.09933 0.0
H1096 H 0.23968 0.74977 0.15387 0.0
H1097 H 0.25746 0.78483 0.19593 0.0
H1098 H 0.28441 0.85411 0.34581 0.0
H1099 H 0.27188 0.82953 0.29188 0.0
H1100 H 0.20798 0.74014 0.30333 0.0
C1101 C 0.21811 0.74423 0.154 0.0
C1102 C 0.24676 0.77426 0.21909 0.0
C1103 C 0.2042 0.73926 0.12276 0.0
C1104 C 0.27578 0.83188 0.34614 0.0
C1105 C 0.26881 0.81774 0.31509 0.0
C1106 C 0.21944 0.74956 0.28012 0.0
C1107 C 0.20444 0.74258 0.18492 0.0
C1108 C 0.21983 0.75122 0.21786 0.0
C1109 C 0.25645 0.78875 0.31421 0.0
C1110 C 0.24552 0.77377 0.28134 0.0
H1111 H 0.14079 0.7242 0.15281 0.0
H1112 H 0.16512 0.73377 0.20698 0.0
H1113 H 0.18635 0.72016 0.24876 0.0
H1114 H 0.255 0.77688 0.39997 0.0
H1115 H 0.24321 0.75207 0.34543 0.0
C1116 C 0.56938 0.77799 0.61252 0.0
C1117 C 0.57386 0.75594 0.60524 0.0
C1118 C 0.5684 0.78544 0.64637 0.0
C1119 C 0.58764 0.77653 0.73466 0.0
H1120 H 0.53878 0.8042 0.76027 0.0
C1121 C 0.56512 0.79202 0.87462 0.0
C1122 C 0.56934 0.81846 0.88211 0.0
C1123 C 0.56517 0.78413 0.84076 0.0
C1124 C 0.55258 0.7966 0.75334 0.0
H1125 H 0.58013 0.72389 0.62718 0.0
H1126 H 0.57732 0.73606 0.68633 0.0
H1127 H 0.53924 0.79023 0.70124 0.0
H1128 H 0.57642 0.85721 0.86047 0.0
H1129 H 0.5759 0.8431 0.80095 0.0
H1130 H 0.60026 0.7822 0.7872 0.0
C1131 C 0.5755 0.7483 0.6661 0.0
C1132 C 0.553 0.78874 0.71953 0.0
C1133 C 0.57695 0.74118 0.63226 0.0
C1134 C 0.57322 0.83675 0.85522 0.0
C1135 C 0.57277 0.82866 0.82132 0.0
C1136 C 0.58685 0.78395 0.76855 0.0
C1137 C 0.57144 0.77068 0.67362 0.0
C1138 C 0.57064 0.77871 0.70971 0.0
C1139 C 0.56897 0.80237 0.81387 0.0
C1140 C 0.56941 0.79415 0.7781 0.0
H1141 H 0.56722 0.78982 0.592 0.0
H1142 H 0.56577 0.80309 0.65108 0.0
H1143 H 0.60193 0.76949 0.72799 0.0
H1144 H 0.56227 0.77767 0.895 0.0
H1145 H 0.56209 0.76371 0.83555 0.0
C1146 C 0.7858 0.56254 0.61015 0.0
C1147 C 0.81253 0.5669 0.6044 0.0
C1148 C 0.77635 0.56166 0.64349 0.0
C1149 C 0.78498 0.54677 0.73171 0.0
H1150 H 0.75785 0.59628 0.75641 0.0
C1151 C 0.73287 0.54293 0.86163 0.0
C1152 C 0.74471 0.56834 0.87926 0.0
C1153 C 0.74011 0.54179 0.82769 0.0
C1154 C 0.76532 0.58232 0.74976 0.0
H1155 H 0.85013 0.57315 0.62865 0.0
H1156 H 0.8333 0.57091 0.68713 0.0
H1157 H 0.77225 0.59549 0.69738 0.0
H1158 H 0.77386 0.61246 0.87462 0.0
H1159 H 0.78543 0.61043 0.81505 0.0
H1160 H 0.77785 0.53345 0.78405 0.0
C1161 C 0.81982 0.56844 0.66584 0.0
C1162 C 0.77338 0.58176 0.71608 0.0
C1163 C 0.82947 0.56987 0.6325 0.0
C1164 C 0.76376 0.59259 0.86184 0.0
C1165 C 0.77058 0.59147 0.82773 0.0
C1166 C 0.77641 0.54694 0.76525 0.0
C1167 C 0.79328 0.56457 0.67159 0.0
C1168 C 0.78355 0.56419 0.70687 0.0
C1169 C 0.75894 0.56606 0.81045 0.0
C1170 C 0.76679 0.56494 0.77462 0.0
H1171 H 0.77244 0.56038 0.58884 0.0
H1172 H 0.75577 0.55857 0.64735 0.0
H1173 H 0.79266 0.53297 0.72512 0.0
H1174 H 0.71777 0.52389 0.87388 0.0
H1175 H 0.73071 0.52197 0.81474 0.0
C1176 C 0.22471 0.82254 0.62662 0.0
C1177 C 0.24479 0.8184 0.61018 0.0
C1178 C 0.21809 0.81534 0.6609 0.0
C1179 C 0.21624 0.76957 0.7277 0.0
H1180 H 0.2188 0.82489 0.78996 0.0
C1181 C 0.19602 0.74821 0.8724 0.0
C1182 C 0.18135 0.75921 0.88912 0.0
C1183 C 0.20523 0.75585 0.8388 0.0
C1184 C 0.21757 0.80904 0.77289 0.0
H1185 H 0.27332 0.80301 0.61712 0.0
H1186 H 0.26086 0.7895 0.6768 0.0
H1187 H 0.23125 0.83674 0.73009 0.0
H1188 H 0.16543 0.78742 0.88351 0.0
H1189 H 0.18004 0.79946 0.82462 0.0
H1190 H 0.20153 0.74148 0.76991 0.0
C1191 C 0.25054 0.79857 0.66294 0.0
C1192 C 0.22487 0.81593 0.73867 0.0
C1193 C 0.25753 0.80619 0.62875 0.0
C1194 C 0.1762 0.77809 0.87137 0.0
C1195 C 0.18506 0.78542 0.83766 0.0
C1196 C 0.20848 0.76251 0.76183 0.0
C1197 C 0.231 0.8034 0.67936 0.0
C1198 C 0.22413 0.79622 0.71578 0.0
C1199 C 0.19973 0.77443 0.82091 0.0
C1200 C 0.2089 0.78213 0.78484 0.0
H1201 H 0.21389 0.83117 0.613 0.0
H1202 H 0.20263 0.81886 0.67293 0.0
H1203 H 0.21534 0.75399 0.71038 0.0
H1204 H 0.20012 0.73339 0.88509 0.0
H1205 H 0.2168 0.74725 0.82696 0.0
C1206 C 0.44322 0.1679 0.85522 0.0
C1207 C 0.43567 0.18017 0.88131 0.0
C1208 C 0.44379 0.17567 0.82108 0.0
C1209 C 0.41387 0.20588 0.76373 0.0
H1210 H 0.47421 0.2191 0.70294 0.0
C1211 C 0.40889 0.22097 0.61883 0.0
C1212 C 0.43246 0.24312 0.60375 0.0
C1213 C 0.40986 0.21271 0.65226 0.0
C1214 C 0.45729 0.21557 0.71968 0.0
H1215 H 0.42278 0.21016 0.89206 0.0
H1216 H 0.42397 0.22385 0.8326 0.0
H1217 H 0.47521 0.20636 0.76262 0.0
H1218 H 0.47566 0.27371 0.61194 0.0
H1219 H 0.47738 0.25907 0.67033 0.0
H1220 H 0.39604 0.2153 0.72105 0.0
C1221 C 0.42933 0.20814 0.8385 0.0
C1222 C 0.45774 0.20805 0.75371 0.0
C1223 C 0.42893 0.20052 0.87258 0.0
C1224 C 0.45721 0.25641 0.62267 0.0
C1225 C 0.4582 0.24804 0.6561 0.0
C1226 C 0.41333 0.21319 0.72972 0.0
C1227 C 0.4366 0.1957 0.81237 0.0
C1228 C 0.43609 0.20327 0.77611 0.0
C1229 C 0.43445 0.22628 0.67135 0.0
C1230 C 0.43504 0.21818 0.70734 0.0
H1231 H 0.44874 0.15233 0.86121 0.0
H1232 H 0.44931 0.16562 0.80145 0.0
H1233 H 0.39676 0.20204 0.78029 0.0
H1234 H 0.38967 0.20985 0.60473 0.0
H1235 H 0.39135 0.19555 0.66313 0.0
C1236 C 0.21838 0.43786 0.88531 0.0
C1237 C 0.23677 0.42798 0.89109 0.0
C1238 C 0.21045 0.43997 0.85206 0.0
C1239 C 0.2322 0.44508 0.76222 0.0
H1240 H 0.15502 0.41941 0.74204 0.0
C1241 C 0.19673 0.45857 0.62893 0.0
C1242 C 0.17355 0.43508 0.61533 0.0
C1243 C 0.20378 0.45939 0.66335 0.0
C1244 C 0.17663 0.42661 0.7473 0.0
H1245 H 0.26145 0.4128 0.86661 0.0
H1246 H 0.24737 0.41621 0.80857 0.0
H1247 H 0.16895 0.41714 0.80065 0.0
H1248 H 0.13934 0.39421 0.62736 0.0
H1249 H 0.15161 0.3957 0.68747 0.0
H1250 H 0.23983 0.45397 0.70883 0.0
C1251 C 0.23925 0.42252 0.82973 0.0
C1252 C 0.18464 0.42555 0.78087 0.0
C1253 C 0.24708 0.42029 0.86296 0.0
C1254 C 0.15714 0.41275 0.63714 0.0
C1255 C 0.16416 0.41359 0.67158 0.0
C1256 C 0.22422 0.44625 0.72871 0.0
C1257 C 0.22086 0.43238 0.82393 0.0
C1258 C 0.21247 0.43453 0.7886 0.0
C1259 C 0.18777 0.43677 0.68492 0.0
C1260 C 0.19632 0.43682 0.72084 0.0
H1261 H 0.20987 0.44368 0.90652 0.0
H1262 H 0.19638 0.44781 0.84835 0.0
H1263 H 0.25384 0.45244 0.76748 0.0
H1264 H 0.20949 0.47634 0.61296 0.0
H1265 H 0.22183 0.47772 0.67306 0.0
C1266 C 0.82996 0.27497 0.85493 0.0
C1267 C 0.81477 0.25667 0.88162 0.0
C1268 C 0.82202 0.26778 0.82086 0.0
C1269 C 0.76327 0.22417 0.76585 0.0
H1270 H 0.81818 0.22725 0.70252 0.0
C1271 C 0.73331 0.1741 0.63207 0.0
C1272 C 0.75199 0.18689 0.60491 0.0
C1273 C 0.7408 0.1837 0.66557 0.0
C1274 C 0.80266 0.22672 0.71959 0.0
H1275 H 0.77916 0.2164 0.89301 0.0
H1276 H 0.76489 0.20446 0.83367 0.0
H1277 H 0.83146 0.24301 0.76119 0.0
H1278 H 0.79332 0.21998 0.59203 0.0
H1279 H 0.80573 0.23757 0.64987 0.0
H1280 H 0.73453 0.20847 0.72433 0.0
C1281 C 0.78294 0.22433 0.83931 0.0
C1282 C 0.8103 0.23566 0.75326 0.0
C1283 C 0.79109 0.23129 0.87332 0.0
C1284 C 0.7782 0.20979 0.61212 0.0
C1285 C 0.78552 0.21963 0.64551 0.0
C1286 C 0.75569 0.21563 0.73203 0.0
C1287 C 0.7985 0.24237 0.81278 0.0
C1288 C 0.79062 0.23422 0.77674 0.0
C1289 C 0.76702 0.20659 0.67275 0.0
C1290 C 0.77523 0.21655 0.70851 0.0
H1291 H 0.84795 0.29492 0.86027 0.0
H1292 H 0.83419 0.28215 0.8008 0.0
H1293 H 0.74778 0.2231 0.78348 0.0
H1294 H 0.71279 0.15671 0.62755 0.0
H1295 H 0.7261 0.17286 0.68587 0.0
loop_
_geom_bond_atom_site_label_1
_geom_bond_atom_site_label_2
_geom_bond_distance
_geom_bond_site_symmetry_2
_ccdc_geom_bond_type
Co0 N4 2.148 . S
Co0 N10 2.128 . S
Co0 N20 2.194 1_554 S
Co0 O25 2.351 . S
Co0 O26 2.155 . S
Co0 O27 2.096 . S
C1 N4 1.301 . S
C1 N5 1.328 . S
C1 H6 0.930 . S
C2 C3 1.333 . S
C2 N4 1.317 . S
C2 H7 0.930 . S
C3 C2 1.333 . S
C3 N5 1.350 . S
C3 H29 0.931 . S
N4 Co0 2.148 . S
N4 C1 1.301 . S
N4 C2 1.317 . S
N5 C1 1.328 . S
N5 C3 1.350 . S
H6 C1 0.930 . S
H7 C2 0.930 . S
C8 O9 1.224 1_554 S
C8 O27 1.247 . S
O9 C8 1.224 1_556 S
N10 Co0 2.128 . S
N10 C11 1.355 . S
N10 C13 1.311 . S
C11 N10 1.355 . S
C11 C12 1.363 . S
C11 H23 0.929 . S
C12 C11 1.363 . S
C12 N14 1.375 . S
C12 H30 0.931 . S
C13 N10 1.311 . S
C13 N14 1.347 . S
C13 H24 0.929 . S
N14 C12 1.375 . S
N14 C13 1.347 . S
C15 C18 1.365 . S
C15 N20 1.328 . S
C15 H21 0.929 1_556 S
C16 C17 1.362 . S
C16 C19 1.378 . S
C16 H31 0.929 . S
C17 C16 1.362 . S
C17 C18 1.366 . S
C18 C15 1.365 . S
C18 C17 1.366 . S
C18 H32 0.930 . S
C19 C16 1.378 . S
C19 N20 1.315 . S
C19 H22 0.930 . S
N20 Co0 2.194 1_556 S
N20 C15 1.328 . S
N20 C19 1.315 . S
H21 C15 0.929 1_554 S
H22 C19 0.930 . S
H23 C11 0.929 . S
H24 C13 0.929 . S
O25 Co0 2.351 . S
O25 C28 1.244 . S
O26 Co0 2.155 . S
O26 C28 1.240 . S
O27 Co0 2.096 . S
O27 C8 1.247 . S
C28 O25 1.244 . S
C28 O26 1.240 . S
H29 C3 0.931 . S
H30 C12 0.931 . S
H31 C16 0.929 . S
H32 C18 0.930 . S
Co33 N37 2.148 . S
Co33 N43 2.128 . S
Co33 N53 2.194 1_554 S
Co33 O58 2.351 . S
Co33 O59 2.155 . S
Co33 O60 2.096 . S
C34 N37 1.301 . S
C34 N38 1.328 . S
C34 H39 0.930 . S
C35 C36 1.333 . S
C35 N37 1.317 . S
C35 H40 0.930 . S
C36 C35 1.333 . S
C36 N38 1.350 . S
C36 H62 0.931 . S
N37 Co33 2.148 . S
N37 C34 1.301 . S
N37 C35 1.317 . S
N38 C34 1.328 . S
N38 C36 1.350 . S
H39 C34 0.930 . S
H40 C35 0.930 . S
C41 O42 1.224 1_554 S
C41 O60 1.247 . S
O42 C41 1.224 1_556 S
N43 Co33 2.128 . S
N43 C44 1.355 . S
N43 C46 1.311 . S
C44 N43 1.355 . S
C44 C45 1.363 . S
C44 H56 0.929 . S
C45 C44 1.363 . S
C45 N47 1.375 . S
C45 H63 0.931 . S
C46 N43 1.311 . S
C46 N47 1.347 . S
C46 H57 0.929 . S
N47 C45 1.375 . S
N47 C46 1.347 . S
C48 C51 1.365 . S
C48 N53 1.328 . S
C48 H54 0.929 1_556 S
C49 C50 1.362 . S
C49 C52 1.378 . S
C49 H64 0.929 . S
C50 C49 1.362 . S
C50 C51 1.366 . S
C51 C48 1.365 . S
C51 C50 1.366 . S
C51 H65 0.930 . S
C52 C49 1.378 . S
C52 N53 1.315 . S
C52 H55 0.930 . S
N53 Co33 2.194 1_556 S
N53 C48 1.328 . S
N53 C52 1.315 . S
H54 C48 0.929 1_554 S
H55 C52 0.930 . S
H56 C44 0.929 . S
H57 C46 0.929 . S
O58 Co33 2.351 . S
O58 C61 1.244 . S
O59 Co33 2.155 . S
O59 C61 1.240 . S
O60 Co33 2.096 . S
O60 C41 1.247 . S
C61 O58 1.244 . S
C61 O59 1.240 . S
H62 C36 0.931 . S
H63 C45 0.931 . S
H64 C49 0.929 . S
H65 C51 0.930 . S
Co66 N70 2.148 . S
Co66 N76 2.128 . S
Co66 N86 2.194 1_554 S
Co66 O91 2.351 . S
Co66 O92 2.155 . S
Co66 O93 2.096 . S
C67 N70 1.301 . S
C67 N71 1.328 . S
C67 H72 0.930 . S
C68 C69 1.333 . S
C68 N70 1.317 . S
C68 H73 0.930 . S
C69 C68 1.333 . S
C69 N71 1.350 . S
C69 H95 0.931 . S
N70 Co66 2.148 . S
N70 C67 1.301 . S
N70 C68 1.317 . S
N71 C67 1.328 . S
N71 C69 1.350 . S
H72 C67 0.930 . S
H73 C68 0.930 . S
C74 O75 1.224 1_554 S
C74 O93 1.247 . S
O75 C74 1.224 1_556 S
N76 Co66 2.128 . S
N76 C77 1.355 . S
N76 C79 1.311 . S
C77 N76 1.355 . S
C77 C78 1.363 . S
C77 H89 0.929 . S
C78 C77 1.363 . S
C78 N80 1.375 . S
C78 H96 0.931 . S
C79 N76 1.311 . S
C79 N80 1.347 . S
C79 H90 0.929 . S
N80 C78 1.375 . S
N80 C79 1.347 . S
C81 C84 1.365 . S
C81 N86 1.328 . S
C81 H87 0.929 1_556 S
C82 C83 1.362 . S
C82 C85 1.378 . S
C82 H97 0.929 . S
C83 C82 1.362 . S
C83 C84 1.366 . S
C84 C81 1.365 . S
C84 C83 1.366 . S
C84 H98 0.930 . S
C85 C82 1.378 . S
C85 N86 1.315 . S
C85 H88 0.930 . S
N86 Co66 2.194 1_556 S
N86 C81 1.328 . S
N86 C85 1.315 . S
H87 C81 0.929 1_554 S
H88 C85 0.930 . S
H89 C77 0.929 . S
H90 C79 0.929 . S
O91 Co66 2.351 . S
O91 C94 1.244 . S
O92 Co66 2.155 . S
O92 C94 1.240 . S
O93 Co66 2.096 . S
O93 C74 1.247 . S
C94 O91 1.244 . S
C94 O92 1.240 . S
H95 C69 0.931 . S
H96 C78 0.931 . S
H97 C82 0.929 . S
H98 C84 0.930 . S
Co99 N103 2.148 . S
Co99 N109 2.128 . S
Co99 N119 2.194 1_554 S
Co99 O124 2.351 . S
Co99 O125 2.155 . S
Co99 O126 2.096 . S
C100 N103 1.301 . S
C100 N104 1.328 . S
C100 H105 0.930 . S
C101 C102 1.333 . S
C101 N103 1.317 . S
C101 H106 0.930 . S
C102 C101 1.333 . S
C102 N104 1.350 . S
C102 H128 0.931 . S
N103 Co99 2.148 . S
N103 C100 1.301 . S
N103 C101 1.317 . S
N104 C100 1.328 . S
N104 C102 1.350 . S
H105 C100 0.930 . S
H106 C101 0.930 . S
C107 O108 1.224 1_554 S
C107 O126 1.247 . S
O108 C107 1.224 1_556 S
N109 Co99 2.128 . S
N109 C110 1.355 . S
N109 C112 1.311 . S
C110 N109 1.355 . S
C110 C111 1.363 . S
C110 H122 0.929 . S
C111 C110 1.363 . S
C111 N113 1.375 . S
C111 H129 0.931 . S
C112 N109 1.311 . S
C112 N113 1.347 . S
C112 H123 0.929 . S
N113 C111 1.375 . S
N113 C112 1.347 . S
C114 C117 1.365 . S
C114 N119 1.328 . S
C114 H120 0.929 1_556 S
C115 C116 1.362 . S
C115 C118 1.378 . S
C115 H130 0.929 . S
C116 C115 1.362 . S
C116 C117 1.366 . S
C117 C114 1.365 . S
C117 C116 1.366 . S
C117 H131 0.930 . S
C118 C115 1.378 . S
C118 N119 1.315 . S
C118 H121 0.930 . S
N119 Co99 2.194 1_556 S
N119 C114 1.328 . S
N119 C118 1.315 . S
H120 C114 0.929 1_554 S
H121 C118 0.930 . S
H122 C110 0.929 . S
H123 C112 0.929 . S
O124 Co99 2.351 . S
O124 C127 1.244 . S
O125 Co99 2.155 . S
O125 C127 1.240 . S
O126 Co99 2.096 . S
O126 C107 1.247 . S
C127 O124 1.244 . S
C127 O125 1.240 . S
H128 C102 0.931 . S
H129 C111 0.931 . S
H130 C115 0.929 . S
H131 C117 0.930 . S
Co132 N136 2.148 . S
Co132 N142 2.128 . S
Co132 N152 2.194 1_554 S
Co132 O157 2.351 . S
Co132 O158 2.155 . S
Co132 O159 2.096 . S
C133 N136 1.301 . S
C133 N137 1.328 . S
C133 H138 0.930 . S
C134 C135 1.333 . S
C134 N136 1.317 . S
C134 H139 0.930 . S
C135 C134 1.333 . S
C135 N137 1.350 . S
C135 H161 0.931 . S
N136 Co132 2.148 . S
N136 C133 1.301 . S
N136 C134 1.317 . S
N137 C133 1.328 . S
N137 C135 1.350 . S
H138 C133 0.930 . S
H139 C134 0.930 . S
C140 O141 1.224 1_554 S
C140 O159 1.247 . S
O141 C140 1.224 1_556 S
N142 Co132 2.128 . S
N142 C143 1.355 . S
N142 C145 1.311 . S
C143 N142 1.355 . S
C143 C144 1.363 . S
C143 H155 0.929 . S
C144 C143 1.363 . S
C144 N146 1.375 . S
C144 H162 0.931 . S
C145 N142 1.311 . S
C145 N146 1.347 . S
C145 H156 0.929 . S
N146 C144 1.375 . S
N146 C145 1.347 . S
C147 C150 1.365 . S
C147 N152 1.328 . S
C147 H153 0.929 1_556 S
C148 C149 1.362 . S
C148 C151 1.378 . S
C148 H163 0.929 . S
C149 C148 1.362 . S
C149 C150 1.366 . S
C150 C147 1.365 . S
C150 C149 1.366 . S
C150 H164 0.930 . S
C151 C148 1.378 . S
C151 N152 1.315 . S
C151 H154 0.930 . S
N152 Co132 2.194 1_556 S
N152 C147 1.328 . S
N152 C151 1.315 . S
H153 C147 0.929 1_554 S
H154 C151 0.930 . S
H155 C143 0.929 . S
H156 C145 0.929 . S
O157 Co132 2.351 . S
O157 C160 1.244 . S
O158 Co132 2.155 . S
O158 C160 1.240 . S
O159 Co132 2.096 . S
O159 C140 1.247 . S
C160 O157 1.244 . S
C160 O158 1.240 . S
H161 C135 0.931 . S
H162 C144 0.931 . S
H163 C148 0.929 . S
H164 C150 0.930 . S
Co165 N169 2.148 . S
Co165 N175 2.128 . S
Co165 N185 2.194 1_554 S
Co165 O190 2.351 . S
Co165 O191 2.155 . S
Co165 O192 2.096 . S
C166 N169 1.301 . S
C166 N170 1.328 . S
C166 H171 0.930 . S
C167 C168 1.333 . S
C167 N169 1.317 . S
C167 H172 0.930 . S
C168 C167 1.333 . S
C168 N170 1.350 . S
C168 H194 0.931 . S
N169 Co165 2.148 . S
N169 C166 1.301 . S
N169 C167 1.317 . S
N170 C166 1.328 . S
N170 C168 1.350 . S
H171 C166 0.930 . S
H172 C167 0.930 . S
C173 O174 1.224 1_554 S
C173 O192 1.247 . S
O174 C173 1.224 1_556 S
N175 Co165 2.128 . S
N175 C176 1.355 . S
N175 C178 1.311 . S
C176 N175 1.355 . S
C176 C177 1.363 . S
C176 H188 0.929 . S
C177 C176 1.363 . S
C177 N179 1.375 . S
C177 H195 0.931 . S
C178 N175 1.311 . S
C178 N179 1.347 . S
C178 H189 0.929 . S
N179 C177 1.375 . S
N179 C178 1.347 . S
C180 C183 1.365 . S
C180 N185 1.328 . S
C180 H186 0.929 1_556 S
C181 C182 1.362 . S
C181 C184 1.378 . S
C181 H196 0.929 . S
C182 C181 1.362 . S
C182 C183 1.366 . S
C183 C180 1.365 . S
C183 C182 1.366 . S
C183 H197 0.930 . S
C184 C181 1.378 . S
C184 N185 1.315 . S
C184 H187 0.930 . S
N185 Co165 2.194 1_556 S
N185 C180 1.328 . S
N185 C184 1.315 . S
H186 C180 0.929 1_554 S
H187 C184 0.930 . S
H188 C176 0.929 . S
H189 C178 0.929 . S
O190 Co165 2.351 . S
O190 C193 1.244 . S
O191 Co165 2.155 . S
O191 C193 1.240 . S
O192 Co165 2.096 . S
O192 C173 1.247 . S
C193 O190 1.244 . S
C193 O191 1.240 . S
H194 C168 0.931 . S
H195 C177 0.931 . S
H196 C181 0.929 . S
H197 C183 0.930 . S
Co198 N202 2.148 . S
Co198 N208 2.128 . S
Co198 N218 2.194 . S
Co198 O223 2.351 . S
Co198 O224 2.155 . S
Co198 O225 2.096 . S
C199 N202 1.301 . S
C199 N203 1.328 . S
C199 H204 0.930 . S
C200 C201 1.333 . S
C200 N202 1.317 . S
C200 H205 0.930 . S
C201 C200 1.333 . S
C201 N203 1.350 . S
C201 H227 0.931 . S
N202 Co198 2.148 . S
N202 C199 1.301 . S
N202 C200 1.317 . S
N203 C199 1.328 . S
N203 C201 1.350 . S
H204 C199 0.930 . S
H205 C200 0.930 . S
C206 O207 1.224 . S
C206 O225 1.247 . S
O207 C206 1.224 . S
N208 Co198 2.128 . S
N208 C209 1.355 . S
N208 C211 1.311 . S
C209 N208 1.355 . S
C209 C210 1.363 . S
C209 H221 0.929 . S
C210 C209 1.363 . S
C210 N212 1.375 . S
C210 H228 0.931 . S
C211 N208 1.311 . S
C211 N212 1.347 . S
C211 H222 0.929 . S
N212 C210 1.375 . S
N212 C211 1.347 . S
C213 C216 1.365 . S
C213 N218 1.328 . S
C213 H219 0.929 . S
C214 C215 1.362 . S
C214 C217 1.378 . S
C214 H229 0.929 . S
C215 C214 1.362 . S
C215 C216 1.366 . S
C216 C213 1.365 . S
C216 C215 1.366 . S
C216 H230 0.930 . S
C217 C214 1.378 . S
C217 N218 1.315 . S
C217 H220 0.930 . S
N218 Co198 2.194 . S
N218 C213 1.328 . S
N218 C217 1.315 . S
H219 C213 0.929 . S
H220 C217 0.930 . S
H221 C209 0.929 . S
H222 C211 0.929 . S
O223 Co198 2.351 . S
O223 C226 1.244 . S
O224 Co198 2.155 . S
O224 C226 1.240 . S
O225 Co198 2.096 . S
O225 C206 1.247 . S
C226 O223 1.244 . S
C226 O224 1.240 . S
H227 C201 0.931 . S
H228 C210 0.931 . S
H229 C214 0.929 . S
H230 C216 0.930 . S
Co231 N235 2.148 . S
Co231 N241 2.128 . S
Co231 N251 2.194 . S
Co231 O256 2.351 . S
Co231 O257 2.155 . S
Co231 O258 2.096 . S
C232 N235 1.301 . S
C232 N236 1.328 . S
C232 H237 0.930 . S
C233 C234 1.333 . S
C233 N235 1.317 . S
C233 H238 0.930 . S
C234 C233 1.333 . S
C234 N236 1.350 . S
C234 H260 0.931 . S
N235 Co231 2.148 . S
N235 C232 1.301 . S
N235 C233 1.317 . S
N236 C232 1.328 . S
N236 C234 1.350 . S
H237 C232 0.930 . S
H238 C233 0.930 . S
C239 O240 1.224 . S
C239 O258 1.247 . S
O240 C239 1.224 . S
N241 Co231 2.128 . S
N241 C242 1.355 . S
N241 C244 1.311 . S
C242 N241 1.355 . S
C242 C243 1.363 . S
C242 H254 0.929 . S
C243 C242 1.363 . S
C243 N245 1.375 . S
C243 H261 0.931 . S
C244 N241 1.311 . S
C244 N245 1.347 . S
C244 H255 0.929 . S
N245 C243 1.375 . S
N245 C244 1.347 . S
C246 C249 1.365 . S
C246 N251 1.328 . S
C246 H252 0.929 . S
C247 C248 1.362 . S
C247 C250 1.378 . S
C247 H262 0.929 . S
C248 C247 1.362 . S
C248 C249 1.366 . S
C249 C246 1.365 . S
C249 C248 1.366 . S
C249 H263 0.930 . S
C250 C247 1.378 . S
C250 N251 1.315 . S
C250 H253 0.930 . S
N251 Co231 2.194 . S
N251 C246 1.328 . S
N251 C250 1.315 . S
H252 C246 0.929 . S
H253 C250 0.930 . S
H254 C242 0.929 . S
H255 C244 0.929 . S
O256 Co231 2.351 . S
O256 C259 1.244 . S
O257 Co231 2.155 . S
O257 C259 1.240 . S
O258 Co231 2.096 . S
O258 C239 1.247 . S
C259 O256 1.244 . S
C259 O257 1.240 . S
H260 C234 0.931 . S
H261 C243 0.931 . S
H262 C247 0.929 . S
H263 C249 0.930 . S
Co264 N268 2.148 . S
Co264 N274 2.128 . S
Co264 N284 2.194 . S
Co264 O289 2.351 . S
Co264 O290 2.155 . S
Co264 O291 2.096 . S
C265 N268 1.301 . S
C265 N269 1.328 . S
C265 H270 0.930 . S
C266 C267 1.333 . S
C266 N268 1.317 . S
C266 H271 0.930 . S
C267 C266 1.333 . S
C267 N269 1.350 . S
C267 H293 0.931 . S
N268 Co264 2.148 . S
N268 C265 1.301 . S
N268 C266 1.317 . S
N269 C265 1.328 . S
N269 C267 1.350 . S
H270 C265 0.930 . S
H271 C266 0.930 . S
C272 O273 1.224 . S
C272 O291 1.247 . S
O273 C272 1.224 . S
N274 Co264 2.128 . S
N274 C275 1.355 . S
N274 C277 1.311 . S
C275 N274 1.355 . S
C275 C276 1.363 . S
C275 H287 0.929 . S
C276 C275 1.363 . S
C276 N278 1.375 . S
C276 H294 0.931 . S
C277 N274 1.311 . S
C277 N278 1.347 . S
C277 H288 0.929 . S
N278 C276 1.375 . S
N278 C277 1.347 . S
C279 C282 1.365 . S
C279 N284 1.328 . S
C279 H285 0.929 . S
C280 C281 1.362 . S
C280 C283 1.378 . S
C280 H295 0.929 . S
C281 C280 1.362 . S
C281 C282 1.366 . S
C282 C279 1.365 . S
C282 C281 1.366 . S
C282 H296 0.930 . S
C283 C280 1.378 . S
C283 N284 1.315 . S
C283 H286 0.930 . S
N284 Co264 2.194 . S
N284 C279 1.328 . S
N284 C283 1.315 . S
H285 C279 0.929 . S
H286 C283 0.930 . S
H287 C275 0.929 . S
H288 C277 0.929 . S
O289 Co264 2.351 . S
O289 C292 1.244 . S
O290 Co264 2.155 . S
O290 C292 1.240 . S
O291 Co264 2.096 . S
O291 C272 1.247 . S
C292 O289 1.244 . S
C292 O290 1.240 . S
H293 C267 0.931 . S
H294 C276 0.931 . S
H295 C280 0.929 . S
H296 C282 0.930 . S
Co297 N301 2.148 . S
Co297 N307 2.128 . S
Co297 N317 2.194 . S
Co297 O322 2.351 . S
Co297 O323 2.155 . S
Co297 O324 2.096 . S
C298 N301 1.301 . S
C298 N302 1.328 . S
C298 H303 0.930 . S
C299 C300 1.333 . S
C299 N301 1.317 . S
C299 H304 0.930 . S
C300 C299 1.333 . S
C300 N302 1.350 . S
C300 H326 0.931 . S
N301 Co297 2.148 . S
N301 C298 1.301 . S
N301 C299 1.317 . S
N302 C298 1.328 . S
N302 C300 1.350 . S
H303 C298 0.930 . S
H304 C299 0.930 . S
C305 O306 1.224 . S
C305 O324 1.247 . S
O306 C305 1.224 . S
N307 Co297 2.128 . S
N307 C308 1.355 . S
N307 C310 1.311 . S
C308 N307 1.355 . S
C308 C309 1.363 . S
C308 H320 0.929 . S
C309 C308 1.363 . S
C309 N311 1.375 . S
C309 H327 0.931 . S
C310 N307 1.311 . S
C310 N311 1.347 . S
C310 H321 0.929 . S
N311 C309 1.375 . S
N311 C310 1.347 . S
C312 C315 1.365 . S
C312 N317 1.328 . S
C312 H318 0.929 . S
C313 C314 1.362 . S
C313 C316 1.378 . S
C313 H328 0.929 . S
C314 C313 1.362 . S
C314 C315 1.366 . S
C315 C312 1.365 . S
C315 C314 1.366 . S
C315 H329 0.930 . S
C316 C313 1.378 . S
C316 N317 1.315 . S
C316 H319 0.930 . S
N317 Co297 2.194 . S
N317 C312 1.328 . S
N317 C316 1.315 . S
H318 C312 0.929 . S
H319 C316 0.930 . S
H320 C308 0.929 . S
H321 C310 0.929 . S
O322 Co297 2.351 . S
O322 C325 1.244 . S
O323 Co297 2.155 . S
O323 C325 1.240 . S
O324 Co297 2.096 . S
O324 C305 1.247 . S
C325 O322 1.244 . S
C325 O323 1.240 . S
H326 C300 0.931 . S
H327 C309 0.931 . S
H328 C313 0.929 . S
H329 C315 0.930 . S
Co330 N334 2.148 . S
Co330 N340 2.128 . S
Co330 N350 2.194 . S
Co330 O355 2.351 . S
Co330 O356 2.155 . S
Co330 O357 2.096 . S
C331 N334 1.301 . S
C331 N335 1.328 . S
C331 H336 0.930 . S
C332 C333 1.333 . S
C332 N334 1.317 . S
C332 H337 0.930 . S
C333 C332 1.333 . S
C333 N335 1.350 . S
C333 H359 0.931 . S
N334 Co330 2.148 . S
N334 C331 1.301 . S
N334 C332 1.317 . S
N335 C331 1.328 . S
N335 C333 1.350 . S
H336 C331 0.930 . S
H337 C332 0.930 . S
C338 O339 1.224 . S
C338 O357 1.247 . S
O339 C338 1.224 . S
N340 Co330 2.128 . S
N340 C341 1.355 . S
N340 C343 1.311 . S
C341 N340 1.355 . S
C341 C342 1.363 . S
C341 H353 0.929 . S
C342 C341 1.363 . S
C342 N344 1.375 . S
C342 H360 0.931 . S
C343 N340 1.311 . S
C343 N344 1.347 . S
C343 H354 0.929 . S
N344 C342 1.375 . S
N344 C343 1.347 . S
C345 C348 1.365 . S
C345 N350 1.328 . S
C345 H351 0.929 . S
C346 C347 1.362 . S
C346 C349 1.378 . S
C346 H361 0.929 . S
C347 C346 1.362 . S
C347 C348 1.366 . S
C348 C345 1.365 . S
C348 C347 1.366 . S
C348 H362 0.930 . S
C349 C346 1.378 . S
C349 N350 1.315 . S
C349 H352 0.930 . S
N350 Co330 2.194 . S
N350 C345 1.328 . S
N350 C349 1.315 . S
H351 C345 0.929 . S
H352 C349 0.930 . S
H353 C341 0.929 . S
H354 C343 0.929 . S
O355 Co330 2.351 . S
O355 C358 1.244 . S
O356 Co330 2.155 . S
O356 C358 1.240 . S
O357 Co330 2.096 . S
O357 C338 1.247 . S
C358 O355 1.244 . S
C358 O356 1.240 . S
H359 C333 0.931 . S
H360 C342 0.931 . S
H361 C346 0.929 . S
H362 C348 0.930 . S
Co363 N367 2.148 . S
Co363 N373 2.128 . S
Co363 N383 2.194 . S
Co363 O388 2.351 . S
Co363 O389 2.155 . S
Co363 O390 2.096 . S
C364 N367 1.301 . S
C364 N368 1.328 . S
C364 H369 0.930 . S
C365 C366 1.333 . S
C365 N367 1.317 . S
C365 H370 0.930 . S
C366 C365 1.333 . S
C366 N368 1.350 . S
C366 H392 0.931 . S
N367 Co363 2.148 . S
N367 C364 1.301 . S
N367 C365 1.317 . S
N368 C364 1.328 . S
N368 C366 1.350 . S
H369 C364 0.930 . S
H370 C365 0.930 . S
C371 O372 1.224 . S
C371 O390 1.247 . S
O372 C371 1.224 . S
N373 Co363 2.128 . S
N373 C374 1.355 . S
N373 C376 1.311 . S
C374 N373 1.355 . S
C374 C375 1.363 . S
C374 H386 0.929 . S
C375 C374 1.363 . S
C375 N377 1.375 . S
C375 H393 0.931 . S
C376 N373 1.311 . S
C376 N377 1.347 . S
C376 H387 0.929 . S
N377 C375 1.375 . S
N377 C376 1.347 . S
C378 C381 1.365 . S
C378 N383 1.328 . S
C378 H384 0.929 . S
C379 C380 1.362 . S
C379 C382 1.378 . S
C379 H394 0.929 . S
C380 C379 1.362 . S
C380 C381 1.366 . S
C381 C378 1.365 . S
C381 C380 1.366 . S
C381 H395 0.930 . S
C382 C379 1.378 . S
C382 N383 1.315 . S
C382 H385 0.930 . S
N383 Co363 2.194 . S
N383 C378 1.328 . S
N383 C382 1.315 . S
H384 C378 0.929 . S
H385 C382 0.930 . S
H386 C374 0.929 . S
H387 C376 0.929 . S
O388 Co363 2.351 . S
O388 C391 1.244 . S
O389 Co363 2.155 . S
O389 C391 1.240 . S
O390 Co363 2.096 . S
O390 C371 1.247 . S
C391 O388 1.244 . S
C391 O389 1.240 . S
H392 C366 0.931 . S
H393 C375 0.931 . S
H394 C379 0.929 . S
H395 C381 0.930 . S
C396 C397 1.349 . S
C396 C398 1.327 . S
C396 H421 0.950 1_554 S
C397 C396 1.349 . S
C397 C413 1.349 . S
C398 C396 1.327 . S
C398 C417 1.429 . S
C398 H422 0.950 1_554 S
C399 C416 1.611 . S
C399 C418 1.347 1_565 S
C399 H423 0.951 . S
H400 C404 0.951 1_556 S
C401 C402 1.349 . S
C401 C403 1.327 . S
C401 H424 0.950 . S
C402 C401 1.349 . S
C402 C414 1.349 . S
C403 C401 1.327 . S
C403 C419 1.429 . S
C403 H425 0.950 . S
C404 H400 0.951 1_554 S
C404 C412 1.611 . S
C404 C420 1.347 1_545 S
H405 C413 0.950 . S
H406 C411 0.950 . S
H407 C412 0.949 1_556 S
H408 C414 0.950 1_556 S
H409 C415 0.950 1_556 S
H410 C416 0.949 . S
C411 H406 0.950 . S
C411 C413 1.327 . S
C411 C417 1.429 . S
C412 C404 1.611 . S
C412 H407 0.949 1_554 S
C412 C418 1.368 . S
C413 C397 1.349 . S
C413 H405 0.950 . S
C413 C411 1.327 . S
C414 C402 1.349 . S
C414 H408 0.950 1_554 S
C414 C415 1.327 . S
C415 H409 0.950 1_554 S
C415 C414 1.327 . S
C415 C419 1.429 . S
C416 C399 1.611 . S
C416 H410 0.949 . S
C416 C420 1.368 . S
C417 C398 1.429 . S
C417 C411 1.429 . S
C417 C418 1.523 . S
C418 C399 1.347 1_545 S
C418 C412 1.368 . S
C418 C417 1.523 . S
C419 C403 1.429 . S
C419 C415 1.429 . S
C419 C420 1.523 . S
C420 C404 1.347 1_565 S
C420 C416 1.368 . S
C420 C419 1.523 . S
H421 C396 0.950 1_556 S
H422 C398 0.950 1_556 S
H423 C399 0.951 . S
H424 C401 0.950 . S
H425 C403 0.950 . S
C426 C427 1.349 . S
C426 C428 1.327 . S
C426 H451 0.950 1_554 S
C427 C426 1.349 . S
C427 C443 1.349 . S
C428 C426 1.327 . S
C428 C447 1.429 . S
C428 H452 0.950 1_554 S
C429 C446 1.574 . S
C429 C448 1.368 . S
C429 H453 0.949 . S
H430 C434 0.949 1_556 S
C431 C432 1.349 . S
C431 C433 1.327 . S
C431 H454 0.950 . S
C432 C431 1.349 . S
C432 C444 1.349 . S
C433 C431 1.327 . S
C433 C449 1.429 . S
C433 H455 0.950 . S
C434 H430 0.949 1_554 S
C434 C442 1.574 . S
C434 C450 1.368 . S
H435 C443 0.950 . S
H436 C441 0.950 . S
H437 C442 0.949 1_556 S
H438 C444 0.950 1_556 S
H439 C445 0.950 1_556 S
H440 C446 0.949 . S
C441 H436 0.950 . S
C441 C443 1.327 . S
C441 C447 1.429 . S
C442 C434 1.574 . S
C442 H437 0.949 1_554 S
C442 C448 1.368 . S
C443 C427 1.349 . S
C443 H435 0.950 . S
C443 C441 1.327 . S
C444 C432 1.349 . S
C444 H438 0.950 1_554 S
C444 C445 1.327 . S
C445 H439 0.950 1_554 S
C445 C444 1.327 . S
C445 C449 1.429 . S
C446 C429 1.574 . S
C446 H440 0.949 . S
C446 C450 1.368 . S
C447 C428 1.429 . S
C447 C441 1.429 . S
C447 C448 1.523 . S
C448 C429 1.368 . S
C448 C442 1.368 . S
C448 C447 1.523 . S
C449 C433 1.429 . S
C449 C445 1.429 . S
C449 C450 1.523 . S
C450 C434 1.368 . S
C450 C446 1.368 . S
C450 C449 1.523 . S
H451 C426 0.950 1_556 S
H452 C428 0.950 1_556 S
H453 C429 0.949 . S
H454 C431 0.950 . S
H455 C433 0.950 . S
C456 C457 1.349 . S
C456 C458 1.327 . S
C456 H481 0.950 . S
C457 C456 1.349 . S
C457 C473 1.349 . S
C458 C456 1.327 . S
C458 C477 1.429 . S
C458 H482 0.950 . S
C459 C476 1.581 . S
C459 C478 1.368 . S
C459 H483 0.949 1_554 S
H460 C464 0.949 . S
C461 C462 1.349 . S
C461 C463 1.327 . S
C461 H484 0.950 1_554 S
C462 C461 1.349 . S
C462 C474 1.349 . S
C463 C461 1.327 . S
C463 C479 1.429 . S
C463 H485 0.950 1_554 S
C464 H460 0.949 . S
C464 C472 1.581 . S
C464 C480 1.368 . S
H465 C473 0.950 1_556 S
H466 C471 0.950 1_556 S
H467 C472 0.947 . S
H468 C474 0.950 . S
H469 C475 0.950 . S
H470 C476 0.947 1_556 S
C471 H466 0.950 1_554 S
C471 C473 1.327 . S
C471 C477 1.429 . S
C472 C464 1.581 . S
C472 H467 0.947 . S
C472 C478 1.345 1_655 S
C473 C457 1.349 . S
C473 H465 0.950 1_554 S
C473 C471 1.327 . S
C474 C462 1.349 . S
C474 H468 0.950 . S
C474 C475 1.327 . S
C475 H469 0.950 . S
C475 C474 1.327 . S
C475 C479 1.429 . S
C476 C459 1.581 . S
C476 H470 0.947 1_554 S
C476 C480 1.345 1_455 S
C477 C458 1.429 . S
C477 C471 1.429 . S
C477 C478 1.523 . S
C478 C459 1.368 . S
C478 C472 1.345 1_455 S
C478 C477 1.523 . S
C479 C463 1.429 . S
C479 C475 1.429 . S
C479 C480 1.523 . S
C480 C464 1.368 . S
C480 C476 1.345 1_655 S
C480 C479 1.523 . S
H481 C456 0.950 . S
H482 C458 0.950 . S
H483 C459 0.949 1_556 S
H484 C461 0.950 1_556 S
H485 C463 0.950 1_556 S
C486 C487 1.349 . S
C486 C488 1.327 . S
C486 H511 0.950 . S
C487 C486 1.349 . S
C487 C503 1.349 . S
C488 C486 1.327 . S
C488 C507 1.429 . S
C488 H512 0.950 . S
C489 C506 1.611 . S
C489 C508 1.368 . S
C489 H513 0.949 . S
H490 C494 0.949 . S
C491 C492 1.349 . S
C491 C493 1.327 . S
C491 H514 0.950 . S
C492 C491 1.349 . S
C492 C504 1.349 . S
C493 C491 1.327 . S
C493 C509 1.429 . S
C493 H515 0.950 . S
C494 H490 0.949 . S
C494 C502 1.611 . S
C494 C510 1.368 . S
H495 C503 0.950 . S
H496 C501 0.950 . S
H497 C502 0.951 . S
H498 C504 0.950 . S
H499 C505 0.950 . S
H500 C506 0.951 . S
C501 H496 0.950 . S
C501 C503 1.327 . S
C501 C507 1.429 . S
C502 C494 1.611 . S
C502 H497 0.951 . S
C502 C508 1.347 1_655 S
C503 C487 1.349 . S
C503 H495 0.950 . S
C503 C501 1.327 . S
C504 C492 1.349 . S
C504 H498 0.950 . S
C504 C505 1.327 . S
C505 H499 0.950 . S
C505 C504 1.327 . S
C505 C509 1.429 . S
C506 C489 1.611 . S
C506 H500 0.951 . S
C506 C510 1.347 1_455 S
C507 C488 1.429 . S
C507 C501 1.429 . S
C507 C508 1.523 . S
C508 C489 1.368 . S
C508 C502 1.347 1_455 S
C508 C507 1.523 . S
C509 C493 1.429 . S
C509 C505 1.429 . S
C509 C510 1.523 . S
C510 C494 1.368 . S
C510 C506 1.347 1_655 S
C510 C509 1.523 . S
H511 C486 0.950 . S
H512 C488 0.950 . S
H513 C489 0.949 . S
H514 C491 0.950 . S
H515 C493 0.950 . S
C516 C517 1.349 . S
C516 C518 1.327 . S
C516 H541 0.950 . S
C517 C516 1.349 . S
C517 C533 1.349 . S
C518 C516 1.327 . S
C518 C537 1.429 . S
C518 H542 0.950 . S
C519 C536 1.581 . S
C519 C538 1.345 1_565 S
C519 H543 0.947 . S
H520 C524 0.947 . S
C521 C522 1.349 . S
C521 C523 1.327 . S
C521 H544 0.950 . S
C522 C521 1.349 . S
C522 C534 1.349 . S
C523 C521 1.327 . S
C523 C539 1.429 . S
C523 H545 0.950 . S
C524 H520 0.947 . S
C524 C532 1.581 . S
C524 C540 1.345 1_545 S
H525 C533 0.950 . S
H526 C531 0.950 . S
H527 C532 0.949 . S
H528 C534 0.950 . S
H529 C535 0.950 . S
H530 C536 0.949 . S
C531 H526 0.950 . S
C531 C533 1.327 . S
C531 C537 1.429 . S
C532 C524 1.581 . S
C532 H527 0.949 . S
C532 C538 1.368 . S
C533 C517 1.349 . S
C533 H525 0.950 . S
C533 C531 1.327 . S
C534 C522 1.349 . S
C534 H528 0.950 . S
C534 C535 1.327 . S
C535 H529 0.950 . S
C535 C534 1.327 . S
C535 C539 1.429 . S
C536 C519 1.581 . S
C536 H530 0.949 . S
C536 C540 1.368 . S
C537 C518 1.429 . S
C537 C531 1.429 . S
C537 C538 1.523 . S
C538 C519 1.345 1_545 S
C538 C532 1.368 . S
C538 C537 1.523 . S
C539 C523 1.429 . S
C539 C535 1.429 . S
C539 C540 1.523 . S
C540 C524 1.345 1_565 S
C540 C536 1.368 . S
C540 C539 1.523 . S
H541 C516 0.950 . S
H542 C518 0.950 . S
H543 C519 0.947 . S
H544 C521 0.950 . S
H545 C523 0.950 . S
C546 C547 1.349 . S
C546 C548 1.327 . S
C546 H571 0.950 . S
C547 C546 1.349 . S
C547 C563 1.349 . S
C548 C546 1.327 . S
C548 C567 1.429 . S
C548 H572 0.950 . S
C549 C566 1.574 . S
C549 C568 1.368 . S
C549 H573 0.949 . S
H550 C554 0.949 . S
C551 C552 1.349 . S
C551 C553 1.327 . S
C551 H574 0.950 . S
C552 C551 1.349 . S
C552 C564 1.349 . S
C553 C551 1.327 . S
C553 C569 1.429 . S
C553 H575 0.950 . S
C554 H550 0.949 . S
C554 C562 1.574 . S
C554 C570 1.368 . S
H555 C563 0.950 . S
H556 C561 0.950 . S
H557 C562 0.949 . S
H558 C564 0.950 . S
H559 C565 0.950 . S
H560 C566 0.949 . S
C561 H556 0.950 . S
C561 C563 1.327 . S
C561 C567 1.429 . S
C562 C554 1.574 . S
C562 H557 0.949 . S
C562 C568 1.368 . S
C563 C547 1.349 . S
C563 H555 0.950 . S
C563 C561 1.327 . S
C564 C552 1.349 . S
C564 H558 0.950 . S
C564 C565 1.327 . S
C565 H559 0.950 . S
C565 C564 1.327 . S
C565 C569 1.429 . S
C566 C549 1.574 . S
C566 H560 0.949 . S
C566 C570 1.368 . S
C567 C548 1.429 . S
C567 C561 1.429 . S
C567 C568 1.523 . S
C568 C549 1.368 . S
C568 C562 1.368 . S
C568 C567 1.523 . S
C569 C553 1.429 . S
C569 C565 1.429 . S
C569 C570 1.523 . S
C570 C554 1.368 . S
C570 C566 1.368 . S
C570 C569 1.523 . S
H571 C546 0.950 . S
H572 C548 0.950 . S
H573 C549 0.949 . S
H574 C551 0.950 . S
H575 C553 0.950 . S
C576 C577 1.349 . S
C576 C578 1.327 . S
C576 H601 0.950 1_554 S
C577 C576 1.349 . S
C577 C593 1.349 . S
C578 C576 1.327 . S
C578 C597 1.429 . S
C578 H602 0.950 1_554 S
C579 C596 1.574 . S
C579 C598 1.368 . S
C579 H603 0.949 . S
H580 C584 0.949 1_556 S
C581 C582 1.349 . S
C581 C583 1.327 . S
C581 H604 0.950 . S
C582 C581 1.349 . S
C582 C594 1.349 . S
C583 C581 1.327 . S
C583 C599 1.429 . S
C583 H605 0.950 . S
C584 H580 0.949 1_554 S
C584 C592 1.574 . S
C584 C600 1.368 . S
H585 C593 0.950 . S
H586 C591 0.950 . S
H587 C592 0.949 1_556 S
H588 C594 0.950 1_556 S
H589 C595 0.950 1_556 S
H590 C596 0.949 . S
C591 H586 0.950 . S
C591 C593 1.327 . S
C591 C597 1.429 . S
C592 C584 1.574 . S
C592 H587 0.949 1_554 S
C592 C598 1.368 . S
C593 C577 1.349 . S
C593 H585 0.950 . S
C593 C591 1.327 . S
C594 C582 1.349 . S
C594 H588 0.950 1_554 S
C594 C595 1.327 . S
C595 H589 0.950 1_554 S
C595 C594 1.327 . S
C595 C599 1.429 . S
C596 C579 1.574 . S
C596 H590 0.949 . S
C596 C600 1.368 . S
C597 C578 1.429 . S
C597 C591 1.429 . S
C597 C598 1.523 1_545 S
C598 C579 1.368 . S
C598 C592 1.368 . S
C598 C597 1.523 1_565 S
C599 C583 1.429 . S
C599 C595 1.429 . S
C599 C600 1.523 . S
C600 C584 1.368 . S
C600 C596 1.368 . S
C600 C599 1.523 . S
H601 C576 0.950 1_556 S
H602 C578 0.950 1_556 S
H603 C579 0.949 . S
H604 C581 0.950 . S
H605 C583 0.950 . S
C606 C607 1.349 . S
C606 C608 1.327 . S
C606 H631 0.950 1_554 S
C607 C606 1.349 . S
C607 C623 1.349 . S
C608 C606 1.327 . S
C608 C627 1.429 . S
C608 H632 0.950 1_554 S
C609 C626 1.574 . S
C609 C628 1.368 . S
C609 H633 0.949 . S
H610 C614 0.949 1_556 S
C611 C612 1.349 . S
C611 C613 1.327 . S
C611 H634 0.950 . S
C612 C611 1.349 . S
C612 C624 1.349 . S
C613 C611 1.327 . S
C613 C629 1.429 . S
C613 H635 0.950 . S
C614 H610 0.949 1_554 S
C614 C622 1.574 . S
C614 C630 1.368 . S
H615 C623 0.950 . S
H616 C621 0.950 . S
H617 C622 0.949 1_556 S
H618 C624 0.950 1_556 S
H619 C625 0.950 1_556 S
H620 C626 0.949 . S
C621 H616 0.950 . S
C621 C623 1.327 . S
C621 C627 1.429 . S
C622 C614 1.574 . S
C622 H617 0.949 1_554 S
C622 C628 1.368 . S
C623 C607 1.349 . S
C623 H615 0.950 . S
C623 C621 1.327 . S
C624 C612 1.349 . S
C624 H618 0.950 1_554 S
C624 C625 1.327 . S
C625 H619 0.950 1_554 S
C625 C624 1.327 . S
C625 C629 1.429 . S
C626 C609 1.574 . S
C626 H620 0.949 . S
C626 C630 1.368 . S
C627 C608 1.429 . S
C627 C621 1.429 . S
C627 C628 1.523 . S
C628 C609 1.368 . S
C628 C622 1.368 . S
C628 C627 1.523 . S
C629 C613 1.429 . S
C629 C625 1.429 . S
C629 C630 1.523 . S
C630 C614 1.368 . S
C630 C626 1.368 . S
C630 C629 1.523 . S
H631 C606 0.950 1_556 S
H632 C608 0.950 1_556 S
H633 C609 0.949 . S
H634 C611 0.950 . S
H635 C613 0.950 . S
C636 C637 1.349 . S
C636 C638 1.327 . S
C636 H661 0.950 1_554 S
C637 C636 1.349 . S
C637 C653 1.349 . S
C638 C636 1.327 . S
C638 C657 1.429 . S
C638 H662 0.953 . S
C639 C656 1.574 . S
C639 C658 1.368 . S
C639 H663 0.949 . S
H640 C644 0.949 . S
C641 C642 1.349 . S
C641 C643 1.327 . S
C641 H664 0.950 . S
C642 C641 1.349 . S
C642 C654 1.349 . S
C643 C641 1.327 . S
C643 C659 1.429 . S
C643 H665 0.950 . S
C644 H640 0.949 . S
C644 C652 1.574 . S
C644 C660 1.368 . S
H645 C653 0.950 . S
H646 C651 0.950 . S
H647 C652 0.949 . S
H648 C654 0.950 . S
H649 C655 0.950 . S
H650 C656 0.949 . S
C651 H646 0.950 . S
C651 C653 1.327 . S
C651 C657 1.429 . S
C652 C644 1.574 . S
C652 H647 0.949 . S
C652 C658 1.368 . S
C653 C637 1.349 . S
C653 H645 0.950 . S
C653 C651 1.327 . S
C654 C642 1.349 . S
C654 H648 0.950 . S
C654 C655 1.327 . S
C655 H649 0.950 . S
C655 C654 1.327 . S
C655 C659 1.429 . S
C656 C639 1.574 . S
C656 H650 0.949 . S
C656 C660 1.368 . S
C657 C638 1.429 . S
C657 C651 1.429 . S
C657 C658 1.523 1_655 S
C658 C639 1.368 . S
C658 C652 1.368 . S
C658 C657 1.523 1_455 S
C659 C643 1.429 . S
C659 C655 1.429 . S
C659 C660 1.523 . S
C660 C644 1.368 . S
C660 C656 1.368 . S
C660 C659 1.523 . S
H661 C636 0.950 1_556 S
H662 C638 0.953 . S
H663 C639 0.949 . S
H664 C641 0.950 . S
H665 C643 0.950 . S
C666 C667 1.349 . S
C666 C668 1.327 . S
C666 H691 0.950 1_554 S
C667 C666 1.349 . S
C667 C683 1.349 . S
C668 C666 1.327 . S
C668 C687 1.429 . S
C668 H692 0.950 1_554 S
C669 C686 1.574 . S
C669 C688 1.368 . S
C669 H693 0.949 . S
H670 C674 0.949 1_556 S
C671 C672 1.349 . S
C671 C673 1.327 . S
C671 H694 0.950 . S
C672 C671 1.349 . S
C672 C684 1.349 . S
C673 C671 1.327 . S
C673 C689 1.429 . S
C673 H695 0.950 . S
C674 H670 0.949 1_554 S
C674 C682 1.574 . S
C674 C690 1.368 . S
H675 C683 0.950 . S
H676 C681 0.950 . S
H677 C682 0.949 1_556 S
H678 C684 0.950 1_556 S
H679 C685 0.950 1_556 S
H680 C686 0.949 . S
C681 H676 0.950 . S
C681 C683 1.327 . S
C681 C687 1.429 . S
C682 C674 1.574 . S
C682 H677 0.949 1_554 S
C682 C688 1.368 . S
C683 C667 1.349 . S
C683 H675 0.950 . S
C683 C681 1.327 . S
C684 C672 1.349 . S
C684 H678 0.950 1_554 S
C684 C685 1.327 . S
C685 H679 0.950 1_554 S
C685 C684 1.327 . S
C685 C689 1.429 . S
C686 C669 1.574 . S
C686 H680 0.949 . S
C686 C690 1.368 . S
C687 C668 1.429 . S
C687 C681 1.429 . S
C687 C688 1.523 . S
C688 C669 1.368 . S
C688 C682 1.368 . S
C688 C687 1.523 . S
C689 C673 1.429 . S
C689 C685 1.429 . S
C689 C690 1.523 1_565 S
C690 C674 1.368 . S
C690 C686 1.368 . S
C690 C689 1.523 1_545 S
H691 C666 0.950 1_556 S
H692 C668 0.950 1_556 S
H693 C669 0.949 . S
H694 C671 0.950 . S
H695 C673 0.950 . S
C696 C697 1.349 . S
C696 C698 1.327 . S
C696 H721 0.950 1_554 S
C697 C696 1.349 . S
C697 C713 1.349 . S
C698 C696 1.327 . S
C698 C717 1.429 . S
C698 H722 0.950 1_554 S
C699 C716 1.574 . S
C699 C718 1.368 . S
C699 H723 0.949 . S
H700 C704 0.949 1_556 S
C701 C702 1.349 . S
C701 C703 1.327 . S
C701 H724 0.950 . S
C702 C701 1.349 . S
C702 C714 1.349 . S
C703 C701 1.327 . S
C703 C719 1.429 . S
C703 H725 0.950 . S
C704 H700 0.949 1_554 S
C704 C712 1.574 . S
C704 C720 1.368 . S
H705 C713 0.950 . S
H706 C711 0.950 . S
H707 C712 0.949 1_556 S
H708 C714 0.950 1_556 S
H709 C715 0.950 1_556 S
H710 C716 0.949 . S
C711 H706 0.950 . S
C711 C713 1.327 . S
C711 C717 1.429 . S
C712 C704 1.574 . S
C712 H707 0.949 1_554 S
C712 C718 1.368 . S
C713 C697 1.349 . S
C713 H705 0.950 . S
C713 C711 1.327 . S
C714 C702 1.349 . S
C714 H708 0.950 1_554 S
C714 C715 1.327 . S
C715 H709 0.950 1_554 S
C715 C714 1.327 . S
C715 C719 1.429 . S
C716 C699 1.574 . S
C716 H710 0.949 . S
C716 C720 1.368 . S
C717 C698 1.429 . S
C717 C711 1.429 . S
C717 C718 1.523 . S
C718 C699 1.368 . S
C718 C712 1.368 . S
C718 C717 1.523 . S
C719 C703 1.429 . S
C719 C715 1.429 . S
C719 C720 1.523 . S
C720 C704 1.368 . S
C720 C716 1.368 . S
C720 C719 1.523 . S
H721 C696 0.950 1_556 S
H722 C698 0.950 1_556 S
H723 C699 0.949 . S
H724 C701 0.950 . S
H725 C703 0.950 . S
C726 C727 1.349 . S
C726 C728 1.327 . S
C726 H751 0.950 1_554 S
C727 C726 1.349 . S
C727 C743 1.349 . S
C728 C726 1.327 . S
C728 C747 1.429 . S
C728 H752 0.950 1_554 S
C729 C746 1.574 . S
C729 C748 1.368 . S
C729 H753 0.949 . S
H730 C734 0.949 1_556 S
C731 C732 1.349 . S
C731 C733 1.327 . S
C731 H754 0.950 . S
C732 C731 1.349 . S
C732 C744 1.349 . S
C733 C731 1.327 . S
C733 C749 1.429 . S
C733 H755 0.950 . S
C734 H730 0.949 1_554 S
C734 C742 1.574 . S
C734 C750 1.368 . S
H735 C743 0.950 . S
H736 C741 0.950 . S
H737 C742 0.949 1_556 S
H738 C744 0.950 1_556 S
H739 C745 0.950 1_556 S
H740 C746 0.949 . S
C741 H736 0.950 . S
C741 C743 1.327 . S
C741 C747 1.429 . S
C742 C734 1.574 . S
C742 H737 0.949 1_554 S
C742 C748 1.368 . S
C743 C727 1.349 . S
C743 H735 0.950 . S
C743 C741 1.327 . S
C744 C732 1.349 . S
C744 H738 0.950 1_554 S
C744 C745 1.327 . S
C745 H739 0.950 1_554 S
C745 C744 1.327 . S
C745 C749 1.429 . S
C746 C729 1.574 . S
C746 H740 0.949 . S
C746 C750 1.368 . S
C747 C728 1.429 . S
C747 C741 1.429 . S
C747 C748 1.523 . S
C748 C729 1.368 . S
C748 C742 1.368 . S
C748 C747 1.523 . S
C749 C733 1.429 . S
C749 C745 1.429 . S
C749 C750 1.523 1_455 S
C750 C734 1.368 . S
C750 C746 1.368 . S
C750 C749 1.523 1_655 S
H751 C726 0.950 1_556 S
H752 C728 0.950 1_556 S
H753 C729 0.949 . S
H754 C731 0.950 . S
H755 C733 0.950 . S
C756 C757 1.349 . S
C756 C758 1.327 . S
C756 H781 0.950 . S
C757 C756 1.349 . S
C757 C773 1.349 . S
C758 C756 1.327 . S
C758 C777 1.429 . S
C758 H782 0.950 . S
C759 C776 1.574 . S
C759 C778 1.368 . S
C759 H783 0.949 . S
H760 C764 0.949 . S
C761 C762 1.349 . S
C761 C763 1.327 . S
C761 H784 0.950 . S
C762 C761 1.349 . S
C762 C774 1.349 . S
C763 C761 1.327 . S
C763 C779 1.429 . S
C763 H785 0.950 . S
C764 H760 0.949 . S
C764 C772 1.574 . S
C764 C780 1.368 . S
H765 C773 0.950 . S
H766 C771 0.950 . S
H767 C772 0.949 . S
H768 C774 0.950 . S
H769 C775 0.950 . S
H770 C776 0.949 . S
C771 H766 0.950 . S
C771 C773 1.327 . S
C771 C777 1.429 . S
C772 C764 1.574 . S
C772 H767 0.949 . S
C772 C778 1.368 . S
C773 C757 1.349 . S
C773 H765 0.950 . S
C773 C771 1.327 . S
C774 C762 1.349 . S
C774 H768 0.950 . S
C774 C775 1.327 . S
C775 H769 0.950 . S
C775 C774 1.327 . S
C775 C779 1.429 . S
C776 C759 1.574 . S
C776 H770 0.949 . S
C776 C780 1.368 . S
C777 C758 1.429 . S
C777 C771 1.429 . S
C777 C778 1.523 . S
C778 C759 1.368 . S
C778 C772 1.368 . S
C778 C777 1.523 . S
C779 C763 1.429 . S
C779 C775 1.429 . S
C779 C780 1.523 1_655 S
C780 C764 1.368 . S
C780 C776 1.368 . S
C780 C779 1.523 1_455 S
H781 C756 0.950 . S
H782 C758 0.950 . S
H783 C759 0.949 . S
H784 C761 0.950 . S
H785 C763 0.950 . S
C786 C787 1.349 . S
C786 C788 1.327 . S
C786 H811 0.950 . S
C787 C786 1.349 . S
C787 C803 1.349 . S
C788 C786 1.327 . S
C788 C807 1.429 . S
C788 H812 0.950 . S
C789 C806 1.574 . S
C789 C808 1.368 . S
C789 H813 0.949 . S
H790 C794 0.949 . S
C791 C792 1.349 . S
C791 C793 1.327 . S
C791 H814 0.950 . S
C792 C791 1.349 . S
C792 C804 1.349 . S
C793 C791 1.327 . S
C793 C809 1.429 . S
C793 H815 0.950 . S
C794 H790 0.949 . S
C794 C802 1.574 . S
C794 C810 1.368 . S
H795 C803 0.950 . S
H796 C801 0.950 . S
H797 C802 0.949 . S
H798 C804 0.950 . S
H799 C805 0.950 . S
H800 C806 0.949 . S
C801 H796 0.950 . S
C801 C803 1.327 . S
C801 C807 1.429 . S
C802 C794 1.574 . S
C802 H797 0.949 . S
C802 C808 1.368 . S
C803 C787 1.349 . S
C803 H795 0.950 . S
C803 C801 1.327 . S
C804 C792 1.349 . S
C804 H798 0.950 . S
C804 C805 1.327 . S
C805 H799 0.950 . S
C805 C804 1.327 . S
C805 C809 1.429 . S
C806 C789 1.574 . S
C806 H800 0.949 . S
C806 C810 1.368 . S
C807 C788 1.429 . S
C807 C801 1.429 . S
C807 C808 1.523 . S
C808 C789 1.368 . S
C808 C802 1.368 . S
C808 C807 1.523 . S
C809 C793 1.429 . S
C809 C805 1.429 . S
C809 C810 1.523 1_565 S
C810 C794 1.368 . S
C810 C806 1.368 . S
C810 C809 1.523 1_545 S
H811 C786 0.950 . S
H812 C788 0.950 . S
H813 C789 0.949 . S
H814 C791 0.950 . S
H815 C793 0.950 . S
C816 C817 1.349 . S
C816 C818 1.327 . S
C816 H841 0.950 . S
C817 C816 1.349 . S
C817 C833 1.349 . S
C818 C816 1.327 . S
C818 C837 1.429 . S
C818 H842 0.950 . S
C819 C836 1.574 . S
C819 C838 1.368 . S
C819 H843 0.949 . S
H820 C824 0.949 . S
C821 C822 1.349 . S
C821 C823 1.327 . S
C821 H844 0.950 . S
C822 C821 1.349 . S
C822 C834 1.349 . S
C823 C821 1.327 . S
C823 C839 1.429 . S
C823 H845 0.950 . S
C824 H820 0.949 . S
C824 C832 1.574 . S
C824 C840 1.368 . S
H825 C833 0.950 . S
H826 C831 0.950 . S
H827 C832 0.949 . S
H828 C834 0.950 . S
H829 C835 0.950 . S
H830 C836 0.949 . S
C831 H826 0.950 . S
C831 C833 1.327 . S
C831 C837 1.429 . S
C832 C824 1.574 . S
C832 H827 0.949 . S
C832 C838 1.368 . S
C833 C817 1.349 . S
C833 H825 0.950 . S
C833 C831 1.327 . S
C834 C822 1.349 . S
C834 H828 0.950 . S
C834 C835 1.327 . S
C835 H829 0.950 . S
C835 C834 1.327 . S
C835 C839 1.429 . S
C836 C819 1.574 . S
C836 H830 0.949 . S
C836 C840 1.368 . S
C837 C818 1.429 . S
C837 C831 1.429 . S
C837 C838 1.523 . S
C838 C819 1.368 . S
C838 C832 1.368 . S
C838 C837 1.523 . S
C839 C823 1.429 . S
C839 C835 1.429 . S
C839 C840 1.523 . S
C840 C824 1.368 . S
C840 C836 1.368 . S
C840 C839 1.523 . S
H841 C816 0.950 . S
H842 C818 0.950 . S
H843 C819 0.949 . S
H844 C821 0.950 . S
H845 C823 0.950 . S
C846 C847 1.349 . S
C846 C848 1.327 . S
C846 H871 0.950 . S
C847 C846 1.349 . S
C847 C863 1.349 . S
C848 C846 1.327 . S
C848 C867 1.429 . S
C848 H872 0.950 . S
C849 C866 1.574 . S
C849 C868 1.368 . S
C849 H873 0.949 . S
H850 C854 0.949 . S
C851 C852 1.349 . S
C851 C853 1.327 . S
C851 H874 0.950 . S
C852 C851 1.349 . S
C852 C864 1.349 . S
C853 C851 1.327 . S
C853 C869 1.429 . S
C853 H875 0.950 . S
C854 H850 0.949 . S
C854 C862 1.574 . S
C854 C870 1.368 . S
H855 C863 0.950 . S
H856 C861 0.950 . S
H857 C862 0.949 . S
H858 C864 0.950 . S
H859 C865 0.950 . S
H860 C866 0.949 . S
C861 H856 0.950 . S
C861 C863 1.327 . S
C861 C867 1.429 . S
C862 C854 1.574 . S
C862 H857 0.949 . S
C862 C868 1.368 . S
C863 C847 1.349 . S
C863 H855 0.950 . S
C863 C861 1.327 . S
C864 C852 1.349 . S
C864 H858 0.950 . S
C864 C865 1.327 . S
C865 H859 0.950 . S
C865 C864 1.327 . S
C865 C869 1.429 . S
C866 C849 1.574 . S
C866 H860 0.949 . S
C866 C870 1.368 . S
C867 C848 1.429 . S
C867 C861 1.429 . S
C867 C868 1.523 1_455 S
C868 C849 1.368 . S
C868 C862 1.368 . S
C868 C867 1.523 1_655 S
C869 C853 1.429 . S
C869 C865 1.429 . S
C869 C870 1.523 . S
C870 C854 1.368 . S
C870 C866 1.368 . S
C870 C869 1.523 . S
H871 C846 0.950 . S
H872 C848 0.950 . S
H873 C849 0.949 . S
H874 C851 0.950 . S
H875 C853 0.950 . S
C876 C877 1.349 . S
C876 C878 1.327 . S
C876 H901 0.950 . S
C877 C876 1.349 . S
C877 C893 1.349 . S
C878 C876 1.327 . S
C878 C897 1.429 . S
C878 H902 0.950 . S
C879 C896 1.574 . S
C879 C898 1.368 . S
C879 H903 0.949 . S
H880 C884 0.949 . S
C881 C882 1.349 . S
C881 C883 1.327 . S
C881 H904 0.950 . S
C882 C881 1.349 . S
C882 C894 1.349 . S
C883 C881 1.327 . S
C883 C899 1.429 . S
C883 H905 0.950 . S
C884 H880 0.949 . S
C884 C892 1.574 . S
C884 C900 1.368 . S
H885 C893 0.950 . S
H886 C891 0.950 . S
H887 C892 0.949 . S
H888 C894 0.950 . S
H889 C895 0.950 . S
H890 C896 0.949 . S
C891 H886 0.950 . S
C891 C893 1.327 . S
C891 C897 1.429 . S
C892 C884 1.574 . S
C892 H887 0.949 . S
C892 C898 1.368 . S
C893 C877 1.349 . S
C893 H885 0.950 . S
C893 C891 1.327 . S
C894 C882 1.349 . S
C894 H888 0.950 . S
C894 C895 1.327 . S
C895 H889 0.950 . S
C895 C894 1.327 . S
C895 C899 1.429 . S
C896 C879 1.574 . S
C896 H890 0.949 . S
C896 C900 1.368 . S
C897 C878 1.429 . S
C897 C891 1.429 . S
C897 C898 1.523 1_545 S
C898 C879 1.368 . S
C898 C892 1.368 . S
C898 C897 1.523 1_565 S
C899 C883 1.429 . S
C899 C895 1.429 . S
C899 C900 1.523 . S
C900 C884 1.368 . S
C900 C896 1.368 . S
C900 C899 1.523 . S
H901 C876 0.950 . S
H902 C878 0.950 . S
H903 C879 0.949 . S
H904 C881 0.950 . S
H905 C883 0.950 . S
C906 C907 1.349 . S
C906 C908 1.327 . S
C906 H931 0.950 . S
C907 C906 1.349 . S
C907 C923 1.349 . S
C908 C906 1.327 . S
C908 C927 1.429 . S
C908 H932 0.950 . S
C909 C926 1.574 . S
C909 C928 1.368 . S
C909 H933 0.949 . S
H910 C914 0.949 . S
C911 C912 1.349 . S
C911 C913 1.327 . S
C911 H934 0.950 . S
C912 C911 1.349 . S
C912 C924 1.349 . S
C913 C911 1.327 . S
C913 C929 1.429 . S
C913 H935 0.950 . S
C914 H910 0.949 . S
C914 C922 1.574 . S
C914 C930 1.368 . S
H915 C923 0.950 . S
H916 C921 0.950 . S
H917 C922 0.949 . S
H918 C924 0.950 . S
H919 C925 0.950 . S
H920 C926 0.949 . S
C921 H916 0.950 . S
C921 C923 1.327 . S
C921 C927 1.429 . S
C922 C914 1.574 . S
C922 H917 0.949 . S
C922 C928 1.368 . S
C923 C907 1.349 . S
C923 H915 0.950 . S
C923 C921 1.327 . S
C924 C912 1.349 . S
C924 H918 0.950 . S
C924 C925 1.327 . S
C925 H919 0.950 . S
C925 C924 1.327 . S
C925 C929 1.429 . S
C926 C909 1.574 . S
C926 H920 0.949 . S
C926 C930 1.368 . S
C927 C908 1.429 . S
C927 C921 1.429 . S
C927 C928 1.523 . S
C928 C909 1.368 . S
C928 C922 1.368 . S
C928 C927 1.523 . S
C929 C913 1.429 . S
C929 C925 1.429 . S
C929 C930 1.523 . S
C930 C914 1.368 . S
C930 C926 1.368 . S
C930 C929 1.523 . S
H931 C906 0.950 . S
H932 C908 0.950 . S
H933 C909 0.949 . S
H934 C911 0.950 . S
H935 C913 0.950 . S
C936 C937 1.349 . S
C936 C938 1.327 . S
C936 H961 0.950 . S
C937 C936 1.349 . S
C937 C953 1.349 . S
C938 C936 1.327 . S
C938 C957 1.429 . S
C938 H962 0.950 . S
C939 C956 1.574 . S
C939 C958 1.368 . S
C939 H963 0.949 . S
H940 C944 0.949 . S
C941 C942 1.349 . S
C941 C943 1.327 . S
C941 H964 0.950 . S
C942 C941 1.349 . S
C942 C954 1.349 . S
C943 C941 1.327 . S
C943 C959 1.429 . S
C943 H965 0.950 . S
C944 H940 0.949 . S
C944 C952 1.574 . S
C944 C960 1.368 . S
H945 C953 0.950 . S
H946 C951 0.950 . S
H947 C952 0.949 . S
H948 C954 0.950 . S
H949 C955 0.950 . S
H950 C956 0.949 . S
C951 H946 0.950 . S
C951 C953 1.327 . S
C951 C957 1.429 . S
C952 C944 1.574 . S
C952 H947 0.949 . S
C952 C958 1.368 . S
C953 C937 1.349 . S
C953 H945 0.950 . S
C953 C951 1.327 . S
C954 C942 1.349 . S
C954 H948 0.950 . S
C954 C955 1.327 . S
C955 H949 0.950 . S
C955 C954 1.327 . S
C955 C959 1.429 . S
C956 C939 1.574 . S
C956 H950 0.949 . S
C956 C960 1.368 . S
C957 C938 1.429 . S
C957 C951 1.429 . S
C957 C958 1.523 . S
C958 C939 1.368 . S
C958 C952 1.368 . S
C958 C957 1.523 . S
C959 C943 1.429 . S
C959 C955 1.429 . S
C959 C960 1.523 . S
C960 C944 1.368 . S
C960 C956 1.368 . S
C960 C959 1.523 . S
H961 C936 0.950 . S
H962 C938 0.950 . S
H963 C939 0.949 . S
H964 C941 0.950 . S
H965 C943 0.950 . S
C966 C967 1.349 . S
C966 C968 1.327 . S
C966 H991 0.950 . S
C967 C966 1.349 . S
C967 C983 1.349 . S
C968 C966 1.327 . S
C968 C987 1.429 . S
C968 H992 0.950 . S
C969 C986 1.574 . S
C969 C988 1.368 . S
C969 H993 0.949 . S
H970 C974 0.949 . S
C971 C972 1.349 . S
C971 C973 1.327 . S
C971 H994 0.950 . S
C972 C971 1.349 . S
C972 C984 1.349 . S
C973 C971 1.327 . S
C973 C989 1.429 . S
C973 H995 0.950 . S
C974 H970 0.949 . S
C974 C982 1.574 . S
C974 C990 1.368 . S
H975 C983 0.950 . S
H976 C981 0.950 . S
H977 C982 0.949 . S
H978 C984 0.950 . S
H979 C985 0.950 . S
H980 C986 0.949 . S
C981 H976 0.950 . S
C981 C983 1.327 . S
C981 C987 1.429 . S
C982 C974 1.574 . S
C982 H977 0.949 . S
C982 C988 1.368 . S
C983 C967 1.349 . S
C983 H975 0.950 . S
C983 C981 1.327 . S
C984 C972 1.349 . S
C984 H978 0.950 . S
C984 C985 1.327 . S
C985 H979 0.950 . S
C985 C984 1.327 . S
C985 C989 1.429 . S
C986 C969 1.574 . S
C986 H980 0.949 . S
C986 C990 1.368 . S
C987 C968 1.429 . S
C987 C981 1.429 . S
C987 C988 1.523 . S
C988 C969 1.368 . S
C988 C982 1.368 . S
C988 C987 1.523 . S
C989 C973 1.429 . S
C989 C985 1.429 . S
C989 C990 1.523 . S
C990 C974 1.368 . S
C990 C986 1.368 . S
C990 C989 1.523 . S
H991 C966 0.950 . S
H992 C968 0.950 . S
H993 C969 0.949 . S
H994 C971 0.950 . S
H995 C973 0.950 . S
C996 C997 1.349 . S
C996 C998 1.327 . S
C996 H1021 0.950 . S
C997 C996 1.349 . S
C997 C1013 1.349 . S
C998 C996 1.327 . S
C998 C1017 1.429 . S
C998 H1022 0.950 . S
C999 C1016 1.574 . S
C999 C1018 1.368 . S
C999 H1023 0.949 . S
H1000 C1004 0.949 . S
C1001 C1002 1.349 . S
C1001 C1003 1.327 . S
C1001 H1024 0.950 . S
C1002 C1001 1.349 . S
C1002 C1014 1.349 . S
C1003 C1001 1.327 . S
C1003 C1019 1.429 . S
C1003 H1025 0.950 . S
C1004 H1000 0.949 . S
C1004 C1012 1.574 . S
C1004 C1020 1.368 . S
H1005 C1013 0.950 . S
H1006 C1011 0.950 . S
H1007 C1012 0.949 . S
H1008 C1014 0.950 . S
H1009 C1015 0.950 . S
H1010 C1016 0.949 . S
C1011 H1006 0.950 . S
C1011 C1013 1.327 . S
C1011 C1017 1.429 . S
C1012 C1004 1.574 . S
C1012 H1007 0.949 . S
C1012 C1018 1.368 . S
C1013 C997 1.349 . S
C1013 H1005 0.950 . S
C1013 C1011 1.327 . S
C1014 C1002 1.349 . S
C1014 H1008 0.950 . S
C1014 C1015 1.327 . S
C1015 H1009 0.950 . S
C1015 C1014 1.327 . S
C1015 C1019 1.429 . S
C1016 C999 1.574 . S
C1016 H1010 0.949 . S
C1016 C1020 1.368 . S
C1017 C998 1.429 . S
C1017 C1011 1.429 . S
C1017 C1018 1.523 . S
C1018 C999 1.368 . S
C1018 C1012 1.368 . S
C1018 C1017 1.523 . S
C1019 C1003 1.429 . S
C1019 C1015 1.429 . S
C1019 C1020 1.523 . S
C1020 C1004 1.368 . S
C1020 C1016 1.368 . S
C1020 C1019 1.523 . S
H1021 C996 0.950 . S
H1022 C998 0.950 . S
H1023 C999 0.949 . S
H1024 C1001 0.950 . S
H1025 C1003 0.950 . S
C1026 C1027 1.349 . S
C1026 C1028 1.327 . S
C1026 H1051 0.950 . S
C1027 C1026 1.349 . S
C1027 C1043 1.349 . S
C1028 C1026 1.327 . S
C1028 C1047 1.429 . S
C1028 H1052 0.950 . S
C1029 C1046 1.574 . S
C1029 C1048 1.368 . S
C1029 H1053 0.949 . S
H1030 C1034 0.949 . S
C1031 C1032 1.349 . S
C1031 C1033 1.327 . S
C1031 H1054 0.950 . S
C1032 C1031 1.349 . S
C1032 C1044 1.349 . S
C1033 C1031 1.327 . S
C1033 C1049 1.429 . S
C1033 H1055 0.950 . S
C1034 H1030 0.949 . S
C1034 C1042 1.574 . S
C1034 C1050 1.368 . S
H1035 C1043 0.950 . S
H1036 C1041 0.950 . S
H1037 C1042 0.949 . S
H1038 C1044 0.950 . S
H1039 C1045 0.950 . S
H1040 C1046 0.949 . S
C1041 H1036 0.950 . S
C1041 C1043 1.327 . S
C1041 C1047 1.429 . S
C1042 C1034 1.574 . S
C1042 H1037 0.949 . S
C1042 C1048 1.368 . S
C1043 C1027 1.349 . S
C1043 H1035 0.950 . S
C1043 C1041 1.327 . S
C1044 C1032 1.349 . S
C1044 H1038 0.950 . S
C1044 C1045 1.327 . S
C1045 H1039 0.950 . S
C1045 C1044 1.327 . S
C1045 C1049 1.429 . S
C1046 C1029 1.574 . S
C1046 H1040 0.949 . S
C1046 C1050 1.368 . S
C1047 C1028 1.429 . S
C1047 C1041 1.429 . S
C1047 C1048 1.523 . S
C1048 C1029 1.368 . S
C1048 C1042 1.368 . S
C1048 C1047 1.523 . S
C1049 C1033 1.429 . S
C1049 C1045 1.429 . S
C1049 C1050 1.523 . S
C1050 C1034 1.368 . S
C1050 C1046 1.368 . S
C1050 C1049 1.523 . S
H1051 C1026 0.950 . S
H1052 C1028 0.950 . S
H1053 C1029 0.949 . S
H1054 C1031 0.950 . S
H1055 C1033 0.950 . S
C1056 C1057 1.349 . S
C1056 C1058 1.327 . S
C1056 H1081 0.950 . S
C1057 C1056 1.349 . S
C1057 C1073 1.349 . S
C1058 C1056 1.327 . S
C1058 C1077 1.429 . S
C1058 H1082 0.950 . S
C1059 C1076 1.574 . S
C1059 C1078 1.368 . S
C1059 H1083 0.949 . S
H1060 C1064 0.949 . S
C1061 C1062 1.349 . S
C1061 C1063 1.327 . S
C1061 H1084 0.950 . S
C1062 C1061 1.349 . S
C1062 C1074 1.349 . S
C1063 C1061 1.327 . S
C1063 C1079 1.429 . S
C1063 H1085 0.950 . S
C1064 H1060 0.949 . S
C1064 C1072 1.574 . S
C1064 C1080 1.368 . S
H1065 C1073 0.950 . S
H1066 C1071 0.950 . S
H1067 C1072 0.949 . S
H1068 C1074 0.950 . S
H1069 C1075 0.950 . S
H1070 C1076 0.949 . S
C1071 H1066 0.950 . S
C1071 C1073 1.327 . S
C1071 C1077 1.429 . S
C1072 C1064 1.574 . S
C1072 H1067 0.949 . S
C1072 C1078 1.368 . S
C1073 C1057 1.349 . S
C1073 H1065 0.950 . S
C1073 C1071 1.327 . S
C1074 C1062 1.349 . S
C1074 H1068 0.950 . S
C1074 C1075 1.327 . S
C1075 H1069 0.950 . S
C1075 C1074 1.327 . S
C1075 C1079 1.429 . S
C1076 C1059 1.574 . S
C1076 H1070 0.949 . S
C1076 C1080 1.368 . S
C1077 C1058 1.429 . S
C1077 C1071 1.429 . S
C1077 C1078 1.523 . S
C1078 C1059 1.368 . S
C1078 C1072 1.368 . S
C1078 C1077 1.523 . S
C1079 C1063 1.429 . S
C1079 C1075 1.429 . S
C1079 C1080 1.523 . S
C1080 C1064 1.368 . S
C1080 C1076 1.368 . S
C1080 C1079 1.523 . S
H1081 C1056 0.950 . S
H1082 C1058 0.950 . S
H1083 C1059 0.949 . S
H1084 C1061 0.950 . S
H1085 C1063 0.950 . S
C1086 C1087 1.349 . S
C1086 C1088 1.327 . S
C1086 H1111 0.950 . S
C1087 C1086 1.349 . S
C1087 C1103 1.349 . S
C1088 C1086 1.327 . S
C1088 C1107 1.429 . S
C1088 H1112 0.950 . S
C1089 C1106 1.574 . S
C1089 C1108 1.368 . S
C1089 H1113 0.949 . S
H1090 C1094 0.949 . S
C1091 C1092 1.349 . S
C1091 C1093 1.327 . S
C1091 H1114 0.950 . S
C1092 C1091 1.349 . S
C1092 C1104 1.349 . S
C1093 C1091 1.327 . S
C1093 C1109 1.429 . S
C1093 H1115 0.950 . S
C1094 H1090 0.949 . S
C1094 C1102 1.574 . S
C1094 C1110 1.368 . S
H1095 C1103 0.950 . S
H1096 C1101 0.950 . S
H1097 C1102 0.949 . S
H1098 C1104 0.950 . S
H1099 C1105 0.950 . S
H1100 C1106 0.949 . S
C1101 H1096 0.950 . S
C1101 C1103 1.327 . S
C1101 C1107 1.429 . S
C1102 C1094 1.574 . S
C1102 H1097 0.949 . S
C1102 C1108 1.368 . S
C1103 C1087 1.349 . S
C1103 H1095 0.950 . S
C1103 C1101 1.327 . S
C1104 C1092 1.349 . S
C1104 H1098 0.950 . S
C1104 C1105 1.327 . S
C1105 H1099 0.950 . S
C1105 C1104 1.327 . S
C1105 C1109 1.429 . S
C1106 C1089 1.574 . S
C1106 H1100 0.949 . S
C1106 C1110 1.368 . S
C1107 C1088 1.429 . S
C1107 C1101 1.429 . S
C1107 C1108 1.523 . S
C1108 C1089 1.368 . S
C1108 C1102 1.368 . S
C1108 C1107 1.523 . S
C1109 C1093 1.429 . S
C1109 C1105 1.429 . S
C1109 C1110 1.523 . S
C1110 C1094 1.368 . S
C1110 C1106 1.368 . S
C1110 C1109 1.523 . S
H1111 C1086 0.950 . S
H1112 C1088 0.950 . S
H1113 C1089 0.949 . S
H1114 C1091 0.950 . S
H1115 C1093 0.950 . S
C1116 C1117 1.349 . S
C1116 C1118 1.327 . S
C1116 H1141 0.950 . S
C1117 C1116 1.349 . S
C1117 C1133 1.349 . S
C1118 C1116 1.327 . S
C1118 C1137 1.429 . S
C1118 H1142 0.950 . S
C1119 C1136 1.574 . S
C1119 C1138 1.368 . S
C1119 H1143 0.949 . S
H1120 C1124 0.949 . S
C1121 C1122 1.349 . S
C1121 C1123 1.327 . S
C1121 H1144 0.950 . S
C1122 C1121 1.349 . S
C1122 C1134 1.349 . S
C1123 C1121 1.327 . S
C1123 C1139 1.429 . S
C1123 H1145 0.950 . S
C1124 H1120 0.949 . S
C1124 C1132 1.574 . S
C1124 C1140 1.368 . S
H1125 C1133 0.950 . S
H1126 C1131 0.950 . S
H1127 C1132 0.949 . S
H1128 C1134 0.950 . S
H1129 C1135 0.950 . S
H1130 C1136 0.949 . S
C1131 H1126 0.950 . S
C1131 C1133 1.327 . S
C1131 C1137 1.429 . S
C1132 C1124 1.574 . S
C1132 H1127 0.949 . S
C1132 C1138 1.368 . S
C1133 C1117 1.349 . S
C1133 H1125 0.950 . S
C1133 C1131 1.327 . S
C1134 C1122 1.349 . S
C1134 H1128 0.950 . S
C1134 C1135 1.327 . S
C1135 H1129 0.950 . S
C1135 C1134 1.327 . S
C1135 C1139 1.429 . S
C1136 C1119 1.574 . S
C1136 H1130 0.949 . S
C1136 C1140 1.368 . S
C1137 C1118 1.429 . S
C1137 C1131 1.429 . S
C1137 C1138 1.523 . S
C1138 C1119 1.368 . S
C1138 C1132 1.368 . S
C1138 C1137 1.523 . S
C1139 C1123 1.429 . S
C1139 C1135 1.429 . S
C1139 C1140 1.523 . S
C1140 C1124 1.368 . S
C1140 C1136 1.368 . S
C1140 C1139 1.523 . S
H1141 C1116 0.950 . S
H1142 C1118 0.950 . S
H1143 C1119 0.949 . S
H1144 C1121 0.950 . S
H1145 C1123 0.950 . S
C1146 C1147 1.349 . S
C1146 C1148 1.327 . S
C1146 H1171 0.950 . S
C1147 C1146 1.349 . S
C1147 C1163 1.349 . S
C1148 C1146 1.327 . S
C1148 C1167 1.429 . S
C1148 H1172 0.950 . S
C1149 C1166 1.574 . S
C1149 C1168 1.368 . S
C1149 H1173 0.949 . S
H1150 C1154 0.949 . S
C1151 C1152 1.349 . S
C1151 C1153 1.327 . S
C1151 H1174 0.950 . S
C1152 C1151 1.349 . S
C1152 C1164 1.349 . S
C1153 C1151 1.327 . S
C1153 C1169 1.429 . S
C1153 H1175 0.950 . S
C1154 H1150 0.949 . S
C1154 C1162 1.574 . S
C1154 C1170 1.368 . S
H1155 C1163 0.950 . S
H1156 C1161 0.950 . S
H1157 C1162 0.949 . S
H1158 C1164 0.950 . S
H1159 C1165 0.950 . S
H1160 C1166 0.949 . S
C1161 H1156 0.950 . S
C1161 C1163 1.327 . S
C1161 C1167 1.429 . S
C1162 C1154 1.574 . S
C1162 H1157 0.949 . S
C1162 C1168 1.368 . S
C1163 C1147 1.349 . S
C1163 H1155 0.950 . S
C1163 C1161 1.327 . S
C1164 C1152 1.349 . S
C1164 H1158 0.950 . S
C1164 C1165 1.327 . S
C1165 H1159 0.950 . S
C1165 C1164 1.327 . S
C1165 C1169 1.429 . S
C1166 C1149 1.574 . S
C1166 H1160 0.949 . S
C1166 C1170 1.368 . S
C1167 C1148 1.429 . S
C1167 C1161 1.429 . S
C1167 C1168 1.523 . S
C1168 C1149 1.368 . S
C1168 C1162 1.368 . S
C1168 C1167 1.523 . S
C1169 C1153 1.429 . S
C1169 C1165 1.429 . S
C1169 C1170 1.523 . S
C1170 C1154 1.368 . S
C1170 C1166 1.368 . S
C1170 C1169 1.523 . S
H1171 C1146 0.950 . S
H1172 C1148 0.950 . S
H1173 C1149 0.949 . S
H1174 C1151 0.950 . S
H1175 C1153 0.950 . S
C1176 C1177 1.349 . S
C1176 C1178 1.327 . S
C1176 H1201 0.950 . S
C1177 C1176 1.349 . S
C1177 C1193 1.349 . S
C1178 C1176 1.327 . S
C1178 C1197 1.429 . S
C1178 H1202 0.950 . S
C1179 C1196 1.574 . S
C1179 C1198 1.368 . S
C1179 H1203 0.949 . S
H1180 C1184 0.949 . S
C1181 C1182 1.349 . S
C1181 C1183 1.327 . S
C1181 H1204 0.950 . S
C1182 C1181 1.349 . S
C1182 C1194 1.349 . S
C1183 C1181 1.327 . S
C1183 C1199 1.429 . S
C1183 H1205 0.950 . S
C1184 H1180 0.949 . S
C1184 C1192 1.574 . S
C1184 C1200 1.368 . S
H1185 C1193 0.950 . S
H1186 C1191 0.950 . S
H1187 C1192 0.949 . S
H1188 C1194 0.950 . S
H1189 C1195 0.950 . S
H1190 C1196 0.949 . S
C1191 H1186 0.950 . S
C1191 C1193 1.327 . S
C1191 C1197 1.429 . S
C1192 C1184 1.574 . S
C1192 H1187 0.949 . S
C1192 C1198 1.368 . S
C1193 C1177 1.349 . S
C1193 H1185 0.950 . S
C1193 C1191 1.327 . S
C1194 C1182 1.349 . S
C1194 H1188 0.950 . S
C1194 C1195 1.327 . S
C1195 H1189 0.950 . S
C1195 C1194 1.327 . S
C1195 C1199 1.429 . S
C1196 C1179 1.574 . S
C1196 H1190 0.949 . S
C1196 C1200 1.368 . S
C1197 C1178 1.429 . S
C1197 C1191 1.429 . S
C1197 C1198 1.523 . S
C1198 C1179 1.368 . S
C1198 C1192 1.368 . S
C1198 C1197 1.523 . S
C1199 C1183 1.429 . S
C1199 C1195 1.429 . S
C1199 C1200 1.523 . S
C1200 C1184 1.368 . S
C1200 C1196 1.368 . S
C1200 C1199 1.523 . S
H1201 C1176 0.950 . S
H1202 C1178 0.950 . S
H1203 C1179 0.949 . S
H1204 C1181 0.950 . S
H1205 C1183 0.950 . S
C1206 C1207 1.349 . S
C1206 C1208 1.327 . S
C1206 H1231 0.950 . S
C1207 C1206 1.349 . S
C1207 C1223 1.349 . S
C1208 C1206 1.327 . S
C1208 C1227 1.429 . S
C1208 H1232 0.950 . S
C1209 C1226 1.574 . S
C1209 C1228 1.368 . S
C1209 H1233 0.949 . S
H1210 C1214 0.949 . S
C1211 C1212 1.349 . S
C1211 C1213 1.327 . S
C1211 H1234 0.950 . S
C1212 C1211 1.349 . S
C1212 C1224 1.349 . S
C1213 C1211 1.327 . S
C1213 C1229 1.429 . S
C1213 H1235 0.950 . S
C1214 H1210 0.949 . S
C1214 C1222 1.574 . S
C1214 C1230 1.368 . S
H1215 C1223 0.950 . S
H1216 C1221 0.950 . S
H1217 C1222 0.949 . S
H1218 C1224 0.950 . S
H1219 C1225 0.950 . S
H1220 C1226 0.949 . S
C1221 H1216 0.950 . S
C1221 C1223 1.327 . S
C1221 C1227 1.429 . S
C1222 C1214 1.574 . S
C1222 H1217 0.949 . S
C1222 C1228 1.368 . S
C1223 C1207 1.349 . S
C1223 H1215 0.950 . S
C1223 C1221 1.327 . S
C1224 C1212 1.349 . S
C1224 H1218 0.950 . S
C1224 C1225 1.327 . S
C1225 H1219 0.950 . S
C1225 C1224 1.327 . S
C1225 C1229 1.429 . S
C1226 C1209 1.574 . S
C1226 H1220 0.949 . S
C1226 C1230 1.368 . S
C1227 C1208 1.429 . S
C1227 C1221 1.429 . S
C1227 C1228 1.523 . S
C1228 C1209 1.368 . S
C1228 C1222 1.368 . S
C1228 C1227 1.523 . S
C1229 C1213 1.429 . S
C1229 C1225 1.429 . S
C1229 C1230 1.523 . S
C1230 C1214 1.368 . S
C1230 C1226 1.368 . S
C1230 C1229 1.523 . S
H1231 C1206 0.950 . S
H1232 C1208 0.950 . S
H1233 C1209 0.949 . S
H1234 C1211 0.950 . S
H1235 C1213 0.950 . S
C1236 C1237 1.349 . S
C1236 C1238 1.327 . S
C1236 H1261 0.950 . S
C1237 C1236 1.349 . S
C1237 C1253 1.349 . S
C1238 C1236 1.327 . S
C1238 C1257 1.429 . S
C1238 H1262 0.950 . S
C1239 C1256 1.574 . S
C1239 C1258 1.368 . S
C1239 H1263 0.949 . S
H1240 C1244 0.949 . S
C1241 C1242 1.349 . S
C1241 C1243 1.327 . S
C1241 H1264 0.950 . S
C1242 C1241 1.349 . S
C1242 C1254 1.349 . S
C1243 C1241 1.327 . S
C1243 C1259 1.429 . S
C1243 H1265 0.950 . S
C1244 H1240 0.949 . S
C1244 C1252 1.574 . S
C1244 C1260 1.368 . S
H1245 C1253 0.950 . S
H1246 C1251 0.950 . S
H1247 C1252 0.949 . S
H1248 C1254 0.950 . S
H1249 C1255 0.950 . S
H1250 C1256 0.949 . S
C1251 H1246 0.950 . S
C1251 C1253 1.327 . S
C1251 C1257 1.429 . S
C1252 C1244 1.574 . S
C1252 H1247 0.949 . S
C1252 C1258 1.368 . S
C1253 C1237 1.349 . S
C1253 H1245 0.950 . S
C1253 C1251 1.327 . S
C1254 C1242 1.349 . S
C1254 H1248 0.950 . S
C1254 C1255 1.327 . S
C1255 H1249 0.950 . S
C1255 C1254 1.327 . S
C1255 C1259 1.429 . S
C1256 C1239 1.574 . S
C1256 H1250 0.949 . S
C1256 C1260 1.368 . S
C1257 C1238 1.429 . S
C1257 C1251 1.429 . S
C1257 C1258 1.523 . S
C1258 C1239 1.368 . S
C1258 C1252 1.368 . S
C1258 C1257 1.523 . S
C1259 C1243 1.429 . S
C1259 C1255 1.429 . S
C1259 C1260 1.523 . S
C1260 C1244 1.368 . S
C1260 C1256 1.368 . S
C1260 C1259 1.523 . S
H1261 C1236 0.950 . S
H1262 C1238 0.950 . S
H1263 C1239 0.949 . S
H1264 C1241 0.950 . S
H1265 C1243 0.950 . S
C1266 C1267 1.349 . S
C1266 C1268 1.327 . S
C1266 H1291 0.950 . S
C1267 C1266 1.349 . S
C1267 C1283 1.349 . S
C1268 C1266 1.327 . S
C1268 C1287 1.429 . S
C1268 H1292 0.950 . S
C1269 C1286 1.574 . S
C1269 C1288 1.368 . S
C1269 H1293 0.949 . S
H1270 C1274 0.949 . S
C1271 C1272 1.349 . S
C1271 C1273 1.327 . S
C1271 H1294 0.950 . S
C1272 C1271 1.349 . S
C1272 C1284 1.349 . S
C1273 C1271 1.327 . S
C1273 C1289 1.429 . S
C1273 H1295 0.950 . S
C1274 H1270 0.949 . S
C1274 C1282 1.574 . S
C1274 C1290 1.368 . S
H1275 C1283 0.950 . S
H1276 C1281 0.950 . S
H1277 C1282 0.949 . S
H1278 C1284 0.950 . S
H1279 C1285 0.950 . S
H1280 C1286 0.949 . S
C1281 H1276 0.950 . S
C1281 C1283 1.327 . S
C1281 C1287 1.429 . S
C1282 C1274 1.574 . S
C1282 H1277 0.949 . S
C1282 C1288 1.368 . S
C1283 C1267 1.349 . S
C1283 H1275 0.950 . S
C1283 C1281 1.327 . S
C1284 C1272 1.349 . S
C1284 H1278 0.950 . S
C1284 C1285 1.327 . S
C1285 H1279 0.950 . S
C1285 C1284 1.327 . S
C1285 C1289 1.429 . S
C1286 C1269 1.574 . S
C1286 H1280 0.949 . S
C1286 C1290 1.368 . S
C1287 C1268 1.429 . S
C1287 C1281 1.429 . S
C1287 C1288 1.523 . S
C1288 C1269 1.368 . S
C1288 C1282 1.368 . S
C1288 C1287 1.523 . S
C1289 C1273 1.429 . S
C1289 C1285 1.429 . S
C1289 C1290 1.523 . S
C1290 C1274 1.368 . S
C1290 C1286 1.368 . S
C1290 C1289 1.523 . S
H1291 C1266 0.950 . S
H1292 C1268 0.950 . S
H1293 C1269 0.949 . S
H1294 C1271 0.950 . S
H1295 C1273 0.950 . S
C397 N14 1.530 . S
C402 N113 1.530 . S
C427 N146 1.530 . S
C432 N47 1.530 . S
C457 N179 1.530 . S
C462 N80 1.530 . S
C487 N311 1.530 . S
C492 N212 1.530 . S
C517 N344 1.530 . S
C522 N245 1.530 . S
C547 N278 1.530 . S
C552 N377 1.530 . S
C577 C8 0.897 . S
C582 N170 0.896 . S
C607 N5 0.896 . S
C612 C41 0.897 . S
C637 C74 0.897 . S
C642 N38 0.896 . S
C667 N71 0.896 . S
C672 C107 0.897 . S
C697 N104 0.896 . S
C702 C140 0.897 . S
C727 N137 0.896 . S
C732 C173 0.897 . S
C757 N236 0.896 . S
C762 C206 0.897 . S
C787 N269 0.896 . S
C792 C239 0.897 . S
C817 N302 0.896 . S
C822 C272 0.897 . S
C847 C305 0.897 . S
C852 N335 0.896 . S
C877 C338 0.897 . S
C882 N368 0.896 . S
C907 C371 0.897 . S
C912 N203 0.896 . S
C937 C292 1.156 . S
C942 C28 1.156 . S
C967 C61 1.156 . S
C972 C325 1.156 . S
C997 C94 1.156 . S
C1002 C358 1.156 . S
C1027 C127 1.156 . S
C1032 C391 1.156 . S
C1057 C226 1.156 . S
C1062 C160 1.156 . S
C1087 C193 1.156 . S
C1092 C259 1.156 . S
C1117 C380 1.439 . S
C1122 C116 1.439 . S
C1147 C215 1.439 . S
C1152 C149 1.439 . S
C1177 C248 1.439 . S
C1182 C182 1.439 . S
C1207 C17 1.439 . S
C1212 C281 1.439 . S
C1237 C50 1.439 . S
C1242 C314 1.439 . S
C1267 C83 1.439 . S
C1272 C347 1.439 . S
