# Generated by pormake.
# Topology nfb, (4)-cn, num edge types: 1
# Building blocks:
#     Node 0, Type 0, BuildingBlock: NAHDIM_clean_sbu_0, # of connection points: 4
#     Node 1, Type 0, BuildingBlock: NAHDIM_clean_sbu_0, # of connection points: 4
#     Node 2, Type 0, BuildingBlock: NAHDIM_clean_sbu_0, # of connection points: 4
#     Node 3, Type 0, BuildingBlock: NAHDIM_clean_sbu_0, # of connection points: 4
#     Node 4, Type 0, BuildingBlock: NAHDIM_clean_sbu_0, # of connection points: 4
#     Node 5, Type 0, BuildingBlock: NAHDIM_clean_sbu_0, # of connection points: 4
#     Node 6, Type 0, BuildingBlock: NAHDIM_clean_sbu_0, # of connection points: 4
#     Node 7, Type 0, BuildingBlock: NAHDIM_clean_sbu_0, # of connection points: 4
#     Node 8, Type 0, BuildingBlock: NAHDIM_clean_sbu_0, # of connection points: 4
#     Node 9, Type 0, BuildingBlock: NAHDIM_clean_sbu_0, # of connection points: 4
#     Node 10, Type 0, BuildingBlock: NAHDIM_clean_sbu_0, # of connection points: 4
#     Node 11, Type 0, BuildingBlock: NAHDIM_clean_sbu_0, # of connection points: 4
#     Node 12, Type 0, BuildingBlock: NAHDIM_clean_sbu_0, # of connection points: 4
#     Node 13, Type 0, BuildingBlock: NAHDIM_clean_sbu_0, # of connection points: 4
#     Node 14, Type 0, BuildingBlock: NAHDIM_clean_sbu_0, # of connection points: 4
#     Node 15, Type 0, BuildingBlock: NAHDIM_clean_sbu_0, # of connection points: 4
#     Node 16, Type 0, BuildingBlock: NAHDIM_clean_sbu_0, # of connection points: 4
#     Node 17, Type 0, BuildingBlock: NAHDIM_clean_sbu_0, # of connection points: 4
#     Node 18, Type 0, BuildingBlock: NAHDIM_clean_sbu_0, # of connection points: 4
#     Node 19, Type 0, BuildingBlock: NAHDIM_clean_sbu_0, # of connection points: 4
#     Node 20, Type 0, BuildingBlock: NAHDIM_clean_sbu_0, # of connection points: 4
#     Node 21, Type 0, BuildingBlock: NAHDIM_clean_sbu_0, # of connection points: 4
#     Node 22, Type 0, BuildingBlock: NAHDIM_clean_sbu_0, # of connection points: 4
#     Node 23, Type 0, BuildingBlock: NAHDIM_clean_sbu_0, # of connection points: 4
#     Node 24, Type 0, BuildingBlock: NAHDIM_clean_sbu_0, # of connection points: 4
#     Node 25, Type 0, BuildingBlock: NAHDIM_clean_sbu_0, # of connection points: 4
#     Node 26, Type 0, BuildingBlock: NAHDIM_clean_sbu_0, # of connection points: 4
#     Node 27, Type 0, BuildingBlock: NAHDIM_clean_sbu_0, # of connection points: 4
#     Node 28, Type 0, BuildingBlock: NAHDIM_clean_sbu_0, # of connection points: 4
#     Node 29, Type 0, BuildingBlock: NAHDIM_clean_sbu_0, # of connection points: 4
#     Node 30, Type 0, BuildingBlock: NAHDIM_clean_sbu_0, # of connection points: 4
#     Node 31, Type 0, BuildingBlock: NAHDIM_clean_sbu_0, # of connection points: 4
#     Node 32, Type 0, BuildingBlock: NAHDIM_clean_sbu_0, # of connection points: 4
#     Node 33, Type 0, BuildingBlock: NAHDIM_clean_sbu_0, # of connection points: 4
#     Node 34, Type 0, BuildingBlock: NAHDIM_clean_sbu_0, # of connection points: 4
#     Node 35, Type 0, BuildingBlock: NAHDIM_clean_sbu_0, # of connection points: 4
#     Node 36, Type 0, BuildingBlock: NAHDIM_clean_sbu_0, # of connection points: 4
#     Node 37, Type 0, BuildingBlock: NAHDIM_clean_sbu_0, # of connection points: 4
#     Node 38, Type 0, BuildingBlock: NAHDIM_clean_sbu_0, # of connection points: 4
#     Node 39, Type 0, BuildingBlock: NAHDIM_clean_sbu_0, # of connection points: 4
#     Node 40, Type 0, BuildingBlock: NAHDIM_clean_sbu_0, # of connection points: 4
#     Node 41, Type 0, BuildingBlock: NAHDIM_clean_sbu_0, # of connection points: 4
#     Node 42, Type 0, BuildingBlock: NAHDIM_clean_sbu_0, # of connection points: 4
#     Node 43, Type 0, BuildingBlock: NAHDIM_clean_sbu_0, # of connection points: 4
#     Node 44, Type 0, BuildingBlock: NAHDIM_clean_sbu_0, # of connection points: 4
#     Node 45, Type 0, BuildingBlock: NAHDIM_clean_sbu_0, # of connection points: 4
#     Node 46, Type 0, BuildingBlock: NAHDIM_clean_sbu_0, # of connection points: 4
#     Node 47, Type 0, BuildingBlock: NAHDIM_clean_sbu_0, # of connection points: 4
#     Edge 48, Type (0, 0), BuildingBlock: XIVTED_clean_linker_0, # of connection points: 2
#     Edge 49, Type (0, 0), BuildingBlock: XIVTED_clean_linker_0, # of connection points: 2
#     Edge 50, Type (0, 0), BuildingBlock: XIVTED_clean_linker_0, # of connection points: 2
#     Edge 51, Type (0, 0), BuildingBlock: XIVTED_clean_linker_0, # of connection points: 2
#     Edge 52, Type (0, 0), BuildingBlock: XIVTED_clean_linker_0, # of connection points: 2
#     Edge 53, Type (0, 0), BuildingBlock: XIVTED_clean_linker_0, # of connection points: 2
#     Edge 54, Type (0, 0), BuildingBlock: XIVTED_clean_linker_0, # of connection points: 2
#     Edge 55, Type (0, 0), BuildingBlock: XIVTED_clean_linker_0, # of connection points: 2
#     Edge 56, Type (0, 0), BuildingBlock: XIVTED_clean_linker_0, # of connection points: 2
#     Edge 57, Type (0, 0), BuildingBlock: XIVTED_clean_linker_0, # of connection points: 2
#     Edge 58, Type (0, 0), BuildingBlock: XIVTED_clean_linker_0, # of connection points: 2
#     Edge 59, Type (0, 0), BuildingBlock: XIVTED_clean_linker_0, # of connection points: 2
#     Edge 60, Type (0, 0), BuildingBlock: XIVTED_clean_linker_0, # of connection points: 2
#     Edge 61, Type (0, 0), BuildingBlock: XIVTED_clean_linker_0, # of connection points: 2
#     Edge 62, Type (0, 0), BuildingBlock: XIVTED_clean_linker_0, # of connection points: 2
#     Edge 63, Type (0, 0), BuildingBlock: XIVTED_clean_linker_0, # of connection points: 2
#     Edge 64, Type (0, 0), BuildingBlock: XIVTED_clean_linker_0, # of connection points: 2
#     Edge 65, Type (0, 0), BuildingBlock: XIVTED_clean_linker_0, # of connection points: 2
#     Edge 66, Type (0, 0), BuildingBlock: XIVTED_clean_linker_0, # of connection points: 2
#     Edge 67, Type (0, 0), BuildingBlock: XIVTED_clean_linker_0, # of connection points: 2
#     Edge 68, Type (0, 0), BuildingBlock: XIVTED_clean_linker_0, # of connection points: 2
#     Edge 69, Type (0, 0), BuildingBlock: XIVTED_clean_linker_0, # of connection points: 2
#     Edge 70, Type (0, 0), BuildingBlock: XIVTED_clean_linker_0, # of connection points: 2
#     Edge 71, Type (0, 0), BuildingBlock: XIVTED_clean_linker_0, # of connection points: 2
#     Edge 72, Type (0, 0), BuildingBlock: XIVTED_clean_linker_0, # of connection points: 2
#     Edge 73, Type (0, 0), BuildingBlock: XIVTED_clean_linker_0, # of connection points: 2
#     Edge 74, Type (0, 0), BuildingBlock: XIVTED_clean_linker_0, # of connection points: 2
#     Edge 75, Type (0, 0), BuildingBlock: XIVTED_clean_linker_0, # of connection points: 2
#     Edge 76, Type (0, 0), BuildingBlock: XIVTED_clean_linker_0, # of connection points: 2
#     Edge 77, Type (0, 0), BuildingBlock: XIVTED_clean_linker_0, # of connection points: 2
#     Edge 78, Type (0, 0), BuildingBlock: XIVTED_clean_linker_0, # of connection points: 2
#     Edge 79, Type (0, 0), BuildingBlock: XIVTED_clean_linker_0, # of connection points: 2
#     Edge 80, Type (0, 0), BuildingBlock: XIVTED_clean_linker_0, # of connection points: 2
#     Edge 81, Type (0, 0), BuildingBlock: XIVTED_clean_linker_0, # of connection points: 2
#     Edge 82, Type (0, 0), BuildingBlock: XIVTED_clean_linker_0, # of connection points: 2
#     Edge 83, Type (0, 0), BuildingBlock: XIVTED_clean_linker_0, # of connection points: 2
#     Edge 84, Type (0, 0), BuildingBlock: XIVTED_clean_linker_0, # of connection points: 2
#     Edge 85, Type (0, 0), BuildingBlock: XIVTED_clean_linker_0, # of connection points: 2
#     Edge 86, Type (0, 0), BuildingBlock: XIVTED_clean_linker_0, # of connection points: 2
#     Edge 87, Type (0, 0), BuildingBlock: XIVTED_clean_linker_0, # of connection points: 2
#     Edge 88, Type (0, 0), BuildingBlock: XIVTED_clean_linker_0, # of connection points: 2
#     Edge 89, Type (0, 0), BuildingBlock: XIVTED_clean_linker_0, # of connection points: 2
#     Edge 90, Type (0, 0), BuildingBlock: XIVTED_clean_linker_0, # of connection points: 2
#     Edge 91, Type (0, 0), BuildingBlock: XIVTED_clean_linker_0, # of connection points: 2
#     Edge 92, Type (0, 0), BuildingBlock: XIVTED_clean_linker_0, # of connection points: 2
#     Edge 93, Type (0, 0), BuildingBlock: XIVTED_clean_linker_0, # of connection points: 2
#     Edge 94, Type (0, 0), BuildingBlock: XIVTED_clean_linker_0, # of connection points: 2
#     Edge 95, Type (0, 0), BuildingBlock: XIVTED_clean_linker_0, # of connection points: 2
#     Edge 96, Type (0, 0), BuildingBlock: XIVTED_clean_linker_0, # of connection points: 2
#     Edge 97, Type (0, 0), BuildingBlock: XIVTED_clean_linker_0, # of connection points: 2
#     Edge 98, Type (0, 0), BuildingBlock: XIVTED_clean_linker_0, # of connection points: 2
#     Edge 99, Type (0, 0), BuildingBlock: XIVTED_clean_linker_0, # of connection points: 2
#     Edge 100, Type (0, 0), BuildingBlock: XIVTED_clean_linker_0, # of connection points: 2
#     Edge 101, Type (0, 0), BuildingBlock: XIVTED_clean_linker_0, # of connection points: 2
#     Edge 102, Type (0, 0), BuildingBlock: XIVTED_clean_linker_0, # of connection points: 2
#     Edge 103, Type (0, 0), BuildingBlock: XIVTED_clean_linker_0, # of connection points: 2
#     Edge 104, Type (0, 0), BuildingBlock: XIVTED_clean_linker_0, # of connection points: 2
#     Edge 105, Type (0, 0), BuildingBlock: XIVTED_clean_linker_0, # of connection points: 2
#     Edge 106, Type (0, 0), BuildingBlock: XIVTED_clean_linker_0, # of connection points: 2
#     Edge 107, Type (0, 0), BuildingBlock: XIVTED_clean_linker_0, # of connection points: 2
#     Edge 108, Type (0, 0), BuildingBlock: XIVTED_clean_linker_0, # of connection points: 2
#     Edge 109, Type (0, 0), BuildingBlock: XIVTED_clean_linker_0, # of connection points: 2
#     Edge 110, Type (0, 0), BuildingBlock: XIVTED_clean_linker_0, # of connection points: 2
#     Edge 111, Type (0, 0), BuildingBlock: XIVTED_clean_linker_0, # of connection points: 2
#     Edge 112, Type (0, 0), BuildingBlock: XIVTED_clean_linker_0, # of connection points: 2
#     Edge 113, Type (0, 0), BuildingBlock: XIVTED_clean_linker_0, # of connection points: 2
#     Edge 114, Type (0, 0), BuildingBlock: XIVTED_clean_linker_0, # of connection points: 2
#     Edge 115, Type (0, 0), BuildingBlock: XIVTED_clean_linker_0, # of connection points: 2
#     Edge 116, Type (0, 0), BuildingBlock: XIVTED_clean_linker_0, # of connection points: 2
#     Edge 117, Type (0, 0), BuildingBlock: XIVTED_clean_linker_0, # of connection points: 2
#     Edge 118, Type (0, 0), BuildingBlock: XIVTED_clean_linker_0, # of connection points: 2
#     Edge 119, Type (0, 0), BuildingBlock: XIVTED_clean_linker_0, # of connection points: 2
#     Edge 120, Type (0, 0), BuildingBlock: XIVTED_clean_linker_0, # of connection points: 2
#     Edge 121, Type (0, 0), BuildingBlock: XIVTED_clean_linker_0, # of connection points: 2
#     Edge 122, Type (0, 0), BuildingBlock: XIVTED_clean_linker_0, # of connection points: 2
#     Edge 123, Type (0, 0), BuildingBlock: XIVTED_clean_linker_0, # of connection points: 2
#     Edge 124, Type (0, 0), BuildingBlock: XIVTED_clean_linker_0, # of connection points: 2
#     Edge 125, Type (0, 0), BuildingBlock: XIVTED_clean_linker_0, # of connection points: 2
#     Edge 126, Type (0, 0), BuildingBlock: XIVTED_clean_linker_0, # of connection points: 2
#     Edge 127, Type (0, 0), BuildingBlock: XIVTED_clean_linker_0, # of connection points: 2
#     Edge 128, Type (0, 0), BuildingBlock: XIVTED_clean_linker_0, # of connection points: 2
#     Edge 129, Type (0, 0), BuildingBlock: XIVTED_clean_linker_0, # of connection points: 2
#     Edge 130, Type (0, 0), BuildingBlock: XIVTED_clean_linker_0, # of connection points: 2
#     Edge 131, Type (0, 0), BuildingBlock: XIVTED_clean_linker_0, # of connection points: 2
#     Edge 132, Type (0, 0), BuildingBlock: XIVTED_clean_linker_0, # of connection points: 2
#     Edge 133, Type (0, 0), BuildingBlock: XIVTED_clean_linker_0, # of connection points: 2
#     Edge 134, Type (0, 0), BuildingBlock: XIVTED_clean_linker_0, # of connection points: 2
#     Edge 135, Type (0, 0), BuildingBlock: XIVTED_clean_linker_0, # of connection points: 2
#     Edge 136, Type (0, 0), BuildingBlock: XIVTED_clean_linker_0, # of connection points: 2
#     Edge 137, Type (0, 0), BuildingBlock: XIVTED_clean_linker_0, # of connection points: 2
#     Edge 138, Type (0, 0), BuildingBlock: XIVTED_clean_linker_0, # of connection points: 2
#     Edge 139, Type (0, 0), BuildingBlock: XIVTED_clean_linker_0, # of connection points: 2
#     Edge 140, Type (0, 0), BuildingBlock: XIVTED_clean_linker_0, # of connection points: 2
#     Edge 141, Type (0, 0), BuildingBlock: XIVTED_clean_linker_0, # of connection points: 2
#     Edge 142, Type (0, 0), BuildingBlock: XIVTED_clean_linker_0, # of connection points: 2
#     Edge 143, Type (0, 0), BuildingBlock: XIVTED_clean_linker_0, # of connection points: 2
# Relax obj value: 0.312
# Max RMSD: 0.203
# Mean RMSD: 0.171
data_MOF--net-nfb--node1-NAHDIM_clean_sbu_0--edge1-XIVTED_clean_linker_0
_symmetry_space_group_name_H-M    P1
_symmetry_Int_Tables_number       1
_symmetry_cell_setting            triclinic
loop_
_symmetry_equiv_pos_as_xyz
'x, y, z'
_cell_length_a     59.249506
_cell_length_b     59.265927
_cell_length_c     59.355554
_cell_angle_alpha  90.257392
_cell_angle_beta   90.079029
_cell_angle_gamma 90.325257
loop_
_atom_site_label
_atom_site_type_symbol
_atom_site_fract_x
_atom_site_fract_y
_atom_site_fract_z
_atom_type_partial_charge
C0 C 0.16844 0.13593 0.36806 0.0
O1 O 0.16034 0.1557 0.36243 0.0
O2 O 0.11902 0.12119 0.41547 0.0
Zn3 Zn 0.12232 0.12888 0.38271 0.0
O4 O 0.11908 0.16258 0.38089 0.0
C5 C 0.08378 0.09963 0.37354 0.0
O6 O 0.0906 0.0898 0.39212 0.0
O7 O 0.1548 0.12061 0.37466 0.0
C8 C 0.10379 0.17284 0.39179 0.0
O9 O 0.08911 0.16108 0.40351 0.0
C10 C 0.13017 0.13336 0.42925 0.0
O11 O 0.14315 0.14958 0.42144 0.0
O12 O 0.096 0.11517 0.36506 0.0
C13 C 0.40937 0.58539 0.85972 0.0
O14 O 0.42213 0.59123 0.87692 0.0
O15 O 0.35096 0.62533 0.87448 0.0
Zn16 Zn 0.38475 0.62526 0.87358 0.0
O17 O 0.39459 0.61875 0.90526 0.0
C18 C 0.37989 0.66876 0.85295 0.0
O19 O 0.36364 0.6578 0.84242 0.0
O20 O 0.39383 0.59877 0.85347 0.0
C21 C 0.40531 0.63234 0.918 0.0
O22 O 0.41176 0.65203 0.91012 0.0
C23 C 0.33924 0.6152 0.88925 0.0
O24 O 0.34934 0.60291 0.90458 0.0
O25 O 0.39342 0.65764 0.86532 0.0
C26 C 0.8353 0.893 0.37668 0.0
O27 O 0.84627 0.90201 0.39376 0.0
O28 O 0.88659 0.87929 0.39978 0.0
Zn29 Zn 0.87983 0.87554 0.36669 0.0
O30 O 0.88291 0.84252 0.36008 0.0
C31 C 0.91757 0.90582 0.35906 0.0
O32 O 0.91106 0.91394 0.37861 0.0
O33 O 0.84652 0.88301 0.3613 0.0
C34 C 0.90117 0.83245 0.36481 0.0
O35 O 0.91832 0.84423 0.37268 0.0
C36 C 0.88259 0.86348 0.41361 0.0
O37 O 0.87327 0.84463 0.4064 0.0
O38 O 0.90505 0.89127 0.34917 0.0
C39 C 0.59429 0.41005 0.86 0.0
O40 O 0.5834 0.40492 0.87856 0.0
O41 O 0.65326 0.37503 0.87474 0.0
Zn42 Zn 0.61994 0.37016 0.87189 0.0
O43 O 0.60806 0.37341 0.90352 0.0
C44 C 0.63116 0.32663 0.85179 0.0
O45 O 0.64844 0.33803 0.84379 0.0
O46 O 0.60884 0.39621 0.85239 0.0
C47 C 0.60019 0.35676 0.91446 0.0
O48 O 0.59832 0.33703 0.90447 0.0
C49 C 0.66484 0.3634 0.88842 0.0
O50 O 0.65471 0.34803 0.90074 0.0
O51 O 0.61542 0.33736 0.86168 0.0
C52 C 0.09113 0.90656 0.63572 0.0
O53 O 0.09603 0.91454 0.6157 0.0
O54 O 0.12879 0.84814 0.62922 0.0
Zn55 Zn 0.13284 0.88184 0.62877 0.0
O56 O 0.13224 0.89092 0.59618 0.0
C57 C 0.17605 0.87335 0.64996 0.0
O58 O 0.16519 0.85561 0.65764 0.0
O59 O 0.10557 0.89427 0.64572 0.0
C60 C 0.14888 0.88446 0.58436 0.0
O61 O 0.16532 0.87341 0.59418 0.0
C62 C 0.1201 0.83697 0.61304 0.0
O63 O 0.11292 0.84756 0.59505 0.0
O64 O 0.1649 0.88862 0.63987 0.0
C65 C 0.60983 0.67178 0.11662 0.0
O66 O 0.59871 0.66059 0.10096 0.0
O67 O 0.62328 0.62182 0.09087 0.0
Zn68 Zn 0.62954 0.62769 0.12356 0.0
O69 O 0.66313 0.62446 0.12689 0.0
C70 C 0.59669 0.59264 0.1335 0.0
O71 O 0.58607 0.60188 0.11646 0.0
O72 O 0.62233 0.66084 0.13017 0.0
C73 C 0.67276 0.60731 0.13527 0.0
O74 O 0.66044 0.59064 0.14314 0.0
C75 C 0.62884 0.60331 0.08162 0.0
O76 O 0.63863 0.58768 0.09378 0.0
O77 O 0.61418 0.60249 0.14138 0.0
C78 C 0.91082 0.11501 0.66461 0.0
O79 O 0.9044 0.13573 0.66904 0.0
O80 O 0.87681 0.14845 0.63165 0.0
Zn81 Zn 0.87076 0.11544 0.63643 0.0
O82 O 0.87091 0.10185 0.60531 0.0
C83 C 0.82834 0.12867 0.65765 0.0
O84 O 0.83991 0.14686 0.66313 0.0
O85 O 0.89772 0.10224 0.65316 0.0
C86 C 0.85299 0.09535 0.59537 0.0
O87 O 0.83365 0.09627 0.60608 0.0
C88 C 0.8644 0.15954 0.61826 0.0
O89 O 0.84763 0.14922 0.60793 0.0
O90 O 0.83875 0.11196 0.64905 0.0
C91 C 0.37795 0.34416 0.11507 0.0
O92 O 0.36894 0.3526 0.09672 0.0
O93 O 0.38996 0.39486 0.08987 0.0
Zn94 Zn 0.37949 0.39053 0.12158 0.0
O95 O 0.34573 0.39367 0.12059 0.0
C96 C 0.3821 0.43024 0.15061 0.0
O97 O 0.36044 0.42616 0.15313 0.0
O98 O 0.38553 0.35777 0.13004 0.0
C99 C 0.33329 0.38285 0.13426 0.0
O100 O 0.34277 0.37084 0.1502 0.0
C101 C 0.38482 0.41285 0.07956 0.0
O102 O 0.37353 0.42859 0.09029 0.0
O103 O 0.39404 0.41601 0.13983 0.0
C104 C 0.36155 0.17663 0.13728 0.0
O105 O 0.36402 0.16927 0.15795 0.0
O106 O 0.401 0.12526 0.12598 0.0
Zn107 Zn 0.36739 0.12936 0.12953 0.0
O108 O 0.36131 0.12488 0.16248 0.0
C109 C 0.36129 0.09064 0.09993 0.0
O110 O 0.38166 0.09635 0.09329 0.0
O111 O 0.36062 0.16226 0.12118 0.0
C112 C 0.37009 0.10838 0.17281 0.0
O113 O 0.38101 0.093 0.16119 0.0
C114 C 0.41393 0.13284 0.14139 0.0
O115 O 0.40519 0.14382 0.15851 0.0
O116 O 0.35083 0.10372 0.11338 0.0
C117 C 0.42279 0.84101 0.61367 0.0
O118 O 0.41429 0.83478 0.63312 0.0
O119 O 0.39179 0.87398 0.64991 0.0
Zn120 Zn 0.38722 0.87421 0.61646 0.0
O121 O 0.39275 0.90621 0.60703 0.0
C122 C 0.34303 0.8549 0.62528 0.0
O123 O 0.3543 0.84435 0.6411 0.0
O124 O 0.41227 0.85564 0.6021 0.0
C125 C 0.37908 0.9178 0.5954 0.0
O126 O 0.36009 0.90859 0.58843 0.0
C127 C 0.38025 0.88722 0.66214 0.0
O128 O 0.36588 0.90097 0.65251 0.0
O129 O 0.35397 0.86648 0.61088 0.0
C130 C 0.62123 0.84059 0.10018 0.0
O131 O 0.60288 0.85027 0.09254 0.0
O132 O 0.59483 0.89042 0.11373 0.0
Zn133 Zn 0.62764 0.88474 0.12045 0.0
O134 O 0.62932 0.88303 0.1541 0.0
C135 C 0.63916 0.92528 0.09507 0.0
O136 O 0.62196 0.91875 0.08261 0.0
O137 O 0.63599 0.85275 0.11023 0.0
C138 C 0.63149 0.89983 0.16729 0.0
O139 O 0.63389 0.92018 0.15893 0.0
C140 C 0.58498 0.90843 0.11985 0.0
O141 O 0.5967 0.92444 0.12988 0.0
O142 O 0.64625 0.91213 0.11045 0.0
C143 C 0.58084 0.16138 0.62564 0.0
O144 O 0.58932 0.16781 0.64512 0.0
O145 O 0.61207 0.12907 0.66201 0.0
Zn146 Zn 0.61659 0.12844 0.62861 0.0
O147 O 0.61118 0.09618 0.61965 0.0
C148 C 0.6608 0.14813 0.63714 0.0
O149 O 0.64961 0.15903 0.65284 0.0
O150 O 0.59144 0.1467 0.6141 0.0
C151 C 0.62405 0.08482 0.60689 0.0
O152 O 0.64196 0.09452 0.5981 0.0
C153 C 0.6231 0.11512 0.67383 0.0
O154 O 0.63683 0.10098 0.66375 0.0
O155 O 0.64983 0.13607 0.62302 0.0
C156 C 0.34701 0.91835 0.87985 0.0
O157 O 0.34033 0.91035 0.86025 0.0
O158 O 0.37698 0.88556 0.84247 0.0
Zn159 Zn 0.37918 0.88191 0.87596 0.0
O160 O 0.41173 0.88784 0.88312 0.0
C161 C 0.36083 0.83684 0.8694 0.0
O162 O 0.34993 0.847 0.85308 0.0
O163 O 0.36154 0.90728 0.89106 0.0
C164 C 0.42342 0.87604 0.89654 0.0
O165 O 0.4139 0.85909 0.90716 0.0
C166 C 0.39053 0.87454 0.8301 0.0
O167 O 0.40526 0.8611 0.83961 0.0
O168 O 0.37239 0.84878 0.88315 0.0
C169 C 0.66754 0.87337 0.3971 0.0
O170 O 0.65701 0.88936 0.40823 0.0
O171 O 0.62008 0.90179 0.38062 0.0
Zn172 Zn 0.6236 0.8683 0.37617 0.0
O173 O 0.62153 0.86373 0.34275 0.0
C174 C 0.5832 0.8623 0.40321 0.0
O175 O 0.58965 0.88192 0.41143 0.0
O176 O 0.65602 0.8601 0.38457 0.0
C177 C 0.60673 0.87453 0.33175 0.0
O178 O 0.59189 0.88673 0.34276 0.0
C179 C 0.6308 0.91474 0.36735 0.0
O180 O 0.64439 0.90592 0.35226 0.0
O181 O 0.59638 0.85192 0.38978 0.0
C182 C 0.64562 0.07653 0.91197 0.0
O183 O 0.62727 0.08116 0.92344 0.0
O184 O 0.62941 0.11186 0.85343 0.0
Zn185 Zn 0.63179 0.11598 0.88678 0.0
O186 O 0.6004 0.11052 0.8985 0.0
C187 C 0.65125 0.1599 0.87664 0.0
O188 O 0.66069 0.14847 0.86019 0.0
O189 O 0.6525 0.09064 0.89732 0.0
C190 C 0.58841 0.12567 0.9077 0.0
O191 O 0.59692 0.14597 0.91075 0.0
C192 C 0.61553 0.12346 0.84207 0.0
O193 O 0.60252 0.13801 0.85252 0.0
O194 O 0.64041 0.14915 0.89176 0.0
C195 C 0.33499 0.12897 0.40056 0.0
O196 O 0.34296 0.10988 0.40829 0.0
O197 O 0.38386 0.10008 0.38693 0.0
Zn198 Zn 0.38057 0.13369 0.38318 0.0
O199 O 0.38205 0.13867 0.34986 0.0
C200 C 0.42093 0.13933 0.41033 0.0
O201 O 0.41428 0.11981 0.41842 0.0
O202 O 0.34864 0.14317 0.39188 0.0
C203 C 0.39693 0.12885 0.33803 0.0
O204 O 0.41274 0.11717 0.34815 0.0
C205 C 0.3741 0.08724 0.37269 0.0
O206 O 0.36123 0.09614 0.35707 0.0
O207 O 0.40797 0.14973 0.39679 0.0
C208 C 0.10512 0.39386 0.1762 0.0
O209 O 0.10063 0.41379 0.16779 0.0
O210 O 0.12084 0.41893 0.12578 0.0
Zn211 Zn 0.12118 0.38533 0.13058 0.0
O212 O 0.15363 0.37617 0.12869 0.0
C213 C 0.08993 0.38233 0.09328 0.0
O214 O 0.0824 0.40095 0.10264 0.0
O215 O 0.11157 0.37818 0.16293 0.0
C216 C 0.16576 0.38178 0.11198 0.0
O217 O 0.15638 0.39235 0.09498 0.0
C218 C 0.13724 0.43143 0.13191 0.0
O219 O 0.15443 0.42248 0.14256 0.0
O220 O 0.10485 0.37099 0.1037 0.0
C221 C 0.11337 0.64059 0.81961 0.0
O222 O 0.10117 0.62415 0.82815 0.0
O223 O 0.12356 0.6108 0.86863 0.0
Zn224 Zn 0.12964 0.64407 0.8658 0.0
O225 O 0.16292 0.64696 0.87063 0.0
C226 C 0.10258 0.65087 0.90593 0.0
O227 O 0.09527 0.63057 0.9006 0.0
O228 O 0.12451 0.65338 0.83297 0.0
C229 C 0.17194 0.63741 0.88748 0.0
O230 O 0.15901 0.6269 0.90208 0.0
C231 C 0.13613 0.59784 0.85712 0.0
O232 O 0.15128 0.60679 0.84365 0.0
O233 O 0.11532 0.66125 0.89207 0.0
C234 C 0.87312 0.59515 0.41561 0.0
O235 O 0.89167 0.58489 0.40928 0.0
O236 O 0.88087 0.65359 0.37434 0.0
Zn237 Zn 0.88028 0.61972 0.37383 0.0
O238 O 0.91293 0.61054 0.3739 0.0
C239 C 0.85614 0.62492 0.33197 0.0
O240 O 0.84786 0.6425 0.3426 0.0
O241 O 0.86411 0.6093 0.40231 0.0
C242 C 0.92374 0.61661 0.35645 0.0
O243 O 0.91279 0.6269 0.34023 0.0
C244 C 0.89643 0.66484 0.38403 0.0
O245 O 0.91211 0.65416 0.39538 0.0
O246 O 0.86774 0.61073 0.34306 0.0
C247 C 0.88503 0.33068 0.92495 0.0
O248 O 0.8644 0.32415 0.91991 0.0
O249 O 0.84548 0.35961 0.89318 0.0
Zn250 Zn 0.87876 0.36048 0.88672 0.0
O251 O 0.88792 0.39294 0.89069 0.0
C252 C 0.86759 0.34505 0.84143 0.0
O253 O 0.84828 0.34001 0.85105 0.0
O254 O 0.89542 0.34373 0.91142 0.0
C255 C 0.89903 0.40442 0.87644 0.0
O256 O 0.90579 0.39482 0.85766 0.0
C257 C 0.83324 0.37522 0.88525 0.0
O258 O 0.84273 0.39126 0.87327 0.0
O259 O 0.88402 0.35175 0.8537 0.0
C260 C 0.13266 0.38138 0.34321 0.0
O261 O 0.13923 0.3618 0.35103 0.0
O262 O 0.08402 0.39254 0.39279 0.0
Zn263 Zn 0.11705 0.38637 0.38923 0.0
O264 O 0.1199 0.35265 0.39131 0.0
C265 C 0.12481 0.41609 0.42748 0.0
O266 O 0.10723 0.42644 0.41894 0.0
O267 O 0.12501 0.39602 0.35701 0.0
C268 C 0.10865 0.34144 0.40566 0.0
O269 O 0.09592 0.35222 0.42022 0.0
C270 C 0.07076 0.38168 0.37982 0.0
O271 O 0.07933 0.36791 0.36471 0.0
O272 O 0.13359 0.39993 0.41637 0.0
C273 C 0.91231 0.62966 0.08242 0.0
O274 O 0.9241 0.61194 0.08835 0.0
O275 O 0.85279 0.61441 0.11891 0.0
Zn276 Zn 0.88639 0.6176 0.12215 0.0
O277 O 0.89925 0.58622 0.11958 0.0
C278 C 0.87629 0.63987 0.16453 0.0
O279 O 0.85901 0.64747 0.153 0.0
O280 O 0.89683 0.63665 0.09555 0.0
C281 C 0.90533 0.57532 0.13693 0.0
O282 O 0.90394 0.58496 0.15684 0.0
C283 C 0.84169 0.60082 0.13123 0.0
O284 O 0.85255 0.58809 0.14565 0.0
O285 O 0.8918 0.62931 0.15411 0.0
C286 C 0.84792 0.4 0.59115 0.0
O287 O 0.86645 0.41119 0.5962 0.0
O288 O 0.8645 0.3381 0.62013 0.0
Zn289 Zn 0.86301 0.37119 0.62751 0.0
O290 O 0.89402 0.38461 0.62338 0.0
C291 C 0.87092 0.36459 0.67316 0.0
O292 O 0.88907 0.35703 0.66301 0.0
O293 O 0.8415 0.38413 0.6041 0.0
C294 C 0.90128 0.4007 0.63566 0.0
O295 O 0.88788 0.40976 0.65078 0.0
C296 C 0.88259 0.32696 0.61767 0.0
O297 O 0.90219 0.33727 0.61957 0.0
O298 O 0.85508 0.37274 0.66111 0.0
C299 C 0.16573 0.62288 0.56994 0.0
O300 O 0.16897 0.64416 0.57536 0.0
O301 O 0.13539 0.6576 0.60585 0.0
Zn302 Zn 0.13687 0.62402 0.60944 0.0
O303 O 0.10517 0.61341 0.60415 0.0
C304 C 0.15427 0.63206 0.65501 0.0
O305 O 0.16395 0.64962 0.64555 0.0
O306 O 0.15503 0.61023 0.58362 0.0
C307 C 0.09473 0.59957 0.61671 0.0
O308 O 0.10498 0.59107 0.63434 0.0
C309 C 0.12266 0.66856 0.61912 0.0
O310 O 0.11126 0.65764 0.63464 0.0
O311 O 0.14452 0.61744 0.64246 0.0
C312 C 0.84012 0.88608 0.6144 0.0
O313 O 0.84784 0.88971 0.59401 0.0
O314 O 0.89062 0.84209 0.62239 0.0
Zn315 Zn 0.88718 0.87589 0.62151 0.0
O316 O 0.89229 0.88439 0.58922 0.0
C317 C 0.92717 0.87971 0.64982 0.0
O318 O 0.92296 0.85823 0.65335 0.0
O319 O 0.85416 0.88192 0.63016 0.0
C320 C 0.90854 0.87543 0.57858 0.0
O321 O 0.92247 0.86211 0.58939 0.0
C322 C 0.881 0.83065 0.60691 0.0
O323 O 0.86901 0.84116 0.59162 0.0
O324 O 0.9128 0.89128 0.6389 0.0
C325 C 0.59052 0.42544 0.13222 0.0
O326 O 0.57968 0.41735 0.11461 0.0
O327 O 0.60882 0.38566 0.09257 0.0
Zn328 Zn 0.61792 0.38535 0.12528 0.0
O329 O 0.65183 0.38816 0.12532 0.0
C330 C 0.59417 0.34231 0.12885 0.0
O331 O 0.57945 0.35239 0.11578 0.0
O332 O 0.60603 0.4136 0.1411 0.0
C333 C 0.66456 0.37108 0.1272 0.0
O334 O 0.65549 0.35101 0.12987 0.0
C335 C 0.61476 0.36897 0.08049 0.0
O336 O 0.62654 0.3527 0.08968 0.0
O337 O 0.60993 0.3541 0.13767 0.0
C338 C 0.16239 0.13648 0.63621 0.0
O339 O 0.15369 0.15218 0.62334 0.0
O340 O 0.11541 0.16653 0.64812 0.0
Zn341 Zn 0.11638 0.13341 0.64125 0.0
O342 O 0.11185 0.13092 0.60781 0.0
C343 C 0.07649 0.10488 0.64849 0.0
O344 O 0.08211 0.09638 0.62883 0.0
O345 O 0.14895 0.12394 0.64748 0.0
C346 C 0.11847 0.11432 0.59599 0.0
O347 O 0.12749 0.09678 0.60593 0.0
C348 C 0.10106 0.17908 0.63849 0.0
O349 O 0.08588 0.16987 0.6251 0.0
O350 O 0.08977 0.11903 0.65795 0.0
C351 C 0.41336 0.59349 0.14092 0.0
O352 O 0.4255 0.59878 0.12319 0.0
O353 O 0.39883 0.62973 0.09657 0.0
Zn354 Zn 0.38829 0.6337 0.12844 0.0
O355 O 0.35462 0.63196 0.12789 0.0
C356 C 0.40789 0.67813 0.12568 0.0
O357 O 0.42055 0.66806 0.11058 0.0
O358 O 0.39846 0.6073 0.14778 0.0
C359 C 0.3434 0.64532 0.11557 0.0
O360 O 0.35421 0.65974 0.10268 0.0
C361 C 0.39179 0.6141 0.08364 0.0
O362 O 0.3775 0.59901 0.09144 0.0
O363 O 0.39503 0.66611 0.138 0.0
C364 C 0.91758 0.10754 0.35782 0.0
O365 O 0.90988 0.12741 0.35194 0.0
O366 O 0.87652 0.09632 0.41706 0.0
Zn367 Zn 0.87681 0.10701 0.38506 0.0
O368 O 0.87896 0.14079 0.38774 0.0
C369 C 0.83308 0.08481 0.38038 0.0
O370 O 0.8422 0.06968 0.39363 0.0
O371 O 0.90527 0.09489 0.37008 0.0
C372 C 0.86616 0.15368 0.37649 0.0
O373 O 0.85233 0.14486 0.3615 0.0
C374 C 0.86045 0.10345 0.42928 0.0
O375 O 0.84534 0.11692 0.42042 0.0
O376 O 0.84574 0.09991 0.37179 0.0
C377 C 0.38636 0.33507 0.88182 0.0
O378 O 0.38567 0.34385 0.90214 0.0
O379 O 0.34348 0.38204 0.87039 0.0
Zn380 Zn 0.3774 0.38129 0.87184 0.0
O381 O 0.38654 0.38876 0.90358 0.0
C382 C 0.37831 0.42213 0.84532 0.0
O383 O 0.35637 0.41899 0.84615 0.0
O384 O 0.38525 0.34825 0.86489 0.0
C385 C 0.38181 0.40762 0.91258 0.0
O386 O 0.37105 0.42283 0.90071 0.0
C387 C 0.33177 0.37538 0.88704 0.0
O388 O 0.34203 0.36887 0.90551 0.0
O389 O 0.39117 0.40672 0.85291 0.0
C390 C 0.08366 0.8931 0.34438 0.0
O391 O 0.09075 0.8742 0.33524 0.0
O392 O 0.12293 0.89088 0.40538 0.0
Zn393 Zn 0.12409 0.88748 0.37177 0.0
O394 O 0.122 0.85407 0.36614 0.0
C395 C 0.16759 0.91033 0.3751 0.0
O396 O 0.15712 0.92221 0.39059 0.0
O397 O 0.09626 0.90311 0.35876 0.0
C398 C 0.13452 0.84435 0.35175 0.0
O399 O 0.14801 0.85657 0.33912 0.0
C400 C 0.13776 0.88011 0.41638 0.0
O401 O 0.15216 0.86741 0.40535 0.0
O402 O 0.15602 0.89709 0.3626 0.0
C403 C 0.61647 0.66015 0.876 0.0
O404 O 0.60886 0.65251 0.89529 0.0
O405 O 0.66152 0.60762 0.86885 0.0
Zn406 Zn 0.62819 0.613 0.87063 0.0
O407 O 0.62059 0.60967 0.9033 0.0
C408 C 0.62222 0.57358 0.84191 0.0
O409 O 0.64306 0.5785 0.83613 0.0
O410 O 0.62347 0.64603 0.86132 0.0
C411 C 0.62632 0.59213 0.91405 0.0
O412 O 0.63659 0.57571 0.9033 0.0
C413 C 0.67422 0.61941 0.88157 0.0
O414 O 0.66509 0.63463 0.89485 0.0
O415 O 0.6115 0.58741 0.85438 0.0
C416 C 0.65008 0.8268 0.86947 0.0
O417 O 0.65582 0.83537 0.84992 0.0
O418 O 0.63485 0.878 0.84487 0.0
Zn419 Zn 0.63429 0.87265 0.87834 0.0
O420 O 0.60197 0.87457 0.88776 0.0
C421 C 0.66198 0.91301 0.88337 0.0
O422 O 0.66686 0.90848 0.86225 0.0
O423 O 0.64314 0.84 0.88498 0.0
C424 C 0.5903 0.89202 0.88384 0.0
O425 O 0.59978 0.90932 0.87371 0.0
C426 C 0.62008 0.86886 0.83219 0.0
O427 O 0.60466 0.85566 0.84116 0.0
O428 O 0.65037 0.89873 0.8945 0.0
C429 C 0.58622 0.15396 0.3907 0.0
O430 O 0.59228 0.16276 0.37135 0.0
O431 O 0.61985 0.09246 0.38193 0.0
Zn432 Zn 0.62549 0.12592 0.38253 0.0
O433 O 0.62548 0.13639 0.35036 0.0
C434 C 0.66768 0.1141 0.4037 0.0
O435 O 0.65539 0.09725 0.41126 0.0
O436 O 0.59914 0.13957 0.39995 0.0
C437 C 0.64117 0.12917 0.3377 0.0
O438 O 0.65659 0.11585 0.34627 0.0
C439 C 0.61125 0.08178 0.3654 0.0
O440 O 0.60458 0.09286 0.3475 0.0
O441 O 0.65784 0.13031 0.39373 0.0
C442 C 0.36333 0.16702 0.87052 0.0
O443 O 0.36129 0.1578 0.85046 0.0
O444 O 0.38409 0.11842 0.84817 0.0
Zn445 Zn 0.38037 0.1226 0.88157 0.0
O446 O 0.41151 0.12272 0.89473 0.0
C447 C 0.34811 0.08532 0.88268 0.0
O448 O 0.34072 0.09477 0.86411 0.0
O449 O 0.36855 0.15452 0.88716 0.0
C450 C 0.4227 0.10506 0.89913 0.0
O451 O 0.41353 0.08513 0.89552 0.0
C452 C 0.38919 0.10016 0.83816 0.0
O453 O 0.39235 0.08174 0.84996 0.0
O454 O 0.36328 0.09547 0.89414 0.0
C455 C 0.41747 0.84785 0.38387 0.0
O456 O 0.41146 0.84055 0.3638 0.0
O457 O 0.38282 0.90926 0.38102 0.0
Zn458 Zn 0.37768 0.87586 0.37818 0.0
O459 O 0.37875 0.86885 0.34507 0.0
C460 C 0.33399 0.88506 0.39796 0.0
O461 O 0.34519 0.90216 0.40673 0.0
O462 O 0.40427 0.86111 0.39444 0.0
C463 C 0.36415 0.87837 0.33267 0.0
O464 O 0.34907 0.89155 0.34208 0.0
C465 C 0.3942 0.92047 0.36678 0.0
O466 O 0.40381 0.90997 0.34981 0.0
O467 O 0.34496 0.86971 0.38767 0.0
C468 C 0.65188 0.09084 0.11988 0.0
O469 O 0.65821 0.09606 0.14047 0.0
O470 O 0.59194 0.12622 0.12414 0.0
Zn471 Zn 0.6254 0.1316 0.12558 0.0
O472 O 0.63387 0.13137 0.15836 0.0
C473 C 0.61517 0.17522 0.10626 0.0
O474 O 0.5973 0.16416 0.09899 0.0
O475 O 0.63971 0.10478 0.10902 0.0
C476 C 0.62498 0.14614 0.17109 0.0
O477 O 0.61102 0.16086 0.16231 0.0
C478 C 0.5812 0.11511 0.13893 0.0
O479 O 0.59222 0.10598 0.15577 0.0
O480 O 0.63114 0.16415 0.11537 0.0
C481 C 0.33168 0.1211 0.63312 0.0
O482 O 0.34025 0.10281 0.64207 0.0
O483 O 0.38419 0.12064 0.65947 0.0
Zn484 Zn 0.37772 0.12434 0.6263 0.0
O485 O 0.3785 0.094 0.61129 0.0
C486 C 0.41436 0.15687 0.62568 0.0
O487 O 0.40632 0.16167 0.64574 0.0
O488 O 0.34513 0.13523 0.62392 0.0
C489 C 0.39669 0.08347 0.60742 0.0
O490 O 0.41608 0.09283 0.61301 0.0
C491 C 0.38689 0.10199 0.6696 0.0
O492 O 0.3858 0.083 0.65815 0.0
O493 O 0.40337 0.14321 0.61312 0.0
C494 C 0.34444 0.9257 0.11307 0.0
O495 O 0.33723 0.91995 0.13317 0.0
O496 O 0.40599 0.89065 0.11489 0.0
Zn497 Zn 0.37276 0.88637 0.11905 0.0
O498 O 0.36717 0.88844 0.15227 0.0
C499 C 0.37977 0.84287 0.09852 0.0
O500 O 0.39571 0.8541 0.08796 0.0
O501 O 0.35776 0.91247 0.10266 0.0
C502 C 0.37795 0.87469 0.16456 0.0
O503 O 0.3919 0.86042 0.15499 0.0
C504 C 0.41649 0.90805 0.12187 0.0
O505 O 0.40528 0.92412 0.13219 0.0
O506 O 0.36559 0.85381 0.11034 0.0
C507 C 0.6729 0.8573 0.62624 0.0
O508 O 0.66465 0.85173 0.64598 0.0
O509 O 0.62274 0.8731 0.65222 0.0
Zn510 Zn 0.62716 0.8737 0.61863 0.0
O511 O 0.62506 0.90603 0.6093 0.0
C512 C 0.58951 0.84251 0.61511 0.0
O513 O 0.59775 0.8355 0.63439 0.0
O514 O 0.65949 0.86444 0.61106 0.0
C515 C 0.60766 0.9177 0.61355 0.0
O516 O 0.59042 0.90815 0.62373 0.0
C517 C 0.63222 0.88762 0.66495 0.0
O518 O 0.6452 0.90321 0.65597 0.0
O519 O 0.60062 0.85714 0.60396 0.0
C520 C 0.87777 0.63298 0.83346 0.0
O521 O 0.85764 0.6356 0.84227 0.0
O522 O 0.85437 0.61516 0.88366 0.0
Zn523 Zn 0.88787 0.61562 0.87805 0.0
O524 O 0.89792 0.58343 0.87815 0.0
C525 C 0.89219 0.6439 0.91781 0.0
O526 O 0.87171 0.64989 0.91191 0.0
O527 O 0.89405 0.62706 0.84618 0.0
C528 C 0.89561 0.5714 0.89565 0.0
O529 O 0.88726 0.58056 0.91401 0.0
C530 C 0.84186 0.59992 0.87504 0.0
O531 O 0.85104 0.58412 0.86251 0.0
O532 O 0.90339 0.63118 0.90461 0.0
C533 C 0.87061 0.37052 0.17548 0.0
O534 O 0.86014 0.38764 0.16624 0.0
O535 O 0.84481 0.36724 0.12423 0.0
Zn536 Zn 0.87819 0.36775 0.13017 0.0
O537 O 0.88917 0.39999 0.13062 0.0
C538 C 0.89123 0.36062 0.08582 0.0
O539 O 0.88219 0.38081 0.08574 0.0
O540 O 0.88143 0.35703 0.16263 0.0
C541 C 0.90717 0.40865 0.12278 0.0
O542 O 0.92164 0.39609 0.11172 0.0
C543 C 0.83296 0.38446 0.11979 0.0
O544 O 0.84277 0.4043 0.11797 0.0
O545 O 0.89247 0.34996 0.10438 0.0
C546 C 0.12369 0.42069 0.59459 0.0
O547 O 0.10752 0.43308 0.60323 0.0
O548 O 0.08114 0.40302 0.6309 0.0
Zn549 Zn 0.11333 0.39287 0.63335 0.0
O550 O 0.11154 0.35914 0.63126 0.0
C551 C 0.11577 0.41508 0.67748 0.0
O552 O 0.10255 0.42999 0.66795 0.0
O553 O 0.13076 0.40383 0.60575 0.0
C554 C 0.12489 0.34653 0.64218 0.0
O555 O 0.141 0.35576 0.65441 0.0
C556 C 0.06751 0.39737 0.6464 0.0
O557 O 0.07492 0.38554 0.66352 0.0
O558 O 0.12474 0.39991 0.6652 0.0
C559 C 0.12303 0.66808 0.07068 0.0
O560 O 0.14321 0.6757 0.07599 0.0
O561 O 0.12742 0.6082 0.10815 0.0
Zn562 Zn 0.12958 0.64188 0.1115 0.0
O563 O 0.16264 0.64948 0.11019 0.0
C564 C 0.10877 0.63419 0.15483 0.0
O565 O 0.0993 0.61742 0.14371 0.0
O566 O 0.1128 0.65521 0.08453 0.0
C567 C 0.17472 0.64112 0.12573 0.0
O568 O 0.16491 0.62905 0.14149 0.0
C569 C 0.14234 0.5963 0.09849 0.0
O570 O 0.15975 0.60619 0.08896 0.0
O571 O 0.11981 0.64901 0.14383 0.0
C572 C 0.89115 0.62094 0.66497 0.0
O573 O 0.9092 0.63044 0.65624 0.0
O574 O 0.88729 0.65145 0.61558 0.0
Zn575 Zn 0.88641 0.61775 0.61917 0.0
O576 O 0.91823 0.6066 0.61727 0.0
C577 C 0.85529 0.61344 0.58076 0.0
O578 O 0.8477 0.63309 0.58764 0.0
O579 O 0.87634 0.61259 0.65162 0.0
C580 C 0.92874 0.60341 0.59892 0.0
O581 O 0.91847 0.60715 0.57967 0.0
C582 C 0.89135 0.66236 0.59766 0.0
O583 O 0.89508 0.65141 0.57875 0.0
O584 O 0.86943 0.60302 0.59302 0.0
C585 C 0.09045 0.38611 0.92616 0.0
O586 O 0.08471 0.40598 0.91836 0.0
O587 O 0.12022 0.42013 0.88798 0.0
Zn588 Zn 0.1195 0.38619 0.88658 0.0
O589 O 0.15206 0.37684 0.88901 0.0
C590 C 0.09598 0.39216 0.84432 0.0
O591 O 0.08633 0.4085 0.85574 0.0
O592 O 0.10335 0.3737 0.91432 0.0
C593 C 0.16363 0.37035 0.87219 0.0
O594 O 0.15386 0.36823 0.85241 0.0
C595 C 0.13239 0.42973 0.87319 0.0
O596 O 0.14364 0.41719 0.85883 0.0
O597 O 0.10825 0.37814 0.8549 0.0
C598 C 0.14684 0.60532 0.40526 0.0
O599 O 0.12767 0.59536 0.40002 0.0
O600 O 0.10438 0.62246 0.36749 0.0
Zn601 Zn 0.13718 0.63086 0.36454 0.0
O602 O 0.13777 0.66466 0.36636 0.0
C603 C 0.13563 0.60919 0.32037 0.0
O604 O 0.12143 0.59548 0.33047 0.0
O605 O 0.15533 0.61945 0.39148 0.0
C606 C 0.15147 0.67632 0.35471 0.0
O607 O 0.16646 0.66602 0.3421 0.0
C608 C 0.09147 0.63173 0.35319 0.0
O609 O 0.10029 0.64559 0.33833 0.0
O610 O 0.14683 0.62326 0.33229 0.0
C611 C 0.86235 0.35887 0.34441 0.0
O612 O 0.87444 0.34302 0.35394 0.0
O613 O 0.85017 0.33214 0.39361 0.0
Zn614 Zn 0.85803 0.36489 0.38991 0.0
O615 O 0.89165 0.36692 0.39256 0.0
C616 C 0.82958 0.37514 0.42829 0.0
O617 O 0.82049 0.35558 0.42289 0.0
O618 O 0.85161 0.37255 0.3571 0.0
C619 C 0.90292 0.38413 0.39878 0.0
O620 O 0.89232 0.40249 0.40514 0.0
C621 C 0.8616 0.31972 0.40668 0.0
O622 O 0.87723 0.32897 0.4195 0.0
O623 O 0.8444 0.38365 0.41528 0.0
H624 H 0.08331 0.31211 0.43083 0.0
H625 H 0.13126 0.2021 0.369 0.0
H626 H 0.13318 0.31402 0.37786 0.0
H627 H 0.07694 0.20032 0.41739 0.0
H628 H 0.13277 0.24309 0.37272 0.0
H629 H 0.08169 0.27103 0.42724 0.0
C630 C 0.09402 0.30389 0.41853 0.0
C631 C 0.1084 0.31653 0.40462 0.0
C632 C 0.12046 0.23375 0.38248 0.0
C633 C 0.10653 0.26955 0.40034 0.0
C634 C 0.11956 0.21033 0.38033 0.0
C635 C 0.10394 0.19775 0.39291 0.0
C636 C 0.1057 0.24471 0.39737 0.0
C637 C 0.08922 0.20935 0.40734 0.0
C638 C 0.09301 0.28044 0.41643 0.0
C639 C 0.12183 0.30497 0.38894 0.0
N640 N 0.09051 0.23218 0.40924 0.0
N641 N 0.12055 0.28215 0.38722 0.0
H642 H 0.30864 0.59742 0.91906 0.0
H643 H 0.20329 0.65727 0.8602 0.0
H644 H 0.31364 0.64044 0.86071 0.0
H645 H 0.19706 0.61424 0.91841 0.0
H646 H 0.24406 0.65236 0.86128 0.0
H647 H 0.2679 0.60396 0.9199 0.0
C648 C 0.30118 0.60818 0.9064 0.0
C649 C 0.31455 0.61835 0.88976 0.0
C650 C 0.23381 0.64405 0.87389 0.0
C651 C 0.26807 0.626 0.8907 0.0
C652 C 0.21051 0.6469 0.87331 0.0
C653 C 0.19674 0.63606 0.88918 0.0
C654 C 0.24346 0.63022 0.89041 0.0
C655 C 0.20705 0.62288 0.90582 0.0
C656 C 0.27794 0.61196 0.90693 0.0
C657 C 0.304 0.6322 0.87383 0.0
N658 N 0.22982 0.62022 0.90594 0.0
N659 N 0.28141 0.6356 0.8747 0.0
H660 H 0.86911 0.80316 0.34876 0.0
H661 H 0.92927 0.69394 0.39917 0.0
H662 H 0.93429 0.80503 0.38139 0.0
H663 H 0.86667 0.69196 0.36184 0.0
H664 H 0.9316 0.73461 0.39278 0.0
H665 H 0.86844 0.76223 0.3527 0.0
C666 C 0.88339 0.79494 0.35658 0.0
C667 C 0.90174 0.80755 0.36486 0.0
C668 C 0.91737 0.72526 0.38598 0.0
C669 C 0.90097 0.76067 0.36964 0.0
C670 C 0.91597 0.70206 0.38971 0.0
C671 C 0.89771 0.68954 0.38109 0.0
C672 C 0.90034 0.73601 0.3736 0.0
C673 C 0.88103 0.70093 0.36885 0.0
C674 C 0.88297 0.77155 0.35887 0.0
C675 C 0.91978 0.79598 0.37478 0.0
N676 N 0.88274 0.72351 0.36551 0.0
N677 N 0.91887 0.77319 0.37705 0.0
H678 H 0.80797 0.34448 0.9088 0.0
H679 H 0.6905 0.39515 0.867 0.0
H680 H 0.80214 0.40414 0.86775 0.0
H681 H 0.69544 0.33869 0.91245 0.0
H682 H 0.73145 0.39912 0.86788 0.0
H683 H 0.76683 0.34252 0.91123 0.0
C684 C 0.79805 0.35723 0.90039 0.0
C685 C 0.80849 0.37445 0.88795 0.0
C686 C 0.7236 0.38591 0.87775 0.0
C687 C 0.76146 0.37224 0.8906 0.0
C688 C 0.7002 0.38361 0.87723 0.0
C689 C 0.68954 0.36649 0.8896 0.0
C690 C 0.7365 0.37092 0.89063 0.0
C691 C 0.70297 0.3521 0.90262 0.0
C692 C 0.77457 0.3561 0.90179 0.0
C693 C 0.79481 0.39054 0.87746 0.0
N694 N 0.72578 0.35457 0.90271 0.0
N695 N 0.772 0.38897 0.87893 0.0
H696 H 0.13397 0.69531 0.58346 0.0
H697 H 0.12214 0.81053 0.65051 0.0
H698 H 0.10846 0.69802 0.6515 0.0
H699 H 0.1159 0.80707 0.5781 0.0
H700 H 0.12173 0.76926 0.65186 0.0
H701 H 0.13214 0.73655 0.58172 0.0
C702 C 0.12799 0.7046 0.59801 0.0
C703 C 0.12134 0.69331 0.61765 0.0
C704 C 0.12033 0.77758 0.63571 0.0
C705 C 0.11944 0.74027 0.61584 0.0
C706 C 0.12064 0.80107 0.63491 0.0
C707 C 0.11903 0.81217 0.61416 0.0
C708 C 0.11885 0.76515 0.61559 0.0
C709 C 0.11707 0.79914 0.59446 0.0
C710 C 0.12685 0.72806 0.59697 0.0
C711 C 0.11365 0.7061 0.63601 0.0
N712 N 0.11725 0.77626 0.59563 0.0
N713 N 0.11309 0.72896 0.63473 0.0
H714 H 0.69939 0.57458 0.15391 0.0
H715 H 0.81409 0.62838 0.1069 0.0
H716 H 0.70282 0.63648 0.11593 0.0
H717 H 0.81251 0.57342 0.15441 0.0
H718 H 0.77298 0.62955 0.10772 0.0
H719 H 0.74059 0.57212 0.15237 0.0
C720 C 0.70879 0.58767 0.14529 0.0
C721 C 0.69764 0.60578 0.13506 0.0
C722 C 0.7816 0.6172 0.11795 0.0
C723 C 0.74469 0.60298 0.13311 0.0
C724 C 0.8051 0.61646 0.11742 0.0
C725 C 0.81677 0.60081 0.13066 0.0
C726 C 0.76963 0.60212 0.13173 0.0
C727 C 0.8042 0.5858 0.14398 0.0
C728 C 0.73229 0.58625 0.14442 0.0
C729 C 0.71068 0.62224 0.12411 0.0
N730 N 0.78129 0.58684 0.1442 0.0
N731 N 0.73349 0.62041 0.12338 0.0
H732 H 0.8367 0.18973 0.5974 0.0
H733 H 0.91664 0.29621 0.62217 0.0
H734 H 0.90043 0.18502 0.63239 0.0
H735 H 0.84578 0.3015 0.60605 0.0
H736 H 0.91332 0.25507 0.61981 0.0
H737 H 0.84221 0.23051 0.59441 0.0
C738 C 0.85192 0.19724 0.60433 0.0
C739 C 0.86806 0.184 0.61531 0.0
C740 C 0.89856 0.26528 0.61668 0.0
C741 C 0.87448 0.23057 0.61186 0.0
C742 C 0.90045 0.28874 0.61792 0.0
C743 C 0.88141 0.30227 0.61448 0.0
C744 C 0.87754 0.25535 0.61173 0.0
C745 C 0.86085 0.2917 0.60903 0.0
C746 C 0.85501 0.22051 0.60266 0.0
C747 C 0.88747 0.19464 0.62394 0.0
N748 N 0.85945 0.26886 0.60787 0.0
N749 N 0.89013 0.21733 0.62206 0.0
H750 H 0.30173 0.36133 0.16017 0.0
H751 H 0.19758 0.39795 0.08265 0.0
H752 H 0.30851 0.40302 0.10106 0.0
H753 H 0.19043 0.36107 0.14483 0.0
H754 H 0.23853 0.39766 0.08762 0.0
H755 H 0.26106 0.35939 0.15374 0.0
C756 C 0.29467 0.37015 0.14589 0.0
C757 C 0.30855 0.3824 0.13117 0.0
C758 C 0.22799 0.38953 0.10011 0.0
C759 C 0.262 0.38011 0.1236 0.0
C760 C 0.20461 0.38958 0.09722 0.0
C761 C 0.19054 0.37961 0.1134 0.0
C762 C 0.23736 0.37941 0.1193 0.0
C763 C 0.20061 0.36905 0.13198 0.0
C764 C 0.27144 0.36899 0.14219 0.0
C765 C 0.29845 0.39344 0.11289 0.0
N766 N 0.22339 0.36932 0.13446 0.0
N767 N 0.27579 0.392 0.10961 0.0
H768 H 0.39571 0.08158 0.20012 0.0
H769 H 0.36698 0.15181 0.31176 0.0
H770 H 0.34955 0.13768 0.20184 0.0
H771 H 0.4194 0.10159 0.30831 0.0
H772 H 0.35926 0.14579 0.2718 0.0
H773 H 0.40265 0.08679 0.24041 0.0
C774 C 0.3868 0.09479 0.20902 0.0
C775 C 0.37207 0.10926 0.19758 0.0
C776 C 0.37254 0.13617 0.27975 0.0
C777 C 0.38017 0.11549 0.24358 0.0
C778 C 0.37702 0.13966 0.30255 0.0
C779 C 0.39387 0.12719 0.31339 0.0
C780 C 0.3849 0.11999 0.26769 0.0
C781 C 0.40631 0.11164 0.30062 0.0
C782 C 0.39091 0.09787 0.23198 0.0
C783 C 0.36109 0.12617 0.20996 0.0
N784 N 0.40149 0.10839 0.27845 0.0
N785 N 0.36543 0.12887 0.23227 0.0
H786 H 0.3566 0.91155 0.69341 0.0
H787 H 0.41617 0.85252 0.79877 0.0
H788 H 0.40821 0.86074 0.6873 0.0
H789 H 0.36266 0.9013 0.80505 0.0
H790 H 0.41419 0.8561 0.75788 0.0
H791 H 0.35936 0.90892 0.73437 0.0
C792 C 0.36857 0.89989 0.70067 0.0
C793 C 0.38218 0.88633 0.68691 0.0
C794 C 0.40288 0.86603 0.76819 0.0
C795 C 0.38538 0.8832 0.73377 0.0
C796 C 0.40401 0.864 0.79156 0.0
C797 C 0.38955 0.87662 0.80535 0.0
C798 C 0.38719 0.88081 0.75853 0.0
C799 C 0.37412 0.89123 0.79506 0.0
C800 C 0.37011 0.89838 0.72407 0.0
C801 C 0.39737 0.87151 0.69725 0.0
N802 N 0.37335 0.89292 0.77226 0.0
N803 N 0.39853 0.87032 0.72006 0.0
H804 H 0.62158 0.93141 0.19948 0.0
H805 H 0.62922 0.84665 0.30277 0.0
H806 H 0.63561 0.86051 0.19066 0.0
H807 H 0.58983 0.90767 0.30492 0.0
H808 H 0.63586 0.85279 0.26254 0.0
H809 H 0.61476 0.92468 0.23959 0.0
C810 C 0.62344 0.91449 0.20602 0.0
C811 C 0.62911 0.89648 0.19176 0.0
C812 C 0.62562 0.86471 0.27182 0.0
C813 C 0.62133 0.8887 0.23743 0.0
C814 C 0.62181 0.86121 0.29472 0.0
C815 C 0.60889 0.87663 0.30713 0.0
C816 C 0.61681 0.88398 0.26141 0.0
C817 C 0.59973 0.89527 0.29592 0.0
C818 C 0.61936 0.91064 0.22883 0.0
C819 C 0.63116 0.87485 0.20108 0.0
N820 N 0.60405 0.89855 0.27372 0.0
N821 N 0.62733 0.87157 0.22337 0.0
H822 H 0.59004 0.1475 0.81213 0.0
H823 H 0.64483 0.08816 0.70402 0.0
H824 H 0.63995 0.09479 0.81558 0.0
H825 H 0.59665 0.1424 0.70001 0.0
H826 H 0.64188 0.08925 0.74499 0.0
H827 H 0.59078 0.14473 0.77104 0.0
C828 C 0.60108 0.13528 0.80426 0.0
C829 C 0.61501 0.12141 0.8173 0.0
C830 C 0.63191 0.10089 0.73516 0.0
C831 C 0.61598 0.1182 0.77034 0.0
C832 C 0.63359 0.10027 0.71175 0.0
C833 C 0.62102 0.11525 0.69859 0.0
C834 C 0.61756 0.11661 0.7455 0.0
C835 C 0.60669 0.13056 0.70952 0.0
C836 C 0.60151 0.13373 0.7808 0.0
C837 C 0.62897 0.10588 0.8062 0.0
N838 N 0.60539 0.13088 0.73236 0.0
N839 N 0.62913 0.10474 0.78337 0.0
H840 H 0.89758 0.80233 0.63922 0.0
H841 H 0.88907 0.69166 0.56211 0.0
H842 H 0.87082 0.80279 0.57153 0.0
H843 H 0.89355 0.68971 0.63468 0.0
H844 H 0.88767 0.73295 0.56403 0.0
H845 H 0.90147 0.7613 0.63661 0.0
C846 C 0.89257 0.79381 0.62381 0.0
C847 C 0.88373 0.80595 0.60562 0.0
C848 C 0.88899 0.72343 0.5795 0.0
C849 C 0.88831 0.75916 0.60246 0.0
C850 C 0.88987 0.69991 0.57841 0.0
C851 C 0.8913 0.68726 0.59827 0.0
C852 C 0.88985 0.73432 0.60056 0.0
C853 C 0.89227 0.6988 0.61896 0.0
C854 C 0.89474 0.77042 0.62235 0.0
C855 C 0.87754 0.79407 0.58603 0.0
N856 N 0.89157 0.72168 0.61956 0.0
N857 N 0.88 0.77132 0.58494 0.0
H858 H 0.8077 0.34591 0.12266 0.0
H859 H 0.68917 0.40989 0.12096 0.0
H860 H 0.80165 0.41805 0.11498 0.0
H861 H 0.69634 0.33797 0.12957 0.0
H862 H 0.73018 0.41333 0.1177 0.0
H863 H 0.76673 0.34274 0.12373 0.0
C864 C 0.79775 0.3611 0.12107 0.0
C865 C 0.80813 0.3823 0.11882 0.0
C866 C 0.72276 0.3968 0.12029 0.0
C867 C 0.76111 0.37879 0.12016 0.0
C868 C 0.69935 0.39483 0.1222 0.0
C869 C 0.68931 0.3736 0.12558 0.0
C870 C 0.73619 0.37742 0.12178 0.0
C871 C 0.70333 0.35467 0.127 0.0
C872 C 0.77432 0.35927 0.12173 0.0
C873 C 0.79435 0.40137 0.11677 0.0
N874 N 0.72604 0.35704 0.1251 0.0
N875 N 0.77152 0.39917 0.11759 0.0
H876 H 0.07476 0.21113 0.61846 0.0
H877 H 0.14941 0.31458 0.66449 0.0
H878 H 0.13198 0.20349 0.66287 0.0
H879 H 0.09251 0.32219 0.61966 0.0
H880 H 0.14279 0.27387 0.66475 0.0
H881 H 0.08016 0.252 0.61977 0.0
C882 C 0.08836 0.21805 0.62862 0.0
C883 C 0.10298 0.20386 0.64052 0.0
C884 C 0.13176 0.28445 0.65486 0.0
C885 C 0.10936 0.25061 0.64196 0.0
C886 C 0.13556 0.3077 0.65465 0.0
C887 C 0.12153 0.32182 0.642 0.0
C888 C 0.11378 0.27524 0.64232 0.0
C889 C 0.1038 0.31195 0.62963 0.0
C890 C 0.09148 0.24139 0.62931 0.0
C891 C 0.12032 0.21377 0.6534 0.0
N892 N 0.10043 0.28928 0.6301 0.0
N893 N 0.12308 0.23653 0.6537 0.0
H894 H 0.2051 0.62255 0.1547 0.0
H895 H 0.31381 0.67015 0.09035 0.0
H896 H 0.2009 0.66406 0.09525 0.0
H897 H 0.31628 0.62045 0.14326 0.0
H898 H 0.2726 0.67024 0.09316 0.0
H899 H 0.24612 0.6241 0.15233 0.0
C900 C 0.2128 0.6321 0.14119 0.0
C901 C 0.19955 0.64313 0.1251 0.0
C902 C 0.28219 0.65931 0.10411 0.0
C903 C 0.24658 0.64489 0.12224 0.0
C904 C 0.3057 0.65924 0.10252 0.0
C905 C 0.3185 0.64525 0.11657 0.0
C906 C 0.27146 0.64539 0.11996 0.0
C907 C 0.30711 0.63147 0.13205 0.0
C908 C 0.23625 0.63291 0.13981 0.0
C909 C 0.21048 0.65526 0.10799 0.0
N910 N 0.28426 0.63193 0.13335 0.0
N911 N 0.2334 0.65579 0.10698 0.0
H912 H 0.89163 0.1773 0.40718 0.0
H913 H 0.83256 0.29521 0.38022 0.0
H914 H 0.83897 0.18558 0.35758 0.0
H915 H 0.88676 0.28776 0.4283 0.0
H916 H 0.83299 0.25458 0.37363 0.0
H917 H 0.88902 0.2174 0.4164 0.0
C918 C 0.87957 0.18756 0.39816 0.0
C919 C 0.86553 0.17808 0.38153 0.0
C920 C 0.8447 0.2618 0.38573 0.0
C921 C 0.86235 0.22395 0.39214 0.0
C922 C 0.8444 0.285 0.38958 0.0
C923 C 0.85976 0.29493 0.40473 0.0
C924 C 0.8605 0.24839 0.39706 0.0
C925 C 0.87467 0.28084 0.4164 0.0
C926 C 0.87804 0.21044 0.4035 0.0
C927 C 0.85018 0.19217 0.37046 0.0
N928 N 0.87478 0.25829 0.41221 0.0
N929 N 0.849 0.21439 0.37597 0.0
H930 H 0.19456 0.36565 0.83835 0.0
H931 H 0.30142 0.36705 0.92071 0.0
H932 H 0.18905 0.37053 0.91074 0.0
H933 H 0.30564 0.38016 0.84933 0.0
H934 H 0.26041 0.36383 0.91722 0.0
H935 H 0.23563 0.36585 0.84197 0.0
C936 C 0.20197 0.36653 0.85502 0.0
C937 C 0.18836 0.3682 0.87428 0.0
C938 C 0.27033 0.36743 0.90234 0.0
C939 C 0.23532 0.36853 0.8785 0.0
C940 C 0.29373 0.36927 0.9043 0.0
C941 C 0.30696 0.37395 0.88528 0.0
C942 C 0.26012 0.37006 0.88117 0.0
C943 C 0.29609 0.37664 0.86445 0.0
C944 C 0.22542 0.36678 0.85706 0.0
C945 C 0.19891 0.36934 0.89544 0.0
N946 N 0.27329 0.3746 0.86294 0.0
N947 N 0.22178 0.36953 0.89699 0.0
H948 H 0.10929 0.81409 0.37578 0.0
H949 H 0.17623 0.70639 0.32986 0.0
H950 H 0.16227 0.81794 0.32604 0.0
H951 H 0.12188 0.70276 0.37814 0.0
H952 H 0.1714 0.74726 0.32813 0.0
H953 H 0.11326 0.77316 0.3763 0.0
C954 C 0.12166 0.80632 0.36485 0.0
C955 C 0.13552 0.81947 0.35088 0.0
C956 C 0.16055 0.73752 0.33911 0.0
C957 C 0.14028 0.77259 0.35154 0.0
C958 C 0.16334 0.71419 0.34017 0.0
C959 C 0.14945 0.70114 0.35419 0.0
C960 C 0.14375 0.74787 0.35218 0.0
C961 C 0.13299 0.71215 0.36711 0.0
C962 C 0.12396 0.78293 0.3652 0.0
C963 C 0.15125 0.80847 0.33708 0.0
N964 N 0.1306 0.73487 0.36578 0.0
N965 N 0.15327 0.78566 0.33783 0.0
H966 H 0.80982 0.57251 0.85573 0.0
H967 H 0.70612 0.6427 0.90569 0.0
H968 H 0.81746 0.63035 0.89964 0.0
H969 H 0.69848 0.58824 0.85766 0.0
H970 H 0.74687 0.63695 0.90539 0.0
H971 H 0.76887 0.57639 0.85814 0.0
C972 C 0.8029 0.58595 0.86598 0.0
C973 C 0.81709 0.60119 0.87742 0.0
C974 C 0.73629 0.62624 0.89492 0.0
C975 C 0.77025 0.60577 0.88019 0.0
C976 C 0.71301 0.62951 0.89509 0.0
C977 C 0.69888 0.61598 0.88161 0.0
C978 C 0.74553 0.60928 0.88122 0.0
C979 C 0.70875 0.59912 0.86825 0.0
C980 C 0.77951 0.58819 0.8673 0.0
C981 C 0.80717 0.61827 0.89046 0.0
N982 N 0.73148 0.59627 0.86837 0.0
N983 N 0.78436 0.62013 0.89143 0.0
H984 H 0.59346 0.84907 0.7999 0.0
H985 H 0.65335 0.91308 0.69741 0.0
H986 H 0.64817 0.8968 0.80842 0.0
H987 H 0.60505 0.85888 0.68877 0.0
H988 H 0.64961 0.90947 0.73823 0.0
H989 H 0.59544 0.85455 0.7592 0.0
C990 C 0.60586 0.86075 0.79323 0.0
C991 C 0.62073 0.87243 0.80759 0.0
C992 C 0.6398 0.8984 0.7274 0.0
C993 C 0.62308 0.8788 0.761 0.0
C994 C 0.6419 0.90048 0.70408 0.0
C995 C 0.62956 0.8862 0.68965 0.0
C996 C 0.6252 0.88199 0.73634 0.0
C997 C 0.61496 0.87019 0.69926 0.0
C998 C 0.607 0.86385 0.76998 0.0
C999 C 0.63643 0.88737 0.79798 0.0
N1000 N 0.61321 0.8685 0.722 0.0
N1001 N 0.6372 0.89011 0.77528 0.0
H1002 H 0.60516 0.17232 0.20347 0.0
H1003 H 0.66948 0.11251 0.30543 0.0
H1004 H 0.65415 0.11936 0.1946 0.0
H1005 H 0.61232 0.15652 0.31438 0.0
H1006 H 0.66727 0.11844 0.26482 0.0
H1007 H 0.61074 0.17022 0.24419 0.0
C1008 C 0.61719 0.16034 0.21007 0.0
C1009 C 0.62911 0.14589 0.19562 0.0
C1010 C 0.65527 0.12687 0.27568 0.0
C1011 C 0.63556 0.14343 0.24219 0.0
C1012 C 0.65655 0.12355 0.29888 0.0
C1013 C 0.64096 0.13392 0.31331 0.0
C1014 C 0.63833 0.14073 0.26683 0.0
C1015 C 0.62461 0.14809 0.30386 0.0
C1016 C 0.62032 0.15913 0.23332 0.0
C1017 C 0.64451 0.13073 0.20512 0.0
N1018 N 0.62367 0.15102 0.28119 0.0
N1019 N 0.64724 0.12986 0.22782 0.0
H1020 H 0.38928 0.13816 0.69821 0.0
H1021 H 0.39535 0.06363 0.81022 0.0
H1022 H 0.39092 0.06532 0.69736 0.0
H1023 H 0.38695 0.13596 0.80955 0.0
H1024 H 0.39686 0.06378 0.76897 0.0
H1025 H 0.39174 0.13754 0.73916 0.0
C1026 C 0.39025 0.12201 0.70663 0.0
C1027 C 0.38973 0.10174 0.69433 0.0
C1028 C 0.39475 0.0796 0.77789 0.0
C1029 C 0.3925 0.10092 0.74133 0.0
C1030 C 0.39391 0.07953 0.80142 0.0
C1031 C 0.39091 0.0998 0.81334 0.0
C1032 C 0.39265 0.10009 0.76627 0.0
C1033 C 0.38916 0.11991 0.80108 0.0
C1034 C 0.39163 0.12167 0.73004 0.0
C1035 C 0.39116 0.08134 0.70617 0.0
N1036 N 0.39002 0.11952 0.77826 0.0
N1037 N 0.39239 0.08144 0.72905 0.0
H1038 H 0.34911 0.90048 0.18973 0.0
H1039 H 0.39294 0.85243 0.3076 0.0
H1040 H 0.39986 0.84883 0.19561 0.0
H1041 H 0.33784 0.89938 0.30135 0.0
H1042 H 0.3956 0.85069 0.26656 0.0
H1043 H 0.34473 0.90033 0.23064 0.0
C1044 C 0.35932 0.8891 0.19962 0.0
C1045 C 0.37492 0.87469 0.18924 0.0
C1046 C 0.38286 0.86129 0.27417 0.0
C1047 C 0.37 0.87443 0.23607 0.0
C1048 C 0.38133 0.86229 0.2976 0.0
C1049 C 0.36519 0.87613 0.30791 0.0
C1050 C 0.36823 0.87431 0.26096 0.0
C1051 C 0.35057 0.88851 0.29412 0.0
C1052 C 0.35678 0.88898 0.22298 0.0
C1053 C 0.38766 0.86025 0.20289 0.0
N1054 N 0.35251 0.88739 0.27135 0.0
N1055 N 0.38496 0.86054 0.2256 0.0
H1056 H 0.12293 0.08027 0.56484 0.0
H1057 H 0.13971 0.16374 0.46243 0.0
H1058 H 0.11352 0.15224 0.57079 0.0
H1059 H 0.1153 0.09577 0.45167 0.0
H1060 H 0.13545 0.15856 0.50299 0.0
H1061 H 0.12479 0.08432 0.5237 0.0
C1062 C 0.12114 0.09686 0.5575 0.0
C1063 C 0.11809 0.11595 0.57121 0.0
C1064 C 0.13098 0.14481 0.49174 0.0
C1065 C 0.12058 0.12068 0.52452 0.0
C1066 C 0.13353 0.14769 0.46862 0.0
C1067 C 0.12784 0.13015 0.45372 0.0
C1068 C 0.12308 0.1241 0.50004 0.0
C1069 C 0.11979 0.10973 0.46264 0.0
C1070 C 0.12214 0.09913 0.5341 0.0
C1071 C 0.11582 0.13706 0.56086 0.0
N1072 N 0.11781 0.10717 0.48532 0.0
N1073 N 0.11736 0.13889 0.53815 0.0
H1074 H 0.39192 0.59401 0.93983 0.0
H1075 H 0.41905 0.64439 0.06199 0.0
H1076 H 0.42446 0.65846 0.95124 0.0
H1077 H 0.37887 0.58441 0.05042 0.0
H1078 H 0.4263 0.64671 0.02164 0.0
H1079 H 0.39229 0.58726 0.98032 0.0
C1080 C 0.39936 0.60667 0.95082 0.0
C1081 C 0.40794 0.62698 0.94214 0.0
C1082 C 0.41605 0.63294 0.02793 0.0
C1083 C 0.4083 0.61934 0.98856 0.0
C1084 C 0.4119 0.63157 0.05099 0.0
C1085 C 0.3981 0.6143 0.05957 0.0
C1086 C 0.40633 0.61694 0.01331 0.0
C1087 C 0.38944 0.59811 0.04452 0.0
C1088 C 0.39952 0.60279 0.97396 0.0
C1089 C 0.4175 0.64265 0.9572 0.0
N1090 N 0.39357 0.59993 0.02209 0.0
N1091 N 0.41725 0.63858 0.97971 0.0
H1092 H 0.8914 0.83016 0.44372 0.0
H1093 H 0.88981 0.90743 0.55147 0.0
H1094 H 0.88801 0.90261 0.43763 0.0
H1095 H 0.92759 0.84539 0.54948 0.0
H1096 H 0.88608 0.90576 0.51035 0.0
H1097 H 0.90127 0.83464 0.48354 0.0
C1098 C 0.89271 0.847 0.4508 0.0
C1099 C 0.8888 0.86605 0.43749 0.0
C1100 C 0.89547 0.89273 0.51894 0.0
C1101 C 0.89991 0.87125 0.48285 0.0
C1102 C 0.89758 0.89365 0.54233 0.0
C1103 C 0.90897 0.87649 0.55382 0.0
C1104 C 0.90433 0.87425 0.50713 0.0
C1105 C 0.91873 0.859 0.54125 0.0
C1106 C 0.89851 0.84954 0.47342 0.0
C1107 C 0.89092 0.88751 0.44738 0.0
N1108 N 0.91586 0.85812 0.51857 0.0
N1109 N 0.89607 0.88955 0.46962 0.0
H1110 H 0.59248 0.32282 0.94452 0.0
H1111 H 0.60004 0.40295 0.05303 0.0
H1112 H 0.60001 0.3952 0.94029 0.0
H1113 H 0.61504 0.33175 0.05347 0.0
H1114 H 0.59185 0.40024 0.01258 0.0
H1115 H 0.592 0.3259 0.98554 0.0
C1116 C 0.5937 0.3394 0.95219 0.0
C1117 C 0.59659 0.35876 0.93898 0.0
C1118 C 0.5968 0.38523 0.02162 0.0
C1119 C 0.59612 0.36236 0.98588 0.0
C1120 C 0.60144 0.38674 0.04466 0.0
C1121 C 0.60848 0.36759 0.0565 0.0
C1122 C 0.59895 0.36437 0.01054 0.0
C1123 C 0.60995 0.34699 0.0449 0.0
C1124 C 0.59354 0.34112 0.97561 0.0
C1125 C 0.59801 0.37981 0.94986 0.0
N1126 N 0.60527 0.34593 0.02254 0.0
N1127 N 0.59792 0.38105 0.97273 0.0
H1128 H 0.1813 0.87132 0.55458 0.0
H1129 H 0.10928 0.90257 0.44506 0.0
H1130 H 0.11576 0.90267 0.55776 0.0
H1131 H 0.17041 0.86325 0.4439 0.0
H1132 H 0.1128 0.90602 0.48604 0.0
H1133 H 0.17924 0.87197 0.51361 0.0
C1134 C 0.16653 0.8785 0.54666 0.0
C1135 C 0.1486 0.8868 0.55962 0.0
C1136 C 0.12544 0.89667 0.47678 0.0
C1137 C 0.14607 0.88747 0.51264 0.0
C1138 C 0.12344 0.89468 0.45341 0.0
C1139 C 0.13951 0.88249 0.44108 0.0
C1140 C 0.14369 0.88649 0.48782 0.0
C1141 C 0.15754 0.87268 0.45274 0.0
C1142 C 0.16534 0.8788 0.52324 0.0
C1143 C 0.12993 0.89601 0.54841 0.0
N1144 N 0.15913 0.87489 0.47544 0.0
N1145 N 0.12909 0.89598 0.52553 0.0
H1146 H 0.64009 0.55917 0.94321 0.0
H1147 H 0.60741 0.63141 0.0523 0.0
H1148 H 0.60598 0.62334 0.94113 0.0
H1149 H 0.6421 0.56761 0.05537 0.0
H1150 H 0.6038 0.62689 0.01164 0.0
H1151 H 0.63799 0.56008 0.98435 0.0
C1152 C 0.63198 0.57335 0.95138 0.0
C1153 C 0.62337 0.5913 0.93873 0.0
C1154 C 0.6121 0.61379 0.02119 0.0
C1155 C 0.621 0.59248 0.98573 0.0
C1156 C 0.61419 0.61638 0.04443 0.0
C1157 C 0.62527 0.59995 0.05722 0.0
C1158 C 0.62124 0.59469 0.01059 0.0
C1159 C 0.63354 0.58075 0.04613 0.0
C1160 C 0.63081 0.57386 0.97487 0.0
C1161 C 0.61299 0.6092 0.9502 0.0
N1162 N 0.63151 0.57872 0.0234 0.0
N1163 N 0.61224 0.60939 0.97304 0.0
H1164 H 0.89333 0.08523 0.45598 0.0
H1165 H 0.81708 0.08993 0.56687 0.0
H1166 H 0.82406 0.10742 0.457 0.0
H1167 H 0.88995 0.08938 0.56837 0.0
H1168 H 0.81828 0.08713 0.52583 0.0
H1169 H 0.89105 0.07796 0.49653 0.0
C1170 C 0.87759 0.08835 0.46469 0.0
C1171 C 0.85894 0.09722 0.45323 0.0
C1172 C 0.83399 0.08738 0.53519 0.0
C1173 C 0.85619 0.08879 0.49935 0.0
C1174 C 0.83333 0.08888 0.55861 0.0
C1175 C 0.85346 0.09023 0.57103 0.0
C1176 C 0.85491 0.08709 0.52414 0.0
C1177 C 0.87403 0.08868 0.55942 0.0
C1178 C 0.87632 0.08424 0.48779 0.0
C1179 C 0.83894 0.10088 0.46527 0.0
N1180 N 0.87424 0.08737 0.53657 0.0
N1181 N 0.83812 0.09673 0.48771 0.0
H1182 H 0.37005 0.44394 0.93875 0.0
H1183 H 0.40803 0.38359 0.05258 0.0
H1184 H 0.40417 0.37981 0.94148 0.0
H1185 H 0.37147 0.44639 0.05093 0.0
H1186 H 0.41128 0.38473 0.01168 0.0
H1187 H 0.37478 0.44781 0.97953 0.0
C1188 C 0.37873 0.43078 0.94788 0.0
C1189 C 0.38649 0.41139 0.93674 0.0
C1190 C 0.40271 0.39838 0.02026 0.0
C1191 C 0.3919 0.41569 0.98333 0.0
C1192 C 0.40086 0.39775 0.04364 0.0
C1193 C 0.3892 0.41478 0.05517 0.0
C1194 C 0.39272 0.4161 0.00827 0.0
C1195 C 0.38044 0.4328 0.0427 0.0
C1196 C 0.38141 0.433 0.97116 0.0
C1197 C 0.39771 0.39495 0.94939 0.0
N1198 N 0.38217 0.43287 0.01988 0.0
N1199 N 0.39991 0.39739 0.97202 0.0
H1200 H 0.5537 0.12325 0.10292 0.0
H1201 H 0.44333 0.13418 0.17662 0.0
H1202 H 0.5522 0.10593 0.17347 0.0
H1203 H 0.44 0.1213 0.10505 0.0
H1204 H 0.48389 0.1272 0.17568 0.0
H1205 H 0.51245 0.12548 0.10305 0.0
C1206 C 0.54467 0.11975 0.11839 0.0
C1207 C 0.55634 0.11447 0.13825 0.0
C1208 C 0.47426 0.12578 0.16021 0.0
C1209 C 0.50937 0.11732 0.13855 0.0
C1210 C 0.45116 0.12993 0.16069 0.0
C1211 C 0.43836 0.12843 0.14085 0.0
C1212 C 0.4847 0.1205 0.13968 0.0
C1213 C 0.44931 0.12263 0.12072 0.0
C1214 C 0.52118 0.12097 0.11842 0.0
C1215 C 0.54385 0.11001 0.15779 0.0
N1216 N 0.47196 0.11909 0.12059 0.0
N1217 N 0.52101 0.11182 0.15753 0.0
H1218 H 0.41816 0.94101 0.60402 0.0
H1219 H 0.36015 0.06065 0.59064 0.0
H1220 H 0.35048 0.94977 0.57859 0.0
H1221 H 0.43065 0.05227 0.60684 0.0
H1222 H 0.35727 0.02033 0.58276 0.0
H1223 H 0.42411 0.9817 0.60191 0.0
C1224 C 0.4046 0.95148 0.59779 0.0
C1225 C 0.38367 0.94202 0.59174 0.0
C1226 C 0.37345 0.02732 0.58777 0.0
C1227 C 0.39035 0.98865 0.58943 0.0
C1228 C 0.3751 0.05036 0.5923 0.0
C1229 C 0.39561 0.05978 0.5997 0.0
C1230 C 0.39238 0.01354 0.59089 0.0
C1231 C 0.41447 0.04569 0.60133 0.0
C1232 C 0.40804 0.97472 0.59654 0.0
C1233 C 0.36682 0.95637 0.58358 0.0
N1234 N 0.41233 0.0232 0.59727 0.0
N1235 N 0.37043 0.97901 0.58292 0.0
H1236 H 0.44404 0.87819 0.10034 0.0
H1237 H 0.55793 0.94288 0.13435 0.0
H1238 H 0.44526 0.94126 0.13706 0.0
H1239 H 0.55577 0.87861 0.0998 0.0
H1240 H 0.51674 0.94434 0.13277 0.0
H1241 H 0.48499 0.87979 0.09738 0.0
C1242 C 0.45292 0.89245 0.10772 0.0
C1243 C 0.44121 0.90956 0.1191 0.0
C1244 C 0.5253 0.93 0.12541 0.0
C1245 C 0.48821 0.91146 0.11581 0.0
C1246 C 0.54882 0.92917 0.12626 0.0
C1247 C 0.5603 0.91051 0.11734 0.0
C1248 C 0.5132 0.91205 0.11556 0.0
C1249 C 0.54762 0.89326 0.10703 0.0
C1250 C 0.47633 0.89335 0.10601 0.0
C1251 C 0.45361 0.92766 0.12822 0.0
N1252 N 0.52476 0.8944 0.10654 0.0
N1253 N 0.47649 0.92808 0.12647 0.0
H1254 H 0.65054 0.05394 0.58497 0.0
H1255 H 0.57511 0.94871 0.62391 0.0
H1256 H 0.58805 0.06003 0.6218 0.0
H1257 H 0.6405 0.94244 0.59252 0.0
H1258 H 0.57727 0.98956 0.61888 0.0
H1259 H 0.64481 0.01309 0.58318 0.0
C1260 C 0.63552 0.04673 0.5925 0.0
C1261 C 0.61987 0.0604 0.60375 0.0
C1262 C 0.59107 0.97922 0.61295 0.0
C1263 C 0.61324 0.01369 0.60183 0.0
C1264 C 0.58983 0.95589 0.61579 0.0
C1265 C 0.60775 0.94215 0.60883 0.0
C1266 C 0.61037 0.98888 0.60308 0.0
C1267 C 0.62637 0.95239 0.59832 0.0
C1268 C 0.63227 0.0234 0.5915 0.0
C1269 C 0.60066 0.05013 0.61312 0.0
N1270 N 0.62726 0.97515 0.5959 0.0
N1271 N 0.59798 0.02739 0.61208 0.0
H1272 H 0.45493 0.85098 0.91903 0.0
H1273 H 0.55904 0.92423 0.8734 0.0
H1274 H 0.44775 0.91086 0.87851 0.0
H1275 H 0.56609 0.85978 0.90624 0.0
H1276 H 0.51832 0.92229 0.87971 0.0
H1277 H 0.49582 0.85671 0.91912 0.0
C1278 C 0.46192 0.86544 0.91033 0.0
C1279 C 0.44792 0.88033 0.89856 0.0
C1280 C 0.52881 0.90865 0.88566 0.0
C1281 C 0.49466 0.88694 0.89854 0.0
C1282 C 0.55206 0.90976 0.88209 0.0
C1283 C 0.56595 0.89204 0.8891 0.0
C1284 C 0.51941 0.88969 0.89635 0.0
C1285 C 0.55599 0.87374 0.90037 0.0
C1286 C 0.48527 0.86867 0.91034 0.0
C1287 C 0.45791 0.89882 0.88764 0.0
N1288 N 0.53331 0.87299 0.90353 0.0
N1289 N 0.48067 0.90153 0.88779 0.0
H1290 H 0.61358 0.94031 0.40168 0.0
H1291 H 0.60829 0.05312 0.32932 0.0
H1292 H 0.63841 0.94467 0.33349 0.0
H1293 H 0.61403 0.05397 0.40184 0.0
H1294 H 0.61164 0.01196 0.32982 0.0
H1295 H 0.60653 0.98106 0.40128 0.0
C1296 C 0.61752 0.94985 0.38665 0.0
C1297 C 0.62675 0.93922 0.36765 0.0
C1298 C 0.61202 0.02121 0.34561 0.0
C1299 C 0.61837 0.98546 0.36696 0.0
C1300 C 0.60996 0.04463 0.34535 0.0
C1301 C 0.61101 0.05693 0.36556 0.0
C1302 C 0.61478 0.01005 0.36623 0.0
C1303 C 0.61331 0.0451 0.38587 0.0
C1304 C 0.61352 0.97303 0.38645 0.0
C1305 C 0.63151 0.95229 0.34858 0.0
N1306 N 0.6151 0.02227 0.3857 0.0
N1307 N 0.62716 0.97474 0.34867 0.0
H1308 H 0.44526 0.14327 0.91216 0.0
H1309 H 0.56584 0.08534 0.90472 0.0
H1310 H 0.45453 0.07177 0.9018 0.0
H1311 H 0.556 0.15572 0.92083 0.0
H1312 H 0.52518 0.0792 0.90756 0.0
H1313 H 0.48559 0.14736 0.91932 0.0
C1314 C 0.45576 0.12838 0.91159 0.0
C1315 C 0.44656 0.10718 0.90608 0.0
C1316 C 0.53193 0.09593 0.91073 0.0
C1317 C 0.49284 0.11178 0.91412 0.0
C1318 C 0.55516 0.09947 0.9091 0.0
C1319 C 0.5643 0.12116 0.91224 0.0
C1320 C 0.51772 0.11425 0.91536 0.0
C1321 C 0.54967 0.13876 0.91808 0.0
C1322 C 0.47881 0.13072 0.91572 0.0
C1323 C 0.46093 0.08845 0.90583 0.0
N1324 N 0.52707 0.13497 0.91919 0.0
N1325 N 0.48343 0.09123 0.90951 0.0
H1326 H 0.40236 0.95028 0.33279 0.0
H1327 H 0.38811 0.06098 0.40778 0.0
H1328 H 0.38627 0.947 0.40362 0.0
H1329 H 0.37012 0.05815 0.33733 0.0
H1330 H 0.39535 0.02021 0.40681 0.0
H1331 H 0.39901 0.99142 0.33455 0.0
C1332 C 0.39843 0.95824 0.34876 0.0
C1333 C 0.39446 0.94528 0.36807 0.0
C1334 C 0.38983 0.02861 0.39161 0.0
C1335 C 0.39072 0.9921 0.37017 0.0
C1336 C 0.38573 0.05178 0.39214 0.0
C1337 C 0.37834 0.06281 0.37265 0.0
C1338 C 0.38699 0.01664 0.37134 0.0
C1339 C 0.37555 0.0502 0.35279 0.0
C1340 C 0.39637 0.98164 0.3497 0.0
C1341 C 0.3893 0.95642 0.38832 0.0
N1342 N 0.38001 0.02777 0.3526 0.0
N1343 N 0.38759 0.97926 0.38886 0.0
H1344 H 0.10153 0.4575 0.11929 0.0
H1345 H 0.17672 0.56622 0.093 0.0
H1346 H 0.17343 0.46012 0.131 0.0
H1347 H 0.10574 0.57014 0.10879 0.0
H1348 H 0.17537 0.52555 0.10002 0.0
H1349 H 0.10246 0.49747 0.10903 0.0
C1350 C 0.1175 0.46649 0.11969 0.0
C1351 C 0.13742 0.45557 0.12612 0.0
C1352 C 0.16009 0.53535 0.10181 0.0
C1353 C 0.13862 0.50102 0.11412 0.0
C1354 C 0.1608 0.55848 0.09765 0.0
C1355 C 0.14132 0.57154 0.10041 0.0
C1356 C 0.1397 0.52521 0.10843 0.0
C1357 C 0.12117 0.56068 0.1066 0.0
C1358 C 0.118 0.48925 0.11387 0.0
C1359 C 0.15766 0.46797 0.12633 0.0
N1360 N 0.12087 0.53811 0.1104 0.0
N1361 N 0.15776 0.49005 0.12031 0.0
H1362 H 0.10894 0.57354 0.8856 0.0
H1363 H 0.1572 0.45474 0.84374 0.0
H1364 H 0.15965 0.56586 0.83399 0.0
H1365 H 0.10895 0.46116 0.89782 0.0
H1366 H 0.15753 0.49555 0.83965 0.0
H1367 H 0.10771 0.53249 0.88985 0.0
C1368 C 0.11974 0.56323 0.8751 0.0
C1369 C 0.13444 0.57312 0.85942 0.0
C1370 C 0.14688 0.48809 0.85245 0.0
C1371 C 0.13317 0.52626 0.86426 0.0
C1372 C 0.14669 0.46475 0.85482 0.0
C1373 C 0.13304 0.45452 0.87117 0.0
C1374 C 0.13328 0.5014 0.86651 0.0
C1375 C 0.11977 0.46837 0.88502 0.0
C1376 C 0.11907 0.53982 0.87758 0.0
C1377 C 0.14809 0.55898 0.84631 0.0
N1378 N 0.1202 0.49114 0.88236 0.0
N1379 N 0.14713 0.53629 0.84904 0.0
H1380 H 0.06123 0.64333 0.32077 0.0
H1381 H 0.95299 0.60136 0.38895 0.0
H1382 H 0.06608 0.60907 0.38462 0.0
H1383 H 0.951 0.6278 0.32131 0.0
H1384 H 0.99433 0.60241 0.38756 0.0
H1385 H 0.02072 0.63657 0.32063 0.0
C1386 C 0.05376 0.63435 0.33478 0.0
C1387 C 0.06702 0.6269 0.35282 0.0
C1388 C 0.9848 0.60778 0.37298 0.0
C1389 C 0.02049 0.61909 0.3528 0.0
C1390 C 0.96123 0.60714 0.37374 0.0
C1391 C 0.94854 0.6147 0.35529 0.0
C1392 C 0.99566 0.61611 0.35367 0.0
C1393 C 0.96007 0.622 0.33601 0.0
C1394 C 0.03059 0.63041 0.33466 0.0
C1395 C 0.05643 0.61516 0.37041 0.0
N1396 N 0.98294 0.62268 0.33579 0.0
N1397 N 0.03371 0.61175 0.37005 0.0
H1398 H 0.88939 0.53994 0.92875 0.0
H1399 H 0.91737 0.43558 0.84763 0.0
H1400 H 0.91208 0.54709 0.86003 0.0
H1401 H 0.8888 0.42887 0.91418 0.0
H1402 H 0.92012 0.47636 0.85352 0.0
H1403 H 0.89372 0.49911 0.92534 0.0
C1404 C 0.89547 0.53295 0.913 0.0
C1405 C 0.90016 0.54694 0.89458 0.0
C1406 C 0.9134 0.46593 0.86688 0.0
C1407 C 0.90507 0.50021 0.89053 0.0
C1408 C 0.91186 0.44264 0.86355 0.0
C1409 C 0.90264 0.42882 0.88035 0.0
C1410 C 0.90569 0.47544 0.88717 0.0
C1411 C 0.89584 0.4389 0.90067 0.0
C1412 C 0.8979 0.50963 0.91106 0.0
C1413 C 0.90809 0.53694 0.87462 0.0
N1414 N 0.89737 0.4616 0.90345 0.0
N1415 N 0.91014 0.51418 0.87308 0.0
H1416 H 0.04701 0.41109 0.40649 0.0
H1417 H 0.92896 0.35074 0.38107 0.0
H1418 H 0.03836 0.35563 0.35978 0.0
H1419 H 0.93352 0.41649 0.4125 0.0
H1420 H 0.96974 0.35065 0.37663 0.0
H1421 H 0.00601 0.41205 0.41186 0.0
C1422 C 0.0365 0.39917 0.39732 0.0
C1423 C 0.04609 0.38324 0.38266 0.0
C1424 C 0.96186 0.36512 0.3845 0.0
C1425 C 0.99939 0.38413 0.38889 0.0
C1426 C 0.93855 0.36515 0.38715 0.0
C1427 C 0.92778 0.3837 0.39713 0.0
C1428 C 0.97463 0.38369 0.392 0.0
C1429 C 0.94113 0.40188 0.40465 0.0
C1430 C 0.01314 0.39975 0.40038 0.0
C1431 C 0.03171 0.36822 0.37121 0.0
N1432 N 0.96393 0.40142 0.40196 0.0
N1433 N 0.00911 0.36897 0.37466 0.0
H1434 H 0.8928 0.43456 0.15757 0.0
H1435 H 0.91491 0.55089 0.09877 0.0
H1436 H 0.93053 0.43786 0.09554 0.0
H1437 H 0.90841 0.54469 0.17093 0.0
H1438 H 0.91968 0.50989 0.09604 0.0
H1439 H 0.89684 0.47533 0.16186 0.0
C1440 C 0.90206 0.44391 0.14491 0.0
C1441 C 0.91127 0.43294 0.12612 0.0
C1442 C 0.91755 0.51762 0.11247 0.0
C1443 C 0.9157 0.47958 0.13077 0.0
C1444 C 0.91474 0.54096 0.11404 0.0
C1445 C 0.91101 0.55117 0.13509 0.0
C1446 C 0.91618 0.50447 0.13202 0.0
C1447 C 0.91111 0.53754 0.15435 0.0
C1448 C 0.90447 0.46713 0.14743 0.0
C1449 C 0.92324 0.44577 0.11029 0.0
N1450 N 0.91328 0.51485 0.15231 0.0
N1451 N 0.92483 0.46857 0.11277 0.0
H1452 H 0.9312 0.39436 0.60134 0.0
H1453 H 0.03686 0.3997 0.68051 0.0
H1454 H 0.92647 0.41929 0.66959 0.0
H1455 H 0.04342 0.4078 0.60858 0.0
H1456 H 0.99621 0.40586 0.67707 0.0
H1457 H 0.97229 0.39844 0.60332 0.0
C1458 C 0.93881 0.401 0.61662 0.0
C1459 C 0.92551 0.40636 0.63539 0.0
C1460 C 0.0066 0.40658 0.66209 0.0
C1461 C 0.97232 0.41064 0.63788 0.0
C1462 C 0.02974 0.40293 0.66402 0.0
C1463 C 0.04341 0.40305 0.64477 0.0
C1464 C 0.99706 0.40986 0.64071 0.0
C1465 C 0.03341 0.40752 0.62383 0.0
C1466 C 0.96221 0.40338 0.61771 0.0
C1467 C 0.93615 0.41497 0.65474 0.0
N1468 N 0.01073 0.41039 0.62229 0.0
N1469 N 0.95902 0.41646 0.65565 0.0
H1470 H 0.06439 0.57866 0.64458 0.0
H1471 H 0.95918 0.60427 0.56421 0.0
H1472 H 0.0702 0.60968 0.57914 0.0
H1473 H 0.95331 0.58931 0.6351 0.0
H1474 H 0.99997 0.59859 0.56688 0.0
H1475 H 0.02368 0.57479 0.63865 0.0
C1476 C 0.05715 0.5844 0.62886 0.0
C1477 C 0.07063 0.59479 0.61246 0.0
C1478 C 0.98969 0.59635 0.58178 0.0
C1479 C 0.02419 0.59041 0.60559 0.0
C1480 C 0.96642 0.59952 0.58026 0.0
C1481 C 0.95289 0.59755 0.59953 0.0
C1482 C 0.99942 0.59105 0.60268 0.0
C1483 C 0.96315 0.59128 0.61988 0.0
C1484 C 0.03393 0.58225 0.62552 0.0
C1485 C 0.06038 0.60184 0.59237 0.0
N1486 N 0.98583 0.5884 0.62095 0.0
N1487 N 0.03774 0.59966 0.58956 0.0
H1488 H 0.94852 0.13074 0.33246 0.0
H1489 H 0.05346 0.06747 0.38732 0.0
H1490 H 0.94208 0.0723 0.37514 0.0
H1491 H 0.06007 0.12387 0.34203 0.0
H1492 H 0.01308 0.06587 0.37909 0.0
H1493 H 0.98937 0.12543 0.33176 0.0
C1494 C 0.95563 0.11657 0.34142 0.0
C1495 C 0.94177 0.1021 0.35409 0.0
C1496 C 0.02338 0.07841 0.3707 0.0
C1497 C 0.98877 0.09607 0.35356 0.0
C1498 C 0.04651 0.07931 0.37536 0.0
C1499 C 0.06023 0.09599 0.36555 0.0
C1500 C 0.01375 0.09442 0.35624 0.0
C1501 C 0.0502 0.11078 0.35009 0.0
C1502 C 0.97902 0.11357 0.34104 0.0
C1503 C 0.95204 0.08397 0.36524 0.0
N1504 N 0.02755 0.10984 0.34616 0.0
N1505 N 0.9749 0.08166 0.36496 0.0
H1506 H 0.42182 0.4383 0.85023 0.0
H1507 H 0.44003 0.55251 0.86975 0.0
H1508 H 0.35507 0.45873 0.82992 0.0
H1509 H 0.37942 0.5639 0.83118 0.0
H1510 H 0.43677 0.51239 0.86197 0.0
H1511 H 0.4341 0.47762 0.8487 0.0
C1512 C 0.40978 0.45103 0.84524 0.0
C1513 C 0.38726 0.44514 0.84057 0.0
C1514 C 0.42446 0.52351 0.85458 0.0
C1515 C 0.40096 0.49064 0.83964 0.0
C1516 C 0.42628 0.54662 0.85916 0.0
C1517 C 0.40989 0.56171 0.85128 0.0
C1518 C 0.40601 0.51525 0.84199 0.0
C1519 C 0.39246 0.55297 0.83768 0.0
C1520 C 0.41673 0.47366 0.84468 0.0
C1521 C 0.37252 0.46242 0.83399 0.0
N1522 N 0.39081 0.53035 0.83378 0.0
N1523 N 0.37955 0.4843 0.83396 0.0
H1524 H 0.05232 0.87512 0.31532 0.0
H1525 H 0.9487 0.93563 0.37626 0.0
H1526 H 0.06007 0.92627 0.36676 0.0
H1527 H 0.94094 0.88384 0.32547 0.0
H1528 H 0.98925 0.93647 0.36894 0.0
H1529 H 0.01173 0.88207 0.31482 0.0
C1530 C 0.04557 0.88807 0.32629 0.0
C1531 C 0.05972 0.89996 0.34128 0.0
C1532 C 0.97867 0.92513 0.35916 0.0
C1533 C 0.01297 0.90786 0.34093 0.0
C1534 C 0.95543 0.92469 0.36328 0.0
C1535 C 0.9413 0.90948 0.35162 0.0
C1536 C 0.988 0.91017 0.34334 0.0
C1537 C 0.9511 0.89579 0.33494 0.0
C1538 C 0.02231 0.89199 0.32602 0.0
C1539 C 0.04989 0.9166 0.35499 0.0
N1540 N 0.97384 0.89627 0.33151 0.0
N1541 N 0.02714 0.91986 0.35468 0.0
H1542 H 0.56534 0.44373 0.8725 0.0
H1543 H 0.6406 0.54009 0.81592 0.0
H1544 H 0.6214 0.43029 0.82819 0.0
H1545 H 0.58437 0.55353 0.86003 0.0
H1546 H 0.63023 0.50014 0.81561 0.0
H1547 H 0.56841 0.4838 0.86353 0.0
C1548 C 0.57807 0.44912 0.86058 0.0
C1549 C 0.59329 0.43354 0.8513 0.0
C1550 C 0.61995 0.51184 0.82511 0.0
C1551 C 0.59709 0.47967 0.84113 0.0
C1552 C 0.62583 0.53473 0.82526 0.0
C1553 C 0.6135 0.55026 0.83821 0.0
C1554 C 0.60166 0.50427 0.83814 0.0
C1555 C 0.59446 0.54223 0.84986 0.0
C1556 C 0.57985 0.47208 0.85551 0.0
C1557 C 0.60935 0.44162 0.83586 0.0
N1558 N 0.58932 0.51979 0.84978 0.0
N1559 N 0.61101 0.46412 0.83151 0.0
H1560 H 0.94628 0.91902 0.63409 0.0
H1561 H 0.07123 0.88247 0.66998 0.0
H1562 H 0.96115 0.86053 0.67441 0.0
H1563 H 0.05677 0.93286 0.61981 0.0
H1564 H 0.03084 0.87965 0.67819 0.0
H1565 H 0.98628 0.92953 0.63524 0.0
C1566 C 0.95784 0.90862 0.64358 0.0
C1567 C 0.95031 0.8887 0.65397 0.0
C1568 C 0.03654 0.89156 0.66561 0.0
C1569 C 0.99626 0.90058 0.65518 0.0
C1570 C 0.05965 0.89328 0.661 0.0
C1571 C 0.06746 0.90775 0.64398 0.0
C1572 C 0.02107 0.90444 0.6532 0.0
C1573 C 0.05155 0.9213 0.63291 0.0
C1574 C 0.98074 0.91457 0.64411 0.0
C1575 C 0.96617 0.87591 0.66596 0.0
N1576 N 0.02915 0.91916 0.63754 0.0
N1577 N 0.98838 0.88193 0.66605 0.0
H1578 H 0.61648 0.45123 0.16121 0.0
H1579 H 0.56088 0.56661 0.11975 0.0
H1580 H 0.55849 0.455 0.11735 0.0
H1581 H 0.62115 0.56398 0.16053 0.0
H1582 H 0.55634 0.5259 0.12399 0.0
H1583 H 0.61507 0.49226 0.16627 0.0
C1584 C 0.6032 0.46059 0.15295 0.0
C1585 C 0.58771 0.44958 0.13863 0.0
C1586 C 0.57043 0.53422 0.13227 0.0
C1587 C 0.58613 0.49668 0.14422 0.0
C1588 C 0.57299 0.55755 0.12992 0.0
C1589 C 0.59157 0.56881 0.13959 0.0
C1590 C 0.58662 0.52187 0.14428 0.0
C1591 C 0.60662 0.55607 0.15266 0.0
C1592 C 0.60248 0.48406 0.15578 0.0
C1593 C 0.57092 0.4627 0.12838 0.0
N1594 N 0.60398 0.53327 0.15438 0.0
N1595 N 0.57072 0.48549 0.13121 0.0
H1596 H 0.93342 0.07783 0.64851 0.0
H1597 H 0.05473 0.12807 0.68229 0.0
H1598 H 0.94315 0.13792 0.68879 0.0
H1599 H 0.04451 0.07477 0.6335 0.0
H1600 H 0.01435 0.12696 0.69095 0.0
H1601 H 0.97422 0.07166 0.6491 0.0
C1602 C 0.94404 0.0895 0.65786 0.0
C1603 C 0.93477 0.10859 0.66841 0.0
C1604 C 0.021 0.11529 0.67857 0.0
C1605 C 0.98165 0.1017 0.66896 0.0
C1606 C 0.04411 0.11583 0.6737 0.0
C1607 C 0.05306 0.10165 0.65695 0.0
C1608 C 0.00668 0.10044 0.66667 0.0
C1609 C 0.03838 0.08618 0.64638 0.0
C1610 C 0.9674 0.08603 0.65807 0.0
C1611 C 0.9495 0.1231 0.68023 0.0
N1612 N 0.01594 0.08613 0.65125 0.0
N1613 N 0.97217 0.11948 0.67999 0.0
H1614 H 0.38469 0.57381 0.1716 0.0
H1615 H 0.42297 0.44874 0.13839 0.0
H1616 H 0.44149 0.55894 0.12868 0.0
H1617 H 0.36159 0.46424 0.1742 0.0
H1618 H 0.43417 0.48847 0.14118 0.0
H1619 H 0.38039 0.5335 0.17917 0.0
C1620 C 0.39655 0.56215 0.1641 0.0
C1621 C 0.41331 0.56984 0.14923 0.0
C1622 C 0.4184 0.48311 0.14871 0.0
C1623 C 0.4083 0.5235 0.15768 0.0
C1624 C 0.41203 0.46037 0.14723 0.0
C1625 C 0.39115 0.45312 0.15584 0.0
C1626 C 0.40382 0.49876 0.1589 0.0
C1627 C 0.37773 0.46905 0.1671 0.0
C1628 C 0.394 0.53908 0.16835 0.0
C1629 C 0.42817 0.55383 0.14007 0.0
N1630 N 0.38416 0.49111 0.16809 0.0
N1631 N 0.42516 0.53145 0.14422 0.0
H1632 H 0.32481 0.06919 0.11911 0.0
H1633 H 0.36531 0.94727 0.07775 0.0
H1634 H 0.37938 0.05831 0.07228 0.0
H1635 H 0.31682 0.95814 0.13084 0.0
H1636 H 0.36512 0.98777 0.06993 0.0
H1637 H 0.31625 0.02878 0.11786 0.0
C1638 C 0.33473 0.05842 0.10821 0.0
C1639 C 0.35305 0.0672 0.09599 0.0
C1640 C 0.35427 0.98125 0.08308 0.0
C1641 C 0.34344 0.02076 0.09468 0.0
C1642 C 0.35427 0.95806 0.08748 0.0
C1643 C 0.34125 0.94925 0.10518 0.0
C1644 C 0.34115 0.99577 0.09644 0.0
C1645 C 0.32731 0.96416 0.11719 0.0
C1646 C 0.32989 0.03528 0.1076 0.0
C1647 C 0.36526 0.05231 0.08218 0.0
N1648 N 0.32781 0.98666 0.11277 0.0
N1649 N 0.36041 0.02984 0.08209 0.0
H1650 H 0.44978 0.8098 0.63406 0.0
H1651 H 0.56307 0.86122 0.58191 0.0
H1652 H 0.45044 0.85977 0.58141 0.0
H1653 H 0.56132 0.81181 0.63508 0.0
H1654 H 0.52222 0.85664 0.57715 0.0
H1655 H 0.49058 0.80592 0.63019 0.0
C1656 C 0.45843 0.8197 0.6214 0.0
C1657 C 0.4466 0.83533 0.60823 0.0
C1658 C 0.53083 0.84656 0.58963 0.0
C1659 C 0.49361 0.83122 0.60393 0.0
C1660 C 0.55421 0.84909 0.5923 0.0
C1661 C 0.5657 0.83706 0.6091 0.0
C1662 C 0.5188 0.83191 0.60388 0.0
C1663 C 0.55322 0.82162 0.62205 0.0
C1664 C 0.4818 0.81753 0.61924 0.0
C1665 C 0.4588 0.84758 0.59202 0.0
N1666 N 0.53049 0.81969 0.61934 0.0
N1667 N 0.48165 0.8455 0.59055 0.0
H1668 H 0.63322 0.07016 0.08245 0.0
H1669 H 0.67001 0.94682 0.12256 0.0
H1670 H 0.67758 0.05761 0.13867 0.0
H1671 H 0.62484 0.95885 0.06684 0.0
H1672 H 0.6771 0.98743 0.12531 0.0
H1673 H 0.63407 0.02985 0.07311 0.0
C1674 C 0.64346 0.05904 0.0926 0.0
C1675 C 0.65518 0.06735 0.11152 0.0
C1676 C 0.66585 0.98118 0.11229 0.0
C1677 C 0.65603 0.02103 0.10106 0.0
C1678 C 0.66186 0.95792 0.11064 0.0
C1679 C 0.64665 0.94931 0.09455 0.0
C1680 C 0.65449 0.99606 0.09782 0.0
C1681 C 0.6366 0.96465 0.07961 0.0
C1682 C 0.64385 0.03597 0.08732 0.0
C1683 C 0.66811 0.05202 0.12405 0.0
N1684 N 0.6405 0.98723 0.08176 0.0
N1685 N 0.668 0.02966 0.11875 0.0
H1686 H 0.55339 0.19192 0.64664 0.0
H1687 H 0.441 0.14107 0.5911 0.0
H1688 H 0.55359 0.14297 0.5926 0.0
H1689 H 0.44198 0.18671 0.64794 0.0
H1690 H 0.48177 0.14665 0.5868 0.0
H1691 H 0.51257 0.19539 0.64257 0.0
C1692 C 0.54493 0.18217 0.63364 0.0
C1693 C 0.557 0.16692 0.62014 0.0
C1694 C 0.473 0.15571 0.6 0.0
C1695 C 0.50997 0.17059 0.61558 0.0
C1696 C 0.44966 0.15262 0.6024 0.0
C1697 C 0.43801 0.16326 0.62008 0.0
C1698 C 0.4848 0.16954 0.61536 0.0
C1699 C 0.45023 0.17798 0.63421 0.0
C1700 C 0.52154 0.1841 0.63137 0.0
C1701 C 0.54502 0.15486 0.60348 0.0
N1702 N 0.47292 0.18048 0.63169 0.0
N1703 N 0.52216 0.15671 0.60189 0.0
H1704 H 0.3168 0.05845 0.86144 0.0
H1705 H 0.36554 0.94451 0.91371 0.0
H1706 H 0.36704 0.05709 0.91412 0.0
H1707 H 0.31705 0.94678 0.85946 0.0
H1708 H 0.36185 0.9854 0.91844 0.0
H1709 H 0.31231 0.01764 0.86482 0.0
C1710 C 0.32666 0.04964 0.87398 0.0
C1711 C 0.34249 0.06129 0.88736 0.0
C1712 C 0.35178 0.9769 0.90572 0.0
C1713 C 0.3376 0.01427 0.89114 0.0
C1714 C 0.35378 0.95349 0.90307 0.0
C1715 C 0.34178 0.94214 0.88597 0.0
C1716 C 0.33768 0.98909 0.89115 0.0
C1717 C 0.32682 0.95477 0.87273 0.0
C1718 C 0.32412 0.02626 0.87586 0.0
C1719 C 0.35469 0.04887 0.90337 0.0
N1720 N 0.3254 0.97753 0.87543 0.0
N1721 N 0.3522 0.02604 0.90462 0.0
H1722 H 0.55108 0.87995 0.43128 0.0
H1723 H 0.44929 0.81954 0.36612 0.0
H1724 H 0.56034 0.82861 0.3804 0.0
H1725 H 0.43992 0.86894 0.41886 0.0
H1726 H 0.48964 0.81903 0.37456 0.0
H1727 H 0.51048 0.87258 0.43047 0.0
C1728 C 0.54465 0.86686 0.42017 0.0
C1729 C 0.55924 0.85504 0.40573 0.0
C1730 C 0.47875 0.82977 0.38452 0.0
C1731 C 0.51249 0.84669 0.40452 0.0
C1732 C 0.45563 0.83004 0.37974 0.0
C1733 C 0.44111 0.84447 0.39165 0.0
C1734 C 0.48759 0.84416 0.40124 0.0
C1735 C 0.4504 0.85759 0.40917 0.0
C1736 C 0.52139 0.86269 0.41969 0.0
C1737 C 0.54981 0.83821 0.3918 0.0
N1738 N 0.47305 0.85733 0.41323 0.0
N1739 N 0.52706 0.83476 0.39133 0.0
H1740 H 0.67739 0.05743 0.88403 0.0
H1741 H 0.64613 0.93189 0.92273 0.0
H1742 H 0.63397 0.04197 0.94028 0.0
H1743 H 0.68591 0.94747 0.86391 0.0
H1744 H 0.64701 0.97186 0.93328 0.0
H1745 H 0.68621 0.01729 0.88044 0.0
C1746 C 0.67004 0.0457 0.89592 0.0
C1747 C 0.65468 0.05315 0.91232 0.0
C1748 C 0.65581 0.96649 0.91822 0.0
C1749 C 0.66452 0.00699 0.90811 0.0
C1750 C 0.65542 0.94361 0.91224 0.0
C1751 C 0.66576 0.93625 0.89225 0.0
C1752 C 0.66661 0.98221 0.90413 0.0
C1753 C 0.6775 0.95232 0.87935 0.0
C1754 C 0.675 0.02271 0.89378 0.0
C1755 C 0.64573 0.03705 0.92722 0.0
N1756 N 0.6774 0.97451 0.88537 0.0
N1757 N 0.65055 0.01477 0.9246 0.0
H1758 H 0.45308 0.12089 0.43779 0.0
H1759 H 0.55455 0.18357 0.37512 0.0
H1760 H 0.4437 0.17365 0.38883 0.0
H1761 H 0.56402 0.13128 0.42455 0.0
H1762 H 0.51432 0.18403 0.384 0.0
H1763 H 0.49367 0.12829 0.43726 0.0
C1764 C 0.45948 0.1343 0.42718 0.0
C1765 C 0.44488 0.1465 0.41315 0.0
C1766 C 0.52522 0.17265 0.39314 0.0
C1767 C 0.49159 0.1549 0.41228 0.0
C1768 C 0.54826 0.17241 0.38811 0.0
C1769 C 0.56274 0.15718 0.39892 0.0
C1770 C 0.51643 0.15744 0.40901 0.0
C1771 C 0.55354 0.14324 0.41569 0.0
C1772 C 0.48273 0.13847 0.42685 0.0
C1773 C 0.45425 0.16372 0.39986 0.0
N1774 N 0.53096 0.1435 0.42 0.0
N1775 N 0.477 0.1672 0.39954 0.0
H1776 H 0.10823 0.35187 0.95184 0.0
H1777 H 0.05855 0.40285 0.06657 0.0
H1778 H 0.06189 0.40768 0.95528 0.0
H1779 H 0.11 0.35164 0.06464 0.0
H1780 H 0.05486 0.40003 0.02572 0.0
H1781 H 0.10443 0.34695 0.99265 0.0
C1782 C 0.09694 0.36284 0.96107 0.0
C1783 C 0.08552 0.38037 0.95006 0.0
C1784 C 0.06678 0.38919 0.03421 0.0
C1785 C 0.08123 0.37491 0.99689 0.0
C1786 C 0.06885 0.39073 0.05762 0.0
C1787 C 0.08478 0.37763 0.06915 0.0
C1788 C 0.0808 0.3745 0.02204 0.0
C1789 C 0.09754 0.36215 0.05652 0.0
C1790 C 0.09487 0.36008 0.98442 0.0
C1791 C 0.07118 0.39406 0.963 0.0
N1792 N 0.09547 0.36121 0.03365 0.0
N1793 N 0.06961 0.39116 0.98567 0.0
H1794 H 0.1243 0.68652 0.92674 0.0
H1795 H 0.08695 0.64684 0.05014 0.0
H1796 H 0.07602 0.63328 0.93935 0.0
H1797 H 0.14032 0.69493 0.03737 0.0
H1798 H 0.07783 0.64669 0.00989 0.0
H1799 H 0.12534 0.69479 0.96718 0.0
C1800 C 0.11357 0.67685 0.93791 0.0
C1801 C 0.10022 0.65901 0.92957 0.0
C1802 C 0.09135 0.6575 0.01594 0.0
C1803 C 0.10153 0.66825 0.97604 0.0
C1804 C 0.0965 0.65769 0.03898 0.0
C1805 C 0.11461 0.67074 0.0472 0.0
C1806 C 0.10437 0.67048 1.00095 0.0
C1807 C 0.12636 0.68443 0.03183 0.0
C1808 C 0.11427 0.6815 0.96106 0.0
C1809 C 0.08673 0.64706 0.94498 0.0
N1810 N 0.12119 0.68376 0.00948 0.0
N1811 N 0.08791 0.65173 0.96742 0.0
H1812 H 0.88791 0.56592 0.44799 0.0
H1813 H 0.82904 0.63348 0.54845 0.0
H1814 H 0.84096 0.62031 0.43761 0.0
H1815 H 0.87435 0.57761 0.55838 0.0
H1816 H 0.82921 0.62573 0.50796 0.0
H1817 H 0.8793 0.5668 0.4882 0.0
C1818 C 0.87554 0.57786 0.45409 0.0
C1819 C 0.86532 0.59321 0.43934 0.0
C1820 C 0.83887 0.61496 0.51902 0.0
C1821 C 0.85553 0.59448 0.48562 0.0
C1822 C 0.83872 0.61933 0.54221 0.0
C1823 C 0.85187 0.60633 0.55692 0.0
C1824 C 0.85236 0.59753 0.51038 0.0
C1825 C 0.86403 0.58819 0.54774 0.0
C1826 C 0.87065 0.57837 0.47712 0.0
C1827 C 0.84934 0.60821 0.44831 0.0
N1828 N 0.8642 0.58452 0.52509 0.0
N1829 N 0.84516 0.60864 0.47087 0.0
H1830 H 0.92097 0.35212 0.94513 0.0
H1831 H 0.88321 0.3177 0.06991 0.0
H1832 H 0.86766 0.30414 0.95864 0.0
H1833 H 0.9137 0.38132 0.05203 0.0
H1834 H 0.8873 0.30504 0.0305 0.0
H1835 H 0.92851 0.35475 0.98554 0.0
C1836 C 0.9112 0.34169 0.95649 0.0
C1837 C 0.89335 0.32818 0.94844 0.0
C1838 C 0.89356 0.32156 0.03539 0.0
C1839 C 0.90191 0.33124 0.99481 0.0
C1840 C 0.8914 0.32869 0.05785 0.0
C1841 C 0.89808 0.35059 0.06409 0.0
C1842 C 0.9028 0.33633 0.01933 0.0
C1843 C 0.90826 0.36434 0.04781 0.0
C1844 C 0.91545 0.34332 0.9796 0.0
C1845 C 0.88136 0.31502 0.96409 0.0
N1846 N 0.91021 0.35705 0.02618 0.0
N1847 N 0.88565 0.31709 0.98656 0.0
H1848 H 0.11222 0.45525 0.56646 0.0
H1849 H 0.15232 0.39069 0.45483 0.0
H1850 H 0.14918 0.39274 0.56756 0.0
H1851 H 0.111 0.45041 0.45511 0.0
H1852 H 0.1568 0.39434 0.49575 0.0
H1853 H 0.11719 0.4569 0.52571 0.0
C1854 C 0.12168 0.44201 0.5582 0.0
C1855 C 0.13009 0.4237 0.57054 0.0
C1856 C 0.14701 0.40682 0.48681 0.0
C1857 C 0.13563 0.42536 0.52355 0.0
C1858 C 0.14454 0.40482 0.46339 0.0
C1859 C 0.13108 0.42016 0.45145 0.0
C1860 C 0.13599 0.42431 0.49841 0.0
C1861 C 0.12137 0.43807 0.46355 0.0
C1862 C 0.12446 0.44293 0.53485 0.0
C1863 C 0.14232 0.40713 0.55879 0.0
N1864 N 0.12384 0.43951 0.48631 0.0
N1865 N 0.14448 0.40821 0.53595 0.0
H1866 H 0.93007 0.62739 0.93878 0.0
H1867 H 0.88562 0.66113 0.06147 0.0
H1868 H 0.87169 0.66895 0.95078 0.0
H1869 H 0.94209 0.61702 0.04947 0.0
H1870 H 0.88424 0.66941 0.02116 0.0
H1871 H 0.93861 0.62867 0.97909 0.0
C1872 C 0.91926 0.63713 0.94979 0.0
C1873 C 0.89997 0.64786 0.94133 0.0
C1874 C 0.89713 0.65815 0.02738 0.0
C1875 C 0.90953 0.64918 0.98767 0.0
C1876 C 0.89799 0.65349 0.05046 0.0
C1877 C 0.91382 0.63812 0.05892 0.0
C1878 C 0.91216 0.64735 0.01258 0.0
C1879 C 0.92944 0.62879 0.04374 0.0
C1880 C 0.9241 0.63777 0.97287 0.0
C1881 C 0.88663 0.66023 0.95651 0.0
N1882 N 0.92804 0.63334 0.02133 0.0
N1883 N 0.8915 0.66033 0.97892 0.0
H1884 H 0.84999 0.41219 0.44784 0.0
H1885 H 0.8141 0.37458 0.57155 0.0
H1886 H 0.80194 0.35902 0.46159 0.0
H1887 H 0.86037 0.4293 0.55776 0.0
H1888 H 0.80466 0.37278 0.53147 0.0
H1889 H 0.84935 0.42272 0.48771 0.0
C1890 C 0.83899 0.40297 0.45913 0.0
C1891 C 0.82623 0.38447 0.45133 0.0
C1892 C 0.81662 0.38543 0.53725 0.0
C1893 C 0.82563 0.39629 0.49718 0.0
C1894 C 0.82195 0.38654 0.56021 0.0
C1895 C 0.83833 0.40189 0.56807 0.0
C1896 C 0.82783 0.39969 0.52198 0.0
C1897 C 0.84785 0.41699 0.55249 0.0
C1898 C 0.83868 0.40896 0.48196 0.0
C1899 C 0.81225 0.37324 0.46682 0.0
N1900 N 0.84272 0.41528 0.5302 0.0
N1901 N 0.81257 0.37911 0.489 0.0
H1902 H 0.15073 0.58412 0.54884 0.0
H1903 H 0.18007 0.63084 0.42575 0.0
H1904 H 0.18871 0.64519 0.53665 0.0
H1905 H 0.13362 0.576 0.43838 0.0
H1906 H 0.18961 0.63167 0.4659 0.0
H1907 H 0.15075 0.57633 0.50831 0.0
C1908 C 0.15948 0.59567 0.53774 0.0
C1909 C 0.16951 0.6155 0.54624 0.0
C1910 C 0.17755 0.61926 0.45983 0.0
C1911 C 0.16937 0.60677 0.49966 0.0
C1912 C 0.17216 0.61869 0.43685 0.0
C1913 C 0.1558 0.60349 0.42863 0.0
C1914 C 0.16657 0.60448 0.47476 0.0
C1915 C 0.14616 0.58817 0.44393 0.0
C1916 C 0.15936 0.59127 0.51454 0.0
C1917 C 0.18056 0.62981 0.53091 0.0
N1918 N 0.15151 0.5892 0.46622 0.0
N1919 N 0.17999 0.6253 0.50841 0.0
H1920 H 0.31197 0.16348 0.38 0.0
H1921 H 0.19164 0.10083 0.38745 0.0
H1922 H 0.30142 0.09998 0.41383 0.0
H1923 H 0.20181 0.16551 0.35579 0.0
H1924 H 0.23201 0.09964 0.39626 0.0
H1925 H 0.27165 0.16462 0.37113 0.0
C1926 C 0.30117 0.14992 0.38583 0.0
C1927 C 0.3102 0.13161 0.3977 0.0
C1928 C 0.22542 0.11404 0.38728 0.0
C1929 C 0.26395 0.13261 0.38723 0.0
C1930 C 0.20237 0.11464 0.38208 0.0
C1931 C 0.19323 0.13331 0.37086 0.0
C1932 C 0.2395 0.13222 0.38123 0.0
C1933 C 0.20803 0.15078 0.36448 0.0
C1934 C 0.27813 0.1505 0.38061 0.0
C1935 C 0.29529 0.11446 0.40466 0.0
N1936 N 0.23034 0.14984 0.36983 0.0
N1937 N 0.27299 0.11532 0.39923 0.0
H1938 H 0.35424 0.69704 0.82743 0.0
H1939 H 0.38831 0.80974 0.89524 0.0
H1940 H 0.40363 0.69777 0.88093 0.0
H1941 H 0.3386 0.80681 0.84207 0.0
H1942 H 0.39432 0.76902 0.89077 0.0
H1943 H 0.34937 0.73757 0.83222 0.0
C1944 C 0.36429 0.70575 0.84004 0.0
C1945 C 0.37938 0.69386 0.85379 0.0
C1946 C 0.38202 0.77729 0.88017 0.0
C1947 C 0.37359 0.74058 0.85964 0.0
C1948 C 0.37845 0.80053 0.88283 0.0
C1949 C 0.36288 0.81181 0.86903 0.0
C1950 C 0.36997 0.7652 0.86359 0.0
C1951 C 0.35077 0.79895 0.85311 0.0
C1952 C 0.36139 0.72896 0.84286 0.0
C1953 C 0.39188 0.7062 0.86987 0.0
N1954 N 0.35462 0.77646 0.8508 0.0
N1955 N 0.38861 0.72884 0.87244 0.0
H1956 H 0.6969 0.8983 0.42276 0.0
H1957 H 0.80663 0.86778 0.34967 0.0
H1958 H 0.69542 0.85065 0.36758 0.0
H1959 H 0.80679 0.91331 0.40661 0.0
H1960 H 0.76598 0.86167 0.35508 0.0
H1961 H 0.73733 0.90345 0.41702 0.0
C1962 C 0.70511 0.88869 0.40957 0.0
C1963 C 0.69263 0.874 0.39565 0.0
C1964 C 0.77492 0.87308 0.36631 0.0
C1965 C 0.7392 0.88013 0.3887 0.0
C1966 C 0.79811 0.87672 0.36312 0.0
C1967 C 0.81024 0.89111 0.37769 0.0
C1968 C 0.76373 0.88392 0.38419 0.0
C1969 C 0.79825 0.90206 0.39494 0.0
C1970 C 0.72825 0.89174 0.40622 0.0
C1971 C 0.70432 0.86208 0.37881 0.0
N1972 N 0.77579 0.89819 0.39772 0.0
N1973 N 0.72689 0.86551 0.37572 0.0
H1974 H 0.62406 0.18876 0.90084 0.0
H1975 H 0.66136 0.29851 0.83121 0.0
H1976 H 0.67385 0.18801 0.84786 0.0
H1977 H 0.60473 0.2977 0.87683 0.0
H1978 H 0.66683 0.2583 0.83798 0.0
H1979 H 0.61819 0.22908 0.89407 0.0
C1980 C 0.63399 0.19709 0.888 0.0
C1981 C 0.64952 0.18489 0.87493 0.0
C1982 C 0.6531 0.26685 0.84642 0.0
C1983 C 0.64264 0.23108 0.86688 0.0
C1984 C 0.64989 0.28984 0.84247 0.0
C1985 C 0.63253 0.30161 0.85343 0.0
C1986 C 0.63899 0.2554 0.86164 0.0
C1987 C 0.61828 0.28938 0.86791 0.0
C1988 C 0.63048 0.2201 0.88401 0.0
C1989 C 0.66171 0.19665 0.85837 0.0
N1990 N 0.62192 0.26702 0.87171 0.0
N1991 N 0.65799 0.21899 0.85482 0.0
H1992 H 0.31438 0.88282 0.60181 0.0
H1993 H 0.20486 0.84505 0.67191 0.0
H1994 H 0.31474 0.83186 0.65352 0.0
H1995 H 0.20437 0.89965 0.62407 0.0
H1996 H 0.24519 0.84027 0.6653 0.0
H1997 H 0.27402 0.88866 0.6087 0.0
C1998 C 0.30595 0.87264 0.6144 0.0
C1999 C 0.31805 0.85677 0.62707 0.0
C2000 C 0.23635 0.85343 0.65635 0.0
C2001 C 0.27185 0.86363 0.63527 0.0
C2002 C 0.21328 0.85626 0.66022 0.0
C2003 C 0.20111 0.87281 0.64858 0.0
C2004 C 0.24748 0.86712 0.64055 0.0
C2005 C 0.21303 0.88676 0.63356 0.0
C2006 C 0.28293 0.87613 0.61845 0.0
C2007 C 0.30619 0.84427 0.64331 0.0
N2008 N 0.23549 0.88349 0.62986 0.0
N2009 N 0.28386 0.84799 0.64695 0.0
H2010 H 0.58359 0.6997 0.09128 0.0
H2011 H 0.6503 0.81349 0.12428 0.0
H2012 H 0.63824 0.70117 0.13942 0.0
H2013 H 0.59373 0.81038 0.07849 0.0
H2014 H 0.64753 0.77244 0.12916 0.0
H2015 H 0.58763 0.74032 0.08645 0.0
C2016 C 0.59634 0.70858 0.10103 0.0
C2017 C 0.61057 0.69689 0.11581 0.0
C2018 C 0.63583 0.78075 0.11794 0.0
C2019 C 0.61554 0.74373 0.11007 0.0
C2020 C 0.63753 0.80418 0.11498 0.0
C2021 C 0.62221 0.8155 0.10094 0.0
C2022 C 0.61872 0.76852 0.10676 0.0
C2023 C 0.60589 0.80249 0.08952 0.0
C2024 C 0.59871 0.73185 0.09817 0.0
C2025 C 0.62679 0.70945 0.12792 0.0
N2026 N 0.60454 0.77983 0.09275 0.0
N2027 N 0.62891 0.73215 0.1247 0.0
H2028 H 0.79854 0.09847 0.63815 0.0
H2029 H 0.68945 0.17423 0.66254 0.0
H2030 H 0.80082 0.16165 0.67454 0.0
H2031 H 0.68916 0.11803 0.61608 0.0
H2032 H 0.72984 0.16875 0.66863 0.0
H2033 H 0.75795 0.10357 0.63234 0.0
C2034 C 0.79051 0.11327 0.64519 0.0
C2035 C 0.80324 0.12968 0.65682 0.0
C2036 C 0.72101 0.15769 0.65699 0.0
C2037 C 0.75668 0.13572 0.65002 0.0
C2038 C 0.69791 0.16087 0.65342 0.0
C2039 C 0.68582 0.14663 0.6387 0.0
C2040 C 0.7322 0.13996 0.64596 0.0
C2041 C 0.69777 0.12953 0.62745 0.0
C2042 C 0.76733 0.11625 0.64169 0.0
C2043 C 0.79179 0.14854 0.66545 0.0
N2044 N 0.72023 0.12659 0.63143 0.0
N2045 N 0.76925 0.15105 0.66183 0.0
H2046 H 0.36 0.19948 0.0968 0.0
H2047 H 0.38567 0.32015 0.15398 0.0
H2048 H 0.36612 0.21019 0.16855 0.0
H2049 H 0.36832 0.31164 0.0838 0.0
H2050 H 0.38132 0.27931 0.15914 0.0
H2051 H 0.36491 0.24024 0.09117 0.0
C2052 C 0.3622 0.21037 0.11135 0.0
C2053 C 0.36262 0.20133 0.13316 0.0
C2054 C 0.37853 0.2864 0.14259 0.0
C2055 C 0.36858 0.24791 0.12686 0.0
C2056 C 0.38116 0.3097 0.13964 0.0
C2057 C 0.37731 0.31937 0.11846 0.0
C2058 C 0.37216 0.27265 0.12422 0.0
C2059 C 0.37136 0.30497 0.10048 0.0
C2060 C 0.36508 0.23362 0.10814 0.0
C2061 C 0.36566 0.2163 0.1514 0.0
N2062 N 0.36896 0.2824 0.10376 0.0
N2063 N 0.36861 0.23874 0.14783 0.0
H2064 H 0.0923 0.42383 0.209 0.0
H2065 H 0.14687 0.35291 0.3098 0.0
H2066 H 0.12241 0.35825 0.20025 0.0
H2067 H 0.11264 0.41623 0.31994 0.0
H2068 H 0.13909 0.35536 0.26954 0.0
H2069 H 0.09957 0.42153 0.24946 0.0
C2070 C 0.10022 0.40881 0.21558 0.0
C2071 C 0.10675 0.3912 0.20108 0.0
C2072 C 0.13335 0.36879 0.28051 0.0
C2073 C 0.11546 0.38864 0.24758 0.0
C2074 C 0.1379 0.36749 0.30357 0.0
C2075 C 0.13041 0.3844 0.31841 0.0
C2076 C 0.12117 0.38716 0.27203 0.0
C2077 C 0.11883 0.40283 0.3092 0.0
C2078 C 0.10447 0.40757 0.23873 0.0
C2079 C 0.117 0.37221 0.2107 0.0
N2080 N 0.11451 0.40367 0.28664 0.0
N2081 N 0.12115 0.37151 0.23327 0.0
H2082 H 0.17164 0.66127 0.68668 0.0
H2083 H 0.09459 0.61358 0.78697 0.0
H2084 H 0.12744 0.60349 0.67993 0.0
H2085 H 0.14276 0.66781 0.79585 0.0
H2086 H 0.1054 0.61081 0.7474 0.0
H2087 H 0.16119 0.66425 0.72642 0.0
C2088 C 0.15994 0.64901 0.69358 0.0
C2089 C 0.15045 0.63206 0.67982 0.0
C2090 C 0.11355 0.6234 0.75794 0.0
C2091 C 0.13808 0.63567 0.72544 0.0
C2092 C 0.10727 0.62512 0.78057 0.0
C2093 C 0.11775 0.64098 0.7949 0.0
C2094 C 0.13048 0.63764 0.74936 0.0
C2095 C 0.13414 0.65537 0.78551 0.0
C2096 C 0.15389 0.65082 0.7163 0.0
C2097 C 0.1353 0.61678 0.68981 0.0
N2098 N 0.14004 0.6533 0.7634 0.0
N2099 N 0.12951 0.61903 0.71191 0.0
H2100 H 0.90365 0.617 0.1941 0.0
H2101 H 0.83141 0.65083 0.30311 0.0
H2102 H 0.84553 0.66053 0.19202 0.0
H2103 H 0.88306 0.59979 0.30377 0.0
H2104 H 0.83686 0.65513 0.26257 0.0
H2105 H 0.8978 0.61204 0.2346 0.0
C2106 C 0.88984 0.62577 0.20217 0.0
C2107 C 0.87506 0.63921 0.18954 0.0
C2108 C 0.84688 0.64284 0.27152 0.0
C2109 C 0.86809 0.63335 0.23596 0.0
C2110 C 0.84368 0.64028 0.29469 0.0
C2111 C 0.85675 0.6249 0.30694 0.0
C2112 C 0.86345 0.6301 0.26042 0.0
C2113 C 0.87248 0.61176 0.29505 0.0
C2114 C 0.88639 0.62276 0.22529 0.0
C2115 C 0.85737 0.65001 0.20099 0.0
N2116 N 0.87552 0.6148 0.27251 0.0
N2117 N 0.85437 0.6468 0.22347 0.0
H2118 H 0.90473 0.35328 0.81483 0.0
H2119 H 0.83337 0.36643 0.70071 0.0
H2120 H 0.83295 0.34092 0.81111 0.0
H2121 H 0.90579 0.3593 0.70239 0.0
H2122 H 0.83255 0.36118 0.74182 0.0
H2123 H 0.90527 0.35891 0.77397 0.0
C2124 C 0.88913 0.35155 0.80543 0.0
C2125 C 0.86881 0.3465 0.81647 0.0
C2126 C 0.8486 0.36082 0.73312 0.0
C2127 C 0.8692 0.35338 0.76971 0.0
C2128 C 0.84907 0.36396 0.70971 0.0
C2129 C 0.86965 0.3632 0.69808 0.0
C2130 C 0.86888 0.35721 0.74494 0.0
C2131 C 0.8895 0.35984 0.7106 0.0
C2132 C 0.88942 0.35484 0.7821 0.0
C2133 C 0.84906 0.34465 0.80336 0.0
N2134 N 0.88862 0.35702 0.73327 0.0
N2135 N 0.84973 0.34822 0.78074 0.0
H2136 H 0.69647 0.873 0.58955 0.0
H2137 H 0.81713 0.87 0.65153 0.0
H2138 H 0.70612 0.84711 0.65671 0.0
H2139 H 0.80659 0.8955 0.58436 0.0
H2140 H 0.77655 0.8619 0.65418 0.0
H2141 H 0.73699 0.88066 0.58724 0.0
C2142 C 0.70711 0.86867 0.60372 0.0
C2143 C 0.69777 0.85939 0.62336 0.0
C2144 C 0.78313 0.86937 0.63891 0.0
C2145 C 0.74431 0.86847 0.62097 0.0
C2146 C 0.80629 0.87415 0.63746 0.0
C2147 C 0.81536 0.88345 0.6177 0.0
C2148 C 0.76892 0.87391 0.62046 0.0
C2149 C 0.80045 0.88829 0.59993 0.0
C2150 C 0.73028 0.87319 0.60245 0.0
C2151 C 0.7125 0.85426 0.64121 0.0
N2152 N 0.77808 0.88341 0.60171 0.0
N2153 N 0.73496 0.85896 0.63963 0.0
H2154 H 0.64401 0.20412 0.1291 0.0
H2155 H 0.5656 0.31216 0.10825 0.0
H2156 H 0.58357 0.20345 0.08843 0.0
H2157 H 0.62717 0.31521 0.14711 0.0
H2158 H 0.57157 0.27193 0.10217 0.0
H2159 H 0.63859 0.2446 0.13602 0.0
C2160 C 0.6298 0.2125 0.12134 0.0
C2161 C 0.61424 0.20026 0.10812 0.0
C2162 C 0.58374 0.28132 0.11215 0.0
C2163 C 0.60771 0.24656 0.11635 0.0
C2164 C 0.58025 0.30435 0.11579 0.0
C2165 C 0.5959 0.31725 0.1282 0.0
C2166 C 0.60309 0.27091 0.12093 0.0
C2167 C 0.61461 0.30603 0.13744 0.0
C2168 C 0.62661 0.2356 0.12547 0.0
C2169 C 0.59602 0.21208 0.09874 0.0
N2170 N 0.61775 0.28357 0.13351 0.0
N2171 N 0.59323 0.23443 0.10311 0.0
H2172 H 0.18796 0.10451 0.65837 0.0
H2173 H 0.30626 0.15526 0.61447 0.0
H2174 H 0.19383 0.16302 0.61567 0.0
H2175 H 0.30037 0.09444 0.65381 0.0
H2176 H 0.26507 0.15926 0.61595 0.0
H2177 H 0.22929 0.10126 0.65819 0.0
C2178 C 0.19789 0.11667 0.64902 0.0
C2179 C 0.18734 0.13401 0.63699 0.0
C2180 C 0.27283 0.14505 0.62428 0.0
C2181 C 0.23461 0.13045 0.6367 0.0
C2182 C 0.29636 0.1428 0.62344 0.0
C2183 C 0.30685 0.12448 0.63395 0.0
C2184 C 0.2597 0.12889 0.63577 0.0
C2185 C 0.2931 0.10882 0.64536 0.0
C2186 C 0.22148 0.11482 0.64889 0.0
C2187 C 0.20113 0.14931 0.62516 0.0
N2188 N 0.27032 0.11138 0.64595 0.0
N2189 N 0.22394 0.14716 0.6253 0.0
H2190 H 0.40841 0.81471 0.07605 0.0
H2191 H 0.37651 0.70454 0.14754 0.0
H2192 H 0.35632 0.81437 0.12681 0.0
H2193 H 0.43168 0.70832 0.10026 0.0
H2194 H 0.36842 0.74442 0.14043 0.0
H2195 H 0.41571 0.77509 0.08383 0.0
C2196 C 0.39828 0.80624 0.08865 0.0
C2197 C 0.38172 0.81799 0.10079 0.0
C2198 C 0.38239 0.73654 0.13176 0.0
C2199 C 0.39029 0.77242 0.11009 0.0
C2200 C 0.38715 0.7138 0.13595 0.0
C2201 C 0.40482 0.70297 0.12448 0.0
C2202 C 0.39533 0.74853 0.11593 0.0
C2203 C 0.41787 0.71585 0.10949 0.0
C2204 C 0.40258 0.78359 0.09321 0.0
C2205 C 0.36919 0.80601 0.11696 0.0
N2206 N 0.41279 0.73782 0.10558 0.0
N2207 N 0.37381 0.78393 0.12122 0.0
H2208 H 0.69372 0.0815 0.42299 0.0
H2209 H 0.80823 0.11898 0.36131 0.0
H2210 H 0.69841 0.14012 0.38033 0.0
H2211 H 0.80117 0.05871 0.40131 0.0
H2212 H 0.76825 0.12712 0.36765 0.0
H2213 H 0.73349 0.07385 0.41601 0.0
C2214 C 0.70317 0.09296 0.41236 0.0
C2215 C 0.6926 0.1115 0.40225 0.0
C2216 C 0.77542 0.11202 0.37489 0.0
C2217 C 0.73835 0.10258 0.39385 0.0
C2218 C 0.79824 0.10725 0.37113 0.0
C2219 C 0.8082 0.08809 0.38079 0.0
C2220 C 0.76241 0.0976 0.38847 0.0
C2221 C 0.79434 0.07366 0.39349 0.0
C2222 C 0.72591 0.08848 0.40825 0.0
C2223 C 0.70582 0.12569 0.38859 0.0
N2224 N 0.77227 0.07877 0.39706 0.0
N2225 N 0.72795 0.12087 0.3847 0.0
H2226 H 0.39292 0.30355 0.91441 0.0
H2227 H 0.35518 0.19834 0.83772 0.0
H2228 H 0.37599 0.30965 0.84398 0.0
H2229 H 0.37402 0.19289 0.90774 0.0
H2230 H 0.36156 0.23906 0.8398 0.0
H2231 H 0.38611 0.26306 0.91202 0.0
C2232 C 0.38797 0.29635 0.89833 0.0
C2233 C 0.38503 0.31013 0.87935 0.0
C2234 C 0.36418 0.22899 0.85475 0.0
C2235 C 0.37686 0.26346 0.87658 0.0
C2236 C 0.3604 0.2057 0.85364 0.0
C2237 C 0.36409 0.19204 0.87259 0.0
C2238 C 0.37174 0.23883 0.87497 0.0
C2239 C 0.3709 0.20266 0.8927 0.0
C2240 C 0.38398 0.27316 0.89702 0.0
C2241 C 0.37859 0.29972 0.85901 0.0
N2242 N 0.3746 0.22535 0.89332 0.0
N2243 N 0.37461 0.27704 0.85819 0.0
H2244 H 0.19731 0.9356 0.40008 0.0
H2245 H 0.30512 0.8589 0.37211 0.0
H2246 H 0.19491 0.87958 0.35342 0.0
H2247 H 0.30584 0.91514 0.41854 0.0
H2248 H 0.26483 0.86547 0.36528 0.0
H2249 H 0.23734 0.92851 0.40624 0.0
C2250 C 0.20524 0.92197 0.39088 0.0
C2251 C 0.1926 0.90821 0.37617 0.0
C2252 C 0.27379 0.87627 0.37707 0.0
C2253 C 0.23868 0.89969 0.38349 0.0
C2254 C 0.29678 0.8724 0.38114 0.0
C2255 C 0.30898 0.88646 0.39597 0.0
C2256 C 0.26289 0.89434 0.38789 0.0
C2257 C 0.29723 0.90385 0.40696 0.0
C2258 C 0.22815 0.91782 0.39453 0.0
C2259 C 0.20394 0.89073 0.36482 0.0
N2260 N 0.27497 0.90732 0.40264 0.0
N2261 N 0.22626 0.8869 0.36881 0.0
H2262 H 0.63802 0.68282 0.84152 0.0
H2263 H 0.63208 0.80283 0.9048 0.0
H2264 H 0.60417 0.69388 0.90493 0.0
H2265 H 0.66144 0.79394 0.83887 0.0
H2266 H 0.62354 0.76244 0.9058 0.0
H2267 H 0.6475 0.72317 0.84028 0.0
C2268 C 0.63235 0.69372 0.85504 0.0
C2269 C 0.62025 0.68485 0.87334 0.0
C2270 C 0.63196 0.76929 0.89115 0.0
C2271 C 0.63138 0.73102 0.87223 0.0
C2272 C 0.63701 0.79237 0.89065 0.0
C2273 C 0.6475 0.80191 0.87171 0.0
C2274 C 0.63743 0.7555 0.8726 0.0
C2275 C 0.65333 0.78741 0.85383 0.0
C2276 C 0.6379 0.71675 0.8544 0.0
C2277 C 0.61353 0.69985 0.89046 0.0
N2278 N 0.64815 0.76501 0.85467 0.0
N2279 N 0.61925 0.72207 0.88953 0.0
H2280 H 0.91674 0.62971 0.80852 0.0
H2281 H 0.85243 0.61496 0.69027 0.0
H2282 H 0.84445 0.63533 0.80159 0.0
H2283 H 0.92399 0.62759 0.69628 0.0
H2284 H 0.8491 0.61851 0.73147 0.0
H2285 H 0.91976 0.62587 0.76754 0.0
C2286 C 0.90153 0.63035 0.7984 0.0
C2287 C 0.88033 0.63293 0.80857 0.0
C2288 C 0.86552 0.62044 0.7237 0.0
C2289 C 0.88361 0.6281 0.76164 0.0
C2290 C 0.86743 0.61826 0.70024 0.0
C2291 C 0.88849 0.62106 0.68981 0.0
C2292 C 0.88484 0.62518 0.73676 0.0
C2293 C 0.90737 0.62545 0.70355 0.0
C2294 C 0.90325 0.62807 0.775 0.0
C2295 C 0.86118 0.63349 0.79454 0.0
N2296 N 0.90511 0.62734 0.72623 0.0
N2297 N 0.86326 0.63094 0.77185 0.0
H2298 H 0.84165 0.39054 0.31745 0.0
H2299 H 0.88999 0.33772 0.20218 0.0
H2300 H 0.88313 0.33096 0.31442 0.0
H2301 H 0.84832 0.39717 0.20545 0.0
H2302 H 0.88732 0.33453 0.24334 0.0
H2303 H 0.84334 0.39289 0.27621 0.0
C2304 C 0.85102 0.37794 0.30815 0.0
C2305 C 0.86227 0.36058 0.31946 0.0
C2306 C 0.87875 0.34825 0.23499 0.0
C2307 C 0.86437 0.36314 0.27231 0.0
C2308 C 0.8803 0.35006 0.2115 0.0
C2309 C 0.86941 0.36773 0.20029 0.0
C2310 C 0.86624 0.36423 0.24733 0.0
C2311 C 0.85704 0.38325 0.21328 0.0
C2312 C 0.85203 0.37928 0.28461 0.0
C2313 C 0.87421 0.3447 0.30649 0.0
N2314 N 0.85582 0.38115 0.23601 0.0
N2315 N 0.87497 0.34639 0.2837 0.0
H2316 H 0.07413 0.42189 0.81686 0.0
H2317 H 0.13607 0.38238 0.70334 0.0
H2318 H 0.12081 0.36628 0.81464 0.0
H2319 H 0.09402 0.44139 0.70858 0.0
H2320 H 0.13064 0.37566 0.7437 0.0
H2321 H 0.08005 0.42785 0.77669 0.0
C2322 C 0.08543 0.41071 0.8079 0.0
C2323 C 0.09698 0.39354 0.81929 0.0
C2324 C 0.12274 0.39016 0.73603 0.0
C2325 C 0.10414 0.40055 0.77301 0.0
C2326 C 0.12596 0.39412 0.71299 0.0
C2327 C 0.11551 0.41252 0.70244 0.0
C2328 C 0.10886 0.40463 0.74866 0.0
C2329 C 0.10246 0.42701 0.71588 0.0
C2330 C 0.08893 0.41425 0.78491 0.0
C2331 C 0.11147 0.37969 0.80663 0.0
N2332 N 0.09942 0.42268 0.73816 0.0
N2333 N 0.11471 0.38356 0.78423 0.0
H2334 H 0.15655 0.64111 0.29375 0.0
H2335 H 0.08704 0.60499 0.18306 0.0
H2336 H 0.11077 0.58429 0.29023 0.0
H2337 H 0.13595 0.65922 0.18349 0.0
H2338 H 0.09461 0.59856 0.22287 0.0
H2339 H 0.14941 0.64847 0.25375 0.0
C2340 C 0.14526 0.62997 0.28454 0.0
C2341 C 0.13428 0.612 0.29548 0.0
C2342 C 0.10363 0.61197 0.21436 0.0
C2343 C 0.12569 0.62065 0.24971 0.0
C2344 C 0.09919 0.61577 0.19158 0.0
C2345 C 0.11085 0.63269 0.17978 0.0
C2346 C 0.11993 0.62513 0.22564 0.0
C2347 C 0.12645 0.64606 0.19186 0.0
C2348 C 0.14106 0.6343 0.26171 0.0
C2349 C 0.11967 0.59831 0.28262 0.0
N2350 N 0.13062 0.64191 0.21407 0.0
N2351 N 0.11574 0.60299 0.26055 0.0
loop_
_geom_bond_atom_site_label_1
_geom_bond_atom_site_label_2
_geom_bond_distance
_geom_bond_site_symmetry_2
_ccdc_geom_bond_type
C0 O1 1.160 . S
C0 O7 1.185 . S
O1 C0 1.160 . S
O2 Zn3 1.899 . S
O2 C10 1.284 . S
Zn3 O2 1.899 . S
Zn3 O4 2.032 . S
Zn3 O7 2.086 . S
Zn3 O12 1.977 . S
O4 Zn3 2.032 . S
O4 C8 1.278 . S
C5 O6 1.203 . S
C5 O12 1.267 . S
O6 C5 1.203 . S
O7 C0 1.185 . S
O7 Zn3 2.086 . S
C8 O4 1.278 . S
C8 O9 1.211 . S
O9 C8 1.211 . S
C10 O2 1.284 . S
C10 O11 1.273 . S
O11 C10 1.273 . S
O12 Zn3 1.977 . S
O12 C5 1.267 . S
C13 O14 1.160 . S
C13 O20 1.185 . S
O14 C13 1.160 . S
O15 Zn16 1.899 . S
O15 C23 1.284 . S
Zn16 O15 1.899 . S
Zn16 O17 2.032 . S
Zn16 O20 2.086 . S
Zn16 O25 1.977 . S
O17 Zn16 2.032 . S
O17 C21 1.278 . S
C18 O19 1.203 . S
C18 O25 1.267 . S
O19 C18 1.203 . S
O20 C13 1.185 . S
O20 Zn16 2.086 . S
C21 O17 1.278 . S
C21 O22 1.211 . S
O22 C21 1.211 . S
C23 O15 1.284 . S
C23 O24 1.273 . S
O24 C23 1.273 . S
O25 Zn16 1.977 . S
O25 C18 1.267 . S
C26 O27 1.160 . S
C26 O33 1.185 . S
O27 C26 1.160 . S
O28 Zn29 1.899 . S
O28 C36 1.284 . S
Zn29 O28 1.899 . S
Zn29 O30 2.032 . S
Zn29 O33 2.086 . S
Zn29 O38 1.977 . S
O30 Zn29 2.032 . S
O30 C34 1.278 . S
C31 O32 1.203 . S
C31 O38 1.267 . S
O32 C31 1.203 . S
O33 C26 1.185 . S
O33 Zn29 2.086 . S
C34 O30 1.278 . S
C34 O35 1.211 . S
O35 C34 1.211 . S
C36 O28 1.284 . S
C36 O37 1.273 . S
O37 C36 1.273 . S
O38 Zn29 1.977 . S
O38 C31 1.267 . S
C39 O40 1.160 . S
C39 O46 1.185 . S
O40 C39 1.160 . S
O41 Zn42 1.899 . S
O41 C49 1.284 . S
Zn42 O41 1.899 . S
Zn42 O43 2.032 . S
Zn42 O46 2.086 . S
Zn42 O51 1.977 . S
O43 Zn42 2.032 . S
O43 C47 1.278 . S
C44 O45 1.203 . S
C44 O51 1.267 . S
O45 C44 1.203 . S
O46 C39 1.185 . S
O46 Zn42 2.086 . S
C47 O43 1.278 . S
C47 O48 1.211 . S
O48 C47 1.211 . S
C49 O41 1.284 . S
C49 O50 1.273 . S
O50 C49 1.273 . S
O51 Zn42 1.977 . S
O51 C44 1.267 . S
C52 O53 1.160 . S
C52 O59 1.185 . S
O53 C52 1.160 . S
O54 Zn55 1.899 . S
O54 C62 1.284 . S
Zn55 O54 1.899 . S
Zn55 O56 2.032 . S
Zn55 O59 2.086 . S
Zn55 O64 1.977 . S
O56 Zn55 2.032 . S
O56 C60 1.278 . S
C57 O58 1.203 . S
C57 O64 1.267 . S
O58 C57 1.203 . S
O59 C52 1.185 . S
O59 Zn55 2.086 . S
C60 O56 1.278 . S
C60 O61 1.211 . S
O61 C60 1.211 . S
C62 O54 1.284 . S
C62 O63 1.273 . S
O63 C62 1.273 . S
O64 Zn55 1.977 . S
O64 C57 1.267 . S
C65 O66 1.160 . S
C65 O72 1.185 . S
O66 C65 1.160 . S
O67 Zn68 1.899 . S
O67 C75 1.284 . S
Zn68 O67 1.899 . S
Zn68 O69 2.032 . S
Zn68 O72 2.086 . S
Zn68 O77 1.977 . S
O69 Zn68 2.032 . S
O69 C73 1.278 . S
C70 O71 1.203 . S
C70 O77 1.267 . S
O71 C70 1.203 . S
O72 C65 1.185 . S
O72 Zn68 2.086 . S
C73 O69 1.278 . S
C73 O74 1.211 . S
O74 C73 1.211 . S
C75 O67 1.284 . S
C75 O76 1.273 . S
O76 C75 1.273 . S
O77 Zn68 1.977 . S
O77 C70 1.267 . S
C78 O79 1.160 . S
C78 O85 1.185 . S
O79 C78 1.160 . S
O80 Zn81 1.899 . S
O80 C88 1.284 . S
Zn81 O80 1.899 . S
Zn81 O82 2.032 . S
Zn81 O85 2.086 . S
Zn81 O90 1.977 . S
O82 Zn81 2.032 . S
O82 C86 1.278 . S
C83 O84 1.203 . S
C83 O90 1.267 . S
O84 C83 1.203 . S
O85 C78 1.185 . S
O85 Zn81 2.086 . S
C86 O82 1.278 . S
C86 O87 1.211 . S
O87 C86 1.211 . S
C88 O80 1.284 . S
C88 O89 1.273 . S
O89 C88 1.273 . S
O90 Zn81 1.977 . S
O90 C83 1.267 . S
C91 O92 1.160 . S
C91 O98 1.185 . S
O92 C91 1.160 . S
O93 Zn94 1.899 . S
O93 C101 1.284 . S
Zn94 O93 1.899 . S
Zn94 O95 2.032 . S
Zn94 O98 2.086 . S
Zn94 O103 1.977 . S
O95 Zn94 2.032 . S
O95 C99 1.278 . S
C96 O97 1.203 . S
C96 O103 1.267 . S
O97 C96 1.203 . S
O98 C91 1.185 . S
O98 Zn94 2.086 . S
C99 O95 1.278 . S
C99 O100 1.211 . S
O100 C99 1.211 . S
C101 O93 1.284 . S
C101 O102 1.273 . S
O102 C101 1.273 . S
O103 Zn94 1.977 . S
O103 C96 1.267 . S
C104 O105 1.160 . S
C104 O111 1.185 . S
O105 C104 1.160 . S
O106 Zn107 1.899 . S
O106 C114 1.284 . S
Zn107 O106 1.899 . S
Zn107 O108 2.032 . S
Zn107 O111 2.086 . S
Zn107 O116 1.977 . S
O108 Zn107 2.032 . S
O108 C112 1.278 . S
C109 O110 1.203 . S
C109 O116 1.267 . S
O110 C109 1.203 . S
O111 C104 1.185 . S
O111 Zn107 2.086 . S
C112 O108 1.278 . S
C112 O113 1.211 . S
O113 C112 1.211 . S
C114 O106 1.284 . S
C114 O115 1.273 . S
O115 C114 1.273 . S
O116 Zn107 1.977 . S
O116 C109 1.267 . S
C117 O118 1.160 . S
C117 O124 1.185 . S
O118 C117 1.160 . S
O119 Zn120 1.899 . S
O119 C127 1.284 . S
Zn120 O119 1.899 . S
Zn120 O121 2.032 . S
Zn120 O124 2.086 . S
Zn120 O129 1.977 . S
O121 Zn120 2.032 . S
O121 C125 1.278 . S
C122 O123 1.203 . S
C122 O129 1.267 . S
O123 C122 1.203 . S
O124 C117 1.185 . S
O124 Zn120 2.086 . S
C125 O121 1.278 . S
C125 O126 1.211 . S
O126 C125 1.211 . S
C127 O119 1.284 . S
C127 O128 1.273 . S
O128 C127 1.273 . S
O129 Zn120 1.977 . S
O129 C122 1.267 . S
C130 O131 1.160 . S
C130 O137 1.185 . S
O131 C130 1.160 . S
O132 Zn133 1.899 . S
O132 C140 1.284 . S
Zn133 O132 1.899 . S
Zn133 O134 2.032 . S
Zn133 O137 2.086 . S
Zn133 O142 1.977 . S
O134 Zn133 2.032 . S
O134 C138 1.278 . S
C135 O136 1.203 . S
C135 O142 1.267 . S
O136 C135 1.203 . S
O137 C130 1.185 . S
O137 Zn133 2.086 . S
C138 O134 1.278 . S
C138 O139 1.211 . S
O139 C138 1.211 . S
C140 O132 1.284 . S
C140 O141 1.273 . S
O141 C140 1.273 . S
O142 Zn133 1.977 . S
O142 C135 1.267 . S
C143 O144 1.160 . S
C143 O150 1.185 . S
O144 C143 1.160 . S
O145 Zn146 1.899 . S
O145 C153 1.284 . S
Zn146 O145 1.899 . S
Zn146 O147 2.032 . S
Zn146 O150 2.086 . S
Zn146 O155 1.977 . S
O147 Zn146 2.032 . S
O147 C151 1.278 . S
C148 O149 1.203 . S
C148 O155 1.267 . S
O149 C148 1.203 . S
O150 C143 1.185 . S
O150 Zn146 2.086 . S
C151 O147 1.278 . S
C151 O152 1.211 . S
O152 C151 1.211 . S
C153 O145 1.284 . S
C153 O154 1.273 . S
O154 C153 1.273 . S
O155 Zn146 1.977 . S
O155 C148 1.267 . S
C156 O157 1.160 . S
C156 O163 1.185 . S
O157 C156 1.160 . S
O158 Zn159 1.899 . S
O158 C166 1.284 . S
Zn159 O158 1.899 . S
Zn159 O160 2.032 . S
Zn159 O163 2.086 . S
Zn159 O168 1.977 . S
O160 Zn159 2.032 . S
O160 C164 1.278 . S
C161 O162 1.203 . S
C161 O168 1.267 . S
O162 C161 1.203 . S
O163 C156 1.185 . S
O163 Zn159 2.086 . S
C164 O160 1.278 . S
C164 O165 1.211 . S
O165 C164 1.211 . S
C166 O158 1.284 . S
C166 O167 1.273 . S
O167 C166 1.273 . S
O168 Zn159 1.977 . S
O168 C161 1.267 . S
C169 O170 1.160 . S
C169 O176 1.185 . S
O170 C169 1.160 . S
O171 Zn172 1.899 . S
O171 C179 1.284 . S
Zn172 O171 1.899 . S
Zn172 O173 2.032 . S
Zn172 O176 2.086 . S
Zn172 O181 1.977 . S
O173 Zn172 2.032 . S
O173 C177 1.278 . S
C174 O175 1.203 . S
C174 O181 1.267 . S
O175 C174 1.203 . S
O176 C169 1.185 . S
O176 Zn172 2.086 . S
C177 O173 1.278 . S
C177 O178 1.211 . S
O178 C177 1.211 . S
C179 O171 1.284 . S
C179 O180 1.273 . S
O180 C179 1.273 . S
O181 Zn172 1.977 . S
O181 C174 1.267 . S
C182 O183 1.160 . S
C182 O189 1.185 . S
O183 C182 1.160 . S
O184 Zn185 1.899 . S
O184 C192 1.284 . S
Zn185 O184 1.899 . S
Zn185 O186 2.032 . S
Zn185 O189 2.086 . S
Zn185 O194 1.977 . S
O186 Zn185 2.032 . S
O186 C190 1.278 . S
C187 O188 1.203 . S
C187 O194 1.267 . S
O188 C187 1.203 . S
O189 C182 1.185 . S
O189 Zn185 2.086 . S
C190 O186 1.278 . S
C190 O191 1.211 . S
O191 C190 1.211 . S
C192 O184 1.284 . S
C192 O193 1.273 . S
O193 C192 1.273 . S
O194 Zn185 1.977 . S
O194 C187 1.267 . S
C195 O196 1.160 . S
C195 O202 1.185 . S
O196 C195 1.160 . S
O197 Zn198 1.899 . S
O197 C205 1.284 . S
Zn198 O197 1.899 . S
Zn198 O199 2.032 . S
Zn198 O202 2.086 . S
Zn198 O207 1.977 . S
O199 Zn198 2.032 . S
O199 C203 1.278 . S
C200 O201 1.203 . S
C200 O207 1.267 . S
O201 C200 1.203 . S
O202 C195 1.185 . S
O202 Zn198 2.086 . S
C203 O199 1.278 . S
C203 O204 1.211 . S
O204 C203 1.211 . S
C205 O197 1.284 . S
C205 O206 1.273 . S
O206 C205 1.273 . S
O207 Zn198 1.977 . S
O207 C200 1.267 . S
C208 O209 1.160 . S
C208 O215 1.185 . S
O209 C208 1.160 . S
O210 Zn211 1.899 . S
O210 C218 1.284 . S
Zn211 O210 1.899 . S
Zn211 O212 2.032 . S
Zn211 O215 2.086 . S
Zn211 O220 1.977 . S
O212 Zn211 2.032 . S
O212 C216 1.278 . S
C213 O214 1.203 . S
C213 O220 1.267 . S
O214 C213 1.203 . S
O215 C208 1.185 . S
O215 Zn211 2.086 . S
C216 O212 1.278 . S
C216 O217 1.211 . S
O217 C216 1.211 . S
C218 O210 1.284 . S
C218 O219 1.273 . S
O219 C218 1.273 . S
O220 Zn211 1.977 . S
O220 C213 1.267 . S
C221 O222 1.160 . S
C221 O228 1.185 . S
O222 C221 1.160 . S
O223 Zn224 1.899 . S
O223 C231 1.284 . S
Zn224 O223 1.899 . S
Zn224 O225 2.032 . S
Zn224 O228 2.086 . S
Zn224 O233 1.977 . S
O225 Zn224 2.032 . S
O225 C229 1.278 . S
C226 O227 1.203 . S
C226 O233 1.267 . S
O227 C226 1.203 . S
O228 C221 1.185 . S
O228 Zn224 2.086 . S
C229 O225 1.278 . S
C229 O230 1.211 . S
O230 C229 1.211 . S
C231 O223 1.284 . S
C231 O232 1.273 . S
O232 C231 1.273 . S
O233 Zn224 1.977 . S
O233 C226 1.267 . S
C234 O235 1.160 . S
C234 O241 1.185 . S
O235 C234 1.160 . S
O236 Zn237 1.899 . S
O236 C244 1.284 . S
Zn237 O236 1.899 . S
Zn237 O238 2.032 . S
Zn237 O241 2.086 . S
Zn237 O246 1.977 . S
O238 Zn237 2.032 . S
O238 C242 1.278 . S
C239 O240 1.203 . S
C239 O246 1.267 . S
O240 C239 1.203 . S
O241 C234 1.185 . S
O241 Zn237 2.086 . S
C242 O238 1.278 . S
C242 O243 1.211 . S
O243 C242 1.211 . S
C244 O236 1.284 . S
C244 O245 1.273 . S
O245 C244 1.273 . S
O246 Zn237 1.977 . S
O246 C239 1.267 . S
C247 O248 1.160 . S
C247 O254 1.185 . S
O248 C247 1.160 . S
O249 Zn250 1.899 . S
O249 C257 1.284 . S
Zn250 O249 1.899 . S
Zn250 O251 2.032 . S
Zn250 O254 2.086 . S
Zn250 O259 1.977 . S
O251 Zn250 2.032 . S
O251 C255 1.278 . S
C252 O253 1.203 . S
C252 O259 1.267 . S
O253 C252 1.203 . S
O254 C247 1.185 . S
O254 Zn250 2.086 . S
C255 O251 1.278 . S
C255 O256 1.211 . S
O256 C255 1.211 . S
C257 O249 1.284 . S
C257 O258 1.273 . S
O258 C257 1.273 . S
O259 Zn250 1.977 . S
O259 C252 1.267 . S
C260 O261 1.160 . S
C260 O267 1.185 . S
O261 C260 1.160 . S
O262 Zn263 1.899 . S
O262 C270 1.284 . S
Zn263 O262 1.899 . S
Zn263 O264 2.032 . S
Zn263 O267 2.086 . S
Zn263 O272 1.977 . S
O264 Zn263 2.032 . S
O264 C268 1.278 . S
C265 O266 1.203 . S
C265 O272 1.267 . S
O266 C265 1.203 . S
O267 C260 1.185 . S
O267 Zn263 2.086 . S
C268 O264 1.278 . S
C268 O269 1.211 . S
O269 C268 1.211 . S
C270 O262 1.284 . S
C270 O271 1.273 . S
O271 C270 1.273 . S
O272 Zn263 1.977 . S
O272 C265 1.267 . S
C273 O274 1.160 . S
C273 O280 1.185 . S
O274 C273 1.160 . S
O275 Zn276 1.899 . S
O275 C283 1.284 . S
Zn276 O275 1.899 . S
Zn276 O277 2.032 . S
Zn276 O280 2.086 . S
Zn276 O285 1.977 . S
O277 Zn276 2.032 . S
O277 C281 1.278 . S
C278 O279 1.203 . S
C278 O285 1.267 . S
O279 C278 1.203 . S
O280 C273 1.185 . S
O280 Zn276 2.086 . S
C281 O277 1.278 . S
C281 O282 1.211 . S
O282 C281 1.211 . S
C283 O275 1.284 . S
C283 O284 1.273 . S
O284 C283 1.273 . S
O285 Zn276 1.977 . S
O285 C278 1.267 . S
C286 O287 1.160 . S
C286 O293 1.185 . S
O287 C286 1.160 . S
O288 Zn289 1.899 . S
O288 C296 1.284 . S
Zn289 O288 1.899 . S
Zn289 O290 2.032 . S
Zn289 O293 2.086 . S
Zn289 O298 1.977 . S
O290 Zn289 2.032 . S
O290 C294 1.278 . S
C291 O292 1.203 . S
C291 O298 1.267 . S
O292 C291 1.203 . S
O293 C286 1.185 . S
O293 Zn289 2.086 . S
C294 O290 1.278 . S
C294 O295 1.211 . S
O295 C294 1.211 . S
C296 O288 1.284 . S
C296 O297 1.273 . S
O297 C296 1.273 . S
O298 Zn289 1.977 . S
O298 C291 1.267 . S
C299 O300 1.160 . S
C299 O306 1.185 . S
O300 C299 1.160 . S
O301 Zn302 1.899 . S
O301 C309 1.284 . S
Zn302 O301 1.899 . S
Zn302 O303 2.032 . S
Zn302 O306 2.086 . S
Zn302 O311 1.977 . S
O303 Zn302 2.032 . S
O303 C307 1.278 . S
C304 O305 1.203 . S
C304 O311 1.267 . S
O305 C304 1.203 . S
O306 C299 1.185 . S
O306 Zn302 2.086 . S
C307 O303 1.278 . S
C307 O308 1.211 . S
O308 C307 1.211 . S
C309 O301 1.284 . S
C309 O310 1.273 . S
O310 C309 1.273 . S
O311 Zn302 1.977 . S
O311 C304 1.267 . S
C312 O313 1.160 . S
C312 O319 1.185 . S
O313 C312 1.160 . S
O314 Zn315 1.899 . S
O314 C322 1.284 . S
Zn315 O314 1.899 . S
Zn315 O316 2.032 . S
Zn315 O319 2.086 . S
Zn315 O324 1.977 . S
O316 Zn315 2.032 . S
O316 C320 1.278 . S
C317 O318 1.203 . S
C317 O324 1.267 . S
O318 C317 1.203 . S
O319 C312 1.185 . S
O319 Zn315 2.086 . S
C320 O316 1.278 . S
C320 O321 1.211 . S
O321 C320 1.211 . S
C322 O314 1.284 . S
C322 O323 1.273 . S
O323 C322 1.273 . S
O324 Zn315 1.977 . S
O324 C317 1.267 . S
C325 O326 1.160 . S
C325 O332 1.185 . S
O326 C325 1.160 . S
O327 Zn328 1.899 . S
O327 C335 1.284 . S
Zn328 O327 1.899 . S
Zn328 O329 2.032 . S
Zn328 O332 2.086 . S
Zn328 O337 1.977 . S
O329 Zn328 2.032 . S
O329 C333 1.278 . S
C330 O331 1.203 . S
C330 O337 1.267 . S
O331 C330 1.203 . S
O332 C325 1.185 . S
O332 Zn328 2.086 . S
C333 O329 1.278 . S
C333 O334 1.211 . S
O334 C333 1.211 . S
C335 O327 1.284 . S
C335 O336 1.273 . S
O336 C335 1.273 . S
O337 Zn328 1.977 . S
O337 C330 1.267 . S
C338 O339 1.160 . S
C338 O345 1.185 . S
O339 C338 1.160 . S
O340 Zn341 1.899 . S
O340 C348 1.284 . S
Zn341 O340 1.899 . S
Zn341 O342 2.032 . S
Zn341 O345 2.086 . S
Zn341 O350 1.977 . S
O342 Zn341 2.032 . S
O342 C346 1.278 . S
C343 O344 1.203 . S
C343 O350 1.267 . S
O344 C343 1.203 . S
O345 C338 1.185 . S
O345 Zn341 2.086 . S
C346 O342 1.278 . S
C346 O347 1.211 . S
O347 C346 1.211 . S
C348 O340 1.284 . S
C348 O349 1.273 . S
O349 C348 1.273 . S
O350 Zn341 1.977 . S
O350 C343 1.267 . S
C351 O352 1.160 . S
C351 O358 1.185 . S
O352 C351 1.160 . S
O353 Zn354 1.899 . S
O353 C361 1.284 . S
Zn354 O353 1.899 . S
Zn354 O355 2.032 . S
Zn354 O358 2.086 . S
Zn354 O363 1.977 . S
O355 Zn354 2.032 . S
O355 C359 1.278 . S
C356 O357 1.203 . S
C356 O363 1.267 . S
O357 C356 1.203 . S
O358 C351 1.185 . S
O358 Zn354 2.086 . S
C359 O355 1.278 . S
C359 O360 1.211 . S
O360 C359 1.211 . S
C361 O353 1.284 . S
C361 O362 1.273 . S
O362 C361 1.273 . S
O363 Zn354 1.977 . S
O363 C356 1.267 . S
C364 O365 1.160 . S
C364 O371 1.185 . S
O365 C364 1.160 . S
O366 Zn367 1.899 . S
O366 C374 1.284 . S
Zn367 O366 1.899 . S
Zn367 O368 2.032 . S
Zn367 O371 2.086 . S
Zn367 O376 1.977 . S
O368 Zn367 2.032 . S
O368 C372 1.278 . S
C369 O370 1.203 . S
C369 O376 1.267 . S
O370 C369 1.203 . S
O371 C364 1.185 . S
O371 Zn367 2.086 . S
C372 O368 1.278 . S
C372 O373 1.211 . S
O373 C372 1.211 . S
C374 O366 1.284 . S
C374 O375 1.273 . S
O375 C374 1.273 . S
O376 Zn367 1.977 . S
O376 C369 1.267 . S
C377 O378 1.160 . S
C377 O384 1.185 . S
O378 C377 1.160 . S
O379 Zn380 1.899 . S
O379 C387 1.284 . S
Zn380 O379 1.899 . S
Zn380 O381 2.032 . S
Zn380 O384 2.086 . S
Zn380 O389 1.977 . S
O381 Zn380 2.032 . S
O381 C385 1.278 . S
C382 O383 1.203 . S
C382 O389 1.267 . S
O383 C382 1.203 . S
O384 C377 1.185 . S
O384 Zn380 2.086 . S
C385 O381 1.278 . S
C385 O386 1.211 . S
O386 C385 1.211 . S
C387 O379 1.284 . S
C387 O388 1.273 . S
O388 C387 1.273 . S
O389 Zn380 1.977 . S
O389 C382 1.267 . S
C390 O391 1.160 . S
C390 O397 1.185 . S
O391 C390 1.160 . S
O392 Zn393 1.899 . S
O392 C400 1.284 . S
Zn393 O392 1.899 . S
Zn393 O394 2.032 . S
Zn393 O397 2.086 . S
Zn393 O402 1.977 . S
O394 Zn393 2.032 . S
O394 C398 1.278 . S
C395 O396 1.203 . S
C395 O402 1.267 . S
O396 C395 1.203 . S
O397 C390 1.185 . S
O397 Zn393 2.086 . S
C398 O394 1.278 . S
C398 O399 1.211 . S
O399 C398 1.211 . S
C400 O392 1.284 . S
C400 O401 1.273 . S
O401 C400 1.273 . S
O402 Zn393 1.977 . S
O402 C395 1.267 . S
C403 O404 1.160 . S
C403 O410 1.185 . S
O404 C403 1.160 . S
O405 Zn406 1.899 . S
O405 C413 1.284 . S
Zn406 O405 1.899 . S
Zn406 O407 2.032 . S
Zn406 O410 2.086 . S
Zn406 O415 1.977 . S
O407 Zn406 2.032 . S
O407 C411 1.278 . S
C408 O409 1.203 . S
C408 O415 1.267 . S
O409 C408 1.203 . S
O410 C403 1.185 . S
O410 Zn406 2.086 . S
C411 O407 1.278 . S
C411 O412 1.211 . S
O412 C411 1.211 . S
C413 O405 1.284 . S
C413 O414 1.273 . S
O414 C413 1.273 . S
O415 Zn406 1.977 . S
O415 C408 1.267 . S
C416 O417 1.160 . S
C416 O423 1.185 . S
O417 C416 1.160 . S
O418 Zn419 1.899 . S
O418 C426 1.284 . S
Zn419 O418 1.899 . S
Zn419 O420 2.032 . S
Zn419 O423 2.086 . S
Zn419 O428 1.977 . S
O420 Zn419 2.032 . S
O420 C424 1.278 . S
C421 O422 1.203 . S
C421 O428 1.267 . S
O422 C421 1.203 . S
O423 C416 1.185 . S
O423 Zn419 2.086 . S
C424 O420 1.278 . S
C424 O425 1.211 . S
O425 C424 1.211 . S
C426 O418 1.284 . S
C426 O427 1.273 . S
O427 C426 1.273 . S
O428 Zn419 1.977 . S
O428 C421 1.267 . S
C429 O430 1.160 . S
C429 O436 1.185 . S
O430 C429 1.160 . S
O431 Zn432 1.899 . S
O431 C439 1.284 . S
Zn432 O431 1.899 . S
Zn432 O433 2.032 . S
Zn432 O436 2.086 . S
Zn432 O441 1.977 . S
O433 Zn432 2.032 . S
O433 C437 1.278 . S
C434 O435 1.203 . S
C434 O441 1.267 . S
O435 C434 1.203 . S
O436 C429 1.185 . S
O436 Zn432 2.086 . S
C437 O433 1.278 . S
C437 O438 1.211 . S
O438 C437 1.211 . S
C439 O431 1.284 . S
C439 O440 1.273 . S
O440 C439 1.273 . S
O441 Zn432 1.977 . S
O441 C434 1.267 . S
C442 O443 1.160 . S
C442 O449 1.185 . S
O443 C442 1.160 . S
O444 Zn445 1.899 . S
O444 C452 1.284 . S
Zn445 O444 1.899 . S
Zn445 O446 2.032 . S
Zn445 O449 2.086 . S
Zn445 O454 1.977 . S
O446 Zn445 2.032 . S
O446 C450 1.278 . S
C447 O448 1.203 . S
C447 O454 1.267 . S
O448 C447 1.203 . S
O449 C442 1.185 . S
O449 Zn445 2.086 . S
C450 O446 1.278 . S
C450 O451 1.211 . S
O451 C450 1.211 . S
C452 O444 1.284 . S
C452 O453 1.273 . S
O453 C452 1.273 . S
O454 Zn445 1.977 . S
O454 C447 1.267 . S
C455 O456 1.160 . S
C455 O462 1.185 . S
O456 C455 1.160 . S
O457 Zn458 1.899 . S
O457 C465 1.284 . S
Zn458 O457 1.899 . S
Zn458 O459 2.032 . S
Zn458 O462 2.086 . S
Zn458 O467 1.977 . S
O459 Zn458 2.032 . S
O459 C463 1.278 . S
C460 O461 1.203 . S
C460 O467 1.267 . S
O461 C460 1.203 . S
O462 C455 1.185 . S
O462 Zn458 2.086 . S
C463 O459 1.278 . S
C463 O464 1.211 . S
O464 C463 1.211 . S
C465 O457 1.284 . S
C465 O466 1.273 . S
O466 C465 1.273 . S
O467 Zn458 1.977 . S
O467 C460 1.267 . S
C468 O469 1.160 . S
C468 O475 1.185 . S
O469 C468 1.160 . S
O470 Zn471 1.899 . S
O470 C478 1.284 . S
Zn471 O470 1.899 . S
Zn471 O472 2.032 . S
Zn471 O475 2.086 . S
Zn471 O480 1.977 . S
O472 Zn471 2.032 . S
O472 C476 1.278 . S
C473 O474 1.203 . S
C473 O480 1.267 . S
O474 C473 1.203 . S
O475 C468 1.185 . S
O475 Zn471 2.086 . S
C476 O472 1.278 . S
C476 O477 1.211 . S
O477 C476 1.211 . S
C478 O470 1.284 . S
C478 O479 1.273 . S
O479 C478 1.273 . S
O480 Zn471 1.977 . S
O480 C473 1.267 . S
C481 O482 1.160 . S
C481 O488 1.185 . S
O482 C481 1.160 . S
O483 Zn484 1.899 . S
O483 C491 1.284 . S
Zn484 O483 1.899 . S
Zn484 O485 2.032 . S
Zn484 O488 2.086 . S
Zn484 O493 1.977 . S
O485 Zn484 2.032 . S
O485 C489 1.278 . S
C486 O487 1.203 . S
C486 O493 1.267 . S
O487 C486 1.203 . S
O488 C481 1.185 . S
O488 Zn484 2.086 . S
C489 O485 1.278 . S
C489 O490 1.211 . S
O490 C489 1.211 . S
C491 O483 1.284 . S
C491 O492 1.273 . S
O492 C491 1.273 . S
O493 Zn484 1.977 . S
O493 C486 1.267 . S
C494 O495 1.160 . S
C494 O501 1.185 . S
O495 C494 1.160 . S
O496 Zn497 1.899 . S
O496 C504 1.284 . S
Zn497 O496 1.899 . S
Zn497 O498 2.032 . S
Zn497 O501 2.086 . S
Zn497 O506 1.977 . S
O498 Zn497 2.032 . S
O498 C502 1.278 . S
C499 O500 1.203 . S
C499 O506 1.267 . S
O500 C499 1.203 . S
O501 C494 1.185 . S
O501 Zn497 2.086 . S
C502 O498 1.278 . S
C502 O503 1.211 . S
O503 C502 1.211 . S
C504 O496 1.284 . S
C504 O505 1.273 . S
O505 C504 1.273 . S
O506 Zn497 1.977 . S
O506 C499 1.267 . S
C507 O508 1.160 . S
C507 O514 1.185 . S
O508 C507 1.160 . S
O509 Zn510 1.899 . S
O509 C517 1.284 . S
Zn510 O509 1.899 . S
Zn510 O511 2.032 . S
Zn510 O514 2.086 . S
Zn510 O519 1.977 . S
O511 Zn510 2.032 . S
O511 C515 1.278 . S
C512 O513 1.203 . S
C512 O519 1.267 . S
O513 C512 1.203 . S
O514 C507 1.185 . S
O514 Zn510 2.086 . S
C515 O511 1.278 . S
C515 O516 1.211 . S
O516 C515 1.211 . S
C517 O509 1.284 . S
C517 O518 1.273 . S
O518 C517 1.273 . S
O519 Zn510 1.977 . S
O519 C512 1.267 . S
C520 O521 1.160 . S
C520 O527 1.185 . S
O521 C520 1.160 . S
O522 Zn523 1.899 . S
O522 C530 1.284 . S
Zn523 O522 1.899 . S
Zn523 O524 2.032 . S
Zn523 O527 2.086 . S
Zn523 O532 1.977 . S
O524 Zn523 2.032 . S
O524 C528 1.278 . S
C525 O526 1.203 . S
C525 O532 1.267 . S
O526 C525 1.203 . S
O527 C520 1.185 . S
O527 Zn523 2.086 . S
C528 O524 1.278 . S
C528 O529 1.211 . S
O529 C528 1.211 . S
C530 O522 1.284 . S
C530 O531 1.273 . S
O531 C530 1.273 . S
O532 Zn523 1.977 . S
O532 C525 1.267 . S
C533 O534 1.160 . S
C533 O540 1.185 . S
O534 C533 1.160 . S
O535 Zn536 1.899 . S
O535 C543 1.284 . S
Zn536 O535 1.899 . S
Zn536 O537 2.032 . S
Zn536 O540 2.086 . S
Zn536 O545 1.977 . S
O537 Zn536 2.032 . S
O537 C541 1.278 . S
C538 O539 1.203 . S
C538 O545 1.267 . S
O539 C538 1.203 . S
O540 C533 1.185 . S
O540 Zn536 2.086 . S
C541 O537 1.278 . S
C541 O542 1.211 . S
O542 C541 1.211 . S
C543 O535 1.284 . S
C543 O544 1.273 . S
O544 C543 1.273 . S
O545 Zn536 1.977 . S
O545 C538 1.267 . S
C546 O547 1.160 . S
C546 O553 1.185 . S
O547 C546 1.160 . S
O548 Zn549 1.899 . S
O548 C556 1.284 . S
Zn549 O548 1.899 . S
Zn549 O550 2.032 . S
Zn549 O553 2.086 . S
Zn549 O558 1.977 . S
O550 Zn549 2.032 . S
O550 C554 1.278 . S
C551 O552 1.203 . S
C551 O558 1.267 . S
O552 C551 1.203 . S
O553 C546 1.185 . S
O553 Zn549 2.086 . S
C554 O550 1.278 . S
C554 O555 1.211 . S
O555 C554 1.211 . S
C556 O548 1.284 . S
C556 O557 1.273 . S
O557 C556 1.273 . S
O558 Zn549 1.977 . S
O558 C551 1.267 . S
C559 O560 1.160 . S
C559 O566 1.185 . S
O560 C559 1.160 . S
O561 Zn562 1.899 . S
O561 C569 1.284 . S
Zn562 O561 1.899 . S
Zn562 O563 2.032 . S
Zn562 O566 2.086 . S
Zn562 O571 1.977 . S
O563 Zn562 2.032 . S
O563 C567 1.278 . S
C564 O565 1.203 . S
C564 O571 1.267 . S
O565 C564 1.203 . S
O566 C559 1.185 . S
O566 Zn562 2.086 . S
C567 O563 1.278 . S
C567 O568 1.211 . S
O568 C567 1.211 . S
C569 O561 1.284 . S
C569 O570 1.273 . S
O570 C569 1.273 . S
O571 Zn562 1.977 . S
O571 C564 1.267 . S
C572 O573 1.160 . S
C572 O579 1.185 . S
O573 C572 1.160 . S
O574 Zn575 1.899 . S
O574 C582 1.284 . S
Zn575 O574 1.899 . S
Zn575 O576 2.032 . S
Zn575 O579 2.086 . S
Zn575 O584 1.977 . S
O576 Zn575 2.032 . S
O576 C580 1.278 . S
C577 O578 1.203 . S
C577 O584 1.267 . S
O578 C577 1.203 . S
O579 C572 1.185 . S
O579 Zn575 2.086 . S
C580 O576 1.278 . S
C580 O581 1.211 . S
O581 C580 1.211 . S
C582 O574 1.284 . S
C582 O583 1.273 . S
O583 C582 1.273 . S
O584 Zn575 1.977 . S
O584 C577 1.267 . S
C585 O586 1.160 . S
C585 O592 1.185 . S
O586 C585 1.160 . S
O587 Zn588 1.899 . S
O587 C595 1.284 . S
Zn588 O587 1.899 . S
Zn588 O589 2.032 . S
Zn588 O592 2.086 . S
Zn588 O597 1.977 . S
O589 Zn588 2.032 . S
O589 C593 1.278 . S
C590 O591 1.203 . S
C590 O597 1.267 . S
O591 C590 1.203 . S
O592 C585 1.185 . S
O592 Zn588 2.086 . S
C593 O589 1.278 . S
C593 O594 1.211 . S
O594 C593 1.211 . S
C595 O587 1.284 . S
C595 O596 1.273 . S
O596 C595 1.273 . S
O597 Zn588 1.977 . S
O597 C590 1.267 . S
C598 O599 1.160 . S
C598 O605 1.185 . S
O599 C598 1.160 . S
O600 Zn601 1.899 . S
O600 C608 1.284 . S
Zn601 O600 1.899 . S
Zn601 O602 2.032 . S
Zn601 O605 2.086 . S
Zn601 O610 1.977 . S
O602 Zn601 2.032 . S
O602 C606 1.278 . S
C603 O604 1.203 . S
C603 O610 1.267 . S
O604 C603 1.203 . S
O605 C598 1.185 . S
O605 Zn601 2.086 . S
C606 O602 1.278 . S
C606 O607 1.211 . S
O607 C606 1.211 . S
C608 O600 1.284 . S
C608 O609 1.273 . S
O609 C608 1.273 . S
O610 Zn601 1.977 . S
O610 C603 1.267 . S
C611 O612 1.160 . S
C611 O618 1.185 . S
O612 C611 1.160 . S
O613 Zn614 1.899 . S
O613 C621 1.284 . S
Zn614 O613 1.899 . S
Zn614 O615 2.032 . S
Zn614 O618 2.086 . S
Zn614 O623 1.977 . S
O615 Zn614 2.032 . S
O615 C619 1.278 . S
C616 O617 1.203 . S
C616 O623 1.267 . S
O617 C616 1.203 . S
O618 C611 1.185 . S
O618 Zn614 2.086 . S
C619 O615 1.278 . S
C619 O620 1.211 . S
O620 C619 1.211 . S
C621 O613 1.284 . S
C621 O622 1.273 . S
O622 C621 1.273 . S
O623 Zn614 1.977 . S
O623 C616 1.267 . S
H624 C630 0.930 . S
H625 C634 0.930 . S
H626 C639 0.929 . S
H627 C637 0.929 . S
H628 C632 0.929 . S
H629 C638 0.929 . S
C630 H624 0.930 . S
C630 C631 1.367 . S
C630 C638 1.378 . S
C631 C630 1.367 . S
C631 C639 1.433 . S
C632 H628 0.929 . S
C632 C634 1.378 . S
C632 C636 1.350 . S
C633 C636 1.463 . S
C633 C638 1.350 . S
C633 N641 1.427 . S
C634 H625 0.930 . S
C634 C632 1.378 . S
C634 C635 1.367 . S
C635 C634 1.367 . S
C635 C637 1.433 . S
C636 C632 1.350 . S
C636 C633 1.463 . S
C636 N640 1.427 . S
C637 H627 0.929 . S
C637 C635 1.433 . S
C637 N640 1.384 . S
C638 H629 0.929 . S
C638 C630 1.378 . S
C638 C633 1.350 . S
C639 H626 0.929 . S
C639 C631 1.433 . S
C639 N641 1.384 . S
N640 C636 1.427 . S
N640 C637 1.384 . S
N641 C633 1.427 . S
N641 C639 1.384 . S
H642 C648 0.930 . S
H643 C652 0.930 . S
H644 C657 0.929 . S
H645 C655 0.929 . S
H646 C650 0.929 . S
H647 C656 0.929 . S
C648 H642 0.930 . S
C648 C649 1.367 . S
C648 C656 1.378 . S
C649 C648 1.367 . S
C649 C657 1.433 . S
C650 H646 0.929 . S
C650 C652 1.378 . S
C650 C654 1.350 . S
C651 C654 1.463 . S
C651 C656 1.350 . S
C651 N659 1.427 . S
C652 H643 0.930 . S
C652 C650 1.378 . S
C652 C653 1.367 . S
C653 C652 1.367 . S
C653 C655 1.433 . S
C654 C650 1.350 . S
C654 C651 1.463 . S
C654 N658 1.427 . S
C655 H645 0.929 . S
C655 C653 1.433 . S
C655 N658 1.384 . S
C656 H647 0.929 . S
C656 C648 1.378 . S
C656 C651 1.350 . S
C657 H644 0.929 . S
C657 C649 1.433 . S
C657 N659 1.384 . S
N658 C654 1.427 . S
N658 C655 1.384 . S
N659 C651 1.427 . S
N659 C657 1.384 . S
H660 C666 0.930 . S
H661 C670 0.930 . S
H662 C675 0.929 . S
H663 C673 0.929 . S
H664 C668 0.929 . S
H665 C674 0.929 . S
C666 H660 0.930 . S
C666 C667 1.367 . S
C666 C674 1.378 . S
C667 C666 1.367 . S
C667 C675 1.433 . S
C668 H664 0.929 . S
C668 C670 1.378 . S
C668 C672 1.350 . S
C669 C672 1.463 . S
C669 C674 1.350 . S
C669 N677 1.427 . S
C670 H661 0.930 . S
C670 C668 1.378 . S
C670 C671 1.367 . S
C671 C670 1.367 . S
C671 C673 1.433 . S
C672 C668 1.350 . S
C672 C669 1.463 . S
C672 N676 1.427 . S
C673 H663 0.929 . S
C673 C671 1.433 . S
C673 N676 1.384 . S
C674 H665 0.929 . S
C674 C666 1.378 . S
C674 C669 1.350 . S
C675 H662 0.929 . S
C675 C667 1.433 . S
C675 N677 1.384 . S
N676 C672 1.427 . S
N676 C673 1.384 . S
N677 C669 1.427 . S
N677 C675 1.384 . S
H678 C684 0.930 . S
H679 C688 0.930 . S
H680 C693 0.929 . S
H681 C691 0.929 . S
H682 C686 0.929 . S
H683 C692 0.929 . S
C684 H678 0.930 . S
C684 C685 1.367 . S
C684 C692 1.378 . S
C685 C684 1.367 . S
C685 C693 1.433 . S
C686 H682 0.929 . S
C686 C688 1.378 . S
C686 C690 1.350 . S
C687 C690 1.463 . S
C687 C692 1.350 . S
C687 N695 1.427 . S
C688 H679 0.930 . S
C688 C686 1.378 . S
C688 C689 1.367 . S
C689 C688 1.367 . S
C689 C691 1.433 . S
C690 C686 1.350 . S
C690 C687 1.463 . S
C690 N694 1.427 . S
C691 H681 0.929 . S
C691 C689 1.433 . S
C691 N694 1.384 . S
C692 H683 0.929 . S
C692 C684 1.378 . S
C692 C687 1.350 . S
C693 H680 0.929 . S
C693 C685 1.433 . S
C693 N695 1.384 . S
N694 C690 1.427 . S
N694 C691 1.384 . S
N695 C687 1.427 . S
N695 C693 1.384 . S
H696 C702 0.930 . S
H697 C706 0.930 . S
H698 C711 0.929 . S
H699 C709 0.929 . S
H700 C704 0.929 . S
H701 C710 0.929 . S
C702 H696 0.930 . S
C702 C703 1.367 . S
C702 C710 1.378 . S
C703 C702 1.367 . S
C703 C711 1.433 . S
C704 H700 0.929 . S
C704 C706 1.378 . S
C704 C708 1.350 . S
C705 C708 1.463 . S
C705 C710 1.350 . S
C705 N713 1.427 . S
C706 H697 0.930 . S
C706 C704 1.378 . S
C706 C707 1.367 . S
C707 C706 1.367 . S
C707 C709 1.433 . S
C708 C704 1.350 . S
C708 C705 1.463 . S
C708 N712 1.427 . S
C709 H699 0.929 . S
C709 C707 1.433 . S
C709 N712 1.384 . S
C710 H701 0.929 . S
C710 C702 1.378 . S
C710 C705 1.350 . S
C711 H698 0.929 . S
C711 C703 1.433 . S
C711 N713 1.384 . S
N712 C708 1.427 . S
N712 C709 1.384 . S
N713 C705 1.427 . S
N713 C711 1.384 . S
H714 C720 0.930 . S
H715 C724 0.930 . S
H716 C729 0.929 . S
H717 C727 0.929 . S
H718 C722 0.929 . S
H719 C728 0.929 . S
C720 H714 0.930 . S
C720 C721 1.367 . S
C720 C728 1.378 . S
C721 C720 1.367 . S
C721 C729 1.433 . S
C722 H718 0.929 . S
C722 C724 1.378 . S
C722 C726 1.350 . S
C723 C726 1.463 . S
C723 C728 1.350 . S
C723 N731 1.427 . S
C724 H715 0.930 . S
C724 C722 1.378 . S
C724 C725 1.367 . S
C725 C724 1.367 . S
C725 C727 1.433 . S
C726 C722 1.350 . S
C726 C723 1.463 . S
C726 N730 1.427 . S
C727 H717 0.929 . S
C727 C725 1.433 . S
C727 N730 1.384 . S
C728 H719 0.929 . S
C728 C720 1.378 . S
C728 C723 1.350 . S
C729 H716 0.929 . S
C729 C721 1.433 . S
C729 N731 1.384 . S
N730 C726 1.427 . S
N730 C727 1.384 . S
N731 C723 1.427 . S
N731 C729 1.384 . S
H732 C738 0.930 . S
H733 C742 0.930 . S
H734 C747 0.929 . S
H735 C745 0.929 . S
H736 C740 0.929 . S
H737 C746 0.929 . S
C738 H732 0.930 . S
C738 C739 1.367 . S
C738 C746 1.378 . S
C739 C738 1.367 . S
C739 C747 1.433 . S
C740 H736 0.929 . S
C740 C742 1.378 . S
C740 C744 1.350 . S
C741 C744 1.463 . S
C741 C746 1.350 . S
C741 N749 1.427 . S
C742 H733 0.930 . S
C742 C740 1.378 . S
C742 C743 1.367 . S
C743 C742 1.367 . S
C743 C745 1.433 . S
C744 C740 1.350 . S
C744 C741 1.463 . S
C744 N748 1.427 . S
C745 H735 0.929 . S
C745 C743 1.433 . S
C745 N748 1.384 . S
C746 H737 0.929 . S
C746 C738 1.378 . S
C746 C741 1.350 . S
C747 H734 0.929 . S
C747 C739 1.433 . S
C747 N749 1.384 . S
N748 C744 1.427 . S
N748 C745 1.384 . S
N749 C741 1.427 . S
N749 C747 1.384 . S
H750 C756 0.930 . S
H751 C760 0.930 . S
H752 C765 0.929 . S
H753 C763 0.929 . S
H754 C758 0.929 . S
H755 C764 0.929 . S
C756 H750 0.930 . S
C756 C757 1.367 . S
C756 C764 1.378 . S
C757 C756 1.367 . S
C757 C765 1.433 . S
C758 H754 0.929 . S
C758 C760 1.378 . S
C758 C762 1.350 . S
C759 C762 1.463 . S
C759 C764 1.350 . S
C759 N767 1.427 . S
C760 H751 0.930 . S
C760 C758 1.378 . S
C760 C761 1.367 . S
C761 C760 1.367 . S
C761 C763 1.433 . S
C762 C758 1.350 . S
C762 C759 1.463 . S
C762 N766 1.427 . S
C763 H753 0.929 . S
C763 C761 1.433 . S
C763 N766 1.384 . S
C764 H755 0.929 . S
C764 C756 1.378 . S
C764 C759 1.350 . S
C765 H752 0.929 . S
C765 C757 1.433 . S
C765 N767 1.384 . S
N766 C762 1.427 . S
N766 C763 1.384 . S
N767 C759 1.427 . S
N767 C765 1.384 . S
H768 C774 0.930 . S
H769 C778 0.930 . S
H770 C783 0.929 . S
H771 C781 0.929 . S
H772 C776 0.929 . S
H773 C782 0.929 . S
C774 H768 0.930 . S
C774 C775 1.367 . S
C774 C782 1.378 . S
C775 C774 1.367 . S
C775 C783 1.433 . S
C776 H772 0.929 . S
C776 C778 1.378 . S
C776 C780 1.350 . S
C777 C780 1.463 . S
C777 C782 1.350 . S
C777 N785 1.427 . S
C778 H769 0.930 . S
C778 C776 1.378 . S
C778 C779 1.367 . S
C779 C778 1.367 . S
C779 C781 1.433 . S
C780 C776 1.350 . S
C780 C777 1.463 . S
C780 N784 1.427 . S
C781 H771 0.929 . S
C781 C779 1.433 . S
C781 N784 1.384 . S
C782 H773 0.929 . S
C782 C774 1.378 . S
C782 C777 1.350 . S
C783 H770 0.929 . S
C783 C775 1.433 . S
C783 N785 1.384 . S
N784 C780 1.427 . S
N784 C781 1.384 . S
N785 C777 1.427 . S
N785 C783 1.384 . S
H786 C792 0.930 . S
H787 C796 0.930 . S
H788 C801 0.929 . S
H789 C799 0.929 . S
H790 C794 0.929 . S
H791 C800 0.929 . S
C792 H786 0.930 . S
C792 C793 1.367 . S
C792 C800 1.378 . S
C793 C792 1.367 . S
C793 C801 1.433 . S
C794 H790 0.929 . S
C794 C796 1.378 . S
C794 C798 1.350 . S
C795 C798 1.463 . S
C795 C800 1.350 . S
C795 N803 1.427 . S
C796 H787 0.930 . S
C796 C794 1.378 . S
C796 C797 1.367 . S
C797 C796 1.367 . S
C797 C799 1.433 . S
C798 C794 1.350 . S
C798 C795 1.463 . S
C798 N802 1.427 . S
C799 H789 0.929 . S
C799 C797 1.433 . S
C799 N802 1.384 . S
C800 H791 0.929 . S
C800 C792 1.378 . S
C800 C795 1.350 . S
C801 H788 0.929 . S
C801 C793 1.433 . S
C801 N803 1.384 . S
N802 C798 1.427 . S
N802 C799 1.384 . S
N803 C795 1.427 . S
N803 C801 1.384 . S
H804 C810 0.930 . S
H805 C814 0.930 . S
H806 C819 0.929 . S
H807 C817 0.929 . S
H808 C812 0.929 . S
H809 C818 0.929 . S
C810 H804 0.930 . S
C810 C811 1.367 . S
C810 C818 1.378 . S
C811 C810 1.367 . S
C811 C819 1.433 . S
C812 H808 0.929 . S
C812 C814 1.378 . S
C812 C816 1.350 . S
C813 C816 1.463 . S
C813 C818 1.350 . S
C813 N821 1.427 . S
C814 H805 0.930 . S
C814 C812 1.378 . S
C814 C815 1.367 . S
C815 C814 1.367 . S
C815 C817 1.433 . S
C816 C812 1.350 . S
C816 C813 1.463 . S
C816 N820 1.427 . S
C817 H807 0.929 . S
C817 C815 1.433 . S
C817 N820 1.384 . S
C818 H809 0.929 . S
C818 C810 1.378 . S
C818 C813 1.350 . S
C819 H806 0.929 . S
C819 C811 1.433 . S
C819 N821 1.384 . S
N820 C816 1.427 . S
N820 C817 1.384 . S
N821 C813 1.427 . S
N821 C819 1.384 . S
H822 C828 0.930 . S
H823 C832 0.930 . S
H824 C837 0.929 . S
H825 C835 0.929 . S
H826 C830 0.929 . S
H827 C836 0.929 . S
C828 H822 0.930 . S
C828 C829 1.367 . S
C828 C836 1.378 . S
C829 C828 1.367 . S
C829 C837 1.433 . S
C830 H826 0.929 . S
C830 C832 1.378 . S
C830 C834 1.350 . S
C831 C834 1.463 . S
C831 C836 1.350 . S
C831 N839 1.427 . S
C832 H823 0.930 . S
C832 C830 1.378 . S
C832 C833 1.367 . S
C833 C832 1.367 . S
C833 C835 1.433 . S
C834 C830 1.350 . S
C834 C831 1.463 . S
C834 N838 1.427 . S
C835 H825 0.929 . S
C835 C833 1.433 . S
C835 N838 1.384 . S
C836 H827 0.929 . S
C836 C828 1.378 . S
C836 C831 1.350 . S
C837 H824 0.929 . S
C837 C829 1.433 . S
C837 N839 1.384 . S
N838 C834 1.427 . S
N838 C835 1.384 . S
N839 C831 1.427 . S
N839 C837 1.384 . S
H840 C846 0.930 . S
H841 C850 0.930 . S
H842 C855 0.929 . S
H843 C853 0.929 . S
H844 C848 0.929 . S
H845 C854 0.929 . S
C846 H840 0.930 . S
C846 C847 1.367 . S
C846 C854 1.378 . S
C847 C846 1.367 . S
C847 C855 1.433 . S
C848 H844 0.929 . S
C848 C850 1.378 . S
C848 C852 1.350 . S
C849 C852 1.463 . S
C849 C854 1.350 . S
C849 N857 1.427 . S
C850 H841 0.930 . S
C850 C848 1.378 . S
C850 C851 1.367 . S
C851 C850 1.367 . S
C851 C853 1.433 . S
C852 C848 1.350 . S
C852 C849 1.463 . S
C852 N856 1.427 . S
C853 H843 0.929 . S
C853 C851 1.433 . S
C853 N856 1.384 . S
C854 H845 0.929 . S
C854 C846 1.378 . S
C854 C849 1.350 . S
C855 H842 0.929 . S
C855 C847 1.433 . S
C855 N857 1.384 . S
N856 C852 1.427 . S
N856 C853 1.384 . S
N857 C849 1.427 . S
N857 C855 1.384 . S
H858 C864 0.930 . S
H859 C868 0.930 . S
H860 C873 0.929 . S
H861 C871 0.929 . S
H862 C866 0.929 . S
H863 C872 0.929 . S
C864 H858 0.930 . S
C864 C865 1.367 . S
C864 C872 1.378 . S
C865 C864 1.367 . S
C865 C873 1.433 . S
C866 H862 0.929 . S
C866 C868 1.378 . S
C866 C870 1.350 . S
C867 C870 1.463 . S
C867 C872 1.350 . S
C867 N875 1.427 . S
C868 H859 0.930 . S
C868 C866 1.378 . S
C868 C869 1.367 . S
C869 C868 1.367 . S
C869 C871 1.433 . S
C870 C866 1.350 . S
C870 C867 1.463 . S
C870 N874 1.427 . S
C871 H861 0.929 . S
C871 C869 1.433 . S
C871 N874 1.384 . S
C872 H863 0.929 . S
C872 C864 1.378 . S
C872 C867 1.350 . S
C873 H860 0.929 . S
C873 C865 1.433 . S
C873 N875 1.384 . S
N874 C870 1.427 . S
N874 C871 1.384 . S
N875 C867 1.427 . S
N875 C873 1.384 . S
H876 C882 0.930 . S
H877 C886 0.930 . S
H878 C891 0.929 . S
H879 C889 0.929 . S
H880 C884 0.929 . S
H881 C890 0.929 . S
C882 H876 0.930 . S
C882 C883 1.367 . S
C882 C890 1.378 . S
C883 C882 1.367 . S
C883 C891 1.433 . S
C884 H880 0.929 . S
C884 C886 1.378 . S
C884 C888 1.350 . S
C885 C888 1.463 . S
C885 C890 1.350 . S
C885 N893 1.427 . S
C886 H877 0.930 . S
C886 C884 1.378 . S
C886 C887 1.367 . S
C887 C886 1.367 . S
C887 C889 1.433 . S
C888 C884 1.350 . S
C888 C885 1.463 . S
C888 N892 1.427 . S
C889 H879 0.929 . S
C889 C887 1.433 . S
C889 N892 1.384 . S
C890 H881 0.929 . S
C890 C882 1.378 . S
C890 C885 1.350 . S
C891 H878 0.929 . S
C891 C883 1.433 . S
C891 N893 1.384 . S
N892 C888 1.427 . S
N892 C889 1.384 . S
N893 C885 1.427 . S
N893 C891 1.384 . S
H894 C900 0.930 . S
H895 C904 0.930 . S
H896 C909 0.929 . S
H897 C907 0.929 . S
H898 C902 0.929 . S
H899 C908 0.929 . S
C900 H894 0.930 . S
C900 C901 1.367 . S
C900 C908 1.378 . S
C901 C900 1.367 . S
C901 C909 1.433 . S
C902 H898 0.929 . S
C902 C904 1.378 . S
C902 C906 1.350 . S
C903 C906 1.463 . S
C903 C908 1.350 . S
C903 N911 1.427 . S
C904 H895 0.930 . S
C904 C902 1.378 . S
C904 C905 1.367 . S
C905 C904 1.367 . S
C905 C907 1.433 . S
C906 C902 1.350 . S
C906 C903 1.463 . S
C906 N910 1.427 . S
C907 H897 0.929 . S
C907 C905 1.433 . S
C907 N910 1.384 . S
C908 H899 0.929 . S
C908 C900 1.378 . S
C908 C903 1.350 . S
C909 H896 0.929 . S
C909 C901 1.433 . S
C909 N911 1.384 . S
N910 C906 1.427 . S
N910 C907 1.384 . S
N911 C903 1.427 . S
N911 C909 1.384 . S
H912 C918 0.930 . S
H913 C922 0.930 . S
H914 C927 0.929 . S
H915 C925 0.929 . S
H916 C920 0.929 . S
H917 C926 0.929 . S
C918 H912 0.930 . S
C918 C919 1.367 . S
C918 C926 1.378 . S
C919 C918 1.367 . S
C919 C927 1.433 . S
C920 H916 0.929 . S
C920 C922 1.378 . S
C920 C924 1.350 . S
C921 C924 1.463 . S
C921 C926 1.350 . S
C921 N929 1.427 . S
C922 H913 0.930 . S
C922 C920 1.378 . S
C922 C923 1.367 . S
C923 C922 1.367 . S
C923 C925 1.433 . S
C924 C920 1.350 . S
C924 C921 1.463 . S
C924 N928 1.427 . S
C925 H915 0.929 . S
C925 C923 1.433 . S
C925 N928 1.384 . S
C926 H917 0.929 . S
C926 C918 1.378 . S
C926 C921 1.350 . S
C927 H914 0.929 . S
C927 C919 1.433 . S
C927 N929 1.384 . S
N928 C924 1.427 . S
N928 C925 1.384 . S
N929 C921 1.427 . S
N929 C927 1.384 . S
H930 C936 0.930 . S
H931 C940 0.930 . S
H932 C945 0.929 . S
H933 C943 0.929 . S
H934 C938 0.929 . S
H935 C944 0.929 . S
C936 H930 0.930 . S
C936 C937 1.367 . S
C936 C944 1.378 . S
C937 C936 1.367 . S
C937 C945 1.433 . S
C938 H934 0.929 . S
C938 C940 1.378 . S
C938 C942 1.350 . S
C939 C942 1.463 . S
C939 C944 1.350 . S
C939 N947 1.427 . S
C940 H931 0.930 . S
C940 C938 1.378 . S
C940 C941 1.367 . S
C941 C940 1.367 . S
C941 C943 1.433 . S
C942 C938 1.350 . S
C942 C939 1.463 . S
C942 N946 1.427 . S
C943 H933 0.929 . S
C943 C941 1.433 . S
C943 N946 1.384 . S
C944 H935 0.929 . S
C944 C936 1.378 . S
C944 C939 1.350 . S
C945 H932 0.929 . S
C945 C937 1.433 . S
C945 N947 1.384 . S
N946 C942 1.427 . S
N946 C943 1.384 . S
N947 C939 1.427 . S
N947 C945 1.384 . S
H948 C954 0.930 . S
H949 C958 0.930 . S
H950 C963 0.929 . S
H951 C961 0.929 . S
H952 C956 0.929 . S
H953 C962 0.929 . S
C954 H948 0.930 . S
C954 C955 1.367 . S
C954 C962 1.378 . S
C955 C954 1.367 . S
C955 C963 1.433 . S
C956 H952 0.929 . S
C956 C958 1.378 . S
C956 C960 1.350 . S
C957 C960 1.463 . S
C957 C962 1.350 . S
C957 N965 1.427 . S
C958 H949 0.930 . S
C958 C956 1.378 . S
C958 C959 1.367 . S
C959 C958 1.367 . S
C959 C961 1.433 . S
C960 C956 1.350 . S
C960 C957 1.463 . S
C960 N964 1.427 . S
C961 H951 0.929 . S
C961 C959 1.433 . S
C961 N964 1.384 . S
C962 H953 0.929 . S
C962 C954 1.378 . S
C962 C957 1.350 . S
C963 H950 0.929 . S
C963 C955 1.433 . S
C963 N965 1.384 . S
N964 C960 1.427 . S
N964 C961 1.384 . S
N965 C957 1.427 . S
N965 C963 1.384 . S
H966 C972 0.930 . S
H967 C976 0.930 . S
H968 C981 0.929 . S
H969 C979 0.929 . S
H970 C974 0.929 . S
H971 C980 0.929 . S
C972 H966 0.930 . S
C972 C973 1.367 . S
C972 C980 1.378 . S
C973 C972 1.367 . S
C973 C981 1.433 . S
C974 H970 0.929 . S
C974 C976 1.378 . S
C974 C978 1.350 . S
C975 C978 1.463 . S
C975 C980 1.350 . S
C975 N983 1.427 . S
C976 H967 0.930 . S
C976 C974 1.378 . S
C976 C977 1.367 . S
C977 C976 1.367 . S
C977 C979 1.433 . S
C978 C974 1.350 . S
C978 C975 1.463 . S
C978 N982 1.427 . S
C979 H969 0.929 . S
C979 C977 1.433 . S
C979 N982 1.384 . S
C980 H971 0.929 . S
C980 C972 1.378 . S
C980 C975 1.350 . S
C981 H968 0.929 . S
C981 C973 1.433 . S
C981 N983 1.384 . S
N982 C978 1.427 . S
N982 C979 1.384 . S
N983 C975 1.427 . S
N983 C981 1.384 . S
H984 C990 0.930 . S
H985 C994 0.930 . S
H986 C999 0.929 . S
H987 C997 0.929 . S
H988 C992 0.929 . S
H989 C998 0.929 . S
C990 H984 0.930 . S
C990 C991 1.367 . S
C990 C998 1.378 . S
C991 C990 1.367 . S
C991 C999 1.433 . S
C992 H988 0.929 . S
C992 C994 1.378 . S
C992 C996 1.350 . S
C993 C996 1.463 . S
C993 C998 1.350 . S
C993 N1001 1.427 . S
C994 H985 0.930 . S
C994 C992 1.378 . S
C994 C995 1.367 . S
C995 C994 1.367 . S
C995 C997 1.433 . S
C996 C992 1.350 . S
C996 C993 1.463 . S
C996 N1000 1.427 . S
C997 H987 0.929 . S
C997 C995 1.433 . S
C997 N1000 1.384 . S
C998 H989 0.929 . S
C998 C990 1.378 . S
C998 C993 1.350 . S
C999 H986 0.929 . S
C999 C991 1.433 . S
C999 N1001 1.384 . S
N1000 C996 1.427 . S
N1000 C997 1.384 . S
N1001 C993 1.427 . S
N1001 C999 1.384 . S
H1002 C1008 0.930 . S
H1003 C1012 0.930 . S
H1004 C1017 0.929 . S
H1005 C1015 0.929 . S
H1006 C1010 0.929 . S
H1007 C1016 0.929 . S
C1008 H1002 0.930 . S
C1008 C1009 1.367 . S
C1008 C1016 1.378 . S
C1009 C1008 1.367 . S
C1009 C1017 1.433 . S
C1010 H1006 0.929 . S
C1010 C1012 1.378 . S
C1010 C1014 1.350 . S
C1011 C1014 1.463 . S
C1011 C1016 1.350 . S
C1011 N1019 1.427 . S
C1012 H1003 0.930 . S
C1012 C1010 1.378 . S
C1012 C1013 1.367 . S
C1013 C1012 1.367 . S
C1013 C1015 1.433 . S
C1014 C1010 1.350 . S
C1014 C1011 1.463 . S
C1014 N1018 1.427 . S
C1015 H1005 0.929 . S
C1015 C1013 1.433 . S
C1015 N1018 1.384 . S
C1016 H1007 0.929 . S
C1016 C1008 1.378 . S
C1016 C1011 1.350 . S
C1017 H1004 0.929 . S
C1017 C1009 1.433 . S
C1017 N1019 1.384 . S
N1018 C1014 1.427 . S
N1018 C1015 1.384 . S
N1019 C1011 1.427 . S
N1019 C1017 1.384 . S
H1020 C1026 0.930 . S
H1021 C1030 0.930 . S
H1022 C1035 0.929 . S
H1023 C1033 0.929 . S
H1024 C1028 0.929 . S
H1025 C1034 0.929 . S
C1026 H1020 0.930 . S
C1026 C1027 1.367 . S
C1026 C1034 1.378 . S
C1027 C1026 1.367 . S
C1027 C1035 1.433 . S
C1028 H1024 0.929 . S
C1028 C1030 1.378 . S
C1028 C1032 1.350 . S
C1029 C1032 1.463 . S
C1029 C1034 1.350 . S
C1029 N1037 1.427 . S
C1030 H1021 0.930 . S
C1030 C1028 1.378 . S
C1030 C1031 1.367 . S
C1031 C1030 1.367 . S
C1031 C1033 1.433 . S
C1032 C1028 1.350 . S
C1032 C1029 1.463 . S
C1032 N1036 1.427 . S
C1033 H1023 0.929 . S
C1033 C1031 1.433 . S
C1033 N1036 1.384 . S
C1034 H1025 0.929 . S
C1034 C1026 1.378 . S
C1034 C1029 1.350 . S
C1035 H1022 0.929 . S
C1035 C1027 1.433 . S
C1035 N1037 1.384 . S
N1036 C1032 1.427 . S
N1036 C1033 1.384 . S
N1037 C1029 1.427 . S
N1037 C1035 1.384 . S
H1038 C1044 0.930 . S
H1039 C1048 0.930 . S
H1040 C1053 0.929 . S
H1041 C1051 0.929 . S
H1042 C1046 0.929 . S
H1043 C1052 0.929 . S
C1044 H1038 0.930 . S
C1044 C1045 1.367 . S
C1044 C1052 1.378 . S
C1045 C1044 1.367 . S
C1045 C1053 1.433 . S
C1046 H1042 0.929 . S
C1046 C1048 1.378 . S
C1046 C1050 1.350 . S
C1047 C1050 1.463 . S
C1047 C1052 1.350 . S
C1047 N1055 1.427 . S
C1048 H1039 0.930 . S
C1048 C1046 1.378 . S
C1048 C1049 1.367 . S
C1049 C1048 1.367 . S
C1049 C1051 1.433 . S
C1050 C1046 1.350 . S
C1050 C1047 1.463 . S
C1050 N1054 1.427 . S
C1051 H1041 0.929 . S
C1051 C1049 1.433 . S
C1051 N1054 1.384 . S
C1052 H1043 0.929 . S
C1052 C1044 1.378 . S
C1052 C1047 1.350 . S
C1053 H1040 0.929 . S
C1053 C1045 1.433 . S
C1053 N1055 1.384 . S
N1054 C1050 1.427 . S
N1054 C1051 1.384 . S
N1055 C1047 1.427 . S
N1055 C1053 1.384 . S
H1056 C1062 0.930 . S
H1057 C1066 0.930 . S
H1058 C1071 0.929 . S
H1059 C1069 0.929 . S
H1060 C1064 0.929 . S
H1061 C1070 0.929 . S
C1062 H1056 0.930 . S
C1062 C1063 1.367 . S
C1062 C1070 1.378 . S
C1063 C1062 1.367 . S
C1063 C1071 1.433 . S
C1064 H1060 0.929 . S
C1064 C1066 1.378 . S
C1064 C1068 1.350 . S
C1065 C1068 1.463 . S
C1065 C1070 1.350 . S
C1065 N1073 1.427 . S
C1066 H1057 0.930 . S
C1066 C1064 1.378 . S
C1066 C1067 1.367 . S
C1067 C1066 1.367 . S
C1067 C1069 1.433 . S
C1068 C1064 1.350 . S
C1068 C1065 1.463 . S
C1068 N1072 1.427 . S
C1069 H1059 0.929 . S
C1069 C1067 1.433 . S
C1069 N1072 1.384 . S
C1070 H1061 0.929 . S
C1070 C1062 1.378 . S
C1070 C1065 1.350 . S
C1071 H1058 0.929 . S
C1071 C1063 1.433 . S
C1071 N1073 1.384 . S
N1072 C1068 1.427 . S
N1072 C1069 1.384 . S
N1073 C1065 1.427 . S
N1073 C1071 1.384 . S
H1074 C1080 0.930 . S
H1075 C1084 0.930 . S
H1076 C1089 0.929 . S
H1077 C1087 0.929 . S
H1078 C1082 0.929 . S
H1079 C1088 0.929 . S
C1080 H1074 0.930 . S
C1080 C1081 1.367 . S
C1080 C1088 1.378 . S
C1081 C1080 1.367 . S
C1081 C1089 1.433 . S
C1082 H1078 0.929 . S
C1082 C1084 1.378 . S
C1082 C1086 1.350 . S
C1083 C1086 1.463 1_556 S
C1083 C1088 1.350 . S
C1083 N1091 1.427 . S
C1084 H1075 0.930 . S
C1084 C1082 1.378 . S
C1084 C1085 1.367 . S
C1085 C1084 1.367 . S
C1085 C1087 1.433 . S
C1086 C1082 1.350 . S
C1086 C1083 1.463 1_554 S
C1086 N1090 1.427 . S
C1087 H1077 0.929 . S
C1087 C1085 1.433 . S
C1087 N1090 1.384 . S
C1088 H1079 0.929 . S
C1088 C1080 1.378 . S
C1088 C1083 1.350 . S
C1089 H1076 0.929 . S
C1089 C1081 1.433 . S
C1089 N1091 1.384 . S
N1090 C1086 1.427 . S
N1090 C1087 1.384 . S
N1091 C1083 1.427 . S
N1091 C1089 1.384 . S
H1092 C1098 0.930 . S
H1093 C1102 0.930 . S
H1094 C1107 0.929 . S
H1095 C1105 0.929 . S
H1096 C1100 0.929 . S
H1097 C1106 0.929 . S
C1098 H1092 0.930 . S
C1098 C1099 1.367 . S
C1098 C1106 1.378 . S
C1099 C1098 1.367 . S
C1099 C1107 1.433 . S
C1100 H1096 0.929 . S
C1100 C1102 1.378 . S
C1100 C1104 1.350 . S
C1101 C1104 1.463 . S
C1101 C1106 1.350 . S
C1101 N1109 1.427 . S
C1102 H1093 0.930 . S
C1102 C1100 1.378 . S
C1102 C1103 1.367 . S
C1103 C1102 1.367 . S
C1103 C1105 1.433 . S
C1104 C1100 1.350 . S
C1104 C1101 1.463 . S
C1104 N1108 1.427 . S
C1105 H1095 0.929 . S
C1105 C1103 1.433 . S
C1105 N1108 1.384 . S
C1106 H1097 0.929 . S
C1106 C1098 1.378 . S
C1106 C1101 1.350 . S
C1107 H1094 0.929 . S
C1107 C1099 1.433 . S
C1107 N1109 1.384 . S
N1108 C1104 1.427 . S
N1108 C1105 1.384 . S
N1109 C1101 1.427 . S
N1109 C1107 1.384 . S
H1110 C1116 0.930 . S
H1111 C1120 0.930 . S
H1112 C1125 0.929 . S
H1113 C1123 0.929 . S
H1114 C1118 0.929 . S
H1115 C1124 0.929 . S
C1116 H1110 0.930 . S
C1116 C1117 1.367 . S
C1116 C1124 1.378 . S
C1117 C1116 1.367 . S
C1117 C1125 1.433 . S
C1118 H1114 0.929 . S
C1118 C1120 1.378 . S
C1118 C1122 1.350 . S
C1119 C1122 1.463 1_556 S
C1119 C1124 1.350 . S
C1119 N1127 1.427 . S
C1120 H1111 0.930 . S
C1120 C1118 1.378 . S
C1120 C1121 1.367 . S
C1121 C1120 1.367 . S
C1121 C1123 1.433 . S
C1122 C1118 1.350 . S
C1122 C1119 1.463 1_554 S
C1122 N1126 1.427 . S
C1123 H1113 0.929 . S
C1123 C1121 1.433 . S
C1123 N1126 1.384 . S
C1124 H1115 0.929 . S
C1124 C1116 1.378 . S
C1124 C1119 1.350 . S
C1125 H1112 0.929 . S
C1125 C1117 1.433 . S
C1125 N1127 1.384 . S
N1126 C1122 1.427 . S
N1126 C1123 1.384 . S
N1127 C1119 1.427 . S
N1127 C1125 1.384 . S
H1128 C1134 0.930 . S
H1129 C1138 0.930 . S
H1130 C1143 0.929 . S
H1131 C1141 0.929 . S
H1132 C1136 0.929 . S
H1133 C1142 0.929 . S
C1134 H1128 0.930 . S
C1134 C1135 1.367 . S
C1134 C1142 1.378 . S
C1135 C1134 1.367 . S
C1135 C1143 1.433 . S
C1136 H1132 0.929 . S
C1136 C1138 1.378 . S
C1136 C1140 1.350 . S
C1137 C1140 1.463 . S
C1137 C1142 1.350 . S
C1137 N1145 1.427 . S
C1138 H1129 0.930 . S
C1138 C1136 1.378 . S
C1138 C1139 1.367 . S
C1139 C1138 1.367 . S
C1139 C1141 1.433 . S
C1140 C1136 1.350 . S
C1140 C1137 1.463 . S
C1140 N1144 1.427 . S
C1141 H1131 0.929 . S
C1141 C1139 1.433 . S
C1141 N1144 1.384 . S
C1142 H1133 0.929 . S
C1142 C1134 1.378 . S
C1142 C1137 1.350 . S
C1143 H1130 0.929 . S
C1143 C1135 1.433 . S
C1143 N1145 1.384 . S
N1144 C1140 1.427 . S
N1144 C1141 1.384 . S
N1145 C1137 1.427 . S
N1145 C1143 1.384 . S
H1146 C1152 0.930 . S
H1147 C1156 0.930 . S
H1148 C1161 0.929 . S
H1149 C1159 0.929 . S
H1150 C1154 0.929 . S
H1151 C1160 0.929 . S
C1152 H1146 0.930 . S
C1152 C1153 1.367 . S
C1152 C1160 1.378 . S
C1153 C1152 1.367 . S
C1153 C1161 1.433 . S
C1154 H1150 0.929 . S
C1154 C1156 1.378 . S
C1154 C1158 1.350 . S
C1155 C1158 1.463 1_556 S
C1155 C1160 1.350 . S
C1155 N1163 1.427 . S
C1156 H1147 0.930 . S
C1156 C1154 1.378 . S
C1156 C1157 1.367 . S
C1157 C1156 1.367 . S
C1157 C1159 1.433 . S
C1158 C1154 1.350 . S
C1158 C1155 1.463 1_554 S
C1158 N1162 1.427 . S
C1159 H1149 0.929 . S
C1159 C1157 1.433 . S
C1159 N1162 1.384 . S
C1160 H1151 0.929 . S
C1160 C1152 1.378 . S
C1160 C1155 1.350 . S
C1161 H1148 0.929 . S
C1161 C1153 1.433 . S
C1161 N1163 1.384 . S
N1162 C1158 1.427 . S
N1162 C1159 1.384 . S
N1163 C1155 1.427 . S
N1163 C1161 1.384 . S
H1164 C1170 0.930 . S
H1165 C1174 0.930 . S
H1166 C1179 0.929 . S
H1167 C1177 0.929 . S
H1168 C1172 0.929 . S
H1169 C1178 0.929 . S
C1170 H1164 0.930 . S
C1170 C1171 1.367 . S
C1170 C1178 1.378 . S
C1171 C1170 1.367 . S
C1171 C1179 1.433 . S
C1172 H1168 0.929 . S
C1172 C1174 1.378 . S
C1172 C1176 1.350 . S
C1173 C1176 1.463 . S
C1173 C1178 1.350 . S
C1173 N1181 1.427 . S
C1174 H1165 0.930 . S
C1174 C1172 1.378 . S
C1174 C1175 1.367 . S
C1175 C1174 1.367 . S
C1175 C1177 1.433 . S
C1176 C1172 1.350 . S
C1176 C1173 1.463 . S
C1176 N1180 1.427 . S
C1177 H1167 0.929 . S
C1177 C1175 1.433 . S
C1177 N1180 1.384 . S
C1178 H1169 0.929 . S
C1178 C1170 1.378 . S
C1178 C1173 1.350 . S
C1179 H1166 0.929 . S
C1179 C1171 1.433 . S
C1179 N1181 1.384 . S
N1180 C1176 1.427 . S
N1180 C1177 1.384 . S
N1181 C1173 1.427 . S
N1181 C1179 1.384 . S
H1182 C1188 0.930 . S
H1183 C1192 0.930 . S
H1184 C1197 0.929 . S
H1185 C1195 0.929 . S
H1186 C1190 0.929 . S
H1187 C1196 0.929 . S
C1188 H1182 0.930 . S
C1188 C1189 1.367 . S
C1188 C1196 1.378 . S
C1189 C1188 1.367 . S
C1189 C1197 1.433 . S
C1190 H1186 0.929 . S
C1190 C1192 1.378 . S
C1190 C1194 1.350 . S
C1191 C1194 1.463 1_556 S
C1191 C1196 1.350 . S
C1191 N1199 1.427 . S
C1192 H1183 0.930 . S
C1192 C1190 1.378 . S
C1192 C1193 1.367 . S
C1193 C1192 1.367 . S
C1193 C1195 1.433 . S
C1194 C1190 1.350 . S
C1194 C1191 1.463 1_554 S
C1194 N1198 1.427 . S
C1195 H1185 0.929 . S
C1195 C1193 1.433 . S
C1195 N1198 1.384 . S
C1196 H1187 0.929 . S
C1196 C1188 1.378 . S
C1196 C1191 1.350 . S
C1197 H1184 0.929 . S
C1197 C1189 1.433 . S
C1197 N1199 1.384 . S
N1198 C1194 1.427 . S
N1198 C1195 1.384 . S
N1199 C1191 1.427 . S
N1199 C1197 1.384 . S
H1200 C1206 0.930 . S
H1201 C1210 0.930 . S
H1202 C1215 0.929 . S
H1203 C1213 0.929 . S
H1204 C1208 0.929 . S
H1205 C1214 0.929 . S
C1206 H1200 0.930 . S
C1206 C1207 1.367 . S
C1206 C1214 1.378 . S
C1207 C1206 1.367 . S
C1207 C1215 1.433 . S
C1208 H1204 0.929 . S
C1208 C1210 1.378 . S
C1208 C1212 1.350 . S
C1209 C1212 1.463 . S
C1209 C1214 1.350 . S
C1209 N1217 1.427 . S
C1210 H1201 0.930 . S
C1210 C1208 1.378 . S
C1210 C1211 1.367 . S
C1211 C1210 1.367 . S
C1211 C1213 1.433 . S
C1212 C1208 1.350 . S
C1212 C1209 1.463 . S
C1212 N1216 1.427 . S
C1213 H1203 0.929 . S
C1213 C1211 1.433 . S
C1213 N1216 1.384 . S
C1214 H1205 0.929 . S
C1214 C1206 1.378 . S
C1214 C1209 1.350 . S
C1215 H1202 0.929 . S
C1215 C1207 1.433 . S
C1215 N1217 1.384 . S
N1216 C1212 1.427 . S
N1216 C1213 1.384 . S
N1217 C1209 1.427 . S
N1217 C1215 1.384 . S
H1218 C1224 0.930 . S
H1219 C1228 0.930 . S
H1220 C1233 0.929 . S
H1221 C1231 0.929 . S
H1222 C1226 0.929 . S
H1223 C1232 0.929 . S
C1224 H1218 0.930 . S
C1224 C1225 1.367 . S
C1224 C1232 1.378 . S
C1225 C1224 1.367 . S
C1225 C1233 1.433 . S
C1226 H1222 0.929 . S
C1226 C1228 1.378 . S
C1226 C1230 1.350 . S
C1227 C1230 1.463 1_565 S
C1227 C1232 1.350 . S
C1227 N1235 1.427 . S
C1228 H1219 0.930 . S
C1228 C1226 1.378 . S
C1228 C1229 1.367 . S
C1229 C1228 1.367 . S
C1229 C1231 1.433 . S
C1230 C1226 1.350 . S
C1230 C1227 1.463 1_545 S
C1230 N1234 1.427 . S
C1231 H1221 0.929 . S
C1231 C1229 1.433 . S
C1231 N1234 1.384 . S
C1232 H1223 0.929 . S
C1232 C1224 1.378 . S
C1232 C1227 1.350 . S
C1233 H1220 0.929 . S
C1233 C1225 1.433 . S
C1233 N1235 1.384 . S
N1234 C1230 1.427 . S
N1234 C1231 1.384 . S
N1235 C1227 1.427 . S
N1235 C1233 1.384 . S
H1236 C1242 0.930 . S
H1237 C1246 0.930 . S
H1238 C1251 0.929 . S
H1239 C1249 0.929 . S
H1240 C1244 0.929 . S
H1241 C1250 0.929 . S
C1242 H1236 0.930 . S
C1242 C1243 1.367 . S
C1242 C1250 1.378 . S
C1243 C1242 1.367 . S
C1243 C1251 1.433 . S
C1244 H1240 0.929 . S
C1244 C1246 1.378 . S
C1244 C1248 1.350 . S
C1245 C1248 1.463 . S
C1245 C1250 1.350 . S
C1245 N1253 1.427 . S
C1246 H1237 0.930 . S
C1246 C1244 1.378 . S
C1246 C1247 1.367 . S
C1247 C1246 1.367 . S
C1247 C1249 1.433 . S
C1248 C1244 1.350 . S
C1248 C1245 1.463 . S
C1248 N1252 1.427 . S
C1249 H1239 0.929 . S
C1249 C1247 1.433 . S
C1249 N1252 1.384 . S
C1250 H1241 0.929 . S
C1250 C1242 1.378 . S
C1250 C1245 1.350 . S
C1251 H1238 0.929 . S
C1251 C1243 1.433 . S
C1251 N1253 1.384 . S
N1252 C1248 1.427 . S
N1252 C1249 1.384 . S
N1253 C1245 1.427 . S
N1253 C1251 1.384 . S
H1254 C1260 0.930 . S
H1255 C1264 0.930 . S
H1256 C1269 0.929 . S
H1257 C1267 0.929 . S
H1258 C1262 0.929 . S
H1259 C1268 0.929 . S
C1260 H1254 0.930 . S
C1260 C1261 1.367 . S
C1260 C1268 1.378 . S
C1261 C1260 1.367 . S
C1261 C1269 1.433 . S
C1262 H1258 0.929 . S
C1262 C1264 1.378 . S
C1262 C1266 1.350 . S
C1263 C1266 1.463 1_545 S
C1263 C1268 1.350 . S
C1263 N1271 1.427 . S
C1264 H1255 0.930 . S
C1264 C1262 1.378 . S
C1264 C1265 1.367 . S
C1265 C1264 1.367 . S
C1265 C1267 1.433 . S
C1266 C1262 1.350 . S
C1266 C1263 1.463 1_565 S
C1266 N1270 1.427 . S
C1267 H1257 0.929 . S
C1267 C1265 1.433 . S
C1267 N1270 1.384 . S
C1268 H1259 0.929 . S
C1268 C1260 1.378 . S
C1268 C1263 1.350 . S
C1269 H1256 0.929 . S
C1269 C1261 1.433 . S
C1269 N1271 1.384 . S
N1270 C1266 1.427 . S
N1270 C1267 1.384 . S
N1271 C1263 1.427 . S
N1271 C1269 1.384 . S
H1272 C1278 0.930 . S
H1273 C1282 0.930 . S
H1274 C1287 0.929 . S
H1275 C1285 0.929 . S
H1276 C1280 0.929 . S
H1277 C1286 0.929 . S
C1278 H1272 0.930 . S
C1278 C1279 1.367 . S
C1278 C1286 1.378 . S
C1279 C1278 1.367 . S
C1279 C1287 1.433 . S
C1280 H1276 0.929 . S
C1280 C1282 1.378 . S
C1280 C1284 1.350 . S
C1281 C1284 1.463 . S
C1281 C1286 1.350 . S
C1281 N1289 1.427 . S
C1282 H1273 0.930 . S
C1282 C1280 1.378 . S
C1282 C1283 1.367 . S
C1283 C1282 1.367 . S
C1283 C1285 1.433 . S
C1284 C1280 1.350 . S
C1284 C1281 1.463 . S
C1284 N1288 1.427 . S
C1285 H1275 0.929 . S
C1285 C1283 1.433 . S
C1285 N1288 1.384 . S
C1286 H1277 0.929 . S
C1286 C1278 1.378 . S
C1286 C1281 1.350 . S
C1287 H1274 0.929 . S
C1287 C1279 1.433 . S
C1287 N1289 1.384 . S
N1288 C1284 1.427 . S
N1288 C1285 1.384 . S
N1289 C1281 1.427 . S
N1289 C1287 1.384 . S
H1290 C1296 0.930 . S
H1291 C1300 0.930 . S
H1292 C1305 0.929 . S
H1293 C1303 0.929 . S
H1294 C1298 0.929 . S
H1295 C1304 0.929 . S
C1296 H1290 0.930 . S
C1296 C1297 1.367 . S
C1296 C1304 1.378 . S
C1297 C1296 1.367 . S
C1297 C1305 1.433 . S
C1298 H1294 0.929 . S
C1298 C1300 1.378 . S
C1298 C1302 1.350 . S
C1299 C1302 1.463 1_565 S
C1299 C1304 1.350 . S
C1299 N1307 1.427 . S
C1300 H1291 0.930 . S
C1300 C1298 1.378 . S
C1300 C1301 1.367 . S
C1301 C1300 1.367 . S
C1301 C1303 1.433 . S
C1302 C1298 1.350 . S
C1302 C1299 1.463 1_545 S
C1302 N1306 1.427 . S
C1303 H1293 0.929 . S
C1303 C1301 1.433 . S
C1303 N1306 1.384 . S
C1304 H1295 0.929 . S
C1304 C1296 1.378 . S
C1304 C1299 1.350 . S
C1305 H1292 0.929 . S
C1305 C1297 1.433 . S
C1305 N1307 1.384 . S
N1306 C1302 1.427 . S
N1306 C1303 1.384 . S
N1307 C1299 1.427 . S
N1307 C1305 1.384 . S
H1308 C1314 0.930 . S
H1309 C1318 0.930 . S
H1310 C1323 0.929 . S
H1311 C1321 0.929 . S
H1312 C1316 0.929 . S
H1313 C1322 0.929 . S
C1314 H1308 0.930 . S
C1314 C1315 1.367 . S
C1314 C1322 1.378 . S
C1315 C1314 1.367 . S
C1315 C1323 1.433 . S
C1316 H1312 0.929 . S
C1316 C1318 1.378 . S
C1316 C1320 1.350 . S
C1317 C1320 1.463 . S
C1317 C1322 1.350 . S
C1317 N1325 1.427 . S
C1318 H1309 0.930 . S
C1318 C1316 1.378 . S
C1318 C1319 1.367 . S
C1319 C1318 1.367 . S
C1319 C1321 1.433 . S
C1320 C1316 1.350 . S
C1320 C1317 1.463 . S
C1320 N1324 1.427 . S
C1321 H1311 0.929 . S
C1321 C1319 1.433 . S
C1321 N1324 1.384 . S
C1322 H1313 0.929 . S
C1322 C1314 1.378 . S
C1322 C1317 1.350 . S
C1323 H1310 0.929 . S
C1323 C1315 1.433 . S
C1323 N1325 1.384 . S
N1324 C1320 1.427 . S
N1324 C1321 1.384 . S
N1325 C1317 1.427 . S
N1325 C1323 1.384 . S
H1326 C1332 0.930 . S
H1327 C1336 0.930 . S
H1328 C1341 0.929 . S
H1329 C1339 0.929 . S
H1330 C1334 0.929 . S
H1331 C1340 0.929 . S
C1332 H1326 0.930 . S
C1332 C1333 1.367 . S
C1332 C1340 1.378 . S
C1333 C1332 1.367 . S
C1333 C1341 1.433 . S
C1334 H1330 0.929 . S
C1334 C1336 1.378 . S
C1334 C1338 1.350 . S
C1335 C1338 1.463 1_565 S
C1335 C1340 1.350 . S
C1335 N1343 1.427 . S
C1336 H1327 0.930 . S
C1336 C1334 1.378 . S
C1336 C1337 1.367 . S
C1337 C1336 1.367 . S
C1337 C1339 1.433 . S
C1338 C1334 1.350 . S
C1338 C1335 1.463 1_545 S
C1338 N1342 1.427 . S
C1339 H1329 0.929 . S
C1339 C1337 1.433 . S
C1339 N1342 1.384 . S
C1340 H1331 0.929 . S
C1340 C1332 1.378 . S
C1340 C1335 1.350 . S
C1341 H1328 0.929 . S
C1341 C1333 1.433 . S
C1341 N1343 1.384 . S
N1342 C1338 1.427 . S
N1342 C1339 1.384 . S
N1343 C1335 1.427 . S
N1343 C1341 1.384 . S
H1344 C1350 0.930 . S
H1345 C1354 0.930 . S
H1346 C1359 0.929 . S
H1347 C1357 0.929 . S
H1348 C1352 0.929 . S
H1349 C1358 0.929 . S
C1350 H1344 0.930 . S
C1350 C1351 1.367 . S
C1350 C1358 1.378 . S
C1351 C1350 1.367 . S
C1351 C1359 1.433 . S
C1352 H1348 0.929 . S
C1352 C1354 1.378 . S
C1352 C1356 1.350 . S
C1353 C1356 1.463 . S
C1353 C1358 1.350 . S
C1353 N1361 1.427 . S
C1354 H1345 0.930 . S
C1354 C1352 1.378 . S
C1354 C1355 1.367 . S
C1355 C1354 1.367 . S
C1355 C1357 1.433 . S
C1356 C1352 1.350 . S
C1356 C1353 1.463 . S
C1356 N1360 1.427 . S
C1357 H1347 0.929 . S
C1357 C1355 1.433 . S
C1357 N1360 1.384 . S
C1358 H1349 0.929 . S
C1358 C1350 1.378 . S
C1358 C1353 1.350 . S
C1359 H1346 0.929 . S
C1359 C1351 1.433 . S
C1359 N1361 1.384 . S
N1360 C1356 1.427 . S
N1360 C1357 1.384 . S
N1361 C1353 1.427 . S
N1361 C1359 1.384 . S
H1362 C1368 0.930 . S
H1363 C1372 0.930 . S
H1364 C1377 0.929 . S
H1365 C1375 0.929 . S
H1366 C1370 0.929 . S
H1367 C1376 0.929 . S
C1368 H1362 0.930 . S
C1368 C1369 1.367 . S
C1368 C1376 1.378 . S
C1369 C1368 1.367 . S
C1369 C1377 1.433 . S
C1370 H1366 0.929 . S
C1370 C1372 1.378 . S
C1370 C1374 1.350 . S
C1371 C1374 1.463 . S
C1371 C1376 1.350 . S
C1371 N1379 1.427 . S
C1372 H1363 0.930 . S
C1372 C1370 1.378 . S
C1372 C1373 1.367 . S
C1373 C1372 1.367 . S
C1373 C1375 1.433 . S
C1374 C1370 1.350 . S
C1374 C1371 1.463 . S
C1374 N1378 1.427 . S
C1375 H1365 0.929 . S
C1375 C1373 1.433 . S
C1375 N1378 1.384 . S
C1376 H1367 0.929 . S
C1376 C1368 1.378 . S
C1376 C1371 1.350 . S
C1377 H1364 0.929 . S
C1377 C1369 1.433 . S
C1377 N1379 1.384 . S
N1378 C1374 1.427 . S
N1378 C1375 1.384 . S
N1379 C1371 1.427 . S
N1379 C1377 1.384 . S
H1380 C1386 0.930 . S
H1381 C1390 0.930 . S
H1382 C1395 0.929 . S
H1383 C1393 0.929 . S
H1384 C1388 0.929 . S
H1385 C1394 0.929 . S
C1386 H1380 0.930 . S
C1386 C1387 1.367 . S
C1386 C1394 1.378 . S
C1387 C1386 1.367 . S
C1387 C1395 1.433 . S
C1388 H1384 0.929 . S
C1388 C1390 1.378 . S
C1388 C1392 1.350 . S
C1389 C1392 1.463 1_455 S
C1389 C1394 1.350 . S
C1389 N1397 1.427 . S
C1390 H1381 0.930 . S
C1390 C1388 1.378 . S
C1390 C1391 1.367 . S
C1391 C1390 1.367 . S
C1391 C1393 1.433 . S
C1392 C1388 1.350 . S
C1392 C1389 1.463 1_655 S
C1392 N1396 1.427 . S
C1393 H1383 0.929 . S
C1393 C1391 1.433 . S
C1393 N1396 1.384 . S
C1394 H1385 0.929 . S
C1394 C1386 1.378 . S
C1394 C1389 1.350 . S
C1395 H1382 0.929 . S
C1395 C1387 1.433 . S
C1395 N1397 1.384 . S
N1396 C1392 1.427 . S
N1396 C1393 1.384 . S
N1397 C1389 1.427 . S
N1397 C1395 1.384 . S
H1398 C1404 0.930 . S
H1399 C1408 0.930 . S
H1400 C1413 0.929 . S
H1401 C1411 0.929 . S
H1402 C1406 0.929 . S
H1403 C1412 0.929 . S
C1404 H1398 0.930 . S
C1404 C1405 1.367 . S
C1404 C1412 1.378 . S
C1405 C1404 1.367 . S
C1405 C1413 1.433 . S
C1406 H1402 0.929 . S
C1406 C1408 1.378 . S
C1406 C1410 1.350 . S
C1407 C1410 1.463 . S
C1407 C1412 1.350 . S
C1407 N1415 1.427 . S
C1408 H1399 0.930 . S
C1408 C1406 1.378 . S
C1408 C1409 1.367 . S
C1409 C1408 1.367 . S
C1409 C1411 1.433 . S
C1410 C1406 1.350 . S
C1410 C1407 1.463 . S
C1410 N1414 1.427 . S
C1411 H1401 0.929 . S
C1411 C1409 1.433 . S
C1411 N1414 1.384 . S
C1412 H1403 0.929 . S
C1412 C1404 1.378 . S
C1412 C1407 1.350 . S
C1413 H1400 0.929 . S
C1413 C1405 1.433 . S
C1413 N1415 1.384 . S
N1414 C1410 1.427 . S
N1414 C1411 1.384 . S
N1415 C1407 1.427 . S
N1415 C1413 1.384 . S
H1416 C1422 0.930 . S
H1417 C1426 0.930 . S
H1418 C1431 0.929 . S
H1419 C1429 0.929 . S
H1420 C1424 0.929 . S
H1421 C1430 0.929 . S
C1422 H1416 0.930 . S
C1422 C1423 1.367 . S
C1422 C1430 1.378 . S
C1423 C1422 1.367 . S
C1423 C1431 1.433 . S
C1424 H1420 0.929 . S
C1424 C1426 1.378 . S
C1424 C1428 1.350 . S
C1425 C1428 1.463 1_455 S
C1425 C1430 1.350 . S
C1425 N1433 1.427 . S
C1426 H1417 0.930 . S
C1426 C1424 1.378 . S
C1426 C1427 1.367 . S
C1427 C1426 1.367 . S
C1427 C1429 1.433 . S
C1428 C1424 1.350 . S
C1428 C1425 1.463 1_655 S
C1428 N1432 1.427 . S
C1429 H1419 0.929 . S
C1429 C1427 1.433 . S
C1429 N1432 1.384 . S
C1430 H1421 0.929 . S
C1430 C1422 1.378 . S
C1430 C1425 1.350 . S
C1431 H1418 0.929 . S
C1431 C1423 1.433 . S
C1431 N1433 1.384 . S
N1432 C1428 1.427 . S
N1432 C1429 1.384 . S
N1433 C1425 1.427 . S
N1433 C1431 1.384 . S
H1434 C1440 0.930 . S
H1435 C1444 0.930 . S
H1436 C1449 0.929 . S
H1437 C1447 0.929 . S
H1438 C1442 0.929 . S
H1439 C1448 0.929 . S
C1440 H1434 0.930 . S
C1440 C1441 1.367 . S
C1440 C1448 1.378 . S
C1441 C1440 1.367 . S
C1441 C1449 1.433 . S
C1442 H1438 0.929 . S
C1442 C1444 1.378 . S
C1442 C1446 1.350 . S
C1443 C1446 1.463 . S
C1443 C1448 1.350 . S
C1443 N1451 1.427 . S
C1444 H1435 0.930 . S
C1444 C1442 1.378 . S
C1444 C1445 1.367 . S
C1445 C1444 1.367 . S
C1445 C1447 1.433 . S
C1446 C1442 1.350 . S
C1446 C1443 1.463 . S
C1446 N1450 1.427 . S
C1447 H1437 0.929 . S
C1447 C1445 1.433 . S
C1447 N1450 1.384 . S
C1448 H1439 0.929 . S
C1448 C1440 1.378 . S
C1448 C1443 1.350 . S
C1449 H1436 0.929 . S
C1449 C1441 1.433 . S
C1449 N1451 1.384 . S
N1450 C1446 1.427 . S
N1450 C1447 1.384 . S
N1451 C1443 1.427 . S
N1451 C1449 1.384 . S
H1452 C1458 0.930 . S
H1453 C1462 0.930 . S
H1454 C1467 0.929 . S
H1455 C1465 0.929 . S
H1456 C1460 0.929 1_655 S
H1457 C1466 0.929 . S
C1458 H1452 0.930 . S
C1458 C1459 1.367 . S
C1458 C1466 1.378 . S
C1459 C1458 1.367 . S
C1459 C1467 1.433 . S
C1460 H1456 0.929 1_455 S
C1460 C1462 1.378 . S
C1460 C1464 1.350 1_455 S
C1461 C1464 1.463 . S
C1461 C1466 1.350 . S
C1461 N1469 1.427 . S
C1462 H1453 0.930 . S
C1462 C1460 1.378 . S
C1462 C1463 1.367 . S
C1463 C1462 1.367 . S
C1463 C1465 1.433 . S
C1464 C1460 1.350 1_655 S
C1464 C1461 1.463 . S
C1464 N1468 1.427 1_655 S
C1465 H1455 0.929 . S
C1465 C1463 1.433 . S
C1465 N1468 1.384 . S
C1466 H1457 0.929 . S
C1466 C1458 1.378 . S
C1466 C1461 1.350 . S
C1467 H1454 0.929 . S
C1467 C1459 1.433 . S
C1467 N1469 1.384 . S
N1468 C1464 1.427 1_455 S
N1468 C1465 1.384 . S
N1469 C1461 1.427 . S
N1469 C1467 1.384 . S
H1470 C1476 0.930 . S
H1471 C1480 0.930 . S
H1472 C1485 0.929 . S
H1473 C1483 0.929 . S
H1474 C1478 0.929 1_455 S
H1475 C1484 0.929 . S
C1476 H1470 0.930 . S
C1476 C1477 1.367 . S
C1476 C1484 1.378 . S
C1477 C1476 1.367 . S
C1477 C1485 1.433 . S
C1478 H1474 0.929 1_655 S
C1478 C1480 1.378 . S
C1478 C1482 1.350 1_655 S
C1479 C1482 1.463 . S
C1479 C1484 1.350 . S
C1479 N1487 1.427 . S
C1480 H1471 0.930 . S
C1480 C1478 1.378 . S
C1480 C1481 1.367 . S
C1481 C1480 1.367 . S
C1481 C1483 1.433 . S
C1482 C1478 1.350 1_455 S
C1482 C1479 1.463 . S
C1482 N1486 1.409 1_455 S
C1483 H1473 0.929 . S
C1483 C1481 1.433 . S
C1483 N1486 1.426 . S
C1484 H1475 0.929 . S
C1484 C1476 1.378 . S
C1484 C1479 1.350 . S
C1485 H1472 0.929 . S
C1485 C1477 1.433 . S
C1485 N1487 1.384 . S
N1486 C1482 1.409 1_655 S
N1486 C1483 1.426 . S
N1487 C1479 1.427 . S
N1487 C1485 1.384 . S
H1488 C1494 0.930 . S
H1489 C1498 0.930 . S
H1490 C1503 0.929 . S
H1491 C1501 0.929 . S
H1492 C1496 0.929 . S
H1493 C1502 0.929 . S
C1494 H1488 0.930 . S
C1494 C1495 1.367 . S
C1494 C1502 1.378 . S
C1495 C1494 1.367 . S
C1495 C1503 1.433 . S
C1496 H1492 0.929 . S
C1496 C1498 1.378 . S
C1496 C1500 1.350 . S
C1497 C1500 1.463 1_655 S
C1497 C1502 1.350 . S
C1497 N1505 1.427 . S
C1498 H1489 0.930 . S
C1498 C1496 1.378 . S
C1498 C1499 1.367 . S
C1499 C1498 1.367 . S
C1499 C1501 1.433 . S
C1500 C1496 1.350 . S
C1500 C1497 1.463 1_455 S
C1500 N1504 1.427 . S
C1501 H1491 0.929 . S
C1501 C1499 1.433 . S
C1501 N1504 1.384 . S
C1502 H1493 0.929 . S
C1502 C1494 1.378 . S
C1502 C1497 1.350 . S
C1503 H1490 0.929 . S
C1503 C1495 1.433 . S
C1503 N1505 1.384 . S
N1504 C1500 1.427 . S
N1504 C1501 1.384 . S
N1505 C1497 1.427 . S
N1505 C1503 1.384 . S
H1506 C1512 0.930 . S
H1507 C1516 0.930 . S
H1508 C1521 0.929 . S
H1509 C1519 0.929 . S
H1510 C1514 0.929 . S
H1511 C1520 0.929 . S
C1512 H1506 0.930 . S
C1512 C1513 1.367 . S
C1512 C1520 1.378 . S
C1513 C1512 1.367 . S
C1513 C1521 1.433 . S
C1514 H1510 0.929 . S
C1514 C1516 1.378 . S
C1514 C1518 1.350 . S
C1515 C1518 1.463 . S
C1515 C1520 1.350 . S
C1515 N1523 1.427 . S
C1516 H1507 0.930 . S
C1516 C1514 1.378 . S
C1516 C1517 1.367 . S
C1517 C1516 1.367 . S
C1517 C1519 1.433 . S
C1518 C1514 1.350 . S
C1518 C1515 1.463 . S
C1518 N1522 1.427 . S
C1519 H1509 0.929 . S
C1519 C1517 1.433 . S
C1519 N1522 1.384 . S
C1520 H1511 0.929 . S
C1520 C1512 1.378 . S
C1520 C1515 1.350 . S
C1521 H1508 0.929 . S
C1521 C1513 1.433 . S
C1521 N1523 1.384 . S
N1522 C1518 1.427 . S
N1522 C1519 1.384 . S
N1523 C1515 1.427 . S
N1523 C1521 1.384 . S
H1524 C1530 0.930 . S
H1525 C1534 0.930 . S
H1526 C1539 0.929 . S
H1527 C1537 0.929 . S
H1528 C1532 0.929 . S
H1529 C1538 0.929 . S
C1530 H1524 0.930 . S
C1530 C1531 1.367 . S
C1530 C1538 1.378 . S
C1531 C1530 1.367 . S
C1531 C1539 1.433 . S
C1532 H1528 0.929 . S
C1532 C1534 1.378 . S
C1532 C1536 1.350 . S
C1533 C1536 1.463 1_455 S
C1533 C1538 1.350 . S
C1533 N1541 1.427 . S
C1534 H1525 0.930 . S
C1534 C1532 1.378 . S
C1534 C1535 1.367 . S
C1535 C1534 1.367 . S
C1535 C1537 1.433 . S
C1536 C1532 1.350 . S
C1536 C1533 1.463 1_655 S
C1536 N1540 1.427 . S
C1537 H1527 0.929 . S
C1537 C1535 1.433 . S
C1537 N1540 1.384 . S
C1538 H1529 0.929 . S
C1538 C1530 1.378 . S
C1538 C1533 1.350 . S
C1539 H1526 0.929 . S
C1539 C1531 1.433 . S
C1539 N1541 1.384 . S
N1540 C1536 1.427 . S
N1540 C1537 1.384 . S
N1541 C1533 1.427 . S
N1541 C1539 1.384 . S
H1542 C1548 0.930 . S
H1543 C1552 0.930 . S
H1544 C1557 0.929 . S
H1545 C1555 0.929 . S
H1546 C1550 0.929 . S
H1547 C1556 0.929 . S
C1548 H1542 0.930 . S
C1548 C1549 1.367 . S
C1548 C1556 1.378 . S
C1549 C1548 1.367 . S
C1549 C1557 1.433 . S
C1550 H1546 0.929 . S
C1550 C1552 1.378 . S
C1550 C1554 1.350 . S
C1551 C1554 1.463 . S
C1551 C1556 1.350 . S
C1551 N1559 1.427 . S
C1552 H1543 0.930 . S
C1552 C1550 1.378 . S
C1552 C1553 1.367 . S
C1553 C1552 1.367 . S
C1553 C1555 1.433 . S
C1554 C1550 1.350 . S
C1554 C1551 1.463 . S
C1554 N1558 1.427 . S
C1555 H1545 0.929 . S
C1555 C1553 1.433 . S
C1555 N1558 1.384 . S
C1556 H1547 0.929 . S
C1556 C1548 1.378 . S
C1556 C1551 1.350 . S
C1557 H1544 0.929 . S
C1557 C1549 1.433 . S
C1557 N1559 1.384 . S
N1558 C1554 1.427 . S
N1558 C1555 1.384 . S
N1559 C1551 1.427 . S
N1559 C1557 1.384 . S
H1560 C1566 0.930 . S
H1561 C1570 0.930 . S
H1562 C1575 0.929 . S
H1563 C1573 0.929 . S
H1564 C1568 0.929 . S
H1565 C1574 0.929 . S
C1566 H1560 0.930 . S
C1566 C1567 1.367 . S
C1566 C1574 1.378 . S
C1567 C1566 1.367 . S
C1567 C1575 1.433 . S
C1568 H1564 0.929 . S
C1568 C1570 1.378 . S
C1568 C1572 1.350 . S
C1569 C1572 1.463 1_655 S
C1569 C1574 1.350 . S
C1569 N1577 1.427 . S
C1570 H1561 0.930 . S
C1570 C1568 1.378 . S
C1570 C1571 1.367 . S
C1571 C1570 1.367 . S
C1571 C1573 1.433 . S
C1572 C1568 1.350 . S
C1572 C1569 1.463 1_455 S
C1572 N1576 1.427 . S
C1573 H1563 0.929 . S
C1573 C1571 1.433 . S
C1573 N1576 1.384 . S
C1574 H1565 0.929 . S
C1574 C1566 1.378 . S
C1574 C1569 1.350 . S
C1575 H1562 0.929 . S
C1575 C1567 1.433 . S
C1575 N1577 1.384 . S
N1576 C1572 1.427 . S
N1576 C1573 1.384 . S
N1577 C1569 1.427 . S
N1577 C1575 1.384 . S
H1578 C1584 0.930 . S
H1579 C1588 0.930 . S
H1580 C1593 0.929 . S
H1581 C1591 0.929 . S
H1582 C1586 0.929 . S
H1583 C1592 0.929 . S
C1584 H1578 0.930 . S
C1584 C1585 1.367 . S
C1584 C1592 1.378 . S
C1585 C1584 1.367 . S
C1585 C1593 1.433 . S
C1586 H1582 0.929 . S
C1586 C1588 1.378 . S
C1586 C1590 1.350 . S
C1587 C1590 1.463 . S
C1587 C1592 1.350 . S
C1587 N1595 1.427 . S
C1588 H1579 0.930 . S
C1588 C1586 1.378 . S
C1588 C1589 1.367 . S
C1589 C1588 1.367 . S
C1589 C1591 1.433 . S
C1590 C1586 1.350 . S
C1590 C1587 1.463 . S
C1590 N1594 1.427 . S
C1591 H1581 0.929 . S
C1591 C1589 1.433 . S
C1591 N1594 1.384 . S
C1592 H1583 0.929 . S
C1592 C1584 1.378 . S
C1592 C1587 1.350 . S
C1593 H1580 0.929 . S
C1593 C1585 1.433 . S
C1593 N1595 1.384 . S
N1594 C1590 1.427 . S
N1594 C1591 1.384 . S
N1595 C1587 1.427 . S
N1595 C1593 1.384 . S
H1596 C1602 0.930 . S
H1597 C1606 0.930 . S
H1598 C1611 0.929 . S
H1599 C1609 0.929 . S
H1600 C1604 0.929 . S
H1601 C1610 0.929 . S
C1602 H1596 0.930 . S
C1602 C1603 1.367 . S
C1602 C1610 1.378 . S
C1603 C1602 1.367 . S
C1603 C1611 1.433 . S
C1604 H1600 0.929 . S
C1604 C1606 1.378 . S
C1604 C1608 1.350 . S
C1605 C1608 1.463 1_655 S
C1605 C1610 1.350 . S
C1605 N1613 1.427 . S
C1606 H1597 0.930 . S
C1606 C1604 1.378 . S
C1606 C1607 1.367 . S
C1607 C1606 1.367 . S
C1607 C1609 1.433 . S
C1608 C1604 1.350 . S
C1608 C1605 1.463 1_455 S
C1608 N1612 1.427 . S
C1609 H1599 0.929 . S
C1609 C1607 1.433 . S
C1609 N1612 1.384 . S
C1610 H1601 0.929 . S
C1610 C1602 1.378 . S
C1610 C1605 1.350 . S
C1611 H1598 0.929 . S
C1611 C1603 1.433 . S
C1611 N1613 1.384 . S
N1612 C1608 1.427 . S
N1612 C1609 1.384 . S
N1613 C1605 1.427 . S
N1613 C1611 1.384 . S
H1614 C1620 0.930 . S
H1615 C1624 0.930 . S
H1616 C1629 0.929 . S
H1617 C1627 0.929 . S
H1618 C1622 0.929 . S
H1619 C1628 0.929 . S
C1620 H1614 0.930 . S
C1620 C1621 1.367 . S
C1620 C1628 1.378 . S
C1621 C1620 1.367 . S
C1621 C1629 1.433 . S
C1622 H1618 0.929 . S
C1622 C1624 1.378 . S
C1622 C1626 1.350 . S
C1623 C1626 1.463 . S
C1623 C1628 1.350 . S
C1623 N1631 1.427 . S
C1624 H1615 0.930 . S
C1624 C1622 1.378 . S
C1624 C1625 1.367 . S
C1625 C1624 1.367 . S
C1625 C1627 1.433 . S
C1626 C1622 1.350 . S
C1626 C1623 1.463 . S
C1626 N1630 1.427 . S
C1627 H1617 0.929 . S
C1627 C1625 1.433 . S
C1627 N1630 1.384 . S
C1628 H1619 0.929 . S
C1628 C1620 1.378 . S
C1628 C1623 1.350 . S
C1629 H1616 0.929 . S
C1629 C1621 1.433 . S
C1629 N1631 1.384 . S
N1630 C1626 1.427 . S
N1630 C1627 1.384 . S
N1631 C1623 1.427 . S
N1631 C1629 1.384 . S
H1632 C1638 0.930 . S
H1633 C1642 0.930 . S
H1634 C1647 0.929 . S
H1635 C1645 0.929 . S
H1636 C1640 0.929 . S
H1637 C1646 0.929 . S
C1638 H1632 0.930 . S
C1638 C1639 1.367 . S
C1638 C1646 1.378 . S
C1639 C1638 1.367 . S
C1639 C1647 1.433 . S
C1640 H1636 0.929 . S
C1640 C1642 1.378 . S
C1640 C1644 1.350 . S
C1641 C1644 1.463 1_545 S
C1641 C1646 1.350 . S
C1641 N1649 1.427 . S
C1642 H1633 0.930 . S
C1642 C1640 1.378 . S
C1642 C1643 1.367 . S
C1643 C1642 1.367 . S
C1643 C1645 1.433 . S
C1644 C1640 1.350 . S
C1644 C1641 1.463 1_565 S
C1644 N1648 1.427 . S
C1645 H1635 0.929 . S
C1645 C1643 1.433 . S
C1645 N1648 1.384 . S
C1646 H1637 0.929 . S
C1646 C1638 1.378 . S
C1646 C1641 1.350 . S
C1647 H1634 0.929 . S
C1647 C1639 1.433 . S
C1647 N1649 1.384 . S
N1648 C1644 1.427 . S
N1648 C1645 1.384 . S
N1649 C1641 1.427 . S
N1649 C1647 1.384 . S
H1650 C1656 0.930 . S
H1651 C1660 0.930 . S
H1652 C1665 0.929 . S
H1653 C1663 0.929 . S
H1654 C1658 0.929 . S
H1655 C1664 0.929 . S
C1656 H1650 0.930 . S
C1656 C1657 1.367 . S
C1656 C1664 1.378 . S
C1657 C1656 1.367 . S
C1657 C1665 1.433 . S
C1658 H1654 0.929 . S
C1658 C1660 1.378 . S
C1658 C1662 1.350 . S
C1659 C1662 1.463 . S
C1659 C1664 1.350 . S
C1659 N1667 1.427 . S
C1660 H1651 0.930 . S
C1660 C1658 1.378 . S
C1660 C1661 1.367 . S
C1661 C1660 1.367 . S
C1661 C1663 1.433 . S
C1662 C1658 1.350 . S
C1662 C1659 1.463 . S
C1662 N1666 1.427 . S
C1663 H1653 0.929 . S
C1663 C1661 1.433 . S
C1663 N1666 1.384 . S
C1664 H1655 0.929 . S
C1664 C1656 1.378 . S
C1664 C1659 1.350 . S
C1665 H1652 0.929 . S
C1665 C1657 1.433 . S
C1665 N1667 1.384 . S
N1666 C1662 1.427 . S
N1666 C1663 1.384 . S
N1667 C1659 1.427 . S
N1667 C1665 1.384 . S
H1668 C1674 0.930 . S
H1669 C1678 0.930 . S
H1670 C1683 0.929 . S
H1671 C1681 0.929 . S
H1672 C1676 0.929 . S
H1673 C1682 0.929 . S
C1674 H1668 0.930 . S
C1674 C1675 1.367 . S
C1674 C1682 1.378 . S
C1675 C1674 1.367 . S
C1675 C1683 1.433 . S
C1676 H1672 0.929 . S
C1676 C1678 1.378 . S
C1676 C1680 1.350 . S
C1677 C1680 1.463 1_545 S
C1677 C1682 1.350 . S
C1677 N1685 1.427 . S
C1678 H1669 0.930 . S
C1678 C1676 1.378 . S
C1678 C1679 1.367 . S
C1679 C1678 1.367 . S
C1679 C1681 1.433 . S
C1680 C1676 1.350 . S
C1680 C1677 1.463 1_565 S
C1680 N1684 1.427 . S
C1681 H1671 0.929 . S
C1681 C1679 1.433 . S
C1681 N1684 1.384 . S
C1682 H1673 0.929 . S
C1682 C1674 1.378 . S
C1682 C1677 1.350 . S
C1683 H1670 0.929 . S
C1683 C1675 1.433 . S
C1683 N1685 1.384 . S
N1684 C1680 1.427 . S
N1684 C1681 1.384 . S
N1685 C1677 1.427 . S
N1685 C1683 1.384 . S
H1686 C1692 0.930 . S
H1687 C1696 0.930 . S
H1688 C1701 0.929 . S
H1689 C1699 0.929 . S
H1690 C1694 0.929 . S
H1691 C1700 0.929 . S
C1692 H1686 0.930 . S
C1692 C1693 1.367 . S
C1692 C1700 1.378 . S
C1693 C1692 1.367 . S
C1693 C1701 1.433 . S
C1694 H1690 0.929 . S
C1694 C1696 1.378 . S
C1694 C1698 1.350 . S
C1695 C1698 1.463 . S
C1695 C1700 1.350 . S
C1695 N1703 1.427 . S
C1696 H1687 0.930 . S
C1696 C1694 1.378 . S
C1696 C1697 1.367 . S
C1697 C1696 1.367 . S
C1697 C1699 1.433 . S
C1698 C1694 1.350 . S
C1698 C1695 1.463 . S
C1698 N1702 1.427 . S
C1699 H1689 0.929 . S
C1699 C1697 1.433 . S
C1699 N1702 1.384 . S
C1700 H1691 0.929 . S
C1700 C1692 1.378 . S
C1700 C1695 1.350 . S
C1701 H1688 0.929 . S
C1701 C1693 1.433 . S
C1701 N1703 1.384 . S
N1702 C1698 1.427 . S
N1702 C1699 1.384 . S
N1703 C1695 1.427 . S
N1703 C1701 1.384 . S
H1704 C1710 0.930 . S
H1705 C1714 0.930 . S
H1706 C1719 0.929 . S
H1707 C1717 0.929 . S
H1708 C1712 0.929 . S
H1709 C1718 0.929 . S
C1710 H1704 0.930 . S
C1710 C1711 1.367 . S
C1710 C1718 1.378 . S
C1711 C1710 1.367 . S
C1711 C1719 1.433 . S
C1712 H1708 0.929 . S
C1712 C1714 1.378 . S
C1712 C1716 1.350 . S
C1713 C1716 1.463 1_545 S
C1713 C1718 1.350 . S
C1713 N1721 1.427 . S
C1714 H1705 0.930 . S
C1714 C1712 1.378 . S
C1714 C1715 1.367 . S
C1715 C1714 1.367 . S
C1715 C1717 1.433 . S
C1716 C1712 1.350 . S
C1716 C1713 1.463 1_565 S
C1716 N1720 1.427 . S
C1717 H1707 0.929 . S
C1717 C1715 1.433 . S
C1717 N1720 1.384 . S
C1718 H1709 0.929 . S
C1718 C1710 1.378 . S
C1718 C1713 1.350 . S
C1719 H1706 0.929 . S
C1719 C1711 1.433 . S
C1719 N1721 1.384 . S
N1720 C1716 1.427 . S
N1720 C1717 1.384 . S
N1721 C1713 1.427 . S
N1721 C1719 1.384 . S
H1722 C1728 0.930 . S
H1723 C1732 0.930 . S
H1724 C1737 0.929 . S
H1725 C1735 0.929 . S
H1726 C1730 0.929 . S
H1727 C1736 0.929 . S
C1728 H1722 0.930 . S
C1728 C1729 1.367 . S
C1728 C1736 1.378 . S
C1729 C1728 1.367 . S
C1729 C1737 1.433 . S
C1730 H1726 0.929 . S
C1730 C1732 1.378 . S
C1730 C1734 1.350 . S
C1731 C1734 1.463 . S
C1731 C1736 1.350 . S
C1731 N1739 1.427 . S
C1732 H1723 0.930 . S
C1732 C1730 1.378 . S
C1732 C1733 1.367 . S
C1733 C1732 1.367 . S
C1733 C1735 1.433 . S
C1734 C1730 1.350 . S
C1734 C1731 1.463 . S
C1734 N1738 1.427 . S
C1735 H1725 0.929 . S
C1735 C1733 1.433 . S
C1735 N1738 1.384 . S
C1736 H1727 0.929 . S
C1736 C1728 1.378 . S
C1736 C1731 1.350 . S
C1737 H1724 0.929 . S
C1737 C1729 1.433 . S
C1737 N1739 1.384 . S
N1738 C1734 1.427 . S
N1738 C1735 1.384 . S
N1739 C1731 1.427 . S
N1739 C1737 1.384 . S
H1740 C1746 0.930 . S
H1741 C1750 0.930 . S
H1742 C1755 0.929 . S
H1743 C1753 0.929 . S
H1744 C1748 0.929 . S
H1745 C1754 0.929 . S
C1746 H1740 0.930 . S
C1746 C1747 1.367 . S
C1746 C1754 1.378 . S
C1747 C1746 1.367 . S
C1747 C1755 1.433 . S
C1748 H1744 0.929 . S
C1748 C1750 1.378 . S
C1748 C1752 1.350 . S
C1749 C1752 1.463 1_545 S
C1749 C1754 1.350 . S
C1749 N1757 1.427 . S
C1750 H1741 0.930 . S
C1750 C1748 1.378 . S
C1750 C1751 1.367 . S
C1751 C1750 1.367 . S
C1751 C1753 1.433 . S
C1752 C1748 1.350 . S
C1752 C1749 1.463 1_565 S
C1752 N1756 1.427 . S
C1753 H1743 0.929 . S
C1753 C1751 1.433 . S
C1753 N1756 1.384 . S
C1754 H1745 0.929 . S
C1754 C1746 1.378 . S
C1754 C1749 1.350 . S
C1755 H1742 0.929 . S
C1755 C1747 1.433 . S
C1755 N1757 1.384 . S
N1756 C1752 1.427 . S
N1756 C1753 1.384 . S
N1757 C1749 1.427 . S
N1757 C1755 1.384 . S
H1758 C1764 0.930 . S
H1759 C1768 0.930 . S
H1760 C1773 0.929 . S
H1761 C1771 0.929 . S
H1762 C1766 0.929 . S
H1763 C1772 0.929 . S
C1764 H1758 0.930 . S
C1764 C1765 1.367 . S
C1764 C1772 1.378 . S
C1765 C1764 1.367 . S
C1765 C1773 1.433 . S
C1766 H1762 0.929 . S
C1766 C1768 1.378 . S
C1766 C1770 1.350 . S
C1767 C1770 1.463 . S
C1767 C1772 1.350 . S
C1767 N1775 1.427 . S
C1768 H1759 0.930 . S
C1768 C1766 1.378 . S
C1768 C1769 1.367 . S
C1769 C1768 1.367 . S
C1769 C1771 1.433 . S
C1770 C1766 1.350 . S
C1770 C1767 1.463 . S
C1770 N1774 1.427 . S
C1771 H1761 0.929 . S
C1771 C1769 1.433 . S
C1771 N1774 1.384 . S
C1772 H1763 0.929 . S
C1772 C1764 1.378 . S
C1772 C1767 1.350 . S
C1773 H1760 0.929 . S
C1773 C1765 1.433 . S
C1773 N1775 1.384 . S
N1774 C1770 1.427 . S
N1774 C1771 1.384 . S
N1775 C1767 1.427 . S
N1775 C1773 1.384 . S
H1776 C1782 0.930 . S
H1777 C1786 0.930 . S
H1778 C1791 0.929 . S
H1779 C1789 0.929 . S
H1780 C1784 0.929 . S
H1781 C1790 0.929 . S
C1782 H1776 0.930 . S
C1782 C1783 1.367 . S
C1782 C1790 1.378 . S
C1783 C1782 1.367 . S
C1783 C1791 1.433 . S
C1784 H1780 0.929 . S
C1784 C1786 1.378 . S
C1784 C1788 1.350 . S
C1785 C1788 1.463 1_556 S
C1785 C1790 1.350 . S
C1785 N1793 1.427 . S
C1786 H1777 0.930 . S
C1786 C1784 1.378 . S
C1786 C1787 1.367 . S
C1787 C1786 1.367 . S
C1787 C1789 1.433 . S
C1788 C1784 1.350 . S
C1788 C1785 1.463 1_554 S
C1788 N1792 1.427 . S
C1789 H1779 0.929 . S
C1789 C1787 1.433 . S
C1789 N1792 1.384 . S
C1790 H1781 0.929 . S
C1790 C1782 1.378 . S
C1790 C1785 1.350 . S
C1791 H1778 0.929 . S
C1791 C1783 1.433 . S
C1791 N1793 1.384 . S
N1792 C1788 1.427 . S
N1792 C1789 1.384 . S
N1793 C1785 1.427 . S
N1793 C1791 1.384 . S
H1794 C1800 0.930 . S
H1795 C1804 0.930 . S
H1796 C1809 0.929 . S
H1797 C1807 0.929 . S
H1798 C1802 0.929 . S
H1799 C1808 0.929 . S
C1800 H1794 0.930 . S
C1800 C1801 1.367 . S
C1800 C1808 1.378 . S
C1801 C1800 1.367 . S
C1801 C1809 1.433 . S
C1802 H1798 0.929 . S
C1802 C1804 1.378 . S
C1802 C1806 1.350 . S
C1803 C1806 1.463 1_556 S
C1803 C1808 1.350 . S
C1803 N1811 1.427 . S
C1804 H1795 0.930 . S
C1804 C1802 1.378 . S
C1804 C1805 1.367 . S
C1805 C1804 1.367 . S
C1805 C1807 1.433 . S
C1806 C1802 1.350 . S
C1806 C1803 1.463 1_554 S
C1806 N1810 1.427 . S
C1807 H1797 0.929 . S
C1807 C1805 1.433 . S
C1807 N1810 1.384 . S
C1808 H1799 0.929 . S
C1808 C1800 1.378 . S
C1808 C1803 1.350 . S
C1809 H1796 0.929 . S
C1809 C1801 1.433 . S
C1809 N1811 1.384 . S
N1810 C1806 1.427 . S
N1810 C1807 1.384 . S
N1811 C1803 1.427 . S
N1811 C1809 1.384 . S
H1812 C1818 0.930 . S
H1813 C1822 0.930 . S
H1814 C1827 0.929 . S
H1815 C1825 0.929 . S
H1816 C1820 0.929 . S
H1817 C1826 0.929 . S
C1818 H1812 0.930 . S
C1818 C1819 1.367 . S
C1818 C1826 1.378 . S
C1819 C1818 1.367 . S
C1819 C1827 1.433 . S
C1820 H1816 0.929 . S
C1820 C1822 1.378 . S
C1820 C1824 1.350 . S
C1821 C1824 1.463 . S
C1821 C1826 1.350 . S
C1821 N1829 1.427 . S
C1822 H1813 0.930 . S
C1822 C1820 1.378 . S
C1822 C1823 1.367 . S
C1823 C1822 1.367 . S
C1823 C1825 1.433 . S
C1824 C1820 1.350 . S
C1824 C1821 1.463 . S
C1824 N1828 1.427 . S
C1825 H1815 0.929 . S
C1825 C1823 1.433 . S
C1825 N1828 1.384 . S
C1826 H1817 0.929 . S
C1826 C1818 1.378 . S
C1826 C1821 1.350 . S
C1827 H1814 0.929 . S
C1827 C1819 1.433 . S
C1827 N1829 1.384 . S
N1828 C1824 1.427 . S
N1828 C1825 1.384 . S
N1829 C1821 1.427 . S
N1829 C1827 1.384 . S
H1830 C1836 0.930 . S
H1831 C1840 0.930 . S
H1832 C1845 0.929 . S
H1833 C1843 0.929 . S
H1834 C1838 0.929 . S
H1835 C1844 0.929 . S
C1836 H1830 0.930 . S
C1836 C1837 1.367 . S
C1836 C1844 1.378 . S
C1837 C1836 1.367 . S
C1837 C1845 1.433 . S
C1838 H1834 0.929 . S
C1838 C1840 1.378 . S
C1838 C1842 1.350 . S
C1839 C1842 1.463 1_556 S
C1839 C1844 1.350 . S
C1839 N1847 1.427 . S
C1840 H1831 0.930 . S
C1840 C1838 1.378 . S
C1840 C1841 1.367 . S
C1841 C1840 1.367 . S
C1841 C1843 1.433 . S
C1842 C1838 1.350 . S
C1842 C1839 1.463 1_554 S
C1842 N1846 1.427 . S
C1843 H1833 0.929 . S
C1843 C1841 1.433 . S
C1843 N1846 1.384 . S
C1844 H1835 0.929 . S
C1844 C1836 1.378 . S
C1844 C1839 1.350 . S
C1845 H1832 0.929 . S
C1845 C1837 1.433 . S
C1845 N1847 1.384 . S
N1846 C1842 1.427 . S
N1846 C1843 1.384 . S
N1847 C1839 1.427 . S
N1847 C1845 1.384 . S
H1848 C1854 0.930 . S
H1849 C1858 0.930 . S
H1850 C1863 0.929 . S
H1851 C1861 0.929 . S
H1852 C1856 0.929 . S
H1853 C1862 0.929 . S
C1854 H1848 0.930 . S
C1854 C1855 1.367 . S
C1854 C1862 1.378 . S
C1855 C1854 1.367 . S
C1855 C1863 1.433 . S
C1856 H1852 0.929 . S
C1856 C1858 1.378 . S
C1856 C1860 1.350 . S
C1857 C1860 1.463 . S
C1857 C1862 1.350 . S
C1857 N1865 1.427 . S
C1858 H1849 0.930 . S
C1858 C1856 1.378 . S
C1858 C1859 1.367 . S
C1859 C1858 1.367 . S
C1859 C1861 1.433 . S
C1860 C1856 1.350 . S
C1860 C1857 1.463 . S
C1860 N1864 1.427 . S
C1861 H1851 0.929 . S
C1861 C1859 1.433 . S
C1861 N1864 1.384 . S
C1862 H1853 0.929 . S
C1862 C1854 1.378 . S
C1862 C1857 1.350 . S
C1863 H1850 0.929 . S
C1863 C1855 1.433 . S
C1863 N1865 1.384 . S
N1864 C1860 1.427 . S
N1864 C1861 1.384 . S
N1865 C1857 1.427 . S
N1865 C1863 1.384 . S
H1866 C1872 0.930 . S
H1867 C1876 0.930 . S
H1868 C1881 0.929 . S
H1869 C1879 0.929 . S
H1870 C1874 0.929 . S
H1871 C1880 0.929 . S
C1872 H1866 0.930 . S
C1872 C1873 1.367 . S
C1872 C1880 1.378 . S
C1873 C1872 1.367 . S
C1873 C1881 1.433 . S
C1874 H1870 0.929 . S
C1874 C1876 1.378 . S
C1874 C1878 1.350 . S
C1875 C1878 1.463 1_556 S
C1875 C1880 1.350 . S
C1875 N1883 1.427 . S
C1876 H1867 0.930 . S
C1876 C1874 1.378 . S
C1876 C1877 1.367 . S
C1877 C1876 1.367 . S
C1877 C1879 1.433 . S
C1878 C1874 1.350 . S
C1878 C1875 1.463 1_554 S
C1878 N1882 1.427 . S
C1879 H1869 0.929 . S
C1879 C1877 1.433 . S
C1879 N1882 1.384 . S
C1880 H1871 0.929 . S
C1880 C1872 1.378 . S
C1880 C1875 1.350 . S
C1881 H1868 0.929 . S
C1881 C1873 1.433 . S
C1881 N1883 1.384 . S
N1882 C1878 1.427 . S
N1882 C1879 1.384 . S
N1883 C1875 1.427 . S
N1883 C1881 1.384 . S
H1884 C1890 0.930 . S
H1885 C1894 0.930 . S
H1886 C1899 0.929 . S
H1887 C1897 0.929 . S
H1888 C1892 0.929 . S
H1889 C1898 0.929 . S
C1890 H1884 0.930 . S
C1890 C1891 1.367 . S
C1890 C1898 1.378 . S
C1891 C1890 1.367 . S
C1891 C1899 1.433 . S
C1892 H1888 0.929 . S
C1892 C1894 1.378 . S
C1892 C1896 1.350 . S
C1893 C1896 1.463 . S
C1893 C1898 1.350 . S
C1893 N1901 1.427 . S
C1894 H1885 0.930 . S
C1894 C1892 1.378 . S
C1894 C1895 1.367 . S
C1895 C1894 1.367 . S
C1895 C1897 1.433 . S
C1896 C1892 1.350 . S
C1896 C1893 1.463 . S
C1896 N1900 1.427 . S
C1897 H1887 0.929 . S
C1897 C1895 1.433 . S
C1897 N1900 1.384 . S
C1898 H1889 0.929 . S
C1898 C1890 1.378 . S
C1898 C1893 1.350 . S
C1899 H1886 0.929 . S
C1899 C1891 1.433 . S
C1899 N1901 1.384 . S
N1900 C1896 1.427 . S
N1900 C1897 1.384 . S
N1901 C1893 1.427 . S
N1901 C1899 1.384 . S
H1902 C1908 0.930 . S
H1903 C1912 0.930 . S
H1904 C1917 0.929 . S
H1905 C1915 0.929 . S
H1906 C1910 0.929 . S
H1907 C1916 0.929 . S
C1908 H1902 0.930 . S
C1908 C1909 1.367 . S
C1908 C1916 1.378 . S
C1909 C1908 1.367 . S
C1909 C1917 1.433 . S
C1910 H1906 0.929 . S
C1910 C1912 1.378 . S
C1910 C1914 1.350 . S
C1911 C1914 1.463 . S
C1911 C1916 1.350 . S
C1911 N1919 1.427 . S
C1912 H1903 0.930 . S
C1912 C1910 1.378 . S
C1912 C1913 1.367 . S
C1913 C1912 1.367 . S
C1913 C1915 1.433 . S
C1914 C1910 1.350 . S
C1914 C1911 1.463 . S
C1914 N1918 1.427 . S
C1915 H1905 0.929 . S
C1915 C1913 1.433 . S
C1915 N1918 1.384 . S
C1916 H1907 0.929 . S
C1916 C1908 1.378 . S
C1916 C1911 1.350 . S
C1917 H1904 0.929 . S
C1917 C1909 1.433 . S
C1917 N1919 1.384 . S
N1918 C1914 1.427 . S
N1918 C1915 1.384 . S
N1919 C1911 1.427 . S
N1919 C1917 1.384 . S
H1920 C1926 0.930 . S
H1921 C1930 0.930 . S
H1922 C1935 0.929 . S
H1923 C1933 0.929 . S
H1924 C1928 0.929 . S
H1925 C1934 0.929 . S
C1926 H1920 0.930 . S
C1926 C1927 1.367 . S
C1926 C1934 1.378 . S
C1927 C1926 1.367 . S
C1927 C1935 1.433 . S
C1928 H1924 0.929 . S
C1928 C1930 1.378 . S
C1928 C1932 1.350 . S
C1929 C1932 1.463 . S
C1929 C1934 1.350 . S
C1929 N1937 1.427 . S
C1930 H1921 0.930 . S
C1930 C1928 1.378 . S
C1930 C1931 1.367 . S
C1931 C1930 1.367 . S
C1931 C1933 1.433 . S
C1932 C1928 1.350 . S
C1932 C1929 1.463 . S
C1932 N1936 1.427 . S
C1933 H1923 0.929 . S
C1933 C1931 1.433 . S
C1933 N1936 1.384 . S
C1934 H1925 0.929 . S
C1934 C1926 1.378 . S
C1934 C1929 1.350 . S
C1935 H1922 0.929 . S
C1935 C1927 1.433 . S
C1935 N1937 1.384 . S
N1936 C1932 1.427 . S
N1936 C1933 1.384 . S
N1937 C1929 1.427 . S
N1937 C1935 1.384 . S
H1938 C1944 0.930 . S
H1939 C1948 0.930 . S
H1940 C1953 0.929 . S
H1941 C1951 0.929 . S
H1942 C1946 0.929 . S
H1943 C1952 0.929 . S
C1944 H1938 0.930 . S
C1944 C1945 1.367 . S
C1944 C1952 1.378 . S
C1945 C1944 1.367 . S
C1945 C1953 1.433 . S
C1946 H1942 0.929 . S
C1946 C1948 1.378 . S
C1946 C1950 1.350 . S
C1947 C1950 1.463 . S
C1947 C1952 1.350 . S
C1947 N1955 1.427 . S
C1948 H1939 0.930 . S
C1948 C1946 1.378 . S
C1948 C1949 1.367 . S
C1949 C1948 1.367 . S
C1949 C1951 1.433 . S
C1950 C1946 1.350 . S
C1950 C1947 1.463 . S
C1950 N1954 1.427 . S
C1951 H1941 0.929 . S
C1951 C1949 1.433 . S
C1951 N1954 1.384 . S
C1952 H1943 0.929 . S
C1952 C1944 1.378 . S
C1952 C1947 1.350 . S
C1953 H1940 0.929 . S
C1953 C1945 1.433 . S
C1953 N1955 1.384 . S
N1954 C1950 1.427 . S
N1954 C1951 1.384 . S
N1955 C1947 1.427 . S
N1955 C1953 1.384 . S
H1956 C1962 0.930 . S
H1957 C1966 0.930 . S
H1958 C1971 0.929 . S
H1959 C1969 0.929 . S
H1960 C1964 0.929 . S
H1961 C1970 0.929 . S
C1962 H1956 0.930 . S
C1962 C1963 1.367 . S
C1962 C1970 1.378 . S
C1963 C1962 1.367 . S
C1963 C1971 1.433 . S
C1964 H1960 0.929 . S
C1964 C1966 1.378 . S
C1964 C1968 1.350 . S
C1965 C1968 1.463 . S
C1965 C1970 1.350 . S
C1965 N1973 1.427 . S
C1966 H1957 0.930 . S
C1966 C1964 1.378 . S
C1966 C1967 1.367 . S
C1967 C1966 1.367 . S
C1967 C1969 1.433 . S
C1968 C1964 1.350 . S
C1968 C1965 1.463 . S
C1968 N1972 1.427 . S
C1969 H1959 0.929 . S
C1969 C1967 1.433 . S
C1969 N1972 1.384 . S
C1970 H1961 0.929 . S
C1970 C1962 1.378 . S
C1970 C1965 1.350 . S
C1971 H1958 0.929 . S
C1971 C1963 1.433 . S
C1971 N1973 1.384 . S
N1972 C1968 1.427 . S
N1972 C1969 1.384 . S
N1973 C1965 1.427 . S
N1973 C1971 1.384 . S
H1974 C1980 0.930 . S
H1975 C1984 0.930 . S
H1976 C1989 0.929 . S
H1977 C1987 0.929 . S
H1978 C1982 0.929 . S
H1979 C1988 0.929 . S
C1980 H1974 0.930 . S
C1980 C1981 1.367 . S
C1980 C1988 1.378 . S
C1981 C1980 1.367 . S
C1981 C1989 1.433 . S
C1982 H1978 0.929 . S
C1982 C1984 1.378 . S
C1982 C1986 1.350 . S
C1983 C1986 1.463 . S
C1983 C1988 1.350 . S
C1983 N1991 1.427 . S
C1984 H1975 0.930 . S
C1984 C1982 1.378 . S
C1984 C1985 1.367 . S
C1985 C1984 1.367 . S
C1985 C1987 1.433 . S
C1986 C1982 1.350 . S
C1986 C1983 1.463 . S
C1986 N1990 1.427 . S
C1987 H1977 0.929 . S
C1987 C1985 1.433 . S
C1987 N1990 1.384 . S
C1988 H1979 0.929 . S
C1988 C1980 1.378 . S
C1988 C1983 1.350 . S
C1989 H1976 0.929 . S
C1989 C1981 1.433 . S
C1989 N1991 1.384 . S
N1990 C1986 1.427 . S
N1990 C1987 1.384 . S
N1991 C1983 1.427 . S
N1991 C1989 1.384 . S
H1992 C1998 0.930 . S
H1993 C2002 0.930 . S
H1994 C2007 0.929 . S
H1995 C2005 0.929 . S
H1996 C2000 0.929 . S
H1997 C2006 0.929 . S
C1998 H1992 0.930 . S
C1998 C1999 1.367 . S
C1998 C2006 1.378 . S
C1999 C1998 1.367 . S
C1999 C2007 1.433 . S
C2000 H1996 0.929 . S
C2000 C2002 1.378 . S
C2000 C2004 1.350 . S
C2001 C2004 1.463 . S
C2001 C2006 1.350 . S
C2001 N2009 1.427 . S
C2002 H1993 0.930 . S
C2002 C2000 1.378 . S
C2002 C2003 1.367 . S
C2003 C2002 1.367 . S
C2003 C2005 1.433 . S
C2004 C2000 1.350 . S
C2004 C2001 1.463 . S
C2004 N2008 1.427 . S
C2005 H1995 0.929 . S
C2005 C2003 1.433 . S
C2005 N2008 1.384 . S
C2006 H1997 0.929 . S
C2006 C1998 1.378 . S
C2006 C2001 1.350 . S
C2007 H1994 0.929 . S
C2007 C1999 1.433 . S
C2007 N2009 1.384 . S
N2008 C2004 1.427 . S
N2008 C2005 1.384 . S
N2009 C2001 1.427 . S
N2009 C2007 1.384 . S
H2010 C2016 0.930 . S
H2011 C2020 0.930 . S
H2012 C2025 0.929 . S
H2013 C2023 0.929 . S
H2014 C2018 0.929 . S
H2015 C2024 0.929 . S
C2016 H2010 0.930 . S
C2016 C2017 1.367 . S
C2016 C2024 1.378 . S
C2017 C2016 1.367 . S
C2017 C2025 1.433 . S
C2018 H2014 0.929 . S
C2018 C2020 1.378 . S
C2018 C2022 1.350 . S
C2019 C2022 1.463 . S
C2019 C2024 1.350 . S
C2019 N2027 1.427 . S
C2020 H2011 0.930 . S
C2020 C2018 1.378 . S
C2020 C2021 1.367 . S
C2021 C2020 1.367 . S
C2021 C2023 1.433 . S
C2022 C2018 1.350 . S
C2022 C2019 1.463 . S
C2022 N2026 1.427 . S
C2023 H2013 0.929 . S
C2023 C2021 1.433 . S
C2023 N2026 1.384 . S
C2024 H2015 0.929 . S
C2024 C2016 1.378 . S
C2024 C2019 1.350 . S
C2025 H2012 0.929 . S
C2025 C2017 1.433 . S
C2025 N2027 1.384 . S
N2026 C2022 1.427 . S
N2026 C2023 1.384 . S
N2027 C2019 1.427 . S
N2027 C2025 1.384 . S
H2028 C2034 0.930 . S
H2029 C2038 0.930 . S
H2030 C2043 0.929 . S
H2031 C2041 0.929 . S
H2032 C2036 0.929 . S
H2033 C2042 0.929 . S
C2034 H2028 0.930 . S
C2034 C2035 1.367 . S
C2034 C2042 1.378 . S
C2035 C2034 1.367 . S
C2035 C2043 1.433 . S
C2036 H2032 0.929 . S
C2036 C2038 1.378 . S
C2036 C2040 1.350 . S
C2037 C2040 1.463 . S
C2037 C2042 1.350 . S
C2037 N2045 1.427 . S
C2038 H2029 0.930 . S
C2038 C2036 1.378 . S
C2038 C2039 1.367 . S
C2039 C2038 1.367 . S
C2039 C2041 1.433 . S
C2040 C2036 1.350 . S
C2040 C2037 1.463 . S
C2040 N2044 1.427 . S
C2041 H2031 0.929 . S
C2041 C2039 1.433 . S
C2041 N2044 1.384 . S
C2042 H2033 0.929 . S
C2042 C2034 1.378 . S
C2042 C2037 1.350 . S
C2043 H2030 0.929 . S
C2043 C2035 1.433 . S
C2043 N2045 1.384 . S
N2044 C2040 1.427 . S
N2044 C2041 1.384 . S
N2045 C2037 1.427 . S
N2045 C2043 1.384 . S
H2046 C2052 0.930 . S
H2047 C2056 0.930 . S
H2048 C2061 0.929 . S
H2049 C2059 0.929 . S
H2050 C2054 0.929 . S
H2051 C2060 0.929 . S
C2052 H2046 0.930 . S
C2052 C2053 1.367 . S
C2052 C2060 1.378 . S
C2053 C2052 1.367 . S
C2053 C2061 1.433 . S
C2054 H2050 0.929 . S
C2054 C2056 1.378 . S
C2054 C2058 1.350 . S
C2055 C2058 1.463 . S
C2055 C2060 1.350 . S
C2055 N2063 1.427 . S
C2056 H2047 0.930 . S
C2056 C2054 1.378 . S
C2056 C2057 1.367 . S
C2057 C2056 1.367 . S
C2057 C2059 1.433 . S
C2058 C2054 1.350 . S
C2058 C2055 1.463 . S
C2058 N2062 1.427 . S
C2059 H2049 0.929 . S
C2059 C2057 1.433 . S
C2059 N2062 1.384 . S
C2060 H2051 0.929 . S
C2060 C2052 1.378 . S
C2060 C2055 1.350 . S
C2061 H2048 0.929 . S
C2061 C2053 1.433 . S
C2061 N2063 1.384 . S
N2062 C2058 1.427 . S
N2062 C2059 1.384 . S
N2063 C2055 1.427 . S
N2063 C2061 1.384 . S
H2064 C2070 0.930 . S
H2065 C2074 0.930 . S
H2066 C2079 0.929 . S
H2067 C2077 0.929 . S
H2068 C2072 0.929 . S
H2069 C2078 0.929 . S
C2070 H2064 0.930 . S
C2070 C2071 1.367 . S
C2070 C2078 1.378 . S
C2071 C2070 1.367 . S
C2071 C2079 1.433 . S
C2072 H2068 0.929 . S
C2072 C2074 1.378 . S
C2072 C2076 1.350 . S
C2073 C2076 1.463 . S
C2073 C2078 1.350 . S
C2073 N2081 1.427 . S
C2074 H2065 0.930 . S
C2074 C2072 1.378 . S
C2074 C2075 1.367 . S
C2075 C2074 1.367 . S
C2075 C2077 1.433 . S
C2076 C2072 1.350 . S
C2076 C2073 1.463 . S
C2076 N2080 1.427 . S
C2077 H2067 0.929 . S
C2077 C2075 1.433 . S
C2077 N2080 1.384 . S
C2078 H2069 0.929 . S
C2078 C2070 1.378 . S
C2078 C2073 1.350 . S
C2079 H2066 0.929 . S
C2079 C2071 1.433 . S
C2079 N2081 1.384 . S
N2080 C2076 1.427 . S
N2080 C2077 1.384 . S
N2081 C2073 1.427 . S
N2081 C2079 1.384 . S
H2082 C2088 0.930 . S
H2083 C2092 0.930 . S
H2084 C2097 0.929 . S
H2085 C2095 0.929 . S
H2086 C2090 0.929 . S
H2087 C2096 0.929 . S
C2088 H2082 0.930 . S
C2088 C2089 1.367 . S
C2088 C2096 1.378 . S
C2089 C2088 1.367 . S
C2089 C2097 1.433 . S
C2090 H2086 0.929 . S
C2090 C2092 1.378 . S
C2090 C2094 1.350 . S
C2091 C2094 1.463 . S
C2091 C2096 1.350 . S
C2091 N2099 1.427 . S
C2092 H2083 0.930 . S
C2092 C2090 1.378 . S
C2092 C2093 1.367 . S
C2093 C2092 1.367 . S
C2093 C2095 1.433 . S
C2094 C2090 1.350 . S
C2094 C2091 1.463 . S
C2094 N2098 1.427 . S
C2095 H2085 0.929 . S
C2095 C2093 1.433 . S
C2095 N2098 1.384 . S
C2096 H2087 0.929 . S
C2096 C2088 1.378 . S
C2096 C2091 1.350 . S
C2097 H2084 0.929 . S
C2097 C2089 1.433 . S
C2097 N2099 1.384 . S
N2098 C2094 1.427 . S
N2098 C2095 1.384 . S
N2099 C2091 1.427 . S
N2099 C2097 1.384 . S
H2100 C2106 0.930 . S
H2101 C2110 0.930 . S
H2102 C2115 0.929 . S
H2103 C2113 0.929 . S
H2104 C2108 0.929 . S
H2105 C2114 0.929 . S
C2106 H2100 0.930 . S
C2106 C2107 1.367 . S
C2106 C2114 1.378 . S
C2107 C2106 1.367 . S
C2107 C2115 1.433 . S
C2108 H2104 0.929 . S
C2108 C2110 1.378 . S
C2108 C2112 1.350 . S
C2109 C2112 1.463 . S
C2109 C2114 1.350 . S
C2109 N2117 1.427 . S
C2110 H2101 0.930 . S
C2110 C2108 1.378 . S
C2110 C2111 1.367 . S
C2111 C2110 1.367 . S
C2111 C2113 1.433 . S
C2112 C2108 1.350 . S
C2112 C2109 1.463 . S
C2112 N2116 1.427 . S
C2113 H2103 0.929 . S
C2113 C2111 1.433 . S
C2113 N2116 1.384 . S
C2114 H2105 0.929 . S
C2114 C2106 1.378 . S
C2114 C2109 1.350 . S
C2115 H2102 0.929 . S
C2115 C2107 1.433 . S
C2115 N2117 1.384 . S
N2116 C2112 1.427 . S
N2116 C2113 1.384 . S
N2117 C2109 1.427 . S
N2117 C2115 1.384 . S
H2118 C2124 0.930 . S
H2119 C2128 0.930 . S
H2120 C2133 0.929 . S
H2121 C2131 0.929 . S
H2122 C2126 0.929 . S
H2123 C2132 0.929 . S
C2124 H2118 0.930 . S
C2124 C2125 1.367 . S
C2124 C2132 1.378 . S
C2125 C2124 1.367 . S
C2125 C2133 1.433 . S
C2126 H2122 0.929 . S
C2126 C2128 1.378 . S
C2126 C2130 1.350 . S
C2127 C2130 1.463 . S
C2127 C2132 1.350 . S
C2127 N2135 1.427 . S
C2128 H2119 0.930 . S
C2128 C2126 1.378 . S
C2128 C2129 1.367 . S
C2129 C2128 1.367 . S
C2129 C2131 1.433 . S
C2130 C2126 1.350 . S
C2130 C2127 1.463 . S
C2130 N2134 1.427 . S
C2131 H2121 0.929 . S
C2131 C2129 1.433 . S
C2131 N2134 1.384 . S
C2132 H2123 0.929 . S
C2132 C2124 1.378 . S
C2132 C2127 1.350 . S
C2133 H2120 0.929 . S
C2133 C2125 1.433 . S
C2133 N2135 1.384 . S
N2134 C2130 1.427 . S
N2134 C2131 1.384 . S
N2135 C2127 1.427 . S
N2135 C2133 1.384 . S
H2136 C2142 0.930 . S
H2137 C2146 0.930 . S
H2138 C2151 0.929 . S
H2139 C2149 0.929 . S
H2140 C2144 0.929 . S
H2141 C2150 0.929 . S
C2142 H2136 0.930 . S
C2142 C2143 1.367 . S
C2142 C2150 1.378 . S
C2143 C2142 1.367 . S
C2143 C2151 1.433 . S
C2144 H2140 0.929 . S
C2144 C2146 1.378 . S
C2144 C2148 1.350 . S
C2145 C2148 1.463 . S
C2145 C2150 1.350 . S
C2145 N2153 1.427 . S
C2146 H2137 0.930 . S
C2146 C2144 1.378 . S
C2146 C2147 1.367 . S
C2147 C2146 1.367 . S
C2147 C2149 1.433 . S
C2148 C2144 1.350 . S
C2148 C2145 1.463 . S
C2148 N2152 1.427 . S
C2149 H2139 0.929 . S
C2149 C2147 1.433 . S
C2149 N2152 1.384 . S
C2150 H2141 0.929 . S
C2150 C2142 1.378 . S
C2150 C2145 1.350 . S
C2151 H2138 0.929 . S
C2151 C2143 1.433 . S
C2151 N2153 1.384 . S
N2152 C2148 1.427 . S
N2152 C2149 1.384 . S
N2153 C2145 1.427 . S
N2153 C2151 1.384 . S
H2154 C2160 0.930 . S
H2155 C2164 0.930 . S
H2156 C2169 0.929 . S
H2157 C2167 0.929 . S
H2158 C2162 0.929 . S
H2159 C2168 0.929 . S
C2160 H2154 0.930 . S
C2160 C2161 1.367 . S
C2160 C2168 1.378 . S
C2161 C2160 1.367 . S
C2161 C2169 1.433 . S
C2162 H2158 0.929 . S
C2162 C2164 1.378 . S
C2162 C2166 1.350 . S
C2163 C2166 1.463 . S
C2163 C2168 1.350 . S
C2163 N2171 1.427 . S
C2164 H2155 0.930 . S
C2164 C2162 1.378 . S
C2164 C2165 1.367 . S
C2165 C2164 1.367 . S
C2165 C2167 1.433 . S
C2166 C2162 1.350 . S
C2166 C2163 1.463 . S
C2166 N2170 1.427 . S
C2167 H2157 0.929 . S
C2167 C2165 1.433 . S
C2167 N2170 1.384 . S
C2168 H2159 0.929 . S
C2168 C2160 1.378 . S
C2168 C2163 1.350 . S
C2169 H2156 0.929 . S
C2169 C2161 1.433 . S
C2169 N2171 1.384 . S
N2170 C2166 1.427 . S
N2170 C2167 1.384 . S
N2171 C2163 1.427 . S
N2171 C2169 1.384 . S
H2172 C2178 0.930 . S
H2173 C2182 0.930 . S
H2174 C2187 0.929 . S
H2175 C2185 0.929 . S
H2176 C2180 0.929 . S
H2177 C2186 0.929 . S
C2178 H2172 0.930 . S
C2178 C2179 1.367 . S
C2178 C2186 1.378 . S
C2179 C2178 1.367 . S
C2179 C2187 1.433 . S
C2180 H2176 0.929 . S
C2180 C2182 1.378 . S
C2180 C2184 1.350 . S
C2181 C2184 1.463 . S
C2181 C2186 1.350 . S
C2181 N2189 1.427 . S
C2182 H2173 0.930 . S
C2182 C2180 1.378 . S
C2182 C2183 1.367 . S
C2183 C2182 1.367 . S
C2183 C2185 1.433 . S
C2184 C2180 1.350 . S
C2184 C2181 1.463 . S
C2184 N2188 1.427 . S
C2185 H2175 0.929 . S
C2185 C2183 1.433 . S
C2185 N2188 1.384 . S
C2186 H2177 0.929 . S
C2186 C2178 1.378 . S
C2186 C2181 1.350 . S
C2187 H2174 0.929 . S
C2187 C2179 1.433 . S
C2187 N2189 1.384 . S
N2188 C2184 1.427 . S
N2188 C2185 1.384 . S
N2189 C2181 1.427 . S
N2189 C2187 1.384 . S
H2190 C2196 0.930 . S
H2191 C2200 0.930 . S
H2192 C2205 0.929 . S
H2193 C2203 0.929 . S
H2194 C2198 0.929 . S
H2195 C2204 0.929 . S
C2196 H2190 0.930 . S
C2196 C2197 1.367 . S
C2196 C2204 1.378 . S
C2197 C2196 1.367 . S
C2197 C2205 1.433 . S
C2198 H2194 0.929 . S
C2198 C2200 1.378 . S
C2198 C2202 1.350 . S
C2199 C2202 1.463 . S
C2199 C2204 1.350 . S
C2199 N2207 1.427 . S
C2200 H2191 0.930 . S
C2200 C2198 1.378 . S
C2200 C2201 1.367 . S
C2201 C2200 1.367 . S
C2201 C2203 1.433 . S
C2202 C2198 1.350 . S
C2202 C2199 1.463 . S
C2202 N2206 1.427 . S
C2203 H2193 0.929 . S
C2203 C2201 1.433 . S
C2203 N2206 1.384 . S
C2204 H2195 0.929 . S
C2204 C2196 1.378 . S
C2204 C2199 1.350 . S
C2205 H2192 0.929 . S
C2205 C2197 1.433 . S
C2205 N2207 1.384 . S
N2206 C2202 1.427 . S
N2206 C2203 1.384 . S
N2207 C2199 1.427 . S
N2207 C2205 1.384 . S
H2208 C2214 0.930 . S
H2209 C2218 0.930 . S
H2210 C2223 0.929 . S
H2211 C2221 0.929 . S
H2212 C2216 0.929 . S
H2213 C2222 0.929 . S
C2214 H2208 0.930 . S
C2214 C2215 1.367 . S
C2214 C2222 1.378 . S
C2215 C2214 1.367 . S
C2215 C2223 1.433 . S
C2216 H2212 0.929 . S
C2216 C2218 1.378 . S
C2216 C2220 1.350 . S
C2217 C2220 1.463 . S
C2217 C2222 1.350 . S
C2217 N2225 1.427 . S
C2218 H2209 0.930 . S
C2218 C2216 1.378 . S
C2218 C2219 1.367 . S
C2219 C2218 1.367 . S
C2219 C2221 1.433 . S
C2220 C2216 1.350 . S
C2220 C2217 1.463 . S
C2220 N2224 1.427 . S
C2221 H2211 0.929 . S
C2221 C2219 1.433 . S
C2221 N2224 1.384 . S
C2222 H2213 0.929 . S
C2222 C2214 1.378 . S
C2222 C2217 1.350 . S
C2223 H2210 0.929 . S
C2223 C2215 1.433 . S
C2223 N2225 1.384 . S
N2224 C2220 1.427 . S
N2224 C2221 1.384 . S
N2225 C2217 1.427 . S
N2225 C2223 1.384 . S
H2226 C2232 0.930 . S
H2227 C2236 0.930 . S
H2228 C2241 0.929 . S
H2229 C2239 0.929 . S
H2230 C2234 0.929 . S
H2231 C2240 0.929 . S
C2232 H2226 0.930 . S
C2232 C2233 1.367 . S
C2232 C2240 1.378 . S
C2233 C2232 1.367 . S
C2233 C2241 1.433 . S
C2234 H2230 0.929 . S
C2234 C2236 1.378 . S
C2234 C2238 1.350 . S
C2235 C2238 1.463 . S
C2235 C2240 1.350 . S
C2235 N2243 1.427 . S
C2236 H2227 0.930 . S
C2236 C2234 1.378 . S
C2236 C2237 1.367 . S
C2237 C2236 1.367 . S
C2237 C2239 1.433 . S
C2238 C2234 1.350 . S
C2238 C2235 1.463 . S
C2238 N2242 1.427 . S
C2239 H2229 0.929 . S
C2239 C2237 1.433 . S
C2239 N2242 1.384 . S
C2240 H2231 0.929 . S
C2240 C2232 1.378 . S
C2240 C2235 1.350 . S
C2241 H2228 0.929 . S
C2241 C2233 1.433 . S
C2241 N2243 1.384 . S
N2242 C2238 1.427 . S
N2242 C2239 1.384 . S
N2243 C2235 1.427 . S
N2243 C2241 1.384 . S
H2244 C2250 0.930 . S
H2245 C2254 0.930 . S
H2246 C2259 0.929 . S
H2247 C2257 0.929 . S
H2248 C2252 0.929 . S
H2249 C2258 0.929 . S
C2250 H2244 0.930 . S
C2250 C2251 1.367 . S
C2250 C2258 1.378 . S
C2251 C2250 1.367 . S
C2251 C2259 1.433 . S
C2252 H2248 0.929 . S
C2252 C2254 1.378 . S
C2252 C2256 1.350 . S
C2253 C2256 1.463 . S
C2253 C2258 1.350 . S
C2253 N2261 1.427 . S
C2254 H2245 0.930 . S
C2254 C2252 1.378 . S
C2254 C2255 1.367 . S
C2255 C2254 1.367 . S
C2255 C2257 1.433 . S
C2256 C2252 1.350 . S
C2256 C2253 1.463 . S
C2256 N2260 1.427 . S
C2257 H2247 0.929 . S
C2257 C2255 1.433 . S
C2257 N2260 1.384 . S
C2258 H2249 0.929 . S
C2258 C2250 1.378 . S
C2258 C2253 1.350 . S
C2259 H2246 0.929 . S
C2259 C2251 1.433 . S
C2259 N2261 1.384 . S
N2260 C2256 1.427 . S
N2260 C2257 1.384 . S
N2261 C2253 1.427 . S
N2261 C2259 1.384 . S
H2262 C2268 0.930 . S
H2263 C2272 0.930 . S
H2264 C2277 0.929 . S
H2265 C2275 0.929 . S
H2266 C2270 0.929 . S
H2267 C2276 0.929 . S
C2268 H2262 0.930 . S
C2268 C2269 1.367 . S
C2268 C2276 1.378 . S
C2269 C2268 1.367 . S
C2269 C2277 1.433 . S
C2270 H2266 0.929 . S
C2270 C2272 1.378 . S
C2270 C2274 1.350 . S
C2271 C2274 1.463 . S
C2271 C2276 1.350 . S
C2271 N2279 1.427 . S
C2272 H2263 0.930 . S
C2272 C2270 1.378 . S
C2272 C2273 1.367 . S
C2273 C2272 1.367 . S
C2273 C2275 1.433 . S
C2274 C2270 1.350 . S
C2274 C2271 1.463 . S
C2274 N2278 1.427 . S
C2275 H2265 0.929 . S
C2275 C2273 1.433 . S
C2275 N2278 1.384 . S
C2276 H2267 0.929 . S
C2276 C2268 1.378 . S
C2276 C2271 1.350 . S
C2277 H2264 0.929 . S
C2277 C2269 1.433 . S
C2277 N2279 1.384 . S
N2278 C2274 1.427 . S
N2278 C2275 1.384 . S
N2279 C2271 1.427 . S
N2279 C2277 1.384 . S
H2280 C2286 0.930 . S
H2281 C2290 0.930 . S
H2282 C2295 0.929 . S
H2283 C2293 0.929 . S
H2284 C2288 0.929 . S
H2285 C2294 0.929 . S
C2286 H2280 0.930 . S
C2286 C2287 1.367 . S
C2286 C2294 1.378 . S
C2287 C2286 1.367 . S
C2287 C2295 1.433 . S
C2288 H2284 0.929 . S
C2288 C2290 1.378 . S
C2288 C2292 1.350 . S
C2289 C2292 1.463 . S
C2289 C2294 1.350 . S
C2289 N2297 1.427 . S
C2290 H2281 0.930 . S
C2290 C2288 1.378 . S
C2290 C2291 1.367 . S
C2291 C2290 1.367 . S
C2291 C2293 1.433 . S
C2292 C2288 1.350 . S
C2292 C2289 1.463 . S
C2292 N2296 1.427 . S
C2293 H2283 0.929 . S
C2293 C2291 1.433 . S
C2293 N2296 1.384 . S
C2294 H2285 0.929 . S
C2294 C2286 1.378 . S
C2294 C2289 1.350 . S
C2295 H2282 0.929 . S
C2295 C2287 1.433 . S
C2295 N2297 1.384 . S
N2296 C2292 1.427 . S
N2296 C2293 1.384 . S
N2297 C2289 1.427 . S
N2297 C2295 1.384 . S
H2298 C2304 0.930 . S
H2299 C2308 0.930 . S
H2300 C2313 0.929 . S
H2301 C2311 0.929 . S
H2302 C2306 0.929 . S
H2303 C2312 0.929 . S
C2304 H2298 0.930 . S
C2304 C2305 1.367 . S
C2304 C2312 1.378 . S
C2305 C2304 1.367 . S
C2305 C2313 1.433 . S
C2306 H2302 0.929 . S
C2306 C2308 1.378 . S
C2306 C2310 1.350 . S
C2307 C2310 1.463 . S
C2307 C2312 1.350 . S
C2307 N2315 1.427 . S
C2308 H2299 0.930 . S
C2308 C2306 1.378 . S
C2308 C2309 1.367 . S
C2309 C2308 1.367 . S
C2309 C2311 1.433 . S
C2310 C2306 1.350 . S
C2310 C2307 1.463 . S
C2310 N2314 1.427 . S
C2311 H2301 0.929 . S
C2311 C2309 1.433 . S
C2311 N2314 1.384 . S
C2312 H2303 0.929 . S
C2312 C2304 1.378 . S
C2312 C2307 1.350 . S
C2313 H2300 0.929 . S
C2313 C2305 1.433 . S
C2313 N2315 1.384 . S
N2314 C2310 1.427 . S
N2314 C2311 1.384 . S
N2315 C2307 1.427 . S
N2315 C2313 1.384 . S
H2316 C2322 0.930 . S
H2317 C2326 0.930 . S
H2318 C2331 0.929 . S
H2319 C2329 0.929 . S
H2320 C2324 0.929 . S
H2321 C2330 0.929 . S
C2322 H2316 0.930 . S
C2322 C2323 1.367 . S
C2322 C2330 1.378 . S
C2323 C2322 1.367 . S
C2323 C2331 1.433 . S
C2324 H2320 0.929 . S
C2324 C2326 1.378 . S
C2324 C2328 1.350 . S
C2325 C2328 1.463 . S
C2325 C2330 1.350 . S
C2325 N2333 1.427 . S
C2326 H2317 0.930 . S
C2326 C2324 1.378 . S
C2326 C2327 1.367 . S
C2327 C2326 1.367 . S
C2327 C2329 1.433 . S
C2328 C2324 1.350 . S
C2328 C2325 1.463 . S
C2328 N2332 1.427 . S
C2329 H2319 0.929 . S
C2329 C2327 1.433 . S
C2329 N2332 1.384 . S
C2330 H2321 0.929 . S
C2330 C2322 1.378 . S
C2330 C2325 1.350 . S
C2331 H2318 0.929 . S
C2331 C2323 1.433 . S
C2331 N2333 1.384 . S
N2332 C2328 1.427 . S
N2332 C2329 1.384 . S
N2333 C2325 1.427 . S
N2333 C2331 1.384 . S
H2334 C2340 0.930 . S
H2335 C2344 0.930 . S
H2336 C2349 0.929 . S
H2337 C2347 0.929 . S
H2338 C2342 0.929 . S
H2339 C2348 0.929 . S
C2340 H2334 0.930 . S
C2340 C2341 1.367 . S
C2340 C2348 1.378 . S
C2341 C2340 1.367 . S
C2341 C2349 1.433 . S
C2342 H2338 0.929 . S
C2342 C2344 1.378 . S
C2342 C2346 1.350 . S
C2343 C2346 1.463 . S
C2343 C2348 1.350 . S
C2343 N2351 1.427 . S
C2344 H2335 0.930 . S
C2344 C2342 1.378 . S
C2344 C2345 1.367 . S
C2345 C2344 1.367 . S
C2345 C2347 1.433 . S
C2346 C2342 1.350 . S
C2346 C2343 1.463 . S
C2346 N2350 1.427 . S
C2347 H2337 0.929 . S
C2347 C2345 1.433 . S
C2347 N2350 1.384 . S
C2348 H2339 0.929 . S
C2348 C2340 1.378 . S
C2348 C2343 1.350 . S
C2349 H2336 0.929 . S
C2349 C2341 1.433 . S
C2349 N2351 1.384 . S
N2350 C2346 1.427 . S
N2350 C2347 1.384 . S
N2351 C2343 1.427 . S
N2351 C2349 1.384 . S
C631 C268 1.120 . S
C635 C8 1.130 . S
C649 C23 1.023 . S
C653 C229 1.043 . S
C667 C34 1.103 . S
C671 C244 1.082 . S
C685 C257 1.020 . S
C689 C49 1.028 . S
C703 C309 1.011 . S
C707 C62 1.025 . S
C721 C73 1.109 . S
C725 C283 1.108 . S
C739 C88 0.990 . S
C743 C296 0.998 . S
C757 C99 1.105 . S
C761 C216 1.100 . S
C775 C112 1.071 . S
C779 C203 1.084 . S
C793 C127 1.069 . S
C797 C166 1.074 . S
C811 C138 1.035 . S
C815 C177 1.046 . S
C829 C192 1.044 . S
C833 C153 1.035 . S
C847 C322 1.213 . S
C851 C582 1.204 . S
C865 C543 1.119 . S
C869 C333 1.123 . S
C883 C348 1.175 . S
C887 C554 1.189 . S
C901 C567 1.120 . S
C905 C359 1.118 . S
C919 C372 1.135 . S
C923 C621 1.130 . S
C937 C593 1.201 . S
C941 C387 1.188 . S
C955 C398 1.133 . S
C959 C606 1.127 . S
C973 C530 1.195 . S
C977 C413 1.191 . S
C991 C426 1.162 . S
C995 C517 1.159 . S
C1009 C476 1.186 . S
C1013 C437 1.187 . S
C1027 C491 1.139 . S
C1031 C452 1.128 . S
C1045 C502 1.157 . S
C1049 C463 1.154 . S
C1063 C346 0.960 . S
C1067 C10 0.952 . S
C1081 C21 0.968 . S
C1085 C361 0.961 . S
C1099 C36 0.969 . S
C1103 C320 0.981 . S
C1117 C47 0.964 . S
C1121 C335 0.970 . S
C1135 C60 1.007 . S
C1139 C400 1.012 . S
C1153 C411 0.953 . S
C1157 C75 0.965 . S
C1171 C374 0.971 . S
C1175 C86 0.965 . S
C1189 C385 0.952 . S
C1193 C101 0.965 . S
C1207 C478 0.971 . S
C1211 C114 0.963 . S
C1225 C125 0.970 . S
C1229 C489 0.969 . S
C1243 C504 0.976 . S
C1247 C140 0.959 . S
C1261 C151 0.973 . S
C1265 C515 0.965 . S
C1279 C164 0.976 . S
C1283 C424 0.969 . S
C1297 C179 0.979 . S
C1301 C439 0.958 . S
C1315 C450 0.977 . S
C1319 C190 0.981 . S
C1333 C465 0.958 . S
C1337 C205 0.974 . S
C1351 C218 0.963 . S
C1355 C569 0.961 . S
C1369 C231 0.994 . S
C1373 C595 0.973 . S
C1387 C608 0.970 . S
C1391 C242 0.982 . S
C1405 C528 0.961 . S
C1409 C255 0.968 . S
C1423 C270 0.961 . S
C1427 C619 0.965 . S
C1441 C541 0.971 . S
C1445 C281 0.973 . S
C1459 C294 0.984 . S
C1463 C556 0.967 . S
C1477 C307 0.983 . S
C1481 C580 0.976 . S
C1495 C364 1.518 . S
C1499 C5 1.504 . S
C1513 C382 1.558 . S
C1517 C13 1.509 . S
C1531 C390 1.545 . S
C1535 C31 1.517 . S
C1549 C39 1.514 . S
C1553 C408 1.537 . S
C1567 C317 1.538 . S
C1571 C52 1.488 . S
C1585 C325 1.538 . S
C1589 C70 1.501 . S
C1603 C78 1.535 . S
C1607 C343 1.552 . S
C1621 C351 1.526 . S
C1625 C96 1.514 . S
C1639 C109 1.501 . S
C1643 C494 1.530 . S
C1657 C117 1.506 . S
C1661 C512 1.526 . S
C1675 C468 1.532 . S
C1679 C135 1.504 . S
C1693 C143 1.518 . S
C1697 C486 1.545 . S
C1711 C447 1.507 . S
C1715 C156 1.534 . S
C1729 C174 1.498 . S
C1733 C455 1.541 . S
C1747 C182 1.510 . S
C1751 C421 1.551 . S
C1765 C200 1.498 . S
C1769 C429 1.523 . S
C1783 C585 1.518 . S
C1787 C213 1.464 . S
C1801 C226 1.539 . S
C1805 C559 1.597 . S
C1819 C234 1.525 . S
C1823 C577 1.526 . S
C1837 C247 1.540 . S
C1841 C538 1.577 . S
C1855 C546 1.501 . S
C1859 C265 1.481 . S
C1873 C525 1.503 . S
C1877 C273 1.493 . S
C1891 C616 1.548 . S
C1895 C286 1.553 . S
C1909 C299 1.538 . S
C1913 C598 1.563 . S
C1927 C195 1.480 . S
C1931 C0 1.464 . S
C1945 C18 1.453 . S
C1949 C161 1.482 . S
C1963 C169 1.505 . S
C1967 C26 1.494 . S
C1981 C187 1.501 . S
C1985 C44 1.494 . S
C1999 C122 1.468 . S
C2003 C57 1.448 . S
C2017 C65 1.490 . S
C2021 C130 1.504 . S
C2035 C83 1.480 . S
C2039 C148 1.490 . S
C2053 C104 1.480 . S
C2057 C91 1.474 . S
C2071 C208 1.507 . S
C2075 C260 1.503 . S
C2089 C304 1.472 . S
C2093 C221 1.533 . S
C2107 C278 1.445 . S
C2111 C239 1.437 . S
C2125 C252 1.474 . S
C2129 C291 1.476 . S
C2143 C507 1.543 . S
C2147 C312 1.558 . S
C2161 C473 1.509 . S
C2165 C330 1.501 . S
C2179 C338 1.562 . S
C2183 C481 1.529 . S
C2197 C499 1.521 . S
C2201 C356 1.533 . S
C2215 C434 1.505 . S
C2219 C369 1.512 . S
C2233 C377 1.560 . S
C2237 C442 1.523 . S
C2251 C395 1.514 . S
C2255 C460 1.520 . S
C2269 C403 1.538 . S
C2273 C416 1.531 . S
C2287 C520 1.549 . S
C2291 C572 1.544 . S
C2305 C611 1.558 . S
C2309 C533 1.549 . S
C2323 C590 1.472 . S
C2327 C551 1.479 . S
C2341 C603 1.524 . S
C2345 C564 1.506 . S
