# Generated by pormake.
# Topology crs, (6)-cn, num edge types: 1
# Building blocks:
#     Node 0, Type 0, BuildingBlock: CUKXOW_clean_sbu_0, # of connection points: 6
#     Node 1, Type 0, BuildingBlock: CUKXOW_clean_sbu_0, # of connection points: 6
#     Node 2, Type 0, BuildingBlock: CUKXOW_clean_sbu_0, # of connection points: 6
#     Node 3, Type 0, BuildingBlock: CUKXOW_clean_sbu_0, # of connection points: 6
#     Node 4, Type 0, BuildingBlock: CUKXOW_clean_sbu_0, # of connection points: 6
#     Node 5, Type 0, BuildingBlock: CUKXOW_clean_sbu_0, # of connection points: 6
#     Node 6, Type 0, BuildingBlock: CUKXOW_clean_sbu_0, # of connection points: 6
#     Node 7, Type 0, BuildingBlock: CUKXOW_clean_sbu_0, # of connection points: 6
#     Node 8, Type 0, BuildingBlock: CUKXOW_clean_sbu_0, # of connection points: 6
#     Node 9, Type 0, BuildingBlock: CUKXOW_clean_sbu_0, # of connection points: 6
#     Node 10, Type 0, BuildingBlock: CUKXOW_clean_sbu_0, # of connection points: 6
#     Node 11, Type 0, BuildingBlock: CUKXOW_clean_sbu_0, # of connection points: 6
#     Node 12, Type 0, BuildingBlock: CUKXOW_clean_sbu_0, # of connection points: 6
#     Node 13, Type 0, BuildingBlock: CUKXOW_clean_sbu_0, # of connection points: 6
#     Node 14, Type 0, BuildingBlock: CUKXOW_clean_sbu_0, # of connection points: 6
#     Node 15, Type 0, BuildingBlock: CUKXOW_clean_sbu_0, # of connection points: 6
#     Edge 16, Type (0, 0), BuildingBlock: EZIPEK_clean_linker_0, # of connection points: 2
#     Edge 17, Type (0, 0), BuildingBlock: EZIPEK_clean_linker_0, # of connection points: 2
#     Edge 18, Type (0, 0), BuildingBlock: EZIPEK_clean_linker_0, # of connection points: 2
#     Edge 19, Type (0, 0), BuildingBlock: EZIPEK_clean_linker_0, # of connection points: 2
#     Edge 20, Type (0, 0), BuildingBlock: EZIPEK_clean_linker_0, # of connection points: 2
#     Edge 21, Type (0, 0), BuildingBlock: EZIPEK_clean_linker_0, # of connection points: 2
#     Edge 22, Type (0, 0), BuildingBlock: EZIPEK_clean_linker_0, # of connection points: 2
#     Edge 23, Type (0, 0), BuildingBlock: EZIPEK_clean_linker_0, # of connection points: 2
#     Edge 24, Type (0, 0), BuildingBlock: EZIPEK_clean_linker_0, # of connection points: 2
#     Edge 25, Type (0, 0), BuildingBlock: EZIPEK_clean_linker_0, # of connection points: 2
#     Edge 26, Type (0, 0), BuildingBlock: EZIPEK_clean_linker_0, # of connection points: 2
#     Edge 27, Type (0, 0), BuildingBlock: EZIPEK_clean_linker_0, # of connection points: 2
#     Edge 28, Type (0, 0), BuildingBlock: EZIPEK_clean_linker_0, # of connection points: 2
#     Edge 29, Type (0, 0), BuildingBlock: EZIPEK_clean_linker_0, # of connection points: 2
#     Edge 30, Type (0, 0), BuildingBlock: EZIPEK_clean_linker_0, # of connection points: 2
#     Edge 31, Type (0, 0), BuildingBlock: EZIPEK_clean_linker_0, # of connection points: 2
#     Edge 32, Type (0, 0), BuildingBlock: EZIPEK_clean_linker_0, # of connection points: 2
#     Edge 33, Type (0, 0), BuildingBlock: EZIPEK_clean_linker_0, # of connection points: 2
#     Edge 34, Type (0, 0), BuildingBlock: EZIPEK_clean_linker_0, # of connection points: 2
#     Edge 35, Type (0, 0), BuildingBlock: EZIPEK_clean_linker_0, # of connection points: 2
#     Edge 36, Type (0, 0), BuildingBlock: EZIPEK_clean_linker_0, # of connection points: 2
#     Edge 37, Type (0, 0), BuildingBlock: EZIPEK_clean_linker_0, # of connection points: 2
#     Edge 38, Type (0, 0), BuildingBlock: EZIPEK_clean_linker_0, # of connection points: 2
#     Edge 39, Type (0, 0), BuildingBlock: EZIPEK_clean_linker_0, # of connection points: 2
#     Edge 40, Type (0, 0), BuildingBlock: EZIPEK_clean_linker_0, # of connection points: 2
#     Edge 41, Type (0, 0), BuildingBlock: EZIPEK_clean_linker_0, # of connection points: 2
#     Edge 42, Type (0, 0), BuildingBlock: EZIPEK_clean_linker_0, # of connection points: 2
#     Edge 43, Type (0, 0), BuildingBlock: EZIPEK_clean_linker_0, # of connection points: 2
#     Edge 44, Type (0, 0), BuildingBlock: EZIPEK_clean_linker_0, # of connection points: 2
#     Edge 45, Type (0, 0), BuildingBlock: EZIPEK_clean_linker_0, # of connection points: 2
#     Edge 46, Type (0, 0), BuildingBlock: EZIPEK_clean_linker_0, # of connection points: 2
#     Edge 47, Type (0, 0), BuildingBlock: EZIPEK_clean_linker_0, # of connection points: 2
#     Edge 48, Type (0, 0), BuildingBlock: EZIPEK_clean_linker_0, # of connection points: 2
#     Edge 49, Type (0, 0), BuildingBlock: EZIPEK_clean_linker_0, # of connection points: 2
#     Edge 50, Type (0, 0), BuildingBlock: EZIPEK_clean_linker_0, # of connection points: 2
#     Edge 51, Type (0, 0), BuildingBlock: EZIPEK_clean_linker_0, # of connection points: 2
#     Edge 52, Type (0, 0), BuildingBlock: EZIPEK_clean_linker_0, # of connection points: 2
#     Edge 53, Type (0, 0), BuildingBlock: EZIPEK_clean_linker_0, # of connection points: 2
#     Edge 54, Type (0, 0), BuildingBlock: EZIPEK_clean_linker_0, # of connection points: 2
#     Edge 55, Type (0, 0), BuildingBlock: EZIPEK_clean_linker_0, # of connection points: 2
#     Edge 56, Type (0, 0), BuildingBlock: EZIPEK_clean_linker_0, # of connection points: 2
#     Edge 57, Type (0, 0), BuildingBlock: EZIPEK_clean_linker_0, # of connection points: 2
#     Edge 58, Type (0, 0), BuildingBlock: EZIPEK_clean_linker_0, # of connection points: 2
#     Edge 59, Type (0, 0), BuildingBlock: EZIPEK_clean_linker_0, # of connection points: 2
#     Edge 60, Type (0, 0), BuildingBlock: EZIPEK_clean_linker_0, # of connection points: 2
#     Edge 61, Type (0, 0), BuildingBlock: EZIPEK_clean_linker_0, # of connection points: 2
#     Edge 62, Type (0, 0), BuildingBlock: EZIPEK_clean_linker_0, # of connection points: 2
#     Edge 63, Type (0, 0), BuildingBlock: EZIPEK_clean_linker_0, # of connection points: 2
# Relax obj value: 0.166
# Max RMSD: 0.231
# Mean RMSD: 0.193
data_MOF--net-crs--node1-CUKXOW_clean_sbu_0--edge1-EZIPEK_clean_linker_0
_symmetry_space_group_name_H-M    P1
_symmetry_Int_Tables_number       1
_symmetry_cell_setting            triclinic
loop_
_symmetry_equiv_pos_as_xyz
'x, y, z'
_cell_length_a     27.516567
_cell_length_b     33.034599
_cell_length_c     36.334406
_cell_angle_alpha  96.773318
_cell_angle_beta   95.403605
_cell_angle_gamma 93.911534
loop_
_atom_site_label
_atom_site_type_symbol
_atom_site_fract_x
_atom_site_fract_y
_atom_site_fract_z
_atom_type_partial_charge
Tb0 Tb 0.03218 0.99002 0.97504 0.0
C1 C 0.06922 0.99466 0.05844 0.0
Tb2 Tb 0.98578 0.04582 0.02929 0.0
O3 O 0.10182 0.0269 0.98574 0.0
O4 O 0.0372 0.05477 0.99026 0.0
O5 O 0.0639 0.97092 0.02635 0.0
C6 C 0.95799 0.11014 0.07059 0.0
O7 O 0.04782 0.02915 0.06398 0.0
C8 C 0.95541 0.96752 0.02725 0.0
C9 C 0.94165 0.03688 0.94661 0.0
O10 O 0.00275 0.10439 0.06425 0.0
O11 O 0.92882 0.07966 0.05382 0.0
O12 O 0.95735 0.99474 0.05632 0.0
O13 O 0.96597 0.98612 0.00031 0.0
O14 O 0.94071 0.05711 0.98007 0.0
O15 O 0.97287 0.00896 0.93899 0.0
C16 C 0.05021 0.93252 0.922 0.0
O17 O 0.05444 0.9715 0.92002 0.0
O18 O 0.03611 0.92571 0.9539 0.0
C19 C 0.08332 0.06099 0.99581 0.0
Tb20 Tb 0.9528 0.25385 0.26406 0.0
C21 C 0.05268 0.21383 0.25525 0.0
Tb22 Tb 0.02739 0.29492 0.22197 0.0
O23 O 0.90419 0.23582 0.21286 0.0
O24 O 0.97904 0.24141 0.2115 0.0
O25 O 0.01219 0.21451 0.27232 0.0
C26 C 0.08332 0.31353 0.16975 0.0
O27 O 0.06501 0.2408 0.23267 0.0
C28 C 0.02499 0.33 0.29097 0.0
C29 C 0.92566 0.33099 0.22699 0.0
O30 O 0.09957 0.30705 0.20314 0.0
O31 O 0.03585 0.31024 0.16625 0.0
O32 O 0.04029 0.34863 0.26427 0.0
O33 O 0.01803 0.29252 0.27901 0.0
O34 O 0.96172 0.32477 0.20589 0.0
O35 O 0.91812 0.30937 0.25459 0.0
C36 C 0.90598 0.2224 0.31566 0.0
O37 O 0.92522 0.25955 0.3182 0.0
O38 O 0.91289 0.20249 0.28401 0.0
C39 C 0.9391 0.23403 0.19117 0.0
Tb40 Tb 0.73338 0.28168 0.4704 0.0
C41 C 0.71268 0.28701 0.55509 0.0
Tb42 Tb 0.79331 0.23156 0.52517 0.0
O43 O 0.69205 0.22653 0.44191 0.0
O44 O 0.7203 0.22869 0.49732 0.0
O45 O 0.70823 0.30451 0.52391 0.0
C46 C 0.81781 0.17558 0.5689 0.0
O47 O 0.74023 0.25632 0.55996 0.0
C48 C 0.84034 0.30326 0.51753 0.0
C49 C 0.80926 0.22061 0.44079 0.0
O50 O 0.82245 0.21486 0.57862 0.0
O51 O 0.79991 0.16767 0.5342 0.0
O52 O 0.85821 0.27744 0.53851 0.0
O53 O 0.79957 0.28675 0.50329 0.0
O54 O 0.81449 0.20479 0.47258 0.0
O55 O 0.78294 0.25193 0.4348 0.0
C56 C 0.70809 0.34355 0.43372 0.0
O57 O 0.67774 0.31946 0.44811 0.0
O58 O 0.7522 0.33264 0.44025 0.0
C59 C 0.69879 0.20504 0.46961 0.0
Tb60 Tb 0.79957 0.03042 0.73666 0.0
C61 C 0.81405 0.93626 0.74278 0.0
Tb62 Tb 0.73517 0.98356 0.78537 0.0
O63 O 0.84098 0.06608 0.78549 0.0
O64 O 0.80772 0.00813 0.78819 0.0
O65 O 0.82722 0.96999 0.72819 0.0
C66 C 0.69672 0.96181 0.84568 0.0
O67 O 0.78029 0.93531 0.76662 0.0
C68 C 0.70755 0.97182 0.71481 0.0
C69 C 0.71587 0.07587 0.77351 0.0
O70 O 0.67655 0.95406 0.8116 0.0
O71 O 0.74005 0.97998 0.84524 0.0
O72 O 0.69763 0.9451 0.73723 0.0
O73 O 0.72659 0.00466 0.7335 0.0
O74 O 0.70389 0.0432 0.78993 0.0
O75 O 0.75258 0.0779 0.75266 0.0
C76 C 0.82709 0.06034 0.67604 0.0
O77 O 0.85286 0.06443 0.70836 0.0
O78 O 0.78677 0.03835 0.67797 0.0
C79 C 0.82949 0.0393 0.80747 0.0
Tb80 Tb 0.47159 0.76835 0.28395 0.0
C81 C 0.57531 0.73254 0.28422 0.0
Tb82 Tb 0.54563 0.81134 0.24866 0.0
O83 O 0.42897 0.74724 0.23049 0.0
O84 O 0.50463 0.75381 0.23396 0.0
O85 O 0.5307 0.72867 0.29497 0.0
C86 C 0.60604 0.83042 0.19949 0.0
O87 O 0.58966 0.76317 0.26626 0.0
C88 C 0.5265 0.85505 0.31139 0.0
C89 C 0.441 0.83953 0.23962 0.0
O90 O 0.61944 0.8285 0.2345 0.0
O91 O 0.55932 0.8222 0.19292 0.0
O92 O 0.54256 0.86983 0.28298 0.0
O93 O 0.52763 0.81623 0.30561 0.0
O94 O 0.4804 0.83394 0.2224 0.0
O95 O 0.43138 0.8191 0.26752 0.0
C96 C 0.41885 0.73553 0.33246 0.0
O97 O 0.4235 0.71855 0.29924 0.0
O98 O 0.4442 0.77043 0.33839 0.0
C99 C 0.46645 0.74429 0.21141 0.0
Tb100 Tb 0.20754 0.79174 0.46405 0.0
C101 C 0.18333 0.81022 0.54666 0.0
Tb102 Tb 0.26504 0.75137 0.52576 0.0
O103 O 0.17184 0.73188 0.43947 0.0
O104 O 0.1943 0.74246 0.49592 0.0
O105 O 0.18198 0.8234 0.5136 0.0
C106 C 0.29027 0.69753 0.57084 0.0
O107 O 0.20883 0.77954 0.55588 0.0
C108 C 0.31138 0.82267 0.51844 0.0
C109 C 0.29298 0.73771 0.44338 0.0
O110 O 0.28954 0.73651 0.58079 0.0
O111 O 0.2762 0.68857 0.53553 0.0
O112 O 0.32711 0.79783 0.54122 0.0
O113 O 0.2724 0.80512 0.5006 0.0
O114 O 0.2956 0.72455 0.47648 0.0
O115 O 0.26326 0.76512 0.43305 0.0
C116 C 0.17236 0.84361 0.41976 0.0
O117 O 0.21831 0.84135 0.43033 0.0
O118 O 0.1458 0.81677 0.43417 0.0
C119 C 0.1779 0.71479 0.46984 0.0
Tb120 Tb 0.29584 0.53618 0.72725 0.0
C121 C 0.31776 0.44394 0.72555 0.0
Tb122 Tb 0.2274 0.47763 0.76484 0.0
O123 O 0.35102 0.55565 0.77579 0.0
O124 O 0.29205 0.5155 0.77921 0.0
O125 O 0.32646 0.47856 0.71123 0.0
C126 C 0.18795 0.43941 0.81641 0.0
O127 O 0.28317 0.43765 0.74789 0.0
C128 C 0.20586 0.47693 0.69206 0.0
C129 C 0.20476 0.57041 0.76449 0.0
O130 O 0.2336 0.45256 0.81768 0.0
O131 O 0.16396 0.44812 0.78618 0.0
O132 O 0.19679 0.44607 0.71038 0.0
O133 O 0.22331 0.50675 0.71593 0.0
O134 O 0.19439 0.53542 0.77792 0.0
O135 O 0.24102 0.5765 0.74385 0.0
C136 C 0.32075 0.58322 0.67657 0.0
O137 O 0.29707 0.54743 0.66947 0.0
O138 O 0.33303 0.59139 0.71217 0.0
C139 C 0.32938 0.53423 0.79831 0.0
Tb140 Tb 0.03263 0.48298 0.47529 0.0
C141 C 0.07394 0.49818 0.56008 0.0
Tb142 Tb 0.98017 0.53837 0.5243 0.0
O143 O 0.06095 0.53285 0.44649 0.0
O144 O 0.0481 0.54479 0.50154 0.0
O145 O 0.0774 0.47664 0.52722 0.0
C146 C 0.95507 0.5971 0.57342 0.0
O147 O 0.04016 0.52489 0.56471 0.0
C148 C 0.93387 0.46484 0.50584 0.0
C149 C 0.94484 0.52645 0.43854 0.0
O150 O 0.95463 0.55878 0.57799 0.0
O151 O 0.96906 0.60228 0.5411 0.0
O152 O 0.91251 0.49815 0.51315 0.0
O153 O 0.97952 0.47369 0.513 0.0
O154 O 0.94772 0.55181 0.46991 0.0
O155 O 0.97046 0.49388 0.4362 0.0
C156 C 0.05484 0.41391 0.4364 0.0
O157 O 0.08442 0.4468 0.44556 0.0
O158 O 0.01356 0.42081 0.44946 0.0
C159 C 0.05951 0.56177 0.47376 0.0
Tb160 Tb 0.22551 0.28991 0.96961 0.0
C161 C 0.20812 0.30862 0.0535 0.0
Tb162 Tb 0.28688 0.25153 0.02573 0.0
O163 O 0.18105 0.23281 0.94932 0.0
O164 O 0.21244 0.24264 0.00346 0.0
O165 O 0.20515 0.32262 0.02085 0.0
C166 C 0.32233 0.1979 0.06882 0.0
O167 O 0.23401 0.27756 0.06042 0.0
C168 C 0.32026 0.32683 0.01795 0.0
C169 C 0.31086 0.23904 0.94269 0.0
O170 O 0.33965 0.23556 0.0697 0.0
O171 O 0.28528 0.19075 0.04356 0.0
O172 O 0.32533 0.3104 0.04873 0.0
O173 O 0.30015 0.29974 0.99259 0.0
O174 O 0.31391 0.2236 0.97477 0.0
O175 O 0.28436 0.27031 0.93709 0.0
C176 C 0.17719 0.33868 0.92735 0.0
O177 O 0.18998 0.30257 0.91625 0.0
O178 O 0.19326 0.3477 0.96221 0.0
C179 C 0.18987 0.21576 0.97923 0.0
Tb180 Tb 0.26984 0.05071 0.23087 0.0
C181 C 0.30507 0.96267 0.23632 0.0
Tb182 Tb 0.21119 0.9933 0.26803 0.0
O183 O 0.29179 0.08814 0.28356 0.0
O184 O 0.28141 0.02536 0.28221 0.0
O185 O 0.30659 0.99486 0.21777 0.0
C186 C 0.1609 0.95376 0.31494 0.0
O187 O 0.27499 0.95873 0.26222 0.0
C188 C 0.18641 0.98823 0.19536 0.0
C189 C 0.1748 0.08075 0.26059 0.0
O190 O 0.17156 0.93858 0.28244 0.0
O191 O 0.17972 0.99124 0.32112 0.0
O192 O 0.18513 0.95762 0.21446 0.0
O193 O 0.19908 0.01978 0.21775 0.0
O194 O 0.17389 0.04956 0.28044 0.0
O195 O 0.20369 0.08252 0.23368 0.0
C196 C 0.316 0.09542 0.18573 0.0
O197 O 0.30626 0.1079 0.21912 0.0
O198 O 0.302 0.05684 0.17836 0.0
C199 C 0.29131 0.05834 0.30352 0.0
Tb200 Tb 0.47803 0.23674 0.7688 0.0
C201 C 0.58238 0.20334 0.76476 0.0
Tb202 Tb 0.5487 0.28066 0.73068 0.0
O203 O 0.43658 0.20694 0.71712 0.0
O204 O 0.51069 0.22138 0.71834 0.0
O205 O 0.54219 0.20312 0.78222 0.0
C206 C 0.59531 0.31011 0.67703 0.0
O207 O 0.58983 0.22837 0.73964 0.0
C208 C 0.55479 0.30788 0.80295 0.0
C209 C 0.44453 0.31378 0.73402 0.0
O210 O 0.61472 0.30692 0.71035 0.0
O211 O 0.54947 0.29734 0.67448 0.0
O212 O 0.59103 0.30845 0.7826 0.0
O213 O 0.51649 0.29588 0.78125 0.0
O214 O 0.48471 0.31381 0.71678 0.0
O215 O 0.43716 0.28948 0.7597 0.0
C216 C 0.43002 0.20976 0.82282 0.0
O217 O 0.41092 0.21311 0.78946 0.0
O218 O 0.47644 0.22036 0.82508 0.0
C219 C 0.47276 0.20811 0.69671 0.0
Tb220 Tb 0.98022 0.74082 0.77488 0.0
C221 C 0.07932 0.70268 0.76277 0.0
Tb222 Tb 0.04663 0.77992 0.72585 0.0
O223 O 0.92996 0.71018 0.72836 0.0
O224 O 0.00257 0.72398 0.72111 0.0
O225 O 0.04342 0.70611 0.78446 0.0
C226 C 0.0882 0.81434 0.67258 0.0
O227 O 0.08408 0.72506 0.73494 0.0
C228 C 0.0597 0.81119 0.79655 0.0
C229 C 0.94081 0.8072 0.73014 0.0
O230 O 0.10328 0.78314 0.68756 0.0
O231 O 0.05009 0.82631 0.68759 0.0
O232 O 0.09376 0.8109 0.77436 0.0
O233 O 0.02043 0.79794 0.77735 0.0
O234 O 0.97446 0.79908 0.70727 0.0
O235 O 0.94445 0.79471 0.76347 0.0
C236 C 0.93488 0.72463 0.83325 0.0
O237 O 0.91675 0.71618 0.79878 0.0
O238 O 0.97938 0.74101 0.83482 0.0
C239 C 0.961 0.71248 0.70378 0.0
Tb240 Tb 0.78255 0.55449 0.23557 0.0
C241 C 0.79948 0.46246 0.2319 0.0
Tb242 Tb 0.72072 0.50262 0.27776 0.0
O243 O 0.82695 0.58374 0.28641 0.0
O244 O 0.79532 0.52493 0.28416 0.0
O245 O 0.79673 0.49317 0.21188 0.0
C246 C 0.69106 0.4649 0.33361 0.0
O247 O 0.77856 0.46315 0.26333 0.0
C248 C 0.6872 0.49961 0.20684 0.0
C249 C 0.7026 0.59792 0.27808 0.0
O250 O 0.68477 0.45021 0.29863 0.0
O251 O 0.71091 0.50214 0.3368 0.0
O252 O 0.67928 0.47022 0.22693 0.0
O253 O 0.70809 0.53015 0.22827 0.0
O254 O 0.68843 0.56203 0.28889 0.0
O255 O 0.74114 0.60263 0.2594 0.0
C256 C 0.81502 0.58843 0.17875 0.0
O257 O 0.76991 0.58409 0.18583 0.0
O258 O 0.84281 0.57383 0.20411 0.0
C259 C 0.81782 0.55415 0.30606 0.0
Tb260 Tb 0.72136 0.79725 0.98318 0.0
C261 C 0.70345 0.79925 0.0678 0.0
Tb262 Tb 0.78436 0.75012 0.03106 0.0
O263 O 0.68004 0.74182 0.95466 0.0
O264 O 0.70929 0.74352 0.00965 0.0
O265 O 0.69433 0.81596 0.03677 0.0
C266 C 0.81976 0.68965 0.06542 0.0
O267 O 0.73291 0.76937 0.06989 0.0
C268 C 0.81929 0.82674 0.03176 0.0
C269 C 0.80426 0.75087 0.94669 0.0
O270 O 0.82223 0.72776 0.07931 0.0
O271 O 0.79975 0.68602 0.03135 0.0
O272 O 0.82904 0.80461 0.05832 0.0
O273 O 0.79633 0.80343 0.00481 0.0
O274 O 0.81186 0.73272 0.97722 0.0
O275 O 0.77327 0.77964 0.94389 0.0
C276 C 0.68197 0.85971 0.95358 0.0
O277 O 0.67053 0.82115 0.94243 0.0
O278 O 0.71661 0.86245 0.98064 0.0
C279 C 0.68809 0.72013 0.98186 0.0
Tb280 Tb 0.5269 0.00828 0.52832 0.0
C281 C 0.51348 0.97247 0.44482 0.0
Tb282 Tb 0.45887 0.0455 0.48245 0.0
O283 O 0.4845 0.94956 0.51681 0.0
O284 O 0.44809 1.00249 0.5205 0.0
O285 O 0.54644 0.98042 0.4743 0.0
C286 C 0.37798 0.07243 0.44975 0.0
O287 O 0.47203 0.99098 0.44404 0.0
C288 C 0.55044 0.07227 0.47653 0.0
C289 C 0.48014 0.08611 0.56614 0.0
O290 O 0.38128 0.03765 0.46235 0.0
O291 O 0.42104 0.0917 0.4552 0.0
O292 O 0.51623 0.06443 0.44896 0.0
O293 O 0.532 0.0649 0.50583 0.0
O294 O 0.45354 0.08695 0.53386 0.0
O295 O 0.51184 0.05819 0.57004 0.0
C296 C 0.59146 0.98836 0.58018 0.0
O297 O 0.5445 0.98483 0.5805 0.0
O298 O 0.60287 1.00298 0.5502 0.0
C299 C 0.44212 0.96396 0.51284 0.0
Tb300 Tb 0.52962 0.49427 0.97944 0.0
C301 C 0.57055 0.51017 0.06473 0.0
Tb302 Tb 0.47888 0.55572 0.03072 0.0
O303 O 0.55882 0.54408 0.95061 0.0
O304 O 0.54482 0.55608 0.00508 0.0
O305 O 0.57497 0.48903 0.03168 0.0
C306 C 0.46621 0.6182 0.08339 0.0
O307 O 0.53613 0.53626 0.06943 0.0
C308 C 0.43121 0.48304 0.01647 0.0
C309 C 0.43841 0.53604 0.9446 0.0
O310 O 0.46667 0.5798 0.0877 0.0
O311 O 0.47112 0.62123 0.0485 0.0
O312 O 0.41146 0.51641 0.02755 0.0
O313 O 0.47721 0.49125 0.01892 0.0
O314 O 0.44009 0.56274 0.97552 0.0
O315 O 0.46762 0.50596 0.94203 0.0
C316 C 0.54781 0.42709 0.93482 0.0
O317 O 0.50598 0.43475 0.9468 0.0
O318 O 0.58037 0.45642 0.94989 0.0
C319 C 0.55728 0.5731 0.97782 0.0
C320 C 0.94691 0.18321 0.09309 0.0
C321 C 0.94458 0.14152 0.09921 0.0
C322 C 0.93392 0.16031 0.16471 0.0
C323 C 0.9354 0.20217 0.15873 0.0
N324 N 0.93463 0.25341 0.11691 0.0
N325 N 0.92538 0.08934 0.13813 0.0
C326 C 0.939 0.2136 0.12267 0.0
C327 C 0.93415 0.12977 0.13402 0.0
N328 N 0.95735 0.19355 0.05918 0.0
N329 N 0.9363 0.14972 0.20008 0.0
H330 H 0.92842 0.06545 0.11727 0.0
H331 H 0.91126 0.07943 0.16144 0.0
H332 H 0.93694 0.17075 0.22374 0.0
H333 H 0.94245 0.12046 0.20644 0.0
H334 H 0.96395 0.22348 0.05359 0.0
H335 H 0.96122 0.17177 0.03661 0.0
H336 H 0.93328 0.2636 0.09085 0.0
H337 H 0.92874 0.27605 0.13823 0.0
C338 C 0.88872 0.2143 0.41404 0.0
C339 C 0.83728 0.20508 0.41064 0.0
C340 C 0.83431 0.19197 0.34302 0.0
C341 C 0.88465 0.20537 0.34641 0.0
N342 N 0.96293 0.2141 0.38295 0.0
N343 N 0.7644 0.17214 0.37494 0.0
C344 C 0.91297 0.2111 0.38137 0.0
C345 C 0.81124 0.18915 0.37598 0.0
N346 N 0.91366 0.22928 0.44777 0.0
N347 N 0.8081 0.18495 0.30873 0.0
H348 H 0.7474 0.16967 0.39918 0.0
H349 H 0.74431 0.15725 0.35086 0.0
H350 H 0.82437 0.1857 0.28403 0.0
H351 H 0.77012 0.1799 0.30474 0.0
H352 H 0.9498 0.24179 0.45089 0.0
H353 H 0.89758 0.23145 0.47267 0.0
H354 H 0.98592 0.21513 0.40756 0.0
H355 H 0.98121 0.2114 0.35896 0.0
C356 C 0.80535 0.12688 0.65671 0.0
C357 C 0.82985 0.09082 0.64959 0.0
C358 C 0.85001 0.11143 0.58984 0.0
C359 C 0.82116 0.14523 0.5956 0.0
N360 N 0.75997 0.17785 0.6296 0.0
N361 N 0.87085 0.04571 0.60806 0.0
C362 C 0.79571 0.15104 0.6277 0.0
C363 C 0.85087 0.08211 0.61569 0.0
N364 N 0.79164 0.13845 0.69134 0.0
N365 N 0.87767 0.10808 0.56047 0.0
H366 H 0.87352 0.02446 0.62712 0.0
H367 H 0.88203 0.03555 0.5822 0.0
H368 H 0.87783 0.12899 0.5411 0.0
H369 H 0.90315 0.08643 0.55686 0.0
H370 H 0.77779 0.16651 0.69881 0.0
H371 H 0.79899 0.12219 0.71379 0.0
H372 H 0.73681 0.17995 0.65074 0.0
H373 H 0.74928 0.19443 0.60793 0.0
C374 C 0.89442 0.07812 0.90326 0.0
C375 C 0.90269 0.0405 0.91697 0.0
C376 C 0.86406 1.00274 0.85968 0.0
C377 C 0.85225 0.03985 0.84608 0.0
N378 N 0.84302 0.11217 0.86078 0.0
N379 N 0.87607 0.9691 0.91471 0.0
C380 C 0.86308 0.07749 0.86975 0.0
C381 C 0.87993 1.00364 0.89757 0.0
N382 N 0.91799 0.11388 0.92079 0.0
N383 N 0.86645 0.96764 0.83632 0.0
H384 H 0.88726 0.9692 0.94299 0.0
H385 H 0.85687 0.94205 0.90173 0.0
H386 H 0.86696 0.96724 0.80774 0.0
H387 H 0.87699 0.94069 0.84588 0.0
H388 H 0.91693 0.14137 0.9094 0.0
H389 H 0.94127 0.11555 0.94535 0.0
H390 H 0.84713 0.13951 0.87871 0.0
H391 H 0.81785 0.11237 0.83748 0.0
C392 C 0.08088 0.96419 0.11774 0.0
C393 C 0.10142 0.98372 0.08951 0.0
C394 C 0.17167 0.01134 0.13217 0.0
C395 C 0.15465 0.98889 0.16003 0.0
N396 N 0.08894 0.94767 0.18106 0.0
N397 N 0.1718 0.01498 0.06638 0.0
C398 C 0.10829 0.96574 0.15316 0.0
C399 C 0.14889 1.00325 0.09556 0.0
N400 N 0.03433 0.94591 0.11097 0.0
N401 N 0.20603 0.04344 0.14111 0.0
H402 H 0.15612 0.00807 0.03894 0.0
H403 H 0.20825 0.02684 0.06913 0.0
H404 H 0.21649 0.05542 0.16849 0.0
H405 H 0.21699 0.06254 0.12201 0.0
H406 H 0.01421 0.93515 0.13115 0.0
H407 H 0.01525 0.94201 0.08452 0.0
H408 H 0.05987 0.92523 0.17665 0.0
H409 H 0.10091 0.95611 0.20915 0.0
C410 C 0.01619 0.3542 0.39452 0.0
C411 C 0.05881 0.38032 0.40595 0.0
C412 C 0.08711 0.36032 0.34488 0.0
C413 C 0.03807 0.34565 0.33102 0.0
N414 N 0.9535 0.33944 0.34388 0.0
N415 N 0.14074 0.40182 0.39431 0.0
C416 C 0.00195 0.34465 0.35621 0.0
C417 C 0.09648 0.38128 0.3819 0.0
N418 N 0.9883 0.34001 0.42005 0.0
N419 N 0.12451 0.35319 0.32339 0.0
H420 H 0.15061 0.41213 0.42244 0.0
H421 H 0.16734 0.40834 0.37681 0.0
H422 H 0.11917 0.33631 0.29702 0.0
H423 H 0.16126 0.36043 0.33308 0.0
H424 H 0.9584 0.31856 0.41222 0.0
H425 H -0.00079 0.34576 0.44863 0.0
H426 H 0.92613 0.34152 0.3619 0.0
H427 H 0.94125 0.33858 0.31592 0.0
C428 C 0.64722 0.2629 0.59151 0.0
C429 C 0.6787 0.29588 0.58349 0.0
C430 C 0.65032 0.34065 0.63443 0.0
C431 C 0.62353 0.30627 0.64468 0.0
N432 N 0.6049 0.23284 0.63791 0.0
N433 N 0.71433 0.36522 0.59886 0.0
C434 C 0.62405 0.26692 0.62451 0.0
C435 C 0.68113 0.33475 0.60514 0.0
N436 N 0.63887 0.22767 0.56727 0.0
N437 N 0.64591 0.37871 0.65245 0.0
H438 H 0.73709 0.36185 0.57748 0.0
H439 H 0.72161 0.39282 0.61618 0.0
H440 H 0.62434 0.38359 0.67446 0.0
H441 H 0.66075 0.40554 0.64406 0.0
H442 H 0.61161 0.2048 0.56936 0.0
H443 H 0.65594 0.2229 0.54304 0.0
H444 H 0.6095 0.20311 0.6264 0.0
H445 H 0.58867 0.23364 0.66272 0.0
C446 C 0.63721 0.91625 0.87401 0.0
C447 C 0.67706 0.94665 0.87884 0.0
C448 C 0.69361 0.93318 0.94332 0.0
C449 C 0.66773 0.89434 0.93321 0.0
N450 N 0.60136 0.85457 0.89434 0.0
N451 N 0.73238 0.99317 0.92239 0.0
C452 C 0.63482 0.88769 0.90027 0.0
C453 C 0.70172 0.9583 0.91503 0.0
N454 N 0.60069 0.9162 0.84584 0.0
N455 N 0.70796 0.94659 0.97996 0.0
H456 H 0.73267 0.01562 0.90448 0.0
H457 H 0.75692 0.99991 0.94632 0.0
H458 H 0.69726 0.93032 0.00118 0.0
H459 H 0.72443 0.97572 0.98949 0.0
H460 H 0.56939 0.89601 0.84194 0.0
H461 H 0.59841 0.94009 0.82956 0.0
H462 H 0.58125 0.84472 0.86874 0.0
H463 H 0.59344 0.83724 0.91555 0.0
C464 C 0.12443 0.30369 0.07278 0.0
C465 C 0.17335 0.32095 0.08028 0.0
C466 C 0.15872 0.34256 0.14476 0.0
C467 C 0.11366 0.31787 0.13879 0.0
N468 N 0.06081 0.26591 0.09829 0.0
N469 N 0.23858 0.35606 0.12348 0.0
C470 C 0.09789 0.2964 0.10302 0.0
C471 C 0.19095 0.3404 0.11633 0.0
N472 N 0.10388 0.29238 0.037 0.0
N473 N 0.17009 0.36873 0.17691 0.0
H474 H 0.26206 0.35694 0.10257 0.0
H475 H 0.25518 0.36631 0.15023 0.0
H476 H 0.14647 0.37226 0.19767 0.0
H477 H 0.2006 0.38984 0.18129 0.0
H478 H 0.06682 0.28284 0.03055 0.0
H479 H 0.12229 0.29614 0.01374 0.0
H480 H 0.05197 0.24677 0.07329 0.0
H481 H 0.04356 0.2557 0.12018 0.0
C482 C 0.73248 0.43893 0.39008 0.0
C483 C 0.69043 0.43877 0.36411 0.0
C484 C 0.65551 0.37672 0.38603 0.0
C485 C 0.69635 0.3788 0.41352 0.0
N486 N 0.76317 0.42106 0.44993 0.0
N487 N 0.60674 0.41365 0.34406 0.0
C488 C 0.73115 0.41311 0.41837 0.0
C489 C 0.65011 0.40973 0.36442 0.0
N490 N 0.77546 0.46041 0.38601 0.0
N491 N 0.62373 0.34248 0.37854 0.0
H492 H 0.60162 0.43775 0.3283 0.0
H493 H 0.57474 0.39555 0.34589 0.0
H494 H 0.62633 0.3171 0.3928 0.0
H495 H 0.59694 0.33787 0.35587 0.0
H496 H 0.80798 0.45773 0.40242 0.0
H497 H 0.78067 0.47643 0.36355 0.0
H498 H 0.7869 0.44754 0.4557 0.0
H499 H 0.76178 0.40384 0.47217 0.0
C500 C 0.66216 0.95802 0.61224 0.0
C501 C 0.62495 0.98562 0.61331 0.0
C502 C 0.63576 0.99597 0.68105 0.0
C503 C 0.67661 0.97242 0.68007 0.0
N504 N 0.72875 0.92922 0.64657 0.0
N505 N 0.5843 0.03823 0.64757 0.0
C506 C 0.68997 0.95287 0.64612 0.0
C507 C 0.61395 0.00666 0.64742 0.0
N508 N 0.66925 0.93566 0.57933 0.0
N509 N 0.61742 0.00757 0.71407 0.0
H510 H 0.57179 0.04986 0.62333 0.0
H511 H 0.57684 0.05594 0.6717 0.0
H512 H 0.63207 0.99954 0.73948 0.0
H513 H 0.58472 0.02146 0.71586 0.0
H514 H 0.69256 0.91218 0.57714 0.0
H515 H 0.64976 0.93922 0.55404 0.0
H516 H 0.74431 0.91781 0.62286 0.0
H517 H 0.74602 0.92163 0.67134 0.0
C518 C 0.08726 0.87079 0.89324 0.0
C519 C 0.05325 0.90095 0.89047 0.0
C520 C 0.03162 0.8768 0.82463 0.0
C521 C 0.06073 0.84343 0.82833 0.0
N522 N 0.11553 0.80722 0.86571 0.0
N523 N 0.98523 0.92705 0.85611 0.0
C524 C 0.08851 0.84003 0.86254 0.0
C525 C 0.02319 0.90242 0.85691 0.0
N526 N 0.11947 0.87254 0.92453 0.0
N527 N 0.01398 0.88529 0.79014 0.0
H528 H 0.97639 0.9453 0.87957 0.0
H529 H 0.95939 0.926 0.83308 0.0
H530 H 0.02243 0.86911 0.76546 0.0
H531 H 0.99606 0.91139 0.78587 0.0
H532 H 0.1485 0.85405 0.92676 0.0
H533 H 0.11945 0.89464 0.94754 0.0
H534 H 0.13195 0.80018 0.89092 0.0
H535 H 0.11965 0.78583 0.84299 0.0
C536 C 0.12681 0.12863 0.0244 0.0
C537 C 0.11017 0.10076 0.99236 0.0
C538 C 0.15447 0.1443 0.95432 0.0
C539 C 0.16459 0.17553 0.98525 0.0
N540 N 0.14836 0.19912 0.04855 0.0
N541 N 0.10097 0.08575 0.92533 0.0
C542 C 0.14782 0.16818 0.02013 0.0
C543 C 0.12174 0.10976 0.95686 0.0
N544 N 0.12331 0.11737 0.05907 0.0
N545 N 0.17775 0.14638 0.9229 0.0
H546 H 0.07671 0.0602 0.92583 0.0
H547 H 0.10415 0.09354 0.89864 0.0
H548 H 0.20406 0.16971 0.92019 0.0
H549 H 0.17523 0.12244 0.90123 0.0
H550 H 0.13975 0.13492 0.08335 0.0
H551 H 0.1083 0.08871 0.06326 0.0
H552 H 0.13228 0.19578 0.07298 0.0
H553 H 0.15869 0.22923 0.04603 0.0
C554 C 0.6533 0.64943 0.24812 0.0
C555 C 0.66987 0.63249 0.28103 0.0
C556 C 0.62546 0.68318 0.31768 0.0
C557 C 0.6062 0.69712 0.28423 0.0
N558 N 0.58932 0.68307 0.2174 0.0
N559 N 0.66773 0.6312 0.34719 0.0
C560 C 0.61676 0.67743 0.2495 0.0
C561 C 0.65437 0.64855 0.31585 0.0
N562 N 0.67173 0.63915 0.21492 0.0
N563 N 0.61763 0.70393 0.35113 0.0
H564 H 0.69153 0.60804 0.34757 0.0
H565 H 0.65329 0.63826 0.37243 0.0
H566 H 0.59642 0.72895 0.35318 0.0
H567 H 0.63469 0.6983 0.37662 0.0
H568 H 0.66672 0.65618 0.19264 0.0
H569 H 0.69247 0.61459 0.2091 0.0
H570 H 0.59136 0.66548 0.19188 0.0
H571 H 0.56076 0.70203 0.21678 0.0
C572 C 0.34211 0.88024 0.48306 0.0
C573 C 0.33525 0.86485 0.5173 0.0
C574 C 0.3901 0.92276 0.55045 0.0
C575 C 0.39675 0.93759 0.51611 0.0
N576 N 0.36652 0.93796 0.45192 0.0
N577 N 0.34273 0.8785 0.58467 0.0
C578 C 0.3679 0.91911 0.48334 0.0
C579 C 0.35599 0.88844 0.55135 0.0
N580 N 0.32889 0.85621 0.45004 0.0
N581 N 0.41794 0.94053 0.58211 0.0
H582 H 0.31811 0.85382 0.58695 0.0
H583 H 0.35243 0.89698 0.60991 0.0
H584 H 0.44072 0.96726 0.58285 0.0
H585 H 0.42021 0.92785 0.60707 0.0
H586 H 0.33763 0.86417 0.42441 0.0
H587 H 0.31426 0.82634 0.44865 0.0
H588 H 0.34214 0.92828 0.42829 0.0
H589 H 0.38707 0.96523 0.45089 0.0
C590 C 0.10738 0.63794 0.73311 0.0
C591 C 0.10898 0.66727 0.76498 0.0
C592 C 0.16575 0.62747 0.79945 0.0
C593 C 0.16931 0.60184 0.76587 0.0
N594 N 0.14844 0.5861 0.69908 0.0
N595 N 0.14077 0.69168 0.82844 0.0
C596 C 0.14163 0.60809 0.73223 0.0
C597 C 0.13807 0.66231 0.79838 0.0
N598 N 0.07129 0.63707 0.70436 0.0
N599 N 0.18919 0.61874 0.83211 0.0
H600 H 0.12034 0.71706 0.82875 0.0
H601 H 0.16534 0.69238 0.85215 0.0
H602 H 0.21125 0.59438 0.83343 0.0
H603 H 0.18426 0.63376 0.85816 0.0
H604 H 0.06532 0.61365 0.68218 0.0
H605 H 0.04357 0.65695 0.70477 0.0
H606 H 0.13416 0.59349 0.67334 0.0
H607 H 0.17115 0.5623 0.69677 0.0
C608 C 0.87244 0.3566 0.47891 0.0
C609 C 0.86262 0.34523 0.51417 0.0
C610 C 0.90128 0.41196 0.54427 0.0
C611 C 0.90875 0.42389 0.50874 0.0
N612 N 0.8891 0.41165 0.44215 0.0
N613 N 0.8583 0.36557 0.57963 0.0
C614 C 0.89046 0.39746 0.47601 0.0
C615 C 0.87463 0.37386 0.5467 0.0
N616 N 0.86717 0.3278 0.44839 0.0
N617 N 0.91958 0.43711 0.57581 0.0
H618 H 0.83761 0.33864 0.58236 0.0
H619 H 0.86111 0.38683 0.60343 0.0
H620 H 0.9358 0.46644 0.57527 0.0
H621 H 0.92113 0.42813 0.60239 0.0
H622 H 0.87645 0.33338 0.42224 0.0
H623 H 0.85837 0.29713 0.45026 0.0
H624 H 0.87159 0.39526 0.4177 0.0
H625 H 0.9008 0.4416 0.43916 0.0
C626 C 0.39145 0.94306 0.2397 0.0
C627 C 0.34079 0.93178 0.23058 0.0
C628 C 0.35698 0.85952 0.22027 0.0
C629 C 0.40777 0.87086 0.2293 0.0
N630 N 0.47406 0.92427 0.23527 0.0
N631 N 0.27613 0.88117 0.20361 0.0
C632 C 0.42531 0.91287 0.23479 0.0
C633 C 0.32376 0.8905 0.21821 0.0
N634 N 0.4072 0.98201 0.25539 0.0
N635 N 0.34055 0.8191 0.21392 0.0
H636 H 0.25124 0.90336 0.20114 0.0
H637 H 0.26235 0.85225 0.19092 0.0
H638 H 0.36419 0.79582 0.2114 0.0
H639 H 0.30377 0.8086 0.21223 0.0
H640 H 0.44306 0.99048 0.26696 0.0
H641 H 0.38373 0.00512 0.26012 0.0
H642 H 0.48775 0.95453 0.23568 0.0
H643 H 0.5004 0.90372 0.23067 0.0
C644 C 0.3953 0.41769 0.74876 0.0
C645 C 0.35367 0.41293 0.72223 0.0
C646 C 0.37502 0.34417 0.6996 0.0
C647 C 0.41216 0.34715 0.7299 0.0
N648 N 0.44917 0.38342 0.78856 0.0
N649 N 0.30127 0.37141 0.67335 0.0
C650 C 0.42002 0.38298 0.75595 0.0
C651 C 0.34276 0.37607 0.69773 0.0
N652 N 0.41153 0.4554 0.76706 0.0
N653 N 0.37062 0.311 0.6729 0.0
H654 H 0.2784 0.39503 0.67038 0.0
H655 H 0.28837 0.34381 0.65746 0.0
H656 H 0.39267 0.28662 0.67432 0.0
H657 H 0.34733 0.30879 0.64832 0.0
H658 H 0.44444 0.46092 0.78424 0.0
H659 H 0.39472 0.48184 0.76218 0.0
H660 H 0.45193 0.40751 0.81013 0.0
H661 H 0.46624 0.35796 0.79581 0.0
C662 C 0.17894 0.84727 0.60911 0.0
C663 C 0.154 0.82895 0.57494 0.0
C664 C 0.07873 0.81862 0.60417 0.0
C665 C 0.10679 0.82867 0.63939 0.0
N666 N 0.18056 0.85819 0.67647 0.0
N667 N 0.07771 0.81185 0.53664 0.0
C668 C 0.15585 0.84555 0.64217 0.0
C669 C 0.10278 0.81966 0.57133 0.0
N670 N 0.22427 0.86673 0.60917 0.0
N671 N 0.03028 0.80538 0.60231 0.0
H672 H 0.09475 0.8138 0.51243 0.0
H673 H 0.03985 0.80683 0.53152 0.0
H674 H 0.01096 0.80616 0.62561 0.0
H675 H 0.00901 0.7928 0.57796 0.0
H676 H 0.24457 0.88261 0.63269 0.0
H677 H 0.23906 0.8702 0.5842 0.0
H678 H 0.2179 0.86693 0.68086 0.0
H679 H 0.16338 0.85914 0.70095 0.0
C680 C 0.12645 0.88745 0.33245 0.0
C681 C 0.14346 0.92889 0.34341 0.0
C682 C 0.16148 0.91539 0.40769 0.0
C683 C 0.15394 0.87286 0.39519 0.0
N684 N 0.12592 0.81754 0.34676 0.0
N685 N 0.15098 0.98439 0.39325 0.0
C686 C 0.13407 0.8586 0.35809 0.0
C687 C 0.15285 0.94372 0.38174 0.0
N688 N 0.10164 0.87636 0.29799 0.0
N689 N 0.17841 0.92848 0.44402 0.0
H690 H 0.13913 0.00466 0.37502 0.0
H691 H 0.15463 0.99702 0.42109 0.0
H692 H 0.1822 0.90858 0.46421 0.0
H693 H 0.19046 0.9587 0.45391 0.0
H694 H 0.08506 0.8472 0.28881 0.0
H695 H 0.09284 0.89794 0.28014 0.0
H696 H 0.11719 0.80499 0.31909 0.0
H697 H 0.13022 0.79557 0.36494 0.0
C698 C 0.90897 0.66694 0.65128 0.0
C699 C 0.95325 0.6908 0.66493 0.0
C700 C 0.99526 0.65741 0.61501 0.0
C701 C 0.95296 0.63036 0.60366 0.0
N702 N 0.86918 0.60829 0.60998 0.0
N703 N 0.026 0.72335 0.64666 0.0
C704 C 0.90945 0.63494 0.62136 0.0
C705 C 0.99277 0.69042 0.64284 0.0
N706 N 0.8661 0.67721 0.66464 0.0
N707 N 0.03887 0.65029 0.60114 0.0
H708 H 0.01991 0.74998 0.66315 0.0
H709 H 0.05374 0.72651 0.6293 0.0
H710 H 0.04352 0.62543 0.58167 0.0
H711 H 0.07179 0.66679 0.61194 0.0
H712 H 0.83193 0.66263 0.6546 0.0
H713 H 0.86381 0.70407 0.68236 0.0
H714 H 0.83819 0.60679 0.62427 0.0
H715 H 0.86764 0.58598 0.58696 0.0
C716 C 0.30784 0.70688 0.38022 0.0
C717 C 0.32709 0.7234 0.41684 0.0
C718 C 0.40947 0.7258 0.39741 0.0
C719 C 0.38889 0.71975 0.3599 0.0
N720 N 0.31823 0.70193 0.31454 0.0
N721 N 0.39697 0.75065 0.46057 0.0
C722 C 0.33814 0.70835 0.35083 0.0
C723 C 0.3783 0.73242 0.4259 0.0
N724 N 0.26051 0.69027 0.37371 0.0
N725 N 0.459 0.72599 0.4055 0.0
H726 H 0.37578 0.75711 0.48245 0.0
H727 H 0.43331 0.76238 0.46684 0.0
H728 H 0.48238 0.72058 0.38472 0.0
H729 H 0.4759 0.72699 0.43253 0.0
H730 H 0.24553 0.67443 0.34825 0.0
H731 H 0.23769 0.68897 0.39497 0.0
H732 H 0.28066 0.69923 0.30665 0.0
H733 H 0.33904 0.70093 0.29204 0.0
C734 C 0.2869 0.15302 0.15317 0.0
C735 C 0.32097 0.12293 0.15684 0.0
C736 C 0.35828 0.14266 0.10218 0.0
C737 C 0.32696 0.1749 0.10108 0.0
N738 N 0.26997 0.21703 0.13095 0.0
N739 N 0.39286 0.09182 0.13795 0.0
C740 C 0.29432 0.18223 0.1285 0.0
C741 C 0.35788 0.11848 0.1322 0.0
N742 N 0.24512 0.15196 0.17081 0.0
N743 N 0.38743 0.13471 0.07419 0.0
H744 H 0.39322 0.07363 0.15956 0.0
H745 H 0.42337 0.08987 0.12312 0.0
H746 H 0.38966 0.15297 0.05274 0.0
H747 H 0.40723 0.10899 0.07111 0.0
H748 H 0.21677 0.17053 0.16557 0.0
H749 H 0.23553 0.12939 0.18704 0.0
H750 H 0.24967 0.22572 0.15297 0.0
H751 H 0.27405 0.23937 0.11327 0.0
C752 C 0.84102 0.70388 0.89947 0.0
C753 C 0.8375 0.74396 0.91738 0.0
C754 C 0.89566 0.7714 0.878 0.0
C755 C 0.90372 0.73088 0.86363 0.0
N756 N 0.88915 0.65816 0.86346 0.0
N757 N 0.86858 0.81534 0.92832 0.0
C758 C 0.87799 0.69693 0.87528 0.0
C759 C 0.86683 0.7776 0.90801 0.0
N760 N 0.80721 0.67306 0.90377 0.0
N761 N 0.91318 0.80407 0.86179 0.0
H762 H 0.84791 0.822 0.95043 0.0
H763 H 0.8941 0.83927 0.92542 0.0
H764 H 0.93366 0.80141 0.83906 0.0
H765 H 0.90317 0.8337 0.86848 0.0
H766 H 0.80529 0.64394 0.88892 0.0
H767 H 0.77755 0.67809 0.91901 0.0
H768 H 0.87499 0.63235 0.87398 0.0
H769 H 0.91584 0.65217 0.84539 0.0
C770 C 0.28304 0.64471 0.65657 0.0
C771 C 0.31673 0.61431 0.65079 0.0
C772 C 0.33506 0.63968 0.59256 0.0
C773 C 0.29846 0.66755 0.59708 0.0
N774 N 0.22865 0.68884 0.62766 0.0
N775 N 0.36989 0.57879 0.61125 0.0
C776 C 0.27003 0.66803 0.62753 0.0
C777 C 0.34119 0.61047 0.61805 0.0
N778 N 0.26313 0.65155 0.68961 0.0
N779 N 0.3651 0.64217 0.56487 0.0
H780 H 0.37718 0.55809 0.63025 0.0
H781 H 0.38409 0.57159 0.58593 0.0
H782 H 0.36166 0.66323 0.54573 0.0
H783 H 0.39575 0.62558 0.56257 0.0
H784 H 0.24308 0.67651 0.69645 0.0
H785 H 0.26989 0.63488 0.71174 0.0
H786 H 0.20332 0.6863 0.64701 0.0
H787 H 0.21644 0.70501 0.60606 0.0
C788 C 0.29468 0.03563 0.36836 0.0
C789 C 0.31098 0.06301 0.34356 0.0
C790 C 0.35184 0.10895 0.39712 0.0
C791 C 0.34012 0.07945 0.42028 0.0
N792 N 0.28212 0.0268 0.43227 0.0
N793 N 0.36914 0.11914 0.33523 0.0
C794 C 0.30496 0.04696 0.40721 0.0
C795 C 0.34261 0.09853 0.35814 0.0
N796 N 0.27449 0.99716 0.3555 0.0
N797 N 0.37276 0.14644 0.41263 0.0
H798 H 0.37146 0.10809 0.30744 0.0
H799 H 0.39505 0.14343 0.345 0.0
H800 H 0.37836 0.15421 0.44152 0.0
H801 H 0.37889 0.17067 0.39726 0.0
H802 H 0.26663 0.97518 0.37289 0.0
H803 H 0.27134 0.98493 0.3278 0.0
H804 H 0.25303 0.00461 0.42468 0.0
H805 H 0.289 0.03606 0.46091 0.0
C806 C 0.8371 0.90225 0.02968 0.0
C807 C 0.85325 0.86228 0.02662 0.0
C808 C 0.93669 0.89069 0.02079 0.0
C809 C 0.92004 0.93061 0.02288 0.0
N810 N 0.85218 0.973 0.01958 0.0
N811 N 0.91615 0.81733 0.01198 0.0
C812 C 0.8695 0.93591 0.02425 0.0
C813 C 0.90243 0.85617 0.01997 0.0
N814 N 0.79138 0.90835 0.03956 0.0
N815 N 0.98549 0.88575 0.02084 0.0
H816 H 0.89228 0.79127 0.01121 0.0
H817 H 0.94971 0.81082 0.00263 0.0
H818 H 0.01109 0.90985 0.01937 0.0
H819 H 0.00094 0.85842 0.02449 0.0
H820 H 0.77934 0.93711 0.04698 0.0
H821 H 0.76689 0.88414 0.04309 0.0
H822 H 0.81504 0.97762 0.01648 0.0
H823 H 0.87462 0.9983 0.01507 0.0
C824 C 0.61196 0.17961 0.47513 0.0
C825 C 0.66176 0.1711 0.47372 0.0
C826 C 0.63929 0.09865 0.47905 0.0
C827 C 0.58908 0.10648 0.47691 0.0
N828 N 0.52692 0.15418 0.47066 0.0
N829 N 0.7223 0.12198 0.46945 0.0
C830 C 0.5753 0.14689 0.47426 0.0
C831 C 0.67536 0.13049 0.4746 0.0
N832 N 0.59981 0.21931 0.47905 0.0
N833 N 0.65251 0.06082 0.48558 0.0
H834 H 0.74924 0.14444 0.46582 0.0
H835 H 0.73369 0.0925 0.46585 0.0
H836 H 0.62698 0.03663 0.48774 0.0
H837 H 0.68863 0.05415 0.49154 0.0
H838 H 0.56536 0.22789 0.48483 0.0
H839 H 0.62528 0.24442 0.48047 0.0
H840 H 0.51404 0.18093 0.46232 0.0
H841 H 0.49912 0.13287 0.47485 0.0
C842 C 0.88111 0.43676 0.21868 0.0
C843 C 0.8303 0.42848 0.22167 0.0
C844 C 0.84158 0.35497 0.21602 0.0
C845 C 0.89307 0.36406 0.22047 0.0
N846 N 0.96231 0.41474 0.22971 0.0
N847 N 0.7613 0.37938 0.22207 0.0
C848 C 0.913 0.40512 0.22212 0.0
C849 C 0.81027 0.38741 0.21985 0.0
N850 N 0.89965 0.47468 0.21287 0.0
N851 N 0.82266 0.31535 0.20681 0.0
H852 H 0.73643 0.40179 0.22146 0.0
H853 H 0.7456 0.35084 0.22604 0.0
H854 H 0.84472 0.2912 0.20231 0.0
H855 H 0.78552 0.30683 0.1998 0.0
H856 H 0.93504 0.48039 0.2057 0.0
H857 H 0.87936 0.4999 0.21177 0.0
H858 H 0.97791 0.44457 0.23707 0.0
H859 H 0.98771 0.3931 0.23167 0.0
C860 C 0.06966 0.63966 0.48057 0.0
C861 C 0.09084 0.60146 0.47676 0.0
C862 C 0.16996 0.63777 0.46915 0.0
C863 C 0.14931 0.67597 0.47506 0.0
N864 N 0.08177 0.71358 0.49355 0.0
N865 N 0.16422 0.56546 0.4759 0.0
C866 C 0.09996 0.67694 0.48328 0.0
C867 C 0.14196 0.60095 0.47363 0.0
N868 N 0.02008 0.64048 0.47922 0.0
N869 N 0.21591 0.63636 0.45805 0.0
H870 H 0.14527 0.53796 0.47929 0.0
H871 H 0.20206 0.56406 0.47802 0.0
H872 H 0.23774 0.66253 0.45521 0.0
H873 H 0.23087 0.60929 0.44894 0.0
H874 H 0.00182 0.6669 0.47747 0.0
H875 H -0.00319 0.61407 0.47634 0.0
H876 H 0.04819 0.71615 0.50433 0.0
H877 H 0.10197 0.74152 0.49418 0.0
C878 C 0.65998 0.11648 0.73677 0.0
C879 C 0.68143 0.10838 0.77214 0.0
C880 C 0.63947 0.16417 0.80307 0.0
C881 C 0.61553 0.17011 0.76797 0.0
N882 N 0.59583 0.14689 0.70229 0.0
N883 N 0.68905 0.12178 0.83923 0.0
C884 C 0.62411 0.1451 0.73506 0.0
C885 C 0.67005 0.13119 0.80543 0.0
N886 N 0.67325 0.09662 0.70445 0.0
N887 N 0.63524 0.19149 0.83371 0.0
H888 H 0.71474 0.10028 0.84208 0.0
H889 H 0.6776 0.13374 0.86448 0.0
H890 H 0.61416 0.21646 0.83277 0.0
H891 H 0.65559 0.19159 0.85936 0.0
H892 H 0.6664 0.10688 0.67858 0.0
H893 H 0.69281 0.07076 0.70304 0.0
H894 H 0.59713 0.12711 0.67798 0.0
H895 H 0.56744 0.16581 0.69976 0.0
C896 C 0.86652 0.63704 0.14654 0.0
C897 C 0.82932 0.60484 0.1449 0.0
C898 C 0.79078 0.62291 0.0867 0.0
C899 C 0.82729 0.65592 0.08825 0.0
N900 N 0.90794 0.6858 0.11264 0.0
N901 N 0.77058 0.55691 0.1063 0.0
C902 C 0.86805 0.65998 0.11583 0.0
C903 C 0.79687 0.59412 0.1122 0.0
N904 N 0.89826 0.64747 0.17796 0.0
N905 N 0.74782 0.62101 0.06413 0.0
H906 H 0.7751 0.53503 0.12462 0.0
H907 H 0.74887 0.54635 0.08149 0.0
H908 H 0.73843 0.64325 0.04744 0.0
H909 H 0.7186 0.59957 0.06537 0.0
H910 H 0.92192 0.67396 0.18235 0.0
H911 H 0.89941 0.63068 0.20048 0.0
H912 H 0.94037 0.68758 0.13024 0.0
H913 H 0.91025 0.70229 0.08997 0.0
C914 C 0.86283 0.544 0.40762 0.0
C915 C 0.91227 0.53459 0.40472 0.0
C916 C 0.89791 0.53459 0.33651 0.0
C917 C 0.85041 0.54787 0.34006 0.0
N918 N 0.79075 0.5721 0.37985 0.0
N919 N 0.97937 0.53044 0.36632 0.0
C920 C 0.83397 0.55485 0.37594 0.0
C921 C 0.9304 0.53229 0.36909 0.0
N922 N 0.84214 0.54015 0.43989 0.0
N923 N 0.91209 0.52371 0.30191 0.0
H924 H 0.00495 0.53098 0.38931 0.0
H925 H 0.99535 0.53306 0.34175 0.0
H926 H 0.89046 0.52674 0.27744 0.0
H927 H 0.94356 0.50874 0.29751 0.0
H928 H 0.80495 0.54223 0.4423 0.0
H929 H 0.86076 0.53039 0.46308 0.0
H930 H 0.77911 0.58201 0.40562 0.0
H931 H 0.76848 0.57959 0.35722 0.0
C932 C 0.12173 0.4851 0.66046 0.0
C933 C 0.17277 0.48261 0.65803 0.0
C934 C 0.16012 0.49413 0.59209 0.0
C935 C 0.10841 0.49198 0.59347 0.0
N936 N 0.04029 0.47545 0.62777 0.0
N937 N 0.23907 0.47721 0.61951 0.0
C938 C 0.08934 0.48479 0.62739 0.0
C939 C 0.19153 0.4849 0.62321 0.0
N940 N 0.10403 0.489 0.69451 0.0
N941 N 0.17965 0.50698 0.56188 0.0
H942 H 0.26274 0.47012 0.64157 0.0
H943 H 0.25362 0.47438 0.59396 0.0
H944 H 0.15826 0.51546 0.5393 0.0
H945 H 0.21711 0.5132 0.56093 0.0
H946 H 0.06817 0.49565 0.69813 0.0
H947 H 0.12617 0.4899 0.71954 0.0
H948 H 0.02492 0.46583 0.65073 0.0
H949 H 0.01567 0.47269 0.60389 0.0
C950 C 0.6447 0.7845 0.15478 0.0
C951 C 0.63763 0.82503 0.16932 0.0
C952 C 0.6722 0.85064 0.11617 0.0
C953 C 0.67549 0.80948 0.10015 0.0
N954 N 0.6488 0.73805 0.09906 0.0
N955 N 0.63757 0.89645 0.16226 0.0
C956 C 0.65711 0.77661 0.11801 0.0
C957 C 0.64938 0.85811 0.14957 0.0
N958 N 0.63943 0.75338 0.17607 0.0
N959 N 0.69172 0.88258 0.10031 0.0
H960 H 0.62323 0.90313 0.18768 0.0
H961 H 0.63942 0.92099 0.14675 0.0
H962 H 0.7049 0.87907 0.07449 0.0
H963 H 0.69651 0.91253 0.1135 0.0
H964 H 0.6489 0.7239 0.1679 0.0
H965 H 0.63078 0.75808 0.20345 0.0
H966 H 0.63138 0.71371 0.10982 0.0
H967 H 0.65367 0.73152 0.07093 0.0
C968 C 0.65812 0.46921 0.13981 0.0
C969 C 0.65914 0.50153 0.16955 0.0
C970 C 0.61455 0.54107 0.12686 0.0
C971 C 0.60541 0.50668 0.09887 0.0
N972 N 0.61135 0.43365 0.08412 0.0
N973 N 0.61782 0.55984 0.19292 0.0
C974 C 0.62546 0.46941 0.10659 0.0
C975 C 0.63167 0.53521 0.16363 0.0
N976 N 0.68832 0.43845 0.14296 0.0
N977 N 0.60847 0.57977 0.11857 0.0
H978 H 0.62563 0.55455 0.22049 0.0
H979 H 0.5936 0.58234 0.18911 0.0
H980 H 0.60171 0.58645 0.09128 0.0
H981 H 0.61687 0.60541 0.13844 0.0
H982 H 0.69224 0.4162 0.12082 0.0
H983 H 0.71277 0.43753 0.16653 0.0
H984 H 0.62178 0.40542 0.09073 0.0
H985 H 0.58494 0.43122 0.06136 0.0
C986 C 0.35668 0.43357 0.99512 0.0
C987 C 0.40479 0.4414 0.0143 0.0
C988 C 0.40097 0.37014 0.02861 0.0
C989 C 0.35215 0.36354 0.01142 0.0
N990 N 0.29476 0.38265 0.9638 0.0
N991 N 0.46701 0.41888 0.05739 0.0
C992 C 0.33307 0.39341 0.99055 0.0
C993 C 0.42587 0.40998 0.03276 0.0
N994 N 0.33228 0.46452 0.982 0.0
N995 N 0.42489 0.33756 0.03865 0.0
H996 H 0.48404 0.44817 0.0647 0.0
H997 H 0.48085 0.39825 0.07446 0.0
H998 H 0.4091 0.30757 0.03322 0.0
H999 H 0.46216 0.33938 0.04755 0.0
H1000 H 0.29488 0.46147 0.97326 0.0
H1001 H 0.34823 0.4938 0.98111 0.0
H1002 H 0.28196 0.40209 0.94512 0.0
H1003 H 0.28106 0.35244 0.9564 0.0
C1004 C 0.07992 0.14768 0.22733 0.0
C1005 C 0.08222 0.17859 0.25824 0.0
C1006 C 0.14117 0.14189 0.2938 0.0
C1007 C 0.13761 0.11065 0.26318 0.0
N1008 N 0.09431 0.0778 0.20563 0.0
N1009 N 0.10813 0.20263 0.32288 0.0
C1010 C 0.10402 0.11174 0.23141 0.0
C1011 C 0.11043 0.17474 0.29227 0.0
N1012 N 0.05551 0.15288 0.19386 0.0
N1013 N 0.17556 0.14116 0.32338 0.0
H1014 H 0.08814 0.22831 0.32219 0.0
H1015 H 0.12361 0.19912 0.34947 0.0
H1016 H 0.19765 0.11695 0.32573 0.0
H1017 H 0.18411 0.16537 0.34459 0.0
H1018 H 0.05735 0.13349 0.16934 0.0
H1019 H 0.03622 0.17826 0.1897 0.0
H1020 H 0.06692 0.07519 0.18347 0.0
H1021 H 0.11009 0.05045 0.20882 0.0
C1022 C 0.14069 0.35172 0.86486 0.0
C1023 C 0.15878 0.36748 0.90181 0.0
C1024 C 0.17565 0.43503 0.88291 0.0
C1025 C 0.16787 0.41704 0.84513 0.0
N1026 N 0.13984 0.35895 0.7993 0.0
N1027 N 0.16788 0.42689 0.94774 0.0
C1028 C 0.1479 0.3759 0.83575 0.0
C1029 C 0.16827 0.41019 0.91157 0.0
N1030 N 0.11562 0.31403 0.85813 0.0
N1031 N 0.19167 0.47547 0.8912 0.0
H1032 H 0.15657 0.40971 0.96813 0.0
H1033 H 0.17224 0.45815 0.95664 0.0
H1034 H 0.19368 0.49514 0.87083 0.0
H1035 H 0.20437 0.48929 0.91792 0.0
H1036 H 0.09794 0.30167 0.83225 0.0
H1037 H 0.10781 0.2972 0.87974 0.0
H1038 H 0.13145 0.32782 0.791 0.0
H1039 H 0.14401 0.37556 0.77702 0.0
C1040 C 0.34271 0.18888 0.89471 0.0
C1041 C 0.34623 0.22815 0.9158 0.0
C1042 C 0.4039 0.25448 0.87582 0.0
C1043 C 0.40204 0.21501 0.8553 0.0
N1044 N 0.37609 0.1432 0.84762 0.0
N1045 N 0.39222 0.29329 0.9343 0.0
C1046 C 0.37337 0.18163 0.8655 0.0
C1047 C 0.38063 0.25939 0.90878 0.0
N1048 N 0.30926 0.15914 0.90194 0.0
N1049 N 0.42568 0.28782 0.86295 0.0
H1050 H 0.37804 0.29652 0.95994 0.0
H1051 H 0.42017 0.31552 0.93212 0.0
H1052 H 0.44194 0.28635 0.83812 0.0
H1053 H 0.4233 0.31775 0.87501 0.0
H1054 H 0.30067 0.13145 0.88495 0.0
H1055 H 0.28855 0.16289 0.9245 0.0
H1056 H 0.35969 0.11688 0.85588 0.0
H1057 H 0.39771 0.13734 0.82579 0.0
C1058 C 0.37909 0.49936 0.89135 0.0
C1059 C 0.4019 0.53713 0.91074 0.0
C1060 C 0.36165 0.57237 0.86118 0.0
C1061 C 0.34704 0.53434 0.83898 0.0
N1062 N 0.34682 0.46094 0.83258 0.0
N1063 N 0.41906 0.60979 0.90994 0.0
C1064 C 0.35641 0.4977 0.85422 0.0
C1065 C 0.39371 0.57383 0.89483 0.0
N1066 N 0.37859 0.46458 0.90832 0.0
N1067 N 0.34422 0.60734 0.85034 0.0
H1068 H 0.44419 0.61229 0.93339 0.0
H1069 H 0.41874 0.63634 0.89705 0.0
H1070 H 0.31974 0.60721 0.82656 0.0
H1071 H 0.3496 0.6355 0.86701 0.0
H1072 H 0.35705 0.43787 0.89759 0.0
H1073 H 0.39578 0.46318 0.93477 0.0
H1074 H 0.35952 0.43372 0.84002 0.0
H1075 H 0.32965 0.45822 0.80578 0.0
C1076 C 0.6738 0.64349 0.97943 0.0
C1077 C 0.65577 0.68272 0.985 0.0
C1078 C 0.57294 0.65036 0.98708 0.0
C1079 C 0.59132 0.61112 0.98253 0.0
N1080 N 0.66158 0.57124 0.98517 0.0
N1081 N 0.59036 0.7239 0.00181 0.0
C1082 C 0.64248 0.60794 0.98186 0.0
C1083 C 0.60596 0.68626 0.99124 0.0
N1084 N 0.72068 0.64002 0.9709 0.0
N1085 N 0.52367 0.65336 0.98609 0.0
H1086 H 0.61326 0.75082 0.00474 0.0
H1087 H 0.55607 0.72823 0.01084 0.0
H1088 H 0.49897 0.62782 0.98443 0.0
H1089 H 0.50713 0.68063 0.98468 0.0
H1090 H 0.73427 0.61228 0.96191 0.0
H1091 H 0.74518 0.6654 0.97084 0.0
H1092 H 0.69903 0.56792 0.98874 0.0
H1093 H 0.64024 0.54481 0.98836 0.0
C1094 C 0.90211 0.86478 0.69873 0.0
C1095 C 0.89948 0.83252 0.72124 0.0
C1096 C 0.83906 0.86569 0.75572 0.0
C1097 C 0.84022 0.89859 0.73343 0.0
N1098 N 0.85733 0.91644 0.67235 0.0
N1099 N 0.84428 0.79297 0.7534 0.0
C1100 C 0.86701 0.89442 0.70139 0.0
C1101 C 0.86004 0.82966 0.74314 0.0
N1102 N 0.93712 0.86777 0.67479 0.0
N1103 N 0.82281 0.86892 0.79028 0.0
H1104 H 0.85825 0.76573 0.74316 0.0
H1105 H 0.81381 0.78954 0.76817 0.0
H1106 H 0.81503 0.89602 0.80519 0.0
H1107 H 0.82485 0.84532 0.80696 0.0
H1108 H 0.9448 0.89438 0.66284 0.0
H1109 H 0.95798 0.84404 0.6664 0.0
H1110 H 0.8735 0.91163 0.64754 0.0
H1111 H 0.82852 0.93506 0.67037 0.0
C1112 C 0.47813 0.18979 0.6274 0.0
C1113 C 0.47399 0.17704 0.66302 0.0
C1114 C 0.46693 0.1051 0.63399 0.0
C1115 C 0.47604 0.11776 0.59902 0.0
N1116 N 0.50098 0.1727 0.56492 0.0
N1117 N 0.47406 0.12194 0.70118 0.0
C1118 C 0.48438 0.16032 0.59635 0.0
C1119 C 0.47103 0.13449 0.66656 0.0
N1120 N 0.47496 0.23003 0.62293 0.0
N1121 N 0.45247 0.06506 0.63598 0.0
H1122 H 0.4777 0.14219 0.72574 0.0
H1123 H 0.47801 0.09172 0.70567 0.0
H1124 H 0.44767 0.04285 0.61276 0.0
H1125 H 0.44046 0.05468 0.6598 0.0
H1126 H 0.47293 0.24071 0.59703 0.0
H1127 H 0.4698 0.25216 0.64487 0.0
H1128 H 0.51271 0.20291 0.56276 0.0
H1129 H 0.50782 0.15217 0.54235 0.0
C1130 C 0.54856 0.32475 0.87222 0.0
C1131 C 0.55485 0.3383 0.83718 0.0
C1132 C 0.56413 0.40977 0.86751 0.0
C1133 C 0.55325 0.39629 0.90189 0.0
N1134 N 0.52895 0.34112 0.93584 0.0
N1135 N 0.56198 0.39425 0.80035 0.0
C1136 C 0.54346 0.35381 0.90382 0.0
C1137 C 0.56138 0.38097 0.83462 0.0
N1138 N 0.54961 0.2841 0.87569 0.0
N1139 N 0.57625 0.45033 0.86591 0.0
H1140 H 0.55868 0.3746 0.77546 0.0
H1141 H 0.56058 0.42473 0.79595 0.0
H1142 H 0.57386 0.47326 0.88776 0.0
H1143 H 0.59143 0.46127 0.84346 0.0
H1144 H 0.54991 0.27233 0.90105 0.0
H1145 H 0.55479 0.26243 0.85345 0.0
H1146 H 0.51554 0.31126 0.93767 0.0
H1147 H 0.52739 0.36107 0.96012 0.0
C1148 C 0.48532 0.88045 0.3695 0.0
C1149 C 0.52663 0.88132 0.34878 0.0
C1150 C 0.56089 0.94319 0.39144 0.0
C1151 C 0.52091 0.93987 0.4133 0.0
N1152 N 0.45625 0.89463 0.42959 0.0
N1153 N 0.61011 0.9084 0.34731 0.0
C1154 C 0.48657 0.90531 0.40425 0.0
C1155 C 0.56639 0.91124 0.36196 0.0
N1156 N 0.44311 0.85799 0.35535 0.0
N1157 N 0.59282 0.97735 0.39787 0.0
H1158 H 0.61644 0.88435 0.32749 0.0
H1159 H 0.64156 0.92707 0.35786 0.0
H1160 H 0.58999 1.00107 0.41902 0.0
H1161 H 0.61954 0.98359 0.38038 0.0
H1162 H 0.41042 0.85988 0.36762 0.0
H1163 H 0.43966 0.84105 0.32947 0.0
H1164 H 0.43376 0.86743 0.42577 0.0
H1165 H 0.45892 0.91005 0.45628 0.0
C1166 C 0.48751 0.69204 0.11469 0.0
C1167 C 0.46355 0.65227 0.11447 0.0
C1168 C 0.44757 0.67179 0.17939 0.0
C1169 C 0.46516 0.7129 0.17779 0.0
N1170 N 0.48947 0.76365 0.1393 0.0
N1171 N 0.40687 0.61046 0.14405 0.0
C1172 C 0.48143 0.72352 0.14403 0.0
C1173 C 0.43943 0.64395 0.14605 0.0
N1174 N 0.51815 0.69972 0.08843 0.0
N1175 N 0.44025 0.65852 0.21278 0.0
H1176 H 0.39595 0.5913 0.11934 0.0
H1177 H 0.3858 0.60508 0.16564 0.0
H1178 H 0.44865 0.67701 0.23816 0.0
H1179 H 0.43151 0.62786 0.21542 0.0
H1180 H 0.53925 0.72736 0.08965 0.0
H1181 H 0.52713 0.6774 0.06811 0.0
H1182 H 0.49781 0.7732 0.11412 0.0
H1183 H 0.48169 0.78712 0.1591 0.0
loop_
_geom_bond_atom_site_label_1
_geom_bond_atom_site_label_2
_geom_bond_distance
_geom_bond_site_symmetry_2
_ccdc_geom_bond_type
Tb0 O3 2.453 1_565 S
Tb0 O4 2.596 1_566 S
Tb0 O5 2.374 1_556 S
Tb0 O13 2.343 1_455 S
Tb0 O15 2.353 1_465 S
Tb0 O17 2.427 . S
Tb0 O18 2.513 . S
C1 O5 1.251 . S
C1 O7 1.263 1_565 S
Tb2 O4 2.343 1_655 S
Tb2 O7 2.353 1_655 S
Tb2 O10 2.427 . S
Tb2 O11 2.513 . S
Tb2 O12 2.453 1_545 S
Tb2 O13 2.596 1_544 S
Tb2 O14 2.374 1_554 S
O3 Tb0 2.453 1_545 S
O3 C19 1.245 1_556 S
O4 Tb0 2.596 1_544 S
O4 Tb2 2.343 1_455 S
O4 C19 1.259 . S
O5 Tb0 2.374 1_554 S
O5 C1 1.251 . S
C6 O10 1.275 . S
C6 O11 1.246 . S
O7 C1 1.263 1_545 S
O7 Tb2 2.353 1_455 S
C8 O12 1.245 . S
C8 O13 1.259 1_554 S
C9 O14 1.250 . S
C9 O15 1.263 . S
O10 Tb2 2.427 . S
O10 C6 1.275 . S
O11 Tb2 2.513 . S
O11 C6 1.246 . S
O12 Tb2 2.453 1_565 S
O12 C8 1.245 . S
O13 Tb0 2.343 1_655 S
O13 Tb2 2.596 1_566 S
O13 C8 1.259 1_556 S
O14 Tb2 2.374 1_556 S
O14 C9 1.250 . S
O15 Tb0 2.353 1_645 S
O15 C9 1.263 . S
C16 O17 1.275 . S
C16 O18 1.246 . S
O17 Tb0 2.427 . S
O17 C16 1.275 . S
O18 Tb0 2.513 . S
O18 C16 1.246 . S
C19 O3 1.245 1_554 S
C19 O4 1.259 . S
Tb20 O23 2.453 . S
Tb20 O24 2.596 1_655 S
Tb20 O25 2.374 1_655 S
Tb20 O33 2.343 1_655 S
Tb20 O35 2.353 . S
Tb20 O37 2.427 . S
Tb20 O38 2.513 . S
C21 O25 1.251 . S
C21 O27 1.263 . S
Tb22 O24 2.343 . S
Tb22 O27 2.353 . S
Tb22 O30 2.427 . S
Tb22 O31 2.513 . S
Tb22 O32 2.453 . S
Tb22 O33 2.596 . S
Tb22 O34 2.374 1_455 S
O23 Tb20 2.453 . S
O23 C39 1.245 . S
O24 Tb20 2.596 1_455 S
O24 Tb22 2.343 . S
O24 C39 1.259 1_455 S
O25 Tb20 2.374 1_455 S
O25 C21 1.251 . S
C26 O30 1.275 . S
C26 O31 1.246 . S
O27 C21 1.263 . S
O27 Tb22 2.353 . S
C28 O32 1.245 . S
C28 O33 1.259 . S
C29 O34 1.250 . S
C29 O35 1.263 . S
O30 Tb22 2.427 . S
O30 C26 1.275 . S
O31 Tb22 2.513 . S
O31 C26 1.246 . S
O32 Tb22 2.453 . S
O32 C28 1.245 . S
O33 Tb20 2.343 1_455 S
O33 Tb22 2.596 . S
O33 C28 1.259 . S
O34 Tb22 2.374 1_655 S
O34 C29 1.250 . S
O35 Tb20 2.353 . S
O35 C29 1.263 . S
C36 O37 1.275 . S
C36 O38 1.246 . S
O37 Tb20 2.427 . S
O37 C36 1.275 . S
O38 Tb20 2.513 . S
O38 C36 1.246 . S
C39 O23 1.245 . S
C39 O24 1.259 1_655 S
Tb40 O43 2.453 . S
Tb40 O44 2.596 . S
Tb40 O45 2.374 . S
Tb40 O53 2.343 . S
Tb40 O55 2.353 . S
Tb40 O57 2.427 . S
Tb40 O58 2.513 . S
C41 O45 1.251 . S
C41 O47 1.263 . S
Tb42 O44 2.343 . S
Tb42 O47 2.353 . S
Tb42 O50 2.427 . S
Tb42 O51 2.513 . S
Tb42 O52 2.453 . S
Tb42 O53 2.596 . S
Tb42 O54 2.374 . S
O43 Tb40 2.453 . S
O43 C59 1.245 . S
O44 Tb40 2.596 . S
O44 Tb42 2.343 . S
O44 C59 1.259 . S
O45 Tb40 2.374 . S
O45 C41 1.251 . S
C46 O50 1.275 . S
C46 O51 1.246 . S
O47 C41 1.263 . S
O47 Tb42 2.353 . S
C48 O52 1.245 . S
C48 O53 1.259 . S
C49 O54 1.250 . S
C49 O55 1.263 . S
O50 Tb42 2.427 . S
O50 C46 1.275 . S
O51 Tb42 2.513 . S
O51 C46 1.246 . S
O52 Tb42 2.453 . S
O52 C48 1.245 . S
O53 Tb40 2.343 . S
O53 Tb42 2.596 . S
O53 C48 1.259 . S
O54 Tb42 2.374 . S
O54 C49 1.250 . S
O55 Tb40 2.353 . S
O55 C49 1.263 . S
C56 O57 1.275 . S
C56 O58 1.246 . S
O57 Tb40 2.427 . S
O57 C56 1.275 . S
O58 Tb40 2.513 . S
O58 C56 1.246 . S
C59 O43 1.245 . S
C59 O44 1.259 . S
Tb60 O63 2.453 . S
Tb60 O64 2.596 . S
Tb60 O65 2.374 . S
Tb60 O73 2.343 . S
Tb60 O75 2.353 . S
Tb60 O77 2.427 . S
Tb60 O78 2.513 . S
C61 O65 1.251 1_565 S
C61 O67 1.263 . S
Tb62 O64 2.343 1_565 S
Tb62 O67 2.353 . S
Tb62 O70 2.427 . S
Tb62 O71 2.513 . S
Tb62 O72 2.453 . S
Tb62 O73 2.596 1_565 S
Tb62 O74 2.374 1_565 S
O63 Tb60 2.453 . S
O63 C79 1.245 . S
O64 Tb60 2.596 . S
O64 Tb62 2.343 1_545 S
O64 C79 1.259 . S
O65 Tb60 2.374 . S
O65 C61 1.251 1_545 S
C66 O70 1.275 . S
C66 O71 1.246 . S
O67 C61 1.263 . S
O67 Tb62 2.353 . S
C68 O72 1.245 1_545 S
C68 O73 1.259 . S
C69 O74 1.250 . S
C69 O75 1.263 . S
O70 Tb62 2.427 . S
O70 C66 1.275 . S
O71 Tb62 2.513 . S
O71 C66 1.246 . S
O72 Tb62 2.453 . S
O72 C68 1.245 1_565 S
O73 Tb60 2.343 . S
O73 Tb62 2.596 1_545 S
O73 C68 1.259 . S
O74 Tb62 2.374 1_545 S
O74 C69 1.250 . S
O75 Tb60 2.353 . S
O75 C69 1.263 . S
C76 O77 1.275 . S
C76 O78 1.246 . S
O77 Tb60 2.427 . S
O77 C76 1.275 . S
O78 Tb60 2.513 . S
O78 C76 1.246 . S
C79 O63 1.245 . S
C79 O64 1.259 . S
Tb80 O83 2.453 . S
Tb80 O84 2.596 . S
Tb80 O85 2.374 . S
Tb80 O93 2.343 . S
Tb80 O95 2.353 . S
Tb80 O97 2.427 . S
Tb80 O98 2.513 . S
C81 O85 1.251 . S
C81 O87 1.263 . S
Tb82 O84 2.343 . S
Tb82 O87 2.353 . S
Tb82 O90 2.427 . S
Tb82 O91 2.513 . S
Tb82 O92 2.453 . S
Tb82 O93 2.596 . S
Tb82 O94 2.374 . S
O83 Tb80 2.453 . S
O83 C99 1.245 . S
O84 Tb80 2.596 . S
O84 Tb82 2.343 . S
O84 C99 1.259 . S
O85 Tb80 2.374 . S
O85 C81 1.251 . S
C86 O90 1.275 . S
C86 O91 1.246 . S
O87 C81 1.263 . S
O87 Tb82 2.353 . S
C88 O92 1.245 . S
C88 O93 1.259 . S
C89 O94 1.250 . S
C89 O95 1.263 . S
O90 Tb82 2.427 . S
O90 C86 1.275 . S
O91 Tb82 2.513 . S
O91 C86 1.246 . S
O92 Tb82 2.453 . S
O92 C88 1.245 . S
O93 Tb80 2.343 . S
O93 Tb82 2.596 . S
O93 C88 1.259 . S
O94 Tb82 2.374 . S
O94 C89 1.250 . S
O95 Tb80 2.353 . S
O95 C89 1.263 . S
C96 O97 1.275 . S
C96 O98 1.246 . S
O97 Tb80 2.427 . S
O97 C96 1.275 . S
O98 Tb80 2.513 . S
O98 C96 1.246 . S
C99 O83 1.245 . S
C99 O84 1.259 . S
Tb100 O103 2.453 . S
Tb100 O104 2.596 . S
Tb100 O105 2.374 . S
Tb100 O113 2.343 . S
Tb100 O115 2.353 . S
Tb100 O117 2.427 . S
Tb100 O118 2.513 . S
C101 O105 1.251 . S
C101 O107 1.263 . S
Tb102 O104 2.343 . S
Tb102 O107 2.353 . S
Tb102 O110 2.427 . S
Tb102 O111 2.513 . S
Tb102 O112 2.453 . S
Tb102 O113 2.596 . S
Tb102 O114 2.374 . S
O103 Tb100 2.453 . S
O103 C119 1.245 . S
O104 Tb100 2.596 . S
O104 Tb102 2.343 . S
O104 C119 1.259 . S
O105 Tb100 2.374 . S
O105 C101 1.251 . S
C106 O110 1.275 . S
C106 O111 1.246 . S
O107 C101 1.263 . S
O107 Tb102 2.353 . S
C108 O112 1.245 . S
C108 O113 1.259 . S
C109 O114 1.250 . S
C109 O115 1.263 . S
O110 Tb102 2.427 . S
O110 C106 1.275 . S
O111 Tb102 2.513 . S
O111 C106 1.246 . S
O112 Tb102 2.453 . S
O112 C108 1.245 . S
O113 Tb100 2.343 . S
O113 Tb102 2.596 . S
O113 C108 1.259 . S
O114 Tb102 2.374 . S
O114 C109 1.250 . S
O115 Tb100 2.353 . S
O115 C109 1.263 . S
C116 O117 1.275 . S
C116 O118 1.246 . S
O117 Tb100 2.427 . S
O117 C116 1.275 . S
O118 Tb100 2.513 . S
O118 C116 1.246 . S
C119 O103 1.245 . S
C119 O104 1.259 . S
Tb120 O123 2.453 . S
Tb120 O124 2.596 . S
Tb120 O125 2.374 . S
Tb120 O133 2.343 . S
Tb120 O135 2.353 . S
Tb120 O137 2.427 . S
Tb120 O138 2.513 . S
C121 O125 1.251 . S
C121 O127 1.263 . S
Tb122 O124 2.343 . S
Tb122 O127 2.353 . S
Tb122 O130 2.427 . S
Tb122 O131 2.513 . S
Tb122 O132 2.453 . S
Tb122 O133 2.596 . S
Tb122 O134 2.374 . S
O123 Tb120 2.453 . S
O123 C139 1.245 . S
O124 Tb120 2.596 . S
O124 Tb122 2.343 . S
O124 C139 1.259 . S
O125 Tb120 2.374 . S
O125 C121 1.251 . S
C126 O130 1.275 . S
C126 O131 1.246 . S
O127 C121 1.263 . S
O127 Tb122 2.353 . S
C128 O132 1.245 . S
C128 O133 1.259 . S
C129 O134 1.250 . S
C129 O135 1.263 . S
O130 Tb122 2.427 . S
O130 C126 1.275 . S
O131 Tb122 2.513 . S
O131 C126 1.246 . S
O132 Tb122 2.453 . S
O132 C128 1.245 . S
O133 Tb120 2.343 . S
O133 Tb122 2.596 . S
O133 C128 1.259 . S
O134 Tb122 2.374 . S
O134 C129 1.250 . S
O135 Tb120 2.353 . S
O135 C129 1.263 . S
C136 O137 1.275 . S
C136 O138 1.246 . S
O137 Tb120 2.427 . S
O137 C136 1.275 . S
O138 Tb120 2.513 . S
O138 C136 1.246 . S
C139 O123 1.245 . S
C139 O124 1.259 . S
Tb140 O143 2.453 . S
Tb140 O144 2.596 . S
Tb140 O145 2.374 . S
Tb140 O153 2.343 1_455 S
Tb140 O155 2.353 1_455 S
Tb140 O157 2.427 . S
Tb140 O158 2.513 . S
C141 O145 1.251 . S
C141 O147 1.263 . S
Tb142 O144 2.343 1_655 S
Tb142 O147 2.353 1_655 S
Tb142 O150 2.427 . S
Tb142 O151 2.513 . S
Tb142 O152 2.453 . S
Tb142 O153 2.596 . S
Tb142 O154 2.374 . S
O143 Tb140 2.453 . S
O143 C159 1.245 . S
O144 Tb140 2.596 . S
O144 Tb142 2.343 1_455 S
O144 C159 1.259 . S
O145 Tb140 2.374 . S
O145 C141 1.251 . S
C146 O150 1.275 . S
C146 O151 1.246 . S
O147 C141 1.263 . S
O147 Tb142 2.353 1_455 S
C148 O152 1.245 . S
C148 O153 1.259 . S
C149 O154 1.250 . S
C149 O155 1.263 . S
O150 Tb142 2.427 . S
O150 C146 1.275 . S
O151 Tb142 2.513 . S
O151 C146 1.246 . S
O152 Tb142 2.453 . S
O152 C148 1.245 . S
O153 Tb140 2.343 1_655 S
O153 Tb142 2.596 . S
O153 C148 1.259 . S
O154 Tb142 2.374 . S
O154 C149 1.250 . S
O155 Tb140 2.353 1_655 S
O155 C149 1.263 . S
C156 O157 1.275 . S
C156 O158 1.246 . S
O157 Tb140 2.427 . S
O157 C156 1.275 . S
O158 Tb140 2.513 . S
O158 C156 1.246 . S
C159 O143 1.245 . S
C159 O144 1.259 . S
Tb160 O163 2.453 . S
Tb160 O164 2.596 1_556 S
Tb160 O165 2.374 1_556 S
Tb160 O173 2.343 . S
Tb160 O175 2.353 . S
Tb160 O177 2.427 . S
Tb160 O178 2.513 . S
C161 O165 1.251 . S
C161 O167 1.263 . S
Tb162 O164 2.343 . S
Tb162 O167 2.353 . S
Tb162 O170 2.427 . S
Tb162 O171 2.513 . S
Tb162 O172 2.453 . S
Tb162 O173 2.596 1_554 S
Tb162 O174 2.374 1_554 S
O163 Tb160 2.453 . S
O163 C179 1.245 . S
O164 Tb160 2.596 1_554 S
O164 Tb162 2.343 . S
O164 C179 1.259 1_554 S
O165 Tb160 2.374 1_554 S
O165 C161 1.251 . S
C166 O170 1.275 . S
C166 O171 1.246 . S
O167 C161 1.263 . S
O167 Tb162 2.353 . S
C168 O172 1.245 . S
C168 O173 1.259 1_554 S
C169 O174 1.250 . S
C169 O175 1.263 . S
O170 Tb162 2.427 . S
O170 C166 1.275 . S
O171 Tb162 2.513 . S
O171 C166 1.246 . S
O172 Tb162 2.453 . S
O172 C168 1.245 . S
O173 Tb160 2.343 . S
O173 Tb162 2.596 1_556 S
O173 C168 1.259 1_556 S
O174 Tb162 2.374 1_556 S
O174 C169 1.250 . S
O175 Tb160 2.353 . S
O175 C169 1.263 . S
C176 O177 1.275 . S
C176 O178 1.246 . S
O177 Tb160 2.427 . S
O177 C176 1.275 . S
O178 Tb160 2.513 . S
O178 C176 1.246 . S
C179 O163 1.245 . S
C179 O164 1.259 1_556 S
Tb180 O183 2.453 . S
Tb180 O184 2.596 . S
Tb180 O185 2.374 1_545 S
Tb180 O193 2.343 . S
Tb180 O195 2.353 . S
Tb180 O197 2.427 . S
Tb180 O198 2.513 . S
C181 O185 1.251 . S
C181 O187 1.263 . S
Tb182 O184 2.343 1_565 S
Tb182 O187 2.353 . S
Tb182 O190 2.427 . S
Tb182 O191 2.513 . S
Tb182 O192 2.453 . S
Tb182 O193 2.596 1_565 S
Tb182 O194 2.374 1_565 S
O183 Tb180 2.453 . S
O183 C199 1.245 . S
O184 Tb180 2.596 . S
O184 Tb182 2.343 1_545 S
O184 C199 1.259 . S
O185 Tb180 2.374 1_565 S
O185 C181 1.251 . S
C186 O190 1.275 . S
C186 O191 1.246 . S
O187 C181 1.263 . S
O187 Tb182 2.353 . S
C188 O192 1.245 . S
C188 O193 1.259 1_565 S
C189 O194 1.250 . S
C189 O195 1.263 . S
O190 Tb182 2.427 . S
O190 C186 1.275 . S
O191 Tb182 2.513 . S
O191 C186 1.246 . S
O192 Tb182 2.453 . S
O192 C188 1.245 . S
O193 Tb180 2.343 . S
O193 Tb182 2.596 1_545 S
O193 C188 1.259 1_545 S
O194 Tb182 2.374 1_545 S
O194 C189 1.250 . S
O195 Tb180 2.353 . S
O195 C189 1.263 . S
C196 O197 1.275 . S
C196 O198 1.246 . S
O197 Tb180 2.427 . S
O197 C196 1.275 . S
O198 Tb180 2.513 . S
O198 C196 1.246 . S
C199 O183 1.245 . S
C199 O184 1.259 . S
Tb200 O203 2.453 . S
Tb200 O204 2.596 . S
Tb200 O205 2.374 . S
Tb200 O213 2.343 . S
Tb200 O215 2.353 . S
Tb200 O217 2.427 . S
Tb200 O218 2.513 . S
C201 O205 1.251 . S
C201 O207 1.263 . S
Tb202 O204 2.343 . S
Tb202 O207 2.353 . S
Tb202 O210 2.427 . S
Tb202 O211 2.513 . S
Tb202 O212 2.453 . S
Tb202 O213 2.596 . S
Tb202 O214 2.374 . S
O203 Tb200 2.453 . S
O203 C219 1.245 . S
O204 Tb200 2.596 . S
O204 Tb202 2.343 . S
O204 C219 1.259 . S
O205 Tb200 2.374 . S
O205 C201 1.251 . S
C206 O210 1.275 . S
C206 O211 1.246 . S
O207 C201 1.263 . S
O207 Tb202 2.353 . S
C208 O212 1.245 . S
C208 O213 1.259 . S
C209 O214 1.250 . S
C209 O215 1.263 . S
O210 Tb202 2.427 . S
O210 C206 1.275 . S
O211 Tb202 2.513 . S
O211 C206 1.246 . S
O212 Tb202 2.453 . S
O212 C208 1.245 . S
O213 Tb200 2.343 . S
O213 Tb202 2.596 . S
O213 C208 1.259 . S
O214 Tb202 2.374 . S
O214 C209 1.250 . S
O215 Tb200 2.353 . S
O215 C209 1.263 . S
C216 O217 1.275 . S
C216 O218 1.246 . S
O217 Tb200 2.427 . S
O217 C216 1.275 . S
O218 Tb200 2.513 . S
O218 C216 1.246 . S
C219 O203 1.245 . S
C219 O204 1.259 . S
Tb220 O223 2.453 . S
Tb220 O224 2.596 1_655 S
Tb220 O225 2.374 1_655 S
Tb220 O233 2.343 1_655 S
Tb220 O235 2.353 . S
Tb220 O237 2.427 . S
Tb220 O238 2.513 . S
C221 O225 1.251 . S
C221 O227 1.263 . S
Tb222 O224 2.343 . S
Tb222 O227 2.353 . S
Tb222 O230 2.427 . S
Tb222 O231 2.513 . S
Tb222 O232 2.453 . S
Tb222 O233 2.596 . S
Tb222 O234 2.374 1_455 S
O223 Tb220 2.453 . S
O223 C239 1.245 . S
O224 Tb220 2.596 1_455 S
O224 Tb222 2.343 . S
O224 C239 1.259 1_455 S
O225 Tb220 2.374 1_455 S
O225 C221 1.251 . S
C226 O230 1.275 . S
C226 O231 1.246 . S
O227 C221 1.263 . S
O227 Tb222 2.353 . S
C228 O232 1.245 . S
C228 O233 1.259 . S
C229 O234 1.250 . S
C229 O235 1.263 . S
O230 Tb222 2.427 . S
O230 C226 1.275 . S
O231 Tb222 2.513 . S
O231 C226 1.246 . S
O232 Tb222 2.453 . S
O232 C228 1.245 . S
O233 Tb220 2.343 1_455 S
O233 Tb222 2.596 . S
O233 C228 1.259 . S
O234 Tb222 2.374 1_655 S
O234 C229 1.250 . S
O235 Tb220 2.353 . S
O235 C229 1.263 . S
C236 O237 1.275 . S
C236 O238 1.246 . S
O237 Tb220 2.427 . S
O237 C236 1.275 . S
O238 Tb220 2.513 . S
O238 C236 1.246 . S
C239 O223 1.245 . S
C239 O224 1.259 1_655 S
Tb240 O243 2.453 . S
Tb240 O244 2.596 . S
Tb240 O245 2.374 . S
Tb240 O253 2.343 . S
Tb240 O255 2.353 . S
Tb240 O257 2.427 . S
Tb240 O258 2.513 . S
C241 O245 1.251 . S
C241 O247 1.263 . S
Tb242 O244 2.343 . S
Tb242 O247 2.353 . S
Tb242 O250 2.427 . S
Tb242 O251 2.513 . S
Tb242 O252 2.453 . S
Tb242 O253 2.596 . S
Tb242 O254 2.374 . S
O243 Tb240 2.453 . S
O243 C259 1.245 . S
O244 Tb240 2.596 . S
O244 Tb242 2.343 . S
O244 C259 1.259 . S
O245 Tb240 2.374 . S
O245 C241 1.251 . S
C246 O250 1.275 . S
C246 O251 1.246 . S
O247 C241 1.263 . S
O247 Tb242 2.353 . S
C248 O252 1.245 . S
C248 O253 1.259 . S
C249 O254 1.250 . S
C249 O255 1.263 . S
O250 Tb242 2.427 . S
O250 C246 1.275 . S
O251 Tb242 2.513 . S
O251 C246 1.246 . S
O252 Tb242 2.453 . S
O252 C248 1.245 . S
O253 Tb240 2.343 . S
O253 Tb242 2.596 . S
O253 C248 1.259 . S
O254 Tb242 2.374 . S
O254 C249 1.250 . S
O255 Tb240 2.353 . S
O255 C249 1.263 . S
C256 O257 1.275 . S
C256 O258 1.246 . S
O257 Tb240 2.427 . S
O257 C256 1.275 . S
O258 Tb240 2.513 . S
O258 C256 1.246 . S
C259 O243 1.245 . S
C259 O244 1.259 . S
Tb260 O263 2.453 . S
Tb260 O264 2.596 1_556 S
Tb260 O265 2.374 1_556 S
Tb260 O273 2.343 1_556 S
Tb260 O275 2.353 . S
Tb260 O277 2.427 . S
Tb260 O278 2.513 . S
C261 O265 1.251 . S
C261 O267 1.263 . S
Tb262 O264 2.343 . S
Tb262 O267 2.353 . S
Tb262 O270 2.427 . S
Tb262 O271 2.513 . S
Tb262 O272 2.453 . S
Tb262 O273 2.596 . S
Tb262 O274 2.374 1_554 S
O263 Tb260 2.453 . S
O263 C279 1.245 . S
O264 Tb260 2.596 1_554 S
O264 Tb262 2.343 . S
O264 C279 1.259 1_554 S
O265 Tb260 2.374 1_554 S
O265 C261 1.251 . S
C266 O270 1.275 . S
C266 O271 1.246 . S
O267 C261 1.263 . S
O267 Tb262 2.353 . S
C268 O272 1.245 . S
C268 O273 1.259 . S
C269 O274 1.250 . S
C269 O275 1.263 . S
O270 Tb262 2.427 . S
O270 C266 1.275 . S
O271 Tb262 2.513 . S
O271 C266 1.246 . S
O272 Tb262 2.453 . S
O272 C268 1.245 . S
O273 Tb260 2.343 1_554 S
O273 Tb262 2.596 . S
O273 C268 1.259 . S
O274 Tb262 2.374 1_556 S
O274 C269 1.250 . S
O275 Tb260 2.353 . S
O275 C269 1.263 . S
C276 O277 1.275 . S
C276 O278 1.246 . S
O277 Tb260 2.427 . S
O277 C276 1.275 . S
O278 Tb260 2.513 . S
O278 C276 1.246 . S
C279 O263 1.245 . S
C279 O264 1.259 1_556 S
Tb280 O283 2.453 . S
Tb280 O284 2.596 . S
Tb280 O285 2.374 . S
Tb280 O293 2.343 1_565 S
Tb280 O295 2.353 1_565 S
Tb280 O297 2.427 1_565 S
Tb280 O298 2.513 . S
C281 O285 1.251 . S
C281 O287 1.263 . S
Tb282 O284 2.343 1_545 S
Tb282 O287 2.353 1_545 S
Tb282 O290 2.427 . S
Tb282 O291 2.513 . S
Tb282 O292 2.453 . S
Tb282 O293 2.596 . S
Tb282 O294 2.374 . S
O283 Tb280 2.453 . S
O283 C299 1.245 . S
O284 Tb280 2.596 . S
O284 Tb282 2.343 1_565 S
O284 C299 1.259 . S
O285 Tb280 2.374 . S
O285 C281 1.251 . S
C286 O290 1.275 . S
C286 O291 1.246 . S
O287 C281 1.263 . S
O287 Tb282 2.353 1_565 S
C288 O292 1.245 . S
C288 O293 1.259 . S
C289 O294 1.250 . S
C289 O295 1.263 . S
O290 Tb282 2.427 . S
O290 C286 1.275 . S
O291 Tb282 2.513 . S
O291 C286 1.246 . S
O292 Tb282 2.453 . S
O292 C288 1.245 . S
O293 Tb280 2.343 1_545 S
O293 Tb282 2.596 . S
O293 C288 1.259 . S
O294 Tb282 2.374 . S
O294 C289 1.250 . S
O295 Tb280 2.353 1_545 S
O295 C289 1.263 . S
C296 O297 1.275 . S
C296 O298 1.246 1_545 S
O297 Tb280 2.427 1_545 S
O297 C296 1.275 . S
O298 Tb280 2.513 . S
O298 C296 1.246 1_565 S
C299 O283 1.245 . S
C299 O284 1.259 . S
Tb300 O303 2.453 . S
Tb300 O304 2.596 1_556 S
Tb300 O305 2.374 1_556 S
Tb300 O313 2.343 . S
Tb300 O315 2.353 . S
Tb300 O317 2.427 . S
Tb300 O318 2.513 . S
C301 O305 1.251 . S
C301 O307 1.263 . S
Tb302 O304 2.343 . S
Tb302 O307 2.353 . S
Tb302 O310 2.427 . S
Tb302 O311 2.513 . S
Tb302 O312 2.453 . S
Tb302 O313 2.596 1_554 S
Tb302 O314 2.374 1_554 S
O303 Tb300 2.453 . S
O303 C319 1.245 1_556 S
O304 Tb300 2.596 1_554 S
O304 Tb302 2.343 . S
O304 C319 1.259 . S
O305 Tb300 2.374 1_554 S
O305 C301 1.251 . S
C306 O310 1.275 . S
C306 O311 1.246 . S
O307 C301 1.263 . S
O307 Tb302 2.353 . S
C308 O312 1.245 . S
C308 O313 1.259 1_554 S
C309 O314 1.250 . S
C309 O315 1.263 . S
O310 Tb302 2.427 . S
O310 C306 1.275 . S
O311 Tb302 2.513 . S
O311 C306 1.246 . S
O312 Tb302 2.453 . S
O312 C308 1.245 . S
O313 Tb300 2.343 . S
O313 Tb302 2.596 1_556 S
O313 C308 1.259 1_556 S
O314 Tb302 2.374 1_556 S
O314 C309 1.250 . S
O315 Tb300 2.353 . S
O315 C309 1.263 . S
C316 O317 1.275 . S
C316 O318 1.246 . S
O317 Tb300 2.427 . S
O317 C316 1.275 . S
O318 Tb300 2.513 . S
O318 C316 1.246 . S
C319 O303 1.245 1_554 S
C319 O304 1.259 . S
C320 C321 1.363 1_455 S
C320 C326 1.379 . S
C320 N328 1.356 . S
C321 C320 1.363 1_655 S
C321 C327 1.363 . S
C322 C323 1.363 . S
C322 C327 1.379 . S
C322 N329 1.356 . S
C323 C322 1.363 . S
C323 C326 1.363 1_655 S
N324 C326 1.356 . S
N324 H336 0.984 . S
N324 H337 0.985 . S
N325 C327 1.356 . S
N325 H330 0.984 . S
N325 H331 0.985 . S
C326 C320 1.379 . S
C326 C323 1.363 1_455 S
C326 N324 1.356 . S
C327 C321 1.363 . S
C327 C322 1.379 . S
C327 N325 1.356 . S
N328 C320 1.356 . S
N328 H334 0.984 . S
N328 H335 0.984 . S
N329 C322 1.356 . S
N329 H332 0.984 . S
N329 H333 0.985 . S
H330 N325 0.984 . S
H331 N325 0.985 . S
H332 N329 0.984 . S
H333 N329 0.985 . S
H334 N328 0.984 . S
H335 N328 0.984 . S
H336 N324 0.984 . S
H337 N324 0.985 . S
C338 C339 1.363 . S
C338 C344 1.379 . S
C338 N346 1.356 . S
C339 C338 1.363 . S
C339 C345 1.363 . S
C340 C341 1.363 . S
C340 C345 1.379 . S
C340 N347 1.356 . S
C341 C340 1.363 . S
C341 C344 1.363 . S
N342 C344 1.356 . S
N342 H354 0.984 . S
N342 H355 0.985 . S
N343 C345 1.356 . S
N343 H348 0.984 . S
N343 H349 0.985 . S
C344 C338 1.379 . S
C344 C341 1.363 . S
C344 N342 1.356 . S
C345 C339 1.363 . S
C345 C340 1.379 . S
C345 N343 1.356 . S
N346 C338 1.356 . S
N346 H352 0.984 . S
N346 H353 0.984 . S
N347 C340 1.356 . S
N347 H350 0.984 . S
N347 H351 0.985 . S
H348 N343 0.984 . S
H349 N343 0.985 . S
H350 N347 0.984 . S
H351 N347 0.985 . S
H352 N346 0.984 . S
H353 N346 0.984 . S
H354 N342 0.984 . S
H355 N342 0.985 . S
C356 C357 1.363 . S
C356 C362 1.379 . S
C356 N364 1.356 . S
C357 C356 1.363 . S
C357 C363 1.363 . S
C358 C359 1.363 . S
C358 C363 1.379 . S
C358 N365 1.356 . S
C359 C358 1.363 . S
C359 C362 1.363 . S
N360 C362 1.356 . S
N360 H372 0.984 . S
N360 H373 0.985 . S
N361 C363 1.356 . S
N361 H366 0.984 . S
N361 H367 0.985 . S
C362 C356 1.379 . S
C362 C359 1.363 . S
C362 N360 1.356 . S
C363 C357 1.363 . S
C363 C358 1.379 . S
C363 N361 1.356 . S
N364 C356 1.356 . S
N364 H370 0.984 . S
N364 H371 0.984 . S
N365 C358 1.356 . S
N365 H368 0.984 . S
N365 H369 0.985 . S
H366 N361 0.984 . S
H367 N361 0.985 . S
H368 N365 0.984 . S
H369 N365 0.985 . S
H370 N364 0.984 . S
H371 N364 0.984 . S
H372 N360 0.984 . S
H373 N360 0.985 . S
C374 C375 1.363 . S
C374 C380 1.379 . S
C374 N382 1.356 . S
C375 C374 1.363 . S
C375 C381 1.363 . S
C376 C377 1.363 . S
C376 C381 1.379 . S
C376 N383 1.356 1_545 S
C377 C376 1.363 . S
C377 C380 1.363 . S
N378 C380 1.356 . S
N378 H390 0.984 . S
N378 H391 0.985 . S
N379 C381 1.356 1_565 S
N379 H384 0.984 . S
N379 H385 0.985 . S
C380 C374 1.379 . S
C380 C377 1.363 . S
C380 N378 1.356 . S
C381 C375 1.363 . S
C381 C376 1.379 . S
C381 N379 1.356 1_545 S
N382 C374 1.356 . S
N382 H388 0.984 . S
N382 H389 0.984 . S
N383 C376 1.356 1_565 S
N383 H386 0.984 . S
N383 H387 0.985 . S
H384 N379 0.984 . S
H385 N379 0.985 . S
H386 N383 0.984 . S
H387 N383 0.985 . S
H388 N382 0.984 . S
H389 N382 0.984 . S
H390 N378 0.984 . S
H391 N378 0.985 . S
C392 C393 1.363 . S
C392 C398 1.379 . S
C392 N400 1.356 . S
C393 C392 1.363 . S
C393 C399 1.363 1_565 S
C394 C395 1.365 . S
C394 C399 1.379 . S
C394 N401 1.356 . S
C395 C394 1.365 . S
C395 C398 1.361 1_545 S
N396 C398 1.356 . S
N396 H408 0.984 . S
N396 H409 0.985 . S
N397 C399 1.356 . S
N397 H402 0.984 . S
N397 H403 0.985 . S
C398 C392 1.379 . S
C398 C395 1.361 1_565 S
C398 N396 1.356 . S
C399 C393 1.363 1_545 S
C399 C394 1.379 . S
C399 N397 1.356 . S
N400 C392 1.356 . S
N400 H406 0.984 . S
N400 H407 0.984 . S
N401 C394 1.356 . S
N401 H404 0.984 . S
N401 H405 0.985 . S
H402 N397 0.984 . S
H403 N397 0.985 . S
H404 N401 0.984 . S
H405 N401 0.985 . S
H406 N400 0.984 . S
H407 N400 0.984 . S
H408 N396 0.984 . S
H409 N396 0.985 . S
C410 C411 1.363 1_655 S
C410 C416 1.379 . S
C410 N418 1.356 . S
C411 C410 1.363 1_455 S
C411 C417 1.363 . S
C412 C413 1.363 . S
C412 C417 1.379 . S
C412 N419 1.356 . S
C413 C412 1.363 . S
C413 C416 1.363 1_455 S
N414 C416 1.356 . S
N414 H426 0.984 . S
N414 H427 0.985 . S
N415 C417 1.356 . S
N415 H420 0.984 . S
N415 H421 0.985 . S
C416 C410 1.379 . S
C416 C413 1.363 1_655 S
C416 N414 1.356 . S
C417 C411 1.363 . S
C417 C412 1.379 . S
C417 N415 1.356 . S
N418 C410 1.356 . S
N418 H424 0.984 . S
N418 H425 0.984 . S
N419 C412 1.356 . S
N419 H422 0.984 . S
N419 H423 0.985 . S
H420 N415 0.984 . S
H421 N415 0.985 . S
H422 N419 0.984 . S
H423 N419 0.985 . S
H424 N418 0.984 . S
H425 N418 0.984 . S
H426 N414 0.984 . S
H427 N414 0.985 . S
C428 C429 1.363 . S
C428 C434 1.379 . S
C428 N436 1.356 . S
C429 C428 1.363 . S
C429 C435 1.363 . S
C430 C431 1.363 . S
C430 C435 1.379 . S
C430 N437 1.356 . S
C431 C430 1.363 . S
C431 C434 1.363 . S
N432 C434 1.356 . S
N432 H444 0.984 . S
N432 H445 0.985 . S
N433 C435 1.356 . S
N433 H438 0.984 . S
N433 H439 0.985 . S
C434 C428 1.379 . S
C434 C431 1.363 . S
C434 N432 1.356 . S
C435 C429 1.363 . S
C435 C430 1.379 . S
C435 N433 1.356 . S
N436 C428 1.356 . S
N436 H442 0.984 . S
N436 H443 0.984 . S
N437 C430 1.356 . S
N437 H440 0.984 . S
N437 H441 0.985 . S
H438 N433 0.984 . S
H439 N433 0.985 . S
H440 N437 0.984 . S
H441 N437 0.985 . S
H442 N436 0.984 . S
H443 N436 0.984 . S
H444 N432 0.984 . S
H445 N432 0.985 . S
C446 C447 1.363 . S
C446 C452 1.379 . S
C446 N454 1.356 . S
C447 C446 1.363 . S
C447 C453 1.363 . S
C448 C449 1.363 . S
C448 C453 1.379 . S
C448 N455 1.356 . S
C449 C448 1.363 . S
C449 C452 1.363 . S
N450 C452 1.356 . S
N450 H462 0.984 . S
N450 H463 0.985 . S
N451 C453 1.356 . S
N451 H456 0.984 . S
N451 H457 0.985 . S
C452 C446 1.379 . S
C452 C449 1.363 . S
C452 N450 1.356 . S
C453 C447 1.363 . S
C453 C448 1.379 . S
C453 N451 1.356 . S
N454 C446 1.356 . S
N454 H460 0.984 . S
N454 H461 0.984 . S
N455 C448 1.356 . S
N455 H458 0.984 . S
N455 H459 0.985 . S
H456 N451 0.984 . S
H457 N451 0.985 . S
H458 N455 0.984 . S
H459 N455 0.985 . S
H460 N454 0.984 . S
H461 N454 0.984 . S
H462 N450 0.984 . S
H463 N450 0.985 . S
C464 C465 1.363 . S
C464 C470 1.379 . S
C464 N472 1.356 . S
C465 C464 1.363 . S
C465 C471 1.363 . S
C466 C467 1.363 . S
C466 C471 1.379 . S
C466 N473 1.356 . S
C467 C466 1.363 . S
C467 C470 1.363 . S
N468 C470 1.356 . S
N468 H480 0.984 . S
N468 H481 0.985 . S
N469 C471 1.356 . S
N469 H474 0.984 . S
N469 H475 0.985 . S
C470 C464 1.379 . S
C470 C467 1.363 . S
C470 N468 1.356 . S
C471 C465 1.363 . S
C471 C466 1.379 . S
C471 N469 1.356 . S
N472 C464 1.356 . S
N472 H478 0.984 . S
N472 H479 0.984 . S
N473 C466 1.356 . S
N473 H476 0.984 . S
N473 H477 0.985 . S
H474 N469 0.984 . S
H475 N469 0.985 . S
H476 N473 0.984 . S
H477 N473 0.985 . S
H478 N472 0.984 . S
H479 N472 0.984 . S
H480 N468 0.984 . S
H481 N468 0.985 . S
C482 C483 1.363 . S
C482 C488 1.379 . S
C482 N490 1.356 . S
C483 C482 1.363 . S
C483 C489 1.363 . S
C484 C485 1.363 . S
C484 C489 1.379 . S
C484 N491 1.356 . S
C485 C484 1.363 . S
C485 C488 1.363 . S
N486 C488 1.356 . S
N486 H498 0.984 . S
N486 H499 0.985 . S
N487 C489 1.356 . S
N487 H492 0.984 . S
N487 H493 0.985 . S
C488 C482 1.379 . S
C488 C485 1.363 . S
C488 N486 1.356 . S
C489 C483 1.363 . S
C489 C484 1.379 . S
C489 N487 1.356 . S
N490 C482 1.356 . S
N490 H496 0.984 . S
N490 H497 0.984 . S
N491 C484 1.356 . S
N491 H494 0.984 . S
N491 H495 0.985 . S
H492 N487 0.984 . S
H493 N487 0.985 . S
H494 N491 0.984 . S
H495 N491 0.985 . S
H496 N490 0.984 . S
H497 N490 0.984 . S
H498 N486 0.984 . S
H499 N486 0.985 . S
C500 C501 1.363 1_565 S
C500 C506 1.379 . S
C500 N508 1.356 . S
C501 C500 1.363 1_545 S
C501 C507 1.363 . S
C502 C503 1.363 . S
C502 C507 1.379 . S
C502 N509 1.356 . S
C503 C502 1.363 . S
C503 C506 1.363 1_545 S
N504 C506 1.356 . S
N504 H516 0.984 . S
N504 H517 0.985 . S
N505 C507 1.356 . S
N505 H510 0.984 . S
N505 H511 0.985 . S
C506 C500 1.379 . S
C506 C503 1.363 1_565 S
C506 N504 1.356 . S
C507 C501 1.363 . S
C507 C502 1.379 . S
C507 N505 1.356 . S
N508 C500 1.356 . S
N508 H514 0.984 . S
N508 H515 0.984 . S
N509 C502 1.356 . S
N509 H512 0.984 . S
N509 H513 0.985 . S
H510 N505 0.984 . S
H511 N505 0.985 . S
H512 N509 0.984 . S
H513 N509 0.985 . S
H514 N508 0.984 . S
H515 N508 0.984 . S
H516 N504 0.984 . S
H517 N504 0.985 . S
C518 C519 1.363 . S
C518 C524 1.379 . S
C518 N526 1.356 . S
C519 C518 1.363 . S
C519 C525 1.363 1_455 S
C520 C521 1.363 1_655 S
C520 C525 1.379 . S
C520 N527 1.356 . S
C521 C520 1.363 1_455 S
C521 C524 1.363 . S
N522 C524 1.356 . S
N522 H534 0.984 . S
N522 H535 0.985 . S
N523 C525 1.356 . S
N523 H528 0.984 . S
N523 H529 0.985 . S
C524 C518 1.379 . S
C524 C521 1.363 . S
C524 N522 1.356 . S
C525 C519 1.363 1_655 S
C525 C520 1.379 . S
C525 N523 1.356 . S
N526 C518 1.356 . S
N526 H532 0.984 . S
N526 H533 0.984 . S
N527 C520 1.356 . S
N527 H530 0.984 . S
N527 H531 0.985 . S
H528 N523 0.984 . S
H529 N523 0.985 . S
H530 N527 0.984 . S
H531 N527 0.985 . S
H532 N526 0.984 . S
H533 N526 0.984 . S
H534 N522 0.984 . S
H535 N522 0.985 . S
C536 C537 1.363 . S
C536 C542 1.379 . S
C536 N544 1.356 . S
C537 C536 1.363 . S
C537 C543 1.363 1_554 S
C538 C539 1.363 1_556 S
C538 C543 1.379 . S
C538 N545 1.356 . S
C539 C538 1.363 1_554 S
C539 C542 1.363 . S
N540 C542 1.356 . S
N540 H552 0.984 . S
N540 H553 0.985 . S
N541 C543 1.356 . S
N541 H546 0.984 . S
N541 H547 0.985 . S
C542 C536 1.379 . S
C542 C539 1.363 . S
C542 N540 1.356 . S
C543 C537 1.363 1_556 S
C543 C538 1.379 . S
C543 N541 1.356 . S
N544 C536 1.356 . S
N544 H550 0.984 . S
N544 H551 0.984 . S
N545 C538 1.356 . S
N545 H548 0.984 . S
N545 H549 0.985 . S
H546 N541 0.984 . S
H547 N541 0.985 . S
H548 N545 0.984 . S
H549 N545 0.985 . S
H550 N544 0.984 . S
H551 N544 0.984 . S
H552 N540 0.984 . S
H553 N540 0.985 . S
C554 C555 1.363 . S
C554 C560 1.379 . S
C554 N562 1.356 . S
C555 C554 1.363 . S
C555 C561 1.363 . S
C556 C557 1.363 . S
C556 C561 1.379 . S
C556 N563 1.356 . S
C557 C556 1.363 . S
C557 C560 1.363 . S
N558 C560 1.356 . S
N558 H570 0.984 . S
N558 H571 0.985 . S
N559 C561 1.356 . S
N559 H564 0.984 . S
N559 H565 0.985 . S
C560 C554 1.379 . S
C560 C557 1.363 . S
C560 N558 1.356 . S
C561 C555 1.363 . S
C561 C556 1.379 . S
C561 N559 1.356 . S
N562 C554 1.356 . S
N562 H568 0.984 . S
N562 H569 0.984 . S
N563 C556 1.356 . S
N563 H566 0.984 . S
N563 H567 0.985 . S
H564 N559 0.984 . S
H565 N559 0.985 . S
H566 N563 0.984 . S
H567 N563 0.985 . S
H568 N562 0.984 . S
H569 N562 0.984 . S
H570 N558 0.984 . S
H571 N558 0.985 . S
C572 C573 1.363 . S
C572 C578 1.379 . S
C572 N580 1.356 . S
C573 C572 1.363 . S
C573 C579 1.363 . S
C574 C575 1.363 . S
C574 C579 1.379 . S
C574 N581 1.356 . S
C575 C574 1.363 . S
C575 C578 1.363 . S
N576 C578 1.356 . S
N576 H588 0.984 . S
N576 H589 0.985 . S
N577 C579 1.356 . S
N577 H582 0.984 . S
N577 H583 0.985 . S
C578 C572 1.379 . S
C578 C575 1.363 . S
C578 N576 1.356 . S
C579 C573 1.363 . S
C579 C574 1.379 . S
C579 N577 1.356 . S
N580 C572 1.356 . S
N580 H586 0.984 . S
N580 H587 0.984 . S
N581 C574 1.356 . S
N581 H584 0.984 . S
N581 H585 0.985 . S
H582 N577 0.984 . S
H583 N577 0.985 . S
H584 N581 0.984 . S
H585 N581 0.985 . S
H586 N580 0.984 . S
H587 N580 0.984 . S
H588 N576 0.984 . S
H589 N576 0.985 . S
C590 C591 1.363 . S
C590 C596 1.379 . S
C590 N598 1.356 . S
C591 C590 1.363 . S
C591 C597 1.363 . S
C592 C593 1.363 . S
C592 C597 1.379 . S
C592 N599 1.356 . S
C593 C592 1.363 . S
C593 C596 1.363 . S
N594 C596 1.356 . S
N594 H606 0.984 . S
N594 H607 0.985 . S
N595 C597 1.356 . S
N595 H600 0.984 . S
N595 H601 0.985 . S
C596 C590 1.379 . S
C596 C593 1.363 . S
C596 N594 1.356 . S
C597 C591 1.363 . S
C597 C592 1.379 . S
C597 N595 1.356 . S
N598 C590 1.356 . S
N598 H604 0.984 . S
N598 H605 0.984 . S
N599 C592 1.356 . S
N599 H602 0.984 . S
N599 H603 0.985 . S
H600 N595 0.984 . S
H601 N595 0.985 . S
H602 N599 0.984 . S
H603 N599 0.985 . S
H604 N598 0.984 . S
H605 N598 0.984 . S
H606 N594 0.984 . S
H607 N594 0.985 . S
C608 C609 1.363 . S
C608 C614 1.379 . S
C608 N616 1.356 . S
C609 C608 1.363 . S
C609 C615 1.363 . S
C610 C611 1.363 . S
C610 C615 1.379 . S
C610 N617 1.356 . S
C611 C610 1.363 . S
C611 C614 1.363 . S
N612 C614 1.356 . S
N612 H624 0.984 . S
N612 H625 0.985 . S
N613 C615 1.356 . S
N613 H618 0.984 . S
N613 H619 0.985 . S
C614 C608 1.379 . S
C614 C611 1.363 . S
C614 N612 1.356 . S
C615 C609 1.363 . S
C615 C610 1.379 . S
C615 N613 1.356 . S
N616 C608 1.356 . S
N616 H622 0.984 . S
N616 H623 0.984 . S
N617 C610 1.356 . S
N617 H620 0.984 . S
N617 H621 0.985 . S
H618 N613 0.984 . S
H619 N613 0.985 . S
H620 N617 0.984 . S
H621 N617 0.985 . S
H622 N616 0.984 . S
H623 N616 0.984 . S
H624 N612 0.984 . S
H625 N612 0.985 . S
C626 C627 1.363 . S
C626 C632 1.379 . S
C626 N634 1.356 . S
C627 C626 1.363 . S
C627 C633 1.363 . S
C628 C629 1.363 . S
C628 C633 1.379 . S
C628 N635 1.356 . S
C629 C628 1.363 . S
C629 C632 1.363 . S
N630 C632 1.356 . S
N630 H642 0.984 . S
N630 H643 0.985 . S
N631 C633 1.356 . S
N631 H636 0.984 . S
N631 H637 0.985 . S
C632 C626 1.379 . S
C632 C629 1.363 . S
C632 N630 1.356 . S
C633 C627 1.363 . S
C633 C628 1.379 . S
C633 N631 1.356 . S
N634 C626 1.356 . S
N634 H640 0.984 . S
N634 H641 0.984 . S
N635 C628 1.356 . S
N635 H638 0.984 . S
N635 H639 0.985 . S
H636 N631 0.984 . S
H637 N631 0.985 . S
H638 N635 0.984 . S
H639 N635 0.985 . S
H640 N634 0.984 . S
H641 N634 0.984 . S
H642 N630 0.984 . S
H643 N630 0.985 . S
C644 C645 1.363 . S
C644 C650 1.379 . S
C644 N652 1.356 . S
C645 C644 1.363 . S
C645 C651 1.363 . S
C646 C647 1.363 . S
C646 C651 1.379 . S
C646 N653 1.356 . S
C647 C646 1.363 . S
C647 C650 1.363 . S
N648 C650 1.356 . S
N648 H660 0.984 . S
N648 H661 0.985 . S
N649 C651 1.356 . S
N649 H654 0.984 . S
N649 H655 0.985 . S
C650 C644 1.379 . S
C650 C647 1.363 . S
C650 N648 1.356 . S
C651 C645 1.363 . S
C651 C646 1.379 . S
C651 N649 1.356 . S
N652 C644 1.356 . S
N652 H658 0.984 . S
N652 H659 0.984 . S
N653 C646 1.356 . S
N653 H656 0.984 . S
N653 H657 0.985 . S
H654 N649 0.984 . S
H655 N649 0.985 . S
H656 N653 0.984 . S
H657 N653 0.985 . S
H658 N652 0.984 . S
H659 N652 0.984 . S
H660 N648 0.984 . S
H661 N648 0.985 . S
C662 C663 1.363 . S
C662 C668 1.379 . S
C662 N670 1.356 . S
C663 C662 1.363 . S
C663 C669 1.363 . S
C664 C665 1.363 . S
C664 C669 1.379 . S
C664 N671 1.356 . S
C665 C664 1.363 . S
C665 C668 1.363 . S
N666 C668 1.356 . S
N666 H678 0.984 . S
N666 H679 0.985 . S
N667 C669 1.356 . S
N667 H672 0.984 . S
N667 H673 0.985 . S
C668 C662 1.379 . S
C668 C665 1.363 . S
C668 N666 1.356 . S
C669 C663 1.363 . S
C669 C664 1.379 . S
C669 N667 1.356 . S
N670 C662 1.356 . S
N670 H676 0.984 . S
N670 H677 0.984 . S
N671 C664 1.356 . S
N671 H674 0.984 . S
N671 H675 0.985 . S
H672 N667 0.984 . S
H673 N667 0.985 . S
H674 N671 0.984 . S
H675 N671 0.985 . S
H676 N670 0.984 . S
H677 N670 0.984 . S
H678 N666 0.984 . S
H679 N666 0.985 . S
C680 C681 1.363 . S
C680 C686 1.379 . S
C680 N688 1.356 . S
C681 C680 1.363 . S
C681 C687 1.363 . S
C682 C683 1.363 . S
C682 C687 1.379 . S
C682 N689 1.356 . S
C683 C682 1.363 . S
C683 C686 1.363 . S
N684 C686 1.356 . S
N684 H696 0.984 . S
N684 H697 0.985 . S
N685 C687 1.356 . S
N685 H690 0.984 . S
N685 H691 0.985 1_565 S
C686 C680 1.379 . S
C686 C683 1.363 . S
C686 N684 1.356 . S
C687 C681 1.363 . S
C687 C682 1.379 . S
C687 N685 1.356 . S
N688 C680 1.356 . S
N688 H694 0.984 . S
N688 H695 0.984 . S
N689 C682 1.356 . S
N689 H692 0.984 . S
N689 H693 0.985 . S
H690 N685 0.984 . S
H691 N685 0.985 1_545 S
H692 N689 0.984 . S
H693 N689 0.985 . S
H694 N688 0.984 . S
H695 N688 0.984 . S
H696 N684 0.984 . S
H697 N684 0.985 . S
C698 C699 1.363 . S
C698 C704 1.379 . S
C698 N706 1.356 . S
C699 C698 1.363 . S
C699 C705 1.363 1_655 S
C700 C701 1.363 1_455 S
C700 C705 1.379 . S
C700 N707 1.356 . S
C701 C700 1.363 1_655 S
C701 C704 1.363 . S
N702 C704 1.356 . S
N702 H714 0.984 . S
N702 H715 0.985 . S
N703 C705 1.356 . S
N703 H708 0.984 . S
N703 H709 0.985 . S
C704 C698 1.379 . S
C704 C701 1.363 . S
C704 N702 1.356 . S
C705 C699 1.363 1_455 S
C705 C700 1.379 . S
C705 N703 1.356 . S
N706 C698 1.356 . S
N706 H712 0.984 . S
N706 H713 0.984 . S
N707 C700 1.356 . S
N707 H710 0.984 . S
N707 H711 0.985 . S
H708 N703 0.984 . S
H709 N703 0.985 . S
H710 N707 0.984 . S
H711 N707 0.985 . S
H712 N706 0.984 . S
H713 N706 0.984 . S
H714 N702 0.984 . S
H715 N702 0.985 . S
C716 C717 1.363 . S
C716 C722 1.379 . S
C716 N724 1.356 . S
C717 C716 1.363 . S
C717 C723 1.363 . S
C718 C719 1.363 . S
C718 C723 1.379 . S
C718 N725 1.356 . S
C719 C718 1.363 . S
C719 C722 1.363 . S
N720 C722 1.356 . S
N720 H732 0.984 . S
N720 H733 0.985 . S
N721 C723 1.356 . S
N721 H726 0.984 . S
N721 H727 0.985 . S
C722 C716 1.379 . S
C722 C719 1.363 . S
C722 N720 1.356 . S
C723 C717 1.363 . S
C723 C718 1.379 . S
C723 N721 1.356 . S
N724 C716 1.356 . S
N724 H730 0.984 . S
N724 H731 0.984 . S
N725 C718 1.356 . S
N725 H728 0.984 . S
N725 H729 0.985 . S
H726 N721 0.984 . S
H727 N721 0.985 . S
H728 N725 0.984 . S
H729 N725 0.985 . S
H730 N724 0.984 . S
H731 N724 0.984 . S
H732 N720 0.984 . S
H733 N720 0.985 . S
C734 C735 1.363 . S
C734 C740 1.379 . S
C734 N742 1.356 . S
C735 C734 1.363 . S
C735 C741 1.363 . S
C736 C737 1.363 . S
C736 C741 1.379 . S
C736 N743 1.356 . S
C737 C736 1.363 . S
C737 C740 1.363 . S
N738 C740 1.356 . S
N738 H750 0.984 . S
N738 H751 0.985 . S
N739 C741 1.356 . S
N739 H744 0.984 . S
N739 H745 0.985 . S
C740 C734 1.379 . S
C740 C737 1.363 . S
C740 N738 1.356 . S
C741 C735 1.363 . S
C741 C736 1.379 . S
C741 N739 1.356 . S
N742 C734 1.356 . S
N742 H748 0.984 . S
N742 H749 0.984 . S
N743 C736 1.356 . S
N743 H746 0.984 . S
N743 H747 0.985 . S
H744 N739 0.984 . S
H745 N739 0.985 . S
H746 N743 0.984 . S
H747 N743 0.985 . S
H748 N742 0.984 . S
H749 N742 0.984 . S
H750 N738 0.984 . S
H751 N738 0.985 . S
C752 C753 1.363 . S
C752 C758 1.379 . S
C752 N760 1.356 . S
C753 C752 1.363 . S
C753 C759 1.363 . S
C754 C755 1.363 . S
C754 C759 1.379 . S
C754 N761 1.356 . S
C755 C754 1.363 . S
C755 C758 1.363 . S
N756 C758 1.356 . S
N756 H768 0.984 . S
N756 H769 0.985 . S
N757 C759 1.356 . S
N757 H762 0.984 . S
N757 H763 0.985 . S
C758 C752 1.379 . S
C758 C755 1.363 . S
C758 N756 1.356 . S
C759 C753 1.363 . S
C759 C754 1.379 . S
C759 N757 1.356 . S
N760 C752 1.356 . S
N760 H766 0.984 . S
N760 H767 0.984 . S
N761 C754 1.356 . S
N761 H764 0.984 . S
N761 H765 0.985 . S
H762 N757 0.984 . S
H763 N757 0.985 . S
H764 N761 0.984 . S
H765 N761 0.985 . S
H766 N760 0.984 . S
H767 N760 0.984 . S
H768 N756 0.984 . S
H769 N756 0.985 . S
C770 C771 1.363 . S
C770 C776 1.379 . S
C770 N778 1.356 . S
C771 C770 1.363 . S
C771 C777 1.363 . S
C772 C773 1.363 . S
C772 C777 1.379 . S
C772 N779 1.356 . S
C773 C772 1.363 . S
C773 C776 1.363 . S
N774 C776 1.356 . S
N774 H786 0.984 . S
N774 H787 0.985 . S
N775 C777 1.356 . S
N775 H780 0.984 . S
N775 H781 0.985 . S
C776 C770 1.379 . S
C776 C773 1.363 . S
C776 N774 1.356 . S
C777 C771 1.363 . S
C777 C772 1.379 . S
C777 N775 1.356 . S
N778 C770 1.356 . S
N778 H784 0.984 . S
N778 H785 0.984 . S
N779 C772 1.356 . S
N779 H782 0.984 . S
N779 H783 0.985 . S
H780 N775 0.984 . S
H781 N775 0.985 . S
H782 N779 0.984 . S
H783 N779 0.985 . S
H784 N778 0.984 . S
H785 N778 0.984 . S
H786 N774 0.984 . S
H787 N774 0.985 . S
C788 C789 1.363 1_565 S
C788 C794 1.379 . S
C788 N796 1.356 . S
C789 C788 1.363 1_545 S
C789 C795 1.363 . S
C790 C791 1.363 . S
C790 C795 1.379 . S
C790 N797 1.356 . S
C791 C790 1.363 . S
C791 C794 1.363 1_545 S
N792 C794 1.356 . S
N792 H804 0.984 . S
N792 H805 0.985 . S
N793 C795 1.356 . S
N793 H798 0.984 . S
N793 H799 0.985 . S
C794 C788 1.379 . S
C794 C791 1.363 1_565 S
C794 N792 1.356 . S
C795 C789 1.363 . S
C795 C790 1.379 . S
C795 N793 1.356 . S
N796 C788 1.356 . S
N796 H802 0.984 . S
N796 H803 0.984 . S
N797 C790 1.356 . S
N797 H800 0.984 . S
N797 H801 0.985 . S
H798 N793 0.984 . S
H799 N793 0.985 . S
H800 N797 0.984 . S
H801 N797 0.985 . S
H802 N796 0.984 . S
H803 N796 0.984 . S
H804 N792 0.984 . S
H805 N792 0.985 . S
C806 C807 1.363 . S
C806 C812 1.379 . S
C806 N814 1.356 . S
C807 C806 1.363 . S
C807 C813 1.363 1_554 S
C808 C809 1.363 . S
C808 C813 1.379 . S
C808 N815 1.356 . S
C809 C808 1.363 . S
C809 C812 1.363 1_556 S
N810 C812 1.356 . S
N810 H822 0.984 . S
N810 H823 0.985 . S
N811 C813 1.356 . S
N811 H816 0.984 . S
N811 H817 0.985 . S
C812 C806 1.379 . S
C812 C809 1.363 1_554 S
C812 N810 1.356 . S
C813 C807 1.363 1_556 S
C813 C808 1.379 . S
C813 N811 1.356 . S
N814 C806 1.356 . S
N814 H820 0.984 . S
N814 H821 0.984 . S
N815 C808 1.356 . S
N815 H818 0.984 . S
N815 H819 0.985 . S
H816 N811 0.984 . S
H817 N811 0.985 . S
H818 N815 0.984 . S
H819 N815 0.985 . S
H820 N814 0.984 . S
H821 N814 0.984 . S
H822 N810 0.984 . S
H823 N810 0.985 . S
C824 C825 1.363 . S
C824 C830 1.379 . S
C824 N832 1.356 . S
C825 C824 1.363 . S
C825 C831 1.363 . S
C826 C827 1.363 . S
C826 C831 1.379 . S
C826 N833 1.356 . S
C827 C826 1.363 . S
C827 C830 1.363 . S
N828 C830 1.356 . S
N828 H840 0.984 . S
N828 H841 0.985 . S
N829 C831 1.356 . S
N829 H834 0.984 . S
N829 H835 0.985 . S
C830 C824 1.379 . S
C830 C827 1.363 . S
C830 N828 1.356 . S
C831 C825 1.363 . S
C831 C826 1.379 . S
C831 N829 1.356 . S
N832 C824 1.356 . S
N832 H838 0.984 . S
N832 H839 0.984 . S
N833 C826 1.356 . S
N833 H836 0.984 . S
N833 H837 0.985 . S
H834 N829 0.984 . S
H835 N829 0.985 . S
H836 N833 0.984 . S
H837 N833 0.985 . S
H838 N832 0.984 . S
H839 N832 0.984 . S
H840 N828 0.984 . S
H841 N828 0.985 . S
C842 C843 1.363 . S
C842 C848 1.379 . S
C842 N850 1.356 . S
C843 C842 1.363 . S
C843 C849 1.363 . S
C844 C845 1.363 . S
C844 C849 1.379 . S
C844 N851 1.356 . S
C845 C844 1.363 . S
C845 C848 1.363 . S
N846 C848 1.356 . S
N846 H858 0.984 . S
N846 H859 0.985 . S
N847 C849 1.356 . S
N847 H852 0.984 . S
N847 H853 0.985 . S
C848 C842 1.379 . S
C848 C845 1.363 . S
C848 N846 1.356 . S
C849 C843 1.363 . S
C849 C844 1.379 . S
C849 N847 1.356 . S
N850 C842 1.356 . S
N850 H856 0.984 . S
N850 H857 0.984 . S
N851 C844 1.356 . S
N851 H854 0.984 . S
N851 H855 0.985 . S
H852 N847 0.984 . S
H853 N847 0.985 . S
H854 N851 0.984 . S
H855 N851 0.985 . S
H856 N850 0.984 . S
H857 N850 0.984 . S
H858 N846 0.984 . S
H859 N846 0.985 . S
C860 C861 1.363 . S
C860 C866 1.379 . S
C860 N868 1.356 . S
C861 C860 1.363 . S
C861 C867 1.363 . S
C862 C863 1.363 . S
C862 C867 1.379 . S
C862 N869 1.356 . S
C863 C862 1.363 . S
C863 C866 1.363 . S
N864 C866 1.356 . S
N864 H876 0.984 . S
N864 H877 0.985 . S
N865 C867 1.356 . S
N865 H870 0.984 . S
N865 H871 0.985 . S
C866 C860 1.379 . S
C866 C863 1.363 . S
C866 N864 1.356 . S
C867 C861 1.363 . S
C867 C862 1.379 . S
C867 N865 1.356 . S
N868 C860 1.356 . S
N868 H874 0.984 . S
N868 H875 0.984 . S
N869 C862 1.356 . S
N869 H872 0.984 . S
N869 H873 0.985 . S
H870 N865 0.984 . S
H871 N865 0.985 . S
H872 N869 0.984 . S
H873 N869 0.985 . S
H874 N868 0.984 . S
H875 N868 0.984 . S
H876 N864 0.984 . S
H877 N864 0.985 . S
C878 C879 1.363 . S
C878 C884 1.379 . S
C878 N886 1.356 . S
C879 C878 1.363 . S
C879 C885 1.363 . S
C880 C881 1.363 . S
C880 C885 1.379 . S
C880 N887 1.356 . S
C881 C880 1.363 . S
C881 C884 1.363 . S
N882 C884 1.356 . S
N882 H894 0.984 . S
N882 H895 0.985 . S
N883 C885 1.356 . S
N883 H888 0.984 . S
N883 H889 0.985 . S
C884 C878 1.379 . S
C884 C881 1.363 . S
C884 N882 1.356 . S
C885 C879 1.363 . S
C885 C880 1.379 . S
C885 N883 1.356 . S
N886 C878 1.356 . S
N886 H892 0.984 . S
N886 H893 0.984 . S
N887 C880 1.356 . S
N887 H890 0.984 . S
N887 H891 0.985 . S
H888 N883 0.984 . S
H889 N883 0.985 . S
H890 N887 0.984 . S
H891 N887 0.985 . S
H892 N886 0.984 . S
H893 N886 0.984 . S
H894 N882 0.984 . S
H895 N882 0.985 . S
C896 C897 1.363 . S
C896 C902 1.379 . S
C896 N904 1.356 . S
C897 C896 1.363 . S
C897 C903 1.363 . S
C898 C899 1.363 . S
C898 C903 1.379 . S
C898 N905 1.356 . S
C899 C898 1.363 . S
C899 C902 1.363 . S
N900 C902 1.356 . S
N900 H912 0.984 . S
N900 H913 0.985 . S
N901 C903 1.356 . S
N901 H906 0.984 . S
N901 H907 0.985 . S
C902 C896 1.379 . S
C902 C899 1.363 . S
C902 N900 1.356 . S
C903 C897 1.363 . S
C903 C898 1.379 . S
C903 N901 1.356 . S
N904 C896 1.356 . S
N904 H910 0.984 . S
N904 H911 0.984 . S
N905 C898 1.356 . S
N905 H908 0.984 . S
N905 H909 0.985 . S
H906 N901 0.984 . S
H907 N901 0.985 . S
H908 N905 0.984 . S
H909 N905 0.985 . S
H910 N904 0.984 . S
H911 N904 0.984 . S
H912 N900 0.984 . S
H913 N900 0.985 . S
C914 C915 1.363 . S
C914 C920 1.379 . S
C914 N922 1.356 . S
C915 C914 1.363 . S
C915 C921 1.363 . S
C916 C917 1.363 . S
C916 C921 1.379 . S
C916 N923 1.356 . S
C917 C916 1.363 . S
C917 C920 1.363 . S
N918 C920 1.356 . S
N918 H930 0.984 . S
N918 H931 0.985 . S
N919 C921 1.356 . S
N919 H924 0.984 . S
N919 H925 0.985 . S
C920 C914 1.379 . S
C920 C917 1.363 . S
C920 N918 1.356 . S
C921 C915 1.363 . S
C921 C916 1.379 . S
C921 N919 1.356 . S
N922 C914 1.356 . S
N922 H928 0.984 . S
N922 H929 0.984 . S
N923 C916 1.356 . S
N923 H926 0.984 . S
N923 H927 0.985 . S
H924 N919 0.984 . S
H925 N919 0.985 . S
H926 N923 0.984 . S
H927 N923 0.985 . S
H928 N922 0.984 . S
H929 N922 0.984 . S
H930 N918 0.984 . S
H931 N918 0.985 . S
C932 C933 1.363 . S
C932 C938 1.379 . S
C932 N940 1.356 . S
C933 C932 1.363 . S
C933 C939 1.363 . S
C934 C935 1.363 . S
C934 C939 1.379 . S
C934 N941 1.356 . S
C935 C934 1.363 . S
C935 C938 1.363 . S
N936 C938 1.356 . S
N936 H948 0.984 . S
N936 H949 0.985 . S
N937 C939 1.356 . S
N937 H942 0.984 . S
N937 H943 0.985 . S
C938 C932 1.379 . S
C938 C935 1.363 . S
C938 N936 1.356 . S
C939 C933 1.363 . S
C939 C934 1.379 . S
C939 N937 1.356 . S
N940 C932 1.356 . S
N940 H946 0.984 . S
N940 H947 0.984 . S
N941 C934 1.356 . S
N941 H944 0.984 . S
N941 H945 0.985 . S
H942 N937 0.984 . S
H943 N937 0.985 . S
H944 N941 0.984 . S
H945 N941 0.985 . S
H946 N940 0.984 . S
H947 N940 0.984 . S
H948 N936 0.984 . S
H949 N936 0.985 . S
C950 C951 1.363 . S
C950 C956 1.379 . S
C950 N958 1.356 . S
C951 C950 1.363 . S
C951 C957 1.363 . S
C952 C953 1.363 . S
C952 C957 1.379 . S
C952 N959 1.356 . S
C953 C952 1.363 . S
C953 C956 1.363 . S
N954 C956 1.356 . S
N954 H966 0.984 . S
N954 H967 0.985 . S
N955 C957 1.356 . S
N955 H960 0.984 . S
N955 H961 0.985 . S
C956 C950 1.379 . S
C956 C953 1.363 . S
C956 N954 1.356 . S
C957 C951 1.363 . S
C957 C952 1.379 . S
C957 N955 1.356 . S
N958 C950 1.356 . S
N958 H964 0.984 . S
N958 H965 0.984 . S
N959 C952 1.356 . S
N959 H962 0.984 . S
N959 H963 0.985 . S
H960 N955 0.984 . S
H961 N955 0.985 . S
H962 N959 0.984 . S
H963 N959 0.985 . S
H964 N958 0.984 . S
H965 N958 0.984 . S
H966 N954 0.984 . S
H967 N954 0.985 . S
C968 C969 1.363 . S
C968 C974 1.379 . S
C968 N976 1.356 . S
C969 C968 1.363 . S
C969 C975 1.363 . S
C970 C971 1.363 . S
C970 C975 1.379 . S
C970 N977 1.356 . S
C971 C970 1.363 . S
C971 C974 1.363 . S
N972 C974 1.356 . S
N972 H984 0.984 . S
N972 H985 0.985 . S
N973 C975 1.356 . S
N973 H978 0.984 . S
N973 H979 0.985 . S
C974 C968 1.379 . S
C974 C971 1.363 . S
C974 N972 1.356 . S
C975 C969 1.363 . S
C975 C970 1.379 . S
C975 N973 1.356 . S
N976 C968 1.356 . S
N976 H982 0.984 . S
N976 H983 0.984 . S
N977 C970 1.356 . S
N977 H980 0.984 . S
N977 H981 0.985 . S
H978 N973 0.984 . S
H979 N973 0.985 . S
H980 N977 0.984 . S
H981 N977 0.985 . S
H982 N976 0.984 . S
H983 N976 0.984 . S
H984 N972 0.984 . S
H985 N972 0.985 . S
C986 C987 1.363 . S
C986 C992 1.379 . S
C986 N994 1.356 . S
C987 C986 1.363 . S
C987 C993 1.363 1_556 S
C988 C989 1.363 . S
C988 C993 1.379 . S
C988 N995 1.356 . S
C989 C988 1.363 . S
C989 C992 1.363 1_554 S
N990 C992 1.356 . S
N990 H1002 0.984 . S
N990 H1003 0.985 . S
N991 C993 1.356 . S
N991 H996 0.984 . S
N991 H997 0.985 . S
C992 C986 1.379 . S
C992 C989 1.363 1_556 S
C992 N990 1.356 . S
C993 C987 1.363 1_554 S
C993 C988 1.379 . S
C993 N991 1.356 . S
N994 C986 1.356 . S
N994 H1000 0.984 . S
N994 H1001 0.984 . S
N995 C988 1.356 . S
N995 H998 0.984 . S
N995 H999 0.985 . S
H996 N991 0.984 . S
H997 N991 0.985 . S
H998 N995 0.984 . S
H999 N995 0.985 . S
H1000 N994 0.984 . S
H1001 N994 0.984 . S
H1002 N990 0.984 . S
H1003 N990 0.985 . S
C1004 C1005 1.363 . S
C1004 C1010 1.379 . S
C1004 N1012 1.356 . S
C1005 C1004 1.363 . S
C1005 C1011 1.363 . S
C1006 C1007 1.363 . S
C1006 C1011 1.379 . S
C1006 N1013 1.356 . S
C1007 C1006 1.363 . S
C1007 C1010 1.363 . S
N1008 C1010 1.356 . S
N1008 H1020 0.984 . S
N1008 H1021 0.985 . S
N1009 C1011 1.356 . S
N1009 H1014 0.984 . S
N1009 H1015 0.985 . S
C1010 C1004 1.379 . S
C1010 C1007 1.363 . S
C1010 N1008 1.356 . S
C1011 C1005 1.363 . S
C1011 C1006 1.379 . S
C1011 N1009 1.356 . S
N1012 C1004 1.356 . S
N1012 H1018 0.984 . S
N1012 H1019 0.984 . S
N1013 C1006 1.356 . S
N1013 H1016 0.984 . S
N1013 H1017 0.985 . S
H1014 N1009 0.984 . S
H1015 N1009 0.985 . S
H1016 N1013 0.984 . S
H1017 N1013 0.985 . S
H1018 N1012 0.984 . S
H1019 N1012 0.984 . S
H1020 N1008 0.984 . S
H1021 N1008 0.985 . S
C1022 C1023 1.363 . S
C1022 C1028 1.379 . S
C1022 N1030 1.356 . S
C1023 C1022 1.363 . S
C1023 C1029 1.363 . S
C1024 C1025 1.363 . S
C1024 C1029 1.379 . S
C1024 N1031 1.356 . S
C1025 C1024 1.363 . S
C1025 C1028 1.363 . S
N1026 C1028 1.356 . S
N1026 H1038 0.984 . S
N1026 H1039 0.985 . S
N1027 C1029 1.356 . S
N1027 H1032 0.984 . S
N1027 H1033 0.985 . S
C1028 C1022 1.379 . S
C1028 C1025 1.363 . S
C1028 N1026 1.356 . S
C1029 C1023 1.363 . S
C1029 C1024 1.379 . S
C1029 N1027 1.356 . S
N1030 C1022 1.356 . S
N1030 H1036 0.984 . S
N1030 H1037 0.984 . S
N1031 C1024 1.356 . S
N1031 H1034 0.984 . S
N1031 H1035 0.985 . S
H1032 N1027 0.984 . S
H1033 N1027 0.985 . S
H1034 N1031 0.984 . S
H1035 N1031 0.985 . S
H1036 N1030 0.984 . S
H1037 N1030 0.984 . S
H1038 N1026 0.984 . S
H1039 N1026 0.985 . S
C1040 C1041 1.363 . S
C1040 C1046 1.379 . S
C1040 N1048 1.356 . S
C1041 C1040 1.363 . S
C1041 C1047 1.363 . S
C1042 C1043 1.363 . S
C1042 C1047 1.379 . S
C1042 N1049 1.356 . S
C1043 C1042 1.363 . S
C1043 C1046 1.363 . S
N1044 C1046 1.356 . S
N1044 H1056 0.984 . S
N1044 H1057 0.985 . S
N1045 C1047 1.356 . S
N1045 H1050 0.984 . S
N1045 H1051 0.985 . S
C1046 C1040 1.379 . S
C1046 C1043 1.363 . S
C1046 N1044 1.356 . S
C1047 C1041 1.363 . S
C1047 C1042 1.379 . S
C1047 N1045 1.356 . S
N1048 C1040 1.356 . S
N1048 H1054 0.984 . S
N1048 H1055 0.984 . S
N1049 C1042 1.356 . S
N1049 H1052 0.984 . S
N1049 H1053 0.985 . S
H1050 N1045 0.984 . S
H1051 N1045 0.985 . S
H1052 N1049 0.984 . S
H1053 N1049 0.985 . S
H1054 N1048 0.984 . S
H1055 N1048 0.984 . S
H1056 N1044 0.984 . S
H1057 N1044 0.985 . S
C1058 C1059 1.363 . S
C1058 C1064 1.379 . S
C1058 N1066 1.356 . S
C1059 C1058 1.363 . S
C1059 C1065 1.363 . S
C1060 C1061 1.363 . S
C1060 C1065 1.379 . S
C1060 N1067 1.356 . S
C1061 C1060 1.363 . S
C1061 C1064 1.363 . S
N1062 C1064 1.356 . S
N1062 H1074 0.984 . S
N1062 H1075 0.985 . S
N1063 C1065 1.356 . S
N1063 H1068 0.984 . S
N1063 H1069 0.985 . S
C1064 C1058 1.379 . S
C1064 C1061 1.363 . S
C1064 N1062 1.356 . S
C1065 C1059 1.363 . S
C1065 C1060 1.379 . S
C1065 N1063 1.356 . S
N1066 C1058 1.356 . S
N1066 H1072 0.984 . S
N1066 H1073 0.984 . S
N1067 C1060 1.356 . S
N1067 H1070 0.984 . S
N1067 H1071 0.985 . S
H1068 N1063 0.984 . S
H1069 N1063 0.985 . S
H1070 N1067 0.984 . S
H1071 N1067 0.985 . S
H1072 N1066 0.984 . S
H1073 N1066 0.984 . S
H1074 N1062 0.984 . S
H1075 N1062 0.985 . S
C1076 C1077 1.363 . S
C1076 C1082 1.379 . S
C1076 N1084 1.356 . S
C1077 C1076 1.363 . S
C1077 C1083 1.363 1_554 S
C1078 C1079 1.363 1_556 S
C1078 C1083 1.379 . S
C1078 N1085 1.356 . S
C1079 C1078 1.363 1_554 S
C1079 C1082 1.363 . S
N1080 C1082 1.356 . S
N1080 H1092 0.984 . S
N1080 H1093 0.985 . S
N1081 C1083 1.356 . S
N1081 H1086 0.984 . S
N1081 H1087 0.985 . S
C1082 C1076 1.379 . S
C1082 C1079 1.363 . S
C1082 N1080 1.356 . S
C1083 C1077 1.363 1_556 S
C1083 C1078 1.379 . S
C1083 N1081 1.356 . S
N1084 C1076 1.356 . S
N1084 H1090 0.984 . S
N1084 H1091 0.984 . S
N1085 C1078 1.356 . S
N1085 H1088 0.984 . S
N1085 H1089 0.985 . S
H1086 N1081 0.984 . S
H1087 N1081 0.985 . S
H1088 N1085 0.984 . S
H1089 N1085 0.985 . S
H1090 N1084 0.984 . S
H1091 N1084 0.984 . S
H1092 N1080 0.984 . S
H1093 N1080 0.985 . S
C1094 C1095 1.363 . S
C1094 C1100 1.379 . S
C1094 N1102 1.356 . S
C1095 C1094 1.363 . S
C1095 C1101 1.363 . S
C1096 C1097 1.363 . S
C1096 C1101 1.379 . S
C1096 N1103 1.356 . S
C1097 C1096 1.363 . S
C1097 C1100 1.363 . S
N1098 C1100 1.356 . S
N1098 H1110 0.984 . S
N1098 H1111 0.985 . S
N1099 C1101 1.356 . S
N1099 H1104 0.984 . S
N1099 H1105 0.985 . S
C1100 C1094 1.379 . S
C1100 C1097 1.363 . S
C1100 N1098 1.356 . S
C1101 C1095 1.363 . S
C1101 C1096 1.379 . S
C1101 N1099 1.356 . S
N1102 C1094 1.356 . S
N1102 H1108 0.984 . S
N1102 H1109 0.984 . S
N1103 C1096 1.356 . S
N1103 H1106 0.984 . S
N1103 H1107 0.985 . S
H1104 N1099 0.984 . S
H1105 N1099 0.985 . S
H1106 N1103 0.984 . S
H1107 N1103 0.985 . S
H1108 N1102 0.984 . S
H1109 N1102 0.984 . S
H1110 N1098 0.984 . S
H1111 N1098 0.985 . S
C1112 C1113 1.363 . S
C1112 C1118 1.379 . S
C1112 N1120 1.356 . S
C1113 C1112 1.363 . S
C1113 C1119 1.363 . S
C1114 C1115 1.363 . S
C1114 C1119 1.379 . S
C1114 N1121 1.356 . S
C1115 C1114 1.363 . S
C1115 C1118 1.363 . S
N1116 C1118 1.356 . S
N1116 H1128 0.984 . S
N1116 H1129 0.985 . S
N1117 C1119 1.356 . S
N1117 H1122 0.984 . S
N1117 H1123 0.985 . S
C1118 C1112 1.379 . S
C1118 C1115 1.363 . S
C1118 N1116 1.356 . S
C1119 C1113 1.363 . S
C1119 C1114 1.379 . S
C1119 N1117 1.356 . S
N1120 C1112 1.356 . S
N1120 H1126 0.984 . S
N1120 H1127 0.984 . S
N1121 C1114 1.356 . S
N1121 H1124 0.984 . S
N1121 H1125 0.985 . S
H1122 N1117 0.984 . S
H1123 N1117 0.985 . S
H1124 N1121 0.984 . S
H1125 N1121 0.985 . S
H1126 N1120 0.984 . S
H1127 N1120 0.984 . S
H1128 N1116 0.984 . S
H1129 N1116 0.985 . S
C1130 C1131 1.363 . S
C1130 C1136 1.379 . S
C1130 N1138 1.356 . S
C1131 C1130 1.363 . S
C1131 C1137 1.363 . S
C1132 C1133 1.363 . S
C1132 C1137 1.379 . S
C1132 N1139 1.356 . S
C1133 C1132 1.363 . S
C1133 C1136 1.363 . S
N1134 C1136 1.356 . S
N1134 H1146 0.984 . S
N1134 H1147 0.985 . S
N1135 C1137 1.356 . S
N1135 H1140 0.984 . S
N1135 H1141 0.985 . S
C1136 C1130 1.379 . S
C1136 C1133 1.363 . S
C1136 N1134 1.356 . S
C1137 C1131 1.363 . S
C1137 C1132 1.379 . S
C1137 N1135 1.356 . S
N1138 C1130 1.356 . S
N1138 H1144 0.984 . S
N1138 H1145 0.984 . S
N1139 C1132 1.356 . S
N1139 H1142 0.984 . S
N1139 H1143 0.985 . S
H1140 N1135 0.984 . S
H1141 N1135 0.985 . S
H1142 N1139 0.984 . S
H1143 N1139 0.985 . S
H1144 N1138 0.984 . S
H1145 N1138 0.984 . S
H1146 N1134 0.984 . S
H1147 N1134 0.985 . S
C1148 C1149 1.363 . S
C1148 C1154 1.379 . S
C1148 N1156 1.356 . S
C1149 C1148 1.363 . S
C1149 C1155 1.363 . S
C1150 C1151 1.363 . S
C1150 C1155 1.379 . S
C1150 N1157 1.356 . S
C1151 C1150 1.363 . S
C1151 C1154 1.363 . S
N1152 C1154 1.356 . S
N1152 H1164 0.984 . S
N1152 H1165 0.985 . S
N1153 C1155 1.356 . S
N1153 H1158 0.984 . S
N1153 H1159 0.985 . S
C1154 C1148 1.379 . S
C1154 C1151 1.363 . S
C1154 N1152 1.356 . S
C1155 C1149 1.363 . S
C1155 C1150 1.379 . S
C1155 N1153 1.356 . S
N1156 C1148 1.356 . S
N1156 H1162 0.984 . S
N1156 H1163 0.984 . S
N1157 C1150 1.356 . S
N1157 H1160 0.984 . S
N1157 H1161 0.985 . S
H1158 N1153 0.984 . S
H1159 N1153 0.985 . S
H1160 N1157 0.984 . S
H1161 N1157 0.985 . S
H1162 N1156 0.984 . S
H1163 N1156 0.984 . S
H1164 N1152 0.984 . S
H1165 N1152 0.985 . S
C1166 C1167 1.363 . S
C1166 C1172 1.379 . S
C1166 N1174 1.356 . S
C1167 C1166 1.363 . S
C1167 C1173 1.363 . S
C1168 C1169 1.363 . S
C1168 C1173 1.379 . S
C1168 N1175 1.356 . S
C1169 C1168 1.363 . S
C1169 C1172 1.363 . S
N1170 C1172 1.356 . S
N1170 H1182 0.984 . S
N1170 H1183 0.985 . S
N1171 C1173 1.356 . S
N1171 H1176 0.984 . S
N1171 H1177 0.985 . S
C1172 C1166 1.379 . S
C1172 C1169 1.363 . S
C1172 N1170 1.356 . S
C1173 C1167 1.363 . S
C1173 C1168 1.379 . S
C1173 N1171 1.356 . S
N1174 C1166 1.356 . S
N1174 H1180 0.984 . S
N1174 H1181 0.984 . S
N1175 C1168 1.356 . S
N1175 H1178 0.984 . S
N1175 H1179 0.985 . S
H1176 N1171 0.984 . S
H1177 N1171 0.985 . S
H1178 N1175 0.984 . S
H1179 N1175 0.985 . S
H1180 N1174 0.984 . S
H1181 N1174 0.984 . S
H1182 N1170 0.984 . S
H1183 N1170 0.985 . S
C321 C6 1.195 . S
C323 C39 1.209 . S
C339 C49 1.104 . S
C341 C36 1.095 . S
C357 C76 1.022 . S
C359 C46 0.984 . S
C375 C9 1.177 . S
C377 C79 1.160 . S
C393 C1 1.177 . S
C395 C188 1.159 1_545 S
C411 C156 1.186 . S
C413 C28 1.205 . S
C429 C41 1.232 . S
C431 C206 1.189 . S
C447 C66 1.049 . S
C449 C276 1.060 . S
C465 C161 1.095 . S
C467 C26 1.083 . S
C483 C246 1.069 . S
C485 C56 1.063 . S
C501 C296 1.161 . S
C503 C68 1.194 . S
C519 C16 1.195 . S
C521 C228 1.209 . S
C537 C19 1.339 . S
C539 C179 1.405 1_554 S
C555 C249 1.568 . S
C557 C81 1.593 . S
C573 C108 1.445 . S
C575 C299 1.385 . S
C591 C221 1.468 . S
C593 C129 1.466 . S
C609 C48 1.413 . S
C611 C148 1.359 . S
C627 C181 1.529 . S
C629 C89 1.512 . S
C645 C121 1.568 . S
C647 C209 1.593 . S
C663 C101 1.104 . S
C665 C226 1.095 . S
C681 C186 1.022 . S
C683 C116 0.984 . S
C699 C239 1.205 . S
C701 C146 1.186 . S
C717 C109 1.232 . S
C719 C96 1.189 . S
C735 C196 1.049 . S
C737 C166 1.060 . S
C753 C269 1.095 . S
C755 C236 1.084 . S
C771 C136 1.069 . S
C773 C106 1.063 . S
C789 C199 1.194 . S
C791 C286 1.161 . S
C807 C268 1.405 . S
C809 C8 1.339 1_556 S
C825 C59 1.444 . S
C827 C288 1.385 . S
C843 C241 1.466 . S
C845 C29 1.468 . S
C861 C159 1.359 . S
C863 C119 1.413 . S
C879 C69 1.529 . S
C881 C201 1.512 . S
C897 C256 1.047 . S
C899 C266 1.036 . S
C915 C149 1.519 . S
C917 C259 1.465 . S
C933 C128 1.465 . S
C935 C141 1.519 . S
C951 C86 1.104 . S
C953 C261 1.102 . S
C969 C248 1.458 . S
C971 C301 1.505 . S
C987 C308 1.392 1_556 S
C989 C168 1.435 . S
C1005 C21 1.458 . S
C1007 C189 1.426 . S
C1023 C176 1.036 . S
C1025 C126 1.047 . S
C1041 C169 1.102 . S
C1043 C216 1.104 . S
C1059 C309 1.505 . S
C1061 C139 1.457 . S
C1077 C279 1.435 1_554 S
C1079 C319 1.392 . S
C1095 C229 1.458 . S
C1097 C61 1.426 . S
C1113 C219 1.555 . S
C1115 C289 1.607 . S
C1131 C208 1.477 . S
C1133 C316 1.485 . S
C1149 C88 1.555 . S
C1151 C281 1.607 . S
C1167 C306 1.485 . S
C1169 C99 1.477 . S
