# Generated by pormake.
# Topology sxg, (6)-cn, num edge types: 1
# Building blocks:
#     Node 0, Type 0, BuildingBlock: MIDCAF_clean_sbu_0, # of connection points: 6
#     Node 1, Type 0, BuildingBlock: MIDCAF_clean_sbu_0, # of connection points: 6
#     Node 2, Type 0, BuildingBlock: MIDCAF_clean_sbu_0, # of connection points: 6
#     Node 3, Type 0, BuildingBlock: MIDCAF_clean_sbu_0, # of connection points: 6
#     Node 4, Type 0, BuildingBlock: MIDCAF_clean_sbu_0, # of connection points: 6
#     Node 5, Type 0, BuildingBlock: MIDCAF_clean_sbu_0, # of connection points: 6
#     Node 6, Type 0, BuildingBlock: MIDCAF_clean_sbu_0, # of connection points: 6
#     Node 7, Type 0, BuildingBlock: MIDCAF_clean_sbu_0, # of connection points: 6
#     Node 8, Type 0, BuildingBlock: MIDCAF_clean_sbu_0, # of connection points: 6
#     Node 9, Type 0, BuildingBlock: MIDCAF_clean_sbu_0, # of connection points: 6
#     Node 10, Type 0, BuildingBlock: MIDCAF_clean_sbu_0, # of connection points: 6
#     Node 11, Type 0, BuildingBlock: MIDCAF_clean_sbu_0, # of connection points: 6
#     Node 12, Type 0, BuildingBlock: MIDCAF_clean_sbu_0, # of connection points: 6
#     Node 13, Type 0, BuildingBlock: MIDCAF_clean_sbu_0, # of connection points: 6
#     Node 14, Type 0, BuildingBlock: MIDCAF_clean_sbu_0, # of connection points: 6
#     Node 15, Type 0, BuildingBlock: MIDCAF_clean_sbu_0, # of connection points: 6
#     Node 16, Type 0, BuildingBlock: MIDCAF_clean_sbu_0, # of connection points: 6
#     Node 17, Type 0, BuildingBlock: MIDCAF_clean_sbu_0, # of connection points: 6
#     Node 18, Type 0, BuildingBlock: MIDCAF_clean_sbu_0, # of connection points: 6
#     Node 19, Type 0, BuildingBlock: MIDCAF_clean_sbu_0, # of connection points: 6
#     Node 20, Type 0, BuildingBlock: MIDCAF_clean_sbu_0, # of connection points: 6
#     Node 21, Type 0, BuildingBlock: MIDCAF_clean_sbu_0, # of connection points: 6
#     Node 22, Type 0, BuildingBlock: MIDCAF_clean_sbu_0, # of connection points: 6
#     Node 23, Type 0, BuildingBlock: MIDCAF_clean_sbu_0, # of connection points: 6
#     Edge 24, Type (0, 0), None
#     Edge 25, Type (0, 0), None
#     Edge 26, Type (0, 0), None
#     Edge 27, Type (0, 0), None
#     Edge 28, Type (0, 0), None
#     Edge 29, Type (0, 0), None
#     Edge 30, Type (0, 0), None
#     Edge 31, Type (0, 0), None
#     Edge 32, Type (0, 0), None
#     Edge 33, Type (0, 0), None
#     Edge 34, Type (0, 0), None
#     Edge 35, Type (0, 0), None
#     Edge 36, Type (0, 0), None
#     Edge 37, Type (0, 0), None
#     Edge 38, Type (0, 0), None
#     Edge 39, Type (0, 0), None
#     Edge 40, Type (0, 0), None
#     Edge 41, Type (0, 0), None
#     Edge 42, Type (0, 0), None
#     Edge 43, Type (0, 0), None
#     Edge 44, Type (0, 0), None
#     Edge 45, Type (0, 0), None
#     Edge 46, Type (0, 0), None
#     Edge 47, Type (0, 0), None
#     Edge 48, Type (0, 0), None
#     Edge 49, Type (0, 0), None
#     Edge 50, Type (0, 0), None
#     Edge 51, Type (0, 0), None
#     Edge 52, Type (0, 0), None
#     Edge 53, Type (0, 0), None
#     Edge 54, Type (0, 0), None
#     Edge 55, Type (0, 0), None
#     Edge 56, Type (0, 0), None
#     Edge 57, Type (0, 0), None
#     Edge 58, Type (0, 0), None
#     Edge 59, Type (0, 0), None
#     Edge 60, Type (0, 0), None
#     Edge 61, Type (0, 0), None
#     Edge 62, Type (0, 0), None
#     Edge 63, Type (0, 0), None
#     Edge 64, Type (0, 0), None
#     Edge 65, Type (0, 0), None
#     Edge 66, Type (0, 0), None
#     Edge 67, Type (0, 0), None
#     Edge 68, Type (0, 0), None
#     Edge 69, Type (0, 0), None
#     Edge 70, Type (0, 0), None
#     Edge 71, Type (0, 0), None
#     Edge 72, Type (0, 0), None
#     Edge 73, Type (0, 0), None
#     Edge 74, Type (0, 0), None
#     Edge 75, Type (0, 0), None
#     Edge 76, Type (0, 0), None
#     Edge 77, Type (0, 0), None
#     Edge 78, Type (0, 0), None
#     Edge 79, Type (0, 0), None
#     Edge 80, Type (0, 0), None
#     Edge 81, Type (0, 0), None
#     Edge 82, Type (0, 0), None
#     Edge 83, Type (0, 0), None
#     Edge 84, Type (0, 0), None
#     Edge 85, Type (0, 0), None
#     Edge 86, Type (0, 0), None
#     Edge 87, Type (0, 0), None
#     Edge 88, Type (0, 0), None
#     Edge 89, Type (0, 0), None
#     Edge 90, Type (0, 0), None
#     Edge 91, Type (0, 0), None
#     Edge 92, Type (0, 0), None
#     Edge 93, Type (0, 0), None
#     Edge 94, Type (0, 0), None
#     Edge 95, Type (0, 0), None
# Relax obj value: 0.318
# Max RMSD: 0.255
# Mean RMSD: 0.255
data_MOF--net-sxg--node1-MIDCAF_clean_sbu_0--edge1-none
_symmetry_space_group_name_H-M    P1
_symmetry_Int_Tables_number       1
_symmetry_cell_setting            triclinic
loop_
_symmetry_equiv_pos_as_xyz
'x, y, z'
_cell_length_a     21.325831
_cell_length_b     18.974421
_cell_length_c     20.326128
_cell_angle_alpha  90.0
_cell_angle_beta   90.0
_cell_angle_gamma 90.0
loop_
_atom_site_label
_atom_site_type_symbol
_atom_site_fract_x
_atom_site_fract_y
_atom_site_fract_z
_atom_type_partial_charge
Zn0 Zn 0.0017 0.51013 0.29706 0.0
Zn1 Zn 0.08154 0.3247 0.07597 0.0
Zn2 Zn 0.05049 0.3789 0.17421 0.0
C3 C 0.19244 0.33769 0.11542 0.0
C4 C -0.00562 0.40232 0.02556 0.0
O5 O -0.00463 0.33532 0.25859 0.0
O6 O 0.95978 0.4205 0.32756 0.0
C7 C 0.11863 0.46412 0.24399 0.0
O8 O 0.15622 0.35509 0.16384 0.0
O9 O 0.17027 0.33965 0.05829 0.0
O10 O 0.03165 0.35748 0.00233 0.0
O11 O -0.00472 0.41562 0.08795 0.0
O12 O 0.06068 0.46507 0.24547 0.0
O13 O 0.14249 0.42308 0.20215 0.0
O14 O -0.02846 0.46015 0.15022 0.0
O15 O 0.95935 0.55196 0.21993 0.0
C16 C 0.94401 0.51874 0.16809 0.0
O17 O 0.03245 0.28055 0.22002 0.0
O18 O 0.06554 0.2327 0.12754 0.0
C19 C 0.96211 0.35659 0.30827 0.0
C20 C 0.04975 0.22622 0.18761 0.0
Zn21 Zn 0.353 0.72566 0.57597 0.0
Zn22 Zn 0.43284 0.54023 0.79706 0.0
Zn23 Zn 0.38406 0.67147 0.67421 0.0
C24 C 0.49053 0.53162 0.66809 0.0
C25 C 0.31592 0.58625 0.74399 0.0
O26 O 0.4021 0.76981 0.72002 0.0
O27 O 0.369 0.81766 0.62754 0.0
C28 C 0.44017 0.64804 0.52556 0.0
O29 O 0.46301 0.59021 0.65022 0.0
O30 O 0.4752 0.4984 0.71993 0.0
O31 O 0.37387 0.58529 0.74547 0.0
O32 O 0.29206 0.62729 0.70215 0.0
O33 O 0.4029 0.69289 0.50233 0.0
O34 O 0.43927 0.63475 0.58795 0.0
O35 O 0.27833 0.69527 0.66384 0.0
O36 O 0.26427 0.71071 0.55829 0.0
C37 C 0.24211 0.71267 0.61542 0.0
O38 O 0.43918 0.71504 0.75859 0.0
O39 O 0.47476 0.62986 0.82756 0.0
C40 C 0.38479 0.82414 0.68761 0.0
C41 C 0.47243 0.69377 0.80827 0.0
Zn42 Zn 0.5017 0.04023 0.68345 0.0
Zn43 Zn 0.58154 0.22566 0.90454 0.0
Zn44 Zn 0.55049 0.17147 0.8063 0.0
C45 C 0.69244 0.21267 0.86509 0.0
C46 C 0.49438 0.14804 0.95496 0.0
O47 O 0.49537 0.21504 0.72192 0.0
O48 O 0.45978 0.12986 0.65295 0.0
C49 C 0.61863 0.08625 0.73652 0.0
O50 O 0.65622 0.19527 0.81667 0.0
O51 O 0.67027 0.21071 0.92222 0.0
O52 O 0.53165 0.19289 0.97818 0.0
O53 O 0.49528 0.13475 0.89257 0.0
O54 O 0.56068 0.08529 0.73504 0.0
O55 O 0.64249 0.12729 0.77836 0.0
O56 O 0.47154 0.09021 0.83029 0.0
O57 O 0.45935 0.9984 0.76058 0.0
C58 C 0.44401 0.03162 0.81242 0.0
O59 O 0.53245 0.26981 0.76049 0.0
O60 O 0.56554 0.31766 0.85297 0.0
C61 C 0.46211 0.19377 0.67224 0.0
C62 C 0.54975 0.32414 0.7929 0.0
Zn63 Zn 0.93284 1.01013 0.18345 0.0
Zn64 Zn 0.853 0.8247 0.40454 0.0
Zn65 Zn 0.88406 0.8789 0.3063 0.0
C66 C 0.74211 0.83769 0.36509 0.0
C67 C 0.94017 0.90232 0.45496 0.0
O68 O 0.93918 0.83532 0.22192 0.0
O69 O -0.02524 0.9205 0.15295 0.0
C70 C 0.81592 0.96412 0.23652 0.0
O71 O 0.77833 0.85509 0.31667 0.0
O72 O 0.76427 0.83965 0.42222 0.0
O73 O 0.9029 0.85748 0.47818 0.0
O74 O 0.93927 0.91562 0.39257 0.0
O75 O 0.87387 0.96507 0.23504 0.0
O76 O 0.79206 0.92308 0.27836 0.0
O77 O 0.96301 0.96015 0.33029 0.0
O78 O -0.0248 0.05196 0.26058 0.0
C79 C -0.00947 1.01874 0.31242 0.0
O80 O 0.9021 0.78055 0.26049 0.0
O81 O 0.869 0.7327 0.35297 0.0
C82 C -0.02757 0.85659 0.17224 0.0
C83 C 0.88479 0.72622 0.2929 0.0
Zn84 Zn 0.14315 0.05101 0.22897 0.0
Zn85 Zn 0.2542 0.06011 0.39789 0.0
Zn86 Zn 0.172 0.10255 0.33866 0.0
C87 C 0.17281 0.98933 0.44833 0.0
C88 C 0.24952 0.19421 0.4378 0.0
O89 O 0.24317 0.17645 0.31015 0.0
O90 O 0.22697 0.11509 0.22012 0.0
C91 C 0.0556 0.03457 0.3322 0.0
O92 O 0.14964 0.04919 0.4317 0.0
O93 O 0.22178 0.96695 0.42155 0.0
O94 O 0.25493 0.136 0.46705 0.0
O95 O 0.22801 0.193 0.37867 0.0
O96 O 0.09718 0.99472 0.30714 0.0
O97 O 0.0718 0.09917 0.33916 0.0
O98 O 0.09598 0.16284 0.27886 0.0
O99 O 0.08188 0.10913 0.18333 0.0
C100 C 0.07111 0.16113 0.22052 0.0
O101 O 0.22246 1.00995 0.29346 0.0
O102 O 0.31448 0.04756 0.32765 0.0
C103 C 0.25918 0.16127 0.25122 0.0
C104 C 0.28229 1.00765 0.29074 0.0
Zn105 Zn 0.18035 0.99025 0.89789 0.0
Zn106 Zn 0.2914 0.99935 0.72897 0.0
Zn107 Zn 0.26255 0.94781 0.83866 0.0
C108 C 0.36344 0.88924 0.72052 0.0
C109 C 0.37895 1.01579 0.8322 0.0
O110 O 0.21209 0.04041 0.79346 0.0
O111 O 0.12007 1.0028 0.82765 0.0
C112 C 0.18502 0.85615 0.9378 0.0
O113 O 0.33857 0.88752 0.77886 0.0
O114 O 0.35266 0.94123 0.68333 0.0
O115 O 0.33737 0.05564 0.80714 0.0
O116 O 0.36275 0.95119 0.83916 0.0
O117 O 0.17962 0.91436 0.96705 0.0
O118 O 0.20653 0.85736 0.87867 0.0
O119 O 0.28491 1.00117 0.9317 0.0
O120 O 0.21276 0.08341 0.92155 0.0
C121 C 0.26174 0.06103 0.94833 0.0
O122 O 0.19137 0.87391 0.81015 0.0
O123 O 0.20758 0.93527 0.72012 0.0
C124 C 0.15225 0.04271 0.79074 0.0
C125 C 0.17537 0.88909 0.75122 0.0
Zn126 Zn 0.7542 0.49025 0.58262 0.0
Zn127 Zn 0.64315 0.49935 0.75154 0.0
Zn128 Zn 0.672 0.44781 0.64185 0.0
C129 C 0.57111 0.38924 0.75999 0.0
C130 C 0.5556 0.51579 0.64831 0.0
O131 O 0.72246 0.54041 0.68705 0.0
O132 O 0.81448 0.5028 0.65286 0.0
C133 C 0.74952 0.35615 0.54271 0.0
O134 O 0.59598 0.38752 0.70165 0.0
O135 O 0.58188 0.44123 0.79718 0.0
O136 O 0.59718 0.55564 0.67337 0.0
O137 O 0.5718 0.45119 0.64135 0.0
O138 O 0.75493 0.41436 0.51346 0.0
O139 O 0.72801 0.35736 0.60184 0.0
O140 O 0.64964 0.50117 0.54881 0.0
O141 O 0.72178 0.58341 0.55896 0.0
C142 C 0.67281 0.56103 0.53218 0.0
O143 O 0.74317 0.37391 0.67036 0.0
O144 O 0.72697 0.43527 0.76039 0.0
C145 C 0.78229 0.54271 0.68977 0.0
C146 C 0.75918 0.38909 0.72929 0.0
Zn147 Zn 0.7914 0.55101 0.25154 0.0
Zn148 Zn 0.68035 0.56011 0.08262 0.0
Zn149 Zn 0.76255 0.60255 0.14185 0.0
C150 C 0.76174 0.48933 0.03218 0.0
C151 C 0.68502 0.69421 0.04271 0.0
O152 O 0.69137 0.67645 0.17036 0.0
O153 O 0.70758 0.61509 0.26039 0.0
C154 C 0.87895 0.53457 0.14831 0.0
O155 O 0.78491 0.54919 0.04881 0.0
O156 O 0.71276 0.46695 0.05896 0.0
O157 O 0.67962 0.636 0.01346 0.0
O158 O 0.70653 0.693 0.10184 0.0
O159 O 0.83737 0.49472 0.17337 0.0
O160 O 0.86275 0.59917 0.14135 0.0
O161 O 0.83857 0.66284 0.20165 0.0
O162 O 0.85266 0.60913 0.29718 0.0
C163 C 0.86344 0.66113 0.25999 0.0
O164 O 0.71209 0.50995 0.18705 0.0
O165 O 0.62007 0.54756 0.15286 0.0
C166 C 0.67537 0.66127 0.22929 0.0
C167 C 0.65225 0.50765 0.18977 0.0
Zn168 Zn 0.29108 0.13111 0.12596 0.0
Zn169 Zn 0.40947 0.25836 0.99022 0.0
Zn170 Zn 0.3453 0.20933 0.0755 0.0
C171 C 0.43593 0.13847 -0.00918 0.0
C172 C 0.4303 0.306 0.13006 0.0
O173 O 0.2994 0.29555 0.12851 0.0
O174 O 0.22361 0.21818 0.11738 0.0
C175 C 0.28349 0.09852 0.00513 0.0
O176 O 0.43369 0.15605 0.05151 0.0
O177 O 0.39032 0.15754 0.95674 0.0
O178 O 0.45654 0.29096 0.0756 0.0
O179 O 0.37252 0.28986 0.1398 0.0
O180 O 0.30592 0.06419 0.05251 0.0
O181 O 0.2777 0.16562 0.00951 0.0
O182 O 0.32862 0.22968 0.18615 0.0
O183 O 0.35037 0.12204 0.20473 0.0
C184 C 0.32329 0.17687 0.22486 0.0
O185 O 0.28295 0.25109 -0.00511 0.0
O186 O 0.35203 0.32509 0.95298 0.0
C187 C 0.2401 0.28258 0.12467 0.0
C188 C 0.29612 0.30417 0.95773 0.0
Zn189 Zn 0.90947 0.292 -0.00971 0.0
Zn190 Zn 0.79108 0.41925 0.85455 0.0
Zn191 Zn 0.8453 0.34103 0.90501 0.0
C192 C 0.82329 0.37349 0.75565 0.0
C193 C 0.78349 0.45184 0.97538 0.0
O194 O 0.78295 0.29928 0.98563 0.0
O195 O 0.85203 0.22527 0.02753 0.0
C196 C 0.9303 0.24436 0.85045 0.0
O197 O 0.82862 0.32068 0.79436 0.0
O198 O 0.85037 0.42832 0.77578 0.0
O199 O 0.80592 0.48617 0.928 0.0
O200 O 0.7777 0.38474 0.97101 0.0
O201 O 0.95654 0.2594 0.90491 0.0
O202 O 0.87252 0.2605 0.84071 0.0
O203 O 0.93369 0.39431 0.929 0.0
O204 O 0.89032 0.39282 0.02377 0.0
C205 C 0.93593 0.41189 0.98969 0.0
O206 O 0.7994 0.25481 0.852 0.0
O207 O 0.72361 0.33218 0.86313 0.0
C208 C 0.79612 0.24619 0.02278 0.0
C209 C 0.7401 0.26778 0.85584 0.0
Zn210 Zn 0.64347 0.63111 0.35455 0.0
Zn211 Zn 0.52508 0.75836 0.49029 0.0
Zn212 Zn 0.58925 0.70933 0.40501 0.0
C213 C 0.49861 0.63847 0.48969 0.0
C214 C 0.50425 0.806 0.35045 0.0
O215 O 0.63515 0.79555 0.352 0.0
O216 O 0.71094 0.71818 0.36313 0.0
C217 C 0.65106 0.59852 0.47538 0.0
O218 O 0.50086 0.65605 0.429 0.0
O219 O 0.54422 0.65754 0.52377 0.0
O220 O 0.478 0.79096 0.40491 0.0
O221 O 0.56202 0.78986 0.34071 0.0
O222 O 0.62863 0.56419 0.428 0.0
O223 O 0.65685 0.66562 0.47101 0.0
O224 O 0.60592 0.72968 0.29436 0.0
O225 O 0.58418 0.62204 0.27578 0.0
C226 C 0.61126 0.67687 0.25565 0.0
O227 O 0.6516 0.75109 0.48563 0.0
O228 O 0.58251 0.82509 0.52753 0.0
C229 C 0.69445 0.78258 0.35584 0.0
C230 C 0.63842 0.80417 0.52278 0.0
Zn231 Zn 0.14347 0.91925 0.62596 0.0
Zn232 Zn 0.02508 0.792 0.49022 0.0
Zn233 Zn 0.08925 0.84103 0.5755 0.0
C234 C -0.00139 0.91189 0.49082 0.0
C235 C 0.00425 0.74436 0.63006 0.0
O236 O 0.13515 0.75481 0.62851 0.0
O237 O 0.21094 0.83218 0.61738 0.0
C238 C 0.15106 0.95184 0.50513 0.0
O239 O 0.00086 0.89431 0.55151 0.0
O240 O 0.04422 0.89282 0.45674 0.0
O241 O -0.022 0.7594 0.5756 0.0
O242 O 0.06202 0.7605 0.6398 0.0
O243 O 0.12863 0.98617 0.55251 0.0
O244 O 0.15685 0.88474 0.50951 0.0
O245 O 0.10592 0.82068 0.68615 0.0
O246 O 0.08418 0.92832 0.70473 0.0
C247 C 0.11126 0.87349 0.72486 0.0
O248 O 0.1516 0.79928 0.49489 0.0
O249 O 0.08251 0.72527 0.45298 0.0
C250 C 0.19445 0.76778 0.62467 0.0
C251 C 0.13842 0.74619 0.45773 0.0
Zn252 Zn 0.85297 0.72567 0.90456 0.0
Zn253 Zn 0.93287 0.54024 0.68349 0.0
Zn254 Zn 0.88404 0.67147 0.80632 0.0
C255 C -0.0095 0.5316 0.81246 0.0
C256 C 0.81592 0.58627 0.7365 0.0
O257 O 0.90209 0.76982 0.76052 0.0
O258 O 0.86897 0.81767 0.85299 0.0
C259 C 0.94013 0.64803 0.95499 0.0
O260 O 0.96299 0.59021 0.83031 0.0
O261 O -0.02486 0.49834 0.76065 0.0
O262 O 0.87387 0.58534 0.73502 0.0
O263 O 0.79205 0.62729 0.77835 0.0
O264 O 0.90287 0.6929 0.9782 0.0
O265 O 0.93922 0.63473 0.8926 0.0
O266 O 0.77831 0.69526 0.81668 0.0
O267 O 0.76423 0.71069 0.92222 0.0
C268 C 0.74207 0.71266 0.86509 0.0
O269 O 0.93918 0.71506 0.72197 0.0
O270 O -0.02516 0.62986 0.65305 0.0
C271 C 0.88478 0.82415 0.79292 0.0
C272 C -0.02751 0.69378 0.67233 0.0
Zn273 Zn 0.58158 0.32469 0.40456 0.0
Zn274 Zn 0.50168 0.51012 0.18349 0.0
Zn275 Zn 0.55051 0.37889 0.30632 0.0
C276 C 0.44404 0.51876 0.31246 0.0
C277 C 0.61863 0.46409 0.2365 0.0
O278 O 0.53246 0.28054 0.26052 0.0
O279 O 0.56558 0.23269 0.35299 0.0
C280 C 0.49442 0.40233 0.45499 0.0
O281 O 0.47156 0.46015 0.33031 0.0
O282 O 0.45941 0.55202 0.26065 0.0
O283 O 0.56068 0.46502 0.23502 0.0
O284 O 0.6425 0.42307 0.27835 0.0
O285 O 0.53168 0.35746 0.4782 0.0
O286 O 0.49532 0.41563 0.3926 0.0
O287 O 0.65624 0.3551 0.31668 0.0
O288 O 0.67031 0.33967 0.42222 0.0
C289 C 0.69247 0.3377 0.36509 0.0
O290 O 0.49537 0.33531 0.22197 0.0
O291 O 0.45971 0.4205 0.15305 0.0
C292 C 0.54977 0.22622 0.29292 0.0
C293 C 0.46205 0.35659 0.17233 0.0
Zn294 Zn 0.35297 0.82469 0.07595 0.0
Zn295 Zn 0.43287 1.01012 0.29702 0.0
Zn296 Zn 0.38404 0.87889 0.17419 0.0
C297 C 0.4905 1.01876 0.16805 0.0
C298 C 0.31592 0.96409 0.24402 0.0
O299 O 0.40209 0.78054 0.21999 0.0
O300 O 0.36897 0.73269 0.12752 0.0
C301 C 0.44013 0.90233 0.02553 0.0
O302 O 0.46299 0.96015 0.15021 0.0
O303 O 0.47514 0.05202 0.21987 0.0
O304 O 0.37387 0.96502 0.24549 0.0
O305 O 0.29205 0.92307 0.20216 0.0
O306 O 0.40287 0.85746 0.00231 0.0
O307 O 0.43922 0.91563 0.08791 0.0
O308 O 0.27831 0.8551 0.16384 0.0
O309 O 0.26423 0.83967 0.05829 0.0
C310 C 0.24207 0.8377 0.11542 0.0
O311 O 0.43918 0.83531 0.25854 0.0
O312 O 0.47484 0.9205 0.32746 0.0
C313 C 0.38478 0.72622 0.18759 0.0
C314 C 0.47249 0.85659 0.30818 0.0
Zn315 Zn 0.00168 0.04024 0.79702 0.0
Zn316 Zn 0.08158 0.22567 0.57595 0.0
Zn317 Zn 0.05051 0.17147 0.67419 0.0
C318 C 0.19247 0.21266 0.61542 0.0
C319 C -0.00558 0.14803 0.52553 0.0
O320 O -0.00463 0.21506 0.75854 0.0
O321 O 0.95971 0.12986 0.82746 0.0
C322 C 0.11863 0.08627 0.74402 0.0
O323 O 0.15624 0.19526 0.66384 0.0
O324 O 0.17031 0.21069 0.55829 0.0
O325 O 0.03168 0.1929 0.50231 0.0
O326 O -0.00468 0.13473 0.58791 0.0
O327 O 0.06068 0.08534 0.74549 0.0
O328 O 0.1425 0.12729 0.70216 0.0
O329 O -0.02844 0.09021 0.65021 0.0
O330 O 0.95941 0.99834 0.71987 0.0
C331 C 0.94404 0.0316 0.66805 0.0
O332 O 0.03246 0.26982 0.71999 0.0
O333 O 0.06558 0.31767 0.62752 0.0
C334 C 0.96205 0.19378 0.80818 0.0
C335 C 0.04977 0.32415 0.68759 0.0
Zn336 Zn 0.68036 0.9903 0.5826 0.0
Zn337 Zn 0.79141 0.99935 0.75153 0.0
Zn338 Zn 0.76256 0.94782 0.64185 0.0
C339 C 0.86344 0.88924 0.76 0.0
C340 C 0.87897 1.01578 0.6483 0.0
O341 O 0.71209 0.04042 0.68706 0.0
O342 O 0.62008 1.00282 0.65284 0.0
C343 C 0.68505 0.85625 0.54267 0.0
O344 O 0.83856 0.88752 0.70166 0.0
O345 O 0.85267 0.94124 0.79719 0.0
O346 O 0.8374 0.05564 0.67337 0.0
O347 O 0.86275 0.95118 0.64135 0.0
O348 O 0.67963 0.91445 0.51341 0.0
O349 O 0.70654 0.85738 0.60181 0.0
O350 O 0.78492 1.00117 0.5488 0.0
O351 O 0.71283 0.08346 0.559 0.0
C352 C 0.76177 0.06104 0.53218 0.0
O353 O 0.69137 0.87391 0.67034 0.0
O354 O 0.70758 0.93527 0.76038 0.0
C355 C 0.65226 0.04272 0.68977 0.0
C356 C 0.67537 0.88909 0.72927 0.0
Zn357 Zn 0.64314 0.05101 0.25153 0.0
Zn358 Zn 0.75418 0.06006 0.0826 0.0
Zn359 Zn 0.67199 0.10255 0.14185 0.0
C360 C 0.67277 0.98932 0.03218 0.0
C361 C 0.7495 0.19412 0.04267 0.0
O362 O 0.74318 0.17645 0.17034 0.0
O363 O 0.72697 0.1151 0.26038 0.0
C364 C 0.55558 0.03458 0.1483 0.0
O365 O 0.64963 0.04919 0.0488 0.0
O366 O 0.72172 0.9669 0.059 0.0
O367 O 0.75491 0.13591 0.01341 0.0
O368 O 0.72801 0.19298 0.10181 0.0
O369 O 0.59715 0.99472 0.17337 0.0
O370 O 0.57179 0.09918 0.14135 0.0
O371 O 0.59599 0.16284 0.20166 0.0
O372 O 0.58188 0.10912 0.29719 0.0
C373 C 0.57111 0.16112 0.26 0.0
O374 O 0.72245 1.00994 0.18706 0.0
O375 O 0.81447 0.04754 0.15284 0.0
C376 C 0.75918 0.16127 0.22927 0.0
C377 C 0.78229 1.00764 0.18977 0.0
Zn378 Zn 0.18036 0.56006 0.39791 0.0
Zn379 Zn 0.29141 0.55101 0.22898 0.0
Zn380 Zn 0.26256 0.60255 0.33866 0.0
C381 C 0.36344 0.66112 0.22051 0.0
C382 C 0.37897 0.53458 0.33221 0.0
O383 O 0.21209 0.50994 0.29345 0.0
O384 O 0.12008 0.54754 0.32767 0.0
C385 C 0.18505 0.69412 0.43785 0.0
O386 O 0.33856 0.66284 0.27885 0.0
O387 O 0.35267 0.60912 0.18332 0.0
O388 O 0.3374 0.49472 0.30714 0.0
O389 O 0.36275 0.59918 0.33917 0.0
O390 O 0.17963 0.63591 0.4671 0.0
O391 O 0.20654 0.69298 0.3787 0.0
O392 O 0.28492 0.54919 0.43171 0.0
O393 O 0.21283 0.4669 0.42151 0.0
C394 C 0.26177 0.48932 0.44833 0.0
O395 O 0.19137 0.67645 0.31017 0.0
O396 O 0.20758 0.6151 0.22014 0.0
C397 C 0.15226 0.50764 0.29074 0.0
C398 C 0.17537 0.66127 0.25124 0.0
Zn399 Zn 0.14314 0.49935 0.72898 0.0
Zn400 Zn 0.25418 0.4903 0.89791 0.0
Zn401 Zn 0.17199 0.44782 0.83866 0.0
C402 C 0.17277 0.56104 0.94833 0.0
C403 C 0.2495 0.35625 0.93785 0.0
O404 O 0.24318 0.37391 0.81017 0.0
O405 O 0.22697 0.43527 0.72014 0.0
C406 C 0.05558 0.51578 0.83221 0.0
O407 O 0.14963 0.50117 0.93171 0.0
O408 O 0.22172 0.58346 0.92151 0.0
O409 O 0.25491 0.41445 0.9671 0.0
O410 O 0.22801 0.35738 0.8787 0.0
O411 O 0.09715 0.55564 0.80714 0.0
O412 O 0.07179 0.45118 0.83917 0.0
O413 O 0.09599 0.38752 0.77885 0.0
O414 O 0.08188 0.44124 0.68332 0.0
C415 C 0.07111 0.38924 0.72051 0.0
O416 O 0.22245 0.54042 0.79345 0.0
O417 O 0.31447 0.50282 0.82767 0.0
C418 C 0.25918 0.38909 0.75124 0.0
C419 C 0.28229 0.54272 0.79074 0.0
Zn420 Zn 0.64347 0.91927 0.85453 0.0
Zn421 Zn 0.52505 0.79208 -0.00963 0.0
Zn422 Zn 0.58922 0.84106 0.90499 0.0
C423 C 0.49856 0.91194 0.98965 0.0
C424 C 0.50421 0.74437 0.85052 0.0
O425 O 0.63512 0.75481 0.852 0.0
O426 O 0.71092 0.83218 0.86311 0.0
C427 C 0.65105 0.95185 0.97536 0.0
O428 O 0.50082 0.89431 0.92897 0.0
O429 O 0.54419 0.89294 0.02374 0.0
O430 O 0.478 0.75938 0.905 0.0
O431 O 0.56198 0.76051 0.84072 0.0
O432 O 0.62864 0.98619 0.92798 0.0
O433 O 0.65681 0.88475 0.97099 0.0
O434 O 0.60591 0.82069 0.79434 0.0
O435 O 0.58418 0.92833 0.77576 0.0
C436 C 0.61125 0.8735 0.75563 0.0
O437 O 0.65158 0.79931 0.9856 0.0
O438 O 0.58249 0.7254 0.02769 0.0
C439 C 0.69442 0.76778 0.85583 0.0
C440 C 0.6384 0.7463 0.02285 0.0
Zn441 Zn 0.02505 0.75828 0.99014 0.0
Zn442 Zn 0.14347 0.6311 0.12599 0.0
Zn443 Zn 0.08922 0.70931 0.07553 0.0
C444 C 0.11125 0.67686 0.22488 0.0
C445 C 0.15105 0.59851 0.00515 0.0
O446 O 0.15158 0.75105 -0.00509 0.0
O447 O 0.08249 0.82496 0.95283 0.0
C448 C 0.00421 0.806 0.12999 0.0
O449 O 0.10591 0.72967 0.18617 0.0
O450 O 0.08418 0.62203 0.20476 0.0
O451 O 0.12864 0.56417 0.05254 0.0
O452 O 0.15681 0.66561 0.00952 0.0
O453 O -0.022 0.79098 0.07551 0.0
O454 O 0.06198 0.78985 0.13979 0.0
O455 O 0.00082 0.65605 0.05154 0.0
O456 O 0.04419 0.65742 0.95677 0.0
C457 C -0.00144 0.63842 -0.00914 0.0
O458 O 0.13512 0.79555 0.12851 0.0
O459 O 0.21092 0.71818 0.1174 0.0
C460 C 0.1384 0.80406 0.95766 0.0
C461 C 0.19442 0.78258 0.12468 0.0
Zn462 Zn 0.40949 0.29208 0.49014 0.0
Zn463 Zn 0.29108 0.41927 0.62599 0.0
Zn464 Zn 0.34533 0.34106 0.57553 0.0
C465 C 0.32329 0.3735 0.72488 0.0
C466 C 0.2835 0.45185 0.50515 0.0
O467 O 0.28297 0.29931 0.49491 0.0
O468 O 0.35206 0.2254 0.45283 0.0
C469 C 0.43034 0.24437 0.62999 0.0
O470 O 0.32864 0.32069 0.68617 0.0
O471 O 0.35037 0.42833 0.70476 0.0
O472 O 0.3059 0.48619 0.55254 0.0
O473 O 0.27773 0.38475 0.50952 0.0
O474 O 0.45655 0.25938 0.57551 0.0
O475 O 0.37257 0.26051 0.63979 0.0
O476 O 0.43373 0.39431 0.55154 0.0
O477 O 0.39036 0.39294 0.45677 0.0
C478 C 0.43598 0.41194 0.49086 0.0
O479 O 0.29943 0.25481 0.62851 0.0
O480 O 0.22363 0.33218 0.6174 0.0
C481 C 0.29615 0.2463 0.45766 0.0
C482 C 0.24013 0.26778 0.62468 0.0
Zn483 Zn 0.90949 0.25828 0.49037 0.0
Zn484 Zn 0.79108 0.1311 0.35453 0.0
Zn485 Zn 0.84533 0.20931 0.40499 0.0
C486 C 0.82329 0.17686 0.25563 0.0
C487 C 0.7835 0.09851 0.47536 0.0
O488 O 0.78297 0.25105 0.4856 0.0
O489 O 0.85206 0.32496 0.52769 0.0
C490 C 0.93034 0.306 0.35052 0.0
O491 O 0.82864 0.22967 0.29434 0.0
O492 O 0.85037 0.12203 0.27576 0.0
O493 O 0.8059 0.06417 0.42798 0.0
O494 O 0.77773 0.16561 0.47099 0.0
O495 O 0.95655 0.29098 0.405 0.0
O496 O 0.87257 0.28985 0.34072 0.0
O497 O 0.93373 0.15605 0.42897 0.0
O498 O 0.89036 0.15742 0.52374 0.0
C499 C 0.93598 0.13842 0.48965 0.0
O500 O 0.79943 0.29555 0.352 0.0
O501 O 0.72363 0.21818 0.36311 0.0
C502 C 0.79615 0.30406 0.52285 0.0
C503 C 0.74013 0.28258 0.35583 0.0
loop_
_geom_bond_atom_site_label_1
_geom_bond_atom_site_label_2
_geom_bond_distance
_geom_bond_site_symmetry_2
_ccdc_geom_bond_type
Zn0 O6 1.920 . S
Zn0 O12 1.898 1_655 S
Zn0 O15 1.905 . S
Zn1 O9 1.905 . S
Zn1 O10 1.898 . S
Zn1 O18 1.920 . S
Zn2 O5 2.080 1_455 S
Zn2 O8 2.114 . S
Zn2 O11 2.120 1_455 S
Zn2 O13 2.120 . S
Zn2 O14 2.114 1_455 S
Zn2 O17 2.080 . S
C3 O8 1.166 . S
C3 O9 1.182 . S
C4 O10 1.167 1_655 S
C4 O11 1.299 . S
O5 Zn2 2.080 1_655 S
O5 C19 1.305 . S
O6 Zn0 1.920 . S
O6 C19 1.234 . S
C7 O12 1.167 . S
C7 O13 1.299 . S
O8 Zn2 2.114 . S
O8 C3 1.166 . S
O9 Zn1 1.905 . S
O9 C3 1.182 . S
O10 Zn1 1.898 . S
O10 C4 1.167 1_455 S
O11 Zn2 2.120 1_655 S
O11 C4 1.299 . S
O12 Zn0 1.898 1_455 S
O12 C7 1.167 . S
O13 Zn2 2.120 . S
O13 C7 1.299 . S
O14 Zn2 2.114 1_655 S
O14 C16 1.166 . S
O15 Zn0 1.905 . S
O15 C16 1.182 . S
C16 O14 1.166 . S
C16 O15 1.182 . S
O17 Zn2 2.080 . S
O17 C20 1.305 . S
O18 Zn1 1.920 . S
O18 C20 1.234 . S
C19 O5 1.305 . S
C19 O6 1.234 . S
C20 O17 1.305 . S
C20 O18 1.234 . S
Zn21 O27 1.920 . S
Zn21 O33 1.898 . S
Zn21 O36 1.905 . S
Zn22 O30 1.905 . S
Zn22 O31 1.898 . S
Zn22 O39 1.920 . S
Zn23 O26 2.080 . S
Zn23 O29 2.114 . S
Zn23 O32 2.120 . S
Zn23 O34 2.120 . S
Zn23 O35 2.114 . S
Zn23 O38 2.080 . S
C24 O29 1.166 . S
C24 O30 1.182 . S
C25 O31 1.167 . S
C25 O32 1.299 . S
O26 Zn23 2.080 . S
O26 C40 1.305 . S
O27 Zn21 1.920 . S
O27 C40 1.234 . S
C28 O33 1.167 . S
C28 O34 1.299 . S
O29 Zn23 2.114 . S
O29 C24 1.166 . S
O30 Zn22 1.905 . S
O30 C24 1.182 . S
O31 Zn22 1.898 . S
O31 C25 1.167 . S
O32 Zn23 2.120 . S
O32 C25 1.299 . S
O33 Zn21 1.898 . S
O33 C28 1.167 . S
O34 Zn23 2.120 . S
O34 C28 1.299 . S
O35 Zn23 2.114 . S
O35 C37 1.166 . S
O36 Zn21 1.905 . S
O36 C37 1.182 . S
C37 O35 1.166 . S
C37 O36 1.182 . S
O38 Zn23 2.080 . S
O38 C41 1.305 . S
O39 Zn22 1.920 . S
O39 C41 1.234 . S
C40 O26 1.305 . S
C40 O27 1.234 . S
C41 O38 1.305 . S
C41 O39 1.234 . S
Zn42 O48 1.920 . S
Zn42 O54 1.898 . S
Zn42 O57 1.905 . S
Zn43 O51 1.905 . S
Zn43 O52 1.898 . S
Zn43 O60 1.920 . S
Zn44 O47 2.080 . S
Zn44 O50 2.114 . S
Zn44 O53 2.120 . S
Zn44 O55 2.120 . S
Zn44 O56 2.114 . S
Zn44 O59 2.080 . S
C45 O50 1.166 . S
C45 O51 1.182 . S
C46 O52 1.167 . S
C46 O53 1.299 . S
O47 Zn44 2.080 . S
O47 C61 1.305 . S
O48 Zn42 1.920 . S
O48 C61 1.234 . S
C49 O54 1.167 . S
C49 O55 1.299 . S
O50 Zn44 2.114 . S
O50 C45 1.166 . S
O51 Zn43 1.905 . S
O51 C45 1.182 . S
O52 Zn43 1.898 . S
O52 C46 1.167 . S
O53 Zn44 2.120 . S
O53 C46 1.299 . S
O54 Zn42 1.898 . S
O54 C49 1.167 . S
O55 Zn44 2.120 . S
O55 C49 1.299 . S
O56 Zn44 2.114 . S
O56 C58 1.166 . S
O57 Zn42 1.905 . S
O57 C58 1.182 . S
C58 O56 1.166 . S
C58 O57 1.182 . S
O59 Zn44 2.080 . S
O59 C62 1.305 . S
O60 Zn43 1.920 . S
O60 C62 1.234 . S
C61 O47 1.305 . S
C61 O48 1.234 . S
C62 O59 1.305 . S
C62 O60 1.234 . S
Zn63 O69 1.920 . S
Zn63 O75 1.898 1_455 S
Zn63 O78 1.905 . S
Zn64 O72 1.905 . S
Zn64 O73 1.898 . S
Zn64 O81 1.920 . S
Zn65 O68 2.080 1_655 S
Zn65 O71 2.114 . S
Zn65 O74 2.120 1_655 S
Zn65 O76 2.120 . S
Zn65 O77 2.114 1_655 S
Zn65 O80 2.080 . S
C66 O71 1.166 . S
C66 O72 1.182 . S
C67 O73 1.167 1_455 S
C67 O74 1.299 . S
O68 Zn65 2.080 1_455 S
O68 C82 1.305 . S
O69 Zn63 1.920 . S
O69 C82 1.234 . S
C70 O75 1.167 . S
C70 O76 1.299 . S
O71 Zn65 2.114 . S
O71 C66 1.166 . S
O72 Zn64 1.905 . S
O72 C66 1.182 . S
O73 Zn64 1.898 . S
O73 C67 1.167 1_655 S
O74 Zn65 2.120 1_455 S
O74 C67 1.299 . S
O75 Zn63 1.898 1_655 S
O75 C70 1.167 . S
O76 Zn65 2.120 . S
O76 C70 1.299 . S
O77 Zn65 2.114 1_455 S
O77 C79 1.166 . S
O78 Zn63 1.905 . S
O78 C79 1.182 . S
C79 O77 1.166 . S
C79 O78 1.182 . S
O80 Zn65 2.080 . S
O80 C83 1.305 . S
O81 Zn64 1.920 . S
O81 C83 1.234 . S
C82 O68 1.305 . S
C82 O69 1.234 . S
C83 O80 1.305 . S
C83 O81 1.234 . S
Zn84 O90 1.920 . S
Zn84 O96 1.898 . S
Zn84 O99 1.905 . S
Zn85 O93 1.905 . S
Zn85 O94 1.898 1_565 S
Zn85 O102 1.920 . S
Zn86 O89 2.080 . S
Zn86 O92 2.114 1_545 S
Zn86 O95 2.120 . S
Zn86 O97 2.120 1_545 S
Zn86 O98 2.114 . S
Zn86 O101 2.080 1_545 S
C87 O92 1.166 . S
C87 O93 1.182 . S
C88 O94 1.167 . S
C88 O95 1.299 . S
O89 Zn86 2.080 . S
O89 C103 1.305 . S
O90 Zn84 1.920 . S
O90 C103 1.234 . S
C91 O96 1.167 1_565 S
C91 O97 1.299 . S
O92 Zn86 2.114 1_565 S
O92 C87 1.166 . S
O93 Zn85 1.905 . S
O93 C87 1.182 . S
O94 Zn85 1.898 1_545 S
O94 C88 1.167 . S
O95 Zn86 2.120 . S
O95 C88 1.299 . S
O96 Zn84 1.898 . S
O96 C91 1.167 1_545 S
O97 Zn86 2.120 1_565 S
O97 C91 1.299 . S
O98 Zn86 2.114 . S
O98 C100 1.166 . S
O99 Zn84 1.905 . S
O99 C100 1.182 . S
C100 O98 1.166 . S
C100 O99 1.182 . S
O101 Zn86 2.080 1_565 S
O101 C104 1.305 . S
O102 Zn85 1.920 . S
O102 C104 1.234 . S
C103 O89 1.305 . S
C103 O90 1.234 . S
C104 O101 1.305 . S
C104 O102 1.234 . S
Zn105 O111 1.920 . S
Zn105 O117 1.898 1_545 S
Zn105 O120 1.905 . S
Zn106 O114 1.905 . S
Zn106 O115 1.898 . S
Zn106 O123 1.920 . S
Zn107 O110 2.080 1_565 S
Zn107 O113 2.114 . S
Zn107 O116 2.120 1_565 S
Zn107 O118 2.120 . S
Zn107 O119 2.114 1_565 S
Zn107 O122 2.080 . S
C108 O113 1.166 . S
C108 O114 1.182 . S
C109 O115 1.167 1_545 S
C109 O116 1.299 . S
O110 Zn107 2.080 1_545 S
O110 C124 1.305 . S
O111 Zn105 1.920 . S
O111 C124 1.234 . S
C112 O117 1.167 . S
C112 O118 1.299 . S
O113 Zn107 2.114 . S
O113 C108 1.166 . S
O114 Zn106 1.905 . S
O114 C108 1.182 . S
O115 Zn106 1.898 . S
O115 C109 1.167 1_565 S
O116 Zn107 2.120 1_545 S
O116 C109 1.299 . S
O117 Zn105 1.898 1_565 S
O117 C112 1.167 . S
O118 Zn107 2.120 . S
O118 C112 1.299 . S
O119 Zn107 2.114 1_545 S
O119 C121 1.166 . S
O120 Zn105 1.905 . S
O120 C121 1.182 . S
C121 O119 1.166 . S
C121 O120 1.182 . S
O122 Zn107 2.080 . S
O122 C125 1.305 . S
O123 Zn106 1.920 . S
O123 C125 1.234 . S
C124 O110 1.305 . S
C124 O111 1.234 . S
C125 O122 1.305 . S
C125 O123 1.234 . S
Zn126 O132 1.920 . S
Zn126 O138 1.898 . S
Zn126 O141 1.905 . S
Zn127 O135 1.905 . S
Zn127 O136 1.898 . S
Zn127 O144 1.920 . S
Zn128 O131 2.080 . S
Zn128 O134 2.114 . S
Zn128 O137 2.120 . S
Zn128 O139 2.120 . S
Zn128 O140 2.114 . S
Zn128 O143 2.080 . S
C129 O134 1.166 . S
C129 O135 1.182 . S
C130 O136 1.167 . S
C130 O137 1.299 . S
O131 Zn128 2.080 . S
O131 C145 1.305 . S
O132 Zn126 1.920 . S
O132 C145 1.234 . S
C133 O138 1.167 . S
C133 O139 1.299 . S
O134 Zn128 2.114 . S
O134 C129 1.166 . S
O135 Zn127 1.905 . S
O135 C129 1.182 . S
O136 Zn127 1.898 . S
O136 C130 1.167 . S
O137 Zn128 2.120 . S
O137 C130 1.299 . S
O138 Zn126 1.898 . S
O138 C133 1.167 . S
O139 Zn128 2.120 . S
O139 C133 1.299 . S
O140 Zn128 2.114 . S
O140 C142 1.166 . S
O141 Zn126 1.905 . S
O141 C142 1.182 . S
C142 O140 1.166 . S
C142 O141 1.182 . S
O143 Zn128 2.080 . S
O143 C146 1.305 . S
O144 Zn127 1.920 . S
O144 C146 1.234 . S
C145 O131 1.305 . S
C145 O132 1.234 . S
C146 O143 1.305 . S
C146 O144 1.234 . S
Zn147 O153 1.920 . S
Zn147 O159 1.898 . S
Zn147 O162 1.905 . S
Zn148 O156 1.905 . S
Zn148 O157 1.898 . S
Zn148 O165 1.920 . S
Zn149 O152 2.080 . S
Zn149 O155 2.114 . S
Zn149 O158 2.120 . S
Zn149 O160 2.120 . S
Zn149 O161 2.114 . S
Zn149 O164 2.080 . S
C150 O155 1.166 . S
C150 O156 1.182 . S
C151 O157 1.167 . S
C151 O158 1.299 . S
O152 Zn149 2.080 . S
O152 C166 1.305 . S
O153 Zn147 1.920 . S
O153 C166 1.234 . S
C154 O159 1.167 . S
C154 O160 1.299 . S
O155 Zn149 2.114 . S
O155 C150 1.166 . S
O156 Zn148 1.905 . S
O156 C150 1.182 . S
O157 Zn148 1.898 . S
O157 C151 1.167 . S
O158 Zn149 2.120 . S
O158 C151 1.299 . S
O159 Zn147 1.898 . S
O159 C154 1.167 . S
O160 Zn149 2.120 . S
O160 C154 1.299 . S
O161 Zn149 2.114 . S
O161 C163 1.166 . S
O162 Zn147 1.905 . S
O162 C163 1.182 . S
C163 O161 1.166 . S
C163 O162 1.182 . S
O164 Zn149 2.080 . S
O164 C167 1.305 . S
O165 Zn148 1.920 . S
O165 C167 1.234 . S
C166 O152 1.305 . S
C166 O153 1.234 . S
C167 O164 1.305 . S
C167 O165 1.234 . S
Zn168 O174 1.920 . S
Zn168 O180 1.898 . S
Zn168 O183 1.905 . S
Zn169 O177 1.905 . S
Zn169 O178 1.898 1_556 S
Zn169 O186 1.920 . S
Zn170 O173 2.080 . S
Zn170 O176 2.114 1_554 S
Zn170 O179 2.120 . S
Zn170 O181 2.120 1_554 S
Zn170 O182 2.114 . S
Zn170 O185 2.080 1_554 S
C171 O176 1.166 . S
C171 O177 1.182 . S
C172 O178 1.167 . S
C172 O179 1.299 . S
O173 Zn170 2.080 . S
O173 C187 1.305 . S
O174 Zn168 1.920 . S
O174 C187 1.234 . S
C175 O180 1.167 1_556 S
C175 O181 1.299 . S
O176 Zn170 2.114 1_556 S
O176 C171 1.166 . S
O177 Zn169 1.905 . S
O177 C171 1.182 . S
O178 Zn169 1.898 1_554 S
O178 C172 1.167 . S
O179 Zn170 2.120 . S
O179 C172 1.299 . S
O180 Zn168 1.898 . S
O180 C175 1.167 1_554 S
O181 Zn170 2.120 1_556 S
O181 C175 1.299 . S
O182 Zn170 2.114 . S
O182 C184 1.166 . S
O183 Zn168 1.905 . S
O183 C184 1.182 . S
C184 O182 1.166 . S
C184 O183 1.182 . S
O185 Zn170 2.080 1_556 S
O185 C188 1.305 . S
O186 Zn169 1.920 . S
O186 C188 1.234 . S
C187 O173 1.305 . S
C187 O174 1.234 . S
C188 O185 1.305 . S
C188 O186 1.234 . S
Zn189 O195 1.920 . S
Zn189 O201 1.898 1_554 S
Zn189 O204 1.905 . S
Zn190 O198 1.905 . S
Zn190 O199 1.898 . S
Zn190 O207 1.920 . S
Zn191 O194 2.080 1_556 S
Zn191 O197 2.114 . S
Zn191 O200 2.120 1_556 S
Zn191 O202 2.120 . S
Zn191 O203 2.114 1_556 S
Zn191 O206 2.080 . S
C192 O197 1.166 . S
C192 O198 1.182 . S
C193 O199 1.167 1_554 S
C193 O200 1.299 . S
O194 Zn191 2.080 1_554 S
O194 C208 1.305 . S
O195 Zn189 1.920 . S
O195 C208 1.234 . S
C196 O201 1.167 . S
C196 O202 1.299 . S
O197 Zn191 2.114 . S
O197 C192 1.166 . S
O198 Zn190 1.905 . S
O198 C192 1.182 . S
O199 Zn190 1.898 . S
O199 C193 1.167 1_556 S
O200 Zn191 2.120 1_554 S
O200 C193 1.299 . S
O201 Zn189 1.898 1_556 S
O201 C196 1.167 . S
O202 Zn191 2.120 . S
O202 C196 1.299 . S
O203 Zn191 2.114 1_554 S
O203 C205 1.166 . S
O204 Zn189 1.905 . S
O204 C205 1.182 . S
C205 O203 1.166 . S
C205 O204 1.182 . S
O206 Zn191 2.080 . S
O206 C209 1.305 . S
O207 Zn190 1.920 . S
O207 C209 1.234 . S
C208 O194 1.305 . S
C208 O195 1.234 . S
C209 O206 1.305 . S
C209 O207 1.234 . S
Zn210 O216 1.920 . S
Zn210 O222 1.898 . S
Zn210 O225 1.905 . S
Zn211 O219 1.905 . S
Zn211 O220 1.898 . S
Zn211 O228 1.920 . S
Zn212 O215 2.080 . S
Zn212 O218 2.114 . S
Zn212 O221 2.120 . S
Zn212 O223 2.120 . S
Zn212 O224 2.114 . S
Zn212 O227 2.080 . S
C213 O218 1.166 . S
C213 O219 1.182 . S
C214 O220 1.167 . S
C214 O221 1.299 . S
O215 Zn212 2.080 . S
O215 C229 1.305 . S
O216 Zn210 1.920 . S
O216 C229 1.234 . S
C217 O222 1.167 . S
C217 O223 1.299 . S
O218 Zn212 2.114 . S
O218 C213 1.166 . S
O219 Zn211 1.905 . S
O219 C213 1.182 . S
O220 Zn211 1.898 . S
O220 C214 1.167 . S
O221 Zn212 2.120 . S
O221 C214 1.299 . S
O222 Zn210 1.898 . S
O222 C217 1.167 . S
O223 Zn212 2.120 . S
O223 C217 1.299 . S
O224 Zn212 2.114 . S
O224 C226 1.166 . S
O225 Zn210 1.905 . S
O225 C226 1.182 . S
C226 O224 1.166 . S
C226 O225 1.182 . S
O227 Zn212 2.080 . S
O227 C230 1.305 . S
O228 Zn211 1.920 . S
O228 C230 1.234 . S
C229 O215 1.305 . S
C229 O216 1.234 . S
C230 O227 1.305 . S
C230 O228 1.234 . S
Zn231 O237 1.920 . S
Zn231 O243 1.898 . S
Zn231 O246 1.905 . S
Zn232 O240 1.905 . S
Zn232 O241 1.898 . S
Zn232 O249 1.920 . S
Zn233 O236 2.080 . S
Zn233 O239 2.114 . S
Zn233 O242 2.120 . S
Zn233 O244 2.120 . S
Zn233 O245 2.114 . S
Zn233 O248 2.080 . S
C234 O239 1.166 . S
C234 O240 1.182 . S
C235 O241 1.167 . S
C235 O242 1.299 . S
O236 Zn233 2.080 . S
O236 C250 1.305 . S
O237 Zn231 1.920 . S
O237 C250 1.234 . S
C238 O243 1.167 . S
C238 O244 1.299 . S
O239 Zn233 2.114 . S
O239 C234 1.166 . S
O240 Zn232 1.905 . S
O240 C234 1.182 . S
O241 Zn232 1.898 . S
O241 C235 1.167 . S
O242 Zn233 2.120 . S
O242 C235 1.299 . S
O243 Zn231 1.898 . S
O243 C238 1.167 . S
O244 Zn233 2.120 . S
O244 C238 1.299 . S
O245 Zn233 2.114 . S
O245 C247 1.166 . S
O246 Zn231 1.905 . S
O246 C247 1.182 . S
C247 O245 1.166 . S
C247 O246 1.182 . S
O248 Zn233 2.080 . S
O248 C251 1.305 . S
O249 Zn232 1.920 . S
O249 C251 1.234 . S
C250 O236 1.305 . S
C250 O237 1.234 . S
C251 O248 1.305 . S
C251 O249 1.234 . S
Zn252 O258 1.920 . S
Zn252 O264 1.898 . S
Zn252 O267 1.905 . S
Zn253 O261 1.905 . S
Zn253 O262 1.898 1_455 S
Zn253 O270 1.920 . S
Zn254 O257 2.080 . S
Zn254 O260 2.114 1_655 S
Zn254 O263 2.120 . S
Zn254 O265 2.120 1_655 S
Zn254 O266 2.114 . S
Zn254 O269 2.080 1_655 S
C255 O260 1.166 . S
C255 O261 1.182 . S
C256 O262 1.167 . S
C256 O263 1.299 . S
O257 Zn254 2.080 . S
O257 C271 1.305 . S
O258 Zn252 1.920 . S
O258 C271 1.234 . S
C259 O264 1.167 1_455 S
C259 O265 1.299 . S
O260 Zn254 2.114 1_455 S
O260 C255 1.166 . S
O261 Zn253 1.905 . S
O261 C255 1.182 . S
O262 Zn253 1.898 1_655 S
O262 C256 1.167 . S
O263 Zn254 2.120 . S
O263 C256 1.299 . S
O264 Zn252 1.898 . S
O264 C259 1.167 1_655 S
O265 Zn254 2.120 1_455 S
O265 C259 1.299 . S
O266 Zn254 2.114 . S
O266 C268 1.166 . S
O267 Zn252 1.905 . S
O267 C268 1.182 . S
C268 O266 1.166 . S
C268 O267 1.182 . S
O269 Zn254 2.080 1_455 S
O269 C272 1.305 . S
O270 Zn253 1.920 . S
O270 C272 1.234 . S
C271 O257 1.305 . S
C271 O258 1.234 . S
C272 O269 1.305 . S
C272 O270 1.234 . S
Zn273 O279 1.920 . S
Zn273 O285 1.898 . S
Zn273 O288 1.905 . S
Zn274 O282 1.905 . S
Zn274 O283 1.898 . S
Zn274 O291 1.920 . S
Zn275 O278 2.080 . S
Zn275 O281 2.114 . S
Zn275 O284 2.120 . S
Zn275 O286 2.120 . S
Zn275 O287 2.114 . S
Zn275 O290 2.080 . S
C276 O281 1.166 . S
C276 O282 1.182 . S
C277 O283 1.167 . S
C277 O284 1.299 . S
O278 Zn275 2.080 . S
O278 C292 1.305 . S
O279 Zn273 1.920 . S
O279 C292 1.234 . S
C280 O285 1.167 . S
C280 O286 1.299 . S
O281 Zn275 2.114 . S
O281 C276 1.166 . S
O282 Zn274 1.905 . S
O282 C276 1.182 . S
O283 Zn274 1.898 . S
O283 C277 1.167 . S
O284 Zn275 2.120 . S
O284 C277 1.299 . S
O285 Zn273 1.898 . S
O285 C280 1.167 . S
O286 Zn275 2.120 . S
O286 C280 1.299 . S
O287 Zn275 2.114 . S
O287 C289 1.166 . S
O288 Zn273 1.905 . S
O288 C289 1.182 . S
C289 O287 1.166 . S
C289 O288 1.182 . S
O290 Zn275 2.080 . S
O290 C293 1.305 . S
O291 Zn274 1.920 . S
O291 C293 1.234 . S
C292 O278 1.305 . S
C292 O279 1.234 . S
C293 O290 1.305 . S
C293 O291 1.234 . S
Zn294 O300 1.920 . S
Zn294 O306 1.898 . S
Zn294 O309 1.905 . S
Zn295 O303 1.905 . S
Zn295 O304 1.898 . S
Zn295 O312 1.920 . S
Zn296 O299 2.080 . S
Zn296 O302 2.114 . S
Zn296 O305 2.120 . S
Zn296 O307 2.120 . S
Zn296 O308 2.114 . S
Zn296 O311 2.080 . S
C297 O302 1.166 . S
C297 O303 1.182 . S
C298 O304 1.167 . S
C298 O305 1.299 . S
O299 Zn296 2.080 . S
O299 C313 1.305 . S
O300 Zn294 1.920 . S
O300 C313 1.234 . S
C301 O306 1.167 . S
C301 O307 1.299 . S
O302 Zn296 2.114 . S
O302 C297 1.166 . S
O303 Zn295 1.905 . S
O303 C297 1.182 . S
O304 Zn295 1.898 . S
O304 C298 1.167 . S
O305 Zn296 2.120 . S
O305 C298 1.299 . S
O306 Zn294 1.898 . S
O306 C301 1.167 . S
O307 Zn296 2.120 . S
O307 C301 1.299 . S
O308 Zn296 2.114 . S
O308 C310 1.166 . S
O309 Zn294 1.905 . S
O309 C310 1.182 . S
C310 O308 1.166 . S
C310 O309 1.182 . S
O311 Zn296 2.080 . S
O311 C314 1.305 . S
O312 Zn295 1.920 . S
O312 C314 1.234 . S
C313 O299 1.305 . S
C313 O300 1.234 . S
C314 O311 1.305 . S
C314 O312 1.234 . S
Zn315 O321 1.920 . S
Zn315 O327 1.898 1_655 S
Zn315 O330 1.905 . S
Zn316 O324 1.905 . S
Zn316 O325 1.898 . S
Zn316 O333 1.920 . S
Zn317 O320 2.080 1_455 S
Zn317 O323 2.114 . S
Zn317 O326 2.120 1_455 S
Zn317 O328 2.120 . S
Zn317 O329 2.114 1_455 S
Zn317 O332 2.080 . S
C318 O323 1.166 . S
C318 O324 1.182 . S
C319 O325 1.167 1_655 S
C319 O326 1.299 . S
O320 Zn317 2.080 1_655 S
O320 C334 1.305 . S
O321 Zn315 1.920 . S
O321 C334 1.234 . S
C322 O327 1.167 . S
C322 O328 1.299 . S
O323 Zn317 2.114 . S
O323 C318 1.166 . S
O324 Zn316 1.905 . S
O324 C318 1.182 . S
O325 Zn316 1.898 . S
O325 C319 1.167 1_455 S
O326 Zn317 2.120 1_655 S
O326 C319 1.299 . S
O327 Zn315 1.898 1_455 S
O327 C322 1.167 . S
O328 Zn317 2.120 . S
O328 C322 1.299 . S
O329 Zn317 2.114 1_655 S
O329 C331 1.166 . S
O330 Zn315 1.905 . S
O330 C331 1.182 . S
C331 O329 1.166 . S
C331 O330 1.182 . S
O332 Zn317 2.080 . S
O332 C335 1.305 . S
O333 Zn316 1.920 . S
O333 C335 1.234 . S
C334 O320 1.305 . S
C334 O321 1.234 . S
C335 O332 1.305 . S
C335 O333 1.234 . S
Zn336 O342 1.920 . S
Zn336 O348 1.898 1_545 S
Zn336 O351 1.905 . S
Zn337 O345 1.905 . S
Zn337 O346 1.898 . S
Zn337 O354 1.920 . S
Zn338 O341 2.080 1_565 S
Zn338 O344 2.114 . S
Zn338 O347 2.120 1_565 S
Zn338 O349 2.120 . S
Zn338 O350 2.114 1_565 S
Zn338 O353 2.080 . S
C339 O344 1.166 . S
C339 O345 1.182 . S
C340 O346 1.167 1_545 S
C340 O347 1.299 . S
O341 Zn338 2.080 1_545 S
O341 C355 1.305 . S
O342 Zn336 1.920 . S
O342 C355 1.234 . S
C343 O348 1.167 . S
C343 O349 1.299 . S
O344 Zn338 2.114 . S
O344 C339 1.166 . S
O345 Zn337 1.905 . S
O345 C339 1.182 . S
O346 Zn337 1.898 . S
O346 C340 1.167 1_565 S
O347 Zn338 2.120 1_545 S
O347 C340 1.299 . S
O348 Zn336 1.898 1_565 S
O348 C343 1.167 . S
O349 Zn338 2.120 . S
O349 C343 1.299 . S
O350 Zn338 2.114 1_545 S
O350 C352 1.166 . S
O351 Zn336 1.905 . S
O351 C352 1.182 . S
C352 O350 1.166 . S
C352 O351 1.182 . S
O353 Zn338 2.080 . S
O353 C356 1.305 . S
O354 Zn337 1.920 . S
O354 C356 1.234 . S
C355 O341 1.305 . S
C355 O342 1.234 . S
C356 O353 1.305 . S
C356 O354 1.234 . S
Zn357 O363 1.920 . S
Zn357 O369 1.898 . S
Zn357 O372 1.905 . S
Zn358 O366 1.905 . S
Zn358 O367 1.898 1_565 S
Zn358 O375 1.920 . S
Zn359 O362 2.080 . S
Zn359 O365 2.114 1_545 S
Zn359 O368 2.120 . S
Zn359 O370 2.120 1_545 S
Zn359 O371 2.114 . S
Zn359 O374 2.080 1_545 S
C360 O365 1.166 . S
C360 O366 1.182 . S
C361 O367 1.167 . S
C361 O368 1.299 . S
O362 Zn359 2.080 . S
O362 C376 1.305 . S
O363 Zn357 1.920 . S
O363 C376 1.234 . S
C364 O369 1.167 1_565 S
C364 O370 1.299 . S
O365 Zn359 2.114 1_565 S
O365 C360 1.166 . S
O366 Zn358 1.905 . S
O366 C360 1.182 . S
O367 Zn358 1.898 1_545 S
O367 C361 1.167 . S
O368 Zn359 2.120 . S
O368 C361 1.299 . S
O369 Zn357 1.898 . S
O369 C364 1.167 1_545 S
O370 Zn359 2.120 1_565 S
O370 C364 1.299 . S
O371 Zn359 2.114 . S
O371 C373 1.166 . S
O372 Zn357 1.905 . S
O372 C373 1.182 . S
C373 O371 1.166 . S
C373 O372 1.182 . S
O374 Zn359 2.080 1_565 S
O374 C377 1.305 . S
O375 Zn358 1.920 . S
O375 C377 1.234 . S
C376 O362 1.305 . S
C376 O363 1.234 . S
C377 O374 1.305 . S
C377 O375 1.234 . S
Zn378 O384 1.920 . S
Zn378 O390 1.898 . S
Zn378 O393 1.905 . S
Zn379 O387 1.905 . S
Zn379 O388 1.898 . S
Zn379 O396 1.920 . S
Zn380 O383 2.080 . S
Zn380 O386 2.114 . S
Zn380 O389 2.120 . S
Zn380 O391 2.120 . S
Zn380 O392 2.114 . S
Zn380 O395 2.080 . S
C381 O386 1.166 . S
C381 O387 1.182 . S
C382 O388 1.167 . S
C382 O389 1.299 . S
O383 Zn380 2.080 . S
O383 C397 1.305 . S
O384 Zn378 1.920 . S
O384 C397 1.234 . S
C385 O390 1.167 . S
C385 O391 1.299 . S
O386 Zn380 2.114 . S
O386 C381 1.166 . S
O387 Zn379 1.905 . S
O387 C381 1.182 . S
O388 Zn379 1.898 . S
O388 C382 1.167 . S
O389 Zn380 2.120 . S
O389 C382 1.299 . S
O390 Zn378 1.898 . S
O390 C385 1.167 . S
O391 Zn380 2.120 . S
O391 C385 1.299 . S
O392 Zn380 2.114 . S
O392 C394 1.166 . S
O393 Zn378 1.905 . S
O393 C394 1.182 . S
C394 O392 1.166 . S
C394 O393 1.182 . S
O395 Zn380 2.080 . S
O395 C398 1.305 . S
O396 Zn379 1.920 . S
O396 C398 1.234 . S
C397 O383 1.305 . S
C397 O384 1.234 . S
C398 O395 1.305 . S
C398 O396 1.234 . S
Zn399 O405 1.920 . S
Zn399 O411 1.898 . S
Zn399 O414 1.905 . S
Zn400 O408 1.905 . S
Zn400 O409 1.898 . S
Zn400 O417 1.920 . S
Zn401 O404 2.080 . S
Zn401 O407 2.114 . S
Zn401 O410 2.120 . S
Zn401 O412 2.120 . S
Zn401 O413 2.114 . S
Zn401 O416 2.080 . S
C402 O407 1.166 . S
C402 O408 1.182 . S
C403 O409 1.167 . S
C403 O410 1.299 . S
O404 Zn401 2.080 . S
O404 C418 1.305 . S
O405 Zn399 1.920 . S
O405 C418 1.234 . S
C406 O411 1.167 . S
C406 O412 1.299 . S
O407 Zn401 2.114 . S
O407 C402 1.166 . S
O408 Zn400 1.905 . S
O408 C402 1.182 . S
O409 Zn400 1.898 . S
O409 C403 1.167 . S
O410 Zn401 2.120 . S
O410 C403 1.299 . S
O411 Zn399 1.898 . S
O411 C406 1.167 . S
O412 Zn401 2.120 . S
O412 C406 1.299 . S
O413 Zn401 2.114 . S
O413 C415 1.166 . S
O414 Zn399 1.905 . S
O414 C415 1.182 . S
C415 O413 1.166 . S
C415 O414 1.182 . S
O416 Zn401 2.080 . S
O416 C419 1.305 . S
O417 Zn400 1.920 . S
O417 C419 1.234 . S
C418 O404 1.305 . S
C418 O405 1.234 . S
C419 O416 1.305 . S
C419 O417 1.234 . S
Zn420 O426 1.920 . S
Zn420 O432 1.898 . S
Zn420 O435 1.905 . S
Zn421 O429 1.905 . S
Zn421 O430 1.898 1_554 S
Zn421 O438 1.920 . S
Zn422 O425 2.080 . S
Zn422 O428 2.114 1_556 S
Zn422 O431 2.120 . S
Zn422 O433 2.120 1_556 S
Zn422 O434 2.114 . S
Zn422 O437 2.080 1_556 S
C423 O428 1.166 . S
C423 O429 1.182 . S
C424 O430 1.167 . S
C424 O431 1.299 . S
O425 Zn422 2.080 . S
O425 C439 1.305 . S
O426 Zn420 1.920 . S
O426 C439 1.234 . S
C427 O432 1.167 1_554 S
C427 O433 1.299 . S
O428 Zn422 2.114 1_554 S
O428 C423 1.166 . S
O429 Zn421 1.905 . S
O429 C423 1.182 . S
O430 Zn421 1.898 1_556 S
O430 C424 1.167 . S
O431 Zn422 2.120 . S
O431 C424 1.299 . S
O432 Zn420 1.898 . S
O432 C427 1.167 1_556 S
O433 Zn422 2.120 1_554 S
O433 C427 1.299 . S
O434 Zn422 2.114 . S
O434 C436 1.166 . S
O435 Zn420 1.905 . S
O435 C436 1.182 . S
C436 O434 1.166 . S
C436 O435 1.182 . S
O437 Zn422 2.080 1_554 S
O437 C440 1.305 . S
O438 Zn421 1.920 . S
O438 C440 1.234 . S
C439 O425 1.305 . S
C439 O426 1.234 . S
C440 O437 1.305 . S
C440 O438 1.234 . S
Zn441 O447 1.920 . S
Zn441 O453 1.898 1_556 S
Zn441 O456 1.905 . S
Zn442 O450 1.905 . S
Zn442 O451 1.898 . S
Zn442 O459 1.920 . S
Zn443 O446 2.080 1_554 S
Zn443 O449 2.114 . S
Zn443 O452 2.120 1_554 S
Zn443 O454 2.120 . S
Zn443 O455 2.114 1_554 S
Zn443 O458 2.080 . S
C444 O449 1.166 . S
C444 O450 1.182 . S
C445 O451 1.167 1_556 S
C445 O452 1.299 . S
O446 Zn443 2.080 1_556 S
O446 C460 1.305 . S
O447 Zn441 1.920 . S
O447 C460 1.234 . S
C448 O453 1.167 . S
C448 O454 1.299 . S
O449 Zn443 2.114 . S
O449 C444 1.166 . S
O450 Zn442 1.905 . S
O450 C444 1.182 . S
O451 Zn442 1.898 . S
O451 C445 1.167 1_554 S
O452 Zn443 2.120 1_556 S
O452 C445 1.299 . S
O453 Zn441 1.898 1_554 S
O453 C448 1.167 . S
O454 Zn443 2.120 . S
O454 C448 1.299 . S
O455 Zn443 2.114 1_556 S
O455 C457 1.166 . S
O456 Zn441 1.905 . S
O456 C457 1.182 . S
C457 O455 1.166 . S
C457 O456 1.182 . S
O458 Zn443 2.080 . S
O458 C461 1.305 . S
O459 Zn442 1.920 . S
O459 C461 1.234 . S
C460 O446 1.305 . S
C460 O447 1.234 . S
C461 O458 1.305 . S
C461 O459 1.234 . S
Zn462 O468 1.920 . S
Zn462 O474 1.898 . S
Zn462 O477 1.905 . S
Zn463 O471 1.905 . S
Zn463 O472 1.898 . S
Zn463 O480 1.920 . S
Zn464 O467 2.080 . S
Zn464 O470 2.114 . S
Zn464 O473 2.120 . S
Zn464 O475 2.120 . S
Zn464 O476 2.114 . S
Zn464 O479 2.080 . S
C465 O470 1.166 . S
C465 O471 1.182 . S
C466 O472 1.167 . S
C466 O473 1.299 . S
O467 Zn464 2.080 . S
O467 C481 1.305 . S
O468 Zn462 1.920 . S
O468 C481 1.234 . S
C469 O474 1.167 . S
C469 O475 1.299 . S
O470 Zn464 2.114 . S
O470 C465 1.166 . S
O471 Zn463 1.905 . S
O471 C465 1.182 . S
O472 Zn463 1.898 . S
O472 C466 1.167 . S
O473 Zn464 2.120 . S
O473 C466 1.299 . S
O474 Zn462 1.898 . S
O474 C469 1.167 . S
O475 Zn464 2.120 . S
O475 C469 1.299 . S
O476 Zn464 2.114 . S
O476 C478 1.166 . S
O477 Zn462 1.905 . S
O477 C478 1.182 . S
C478 O476 1.166 . S
C478 O477 1.182 . S
O479 Zn464 2.080 . S
O479 C482 1.305 . S
O480 Zn463 1.920 . S
O480 C482 1.234 . S
C481 O467 1.305 . S
C481 O468 1.234 . S
C482 O479 1.305 . S
C482 O480 1.234 . S
Zn483 O489 1.920 . S
Zn483 O495 1.898 . S
Zn483 O498 1.905 . S
Zn484 O492 1.905 . S
Zn484 O493 1.898 . S
Zn484 O501 1.920 . S
Zn485 O488 2.080 . S
Zn485 O491 2.114 . S
Zn485 O494 2.120 . S
Zn485 O496 2.120 . S
Zn485 O497 2.114 . S
Zn485 O500 2.080 . S
C486 O491 1.166 . S
C486 O492 1.182 . S
C487 O493 1.167 . S
C487 O494 1.299 . S
O488 Zn485 2.080 . S
O488 C502 1.305 . S
O489 Zn483 1.920 . S
O489 C502 1.234 . S
C490 O495 1.167 . S
C490 O496 1.299 . S
O491 Zn485 2.114 . S
O491 C486 1.166 . S
O492 Zn484 1.905 . S
O492 C486 1.182 . S
O493 Zn484 1.898 . S
O493 C487 1.167 . S
O494 Zn485 2.120 . S
O494 C487 1.299 . S
O495 Zn483 1.898 . S
O495 C490 1.167 . S
O496 Zn485 2.120 . S
O496 C490 1.299 . S
O497 Zn485 2.114 . S
O497 C499 1.166 . S
O498 Zn483 1.905 . S
O498 C499 1.182 . S
C499 O497 1.166 . S
C499 O498 1.182 . S
O500 Zn485 2.080 . S
O500 C503 1.305 . S
O501 Zn484 1.920 . S
O501 C503 1.234 . S
C502 O488 1.305 . S
C502 O489 1.234 . S
C503 O500 1.305 . S
C503 O501 1.234 . S
C7 C397 0.847 . S
C419 C25 0.847 . S
C49 C355 0.847 . S
C70 C377 0.847 . S
C481 C88 0.847 . S
C112 C460 0.847 . S
C502 C133 0.847 . S
C151 C440 0.847 . S
C172 C293 0.847 . S
C196 C334 0.847 . S
C314 C214 0.847 . S
C235 C272 0.847 . S
C256 C145 0.847 . S
C277 C167 0.847 . S
C298 C104 0.847 . S
C124 C322 0.847 . S
C343 C230 0.847 . S
C208 C361 0.847 . S
C251 C385 0.847 . S
C188 C403 0.847 . S
C41 C424 0.847 . S
C82 C448 0.847 . S
C61 C469 0.847 . S
C490 C19 0.847 . S
C100 C20 1.693 . S
C108 C40 1.693 . S
C129 C62 1.693 . S
C163 C83 1.693 . S
C103 C184 1.693 . S
C125 C247 1.693 . S
C146 C192 1.693 . S
C166 C226 1.693 . S
C187 C3 1.693 . S
C209 C45 1.693 . S
C229 C66 1.693 . S
C37 C250 1.693 . S
C339 C271 1.693 . S
C373 C292 1.693 . S
C313 C381 1.693 . S
C335 C415 1.693 . S
C436 C356 1.693 . S
C376 C486 1.693 . S
C444 C398 1.693 . S
C418 C465 1.693 . S
C268 C439 1.693 . S
C461 C310 1.693 . S
C482 C318 1.693 . S
C289 C503 1.693 . S
C4 C205 1.266 . S
C213 C28 1.266 . S
C171 C46 1.266 . S
C234 C67 1.266 . S
C91 C79 1.266 . S
C58 C109 1.266 . S
C130 C24 1.266 . S
C16 C154 1.266 . S
C175 C121 1.266 . S
C193 C150 1.266 . S
C217 C142 1.266 . S
C238 C87 1.266 . S
C259 C457 1.266 . S
C280 C478 1.266 . S
C423 C301 1.266 . S
C499 C319 1.266 . S
C340 C331 1.266 . S
C364 C297 1.266 . S
C276 C382 1.266 . S
C406 C255 1.266 . S
C427 C360 1.266 . S
C402 C445 1.266 . S
C466 C394 1.266 . S
C487 C352 1.266 . S
