# Generated by pormake.
# Topology snp, (6)-cn, num edge types: 1
# Building blocks:
#     Node 0, Type 0, BuildingBlock: BETDEL_clean_sbu_0, # of connection points: 6
#     Node 1, Type 0, BuildingBlock: BETDEL_clean_sbu_0, # of connection points: 6
#     Node 2, Type 0, BuildingBlock: BETDEL_clean_sbu_0, # of connection points: 6
#     Node 3, Type 0, BuildingBlock: BETDEL_clean_sbu_0, # of connection points: 6
#     Edge 4, Type (0, 0), BuildingBlock: UVAHIK_clean_linker_0, # of connection points: 2
#     Edge 5, Type (0, 0), BuildingBlock: UVAHIK_clean_linker_0, # of connection points: 2
#     Edge 6, Type (0, 0), BuildingBlock: UVAHIK_clean_linker_0, # of connection points: 2
#     Edge 7, Type (0, 0), BuildingBlock: UVAHIK_clean_linker_0, # of connection points: 2
#     Edge 8, Type (0, 0), BuildingBlock: UVAHIK_clean_linker_0, # of connection points: 2
#     Edge 9, Type (0, 0), BuildingBlock: UVAHIK_clean_linker_0, # of connection points: 2
#     Edge 10, Type (0, 0), BuildingBlock: UVAHIK_clean_linker_0, # of connection points: 2
#     Edge 11, Type (0, 0), BuildingBlock: UVAHIK_clean_linker_0, # of connection points: 2
#     Edge 12, Type (0, 0), BuildingBlock: UVAHIK_clean_linker_0, # of connection points: 2
#     Edge 13, Type (0, 0), BuildingBlock: UVAHIK_clean_linker_0, # of connection points: 2
#     Edge 14, Type (0, 0), BuildingBlock: UVAHIK_clean_linker_0, # of connection points: 2
#     Edge 15, Type (0, 0), BuildingBlock: UVAHIK_clean_linker_0, # of connection points: 2
# Relax obj value: 0.318
# Max RMSD: 0.193
# Mean RMSD: 0.191
data_MOF--net-snp--node1-BETDEL_clean_sbu_0--edge1-UVAHIK_clean_linker_0
_symmetry_space_group_name_H-M    P1
_symmetry_Int_Tables_number       1
_symmetry_cell_setting            triclinic
loop_
_symmetry_equiv_pos_as_xyz
'x, y, z'
_cell_length_a     32.743297
_cell_length_b     32.878149
_cell_length_c     35.017558
_cell_angle_alpha  93.105134
_cell_angle_beta   90.016849
_cell_angle_gamma 94.425283
loop_
_atom_site_label
_atom_site_type_symbol
_atom_site_fract_x
_atom_site_fract_y
_atom_site_fract_z
_atom_type_partial_charge
Dy0 Dy 0.21581 0.05957 0.04967 0.0
C1 C 0.20762 0.91279 0.95358 0.0
C2 C 0.22109 0.12149 0.10543 0.0
Dy3 Dy 0.20017 0.97561 1.00683 0.0
O4 O 0.24538 0.09225 0.10167 0.0
O5 O 0.19452 0.11794 0.07762 0.0
O6 O 0.27426 0.06978 1.01755 0.0
O7 O 0.25431 0.01029 0.03192 0.0
C8 C 0.2813 0.0314 1.01419 0.0
C9 C 0.1352 0.00329 0.04281 0.0
O10 O 0.20938 0.95248 0.06559 0.0
O11 O 0.20194 0.0156 0.09691 0.0
O12 O 0.17353 0.92259 0.96925 0.0
O13 O 0.23795 0.9365 0.96809 0.0
O14 O 0.13941 0.96451 0.03566 0.0
O15 O 0.163 0.02393 1.02595 0.0
O16 O 0.19369 0.08223 0.99388 0.0
O17 O 0.19551 0.01983 0.9595 0.0
C18 C 0.20357 0.97525 0.09752 0.0
C19 C 0.19059 0.05976 0.96096 0.0
Dy20 Dy 0.94175 0.20769 0.56038 0.0
C21 C 0.09062 0.22838 0.47166 0.0
C22 C 0.87286 0.18999 0.6027 0.0
Dy23 Dy 0.0224 0.2084 0.51368 0.0
O24 O 0.88596 0.22634 0.59308 0.0
O25 O 0.89637 0.16359 0.58761 0.0
O26 O 0.96193 0.26984 0.58593 0.0
O27 O -0.02064 0.25382 0.5299 0.0
C28 C -0.01646 0.28108 0.55676 0.0
C29 C -0.02008 0.13607 0.51761 0.0
O30 O 0.04777 0.20927 0.57479 0.0
O31 O -0.01381 0.19259 0.60553 0.0
O32 O 0.0825 0.1936 0.48715 0.0
O33 O 0.0624 0.25279 0.48092 0.0
O34 O 0.00233 0.14564 0.48831 0.0
O35 O -0.01516 0.16397 0.54351 0.0
O36 O 0.91596 0.1966 0.49987 0.0
O37 O 0.97628 0.21007 0.4659 0.0
C38 C 0.02681 0.1987 0.60602 0.0
C39 C 0.93605 0.20044 0.46688 0.0
Dy40 Dy 0.77725 0.92698 0.04953 0.0
C41 C 0.76665 0.07578 0.97015 0.0
C42 C 0.78999 0.85967 0.0893 0.0
Dy43 Dy 0.78036 0.00911 1.01071 0.0
O44 O 0.7548 0.86895 0.07665 0.0
O45 O 0.81856 0.88621 0.07849 0.0
O46 O 0.71216 0.93211 0.06428 0.0
O47 O 0.7345 0.95695 1.01338 0.0
C48 C 0.70392 0.95342 0.03558 0.0
C49 C 0.85301 -0.01321 0.03592 0.0
O50 O 0.7684 0.03215 0.07238 0.0
O51 O 0.7829 0.97258 0.10092 0.0
O52 O 0.79995 0.07056 0.98879 0.0
O53 O 0.73982 0.04545 0.97566 0.0
O54 O 0.84916 0.00771 1.00577 0.0
O55 O 0.81812 -0.01932 0.04979 0.0
O56 O 0.79748 0.90633 0.98956 0.0
O57 O 0.79071 0.96687 0.9595 0.0
C58 C 0.77561 0.01207 0.10369 0.0
C59 C 0.79918 0.92796 0.95832 0.0
Dy60 Dy 0.95961 0.76515 0.49494 0.0
C61 C 0.10908 0.80094 0.57979 0.0
C62 C 0.88931 0.74835 0.45213 0.0
Dy63 Dy 0.0374 0.79429 0.53917 0.0
O64 O 0.91787 0.72376 0.45613 0.0
O65 O 0.89814 0.78135 0.47343 0.0
O66 O -0.00896 0.71056 0.47427 0.0
O67 O 0.00289 0.73443 0.53001 0.0
C68 C 0.01161 0.70701 0.50526 0.0
C69 C -0.01584 0.8505 0.52879 0.0
O70 O 0.06153 0.79607 0.47794 0.0
O71 O -0.00198 0.79451 0.44841 0.0
O72 O 0.09076 0.83137 0.56736 0.0
O73 O 0.08908 0.76675 0.56839 0.0
O74 O 0.00696 0.85108 0.55925 0.0
O75 O -0.00619 0.82273 0.50541 0.0
O76 O 0.93367 0.7741 0.55561 0.0
O77 O -0.00434 0.7818 0.58851 0.0
C78 C 0.03876 0.79977 0.44684 0.0
C79 C 0.95503 0.77953 0.58836 0.0
C80 C 0.91787 0.02693 0.05585 0.0
C81 C 0.88724 -0.00375 0.06299 0.0
C82 C 0.94293 0.04418 0.08562 0.0
C83 C -0.01662 0.02215 0.17909 0.0
H84 H 0.0422 0.12416 0.15687 0.0
C85 C 0.1012 -0.00826 0.1051 0.0
C86 C 0.11514 0.01878 0.07763 0.0
C87 C 0.08439 0.0063 0.13919 0.0
C88 C 0.02621 0.09555 0.16392 0.0
H89 H 0.86048 0.9577 0.10632 0.0
H90 H 0.90349 -0.0117 0.15826 0.0
H91 H 0.97159 0.11087 0.13619 0.0
H92 H 0.12482 0.08225 0.06485 0.0
H93 H 0.09645 0.10831 0.12428 0.0
H94 H 0.03795 0.00843 0.20739 0.0
C95 C 0.90821 -0.00069 0.1299 0.0
C96 C -0.01443 0.08799 0.15184 0.0
C97 C 0.88377 -0.01848 0.09996 0.0
C98 C 0.11391 0.06082 0.08562 0.0
C99 C 0.09741 0.07561 0.11993 0.0
C100 C 0.02361 0.03128 0.19204 0.0
C101 C 0.9376 0.03147 0.1233 0.0
C102 C 0.96647 0.04836 0.15389 0.0
C103 C 0.07963 0.04848 0.14633 0.0
C104 C 0.04757 0.06208 0.17405 0.0
H105 H 0.92125 0.03898 1.02774 0.0
H106 H 0.96658 0.06752 0.0789 0.0
H107 H 0.96852 -0.00754 0.18441 0.0
H108 H 0.1032 0.95912 0.10031 0.0
H109 H 0.07291 -0.01641 0.15849 0.0
C110 C 0.92884 0.89005 0.55813 0.0
C111 C 0.94531 0.86974 0.52629 0.0
C112 C 0.89198 0.90837 0.5548 0.0
C113 C 0.83965 0.95316 0.47593 0.0
H114 H 0.81765 0.02039 0.56611 0.0
C115 C 0.92215 0.09982 0.48031 0.0
C116 C 0.94316 0.10768 0.51506 0.0
C117 C 0.885 0.07597 0.47875 0.0
C118 C 0.82344 0.00204 0.54036 0.0
H119 H 0.93558 0.85056 0.46672 0.0
H120 H 0.86954 0.87768 0.46191 0.0
H121 H 0.81879 0.94701 0.57044 0.0
H122 H 0.94264 0.09707 0.57535 0.0
H123 H 0.88109 0.05172 0.57246 0.0
H124 H 0.84685 0.00735 0.44614 0.0
C125 C 0.88546 0.88207 0.48904 0.0
C126 C 0.82407 0.95979 0.54286 0.0
C127 C 0.9233 0.86587 0.49185 0.0
C128 C 0.92687 0.09113 0.54817 0.0
C129 C 0.89072 0.06581 0.54644 0.0
C130 C 0.83932 -0.00478 0.47354 0.0
C131 C 0.87036 0.90606 0.51961 0.0
C132 C 0.83999 0.93654 0.51218 0.0
C133 C 0.86962 0.05671 0.51139 0.0
C134 C 0.83926 0.02027 0.50742 0.0
H135 H 0.945 0.89285 0.58527 0.0
H136 H 0.88227 0.92647 0.57935 0.0
H137 H 0.84728 0.93597 0.4501 0.0
H138 H 0.93418 0.11244 0.45434 0.0
H139 H 0.86955 0.07135 0.45139 0.0
C140 C 0.63061 0.95115 0.05318 0.0
C141 C 0.66149 0.96321 1.02741 0.0
C142 C 0.59009 0.959 0.04698 0.0
C143 C 0.51657 -0.0133 0.97366 0.0
H144 H 0.45149 0.00766 0.06419 0.0
C145 C 0.3499 0.04298 0.98378 0.0
C146 C 0.32265 0.01845 1.00545 0.0
C147 C 0.39115 0.03485 0.98067 0.0
C148 C 0.46927 0.00163 0.03869 0.0
H149 H 0.67381 -0.00739 0.97434 0.0
H150 H 0.60247 0.00818 0.96406 0.0
H151 H 0.52445 0.00074 0.07075 0.0
H152 H 0.31658 0.96503 0.03923 0.0
H153 H 0.38906 0.95162 0.03479 0.0
H154 H 0.46068 -0.01052 0.94177 0.0
C155 C 0.60982 -0.0081 0.98892 0.0
C156 C 0.51112 -0.00255 0.04235 0.0
C157 C 0.65075 -0.0166 0.99494 0.0
C158 C 0.33687 -0.01561 1.02231 0.0
C159 C 0.37828 0.97679 1.01987 0.0
C160 C 0.47457 -0.00822 0.96996 0.0
C161 C 0.57899 -0.02001 1.01513 0.0
C162 C 0.53526 -0.01118 1.01005 0.0
C163 C 0.40591 0.00252 0.99978 0.0
C164 C 0.4505 -0.00164 1.00259 0.0
H165 H 0.6376 0.93513 0.07833 0.0
H166 H 0.56735 0.94807 0.06722 0.0
H167 H 0.53402 -0.02006 0.94815 0.0
H168 H 0.33963 0.06939 0.97045 0.0
H169 H 0.41195 0.05517 0.96518 0.0
C170 C 0.01179 0.33769 0.51651 0.0
C171 C -0.0008 0.32404 0.55226 0.0
C172 C 0.02237 0.37929 0.51198 0.0
C173 C 0.04704 0.47974 0.56581 0.0
H174 H 0.00204 0.52322 0.47559 0.0
C175 C 0.02286 0.65205 0.55062 0.0
C176 C 0.02607 0.66696 0.51381 0.0
C177 C 0.02772 0.61069 0.55613 0.0
C178 C 0.01553 0.51166 0.50067 0.0
H179 H -0.01059 0.3429 0.61159 0.0
H180 H 0.00718 0.41523 0.60368 0.0
H181 H -0.00419 0.45006 0.48294 0.0
H182 H 0.04029 0.65151 0.45467 0.0
H183 H 0.04999 0.58011 0.46436 0.0
H184 H 0.06582 0.54182 0.58386 0.0
C185 C 0.00943 0.39403 0.57915 0.0
C186 C 0.01197 0.46951 0.50487 0.0
C187 C -0.00107 0.35252 0.58364 0.0
C188 C 0.03731 0.64071 0.48331 0.0
C189 C 0.04246 0.59968 0.48881 0.0
C190 C 0.05058 0.52206 0.56162 0.0
C191 C 0.02052 0.40814 0.5431 0.0
C192 C 0.02734 0.45291 0.53762 0.0
C193 C 0.03608 0.58367 0.52495 0.0
C194 C 0.03463 0.53859 0.52906 0.0
H195 H 0.01226 0.31648 0.49178 0.0
H196 H 0.03137 0.38893 0.48392 0.0
H197 H 0.05968 0.46805 0.59123 0.0
H198 H 0.01399 0.67159 0.57462 0.0
H199 H 0.02252 0.59944 0.58436 0.0
C200 C 0.11284 0.26472 0.41365 0.0
C201 C 0.11882 0.23412 0.43915 0.0
C202 C 0.1318 0.26407 0.37786 0.0
C203 C 0.21236 0.2221 0.31827 0.0
H204 H 0.12945 0.20804 0.23859 0.0
C205 C 0.24195 0.14076 0.17268 0.0
C206 C 0.21853 0.14811 0.14056 0.0
C207 C 0.23514 0.16066 0.20808 0.0
C208 C 0.15338 0.21299 0.26003 0.0
H209 H 0.15196 0.18104 0.4487 0.0
H210 H 0.18622 0.18072 0.38654 0.0
H211 H 0.11014 0.22757 0.30357 0.0
H212 H 0.17135 0.18385 0.11957 0.0
H213 H 0.16075 0.22043 0.18095 0.0
H214 H 0.2558 0.20792 0.27495 0.0
C215 C 0.16649 0.20486 0.39408 0.0
C216 C 0.14215 0.224 0.29745 0.0
C217 C 0.1469 0.20503 0.42962 0.0
C218 C 0.18979 0.17758 0.14394 0.0
C219 C 0.18343 0.19814 0.17931 0.0
C220 C 0.22383 0.21195 0.28064 0.0
C221 C 0.15774 0.23334 0.36728 0.0
C222 C 0.1713 0.22763 0.32708 0.0
C223 C 0.20513 0.18902 0.21221 0.0
C224 C 0.19429 0.20598 0.25112 0.0
H225 H 0.09126 0.28746 0.42017 0.0
H226 H 0.12476 0.28649 0.35776 0.0
H227 H 0.23545 0.22501 0.34062 0.0
H228 H 0.26416 0.11796 0.17101 0.0
H229 H 0.25208 0.15203 0.23252 0.0
C230 C 0.82923 0.21295 0.65741 0.0
C231 C 0.84493 0.18112 0.63486 0.0
C232 C 0.81157 0.20526 0.69306 0.0
C233 C 0.76374 0.172 0.76431 0.0
H234 H 0.84045 0.11697 0.82399 0.0
C235 C 0.7331 0.09771 0.91116 0.0
C236 C 0.76557 0.10265 0.9377 0.0
C237 C 0.7373 0.11443 0.87523 0.0
C238 C 0.81882 0.13261 0.80782 0.0
H239 H 0.85138 0.11591 0.63027 0.0
H240 H 0.82095 0.10267 0.69239 0.0
H241 H 0.85512 0.12894 0.75719 0.0
H242 H 0.82621 0.13211 0.94898 0.0
H243 H 0.83352 0.16107 0.88643 0.0
H244 H 0.72707 0.17475 0.81528 0.0
C245 C 0.82248 0.13351 0.68273 0.0
C246 C 0.82701 0.13905 0.76946 0.0
C247 C 0.83971 0.14108 0.6471 0.0
C248 C 0.80072 0.12764 0.92907 0.0
C249 C 0.80503 0.14402 0.89318 0.0
C250 C 0.75511 0.16481 0.80277 0.0
C251 C 0.80972 0.16574 0.7067 0.0
C252 C 0.79961 0.15873 0.74725 0.0
C253 C 0.77414 0.13606 0.86531 0.0
C254 C 0.78279 0.14526 0.82492 0.0
H255 H 0.83297 0.24412 0.6487 0.0
H256 H 0.802 0.23064 0.71102 0.0
H257 H 0.7422 0.18732 0.74777 0.0
H258 H 0.70568 0.0785 0.91702 0.0
H259 H 0.71303 0.1078 0.85427 0.0
C260 C 0.86108 0.71206 0.39237 0.0
C261 C 0.86138 0.74578 0.41881 0.0
C262 C 0.84421 0.71404 0.35588 0.0
C263 C 0.78336 0.77629 0.29429 0.0
H264 H 0.86016 0.74429 0.21597 0.0
C265 C 0.83351 0.82849 0.13663 0.0
C266 C 0.79491 0.83128 0.11997 0.0
C267 C 0.83709 0.80855 0.17062 0.0
C268 C 0.83829 0.75321 0.23744 0.0
H269 H 0.8411 0.80655 0.42912 0.0
H270 H 0.81168 0.81012 0.36554 0.0
H271 H 0.87094 0.72743 0.28191 0.0
H272 H 0.73006 0.81333 0.12443 0.0
H273 H 0.73633 0.77824 0.18369 0.0
H274 H 0.75185 0.80383 0.25001 0.0
C275 C 0.82434 0.78206 0.37283 0.0
C276 C 0.84417 0.74314 0.27523 0.0
C277 C 0.84122 0.78006 0.40934 0.0
C278 C 0.76024 0.81162 0.13664 0.0
C279 C 0.76378 0.79186 0.17075 0.0
C280 C 0.77738 0.78622 0.25642 0.0
C281 C 0.82728 0.74977 0.34512 0.0
C282 C 0.81732 0.75539 0.3043 0.0
C283 C 0.80209 0.79113 0.18874 0.0
C284 C 0.80535 0.77566 0.22772 0.0
H285 H 0.8763 0.68516 0.39894 0.0
H286 H 0.8462 0.68831 0.33548 0.0
H287 H 0.76194 0.78589 0.3159 0.0
H288 H 0.86071 0.84357 0.12452 0.0
H289 H 0.86703 0.80886 0.18382 0.0
C290 C 0.15 0.77028 0.62952 0.0
C291 C 0.13935 0.805 0.61128 0.0
C292 C 0.17027 0.77441 0.66488 0.0
C293 C 0.22163 0.85065 0.73618 0.0
H294 H 0.16681 0.78164 0.80987 0.0
C295 C 0.17396 0.86598 0.90266 0.0
C296 C 0.20987 0.88616 0.91845 0.0
C297 C 0.17405 0.84751 0.8658 0.0
C298 C 0.1826 0.80106 0.78968 0.0
H299 H 0.14438 0.87116 0.61402 0.0
H300 H 0.17925 0.87848 0.67559 0.0
H301 H 0.15352 0.76737 0.74195 0.0
H302 H 0.27469 0.90054 0.90927 0.0
H303 H 0.27506 0.8677 0.84488 0.0
H304 H 0.24853 0.886 0.78411 0.0
C305 C 0.17242 0.84801 0.66275 0.0
C306 C 0.17539 0.79257 0.7506 0.0
C307 C 0.15226 0.84386 0.62742 0.0
C308 C 0.24653 0.88521 0.89772 0.0
C309 C 0.24665 0.86672 0.86075 0.0
C310 C 0.22874 0.85922 0.77529 0.0
C311 C 0.1802 0.81333 0.68267 0.0
C312 C 0.1938 0.81803 0.72339 0.0
C313 C 0.21011 0.84878 0.84388 0.0
C314 C 0.20827 0.83531 0.80257 0.0
H315 H 0.14051 0.73992 0.61765 0.0
H316 H 0.17651 0.74707 0.67907 0.0
H317 H 0.23679 0.87054 0.71602 0.0
H318 H 0.14523 0.86634 0.91798 0.0
H319 H 0.14523 0.83441 0.8537 0.0
C320 C 0.81269 0.86657 0.91286 0.0
C321 C 0.81208 0.90916 0.92024 0.0
C322 C 0.82508 0.85011 0.87684 0.0
C323 C 0.8887 0.87736 0.79235 0.0
H324 H 0.83015 0.78469 0.73809 0.0
C325 C 0.95873 0.79593 0.65972 0.0
C326 C 0.93443 0.78765 0.62645 0.0
C327 C 0.94171 0.80842 0.69484 0.0
C328 C 0.84682 0.81068 0.75276 0.0
H329 H 0.8246 0.96741 0.89454 0.0
H330 H 0.84671 0.93906 0.83304 0.0
H331 H 0.80521 0.81024 0.80056 0.0
H332 H 0.87199 0.78536 0.60547 0.0
H333 H 0.84197 0.80618 0.66742 0.0
H334 H 0.93059 0.87765 0.74521 0.0
C335 C 0.8374 0.91819 0.85487 0.0
C336 C 0.83269 0.82516 0.78884 0.0
C337 C 0.82441 0.93451 0.89039 0.0
C338 C 0.89187 0.79105 0.6302 0.0
C339 C 0.87462 0.80309 0.66584 0.0
C340 C 0.90318 0.86248 0.75682 0.0
C341 C 0.83808 0.87573 0.84733 0.0
C342 C 0.85332 0.85893 0.8092 0.0
C343 C 0.89949 0.81282 0.69859 0.0
C344 C 0.88257 0.82891 0.73628 0.0
H345 H 0.80342 0.8459 0.93486 0.0
H346 H 0.82531 0.81728 0.87238 0.0
H347 H 0.90571 0.90318 0.80696 0.0
H348 H -0.00845 0.7938 0.65865 0.0
H349 H 0.96194 0.81493 0.71926 0.0
C350 C 0.19042 0.91264 0.13747 0.0
C351 C 0.19278 0.95538 0.1345 0.0
C352 C 0.17617 0.89461 0.17126 0.0
C353 C 0.11149 0.91535 0.25718 0.0
H354 H 0.16029 0.82368 0.2992 0.0
C355 C 0.03357 0.82605 0.3804 0.0
C356 C 0.05821 0.81453 0.41046 0.0
C357 C 0.05096 0.84194 0.34705 0.0
C358 C 0.14631 0.84939 0.28802 0.0
H359 H 0.18216 0.0123 0.16601 0.0
H360 H 0.15736 -0.01882 0.22387 0.0
H361 H 0.18894 0.85338 0.24128 0.0
H362 H 0.12121 0.81044 0.4278 0.0
H363 H 0.15156 0.8376 0.36938 0.0
H364 H 0.06885 0.91147 0.30362 0.0
C365 C 0.16638 0.96137 0.20014 0.0
C366 C 0.16258 0.86625 0.25445 0.0
C367 C 0.1811 -0.02066 0.16676 0.0
C368 C 0.10106 0.81882 0.4055 0.0
C369 C 0.11852 0.83433 0.37178 0.0
C370 C 0.09494 0.8982 0.29033 0.0
C371 C 0.16322 0.91866 0.20299 0.0
C372 C 0.1456 0.89972 0.23852 0.0
C373 C 0.09376 0.84664 0.3421 0.0
C374 C 0.11203 0.86494 0.3065 0.0
H375 H 0.19877 0.89296 0.11341 0.0
H376 H 0.17409 0.86164 0.17204 0.0
H377 H 0.0971 0.94074 0.24585 0.0
H378 H 0.00051 0.82338 0.38275 0.0
H379 H 0.03064 0.85037 0.32491 0.0
C380 C 0.02534 0.18376 0.67607 0.0
C381 C 0.04838 0.19047 0.64262 0.0
C382 C 0.0438 0.17335 0.71004 0.0
C383 C 0.13703 0.12972 0.7481 0.0
H384 H 0.09321 0.16579 0.84594 0.0
C385 C 0.17639 0.05478 0.88961 0.0
C386 C 0.17892 0.0785 0.92447 0.0
C387 C 0.1636 0.07096 0.85559 0.0
C388 C 0.10631 0.15561 0.81904 0.0
H389 H 0.10986 0.19167 0.61971 0.0
H390 H 0.1423 0.17373 0.67916 0.0
H391 H 0.06661 0.19029 0.78719 0.0
H392 H 0.17011 0.13871 0.94989 0.0
H393 H 0.14821 0.16707 0.89066 0.0
H394 H 0.17704 0.09534 0.78004 0.0
C395 C 0.10953 0.17624 0.67887 0.0
C396 C 0.09055 0.16936 0.78499 0.0
C397 C 0.09095 0.18692 0.64468 0.0
C398 C 0.16864 0.11931 0.92386 0.0
C399 C 0.1557 0.13554 0.88971 0.0
C400 C 0.15274 0.11587 0.78218 0.0
C401 C 0.08621 0.16908 0.71219 0.0
C402 C 0.10522 0.15634 0.74878 0.0
C403 C 0.15271 0.11158 0.8549 0.0
C404 C 0.1374 0.12818 0.81836 0.0
H405 H -0.00748 0.18603 0.67606 0.0
H406 H 0.02435 0.16759 0.73445 0.0
H407 H 0.14919 0.11859 0.72109 0.0
H408 H 0.18383 0.02321 0.88852 0.0
H409 H 0.16128 0.05103 0.82991 0.0
C410 C 0.79238 0.0132 0.17436 0.0
C411 C 0.78405 0.03485 0.14188 0.0
C412 C 0.80533 0.03356 0.20917 0.0
C413 C 0.85267 0.13411 0.25092 0.0
H414 H 0.82366 0.08677 0.34714 0.0
C415 C 0.93566 0.19049 0.39442 0.0
C416 C 0.91426 0.18864 0.42935 0.0
C417 C 0.91755 0.17453 0.35972 0.0
C418 C 0.83189 0.10091 0.32073 0.0
H419 H 0.78285 0.09584 0.12163 0.0
H420 H 0.80465 0.13142 0.18243 0.0
H421 H 0.79546 0.05477 0.28754 0.0
H422 H 0.85595 0.16866 0.45406 0.0
H423 H 0.82419 0.14162 0.39379 0.0
H424 H 0.88865 0.1806 0.28421 0.0
C425 C 0.80156 0.09836 0.18082 0.0
C426 C 0.816 0.08206 0.28614 0.0
C427 C 0.78847 0.07788 0.14585 0.0
C428 C 0.87354 0.17113 0.428 0.0
C429 C 0.85542 0.15501 0.39322 0.0
C430 C 0.86859 0.15297 0.28554 0.0
C431 C 0.8106 0.07656 0.21314 0.0
C432 C 0.82627 0.09805 0.25045 0.0
C433 C 0.87724 0.15592 0.35839 0.0
C434 C 0.85877 0.13663 0.3212 0.0
H435 H 0.78991 -0.01988 0.17277 0.0
H436 H 0.81244 0.01525 0.2327 0.0
H437 H 0.86189 0.14748 0.22439 0.0
H438 H 0.96712 0.20328 0.39388 0.0
H439 H 0.93593 0.1756 0.33406 0.0
loop_
_geom_bond_atom_site_label_1
_geom_bond_atom_site_label_2
_geom_bond_distance
_geom_bond_site_symmetry_2
_ccdc_geom_bond_type
Dy0 O4 2.398 . S
Dy0 O5 2.491 . S
Dy0 O6 2.403 . S
Dy0 O7 2.664 1_554 S
Dy0 O11 2.326 . S
Dy0 O15 2.310 . S
Dy0 O16 2.351 1_554 S
C1 O12 1.185 . S
C1 O13 1.355 . S
C2 O4 1.185 . S
C2 O5 1.355 . S
Dy3 O7 2.310 1_565 S
Dy3 O10 2.351 1_556 S
Dy3 O12 2.398 . S
Dy3 O13 2.491 . S
Dy3 O14 2.403 . S
Dy3 O15 2.664 1_566 S
Dy3 O17 2.326 1_565 S
O4 Dy0 2.398 . S
O4 C2 1.185 . S
O5 Dy0 2.491 . S
O5 C2 1.355 . S
O6 Dy0 2.403 . S
O6 C8 1.254 . S
O7 Dy0 2.664 1_556 S
O7 Dy3 2.310 1_545 S
O7 C8 1.268 1_556 S
C8 O6 1.254 . S
C8 O7 1.268 1_554 S
C9 O14 1.254 1_544 S
C9 O15 1.268 . S
O10 Dy3 2.351 1_554 S
O10 C18 1.249 . S
O11 Dy0 2.326 . S
O11 C18 1.267 1_545 S
O12 C1 1.185 . S
O12 Dy3 2.398 . S
O13 C1 1.355 . S
O13 Dy3 2.491 . S
O14 Dy3 2.403 . S
O14 C9 1.254 1_566 S
O15 Dy0 2.310 . S
O15 Dy3 2.664 1_544 S
O15 C9 1.268 . S
O16 Dy0 2.351 1_556 S
O16 C19 1.249 . S
O17 Dy3 2.326 1_545 S
O17 C19 1.267 . S
C18 O10 1.249 . S
C18 O11 1.267 1_565 S
C19 O16 1.249 . S
C19 O17 1.267 . S
Dy20 O24 2.398 . S
Dy20 O25 2.491 . S
Dy20 O26 2.403 . S
Dy20 O27 2.664 1_655 S
Dy20 O31 2.326 1_655 S
Dy20 O35 2.310 1_655 S
Dy20 O36 2.351 . S
C21 O32 1.185 . S
C21 O33 1.355 . S
C22 O24 1.185 . S
C22 O25 1.355 . S
Dy23 O27 2.310 . S
Dy23 O30 2.351 . S
Dy23 O32 2.398 . S
Dy23 O33 2.491 . S
Dy23 O34 2.403 . S
Dy23 O35 2.664 . S
Dy23 O37 2.326 . S
O24 Dy20 2.398 . S
O24 C22 1.185 . S
O25 Dy20 2.491 . S
O25 C22 1.355 . S
O26 Dy20 2.403 . S
O26 C28 1.254 1_655 S
O27 Dy20 2.664 1_455 S
O27 Dy23 2.310 . S
O27 C28 1.268 . S
C28 O26 1.254 1_455 S
C28 O27 1.268 . S
C29 O34 1.254 . S
C29 O35 1.268 . S
O30 Dy23 2.351 . S
O30 C38 1.249 . S
O31 Dy20 2.326 1_455 S
O31 C38 1.267 . S
O32 C21 1.185 . S
O32 Dy23 2.398 . S
O33 C21 1.355 . S
O33 Dy23 2.491 . S
O34 Dy23 2.403 . S
O34 C29 1.254 . S
O35 Dy20 2.310 1_455 S
O35 Dy23 2.664 . S
O35 C29 1.268 . S
O36 Dy20 2.351 . S
O36 C39 1.249 . S
O37 Dy23 2.326 . S
O37 C39 1.267 1_455 S
C38 O30 1.249 . S
C38 O31 1.267 . S
C39 O36 1.249 . S
C39 O37 1.267 1_655 S
Dy40 O44 2.398 . S
Dy40 O45 2.491 . S
Dy40 O46 2.403 . S
Dy40 O47 2.664 1_564 S
Dy40 O51 2.326 1_565 S
Dy40 O55 2.310 . S
Dy40 O56 2.351 1_554 S
C41 O52 1.185 . S
C41 O53 1.355 . S
C42 O44 1.185 . S
C42 O45 1.355 . S
Dy43 O47 2.310 . S
Dy43 O50 2.351 1_556 S
Dy43 O52 2.398 . S
Dy43 O53 2.491 . S
Dy43 O54 2.403 . S
Dy43 O55 2.664 1_546 S
Dy43 O57 2.326 1_545 S
O44 Dy40 2.398 . S
O44 C42 1.185 . S
O45 Dy40 2.491 . S
O45 C42 1.355 . S
O46 Dy40 2.403 . S
O46 C48 1.267 . S
O47 Dy40 2.664 1_546 S
O47 Dy43 2.310 . S
O47 C48 1.261 1_546 S
C48 O46 1.267 . S
C48 O47 1.261 1_564 S
C49 O54 1.260 . S
C49 O55 1.265 1_546 S
O50 Dy43 2.351 1_554 S
O50 C58 1.249 . S
O51 Dy40 2.326 1_545 S
O51 C58 1.267 . S
O52 C41 1.185 . S
O52 Dy43 2.398 . S
O53 C41 1.355 . S
O53 Dy43 2.491 . S
O54 Dy43 2.403 . S
O54 C49 1.260 . S
O55 Dy40 2.310 . S
O55 Dy43 2.664 1_564 S
O55 C49 1.265 1_564 S
O56 Dy40 2.351 1_556 S
O56 C59 1.249 . S
O57 Dy43 2.326 1_565 S
O57 C59 1.267 . S
C58 O50 1.249 . S
C58 O51 1.267 . S
C59 O56 1.249 . S
C59 O57 1.267 . S
Dy60 O64 2.398 . S
Dy60 O65 2.491 . S
Dy60 O66 2.403 . S
Dy60 O67 2.664 1_655 S
Dy60 O71 2.326 1_655 S
Dy60 O75 2.310 1_655 S
Dy60 O76 2.351 . S
C61 O72 1.185 . S
C61 O73 1.355 . S
C62 O64 1.185 . S
C62 O65 1.355 . S
Dy63 O67 2.310 . S
Dy63 O70 2.351 . S
Dy63 O72 2.398 . S
Dy63 O73 2.491 . S
Dy63 O74 2.403 . S
Dy63 O75 2.664 . S
Dy63 O77 2.326 . S
O64 Dy60 2.398 . S
O64 C62 1.185 . S
O65 Dy60 2.491 . S
O65 C62 1.355 . S
O66 Dy60 2.403 . S
O66 C68 1.260 . S
O67 Dy60 2.664 1_455 S
O67 Dy63 2.310 . S
O67 C68 1.265 1_455 S
C68 O66 1.260 . S
C68 O67 1.265 1_655 S
C69 O74 1.254 . S
C69 O75 1.268 . S
O70 Dy63 2.351 . S
O70 C78 1.249 . S
O71 Dy60 2.326 1_455 S
O71 C78 1.267 . S
O72 C61 1.185 . S
O72 Dy63 2.398 . S
O73 C61 1.355 . S
O73 Dy63 2.491 . S
O74 Dy63 2.403 . S
O74 C69 1.254 . S
O75 Dy60 2.310 1_455 S
O75 Dy63 2.664 . S
O75 C69 1.268 . S
O76 Dy60 2.351 . S
O76 C79 1.249 . S
O77 Dy63 2.326 . S
O77 C79 1.267 1_455 S
C78 O70 1.249 . S
C78 O71 1.267 . S
C79 O76 1.249 . S
C79 O77 1.267 1_655 S
C80 C81 1.349 1_546 S
C80 C82 1.327 . S
C80 H105 0.950 . S
C81 C80 1.349 1_564 S
C81 C97 1.349 . S
C82 C80 1.327 . S
C82 C101 1.429 1_556 S
C82 H106 0.950 . S
C83 C100 1.574 1_655 S
C83 C102 1.368 1_565 S
C83 H107 0.949 . S
H84 C88 0.949 . S
C85 C86 1.349 . S
C85 C87 1.327 . S
C85 H108 0.944 1_545 S
C86 C85 1.349 . S
C86 C98 1.349 1_554 S
C87 C85 1.327 . S
C87 C103 1.429 . S
C87 H109 0.950 1_545 S
C88 H84 0.949 . S
C88 C96 1.574 1_455 S
C88 C104 1.368 1_556 S
H89 C97 0.950 . S
H90 C95 0.950 . S
H91 C96 0.949 . S
H92 C98 0.950 . S
H93 C99 0.950 . S
H94 C100 0.949 . S
C95 H90 0.950 . S
C95 C97 1.327 . S
C95 C101 1.429 1_565 S
C96 C88 1.574 1_655 S
C96 H91 0.949 . S
C96 C102 1.368 1_556 S
C97 C81 1.349 . S
C97 H89 0.950 . S
C97 C95 1.327 . S
C98 C86 1.349 1_556 S
C98 H92 0.950 . S
C98 C99 1.327 . S
C99 H93 0.950 . S
C99 C98 1.327 . S
C99 C103 1.429 1_556 S
C100 C83 1.574 1_455 S
C100 H94 0.949 . S
C100 C104 1.368 1_565 S
C101 C82 1.429 1_554 S
C101 C95 1.429 1_545 S
C101 C102 1.523 . S
C102 C83 1.368 1_545 S
C102 C96 1.368 1_554 S
C102 C101 1.523 . S
C103 C87 1.429 . S
C103 C99 1.429 1_554 S
C103 C104 1.523 . S
C104 C88 1.368 1_554 S
C104 C100 1.368 1_545 S
C104 C103 1.523 . S
H105 C80 0.950 . S
H106 C82 0.950 . S
H107 C83 0.949 . S
H108 C85 0.944 1_565 S
H109 C87 0.950 1_565 S
C110 C111 1.349 . S
C110 C112 1.327 . S
C110 H135 0.950 . S
C111 C110 1.349 . S
C111 C127 1.349 1_455 S
C112 C110 1.327 . S
C112 C131 1.429 . S
C112 H136 0.950 . S
C113 C130 1.574 1_565 S
C113 C132 1.368 1_655 S
C113 H137 0.949 . S
H114 C118 0.949 . S
C115 C116 1.349 1_655 S
C115 C117 1.327 . S
C115 H138 0.950 . S
C116 C115 1.349 1_455 S
C116 C128 1.349 . S
C117 C115 1.327 . S
C117 C133 1.429 1_655 S
C117 H139 0.950 . S
C118 H114 0.949 . S
C118 C126 1.574 1_545 S
C118 C134 1.368 . S
H119 C127 0.950 . S
H120 C125 0.950 . S
H121 C126 0.949 . S
H122 C128 0.950 . S
H123 C129 0.950 . S
H124 C130 0.949 . S
C125 H120 0.950 . S
C125 C127 1.327 . S
C125 C131 1.429 1_655 S
C126 C118 1.574 1_565 S
C126 H121 0.949 . S
C126 C132 1.368 . S
C127 C111 1.349 1_655 S
C127 H119 0.950 . S
C127 C125 1.327 . S
C128 C116 1.349 . S
C128 H122 0.950 . S
C128 C129 1.327 . S
C129 H123 0.950 . S
C129 C128 1.327 . S
C129 C133 1.429 . S
C130 C113 1.574 1_545 S
C130 H124 0.949 . S
C130 C134 1.368 1_655 S
C131 C112 1.429 . S
C131 C125 1.429 1_455 S
C131 C132 1.523 . S
C132 C113 1.368 1_455 S
C132 C126 1.368 . S
C132 C131 1.523 . S
C133 C117 1.429 1_455 S
C133 C129 1.429 . S
C133 C134 1.523 . S
C134 C118 1.368 . S
C134 C130 1.368 1_455 S
C134 C133 1.523 . S
H135 C110 0.950 . S
H136 C112 0.950 . S
H137 C113 0.949 . S
H138 C115 0.950 . S
H139 C117 0.950 . S
C140 C141 1.349 1_554 S
C140 C142 1.327 . S
C140 H165 0.950 . S
C141 C140 1.349 1_556 S
C141 C157 1.349 1_545 S
C142 C140 1.327 . S
C142 C161 1.429 1_554 S
C142 H166 0.950 . S
C143 C160 1.574 . S
C143 C162 1.368 1_565 S
C143 H167 0.949 . S
H144 C148 0.949 . S
C145 C146 1.349 . S
C145 C147 1.327 . S
C145 H168 0.950 1_545 S
C146 C145 1.349 . S
C146 C158 1.349 1_556 S
C147 C145 1.327 . S
C147 C163 1.429 . S
C147 H169 0.950 1_545 S
C148 H144 0.949 . S
C148 C156 1.574 . S
C148 C164 1.368 1_554 S
H149 C157 0.950 . S
H150 C155 0.950 . S
H151 C156 0.949 . S
H152 C158 0.950 . S
H153 C159 0.950 . S
H154 C160 0.949 . S
C155 H150 0.950 . S
C155 C157 1.327 . S
C155 C161 1.429 1_565 S
C156 C148 1.574 . S
C156 H151 0.949 . S
C156 C162 1.368 1_554 S
C157 C141 1.349 1_565 S
C157 H149 0.950 . S
C157 C155 1.327 . S
C158 C146 1.349 1_554 S
C158 H152 0.950 . S
C158 C159 1.327 . S
C159 H153 0.950 . S
C159 C158 1.327 . S
C159 C163 1.429 1_554 S
C160 C143 1.574 . S
C160 H154 0.949 . S
C160 C164 1.368 1_565 S
C161 C142 1.429 1_556 S
C161 C155 1.429 1_545 S
C161 C162 1.523 . S
C162 C143 1.368 1_545 S
C162 C156 1.368 1_556 S
C162 C161 1.523 . S
C163 C147 1.429 . S
C163 C159 1.429 1_556 S
C163 C164 1.523 . S
C164 C148 1.368 1_556 S
C164 C160 1.368 1_545 S
C164 C163 1.523 . S
H165 C140 0.950 . S
H166 C142 0.950 . S
H167 C143 0.949 . S
H168 C145 0.950 1_565 S
H169 C147 0.950 1_565 S
C170 C171 1.349 1_655 S
C170 C172 1.327 . S
C170 H195 0.950 . S
C171 C170 1.349 1_455 S
C171 C187 1.349 . S
C172 C170 1.327 . S
C172 C191 1.429 1_655 S
C172 H196 0.950 . S
C173 C190 1.574 . S
C173 C192 1.368 . S
C173 H197 0.949 . S
H174 C178 0.949 . S
C175 C176 1.349 . S
C175 C177 1.327 . S
C175 H198 0.950 . S
C176 C175 1.349 . S
C176 C188 1.349 1_455 S
C177 C175 1.327 . S
C177 C193 1.429 . S
C177 H199 0.950 . S
C178 H174 0.949 . S
C178 C186 1.574 . S
C178 C194 1.368 1_655 S
H179 C187 0.950 . S
H180 C185 0.950 . S
H181 C186 0.949 . S
H182 C188 0.950 . S
H183 C189 0.950 . S
H184 C190 0.949 . S
C185 H180 0.950 . S
C185 C187 1.327 . S
C185 C191 1.429 . S
C186 C178 1.574 . S
C186 H181 0.949 . S
C186 C192 1.368 1_655 S
C187 C171 1.349 . S
C187 H179 0.950 . S
C187 C185 1.327 . S
C188 C176 1.349 1_655 S
C188 H182 0.950 . S
C188 C189 1.327 . S
C189 H183 0.950 . S
C189 C188 1.327 . S
C189 C193 1.429 1_655 S
C190 C173 1.574 . S
C190 H184 0.949 . S
C190 C194 1.368 . S
C191 C172 1.429 1_455 S
C191 C185 1.429 . S
C191 C192 1.523 . S
C192 C173 1.368 . S
C192 C186 1.368 1_455 S
C192 C191 1.523 . S
C193 C177 1.429 . S
C193 C189 1.429 1_455 S
C193 C194 1.523 . S
C194 C178 1.368 1_455 S
C194 C190 1.368 . S
C194 C193 1.523 . S
H195 C170 0.950 . S
H196 C172 0.950 . S
H197 C173 0.949 . S
H198 C175 0.950 . S
H199 C177 0.950 . S
C200 C201 1.349 . S
C200 C202 1.327 . S
C200 H225 0.950 . S
C201 C200 1.349 . S
C201 C217 1.349 . S
C202 C200 1.327 . S
C202 C221 1.429 . S
C202 H226 0.950 . S
C203 C220 1.574 . S
C203 C222 1.368 . S
C203 H227 0.949 . S
H204 C208 0.949 . S
C205 C206 1.349 . S
C205 C207 1.327 . S
C205 H228 0.950 . S
C206 C205 1.349 . S
C206 C218 1.349 . S
C207 C205 1.327 . S
C207 C223 1.429 . S
C207 H229 0.950 . S
C208 H204 0.949 . S
C208 C216 1.574 . S
C208 C224 1.368 . S
H209 C217 0.950 . S
H210 C215 0.950 . S
H211 C216 0.949 . S
H212 C218 0.950 . S
H213 C219 0.950 . S
H214 C220 0.949 . S
C215 H210 0.950 . S
C215 C217 1.327 . S
C215 C221 1.429 . S
C216 C208 1.574 . S
C216 H211 0.949 . S
C216 C222 1.368 . S
C217 C201 1.349 . S
C217 H209 0.950 . S
C217 C215 1.327 . S
C218 C206 1.349 . S
C218 H212 0.950 . S
C218 C219 1.327 . S
C219 H213 0.950 . S
C219 C218 1.327 . S
C219 C223 1.429 . S
C220 C203 1.574 . S
C220 H214 0.949 . S
C220 C224 1.368 . S
C221 C202 1.429 . S
C221 C215 1.429 . S
C221 C222 1.523 . S
C222 C203 1.368 . S
C222 C216 1.368 . S
C222 C221 1.523 . S
C223 C207 1.429 . S
C223 C219 1.429 . S
C223 C224 1.523 . S
C224 C208 1.368 . S
C224 C220 1.368 . S
C224 C223 1.523 . S
H225 C200 0.950 . S
H226 C202 0.950 . S
H227 C203 0.949 . S
H228 C205 0.950 . S
H229 C207 0.950 . S
C230 C231 1.349 . S
C230 C232 1.327 . S
C230 H255 0.950 . S
C231 C230 1.349 . S
C231 C247 1.349 . S
C232 C230 1.327 . S
C232 C251 1.429 . S
C232 H256 0.950 . S
C233 C250 1.574 . S
C233 C252 1.368 . S
C233 H257 0.949 . S
H234 C238 0.949 . S
C235 C236 1.349 . S
C235 C237 1.327 . S
C235 H258 0.950 . S
C236 C235 1.349 . S
C236 C248 1.349 . S
C237 C235 1.327 . S
C237 C253 1.429 . S
C237 H259 0.950 . S
C238 H234 0.949 . S
C238 C246 1.574 . S
C238 C254 1.368 . S
H239 C247 0.950 . S
H240 C245 0.950 . S
H241 C246 0.949 . S
H242 C248 0.950 . S
H243 C249 0.950 . S
H244 C250 0.949 . S
C245 H240 0.950 . S
C245 C247 1.327 . S
C245 C251 1.429 . S
C246 C238 1.574 . S
C246 H241 0.949 . S
C246 C252 1.368 . S
C247 C231 1.349 . S
C247 H239 0.950 . S
C247 C245 1.327 . S
C248 C236 1.349 . S
C248 H242 0.950 . S
C248 C249 1.327 . S
C249 H243 0.950 . S
C249 C248 1.327 . S
C249 C253 1.429 . S
C250 C233 1.574 . S
C250 H244 0.949 . S
C250 C254 1.368 . S
C251 C232 1.429 . S
C251 C245 1.429 . S
C251 C252 1.523 . S
C252 C233 1.368 . S
C252 C246 1.368 . S
C252 C251 1.523 . S
C253 C237 1.429 . S
C253 C249 1.429 . S
C253 C254 1.523 . S
C254 C238 1.368 . S
C254 C250 1.368 . S
C254 C253 1.523 . S
H255 C230 0.950 . S
H256 C232 0.950 . S
H257 C233 0.949 . S
H258 C235 0.950 . S
H259 C237 0.950 . S
C260 C261 1.349 . S
C260 C262 1.327 . S
C260 H285 0.950 . S
C261 C260 1.349 . S
C261 C277 1.349 . S
C262 C260 1.327 . S
C262 C281 1.429 . S
C262 H286 0.950 . S
C263 C280 1.574 . S
C263 C282 1.368 . S
C263 H287 0.949 . S
H264 C268 0.949 . S
C265 C266 1.349 . S
C265 C267 1.327 . S
C265 H288 0.950 . S
C266 C265 1.349 . S
C266 C278 1.349 . S
C267 C265 1.327 . S
C267 C283 1.429 . S
C267 H289 0.950 . S
C268 H264 0.949 . S
C268 C276 1.574 . S
C268 C284 1.368 . S
H269 C277 0.950 . S
H270 C275 0.950 . S
H271 C276 0.949 . S
H272 C278 0.950 . S
H273 C279 0.950 . S
H274 C280 0.949 . S
C275 H270 0.950 . S
C275 C277 1.327 . S
C275 C281 1.429 . S
C276 C268 1.574 . S
C276 H271 0.949 . S
C276 C282 1.368 . S
C277 C261 1.349 . S
C277 H269 0.950 . S
C277 C275 1.327 . S
C278 C266 1.349 . S
C278 H272 0.950 . S
C278 C279 1.327 . S
C279 H273 0.950 . S
C279 C278 1.327 . S
C279 C283 1.429 . S
C280 C263 1.574 . S
C280 H274 0.949 . S
C280 C284 1.368 . S
C281 C262 1.429 . S
C281 C275 1.429 . S
C281 C282 1.523 . S
C282 C263 1.368 . S
C282 C276 1.368 . S
C282 C281 1.523 . S
C283 C267 1.429 . S
C283 C279 1.429 . S
C283 C284 1.523 . S
C284 C268 1.368 . S
C284 C280 1.368 . S
C284 C283 1.523 . S
H285 C260 0.950 . S
H286 C262 0.950 . S
H287 C263 0.949 . S
H288 C265 0.950 . S
H289 C267 0.950 . S
C290 C291 1.349 . S
C290 C292 1.327 . S
C290 H315 0.950 . S
C291 C290 1.349 . S
C291 C307 1.349 . S
C292 C290 1.327 . S
C292 C311 1.429 . S
C292 H316 0.950 . S
C293 C310 1.574 . S
C293 C312 1.368 . S
C293 H317 0.949 . S
H294 C298 0.949 . S
C295 C296 1.349 . S
C295 C297 1.327 . S
C295 H318 0.950 . S
C296 C295 1.349 . S
C296 C308 1.349 . S
C297 C295 1.327 . S
C297 C313 1.429 . S
C297 H319 0.950 . S
C298 H294 0.949 . S
C298 C306 1.574 . S
C298 C314 1.368 . S
H299 C307 0.950 . S
H300 C305 0.950 . S
H301 C306 0.949 . S
H302 C308 0.950 . S
H303 C309 0.950 . S
H304 C310 0.949 . S
C305 H300 0.950 . S
C305 C307 1.327 . S
C305 C311 1.429 . S
C306 C298 1.574 . S
C306 H301 0.949 . S
C306 C312 1.368 . S
C307 C291 1.349 . S
C307 H299 0.950 . S
C307 C305 1.327 . S
C308 C296 1.349 . S
C308 H302 0.950 . S
C308 C309 1.327 . S
C309 H303 0.950 . S
C309 C308 1.327 . S
C309 C313 1.429 . S
C310 C293 1.574 . S
C310 H304 0.949 . S
C310 C314 1.368 . S
C311 C292 1.429 . S
C311 C305 1.429 . S
C311 C312 1.523 . S
C312 C293 1.368 . S
C312 C306 1.368 . S
C312 C311 1.523 . S
C313 C297 1.429 . S
C313 C309 1.429 . S
C313 C314 1.523 . S
C314 C298 1.368 . S
C314 C310 1.368 . S
C314 C313 1.523 . S
H315 C290 0.950 . S
H316 C292 0.950 . S
H317 C293 0.949 . S
H318 C295 0.950 . S
H319 C297 0.950 . S
C320 C321 1.349 . S
C320 C322 1.327 . S
C320 H345 0.950 . S
C321 C320 1.349 . S
C321 C337 1.349 . S
C322 C320 1.327 . S
C322 C341 1.429 . S
C322 H346 0.950 . S
C323 C340 1.574 . S
C323 C342 1.368 . S
C323 H347 0.949 . S
H324 C328 0.949 . S
C325 C326 1.349 . S
C325 C327 1.327 . S
C325 H348 0.950 . S
C326 C325 1.349 . S
C326 C338 1.349 . S
C327 C325 1.327 . S
C327 C343 1.429 . S
C327 H349 0.950 . S
C328 H324 0.949 . S
C328 C336 1.574 . S
C328 C344 1.368 . S
H329 C337 0.950 . S
H330 C335 0.950 . S
H331 C336 0.949 . S
H332 C338 0.950 . S
H333 C339 0.950 . S
H334 C340 0.949 . S
C335 H330 0.950 . S
C335 C337 1.327 . S
C335 C341 1.429 . S
C336 C328 1.574 . S
C336 H331 0.949 . S
C336 C342 1.368 . S
C337 C321 1.349 . S
C337 H329 0.950 . S
C337 C335 1.327 . S
C338 C326 1.349 . S
C338 H332 0.950 . S
C338 C339 1.327 . S
C339 H333 0.950 . S
C339 C338 1.327 . S
C339 C343 1.429 . S
C340 C323 1.574 . S
C340 H334 0.949 . S
C340 C344 1.368 . S
C341 C322 1.429 . S
C341 C335 1.429 . S
C341 C342 1.523 . S
C342 C323 1.368 . S
C342 C336 1.368 . S
C342 C341 1.523 . S
C343 C327 1.429 . S
C343 C339 1.429 . S
C343 C344 1.523 . S
C344 C328 1.368 . S
C344 C340 1.368 . S
C344 C343 1.523 . S
H345 C320 0.950 . S
H346 C322 0.950 . S
H347 C323 0.949 . S
H348 C325 0.950 . S
H349 C327 0.950 . S
C350 C351 1.349 . S
C350 C352 1.327 . S
C350 H375 0.950 . S
C351 C350 1.349 . S
C351 C367 1.349 . S
C352 C350 1.327 . S
C352 C371 1.429 . S
C352 H376 0.950 . S
C353 C370 1.574 . S
C353 C372 1.368 . S
C353 H377 0.949 . S
H354 C358 0.949 . S
C355 C356 1.349 . S
C355 C357 1.327 . S
C355 H378 0.950 . S
C356 C355 1.349 . S
C356 C368 1.349 . S
C357 C355 1.327 . S
C357 C373 1.429 . S
C357 H379 0.950 . S
C358 H354 0.949 . S
C358 C366 1.574 . S
C358 C374 1.368 . S
H359 C367 0.950 1_545 S
H360 C365 0.950 . S
H361 C366 0.949 . S
H362 C368 0.950 . S
H363 C369 0.950 . S
H364 C370 0.949 . S
C365 H360 0.950 . S
C365 C367 1.327 . S
C365 C371 1.429 . S
C366 C358 1.574 . S
C366 H361 0.949 . S
C366 C372 1.368 . S
C367 C351 1.349 . S
C367 H359 0.950 1_565 S
C367 C365 1.327 . S
C368 C356 1.349 . S
C368 H362 0.950 . S
C368 C369 1.327 . S
C369 H363 0.950 . S
C369 C368 1.327 . S
C369 C373 1.429 . S
C370 C353 1.574 . S
C370 H364 0.949 . S
C370 C374 1.368 . S
C371 C352 1.429 . S
C371 C365 1.429 . S
C371 C372 1.523 . S
C372 C353 1.368 . S
C372 C366 1.368 . S
C372 C371 1.523 . S
C373 C357 1.429 . S
C373 C369 1.429 . S
C373 C374 1.523 . S
C374 C358 1.368 . S
C374 C370 1.368 . S
C374 C373 1.523 . S
H375 C350 0.950 . S
H376 C352 0.950 . S
H377 C353 0.949 . S
H378 C355 0.950 . S
H379 C357 0.950 . S
C380 C381 1.349 . S
C380 C382 1.327 . S
C380 H405 0.950 . S
C381 C380 1.349 . S
C381 C397 1.349 . S
C382 C380 1.327 . S
C382 C401 1.429 . S
C382 H406 0.950 . S
C383 C400 1.574 . S
C383 C402 1.368 . S
C383 H407 0.949 . S
H384 C388 0.949 . S
C385 C386 1.349 . S
C385 C387 1.327 . S
C385 H408 0.950 . S
C386 C385 1.349 . S
C386 C398 1.349 . S
C387 C385 1.327 . S
C387 C403 1.429 . S
C387 H409 0.950 . S
C388 H384 0.949 . S
C388 C396 1.574 . S
C388 C404 1.368 . S
H389 C397 0.950 . S
H390 C395 0.950 . S
H391 C396 0.949 . S
H392 C398 0.950 . S
H393 C399 0.950 . S
H394 C400 0.949 . S
C395 H390 0.950 . S
C395 C397 1.327 . S
C395 C401 1.429 . S
C396 C388 1.574 . S
C396 H391 0.949 . S
C396 C402 1.368 . S
C397 C381 1.349 . S
C397 H389 0.950 . S
C397 C395 1.327 . S
C398 C386 1.349 . S
C398 H392 0.950 . S
C398 C399 1.327 . S
C399 H393 0.950 . S
C399 C398 1.327 . S
C399 C403 1.429 . S
C400 C383 1.574 . S
C400 H394 0.949 . S
C400 C404 1.368 . S
C401 C382 1.429 . S
C401 C395 1.429 . S
C401 C402 1.523 . S
C402 C383 1.368 . S
C402 C396 1.368 . S
C402 C401 1.523 . S
C403 C387 1.429 . S
C403 C399 1.429 . S
C403 C404 1.523 . S
C404 C388 1.368 . S
C404 C400 1.368 . S
C404 C403 1.523 . S
H405 C380 0.950 . S
H406 C382 0.950 . S
H407 C383 0.949 . S
H408 C385 0.950 . S
H409 C387 0.950 . S
C410 C411 1.349 . S
C410 C412 1.327 . S
C410 H435 0.950 . S
C411 C410 1.349 . S
C411 C427 1.349 . S
C412 C410 1.327 . S
C412 C431 1.429 . S
C412 H436 0.950 . S
C413 C430 1.574 . S
C413 C432 1.368 . S
C413 H437 0.949 . S
H414 C418 0.949 . S
C415 C416 1.349 . S
C415 C417 1.327 . S
C415 H438 0.950 . S
C416 C415 1.349 . S
C416 C428 1.349 . S
C417 C415 1.327 . S
C417 C433 1.429 . S
C417 H439 0.950 . S
C418 H414 0.949 . S
C418 C426 1.574 . S
C418 C434 1.368 . S
H419 C427 0.950 . S
H420 C425 0.950 . S
H421 C426 0.949 . S
H422 C428 0.950 . S
H423 C429 0.950 . S
H424 C430 0.949 . S
C425 H420 0.950 . S
C425 C427 1.327 . S
C425 C431 1.429 . S
C426 C418 1.574 . S
C426 H421 0.949 . S
C426 C432 1.368 . S
C427 C411 1.349 . S
C427 H419 0.950 . S
C427 C425 1.327 . S
C428 C416 1.349 . S
C428 H422 0.950 . S
C428 C429 1.327 . S
C429 H423 0.950 . S
C429 C428 1.327 . S
C429 C433 1.429 . S
C430 C413 1.574 . S
C430 H424 0.949 . S
C430 C434 1.368 . S
C431 C412 1.429 . S
C431 C425 1.429 . S
C431 C432 1.523 . S
C432 C413 1.368 . S
C432 C426 1.368 . S
C432 C431 1.523 . S
C433 C417 1.429 . S
C433 C429 1.429 . S
C433 C434 1.523 . S
C434 C418 1.368 . S
C434 C430 1.368 . S
C434 C433 1.523 . S
H435 C410 0.950 . S
H436 C412 0.950 . S
H437 C413 0.949 . S
H438 C415 0.950 . S
H439 C417 0.950 . S
C81 C49 1.511 1_564 S
C86 C9 1.512 . S
C111 C69 1.503 . S
C116 C29 1.489 . S
C141 C48 0.921 1_546 S
C146 C8 0.925 1_556 S
C171 C28 0.903 . S
C176 C68 0.901 1_455 S
C201 C21 0.700 . S
C206 C2 0.696 . S
C231 C22 0.840 . S
C236 C41 0.834 . S
C261 C62 0.805 . S
C266 C42 0.805 . S
C291 C61 0.733 . S
C296 C1 0.733 . S
C321 C59 2.271 . S
C326 C79 2.285 . S
C351 C18 2.481 . S
C356 C78 2.477 . S
C381 C38 2.504 . S
C386 C19 2.418 . S
C411 C58 2.333 . S
C416 C39 2.258 . S
