# Generated by pormake.
# Topology umu, (4)-cn, num edge types: 1
# Building blocks:
#     Node 0, Type 0, BuildingBlock: CEKHIL_clean_sbu_0, # of connection points: 4
#     Node 1, Type 0, BuildingBlock: CEKHIL_clean_sbu_0, # of connection points: 4
#     Node 2, Type 0, BuildingBlock: CEKHIL_clean_sbu_0, # of connection points: 4
#     Node 3, Type 0, BuildingBlock: CEKHIL_clean_sbu_0, # of connection points: 4
#     Node 4, Type 0, BuildingBlock: CEKHIL_clean_sbu_0, # of connection points: 4
#     Node 5, Type 0, BuildingBlock: CEKHIL_clean_sbu_0, # of connection points: 4
#     Node 6, Type 0, BuildingBlock: CEKHIL_clean_sbu_0, # of connection points: 4
#     Node 7, Type 0, BuildingBlock: CEKHIL_clean_sbu_0, # of connection points: 4
#     Node 8, Type 0, BuildingBlock: CEKHIL_clean_sbu_0, # of connection points: 4
#     Node 9, Type 0, BuildingBlock: CEKHIL_clean_sbu_0, # of connection points: 4
#     Node 10, Type 0, BuildingBlock: CEKHIL_clean_sbu_0, # of connection points: 4
#     Node 11, Type 0, BuildingBlock: CEKHIL_clean_sbu_0, # of connection points: 4
#     Node 12, Type 0, BuildingBlock: CEKHIL_clean_sbu_0, # of connection points: 4
#     Node 13, Type 0, BuildingBlock: CEKHIL_clean_sbu_0, # of connection points: 4
#     Node 14, Type 0, BuildingBlock: CEKHIL_clean_sbu_0, # of connection points: 4
#     Node 15, Type 0, BuildingBlock: CEKHIL_clean_sbu_0, # of connection points: 4
#     Node 16, Type 0, BuildingBlock: CEKHIL_clean_sbu_0, # of connection points: 4
#     Node 17, Type 0, BuildingBlock: CEKHIL_clean_sbu_0, # of connection points: 4
#     Node 18, Type 0, BuildingBlock: CEKHIL_clean_sbu_0, # of connection points: 4
#     Node 19, Type 0, BuildingBlock: CEKHIL_clean_sbu_0, # of connection points: 4
#     Node 20, Type 0, BuildingBlock: CEKHIL_clean_sbu_0, # of connection points: 4
#     Node 21, Type 0, BuildingBlock: CEKHIL_clean_sbu_0, # of connection points: 4
#     Node 22, Type 0, BuildingBlock: CEKHIL_clean_sbu_0, # of connection points: 4
#     Node 23, Type 0, BuildingBlock: CEKHIL_clean_sbu_0, # of connection points: 4
#     Node 24, Type 0, BuildingBlock: CEKHIL_clean_sbu_0, # of connection points: 4
#     Node 25, Type 0, BuildingBlock: CEKHIL_clean_sbu_0, # of connection points: 4
#     Node 26, Type 0, BuildingBlock: CEKHIL_clean_sbu_0, # of connection points: 4
#     Node 27, Type 0, BuildingBlock: CEKHIL_clean_sbu_0, # of connection points: 4
#     Node 28, Type 0, BuildingBlock: CEKHIL_clean_sbu_0, # of connection points: 4
#     Node 29, Type 0, BuildingBlock: CEKHIL_clean_sbu_0, # of connection points: 4
#     Node 30, Type 0, BuildingBlock: CEKHIL_clean_sbu_0, # of connection points: 4
#     Node 31, Type 0, BuildingBlock: CEKHIL_clean_sbu_0, # of connection points: 4
#     Edge 32, Type (0, 0), BuildingBlock: ZUJKAS_clean_linker_0, # of connection points: 2
#     Edge 33, Type (0, 0), BuildingBlock: ZUJKAS_clean_linker_0, # of connection points: 2
#     Edge 34, Type (0, 0), BuildingBlock: ZUJKAS_clean_linker_0, # of connection points: 2
#     Edge 35, Type (0, 0), BuildingBlock: ZUJKAS_clean_linker_0, # of connection points: 2
#     Edge 36, Type (0, 0), BuildingBlock: ZUJKAS_clean_linker_0, # of connection points: 2
#     Edge 37, Type (0, 0), BuildingBlock: ZUJKAS_clean_linker_0, # of connection points: 2
#     Edge 38, Type (0, 0), BuildingBlock: ZUJKAS_clean_linker_0, # of connection points: 2
#     Edge 39, Type (0, 0), BuildingBlock: ZUJKAS_clean_linker_0, # of connection points: 2
#     Edge 40, Type (0, 0), BuildingBlock: ZUJKAS_clean_linker_0, # of connection points: 2
#     Edge 41, Type (0, 0), BuildingBlock: ZUJKAS_clean_linker_0, # of connection points: 2
#     Edge 42, Type (0, 0), BuildingBlock: ZUJKAS_clean_linker_0, # of connection points: 2
#     Edge 43, Type (0, 0), BuildingBlock: ZUJKAS_clean_linker_0, # of connection points: 2
#     Edge 44, Type (0, 0), BuildingBlock: ZUJKAS_clean_linker_0, # of connection points: 2
#     Edge 45, Type (0, 0), BuildingBlock: ZUJKAS_clean_linker_0, # of connection points: 2
#     Edge 46, Type (0, 0), BuildingBlock: ZUJKAS_clean_linker_0, # of connection points: 2
#     Edge 47, Type (0, 0), BuildingBlock: ZUJKAS_clean_linker_0, # of connection points: 2
#     Edge 48, Type (0, 0), BuildingBlock: ZUJKAS_clean_linker_0, # of connection points: 2
#     Edge 49, Type (0, 0), BuildingBlock: ZUJKAS_clean_linker_0, # of connection points: 2
#     Edge 50, Type (0, 0), BuildingBlock: ZUJKAS_clean_linker_0, # of connection points: 2
#     Edge 51, Type (0, 0), BuildingBlock: ZUJKAS_clean_linker_0, # of connection points: 2
#     Edge 52, Type (0, 0), BuildingBlock: ZUJKAS_clean_linker_0, # of connection points: 2
#     Edge 53, Type (0, 0), BuildingBlock: ZUJKAS_clean_linker_0, # of connection points: 2
#     Edge 54, Type (0, 0), BuildingBlock: ZUJKAS_clean_linker_0, # of connection points: 2
#     Edge 55, Type (0, 0), BuildingBlock: ZUJKAS_clean_linker_0, # of connection points: 2
#     Edge 56, Type (0, 0), BuildingBlock: ZUJKAS_clean_linker_0, # of connection points: 2
#     Edge 57, Type (0, 0), BuildingBlock: ZUJKAS_clean_linker_0, # of connection points: 2
#     Edge 58, Type (0, 0), BuildingBlock: ZUJKAS_clean_linker_0, # of connection points: 2
#     Edge 59, Type (0, 0), BuildingBlock: ZUJKAS_clean_linker_0, # of connection points: 2
#     Edge 60, Type (0, 0), BuildingBlock: ZUJKAS_clean_linker_0, # of connection points: 2
#     Edge 61, Type (0, 0), BuildingBlock: ZUJKAS_clean_linker_0, # of connection points: 2
#     Edge 62, Type (0, 0), BuildingBlock: ZUJKAS_clean_linker_0, # of connection points: 2
#     Edge 63, Type (0, 0), BuildingBlock: ZUJKAS_clean_linker_0, # of connection points: 2
#     Edge 64, Type (0, 0), BuildingBlock: ZUJKAS_clean_linker_0, # of connection points: 2
#     Edge 65, Type (0, 0), BuildingBlock: ZUJKAS_clean_linker_0, # of connection points: 2
#     Edge 66, Type (0, 0), BuildingBlock: ZUJKAS_clean_linker_0, # of connection points: 2
#     Edge 67, Type (0, 0), BuildingBlock: ZUJKAS_clean_linker_0, # of connection points: 2
#     Edge 68, Type (0, 0), BuildingBlock: ZUJKAS_clean_linker_0, # of connection points: 2
#     Edge 69, Type (0, 0), BuildingBlock: ZUJKAS_clean_linker_0, # of connection points: 2
#     Edge 70, Type (0, 0), BuildingBlock: ZUJKAS_clean_linker_0, # of connection points: 2
#     Edge 71, Type (0, 0), BuildingBlock: ZUJKAS_clean_linker_0, # of connection points: 2
#     Edge 72, Type (0, 0), BuildingBlock: ZUJKAS_clean_linker_0, # of connection points: 2
#     Edge 73, Type (0, 0), BuildingBlock: ZUJKAS_clean_linker_0, # of connection points: 2
#     Edge 74, Type (0, 0), BuildingBlock: ZUJKAS_clean_linker_0, # of connection points: 2
#     Edge 75, Type (0, 0), BuildingBlock: ZUJKAS_clean_linker_0, # of connection points: 2
#     Edge 76, Type (0, 0), BuildingBlock: ZUJKAS_clean_linker_0, # of connection points: 2
#     Edge 77, Type (0, 0), BuildingBlock: ZUJKAS_clean_linker_0, # of connection points: 2
#     Edge 78, Type (0, 0), BuildingBlock: ZUJKAS_clean_linker_0, # of connection points: 2
#     Edge 79, Type (0, 0), BuildingBlock: ZUJKAS_clean_linker_0, # of connection points: 2
#     Edge 80, Type (0, 0), BuildingBlock: ZUJKAS_clean_linker_0, # of connection points: 2
#     Edge 81, Type (0, 0), BuildingBlock: ZUJKAS_clean_linker_0, # of connection points: 2
#     Edge 82, Type (0, 0), BuildingBlock: ZUJKAS_clean_linker_0, # of connection points: 2
#     Edge 83, Type (0, 0), BuildingBlock: ZUJKAS_clean_linker_0, # of connection points: 2
#     Edge 84, Type (0, 0), BuildingBlock: ZUJKAS_clean_linker_0, # of connection points: 2
#     Edge 85, Type (0, 0), BuildingBlock: ZUJKAS_clean_linker_0, # of connection points: 2
#     Edge 86, Type (0, 0), BuildingBlock: ZUJKAS_clean_linker_0, # of connection points: 2
#     Edge 87, Type (0, 0), BuildingBlock: ZUJKAS_clean_linker_0, # of connection points: 2
#     Edge 88, Type (0, 0), BuildingBlock: ZUJKAS_clean_linker_0, # of connection points: 2
#     Edge 89, Type (0, 0), BuildingBlock: ZUJKAS_clean_linker_0, # of connection points: 2
#     Edge 90, Type (0, 0), BuildingBlock: ZUJKAS_clean_linker_0, # of connection points: 2
#     Edge 91, Type (0, 0), BuildingBlock: ZUJKAS_clean_linker_0, # of connection points: 2
#     Edge 92, Type (0, 0), BuildingBlock: ZUJKAS_clean_linker_0, # of connection points: 2
#     Edge 93, Type (0, 0), BuildingBlock: ZUJKAS_clean_linker_0, # of connection points: 2
#     Edge 94, Type (0, 0), BuildingBlock: ZUJKAS_clean_linker_0, # of connection points: 2
#     Edge 95, Type (0, 0), BuildingBlock: ZUJKAS_clean_linker_0, # of connection points: 2
# Relax obj value: 0.134
# Max RMSD: 0.098
# Mean RMSD: 0.098
data_MOF--net-umu--node1-CEKHIL_clean_sbu_0--edge1-ZUJKAS_clean_linker_0
_symmetry_space_group_name_H-M    P1
_symmetry_Int_Tables_number       1
_symmetry_cell_setting            triclinic
loop_
_symmetry_equiv_pos_as_xyz
'x, y, z'
_cell_length_a     106.05825
_cell_length_b     106.04522
_cell_length_c     33.318235
_cell_angle_alpha  89.937778
_cell_angle_beta   89.997046
_cell_angle_gamma 89.985863
loop_
_atom_site_label
_atom_site_type_symbol
_atom_site_fract_x
_atom_site_fract_y
_atom_site_fract_z
_atom_type_partial_charge
Co0 Co 0.21063 0.16079 0.09797 0.0
O1 O 0.20608 0.1438 0.08276 0.0
O2 O 0.194 0.16056 0.07384 0.0
C3 C 0.21845 0.15574 0.15903 0.0
O4 O 0.21169 0.17971 0.11029 0.0
Co5 Co 0.23827 0.16869 0.11884 0.0
O6 O 0.2303 0.18432 0.13898 0.0
C7 C 0.23063 0.16415 0.0344 0.0
C8 C 0.19557 0.14848 0.06934 0.0
C9 C 0.2192 0.18744 0.12821 0.0
O10 O 0.21888 0.16329 0.04397 0.0
O11 O 0.23953 0.16534 0.06005 0.0
O12 O 0.20635 0.15735 0.15465 0.0
O13 O 0.22501 0.15653 0.12678 0.0
Co14 Co 0.10085 0.96044 0.34822 0.0
O15 O 0.11773 0.95417 0.33905 0.0
O16 O 0.10028 0.94464 0.31904 0.0
C17 C 0.10382 0.96599 0.41283 0.0
O18 O 0.08186 0.96344 0.35334 0.0
Co19 Co 0.09547 0.98832 0.37213 0.0
O20 O 0.07814 0.98212 0.38283 0.0
C21 C 0.10276 0.98207 0.2889 0.0
C22 C 0.11254 0.94478 0.32034 0.0
C23 C 0.07432 0.97155 0.36925 0.0
O24 O 0.10158 0.97018 0.29615 0.0
O25 O 0.10176 0.99055 0.31599 0.0
O26 O 0.10113 0.95432 0.40411 0.0
O27 O 0.1054 0.97343 0.38283 0.0
Co28 Co 0.30048 0.85077 0.59532 0.0
O29 O 0.3068 0.86759 0.58567 0.0
O30 O 0.31661 0.85009 0.56779 0.0
C31 C 0.29434 0.8541 0.65932 0.0
O32 O 0.29726 0.8318 0.6012 0.0
Co33 Co 0.27228 0.84591 0.61702 0.0
O34 O 0.27827 0.82861 0.62944 0.0
C35 C 0.27946 0.85313 0.53445 0.0
C36 C 0.31641 0.86236 0.56818 0.0
C37 C 0.28887 0.82451 0.61699 0.0
O38 O 0.29122 0.8513 0.54238 0.0
O39 O 0.27077 0.8526 0.56108 0.0
O40 O 0.30607 0.85133 0.65182 0.0
O41 O 0.28724 0.85557 0.62849 0.0
Co42 Co 0.41174 0.05051 0.84584 0.0
O43 O 0.39469 0.0557 0.83362 0.0
O44 O 0.41172 0.06682 0.81923 0.0
C45 C 0.40787 0.04387 0.90907 0.0
O46 O 0.43079 0.04863 0.85441 0.0
Co47 Co 0.41846 0.02271 0.86766 0.0
O48 O 0.4349 0.03 0.88388 0.0
C49 C 0.41236 0.02967 0.78383 0.0
C50 C 0.39951 0.06576 0.8175 0.0
C51 C 0.4384 0.04085 0.87173 0.0
O52 O 0.41267 0.0415 0.79258 0.0
O53 O 0.41343 0.02091 0.8101 0.0
O54 O 0.40992 0.05579 0.90231 0.0
O55 O 0.4074 0.03679 0.87787 0.0
Co56 Co 0.21149 0.85022 0.0728 0.0
O57 O 0.20515 0.86701 0.08276 0.0
O58 O 0.19577 0.84944 0.10252 0.0
C59 C 0.21676 0.85351 0.00809 0.0
O60 O 0.21463 0.83126 0.06681 0.0
Co61 Co 0.2393 0.84515 0.04738 0.0
O62 O 0.23293 0.82803 0.03446 0.0
C63 C 0.23331 0.85159 0.1316 0.0
C64 C 0.19582 0.8617 0.10149 0.0
C65 C 0.22258 0.82397 0.04898 0.0
O66 O 0.22139 0.85075 0.12452 0.0
O67 O 0.24174 0.85063 0.10427 0.0
O68 O 0.20516 0.85069 0.0172 0.0
O69 O 0.22431 0.85502 0.03783 0.0
Co70 Co 0.41159 0.96146 0.3244 0.0
O71 O 0.39475 0.95501 0.33303 0.0
O72 O 0.4122 0.94576 0.35428 0.0
C73 C 0.40894 0.96662 0.25925 0.0
O74 O 0.43055 0.96479 0.3204 0.0
Co75 Co 0.41647 0.98936 0.29938 0.0
O76 O 0.4342 0.98377 0.29266 0.0
C77 C 0.40852 0.98329 0.38208 0.0
C78 C 0.39994 0.94573 0.35242 0.0
C79 C 0.43811 0.97323 0.30628 0.0
O80 O 0.41039 0.97144 0.37586 0.0
O81 O 0.40926 0.99163 0.35438 0.0
O82 O 0.41175 0.95505 0.26886 0.0
O83 O 0.40702 0.97418 0.28868 0.0
Co84 Co 0.30105 0.16297 0.57933 0.0
O85 O 0.30677 0.14577 0.58583 0.0
O86 O 0.3177 0.16261 0.60343 0.0
C87 C 0.29332 0.16111 0.51631 0.0
O88 O 0.29854 0.18216 0.57654 0.0
Co89 Co 0.27252 0.169 0.56645 0.0
O90 O 0.27858 0.18647 0.55811 0.0
C91 C 0.2815 0.15884 0.64292 0.0
C92 C 0.3169 0.15038 0.60212 0.0
C93 C 0.28977 0.19 0.56643 0.0
O94 O 0.29288 0.16205 0.63406 0.0
O95 O 0.27239 0.15936 0.61786 0.0
O96 O 0.30538 0.16276 0.52151 0.0
O97 O 0.28691 0.15944 0.54856 0.0
Co98 Co 0.10055 0.04931 0.82613 0.0
O99 O 0.11753 0.05511 0.83606 0.0
O100 O 0.10029 0.06541 0.85377 0.0
C101 C 0.10376 0.04324 0.76204 0.0
O102 O 0.08151 0.0467 0.82011 0.0
Co103 Co 0.09477 0.02135 0.80374 0.0
O104 O 0.0776 0.02782 0.79211 0.0
C105 C 0.1024 0.02807 0.88629 0.0
C106 C 0.11254 0.06486 0.8535 0.0
C107 C 0.0739 0.03856 0.8046 0.0
O108 O 0.10079 0.03989 0.87885 0.0
O109 O 0.10162 0.0195 0.85936 0.0
O110 O 0.10131 0.05503 0.7698 0.0
O111 O 0.10498 0.036 0.79268 0.0
Co112 Co 0.80092 0.84945 0.07906 0.0
O113 O 0.80524 0.86669 0.09216 0.0
O114 O 0.81812 0.85044 0.0987 0.0
C115 C 0.79126 0.85362 0.0199 0.0
O116 O 0.8002 0.83042 0.06802 0.0
Co117 Co 0.77303 0.84055 0.06712 0.0
O118 O 0.78092 0.82508 0.04563 0.0
C119 C 0.78298 0.84571 0.14856 0.0
C120 C 0.8162 0.86247 0.10323 0.0
C121 C 0.7924 0.82236 0.05297 0.0
O122 O 0.79433 0.84699 0.13536 0.0
O123 O 0.77338 0.84405 0.12588 0.0
O124 O 0.8035 0.8527 0.02119 0.0
O125 O 0.78567 0.85293 0.05398 0.0
Co126 Co 0.91267 0.05166 0.82479 0.0
O127 O 0.8958 0.05818 0.83222 0.0
O128 O 0.9133 0.06814 0.84964 0.0
C129 C 0.90976 0.04409 0.76204 0.0
O130 O 0.93167 0.0484 0.82076 0.0
Co131 Co 0.91785 0.02305 0.8094 0.0
O132 O 0.93538 0.02867 0.79907 0.0
C133 C 0.90837 0.03193 0.88738 0.0
C134 C 0.90104 0.06795 0.84877 0.0
C135 C 0.93923 0.03965 0.80866 0.0
O136 O 0.91172 0.04331 0.87913 0.0
O137 O 0.90868 0.02295 0.86179 0.0
O138 O 0.91225 0.05604 0.76694 0.0
O139 O 0.90826 0.03777 0.79446 0.0
Co140 Co 0.7107 0.1649 0.57893 0.0
O141 O 0.70651 0.14765 0.59257 0.0
O142 O 0.69387 0.16396 0.60168 0.0
C143 C 0.71919 0.16059 0.51815 0.0
O144 O 0.71132 0.18394 0.56795 0.0
Co145 Co 0.7383 0.17372 0.56138 0.0
O146 O 0.73007 0.18924 0.54136 0.0
C147 C 0.73005 0.16812 0.64458 0.0
C148 C 0.69576 0.1519 0.60551 0.0
C149 C 0.71879 0.19198 0.55116 0.0
O150 O 0.71841 0.16717 0.63384 0.0
O151 O 0.73915 0.16974 0.61988 0.0
O152 O 0.70701 0.16175 0.52163 0.0
O153 O 0.72543 0.16131 0.55104 0.0
Co154 Co 0.59969 0.96054 0.32496 0.0
O155 O 0.61661 0.9539 0.33039 0.0
O156 O 0.59925 0.94392 0.34901 0.0
C157 C 0.60167 0.96846 0.26215 0.0
O158 O 0.58066 0.96389 0.32311 0.0
Co159 Co 0.59473 0.98928 0.31327 0.0
O160 O 0.57694 0.98406 0.30579 0.0
C161 C 0.60457 0.9797 0.38941 0.0
C162 C 0.6115 0.94407 0.34708 0.0
C163 C 0.57307 0.97297 0.31389 0.0
O164 O 0.60113 0.96845 0.37988 0.0
O165 O 0.60431 0.98895 0.3648 0.0
O166 O 0.59946 0.95646 0.26696 0.0
O167 O 0.60376 0.97462 0.29459 0.0
Co168 Co 0.80112 0.16079 0.09691 0.0
O169 O 0.80784 0.14404 0.08841 0.0
O170 O 0.81734 0.16174 0.0704 0.0
C171 C 0.79437 0.15752 0.16044 0.0
O172 O 0.7977 0.1797 0.10173 0.0
Co173 Co 0.77272 0.16564 0.11614 0.0
O174 O 0.77822 0.18328 0.12572 0.0
C175 C 0.78065 0.15714 0.03581 0.0
C176 C 0.8174 0.14948 0.07121 0.0
C177 C 0.78906 0.1872 0.11478 0.0
O178 O 0.79222 0.15996 0.04344 0.0
O179 O 0.7719 0.15739 0.06225 0.0
O180 O 0.80617 0.16035 0.1541 0.0
O181 O 0.78764 0.15602 0.12886 0.0
Co182 Co 0.59955 0.05136 0.84218 0.0
O183 O 0.61661 0.05581 0.82742 0.0
O184 O 0.60004 0.06813 0.81867 0.0
C185 C 0.60441 0.04321 0.90305 0.0
O186 O 0.58057 0.05032 0.85424 0.0
Co187 Co 0.59158 0.02359 0.86176 0.0
O188 O 0.57607 0.0316 0.88262 0.0
C189 C 0.59586 0.03173 0.7776 0.0
C190 C 0.61212 0.06644 0.81435 0.0
C191 C 0.57289 0.04271 0.8721 0.0
O192 O 0.59701 0.0434 0.78779 0.0
O193 O 0.59459 0.02268 0.80274 0.0
O194 O 0.60295 0.05535 0.89912 0.0
O195 O 0.60366 0.03684 0.87046 0.0
Co196 Co 0.71099 0.85055 0.59641 0.0
O197 O 0.70407 0.86721 0.58776 0.0
O198 O 0.69512 0.84946 0.56771 0.0
C199 C 0.71688 0.85359 0.66095 0.0
O200 O 0.71482 0.83166 0.60098 0.0
Co201 Co 0.7393 0.84641 0.61909 0.0
O202 O 0.73404 0.82867 0.62787 0.0
C203 C 0.73214 0.85499 0.5381 0.0
C204 C 0.69483 0.86172 0.56909 0.0
C205 C 0.72351 0.82441 0.6153 0.0
O206 O 0.72056 0.85183 0.54419 0.0
O207 O 0.74056 0.85488 0.56561 0.0
O208 O 0.70522 0.85062 0.65297 0.0
O209 O 0.72393 0.85542 0.63026 0.0
Co210 Co 0.91316 0.96145 0.34189 0.0
O211 O 0.89599 0.95698 0.32849 0.0
O212 O 0.91252 0.94469 0.31851 0.0
C213 C 0.90882 0.96965 0.403 0.0
O214 O 0.93221 0.96251 0.35245 0.0
Co215 Co 0.92125 0.98927 0.36022 0.0
O216 O 0.93701 0.98134 0.37945 0.0
C217 C 0.91584 0.9811 0.27691 0.0
C218 C 0.90042 0.94639 0.31497 0.0
C219 C 0.94007 0.97018 0.36919 0.0
O220 O 0.91518 0.96941 0.28726 0.0
O221 O 0.91722 0.99017 0.30186 0.0
O222 O 0.91019 0.9575 0.39916 0.0
O223 O 0.90931 0.97598 0.37025 0.0
Co224 Co 0.71132 0.66266 0.59824 0.0
O225 O 0.70452 0.64594 0.59008 0.0
O226 O 0.69522 0.6636 0.57074 0.0
C227 C 0.71761 0.65964 0.66236 0.0
O228 O 0.71497 0.68158 0.60257 0.0
Co229 Co 0.73968 0.66708 0.6186 0.0
O230 O 0.73423 0.68469 0.62892 0.0
C231 C 0.73212 0.65952 0.53684 0.0
C232 C 0.69508 0.65133 0.57211 0.0
C233 C 0.72361 0.68887 0.61681 0.0
O234 O 0.72043 0.6616 0.54512 0.0
O235 O 0.74092 0.66001 0.5631 0.0
O236 O 0.7059 0.66259 0.65501 0.0
O237 O 0.72455 0.65782 0.63136 0.0
Co238 Co 0.60161 0.46348 0.85027 0.0
O239 O 0.61859 0.45759 0.8404 0.0
O240 O 0.60128 0.44741 0.82261 0.0
C241 C 0.60473 0.46964 0.91432 0.0
O242 O 0.58259 0.46605 0.85624 0.0
Co243 Co 0.59567 0.49141 0.87232 0.0
O244 O 0.57858 0.48486 0.88447 0.0
C245 C 0.60256 0.48465 0.7891 0.0
C246 C 0.61354 0.44789 0.82284 0.0
C247 C 0.57493 0.47411 0.87189 0.0
O248 O 0.60179 0.47279 0.79737 0.0
O249 O 0.60148 0.49333 0.81556 0.0
O250 O 0.60235 0.45784 0.90665 0.0
O251 O 0.606 0.47685 0.88359 0.0
Co252 Co 0.80071 0.34884 0.0936 0.0
O253 O 0.80673 0.36598 0.08721 0.0
O254 O 0.81715 0.34894 0.06825 0.0
C255 C 0.79341 0.35056 0.15717 0.0
O256 O 0.798 0.32969 0.09617 0.0
Co257 Co 0.7722 0.34309 0.10807 0.0
O258 O 0.77803 0.32546 0.11461 0.0
C259 C 0.78077 0.35329 0.03121 0.0
C260 C 0.81664 0.36118 0.07003 0.0
C261 C 0.78919 0.32188 0.10616 0.0
O262 O 0.79219 0.35004 0.03944 0.0
O263 O 0.7718 0.35274 0.05675 0.0
O264 O 0.80543 0.34882 0.1511 0.0
O265 O 0.7868 0.35245 0.12545 0.0
Co266 Co 0.91113 0.55186 0.35167 0.0
O267 O 0.894 0.55718 0.34127 0.0
O268 O 0.91096 0.5684 0.32677 0.0
C269 C 0.90765 0.54437 0.41428 0.0
O270 O 0.93024 0.54989 0.35858 0.0
Co271 Co 0.91799 0.52376 0.37021 0.0
O272 O 0.93488 0.53066 0.38297 0.0
C273 C 0.90956 0.53159 0.28941 0.0
C274 C 0.89874 0.56736 0.3257 0.0
C275 C 0.93815 0.54177 0.37266 0.0
O276 O 0.91153 0.5433 0.29759 0.0
O277 O 0.91033 0.52277 0.31556 0.0
O278 O 0.90959 0.5564 0.40914 0.0
O279 O 0.90711 0.53781 0.38206 0.0
Co280 Co 0.71112 0.3522 0.57496 0.0
O281 O 0.7063 0.3693 0.58817 0.0
O282 O 0.69481 0.35239 0.60115 0.0
C283 C 0.71815 0.3566 0.51249 0.0
O284 O 0.71243 0.33317 0.56519 0.0
Co285 Co 0.73862 0.34449 0.55223 0.0
O286 O 0.73094 0.32822 0.5365 0.0
C287 C 0.73195 0.35083 0.63624 0.0
C288 C 0.6961 0.36457 0.60362 0.0
C289 C 0.71993 0.32519 0.54837 0.0
O290 O 0.72006 0.35069 0.62819 0.0
O291 O 0.74055 0.34966 0.60952 0.0
O292 O 0.70614 0.35474 0.51836 0.0
O293 O 0.72507 0.35634 0.54402 0.0
Co294 Co 0.91297 0.46091 0.83383 0.0
O295 O 0.89586 0.45511 0.842 0.0
O296 O 0.91293 0.44422 0.85772 0.0
C297 C 0.91006 0.46884 0.77143 0.0
O298 O 0.93209 0.4634 0.82886 0.0
Co299 Co 0.91917 0.48938 0.81896 0.0
O300 O 0.93636 0.48305 0.80726 0.0
C301 C 0.91 0.48054 0.89759 0.0
C302 C 0.90068 0.44496 0.85757 0.0
C303 C 0.93987 0.47191 0.8164 0.0
O304 O 0.91264 0.46903 0.88857 0.0
O305 O 0.91062 0.48964 0.87239 0.0
O306 O 0.91211 0.45679 0.7759 0.0
O307 O 0.90896 0.4751 0.8041 0.0
Co308 Co 0.80053 0.66229 0.07609 0.0
O309 O 0.80556 0.6452 0.08866 0.0
O310 O 0.81645 0.66224 0.10473 0.0
C311 C 0.79478 0.65862 0.01201 0.0
O312 O 0.79887 0.68133 0.06749 0.0
Co313 Co 0.7731 0.66922 0.05065 0.0
O314 O 0.78054 0.68582 0.03682 0.0
C315 C 0.77885 0.66285 0.13518 0.0
C316 C 0.81542 0.65002 0.10596 0.0
C317 C 0.79132 0.68913 0.04998 0.0
O318 O 0.7908 0.66315 0.12813 0.0
O319 O 0.77049 0.66397 0.1077 0.0
O320 O 0.80659 0.6606 0.02047 0.0
O321 O 0.78723 0.65807 0.04209 0.0
Co322 Co 0.59992 0.55223 0.32833 0.0
O323 O 0.61666 0.55909 0.3357 0.0
O324 O 0.5991 0.56807 0.35729 0.0
C325 C 0.60245 0.5466 0.26351 0.0
O326 O 0.58099 0.54855 0.32506 0.0
Co327 Co 0.5954 0.52408 0.30566 0.0
O328 O 0.57766 0.52948 0.29769 0.0
C329 C 0.60378 0.53086 0.3873 0.0
C330 C 0.61134 0.56834 0.35481 0.0
C331 C 0.57358 0.54001 0.31082 0.0
O332 O 0.60151 0.54262 0.38048 0.0
O333 O 0.60308 0.52235 0.36019 0.0
O334 O 0.59945 0.5582 0.27219 0.0
O335 O 0.60458 0.53933 0.29358 0.0
Co336 Co 0.30237 0.35147 0.57704 0.0
O337 O 0.30901 0.3683 0.58438 0.0
O338 O 0.31859 0.35076 0.60366 0.0
C339 C 0.29554 0.3542 0.51326 0.0
O340 O 0.29899 0.33249 0.5735 0.0
Co341 Co 0.27392 0.34652 0.5585 0.0
O342 O 0.27939 0.32879 0.55063 0.0
C343 C 0.28193 0.35556 0.63799 0.0
C344 C 0.31858 0.36302 0.602 0.0
C345 C 0.29026 0.32492 0.56147 0.0
O346 O 0.29348 0.3526 0.63048 0.0
O347 O 0.27317 0.35524 0.6116 0.0
O348 O 0.30738 0.35159 0.51975 0.0
O349 O 0.28886 0.35592 0.54483 0.0
Co350 Co 0.41186 0.55228 0.32933 0.0
O351 O 0.39492 0.55871 0.33578 0.0
O352 O 0.41222 0.56905 0.35254 0.0
C353 C 0.40936 0.54428 0.26694 0.0
O354 O 0.43091 0.54903 0.32613 0.0
Co355 Co 0.4169 0.5235 0.31679 0.0
O356 O 0.43451 0.52898 0.30718 0.0
C357 C 0.40723 0.53312 0.39353 0.0
C358 C 0.39996 0.56873 0.35142 0.0
C359 C 0.43842 0.54004 0.31548 0.0
O360 O 0.41074 0.54439 0.38435 0.0
O361 O 0.4075 0.52392 0.36875 0.0
O362 O 0.41169 0.55627 0.27127 0.0
O363 O 0.40761 0.53816 0.29968 0.0
Co364 Co 0.21167 0.66245 0.07557 0.0
O365 O 0.20625 0.64549 0.0881 0.0
O366 O 0.19535 0.66269 0.10208 0.0
C367 C 0.21828 0.65833 0.01247 0.0
O368 O 0.21386 0.68145 0.06656 0.0
Co369 Co 0.2396 0.66864 0.05363 0.0
O370 O 0.23257 0.68516 0.03712 0.0
C371 C 0.23248 0.66331 0.13789 0.0
C372 C 0.19624 0.65047 0.10403 0.0
C373 C 0.2218 0.6889 0.04921 0.0
O374 O 0.22065 0.6634 0.12891 0.0
O375 O 0.24128 0.66426 0.11176 0.0
O376 O 0.20639 0.66058 0.01909 0.0
O377 O 0.22534 0.65782 0.04374 0.0
Co378 Co 0.10134 0.46082 0.82783 0.0
O379 O 0.1185 0.45529 0.83637 0.0
O380 O 0.10158 0.44406 0.85116 0.0
C381 C 0.10415 0.46893 0.76557 0.0
O382 O 0.08219 0.46308 0.82266 0.0
Co383 Co 0.0949 0.48928 0.81412 0.0
O384 O 0.07767 0.4829 0.80315 0.0
C385 C 0.10397 0.48024 0.8924 0.0
C386 C 0.11381 0.44502 0.85149 0.0
C387 C 0.07429 0.47164 0.8114 0.0
O388 O 0.10136 0.46877 0.88283 0.0
O389 O 0.10351 0.48942 0.86749 0.0
O390 O 0.10239 0.45684 0.76987 0.0
O391 O 0.10518 0.47515 0.79838 0.0
Co392 Co 0.30109 0.66295 0.59769 0.0
O393 O 0.30766 0.64627 0.58721 0.0
O394 O 0.31684 0.664 0.5682 0.0
C395 C 0.29579 0.65946 0.66234 0.0
O396 O 0.29764 0.68185 0.60394 0.0
Co397 Co 0.27314 0.66743 0.62275 0.0
O398 O 0.27889 0.68489 0.63384 0.0
C399 C 0.27941 0.66036 0.53939 0.0
C400 C 0.31693 0.65173 0.56859 0.0
C401 C 0.28932 0.68909 0.62026 0.0
O402 O 0.29122 0.66232 0.54593 0.0
O403 O 0.27102 0.66075 0.56701 0.0
O404 O 0.30737 0.66246 0.65342 0.0
O405 O 0.28832 0.6579 0.63246 0.0
Co406 Co 0.09904 0.55225 0.34554 0.0
O407 O 0.11615 0.55656 0.33085 0.0
O408 O 0.09972 0.56913 0.32304 0.0
C409 C 0.10378 0.54364 0.40594 0.0
O410 O 0.08006 0.55143 0.35753 0.0
Co411 Co 0.09063 0.52449 0.36318 0.0
O412 O 0.0751 0.53252 0.38378 0.0
C413 C 0.09489 0.53314 0.27957 0.0
C414 C 0.11176 0.56731 0.31836 0.0
C415 C 0.07216 0.54378 0.3742 0.0
O416 O 0.09635 0.54469 0.29063 0.0
O417 O 0.09344 0.52393 0.30401 0.0
O418 O 0.10256 0.55583 0.40271 0.0
O419 O 0.10292 0.53748 0.37295 0.0
Co420 Co 0.21186 0.34801 0.09394 0.0
O421 O 0.20793 0.36522 0.07914 0.0
O422 O 0.19485 0.34912 0.07276 0.0
C423 C 0.22108 0.35252 0.15352 0.0
O424 O 0.21218 0.32905 0.10644 0.0
Co425 Co 0.23943 0.33868 0.10931 0.0
O426 O 0.23099 0.32374 0.13257 0.0
C427 C 0.2304 0.34365 0.02657 0.0
C428 C 0.19699 0.36109 0.06752 0.0
C429 C 0.21961 0.32109 0.12381 0.0
O430 O 0.21893 0.34508 0.03849 0.0
O431 O 0.23973 0.34194 0.05035 0.0
O432 O 0.20883 0.35174 0.15129 0.0
O433 O 0.22694 0.35143 0.12003 0.0
Co434 Co 0.4139 0.46192 0.84639 0.0
O435 O 0.39689 0.45649 0.83455 0.0
O436 O 0.41407 0.4453 0.8222 0.0
C437 C 0.40968 0.46975 0.90809 0.0
O438 O 0.43293 0.46392 0.85537 0.0
Co439 Co 0.42077 0.49004 0.86455 0.0
O440 O 0.43707 0.4829 0.88233 0.0
C441 C 0.41552 0.48177 0.78132 0.0
C442 C 0.40186 0.44627 0.81998 0.0
C443 C 0.44056 0.47191 0.87162 0.0
O444 O 0.41508 0.47007 0.79176 0.0
O445 O 0.41682 0.49089 0.8061 0.0
O446 O 0.41164 0.45769 0.90381 0.0
O447 O 0.40955 0.47617 0.87546 0.0
H448 H 0.10518 0.08721 0.88802 0.0
H449 H 0.11851 0.10266 0.92272 0.0
H450 H 0.15112 0.07935 0.90098 0.0
H451 H 0.13799 0.06414 0.86543 0.0
H452 H 0.13256 0.10046 0.98933 0.0
H453 H 0.16415 0.11273 0.86317 0.0
H454 H 0.14979 0.10389 0.85605 0.0
H455 H 0.16398 0.09608 0.87246 0.0
C456 C 0.11522 0.08546 0.89026 0.0
C457 C 0.12053 0.07449 0.8736 0.0
C458 C 0.12283 0.09429 0.91019 0.0
C459 C 0.1359 0.09233 0.91386 0.0
C460 C 0.14116 0.0813 0.89759 0.0
H461 H 0.19811 0.12388 0.04643 0.0
H462 H 0.18303 0.11089 0.00923 0.0
C463 C 0.13359 0.07255 0.87744 0.0
C464 C 0.14399 0.10152 0.93598 0.0
H465 H 0.17126 0.11862 0.92886 0.0
C466 C 0.14093 0.10455 0.97589 0.0
C467 C 0.15492 0.10694 0.91853 0.0
C468 C 0.15833 0.10485 0.87507 0.0
C469 C 0.1487 0.11245 -0.00089 0.0
C470 C 0.15983 0.11747 0.98204 0.0
C471 C 0.16277 0.11467 0.94198 0.0
C472 C 0.16872 0.12537 0.0056 0.0
C473 C 0.14522 0.11512 0.04215 0.0
C474 C 0.16569 0.13785 0.01584 0.0
C475 C 0.17433 0.14535 0.03691 0.0
C476 C 0.18615 0.14047 0.04832 0.0
C477 C 0.18908 0.12792 0.03831 0.0
C478 C 0.18049 0.12048 0.01696 0.0
H479 H 0.13709 0.10934 0.05239 0.0
H480 H 0.15339 0.11326 0.06212 0.0
H481 H 0.14269 0.12523 0.04529 0.0
H482 H 0.15669 0.14183 0.00707 0.0
H483 H 0.17179 0.15498 0.04405 0.0
H484 H 0.13671 0.9378 0.33735 0.0
H485 H 0.14997 0.92282 0.30091 0.0
H486 H 0.11947 0.91565 0.21832 0.0
H487 H 0.10593 0.93006 0.25633 0.0
H488 H 0.13083 0.89475 0.23163 0.0
H489 H 0.16804 0.92981 0.20013 0.0
H490 H 0.16592 0.92783 0.25307 0.0
H491 H 0.15327 0.93413 0.22293 0.0
C492 C 0.13282 0.93296 0.31155 0.0
C493 C 0.1203 0.93516 0.29957 0.0
C494 C 0.14046 0.92449 0.29041 0.0
C495 C 0.13592 0.91835 0.2559 0.0
C496 C 0.12328 0.9203 0.24458 0.0
H497 H 0.18828 0.88557 0.08305 0.0
H498 H 0.17294 0.89868 0.11849 0.0
C499 C 0.11553 0.92854 0.26634 0.0
C500 C 0.14431 0.90994 0.23168 0.0
H501 H 0.1733 0.90835 0.18716 0.0
C502 C 0.14008 0.89777 0.22165 0.0
C503 C 0.15631 0.91389 0.21771 0.0
C504 C 0.16108 0.92717 0.22363 0.0
C505 C 0.14751 0.88945 0.19872 0.0
C506 C 0.15982 0.89314 0.18684 0.0
C507 C 0.16397 0.90536 0.19651 0.0
C508 C 0.16851 0.88469 0.1638 0.0
C509 C 0.14187 0.87696 0.18657 0.0
C510 C 0.17117 0.87235 0.17696 0.0
C511 C 0.17969 0.8647 0.15589 0.0
C512 C 0.18606 0.86936 0.12201 0.0
C513 C 0.18351 0.88171 0.10905 0.0
C514 C 0.17475 0.88923 0.12944 0.0
H515 H 0.13141 0.87744 0.18565 0.0
H516 H 0.14531 0.87392 0.15663 0.0
H517 H 0.1445 0.86969 0.20903 0.0
H518 H 0.1669 0.8687 0.20407 0.0
H519 H 0.18163 0.85529 0.16697 0.0
H520 H 0.37434 0.94292 0.34992 0.0
H521 H 0.36136 0.92776 0.3868 0.0
H522 H 0.39482 0.91138 0.43862 0.0
H523 H 0.4079 0.92659 0.4019 0.0
H524 H 0.36154 0.901 0.38613 0.0
H525 H 0.37277 0.92025 0.53702 0.0
H526 H 0.37602 0.9288 0.4913 0.0
H527 H 0.38616 0.91613 0.50668 0.0
C528 C 0.37896 0.93607 0.36903 0.0
C529 C 0.39217 0.93601 0.37306 0.0
C530 C 0.37152 0.92739 0.39008 0.0
C531 C 0.37709 0.91853 0.41591 0.0
C532 C 0.39029 0.91826 0.41937 0.0
H533 H 0.33653 0.85431 0.52293 0.0
H534 H 0.35182 0.86736 0.48639 0.0
C535 C 0.39776 0.92691 0.39816 0.0
C536 C 0.36901 0.90969 0.43938 0.0
H537 H 0.35999 0.90202 0.5349 0.0
C538 C 0.36125 0.90117 0.41867 0.0
C539 C 0.36851 0.91003 0.48183 0.0
C540 C 0.37621 0.91935 0.50566 0.0
C541 C 0.35302 0.89298 0.4392 0.0
C542 C 0.35263 0.89321 0.48168 0.0
C543 C 0.36039 0.90175 0.50238 0.0
C544 C 0.34375 0.88516 0.50508 0.0
C545 C 0.34454 0.88441 0.4152 0.0
C546 C 0.33435 0.89078 0.52869 0.0
C547 C 0.32565 0.88336 0.54968 0.0
C548 C 0.32619 0.87011 0.54781 0.0
C549 C 0.33582 0.86447 0.52496 0.0
C550 C 0.34452 0.87193 0.50384 0.0
H551 H 0.34399 0.88731 0.3832 0.0
H552 H 0.34829 0.87465 0.41638 0.0
H553 H 0.33486 0.88431 0.42792 0.0
H554 H 0.33358 0.90096 0.53027 0.0
H555 H 0.31838 0.88803 0.567 0.0
H556 H 0.40609 0.08929 0.78992 0.0
H557 H 0.39269 0.10452 0.75439 0.0
H558 H 0.36159 0.07837 0.76001 0.0
H559 H 0.37474 0.0634 0.79667 0.0
H560 H 0.38108 0.10349 0.68393 0.0
H561 H 0.34452 0.10924 0.80077 0.0
H562 H 0.35921 0.10123 0.81047 0.0
H563 H 0.34633 0.09304 0.78672 0.0
C564 C 0.39635 0.08686 0.78395 0.0
C565 C 0.39146 0.07518 0.79659 0.0
C566 C 0.3887 0.09556 0.76353 0.0
C567 C 0.376 0.09276 0.75516 0.0
C568 C 0.3712 0.08099 0.76715 0.0
H569 H 0.3157 0.12487 0.61341 0.0
H570 H 0.33063 0.11139 0.64949 0.0
C571 C 0.37878 0.07238 0.78796 0.0
C572 C 0.36788 0.10192 0.73283 0.0
H573 H 0.3392 0.11673 0.73507 0.0
C574 C 0.37199 0.10648 0.69539 0.0
C575 C 0.356 0.10593 0.74768 0.0
C576 C 0.35132 0.10221 0.7888 0.0
C577 C 0.36443 0.11458 0.67202 0.0
C578 C 0.35242 0.11821 0.68636 0.0
C579 C 0.34837 0.11383 0.72396 0.0
C580 C 0.3438 0.12639 0.66255 0.0
C581 C 0.36914 0.11897 0.63167 0.0
C582 C 0.34626 0.13931 0.65776 0.0
C583 C 0.33769 0.14709 0.63732 0.0
C584 C 0.32651 0.14207 0.6211 0.0
C585 C 0.32422 0.12906 0.6253 0.0
C586 C 0.33274 0.12133 0.64603 0.0
H587 H 0.37792 0.11404 0.62252 0.0
H588 H 0.36182 0.11742 0.60836 0.0
H589 H 0.37109 0.12925 0.63293 0.0
H590 H 0.35469 0.14343 0.67059 0.0
H591 H 0.33972 0.15707 0.63478 0.0
H592 H 0.81353 0.8873 0.12365 0.0
H593 H 0.82859 0.90077 0.15907 0.0
H594 H 0.85532 0.87017 0.16262 0.0
H595 H 0.84028 0.85659 0.12716 0.0
H596 H 0.8394 0.89561 0.237 0.0
H597 H 0.876 0.90058 0.11853 0.0
H598 H 0.86007 0.89564 0.10754 0.0
H599 H 0.87099 0.88477 0.12984 0.0
C600 C 0.82266 0.88345 0.13157 0.0
C601 C 0.8257 0.87086 0.12241 0.0
C602 C 0.83125 0.89117 0.15193 0.0
C603 C 0.84313 0.88654 0.16322 0.0
C604 C 0.84628 0.87402 0.15371 0.0
H605 H 0.90652 0.92275 0.28729 0.0
H606 H 0.89276 0.90775 0.25236 0.0
C607 C 0.83765 0.86625 0.13354 0.0
C608 C 0.85197 0.89467 0.18641 0.0
H609 H 0.88046 0.90968 0.18157 0.0
C610 C 0.84838 0.8987 0.22489 0.0
C611 C 0.86374 0.8986 0.17077 0.0
C612 C 0.86796 0.89478 0.1293 0.0
C613 C 0.85623 0.90648 0.24819 0.0
C614 C 0.86788 0.91069 0.2322 0.0
C615 C 0.87155 0.90651 0.19389 0.0
C616 C 0.87621 0.91969 0.25425 0.0
C617 C 0.85203 0.90991 0.29007 0.0
C618 C 0.87159 0.93148 0.26669 0.0
C619 C 0.8794 0.94 0.28697 0.0
C620 C 0.8921 0.93704 0.29481 0.0
C621 C 0.89678 0.9253 0.28195 0.0
C622 C 0.88892 0.91673 0.26187 0.0
H623 H 0.84527 0.90288 0.30225 0.0
H624 H 0.86017 0.9106 0.31089 0.0
H625 H 0.84718 0.91917 0.28927 0.0
H626 H 0.86196 0.93418 0.26025 0.0
H627 H 0.87551 0.94901 0.29595 0.0
H628 H 0.90776 0.08277 0.91218 0.0
H629 H 0.89423 0.09698 0.95084 0.0
H630 H 0.86364 0.08997 0.86842 0.0
H631 H 0.8769 0.07509 0.83143 0.0
H632 H 0.88277 0.11771 0.93989 0.0
H633 H 0.8457 0.08227 0.96855 0.0
H634 H 0.86044 0.07819 0.94514 0.0
H635 H 0.84772 0.08473 0.91578 0.0
C636 C 0.89815 0.08431 0.90226 0.0
C637 C 0.89335 0.07773 0.86901 0.0
C638 C 0.8904 0.09243 0.92442 0.0
C639 C 0.87773 0.09433 0.91344 0.0
C640 C 0.87318 0.08832 0.8787 0.0
H641 H 0.83201 0.15644 0.00751 0.0
H642 H 0.8469 0.14337 0.97004 0.0
C643 C 0.88082 0.07992 0.85721 0.0
C644 C 0.86932 0.1025 0.93843 0.0
H645 H 0.84039 0.10358 0.98352 0.0
C646 C 0.87354 0.11456 0.94968 0.0
C647 C 0.85736 0.09838 0.95224 0.0
C648 C 0.85261 0.08514 0.94519 0.0
C649 C 0.86614 0.12262 0.97363 0.0
C650 C 0.85385 0.11879 0.98525 0.0
C651 C 0.84971 0.10667 0.9744 0.0
C652 C 0.84513 0.12705 0.00888 0.0
C653 C 0.87181 0.13496 0.98712 0.0
C654 C 0.83874 0.12222 0.0426 0.0
C655 C 0.82988 0.12956 0.06319 0.0
C656 C 0.82737 0.14201 0.0511 0.0
C657 C 0.83392 0.14696 0.01797 0.0
C658 C 0.84253 0.13949 -0.00333 0.0
H659 H 0.88226 0.13441 0.98826 0.0
H660 H 0.86929 0.14245 0.96528 0.0
H661 H 0.86832 0.13774 0.01725 0.0
H662 H 0.8405 0.11268 0.05279 0.0
H663 H 0.82496 0.12549 0.08857 0.0
H664 H 0.69857 0.12699 0.62486 0.0
H665 H 0.68367 0.11329 0.66021 0.0
H666 H 0.65704 0.14391 0.66723 0.0
H667 H 0.67192 0.15772 0.63187 0.0
H668 H 0.67299 0.11781 0.73909 0.0
H669 H 0.63628 0.11386 0.6206 0.0
H670 H 0.65222 0.11883 0.60982 0.0
H671 H 0.64136 0.12956 0.63304 0.0
C672 C 0.68951 0.1308 0.6336 0.0
C673 C 0.68643 0.14346 0.62536 0.0
C674 C 0.681 0.12296 0.65392 0.0
C675 C 0.66918 0.12752 0.66607 0.0
C676 C 0.66603 0.14012 0.65765 0.0
H677 H 0.60593 0.09023 0.78795 0.0
H678 H 0.61964 0.10549 0.75382 0.0
C679 C 0.67457 0.14802 0.63755 0.0
C680 C 0.66037 0.11918 0.68871 0.0
H681 H 0.63189 0.10417 0.68285 0.0
C682 C 0.664 0.11482 0.72681 0.0
C683 C 0.6486 0.11537 0.67284 0.0
C684 C 0.64435 0.11954 0.63172 0.0
C685 C 0.65617 0.10682 0.74953 0.0
C686 C 0.64451 0.10274 0.73329 0.0
C687 C 0.64082 0.10725 0.69536 0.0
C688 C 0.63619 0.09355 0.75467 0.0
C689 C 0.66041 0.10303 0.79107 0.0
C690 C 0.64083 0.08167 0.76619 0.0
C691 C 0.63305 0.07299 0.78599 0.0
C692 C 0.62036 0.07589 0.79427 0.0
C693 C 0.61566 0.08771 0.78224 0.0
C694 C 0.62349 0.09644 0.76263 0.0
H695 H 0.66717 0.10996 0.80376 0.0
H696 H 0.65228 0.10215 0.8119 0.0
H697 H 0.66526 0.09378 0.78948 0.0
H698 H 0.65046 0.07902 0.75946 0.0
H699 H 0.63696 0.06393 0.79435 0.0
H700 H 0.60495 0.9287 0.40943 0.0
H701 H 0.61857 0.91429 0.44698 0.0
H702 H 0.64912 0.92221 0.36519 0.0
H703 H 0.63574 0.93727 0.32928 0.0
H704 H 0.63014 0.89372 0.43434 0.0
H705 H 0.66704 0.92912 0.46594 0.0
H706 H 0.65228 0.93331 0.44277 0.0
H707 H 0.66502 0.92701 0.41302 0.0
C708 C 0.61457 0.92733 0.39938 0.0
C709 C 0.61931 0.9342 0.36661 0.0
C710 C 0.62238 0.91908 0.42093 0.0
C711 C 0.63506 0.91736 0.40983 0.0
C712 C 0.63957 0.9237 0.37557 0.0
H713 H 0.68082 0.85489 0.50377 0.0
H714 H 0.66617 0.86802 0.46537 0.0
C715 C 0.63186 0.93221 0.35468 0.0
C716 C 0.64351 0.90902 0.43426 0.0
H717 H 0.67228 0.90779 0.48035 0.0
C718 C 0.63933 0.89685 0.44461 0.0
C719 C 0.65542 0.9131 0.44863 0.0
C720 C 0.66014 0.92639 0.4424 0.0
C721 C 0.64668 0.88868 0.46838 0.0
C722 C 0.65889 0.89251 0.4808 0.0
C723 C 0.66302 0.90471 0.47066 0.0
C724 C 0.6675 0.88421 0.5048 0.0
C725 C 0.64104 0.87622 0.48093 0.0
C726 C 0.67356 0.88894 0.53922 0.0
C727 C 0.68228 0.88157 0.56041 0.0
C728 C 0.68497 0.86918 0.54821 0.0
C729 C 0.67876 0.86432 0.51433 0.0
C730 C 0.67029 0.87182 0.49248 0.0
H731 H 0.63057 0.87665 0.48128 0.0
H732 H 0.64381 0.86886 0.459 0.0
H733 H 0.64433 0.87334 0.5112 0.0
H734 H 0.67165 0.89844 0.54956 0.0
H735 H 0.68693 0.88559 0.58636 0.0
H736 H 0.68778 0.62726 0.5893 0.0
H737 H 0.67264 0.61418 0.55292 0.0
H738 H 0.66555 0.64487 0.47083 0.0
H739 H 0.68015 0.65823 0.50878 0.0
H740 H 0.6446 0.63353 0.48378 0.0
H741 H 0.67956 0.59627 0.45187 0.0
H742 H 0.6776 0.5983 0.50484 0.0
H743 H 0.68393 0.61099 0.47487 0.0
C744 C 0.68291 0.63124 0.56367 0.0
C745 C 0.68521 0.64375 0.55178 0.0
C746 C 0.67435 0.6237 0.54255 0.0
C747 C 0.6682 0.62833 0.50813 0.0
C748 C 0.67021 0.64098 0.497 0.0
H749 H 0.63511 0.57603 0.33536 0.0
H750 H 0.64828 0.59144 0.37026 0.0
C751 C 0.67855 0.64863 0.51875 0.0
C752 C 0.65976 0.62001 0.48374 0.0
H753 H 0.65809 0.59107 0.43887 0.0
C754 C 0.6476 0.62428 0.47371 0.0
C755 C 0.66368 0.60801 0.4696 0.0
C756 C 0.67695 0.60319 0.47546 0.0
C757 C 0.63925 0.61689 0.45073 0.0
C758 C 0.64291 0.60459 0.43873 0.0
C759 C 0.65513 0.6004 0.44831 0.0
C760 C 0.63439 0.59591 0.41582 0.0
C761 C 0.62677 0.62257 0.43867 0.0
C762 C 0.62209 0.59325 0.42926 0.0
C763 C 0.61441 0.58467 0.40853 0.0
C764 C 0.619 0.57825 0.37466 0.0
C765 C 0.6313 0.58084 0.36134 0.0
C766 C 0.63885 0.58964 0.38143 0.0
H767 H 0.62727 0.63303 0.43772 0.0
H768 H 0.62368 0.61915 0.40877 0.0
H769 H 0.61951 0.61997 0.4612 0.0
H770 H 0.61849 0.59754 0.45639 0.0
H771 H 0.60504 0.58272 0.41992 0.0
H772 H 0.63921 0.44554 0.82439 0.0
H773 H 0.6523 0.43058 0.78706 0.0
H774 H 0.61893 0.41367 0.73665 0.0
H775 H 0.60573 0.4286 0.77402 0.0
H776 H 0.65167 0.403 0.78765 0.0
H777 H 0.64132 0.42385 0.63795 0.0
H778 H 0.63851 0.43225 0.68423 0.0
H779 H 0.62791 0.42001 0.66869 0.0
C780 C 0.63463 0.4386 0.80554 0.0
C781 C 0.62141 0.43829 0.80213 0.0
C782 C 0.64214 0.43005 0.78424 0.0
C783 C 0.63661 0.4211 0.75872 0.0
C784 C 0.62341 0.42059 0.7558 0.0
H785 H 0.67512 0.3571 0.64555 0.0
H786 H 0.66031 0.37043 0.68288 0.0
C787 C 0.61587 0.42909 0.77735 0.0
C788 C 0.64471 0.41242 0.73491 0.0
H789 H 0.65414 0.40565 0.63916 0.0
C790 C 0.65217 0.40353 0.75518 0.0
C791 C 0.64545 0.41322 0.69257 0.0
C792 C 0.63796 0.42289 0.6694 0.0
C793 C 0.66032 0.39538 0.73424 0.0
C794 C 0.66097 0.39609 0.69185 0.0
C795 C 0.65355 0.40503 0.6716 0.0
C796 C 0.66967 0.38797 0.66816 0.0
C797 C 0.6684 0.38626 0.75767 0.0
C798 C 0.67968 0.3934 0.64667 0.0
C799 C 0.68815 0.38581 0.62532 0.0
C800 C 0.68672 0.37262 0.62467 0.0
C801 C 0.67651 0.36722 0.64547 0.0
C802 C 0.66807 0.37482 0.66701 0.0
H803 H 0.6687 0.38864 0.79013 0.0
H804 H 0.66448 0.37661 0.75457 0.0
H805 H 0.67819 0.38616 0.74582 0.0
H806 H 0.68107 0.40352 0.647 0.0
H807 H 0.69589 0.39029 0.6096 0.0
H808 H 0.90805 0.42451 0.90232 0.0
H809 H 0.89455 0.40938 0.93781 0.0
H810 H 0.86152 0.42837 0.89262 0.0
H811 H 0.87492 0.4435 0.85714 0.0
H812 H 0.87593 0.41522 -0.00248 0.0
H813 H 0.855 0.39074 0.86625 0.0
H814 H 0.86919 0.4001 0.86266 0.0
H815 H 0.85404 0.40766 0.86457 0.0
C816 C 0.89792 0.42538 0.89954 0.0
C817 C 0.89258 0.4352 0.87671 0.0
C818 C 0.89021 0.41675 0.91998 0.0
C819 C 0.87701 0.41765 0.91762 0.0
C820 C 0.87167 0.42735 0.89444 0.0
H821 H 0.81858 0.38694 0.0723 0.0
H822 H 0.83374 0.40032 0.03673 0.0
C823 C 0.87936 0.43603 0.87424 0.0
C824 C 0.86881 0.4088 0.94061 0.0
H825 H 0.84584 0.38642 0.92988 0.0
C826 C 0.86939 0.40888 0.98273 0.0
C827 C 0.86035 0.40045 0.92134 0.0
C828 C 0.85963 0.3996 0.87621 0.0
C829 C 0.86155 0.40106 0.00606 0.0
C830 C 0.85283 0.39298 0.98681 0.0
C831 C 0.85245 0.39268 0.94467 0.0
C832 C 0.84394 0.38481 0.00983 0.0
C833 C 0.86271 0.40144 0.05116 0.0
C834 C 0.84455 0.37163 0.00642 0.0
C835 C 0.83592 0.36394 0.02688 0.0
C836 C 0.82638 0.36928 0.05082 0.0
C837 C 0.82584 0.3825 0.05434 0.0
C838 C 0.83453 0.39017 0.03409 0.0
H839 H 0.87172 0.40581 0.06086 0.0
H840 H 0.85485 0.40712 0.06368 0.0
H841 H 0.86209 0.3918 0.06408 0.0
H842 H 0.8517 0.36728 0.98776 0.0
H843 H 0.83657 0.35381 0.02327 0.0
H844 H 0.83834 0.65688 0.13747 0.0
H845 H 0.85345 0.64348 0.17339 0.0
H846 H 0.82837 0.61173 0.16037 0.0
H847 H 0.81348 0.62493 0.12344 0.0
H848 H 0.85156 0.6309 0.24246 0.0
H849 H 0.86049 0.59628 0.12174 0.0
H850 H 0.85221 0.61087 0.11278 0.0
H851 H 0.84403 0.59744 0.13329 0.0
C852 C 0.83611 0.64701 0.14193 0.0
C853 C 0.82475 0.64195 0.12721 0.0
C854 C 0.84475 0.63936 0.16256 0.0
C855 C 0.84221 0.62649 0.16897 0.0
C856 C 0.83077 0.6215 0.15481 0.0
H857 H 0.87354 0.56568 0.30963 0.0
H858 H 0.86038 0.58061 0.27233 0.0
C859 C 0.82221 0.6291 0.13388 0.0
C860 C 0.85128 0.61838 0.19158 0.0
H861 H 0.86715 0.59029 0.18778 0.0
C862 C 0.85508 0.6221 0.23026 0.0
C863 C 0.85597 0.60689 0.17573 0.0
C864 C 0.85308 0.6027 0.13345 0.0
C865 C 0.86304 0.61447 0.25385 0.0
C866 C 0.86733 0.60283 0.23846 0.0
C867 C 0.86375 0.59919 0.19963 0.0
C868 C 0.87532 0.59412 0.26253 0.0
C869 C 0.86659 0.61872 0.29552 0.0
C870 C 0.88811 0.59678 0.26946 0.0
C871 C 0.8957 0.58821 0.29059 0.0
C872 C 0.89062 0.57686 0.30538 0.0
C873 C 0.87775 0.57435 0.29887 0.0
C874 C 0.87021 0.58286 0.27746 0.0
H875 H 0.86135 0.62731 0.30483 0.0
H876 H 0.86471 0.61108 0.31753 0.0
H877 H 0.87684 0.62081 0.2965 0.0
H878 H 0.89226 0.60538 0.25792 0.0
H879 H 0.90558 0.59041 0.29496 0.0
H880 H 0.32742 0.38611 0.57937 0.0
H881 H 0.34292 0.39927 0.61408 0.0
H882 H 0.34643 0.3709 0.70647 0.0
H883 H 0.3317 0.35738 0.67002 0.0
H884 H 0.34233 0.4105 0.67928 0.0
H885 H 0.38234 0.37758 0.69369 0.0
H886 H 0.36881 0.37396 0.66316 0.0
H887 H 0.36857 0.37097 0.71651 0.0
C888 C 0.33172 0.38261 0.60667 0.0
C889 C 0.32849 0.37066 0.62172 0.0
C890 C 0.34056 0.39015 0.62667 0.0
C891 C 0.34614 0.38607 0.66278 0.0
C892 C 0.34275 0.37415 0.67801 0.0
H893 H 0.37686 0.44131 0.83143 0.0
H894 H 0.36362 0.42638 0.79472 0.0
C895 C 0.33422 0.36644 0.6573 0.0
C896 C 0.35485 0.39461 0.6855 0.0
H897 H 0.38275 0.39562 0.73701 0.0
C898 C 0.35123 0.40723 0.69144 0.0
C899 C 0.36663 0.39055 0.70108 0.0
C900 C 0.37187 0.37757 0.69287 0.0
C901 C 0.35887 0.41578 0.71259 0.0
C902 C 0.37023 0.4115 0.73048 0.0
C903 C 0.37396 0.39893 0.72408 0.0
C904 C 0.37849 0.41994 0.7551 0.0
C905 C 0.3548 0.42942 0.71423 0.0
C906 C 0.3915 0.42078 0.74717 0.0
C907 C 0.39919 0.42899 0.76925 0.0
C908 C 0.39401 0.43668 0.79937 0.0
C909 C 0.38109 0.43561 0.80805 0.0
C910 C 0.37347 0.42717 0.7867 0.0
H911 H 0.34869 0.43189 0.6883 0.0
H912 H 0.34922 0.43102 0.74193 0.0
H913 H 0.36303 0.43589 0.71428 0.0
H914 H 0.39568 0.41528 0.72324 0.0
H915 H 0.40911 0.42963 0.76179 0.0
H916 H 0.32066 0.62625 0.57153 0.0
H917 H 0.33595 0.6137 0.5337 0.0
H918 H 0.35039 0.64751 0.47848 0.0
H919 H 0.33515 0.66019 0.51656 0.0
H920 H 0.34375 0.626 0.42404 0.0
H921 H 0.37557 0.61277 0.54975 0.0
H922 H 0.35894 0.611 0.55898 0.0
H923 H 0.36543 0.62645 0.5515 0.0
C924 C 0.32716 0.63105 0.55163 0.0
C925 C 0.3267 0.64424 0.5472 0.0
C926 C 0.33591 0.62385 0.53008 0.0
C927 C 0.34437 0.62967 0.50347 0.0
C928 C 0.34398 0.64283 0.49898 0.0
H929 H 0.40773 0.59035 0.38936 0.0
H930 H 0.39459 0.606 0.42381 0.0
C931 C 0.33529 0.65007 0.52086 0.0
C932 C 0.3533 0.6219 0.47949 0.0
H933 H 0.37859 0.6021 0.48802 0.0
C934 C 0.35143 0.62084 0.43793 0.0
C935 C 0.36338 0.61527 0.49759 0.0
C936 C 0.36608 0.61645 0.54187 0.0
C937 C 0.35915 0.61304 0.41416 0.0
C938 C 0.36895 0.60601 0.43251 0.0
C939 C 0.37105 0.6074 0.47393 0.0
C940 C 0.37689 0.5969 0.4096 0.0
C941 C 0.35674 0.61243 0.36958 0.0
C942 C 0.37135 0.58655 0.39011 0.0
C943 C 0.37883 0.57763 0.3703 0.0
C944 C 0.39205 0.57878 0.36976 0.0
C945 C 0.39759 0.5892 0.389 0.0
C946 C 0.39008 0.59814 0.40882 0.0
H947 H 0.35159 0.6209 0.35875 0.0
H948 H 0.3657 0.61157 0.35257 0.0
H949 H 0.35085 0.60405 0.3629 0.0
H950 H 0.36123 0.5852 0.391 0.0
H951 H 0.37424 0.56966 0.35615 0.0
H952 H 0.10572 0.59121 0.29278 0.0
H953 H 0.11924 0.60611 0.25618 0.0
H954 H 0.14988 0.57945 0.26065 0.0
H955 H 0.13652 0.56457 0.29728 0.0
H956 H 0.14453 0.61613 0.27989 0.0
H957 H 0.14507 0.58839 0.13853 0.0
H958 H 0.13317 0.58624 0.17675 0.0
H959 H 0.14865 0.57973 0.18355 0.0
C960 C 0.11536 0.58854 0.28613 0.0
C961 C 0.12002 0.57667 0.29791 0.0
C962 C 0.12307 0.59707 0.26522 0.0
C963 C 0.13552 0.59384 0.25526 0.0
C964 C 0.14025 0.58209 0.26757 0.0
H965 H 0.19772 0.62535 0.12132 0.0
H966 H 0.18263 0.61236 0.15814 0.0
C967 C 0.1326 0.57361 0.28869 0.0
C968 C 0.14361 0.60265 0.23182 0.0
H969 H 0.15898 0.60578 0.14221 0.0
C970 C 0.14763 0.61394 0.24967 0.0
C971 C 0.14767 0.59976 0.19246 0.0
C972 C 0.14337 0.58793 0.17141 0.0
C973 C 0.15595 0.62221 0.22973 0.0
C974 C 0.16009 0.61928 0.19032 0.0
C975 C 0.15586 0.60807 0.17232 0.0
C976 C 0.16918 0.62741 0.16776 0.0
C977 C 0.16059 0.63373 0.25176 0.0
C978 C 0.16664 0.64022 0.16021 0.0
C979 C 0.17537 0.64774 0.13936 0.0
C980 C 0.18671 0.64255 0.12503 0.0
C981 C 0.18908 0.62967 0.13184 0.0
C982 C 0.18044 0.62221 0.15295 0.0
H983 H 0.15941 0.63276 0.28475 0.0
H984 H 0.1707 0.63555 0.24526 0.0
H985 H 0.15506 0.64206 0.24193 0.0
H986 H 0.15789 0.64442 0.17026 0.0
H987 H 0.1732 0.6576 0.13441 0.0
H988 H 0.13922 0.44626 0.86453 0.0
H989 H 0.1525 0.43126 0.90104 0.0
H990 H 0.12035 0.4071 0.91977 0.0
H991 H 0.10694 0.42212 0.88337 0.0
H992 H 0.14789 0.42294 0.98409 0.0
H993 H 0.14881 0.38339 0.87451 0.0
H994 H 0.14499 0.39936 0.85999 0.0
H995 H 0.13363 0.38999 0.88648 0.0
C996 C 0.13497 0.4377 0.876 0.0
C997 C 0.122 0.43539 0.8709 0.0
C998 C 0.14258 0.42914 0.89698 0.0
C999 C 0.13745 0.41802 0.91292 0.0
C1000 C 0.12455 0.41556 0.90733 0.0
H1001 H 0.1727 0.35568 0.0448 0.0
H1002 H 0.15781 0.36946 0.00941 0.0
C1003 C 0.11689 0.42417 0.88658 0.0
C1004 C 0.14552 0.40932 0.93688 0.0
H1005 H 0.15911 0.38009 0.93636 0.0
C1006 C 0.15035 0.41356 0.97369 0.0
C1007 C 0.14861 0.39706 0.92347 0.0
C1008 C 0.14384 0.39213 0.88385 0.0
C1009 C 0.15815 0.40587 -0.00246 0.0
C1010 C 0.16156 0.3937 0.98367 0.0
C1011 C 0.15656 0.3894 0.94704 0.0
C1012 C 0.1705 0.38542 0.0062 0.0
C1013 C 0.16245 0.4108 0.03774 0.0
C1014 C 0.18266 0.3897 0.01602 0.0
C1015 C 0.19112 0.38189 0.03661 0.0
C1016 C 0.18773 0.36952 0.04735 0.0
C1017 C 0.17561 0.36517 0.03718 0.0
C1018 C 0.16709 0.37304 0.01683 0.0
H1019 H 0.15592 0.41813 0.0494 0.0
H1020 H 0.16314 0.40311 0.06027 0.0
H1021 H 0.17188 0.4152 0.03438 0.0
H1022 H 0.18569 0.39905 0.00722 0.0
H1023 H 0.20043 0.38549 0.04347 0.0
H1024 H 0.21806 0.15276 0.97206 0.0
H1025 H 0.22639 0.1489 0.90423 0.0
H1026 H 0.26008 0.16963 0.93404 0.0
H1027 H 0.25198 0.17346 0.0012 0.0
H1028 H 0.23515 0.16634 0.84429 0.0
H1029 H 0.27336 0.13486 0.89778 0.0
H1030 H 0.25985 0.13887 0.92827 0.0
H1031 H 0.27283 0.14969 0.92366 0.0
C1032 C 0.22716 0.15662 0.96385 0.0
C1033 C 0.23445 0.16325 0.99201 0.0
C1034 C 0.23192 0.15434 0.92534 0.0
C1035 C 0.24399 0.15867 0.91483 0.0
C1036 C 0.25092 0.1659 0.94213 0.0
H1037 H 0.29248 0.16692 0.71271 0.0
H1038 H 0.28351 0.16481 0.78038 0.0
C1039 C 0.24623 0.16813 0.98038 0.0
C1040 C 0.24951 0.15584 0.87529 0.0
H1041 H 0.27559 0.14309 0.83106 0.0
C1042 C 0.24387 0.16108 0.84117 0.0
C1043 C 0.2609 0.14899 0.87165 0.0
C1044 C 0.26704 0.14267 0.90725 0.0
C1045 C 0.24966 0.16018 0.80352 0.0
C1046 C 0.26128 0.15368 0.80012 0.0
C1047 C 0.26673 0.1481 0.83402 0.0
C1048 C 0.26799 0.15297 0.76152 0.0
C1049 C 0.24359 0.1666 0.76797 0.0
C1050 C 0.26256 0.14645 0.72941 0.0
C1051 C 0.26758 0.14768 0.69105 0.0
C1052 C 0.27818 0.15537 0.68434 0.0
C1053 C 0.2843 0.16096 0.71715 0.0
C1054 C 0.27918 0.15979 0.75566 0.0
H1055 H 0.23605 0.17327 0.77723 0.0
H1056 H 0.25072 0.17184 0.75015 0.0
H1057 H 0.23929 0.15936 0.74819 0.0
H1058 H 0.25405 0.14096 0.73367 0.0
H1059 H 0.26281 0.1431 0.66629 0.0
H1060 H 0.1064 0.96765 0.22124 0.0
H1061 H 0.10907 0.97521 0.15219 0.0
H1062 H 0.10641 0.01365 0.19339 0.0
H1063 H 0.10399 0.00633 0.26199 0.0
H1064 H 0.09193 0.98935 0.10996 0.0
H1065 H 0.13709 0.01532 0.12134 0.0
H1066 H 0.13193 1.00425 0.15914 0.0
H1067 H 0.12587 0.02011 0.15864 0.0
C1068 C 0.10654 0.97772 0.21564 0.0
C1069 C 0.10499 0.98637 0.24722 0.0
C1070 C 0.10808 0.98201 0.17623 0.0
C1071 C 0.10817 0.99499 0.16787 0.0
C1072 C 0.10672 1.00361 0.19931 0.0
H1073 H 0.10058 0.0418 0.95612 0.0
H1074 H 0.1028 0.0338 0.02497 0.0
C1075 C 0.10523 0.99937 0.23856 0.0
C1076 C 0.1087 0.99961 0.12605 0.0
H1077 H 0.12431 0.01988 0.0637 0.0
C1078 C 0.09909 0.99589 0.09968 0.0
C1079 C 0.11802 0.00823 0.11291 0.0
C1080 C 0.12888 0.01212 0.13939 0.0
C1081 C 0.09836 1.00083 0.06075 0.0
C1082 C 0.10755 0.00959 0.04786 0.0
C1083 C 0.11724 0.01322 0.07398 0.0
C1084 C 0.10735 0.01476 0.0068 0.0
C1085 C 0.0876 0.99685 0.03395 0.0
C1086 C 0.10956 0.00676 0.97423 0.0
C1087 C 0.10828 0.01123 0.93518 0.0
C1088 C 0.10482 0.02385 0.92791 0.0
C1089 C 0.10319 0.03203 0.96071 0.0
C1090 C 0.10446 0.0275 -3e-05 0.0
H1091 H 0.0799 0.99223 0.05113 0.0
H1092 H 0.08365 1.00508 0.01761 0.0
H1093 H 0.09113 0.99002 0.01135 0.0
H1094 H 0.112 0.99695 0.97906 0.0
H1095 H 0.10981 1.0047 0.91069 0.0
H1096 H 0.25747 0.85012 0.15911 0.0
H1097 H 0.26489 0.85222 0.22778 0.0
H1098 H 0.22689 0.85953 0.26762 0.0
H1099 H 0.21923 0.85717 0.19862 0.0
H1100 H 0.26361 0.87201 0.28058 0.0
H1101 H 0.23773 0.83022 0.33871 0.0
H1102 H 0.23931 0.83344 0.28577 0.0
H1103 H 0.22795 0.84193 0.31532 0.0
C1104 C 0.25063 0.8522 0.18232 0.0
C1105 C 0.23771 0.85338 0.17334 0.0
C1106 C 0.25493 0.85342 0.2216 0.0
C1107 C 0.24643 0.85586 0.25277 0.0
C1108 C 0.23356 0.85739 0.24399 0.0
H1109 H 0.25635 0.86088 0.50874 0.0
H1110 H 0.24889 0.86276 0.43999 0.0
C1111 C 0.22922 0.85608 0.20457 0.0
C1112 C 0.25114 0.85656 0.29444 0.0
H1113 H 0.24919 0.84222 0.38586 0.0
C1114 C 0.26046 0.86552 0.30368 0.0
C1115 C 0.24706 0.848 0.32429 0.0
C1116 C 0.23755 0.83777 0.31558 0.0
C1117 C 0.26573 0.86621 0.34221 0.0
C1118 C 0.26164 0.85766 0.37196 0.0
C1119 C 0.25228 0.84877 0.36282 0.0
C1120 C 0.26676 0.85779 0.41312 0.0
C1121 C 0.27552 0.87615 0.351 0.0
C1122 C 0.27937 0.85453 0.42067 0.0
C1123 C 0.28373 0.85342 0.46017 0.0
C1124 C 0.27547 0.85545 0.49256 0.0
C1125 C 0.26296 0.85912 0.4846 0.0
C1126 C 0.25865 0.86023 0.44531 0.0
H1127 H 0.27567 0.88364 0.32765 0.0
H1128 H 0.27377 0.88058 0.38067 0.0
H1129 H 0.28498 0.87168 0.35194 0.0
H1130 H 0.28572 0.85243 0.39609 0.0
H1131 H 0.2934 0.85057 0.46528 0.0
H1132 H 0.41402 1.00585 0.75368 0.0
H1133 H 0.41133 0.99909 0.68457 0.0
H1134 H 0.40406 0.03749 0.64863 0.0
H1135 H 0.40691 0.04449 0.71819 0.0
H1136 H 0.39039 1.00157 0.63467 0.0
H1137 H 0.43249 0.02622 0.57312 0.0
H1138 H 0.43001 0.02412 0.62629 0.0
H1139 H 0.42141 0.03603 0.5994 0.0
C1140 C 0.41186 0.01292 0.73124 0.0
C1141 C 0.41074 0.02575 0.74153 0.0
C1142 C 0.4103 0.00901 0.69171 0.0
C1143 C 0.4076 0.01779 0.66155 0.0
C1144 C 0.40633 0.03059 0.67151 0.0
H1145 H 0.40164 0.007 0.40492 0.0
H1146 H 0.39988 0.01524 0.4728 0.0
C1147 C 0.40794 0.03456 0.71123 0.0
C1148 C 0.40624 0.01338 0.61976 0.0
H1149 H 0.42002 0.01477 0.52743 0.0
C1150 C 0.39682 1.00449 0.61111 0.0
C1151 C 0.41469 0.01719 0.58929 0.0
C1152 C 0.4253 0.02634 0.59737 0.0
C1153 C 0.39564 0.99925 0.57266 0.0
C1154 C 0.40421 1.00293 0.54241 0.0
C1155 C 0.41348 0.01199 0.55085 0.0
C1156 C 0.4039 0.99744 0.50174 0.0
C1157 C 0.38524 0.9899 0.56462 0.0
C1158 C 0.40657 0.98462 0.49564 0.0
C1159 C 0.4076 0.97981 0.45669 0.0
C1160 C 0.40609 0.98782 0.42335 0.0
C1161 C 0.40297 1.00056 0.42982 0.0
C1162 C 0.40194 1.00532 0.46861 0.0
H1163 H 0.3777 0.9904 0.58773 0.0
H1164 H 0.38097 0.99153 0.53463 0.0
H1165 H 0.38922 0.98022 0.56503 0.0
H1166 H 0.4083 0.97844 0.52094 0.0
H1167 H 0.41003 0.96997 0.45277 0.0
H1168 H 0.76392 0.83464 0.18921 0.0
H1169 H 0.75699 0.83922 0.2573 0.0
H1170 H 0.78893 0.8638 0.27409 0.0
H1171 H 0.79603 0.85926 0.20518 0.0
H1172 H 0.7811 0.84515 0.34155 0.0
H1173 H 0.74308 0.8762 0.28319 0.0
H1174 H 0.74462 0.86124 0.2583 0.0
H1175 H 0.75715 0.87258 0.25479 0.0
C1176 C 0.76958 0.8409 0.20748 0.0
C1177 C 0.78042 0.84674 0.19182 0.0
C1178 C 0.76559 0.84352 0.24627 0.0
C1179 C 0.77231 0.85205 0.27005 0.0
C1180 C 0.7836 0.85729 0.25572 0.0
H1181 H 0.7522 0.86946 0.51738 0.0
H1182 H 0.76207 0.87101 0.45141 0.0
C1183 C 0.78766 0.85463 0.21664 0.0
C1184 C 0.76706 0.85566 0.3092 0.0
H1185 H 0.74109 0.86932 0.35113 0.0
C1186 C 0.77251 0.85065 0.34396 0.0
C1187 C 0.75581 0.86277 0.31175 0.0
C1188 C 0.74984 0.86861 0.27508 0.0
C1189 C 0.76658 0.852 0.3813 0.0
C1190 C 0.75507 0.85873 0.38366 0.0
C1191 C 0.74989 0.86415 0.34905 0.0
C1192 C 0.74801 0.85963 0.4216 0.0
C1193 C 0.77234 0.84568 0.41756 0.0
C1194 C 0.73642 0.85337 0.42588 0.0
C1195 C 0.73066 0.85256 0.46354 0.0
C1196 C 0.73651 0.85794 0.49721 0.0
C1197 C 0.74761 0.86502 0.49203 0.0
C1198 C 0.75328 0.86591 0.45447 0.0
H1199 H 0.77979 0.83881 0.40912 0.0
H1200 H 0.77668 0.85294 0.43713 0.0
H1201 H 0.76501 0.84068 0.43529 0.0
H1202 H 0.73219 0.84856 0.40057 0.0
H1203 H 0.7221 0.84707 0.46669 0.0
H1204 H 0.91659 0.04247 0.95764 0.0
H1205 H 0.91424 0.03328 0.02492 0.0
H1206 H 0.88989 1.00444 0.97684 0.0
H1207 H 0.8923 0.01341 0.90979 0.0
H1208 H 0.89247 0.02549 0.07533 0.0
H1209 H 0.92193 0.98572 0.01913 0.0
H1210 H 0.92068 1.00053 0.9927 0.0
H1211 H 0.90799 0.98935 0.9907 0.0
C1212 C 0.91048 0.03438 0.96169 0.0
C1213 C 0.90484 0.02847 0.92859 0.0
C1214 C 0.90916 0.02914 -2e-05 0.0
C1215 C 0.90213 0.01805 0.00533 0.0
C1216 C 0.89554 0.01287 0.97296 0.0
H1217 H 0.90356 0.96826 0.21695 0.0
H1218 H 0.89875 0.97632 0.14933 0.0
C1219 C 0.89693 0.018 0.93479 0.0
C1220 C 0.90278 0.01115 0.04358 0.0
H1221 H 0.91558 0.98489 0.08664 0.0
C1222 C 0.89742 0.01657 0.07785 0.0
C1223 C 0.90919 0.99947 0.04641 0.0
C1224 C 0.91537 0.99342 0.01041 0.0
C1225 C 0.89854 0.0107 0.11534 0.0
C1226 C 0.90539 0.99929 0.11842 0.0
C1227 C 0.91032 0.99362 0.08392 0.0
C1228 C 0.90875 0.99391 0.15771 0.0
C1229 C 0.89257 0.01684 0.15147 0.0
C1230 C 0.91642 1.00091 0.18354 0.0
C1231 C 0.9192 0.99637 0.22161 0.0
C1232 C 0.91443 0.98468 0.23448 0.0
C1233 C 0.90736 0.97729 0.2077 0.0
C1234 C 0.90453 0.98191 0.16936 0.0
H1235 H 0.88467 0.02315 0.14266 0.0
H1236 H 0.88897 0.00966 0.1729 0.0
H1237 H 0.89974 0.02264 0.16716 0.0
H1238 H 0.92007 0.01002 0.17448 0.0
H1239 H 0.92486 1.00218 0.24135 0.0
H1240 H 0.79148 0.16542 0.96595 0.0
H1241 H 0.7821 0.16432 0.8987 0.0
H1242 H 0.7517 0.14158 0.94517 0.0
H1243 H 0.76084 0.14278 0.01226 0.0
H1244 H 0.77369 0.14401 0.84696 0.0
H1245 H 0.73435 0.17395 0.90324 0.0
H1246 H 0.74883 0.17183 0.93086 0.0
H1247 H 0.73712 0.1596 0.93056 0.0
C1248 C 0.78296 0.15995 0.96158 0.0
C1249 C 0.77674 0.1544 0.99433 0.0
C1250 C 0.7776 0.15936 0.92329 0.0
C1251 C 0.76606 0.15314 0.91745 0.0
C1252 C 0.76045 0.14667 0.94942 0.0
H1253 H 0.7171 0.15576 0.7043 0.0
H1254 H 0.72498 0.15093 0.7721 0.0
C1255 C 0.76571 0.14735 0.98763 0.0
C1256 C 0.75936 0.1543 0.87888 0.0
H1257 H 0.73346 0.16774 0.83551 0.0
C1258 C 0.76486 0.14912 0.84442 0.0
C1259 C 0.74781 0.16093 0.87593 0.0
C1260 C 0.74169 0.16699 0.912 0.0
C1261 C 0.75917 0.15057 0.80675 0.0
C1262 C 0.74785 0.15756 0.80363 0.0
C1263 C 0.74213 0.16237 0.83824 0.0
C1264 C 0.74254 0.16103 0.76429 0.0
C1265 C 0.7654 0.14476 0.7705 0.0
C1266 C 0.74958 0.16874 0.73863 0.0
C1267 C 0.74515 0.17152 0.70041 0.0
C1268 C 0.73352 0.16671 0.68717 0.0
C1269 C 0.72609 0.15959 0.71378 0.0
C1270 C 0.7306 0.15676 0.75226 0.0
H1271 H 0.77171 0.13684 0.77907 0.0
H1272 H 0.75827 0.14124 0.74884 0.0
H1273 H 0.77121 0.15201 0.75515 0.0
H1274 H 0.75866 0.17241 0.74793 0.0
H1275 H 0.751 0.17721 0.68083 0.0
H1276 H 0.60792 0.04384 0.71559 0.0
H1277 H 0.61077 0.03575 0.64691 0.0
H1278 H 0.58795 1.00335 0.67615 0.0
H1279 H 0.58497 0.01131 0.74382 0.0
H1280 H 0.62182 0.01137 0.62922 0.0
H1281 H 0.5733 0.01583 0.56912 0.0
H1282 H 0.57873 0.02465 0.61212 0.0
H1283 H 0.57385 0.00849 0.61766 0.0
C1284 C 0.6033 0.03515 0.70692 0.0
C1285 C 0.59627 0.02817 0.73495 0.0
C1286 C 0.60499 0.03052 0.66795 0.0
C1287 C 0.59949 0.01902 0.65664 0.0
C1288 C 0.59212 0.01233 0.68421 0.0
H1289 H 0.59618 0.96794 0.45743 0.0
H1290 H 0.59707 0.97656 0.52565 0.0
C1291 C 0.59049 0.01687 0.72292 0.0
C1292 C 0.60197 0.01337 0.61708 0.0
H1293 H 0.58697 1.00145 0.53511 0.0
C1294 C 0.61427 0.00934 0.60827 0.0
C1295 C 0.59204 0.01067 0.59021 0.0
C1296 C 0.57876 0.01524 0.59752 0.0
C1297 C 0.61681 1.00226 0.57365 0.0
C1298 C 0.6068 0.99928 0.54741 0.0
C1299 C 0.59457 1.00356 0.55584 0.0
C1300 C 0.60878 0.99248 0.50942 0.0
C1301 C 0.63008 0.99778 0.56585 0.0
C1302 C 0.61546 0.99836 0.47841 0.0
C1303 C 0.61493 0.99351 0.43965 0.0
C1304 C 0.60766 0.98274 0.43134 0.0
C1305 C 0.60186 0.97624 0.46307 0.0
C1306 C 0.60233 0.98116 0.50192 0.0
H1307 H 0.63598 0.99815 0.59338 0.0
H1308 H 0.63008 0.98797 0.55417 0.0
H1309 H 0.63451 1.00393 0.54286 0.0
H1310 H 0.62034 0.00719 0.48353 0.0
H1311 H 0.61958 0.99865 0.41573 0.0
H1312 H 0.71802 0.66258 0.46832 0.0
H1313 H 0.72546 0.66091 0.39886 0.0
H1314 H 0.76225 0.64978 0.4412 0.0
H1315 H 0.75495 0.65123 0.5102 0.0
H1316 H 0.74533 0.67551 0.36899 0.0
H1317 H 0.75565 0.62453 0.35122 0.0
H1318 H 0.74572 0.63057 0.39084 0.0
H1319 H 0.7626 0.63139 0.39521 0.0
C1320 C 0.72762 0.65953 0.4628 0.0
C1321 C 0.73591 0.65713 0.49483 0.0
C1322 C 0.73185 0.6586 0.42316 0.0
C1323 C 0.74436 0.6551 0.41501 0.0
C1324 C 0.7525 0.65226 0.44683 0.0
H1325 H 0.79272 0.65838 0.20368 0.0
H1326 H 0.78466 0.6563 0.27252 0.0
C1327 C 0.74831 0.65322 0.48632 0.0
C1328 C 0.74935 0.65565 0.37368 0.0
H1329 H 0.76428 0.63834 0.30157 0.0
C1330 C 0.74936 0.66736 0.35408 0.0
C1331 C 0.75474 0.64503 0.35464 0.0
C1332 C 0.7546 0.63214 0.37388 0.0
C1333 C 0.75478 0.66877 0.31602 0.0
C1334 C 0.76018 0.65817 0.29704 0.0
C1335 C 0.7602 0.64645 0.31654 0.0
C1336 C 0.76514 0.65898 0.25582 0.0
C1337 C 0.75483 0.68163 0.29652 0.0
C1338 C 0.75677 0.66099 0.22402 0.0
C1339 C 0.76128 0.66217 0.185 0.0
C1340 C 0.77429 0.66135 0.17691 0.0
C1341 C 0.78267 0.65913 0.2089 0.0
C1342 C 0.7781 0.65791 0.24813 0.0
H1343 H 0.75287 0.68926 0.31849 0.0
H1344 H 0.76405 0.68351 0.28192 0.0
H1345 H 0.74743 0.68196 0.27298 0.0
H1346 H 0.74672 0.66171 0.22946 0.0
H1347 H 0.75451 0.66382 0.16123 0.0
H1348 H 0.60188 0.5443 0.45762 0.0
H1349 H 0.60439 0.53611 0.526 0.0
H1350 H 0.61469 0.49973 0.47852 0.0
H1351 H 0.61219 0.5077 0.41051 0.0
H1352 H 0.59432 0.49956 0.53371 0.0
H1353 H 0.63597 0.52551 0.59211 0.0
H1354 H 0.62403 0.53507 0.56873 0.0
H1355 H 0.63274 0.52394 0.5391 0.0
C1356 C 0.60489 0.53463 0.46174 0.0
C1357 C 0.6067 0.52663 0.42859 0.0
C1358 C 0.60637 0.52998 0.50078 0.0
C1359 C 0.60978 0.51734 0.50711 0.0
C1360 C 0.61206 0.50951 0.47414 0.0
H1361 H 0.6083 0.47001 0.72339 0.0
H1362 H 0.61113 0.47716 0.65394 0.0
C1363 C 0.61059 0.51411 0.43528 0.0
C1364 C 0.60982 0.51188 0.54786 0.0
H1365 H 0.62411 0.51361 0.63929 0.0
C1366 C 0.60089 0.50253 0.55679 0.0
C1367 C 0.61842 0.51583 0.57762 0.0
C1368 C 0.62842 0.52557 0.569 0.0
C1369 C 0.60004 0.49727 0.59527 0.0
C1370 C 0.60856 0.5013 0.62526 0.0
C1371 C 0.61765 0.5105 0.6161 0.0
C1372 C 0.60755 0.49683 0.66715 0.0
C1373 C 0.58973 0.48784 0.60387 0.0
C1374 C 0.60495 0.50556 0.69752 0.0
C1375 C 0.60345 0.50155 0.737 0.0
C1376 C 0.6045 0.48869 0.74704 0.0
C1377 C 0.60731 0.47995 0.71661 0.0
C1378 C 0.6089 0.48401 0.67695 0.0
H1379 H 0.58233 0.4879 0.58025 0.0
H1380 H 0.59385 0.47823 0.60509 0.0
H1381 H 0.5852 0.4898 0.63327 0.0
H1382 H 0.60387 0.51548 0.69054 0.0
H1383 H 0.60129 0.50858 0.75955 0.0
H1384 H 0.71795 0.35782 0.70224 0.0
H1385 H 0.72586 0.36166 0.77049 0.0
H1386 H 0.76339 0.35159 0.73236 0.0
H1387 H 0.75576 0.34785 0.66486 0.0
H1388 H 0.73837 0.34454 0.82112 0.0
H1389 H 0.76885 0.38559 0.78734 0.0
H1390 H 0.75667 0.38022 0.75354 0.0
H1391 H 0.77178 0.37249 0.75459 0.0
C1392 C 0.72788 0.35643 0.70849 0.0
C1393 C 0.73623 0.35263 0.67802 0.0
C1394 C 0.73238 0.35869 0.74732 0.0
C1395 C 0.74525 0.35723 0.75597 0.0
C1396 C 0.7535 0.35315 0.72591 0.0
H1397 H 0.79286 0.34739 0.96083 0.0
H1398 H 0.78437 0.35019 0.89275 0.0
C1399 C 0.74906 0.35092 0.68735 0.0
C1400 C 0.75017 0.35919 0.79684 0.0
H1401 H 0.7732 0.37458 0.84905 0.0
C1402 C 0.74583 0.35125 0.82747 0.0
C1403 C 0.75993 0.36794 0.80478 0.0
C1404 C 0.7645 0.37713 0.77339 0.0
C1405 C 0.75139 0.35144 0.86554 0.0
C1406 C 0.76145 0.35985 0.87299 0.0
C1407 C 0.76556 0.36806 0.84282 0.0
C1408 C 0.76767 0.36016 0.91236 0.0
C1409 C 0.74675 0.3424 0.89731 0.0
C1410 C 0.7613 0.36533 0.94514 0.0
C1411 C 0.76606 0.36374 0.98369 0.0
C1412 C 0.77729 0.35695 0.99002 0.0
C1413 C 0.78418 0.35262 0.95678 0.0
C1414 C 0.77935 0.3542 0.91802 0.0
H1415 H 0.7401 0.3353 0.88499 0.0
H1416 H 0.75482 0.3374 0.9114 0.0
H1417 H 0.74183 0.34776 0.92122 0.0
H1418 H 0.75232 0.37005 0.94106 0.0
H1419 H 0.76064 0.36737 0.00871 0.0
H1420 H 0.89818 0.5099 0.26645 0.0
H1421 H 0.89582 0.50172 0.19883 0.0
H1422 H 0.91154 0.53604 0.15053 0.0
H1423 H 0.91416 0.54435 0.21891 0.0
H1424 H 0.8834 0.51043 0.12982 0.0
H1425 H 0.93552 0.50773 0.11155 0.0
H1426 H 0.92813 0.51053 0.15951 0.0
H1427 H 0.92924 0.52304 0.12329 0.0
C1428 C 0.90108 0.5158 0.24153 0.0
C1429 C 0.90661 0.52768 0.248 0.0
C1430 C 0.89964 0.51112 0.20289 0.0
C1431 C 0.9037 0.51819 0.16993 0.0
C1432 C 0.90854 0.53039 0.17586 0.0
H1433 H 0.89573 0.50035 0.92117 0.0
H1434 H 0.89286 0.50824 0.98909 0.0
C1435 C 0.90996 0.53514 0.21479 0.0
C1436 C 0.90362 0.51227 0.12995 0.0
H1437 H 0.9231 0.50064 0.05749 0.0
C1438 C 0.89205 0.50833 0.11382 0.0
C1439 C 0.91498 0.50929 0.10989 0.0
C1440 C 0.9277 0.51275 0.12696 0.0
C1441 C 0.89154 0.5016 0.07769 0.0
C1442 C 0.90288 0.49887 0.05723 0.0
C1443 C 0.91444 0.5027 0.07354 0.0
C1444 C 0.90298 0.49291 0.01733 0.0
C1445 C 0.87891 0.49732 0.06194 0.0
C1446 C 0.90951 0.48156 0.01087 0.0
C1447 C 0.9112 0.477 0.97187 0.0
C1448 C 0.90657 0.48389 0.93903 0.0
C1449 C 0.89952 0.4949 0.94593 0.0
C1450 C 0.89776 0.49938 0.98473 0.0
H1451 H 0.87169 0.497 0.0861 0.0
H1452 H 0.87562 0.50406 0.0387 0.0
H1453 H 0.87961 0.48784 0.04797 0.0
H1454 H 0.91367 0.47651 0.03586 0.0
H1455 H 0.91669 0.4685 0.96732 0.0
H1456 H 0.29237 0.34691 0.7079 0.0
H1457 H 0.28263 0.3478 0.77465 0.0
H1458 H 0.25292 0.37139 0.72783 0.0
H1459 H 0.26243 0.37038 0.66119 0.0
H1460 H 0.27422 0.3677 0.82744 0.0
H1461 H 0.23475 0.33903 0.7658 0.0
H1462 H 0.24944 0.34115 0.73931 0.0
H1463 H 0.23793 0.35358 0.74007 0.0
C1464 C 0.28395 0.35254 0.71214 0.0
C1465 C 0.27801 0.35838 0.67937 0.0
C1466 C 0.27838 0.35301 0.75014 0.0
C1467 C 0.26691 0.35939 0.75565 0.0
C1468 C 0.26162 0.36618 0.7238 0.0
H1469 H 0.21774 0.35693 0.9684 0.0
H1470 H 0.22554 0.36174 0.9005 0.0
C1471 C 0.26709 0.36562 0.68587 0.0
C1472 C 0.25992 0.35802 0.79362 0.0
H1473 H 0.23356 0.34455 0.8341 0.0
C1474 C 0.26529 0.36274 0.82892 0.0
C1475 C 0.24824 0.35154 0.79521 0.0
C1476 C 0.24226 0.34593 0.75819 0.0
C1477 C 0.25938 0.36096 0.86608 0.0
C1478 C 0.24793 0.35415 0.86778 0.0
C1479 C 0.24233 0.3498 0.8324 0.0
C1480 C 0.24239 0.35038 0.90646 0.0
C1481 C 0.26551 0.36621 0.90336 0.0
C1482 C 0.249 0.34195 0.93096 0.0
C1483 C 0.2446 0.33917 0.96922 0.0
C1484 C 0.23345 0.34473 0.98361 0.0
C1485 C 0.22634 0.35251 0.95797 0.0
C1486 C 0.23081 0.35532 0.91945 0.0
H1487 H 0.27224 0.37391 0.89609 0.0
H1488 H 0.25832 0.36986 0.92461 0.0
H1489 H 0.27083 0.35858 0.91866 0.0
H1490 H 0.2578 0.33782 0.92091 0.0
H1491 H 0.25018 0.333 0.98812 0.0
H1492 H 0.39067 0.5152 0.41708 0.0
H1493 H 0.38805 0.50669 0.4846 0.0
H1494 H 0.41328 0.53511 0.53076 0.0
H1495 H 0.41577 0.54384 0.46306 0.0
H1496 H 0.40885 0.4969 0.52223 0.0
H1497 H 0.38606 0.53313 0.61758 0.0
H1498 H 0.38525 0.53347 0.56341 0.0
H1499 H 0.39909 0.53911 0.58889 0.0
C1500 C 0.39539 0.51985 0.44182 0.0
C1501 C 0.40356 0.53006 0.43495 0.0
C1502 C 0.39386 0.51499 0.4803 0.0
C1503 C 0.40047 0.52026 0.51253 0.0
C1504 C 0.40793 0.53104 0.5063 0.0
H1505 H 0.4261 0.50174 0.74406 0.0
H1506 H 0.42144 0.50972 0.67714 0.0
C1507 C 0.40939 0.536 0.46767 0.0
C1508 C 0.40109 0.51337 0.55095 0.0
H1509 H 0.39728 0.51668 0.65184 0.0
C1510 C 0.40613 0.50112 0.55059 0.0
C1511 C 0.39752 0.51894 0.58766 0.0
C1512 C 0.39156 0.53184 0.58949 0.0
C1513 C 0.40832 0.49451 0.58632 0.0
C1514 C 0.40521 0.50028 0.62315 0.0
C1515 C 0.39969 0.51232 0.62341 0.0
C1516 C 0.40866 0.49456 0.66196 0.0
C1517 C 0.41452 0.48171 0.58451 0.0
C1518 C 0.40328 0.48316 0.67499 0.0
C1519 C 0.40608 0.47846 0.71324 0.0
C1520 C 0.4141 0.48525 0.73886 0.0
C1521 C 0.4198 0.49638 0.72499 0.0
C1522 C 0.41712 0.50098 0.68688 0.0
H1523 H 0.41838 0.47962 0.55423 0.0
H1524 H 0.42229 0.48105 0.60676 0.0
H1525 H 0.40746 0.47435 0.59195 0.0
H1526 H 0.39663 0.47816 0.65621 0.0
H1527 H 0.40149 0.46991 0.72348 0.0
H1528 H 0.25644 0.65148 0.51624 0.0
H1529 H 0.24817 0.64974 0.44832 0.0
H1530 H 0.28372 0.66258 0.40062 0.0
H1531 H 0.29222 0.66424 0.46879 0.0
H1532 H 0.24592 0.66998 0.39631 0.0
H1533 H 0.27535 0.63204 0.33006 0.0
H1534 H 0.27428 0.63463 0.38353 0.0
H1535 H 0.2842 0.64452 0.35313 0.0
C1536 C 0.26259 0.65381 0.49136 0.0
C1537 C 0.27498 0.6581 0.49795 0.0
C1538 C 0.25783 0.65278 0.45257 0.0
C1539 C 0.26535 0.65596 0.41955 0.0
C1540 C 0.27784 0.65988 0.42577 0.0
H1541 H 0.25567 0.66807 0.1692 0.0
H1542 H 0.26255 0.6657 0.23834 0.0
C1543 C 0.28266 0.66087 0.46471 0.0
C1544 C 0.25974 0.65612 0.379 0.0
H1545 H 0.26275 0.64403 0.28475 0.0
C1546 C 0.2495 0.66422 0.37194 0.0
C1547 C 0.26445 0.64858 0.34749 0.0
C1548 C 0.2751 0.63936 0.35389 0.0
C1549 C 0.24411 0.66532 0.3337 0.0
C1550 C 0.24898 0.65795 0.30198 0.0
C1551 C 0.25904 0.64965 0.30926 0.0
C1552 C 0.24443 0.65939 0.26034 0.0
C1553 C 0.23361 0.67472 0.32724 0.0
C1554 C 0.2319 0.65664 0.24982 0.0
C1555 C 0.22786 0.65808 0.21009 0.0
C1556 C 0.23635 0.66214 0.18034 0.0
C1557 C 0.24888 0.66485 0.19122 0.0
C1558 C 0.25286 0.66349 0.23076 0.0
H1559 H 0.2328 0.68148 0.35256 0.0
H1560 H 0.2351 0.68012 0.29907 0.0
H1561 H 0.22452 0.6696 0.32461 0.0
H1562 H 0.22531 0.65327 0.27221 0.0
H1563 H 0.21818 0.65583 0.20258 0.0
H1564 H 0.10821 0.54465 0.21914 0.0
H1565 H 0.11097 0.53667 0.15029 0.0
H1566 H 0.0853 0.50615 0.17589 0.0
H1567 H 0.08246 0.514 0.24382 0.0
H1568 H 0.12026 0.5116 0.13331 0.0
H1569 H 0.07301 0.51982 0.06729 0.0
H1570 H 0.07857 0.52817 0.11109 0.0
H1571 H 0.07238 0.51244 0.11575 0.0
C1572 C 0.10294 0.53643 0.20958 0.0
C1573 C 0.09516 0.5299 0.23668 0.0
C1574 C 0.10457 0.53186 0.17051 0.0
C1575 C 0.09826 0.52089 0.15816 0.0
C1576 C 0.09011 0.51472 0.18473 0.0
H1577 H 0.0944 0.46927 0.96014 0.0
H1578 H 0.0949 0.4783 0.02797 0.0
C1579 C 0.08855 0.51919 0.22358 0.0
C1580 C 0.10078 0.51512 0.11878 0.0
H1581 H 0.08592 0.50437 0.03488 0.0
C1582 C 0.11283 0.51017 0.11142 0.0
C1583 C 0.09101 0.5132 0.09065 0.0
C1584 C 0.07804 0.51879 0.09635 0.0
C1585 C 0.11525 0.50293 0.07704 0.0
C1586 C 0.10536 0.50071 0.04961 0.0
C1587 C 0.0934 0.50591 0.05654 0.0
C1588 C 0.10729 0.49372 0.01196 0.0
C1589 C 0.12822 0.49745 0.07071 0.0
C1590 C 0.11442 0.49921 0.98125 0.0
C1591 C 0.11407 0.49416 0.94274 0.0
C1592 C 0.1066 0.48353 0.93441 0.0
C1593 C 0.10027 0.47743 0.9659 0.0
C1594 C 0.10051 0.48259 0.00448 0.0
H1595 H 0.13399 0.49777 0.09852 0.0
H1596 H 0.12756 0.48752 0.06031 0.0
H1597 H 0.13318 0.50294 0.04715 0.0
H1598 H 0.11957 0.50788 0.98641 0.0
H1599 H 0.11911 0.49898 0.91895 0.0
H1600 H 0.23059 0.20521 0.17497 0.0
H1601 H 0.22663 0.22783 0.17601 0.0
H1602 H 0.19568 0.22301 0.09359 0.0
H1603 H 0.19952 0.20019 0.09249 0.0
H1604 H 0.22822 0.24223 0.10401 0.0
H1605 H 0.18173 0.2481 0.17945 0.0
H1606 H 0.19124 0.23408 0.18573 0.0
H1607 H 0.18278 0.23661 0.13982 0.0
C1608 C 0.22279 0.20888 0.15752 0.0
C1609 C 0.21544 0.20085 0.13336 0.0
C1610 C 0.22053 0.22184 0.15823 0.0
C1611 C 0.21085 0.22712 0.13498 0.0
C1612 C 0.20309 0.21912 0.11221 0.0
H1613 H 0.20037 0.30823 0.08633 0.0
H1614 H 0.19651 0.28538 0.08863 0.0
C1615 C 0.20533 0.20608 0.11155 0.0
C1616 C 0.20991 0.24105 0.13163 0.0
H1617 H 0.19186 0.26662 0.15653 0.0
C1618 C 0.22023 0.24755 0.11531 0.0
C1619 C 0.19942 0.24796 0.14594 0.0
C1620 C 0.18816 0.2414 0.16397 0.0
C1621 C 0.22051 0.26075 0.1138 0.0
C1622 C 0.21029 0.2677 0.12967 0.0
C1623 C 0.19972 0.26125 0.14464 0.0
C1624 C 0.21096 0.28164 0.13286 0.0
C1625 C 0.23185 0.26718 0.09559 0.0
C1626 C 0.21998 0.28712 0.15814 0.0
C1627 C 0.22224 0.30007 0.15679 0.0
C1628 C 0.21546 0.30787 0.13028 0.0
C1629 C 0.20575 0.30249 0.10707 0.0
C1630 C 0.20354 0.28944 0.1083 0.0
H1631 H 0.2373 0.2607 0.07595 0.0
H1632 H 0.22898 0.27555 0.07773 0.0
H1633 H 0.23819 0.27043 0.11998 0.0
H1634 H 0.22569 0.28127 0.17769 0.0
H1635 H 0.22967 0.30391 0.17548 0.0
H1636 H 0.06176 0.95046 0.34208 0.0
H1637 H 0.03888 0.94691 0.34061 0.0
H1638 H 0.03288 0.9829 0.39737 0.0
H1639 H 0.05554 0.98658 0.39898 0.0
H1640 H 0.02008 0.94739 0.4064 0.0
H1641 H 0.01217 0.98428 0.29097 0.0
H1642 H 0.02749 0.97742 0.3003 0.0
H1643 H 0.02144 0.98949 0.33292 0.0
C1644 C 0.05558 0.9576 0.35443 0.0
C1645 C 0.06054 0.96887 0.3703 0.0
C1646 C 0.04251 0.95553 0.35361 0.0
C1647 C 0.0342 0.96472 0.36835 0.0
C1648 C 0.03913 0.97577 0.38528 0.0
H1649 H 0.95815 0.9822 0.41301 0.0
H1650 H 0.98083 0.97859 0.41194 0.0
C1651 C 0.05213 0.97784 0.38623 0.0
C1652 C 0.02033 0.96309 0.36537 0.0
H1653 H 0.99401 0.97718 0.32686 0.0
C1654 C 0.01437 0.95374 0.3885 0.0
C1655 C 0.01291 0.97134 0.34176 0.0
C1656 C 0.01881 0.98113 0.31475 0.0
C1657 C 1.00112 0.95291 0.39025 0.0
C1658 C 0.99375 0.9616 0.36827 0.0
C1659 C 0.99972 0.97056 0.34382 0.0
C1660 C 0.97988 0.9624 0.37278 0.0
C1661 C 0.99502 0.94318 0.41687 0.0
C1662 C 0.97179 0.95428 0.35173 0.0
C1663 C 0.9587 0.95632 0.35215 0.0
C1664 C 0.95356 0.96658 0.37343 0.0
C1665 C 0.96173 0.97428 0.39599 0.0
C1666 C 0.97473 0.97222 0.39553 0.0
H1667 H 1.00206 0.93712 0.43229 0.0
H1668 H 0.98911 0.94794 0.43984 0.0
H1669 H 0.98869 0.9371 0.39869 0.0
H1670 H 0.97562 0.94668 0.33378 0.0
H1671 H 0.95271 0.95024 0.33438 0.0
H1672 H 0.3082 0.81078 0.58282 0.0
H1673 H 0.31059 0.78774 0.58192 0.0
H1674 H 0.27731 0.78395 0.65513 0.0
H1675 H 0.27476 0.80677 0.65601 0.0
H1676 H 0.3125 0.76923 0.64588 0.0
H1677 H 0.26937 0.76289 0.55414 0.0
H1678 H 0.27713 0.77795 0.55944 0.0
H1679 H 0.26687 0.77222 0.59837 0.0
C1680 C 0.30144 0.80505 0.59898 0.0
C1681 C 0.29118 0.81067 0.61903 0.0
C1682 C 0.30283 0.79188 0.59842 0.0
C1683 C 0.29398 0.78412 0.6178 0.0
C1684 C 0.28409 0.78973 0.63925 0.0
H1685 H 0.27483 0.707 0.65711 0.0
H1686 H 0.27744 0.72982 0.6556 0.0
C1687 C 0.28268 0.80282 0.63977 0.0
C1688 C 0.29472 0.77015 0.6149 0.0
H1689 H 0.27765 0.74447 0.58553 0.0
C1690 C 0.30497 0.76379 0.63228 0.0
C1691 C 0.28493 0.76308 0.59687 0.0
C1692 C 0.27401 0.76937 0.57578 0.0
C1693 C 0.30537 0.75051 0.63386 0.0
C1694 C 0.29531 0.74347 0.6172 0.0
C1695 C 0.2853 0.74986 0.5986 0.0
C1696 C 0.29455 0.72949 0.6203 0.0
C1697 C 0.31626 0.74413 0.65473 0.0
C1698 C 0.30338 0.72165 0.60119 0.0
C1699 C 0.30192 0.7085 0.60198 0.0
C1700 C 0.29155 0.70295 0.62169 0.0
C1701 C 0.2829 0.71088 0.64146 0.0
C1702 C 0.28438 0.72397 0.64067 0.0
H1703 H 0.32192 0.75087 0.67275 0.0
H1704 H 0.31283 0.73648 0.67475 0.0
H1705 H 0.32254 0.73981 0.63191 0.0
H1706 H 0.31119 0.7257 0.58472 0.0
H1707 H 0.30874 0.70271 0.58631 0.0
H1708 H 0.4517 0.05941 0.8322 0.0
H1709 H 0.47463 0.0627 0.8327 0.0
H1710 H 0.47871 0.03301 0.92021 0.0
H1711 H 0.45599 0.02954 0.91954 0.0
H1712 H 0.4928 0.06795 0.8947 0.0
H1713 H 0.5004 0.02107 0.82544 0.0
H1714 H 0.48513 0.02856 0.82699 0.0
H1715 H 0.4911 0.0204 0.87038 0.0
C1716 C 0.45747 0.05369 0.8519 0.0
C1717 C 0.452 0.04407 0.87536 0.0
C1718 C 0.47057 0.05558 0.85213 0.0
C1719 C 0.4784 0.04791 0.87585 0.0
C1720 C 0.47288 0.03884 0.90098 0.0
H1721 H 0.5557 0.03191 0.92225 0.0
H1722 H 0.53294 0.03505 0.92301 0.0
C1723 C 0.45986 0.03689 0.9006 0.0
C1724 C 0.49236 0.04883 0.87314 0.0
H1725 H 0.51851 0.03117 0.85274 0.0
C1726 C 0.49845 0.05998 0.88515 0.0
C1727 C 0.49971 0.03846 0.86022 0.0
C1728 C 0.49377 0.02649 0.84463 0.0
C1729 C 0.51171 0.06078 0.88646 0.0
C1730 C 0.51902 0.05019 0.87516 0.0
C1731 C 0.5129 0.03924 0.86182 0.0
C1732 C 0.53299 0.04989 0.87846 0.0
C1733 C 0.51783 0.07273 0.90126 0.0
C1734 C 0.54068 0.05744 0.85387 0.0
C1735 C 0.55381 0.05569 0.85342 0.0
C1736 C 0.55942 0.04627 0.87726 0.0
C1737 C 0.55171 0.03919 0.90323 0.0
C1738 C 0.53867 0.04097 0.90375 0.0
H1739 H 0.51091 0.0792 0.91546 0.0
H1740 H 0.52538 0.07053 0.92328 0.0
H1741 H 0.52224 0.07771 0.87555 0.0
H1742 H 0.53649 0.06427 0.83367 0.0
H1743 H 0.55945 0.06125 0.83289 0.0
H1744 H 0.20431 0.81028 0.08853 0.0
H1745 H 0.20167 0.78728 0.0892 0.0
H1746 H 0.23236 0.78352 0.00523 0.0
H1747 H 0.23516 0.80633 0.00464 0.0
H1748 H 0.19738 0.76907 0.02667 0.0
H1749 H 0.24349 0.76201 0.10166 0.0
H1750 H 0.23583 0.77719 0.0992 0.0
H1751 H 0.24454 0.77133 0.05679 0.0
C1752 C 0.21043 0.80457 0.06997 0.0
C1753 C 0.22007 0.81018 0.04699 0.0
C1754 C 0.20891 0.79142 0.07039 0.0
C1755 C 0.21698 0.78368 0.04788 0.0
C1756 C 0.2262 0.78929 0.02352 0.0
H1757 H 0.23408 0.70641 0.00362 0.0
H1758 H 0.23124 0.72921 0.00377 0.0
C1759 C 0.22777 0.80237 0.02319 0.0
C1760 C 0.21621 0.76971 0.05066 0.0
H1761 H 0.23389 0.74376 0.07347 0.0
C1762 C 0.20529 0.7635 0.03728 0.0
C1763 C 0.2265 0.76248 0.0649 0.0
C1764 C 0.23821 0.76858 0.08184 0.0
C1765 C 0.20465 0.75024 0.03592 0.0
C1766 C 0.21516 0.74305 0.04866 0.0
C1767 C 0.22588 0.74928 0.06332 0.0
C1768 C 0.21563 0.72907 0.0455 0.0
C1769 C 0.19296 0.74401 0.01949 0.0
C1770 C 0.20761 0.72134 0.06839 0.0
C1771 C 0.20919 0.70819 0.06833 0.0
C1772 C 0.2189 0.70258 0.04568 0.0
C1773 C 0.22657 0.71037 0.02171 0.0
C1774 C 0.22496 0.72344 0.0217 0.0
H1775 H 0.18672 0.75085 0.00386 0.0
H1776 H 0.19551 0.73636 -0.00174 0.0
H1777 H 0.18757 0.73974 0.04459 0.0
H1778 H 0.20047 0.72548 0.08747 0.0
H1779 H 0.20315 0.7025 0.08727 0.0
H1780 H 0.45079 0.95139 0.32619 0.0
H1781 H 0.47371 0.94833 0.33097 0.0
H1782 H 0.47963 0.98687 0.29457 0.0
H1783 H 0.45693 0.99004 0.28946 0.0
H1784 H 0.49352 0.95352 0.26691 0.0
H1785 H 0.49859 0.98204 0.40553 0.0
H1786 H 0.4838 0.97505 0.39039 0.0
H1787 H 0.48927 0.98926 0.36671 0.0
C1788 C 0.45697 0.9592 0.31905 0.0
C1789 C 0.45196 0.97098 0.30758 0.0
C1790 C 0.47006 0.95742 0.32176 0.0
C1791 C 0.47834 0.96742 0.31354 0.0
C1792 C 0.47339 0.97908 0.30145 0.0
H1793 H 0.55437 0.99016 0.30001 0.0
H1794 H 0.53167 0.98692 0.30179 0.0
C1795 C 0.46038 0.98084 0.29841 0.0
C1796 C 0.49219 0.96591 0.31779 0.0
H1797 H 0.51742 0.97777 0.36893 0.0
C1798 C 0.49878 0.95862 0.2896 0.0
C1799 C 0.49898 0.97256 0.34753 0.0
C1800 C 0.49232 0.98009 0.37954 0.0
C1801 C 0.51206 0.95839 0.28901 0.0
C1802 C 0.51885 0.96553 0.31764 0.0
C1803 C 0.51221 0.97235 0.3469 0.0
C1804 C 0.53276 0.96703 0.31566 0.0
C1805 C 0.51874 0.95108 0.25656 0.0
C1806 C 0.54099 0.95689 0.32289 0.0
C1807 C 0.5541 0.95871 0.32197 0.0
C1808 C 0.55921 0.9707 0.3138 0.0
C1809 C 0.55086 0.98078 0.30634 0.0
C1810 C 0.53783 0.97896 0.30741 0.0
H1811 H 0.51212 0.94754 0.23331 0.0
H1812 H 0.52598 0.95706 0.24183 0.0
H1813 H 0.52363 0.94287 0.27016 0.0
H1814 H 0.53727 0.94763 0.32982 0.0
H1815 H 0.56021 0.95074 0.32797 0.0
H1816 H 0.31168 0.20259 0.5872 0.0
H1817 H 0.31498 0.22555 0.58969 0.0
H1818 H 0.27712 0.2315 0.54669 0.0
H1819 H 0.27371 0.20886 0.54405 0.0
H1820 H 0.31154 0.24499 0.52528 0.0
H1821 H 0.2794 0.25132 0.6549 0.0
H1822 H 0.28628 0.23626 0.64213 0.0
H1823 H 0.27279 0.24203 0.61505 0.0
C1824 C 0.30409 0.20879 0.57807 0.0
C1825 C 0.29239 0.20381 0.5658 0.0
C1826 C 0.30599 0.2219 0.5795 0.0
C1827 C 0.29621 0.23021 0.56898 0.0
C1828 C 0.28472 0.22526 0.55558 0.0
H1829 H 0.27382 0.30608 0.54124 0.0
H1830 H 0.27714 0.28338 0.54469 0.0
C1831 C 0.28282 0.21226 0.55403 0.0
C1832 C 0.29768 0.2441 0.57236 0.0
H1833 H 0.28418 0.2698 0.61664 0.0
C1834 C 0.30576 0.25044 0.54575 0.0
C1835 C 0.29015 0.25118 0.59919 0.0
C1836 C 0.28175 0.24487 0.62973 0.0
C1837 C 0.30593 0.26372 0.54368 0.0
C1838 C 0.29789 0.27076 0.56911 0.0
C1839 C 0.29027 0.26439 0.59697 0.0
C1840 C 0.29642 0.28465 0.56532 0.0
C1841 C 0.31418 0.27012 0.51297 0.0
C1842 C 0.3062 0.29295 0.57569 0.0
C1843 C 0.30433 0.30605 0.57386 0.0
C1844 C 0.29264 0.31107 0.56166 0.0
C1845 C 0.28296 0.30264 0.55078 0.0
C1846 C 0.28482 0.28962 0.55276 0.0
H1847 H 0.31855 0.26328 0.49188 0.0
H1848 H 0.30862 0.27709 0.49545 0.0
H1849 H 0.32184 0.27531 0.52854 0.0
H1850 H 0.31519 0.28932 0.58595 0.0
H1851 H 0.312 0.31222 0.58254 0.0
H1852 H 0.9576 0.02447 0.77742 0.0
H1853 H 0.98029 0.02803 0.77635 0.0
H1854 H 0.9751 0.06404 0.83386 0.0
H1855 H 0.95222 0.06055 0.83538 0.0
H1856 H 0.99406 0.04849 0.74066 0.0
H1857 H 1.00114 0.04537 0.90606 0.0
H1858 H 0.98699 0.03969 0.88199 0.0
H1859 H 0.98946 0.05631 0.88811 0.0
C1860 C 0.96121 0.03317 0.7899 0.0
C1861 C 0.95302 0.04219 0.80673 0.0
C1862 C 0.97422 0.0352 0.78915 0.0
C1863 C 0.97941 0.04623 0.8054 0.0
C1864 C 0.97131 0.05538 0.82166 0.0
H1865 H 0.06115 0.05896 0.83602 0.0
H1866 H 0.03834 0.06286 0.83477 0.0
C1867 C 0.95822 0.05339 0.82229 0.0
C1868 C 0.99331 0.04793 0.80519 0.0
H1869 H 0.01925 0.04761 0.86608 0.0
C1870 C 0.99956 0.04844 0.76809 0.0
C1871 C 1.00048 0.04796 0.84102 0.0
C1872 C 0.99425 0.04723 0.88165 0.0
C1873 C 0.01279 0.0486 0.76579 0.0
C1874 C 0.01998 0.04796 0.80153 0.0
C1875 C 0.01373 0.04805 0.83871 0.0
C1876 C 0.03387 0.04607 0.80082 0.0
C1877 C 0.01894 0.04932 0.72503 0.0
C1878 C 0.03893 0.0353 0.78243 0.0
C1879 C 0.0519 0.03304 0.78309 0.0
C1880 C 0.06018 0.04145 0.80243 0.0
C1881 C 0.0551 0.0523 0.82069 0.0
C1882 C 0.04205 0.05454 0.82009 0.0
H1883 H 0.01261 0.05386 0.70267 0.0
H1884 H 0.02793 0.05468 0.72624 0.0
H1885 H 0.02101 0.03963 0.71435 0.0
H1886 H 0.0328 0.02848 0.76816 0.0
H1887 H 0.05541 0.02457 0.76878 0.0
H1888 H 0.77888 0.7078 0.00947 0.0
H1889 H 0.78392 0.73017 0.00687 0.0
H1890 H 0.81695 0.72374 0.07947 0.0
H1891 H 0.8119 0.70119 0.0827 0.0
H1892 H 0.80203 0.74355 0.10682 0.0
H1893 H 0.81103 0.74898 0.94435 0.0
H1894 H 0.79635 0.74117 0.95409 0.0
H1895 H 0.81092 0.73379 0.96891 0.0
C1896 C 0.7873 0.71106 0.02464 0.0
C1897 C 0.79497 0.70263 0.04634 0.0
C1898 C 0.79022 0.72388 0.02282 0.0
C1899 C 0.80093 0.72862 0.04238 0.0
C1900 C 0.8087 0.72027 0.06383 0.0
H1901 H 0.81385 0.81045 0.08057 0.0
H1902 H 0.81869 0.78783 0.07705 0.0
C1903 C 0.8058 0.70738 0.0656 0.0
C1904 C 0.80337 0.74243 0.04248 0.0
H1905 H 0.80543 0.76794 0.98017 0.0
C1906 C 0.80305 0.74889 0.07924 0.0
C1907 C 0.80477 0.74937 0.00647 0.0
C1908 C 0.80592 0.74295 0.96626 0.0
C1909 C 0.80318 0.76214 0.08073 0.0
C1910 C 0.80384 0.7691 0.04449 0.0
C1911 C 0.80487 0.76261 0.00792 0.0
C1912 C 0.80191 0.78298 0.04351 0.0
C1913 C 0.80181 0.76859 0.12085 0.0
C1914 C 0.79117 0.78783 0.0244 0.0
C1915 C 0.78843 0.80068 0.02612 0.0
C1916 C 0.79638 0.80905 0.04695 0.0
C1917 C 0.80749 0.80428 0.06441 0.0
C1918 C 0.81023 0.79134 0.06271 0.0
H1919 H 0.79937 0.76185 0.1452 0.0
H1920 H 0.81084 0.77322 0.12885 0.0
H1921 H 0.79441 0.77599 0.11944 0.0
H1922 H 0.78465 0.78158 0.00924 0.0
H1923 H 0.77985 0.804 0.01197 0.0
H1924 H 0.69892 0.20432 0.58716 0.0
H1925 H 0.69409 0.22695 0.5838 0.0
H1926 H 0.72478 0.23232 0.50065 0.0
H1927 H 0.72958 0.20989 0.50351 0.0
H1928 H 0.71064 0.24613 0.60611 0.0
H1929 H 0.69655 0.25233 0.44767 0.0
H1930 H 0.69682 0.23709 0.47192 0.0
H1931 H 0.71111 0.24385 0.45222 0.0
C1932 C 0.70446 0.21028 0.5675 0.0
C1933 C 0.71466 0.20527 0.54566 0.0
C1934 C 0.70171 0.22322 0.56573 0.0
C1935 C 0.70897 0.23132 0.54158 0.0
C1936 C 0.71887 0.22624 0.51884 0.0
H1937 H 0.73178 0.30643 0.50662 0.0
H1938 H 0.72672 0.28401 0.50568 0.0
C1939 C 0.72167 0.21339 0.52078 0.0
C1940 C 0.7071 0.24521 0.54258 0.0
H1941 H 0.70428 0.27095 0.48144 0.0
C1942 C 0.70895 0.25157 0.57905 0.0
C1943 C 0.70489 0.2523 0.50726 0.0
C1944 C 0.7021 0.24603 0.46764 0.0
C1945 C 0.70952 0.26482 0.58065 0.0
C1946 C 0.70801 0.27188 0.54488 0.0
C1947 C 0.7055 0.26553 0.5088 0.0
C1948 C 0.71027 0.2857 0.54363 0.0
C1949 C 0.71247 0.27113 0.62012 0.0
C1950 C 0.70252 0.29418 0.56456 0.0
C1951 C 0.70538 0.3071 0.56516 0.0
C1952 C 0.71607 0.31175 0.54489 0.0
C1953 C 0.72353 0.30323 0.52285 0.0
C1954 C 0.72064 0.29038 0.52215 0.0
H1955 H 0.71532 0.26424 0.64357 0.0
H1956 H 0.72016 0.27814 0.6163 0.0
H1957 H 0.70399 0.27622 0.63093 0.0
H1958 H 0.69436 0.2908 0.58088 0.0
H1959 H 0.6994 0.31337 0.58235 0.0
H1960 H 0.81119 0.30928 0.08659 0.0
H1961 H 0.815 0.28643 0.0892 0.0
H1962 H 0.77708 0.28055 0.13178 0.0
H1963 H 0.77321 0.30312 0.12971 0.0
H1964 H 0.79586 0.26739 0.17601 0.0
H1965 H 0.80029 0.25968 0.0112 0.0
H1966 H 0.81018 0.27153 0.0336 0.0
H1967 H 0.79344 0.27386 0.03173 0.0
C1968 C 0.80367 0.30312 0.0965 0.0
C1969 C 0.79187 0.3081 0.10777 0.0
C1970 C 0.80585 0.29006 0.09778 0.0
C1971 C 0.79627 0.28178 0.11032 0.0
C1972 C 0.78459 0.28675 0.12195 0.0
H1973 H 0.77335 0.20591 0.14132 0.0
H1974 H 0.77707 0.22857 0.14143 0.0
C1975 C 0.7824 0.29971 0.12063 0.0
C1976 C 0.79819 0.2679 0.11184 0.0
H1977 H 0.80048 0.24172 0.05253 0.0
C1978 C 0.79703 0.26178 0.14905 0.0
C1979 C 0.79981 0.26059 0.0767 0.0
C1980 C 0.80094 0.26667 0.03591 0.0
C1981 C 0.79701 0.24857 0.15195 0.0
C1982 C 0.7979 0.24125 0.11659 0.0
C1983 C 0.79972 0.24734 0.07958 0.0
C1984 C 0.79595 0.22736 0.11711 0.0
C1985 C 0.79585 0.24259 0.19289 0.0
C1986 C 0.80521 0.21909 0.10251 0.0
C1987 C 0.80309 0.20604 0.10218 0.0
C1988 C 0.7916 0.20101 0.11611 0.0
C1989 C 0.78234 0.20937 0.13056 0.0
C1990 C 0.78448 0.22237 0.1309 0.0
H1991 H 0.79934 0.24899 0.21681 0.0
H1992 H 0.78577 0.24058 0.19913 0.0
H1993 H 0.80117 0.23358 0.19451 0.0
H1994 H 0.8141 0.22274 0.09142 0.0
H1995 H 0.81042 0.19991 0.09068 0.0
H1996 H 0.73927 0.707 0.64724 0.0
H1997 H 0.73663 0.72981 0.64512 0.0
H1998 H 0.70081 0.72535 0.58568 0.0
H1999 H 0.7033 0.70236 0.58788 0.0
H2000 H 0.73399 0.74428 0.57452 0.0
H2001 H 0.69299 0.75067 0.67679 0.0
H2002 H 0.70226 0.73639 0.67621 0.0
H2003 H 0.69114 0.73944 0.6368 0.0
C2004 C 0.73075 0.71079 0.63396 0.0
C2005 C 0.72151 0.70276 0.61763 0.0
C2006 C 0.72927 0.72388 0.63279 0.0
C2007 C 0.7185 0.72931 0.61551 0.0
C2008 C 0.70912 0.72137 0.59973 0.0
H2009 H 0.70338 0.81074 0.58592 0.0
H2010 H 0.70114 0.7877 0.58369 0.0
C2011 C 0.71059 0.70822 0.60086 0.0
C2012 C 0.71757 0.74327 0.61235 0.0
H2013 H 0.70151 0.76902 0.64715 0.0
C2014 C 0.72684 0.74967 0.59024 0.0
C2015 C 0.70816 0.75031 0.63251 0.0
C2016 C 0.69809 0.74391 0.65719 0.0
C2017 C 0.72714 0.7629 0.58843 0.0
C2018 C 0.71807 0.76996 0.60994 0.0
C2019 C 0.70849 0.76358 0.63085 0.0
C2020 C 0.71894 0.78393 0.61299 0.0
C2021 C 0.73724 0.7692 0.56359 0.0
C2022 C 0.72952 0.78945 0.63108 0.0
C2023 C 0.73084 0.80254 0.63242 0.0
C2024 C 0.72156 0.8105 0.61583 0.0
C2025 C 0.71074 0.80494 0.59884 0.0
C2026 C 0.70943 0.79177 0.59755 0.0
H2027 H 0.74103 0.76275 0.54026 0.0
H2028 H 0.73357 0.77782 0.54869 0.0
H2029 H 0.74517 0.77198 0.58344 0.0
H2030 H 0.73686 0.78359 0.64392 0.0
H2031 H 0.73925 0.80641 0.64613 0.0
H2032 H 0.55603 0.48882 0.90226 0.0
H2033 H 0.53342 0.48481 0.90124 0.0
H2034 H 0.53983 0.44891 0.84428 0.0
H2035 H 0.56264 0.4528 0.84518 0.0
H2036 H 0.51932 0.48025 0.82836 0.0
H2037 H 0.51496 0.44113 0.9393 0.0
H2038 H 0.52843 0.45156 0.93845 0.0
H2039 H 0.52672 0.43969 0.90059 0.0
C2040 C 0.55272 0.48 0.88978 0.0
C2041 C 0.56123 0.47116 0.87364 0.0
C2042 C 0.53976 0.47773 0.88926 0.0
C2043 C 0.53495 0.46654 0.8729 0.0
C2044 C 0.54336 0.45754 0.8575 0.0
H2045 H 0.45347 0.45169 0.83951 0.0
H2046 H 0.47644 0.44854 0.83841 0.0
C2047 C 0.55639 0.45981 0.85791 0.0
C2048 C 0.52109 0.46483 0.87005 0.0
H2049 H 0.49614 0.44881 0.91048 0.0
C2050 C 0.51427 0.47328 0.84597 0.0
C2051 C 0.51453 0.45568 0.89286 0.0
C2052 C 0.52146 0.4465 0.9195 0.0
C2053 C 0.50105 0.47309 0.84503 0.0
C2054 C 0.49446 0.46433 0.8692 0.0
C2055 C 0.50125 0.45551 0.89204 0.0
C2056 C 0.48059 0.46514 0.87363 0.0
C2057 C 0.49417 0.48247 0.81894 0.0
C2058 C 0.47536 0.47528 0.89477 0.0
C2059 C 0.46234 0.47711 0.89551 0.0
C2060 C 0.4542 0.46882 0.87506 0.0
C2061 C 0.45944 0.45827 0.85553 0.0
C2062 C 0.47255 0.45644 0.85484 0.0
H2063 H 0.50046 0.48669 0.79589 0.0
H2064 H 0.48605 0.47792 0.80365 0.0
H2065 H 0.49044 0.49019 0.83801 0.0
H2066 H 0.48142 0.48204 0.9097 0.0
H2067 H 0.45869 0.48527 0.91121 0.0
H2068 H 0.9571 0.52774 0.40572 0.0
H2069 H 0.97964 0.53204 0.40524 0.0
H2070 H 0.973 0.56732 0.34448 0.0
H2071 H 0.95023 0.56314 0.34492 0.0
H2072 H 0.99387 0.53575 0.33322 0.0
H2073 H 0.99769 0.57649 0.43797 0.0
H2074 H 0.98419 0.5661 0.43793 0.0
H2075 H 0.98616 0.57742 0.39841 0.0
C2076 C 0.96034 0.53649 0.39253 0.0
C2077 C 0.95178 0.54506 0.37517 0.0
C2078 C 0.97327 0.53893 0.39233 0.0
C2079 C 0.97801 0.55001 0.37501 0.0
C2080 C 0.96954 0.55878 0.35849 0.0
H2081 H 0.0596 0.56369 0.3389 0.0
H2082 H 0.03668 0.56723 0.33788 0.0
C2083 C 0.95652 0.55634 0.35865 0.0
C2084 C 0.99188 0.55179 0.37226 0.0
H2085 H 0.01665 0.56849 0.41099 0.0
C2086 C 0.99883 0.543 0.34985 0.0
C2087 C 0.99833 0.5613 0.3938 0.0
C2088 C 0.99128 0.57086 0.41863 0.0
C2089 C 0.01205 0.54321 0.34945 0.0
C2090 C 0.01852 0.55235 0.3724 0.0
C2091 C 0.01162 0.56149 0.39348 0.0
C2092 C 0.03239 0.55163 0.37742 0.0
C2093 C 0.01906 0.53342 0.32535 0.0
C2094 C 0.03754 0.54197 0.40101 0.0
C2095 C 0.05053 0.53993 0.40169 0.0
C2096 C 0.05871 0.54751 0.37873 0.0
C2097 C 0.05359 0.55769 0.35697 0.0
C2098 C 0.0405 0.55972 0.35629 0.0
H2099 H 0.01284 0.5287 0.30311 0.0
H2100 H 0.02714 0.53775 0.30927 0.0
H2101 H 0.02285 0.52612 0.34596 0.0
H2102 H 0.03142 0.53568 0.41769 0.0
H2103 H 0.05411 0.53207 0.4191 0.0
H2104 H 0.95851 0.48674 0.78512 0.0
H2105 H 0.98104 0.48257 0.7825 0.0
H2106 H 0.97523 0.44635 0.83831 0.0
H2107 H 0.95245 0.45048 0.84147 0.0
H2108 H 0.99498 0.46067 0.87296 0.0
H2109 H 1.00015 0.45867 0.70795 0.0
H2110 H 0.99189 0.47253 0.72414 0.0
H2111 H 0.98506 0.45721 0.73263 0.0
C2112 C 0.96193 0.47782 0.79666 0.0
C2113 C 0.95358 0.46893 0.81345 0.0
C2114 C 0.97486 0.47542 0.79487 0.0
C2115 C 0.97982 0.46406 0.80957 0.0
C2116 C 0.97158 0.45514 0.82646 0.0
H2117 H 0.06204 0.4499 0.8352 0.0
H2118 H 0.03925 0.44581 0.83457 0.0
C2119 C 0.95856 0.45751 0.82816 0.0
C2120 C 0.99369 0.46195 0.80863 0.0
H2121 H 0.01905 0.463 0.7455 0.0
C2122 C 1.00026 0.46091 0.84509 0.0
C2123 C 1.00056 0.46221 0.77223 0.0
C2124 C 0.99405 0.46258 0.732 0.0
C2125 C 0.01353 0.46099 0.84623 0.0
C2126 C 0.02039 0.46196 0.80989 0.0
C2127 C 0.0138 0.46233 0.77337 0.0
C2128 C 0.03428 0.46394 0.80922 0.0
C2129 C 0.02011 0.46076 0.88638 0.0
C2130 C 0.03909 0.47532 0.7942 0.0
C2131 C 0.05204 0.47766 0.79434 0.0
C2132 C 0.06058 0.46864 0.80935 0.0
C2133 C 0.05577 0.45708 0.82352 0.0
C2134 C 0.04273 0.45475 0.82344 0.0
H2135 H 0.01342 0.46205 0.91173 0.0
H2136 H 0.02491 0.45155 0.89032 0.0
H2137 H 0.02738 0.46827 0.88788 0.0
H2138 H 0.03276 0.48253 0.78296 0.0
H2139 H 0.05533 0.48665 0.78298 0.0
H2140 H 0.45155 0.56184 0.33344 0.0
H2141 H 0.47447 0.56511 0.33063 0.0
H2142 H 0.47949 0.52675 0.29111 0.0
H2143 H 0.45684 0.52342 0.29332 0.0
H2144 H 0.49377 0.55185 0.37194 0.0
H2145 H 0.49937 0.54682 0.20765 0.0
H2146 H 0.48425 0.54961 0.23098 0.0
H2147 H 0.49079 0.53396 0.22957 0.0
C2148 C 0.45753 0.55413 0.32388 0.0
C2149 C 0.45227 0.54238 0.31341 0.0
C2150 C 0.47063 0.55601 0.32236 0.0
C2151 C 0.47869 0.54624 0.30998 0.0
C2152 C 0.47346 0.53452 0.29985 0.0
H2153 H 0.555 0.52348 0.28907 0.0
H2154 H 0.53228 0.52682 0.28942 0.0
C2155 C 0.46045 0.53263 0.30138 0.0
C2156 C 0.49261 0.54795 0.30869 0.0
H2157 H 0.51809 0.5441 0.24718 0.0
C2158 C 0.49911 0.55038 0.34457 0.0
C2159 C 0.49956 0.54608 0.27293 0.0
C2160 C 0.49313 0.5441 0.23302 0.0
C2161 C 0.51238 0.55022 0.3461 0.0
C2162 C 0.51932 0.54775 0.31062 0.0
C2163 C 0.51279 0.5459 0.27444 0.0
C2164 C 0.53326 0.54605 0.31075 0.0
C2165 C 0.51884 0.55204 0.38602 0.0
C2166 C 0.54145 0.5558 0.3223 0.0
C2167 C 0.55455 0.55391 0.32234 0.0
C2168 C 0.55971 0.54225 0.31048 0.0
C2169 C 0.55143 0.53259 0.29842 0.0
C2170 C 0.5384 0.53448 0.29855 0.0
H2171 H 0.51214 0.55126 0.41155 0.0
H2172 H 0.52647 0.545 0.3902 0.0
H2173 H 0.52315 0.56157 0.38695 0.0
H2174 H 0.53774 0.56491 0.33104 0.0
H2175 H 0.56062 0.56159 0.33154 0.0
H2176 H 0.21017 0.16286 0.23444 0.0
H2177 H 0.22316 0.16399 0.29584 0.0
H2178 H 0.25462 0.14806 0.23151 0.0
H2179 H 0.2419 0.14688 0.17093 0.0
H2180 H 0.2382 0.14358 0.33642 0.0
H2181 H 0.26756 0.18266 0.2761 0.0
H2182 H 0.25218 0.17885 0.25613 0.0
H2183 H 0.26561 0.16936 0.24329 0.0
C2184 C 0.21978 0.15942 0.23378 0.0
C2185 C 0.22506 0.15489 0.19792 0.0
C2186 C 0.2272 0.16013 0.26863 0.0
C2187 C 0.23992 0.15637 0.26775 0.0
C2188 C 0.24493 0.15126 0.23253 0.0
H2189 H 0.30257 0.15604 0.44047 0.0
H2190 H 0.29013 0.15482 0.37789 0.0
C2191 C 0.23759 0.15055 0.19801 0.0
C2192 C 0.24819 0.15781 0.30319 0.0
H2193 H 0.27461 0.17303 0.33638 0.0
C2194 C 0.2461 0.15007 0.3366 0.0
C2195 C 0.25861 0.16615 0.30289 0.0
C2196 C 0.26112 0.17482 0.26784 0.0
C2197 C 0.25425 0.15037 0.36975 0.0
C2198 C 0.26459 0.15883 0.36975 0.0
C2199 C 0.26673 0.16651 0.33617 0.0
C2200 C 0.27259 0.16051 0.4058 0.0
C2201 C 0.2518 0.14149 0.40432 0.0
C2202 C 0.26697 0.16461 0.44141 0.0
C2203 C 0.27394 0.1652 0.47665 0.0
C2204 C 0.28679 0.16193 0.47717 0.0
C2205 C 0.29269 0.15859 0.44095 0.0
C2206 C 0.28559 0.15786 0.40536 0.0
H2207 H 0.24613 0.13321 0.39478 0.0
H2208 H 0.26077 0.13807 0.41769 0.0
H2209 H 0.24641 0.14653 0.42791 0.0
H2210 H 0.25706 0.16708 0.44218 0.0
H2211 H 0.26909 0.16803 0.50364 0.0
H2212 H 0.12108 0.98163 0.44362 0.0
H2213 H 0.11918 0.99452 0.5039 0.0
H2214 H 0.08375 0.97652 0.53173 0.0
H2215 H 0.08592 0.96319 0.47162 0.0
H2216 H 0.10088 0.01159 0.51618 0.0
H2217 H 0.10087 0.97647 0.64022 0.0
H2218 H 0.1056 0.97246 0.58982 0.0
H2219 H 0.08917 0.97399 0.60206 0.0
C2220 C 0.1131 0.98014 0.46338 0.0
C2221 C 0.10376 0.9713 0.45355 0.0
C2222 C 0.11195 0.98759 0.49756 0.0
C2223 C 0.10132 0.98653 0.5224 0.0
C2224 C 0.09214 0.97736 0.51344 0.0
H2225 H 0.08744 0.04757 0.69939 0.0
H2226 H 0.08528 0.03441 0.63888 0.0
C2227 C 0.09341 0.9697 0.4793 0.0
C2228 C 0.09975 0.9956 0.556 0.0
H2229 H 0.09826 0.99778 0.65804 0.0
C2230 C 0.10024 0.00858 0.54724 0.0
C2231 C 0.09887 0.99167 0.59644 0.0
C2232 C 0.09869 0.9779 0.60792 0.0
C2233 C 0.10043 0.01769 0.5778 0.0
C2234 C 0.09981 0.01374 0.61827 0.0
C2235 C 0.09875 1.0008 0.62696 0.0
C2236 C 0.10146 0.02264 0.65231 0.0
C2237 C 0.10194 0.0314 0.56654 0.0
C2238 C 0.1113 0.02052 0.67958 0.0
C2239 C 0.11243 0.02788 0.71396 0.0
C2240 C 0.10385 0.03766 0.72165 0.0
C2241 C 0.09433 0.04027 0.69354 0.0
C2242 C 0.09308 0.03272 0.65915 0.0
H2243 H 0.10501 0.03257 0.53488 0.0
H2244 H 0.09276 0.03628 0.57017 0.0
H2245 H 0.10892 0.0361 0.58636 0.0
H2246 H 0.11793 0.01288 0.67488 0.0
H2247 H 0.11978 0.02564 0.7354 0.0
H2248 H 0.23128 0.87147 0.97561 0.0
H2249 H 0.24425 0.8698 0.91533 0.0
H2250 H 0.22826 0.83319 0.89083 0.0
H2251 H 0.21484 0.83512 0.95081 0.0
H2252 H 0.2623 0.85239 0.90489 0.0
H2253 H 0.22745 0.84917 0.78069 0.0
H2254 H 0.2231 0.85415 0.83056 0.0
H2255 H 0.22552 0.83771 0.81995 0.0
C2256 C 0.23021 0.86327 0.95649 0.0
C2257 C 0.22192 0.85354 0.96718 0.0
C2258 C 0.23772 0.86226 0.92234 0.0
C2259 C 0.23726 0.85138 0.89847 0.0
C2260 C 0.22862 0.84178 0.9083 0.0
H2261 H 0.29912 0.8384 0.72346 0.0
H2262 H 0.28595 0.83625 0.78403 0.0
C2263 C 0.2209 0.8429 0.94236 0.0
C2264 C 0.24646 0.84996 0.86511 0.0
H2265 H 0.2489 0.84732 0.76337 0.0
C2266 C 0.25938 0.85122 0.87392 0.0
C2267 C 0.24265 0.84839 0.82478 0.0
C2268 C 0.22893 0.84738 0.81321 0.0
C2269 C 0.26853 0.85147 0.84343 0.0
C2270 C 0.26469 0.85013 0.80305 0.0
C2271 C 0.25183 0.84834 0.79439 0.0
C2272 C 0.27356 0.85181 0.76893 0.0
C2273 C 0.28212 0.85379 0.85455 0.0
C2274 C 0.27109 0.86132 0.74075 0.0
C2275 C 0.27848 0.86245 0.70641 0.0
C2276 C 0.28859 0.85419 0.69956 0.0
C2277 C 0.29153 0.84503 0.72855 0.0
C2278 C 0.28397 0.84378 0.76299 0.0
H2279 H 0.28311 0.85721 0.88591 0.0
H2280 H 0.28748 0.84485 0.85177 0.0
H2281 H 0.28647 0.86082 0.83406 0.0
H2282 H 0.26319 0.86767 0.74478 0.0
H2283 H 0.27599 0.86955 0.68437 0.0
H2284 H 0.39267 0.02507 0.93264 0.0
H2285 H 0.39436 0.01224 0.99317 0.0
H2286 H 0.42501 0.0356 0.03471 0.0
H2287 H 0.42298 0.04883 0.97422 0.0
H2288 H 0.41447 0.99826 0.01351 0.0
H2289 H 0.40388 0.03247 0.13529 0.0
H2290 H 0.40065 0.03586 0.08322 0.0
H2291 H 0.41648 0.03694 0.10216 0.0
C2292 C 0.39954 0.02768 0.95524 0.0
C2293 C 0.40759 0.03801 0.94915 0.0
C2294 C 0.40058 0.02028 0.98965 0.0
C2295 C 0.40981 0.02292 0.01857 0.0
C2296 C 0.41766 0.0335 0.01319 0.0
H2297 H 0.4279 0.9656 0.20356 0.0
H2298 H 0.42951 0.97883 0.14296 0.0
C2299 C 0.41648 0.04108 0.97879 0.0
C2300 C 0.41144 0.01408 0.05288 0.0
H2301 H 0.40924 0.0118 0.15482 0.0
C2302 C 0.4134 1.00123 0.04447 0.0
C2303 C 0.41004 0.01796 0.09322 0.0
C2304 C 0.40754 0.03154 0.10419 0.0
C2305 C 0.41356 0.99211 0.07509 0.0
C2306 C 0.41196 0.99597 0.11533 0.0
C2307 C 0.41045 0.00886 0.12389 0.0
C2308 C 0.41078 0.9868 0.14886 0.0
C2309 C 0.41484 0.97837 0.06399 0.0
C2310 C 0.39971 0.98673 0.17185 0.0
C2311 C 0.39885 0.9793 0.20628 0.0
C2312 C 0.40896 0.97164 0.21814 0.0
C2313 C 0.41984 0.97115 0.1942 0.0
C2314 C 0.42078 0.97877 0.15981 0.0
H2315 H 0.41357 0.9768 0.03128 0.0
H2316 H 0.42438 0.975 0.07244 0.0
H2317 H 0.40782 0.97258 0.08048 0.0
H2318 H 0.39186 0.99279 0.16394 0.0
H2319 H 0.39045 0.97995 0.22469 0.0
H2320 H 0.76589 0.85517 0.01495 0.0
H2321 H 0.75264 0.85407 0.9559 0.0
H2322 H 0.78567 0.85151 0.88075 0.0
H2323 H 0.79921 0.85216 0.94081 0.0
H2324 H 0.75082 0.86968 0.894 0.0
H2325 H 0.76478 0.82215 0.84018 0.0
H2326 H 0.76913 0.82799 0.88913 0.0
H2327 H 0.77772 0.83294 0.84533 0.0
C2328 C 0.77043 0.85429 0.98598 0.0
C2329 C 0.78365 0.85364 0.98264 0.0
C2330 C 0.76279 0.8537 0.95214 0.0
C2331 C 0.76811 0.85251 0.91391 0.0
C2332 C 0.78133 0.85213 0.9101 0.0
H2333 H 0.7402 0.86171 0.67946 0.0
H2334 H 0.75113 0.86058 0.74326 0.0
C2335 C 0.78907 0.85263 0.94431 0.0
C2336 C 0.75962 0.85201 0.87849 0.0
H2337 H 0.75143 0.8342 0.79717 0.0
C2338 C 0.75088 0.86185 0.87309 0.0
C2339 C 0.75958 0.84172 0.85147 0.0
C2340 C 0.76821 0.83053 0.85692 0.0
C2341 C 0.74238 0.86183 0.84082 0.0
C2342 C 0.74264 0.85177 0.81324 0.0
C2343 C 0.75119 0.84182 0.81882 0.0
C2344 C 0.73545 0.85239 0.77534 0.0
C2345 C 0.73343 0.87275 0.83544 0.0
C2346 C 0.72289 0.84824 0.77247 0.0
C2347 C 0.71649 0.84884 0.73553 0.0
C2348 C 0.72266 0.85358 0.70135 0.0
C2349 C 0.73516 0.85791 0.70503 0.0
C2350 C 0.74147 0.85728 0.74149 0.0
H2351 H 0.73397 0.87959 0.86061 0.0
H2352 H 0.73564 0.87775 0.807 0.0
H2353 H 0.72361 0.8692 0.83312 0.0
H2354 H 0.71811 0.84447 0.79859 0.0
H2355 H 0.70689 0.84541 0.73354 0.0
H2356 H 0.91349 0.05347 0.68499 0.0
H2357 H 0.9131 0.04116 0.62202 0.0
H2358 H 0.90609 0.00722 0.68983 0.0
H2359 H 0.90603 0.01918 0.75135 0.0
H2360 H 0.92799 0.02025 0.59827 0.0
H2361 H 0.87773 0.00658 0.60867 0.0
H2362 H 0.8844 0.01912 0.6385 0.0
H2363 H 0.88622 1.00292 0.65372 0.0
C2364 C 0.91179 0.04341 0.6862 0.0
C2365 C 0.90973 0.03735 0.72316 0.0
C2366 C 0.91159 0.0364 0.65038 0.0
C2367 C 0.90929 0.02332 0.65131 0.0
C2368 C 0.90754 0.01733 0.68825 0.0
H2369 H 0.91226 0.96049 0.48025 0.0
H2370 H 0.91281 0.97314 0.54252 0.0
C2371 C 0.90763 0.02424 0.72357 0.0
C2372 C 0.90887 0.01561 0.61429 0.0
H2373 H 0.89055 0.99424 0.56438 0.0
C2374 C 0.91977 0.01466 0.59062 0.0
C2375 C 0.89814 0.00827 0.60447 0.0
C2376 C 0.88592 0.00936 0.62746 0.0
C2377 C 0.92029 0.00633 0.55788 0.0
C2378 C 0.90969 0.99879 0.54888 0.0
C2379 C 0.89875 0.99984 0.57213 0.0
C2380 C 0.90927 0.9909 0.51248 0.0
C2381 C 0.93214 1.00561 0.53295 0.0
C2382 C 0.90683 0.99672 0.4757 0.0
C2383 C 0.9064 0.98961 0.44072 0.0
C2384 C 0.90845 0.97649 0.44162 0.0
C2385 C 0.91064 0.97056 0.4787 0.0
C2386 C 0.91101 0.97776 0.51409 0.0
H2387 H 0.9401 0.0108 0.54691 0.0
H2388 H 0.93494 0.99561 0.52853 0.0
H2389 H 0.93029 0.00973 0.50287 0.0
H2390 H 0.90532 0.00681 0.47403 0.0
H2391 H 0.90456 0.99451 0.41277 0.0
H2392 H 0.77253 0.14594 0.17763 0.0
H2393 H 0.76029 0.1469 0.23904 0.0
H2394 H 0.78945 0.16912 0.29497 0.0
H2395 H 0.80189 0.16834 0.23231 0.0
H2396 H 0.76627 0.13874 0.31544 0.0
H2397 H 0.75688 0.19036 0.31065 0.0
H2398 H 0.76291 0.18179 0.26794 0.0
H2399 H 0.77317 0.18563 0.30899 0.0
C2400 C 0.77644 0.15099 0.20298 0.0
C2401 C 0.78817 0.15712 0.20011 0.0
C2402 C 0.7694 0.15152 0.23811 0.0
C2403 C 0.77385 0.15823 0.27135 0.0
C2404 C 0.78576 0.16407 0.26932 0.0
H2405 H 0.74356 0.15409 0.50893 0.0
H2406 H 0.75605 0.15371 0.44791 0.0
C2407 C 0.79291 0.1635 0.23381 0.0
C2408 C 0.76579 0.15889 0.30766 0.0
H2409 H 0.74807 0.17894 0.36487 0.0
C2410 C 0.76234 0.14753 0.32633 0.0
C2411 C 0.76045 0.17035 0.32122 0.0
C2412 C 0.76342 0.18275 0.30109 0.0
C2413 C 0.75378 0.14733 0.3584 0.0
C2414 C 0.74865 0.15879 0.37252 0.0
C2415 C 0.75199 0.17016 0.35374 0.0
C2416 C 0.74069 0.15916 0.40898 0.0
C2417 C 0.75022 0.13482 0.37685 0.0
C2418 C 0.72784 0.16245 0.40735 0.0
C2419 C 0.72054 0.16264 0.44258 0.0
C2420 C 0.7261 0.1597 0.47971 0.0
C2421 C 0.73896 0.15641 0.48085 0.0
C2422 C 0.74614 0.15616 0.44597 0.0
H2423 H 0.75246 0.12681 0.35659 0.0
H2424 H 0.75559 0.13349 0.40514 0.0
H2425 H 0.74001 0.13455 0.38421 0.0
H2426 H 0.72349 0.16482 0.37891 0.0
H2427 H 0.7107 0.1653 0.44089 0.0
H2428 H 0.60291 0.95896 0.18481 0.0
H2429 H 0.60353 0.97139 0.12207 0.0
H2430 H 0.59879 1.00559 0.1903 0.0
H2431 H 0.59867 0.99359 0.25178 0.0
H2432 H 0.58645 0.98876 0.08745 0.0
H2433 H 0.63089 0.01284 0.12891 0.0
H2434 H 0.62528 0.999 0.15493 0.0
H2435 H 0.61904 0.01433 0.16698 0.0
C2436 C 0.60196 0.96912 0.18619 0.0
C2437 C 0.60089 0.97526 0.22339 0.0
C2438 C 0.60233 0.9762 0.15047 0.0
C2439 C 0.60157 0.98945 0.15174 0.0
C2440 C 0.59981 0.99543 0.18867 0.0
H2441 H 0.59918 0.05193 0.97963 0.0
H2442 H 0.59826 0.03908 0.04144 0.0
C2443 C 0.59964 0.98847 0.22397 0.0
C2444 C 0.60268 0.9973 0.11504 0.0
H2445 H 0.61905 0.02216 0.07551 0.0
C2446 C 0.59364 0.99597 0.08462 0.0
C2447 C 0.61205 0.00677 0.11152 0.0
C2448 C 0.62244 0.00825 0.14215 0.0
C2449 C 0.59356 1.00406 0.05121 0.0
C2450 C 0.60278 0.01366 0.04818 0.0
C2451 C 0.61187 0.01493 0.07836 0.0
C2452 C 0.60379 0.02172 0.0121 0.0
C2453 C 0.58355 1.0024 0.0195 0.0
C2454 C 0.60759 0.01628 0.9759 0.0
C2455 C 0.60821 0.02352 0.94116 0.0
C2456 C 0.60504 0.03641 0.94173 0.0
C2457 C 0.60169 0.04204 0.97836 0.0
C2458 C 0.6011 0.03471 0.01348 0.0
H2459 H 0.57556 0.99654 0.0304 0.0
H2460 H 0.57984 0.01169 0.00953 0.0
H2461 H 0.58774 0.99765 0.993 0.0
H2462 H 0.60995 0.00634 0.97443 0.0
H2463 H 0.61098 0.01891 0.91353 0.0
H2464 H 0.79551 0.67799 0.95815 0.0
H2465 H 0.78152 0.68045 0.8997 0.0
H2466 H 0.76774 0.64257 0.91747 0.0
H2467 H 0.78121 0.64038 0.97661 0.0
H2468 H 0.77799 0.66913 0.8295 0.0
H2469 H 0.73531 0.66181 0.92139 0.0
H2470 H 0.75072 0.66385 0.94342 0.0
H2471 H 0.74574 0.64858 0.92569 0.0
C2472 C 0.78974 0.6701 0.94868 0.0
C2473 C 0.78949 0.65894 0.97132 0.0
C2474 C 0.78165 0.67155 0.91568 0.0
C2475 C 0.77325 0.66184 0.905 0.0
C2476 C 0.77377 0.65036 0.92596 0.0
H2477 H 0.73746 0.64574 0.68534 0.0
H2478 H 0.75004 0.64786 0.74601 0.0
C2479 C 0.78164 0.64901 0.95922 0.0
C2480 C 0.76383 0.66363 0.87241 0.0
H2481 H 0.73267 0.65931 0.84979 0.0
C2482 C 0.76807 0.66715 0.83412 0.0
C2483 C 0.75077 0.66146 0.87854 0.0
C2484 C 0.74536 0.65887 0.91962 0.0
C2485 C 0.75976 0.66771 0.80136 0.0
C2486 C 0.74694 0.66434 0.80678 0.0
C2487 C 0.74253 0.66165 0.8455 0.0
C2488 C 0.73838 0.66245 0.77205 0.0
C2489 C 0.76484 0.67175 0.76104 0.0
C2490 C 0.72714 0.66938 0.76767 0.0
C2491 C 0.71972 0.66801 0.73294 0.0
C2492 C 0.72353 0.6597 0.70244 0.0
C2493 C 0.73437 0.65231 0.7082 0.0
C2494 C 0.74164 0.65359 0.7427 0.0
H2495 H 0.77321 0.67797 0.76444 0.0
H2496 H 0.76784 0.66328 0.74399 0.0
H2497 H 0.75758 0.67682 0.74323 0.0
H2498 H 0.72436 0.67615 0.79032 0.0
H2499 H 0.71145 0.67387 0.72906 0.0
H2500 H 0.58458 0.54962 0.20443 0.0
H2501 H 0.58216 0.53614 0.14459 0.0
H2502 H 0.61722 0.51753 0.17304 0.0
H2503 H 0.61942 0.5306 0.23281 0.0
H2504 H 0.59613 0.53114 0.07734 0.0
H2505 H 0.5931 0.48808 0.16994 0.0
H2506 H 0.5921 0.50369 0.19125 0.0
H2507 H 0.60724 0.49665 0.18102 0.0
C2508 C 0.59188 0.54286 0.19713 0.0
C2509 C 0.60219 0.54112 0.22297 0.0
C2510 C 0.59044 0.53508 0.16331 0.0
C2511 C 0.5993 0.52553 0.15516 0.0
C2512 C 0.61005 0.52451 0.17947 0.0
H2513 H 0.61996 0.48782 0.94205 0.0
H2514 H 0.61701 0.50077 0.00171 0.0
C2515 C 0.61139 0.53211 0.21327 0.0
C2516 C 0.59748 0.51644 0.12175 0.0
H2517 H 0.59884 0.48494 0.10035 0.0
C2518 C 0.59652 0.52104 0.08241 0.0
C2519 C 0.59759 0.50323 0.12832 0.0
C2520 C 0.59741 0.49763 0.16998 0.0
C2521 C 0.59658 0.51281 0.0494 0.0
C2522 C 0.59802 0.49966 0.05589 0.0
C2523 C 0.59804 0.49502 0.09529 0.0
C2524 C 0.60041 0.49079 0.02224 0.0
C2525 C 0.59527 0.51832 0.00783 0.0
C2526 C 0.59265 0.48023 0.01554 0.0
C2527 C 0.59457 0.47253 0.98179 0.0
C2528 C 0.60426 0.47537 0.95451 0.0
C2529 C 0.61242 0.48546 0.96267 0.0
C2530 C 0.61062 0.49298 -0.00358 0.0
H2531 H 0.58989 0.52732 0.00848 0.0
H2532 H 0.60478 0.52041 0.99562 0.0
H2533 H 0.59044 0.51168 0.98717 0.0
H2534 H 0.58481 0.47827 0.03543 0.0
H2535 H 0.58805 0.46491 0.97575 0.0
H2536 H 0.7104 0.34681 0.43961 0.0
H2537 H 0.72336 0.34542 0.37814 0.0
H2538 H 0.75285 0.36662 0.43618 0.0
H2539 H 0.74015 0.36803 0.49681 0.0
H2540 H 0.73634 0.36602 0.33076 0.0
H2541 H 0.76928 0.33212 0.40299 0.0
H2542 H 0.75354 0.33496 0.42165 0.0
H2543 H 0.7659 0.3461 0.43151 0.0
C2544 C 0.71953 0.35139 0.43874 0.0
C2545 C 0.72432 0.35744 0.47294 0.0
C2546 C 0.72694 0.35051 0.4039 0.0
C2547 C 0.73916 0.35568 0.40317 0.0
C2548 C 0.74357 0.36235 0.43649 0.0
H2549 H 0.80193 0.35809 0.23164 0.0
H2550 H 0.78923 0.35927 0.29372 0.0
C2551 C 0.73625 0.3632 0.471 0.0
C2552 C 0.74761 0.35396 0.36828 0.0
H2553 H 0.77557 0.34058 0.3401 0.0
C2554 C 0.74486 0.36038 0.33261 0.0
C2555 C 0.75882 0.34676 0.37118 0.0
C2556 C 0.76206 0.3395 0.40876 0.0
C2557 C 0.75312 0.35991 0.29976 0.0
C2558 C 0.76428 0.3526 0.30246 0.0
C2559 C 0.76706 0.34622 0.33823 0.0
C2560 C 0.77262 0.35079 0.26726 0.0
C2561 C 0.74992 0.36742 0.2626 0.0
C2562 C 0.76769 0.34511 0.23284 0.0
C2563 C 0.7748 0.34454 0.19787 0.0
C2564 C 0.78712 0.3494 0.19655 0.0
C2565 C 0.79246 0.35426 0.23187 0.0
C2566 C 0.78521 0.35499 0.26714 0.0
H2567 H 0.7433 0.37525 0.26941 0.0
H2568 H 0.75853 0.3714 0.24852 0.0
H2569 H 0.74527 0.36113 0.24047 0.0
H2570 H 0.75815 0.34147 0.23263 0.0
H2571 H 0.77043 0.34053 0.1716 0.0
H2572 H 0.90445 0.49338 0.76039 0.0
H2573 H 0.90482 0.50556 0.69881 0.0
H2574 H 0.91604 0.47255 0.63249 0.0
H2575 H 0.91579 0.46001 0.69513 0.0
H2576 H 0.9302 0.50055 0.62424 0.0
H2577 H 0.87832 0.49744 0.60042 0.0
H2578 H 0.88391 0.49953 0.65104 0.0
H2579 H 0.88716 0.48509 0.62508 0.0
C2580 C 0.90704 0.4886 0.73288 0.0
C2581 C 0.91009 0.47567 0.73268 0.0
C2582 C 0.90725 0.49564 0.6977 0.0
C2583 C 0.91047 0.48996 0.66134 0.0
C2584 C 0.91357 0.47706 0.66055 0.0
H2585 H 0.89916 0.52088 0.42746 0.0
H2586 H 0.90042 0.5084 0.48825 0.0
C2587 C 0.91336 0.46992 0.69614 0.0
C2588 C 0.91012 0.49771 0.6245 0.0
H2589 H 0.88946 0.51217 0.56098 0.0
C2590 C 0.92134 0.50301 0.60997 0.0
C2591 C 0.89851 0.50099 0.6066 0.0
C2592 C 0.88625 0.49546 0.62128 0.0
C2593 C 0.92123 0.51158 0.57769 0.0
C2594 C 0.90957 0.51504 0.56019 0.0
C2595 C 0.89838 0.50964 0.57477 0.0
C2596 C 0.90878 0.52319 0.52407 0.0
C2597 C 0.93358 0.51667 0.56213 0.0
C2598 C 0.91285 0.53583 0.52409 0.0
C2599 C 0.91216 0.54312 0.48884 0.0
C2600 C 0.90738 0.53778 0.45339 0.0
C2601 C 0.90298 0.52527 0.45416 0.0
C2602 C 0.90368 0.51809 0.48896 0.0
H2603 H 0.94177 0.51123 0.57368 0.0
H2604 H 0.93378 0.51648 0.52881 0.0
H2605 H 0.93465 0.52662 0.57185 0.0
H2606 H 0.91661 0.54003 0.55118 0.0
H2607 H 0.91563 0.55272 0.48905 0.0
H2608 H 0.24641 0.35368 0.16028 0.0
H2609 H 0.25918 0.35322 0.22044 0.0
H2610 H 0.22556 0.35235 0.29328 0.0
H2611 H 0.21248 0.35233 0.23212 0.0
H2612 H 0.26093 0.36958 0.28019 0.0
H2613 H 0.24545 0.32312 0.33941 0.0
H2614 H 0.24157 0.32842 0.28943 0.0
H2615 H 0.23286 0.33419 0.33193 0.0
C2616 C 0.24163 0.35331 0.18898 0.0
C2617 C 0.22838 0.35292 0.19136 0.0
C2618 C 0.24901 0.35309 0.22346 0.0
C2619 C 0.24338 0.35256 0.2614 0.0
C2620 C 0.23012 0.35247 0.26422 0.0
H2621 H 0.27123 0.35995 0.49833 0.0
H2622 H 0.25983 0.35884 0.43545 0.0
C2623 C 0.22266 0.35257 0.22936 0.0
C2624 C 0.25161 0.35234 0.29746 0.0
H2625 H 0.25914 0.33517 0.3809 0.0
C2626 C 0.26059 0.362 0.30203 0.0
C2627 C 0.25127 0.34237 0.32572 0.0
C2628 C 0.24236 0.33137 0.32131 0.0
C2629 C 0.26902 0.36209 0.33449 0.0
C2630 C 0.26847 0.3523 0.36309 0.0
C2631 C 0.2596 0.34259 0.35851 0.0
C2632 C 0.27589 0.35284 0.40057 0.0
C2633 C 0.27823 0.37283 0.33885 0.0
C2634 C 0.28882 0.34987 0.40169 0.0
C2635 C 0.29549 0.35042 0.43813 0.0
C2636 C 0.28926 0.35397 0.47359 0.0
C2637 C 0.27636 0.35708 0.47177 0.0
C2638 C 0.26977 0.35646 0.4358 0.0
H2639 H 0.27713 0.38002 0.3148 0.0
H2640 H 0.27691 0.37748 0.36842 0.0
H2641 H 0.28801 0.36912 0.33788 0.0
H2642 H 0.29369 0.34706 0.37455 0.0
H2643 H 0.3054 0.34796 0.43865 0.0
H2644 H 0.41395 0.46064 0.98503 0.0
H2645 H 0.41385 0.4731 0.04763 0.0
H2646 H 0.4046 0.50652 0.97992 0.0
H2647 H 0.40433 0.49435 0.91861 0.0
H2648 H 0.42869 0.49431 0.06733 0.0
H2649 H 0.37805 0.50701 0.067 0.0
H2650 H 0.38434 0.49453 0.03615 0.0
H2651 H 0.38558 0.51072 0.02028 0.0
C2652 C 0.41173 0.4706 0.9838 0.0
C2653 C 0.4091 0.47648 0.94692 0.0
C2654 C 0.41173 0.47771 0.01941 0.0
C2655 C 0.40901 0.4907 0.01841 0.0
C2656 C 0.40643 0.49649 0.98159 0.0
H2657 H 0.41373 0.55345 0.19023 0.0
H2658 H 0.41448 0.54095 0.12769 0.0
C2659 C 0.40638 0.48947 0.94643 0.0
C2660 C 0.40919 0.49855 0.0552 0.0
H2661 H 0.39145 0.51951 0.10887 0.0
C2662 C 0.42053 0.49974 0.07662 0.0
C2663 C 0.39853 0.50568 0.06715 0.0
C2664 C 0.38591 0.50433 0.04667 0.0
C2665 C 0.42152 0.50806 0.10927 0.0
C2666 C 0.41096 0.51536 0.12047 0.0
C2667 C 0.39961 0.5141 0.09939 0.0
C2668 C 0.41101 0.5231 0.15725 0.0
C2669 C 0.43379 0.50899 0.13192 0.0
C2670 C 0.40868 0.51717 0.19391 0.0
C2671 C 0.4081 0.52419 0.22904 0.0
C2672 C 0.40993 0.53735 0.22846 0.0
C2673 C 0.4123 0.54334 0.19158 0.0
C2674 C 0.41277 0.53624 0.15602 0.0
H2675 H 0.44154 0.5038 0.11675 0.0
H2676 H 0.43657 0.51903 0.1353 0.0
H2677 H 0.43253 0.50502 0.16251 0.0
H2678 H 0.40718 0.50706 0.19529 0.0
H2679 H 0.40616 0.51922 0.25674 0.0
H2680 H 0.21347 0.67336 0.94694 0.0
H2681 H 0.22675 0.67519 0.88657 0.0
H2682 H 0.24985 0.64443 0.92897 0.0
H2683 H 0.23699 0.64296 0.98942 0.0
H2684 H 0.26407 0.66401 0.90822 0.0
H2685 H 0.22969 0.65419 0.78636 0.0
H2686 H 0.22541 0.66695 0.81898 0.0
H2687 H 0.22617 0.65115 0.83845 0.0
C2688 C 0.22117 0.66679 0.94259 0.0
C2689 C 0.22417 0.65793 0.97245 0.0
C2690 C 0.22878 0.66786 0.90824 0.0
C2691 C 0.23931 0.65991 0.90311 0.0
C2692 C 0.24186 0.65071 0.93227 0.0
H2693 H 0.28107 0.64137 0.69316 0.0
H2694 H 0.26824 0.6425 0.75383 0.0
C2695 C 0.23444 0.6498 0.96664 0.0
C2696 C 0.24817 0.66141 0.86881 0.0
H2697 H 0.25035 0.65959 0.7668 0.0
C2698 C 0.26107 0.66308 0.87724 0.0
C2699 C 0.24426 0.6602 0.82843 0.0
C2700 C 0.23065 0.65792 0.81736 0.0
C2701 C 0.27019 0.66312 0.84664 0.0
C2702 C 0.26629 0.6618 0.8063 0.0
C2703 C 0.25335 0.66059 0.79776 0.0
C2704 C 0.27541 0.66068 0.77255 0.0
C2705 C 0.28393 0.66401 0.85801 0.0
C2706 C 0.2841 0.67031 0.76352 0.0
C2707 C 0.29175 0.66949 0.72918 0.0
C2708 C 0.29059 0.65914 0.70324 0.0
C2709 C 0.28224 0.64936 0.71308 0.0
C2710 C 0.27481 0.65007 0.7475 0.0
H2711 H 0.28547 0.66185 0.89029 0.0
H2712 H 0.28973 0.65743 0.8398 0.0
H2713 H 0.28732 0.67374 0.85235 0.0
H2714 H 0.28457 0.67871 0.78189 0.0
H2715 H 0.29787 0.6773 0.72149 0.0
H2716 H 0.10147 0.55256 0.48378 0.0
H2717 H 0.10182 0.53982 0.54582 0.0
H2718 H 0.1077 0.5062 0.47555 0.0
H2719 H 0.10767 0.51865 0.41459 0.0
H2720 H 0.08592 0.51972 0.56714 0.0
H2721 H 0.13541 0.5033 0.55844 0.0
H2722 H 0.12958 0.51632 0.52885 0.0
H2723 H 0.12683 0.50032 0.51305 0.0
C2724 C 0.10301 0.54249 0.48181 0.0
C2725 C 0.10459 0.53664 0.44432 0.0
C2726 C 0.10316 0.53522 0.51713 0.0
C2727 C 0.10501 0.52208 0.51528 0.0
C2728 C 0.10657 0.51633 0.47785 0.0
H2729 H 0.10174 0.45942 0.68847 0.0
H2730 H 0.10122 0.47175 0.62552 0.0
C2731 C 0.10645 0.52351 0.44291 0.0
C2732 C 0.10484 0.51411 0.55189 0.0
H2733 H 0.12188 0.49194 0.60303 0.0
C2734 C 0.09382 0.51372 0.57517 0.0
C2735 C 0.11512 0.5062 0.56215 0.0
C2736 C 0.12745 0.50663 0.53953 0.0
C2737 C 0.09276 0.50551 0.60811 0.0
C2738 C 0.10297 0.49752 0.61794 0.0
C2739 C 0.11399 0.4979 0.5948 0.0
C2740 C 0.10295 0.48984 0.65501 0.0
C2741 C 0.08073 0.50539 0.63228 0.0
C2742 C 0.10427 0.49595 0.69188 0.0
C2743 C 0.10471 0.48902 0.72729 0.0
C2744 C 0.10376 0.47578 0.72682 0.0
C2745 C 0.10245 0.46959 0.68976 0.0
C2746 C 0.10214 0.47661 0.65394 0.0
H2747 H 0.07288 0.51019 0.61632 0.0
H2748 H 0.07787 0.49556 0.63926 0.0
H2749 H 0.08234 0.51034 0.66117 0.0
H2750 H 0.10508 0.50613 0.69323 0.0
H2751 H 0.10585 0.49415 0.75513 0.0
loop_
_geom_bond_atom_site_label_1
_geom_bond_atom_site_label_2
_geom_bond_distance
_geom_bond_site_symmetry_2
_ccdc_geom_bond_type
Co0 O1 2.216 . S
Co0 O2 2.091 . S
Co0 O4 2.004 . S
Co0 O10 2.021 . S
Co0 O12 2.137 . S
Co0 O13 2.244 . S
O1 Co0 2.216 . S
O1 C8 1.247 . S
O2 Co0 2.091 . S
O2 C8 1.261 . S
C3 O12 1.247 . S
C3 O13 1.272 . S
O4 Co0 2.004 . S
O4 C9 1.259 . S
Co5 O6 2.061 . S
Co5 O11 2.052 . S
Co5 O13 2.135 . S
O6 Co5 2.061 . S
O6 C9 1.235 . S
C7 O10 1.238 . S
C7 O11 1.241 . S
C8 O1 1.247 . S
C8 O2 1.261 . S
C9 O4 1.259 . S
C9 O6 1.235 . S
O10 Co0 2.021 . S
O10 C7 1.238 . S
O11 Co5 2.052 . S
O11 C7 1.241 . S
O12 Co0 2.137 . S
O12 C3 1.247 . S
O13 Co0 2.244 . S
O13 C3 1.272 . S
O13 Co5 2.135 . S
Co14 O15 2.216 . S
Co14 O16 2.091 . S
Co14 O18 2.004 . S
Co14 O24 2.021 . S
Co14 O26 2.137 . S
Co14 O27 2.244 . S
O15 Co14 2.216 . S
O15 C22 1.247 . S
O16 Co14 2.091 . S
O16 C22 1.261 . S
C17 O26 1.247 . S
C17 O27 1.272 . S
O18 Co14 2.004 . S
O18 C23 1.259 . S
Co19 O20 2.061 . S
Co19 O25 2.052 . S
Co19 O27 2.135 . S
O20 Co19 2.061 . S
O20 C23 1.235 . S
C21 O24 1.238 . S
C21 O25 1.241 . S
C22 O15 1.247 . S
C22 O16 1.261 . S
C23 O18 1.259 . S
C23 O20 1.235 . S
O24 Co14 2.021 . S
O24 C21 1.238 . S
O25 Co19 2.052 . S
O25 C21 1.241 . S
O26 Co14 2.137 . S
O26 C17 1.247 . S
O27 Co14 2.244 . S
O27 C17 1.272 . S
O27 Co19 2.135 . S
Co28 O29 2.216 . S
Co28 O30 2.091 . S
Co28 O32 2.004 . S
Co28 O38 2.021 . S
Co28 O40 2.137 . S
Co28 O41 2.244 . S
O29 Co28 2.216 . S
O29 C36 1.247 . S
O30 Co28 2.091 . S
O30 C36 1.261 . S
C31 O40 1.247 . S
C31 O41 1.272 . S
O32 Co28 2.004 . S
O32 C37 1.259 . S
Co33 O34 2.061 . S
Co33 O39 2.052 . S
Co33 O41 2.135 . S
O34 Co33 2.061 . S
O34 C37 1.235 . S
C35 O38 1.238 . S
C35 O39 1.241 . S
C36 O29 1.247 . S
C36 O30 1.261 . S
C37 O32 1.259 . S
C37 O34 1.235 . S
O38 Co28 2.021 . S
O38 C35 1.238 . S
O39 Co33 2.052 . S
O39 C35 1.241 . S
O40 Co28 2.137 . S
O40 C31 1.247 . S
O41 Co28 2.244 . S
O41 C31 1.272 . S
O41 Co33 2.135 . S
Co42 O43 2.216 . S
Co42 O44 2.091 . S
Co42 O46 2.004 . S
Co42 O52 2.021 . S
Co42 O54 2.137 . S
Co42 O55 2.244 . S
O43 Co42 2.216 . S
O43 C50 1.247 . S
O44 Co42 2.091 . S
O44 C50 1.261 . S
C45 O54 1.247 . S
C45 O55 1.272 . S
O46 Co42 2.004 . S
O46 C51 1.259 . S
Co47 O48 2.061 . S
Co47 O53 2.052 . S
Co47 O55 2.135 . S
O48 Co47 2.061 . S
O48 C51 1.235 . S
C49 O52 1.238 . S
C49 O53 1.241 . S
C50 O43 1.247 . S
C50 O44 1.261 . S
C51 O46 1.259 . S
C51 O48 1.235 . S
O52 Co42 2.021 . S
O52 C49 1.238 . S
O53 Co47 2.052 . S
O53 C49 1.241 . S
O54 Co42 2.137 . S
O54 C45 1.247 . S
O55 Co42 2.244 . S
O55 C45 1.272 . S
O55 Co47 2.135 . S
Co56 O57 2.216 . S
Co56 O58 2.091 . S
Co56 O60 2.004 . S
Co56 O66 2.021 . S
Co56 O68 2.137 . S
Co56 O69 2.244 . S
O57 Co56 2.216 . S
O57 C64 1.247 . S
O58 Co56 2.091 . S
O58 C64 1.261 . S
C59 O68 1.247 . S
C59 O69 1.272 . S
O60 Co56 2.004 . S
O60 C65 1.259 . S
Co61 O62 2.061 . S
Co61 O67 2.052 . S
Co61 O69 2.135 . S
O62 Co61 2.061 . S
O62 C65 1.235 . S
C63 O66 1.238 . S
C63 O67 1.241 . S
C64 O57 1.247 . S
C64 O58 1.261 . S
C65 O60 1.259 . S
C65 O62 1.235 . S
O66 Co56 2.021 . S
O66 C63 1.238 . S
O67 Co61 2.052 . S
O67 C63 1.241 . S
O68 Co56 2.137 . S
O68 C59 1.247 . S
O69 Co56 2.244 . S
O69 C59 1.272 . S
O69 Co61 2.135 . S
Co70 O71 2.216 . S
Co70 O72 2.091 . S
Co70 O74 2.004 . S
Co70 O80 2.021 . S
Co70 O82 2.137 . S
Co70 O83 2.244 . S
O71 Co70 2.216 . S
O71 C78 1.247 . S
O72 Co70 2.091 . S
O72 C78 1.261 . S
C73 O82 1.247 . S
C73 O83 1.272 . S
O74 Co70 2.004 . S
O74 C79 1.259 . S
Co75 O76 2.061 . S
Co75 O81 2.052 . S
Co75 O83 2.135 . S
O76 Co75 2.061 . S
O76 C79 1.235 . S
C77 O80 1.238 . S
C77 O81 1.241 . S
C78 O71 1.247 . S
C78 O72 1.261 . S
C79 O74 1.259 . S
C79 O76 1.235 . S
O80 Co70 2.021 . S
O80 C77 1.238 . S
O81 Co75 2.052 . S
O81 C77 1.241 . S
O82 Co70 2.137 . S
O82 C73 1.247 . S
O83 Co70 2.244 . S
O83 C73 1.272 . S
O83 Co75 2.135 . S
Co84 O85 2.216 . S
Co84 O86 2.091 . S
Co84 O88 2.004 . S
Co84 O94 2.021 . S
Co84 O96 2.137 . S
Co84 O97 2.244 . S
O85 Co84 2.216 . S
O85 C92 1.247 . S
O86 Co84 2.091 . S
O86 C92 1.261 . S
C87 O96 1.247 . S
C87 O97 1.272 . S
O88 Co84 2.004 . S
O88 C93 1.259 . S
Co89 O90 2.061 . S
Co89 O95 2.052 . S
Co89 O97 2.135 . S
O90 Co89 2.061 . S
O90 C93 1.235 . S
C91 O94 1.238 . S
C91 O95 1.241 . S
C92 O85 1.247 . S
C92 O86 1.261 . S
C93 O88 1.259 . S
C93 O90 1.235 . S
O94 Co84 2.021 . S
O94 C91 1.238 . S
O95 Co89 2.052 . S
O95 C91 1.241 . S
O96 Co84 2.137 . S
O96 C87 1.247 . S
O97 Co84 2.244 . S
O97 C87 1.272 . S
O97 Co89 2.135 . S
Co98 O99 2.216 . S
Co98 O100 2.091 . S
Co98 O102 2.004 . S
Co98 O108 2.021 . S
Co98 O110 2.137 . S
Co98 O111 2.244 . S
O99 Co98 2.216 . S
O99 C106 1.247 . S
O100 Co98 2.091 . S
O100 C106 1.261 . S
C101 O110 1.247 . S
C101 O111 1.272 . S
O102 Co98 2.004 . S
O102 C107 1.259 . S
Co103 O104 2.061 . S
Co103 O109 2.052 . S
Co103 O111 2.135 . S
O104 Co103 2.061 . S
O104 C107 1.235 . S
C105 O108 1.238 . S
C105 O109 1.241 . S
C106 O99 1.247 . S
C106 O100 1.261 . S
C107 O102 1.259 . S
C107 O104 1.235 . S
O108 Co98 2.021 . S
O108 C105 1.238 . S
O109 Co103 2.052 . S
O109 C105 1.241 . S
O110 Co98 2.137 . S
O110 C101 1.247 . S
O111 Co98 2.244 . S
O111 C101 1.272 . S
O111 Co103 2.135 . S
Co112 O113 2.216 . S
Co112 O114 2.091 . S
Co112 O116 2.004 . S
Co112 O122 2.021 . S
Co112 O124 2.137 . S
Co112 O125 2.244 . S
O113 Co112 2.216 . S
O113 C120 1.247 . S
O114 Co112 2.091 . S
O114 C120 1.261 . S
C115 O124 1.247 . S
C115 O125 1.272 . S
O116 Co112 2.004 . S
O116 C121 1.259 . S
Co117 O118 2.061 . S
Co117 O123 2.052 . S
Co117 O125 2.135 . S
O118 Co117 2.061 . S
O118 C121 1.235 . S
C119 O122 1.238 . S
C119 O123 1.241 . S
C120 O113 1.247 . S
C120 O114 1.261 . S
C121 O116 1.259 . S
C121 O118 1.235 . S
O122 Co112 2.021 . S
O122 C119 1.238 . S
O123 Co117 2.052 . S
O123 C119 1.241 . S
O124 Co112 2.137 . S
O124 C115 1.247 . S
O125 Co112 2.244 . S
O125 C115 1.272 . S
O125 Co117 2.135 . S
Co126 O127 2.216 . S
Co126 O128 2.091 . S
Co126 O130 2.004 . S
Co126 O136 2.021 . S
Co126 O138 2.137 . S
Co126 O139 2.244 . S
O127 Co126 2.216 . S
O127 C134 1.247 . S
O128 Co126 2.091 . S
O128 C134 1.261 . S
C129 O138 1.247 . S
C129 O139 1.272 . S
O130 Co126 2.004 . S
O130 C135 1.259 . S
Co131 O132 2.061 . S
Co131 O137 2.052 . S
Co131 O139 2.135 . S
O132 Co131 2.061 . S
O132 C135 1.235 . S
C133 O136 1.238 . S
C133 O137 1.241 . S
C134 O127 1.247 . S
C134 O128 1.261 . S
C135 O130 1.259 . S
C135 O132 1.235 . S
O136 Co126 2.021 . S
O136 C133 1.238 . S
O137 Co131 2.052 . S
O137 C133 1.241 . S
O138 Co126 2.137 . S
O138 C129 1.247 . S
O139 Co126 2.244 . S
O139 C129 1.272 . S
O139 Co131 2.135 . S
Co140 O141 2.216 . S
Co140 O142 2.091 . S
Co140 O144 2.004 . S
Co140 O150 2.021 . S
Co140 O152 2.137 . S
Co140 O153 2.244 . S
O141 Co140 2.216 . S
O141 C148 1.247 . S
O142 Co140 2.091 . S
O142 C148 1.261 . S
C143 O152 1.247 . S
C143 O153 1.272 . S
O144 Co140 2.004 . S
O144 C149 1.259 . S
Co145 O146 2.061 . S
Co145 O151 2.052 . S
Co145 O153 2.135 . S
O146 Co145 2.061 . S
O146 C149 1.235 . S
C147 O150 1.238 . S
C147 O151 1.241 . S
C148 O141 1.247 . S
C148 O142 1.261 . S
C149 O144 1.259 . S
C149 O146 1.235 . S
O150 Co140 2.021 . S
O150 C147 1.238 . S
O151 Co145 2.052 . S
O151 C147 1.241 . S
O152 Co140 2.137 . S
O152 C143 1.247 . S
O153 Co140 2.244 . S
O153 C143 1.272 . S
O153 Co145 2.135 . S
Co154 O155 2.216 . S
Co154 O156 2.091 . S
Co154 O158 2.004 . S
Co154 O164 2.021 . S
Co154 O166 2.137 . S
Co154 O167 2.244 . S
O155 Co154 2.216 . S
O155 C162 1.247 . S
O156 Co154 2.091 . S
O156 C162 1.261 . S
C157 O166 1.247 . S
C157 O167 1.272 . S
O158 Co154 2.004 . S
O158 C163 1.259 . S
Co159 O160 2.061 . S
Co159 O165 2.052 . S
Co159 O167 2.135 . S
O160 Co159 2.061 . S
O160 C163 1.235 . S
C161 O164 1.238 . S
C161 O165 1.241 . S
C162 O155 1.247 . S
C162 O156 1.261 . S
C163 O158 1.259 . S
C163 O160 1.235 . S
O164 Co154 2.021 . S
O164 C161 1.238 . S
O165 Co159 2.052 . S
O165 C161 1.241 . S
O166 Co154 2.137 . S
O166 C157 1.247 . S
O167 Co154 2.244 . S
O167 C157 1.272 . S
O167 Co159 2.135 . S
Co168 O169 2.216 . S
Co168 O170 2.091 . S
Co168 O172 2.004 . S
Co168 O178 2.021 . S
Co168 O180 2.137 . S
Co168 O181 2.244 . S
O169 Co168 2.216 . S
O169 C176 1.247 . S
O170 Co168 2.091 . S
O170 C176 1.261 . S
C171 O180 1.247 . S
C171 O181 1.272 . S
O172 Co168 2.004 . S
O172 C177 1.259 . S
Co173 O174 2.061 . S
Co173 O179 2.052 . S
Co173 O181 2.135 . S
O174 Co173 2.061 . S
O174 C177 1.235 . S
C175 O178 1.238 . S
C175 O179 1.241 . S
C176 O169 1.247 . S
C176 O170 1.261 . S
C177 O172 1.259 . S
C177 O174 1.235 . S
O178 Co168 2.021 . S
O178 C175 1.238 . S
O179 Co173 2.052 . S
O179 C175 1.241 . S
O180 Co168 2.137 . S
O180 C171 1.247 . S
O181 Co168 2.244 . S
O181 C171 1.272 . S
O181 Co173 2.135 . S
Co182 O183 2.216 . S
Co182 O184 2.091 . S
Co182 O186 2.004 . S
Co182 O192 2.021 . S
Co182 O194 2.137 . S
Co182 O195 2.244 . S
O183 Co182 2.216 . S
O183 C190 1.247 . S
O184 Co182 2.091 . S
O184 C190 1.261 . S
C185 O194 1.247 . S
C185 O195 1.272 . S
O186 Co182 2.004 . S
O186 C191 1.259 . S
Co187 O188 2.061 . S
Co187 O193 2.052 . S
Co187 O195 2.135 . S
O188 Co187 2.061 . S
O188 C191 1.235 . S
C189 O192 1.238 . S
C189 O193 1.241 . S
C190 O183 1.247 . S
C190 O184 1.261 . S
C191 O186 1.259 . S
C191 O188 1.235 . S
O192 Co182 2.021 . S
O192 C189 1.238 . S
O193 Co187 2.052 . S
O193 C189 1.241 . S
O194 Co182 2.137 . S
O194 C185 1.247 . S
O195 Co182 2.244 . S
O195 C185 1.272 . S
O195 Co187 2.135 . S
Co196 O197 2.216 . S
Co196 O198 2.091 . S
Co196 O200 2.004 . S
Co196 O206 2.021 . S
Co196 O208 2.137 . S
Co196 O209 2.244 . S
O197 Co196 2.216 . S
O197 C204 1.247 . S
O198 Co196 2.091 . S
O198 C204 1.261 . S
C199 O208 1.247 . S
C199 O209 1.272 . S
O200 Co196 2.004 . S
O200 C205 1.259 . S
Co201 O202 2.061 . S
Co201 O207 2.052 . S
Co201 O209 2.135 . S
O202 Co201 2.061 . S
O202 C205 1.235 . S
C203 O206 1.238 . S
C203 O207 1.241 . S
C204 O197 1.247 . S
C204 O198 1.261 . S
C205 O200 1.259 . S
C205 O202 1.235 . S
O206 Co196 2.021 . S
O206 C203 1.238 . S
O207 Co201 2.052 . S
O207 C203 1.241 . S
O208 Co196 2.137 . S
O208 C199 1.247 . S
O209 Co196 2.244 . S
O209 C199 1.272 . S
O209 Co201 2.135 . S
Co210 O211 2.216 . S
Co210 O212 2.091 . S
Co210 O214 2.004 . S
Co210 O220 2.021 . S
Co210 O222 2.137 . S
Co210 O223 2.244 . S
O211 Co210 2.216 . S
O211 C218 1.247 . S
O212 Co210 2.091 . S
O212 C218 1.261 . S
C213 O222 1.247 . S
C213 O223 1.272 . S
O214 Co210 2.004 . S
O214 C219 1.259 . S
Co215 O216 2.061 . S
Co215 O221 2.052 . S
Co215 O223 2.135 . S
O216 Co215 2.061 . S
O216 C219 1.235 . S
C217 O220 1.238 . S
C217 O221 1.241 . S
C218 O211 1.247 . S
C218 O212 1.261 . S
C219 O214 1.259 . S
C219 O216 1.235 . S
O220 Co210 2.021 . S
O220 C217 1.238 . S
O221 Co215 2.052 . S
O221 C217 1.241 . S
O222 Co210 2.137 . S
O222 C213 1.247 . S
O223 Co210 2.244 . S
O223 C213 1.272 . S
O223 Co215 2.135 . S
Co224 O225 2.216 . S
Co224 O226 2.091 . S
Co224 O228 2.004 . S
Co224 O234 2.021 . S
Co224 O236 2.137 . S
Co224 O237 2.244 . S
O225 Co224 2.216 . S
O225 C232 1.247 . S
O226 Co224 2.091 . S
O226 C232 1.261 . S
C227 O236 1.247 . S
C227 O237 1.272 . S
O228 Co224 2.004 . S
O228 C233 1.259 . S
Co229 O230 2.061 . S
Co229 O235 2.052 . S
Co229 O237 2.135 . S
O230 Co229 2.061 . S
O230 C233 1.235 . S
C231 O234 1.238 . S
C231 O235 1.241 . S
C232 O225 1.247 . S
C232 O226 1.261 . S
C233 O228 1.259 . S
C233 O230 1.235 . S
O234 Co224 2.021 . S
O234 C231 1.238 . S
O235 Co229 2.052 . S
O235 C231 1.241 . S
O236 Co224 2.137 . S
O236 C227 1.247 . S
O237 Co224 2.244 . S
O237 C227 1.272 . S
O237 Co229 2.135 . S
Co238 O239 2.216 . S
Co238 O240 2.091 . S
Co238 O242 2.004 . S
Co238 O248 2.021 . S
Co238 O250 2.137 . S
Co238 O251 2.244 . S
O239 Co238 2.216 . S
O239 C246 1.247 . S
O240 Co238 2.091 . S
O240 C246 1.261 . S
C241 O250 1.247 . S
C241 O251 1.272 . S
O242 Co238 2.004 . S
O242 C247 1.259 . S
Co243 O244 2.061 . S
Co243 O249 2.052 . S
Co243 O251 2.135 . S
O244 Co243 2.061 . S
O244 C247 1.235 . S
C245 O248 1.238 . S
C245 O249 1.241 . S
C246 O239 1.247 . S
C246 O240 1.261 . S
C247 O242 1.259 . S
C247 O244 1.235 . S
O248 Co238 2.021 . S
O248 C245 1.238 . S
O249 Co243 2.052 . S
O249 C245 1.241 . S
O250 Co238 2.137 . S
O250 C241 1.247 . S
O251 Co238 2.244 . S
O251 C241 1.272 . S
O251 Co243 2.135 . S
Co252 O253 2.216 . S
Co252 O254 2.091 . S
Co252 O256 2.004 . S
Co252 O262 2.021 . S
Co252 O264 2.137 . S
Co252 O265 2.244 . S
O253 Co252 2.216 . S
O253 C260 1.247 . S
O254 Co252 2.091 . S
O254 C260 1.261 . S
C255 O264 1.247 . S
C255 O265 1.272 . S
O256 Co252 2.004 . S
O256 C261 1.259 . S
Co257 O258 2.061 . S
Co257 O263 2.052 . S
Co257 O265 2.135 . S
O258 Co257 2.061 . S
O258 C261 1.235 . S
C259 O262 1.238 . S
C259 O263 1.241 . S
C260 O253 1.247 . S
C260 O254 1.261 . S
C261 O256 1.259 . S
C261 O258 1.235 . S
O262 Co252 2.021 . S
O262 C259 1.238 . S
O263 Co257 2.052 . S
O263 C259 1.241 . S
O264 Co252 2.137 . S
O264 C255 1.247 . S
O265 Co252 2.244 . S
O265 C255 1.272 . S
O265 Co257 2.135 . S
Co266 O267 2.216 . S
Co266 O268 2.091 . S
Co266 O270 2.004 . S
Co266 O276 2.021 . S
Co266 O278 2.137 . S
Co266 O279 2.244 . S
O267 Co266 2.216 . S
O267 C274 1.247 . S
O268 Co266 2.091 . S
O268 C274 1.261 . S
C269 O278 1.247 . S
C269 O279 1.272 . S
O270 Co266 2.004 . S
O270 C275 1.259 . S
Co271 O272 2.061 . S
Co271 O277 2.052 . S
Co271 O279 2.135 . S
O272 Co271 2.061 . S
O272 C275 1.235 . S
C273 O276 1.238 . S
C273 O277 1.241 . S
C274 O267 1.247 . S
C274 O268 1.261 . S
C275 O270 1.259 . S
C275 O272 1.235 . S
O276 Co266 2.021 . S
O276 C273 1.238 . S
O277 Co271 2.052 . S
O277 C273 1.241 . S
O278 Co266 2.137 . S
O278 C269 1.247 . S
O279 Co266 2.244 . S
O279 C269 1.272 . S
O279 Co271 2.135 . S
Co280 O281 2.216 . S
Co280 O282 2.091 . S
Co280 O284 2.004 . S
Co280 O290 2.021 . S
Co280 O292 2.137 . S
Co280 O293 2.244 . S
O281 Co280 2.216 . S
O281 C288 1.247 . S
O282 Co280 2.091 . S
O282 C288 1.261 . S
C283 O292 1.247 . S
C283 O293 1.272 . S
O284 Co280 2.004 . S
O284 C289 1.259 . S
Co285 O286 2.061 . S
Co285 O291 2.052 . S
Co285 O293 2.135 . S
O286 Co285 2.061 . S
O286 C289 1.235 . S
C287 O290 1.238 . S
C287 O291 1.241 . S
C288 O281 1.247 . S
C288 O282 1.261 . S
C289 O284 1.259 . S
C289 O286 1.235 . S
O290 Co280 2.021 . S
O290 C287 1.238 . S
O291 Co285 2.052 . S
O291 C287 1.241 . S
O292 Co280 2.137 . S
O292 C283 1.247 . S
O293 Co280 2.244 . S
O293 C283 1.272 . S
O293 Co285 2.135 . S
Co294 O295 2.216 . S
Co294 O296 2.091 . S
Co294 O298 2.004 . S
Co294 O304 2.021 . S
Co294 O306 2.137 . S
Co294 O307 2.244 . S
O295 Co294 2.216 . S
O295 C302 1.247 . S
O296 Co294 2.091 . S
O296 C302 1.261 . S
C297 O306 1.247 . S
C297 O307 1.272 . S
O298 Co294 2.004 . S
O298 C303 1.259 . S
Co299 O300 2.061 . S
Co299 O305 2.052 . S
Co299 O307 2.135 . S
O300 Co299 2.061 . S
O300 C303 1.235 . S
C301 O304 1.238 . S
C301 O305 1.241 . S
C302 O295 1.247 . S
C302 O296 1.261 . S
C303 O298 1.259 . S
C303 O300 1.235 . S
O304 Co294 2.021 . S
O304 C301 1.238 . S
O305 Co299 2.052 . S
O305 C301 1.241 . S
O306 Co294 2.137 . S
O306 C297 1.247 . S
O307 Co294 2.244 . S
O307 C297 1.272 . S
O307 Co299 2.135 . S
Co308 O309 2.216 . S
Co308 O310 2.091 . S
Co308 O312 2.004 . S
Co308 O318 2.021 . S
Co308 O320 2.137 . S
Co308 O321 2.244 . S
O309 Co308 2.216 . S
O309 C316 1.247 . S
O310 Co308 2.091 . S
O310 C316 1.261 . S
C311 O320 1.247 . S
C311 O321 1.272 . S
O312 Co308 2.004 . S
O312 C317 1.259 . S
Co313 O314 2.061 . S
Co313 O319 2.052 . S
Co313 O321 2.135 . S
O314 Co313 2.061 . S
O314 C317 1.235 . S
C315 O318 1.238 . S
C315 O319 1.241 . S
C316 O309 1.247 . S
C316 O310 1.261 . S
C317 O312 1.259 . S
C317 O314 1.235 . S
O318 Co308 2.021 . S
O318 C315 1.238 . S
O319 Co313 2.052 . S
O319 C315 1.241 . S
O320 Co308 2.137 . S
O320 C311 1.247 . S
O321 Co308 2.244 . S
O321 C311 1.272 . S
O321 Co313 2.135 . S
Co322 O323 2.216 . S
Co322 O324 2.091 . S
Co322 O326 2.004 . S
Co322 O332 2.021 . S
Co322 O334 2.137 . S
Co322 O335 2.244 . S
O323 Co322 2.216 . S
O323 C330 1.247 . S
O324 Co322 2.091 . S
O324 C330 1.261 . S
C325 O334 1.247 . S
C325 O335 1.272 . S
O326 Co322 2.004 . S
O326 C331 1.259 . S
Co327 O328 2.061 . S
Co327 O333 2.052 . S
Co327 O335 2.135 . S
O328 Co327 2.061 . S
O328 C331 1.235 . S
C329 O332 1.238 . S
C329 O333 1.241 . S
C330 O323 1.247 . S
C330 O324 1.261 . S
C331 O326 1.259 . S
C331 O328 1.235 . S
O332 Co322 2.021 . S
O332 C329 1.238 . S
O333 Co327 2.052 . S
O333 C329 1.241 . S
O334 Co322 2.137 . S
O334 C325 1.247 . S
O335 Co322 2.244 . S
O335 C325 1.272 . S
O335 Co327 2.135 . S
Co336 O337 2.216 . S
Co336 O338 2.091 . S
Co336 O340 2.004 . S
Co336 O346 2.021 . S
Co336 O348 2.137 . S
Co336 O349 2.244 . S
O337 Co336 2.216 . S
O337 C344 1.247 . S
O338 Co336 2.091 . S
O338 C344 1.261 . S
C339 O348 1.247 . S
C339 O349 1.272 . S
O340 Co336 2.004 . S
O340 C345 1.259 . S
Co341 O342 2.061 . S
Co341 O347 2.052 . S
Co341 O349 2.135 . S
O342 Co341 2.061 . S
O342 C345 1.235 . S
C343 O346 1.238 . S
C343 O347 1.241 . S
C344 O337 1.247 . S
C344 O338 1.261 . S
C345 O340 1.259 . S
C345 O342 1.235 . S
O346 Co336 2.021 . S
O346 C343 1.238 . S
O347 Co341 2.052 . S
O347 C343 1.241 . S
O348 Co336 2.137 . S
O348 C339 1.247 . S
O349 Co336 2.244 . S
O349 C339 1.272 . S
O349 Co341 2.135 . S
Co350 O351 2.216 . S
Co350 O352 2.091 . S
Co350 O354 2.004 . S
Co350 O360 2.021 . S
Co350 O362 2.137 . S
Co350 O363 2.244 . S
O351 Co350 2.216 . S
O351 C358 1.247 . S
O352 Co350 2.091 . S
O352 C358 1.261 . S
C353 O362 1.247 . S
C353 O363 1.272 . S
O354 Co350 2.004 . S
O354 C359 1.259 . S
Co355 O356 2.061 . S
Co355 O361 2.052 . S
Co355 O363 2.135 . S
O356 Co355 2.061 . S
O356 C359 1.235 . S
C357 O360 1.238 . S
C357 O361 1.241 . S
C358 O351 1.247 . S
C358 O352 1.261 . S
C359 O354 1.259 . S
C359 O356 1.235 . S
O360 Co350 2.021 . S
O360 C357 1.238 . S
O361 Co355 2.052 . S
O361 C357 1.241 . S
O362 Co350 2.137 . S
O362 C353 1.247 . S
O363 Co350 2.244 . S
O363 C353 1.272 . S
O363 Co355 2.135 . S
Co364 O365 2.216 . S
Co364 O366 2.091 . S
Co364 O368 2.004 . S
Co364 O374 2.021 . S
Co364 O376 2.137 . S
Co364 O377 2.244 . S
O365 Co364 2.216 . S
O365 C372 1.247 . S
O366 Co364 2.091 . S
O366 C372 1.261 . S
C367 O376 1.247 . S
C367 O377 1.272 . S
O368 Co364 2.004 . S
O368 C373 1.259 . S
Co369 O370 2.061 . S
Co369 O375 2.052 . S
Co369 O377 2.135 . S
O370 Co369 2.061 . S
O370 C373 1.235 . S
C371 O374 1.238 . S
C371 O375 1.241 . S
C372 O365 1.247 . S
C372 O366 1.261 . S
C373 O368 1.259 . S
C373 O370 1.235 . S
O374 Co364 2.021 . S
O374 C371 1.238 . S
O375 Co369 2.052 . S
O375 C371 1.241 . S
O376 Co364 2.137 . S
O376 C367 1.247 . S
O377 Co364 2.244 . S
O377 C367 1.272 . S
O377 Co369 2.135 . S
Co378 O379 2.216 . S
Co378 O380 2.091 . S
Co378 O382 2.004 . S
Co378 O388 2.021 . S
Co378 O390 2.137 . S
Co378 O391 2.244 . S
O379 Co378 2.216 . S
O379 C386 1.247 . S
O380 Co378 2.091 . S
O380 C386 1.261 . S
C381 O390 1.247 . S
C381 O391 1.272 . S
O382 Co378 2.004 . S
O382 C387 1.259 . S
Co383 O384 2.061 . S
Co383 O389 2.052 . S
Co383 O391 2.135 . S
O384 Co383 2.061 . S
O384 C387 1.235 . S
C385 O388 1.238 . S
C385 O389 1.241 . S
C386 O379 1.247 . S
C386 O380 1.261 . S
C387 O382 1.259 . S
C387 O384 1.235 . S
O388 Co378 2.021 . S
O388 C385 1.238 . S
O389 Co383 2.052 . S
O389 C385 1.241 . S
O390 Co378 2.137 . S
O390 C381 1.247 . S
O391 Co378 2.244 . S
O391 C381 1.272 . S
O391 Co383 2.135 . S
Co392 O393 2.216 . S
Co392 O394 2.091 . S
Co392 O396 2.004 . S
Co392 O402 2.021 . S
Co392 O404 2.137 . S
Co392 O405 2.244 . S
O393 Co392 2.216 . S
O393 C400 1.247 . S
O394 Co392 2.091 . S
O394 C400 1.261 . S
C395 O404 1.247 . S
C395 O405 1.272 . S
O396 Co392 2.004 . S
O396 C401 1.259 . S
Co397 O398 2.061 . S
Co397 O403 2.052 . S
Co397 O405 2.135 . S
O398 Co397 2.061 . S
O398 C401 1.235 . S
C399 O402 1.238 . S
C399 O403 1.241 . S
C400 O393 1.247 . S
C400 O394 1.261 . S
C401 O396 1.259 . S
C401 O398 1.235 . S
O402 Co392 2.021 . S
O402 C399 1.238 . S
O403 Co397 2.052 . S
O403 C399 1.241 . S
O404 Co392 2.137 . S
O404 C395 1.247 . S
O405 Co392 2.244 . S
O405 C395 1.272 . S
O405 Co397 2.135 . S
Co406 O407 2.216 . S
Co406 O408 2.091 . S
Co406 O410 2.004 . S
Co406 O416 2.021 . S
Co406 O418 2.137 . S
Co406 O419 2.244 . S
O407 Co406 2.216 . S
O407 C414 1.247 . S
O408 Co406 2.091 . S
O408 C414 1.261 . S
C409 O418 1.247 . S
C409 O419 1.272 . S
O410 Co406 2.004 . S
O410 C415 1.259 . S
Co411 O412 2.061 . S
Co411 O417 2.052 . S
Co411 O419 2.135 . S
O412 Co411 2.061 . S
O412 C415 1.235 . S
C413 O416 1.238 . S
C413 O417 1.241 . S
C414 O407 1.247 . S
C414 O408 1.261 . S
C415 O410 1.259 . S
C415 O412 1.235 . S
O416 Co406 2.021 . S
O416 C413 1.238 . S
O417 Co411 2.052 . S
O417 C413 1.241 . S
O418 Co406 2.137 . S
O418 C409 1.247 . S
O419 Co406 2.244 . S
O419 C409 1.272 . S
O419 Co411 2.135 . S
Co420 O421 2.216 . S
Co420 O422 2.091 . S
Co420 O424 2.004 . S
Co420 O430 2.021 . S
Co420 O432 2.137 . S
Co420 O433 2.244 . S
O421 Co420 2.216 . S
O421 C428 1.247 . S
O422 Co420 2.091 . S
O422 C428 1.261 . S
C423 O432 1.247 . S
C423 O433 1.272 . S
O424 Co420 2.004 . S
O424 C429 1.259 . S
Co425 O426 2.061 . S
Co425 O431 2.052 . S
Co425 O433 2.135 . S
O426 Co425 2.061 . S
O426 C429 1.235 . S
C427 O430 1.238 . S
C427 O431 1.241 . S
C428 O421 1.247 . S
C428 O422 1.261 . S
C429 O424 1.259 . S
C429 O426 1.235 . S
O430 Co420 2.021 . S
O430 C427 1.238 . S
O431 Co425 2.052 . S
O431 C427 1.241 . S
O432 Co420 2.137 . S
O432 C423 1.247 . S
O433 Co420 2.244 . S
O433 C423 1.272 . S
O433 Co425 2.135 . S
Co434 O435 2.216 . S
Co434 O436 2.091 . S
Co434 O438 2.004 . S
Co434 O444 2.021 . S
Co434 O446 2.137 . S
Co434 O447 2.244 . S
O435 Co434 2.216 . S
O435 C442 1.247 . S
O436 Co434 2.091 . S
O436 C442 1.261 . S
C437 O446 1.247 . S
C437 O447 1.272 . S
O438 Co434 2.004 . S
O438 C443 1.259 . S
Co439 O440 2.061 . S
Co439 O445 2.052 . S
Co439 O447 2.135 . S
O440 Co439 2.061 . S
O440 C443 1.235 . S
C441 O444 1.238 . S
C441 O445 1.241 . S
C442 O435 1.247 . S
C442 O436 1.261 . S
C443 O438 1.259 . S
C443 O440 1.235 . S
O444 Co434 2.021 . S
O444 C441 1.238 . S
O445 Co439 2.052 . S
O445 C441 1.241 . S
O446 Co434 2.137 . S
O446 C437 1.247 . S
O447 Co434 2.244 . S
O447 C437 1.272 . S
O447 Co439 2.135 . S
H448 C456 0.929 . S
H449 C458 0.930 . S
H450 C460 0.930 . S
H451 C463 0.929 . S
H452 C466 0.930 . S
H453 C468 0.960 . S
H454 C468 0.960 . S
H455 C468 0.960 . S
C456 H448 0.929 . S
C456 C457 1.377 . S
C456 C458 1.384 . S
C457 C456 1.377 . S
C457 C463 1.390 . S
C458 H449 0.930 . S
C458 C456 1.384 . S
C458 C459 1.372 . S
C459 C458 1.372 . S
C459 C460 1.400 . S
C459 C464 1.490 . S
C460 H450 0.930 . S
C460 C459 1.400 . S
C460 C463 1.386 . S
H461 C477 0.930 . S
H462 C478 0.931 . S
C463 H451 0.929 . S
C463 C457 1.390 . S
C463 C460 1.386 . S
C464 C459 1.490 . S
C464 C466 1.395 . S
C464 C467 1.403 . S
H465 C471 0.930 . S
C466 H452 0.930 . S
C466 C464 1.395 . S
C466 C469 1.403 1_556 S
C467 C464 1.403 . S
C467 C468 1.524 . S
C467 C471 1.400 . S
C468 H453 0.960 . S
C468 H454 0.960 . S
C468 H455 0.960 . S
C468 C467 1.524 . S
C469 C466 1.403 1_554 S
C469 C470 1.392 1_554 S
C469 C473 1.495 . S
C470 C469 1.392 1_556 S
C470 C471 1.385 . S
C470 C472 1.478 1_556 S
C471 H465 0.930 . S
C471 C467 1.400 . S
C471 C470 1.385 . S
C472 C470 1.478 1_554 S
C472 C474 1.381 . S
C472 C478 1.383 . S
C473 C469 1.495 . S
C473 H479 0.959 . S
C473 H480 0.961 . S
C473 H481 0.960 . S
C474 C472 1.381 . S
C474 C475 1.394 . S
C474 H482 0.930 . S
C475 C474 1.394 . S
C475 C476 1.383 . S
C475 H483 0.929 . S
C476 C475 1.383 . S
C476 C477 1.377 . S
C477 H461 0.930 . S
C477 C476 1.377 . S
C477 C478 1.379 . S
C478 H462 0.931 . S
C478 C472 1.383 . S
C478 C477 1.379 . S
H479 C473 0.959 . S
H480 C473 0.961 . S
H481 C473 0.960 . S
H482 C474 0.930 . S
H483 C475 0.929 . S
H484 C492 0.929 . S
H485 C494 0.930 . S
H486 C496 0.930 . S
H487 C499 0.929 . S
H488 C502 0.930 . S
H489 C504 0.960 . S
H490 C504 0.960 . S
H491 C504 0.960 . S
C492 H484 0.929 . S
C492 C493 1.377 . S
C492 C494 1.384 . S
C493 C492 1.377 . S
C493 C499 1.390 . S
C494 H485 0.930 . S
C494 C492 1.384 . S
C494 C495 1.372 . S
C495 C494 1.372 . S
C495 C496 1.400 . S
C495 C500 1.490 . S
C496 H486 0.930 . S
C496 C495 1.400 . S
C496 C499 1.386 . S
H497 C513 0.930 . S
H498 C514 0.931 . S
C499 H487 0.929 . S
C499 C493 1.390 . S
C499 C496 1.386 . S
C500 C495 1.490 . S
C500 C502 1.395 . S
C500 C503 1.403 . S
H501 C507 0.930 . S
C502 H488 0.930 . S
C502 C500 1.395 . S
C502 C505 1.403 . S
C503 C500 1.403 . S
C503 C504 1.524 . S
C503 C507 1.400 . S
C504 H489 0.960 . S
C504 H490 0.960 . S
C504 H491 0.960 . S
C504 C503 1.524 . S
C505 C502 1.403 . S
C505 C506 1.392 . S
C505 C509 1.495 . S
C506 C505 1.392 . S
C506 C507 1.385 . S
C506 C508 1.478 . S
C507 H501 0.930 . S
C507 C503 1.400 . S
C507 C506 1.385 . S
C508 C506 1.478 . S
C508 C510 1.381 . S
C508 C514 1.383 . S
C509 C505 1.495 . S
C509 H515 0.959 . S
C509 H516 0.961 . S
C509 H517 0.960 . S
C510 C508 1.381 . S
C510 C511 1.394 . S
C510 H518 0.930 . S
C511 C510 1.394 . S
C511 C512 1.383 . S
C511 H519 0.929 . S
C512 C511 1.383 . S
C512 C513 1.377 . S
C513 H497 0.930 . S
C513 C512 1.377 . S
C513 C514 1.379 . S
C514 H498 0.931 . S
C514 C508 1.383 . S
C514 C513 1.379 . S
H515 C509 0.959 . S
H516 C509 0.961 . S
H517 C509 0.960 . S
H518 C510 0.930 . S
H519 C511 0.929 . S
H520 C528 0.929 . S
H521 C530 0.930 . S
H522 C532 0.930 . S
H523 C535 0.929 . S
H524 C538 0.930 . S
H525 C540 0.960 . S
H526 C540 0.960 . S
H527 C540 0.960 . S
C528 H520 0.929 . S
C528 C529 1.377 . S
C528 C530 1.384 . S
C529 C528 1.377 . S
C529 C535 1.390 . S
C530 H521 0.930 . S
C530 C528 1.384 . S
C530 C531 1.372 . S
C531 C530 1.372 . S
C531 C532 1.400 . S
C531 C536 1.490 . S
C532 H522 0.930 . S
C532 C531 1.400 . S
C532 C535 1.386 . S
H533 C549 0.930 . S
H534 C550 0.931 . S
C535 H523 0.929 . S
C535 C529 1.390 . S
C535 C532 1.386 . S
C536 C531 1.490 . S
C536 C538 1.395 . S
C536 C539 1.403 . S
H537 C543 0.930 . S
C538 H524 0.930 . S
C538 C536 1.395 . S
C538 C541 1.403 . S
C539 C536 1.403 . S
C539 C540 1.524 . S
C539 C543 1.400 . S
C540 H525 0.960 . S
C540 H526 0.960 . S
C540 H527 0.960 . S
C540 C539 1.524 . S
C541 C538 1.403 . S
C541 C542 1.392 . S
C541 C545 1.495 . S
C542 C541 1.392 . S
C542 C543 1.385 . S
C542 C544 1.478 . S
C543 H537 0.930 . S
C543 C539 1.400 . S
C543 C542 1.385 . S
C544 C542 1.478 . S
C544 C546 1.381 . S
C544 C550 1.383 . S
C545 C541 1.495 . S
C545 H551 0.959 . S
C545 H552 0.961 . S
C545 H553 0.960 . S
C546 C544 1.381 . S
C546 C547 1.394 . S
C546 H554 0.930 . S
C547 C546 1.394 . S
C547 C548 1.383 . S
C547 H555 0.929 . S
C548 C547 1.383 . S
C548 C549 1.377 . S
C549 H533 0.930 . S
C549 C548 1.377 . S
C549 C550 1.379 . S
C550 H534 0.931 . S
C550 C544 1.383 . S
C550 C549 1.379 . S
H551 C545 0.959 . S
H552 C545 0.961 . S
H553 C545 0.960 . S
H554 C546 0.930 . S
H555 C547 0.929 . S
H556 C564 0.929 . S
H557 C566 0.930 . S
H558 C568 0.930 . S
H559 C571 0.929 . S
H560 C574 0.930 . S
H561 C576 0.960 . S
H562 C576 0.960 . S
H563 C576 0.960 . S
C564 H556 0.929 . S
C564 C565 1.377 . S
C564 C566 1.384 . S
C565 C564 1.377 . S
C565 C571 1.390 . S
C566 H557 0.930 . S
C566 C564 1.384 . S
C566 C567 1.372 . S
C567 C566 1.372 . S
C567 C568 1.400 . S
C567 C572 1.490 . S
C568 H558 0.930 . S
C568 C567 1.400 . S
C568 C571 1.386 . S
H569 C585 0.930 . S
H570 C586 0.931 . S
C571 H559 0.929 . S
C571 C565 1.390 . S
C571 C568 1.386 . S
C572 C567 1.490 . S
C572 C574 1.395 . S
C572 C575 1.403 . S
H573 C579 0.930 . S
C574 H560 0.930 . S
C574 C572 1.395 . S
C574 C577 1.403 . S
C575 C572 1.403 . S
C575 C576 1.524 . S
C575 C579 1.400 . S
C576 H561 0.960 . S
C576 H562 0.960 . S
C576 H563 0.960 . S
C576 C575 1.524 . S
C577 C574 1.403 . S
C577 C578 1.392 . S
C577 C581 1.495 . S
C578 C577 1.392 . S
C578 C579 1.385 . S
C578 C580 1.478 . S
C579 H573 0.930 . S
C579 C575 1.400 . S
C579 C578 1.385 . S
C580 C578 1.478 . S
C580 C582 1.381 . S
C580 C586 1.383 . S
C581 C577 1.495 . S
C581 H587 0.959 . S
C581 H588 0.961 . S
C581 H589 0.960 . S
C582 C580 1.381 . S
C582 C583 1.394 . S
C582 H590 0.930 . S
C583 C582 1.394 . S
C583 C584 1.383 . S
C583 H591 0.929 . S
C584 C583 1.383 . S
C584 C585 1.377 . S
C585 H569 0.930 . S
C585 C584 1.377 . S
C585 C586 1.379 . S
C586 H570 0.931 . S
C586 C580 1.383 . S
C586 C585 1.379 . S
H587 C581 0.959 . S
H588 C581 0.961 . S
H589 C581 0.960 . S
H590 C582 0.930 . S
H591 C583 0.929 . S
H592 C600 0.929 . S
H593 C602 0.930 . S
H594 C604 0.930 . S
H595 C607 0.929 . S
H596 C610 0.930 . S
H597 C612 0.960 . S
H598 C612 0.960 . S
H599 C612 0.960 . S
C600 H592 0.929 . S
C600 C601 1.377 . S
C600 C602 1.384 . S
C601 C600 1.377 . S
C601 C607 1.390 . S
C602 H593 0.930 . S
C602 C600 1.384 . S
C602 C603 1.372 . S
C603 C602 1.372 . S
C603 C604 1.400 . S
C603 C608 1.490 . S
C604 H594 0.930 . S
C604 C603 1.400 . S
C604 C607 1.386 . S
H605 C621 0.930 . S
H606 C622 0.931 . S
C607 H595 0.929 . S
C607 C601 1.390 . S
C607 C604 1.386 . S
C608 C603 1.490 . S
C608 C610 1.395 . S
C608 C611 1.403 . S
H609 C615 0.930 . S
C610 H596 0.930 . S
C610 C608 1.395 . S
C610 C613 1.403 . S
C611 C608 1.403 . S
C611 C612 1.524 . S
C611 C615 1.400 . S
C612 H597 0.960 . S
C612 H598 0.960 . S
C612 H599 0.960 . S
C612 C611 1.524 . S
C613 C610 1.403 . S
C613 C614 1.392 . S
C613 C617 1.495 . S
C614 C613 1.392 . S
C614 C615 1.385 . S
C614 C616 1.478 . S
C615 H609 0.930 . S
C615 C611 1.400 . S
C615 C614 1.385 . S
C616 C614 1.478 . S
C616 C618 1.381 . S
C616 C622 1.383 . S
C617 C613 1.495 . S
C617 H623 0.959 . S
C617 H624 0.961 . S
C617 H625 0.960 . S
C618 C616 1.381 . S
C618 C619 1.394 . S
C618 H626 0.930 . S
C619 C618 1.394 . S
C619 C620 1.383 . S
C619 H627 0.929 . S
C620 C619 1.383 . S
C620 C621 1.377 . S
C621 H605 0.930 . S
C621 C620 1.377 . S
C621 C622 1.379 . S
C622 H606 0.931 . S
C622 C616 1.383 . S
C622 C621 1.379 . S
H623 C617 0.959 . S
H624 C617 0.961 . S
H625 C617 0.960 . S
H626 C618 0.930 . S
H627 C619 0.929 . S
H628 C636 0.929 . S
H629 C638 0.930 . S
H630 C640 0.930 . S
H631 C643 0.929 . S
H632 C646 0.930 . S
H633 C648 0.960 . S
H634 C648 0.960 . S
H635 C648 0.960 . S
C636 H628 0.929 . S
C636 C637 1.377 . S
C636 C638 1.384 . S
C637 C636 1.377 . S
C637 C643 1.390 . S
C638 H629 0.930 . S
C638 C636 1.384 . S
C638 C639 1.372 . S
C639 C638 1.372 . S
C639 C640 1.400 . S
C639 C644 1.490 . S
C640 H630 0.930 . S
C640 C639 1.400 . S
C640 C643 1.386 . S
H641 C657 0.930 1_556 S
H642 C658 0.931 . S
C643 H631 0.929 . S
C643 C637 1.390 . S
C643 C640 1.386 . S
C644 C639 1.490 . S
C644 C646 1.395 . S
C644 C647 1.403 . S
H645 C651 0.930 . S
C646 H632 0.930 . S
C646 C644 1.395 . S
C646 C649 1.403 . S
C647 C644 1.403 . S
C647 C648 1.524 . S
C647 C651 1.400 . S
C648 H633 0.960 . S
C648 H634 0.960 . S
C648 H635 0.960 . S
C648 C647 1.524 . S
C649 C646 1.403 . S
C649 C650 1.392 . S
C649 C653 1.495 1_556 S
C650 C649 1.392 . S
C650 C651 1.385 . S
C650 C652 1.478 1_556 S
C651 H645 0.930 . S
C651 C647 1.400 . S
C651 C650 1.385 . S
C652 C650 1.478 1_554 S
C652 C654 1.381 . S
C652 C658 1.383 1_554 S
C653 C649 1.495 1_554 S
C653 H659 0.959 . S
C653 H660 0.961 . S
C653 H661 0.960 . S
C654 C652 1.381 . S
C654 C655 1.394 . S
C654 H662 0.930 . S
C655 C654 1.394 . S
C655 C656 1.383 . S
C655 H663 0.929 . S
C656 C655 1.383 . S
C656 C657 1.377 . S
C657 H641 0.930 1_554 S
C657 C656 1.377 . S
C657 C658 1.379 1_554 S
C658 H642 0.931 . S
C658 C652 1.383 1_556 S
C658 C657 1.379 1_556 S
H659 C653 0.959 . S
H660 C653 0.961 . S
H661 C653 0.960 . S
H662 C654 0.930 . S
H663 C655 0.929 . S
H664 C672 0.929 . S
H665 C674 0.930 . S
H666 C676 0.930 . S
H667 C679 0.929 . S
H668 C682 0.930 . S
H669 C684 0.960 . S
H670 C684 0.960 . S
H671 C684 0.960 . S
C672 H664 0.929 . S
C672 C673 1.377 . S
C672 C674 1.384 . S
C673 C672 1.377 . S
C673 C679 1.390 . S
C674 H665 0.930 . S
C674 C672 1.384 . S
C674 C675 1.372 . S
C675 C674 1.372 . S
C675 C676 1.400 . S
C675 C680 1.490 . S
C676 H666 0.930 . S
C676 C675 1.400 . S
C676 C679 1.386 . S
H677 C693 0.930 . S
H678 C694 0.931 . S
C679 H667 0.929 . S
C679 C673 1.390 . S
C679 C676 1.386 . S
C680 C675 1.490 . S
C680 C682 1.395 . S
C680 C683 1.403 . S
H681 C687 0.930 . S
C682 H668 0.930 . S
C682 C680 1.395 . S
C682 C685 1.403 . S
C683 C680 1.403 . S
C683 C684 1.524 . S
C683 C687 1.400 . S
C684 H669 0.960 . S
C684 H670 0.960 . S
C684 H671 0.960 . S
C684 C683 1.524 . S
C685 C682 1.403 . S
C685 C686 1.392 . S
C685 C689 1.495 . S
C686 C685 1.392 . S
C686 C687 1.385 . S
C686 C688 1.478 . S
C687 H681 0.930 . S
C687 C683 1.400 . S
C687 C686 1.385 . S
C688 C686 1.478 . S
C688 C690 1.381 . S
C688 C694 1.383 . S
C689 C685 1.495 . S
C689 H695 0.959 . S
C689 H696 0.961 . S
C689 H697 0.960 . S
C690 C688 1.381 . S
C690 C691 1.394 . S
C690 H698 0.930 . S
C691 C690 1.394 . S
C691 C692 1.383 . S
C691 H699 0.929 . S
C692 C691 1.383 . S
C692 C693 1.377 . S
C693 H677 0.930 . S
C693 C692 1.377 . S
C693 C694 1.379 . S
C694 H678 0.931 . S
C694 C688 1.383 . S
C694 C693 1.379 . S
H695 C689 0.959 . S
H696 C689 0.961 . S
H697 C689 0.960 . S
H698 C690 0.930 . S
H699 C691 0.929 . S
H700 C708 0.929 . S
H701 C710 0.930 . S
H702 C712 0.930 . S
H703 C715 0.929 . S
H704 C718 0.930 . S
H705 C720 0.960 . S
H706 C720 0.960 . S
H707 C720 0.960 . S
C708 H700 0.929 . S
C708 C709 1.377 . S
C708 C710 1.384 . S
C709 C708 1.377 . S
C709 C715 1.390 . S
C710 H701 0.930 . S
C710 C708 1.384 . S
C710 C711 1.372 . S
C711 C710 1.372 . S
C711 C712 1.400 . S
C711 C716 1.490 . S
C712 H702 0.930 . S
C712 C711 1.400 . S
C712 C715 1.386 . S
H713 C729 0.930 . S
H714 C730 0.931 . S
C715 H703 0.929 . S
C715 C709 1.390 . S
C715 C712 1.386 . S
C716 C711 1.490 . S
C716 C718 1.395 . S
C716 C719 1.403 . S
H717 C723 0.930 . S
C718 H704 0.930 . S
C718 C716 1.395 . S
C718 C721 1.403 . S
C719 C716 1.403 . S
C719 C720 1.524 . S
C719 C723 1.400 . S
C720 H705 0.960 . S
C720 H706 0.960 . S
C720 H707 0.960 . S
C720 C719 1.524 . S
C721 C718 1.403 . S
C721 C722 1.392 . S
C721 C725 1.495 . S
C722 C721 1.392 . S
C722 C723 1.385 . S
C722 C724 1.478 . S
C723 H717 0.930 . S
C723 C719 1.400 . S
C723 C722 1.385 . S
C724 C722 1.478 . S
C724 C726 1.381 . S
C724 C730 1.383 . S
C725 C721 1.495 . S
C725 H731 0.959 . S
C725 H732 0.961 . S
C725 H733 0.960 . S
C726 C724 1.381 . S
C726 C727 1.394 . S
C726 H734 0.930 . S
C727 C726 1.394 . S
C727 C728 1.383 . S
C727 H735 0.929 . S
C728 C727 1.383 . S
C728 C729 1.377 . S
C729 H713 0.930 . S
C729 C728 1.377 . S
C729 C730 1.379 . S
C730 H714 0.931 . S
C730 C724 1.383 . S
C730 C729 1.379 . S
H731 C725 0.959 . S
H732 C725 0.961 . S
H733 C725 0.960 . S
H734 C726 0.930 . S
H735 C727 0.929 . S
H736 C744 0.929 . S
H737 C746 0.930 . S
H738 C748 0.930 . S
H739 C751 0.929 . S
H740 C754 0.930 . S
H741 C756 0.960 . S
H742 C756 0.960 . S
H743 C756 0.960 . S
C744 H736 0.929 . S
C744 C745 1.377 . S
C744 C746 1.384 . S
C745 C744 1.377 . S
C745 C751 1.390 . S
C746 H737 0.930 . S
C746 C744 1.384 . S
C746 C747 1.372 . S
C747 C746 1.372 . S
C747 C748 1.400 . S
C747 C752 1.490 . S
C748 H738 0.930 . S
C748 C747 1.400 . S
C748 C751 1.386 . S
H749 C765 0.930 . S
H750 C766 0.931 . S
C751 H739 0.929 . S
C751 C745 1.390 . S
C751 C748 1.386 . S
C752 C747 1.490 . S
C752 C754 1.395 . S
C752 C755 1.403 . S
H753 C759 0.930 . S
C754 H740 0.930 . S
C754 C752 1.395 . S
C754 C757 1.403 . S
C755 C752 1.403 . S
C755 C756 1.524 . S
C755 C759 1.400 . S
C756 H741 0.960 . S
C756 H742 0.960 . S
C756 H743 0.960 . S
C756 C755 1.524 . S
C757 C754 1.403 . S
C757 C758 1.392 . S
C757 C761 1.495 . S
C758 C757 1.392 . S
C758 C759 1.385 . S
C758 C760 1.478 . S
C759 H753 0.930 . S
C759 C755 1.400 . S
C759 C758 1.385 . S
C760 C758 1.478 . S
C760 C762 1.381 . S
C760 C766 1.383 . S
C761 C757 1.495 . S
C761 H767 0.959 . S
C761 H768 0.961 . S
C761 H769 0.960 . S
C762 C760 1.381 . S
C762 C763 1.394 . S
C762 H770 0.930 . S
C763 C762 1.394 . S
C763 C764 1.383 . S
C763 H771 0.929 . S
C764 C763 1.383 . S
C764 C765 1.377 . S
C765 H749 0.930 . S
C765 C764 1.377 . S
C765 C766 1.379 . S
C766 H750 0.931 . S
C766 C760 1.383 . S
C766 C765 1.379 . S
H767 C761 0.959 . S
H768 C761 0.961 . S
H769 C761 0.960 . S
H770 C762 0.930 . S
H771 C763 0.929 . S
H772 C780 0.929 . S
H773 C782 0.930 . S
H774 C784 0.930 . S
H775 C787 0.929 . S
H776 C790 0.930 . S
H777 C792 0.960 . S
H778 C792 0.960 . S
H779 C792 0.960 . S
C780 H772 0.929 . S
C780 C781 1.377 . S
C780 C782 1.384 . S
C781 C780 1.377 . S
C781 C787 1.390 . S
C782 H773 0.930 . S
C782 C780 1.384 . S
C782 C783 1.372 . S
C783 C782 1.372 . S
C783 C784 1.400 . S
C783 C788 1.490 . S
C784 H774 0.930 . S
C784 C783 1.400 . S
C784 C787 1.386 . S
H785 C801 0.930 . S
H786 C802 0.931 . S
C787 H775 0.929 . S
C787 C781 1.390 . S
C787 C784 1.386 . S
C788 C783 1.490 . S
C788 C790 1.395 . S
C788 C791 1.403 . S
H789 C795 0.930 . S
C790 H776 0.930 . S
C790 C788 1.395 . S
C790 C793 1.403 . S
C791 C788 1.403 . S
C791 C792 1.524 . S
C791 C795 1.400 . S
C792 H777 0.960 . S
C792 H778 0.960 . S
C792 H779 0.960 . S
C792 C791 1.524 . S
C793 C790 1.403 . S
C793 C794 1.392 . S
C793 C797 1.495 . S
C794 C793 1.392 . S
C794 C795 1.385 . S
C794 C796 1.478 . S
C795 H789 0.930 . S
C795 C791 1.400 . S
C795 C794 1.385 . S
C796 C794 1.478 . S
C796 C798 1.381 . S
C796 C802 1.383 . S
C797 C793 1.495 . S
C797 H803 0.959 . S
C797 H804 0.961 . S
C797 H805 0.960 . S
C798 C796 1.381 . S
C798 C799 1.394 . S
C798 H806 0.930 . S
C799 C798 1.394 . S
C799 C800 1.383 . S
C799 H807 0.929 . S
C800 C799 1.383 . S
C800 C801 1.377 . S
C801 H785 0.930 . S
C801 C800 1.377 . S
C801 C802 1.379 . S
C802 H786 0.931 . S
C802 C796 1.383 . S
C802 C801 1.379 . S
H803 C797 0.959 . S
H804 C797 0.961 . S
H805 C797 0.960 . S
H806 C798 0.930 . S
H807 C799 0.929 . S
H808 C816 0.929 . S
H809 C818 0.930 . S
H810 C820 0.930 . S
H811 C823 0.929 . S
H812 C826 0.930 1_554 S
H813 C828 0.960 . S
H814 C828 0.960 . S
H815 C828 0.960 . S
C816 H808 0.929 . S
C816 C817 1.377 . S
C816 C818 1.384 . S
C817 C816 1.377 . S
C817 C823 1.390 . S
C818 H809 0.930 . S
C818 C816 1.384 . S
C818 C819 1.372 . S
C819 C818 1.372 . S
C819 C820 1.400 . S
C819 C824 1.490 . S
C820 H810 0.930 . S
C820 C819 1.400 . S
C820 C823 1.386 . S
H821 C837 0.930 . S
H822 C838 0.931 1_556 S
C823 H811 0.929 . S
C823 C817 1.390 . S
C823 C820 1.386 . S
C824 C819 1.490 . S
C824 C826 1.395 . S
C824 C827 1.403 . S
H825 C831 0.930 . S
C826 H812 0.930 1_556 S
C826 C824 1.395 . S
C826 C829 1.403 1_556 S
C827 C824 1.403 . S
C827 C828 1.524 . S
C827 C831 1.400 . S
C828 H813 0.960 . S
C828 H814 0.960 . S
C828 H815 0.960 . S
C828 C827 1.524 . S
C829 C826 1.403 1_554 S
C829 C830 1.392 1_554 S
C829 C833 1.495 . S
C830 C829 1.392 1_556 S
C830 C831 1.385 . S
C830 C832 1.478 1_556 S
C831 H825 0.930 . S
C831 C827 1.400 . S
C831 C830 1.385 . S
C832 C830 1.478 1_554 S
C832 C834 1.381 . S
C832 C838 1.383 . S
C833 C829 1.495 . S
C833 H839 0.959 . S
C833 H840 0.961 . S
C833 H841 0.960 . S
C834 C832 1.381 . S
C834 C835 1.394 . S
C834 H842 0.930 . S
C835 C834 1.394 . S
C835 C836 1.383 . S
C835 H843 0.929 . S
C836 C835 1.383 . S
C836 C837 1.377 . S
C837 H821 0.930 . S
C837 C836 1.377 . S
C837 C838 1.379 . S
C838 H822 0.931 1_554 S
C838 C832 1.383 . S
C838 C837 1.379 . S
H839 C833 0.959 . S
H840 C833 0.961 . S
H841 C833 0.960 . S
H842 C834 0.930 . S
H843 C835 0.929 . S
H844 C852 0.929 . S
H845 C854 0.930 . S
H846 C856 0.930 . S
H847 C859 0.929 . S
H848 C862 0.930 . S
H849 C864 0.960 . S
H850 C864 0.960 . S
H851 C864 0.960 . S
C852 H844 0.929 . S
C852 C853 1.377 . S
C852 C854 1.384 . S
C853 C852 1.377 . S
C853 C859 1.390 . S
C854 H845 0.930 . S
C854 C852 1.384 . S
C854 C855 1.372 . S
C855 C854 1.372 . S
C855 C856 1.400 . S
C855 C860 1.490 . S
C856 H846 0.930 . S
C856 C855 1.400 . S
C856 C859 1.386 . S
H857 C873 0.930 . S
H858 C874 0.931 . S
C859 H847 0.929 . S
C859 C853 1.390 . S
C859 C856 1.386 . S
C860 C855 1.490 . S
C860 C862 1.395 . S
C860 C863 1.403 . S
H861 C867 0.930 . S
C862 H848 0.930 . S
C862 C860 1.395 . S
C862 C865 1.403 . S
C863 C860 1.403 . S
C863 C864 1.524 . S
C863 C867 1.400 . S
C864 H849 0.960 . S
C864 H850 0.960 . S
C864 H851 0.960 . S
C864 C863 1.524 . S
C865 C862 1.403 . S
C865 C866 1.392 . S
C865 C869 1.495 . S
C866 C865 1.392 . S
C866 C867 1.385 . S
C866 C868 1.478 . S
C867 H861 0.930 . S
C867 C863 1.400 . S
C867 C866 1.385 . S
C868 C866 1.478 . S
C868 C870 1.381 . S
C868 C874 1.383 . S
C869 C865 1.495 . S
C869 H875 0.959 . S
C869 H876 0.961 . S
C869 H877 0.960 . S
C870 C868 1.381 . S
C870 C871 1.394 . S
C870 H878 0.930 . S
C871 C870 1.394 . S
C871 C872 1.383 . S
C871 H879 0.929 . S
C872 C871 1.383 . S
C872 C873 1.377 . S
C873 H857 0.930 . S
C873 C872 1.377 . S
C873 C874 1.379 . S
C874 H858 0.931 . S
C874 C868 1.383 . S
C874 C873 1.379 . S
H875 C869 0.959 . S
H876 C869 0.961 . S
H877 C869 0.960 . S
H878 C870 0.930 . S
H879 C871 0.929 . S
H880 C888 0.929 . S
H881 C890 0.930 . S
H882 C892 0.930 . S
H883 C895 0.929 . S
H884 C898 0.930 . S
H885 C900 0.960 . S
H886 C900 0.960 . S
H887 C900 0.960 . S
C888 H880 0.929 . S
C888 C889 1.377 . S
C888 C890 1.384 . S
C889 C888 1.377 . S
C889 C895 1.390 . S
C890 H881 0.930 . S
C890 C888 1.384 . S
C890 C891 1.372 . S
C891 C890 1.372 . S
C891 C892 1.400 . S
C891 C896 1.490 . S
C892 H882 0.930 . S
C892 C891 1.400 . S
C892 C895 1.386 . S
H893 C909 0.930 . S
H894 C910 0.931 . S
C895 H883 0.929 . S
C895 C889 1.390 . S
C895 C892 1.386 . S
C896 C891 1.490 . S
C896 C898 1.395 . S
C896 C899 1.403 . S
H897 C903 0.930 . S
C898 H884 0.930 . S
C898 C896 1.395 . S
C898 C901 1.403 . S
C899 C896 1.403 . S
C899 C900 1.524 . S
C899 C903 1.400 . S
C900 H885 0.960 . S
C900 H886 0.960 . S
C900 H887 0.960 . S
C900 C899 1.524 . S
C901 C898 1.403 . S
C901 C902 1.392 . S
C901 C905 1.495 . S
C902 C901 1.392 . S
C902 C903 1.385 . S
C902 C904 1.478 . S
C903 H897 0.930 . S
C903 C899 1.400 . S
C903 C902 1.385 . S
C904 C902 1.478 . S
C904 C906 1.381 . S
C904 C910 1.383 . S
C905 C901 1.495 . S
C905 H911 0.959 . S
C905 H912 0.961 . S
C905 H913 0.960 . S
C906 C904 1.381 . S
C906 C907 1.394 . S
C906 H914 0.930 . S
C907 C906 1.394 . S
C907 C908 1.383 . S
C907 H915 0.929 . S
C908 C907 1.383 . S
C908 C909 1.377 . S
C909 H893 0.930 . S
C909 C908 1.377 . S
C909 C910 1.379 . S
C910 H894 0.931 . S
C910 C904 1.383 . S
C910 C909 1.379 . S
H911 C905 0.959 . S
H912 C905 0.961 . S
H913 C905 0.960 . S
H914 C906 0.930 . S
H915 C907 0.929 . S
H916 C924 0.929 . S
H917 C926 0.930 . S
H918 C928 0.930 . S
H919 C931 0.929 . S
H920 C934 0.930 . S
H921 C936 0.960 . S
H922 C936 0.960 . S
H923 C936 0.960 . S
C924 H916 0.929 . S
C924 C925 1.377 . S
C924 C926 1.384 . S
C925 C924 1.377 . S
C925 C931 1.390 . S
C926 H917 0.930 . S
C926 C924 1.384 . S
C926 C927 1.372 . S
C927 C926 1.372 . S
C927 C928 1.400 . S
C927 C932 1.490 . S
C928 H918 0.930 . S
C928 C927 1.400 . S
C928 C931 1.386 . S
H929 C945 0.930 . S
H930 C946 0.931 . S
C931 H919 0.929 . S
C931 C925 1.390 . S
C931 C928 1.386 . S
C932 C927 1.490 . S
C932 C934 1.395 . S
C932 C935 1.403 . S
H933 C939 0.930 . S
C934 H920 0.930 . S
C934 C932 1.395 . S
C934 C937 1.403 . S
C935 C932 1.403 . S
C935 C936 1.524 . S
C935 C939 1.400 . S
C936 H921 0.960 . S
C936 H922 0.960 . S
C936 H923 0.960 . S
C936 C935 1.524 . S
C937 C934 1.403 . S
C937 C938 1.392 . S
C937 C941 1.495 . S
C938 C937 1.392 . S
C938 C939 1.385 . S
C938 C940 1.478 . S
C939 H933 0.930 . S
C939 C935 1.400 . S
C939 C938 1.385 . S
C940 C938 1.478 . S
C940 C942 1.381 . S
C940 C946 1.383 . S
C941 C937 1.495 . S
C941 H947 0.959 . S
C941 H948 0.961 . S
C941 H949 0.960 . S
C942 C940 1.381 . S
C942 C943 1.394 . S
C942 H950 0.930 . S
C943 C942 1.394 . S
C943 C944 1.383 . S
C943 H951 0.929 . S
C944 C943 1.383 . S
C944 C945 1.377 . S
C945 H929 0.930 . S
C945 C944 1.377 . S
C945 C946 1.379 . S
C946 H930 0.931 . S
C946 C940 1.383 . S
C946 C945 1.379 . S
H947 C941 0.959 . S
H948 C941 0.961 . S
H949 C941 0.960 . S
H950 C942 0.930 . S
H951 C943 0.929 . S
H952 C960 0.929 . S
H953 C962 0.930 . S
H954 C964 0.930 . S
H955 C967 0.929 . S
H956 C970 0.930 . S
H957 C972 0.960 . S
H958 C972 0.960 . S
H959 C972 0.960 . S
C960 H952 0.929 . S
C960 C961 1.377 . S
C960 C962 1.384 . S
C961 C960 1.377 . S
C961 C967 1.390 . S
C962 H953 0.930 . S
C962 C960 1.384 . S
C962 C963 1.372 . S
C963 C962 1.372 . S
C963 C964 1.400 . S
C963 C968 1.490 . S
C964 H954 0.930 . S
C964 C963 1.400 . S
C964 C967 1.386 . S
H965 C981 0.930 . S
H966 C982 0.931 . S
C967 H955 0.929 . S
C967 C961 1.390 . S
C967 C964 1.386 . S
C968 C963 1.490 . S
C968 C970 1.395 . S
C968 C971 1.403 . S
H969 C975 0.930 . S
C970 H956 0.930 . S
C970 C968 1.395 . S
C970 C973 1.403 . S
C971 C968 1.403 . S
C971 C972 1.524 . S
C971 C975 1.400 . S
C972 H957 0.960 . S
C972 H958 0.960 . S
C972 H959 0.960 . S
C972 C971 1.524 . S
C973 C970 1.403 . S
C973 C974 1.392 . S
C973 C977 1.495 . S
C974 C973 1.392 . S
C974 C975 1.385 . S
C974 C976 1.478 . S
C975 H969 0.930 . S
C975 C971 1.400 . S
C975 C974 1.385 . S
C976 C974 1.478 . S
C976 C978 1.381 . S
C976 C982 1.383 . S
C977 C973 1.495 . S
C977 H983 0.959 . S
C977 H984 0.961 . S
C977 H985 0.960 . S
C978 C976 1.381 . S
C978 C979 1.394 . S
C978 H986 0.930 . S
C979 C978 1.394 . S
C979 C980 1.383 . S
C979 H987 0.929 . S
C980 C979 1.383 . S
C980 C981 1.377 . S
C981 H965 0.930 . S
C981 C980 1.377 . S
C981 C982 1.379 . S
C982 H966 0.931 . S
C982 C976 1.383 . S
C982 C981 1.379 . S
H983 C977 0.959 . S
H984 C977 0.961 . S
H985 C977 0.960 . S
H986 C978 0.930 . S
H987 C979 0.929 . S
H988 C996 0.929 . S
H989 C998 0.930 . S
H990 C1000 0.930 . S
H991 C1003 0.929 . S
H992 C1006 0.930 . S
H993 C1008 0.960 . S
H994 C1008 0.960 . S
H995 C1008 0.960 . S
C996 H988 0.929 . S
C996 C997 1.377 . S
C996 C998 1.384 . S
C997 C996 1.377 . S
C997 C1003 1.390 . S
C998 H989 0.930 . S
C998 C996 1.384 . S
C998 C999 1.372 . S
C999 C998 1.372 . S
C999 C1000 1.400 . S
C999 C1004 1.490 . S
C1000 H990 0.930 . S
C1000 C999 1.400 . S
C1000 C1003 1.386 . S
H1001 C1017 0.930 . S
H1002 C1018 0.931 . S
C1003 H991 0.929 . S
C1003 C997 1.390 . S
C1003 C1000 1.386 . S
C1004 C999 1.490 . S
C1004 C1006 1.395 . S
C1004 C1007 1.403 . S
H1005 C1011 0.930 . S
C1006 H992 0.930 . S
C1006 C1004 1.395 . S
C1006 C1009 1.403 . S
C1007 C1004 1.403 . S
C1007 C1008 1.524 . S
C1007 C1011 1.400 . S
C1008 H993 0.960 . S
C1008 H994 0.960 . S
C1008 H995 0.960 . S
C1008 C1007 1.524 . S
C1009 C1006 1.403 . S
C1009 C1010 1.392 . S
C1009 C1013 1.495 1_556 S
C1010 C1009 1.392 . S
C1010 C1011 1.385 . S
C1010 C1012 1.478 1_556 S
C1011 H1005 0.930 . S
C1011 C1007 1.400 . S
C1011 C1010 1.385 . S
C1012 C1010 1.478 1_554 S
C1012 C1014 1.381 . S
C1012 C1018 1.383 . S
C1013 C1009 1.495 1_554 S
C1013 H1019 0.959 . S
C1013 H1020 0.961 . S
C1013 H1021 0.960 . S
C1014 C1012 1.381 . S
C1014 C1015 1.394 . S
C1014 H1022 0.930 1_554 S
C1015 C1014 1.394 . S
C1015 C1016 1.383 . S
C1015 H1023 0.929 . S
C1016 C1015 1.383 . S
C1016 C1017 1.377 . S
C1017 H1001 0.930 . S
C1017 C1016 1.377 . S
C1017 C1018 1.379 . S
C1018 H1002 0.931 . S
C1018 C1012 1.383 . S
C1018 C1017 1.379 . S
H1019 C1013 0.959 . S
H1020 C1013 0.961 . S
H1021 C1013 0.960 . S
H1022 C1014 0.930 1_556 S
H1023 C1015 0.929 . S
H1024 C1032 0.929 . S
H1025 C1034 0.930 . S
H1026 C1036 0.930 . S
H1027 C1039 0.929 . S
H1028 C1042 0.930 . S
H1029 C1044 0.960 . S
H1030 C1044 0.960 . S
H1031 C1044 0.960 . S
C1032 H1024 0.929 . S
C1032 C1033 1.377 . S
C1032 C1034 1.384 . S
C1033 C1032 1.377 . S
C1033 C1039 1.390 . S
C1034 H1025 0.930 . S
C1034 C1032 1.384 . S
C1034 C1035 1.372 . S
C1035 C1034 1.372 . S
C1035 C1036 1.400 . S
C1035 C1040 1.490 . S
C1036 H1026 0.930 . S
C1036 C1035 1.400 . S
C1036 C1039 1.386 . S
H1037 C1053 0.930 . S
H1038 C1054 0.931 . S
C1039 H1027 0.929 . S
C1039 C1033 1.390 . S
C1039 C1036 1.386 . S
C1040 C1035 1.490 . S
C1040 C1042 1.395 . S
C1040 C1043 1.403 . S
H1041 C1047 0.930 . S
C1042 H1028 0.930 . S
C1042 C1040 1.395 . S
C1042 C1045 1.403 . S
C1043 C1040 1.403 . S
C1043 C1044 1.524 . S
C1043 C1047 1.400 . S
C1044 H1029 0.960 . S
C1044 H1030 0.960 . S
C1044 H1031 0.960 . S
C1044 C1043 1.524 . S
C1045 C1042 1.403 . S
C1045 C1046 1.392 . S
C1045 C1049 1.495 . S
C1046 C1045 1.392 . S
C1046 C1047 1.385 . S
C1046 C1048 1.478 . S
C1047 H1041 0.930 . S
C1047 C1043 1.400 . S
C1047 C1046 1.385 . S
C1048 C1046 1.478 . S
C1048 C1050 1.381 . S
C1048 C1054 1.383 . S
C1049 C1045 1.495 . S
C1049 H1055 0.959 . S
C1049 H1056 0.961 . S
C1049 H1057 0.960 . S
C1050 C1048 1.381 . S
C1050 C1051 1.394 . S
C1050 H1058 0.930 . S
C1051 C1050 1.394 . S
C1051 C1052 1.383 . S
C1051 H1059 0.929 . S
C1052 C1051 1.383 . S
C1052 C1053 1.377 . S
C1053 H1037 0.930 . S
C1053 C1052 1.377 . S
C1053 C1054 1.379 . S
C1054 H1038 0.931 . S
C1054 C1048 1.383 . S
C1054 C1053 1.379 . S
H1055 C1049 0.959 . S
H1056 C1049 0.961 . S
H1057 C1049 0.960 . S
H1058 C1050 0.930 . S
H1059 C1051 0.929 . S
H1060 C1068 0.929 . S
H1061 C1070 0.930 . S
H1062 C1072 0.872 1_545 S
H1063 C1075 0.929 . S
H1064 C1078 0.930 . S
H1065 C1080 0.960 . S
H1066 C1080 0.960 . S
H1067 C1080 0.960 . S
C1068 H1060 0.929 . S
C1068 C1069 1.377 . S
C1068 C1070 1.384 . S
C1069 C1068 1.377 . S
C1069 C1075 1.390 . S
C1070 H1061 0.930 . S
C1070 C1068 1.384 . S
C1070 C1071 1.372 . S
C1071 C1070 1.372 . S
C1071 C1072 1.400 . S
C1071 C1076 1.490 . S
C1072 H1062 0.872 1_565 S
C1072 C1071 1.400 . S
C1072 C1075 1.386 . S
H1073 C1089 0.930 . S
H1074 C1090 0.931 1_554 S
C1075 H1063 0.929 . S
C1075 C1069 1.390 . S
C1075 C1072 1.386 . S
C1076 C1071 1.490 . S
C1076 C1078 1.395 . S
C1076 C1079 1.403 1_565 S
H1077 C1083 0.930 . S
C1078 H1064 0.930 . S
C1078 C1076 1.395 . S
C1078 C1081 1.403 . S
C1079 C1076 1.403 1_545 S
C1079 C1080 1.524 . S
C1079 C1083 1.400 . S
C1080 H1065 0.960 . S
C1080 H1066 0.960 . S
C1080 H1067 0.960 . S
C1080 C1079 1.524 . S
C1081 C1078 1.403 . S
C1081 C1082 1.392 1_565 S
C1081 C1085 1.495 . S
C1082 C1081 1.392 1_545 S
C1082 C1083 1.385 . S
C1082 C1084 1.478 . S
C1083 H1077 0.930 . S
C1083 C1079 1.400 . S
C1083 C1082 1.385 . S
C1084 C1082 1.478 . S
C1084 C1086 1.381 1_554 S
C1084 C1090 1.383 1_554 S
C1085 C1081 1.495 . S
C1085 H1091 0.959 . S
C1085 H1092 0.961 . S
C1085 H1093 0.960 . S
C1086 C1084 1.381 1_556 S
C1086 C1087 1.394 . S
C1086 H1094 0.892 1_545 S
C1087 C1086 1.394 . S
C1087 C1088 1.383 . S
C1087 H1095 0.929 . S
C1088 C1087 1.383 . S
C1088 C1089 1.377 . S
C1089 H1073 0.930 . S
C1089 C1088 1.377 . S
C1089 C1090 1.379 . S
C1090 H1074 0.931 1_556 S
C1090 C1084 1.383 1_556 S
C1090 C1089 1.379 . S
H1091 C1085 0.959 . S
H1092 C1085 0.961 . S
H1093 C1085 0.960 . S
H1094 C1086 0.892 1_565 S
H1095 C1087 0.929 . S
H1096 C1104 0.929 . S
H1097 C1106 0.930 . S
H1098 C1108 0.930 . S
H1099 C1111 0.929 . S
H1100 C1114 0.930 . S
H1101 C1116 0.960 . S
H1102 C1116 0.960 . S
H1103 C1116 0.960 . S
C1104 H1096 0.929 . S
C1104 C1105 1.377 . S
C1104 C1106 1.384 . S
C1105 C1104 1.377 . S
C1105 C1111 1.390 . S
C1106 H1097 0.930 . S
C1106 C1104 1.384 . S
C1106 C1107 1.372 . S
C1107 C1106 1.372 . S
C1107 C1108 1.400 . S
C1107 C1112 1.490 . S
C1108 H1098 0.930 . S
C1108 C1107 1.400 . S
C1108 C1111 1.386 . S
H1109 C1125 0.930 . S
H1110 C1126 0.931 . S
C1111 H1099 0.929 . S
C1111 C1105 1.390 . S
C1111 C1108 1.386 . S
C1112 C1107 1.490 . S
C1112 C1114 1.395 . S
C1112 C1115 1.403 . S
H1113 C1119 0.930 . S
C1114 H1100 0.930 . S
C1114 C1112 1.395 . S
C1114 C1117 1.403 . S
C1115 C1112 1.403 . S
C1115 C1116 1.524 . S
C1115 C1119 1.400 . S
C1116 H1101 0.960 . S
C1116 H1102 0.960 . S
C1116 H1103 0.960 . S
C1116 C1115 1.524 . S
C1117 C1114 1.403 . S
C1117 C1118 1.392 . S
C1117 C1121 1.495 . S
C1118 C1117 1.392 . S
C1118 C1119 1.385 . S
C1118 C1120 1.478 . S
C1119 H1113 0.930 . S
C1119 C1115 1.400 . S
C1119 C1118 1.385 . S
C1120 C1118 1.478 . S
C1120 C1122 1.381 . S
C1120 C1126 1.383 . S
C1121 C1117 1.495 . S
C1121 H1127 0.959 . S
C1121 H1128 0.961 . S
C1121 H1129 0.960 . S
C1122 C1120 1.381 . S
C1122 C1123 1.394 . S
C1122 H1130 0.930 . S
C1123 C1122 1.394 . S
C1123 C1124 1.383 . S
C1123 H1131 0.929 . S
C1124 C1123 1.383 . S
C1124 C1125 1.377 . S
C1125 H1109 0.930 . S
C1125 C1124 1.377 . S
C1125 C1126 1.379 . S
C1126 H1110 0.931 . S
C1126 C1120 1.383 . S
C1126 C1125 1.379 . S
H1127 C1121 0.959 . S
H1128 C1121 0.961 . S
H1129 C1121 0.960 . S
H1130 C1122 0.930 . S
H1131 C1123 0.929 . S
H1132 C1140 0.929 . S
H1133 C1142 0.930 1_565 S
H1134 C1144 0.930 . S
H1135 C1147 0.929 . S
H1136 C1150 0.930 . S
H1137 C1152 0.960 . S
H1138 C1152 0.960 . S
H1139 C1152 0.960 . S
C1140 H1132 0.929 . S
C1140 C1141 1.377 . S
C1140 C1142 1.384 . S
C1141 C1140 1.377 . S
C1141 C1147 1.390 . S
C1142 H1133 0.930 1_545 S
C1142 C1140 1.384 . S
C1142 C1143 1.372 . S
C1143 C1142 1.372 . S
C1143 C1144 1.400 . S
C1143 C1148 1.490 . S
C1144 H1134 0.930 . S
C1144 C1143 1.400 . S
C1144 C1147 1.386 . S
H1145 C1161 0.930 . S
H1146 C1162 0.931 1_545 S
C1147 H1135 0.929 . S
C1147 C1141 1.390 . S
C1147 C1144 1.386 . S
C1148 C1143 1.490 . S
C1148 C1150 1.395 1_545 S
C1148 C1151 1.403 . S
H1149 C1155 0.945 . S
C1150 H1136 0.930 . S
C1150 C1148 1.395 1_565 S
C1150 C1153 1.403 . S
C1151 C1148 1.403 . S
C1151 C1152 1.524 . S
C1151 C1155 1.437 . S
C1152 H1137 0.960 . S
C1152 H1138 0.960 . S
C1152 H1139 0.960 . S
C1152 C1151 1.524 . S
C1153 C1150 1.403 . S
C1153 C1154 1.392 . S
C1153 C1157 1.495 . S
C1154 C1153 1.392 . S
C1154 C1155 1.341 1_565 S
C1154 C1156 1.478 . S
C1155 H1149 0.945 . S
C1155 C1151 1.437 . S
C1155 C1154 1.341 1_545 S
C1156 C1154 1.478 . S
C1156 C1158 1.381 . S
C1156 C1162 1.383 . S
C1157 C1153 1.495 . S
C1157 H1163 0.959 . S
C1157 H1164 0.961 . S
C1157 H1165 0.960 . S
C1158 C1156 1.381 . S
C1158 C1159 1.394 . S
C1158 H1166 0.930 . S
C1159 C1158 1.394 . S
C1159 C1160 1.383 . S
C1159 H1167 0.929 . S
C1160 C1159 1.383 . S
C1160 C1161 1.377 . S
C1161 H1145 0.930 . S
C1161 C1160 1.377 . S
C1161 C1162 1.379 . S
C1162 H1146 0.931 1_565 S
C1162 C1156 1.383 . S
C1162 C1161 1.379 . S
H1163 C1157 0.959 . S
H1164 C1157 0.961 . S
H1165 C1157 0.960 . S
H1166 C1158 0.930 . S
H1167 C1159 0.929 . S
H1168 C1176 0.929 . S
H1169 C1178 0.930 . S
H1170 C1180 0.930 . S
H1171 C1183 0.929 . S
H1172 C1186 0.930 . S
H1173 C1188 0.960 . S
H1174 C1188 0.960 . S
H1175 C1188 0.960 . S
C1176 H1168 0.929 . S
C1176 C1177 1.377 . S
C1176 C1178 1.384 . S
C1177 C1176 1.377 . S
C1177 C1183 1.390 . S
C1178 H1169 0.930 . S
C1178 C1176 1.384 . S
C1178 C1179 1.372 . S
C1179 C1178 1.372 . S
C1179 C1180 1.400 . S
C1179 C1184 1.490 . S
C1180 H1170 0.930 . S
C1180 C1179 1.400 . S
C1180 C1183 1.386 . S
H1181 C1197 0.930 . S
H1182 C1198 0.931 . S
C1183 H1171 0.929 . S
C1183 C1177 1.390 . S
C1183 C1180 1.386 . S
C1184 C1179 1.490 . S
C1184 C1186 1.395 . S
C1184 C1187 1.403 . S
H1185 C1191 0.930 . S
C1186 H1172 0.930 . S
C1186 C1184 1.395 . S
C1186 C1189 1.403 . S
C1187 C1184 1.403 . S
C1187 C1188 1.524 . S
C1187 C1191 1.400 . S
C1188 H1173 0.960 . S
C1188 H1174 0.960 . S
C1188 H1175 0.960 . S
C1188 C1187 1.524 . S
C1189 C1186 1.403 . S
C1189 C1190 1.392 . S
C1189 C1193 1.495 . S
C1190 C1189 1.392 . S
C1190 C1191 1.385 . S
C1190 C1192 1.478 . S
C1191 H1185 0.930 . S
C1191 C1187 1.400 . S
C1191 C1190 1.385 . S
C1192 C1190 1.478 . S
C1192 C1194 1.381 . S
C1192 C1198 1.383 . S
C1193 C1189 1.495 . S
C1193 H1199 0.959 . S
C1193 H1200 0.961 . S
C1193 H1201 0.960 . S
C1194 C1192 1.381 . S
C1194 C1195 1.394 . S
C1194 H1202 0.930 . S
C1195 C1194 1.394 . S
C1195 C1196 1.383 . S
C1195 H1203 0.929 . S
C1196 C1195 1.383 . S
C1196 C1197 1.377 . S
C1197 H1181 0.930 . S
C1197 C1196 1.377 . S
C1197 C1198 1.379 . S
C1198 H1182 0.931 . S
C1198 C1192 1.383 . S
C1198 C1197 1.379 . S
H1199 C1193 0.959 . S
H1200 C1193 0.961 . S
H1201 C1193 0.960 . S
H1202 C1194 0.930 . S
H1203 C1195 0.929 . S
H1204 C1212 0.929 . S
H1205 C1214 0.930 . S
H1206 C1216 0.930 1_565 S
H1207 C1219 0.929 . S
H1208 C1222 0.930 . S
H1209 C1224 0.960 . S
H1210 C1224 0.960 . S
H1211 C1224 0.960 . S
C1212 H1204 0.929 . S
C1212 C1213 1.377 . S
C1212 C1214 1.384 1_556 S
C1213 C1212 1.377 . S
C1213 C1219 1.390 . S
C1214 H1205 0.930 . S
C1214 C1212 1.384 1_554 S
C1214 C1215 1.372 . S
C1215 C1214 1.372 . S
C1215 C1216 1.400 1_554 S
C1215 C1220 1.490 . S
C1216 H1206 0.930 1_545 S
C1216 C1215 1.400 1_556 S
C1216 C1219 1.386 . S
H1217 C1233 0.930 . S
H1218 C1234 0.931 . S
C1219 H1207 0.929 . S
C1219 C1213 1.390 . S
C1219 C1216 1.386 . S
C1220 C1215 1.490 . S
C1220 C1222 1.395 . S
C1220 C1223 1.403 1_545 S
H1221 C1227 0.930 . S
C1222 H1208 0.930 . S
C1222 C1220 1.395 . S
C1222 C1225 1.403 . S
C1223 C1220 1.403 1_565 S
C1223 C1224 1.524 . S
C1223 C1227 1.400 . S
C1224 H1209 0.960 . S
C1224 H1210 0.960 . S
C1224 H1211 0.960 . S
C1224 C1223 1.524 . S
C1225 C1222 1.403 . S
C1225 C1226 1.392 1_545 S
C1225 C1229 1.495 . S
C1226 C1225 1.392 1_565 S
C1226 C1227 1.385 . S
C1226 C1228 1.478 . S
C1227 H1221 0.930 . S
C1227 C1223 1.400 . S
C1227 C1226 1.385 . S
C1228 C1226 1.478 . S
C1228 C1230 1.381 . S
C1228 C1234 1.383 . S
C1229 C1225 1.495 . S
C1229 H1235 0.959 . S
C1229 H1236 0.961 . S
C1229 H1237 0.960 . S
C1230 C1228 1.381 . S
C1230 C1231 1.394 . S
C1230 H1238 0.930 1_565 S
C1231 C1230 1.394 . S
C1231 C1232 1.383 . S
C1231 H1239 0.929 . S
C1232 C1231 1.383 . S
C1232 C1233 1.377 . S
C1233 H1217 0.930 . S
C1233 C1232 1.377 . S
C1233 C1234 1.379 . S
C1234 H1218 0.931 . S
C1234 C1228 1.383 . S
C1234 C1233 1.379 . S
H1235 C1229 0.959 . S
H1236 C1229 0.961 . S
H1237 C1229 0.960 . S
H1238 C1230 0.930 1_545 S
H1239 C1231 0.929 . S
H1240 C1248 0.929 . S
H1241 C1250 0.930 . S
H1242 C1252 0.930 . S
H1243 C1255 0.929 1_554 S
H1244 C1258 0.930 . S
H1245 C1260 0.960 . S
H1246 C1260 0.960 . S
H1247 C1260 0.960 . S
C1248 H1240 0.929 . S
C1248 C1249 1.377 . S
C1248 C1250 1.384 . S
C1249 C1248 1.377 . S
C1249 C1255 1.390 . S
C1250 H1241 0.930 . S
C1250 C1248 1.384 . S
C1250 C1251 1.372 . S
C1251 C1250 1.372 . S
C1251 C1252 1.400 . S
C1251 C1256 1.490 . S
C1252 H1242 0.930 . S
C1252 C1251 1.400 . S
C1252 C1255 1.386 . S
H1253 C1269 0.930 . S
H1254 C1270 0.931 . S
C1255 H1243 0.929 1_556 S
C1255 C1249 1.390 . S
C1255 C1252 1.386 . S
C1256 C1251 1.490 . S
C1256 C1258 1.395 . S
C1256 C1259 1.403 . S
H1257 C1263 0.930 . S
C1258 H1244 0.930 . S
C1258 C1256 1.395 . S
C1258 C1261 1.403 . S
C1259 C1256 1.403 . S
C1259 C1260 1.524 . S
C1259 C1263 1.400 . S
C1260 H1245 0.960 . S
C1260 H1246 0.960 . S
C1260 H1247 0.960 . S
C1260 C1259 1.524 . S
C1261 C1258 1.403 . S
C1261 C1262 1.392 . S
C1261 C1265 1.495 . S
C1262 C1261 1.392 . S
C1262 C1263 1.385 . S
C1262 C1264 1.478 . S
C1263 H1257 0.930 . S
C1263 C1259 1.400 . S
C1263 C1262 1.385 . S
C1264 C1262 1.478 . S
C1264 C1266 1.381 . S
C1264 C1270 1.383 . S
C1265 C1261 1.495 . S
C1265 H1271 0.959 . S
C1265 H1272 0.961 . S
C1265 H1273 0.960 . S
C1266 C1264 1.381 . S
C1266 C1267 1.394 . S
C1266 H1274 0.930 . S
C1267 C1266 1.394 . S
C1267 C1268 1.383 . S
C1267 H1275 0.929 . S
C1268 C1267 1.383 . S
C1268 C1269 1.377 . S
C1269 H1253 0.930 . S
C1269 C1268 1.377 . S
C1269 C1270 1.379 . S
C1270 H1254 0.931 . S
C1270 C1264 1.383 . S
C1270 C1269 1.379 . S
H1271 C1265 0.959 . S
H1272 C1265 0.961 . S
H1273 C1265 0.960 . S
H1274 C1266 0.930 . S
H1275 C1267 0.929 . S
H1276 C1284 0.929 . S
H1277 C1286 0.930 . S
H1278 C1288 0.930 1_565 S
H1279 C1291 0.929 . S
H1280 C1294 0.930 . S
H1281 C1296 0.979 . S
H1282 C1296 0.960 . S
H1283 C1296 0.947 1_565 S
C1284 H1276 0.929 . S
C1284 C1285 1.377 . S
C1284 C1286 1.384 . S
C1285 C1284 1.377 . S
C1285 C1291 1.390 . S
C1286 H1277 0.930 . S
C1286 C1284 1.384 . S
C1286 C1287 1.372 . S
C1287 C1286 1.372 . S
C1287 C1288 1.400 . S
C1287 C1292 1.490 . S
C1288 H1278 0.930 1_545 S
C1288 C1287 1.400 . S
C1288 C1291 1.386 . S
H1289 C1305 0.930 . S
H1290 C1306 0.931 . S
C1291 H1279 0.929 . S
C1291 C1285 1.390 . S
C1291 C1288 1.386 . S
C1292 C1287 1.490 . S
C1292 C1294 1.395 . S
C1292 C1295 1.403 . S
H1293 C1299 0.930 . S
C1294 H1280 0.930 . S
C1294 C1292 1.395 . S
C1294 C1297 1.395 1_545 S
C1295 C1292 1.403 . S
C1295 C1296 1.524 . S
C1295 C1299 1.400 1_545 S
C1296 H1281 0.979 . S
C1296 H1282 0.960 . S
C1296 H1283 0.947 1_545 S
C1296 C1295 1.524 . S
C1297 C1294 1.395 1_565 S
C1297 C1298 1.399 . S
C1297 C1301 1.497 . S
C1298 C1297 1.399 . S
C1298 C1299 1.385 . S
C1298 C1300 1.478 . S
C1299 H1293 0.930 . S
C1299 C1295 1.400 1_565 S
C1299 C1298 1.385 . S
C1300 C1298 1.478 . S
C1300 C1302 1.381 . S
C1300 C1306 1.383 . S
C1301 C1297 1.497 . S
C1301 H1307 0.959 1_565 S
C1301 H1308 0.961 . S
C1301 H1309 0.960 1_565 S
C1302 C1300 1.381 . S
C1302 C1303 1.394 . S
C1302 H1310 0.930 1_565 S
C1303 C1302 1.394 . S
C1303 C1304 1.383 . S
C1303 H1311 0.929 . S
C1304 C1303 1.383 . S
C1304 C1305 1.377 . S
C1305 H1289 0.930 . S
C1305 C1304 1.377 . S
C1305 C1306 1.379 . S
C1306 H1290 0.931 . S
C1306 C1300 1.383 . S
C1306 C1305 1.379 . S
H1307 C1301 0.959 1_545 S
H1308 C1301 0.961 . S
H1309 C1301 0.960 1_545 S
H1310 C1302 0.930 1_545 S
H1311 C1303 0.929 . S
H1312 C1320 0.929 . S
H1313 C1322 0.930 . S
H1314 C1324 0.930 . S
H1315 C1327 0.929 . S
H1316 C1330 0.930 . S
H1317 C1332 0.960 . S
H1318 C1332 0.960 . S
H1319 C1332 0.960 . S
C1320 H1312 0.929 . S
C1320 C1321 1.377 . S
C1320 C1322 1.384 . S
C1321 C1320 1.377 . S
C1321 C1327 1.390 . S
C1322 H1313 0.930 . S
C1322 C1320 1.384 . S
C1322 C1323 1.372 . S
C1323 C1322 1.372 . S
C1323 C1324 1.400 . S
C1323 C1328 1.490 . S
C1324 H1314 0.930 . S
C1324 C1323 1.400 . S
C1324 C1327 1.386 . S
H1325 C1341 0.930 . S
H1326 C1342 0.931 . S
C1327 H1315 0.929 . S
C1327 C1321 1.390 . S
C1327 C1324 1.386 . S
C1328 C1323 1.490 . S
C1328 C1330 1.395 . S
C1328 C1331 1.403 . S
H1329 C1335 0.930 . S
C1330 H1316 0.930 . S
C1330 C1328 1.395 . S
C1330 C1333 1.403 . S
C1331 C1328 1.403 . S
C1331 C1332 1.524 . S
C1331 C1335 1.400 . S
C1332 H1317 0.960 . S
C1332 H1318 0.960 . S
C1332 H1319 0.960 . S
C1332 C1331 1.524 . S
C1333 C1330 1.403 . S
C1333 C1334 1.392 . S
C1333 C1337 1.495 . S
C1334 C1333 1.392 . S
C1334 C1335 1.385 . S
C1334 C1336 1.478 . S
C1335 H1329 0.930 . S
C1335 C1331 1.400 . S
C1335 C1334 1.385 . S
C1336 C1334 1.478 . S
C1336 C1338 1.381 . S
C1336 C1342 1.383 . S
C1337 C1333 1.495 . S
C1337 H1343 0.959 . S
C1337 H1344 0.961 . S
C1337 H1345 0.960 . S
C1338 C1336 1.381 . S
C1338 C1339 1.394 . S
C1338 H1346 0.930 . S
C1339 C1338 1.394 . S
C1339 C1340 1.383 . S
C1339 H1347 0.929 . S
C1340 C1339 1.383 . S
C1340 C1341 1.377 . S
C1341 H1325 0.930 . S
C1341 C1340 1.377 . S
C1341 C1342 1.379 . S
C1342 H1326 0.931 . S
C1342 C1336 1.383 . S
C1342 C1341 1.379 . S
H1343 C1337 0.959 . S
H1344 C1337 0.961 . S
H1345 C1337 0.960 . S
H1346 C1338 0.930 . S
H1347 C1339 0.929 . S
H1348 C1356 0.929 . S
H1349 C1358 0.930 . S
H1350 C1360 0.930 . S
H1351 C1363 0.929 . S
H1352 C1366 0.930 . S
H1353 C1368 0.960 . S
H1354 C1368 0.960 . S
H1355 C1368 0.960 . S
C1356 H1348 0.929 . S
C1356 C1357 1.377 . S
C1356 C1358 1.384 . S
C1357 C1356 1.377 . S
C1357 C1363 1.390 . S
C1358 H1349 0.930 . S
C1358 C1356 1.384 . S
C1358 C1359 1.372 . S
C1359 C1358 1.372 . S
C1359 C1360 1.400 . S
C1359 C1364 1.490 . S
C1360 H1350 0.930 . S
C1360 C1359 1.400 . S
C1360 C1363 1.386 . S
H1361 C1377 0.930 . S
H1362 C1378 0.931 . S
C1363 H1351 0.929 . S
C1363 C1357 1.390 . S
C1363 C1360 1.386 . S
C1364 C1359 1.490 . S
C1364 C1366 1.395 . S
C1364 C1367 1.403 . S
H1365 C1371 0.930 . S
C1366 H1352 0.930 . S
C1366 C1364 1.395 . S
C1366 C1369 1.403 . S
C1367 C1364 1.403 . S
C1367 C1368 1.524 . S
C1367 C1371 1.400 . S
C1368 H1353 0.960 . S
C1368 H1354 0.960 . S
C1368 H1355 0.960 . S
C1368 C1367 1.524 . S
C1369 C1366 1.403 . S
C1369 C1370 1.392 . S
C1369 C1373 1.495 . S
C1370 C1369 1.392 . S
C1370 C1371 1.385 . S
C1370 C1372 1.478 . S
C1371 H1365 0.930 . S
C1371 C1367 1.400 . S
C1371 C1370 1.385 . S
C1372 C1370 1.478 . S
C1372 C1374 1.381 . S
C1372 C1378 1.383 . S
C1373 C1369 1.495 . S
C1373 H1379 0.959 . S
C1373 H1380 0.961 . S
C1373 H1381 0.960 . S
C1374 C1372 1.381 . S
C1374 C1375 1.394 . S
C1374 H1382 0.930 . S
C1375 C1374 1.394 . S
C1375 C1376 1.383 . S
C1375 H1383 0.929 . S
C1376 C1375 1.383 . S
C1376 C1377 1.377 . S
C1377 H1361 0.930 . S
C1377 C1376 1.377 . S
C1377 C1378 1.379 . S
C1378 H1362 0.931 . S
C1378 C1372 1.383 . S
C1378 C1377 1.379 . S
H1379 C1373 0.959 . S
H1380 C1373 0.961 . S
H1381 C1373 0.960 . S
H1382 C1374 0.930 . S
H1383 C1375 0.929 . S
H1384 C1392 0.929 . S
H1385 C1394 0.930 . S
H1386 C1396 0.930 . S
H1387 C1399 0.929 . S
H1388 C1402 0.930 . S
H1389 C1404 0.960 . S
H1390 C1404 0.960 . S
H1391 C1404 0.960 . S
C1392 H1384 0.929 . S
C1392 C1393 1.377 . S
C1392 C1394 1.384 . S
C1393 C1392 1.377 . S
C1393 C1399 1.390 . S
C1394 H1385 0.930 . S
C1394 C1392 1.384 . S
C1394 C1395 1.372 . S
C1395 C1394 1.372 . S
C1395 C1396 1.400 . S
C1395 C1400 1.490 . S
C1396 H1386 0.930 . S
C1396 C1395 1.400 . S
C1396 C1399 1.386 . S
H1397 C1413 0.930 . S
H1398 C1414 0.931 . S
C1399 H1387 0.929 . S
C1399 C1393 1.390 . S
C1399 C1396 1.386 . S
C1400 C1395 1.490 . S
C1400 C1402 1.395 . S
C1400 C1403 1.403 . S
H1401 C1407 0.930 . S
C1402 H1388 0.930 . S
C1402 C1400 1.395 . S
C1402 C1405 1.403 . S
C1403 C1400 1.403 . S
C1403 C1404 1.524 . S
C1403 C1407 1.400 . S
C1404 H1389 0.960 . S
C1404 H1390 0.960 . S
C1404 H1391 0.960 . S
C1404 C1403 1.524 . S
C1405 C1402 1.403 . S
C1405 C1406 1.392 . S
C1405 C1409 1.495 . S
C1406 C1405 1.392 . S
C1406 C1407 1.385 . S
C1406 C1408 1.478 . S
C1407 H1401 0.930 . S
C1407 C1403 1.400 . S
C1407 C1406 1.385 . S
C1408 C1406 1.478 . S
C1408 C1410 1.381 . S
C1408 C1414 1.383 . S
C1409 C1405 1.495 . S
C1409 H1415 0.959 . S
C1409 H1416 0.961 . S
C1409 H1417 0.960 . S
C1410 C1408 1.381 . S
C1410 C1411 1.394 . S
C1410 H1418 0.930 . S
C1411 C1410 1.394 . S
C1411 C1412 1.383 . S
C1411 H1419 0.929 1_556 S
C1412 C1411 1.383 . S
C1412 C1413 1.377 . S
C1413 H1397 0.930 . S
C1413 C1412 1.377 . S
C1413 C1414 1.379 . S
C1414 H1398 0.931 . S
C1414 C1408 1.383 . S
C1414 C1413 1.379 . S
H1415 C1409 0.959 . S
H1416 C1409 0.961 . S
H1417 C1409 0.960 . S
H1418 C1410 0.930 . S
H1419 C1411 0.929 1_554 S
H1420 C1428 0.929 . S
H1421 C1430 0.930 . S
H1422 C1432 0.930 . S
H1423 C1435 0.929 . S
H1424 C1438 0.930 . S
H1425 C1440 0.960 . S
H1426 C1440 0.960 . S
H1427 C1440 0.960 . S
C1428 H1420 0.929 . S
C1428 C1429 1.377 . S
C1428 C1430 1.384 . S
C1429 C1428 1.377 . S
C1429 C1435 1.390 . S
C1430 H1421 0.930 . S
C1430 C1428 1.384 . S
C1430 C1431 1.372 . S
C1431 C1430 1.372 . S
C1431 C1432 1.400 . S
C1431 C1436 1.490 . S
C1432 H1422 0.930 . S
C1432 C1431 1.400 . S
C1432 C1435 1.386 . S
H1433 C1449 0.930 . S
H1434 C1450 0.931 . S
C1435 H1423 0.929 . S
C1435 C1429 1.390 . S
C1435 C1432 1.386 . S
C1436 C1431 1.490 . S
C1436 C1438 1.395 . S
C1436 C1439 1.403 . S
H1437 C1443 0.930 . S
C1438 H1424 0.930 . S
C1438 C1436 1.395 . S
C1438 C1441 1.403 . S
C1439 C1436 1.403 . S
C1439 C1440 1.524 . S
C1439 C1443 1.400 . S
C1440 H1425 0.960 . S
C1440 H1426 0.960 . S
C1440 H1427 0.960 . S
C1440 C1439 1.524 . S
C1441 C1438 1.403 . S
C1441 C1442 1.392 . S
C1441 C1445 1.495 . S
C1442 C1441 1.392 . S
C1442 C1443 1.385 . S
C1442 C1444 1.478 . S
C1443 H1437 0.930 . S
C1443 C1439 1.400 . S
C1443 C1442 1.385 . S
C1444 C1442 1.478 . S
C1444 C1446 1.381 . S
C1444 C1450 1.383 1_554 S
C1445 C1441 1.495 . S
C1445 H1451 0.959 . S
C1445 H1452 0.961 . S
C1445 H1453 0.960 . S
C1446 C1444 1.381 . S
C1446 C1447 1.394 1_554 S
C1446 H1454 0.930 . S
C1447 C1446 1.394 1_556 S
C1447 C1448 1.383 . S
C1447 H1455 0.929 . S
C1448 C1447 1.383 . S
C1448 C1449 1.377 . S
C1449 H1433 0.930 . S
C1449 C1448 1.377 . S
C1449 C1450 1.379 . S
C1450 H1434 0.931 . S
C1450 C1444 1.383 1_556 S
C1450 C1449 1.379 . S
H1451 C1445 0.959 . S
H1452 C1445 0.961 . S
H1453 C1445 0.960 . S
H1454 C1446 0.930 . S
H1455 C1447 0.929 . S
H1456 C1464 0.929 . S
H1457 C1466 0.930 . S
H1458 C1468 0.930 . S
H1459 C1471 0.929 . S
H1460 C1474 0.930 . S
H1461 C1476 0.960 . S
H1462 C1476 0.960 . S
H1463 C1476 0.960 . S
C1464 H1456 0.929 . S
C1464 C1465 1.377 . S
C1464 C1466 1.384 . S
C1465 C1464 1.377 . S
C1465 C1471 1.390 . S
C1466 H1457 0.930 . S
C1466 C1464 1.384 . S
C1466 C1467 1.372 . S
C1467 C1466 1.372 . S
C1467 C1468 1.400 . S
C1467 C1472 1.490 . S
C1468 H1458 0.930 . S
C1468 C1467 1.400 . S
C1468 C1471 1.386 . S
H1469 C1485 0.930 . S
H1470 C1486 0.931 . S
C1471 H1459 0.929 . S
C1471 C1465 1.390 . S
C1471 C1468 1.386 . S
C1472 C1467 1.490 . S
C1472 C1474 1.395 . S
C1472 C1475 1.403 . S
H1473 C1479 0.930 . S
C1474 H1460 0.930 . S
C1474 C1472 1.395 . S
C1474 C1477 1.403 . S
C1475 C1472 1.403 . S
C1475 C1476 1.524 . S
C1475 C1479 1.400 . S
C1476 H1461 0.960 . S
C1476 H1462 0.960 . S
C1476 H1463 0.960 . S
C1476 C1475 1.524 . S
C1477 C1474 1.403 . S
C1477 C1478 1.392 . S
C1477 C1481 1.495 . S
C1478 C1477 1.392 . S
C1478 C1479 1.385 . S
C1478 C1480 1.478 . S
C1479 H1473 0.930 . S
C1479 C1475 1.400 . S
C1479 C1478 1.385 . S
C1480 C1478 1.478 . S
C1480 C1482 1.381 . S
C1480 C1486 1.383 . S
C1481 C1477 1.495 . S
C1481 H1487 0.959 . S
C1481 H1488 0.961 . S
C1481 H1489 0.960 . S
C1482 C1480 1.381 . S
C1482 C1483 1.394 . S
C1482 H1490 0.930 . S
C1483 C1482 1.394 . S
C1483 C1484 1.383 . S
C1483 H1491 0.929 1_556 S
C1484 C1483 1.383 . S
C1484 C1485 1.377 . S
C1485 H1469 0.930 . S
C1485 C1484 1.377 . S
C1485 C1486 1.379 . S
C1486 H1470 0.931 . S
C1486 C1480 1.383 . S
C1486 C1485 1.379 . S
H1487 C1481 0.959 . S
H1488 C1481 0.961 . S
H1489 C1481 0.960 . S
H1490 C1482 0.930 . S
H1491 C1483 0.929 1_554 S
H1492 C1500 0.929 . S
H1493 C1502 0.930 . S
H1494 C1504 0.930 . S
H1495 C1507 0.929 . S
H1496 C1510 0.930 . S
H1497 C1512 0.960 . S
H1498 C1512 0.960 . S
H1499 C1512 0.960 . S
C1500 H1492 0.929 . S
C1500 C1501 1.377 . S
C1500 C1502 1.384 . S
C1501 C1500 1.377 . S
C1501 C1507 1.390 . S
C1502 H1493 0.930 . S
C1502 C1500 1.384 . S
C1502 C1503 1.372 . S
C1503 C1502 1.372 . S
C1503 C1504 1.400 . S
C1503 C1508 1.490 . S
C1504 H1494 0.930 . S
C1504 C1503 1.400 . S
C1504 C1507 1.386 . S
H1505 C1521 0.930 . S
H1506 C1522 0.931 . S
C1507 H1495 0.929 . S
C1507 C1501 1.390 . S
C1507 C1504 1.386 . S
C1508 C1503 1.490 . S
C1508 C1510 1.395 . S
C1508 C1511 1.403 . S
H1509 C1515 0.930 . S
C1510 H1496 0.930 . S
C1510 C1508 1.395 . S
C1510 C1513 1.403 . S
C1511 C1508 1.403 . S
C1511 C1512 1.524 . S
C1511 C1515 1.400 . S
C1512 H1497 0.960 . S
C1512 H1498 0.960 . S
C1512 H1499 0.960 . S
C1512 C1511 1.524 . S
C1513 C1510 1.403 . S
C1513 C1514 1.392 . S
C1513 C1517 1.495 . S
C1514 C1513 1.392 . S
C1514 C1515 1.385 . S
C1514 C1516 1.478 . S
C1515 H1509 0.930 . S
C1515 C1511 1.400 . S
C1515 C1514 1.385 . S
C1516 C1514 1.478 . S
C1516 C1518 1.381 . S
C1516 C1522 1.383 . S
C1517 C1513 1.495 . S
C1517 H1523 0.959 . S
C1517 H1524 0.961 . S
C1517 H1525 0.960 . S
C1518 C1516 1.381 . S
C1518 C1519 1.394 . S
C1518 H1526 0.930 . S
C1519 C1518 1.394 . S
C1519 C1520 1.383 . S
C1519 H1527 0.929 . S
C1520 C1519 1.383 . S
C1520 C1521 1.377 . S
C1521 H1505 0.930 . S
C1521 C1520 1.377 . S
C1521 C1522 1.379 . S
C1522 H1506 0.931 . S
C1522 C1516 1.383 . S
C1522 C1521 1.379 . S
H1523 C1517 0.959 . S
H1524 C1517 0.961 . S
H1525 C1517 0.960 . S
H1526 C1518 0.930 . S
H1527 C1519 0.929 . S
H1528 C1536 0.929 . S
H1529 C1538 0.930 . S
H1530 C1540 0.930 . S
H1531 C1543 0.929 . S
H1532 C1546 0.930 . S
H1533 C1548 0.960 . S
H1534 C1548 0.960 . S
H1535 C1548 0.960 . S
C1536 H1528 0.929 . S
C1536 C1537 1.377 . S
C1536 C1538 1.384 . S
C1537 C1536 1.377 . S
C1537 C1543 1.390 . S
C1538 H1529 0.930 . S
C1538 C1536 1.384 . S
C1538 C1539 1.372 . S
C1539 C1538 1.372 . S
C1539 C1540 1.400 . S
C1539 C1544 1.490 . S
C1540 H1530 0.930 . S
C1540 C1539 1.400 . S
C1540 C1543 1.386 . S
H1541 C1557 0.930 . S
H1542 C1558 0.931 . S
C1543 H1531 0.929 . S
C1543 C1537 1.390 . S
C1543 C1540 1.386 . S
C1544 C1539 1.490 . S
C1544 C1546 1.395 . S
C1544 C1547 1.403 . S
H1545 C1551 0.930 . S
C1546 H1532 0.930 . S
C1546 C1544 1.395 . S
C1546 C1549 1.403 . S
C1547 C1544 1.403 . S
C1547 C1548 1.524 . S
C1547 C1551 1.400 . S
C1548 H1533 0.960 . S
C1548 H1534 0.960 . S
C1548 H1535 0.960 . S
C1548 C1547 1.524 . S
C1549 C1546 1.403 . S
C1549 C1550 1.392 . S
C1549 C1553 1.495 . S
C1550 C1549 1.392 . S
C1550 C1551 1.385 . S
C1550 C1552 1.478 . S
C1551 H1545 0.930 . S
C1551 C1547 1.400 . S
C1551 C1550 1.385 . S
C1552 C1550 1.478 . S
C1552 C1554 1.381 . S
C1552 C1558 1.383 . S
C1553 C1549 1.495 . S
C1553 H1559 0.959 . S
C1553 H1560 0.961 . S
C1553 H1561 0.960 . S
C1554 C1552 1.381 . S
C1554 C1555 1.394 . S
C1554 H1562 0.930 . S
C1555 C1554 1.394 . S
C1555 C1556 1.383 . S
C1555 H1563 0.929 . S
C1556 C1555 1.383 . S
C1556 C1557 1.377 . S
C1557 H1541 0.930 . S
C1557 C1556 1.377 . S
C1557 C1558 1.379 . S
C1558 H1542 0.931 . S
C1558 C1552 1.383 . S
C1558 C1557 1.379 . S
H1559 C1553 0.959 . S
H1560 C1553 0.961 . S
H1561 C1553 0.960 . S
H1562 C1554 0.930 . S
H1563 C1555 0.929 . S
H1564 C1572 0.929 . S
H1565 C1574 0.930 . S
H1566 C1576 0.930 . S
H1567 C1579 0.929 . S
H1568 C1582 0.930 . S
H1569 C1584 0.960 . S
H1570 C1584 0.960 . S
H1571 C1584 0.960 . S
C1572 H1564 0.929 . S
C1572 C1573 1.377 . S
C1572 C1574 1.384 . S
C1573 C1572 1.377 . S
C1573 C1579 1.390 . S
C1574 H1565 0.930 . S
C1574 C1572 1.384 . S
C1574 C1575 1.372 . S
C1575 C1574 1.372 . S
C1575 C1576 1.400 . S
C1575 C1580 1.490 . S
C1576 H1566 0.930 . S
C1576 C1575 1.400 . S
C1576 C1579 1.386 . S
H1577 C1593 0.930 . S
H1578 C1594 0.931 . S
C1579 H1567 0.929 . S
C1579 C1573 1.390 . S
C1579 C1576 1.386 . S
C1580 C1575 1.490 . S
C1580 C1582 1.395 . S
C1580 C1583 1.403 . S
H1581 C1587 0.930 . S
C1582 H1568 0.930 . S
C1582 C1580 1.395 . S
C1582 C1585 1.403 . S
C1583 C1580 1.403 . S
C1583 C1584 1.524 . S
C1583 C1587 1.400 . S
C1584 H1569 0.960 . S
C1584 H1570 0.960 . S
C1584 H1571 0.960 . S
C1584 C1583 1.524 . S
C1585 C1582 1.403 . S
C1585 C1586 1.392 . S
C1585 C1589 1.495 . S
C1586 C1585 1.392 . S
C1586 C1587 1.385 . S
C1586 C1588 1.478 . S
C1587 H1581 0.930 . S
C1587 C1583 1.400 . S
C1587 C1586 1.385 . S
C1588 C1586 1.478 . S
C1588 C1590 1.381 1_554 S
C1588 C1594 1.383 . S
C1589 C1585 1.495 . S
C1589 H1595 0.959 . S
C1589 H1596 0.961 . S
C1589 H1597 0.960 . S
C1590 C1588 1.381 1_556 S
C1590 C1591 1.394 . S
C1590 H1598 0.930 . S
C1591 C1590 1.394 . S
C1591 C1592 1.383 . S
C1591 H1599 0.929 . S
C1592 C1591 1.383 . S
C1592 C1593 1.377 . S
C1593 H1577 0.930 . S
C1593 C1592 1.377 . S
C1593 C1594 1.379 1_556 S
C1594 H1578 0.931 . S
C1594 C1588 1.383 . S
C1594 C1593 1.379 1_554 S
H1595 C1589 0.959 . S
H1596 C1589 0.961 . S
H1597 C1589 0.960 . S
H1598 C1590 0.930 . S
H1599 C1591 0.929 . S
H1600 C1608 0.929 . S
H1601 C1610 0.930 . S
H1602 C1612 0.930 . S
H1603 C1615 0.929 . S
H1604 C1618 0.930 . S
H1605 C1620 0.960 . S
H1606 C1620 0.960 . S
H1607 C1620 0.960 . S
C1608 H1600 0.929 . S
C1608 C1609 1.377 . S
C1608 C1610 1.384 . S
C1609 C1608 1.377 . S
C1609 C1615 1.390 . S
C1610 H1601 0.930 . S
C1610 C1608 1.384 . S
C1610 C1611 1.372 . S
C1611 C1610 1.372 . S
C1611 C1612 1.400 . S
C1611 C1616 1.490 . S
C1612 H1602 0.930 . S
C1612 C1611 1.400 . S
C1612 C1615 1.386 . S
H1613 C1629 0.930 . S
H1614 C1630 0.931 . S
C1615 H1603 0.929 . S
C1615 C1609 1.390 . S
C1615 C1612 1.386 . S
C1616 C1611 1.490 . S
C1616 C1618 1.395 . S
C1616 C1619 1.403 . S
H1617 C1623 0.930 . S
C1618 H1604 0.930 . S
C1618 C1616 1.395 . S
C1618 C1621 1.403 . S
C1619 C1616 1.403 . S
C1619 C1620 1.524 . S
C1619 C1623 1.400 . S
C1620 H1605 0.960 . S
C1620 H1606 0.960 . S
C1620 H1607 0.960 . S
C1620 C1619 1.524 . S
C1621 C1618 1.403 . S
C1621 C1622 1.392 . S
C1621 C1625 1.495 . S
C1622 C1621 1.392 . S
C1622 C1623 1.385 . S
C1622 C1624 1.478 . S
C1623 H1617 0.930 . S
C1623 C1619 1.400 . S
C1623 C1622 1.385 . S
C1624 C1622 1.478 . S
C1624 C1626 1.381 . S
C1624 C1630 1.383 . S
C1625 C1621 1.495 . S
C1625 H1631 0.959 . S
C1625 H1632 0.961 . S
C1625 H1633 0.960 . S
C1626 C1624 1.381 . S
C1626 C1627 1.394 . S
C1626 H1634 0.930 . S
C1627 C1626 1.394 . S
C1627 C1628 1.383 . S
C1627 H1635 0.929 . S
C1628 C1627 1.383 . S
C1628 C1629 1.377 . S
C1629 H1613 0.930 . S
C1629 C1628 1.377 . S
C1629 C1630 1.379 . S
C1630 H1614 0.931 . S
C1630 C1624 1.383 . S
C1630 C1629 1.379 . S
H1631 C1625 0.959 . S
H1632 C1625 0.961 . S
H1633 C1625 0.960 . S
H1634 C1626 0.930 . S
H1635 C1627 0.929 . S
H1636 C1644 0.929 . S
H1637 C1646 0.930 . S
H1638 C1648 0.930 . S
H1639 C1651 0.929 . S
H1640 C1654 0.930 . S
H1641 C1656 0.960 . S
H1642 C1656 0.960 . S
H1643 C1656 0.960 . S
C1644 H1636 0.929 . S
C1644 C1645 1.377 . S
C1644 C1646 1.384 . S
C1645 C1644 1.377 . S
C1645 C1651 1.390 . S
C1646 H1637 0.930 . S
C1646 C1644 1.384 . S
C1646 C1647 1.372 . S
C1647 C1646 1.372 . S
C1647 C1648 1.400 . S
C1647 C1652 1.490 . S
C1648 H1638 0.930 . S
C1648 C1647 1.400 . S
C1648 C1651 1.386 . S
H1649 C1665 0.930 . S
H1650 C1666 0.931 . S
C1651 H1639 0.929 . S
C1651 C1645 1.390 . S
C1651 C1648 1.386 . S
C1652 C1647 1.490 . S
C1652 C1654 1.395 . S
C1652 C1655 1.403 . S
H1653 C1659 0.930 . S
C1654 H1640 0.930 . S
C1654 C1652 1.395 . S
C1654 C1657 1.403 1_455 S
C1655 C1652 1.403 . S
C1655 C1656 1.524 . S
C1655 C1659 1.400 1_455 S
C1656 H1641 0.960 . S
C1656 H1642 0.960 . S
C1656 H1643 0.960 . S
C1656 C1655 1.524 . S
C1657 C1654 1.403 1_655 S
C1657 C1658 1.392 . S
C1657 C1661 1.495 . S
C1658 C1657 1.392 . S
C1658 C1659 1.385 . S
C1658 C1660 1.478 . S
C1659 H1653 0.930 . S
C1659 C1655 1.400 1_655 S
C1659 C1658 1.385 . S
C1660 C1658 1.478 . S
C1660 C1662 1.381 . S
C1660 C1666 1.383 . S
C1661 C1657 1.495 . S
C1661 H1667 0.959 . S
C1661 H1668 0.961 . S
C1661 H1669 0.960 . S
C1662 C1660 1.381 . S
C1662 C1663 1.394 . S
C1662 H1670 0.930 . S
C1663 C1662 1.394 . S
C1663 C1664 1.383 . S
C1663 H1671 0.929 . S
C1664 C1663 1.383 . S
C1664 C1665 1.377 . S
C1665 H1649 0.930 . S
C1665 C1664 1.377 . S
C1665 C1666 1.379 . S
C1666 H1650 0.931 . S
C1666 C1660 1.383 . S
C1666 C1665 1.379 . S
H1667 C1661 0.959 . S
H1668 C1661 0.961 . S
H1669 C1661 0.960 . S
H1670 C1662 0.930 . S
H1671 C1663 0.929 . S
H1672 C1680 0.929 . S
H1673 C1682 0.930 . S
H1674 C1684 0.930 . S
H1675 C1687 0.929 . S
H1676 C1690 0.930 . S
H1677 C1692 0.960 . S
H1678 C1692 0.960 . S
H1679 C1692 0.960 . S
C1680 H1672 0.929 . S
C1680 C1681 1.377 . S
C1680 C1682 1.384 . S
C1681 C1680 1.377 . S
C1681 C1687 1.390 . S
C1682 H1673 0.930 . S
C1682 C1680 1.384 . S
C1682 C1683 1.372 . S
C1683 C1682 1.372 . S
C1683 C1684 1.400 . S
C1683 C1688 1.490 . S
C1684 H1674 0.930 . S
C1684 C1683 1.400 . S
C1684 C1687 1.386 . S
H1685 C1701 0.930 . S
H1686 C1702 0.931 . S
C1687 H1675 0.929 . S
C1687 C1681 1.390 . S
C1687 C1684 1.386 . S
C1688 C1683 1.490 . S
C1688 C1690 1.395 . S
C1688 C1691 1.403 . S
H1689 C1695 0.930 . S
C1690 H1676 0.930 . S
C1690 C1688 1.395 . S
C1690 C1693 1.403 . S
C1691 C1688 1.403 . S
C1691 C1692 1.524 . S
C1691 C1695 1.400 . S
C1692 H1677 0.960 . S
C1692 H1678 0.960 . S
C1692 H1679 0.960 . S
C1692 C1691 1.524 . S
C1693 C1690 1.403 . S
C1693 C1694 1.392 . S
C1693 C1697 1.495 . S
C1694 C1693 1.392 . S
C1694 C1695 1.385 . S
C1694 C1696 1.478 . S
C1695 H1689 0.930 . S
C1695 C1691 1.400 . S
C1695 C1694 1.385 . S
C1696 C1694 1.478 . S
C1696 C1698 1.381 . S
C1696 C1702 1.383 . S
C1697 C1693 1.495 . S
C1697 H1703 0.959 . S
C1697 H1704 0.961 . S
C1697 H1705 0.960 . S
C1698 C1696 1.381 . S
C1698 C1699 1.394 . S
C1698 H1706 0.930 . S
C1699 C1698 1.394 . S
C1699 C1700 1.383 . S
C1699 H1707 0.929 . S
C1700 C1699 1.383 . S
C1700 C1701 1.377 . S
C1701 H1685 0.930 . S
C1701 C1700 1.377 . S
C1701 C1702 1.379 . S
C1702 H1686 0.931 . S
C1702 C1696 1.383 . S
C1702 C1701 1.379 . S
H1703 C1697 0.959 . S
H1704 C1697 0.961 . S
H1705 C1697 0.960 . S
H1706 C1698 0.930 . S
H1707 C1699 0.929 . S
H1708 C1716 0.929 . S
H1709 C1718 0.930 . S
H1710 C1720 0.930 . S
H1711 C1723 0.929 . S
H1712 C1726 0.930 . S
H1713 C1728 0.960 . S
H1714 C1728 0.960 . S
H1715 C1728 0.960 . S
C1716 H1708 0.929 . S
C1716 C1717 1.377 . S
C1716 C1718 1.384 . S
C1717 C1716 1.377 . S
C1717 C1723 1.390 . S
C1718 H1709 0.930 . S
C1718 C1716 1.384 . S
C1718 C1719 1.372 . S
C1719 C1718 1.372 . S
C1719 C1720 1.400 . S
C1719 C1724 1.490 . S
C1720 H1710 0.930 . S
C1720 C1719 1.400 . S
C1720 C1723 1.386 . S
H1721 C1737 0.930 . S
H1722 C1738 0.931 . S
C1723 H1711 0.929 . S
C1723 C1717 1.390 . S
C1723 C1720 1.386 . S
C1724 C1719 1.490 . S
C1724 C1726 1.395 . S
C1724 C1727 1.403 . S
H1725 C1731 0.930 . S
C1726 H1712 0.930 . S
C1726 C1724 1.395 . S
C1726 C1729 1.403 . S
C1727 C1724 1.403 . S
C1727 C1728 1.524 . S
C1727 C1731 1.400 . S
C1728 H1713 0.960 . S
C1728 H1714 0.960 . S
C1728 H1715 0.960 . S
C1728 C1727 1.524 . S
C1729 C1726 1.403 . S
C1729 C1730 1.392 . S
C1729 C1733 1.495 . S
C1730 C1729 1.392 . S
C1730 C1731 1.385 . S
C1730 C1732 1.478 . S
C1731 H1725 0.930 . S
C1731 C1727 1.400 . S
C1731 C1730 1.385 . S
C1732 C1730 1.478 . S
C1732 C1734 1.381 . S
C1732 C1738 1.383 . S
C1733 C1729 1.495 . S
C1733 H1739 0.959 . S
C1733 H1740 0.961 . S
C1733 H1741 0.960 . S
C1734 C1732 1.381 . S
C1734 C1735 1.394 . S
C1734 H1742 0.930 . S
C1735 C1734 1.394 . S
C1735 C1736 1.383 . S
C1735 H1743 0.929 . S
C1736 C1735 1.383 . S
C1736 C1737 1.377 . S
C1737 H1721 0.930 . S
C1737 C1736 1.377 . S
C1737 C1738 1.379 . S
C1738 H1722 0.931 . S
C1738 C1732 1.383 . S
C1738 C1737 1.379 . S
H1739 C1733 0.959 . S
H1740 C1733 0.961 . S
H1741 C1733 0.960 . S
H1742 C1734 0.930 . S
H1743 C1735 0.929 . S
H1744 C1752 0.929 . S
H1745 C1754 0.930 . S
H1746 C1756 0.930 . S
H1747 C1759 0.929 . S
H1748 C1762 0.930 . S
H1749 C1764 0.960 . S
H1750 C1764 0.960 . S
H1751 C1764 0.960 . S
C1752 H1744 0.929 . S
C1752 C1753 1.377 . S
C1752 C1754 1.384 . S
C1753 C1752 1.377 . S
C1753 C1759 1.390 . S
C1754 H1745 0.930 . S
C1754 C1752 1.384 . S
C1754 C1755 1.372 . S
C1755 C1754 1.372 . S
C1755 C1756 1.400 . S
C1755 C1760 1.490 . S
C1756 H1746 0.930 . S
C1756 C1755 1.400 . S
C1756 C1759 1.386 . S
H1757 C1773 0.930 . S
H1758 C1774 0.931 . S
C1759 H1747 0.929 . S
C1759 C1753 1.390 . S
C1759 C1756 1.386 . S
C1760 C1755 1.490 . S
C1760 C1762 1.395 . S
C1760 C1763 1.403 . S
H1761 C1767 0.930 . S
C1762 H1748 0.930 . S
C1762 C1760 1.395 . S
C1762 C1765 1.403 . S
C1763 C1760 1.403 . S
C1763 C1764 1.524 . S
C1763 C1767 1.400 . S
C1764 H1749 0.960 . S
C1764 H1750 0.960 . S
C1764 H1751 0.960 . S
C1764 C1763 1.524 . S
C1765 C1762 1.403 . S
C1765 C1766 1.392 . S
C1765 C1769 1.495 . S
C1766 C1765 1.392 . S
C1766 C1767 1.385 . S
C1766 C1768 1.478 . S
C1767 H1761 0.930 . S
C1767 C1763 1.400 . S
C1767 C1766 1.385 . S
C1768 C1766 1.478 . S
C1768 C1770 1.381 . S
C1768 C1774 1.383 . S
C1769 C1765 1.495 . S
C1769 H1775 0.959 . S
C1769 H1776 0.961 . S
C1769 H1777 0.960 . S
C1770 C1768 1.381 . S
C1770 C1771 1.394 . S
C1770 H1778 0.930 . S
C1771 C1770 1.394 . S
C1771 C1772 1.383 . S
C1771 H1779 0.929 . S
C1772 C1771 1.383 . S
C1772 C1773 1.377 . S
C1773 H1757 0.930 . S
C1773 C1772 1.377 . S
C1773 C1774 1.379 . S
C1774 H1758 0.931 . S
C1774 C1768 1.383 . S
C1774 C1773 1.379 . S
H1775 C1769 0.959 . S
H1776 C1769 0.961 . S
H1777 C1769 0.960 . S
H1778 C1770 0.930 . S
H1779 C1771 0.929 . S
H1780 C1788 0.929 . S
H1781 C1790 0.930 . S
H1782 C1792 0.930 . S
H1783 C1795 0.929 . S
H1784 C1798 0.930 . S
H1785 C1800 0.960 . S
H1786 C1800 0.960 . S
H1787 C1800 0.960 . S
C1788 H1780 0.929 . S
C1788 C1789 1.377 . S
C1788 C1790 1.384 . S
C1789 C1788 1.377 . S
C1789 C1795 1.390 . S
C1790 H1781 0.930 . S
C1790 C1788 1.384 . S
C1790 C1791 1.372 . S
C1791 C1790 1.372 . S
C1791 C1792 1.400 . S
C1791 C1796 1.490 . S
C1792 H1782 0.930 . S
C1792 C1791 1.400 . S
C1792 C1795 1.386 . S
H1793 C1809 0.930 . S
H1794 C1810 0.931 . S
C1795 H1783 0.929 . S
C1795 C1789 1.390 . S
C1795 C1792 1.386 . S
C1796 C1791 1.490 . S
C1796 C1798 1.395 . S
C1796 C1799 1.403 . S
H1797 C1803 0.930 . S
C1798 H1784 0.930 . S
C1798 C1796 1.395 . S
C1798 C1801 1.403 . S
C1799 C1796 1.403 . S
C1799 C1800 1.524 . S
C1799 C1803 1.400 . S
C1800 H1785 0.960 . S
C1800 H1786 0.960 . S
C1800 H1787 0.960 . S
C1800 C1799 1.524 . S
C1801 C1798 1.403 . S
C1801 C1802 1.392 . S
C1801 C1805 1.495 . S
C1802 C1801 1.392 . S
C1802 C1803 1.385 . S
C1802 C1804 1.478 . S
C1803 H1797 0.930 . S
C1803 C1799 1.400 . S
C1803 C1802 1.385 . S
C1804 C1802 1.478 . S
C1804 C1806 1.381 . S
C1804 C1810 1.383 . S
C1805 C1801 1.495 . S
C1805 H1811 0.959 . S
C1805 H1812 0.961 . S
C1805 H1813 0.960 . S
C1806 C1804 1.381 . S
C1806 C1807 1.394 . S
C1806 H1814 0.930 . S
C1807 C1806 1.394 . S
C1807 C1808 1.383 . S
C1807 H1815 0.929 . S
C1808 C1807 1.383 . S
C1808 C1809 1.377 . S
C1809 H1793 0.930 . S
C1809 C1808 1.377 . S
C1809 C1810 1.379 . S
C1810 H1794 0.931 . S
C1810 C1804 1.383 . S
C1810 C1809 1.379 . S
H1811 C1805 0.959 . S
H1812 C1805 0.961 . S
H1813 C1805 0.960 . S
H1814 C1806 0.930 . S
H1815 C1807 0.929 . S
H1816 C1824 0.929 . S
H1817 C1826 0.930 . S
H1818 C1828 0.930 . S
H1819 C1831 0.929 . S
H1820 C1834 0.930 . S
H1821 C1836 0.960 . S
H1822 C1836 0.960 . S
H1823 C1836 0.960 . S
C1824 H1816 0.929 . S
C1824 C1825 1.377 . S
C1824 C1826 1.384 . S
C1825 C1824 1.377 . S
C1825 C1831 1.390 . S
C1826 H1817 0.930 . S
C1826 C1824 1.384 . S
C1826 C1827 1.372 . S
C1827 C1826 1.372 . S
C1827 C1828 1.400 . S
C1827 C1832 1.490 . S
C1828 H1818 0.930 . S
C1828 C1827 1.400 . S
C1828 C1831 1.386 . S
H1829 C1845 0.930 . S
H1830 C1846 0.931 . S
C1831 H1819 0.929 . S
C1831 C1825 1.390 . S
C1831 C1828 1.386 . S
C1832 C1827 1.490 . S
C1832 C1834 1.395 . S
C1832 C1835 1.403 . S
H1833 C1839 0.930 . S
C1834 H1820 0.930 . S
C1834 C1832 1.395 . S
C1834 C1837 1.403 . S
C1835 C1832 1.403 . S
C1835 C1836 1.524 . S
C1835 C1839 1.400 . S
C1836 H1821 0.960 . S
C1836 H1822 0.960 . S
C1836 H1823 0.960 . S
C1836 C1835 1.524 . S
C1837 C1834 1.403 . S
C1837 C1838 1.392 . S
C1837 C1841 1.495 . S
C1838 C1837 1.392 . S
C1838 C1839 1.385 . S
C1838 C1840 1.478 . S
C1839 H1833 0.930 . S
C1839 C1835 1.400 . S
C1839 C1838 1.385 . S
C1840 C1838 1.478 . S
C1840 C1842 1.381 . S
C1840 C1846 1.383 . S
C1841 C1837 1.495 . S
C1841 H1847 0.959 . S
C1841 H1848 0.961 . S
C1841 H1849 0.960 . S
C1842 C1840 1.381 . S
C1842 C1843 1.394 . S
C1842 H1850 0.930 . S
C1843 C1842 1.394 . S
C1843 C1844 1.383 . S
C1843 H1851 0.929 . S
C1844 C1843 1.383 . S
C1844 C1845 1.377 . S
C1845 H1829 0.930 . S
C1845 C1844 1.377 . S
C1845 C1846 1.379 . S
C1846 H1830 0.931 . S
C1846 C1840 1.383 . S
C1846 C1845 1.379 . S
H1847 C1841 0.959 . S
H1848 C1841 0.961 . S
H1849 C1841 0.960 . S
H1850 C1842 0.930 . S
H1851 C1843 0.929 . S
H1852 C1860 0.929 . S
H1853 C1862 0.930 . S
H1854 C1864 0.930 . S
H1855 C1867 0.929 . S
H1856 C1870 0.930 . S
H1857 C1872 0.960 . S
H1858 C1872 0.960 . S
H1859 C1872 0.960 . S
C1860 H1852 0.929 . S
C1860 C1861 1.377 . S
C1860 C1862 1.384 . S
C1861 C1860 1.377 . S
C1861 C1867 1.390 . S
C1862 H1853 0.930 . S
C1862 C1860 1.384 . S
C1862 C1863 1.372 . S
C1863 C1862 1.372 . S
C1863 C1864 1.400 . S
C1863 C1868 1.490 . S
C1864 H1854 0.930 . S
C1864 C1863 1.400 . S
C1864 C1867 1.386 . S
H1865 C1881 0.930 . S
H1866 C1882 0.931 . S
C1867 H1855 0.929 . S
C1867 C1861 1.390 . S
C1867 C1864 1.386 . S
C1868 C1863 1.490 . S
C1868 C1870 1.395 . S
C1868 C1871 1.403 . S
H1869 C1875 0.930 . S
C1870 H1856 0.930 . S
C1870 C1868 1.395 . S
C1870 C1873 1.403 1_655 S
C1871 C1868 1.403 . S
C1871 C1872 1.524 . S
C1871 C1875 1.400 1_655 S
C1872 H1857 0.960 . S
C1872 H1858 0.960 . S
C1872 H1859 0.960 . S
C1872 C1871 1.524 . S
C1873 C1870 1.403 1_455 S
C1873 C1874 1.392 . S
C1873 C1877 1.495 . S
C1874 C1873 1.392 . S
C1874 C1875 1.385 . S
C1874 C1876 1.478 . S
C1875 H1869 0.930 . S
C1875 C1871 1.400 1_455 S
C1875 C1874 1.385 . S
C1876 C1874 1.478 . S
C1876 C1878 1.381 . S
C1876 C1882 1.383 . S
C1877 C1873 1.495 . S
C1877 H1883 0.959 . S
C1877 H1884 0.961 . S
C1877 H1885 0.960 . S
C1878 C1876 1.381 . S
C1878 C1879 1.394 . S
C1878 H1886 0.930 . S
C1879 C1878 1.394 . S
C1879 C1880 1.383 . S
C1879 H1887 0.929 . S
C1880 C1879 1.383 . S
C1880 C1881 1.377 . S
C1881 H1865 0.930 . S
C1881 C1880 1.377 . S
C1881 C1882 1.379 . S
C1882 H1866 0.931 . S
C1882 C1876 1.383 . S
C1882 C1881 1.379 . S
H1883 C1877 0.959 . S
H1884 C1877 0.961 . S
H1885 C1877 0.960 . S
H1886 C1878 0.930 . S
H1887 C1879 0.929 . S
H1888 C1896 0.929 . S
H1889 C1898 0.930 . S
H1890 C1900 0.930 . S
H1891 C1903 0.929 . S
H1892 C1906 0.930 . S
H1893 C1908 0.960 . S
H1894 C1908 0.960 . S
H1895 C1908 0.960 . S
C1896 H1888 0.929 . S
C1896 C1897 1.377 . S
C1896 C1898 1.384 . S
C1897 C1896 1.377 . S
C1897 C1903 1.390 . S
C1898 H1889 0.930 . S
C1898 C1896 1.384 . S
C1898 C1899 1.372 . S
C1899 C1898 1.372 . S
C1899 C1900 1.400 . S
C1899 C1904 1.490 . S
C1900 H1890 0.930 . S
C1900 C1899 1.400 . S
C1900 C1903 1.386 . S
H1901 C1917 0.930 . S
H1902 C1918 0.931 . S
C1903 H1891 0.929 . S
C1903 C1897 1.390 . S
C1903 C1900 1.386 . S
C1904 C1899 1.490 . S
C1904 C1906 1.395 . S
C1904 C1907 1.403 . S
H1905 C1911 0.930 . S
C1906 H1892 0.930 . S
C1906 C1904 1.395 . S
C1906 C1909 1.403 . S
C1907 C1904 1.403 . S
C1907 C1908 1.524 . S
C1907 C1911 1.400 . S
C1908 H1893 0.960 . S
C1908 H1894 0.960 . S
C1908 H1895 0.960 . S
C1908 C1907 1.524 . S
C1909 C1906 1.403 . S
C1909 C1910 1.392 . S
C1909 C1913 1.495 . S
C1910 C1909 1.392 . S
C1910 C1911 1.385 . S
C1910 C1912 1.478 . S
C1911 H1905 0.930 . S
C1911 C1907 1.400 . S
C1911 C1910 1.385 . S
C1912 C1910 1.478 . S
C1912 C1914 1.381 . S
C1912 C1918 1.383 . S
C1913 C1909 1.495 . S
C1913 H1919 0.959 . S
C1913 H1920 0.961 . S
C1913 H1921 0.960 . S
C1914 C1912 1.381 . S
C1914 C1915 1.394 . S
C1914 H1922 0.930 . S
C1915 C1914 1.394 . S
C1915 C1916 1.383 . S
C1915 H1923 0.929 . S
C1916 C1915 1.383 . S
C1916 C1917 1.377 . S
C1917 H1901 0.930 . S
C1917 C1916 1.377 . S
C1917 C1918 1.379 . S
C1918 H1902 0.931 . S
C1918 C1912 1.383 . S
C1918 C1917 1.379 . S
H1919 C1913 0.959 . S
H1920 C1913 0.961 . S
H1921 C1913 0.960 . S
H1922 C1914 0.930 . S
H1923 C1915 0.929 . S
H1924 C1932 0.929 . S
H1925 C1934 0.930 . S
H1926 C1936 0.930 . S
H1927 C1939 0.929 . S
H1928 C1942 0.930 . S
H1929 C1944 0.960 . S
H1930 C1944 0.960 . S
H1931 C1944 0.960 . S
C1932 H1924 0.929 . S
C1932 C1933 1.377 . S
C1932 C1934 1.384 . S
C1933 C1932 1.377 . S
C1933 C1939 1.390 . S
C1934 H1925 0.930 . S
C1934 C1932 1.384 . S
C1934 C1935 1.372 . S
C1935 C1934 1.372 . S
C1935 C1936 1.400 . S
C1935 C1940 1.490 . S
C1936 H1926 0.930 . S
C1936 C1935 1.400 . S
C1936 C1939 1.386 . S
H1937 C1953 0.930 . S
H1938 C1954 0.931 . S
C1939 H1927 0.929 . S
C1939 C1933 1.390 . S
C1939 C1936 1.386 . S
C1940 C1935 1.490 . S
C1940 C1942 1.395 . S
C1940 C1943 1.403 . S
H1941 C1947 0.930 . S
C1942 H1928 0.930 . S
C1942 C1940 1.395 . S
C1942 C1945 1.403 . S
C1943 C1940 1.403 . S
C1943 C1944 1.524 . S
C1943 C1947 1.400 . S
C1944 H1929 0.960 . S
C1944 H1930 0.960 . S
C1944 H1931 0.960 . S
C1944 C1943 1.524 . S
C1945 C1942 1.403 . S
C1945 C1946 1.392 . S
C1945 C1949 1.495 . S
C1946 C1945 1.392 . S
C1946 C1947 1.385 . S
C1946 C1948 1.478 . S
C1947 H1941 0.930 . S
C1947 C1943 1.400 . S
C1947 C1946 1.385 . S
C1948 C1946 1.478 . S
C1948 C1950 1.381 . S
C1948 C1954 1.383 . S
C1949 C1945 1.495 . S
C1949 H1955 0.959 . S
C1949 H1956 0.961 . S
C1949 H1957 0.960 . S
C1950 C1948 1.381 . S
C1950 C1951 1.394 . S
C1950 H1958 0.930 . S
C1951 C1950 1.394 . S
C1951 C1952 1.383 . S
C1951 H1959 0.929 . S
C1952 C1951 1.383 . S
C1952 C1953 1.377 . S
C1953 H1937 0.930 . S
C1953 C1952 1.377 . S
C1953 C1954 1.379 . S
C1954 H1938 0.931 . S
C1954 C1948 1.383 . S
C1954 C1953 1.379 . S
H1955 C1949 0.959 . S
H1956 C1949 0.961 . S
H1957 C1949 0.960 . S
H1958 C1950 0.930 . S
H1959 C1951 0.929 . S
H1960 C1968 0.929 . S
H1961 C1970 0.930 . S
H1962 C1972 0.930 . S
H1963 C1975 0.929 . S
H1964 C1978 0.930 . S
H1965 C1980 0.960 . S
H1966 C1980 0.960 . S
H1967 C1980 0.960 . S
C1968 H1960 0.929 . S
C1968 C1969 1.377 . S
C1968 C1970 1.384 . S
C1969 C1968 1.377 . S
C1969 C1975 1.390 . S
C1970 H1961 0.930 . S
C1970 C1968 1.384 . S
C1970 C1971 1.372 . S
C1971 C1970 1.372 . S
C1971 C1972 1.400 . S
C1971 C1976 1.490 . S
C1972 H1962 0.930 . S
C1972 C1971 1.400 . S
C1972 C1975 1.386 . S
H1973 C1989 0.930 . S
H1974 C1990 0.931 . S
C1975 H1963 0.929 . S
C1975 C1969 1.390 . S
C1975 C1972 1.386 . S
C1976 C1971 1.490 . S
C1976 C1978 1.395 . S
C1976 C1979 1.403 . S
H1977 C1983 0.930 . S
C1978 H1964 0.930 . S
C1978 C1976 1.395 . S
C1978 C1981 1.403 . S
C1979 C1976 1.403 . S
C1979 C1980 1.524 . S
C1979 C1983 1.400 . S
C1980 H1965 0.960 . S
C1980 H1966 0.960 . S
C1980 H1967 0.960 . S
C1980 C1979 1.524 . S
C1981 C1978 1.403 . S
C1981 C1982 1.392 . S
C1981 C1985 1.495 . S
C1982 C1981 1.392 . S
C1982 C1983 1.385 . S
C1982 C1984 1.478 . S
C1983 H1977 0.930 . S
C1983 C1979 1.400 . S
C1983 C1982 1.385 . S
C1984 C1982 1.478 . S
C1984 C1986 1.381 . S
C1984 C1990 1.383 . S
C1985 C1981 1.495 . S
C1985 H1991 0.959 . S
C1985 H1992 0.961 . S
C1985 H1993 0.960 . S
C1986 C1984 1.381 . S
C1986 C1987 1.394 . S
C1986 H1994 0.930 . S
C1987 C1986 1.394 . S
C1987 C1988 1.383 . S
C1987 H1995 0.929 . S
C1988 C1987 1.383 . S
C1988 C1989 1.377 . S
C1989 H1973 0.930 . S
C1989 C1988 1.377 . S
C1989 C1990 1.379 . S
C1990 H1974 0.931 . S
C1990 C1984 1.383 . S
C1990 C1989 1.379 . S
H1991 C1985 0.959 . S
H1992 C1985 0.961 . S
H1993 C1985 0.960 . S
H1994 C1986 0.930 . S
H1995 C1987 0.929 . S
H1996 C2004 0.929 . S
H1997 C2006 0.930 . S
H1998 C2008 0.930 . S
H1999 C2011 0.929 . S
H2000 C2014 0.930 . S
H2001 C2016 0.960 . S
H2002 C2016 0.960 . S
H2003 C2016 0.960 . S
C2004 H1996 0.929 . S
C2004 C2005 1.377 . S
C2004 C2006 1.384 . S
C2005 C2004 1.377 . S
C2005 C2011 1.390 . S
C2006 H1997 0.930 . S
C2006 C2004 1.384 . S
C2006 C2007 1.372 . S
C2007 C2006 1.372 . S
C2007 C2008 1.400 . S
C2007 C2012 1.490 . S
C2008 H1998 0.930 . S
C2008 C2007 1.400 . S
C2008 C2011 1.386 . S
H2009 C2025 0.930 . S
H2010 C2026 0.931 . S
C2011 H1999 0.929 . S
C2011 C2005 1.390 . S
C2011 C2008 1.386 . S
C2012 C2007 1.490 . S
C2012 C2014 1.395 . S
C2012 C2015 1.403 . S
H2013 C2019 0.930 . S
C2014 H2000 0.930 . S
C2014 C2012 1.395 . S
C2014 C2017 1.403 . S
C2015 C2012 1.403 . S
C2015 C2016 1.524 . S
C2015 C2019 1.400 . S
C2016 H2001 0.960 . S
C2016 H2002 0.960 . S
C2016 H2003 0.960 . S
C2016 C2015 1.524 . S
C2017 C2014 1.403 . S
C2017 C2018 1.392 . S
C2017 C2021 1.495 . S
C2018 C2017 1.392 . S
C2018 C2019 1.385 . S
C2018 C2020 1.478 . S
C2019 H2013 0.930 . S
C2019 C2015 1.400 . S
C2019 C2018 1.385 . S
C2020 C2018 1.478 . S
C2020 C2022 1.381 . S
C2020 C2026 1.383 . S
C2021 C2017 1.495 . S
C2021 H2027 0.959 . S
C2021 H2028 0.961 . S
C2021 H2029 0.960 . S
C2022 C2020 1.381 . S
C2022 C2023 1.394 . S
C2022 H2030 0.930 . S
C2023 C2022 1.394 . S
C2023 C2024 1.383 . S
C2023 H2031 0.929 . S
C2024 C2023 1.383 . S
C2024 C2025 1.377 . S
C2025 H2009 0.930 . S
C2025 C2024 1.377 . S
C2025 C2026 1.379 . S
C2026 H2010 0.931 . S
C2026 C2020 1.383 . S
C2026 C2025 1.379 . S
H2027 C2021 0.959 . S
H2028 C2021 0.961 . S
H2029 C2021 0.960 . S
H2030 C2022 0.930 . S
H2031 C2023 0.929 . S
H2032 C2040 0.929 . S
H2033 C2042 0.930 . S
H2034 C2044 0.930 . S
H2035 C2047 0.929 . S
H2036 C2050 0.930 . S
H2037 C2052 0.960 . S
H2038 C2052 0.960 . S
H2039 C2052 0.960 . S
C2040 H2032 0.929 . S
C2040 C2041 1.377 . S
C2040 C2042 1.384 . S
C2041 C2040 1.377 . S
C2041 C2047 1.390 . S
C2042 H2033 0.930 . S
C2042 C2040 1.384 . S
C2042 C2043 1.372 . S
C2043 C2042 1.372 . S
C2043 C2044 1.400 . S
C2043 C2048 1.490 . S
C2044 H2034 0.930 . S
C2044 C2043 1.400 . S
C2044 C2047 1.386 . S
H2045 C2061 0.930 . S
H2046 C2062 0.931 . S
C2047 H2035 0.929 . S
C2047 C2041 1.390 . S
C2047 C2044 1.386 . S
C2048 C2043 1.490 . S
C2048 C2050 1.395 . S
C2048 C2051 1.403 . S
H2049 C2055 0.930 . S
C2050 H2036 0.930 . S
C2050 C2048 1.395 . S
C2050 C2053 1.403 . S
C2051 C2048 1.403 . S
C2051 C2052 1.524 . S
C2051 C2055 1.400 . S
C2052 H2037 0.960 . S
C2052 H2038 0.960 . S
C2052 H2039 0.960 . S
C2052 C2051 1.524 . S
C2053 C2050 1.403 . S
C2053 C2054 1.392 . S
C2053 C2057 1.495 . S
C2054 C2053 1.392 . S
C2054 C2055 1.385 . S
C2054 C2056 1.478 . S
C2055 H2049 0.930 . S
C2055 C2051 1.400 . S
C2055 C2054 1.385 . S
C2056 C2054 1.478 . S
C2056 C2058 1.381 . S
C2056 C2062 1.383 . S
C2057 C2053 1.495 . S
C2057 H2063 0.959 . S
C2057 H2064 0.961 . S
C2057 H2065 0.960 . S
C2058 C2056 1.381 . S
C2058 C2059 1.394 . S
C2058 H2066 0.930 . S
C2059 C2058 1.394 . S
C2059 C2060 1.383 . S
C2059 H2067 0.929 . S
C2060 C2059 1.383 . S
C2060 C2061 1.377 . S
C2061 H2045 0.930 . S
C2061 C2060 1.377 . S
C2061 C2062 1.379 . S
C2062 H2046 0.931 . S
C2062 C2056 1.383 . S
C2062 C2061 1.379 . S
H2063 C2057 0.959 . S
H2064 C2057 0.961 . S
H2065 C2057 0.960 . S
H2066 C2058 0.930 . S
H2067 C2059 0.929 . S
H2068 C2076 0.929 . S
H2069 C2078 0.930 . S
H2070 C2080 0.930 . S
H2071 C2083 0.929 . S
H2072 C2086 0.930 . S
H2073 C2088 0.960 . S
H2074 C2088 0.960 . S
H2075 C2088 0.960 . S
C2076 H2068 0.929 . S
C2076 C2077 1.377 . S
C2076 C2078 1.384 . S
C2077 C2076 1.377 . S
C2077 C2083 1.390 . S
C2078 H2069 0.930 . S
C2078 C2076 1.384 . S
C2078 C2079 1.372 . S
C2079 C2078 1.372 . S
C2079 C2080 1.400 . S
C2079 C2084 1.490 . S
C2080 H2070 0.930 . S
C2080 C2079 1.400 . S
C2080 C2083 1.386 . S
H2081 C2097 0.930 . S
H2082 C2098 0.931 . S
C2083 H2071 0.929 . S
C2083 C2077 1.390 . S
C2083 C2080 1.386 . S
C2084 C2079 1.490 . S
C2084 C2086 1.395 . S
C2084 C2087 1.403 . S
H2085 C2091 0.930 . S
C2086 H2072 0.930 . S
C2086 C2084 1.395 . S
C2086 C2089 1.403 1_655 S
C2087 C2084 1.403 . S
C2087 C2088 1.524 . S
C2087 C2091 1.400 1_655 S
C2088 H2073 0.960 . S
C2088 H2074 0.960 . S
C2088 H2075 0.960 . S
C2088 C2087 1.524 . S
C2089 C2086 1.403 1_455 S
C2089 C2090 1.392 . S
C2089 C2093 1.495 . S
C2090 C2089 1.392 . S
C2090 C2091 1.385 . S
C2090 C2092 1.478 . S
C2091 H2085 0.930 . S
C2091 C2087 1.400 1_455 S
C2091 C2090 1.385 . S
C2092 C2090 1.478 . S
C2092 C2094 1.381 . S
C2092 C2098 1.383 . S
C2093 C2089 1.495 . S
C2093 H2099 0.959 . S
C2093 H2100 0.961 . S
C2093 H2101 0.960 . S
C2094 C2092 1.381 . S
C2094 C2095 1.394 . S
C2094 H2102 0.930 . S
C2095 C2094 1.394 . S
C2095 C2096 1.383 . S
C2095 H2103 0.929 . S
C2096 C2095 1.383 . S
C2096 C2097 1.377 . S
C2097 H2081 0.930 . S
C2097 C2096 1.377 . S
C2097 C2098 1.379 . S
C2098 H2082 0.931 . S
C2098 C2092 1.383 . S
C2098 C2097 1.379 . S
H2099 C2093 0.959 . S
H2100 C2093 0.961 . S
H2101 C2093 0.960 . S
H2102 C2094 0.930 . S
H2103 C2095 0.929 . S
H2104 C2112 0.929 . S
H2105 C2114 0.930 . S
H2106 C2116 0.930 . S
H2107 C2119 0.929 . S
H2108 C2122 0.930 . S
H2109 C2124 0.960 . S
H2110 C2124 0.960 . S
H2111 C2124 0.960 . S
C2112 H2104 0.929 . S
C2112 C2113 1.377 . S
C2112 C2114 1.384 . S
C2113 C2112 1.377 . S
C2113 C2119 1.390 . S
C2114 H2105 0.930 . S
C2114 C2112 1.384 . S
C2114 C2115 1.372 . S
C2115 C2114 1.372 . S
C2115 C2116 1.400 . S
C2115 C2120 1.490 . S
C2116 H2106 0.930 . S
C2116 C2115 1.400 . S
C2116 C2119 1.386 . S
H2117 C2133 0.930 . S
H2118 C2134 0.931 . S
C2119 H2107 0.929 . S
C2119 C2113 1.390 . S
C2119 C2116 1.386 . S
C2120 C2115 1.490 . S
C2120 C2122 1.395 . S
C2120 C2123 1.403 . S
H2121 C2127 0.930 . S
C2122 H2108 0.930 . S
C2122 C2120 1.395 . S
C2122 C2125 1.403 1_655 S
C2123 C2120 1.403 . S
C2123 C2124 1.524 . S
C2123 C2127 1.400 1_655 S
C2124 H2109 0.960 . S
C2124 H2110 0.960 . S
C2124 H2111 0.960 . S
C2124 C2123 1.524 . S
C2125 C2122 1.403 1_455 S
C2125 C2126 1.392 . S
C2125 C2129 1.495 . S
C2126 C2125 1.392 . S
C2126 C2127 1.385 . S
C2126 C2128 1.478 . S
C2127 H2121 0.930 . S
C2127 C2123 1.400 1_455 S
C2127 C2126 1.385 . S
C2128 C2126 1.478 . S
C2128 C2130 1.381 . S
C2128 C2134 1.383 . S
C2129 C2125 1.495 . S
C2129 H2135 0.959 . S
C2129 H2136 0.961 . S
C2129 H2137 0.960 . S
C2130 C2128 1.381 . S
C2130 C2131 1.394 . S
C2130 H2138 0.930 . S
C2131 C2130 1.394 . S
C2131 C2132 1.383 . S
C2131 H2139 0.929 . S
C2132 C2131 1.383 . S
C2132 C2133 1.377 . S
C2133 H2117 0.930 . S
C2133 C2132 1.377 . S
C2133 C2134 1.379 . S
C2134 H2118 0.931 . S
C2134 C2128 1.383 . S
C2134 C2133 1.379 . S
H2135 C2129 0.959 . S
H2136 C2129 0.961 . S
H2137 C2129 0.960 . S
H2138 C2130 0.930 . S
H2139 C2131 0.929 . S
H2140 C2148 0.929 . S
H2141 C2150 0.930 . S
H2142 C2152 0.930 . S
H2143 C2155 0.929 . S
H2144 C2158 0.930 . S
H2145 C2160 0.960 . S
H2146 C2160 0.960 . S
H2147 C2160 0.960 . S
C2148 H2140 0.929 . S
C2148 C2149 1.377 . S
C2148 C2150 1.384 . S
C2149 C2148 1.377 . S
C2149 C2155 1.390 . S
C2150 H2141 0.930 . S
C2150 C2148 1.384 . S
C2150 C2151 1.372 . S
C2151 C2150 1.372 . S
C2151 C2152 1.400 . S
C2151 C2156 1.490 . S
C2152 H2142 0.930 . S
C2152 C2151 1.400 . S
C2152 C2155 1.386 . S
H2153 C2169 0.930 . S
H2154 C2170 0.931 . S
C2155 H2143 0.929 . S
C2155 C2149 1.390 . S
C2155 C2152 1.386 . S
C2156 C2151 1.490 . S
C2156 C2158 1.395 . S
C2156 C2159 1.403 . S
H2157 C2163 0.930 . S
C2158 H2144 0.930 . S
C2158 C2156 1.395 . S
C2158 C2161 1.403 . S
C2159 C2156 1.403 . S
C2159 C2160 1.524 . S
C2159 C2163 1.400 . S
C2160 H2145 0.960 . S
C2160 H2146 0.960 . S
C2160 H2147 0.960 . S
C2160 C2159 1.524 . S
C2161 C2158 1.403 . S
C2161 C2162 1.392 . S
C2161 C2165 1.495 . S
C2162 C2161 1.392 . S
C2162 C2163 1.385 . S
C2162 C2164 1.478 . S
C2163 H2157 0.930 . S
C2163 C2159 1.400 . S
C2163 C2162 1.385 . S
C2164 C2162 1.478 . S
C2164 C2166 1.381 . S
C2164 C2170 1.383 . S
C2165 C2161 1.495 . S
C2165 H2171 0.959 . S
C2165 H2172 0.961 . S
C2165 H2173 0.960 . S
C2166 C2164 1.381 . S
C2166 C2167 1.394 . S
C2166 H2174 0.930 . S
C2167 C2166 1.394 . S
C2167 C2168 1.383 . S
C2167 H2175 0.929 . S
C2168 C2167 1.383 . S
C2168 C2169 1.377 . S
C2169 H2153 0.930 . S
C2169 C2168 1.377 . S
C2169 C2170 1.379 . S
C2170 H2154 0.931 . S
C2170 C2164 1.383 . S
C2170 C2169 1.379 . S
H2171 C2165 0.959 . S
H2172 C2165 0.961 . S
H2173 C2165 0.960 . S
H2174 C2166 0.930 . S
H2175 C2167 0.929 . S
H2176 C2184 0.929 . S
H2177 C2186 0.930 . S
H2178 C2188 0.930 . S
H2179 C2191 0.929 . S
H2180 C2194 0.930 . S
H2181 C2196 0.960 . S
H2182 C2196 0.960 . S
H2183 C2196 0.960 . S
C2184 H2176 0.929 . S
C2184 C2185 1.377 . S
C2184 C2186 1.384 . S
C2185 C2184 1.377 . S
C2185 C2191 1.390 . S
C2186 H2177 0.930 . S
C2186 C2184 1.384 . S
C2186 C2187 1.372 . S
C2187 C2186 1.372 . S
C2187 C2188 1.400 . S
C2187 C2192 1.490 . S
C2188 H2178 0.930 . S
C2188 C2187 1.400 . S
C2188 C2191 1.386 . S
H2189 C2205 0.930 . S
H2190 C2206 0.931 . S
C2191 H2179 0.929 . S
C2191 C2185 1.390 . S
C2191 C2188 1.386 . S
C2192 C2187 1.490 . S
C2192 C2194 1.395 . S
C2192 C2195 1.403 . S
H2193 C2199 0.930 . S
C2194 H2180 0.930 . S
C2194 C2192 1.395 . S
C2194 C2197 1.403 . S
C2195 C2192 1.403 . S
C2195 C2196 1.524 . S
C2195 C2199 1.400 . S
C2196 H2181 0.960 . S
C2196 H2182 0.960 . S
C2196 H2183 0.960 . S
C2196 C2195 1.524 . S
C2197 C2194 1.403 . S
C2197 C2198 1.392 . S
C2197 C2201 1.495 . S
C2198 C2197 1.392 . S
C2198 C2199 1.385 . S
C2198 C2200 1.478 . S
C2199 H2193 0.930 . S
C2199 C2195 1.400 . S
C2199 C2198 1.385 . S
C2200 C2198 1.478 . S
C2200 C2202 1.381 . S
C2200 C2206 1.383 . S
C2201 C2197 1.495 . S
C2201 H2207 0.959 . S
C2201 H2208 0.961 . S
C2201 H2209 0.960 . S
C2202 C2200 1.381 . S
C2202 C2203 1.394 . S
C2202 H2210 0.930 . S
C2203 C2202 1.394 . S
C2203 C2204 1.383 . S
C2203 H2211 0.929 . S
C2204 C2203 1.383 . S
C2204 C2205 1.377 . S
C2205 H2189 0.930 . S
C2205 C2204 1.377 . S
C2205 C2206 1.379 . S
C2206 H2190 0.931 . S
C2206 C2200 1.383 . S
C2206 C2205 1.379 . S
H2207 C2201 0.959 . S
H2208 C2201 0.961 . S
H2209 C2201 0.960 . S
H2210 C2202 0.930 . S
H2211 C2203 0.929 . S
H2212 C2220 0.929 . S
H2213 C2222 0.930 . S
H2214 C2224 0.930 . S
H2215 C2227 0.929 . S
H2216 C2230 0.930 . S
H2217 C2232 0.960 . S
H2218 C2232 0.960 . S
H2219 C2232 0.960 . S
C2220 H2212 0.929 . S
C2220 C2221 1.377 . S
C2220 C2222 1.384 . S
C2221 C2220 1.377 . S
C2221 C2227 1.390 . S
C2222 H2213 0.930 . S
C2222 C2220 1.384 . S
C2222 C2223 1.372 . S
C2223 C2222 1.372 . S
C2223 C2224 1.400 . S
C2223 C2228 1.490 . S
C2224 H2214 0.930 . S
C2224 C2223 1.400 . S
C2224 C2227 1.386 . S
H2225 C2241 0.930 . S
H2226 C2242 0.931 . S
C2227 H2215 0.929 . S
C2227 C2221 1.390 . S
C2227 C2224 1.386 . S
C2228 C2223 1.490 . S
C2228 C2230 1.395 1_565 S
C2228 C2231 1.403 . S
H2229 C2235 0.930 . S
C2230 H2216 0.930 . S
C2230 C2228 1.395 1_545 S
C2230 C2233 1.403 . S
C2231 C2228 1.403 . S
C2231 C2232 1.524 . S
C2231 C2235 1.400 . S
C2232 H2217 0.960 . S
C2232 H2218 0.960 . S
C2232 H2219 0.960 . S
C2232 C2231 1.524 . S
C2233 C2230 1.403 . S
C2233 C2234 1.392 . S
C2233 C2237 1.495 . S
C2234 C2233 1.392 . S
C2234 C2235 1.385 1_545 S
C2234 C2236 1.478 . S
C2235 H2229 0.930 . S
C2235 C2231 1.400 . S
C2235 C2234 1.385 1_565 S
C2236 C2234 1.478 . S
C2236 C2238 1.381 . S
C2236 C2242 1.383 . S
C2237 C2233 1.495 . S
C2237 H2243 0.959 . S
C2237 H2244 0.961 . S
C2237 H2245 0.960 . S
C2238 C2236 1.381 . S
C2238 C2239 1.394 . S
C2238 H2246 0.930 . S
C2239 C2238 1.394 . S
C2239 C2240 1.383 . S
C2239 H2247 0.929 . S
C2240 C2239 1.383 . S
C2240 C2241 1.377 . S
C2241 H2225 0.930 . S
C2241 C2240 1.377 . S
C2241 C2242 1.379 . S
C2242 H2226 0.931 . S
C2242 C2236 1.383 . S
C2242 C2241 1.379 . S
H2243 C2237 0.959 . S
H2244 C2237 0.961 . S
H2245 C2237 0.960 . S
H2246 C2238 0.930 . S
H2247 C2239 0.929 . S
H2248 C2256 0.929 . S
H2249 C2258 0.930 . S
H2250 C2260 0.930 . S
H2251 C2263 0.929 . S
H2252 C2266 0.930 . S
H2253 C2268 0.960 . S
H2254 C2268 0.960 . S
H2255 C2268 0.960 . S
C2256 H2248 0.929 . S
C2256 C2257 1.377 . S
C2256 C2258 1.384 . S
C2257 C2256 1.377 . S
C2257 C2263 1.390 . S
C2258 H2249 0.930 . S
C2258 C2256 1.384 . S
C2258 C2259 1.372 . S
C2259 C2258 1.372 . S
C2259 C2260 1.400 . S
C2259 C2264 1.490 . S
C2260 H2250 0.930 . S
C2260 C2259 1.400 . S
C2260 C2263 1.386 . S
H2261 C2277 0.930 . S
H2262 C2278 0.931 . S
C2263 H2251 0.929 . S
C2263 C2257 1.390 . S
C2263 C2260 1.386 . S
C2264 C2259 1.490 . S
C2264 C2266 1.395 . S
C2264 C2267 1.403 . S
H2265 C2271 0.930 . S
C2266 H2252 0.930 . S
C2266 C2264 1.395 . S
C2266 C2269 1.403 . S
C2267 C2264 1.403 . S
C2267 C2268 1.524 . S
C2267 C2271 1.400 . S
C2268 H2253 0.960 . S
C2268 H2254 0.960 . S
C2268 H2255 0.960 . S
C2268 C2267 1.524 . S
C2269 C2266 1.403 . S
C2269 C2270 1.392 . S
C2269 C2273 1.495 . S
C2270 C2269 1.392 . S
C2270 C2271 1.385 . S
C2270 C2272 1.478 . S
C2271 H2265 0.930 . S
C2271 C2267 1.400 . S
C2271 C2270 1.385 . S
C2272 C2270 1.478 . S
C2272 C2274 1.381 . S
C2272 C2278 1.383 . S
C2273 C2269 1.495 . S
C2273 H2279 0.959 . S
C2273 H2280 0.961 . S
C2273 H2281 0.960 . S
C2274 C2272 1.381 . S
C2274 C2275 1.394 . S
C2274 H2282 0.930 . S
C2275 C2274 1.394 . S
C2275 C2276 1.383 . S
C2275 H2283 0.929 . S
C2276 C2275 1.383 . S
C2276 C2277 1.377 . S
C2277 H2261 0.930 . S
C2277 C2276 1.377 . S
C2277 C2278 1.379 . S
C2278 H2262 0.931 . S
C2278 C2272 1.383 . S
C2278 C2277 1.379 . S
H2279 C2273 0.959 . S
H2280 C2273 0.961 . S
H2281 C2273 0.960 . S
H2282 C2274 0.930 . S
H2283 C2275 0.929 . S
H2284 C2292 0.929 . S
H2285 C2294 0.930 . S
H2286 C2296 0.930 1_554 S
H2287 C2299 0.929 . S
H2288 C2302 0.930 . S
H2289 C2304 0.960 . S
H2290 C2304 0.960 . S
H2291 C2304 0.960 . S
C2292 H2284 0.929 . S
C2292 C2293 1.377 . S
C2292 C2294 1.384 . S
C2293 C2292 1.377 . S
C2293 C2299 1.390 . S
C2294 H2285 0.930 . S
C2294 C2292 1.384 . S
C2294 C2295 1.372 1_556 S
C2295 C2294 1.372 1_554 S
C2295 C2296 1.400 1_554 S
C2295 C2300 1.490 . S
C2296 H2286 0.930 1_556 S
C2296 C2295 1.400 1_556 S
C2296 C2299 1.386 . S
H2297 C2313 0.930 . S
H2298 C2314 0.931 . S
C2299 H2287 0.929 . S
C2299 C2293 1.390 . S
C2299 C2296 1.386 . S
C2300 C2295 1.490 . S
C2300 C2302 1.395 1_545 S
C2300 C2303 1.403 . S
H2301 C2307 0.930 . S
C2302 H2288 0.930 . S
C2302 C2300 1.395 1_565 S
C2302 C2305 1.403 . S
C2303 C2300 1.403 . S
C2303 C2304 1.524 . S
C2303 C2307 1.400 . S
C2304 H2289 0.960 . S
C2304 H2290 0.960 . S
C2304 H2291 0.960 . S
C2304 C2303 1.524 . S
C2305 C2302 1.403 . S
C2305 C2306 1.392 . S
C2305 C2309 1.495 . S
C2306 C2305 1.392 . S
C2306 C2307 1.385 1_565 S
C2306 C2308 1.478 . S
C2307 H2301 0.930 . S
C2307 C2303 1.400 . S
C2307 C2306 1.385 1_545 S
C2308 C2306 1.478 . S
C2308 C2310 1.381 . S
C2308 C2314 1.383 . S
C2309 C2305 1.495 . S
C2309 H2315 0.959 . S
C2309 H2316 0.961 . S
C2309 H2317 0.960 . S
C2310 C2308 1.381 . S
C2310 C2311 1.394 . S
C2310 H2318 0.930 . S
C2311 C2310 1.394 . S
C2311 C2312 1.383 . S
C2311 H2319 0.929 . S
C2312 C2311 1.383 . S
C2312 C2313 1.377 . S
C2313 H2297 0.930 . S
C2313 C2312 1.377 . S
C2313 C2314 1.379 . S
C2314 H2298 0.931 . S
C2314 C2308 1.383 . S
C2314 C2313 1.379 . S
H2315 C2309 0.959 . S
H2316 C2309 0.961 . S
H2317 C2309 0.960 . S
H2318 C2310 0.930 . S
H2319 C2311 0.929 . S
H2320 C2328 0.929 1_554 S
H2321 C2330 0.930 . S
H2322 C2332 0.930 . S
H2323 C2335 0.929 . S
H2324 C2338 0.930 . S
H2325 C2340 0.960 . S
H2326 C2340 0.960 . S
H2327 C2340 0.960 . S
C2328 H2320 0.929 1_556 S
C2328 C2329 1.377 . S
C2328 C2330 1.384 . S
C2329 C2328 1.377 . S
C2329 C2335 1.390 . S
C2330 H2321 0.930 . S
C2330 C2328 1.384 . S
C2330 C2331 1.372 . S
C2331 C2330 1.372 . S
C2331 C2332 1.400 . S
C2331 C2336 1.490 . S
C2332 H2322 0.930 . S
C2332 C2331 1.400 . S
C2332 C2335 1.386 . S
H2333 C2349 0.930 . S
H2334 C2350 0.931 . S
C2335 H2323 0.929 . S
C2335 C2329 1.390 . S
C2335 C2332 1.386 . S
C2336 C2331 1.490 . S
C2336 C2338 1.395 . S
C2336 C2339 1.403 . S
H2337 C2343 0.930 . S
C2338 H2324 0.930 . S
C2338 C2336 1.395 . S
C2338 C2341 1.403 . S
C2339 C2336 1.403 . S
C2339 C2340 1.524 . S
C2339 C2343 1.400 . S
C2340 H2325 0.960 . S
C2340 H2326 0.960 . S
C2340 H2327 0.960 . S
C2340 C2339 1.524 . S
C2341 C2338 1.403 . S
C2341 C2342 1.392 . S
C2341 C2345 1.495 . S
C2342 C2341 1.392 . S
C2342 C2343 1.385 . S
C2342 C2344 1.478 . S
C2343 H2337 0.930 . S
C2343 C2339 1.400 . S
C2343 C2342 1.385 . S
C2344 C2342 1.478 . S
C2344 C2346 1.381 . S
C2344 C2350 1.383 . S
C2345 C2341 1.495 . S
C2345 H2351 0.959 . S
C2345 H2352 0.961 . S
C2345 H2353 0.960 . S
C2346 C2344 1.381 . S
C2346 C2347 1.394 . S
C2346 H2354 0.930 . S
C2347 C2346 1.394 . S
C2347 C2348 1.383 . S
C2347 H2355 0.929 . S
C2348 C2347 1.383 . S
C2348 C2349 1.377 . S
C2349 H2333 0.930 . S
C2349 C2348 1.377 . S
C2349 C2350 1.379 . S
C2350 H2334 0.931 . S
C2350 C2344 1.383 . S
C2350 C2349 1.379 . S
H2351 C2345 0.959 . S
H2352 C2345 0.961 . S
H2353 C2345 0.960 . S
H2354 C2346 0.930 . S
H2355 C2347 0.929 . S
H2356 C2364 0.929 . S
H2357 C2366 0.930 . S
H2358 C2368 0.930 1_565 S
H2359 C2371 0.929 . S
H2360 C2374 0.930 . S
H2361 C2376 0.960 . S
H2362 C2376 0.960 . S
H2363 C2376 0.960 . S
C2364 H2356 0.929 . S
C2364 C2365 1.377 . S
C2364 C2366 1.384 . S
C2365 C2364 1.377 . S
C2365 C2371 1.390 . S
C2366 H2357 0.930 . S
C2366 C2364 1.384 . S
C2366 C2367 1.372 . S
C2367 C2366 1.372 . S
C2367 C2368 1.400 . S
C2367 C2372 1.490 . S
C2368 H2358 0.930 1_545 S
C2368 C2367 1.400 . S
C2368 C2371 1.386 . S
H2369 C2385 0.930 . S
H2370 C2386 0.931 . S
C2371 H2359 0.929 . S
C2371 C2365 1.390 . S
C2371 C2368 1.386 . S
C2372 C2367 1.490 . S
C2372 C2374 1.395 . S
C2372 C2375 1.403 1_545 S
H2373 C2379 0.930 . S
C2374 H2360 0.930 . S
C2374 C2372 1.395 . S
C2374 C2377 1.403 . S
C2375 C2372 1.403 1_565 S
C2375 C2376 1.524 . S
C2375 C2379 1.400 . S
C2376 H2361 0.960 . S
C2376 H2362 0.960 . S
C2376 H2363 0.960 . S
C2376 C2375 1.524 . S
C2377 C2374 1.403 . S
C2377 C2378 1.392 1_545 S
C2377 C2381 1.495 . S
C2378 C2377 1.392 1_565 S
C2378 C2379 1.385 . S
C2378 C2380 1.478 . S
C2379 H2373 0.930 . S
C2379 C2375 1.400 . S
C2379 C2378 1.385 . S
C2380 C2378 1.478 . S
C2380 C2382 1.381 . S
C2380 C2386 1.383 . S
C2381 C2377 1.495 . S
C2381 H2387 0.959 . S
C2381 H2388 0.961 . S
C2381 H2389 0.960 . S
C2382 C2380 1.381 . S
C2382 C2383 1.394 . S
C2382 H2390 0.930 1_565 S
C2383 C2382 1.394 . S
C2383 C2384 1.383 . S
C2383 H2391 0.929 . S
C2384 C2383 1.383 . S
C2384 C2385 1.377 . S
C2385 H2369 0.930 . S
C2385 C2384 1.377 . S
C2385 C2386 1.379 . S
C2386 H2370 0.931 . S
C2386 C2380 1.383 . S
C2386 C2385 1.379 . S
H2387 C2381 0.959 . S
H2388 C2381 0.961 . S
H2389 C2381 0.960 . S
H2390 C2382 0.930 1_545 S
H2391 C2383 0.929 . S
H2392 C2400 0.929 . S
H2393 C2402 0.930 . S
H2394 C2404 0.930 . S
H2395 C2407 0.929 . S
H2396 C2410 0.930 . S
H2397 C2412 0.960 . S
H2398 C2412 0.960 . S
H2399 C2412 0.960 . S
C2400 H2392 0.929 . S
C2400 C2401 1.377 . S
C2400 C2402 1.384 . S
C2401 C2400 1.377 . S
C2401 C2407 1.390 . S
C2402 H2393 0.930 . S
C2402 C2400 1.384 . S
C2402 C2403 1.372 . S
C2403 C2402 1.372 . S
C2403 C2404 1.400 . S
C2403 C2408 1.490 . S
C2404 H2394 0.930 . S
C2404 C2403 1.400 . S
C2404 C2407 1.386 . S
H2405 C2421 0.930 . S
H2406 C2422 0.931 . S
C2407 H2395 0.929 . S
C2407 C2401 1.390 . S
C2407 C2404 1.386 . S
C2408 C2403 1.490 . S
C2408 C2410 1.395 . S
C2408 C2411 1.403 . S
H2409 C2415 0.930 . S
C2410 H2396 0.930 . S
C2410 C2408 1.395 . S
C2410 C2413 1.403 . S
C2411 C2408 1.403 . S
C2411 C2412 1.524 . S
C2411 C2415 1.400 . S
C2412 H2397 0.960 . S
C2412 H2398 0.960 . S
C2412 H2399 0.960 . S
C2412 C2411 1.524 . S
C2413 C2410 1.403 . S
C2413 C2414 1.392 . S
C2413 C2417 1.495 . S
C2414 C2413 1.392 . S
C2414 C2415 1.385 . S
C2414 C2416 1.478 . S
C2415 H2409 0.930 . S
C2415 C2411 1.400 . S
C2415 C2414 1.385 . S
C2416 C2414 1.478 . S
C2416 C2418 1.381 . S
C2416 C2422 1.383 . S
C2417 C2413 1.495 . S
C2417 H2423 0.959 . S
C2417 H2424 0.961 . S
C2417 H2425 0.960 . S
C2418 C2416 1.381 . S
C2418 C2419 1.394 . S
C2418 H2426 0.930 . S
C2419 C2418 1.394 . S
C2419 C2420 1.383 . S
C2419 H2427 0.929 . S
C2420 C2419 1.383 . S
C2420 C2421 1.377 . S
C2421 H2405 0.930 . S
C2421 C2420 1.377 . S
C2421 C2422 1.379 . S
C2422 H2406 0.931 . S
C2422 C2416 1.383 . S
C2422 C2421 1.379 . S
H2423 C2417 0.959 . S
H2424 C2417 0.961 . S
H2425 C2417 0.960 . S
H2426 C2418 0.930 . S
H2427 C2419 0.929 . S
H2428 C2436 0.929 . S
H2429 C2438 0.930 . S
H2430 C2440 0.930 1_545 S
H2431 C2443 0.929 . S
H2432 C2446 0.930 . S
H2433 C2448 0.960 . S
H2434 C2448 0.960 . S
H2435 C2448 0.960 . S
C2436 H2428 0.929 . S
C2436 C2437 1.377 . S
C2436 C2438 1.384 . S
C2437 C2436 1.377 . S
C2437 C2443 1.390 . S
C2438 H2429 0.930 . S
C2438 C2436 1.384 . S
C2438 C2439 1.372 . S
C2439 C2438 1.372 . S
C2439 C2440 1.400 . S
C2439 C2444 1.490 . S
C2440 H2430 0.930 1_565 S
C2440 C2439 1.400 . S
C2440 C2443 1.386 . S
H2441 C2457 0.930 . S
H2442 C2458 0.931 . S
C2443 H2431 0.929 . S
C2443 C2437 1.390 . S
C2443 C2440 1.386 . S
C2444 C2439 1.490 . S
C2444 C2446 1.395 . S
C2444 C2447 1.403 1_565 S
H2445 C2451 0.930 . S
C2446 H2432 0.930 . S
C2446 C2444 1.395 . S
C2446 C2449 1.403 . S
C2447 C2444 1.403 1_545 S
C2447 C2448 1.524 . S
C2447 C2451 1.400 . S
C2448 H2433 0.960 . S
C2448 H2434 0.960 . S
C2448 H2435 0.960 . S
C2448 C2447 1.524 . S
C2449 C2446 1.403 . S
C2449 C2450 1.392 1_565 S
C2449 C2453 1.495 . S
C2450 C2449 1.392 1_545 S
C2450 C2451 1.385 . S
C2450 C2452 1.478 . S
C2451 H2445 0.930 . S
C2451 C2447 1.400 . S
C2451 C2450 1.385 . S
C2452 C2450 1.478 . S
C2452 C2454 1.381 1_554 S
C2452 C2458 1.383 . S
C2453 C2449 1.495 . S
C2453 H2459 0.959 . S
C2453 H2460 0.961 . S
C2453 H2461 0.960 . S
C2454 C2452 1.381 1_556 S
C2454 C2455 1.394 . S
C2454 H2462 0.930 1_545 S
C2455 C2454 1.394 . S
C2455 C2456 1.383 . S
C2455 H2463 0.929 . S
C2456 C2455 1.383 . S
C2456 C2457 1.377 . S
C2457 H2441 0.930 . S
C2457 C2456 1.377 . S
C2457 C2458 1.379 1_556 S
C2458 H2442 0.931 . S
C2458 C2452 1.383 . S
C2458 C2457 1.379 1_554 S
H2459 C2453 0.959 . S
H2460 C2453 0.961 . S
H2461 C2453 0.960 . S
H2462 C2454 0.930 1_565 S
H2463 C2455 0.929 . S
H2464 C2472 0.929 . S
H2465 C2474 0.930 . S
H2466 C2476 0.930 . S
H2467 C2479 0.929 . S
H2468 C2482 0.930 . S
H2469 C2484 0.960 . S
H2470 C2484 0.960 . S
H2471 C2484 0.960 . S
C2472 H2464 0.929 . S
C2472 C2473 1.377 . S
C2472 C2474 1.384 . S
C2473 C2472 1.377 . S
C2473 C2479 1.390 . S
C2474 H2465 0.930 . S
C2474 C2472 1.384 . S
C2474 C2475 1.372 . S
C2475 C2474 1.372 . S
C2475 C2476 1.400 . S
C2475 C2480 1.490 . S
C2476 H2466 0.930 . S
C2476 C2475 1.400 . S
C2476 C2479 1.386 . S
H2477 C2493 0.930 . S
H2478 C2494 0.931 . S
C2479 H2467 0.929 . S
C2479 C2473 1.390 . S
C2479 C2476 1.386 . S
C2480 C2475 1.490 . S
C2480 C2482 1.395 . S
C2480 C2483 1.403 . S
H2481 C2487 0.930 . S
C2482 H2468 0.930 . S
C2482 C2480 1.395 . S
C2482 C2485 1.403 . S
C2483 C2480 1.403 . S
C2483 C2484 1.524 . S
C2483 C2487 1.400 . S
C2484 H2469 0.960 . S
C2484 H2470 0.960 . S
C2484 H2471 0.960 . S
C2484 C2483 1.524 . S
C2485 C2482 1.403 . S
C2485 C2486 1.392 . S
C2485 C2489 1.495 . S
C2486 C2485 1.392 . S
C2486 C2487 1.385 . S
C2486 C2488 1.478 . S
C2487 H2481 0.930 . S
C2487 C2483 1.400 . S
C2487 C2486 1.385 . S
C2488 C2486 1.478 . S
C2488 C2490 1.381 . S
C2488 C2494 1.383 . S
C2489 C2485 1.495 . S
C2489 H2495 0.959 . S
C2489 H2496 0.961 . S
C2489 H2497 0.960 . S
C2490 C2488 1.381 . S
C2490 C2491 1.394 . S
C2490 H2498 0.930 . S
C2491 C2490 1.394 . S
C2491 C2492 1.383 . S
C2491 H2499 0.929 . S
C2492 C2491 1.383 . S
C2492 C2493 1.377 . S
C2493 H2477 0.930 . S
C2493 C2492 1.377 . S
C2493 C2494 1.379 . S
C2494 H2478 0.931 . S
C2494 C2488 1.383 . S
C2494 C2493 1.379 . S
H2495 C2489 0.959 . S
H2496 C2489 0.961 . S
H2497 C2489 0.960 . S
H2498 C2490 0.930 . S
H2499 C2491 0.929 . S
H2500 C2508 0.929 . S
H2501 C2510 0.930 . S
H2502 C2512 0.930 . S
H2503 C2515 0.929 . S
H2504 C2518 0.930 . S
H2505 C2520 0.960 . S
H2506 C2520 0.960 . S
H2507 C2520 0.960 . S
C2508 H2500 0.929 . S
C2508 C2509 1.377 . S
C2508 C2510 1.384 . S
C2509 C2508 1.377 . S
C2509 C2515 1.390 . S
C2510 H2501 0.930 . S
C2510 C2508 1.384 . S
C2510 C2511 1.372 . S
C2511 C2510 1.372 . S
C2511 C2512 1.400 . S
C2511 C2516 1.490 . S
C2512 H2502 0.930 . S
C2512 C2511 1.400 . S
C2512 C2515 1.386 . S
H2513 C2529 0.930 . S
H2514 C2530 0.931 1_554 S
C2515 H2503 0.929 . S
C2515 C2509 1.390 . S
C2515 C2512 1.386 . S
C2516 C2511 1.490 . S
C2516 C2518 1.395 . S
C2516 C2519 1.403 . S
H2517 C2523 0.930 . S
C2518 H2504 0.930 . S
C2518 C2516 1.395 . S
C2518 C2521 1.403 . S
C2519 C2516 1.403 . S
C2519 C2520 1.524 . S
C2519 C2523 1.400 . S
C2520 H2505 0.960 . S
C2520 H2506 0.960 . S
C2520 H2507 0.960 . S
C2520 C2519 1.524 . S
C2521 C2518 1.403 . S
C2521 C2522 1.392 . S
C2521 C2525 1.495 . S
C2522 C2521 1.392 . S
C2522 C2523 1.385 . S
C2522 C2524 1.478 . S
C2523 H2517 0.930 . S
C2523 C2519 1.400 . S
C2523 C2522 1.385 . S
C2524 C2522 1.478 . S
C2524 C2526 1.381 1_554 S
C2524 C2530 1.383 1_554 S
C2525 C2521 1.495 . S
C2525 H2531 0.959 . S
C2525 H2532 0.961 . S
C2525 H2533 0.960 . S
C2526 C2524 1.381 1_556 S
C2526 C2527 1.394 . S
C2526 H2534 0.930 . S
C2527 C2526 1.394 . S
C2527 C2528 1.383 . S
C2527 H2535 0.929 . S
C2528 C2527 1.383 . S
C2528 C2529 1.377 . S
C2529 H2513 0.930 . S
C2529 C2528 1.377 . S
C2529 C2530 1.379 . S
C2530 H2514 0.931 1_556 S
C2530 C2524 1.383 1_556 S
C2530 C2529 1.379 . S
H2531 C2525 0.959 . S
H2532 C2525 0.961 . S
H2533 C2525 0.960 . S
H2534 C2526 0.930 . S
H2535 C2527 0.929 . S
H2536 C2544 0.929 . S
H2537 C2546 0.930 . S
H2538 C2548 0.930 . S
H2539 C2551 0.929 . S
H2540 C2554 0.930 . S
H2541 C2556 0.960 . S
H2542 C2556 0.960 . S
H2543 C2556 0.960 . S
C2544 H2536 0.929 . S
C2544 C2545 1.377 . S
C2544 C2546 1.384 . S
C2545 C2544 1.377 . S
C2545 C2551 1.390 . S
C2546 H2537 0.930 . S
C2546 C2544 1.384 . S
C2546 C2547 1.372 . S
C2547 C2546 1.372 . S
C2547 C2548 1.400 . S
C2547 C2552 1.490 . S
C2548 H2538 0.930 . S
C2548 C2547 1.400 . S
C2548 C2551 1.386 . S
H2549 C2565 0.930 . S
H2550 C2566 0.931 . S
C2551 H2539 0.929 . S
C2551 C2545 1.390 . S
C2551 C2548 1.386 . S
C2552 C2547 1.490 . S
C2552 C2554 1.395 . S
C2552 C2555 1.403 . S
H2553 C2559 0.930 . S
C2554 H2540 0.930 . S
C2554 C2552 1.395 . S
C2554 C2557 1.403 . S
C2555 C2552 1.403 . S
C2555 C2556 1.524 . S
C2555 C2559 1.400 . S
C2556 H2541 0.960 . S
C2556 H2542 0.960 . S
C2556 H2543 0.960 . S
C2556 C2555 1.524 . S
C2557 C2554 1.403 . S
C2557 C2558 1.392 . S
C2557 C2561 1.495 . S
C2558 C2557 1.392 . S
C2558 C2559 1.385 . S
C2558 C2560 1.478 . S
C2559 H2553 0.930 . S
C2559 C2555 1.400 . S
C2559 C2558 1.385 . S
C2560 C2558 1.478 . S
C2560 C2562 1.381 . S
C2560 C2566 1.383 . S
C2561 C2557 1.495 . S
C2561 H2567 0.959 . S
C2561 H2568 0.961 . S
C2561 H2569 0.960 . S
C2562 C2560 1.381 . S
C2562 C2563 1.394 . S
C2562 H2570 0.930 . S
C2563 C2562 1.394 . S
C2563 C2564 1.383 . S
C2563 H2571 0.929 . S
C2564 C2563 1.383 . S
C2564 C2565 1.377 . S
C2565 H2549 0.930 . S
C2565 C2564 1.377 . S
C2565 C2566 1.379 . S
C2566 H2550 0.931 . S
C2566 C2560 1.383 . S
C2566 C2565 1.379 . S
H2567 C2561 0.959 . S
H2568 C2561 0.961 . S
H2569 C2561 0.960 . S
H2570 C2562 0.930 . S
H2571 C2563 0.929 . S
H2572 C2580 0.929 . S
H2573 C2582 0.930 . S
H2574 C2584 0.930 . S
H2575 C2587 0.929 . S
H2576 C2590 0.930 . S
H2577 C2592 0.960 . S
H2578 C2592 0.960 . S
H2579 C2592 0.960 . S
C2580 H2572 0.929 . S
C2580 C2581 1.377 . S
C2580 C2582 1.384 . S
C2581 C2580 1.377 . S
C2581 C2587 1.390 . S
C2582 H2573 0.930 . S
C2582 C2580 1.384 . S
C2582 C2583 1.372 . S
C2583 C2582 1.372 . S
C2583 C2584 1.400 . S
C2583 C2588 1.490 . S
C2584 H2574 0.930 . S
C2584 C2583 1.400 . S
C2584 C2587 1.386 . S
H2585 C2601 0.930 . S
H2586 C2602 0.931 . S
C2587 H2575 0.929 . S
C2587 C2581 1.390 . S
C2587 C2584 1.386 . S
C2588 C2583 1.490 . S
C2588 C2590 1.395 . S
C2588 C2591 1.403 . S
H2589 C2595 0.930 . S
C2590 H2576 0.930 . S
C2590 C2588 1.395 . S
C2590 C2593 1.403 . S
C2591 C2588 1.403 . S
C2591 C2592 1.524 . S
C2591 C2595 1.400 . S
C2592 H2577 0.960 . S
C2592 H2578 0.960 . S
C2592 H2579 0.960 . S
C2592 C2591 1.524 . S
C2593 C2590 1.403 . S
C2593 C2594 1.392 . S
C2593 C2597 1.495 . S
C2594 C2593 1.392 . S
C2594 C2595 1.385 . S
C2594 C2596 1.478 . S
C2595 H2589 0.930 . S
C2595 C2591 1.400 . S
C2595 C2594 1.385 . S
C2596 C2594 1.478 . S
C2596 C2598 1.381 . S
C2596 C2602 1.383 . S
C2597 C2593 1.495 . S
C2597 H2603 0.959 . S
C2597 H2604 0.961 . S
C2597 H2605 0.960 . S
C2598 C2596 1.381 . S
C2598 C2599 1.394 . S
C2598 H2606 0.930 . S
C2599 C2598 1.394 . S
C2599 C2600 1.383 . S
C2599 H2607 0.929 . S
C2600 C2599 1.383 . S
C2600 C2601 1.377 . S
C2601 H2585 0.930 . S
C2601 C2600 1.377 . S
C2601 C2602 1.379 . S
C2602 H2586 0.931 . S
C2602 C2596 1.383 . S
C2602 C2601 1.379 . S
H2603 C2597 0.959 . S
H2604 C2597 0.961 . S
H2605 C2597 0.960 . S
H2606 C2598 0.930 . S
H2607 C2599 0.929 . S
H2608 C2616 0.929 . S
H2609 C2618 0.930 . S
H2610 C2620 0.930 . S
H2611 C2623 0.929 . S
H2612 C2626 0.930 . S
H2613 C2628 0.960 . S
H2614 C2628 0.960 . S
H2615 C2628 0.960 . S
C2616 H2608 0.929 . S
C2616 C2617 1.377 . S
C2616 C2618 1.384 . S
C2617 C2616 1.377 . S
C2617 C2623 1.390 . S
C2618 H2609 0.930 . S
C2618 C2616 1.384 . S
C2618 C2619 1.372 . S
C2619 C2618 1.372 . S
C2619 C2620 1.400 . S
C2619 C2624 1.490 . S
C2620 H2610 0.930 . S
C2620 C2619 1.400 . S
C2620 C2623 1.386 . S
H2621 C2637 0.930 . S
H2622 C2638 0.931 . S
C2623 H2611 0.929 . S
C2623 C2617 1.390 . S
C2623 C2620 1.386 . S
C2624 C2619 1.490 . S
C2624 C2626 1.395 . S
C2624 C2627 1.403 . S
H2625 C2631 0.930 . S
C2626 H2612 0.930 . S
C2626 C2624 1.395 . S
C2626 C2629 1.403 . S
C2627 C2624 1.403 . S
C2627 C2628 1.524 . S
C2627 C2631 1.400 . S
C2628 H2613 0.960 . S
C2628 H2614 0.960 . S
C2628 H2615 0.960 . S
C2628 C2627 1.524 . S
C2629 C2626 1.403 . S
C2629 C2630 1.392 . S
C2629 C2633 1.495 . S
C2630 C2629 1.392 . S
C2630 C2631 1.385 . S
C2630 C2632 1.478 . S
C2631 H2625 0.930 . S
C2631 C2627 1.400 . S
C2631 C2630 1.385 . S
C2632 C2630 1.478 . S
C2632 C2634 1.381 . S
C2632 C2638 1.383 . S
C2633 C2629 1.495 . S
C2633 H2639 0.959 . S
C2633 H2640 0.961 . S
C2633 H2641 0.960 . S
C2634 C2632 1.381 . S
C2634 C2635 1.394 . S
C2634 H2642 0.930 . S
C2635 C2634 1.394 . S
C2635 C2636 1.383 . S
C2635 H2643 0.929 . S
C2636 C2635 1.383 . S
C2636 C2637 1.377 . S
C2637 H2621 0.930 . S
C2637 C2636 1.377 . S
C2637 C2638 1.379 . S
C2638 H2622 0.931 . S
C2638 C2632 1.383 . S
C2638 C2637 1.379 . S
H2639 C2633 0.959 . S
H2640 C2633 0.961 . S
H2641 C2633 0.960 . S
H2642 C2634 0.930 . S
H2643 C2635 0.929 . S
H2644 C2652 0.929 . S
H2645 C2654 0.930 . S
H2646 C2656 0.930 . S
H2647 C2659 0.929 . S
H2648 C2662 0.930 . S
H2649 C2664 0.960 . S
H2650 C2664 0.960 . S
H2651 C2664 0.960 . S
C2652 H2644 0.929 . S
C2652 C2653 1.377 . S
C2652 C2654 1.384 1_556 S
C2653 C2652 1.377 . S
C2653 C2659 1.390 . S
C2654 H2645 0.930 . S
C2654 C2652 1.384 1_554 S
C2654 C2655 1.372 . S
C2655 C2654 1.372 . S
C2655 C2656 1.400 1_554 S
C2655 C2660 1.490 . S
C2656 H2646 0.930 . S
C2656 C2655 1.400 1_556 S
C2656 C2659 1.386 . S
H2657 C2673 0.930 . S
H2658 C2674 0.931 . S
C2659 H2647 0.929 . S
C2659 C2653 1.390 . S
C2659 C2656 1.386 . S
C2660 C2655 1.490 . S
C2660 C2662 1.395 . S
C2660 C2663 1.403 . S
H2661 C2667 0.930 . S
C2662 H2648 0.930 . S
C2662 C2660 1.395 . S
C2662 C2665 1.403 . S
C2663 C2660 1.403 . S
C2663 C2664 1.524 . S
C2663 C2667 1.400 . S
C2664 H2649 0.960 . S
C2664 H2650 0.960 . S
C2664 H2651 0.960 . S
C2664 C2663 1.524 . S
C2665 C2662 1.403 . S
C2665 C2666 1.392 . S
C2665 C2669 1.495 . S
C2666 C2665 1.392 . S
C2666 C2667 1.385 . S
C2666 C2668 1.478 . S
C2667 H2661 0.930 . S
C2667 C2663 1.400 . S
C2667 C2666 1.385 . S
C2668 C2666 1.478 . S
C2668 C2670 1.381 . S
C2668 C2674 1.383 . S
C2669 C2665 1.495 . S
C2669 H2675 0.959 . S
C2669 H2676 0.961 . S
C2669 H2677 0.960 . S
C2670 C2668 1.381 . S
C2670 C2671 1.394 . S
C2670 H2678 0.930 . S
C2671 C2670 1.394 . S
C2671 C2672 1.383 . S
C2671 H2679 0.929 . S
C2672 C2671 1.383 . S
C2672 C2673 1.377 . S
C2673 H2657 0.930 . S
C2673 C2672 1.377 . S
C2673 C2674 1.379 . S
C2674 H2658 0.931 . S
C2674 C2668 1.383 . S
C2674 C2673 1.379 . S
H2675 C2669 0.959 . S
H2676 C2669 0.961 . S
H2677 C2669 0.960 . S
H2678 C2670 0.930 . S
H2679 C2671 0.929 . S
H2680 C2688 0.929 . S
H2681 C2690 0.930 . S
H2682 C2692 0.930 . S
H2683 C2695 0.929 . S
H2684 C2698 0.930 . S
H2685 C2700 0.960 . S
H2686 C2700 0.960 . S
H2687 C2700 0.960 . S
C2688 H2680 0.929 . S
C2688 C2689 1.377 . S
C2688 C2690 1.384 . S
C2689 C2688 1.377 . S
C2689 C2695 1.390 . S
C2690 H2681 0.930 . S
C2690 C2688 1.384 . S
C2690 C2691 1.372 . S
C2691 C2690 1.372 . S
C2691 C2692 1.400 . S
C2691 C2696 1.490 . S
C2692 H2682 0.930 . S
C2692 C2691 1.400 . S
C2692 C2695 1.386 . S
H2693 C2709 0.930 . S
H2694 C2710 0.931 . S
C2695 H2683 0.929 . S
C2695 C2689 1.390 . S
C2695 C2692 1.386 . S
C2696 C2691 1.490 . S
C2696 C2698 1.395 . S
C2696 C2699 1.403 . S
H2697 C2703 0.930 . S
C2698 H2684 0.930 . S
C2698 C2696 1.395 . S
C2698 C2701 1.403 . S
C2699 C2696 1.403 . S
C2699 C2700 1.524 . S
C2699 C2703 1.400 . S
C2700 H2685 0.960 . S
C2700 H2686 0.960 . S
C2700 H2687 0.960 . S
C2700 C2699 1.524 . S
C2701 C2698 1.403 . S
C2701 C2702 1.392 . S
C2701 C2705 1.495 . S
C2702 C2701 1.392 . S
C2702 C2703 1.385 . S
C2702 C2704 1.478 . S
C2703 H2697 0.930 . S
C2703 C2699 1.400 . S
C2703 C2702 1.385 . S
C2704 C2702 1.478 . S
C2704 C2706 1.381 . S
C2704 C2710 1.383 . S
C2705 C2701 1.495 . S
C2705 H2711 0.959 . S
C2705 H2712 0.961 . S
C2705 H2713 0.960 . S
C2706 C2704 1.381 . S
C2706 C2707 1.394 . S
C2706 H2714 0.930 . S
C2707 C2706 1.394 . S
C2707 C2708 1.383 . S
C2707 H2715 0.929 . S
C2708 C2707 1.383 . S
C2708 C2709 1.377 . S
C2709 H2693 0.930 . S
C2709 C2708 1.377 . S
C2709 C2710 1.379 . S
C2710 H2694 0.931 . S
C2710 C2704 1.383 . S
C2710 C2709 1.379 . S
H2711 C2705 0.959 . S
H2712 C2705 0.961 . S
H2713 C2705 0.960 . S
H2714 C2706 0.930 . S
H2715 C2707 0.929 . S
H2716 C2724 0.929 . S
H2717 C2726 0.930 . S
H2718 C2728 0.930 . S
H2719 C2731 0.929 . S
H2720 C2734 0.930 . S
H2721 C2736 0.960 . S
H2722 C2736 0.960 . S
H2723 C2736 0.960 . S
C2724 H2716 0.929 . S
C2724 C2725 1.377 . S
C2724 C2726 1.384 . S
C2725 C2724 1.377 . S
C2725 C2731 1.390 . S
C2726 H2717 0.930 . S
C2726 C2724 1.384 . S
C2726 C2727 1.372 . S
C2727 C2726 1.372 . S
C2727 C2728 1.400 . S
C2727 C2732 1.490 . S
C2728 H2718 0.930 . S
C2728 C2727 1.400 . S
C2728 C2731 1.386 . S
H2729 C2745 0.930 . S
H2730 C2746 0.931 . S
C2731 H2719 0.929 . S
C2731 C2725 1.390 . S
C2731 C2728 1.386 . S
C2732 C2727 1.490 . S
C2732 C2734 1.395 . S
C2732 C2735 1.403 . S
H2733 C2739 0.930 . S
C2734 H2720 0.930 . S
C2734 C2732 1.395 . S
C2734 C2737 1.403 . S
C2735 C2732 1.403 . S
C2735 C2736 1.524 . S
C2735 C2739 1.400 . S
C2736 H2721 0.960 . S
C2736 H2722 0.960 . S
C2736 H2723 0.960 . S
C2736 C2735 1.524 . S
C2737 C2734 1.403 . S
C2737 C2738 1.392 . S
C2737 C2741 1.495 . S
C2738 C2737 1.392 . S
C2738 C2739 1.385 . S
C2738 C2740 1.478 . S
C2739 H2733 0.930 . S
C2739 C2735 1.400 . S
C2739 C2738 1.385 . S
C2740 C2738 1.478 . S
C2740 C2742 1.381 . S
C2740 C2746 1.383 . S
C2741 C2737 1.495 . S
C2741 H2747 0.959 . S
C2741 H2748 0.961 . S
C2741 H2749 0.960 . S
C2742 C2740 1.381 . S
C2742 C2743 1.394 . S
C2742 H2750 0.930 . S
C2743 C2742 1.394 . S
C2743 C2744 1.383 . S
C2743 H2751 0.929 . S
C2744 C2743 1.383 . S
C2744 C2745 1.377 . S
C2745 H2729 0.930 . S
C2745 C2744 1.377 . S
C2745 C2746 1.379 . S
C2746 H2730 0.931 . S
C2746 C2740 1.383 . S
C2746 C2745 1.379 . S
H2747 C2741 0.959 . S
H2748 C2741 0.961 . S
H2749 C2741 0.960 . S
H2750 C2742 0.930 . S
H2751 C2743 0.929 . S
C457 C106 1.531 . S
C476 C8 1.535 . S
C493 C22 1.531 . S
C512 C64 1.516 . S
C529 C78 1.530 . S
C548 C36 1.513 . S
C565 C50 1.532 . S
C584 C92 1.521 . S
C601 C120 1.532 . S
C620 C218 1.537 . S
C637 C134 1.528 . S
C656 C176 1.527 . S
C673 C148 1.532 . S
C692 C190 1.537 . S
C709 C162 1.527 . S
C728 C204 1.524 . S
C745 C232 1.532 . S
C764 C330 1.519 . S
C781 C246 1.530 . S
C800 C288 1.513 . S
C817 C302 1.529 . S
C836 C260 1.539 . S
C853 C316 1.531 . S
C872 C274 1.528 . S
C889 C344 1.529 . S
C908 C442 1.520 . S
C925 C400 1.532 . S
C944 C358 1.540 . S
C961 C414 1.526 . S
C980 C372 1.515 . S
C997 C386 1.532 . S
C1016 C428 1.538 . S
C1033 C7 0.372 1_556 S
C1052 C91 0.340 . S
C1069 C21 0.378 . S
C1088 C105 0.310 . S
C1105 C63 0.357 . S
C1124 C35 0.426 . S
C1141 C49 0.351 . S
C1160 C77 0.440 . S
C1177 C119 0.352 . S
C1196 C203 0.305 . S
C1213 C133 0.355 . S
C1232 C217 0.367 . S
C1249 C175 0.352 1_556 S
C1268 C147 0.340 . S
C1285 C189 0.369 . S
C1304 C161 0.429 . S
C1321 C231 0.379 . S
C1340 C315 0.323 . S
C1357 C329 0.374 . S
C1376 C245 0.356 . S
C1393 C287 0.382 . S
C1412 C259 0.296 1_556 S
C1429 C273 0.351 . S
C1448 C301 0.441 . S
C1465 C343 0.352 . S
C1484 C427 0.347 1_556 S
C1501 C357 0.382 . S
C1520 C441 0.421 . S
C1537 C399 0.382 . S
C1556 C371 0.421 . S
C1573 C413 0.374 . S
C1592 C385 0.439 . S
C1609 C9 1.535 . S
C1628 C429 1.513 . S
C1645 C23 1.534 . S
C1664 C219 1.538 . S
C1681 C37 1.530 . S
C1700 C401 1.545 . S
C1717 C51 1.529 . S
C1736 C191 1.542 . S
C1753 C65 1.530 . S
C1772 C373 1.543 . S
C1789 C79 1.536 . S
C1808 C163 1.524 . S
C1825 C93 1.534 . S
C1844 C345 1.538 . S
C1861 C135 1.529 . S
C1880 C107 1.528 . S
C1897 C317 1.529 . S
C1916 C121 1.541 . S
C1933 C149 1.536 . S
C1952 C289 1.520 . S
C1969 C261 1.536 . S
C1988 C177 1.517 . S
C2005 C233 1.533 . S
C2024 C205 1.514 . S
C2041 C247 1.531 . S
C2060 C443 1.520 . S
C2077 C275 1.532 . S
C2096 C415 1.518 . S
C2113 C303 1.529 . S
C2132 C387 1.539 . S
C2149 C359 1.531 . S
C2168 C331 1.545 . S
C2185 C3 1.622 . S
C2204 C87 1.623 . S
C2221 C17 1.625 . S
C2240 C101 1.621 . S
C2257 C59 1.625 1_556 S
C2276 C31 1.622 . S
C2293 C45 1.625 . S
C2312 C73 1.621 . S
C2329 C115 1.622 1_556 S
C2348 C199 1.627 . S
C2365 C129 1.625 . S
C2384 C213 1.614 . S
C2401 C171 1.623 . S
C2420 C143 1.628 . S
C2437 C157 1.625 . S
C2456 C185 1.614 . S
C2473 C311 1.623 1_556 S
C2492 C227 1.617 . S
C2509 C325 1.622 . S
C2528 C241 1.619 . S
C2545 C283 1.622 . S
C2564 C255 1.624 . S
C2581 C297 1.624 . S
C2600 C269 1.612 . S
C2617 C423 1.622 . S
C2636 C339 1.625 . S
C2653 C437 1.624 . S
C2672 C353 1.612 . S
C2689 C367 1.622 1_556 S
C2708 C395 1.617 . S
C2725 C409 1.625 . S
C2744 C381 1.613 . S
