# Generated by pormake.
# Topology smd, (6)-cn, num edge types: 1
# Building blocks:
#     Node 0, Type 0, BuildingBlock: UKALOJ_clean_sbu_0, # of connection points: 6
#     Node 1, Type 0, BuildingBlock: UKALOJ_clean_sbu_0, # of connection points: 6
#     Node 2, Type 0, BuildingBlock: UKALOJ_clean_sbu_0, # of connection points: 6
#     Node 3, Type 0, BuildingBlock: UKALOJ_clean_sbu_0, # of connection points: 6
#     Node 4, Type 0, BuildingBlock: UKALOJ_clean_sbu_0, # of connection points: 6
#     Node 5, Type 0, BuildingBlock: UKALOJ_clean_sbu_0, # of connection points: 6
#     Node 6, Type 0, BuildingBlock: UKALOJ_clean_sbu_0, # of connection points: 6
#     Node 7, Type 0, BuildingBlock: UKALOJ_clean_sbu_0, # of connection points: 6
#     Node 8, Type 0, BuildingBlock: UKALOJ_clean_sbu_0, # of connection points: 6
#     Node 9, Type 0, BuildingBlock: UKALOJ_clean_sbu_0, # of connection points: 6
#     Node 10, Type 0, BuildingBlock: UKALOJ_clean_sbu_0, # of connection points: 6
#     Node 11, Type 0, BuildingBlock: UKALOJ_clean_sbu_0, # of connection points: 6
#     Node 12, Type 0, BuildingBlock: UKALOJ_clean_sbu_0, # of connection points: 6
#     Node 13, Type 0, BuildingBlock: UKALOJ_clean_sbu_0, # of connection points: 6
#     Node 14, Type 0, BuildingBlock: UKALOJ_clean_sbu_0, # of connection points: 6
#     Node 15, Type 0, BuildingBlock: UKALOJ_clean_sbu_0, # of connection points: 6
#     Node 16, Type 0, BuildingBlock: UKALOJ_clean_sbu_0, # of connection points: 6
#     Node 17, Type 0, BuildingBlock: UKALOJ_clean_sbu_0, # of connection points: 6
#     Edge 18, Type (0, 0), BuildingBlock: AJUNOK_clean_linker_0, # of connection points: 2
#     Edge 19, Type (0, 0), BuildingBlock: AJUNOK_clean_linker_0, # of connection points: 2
#     Edge 20, Type (0, 0), BuildingBlock: AJUNOK_clean_linker_0, # of connection points: 2
#     Edge 21, Type (0, 0), BuildingBlock: AJUNOK_clean_linker_0, # of connection points: 2
#     Edge 22, Type (0, 0), BuildingBlock: AJUNOK_clean_linker_0, # of connection points: 2
#     Edge 23, Type (0, 0), BuildingBlock: AJUNOK_clean_linker_0, # of connection points: 2
#     Edge 24, Type (0, 0), BuildingBlock: AJUNOK_clean_linker_0, # of connection points: 2
#     Edge 25, Type (0, 0), BuildingBlock: AJUNOK_clean_linker_0, # of connection points: 2
#     Edge 26, Type (0, 0), BuildingBlock: AJUNOK_clean_linker_0, # of connection points: 2
#     Edge 27, Type (0, 0), BuildingBlock: AJUNOK_clean_linker_0, # of connection points: 2
#     Edge 28, Type (0, 0), BuildingBlock: AJUNOK_clean_linker_0, # of connection points: 2
#     Edge 29, Type (0, 0), BuildingBlock: AJUNOK_clean_linker_0, # of connection points: 2
#     Edge 30, Type (0, 0), BuildingBlock: AJUNOK_clean_linker_0, # of connection points: 2
#     Edge 31, Type (0, 0), BuildingBlock: AJUNOK_clean_linker_0, # of connection points: 2
#     Edge 32, Type (0, 0), BuildingBlock: AJUNOK_clean_linker_0, # of connection points: 2
#     Edge 33, Type (0, 0), BuildingBlock: AJUNOK_clean_linker_0, # of connection points: 2
#     Edge 34, Type (0, 0), BuildingBlock: AJUNOK_clean_linker_0, # of connection points: 2
#     Edge 35, Type (0, 0), BuildingBlock: AJUNOK_clean_linker_0, # of connection points: 2
#     Edge 36, Type (0, 0), BuildingBlock: AJUNOK_clean_linker_0, # of connection points: 2
#     Edge 37, Type (0, 0), BuildingBlock: AJUNOK_clean_linker_0, # of connection points: 2
#     Edge 38, Type (0, 0), BuildingBlock: AJUNOK_clean_linker_0, # of connection points: 2
#     Edge 39, Type (0, 0), BuildingBlock: AJUNOK_clean_linker_0, # of connection points: 2
#     Edge 40, Type (0, 0), BuildingBlock: AJUNOK_clean_linker_0, # of connection points: 2
#     Edge 41, Type (0, 0), BuildingBlock: AJUNOK_clean_linker_0, # of connection points: 2
#     Edge 42, Type (0, 0), BuildingBlock: AJUNOK_clean_linker_0, # of connection points: 2
#     Edge 43, Type (0, 0), BuildingBlock: AJUNOK_clean_linker_0, # of connection points: 2
#     Edge 44, Type (0, 0), BuildingBlock: AJUNOK_clean_linker_0, # of connection points: 2
#     Edge 45, Type (0, 0), BuildingBlock: AJUNOK_clean_linker_0, # of connection points: 2
#     Edge 46, Type (0, 0), BuildingBlock: AJUNOK_clean_linker_0, # of connection points: 2
#     Edge 47, Type (0, 0), BuildingBlock: AJUNOK_clean_linker_0, # of connection points: 2
#     Edge 48, Type (0, 0), BuildingBlock: AJUNOK_clean_linker_0, # of connection points: 2
#     Edge 49, Type (0, 0), BuildingBlock: AJUNOK_clean_linker_0, # of connection points: 2
#     Edge 50, Type (0, 0), BuildingBlock: AJUNOK_clean_linker_0, # of connection points: 2
#     Edge 51, Type (0, 0), BuildingBlock: AJUNOK_clean_linker_0, # of connection points: 2
#     Edge 52, Type (0, 0), BuildingBlock: AJUNOK_clean_linker_0, # of connection points: 2
#     Edge 53, Type (0, 0), BuildingBlock: AJUNOK_clean_linker_0, # of connection points: 2
#     Edge 54, Type (0, 0), BuildingBlock: AJUNOK_clean_linker_0, # of connection points: 2
#     Edge 55, Type (0, 0), BuildingBlock: AJUNOK_clean_linker_0, # of connection points: 2
#     Edge 56, Type (0, 0), BuildingBlock: AJUNOK_clean_linker_0, # of connection points: 2
#     Edge 57, Type (0, 0), BuildingBlock: AJUNOK_clean_linker_0, # of connection points: 2
#     Edge 58, Type (0, 0), BuildingBlock: AJUNOK_clean_linker_0, # of connection points: 2
#     Edge 59, Type (0, 0), BuildingBlock: AJUNOK_clean_linker_0, # of connection points: 2
#     Edge 60, Type (0, 0), BuildingBlock: AJUNOK_clean_linker_0, # of connection points: 2
#     Edge 61, Type (0, 0), BuildingBlock: AJUNOK_clean_linker_0, # of connection points: 2
#     Edge 62, Type (0, 0), BuildingBlock: AJUNOK_clean_linker_0, # of connection points: 2
#     Edge 63, Type (0, 0), BuildingBlock: AJUNOK_clean_linker_0, # of connection points: 2
#     Edge 64, Type (0, 0), BuildingBlock: AJUNOK_clean_linker_0, # of connection points: 2
#     Edge 65, Type (0, 0), BuildingBlock: AJUNOK_clean_linker_0, # of connection points: 2
#     Edge 66, Type (0, 0), BuildingBlock: AJUNOK_clean_linker_0, # of connection points: 2
#     Edge 67, Type (0, 0), BuildingBlock: AJUNOK_clean_linker_0, # of connection points: 2
#     Edge 68, Type (0, 0), BuildingBlock: AJUNOK_clean_linker_0, # of connection points: 2
#     Edge 69, Type (0, 0), BuildingBlock: AJUNOK_clean_linker_0, # of connection points: 2
#     Edge 70, Type (0, 0), BuildingBlock: AJUNOK_clean_linker_0, # of connection points: 2
#     Edge 71, Type (0, 0), BuildingBlock: AJUNOK_clean_linker_0, # of connection points: 2
# Relax obj value: 0.305
# Max RMSD: 0.255
# Mean RMSD: 0.204
data_MOF--net-smd--node1-UKALOJ_clean_sbu_0--edge1-AJUNOK_clean_linker_0
_symmetry_space_group_name_H-M    P1
_symmetry_Int_Tables_number       1
_symmetry_cell_setting            triclinic
loop_
_symmetry_equiv_pos_as_xyz
'x, y, z'
_cell_length_a     66.459448
_cell_length_b     58.906743
_cell_length_c     11.308432
_cell_angle_alpha  88.368703
_cell_angle_beta   88.390476
_cell_angle_gamma 120.33743
loop_
_atom_site_label
_atom_site_type_symbol
_atom_site_fract_x
_atom_site_fract_y
_atom_site_fract_z
_atom_type_partial_charge
Zn0 Zn 0.07472 0.36236 0.3518 0.0
O1 O 0.05012 0.3228 0.36125 0.0
C2 C 0.09183 0.35957 0.59276 0.0
Zn3 Zn 0.10194 0.35132 0.34933 0.0
C4 C 0.05441 0.30435 0.37349 0.0
O5 O 0.07555 0.31005 0.37397 0.0
C6 C 0.12075 0.40984 0.32085 0.0
O7 O 0.09887 0.34927 0.16359 0.0
O8 O 0.07282 0.36193 0.1662 0.0
N9 N 0.12615 0.34005 0.34492 0.0
C10 C 0.14808 0.35009 0.29872 0.0
C11 C 0.13926 0.31473 0.39884 0.0
N12 N 0.12076 0.31809 0.40653 0.0
N13 N 0.15669 0.33458 0.33231 0.0
C14 C 0.03047 0.35749 0.46731 0.0
C15 C 0.02816 0.38929 0.38863 0.0
N16 N 0.04763 0.36907 0.38087 0.0
N17 N 0.04602 0.38871 0.33134 0.0
N18 N 1.01792 0.36955 0.47258 0.0
H19 H 1.00945 0.32 0.56159 0.0
H20 H 0.02987 0.34519 0.649 0.0
H21 H 0.03932 0.32916 0.54889 0.0
C22 C 0.02751 0.33692 0.5602 0.0
C23 C 0.16134 0.37592 0.22959 0.0
H24 H 0.14976 0.37795 0.16665 0.0
H25 H 0.17694 0.3781 0.18084 0.0
H26 H 0.16722 0.39208 0.29179 0.0
O27 O 0.12756 0.39308 0.32183 0.0
O28 O 0.09918 0.40205 0.33634 0.0
C29 C 0.08583 0.35557 0.10817 0.0
O30 O 0.07805 0.36403 0.5355 0.0
O31 O 0.1051 0.35356 0.53642 0.0
Zn32 Zn 0.86409 0.93207 0.5634 0.0
O33 O 0.87232 0.9711 0.53638 0.0
C34 C 0.88296 0.93389 0.31937 0.0
Zn35 Zn 0.90177 0.94532 0.56105 0.0
C36 C 0.89346 0.98947 0.52549 0.0
O37 O 0.90969 0.98437 0.5342 0.0
C38 C 0.87204 0.88779 0.60771 0.0
O39 O 0.90167 0.94892 0.74594 0.0
O40 O 0.86415 0.93526 0.75067 0.0
N41 N 0.9364 0.95922 0.55228 0.0
C42 C 0.95021 0.95147 0.60208 0.0
C43 C 0.97193 0.98508 0.48725 0.0
N44 N 0.94994 0.98019 0.48159 0.0
N45 N 0.97254 0.96739 0.56253 0.0
C46 C 0.81699 0.92191 0.47477 0.0
C47 C 0.79279 0.88996 0.58993 0.0
N48 N 0.8292 0.91916 0.56172 0.0
N49 N 0.81402 0.89961 0.63474 0.0
N50 N 0.7942 0.90364 0.4893 0.0
H51 H 0.8459 0.95502 0.37565 0.0
H52 H 0.81773 0.95159 0.35805 0.0
H53 H 0.82468 0.92957 0.28754 0.0
C54 C 0.82723 0.94071 0.36847 0.0
C55 C 0.94202 0.92913 0.69251 0.0
H56 H 0.92924 0.92939 0.75655 0.0
H57 H 0.95685 0.93043 0.74078 0.0
H58 H 0.93328 0.91019 0.64796 0.0
O59 O 0.89341 0.9057 0.59448 0.0
O60 O 0.85623 0.89345 0.59221 0.0
C61 C 0.88278 0.94217 0.80511 0.0
O62 O 0.86445 0.92795 0.37944 0.0
O63 O 0.90176 0.94167 0.3727 0.0
Zn64 Zn 0.33285 0.16421 0.29857 0.0
O65 O 0.32722 0.19541 0.29611 0.0
C66 C 0.31253 0.14852 0.54914 0.0
Zn67 Zn 0.29457 0.13561 0.30937 0.0
C68 C 0.30718 0.19304 0.30279 0.0
O69 O 0.28917 0.1699 0.31011 0.0
C70 C 0.32278 0.10883 0.29302 0.0
O71 O 0.29516 0.13674 0.12276 0.0
O72 O 0.33307 0.16515 0.11091 0.0
N73 N 0.2593 0.10992 0.32269 0.0
C74 C 0.24612 0.08425 0.29928 0.0
C75 C 0.2243 0.09466 0.39649 0.0
N76 N 0.24562 0.11635 0.38243 0.0
N77 N 0.22418 0.07417 0.34578 0.0
C78 C 0.37998 0.20305 0.39187 0.0
C79 C 0.40106 0.18937 0.31476 0.0
N80 N 0.36849 0.18863 0.3002 0.0
N81 N 0.38208 0.18088 0.2499 0.0
N82 N 0.40004 0.20301 0.4064 0.0
H83 H 0.35333 0.21151 0.45416 0.0
H84 H 0.38269 0.2379 0.45864 0.0
H85 H 0.37222 0.21101 0.56566 0.0
C86 C 0.3712 0.21628 0.47216 0.0
C87 C 0.25436 0.06938 0.22668 0.0
H88 H 0.26832 0.08284 0.16073 0.0
H89 H 0.23965 0.05367 0.18012 0.0
H90 H 0.26128 0.0599 0.28588 0.0
O91 O 0.30162 0.10325 0.30422 0.0
O92 O 0.33873 0.13269 0.29566 0.0
C93 C 0.314 0.15091 0.06069 0.0
O94 O 0.33136 0.16258 0.48765 0.0
O95 O 0.2939 0.1341 0.49737 0.0
Zn96 Zn 0.11991 0.91049 0.50108 0.0
O97 O 0.15084 0.94839 0.46158 0.0
C98 C 0.10334 0.9144 0.25979 0.0
Zn99 Zn 0.09776 0.92857 0.50278 0.0
C100 C 0.14811 0.9682 0.44997 0.0
O101 O 0.1279 0.96492 0.46719 0.0
C102 C 0.06875 0.87154 0.56215 0.0
O103 O 0.10209 0.93231 0.6883 0.0
O104 O 0.12436 0.91469 0.68587 0.0
N105 N 0.07976 0.94769 0.50506 0.0
C106 C 0.06051 0.94347 0.56698 0.0
C107 C 0.0708 0.97648 0.44677 0.0
N108 N 0.08625 0.96832 0.43111 0.0
N109 N 0.05457 0.96121 0.5317 0.0
C110 C 0.15255 0.8916 0.40024 0.0
C111 C 0.14615 0.86057 0.52364 0.0
N112 N 0.13896 0.89192 0.4905 0.0
N113 N 0.13534 0.87284 0.56818 0.0
N114 N 0.15727 0.87211 0.41855 0.0
H115 H 0.15812 0.92635 0.29859 0.0
H116 H 0.17873 0.91572 0.26599 0.0
H117 H 0.14992 0.89746 0.21518 0.0
C118 C 0.16016 0.909 0.28931 0.0
C119 C 0.04774 0.92244 0.6631 0.0
H120 H 0.05972 0.91776 0.70957 0.0
H121 H 0.0388 0.92864 0.72786 0.0
H122 H 0.0343 0.90434 0.62347 0.0
O123 O 0.06709 0.89179 0.5404 0.0
O124 O 0.0886 0.87335 0.54618 0.0
C125 C 0.1135 0.92377 0.74388 0.0
O126 O 0.11438 0.90562 0.31662 0.0
O127 O 0.09372 0.92501 0.31641 0.0
Zn128 Zn 0.34434 0.35471 0.23537 0.0
O129 O 0.33312 0.31445 0.25318 0.0
C130 C 0.32298 0.35095 0.48353 0.0
Zn131 Zn 0.30671 0.34186 0.24558 0.0
C132 C 0.31236 0.29524 0.26543 0.0
O133 O 0.29575 0.30008 0.26588 0.0
C134 C 0.34001 0.40133 0.20543 0.0
O135 O 0.30942 0.3406 0.06152 0.0
O136 O 0.34656 0.35265 0.04709 0.0
N137 N 0.27292 0.33198 0.23206 0.0
C138 C 0.26097 0.34348 0.26975 0.0
C139 C 0.23755 0.30979 0.17683 0.0
N140 N 0.25838 0.31108 0.17431 0.0
N141 N 0.23878 0.3299 0.23603 0.0
C142 C 0.38501 0.35293 0.34988 0.0
C143 C 0.41547 0.38566 0.26744 0.0
N144 N 0.3779 0.36281 0.26137 0.0
N145 N 0.39691 0.38305 0.20974 0.0
N146 N 0.40843 0.36676 0.35472 0.0
H147 H 0.35064 0.3245 0.43557 0.0
H148 H 0.37185 0.31489 0.4381 0.0
H149 H 0.37428 0.33976 0.53257 0.0
C150 C 0.36935 0.33203 0.44314 0.0
C151 C 0.27164 0.36924 0.32903 0.0
H152 H 0.28068 0.38548 0.26035 0.0
H153 H 0.25836 0.37219 0.37593 0.0
H154 H 0.28466 0.37063 0.39188 0.0
O155 O 0.31848 0.38384 0.22118 0.0
O156 O 0.35534 0.39456 0.21037 0.0
C157 C 0.32745 0.34606 -0.00241 0.0
O158 O 0.34149 0.35779 0.42143 0.0
O159 O 0.30404 0.34296 0.43163 0.0
Zn160 Zn 0.86651 0.10941 0.53114 0.0
O161 O 0.87587 0.08124 0.51204 0.0
C162 C 0.88556 0.12948 0.28451 0.0
Zn163 Zn 0.9041 0.14019 0.52584 0.0
C164 C 0.89698 0.0871 0.50127 0.0
O165 O 0.91325 0.11081 0.50627 0.0
C166 C 0.87229 0.16147 0.56572 0.0
O167 O 0.90391 0.13616 0.70924 0.0
O168 O 0.86679 0.10586 0.721 0.0
N169 N 0.93881 0.16737 0.52387 0.0
C170 C 0.95191 0.19144 0.47013 0.0
C171 C 0.97496 0.18236 0.55986 0.0
N172 N 0.95316 0.16177 0.57948 0.0
N173 N 0.97476 0.20126 0.49097 0.0
C174 C 0.82006 0.06268 0.45245 0.0
C175 C 0.79489 0.06367 0.56905 0.0
N176 N 0.83188 0.08089 0.53213 0.0
N177 N 0.81617 0.08115 0.60577 0.0
N178 N 0.79685 0.05159 0.47355 0.0
H179 H 0.84997 0.06781 0.34642 0.0
H180 H 0.82436 0.03617 0.34266 0.0
H181 H 0.82551 0.06359 0.2642 0.0
C182 C 0.83084 0.05754 0.34575 0.0
C183 C 0.94225 0.20475 0.39483 0.0
H184 H 0.92546 0.19038 0.35892 0.0
H185 H 0.93881 0.21778 0.45018 0.0
H186 H 0.95482 0.21676 0.32069 0.0
O187 O 0.89401 0.16928 0.55382 0.0
O188 O 0.85739 0.13752 0.55183 0.0
C189 C 0.88562 0.12069 0.77204 0.0
O190 O 0.86686 0.1143 0.34495 0.0
O191 O 0.90407 0.14355 0.33835 0.0
Zn192 Zn 0.7517 0.67311 0.00738 0.0
O193 O 0.75281 0.67436 0.19177 0.0
C194 C 0.7266 0.70607 0.01718 0.0
Zn195 Zn 0.77694 0.71634 -0.00011 0.0
C196 C 0.76519 0.69519 0.24612 0.0
O197 O 0.77796 0.71683 0.18683 0.0
C198 C 0.76256 0.69337 0.7612 0.0
O199 O 0.80612 0.70942 -0.00652 0.0
O200 O 0.78332 0.66678 -3e-05 0.0
N201 N 0.79997 0.75586 0.98185 0.0
C202 C 0.81654 0.77005 0.89589 0.0
C203 C 0.81494 0.79726 0.01025 0.0
N204 N 0.79913 0.77281 0.05346 0.0
N205 N 0.82608 0.79598 0.91149 0.0
C206 C 0.70732 0.6166 0.98215 0.0
C207 C 0.71639 0.59224 0.08285 0.0
N208 N 0.72864 0.63258 0.024 0.0
N209 N 0.73415 0.6173 0.08648 0.0
N210 N 0.6993 0.59115 0.01766 0.0
H211 H 0.68736 0.63576 0.97959 0.0
H212 H 0.6782 0.61027 0.87677 0.0
H213 H 0.70502 0.64148 0.84687 0.0
C214 C 0.69367 0.62639 0.91651 0.0
C215 C 0.82392 0.75887 0.79731 0.0
H216 H 0.8198 0.73856 0.81928 0.0
H217 H 0.84295 0.77147 0.77628 0.0
H218 H 0.81481 0.7587 0.71671 0.0
O219 O 0.77483 0.71473 0.81242 0.0
O220 O 0.75075 0.67212 0.82357 0.0
C221 C 0.80419 0.68681 -0.00559 0.0
O222 O 0.72186 0.68206 0.01532 0.0
O223 O 0.7481 0.72398 0.01079 0.0
Zn224 Zn 0.49721 0.20653 0.96717 0.0
O225 O 0.50994 0.24714 0.95539 0.0
C226 C 0.51649 0.20889 0.7192 0.0
Zn227 Zn 0.53413 0.2163 0.95745 0.0
C228 C 0.53084 0.26596 0.94645 0.0
O229 O 0.5469 0.26006 0.94374 0.0
C230 C 0.49705 0.1564 -0.01097 0.0
O231 O 0.53269 0.21683 0.14463 0.0
O232 O 0.49623 0.20803 0.15238 0.0
N233 N 0.56832 0.2249 0.95136 0.0
C234 C 0.58108 0.21635 0.00826 0.0
C235 C 0.60356 0.24506 0.87483 0.0
N236 N 0.58245 0.24278 0.86908 0.0
N237 N 0.60333 0.22879 0.9616 0.0
C238 C 0.45779 0.21178 0.86317 0.0
C239 C 0.42692 0.17892 0.94162 0.0
N240 N 0.46441 0.2008 0.94898 0.0
N241 N 0.44517 0.18053 -0.00151 0.0
N242 N 0.43437 0.19846 0.857 0.0
H243 H 0.49232 0.2388 0.77436 0.0
H244 H 0.47401 0.252 0.79714 0.0
H245 H 0.46811 0.22899 0.68403 0.0
C246 C 0.47406 0.23382 0.77537 0.0
C247 C 0.57141 0.19523 0.10541 0.0
H248 H 0.57208 0.20426 0.19104 0.0
H249 H 0.58168 0.18514 0.11023 0.0
H250 H 0.55293 0.18061 0.09219 0.0
O251 O 0.51922 0.17197 0.97386 0.0
O252 O 0.4839 0.1662 -0.01329 0.0
C253 C 0.51447 0.21238 0.20512 0.0
O254 O 0.49854 0.20359 0.78241 0.0
O255 O 0.53535 0.21563 0.76963 0.0
Zn256 Zn 0.93639 0.39752 0.02697 0.0
O257 O 0.90209 0.36582 0.02461 0.0
C258 C 0.93216 0.41554 0.78107 0.0
Zn259 Zn 0.92285 0.42526 0.02474 0.0
C260 C 0.88345 0.36673 0.02316 0.0
O261 O 0.88552 0.38963 0.02392 0.0
C262 C 0.97714 0.4522 0.03384 0.0
O263 O 0.92151 0.42274 0.21206 0.0
O264 O 0.93444 0.39488 0.21424 0.0
N265 N 0.91026 0.45131 0.02405 0.0
C266 C 0.91919 0.47689 0.04948 0.0
C267 C 0.88639 0.46434 0.97431 0.0
N268 N 0.88979 0.44365 0.97825 0.0
N269 N 0.90455 0.48551 0.01866 0.0
C270 C 0.94906 0.35961 0.91828 0.0
C271 C 0.97911 0.36776 0.01094 0.0
N272 N 0.94902 0.37236 0.01532 0.0
N273 N 0.96739 0.37672 0.0748 0.0
N274 N 0.96826 0.35732 0.91052 0.0
H275 H 0.91674 0.35439 0.84934 0.0
H276 H 0.92252 0.3286 0.82291 0.0
H277 H 0.9389 0.35913 0.73839 0.0
C278 C 0.93081 0.35025 0.82726 0.0
C279 C 0.94277 0.49372 0.09717 0.0
H280 H 0.94634 0.48208 0.16331 0.0
H281 H 0.94405 0.51121 0.13865 0.0
H282 H 0.95619 0.50064 0.02329 0.0
O283 O 0.96121 0.45841 0.02665 0.0
O284 O 0.9708 0.42807 0.03249 0.0
C285 C 0.92786 0.40874 0.26971 0.0
O286 O 0.93901 0.40222 0.83934 0.0
O287 O 0.92403 0.42775 0.8368 0.0
Zn288 Zn 0.74505 0.21514 0.01659 0.0
O289 O 0.74637 0.21361 0.20015 0.0
C290 C 0.72315 0.15386 0.01947 0.0
Zn291 Zn 0.77105 0.20196 0.01592 0.0
C292 C 0.75864 0.20689 0.25915 0.0
O293 O 0.77151 0.19985 0.20452 0.0
C294 C 0.75673 0.21019 0.77337 0.0
O295 O 0.79721 0.24218 0.01808 0.0
O296 O 0.77414 0.25825 0.01109 0.0
N297 N 0.79706 0.19313 -0.00927 0.0
C298 C 0.81399 0.20219 0.90318 0.0
C299 C 0.81464 0.17078 -0.00315 0.0
N300 N 0.79769 0.17377 0.04971 0.0
N301 N 0.82519 0.18854 0.90521 0.0
C302 C 0.698 0.21546 0.00185 0.0
C303 C 0.70538 0.24889 0.10045 0.0
N304 N 0.72019 0.22609 0.03573 0.0
N305 N 0.72468 0.24686 0.09676 0.0
N306 N 0.68827 0.22936 0.04215 0.0
H307 H 0.67935 0.17349 0.00585 0.0
H308 H 0.66993 0.18786 0.89557 0.0
H309 H 0.69746 0.18894 0.8734 0.0
C310 C 0.68545 0.19017 0.93956 0.0
C311 C 0.81944 0.22375 0.81129 0.0
H312 H 0.81253 0.2365 0.83679 0.0
H313 H 0.83863 0.23602 0.79453 0.0
H314 H 0.81196 0.21507 0.72658 0.0
O315 O 0.76945 0.20371 0.82963 0.0
O316 O 0.7439 0.21669 0.83092 0.0
C317 C 0.79496 0.26232 0.01469 0.0
O318 O 0.7175 0.17169 0.02357 0.0
O319 O 0.74478 0.16122 0.01632 0.0
Zn320 Zn 0.93202 0.66728 0.97804 0.0
O321 O 0.932 0.66801 0.16394 0.0
C322 C 0.98531 0.69442 0.97762 0.0
Zn323 Zn 0.94793 0.71137 0.96767 0.0
C324 C 0.93919 0.68942 0.21606 0.0
O325 O 0.94669 0.711 0.15548 0.0
C326 C 0.93984 0.68815 0.72909 0.0
O327 O 0.91385 0.70899 0.96766 0.0
O328 O 0.8969 0.66584 0.98127 0.0
N329 N 0.96772 0.75248 0.95519 0.0
C330 C 0.97544 0.76948 0.85911 0.0
C331 C 1.00029 0.78749 -0.00975 0.0
N332 N 0.98312 0.76409 0.03708 0.0
N333 N 0.99603 0.79132 0.87787 0.0
C334 C 0.92236 0.60922 0.02582 0.0
C335 C 0.89104 0.58697 0.93565 0.0
N336 N 0.91575 0.62629 -0.01404 0.0
N337 N 0.89615 0.61224 0.93102 0.0
N338 N 0.9072 0.58444 -0.00541 0.0
H339 H 0.94923 0.63463 0.13985 0.0
H340 H 0.94274 0.60091 0.14636 0.0
H341 H 0.9587 0.6221 0.0197 0.0
C342 C 0.94447 0.61717 0.08719 0.0
C343 C 0.96338 0.76439 0.74539 0.0
H344 H 0.94444 0.75066 0.76316 0.0
H345 H 0.96592 0.78292 0.70324 0.0
H346 H 0.97091 0.7561 0.68315 0.0
O347 O 0.948 0.70967 0.78102 0.0
O348 O 0.93224 0.66675 0.79026 0.0
C349 C 0.89494 0.68653 0.97562 0.0
O350 O 0.96745 0.67127 0.97651 0.0
O351 O 0.98169 0.71364 0.97146 0.0
Zn352 Zn 0.54811 0.42743 0.91819 0.0
O353 O 0.54605 0.42497 0.10284 0.0
C354 C 0.51752 0.45299 0.93157 0.0
Zn355 Zn 0.50966 0.39864 0.92893 0.0
C356 C 0.52755 0.41067 0.16696 0.0
O357 O 0.50831 0.39628 0.11798 0.0
C358 C 0.53105 0.41643 0.67949 0.0
O359 O 0.51681 0.36785 0.92718 0.0
O360 O 0.55483 0.39334 0.91824 0.0
N361 N 0.47439 0.37294 0.91554 0.0
C362 C 0.4647 0.36048 0.81604 0.0
C363 C 0.44158 0.37131 0.89429 0.0
N364 N 0.45957 0.37895 0.96571 0.0
N365 N 0.44448 0.36 0.79808 0.0
C366 C 0.59649 0.47816 0.96929 0.0
C367 C 0.61914 0.47557 0.84058 0.0
N368 N 0.58368 0.45531 0.91462 0.0
N369 N 0.59795 0.45379 0.83538 0.0
N370 N 0.61881 0.49142 0.9234 0.0
H371 H 0.56768 0.47644 0.07211 0.0
H372 H 0.59355 0.48613 0.15012 0.0
H373 H 0.59292 0.50912 0.04467 0.0
C374 C 0.58693 0.488 0.06364 0.0
C375 C 0.47528 0.34933 0.73353 0.0
H376 H 0.49293 0.35411 0.7572 0.0
H377 H 0.46414 0.32758 0.73843 0.0
H378 H 0.47571 0.35616 0.64072 0.0
O379 O 0.51226 0.40277 0.74139 0.0
O380 O 0.54993 0.42955 0.73153 0.0
C381 C 0.53684 0.37004 0.92348 0.0
O382 O 0.53897 0.45926 0.92036 0.0
O383 O 0.50213 0.42883 0.93508 0.0
Zn384 Zn 0.38754 0.9962 0.08169 0.0
O385 O 0.35871 0.95719 0.08396 0.0
C386 C 0.39964 0.9872 0.32223 0.0
Zn387 Zn 0.41357 0.98205 0.07542 0.0
C388 C 0.36087 0.93693 0.0843 0.0
O389 O 0.38168 0.9405 0.08336 0.0
C390 C 0.43785 0.0421 0.06859 0.0
O391 O 0.41331 0.98264 0.8895 0.0
O392 O 0.38874 0.99742 0.89428 0.0
N393 N 0.43746 0.96808 0.07549 0.0
C394 C 0.46024 0.97873 0.03822 0.0
C395 C 0.44965 0.94121 0.12046 0.0
N396 N 0.4311 0.94474 0.12637 0.0
N397 N 0.46839 0.96232 0.06644 0.0
C398 C 0.36351 0.02777 0.16085 0.0
C399 C 0.33676 0.01705 0.03822 0.0
N400 N 0.36481 1.0107 0.08789 0.0
N401 N 0.34809 1.00404 0.01203 0.0
N402 N 0.34606 0.03199 0.13168 0.0
H403 H 0.36786 0.02583 0.34601 0.0
H404 H 0.38149 0.0586 0.28426 0.0
H405 H 0.39455 0.03879 0.25717 0.0
C406 C 0.37788 0.03852 0.26703 0.0
C407 C 0.47388 1.00432 0.96778 0.0
H408 H 0.4623 1.00725 0.90836 0.0
H409 H 0.48842 1.00489 0.91446 0.0
H410 H 0.48132 0.02069 0.02911 0.0
O411 O 0.44277 0.02375 0.06489 0.0
O412 O 0.41648 0.03569 0.07758 0.0
C413 C 0.4009 0.99004 0.83544 0.0
O414 O 0.38675 0.99355 0.26672 0.0
O415 O 0.41323 0.98178 0.26417 0.0
Zn416 Zn 0.15317 0.55937 0.09526 0.0
O417 O 0.16101 0.59839 0.07317 0.0
C418 C 0.1727 0.56409 0.85038 0.0
Zn419 Zn 0.19328 0.57499 0.08976 0.0
C420 C 0.18126 0.61877 0.0629 0.0
O421 O 0.19922 0.61596 0.0673 0.0
C422 C 0.16288 0.51597 0.13234 0.0
O423 O 0.1931 0.57745 0.27322 0.0
O424 O 0.15517 0.56266 0.28277 0.0
N425 N 0.23048 0.58757 0.07687 0.0
C426 C 0.24355 0.57674 0.11133 0.0
C427 C 0.26686 0.61285 0.0175 0.0
N428 N 0.24535 0.61003 0.0186 0.0
N429 N 0.26653 0.59216 0.0741 0.0
C430 C 0.09711 0.52479 0.06534 0.0
C431 C 0.08557 0.54897 0.1427 0.0
N432 N 0.11644 0.54623 0.10343 0.0
N433 N 0.10897 0.56111 0.15105 0.0
N434 N 0.07737 0.52594 0.08945 0.0
H435 H 0.11407 0.51263 0.93867 0.0
H436 H 0.08247 0.49323 0.94417 0.0
H437 H 0.09887 0.4896 0.0608 0.0
C438 C 0.09806 0.50385 -0.0024 0.0
C439 C 0.23397 0.55198 0.18764 0.0
H440 H 0.22056 0.55065 0.25274 0.0
H441 H 0.24805 0.55128 0.23511 0.0
H442 H 0.22556 0.53479 0.13117 0.0
O443 O 0.18418 0.53428 0.11707 0.0
O444 O 0.1466 0.52114 0.12111 0.0
C445 C 0.17429 0.57036 0.33447 0.0
O446 O 0.1536 0.55705 0.90886 0.0
O447 O 0.19139 0.57165 0.90508 0.0
Zn448 Zn 0.62796 0.77117 0.054 0.0
O449 O 0.62829 0.77248 0.86968 0.0
C450 C 0.66373 0.75098 0.04548 0.0
Zn451 Zn 0.66552 0.80384 0.04387 0.0
C452 C 0.64638 0.78846 0.8062 0.0
O453 O 0.66499 0.80452 0.85587 0.0
C454 C 0.64634 0.78554 0.29232 0.0
O455 O 0.6556 0.8328 0.04715 0.0
O456 O 0.61837 0.8038 0.05671 0.0
N457 N 0.69984 0.83305 0.04042 0.0
C458 C 0.71132 0.85141 0.11999 0.0
C459 C 0.73689 0.84997 0.00835 0.0
N460 N 0.7158 0.83257 0.96959 0.0
N461 N 0.73459 0.86203 0.10314 0.0
C462 C 0.57568 0.72026 0.02153 0.0
C463 C 0.55687 0.73035 0.14384 0.0
N464 N 0.59163 0.74289 0.07015 0.0
N465 N 0.57962 0.74882 0.14589 0.0
N466 N 0.55356 0.71202 0.06598 0.0
H467 H 0.59858 0.72152 0.87971 0.0
H468 H 0.56773 0.69841 0.86336 0.0
H469 H 0.58396 0.69134 0.96853 0.0
C470 C 0.58182 0.70723 0.92697 0.0
C471 C 0.69998 0.85767 0.22068 0.0
H472 H 0.68089 0.84799 0.21561 0.0
H473 H 0.7069 0.87918 0.21939 0.0
H474 H 0.70439 0.85192 0.30606 0.0
O475 O 0.66482 0.80133 0.23153 0.0
O476 O 0.62811 0.77035 0.23927 0.0
C477 C 0.63473 0.82806 0.05395 0.0
O478 O 0.64134 0.74122 0.05069 0.0
O479 O 0.67657 0.77589 0.04062 0.0
Zn480 Zn 0.43653 0.55617 0.05837 0.0
O481 O 0.46413 0.59454 0.0487 0.0
C482 C 0.42374 0.5634 0.81896 0.0
Zn483 Zn 0.41055 0.57149 0.06467 0.0
C484 C 0.46276 0.61524 0.04597 0.0
O485 O 0.44234 0.6128 0.05015 0.0
C486 C 0.3876 0.51177 0.0795 0.0
O487 O 0.41136 0.57199 0.25085 0.0
O488 O 0.43546 0.55653 0.24427 0.0
N489 N 0.38522 0.58487 0.06068 0.0
C490 C 0.36224 0.5743 0.09667 0.0
C491 C 0.3728 0.61146 0.01157 0.0
N492 N 0.39142 0.60799 0.00793 0.0
N493 N 0.35387 0.59057 0.06588 0.0
C494 C 0.46255 0.52379 0.00531 0.0
C495 C 0.4933 0.54495 0.10086 0.0
N496 N 0.46095 0.54319 0.05885 0.0
N497 N 0.48016 0.5562 0.11799 0.0
N498 N 0.48282 0.5245 0.0299 0.0
H499 H 0.45305 0.4998 0.8533 0.0
H500 H 0.43227 0.48668 0.97829 0.0
H501 H 0.43451 0.51328 0.88735 0.0
C502 C 0.44465 0.50494 0.92564 0.0
C503 C 0.34866 0.5489 0.16834 0.0
H504 H 0.36029 0.54632 0.22899 0.0
H505 H 0.33398 0.5483 0.22037 0.0
H506 H 0.34154 0.53235 0.10794 0.0
O507 O 0.38241 0.52994 0.08153 0.0
O508 O 0.40882 0.51782 0.06841 0.0
C509 C 0.42361 0.56416 0.30406 0.0
O510 O 0.43647 0.55678 0.87481 0.0
O511 O 0.41096 0.57018 0.87628 0.0
Zn512 Zn 0.66391 0.98727 0.04219 0.0
O513 O 0.65426 0.94754 0.05428 0.0
C514 C 0.64482 0.98349 0.28931 0.0
Zn515 Zn 0.62665 0.97783 0.05038 0.0
C516 C 0.63344 0.92838 0.05864 0.0
O517 O 0.61694 0.93384 0.05699 0.0
C518 C 0.66217 0.03779 0.03021 0.0
O519 O 0.62719 0.97824 0.86587 0.0
O520 O 0.66327 0.98613 0.85498 0.0
N521 N 0.59095 0.96699 0.06013 0.0
C522 C 0.57836 0.97834 0.02769 0.0
C523 C 0.55433 0.94078 0.10903 0.0
N524 N 0.57578 0.94368 0.1106 0.0
N525 N 0.55524 0.96228 0.05812 0.0
C526 C 0.71074 0.99377 0.11952 0.0
C527 C 0.73502 0.02528 0.0027 0.0
N528 N 0.69837 0.99792 0.03799 0.0
N529 N 0.71357 0.01716 0.96378 0.0
N530 N 0.73378 1.01092 0.10061 0.0
H531 H 0.68128 0.96187 0.22205 0.0
H532 H 0.70785 0.96118 0.22264 0.0
H533 H 0.70549 0.98493 0.30676 0.0
C534 C 0.70044 0.97433 0.22353 0.0
C535 C 0.58864 1.00432 0.96037 0.0
H536 H 0.60301 1.00702 0.8984 0.0
H537 H 0.57516 1.00579 0.91051 0.0
H538 H 0.59607 0.02031 0.02363 0.0
O539 O 0.6399 0.02236 0.04253 0.0
O540 O 0.6748 0.02737 0.02828 0.0
C541 C 0.64503 0.98229 0.8038 0.0
O542 O 0.66329 0.98875 0.22975 0.0
O543 O 0.62648 0.97769 0.23537 0.0
Zn544 Zn 0.19756 0.77725 0.06759 0.0
O545 O 0.19653 0.77359 0.25372 0.0
C546 C 0.17298 0.80788 0.10147 0.0
Zn547 Zn 0.15675 0.75097 0.07322 0.0
C548 C 0.17713 0.76078 0.31358 0.0
O549 O 0.158 0.74898 0.26041 0.0
C550 C 0.17696 0.76683 0.82722 0.0
O551 O 0.16073 0.71704 0.06055 0.0
O552 O 0.19926 0.74122 0.05545 0.0
N553 N 0.11853 0.72811 0.07844 0.0
C554 C 0.10212 0.7315 0.02302 0.0
C555 C 0.08349 0.69742 0.13811 0.0
N556 N 0.10658 0.70676 0.14951 0.0
N557 N 0.0799 0.71258 0.05966 0.0
C558 C 0.25066 0.82609 0.0992 0.0
C559 C 0.27075 0.81543 -0.00999 0.0
N560 N 0.23533 0.80238 0.05557 0.0
N561 N 0.24817 0.79602 -0.01195 0.0
N562 N 0.27313 0.8349 0.05895 0.0
H563 H 0.22744 0.82561 0.23703 0.0
H564 H 0.25778 0.85096 0.24656 0.0
H565 H 0.24032 0.85407 0.13545 0.0
C566 C 0.24363 0.8399 0.18534 0.0
C567 C 0.10794 0.75216 0.92653 0.0
H568 H 0.11971 0.75136 0.85791 0.0
H569 H 0.0921 0.74937 0.88363 0.0
H570 H 0.11723 0.77192 0.96304 0.0
O571 O 0.15795 0.75428 0.88949 0.0
O572 O 0.19627 0.77932 0.87819 0.0
C573 C 0.18067 0.71856 0.05419 0.0
O574 O 0.1933 0.8108 0.08717 0.0
O575 O 0.15512 0.7853 0.09007 0.0
C576 C 0.16158 0.47235 0.13862 0.0
C577 C 0.15664 0.49044 0.19126 0.0
C578 C 0.1517 0.44639 0.18776 0.0
C579 C 0.13676 0.43811 0.29062 0.0
H580 H 0.17185 0.47773 0.05573 0.0
H581 H 0.1543 0.43229 0.1403 0.0
S582 S 0.12213 0.47968 0.47207 0.0
N583 N 0.13864 0.49943 0.35953 0.0
N584 N 0.12016 0.45103 0.45083 0.0
C585 C 0.13346 0.4568 0.3486 0.0
C586 C 0.14338 0.4829 0.29905 0.0
C587 C 0.76855 0.9065 0.34363 0.0
C588 C 0.77889 0.89304 0.39366 0.0
C589 C 0.75496 0.89708 0.24422 0.0
C590 C 0.7514 0.87396 0.19231 0.0
H591 H 0.77103 0.92432 0.38184 0.0
H592 H 0.74705 0.90777 0.20826 0.0
S593 S 0.7773 0.83363 0.28329 0.0
N594 N 0.78668 0.8572 0.37853 0.0
N595 N 0.76075 0.83902 0.19395 0.0
C596 C 0.76253 0.86105 0.23923 0.0
C597 C 0.7763 0.87064 0.33971 0.0
C598 C 0.31264 0.06167 0.26778 0.0
C599 C 0.32923 0.08885 0.26022 0.0
C600 C 0.31822 0.04304 0.22649 0.0
C601 C 0.34054 0.05095 0.17643 0.0
H602 H 0.29521 0.05474 0.30489 0.0
H603 H 0.30504 0.02234 0.23343 0.0
S604 S 0.38981 0.11929 0.12736 0.0
N605 N 0.36899 0.12238 0.19423 0.0
N606 N 0.37872 0.08739 0.11428 0.0
C607 C 0.35711 0.07786 0.16672 0.0
C608 C 0.35168 0.09677 0.20962 0.0
C609 C 0.40511 0.17835 0.57088 0.0
C610 C 0.40891 0.20244 0.52058 0.0
C611 C 0.41179 0.17657 0.68558 0.0
C612 C 0.42199 0.19868 0.75513 0.0
H613 H 0.39707 0.16078 0.52053 0.0
H614 H 0.41001 0.15814 0.71802 0.0
S615 S 0.43368 0.26542 0.67051 0.0
N616 N 0.42304 0.24861 0.55092 0.0
N617 N 0.43322 0.24442 0.77159 0.0
C618 C 0.42433 0.2223 0.70927 0.0
C619 C 0.41854 0.22447 0.59057 0.0
C620 C 1.00135 0.38327 0.76772 0.0
C621 C 0.98064 0.35949 0.80042 0.0
C622 C 1.01271 0.38715 0.65664 0.0
C623 C 1.00349 0.36766 0.5733 0.0
H624 H 1.00875 0.39907 0.82845 0.0
H625 H 0.02914 0.40517 0.63662 0.0
S626 S 0.95002 0.30209 0.61401 0.0
N627 N 0.95189 0.31596 0.74136 0.0
N628 N 0.97249 0.32407 0.52876 0.0
C629 C 0.98261 0.34409 0.60343 0.0
C630 C 0.97138 0.33979 0.71793 0.0
C631 C 0.84602 0.83953 0.63461 0.0
C632 C 0.86507 0.86276 0.67216 0.0
C633 C 0.83407 0.81721 0.71166 0.0
C634 C 0.84064 0.81754 0.82908 0.0
H635 H 0.83939 0.83918 0.54778 0.0
H636 H 0.81861 0.80026 0.68175 0.0
S637 S 0.88891 0.87363 0.97122 0.0
N638 N 0.88995 0.88477 0.83418 0.0
N639 N 0.86729 0.8427 0.97899 0.0
C640 C 0.86002 0.84034 0.86659 0.0
C641 C 0.87239 0.86296 0.78782 0.0
C642 C 0.02719 0.84667 0.64535 0.0
C643 C 0.04891 0.84803 0.62691 0.0
C644 C 1.0098 0.82793 0.72597 0.0
C645 C 1.01329 0.80957 0.79015 0.0
H646 H 1.02382 0.86072 0.59999 0.0
H647 H 0.9938 0.82829 0.74085 0.0
S648 S 0.06544 0.80223 0.76596 0.0
N649 N 0.07188 0.82761 0.67464 0.0
N650 N 0.03896 0.79219 0.82302 0.0
C651 C 0.03426 0.80969 0.76819 0.0
C652 C 0.05205 0.82882 0.68691 0.0
C653 C 0.43044 0.38763 0.52944 0.0
C654 C 0.42135 0.36648 0.45418 0.0
C655 C 0.43782 0.38522 0.64175 0.0
C656 C 0.43603 0.36145 0.68353 0.0
H657 H 0.43081 0.40567 0.50336 0.0
H658 H 0.44477 0.40201 0.69706 0.0
S659 S 0.41416 0.30085 0.51678 0.0
N660 N 0.41266 0.32199 0.42405 0.0
N661 N 0.42462 0.31656 0.63921 0.0
C662 C 0.42746 0.34043 0.60767 0.0
C663 C 0.42068 0.34322 0.49192 0.0
C664 C 0.86212 0.19381 0.82173 0.0
C665 C 0.83871 0.18657 0.80908 0.0
C666 C 0.87453 0.18909 0.7324 0.0
C667 C 0.8637 0.17673 0.62875 0.0
H668 H 0.87044 0.20201 0.90321 0.0
H669 H 0.89188 0.19284 0.74969 0.0
S670 S 0.80319 0.1561 0.55103 0.0
N671 N 0.80562 0.16801 0.68363 0.0
N672 N 0.82893 0.15969 0.51488 0.0
C673 C 0.84085 0.17134 0.6121 0.0
C674 C 0.82827 0.17593 0.70294 0.0
C675 C 0.75635 0.04525 0.23793 0.0
C676 C 0.75026 0.02079 0.19197 0.0
C677 C 0.77082 0.05462 0.33345 0.0
C678 C 0.77964 0.03983 0.38653 0.0
H679 H 0.74963 0.05706 0.20022 0.0
H680 H 0.77562 0.07386 0.36453 0.0
S681 S 0.76848 0.97438 0.301 0.0
N682 N 0.75396 0.98189 0.2064 0.0
N683 N 0.78088 0.99933 0.38895 0.0
C684 C 0.77347 1.0152 0.34265 0.0
C685 C 0.75881 1.0057 0.24457 0.0
C686 C 0.18446 0.86355 0.30117 0.0
C687 C 0.16186 0.8587 0.32723 0.0
C688 C 0.18838 0.84861 0.21855 0.0
C689 C 0.16977 0.82827 0.16 0.0
H690 H 0.19897 0.87828 0.34799 0.0
H691 H 0.20587 0.85202 0.20625 0.0
S692 S 0.1076 0.81042 0.19183 0.0
N693 N 0.12109 0.83429 0.28356 0.0
N694 N 0.12807 0.80622 0.12826 0.0
C695 C 0.14729 0.82468 0.18079 0.0
C696 C 0.14343 0.83983 0.26471 0.0
C697 C 0.35524 0.47308 0.19825 0.0
C698 C 0.36994 0.48337 0.09478 0.0
C699 C 0.34404 0.44592 0.23141 0.0
C700 C 0.34748 0.42854 0.16233 0.0
H701 H 0.35383 0.48628 0.25818 0.0
H702 H 0.33398 0.43886 0.31492 0.0
S703 S 0.3811 0.44505 0.87466 0.0
N704 N 0.38473 0.47344 0.9169 0.0
N705 N 0.36415 0.42294 0.97953 0.0
C706 C 0.36063 0.43836 0.05471 0.0
C707 C 0.37174 0.46566 0.02079 0.0
C708 C 1.01347 0.49879 0.01838 0.0
C709 C 1.00287 0.47162 0.04873 0.0
C710 C 0.03778 0.51624 0.02972 0.0
C711 C 0.05271 0.50739 0.07122 0.0
H712 H 1.00299 0.50662 -0.01526 0.0
H713 H 0.04503 0.53691 0.0054 0.0
S714 S 0.03354 0.43906 0.17815 0.0
N715 N 1.00954 0.43743 0.13201 0.0
N716 N 0.05433 0.47007 0.15441 0.0
C717 C 0.04222 0.48055 0.10521 0.0
C718 C 1.01765 0.4628 0.09362 0.0
C719 C 0.68695 0.70318 0.97456 0.0
C720 C 0.70809 0.71409 0.03498 0.0
C721 C 0.67157 0.71364 0.98241 0.0
C722 C 0.67644 0.73532 0.0523 0.0
H723 H 0.68277 0.68724 0.91647 0.0
H724 H 0.65641 0.70549 0.92905 0.0
S725 S 0.72736 0.76831 0.24241 0.0
N726 N 0.73132 0.74618 0.17627 0.0
N727 N 0.703 0.76507 0.19256 0.0
C728 C 0.69678 0.74512 0.11792 0.0
C729 C 0.71234 0.73479 0.10899 0.0
C730 C 0.48975 0.1098 0.95819 0.0
C731 C 0.48564 0.12745 0.02218 0.0
C732 C 0.47527 0.08202 0.97799 0.0
C733 C 0.45615 0.07094 0.06214 0.0
H734 H 0.50332 0.11741 0.88821 0.0
H735 H 0.47824 0.06921 0.92257 0.0
S736 S 0.44048 0.10863 0.26551 0.0
N737 N 0.46276 0.13151 0.1826 0.0
N738 N 0.43607 0.08026 0.21879 0.0
C739 C 0.45306 0.08854 0.13128 0.0
C740 C 0.46763 0.11645 0.11164 0.0
C741 C 0.68348 0.11176 0.07517 0.0
C742 C 0.70543 0.12475 0.0116 0.0
C743 C 0.66854 0.08378 0.07681 0.0
C744 C 0.67481 0.06765 0.01382 0.0
H745 H 0.67829 0.12312 0.12828 0.0
H746 H 0.65257 0.07469 0.13199 0.0
S747 S 0.72847 0.09226 0.81803 0.0
N748 N 0.73109 0.1191 0.87424 0.0
N749 N 0.70347 0.06778 0.8749 0.0
C750 C 0.69599 0.08082 0.9442 0.0
C751 C 0.7111 0.10889 0.94371 0.0
C752 C 0.03823 0.6837 0.00587 0.0
C753 C 0.05699 0.70882 0.03107 0.0
C754 C 1.01543 0.67917 -0.0133 0.0
C755 C 1.01002 0.69948 -0.00726 0.0
H756 H 0.04122 0.6673 0.00142 0.0
H757 H 1.00188 0.65946 0.96797 0.0
S758 S 0.05208 0.76821 0.07007 0.0
N759 N 0.06778 0.75367 0.07047 0.0
N760 N 1.02575 0.74563 0.03362 0.0
C761 C 0.02865 0.72461 0.01966 0.0
C762 C 0.05178 0.72914 0.03916 0.0
C763 C 0.47683 0.48004 -0.00623 0.0
C764 C 0.49178 0.50742 -0.00369 0.0
C765 C 0.48543 0.46312 0.96945 0.0
C766 C 0.50954 0.47254 0.94826 0.0
H767 H 0.45837 0.47133 0.01497 0.0
H768 H 0.47288 0.44222 0.9704 0.0
S769 S 0.5563 0.54274 0.94488 0.0
N770 N 0.53207 0.54333 0.97414 0.0
N771 N 0.54822 0.51146 0.93112 0.0
C772 C 0.52475 0.49992 0.95021 0.0
C773 C 0.51591 0.51727 0.97408 0.0
C774 C 0.18739 0.33851 0.1918 0.0
C775 C 0.17914 0.33736 0.30884 0.0
C776 C 0.20745 0.3369 0.16837 0.0
C777 C 0.21974 0.33411 0.26131 0.0
H778 H 0.17767 0.33943 0.11838 0.0
H779 H 0.21312 0.33719 0.07735 0.0
S780 S 0.20465 0.32903 0.58222 0.0
N781 N 0.18457 0.33305 0.51795 0.0
N782 N 0.22189 0.32924 0.47353 0.0
C783 C 0.21171 0.33302 0.37832 0.0
C784 C 0.19147 0.33482 0.40215 0.0
C785 C 0.91389 0.06055 0.57291 0.0
C786 C 0.90184 0.06585 0.4866 0.0
C787 C 0.9125 0.03602 0.5805 0.0
C788 C 0.89889 1.01646 0.50254 0.0
H789 H 0.9228 0.07453 0.64011 0.0
H790 H 0.92065 0.03168 0.6525 0.0
S791 S 0.86862 0.02322 0.24603 0.0
N792 N 0.87946 0.05163 0.3102 0.0
N793 N 0.87655 1.00536 0.3257 0.0
C794 C 0.8887 0.02253 0.40954 0.0
C795 C 0.89029 0.04741 0.40118 0.0
C796 C 0.19107 1.00149 0.42772 0.0
C797 C 0.16778 0.99493 0.41431 0.0
C798 C 0.20961 0.02726 0.40119 0.0
C799 C 0.2055 0.04721 0.3589 0.0
H800 H 0.19496 0.98688 0.46254 0.0
H801 H 0.22717 0.03183 0.41843 0.0
S802 S 0.14821 0.03989 0.29678 0.0
N803 N 0.14195 1.01037 0.34746 0.0
N804 N 0.17688 0.05849 0.29832 0.0
C805 C 0.18248 0.04072 0.34133 0.0
C806 C 0.16362 1.01466 0.36843 0.0
C807 C 0.32856 0.26597 0.30199 0.0
C808 C 0.30883 0.26816 0.28136 0.0
C809 C 0.32727 0.24166 0.31245 0.0
C810 C 0.30617 0.21784 0.30126 0.0
H811 H 0.34557 0.2833 0.30864 0.0
H812 H 0.34336 0.24182 0.3275 0.0
S813 S 0.24884 0.21198 0.25014 0.0
N814 N 0.26702 0.24407 0.25377 0.0
N815 N 0.26462 0.19786 0.27144 0.0
C816 C 0.28597 0.21938 0.28322 0.0
C817 C 0.28729 0.24457 0.27352 0.0
C818 C 0.99309 0.24925 0.45581 0.0
C819 C 0.99478 0.22649 0.45585 0.0
C820 C 1.0123 0.27389 0.42415 0.0
C821 C 0.03449 0.27724 0.39709 0.0
H822 H 0.97698 0.24829 0.48336 0.0
H823 H 1.00965 0.29055 0.42367 0.0
S824 S 0.04846 0.22384 0.38602 0.0
N825 N 1.02028 0.20854 0.42404 0.0
N826 N 0.05704 0.25549 0.37165 0.0
C827 C 0.03664 0.25471 0.39811 0.0
C828 C 1.01671 0.22928 0.42683 0.0
C829 C 0.03401 0.98379 0.59522 0.0
C830 C 0.03333 0.96103 0.55641 0.0
C831 C 1.01365 0.98523 0.60371 0.0
C832 C 0.99217 0.96393 0.57364 0.0
H833 H 0.0505 1.00077 0.61533 0.0
H834 H 1.01473 1.00334 0.62985 0.0
S835 S 0.98177 0.90094 0.45774 0.0
N836 N 1.00991 0.9174 0.48212 0.0
N837 N 0.97155 0.92006 0.49854 0.0
C838 C 0.99127 0.94099 0.53604 0.0
C839 C 1.01194 0.93955 0.52723 0.0
C840 C 0.8701 0.70856 0.97362 0.0
C841 C 0.87113 0.68513 0.97939 0.0
C842 C 0.84871 0.70853 0.97816 0.0
C843 C 0.82659 0.68508 -0.0112 0.0
H844 H 0.88614 0.72744 0.96568 0.0
H845 H 0.84967 0.72745 0.97326 0.0
S846 S 0.81863 0.61784 0.00666 0.0
N847 N 0.84729 0.63735 -0.00411 0.0
N848 N 0.80748 0.63736 0.00422 0.0
C849 C 0.8272 0.66138 -0.00585 0.0
C850 C 0.84917 0.66139 -0.01043 0.0
C851 C 0.51618 0.32082 0.9426 0.0
C852 C 0.53764 0.34475 0.92833 0.0
C853 C 0.5148 0.29632 0.94875 0.0
C854 C 0.53473 0.29366 0.9402 0.0
H855 H 0.49984 0.32071 0.94982 0.0
H856 H 0.4975 0.27916 0.96085 0.0
S857 S 0.59567 0.3498 0.90272 0.0
N858 N 0.57977 0.36417 0.90668 0.0
N859 N 0.57711 0.31771 0.9171 0.0
C860 C 0.55654 0.31731 0.92609 0.0
C861 C 0.55799 0.34278 0.92036 0.0
C862 C 0.81697 0.31349 0.0185 0.0
C863 C 0.81704 0.28947 0.01524 0.0
C864 C 0.8381 0.33844 0.02084 0.0
C865 C 0.86036 0.34062 0.01995 0.0
H866 H 0.80049 0.31307 0.01982 0.0
H867 H 0.83694 0.3561 0.0237 0.0
S868 S 0.87055 0.28387 0.00943 0.0
N869 N 0.842 0.27025 0.01011 0.0
N870 N 0.8805 0.31568 0.01384 0.0
C871 C 0.86045 0.31663 0.0159 0.0
C872 C 0.83925 0.29161 0.01375 0.0
C873 C 0.90898 0.54898 0.11055 0.0
C874 C 0.90912 0.56106 0.00089 0.0
C875 C 0.90853 0.52474 0.1164 0.0
C876 C 0.90811 0.51182 0.01281 0.0
H877 H 0.90834 0.55783 0.1921 0.0
H878 H 0.90763 0.51554 0.20219 0.0
S879 S 0.90935 0.53577 0.7048 0.0
N880 N 0.90969 0.55868 0.78715 0.0
N881 N 0.90865 0.51329 0.79832 0.0
C882 C 0.90873 0.52401 0.90322 0.0
C883 C 0.90926 0.54855 0.89723 0.0
C884 C 0.64403 0.52509 0.06308 0.0
C885 C 0.63804 0.51736 0.9465 0.0
C886 C 0.66369 0.54956 0.08553 0.0
C887 C 0.67804 0.56731 -0.0075 0.0
H888 H 0.63406 0.5118 0.13751 0.0
H889 H 0.66798 0.55453 0.17643 0.0
S890 S 0.67087 0.55608 0.6719 0.0
N891 N 0.64853 0.52943 0.73706 0.0
N892 N 0.68568 0.57485 0.77989 0.0
C893 C 0.67241 0.55977 0.87588 0.0
C894 C 0.65241 0.53496 0.85285 0.0
C895 C 0.65731 0.2244 0.91106 0.0
C896 C 0.6655 0.22601 0.02546 0.0
C897 C 0.63638 0.22403 0.89226 0.0
C898 C 0.62295 0.22561 -0.01321 0.0
H899 H 0.66765 0.22455 0.83503 0.0
H900 H 0.63095 0.2233 0.80238 0.0
S901 S 0.63771 0.23204 0.30235 0.0
N902 N 0.65894 0.22982 0.23434 0.0
N903 N 0.62009 0.23029 0.19828 0.0
C904 C 0.63101 0.2274 0.10157 0.0
C905 C 0.65222 0.22747 0.12088 0.0
C906 C 0.51434 0.94398 0.0016 0.0
C907 C 0.53494 0.96514 0.04269 0.0
C908 C 0.49309 0.94391 0.00419 0.0
C909 C 0.49129 0.96501 0.04784 0.0
H910 H 0.51453 0.92686 0.97057 0.0
H911 H 0.47766 0.92677 0.9749 0.0
S912 S 0.53958 0.02465 0.17256 0.0
N913 N 0.55187 1.00753 0.13202 0.0
N914 N 0.51205 1.00743 0.1367 0.0
C915 C 0.51181 0.98656 0.08749 0.0
C916 C 0.53355 0.98662 0.08492 0.0
C917 C 0.20148 0.6925 0.08359 0.0
C918 C 0.18194 0.69383 0.04635 0.0
C919 C 0.20186 0.66861 0.08463 0.0
C920 C 0.18274 0.64509 0.0479 0.0
H921 H 0.21632 0.70984 0.11582 0.0
H922 H 0.21685 0.66839 0.11832 0.0
S923 S 0.12879 0.63883 0.92566 0.0
N924 N 0.14402 0.66986 0.96092 0.0
N925 N 0.14473 0.62568 0.96116 0.0
C926 C 0.16368 0.64665 0.00465 0.0
C927 C 0.16326 0.67074 0.00438 0.0
C928 C 0.52883 0.66394 0.03658 0.0
C929 C 0.53099 0.68876 0.04678 0.0
C930 C 0.50684 0.64088 0.03323 0.0
C931 C 0.4856 0.64116 0.04101 0.0
H932 H 0.54417 0.66202 0.03644 0.0
H933 H 0.50662 0.62245 0.02738 0.0
S934 S 0.48147 0.70137 0.06338 0.0
N935 N 0.50983 0.71243 0.05994 0.0
N936 N 0.46861 0.66908 0.055 0.0
C937 C 0.48749 0.66595 0.04849 0.0
C938 C 0.51003 0.68959 0.05152 0.0
C939 C 0.64955 0.87493 0.10647 0.0
C940 C 0.63111 0.85154 0.06437 0.0
C941 C 0.64913 0.89854 0.1085 0.0
C942 C 0.63028 0.90084 0.06795 0.0
H943 H 0.66501 0.87533 0.13702 0.0
H944 H 0.66433 0.91554 0.14051 0.0
S945 S 0.57649 0.8454 0.95361 0.0
N946 N 0.59247 0.83197 -0.0144 0.0
N947 N 0.59177 0.87658 -0.01167 0.0
C948 C 0.61109 0.87741 0.02952 0.0
C949 C 0.61148 0.85289 0.02796 0.0
C950 C 0.31672 0.90831 0.07876 0.0
C951 C 0.33875 0.91 0.08306 0.0
C952 C 0.29556 0.88404 0.07368 0.0
C953 C 0.29498 0.85979 0.07372 0.0
H954 H 0.31569 0.92609 0.07722 0.0
H955 H 0.27961 0.88451 0.06564 0.0
S956 S 0.34727 0.85234 0.08584 0.0
N957 N 0.35821 0.8845 0.08794 0.0
N958 N 0.31872 0.83915 0.07945 0.0
C959 C 0.31681 0.86104 0.07862 0.0
C960 C 0.33847 0.88588 0.08351 0.0
C961 C 0.32974 0.6109 0.11581 0.0
C962 C 0.33097 0.58859 0.08368 0.0
C963 C 0.30858 0.61132 0.11771 0.0
C964 C 0.2872 0.58943 0.08787 0.0
H965 H 0.34555 0.62862 0.13708 0.0
H966 H 0.30908 0.62933 0.14026 0.0
S967 S 0.28052 0.5265 -0.01182 0.0
N968 N 0.30849 0.54418 0.01554 0.0
N969 N 0.26903 0.54492 0.01982 0.0
C970 C 0.288 0.56681 0.05637 0.0
C971 C 0.30969 0.5664 0.05413 0.0
C972 C 0.09838 0.34573 0.91491 0.0
C973 C 0.0869 0.35673 0.97683 0.0
C974 C 0.10041 0.34726 0.79084 0.0
C975 C 0.0911 0.35991 0.72373 0.0
H976 H 0.10578 0.33567 0.96252 0.0
H977 H 0.109 0.33805 0.74736 0.0
S978 S 0.06103 0.39383 0.84251 0.0
N979 N 0.06704 0.38181 0.96115 0.0
N980 N 0.07119 0.38509 0.72853 0.0
C981 C 0.08003 0.37154 0.78446 0.0
C982 C 0.07782 0.36981 0.91074 0.0
C983 C 0.90336 0.95108 0.11969 0.0
C984 C 0.88281 0.93421 0.18819 0.0
C985 C 0.9031 0.95384 -0.00386 0.0
C986 C 0.88226 0.93999 0.93632 0.0
H987 H 0.9197 0.96274 0.16194 0.0
H988 H 0.91937 0.96713 0.94726 0.0
S989 S 0.82423 0.89084 0.07336 0.0
N990 N 0.84145 0.90159 0.18585 0.0
N991 N 0.84088 0.90715 0.95443 0.0
C992 C 0.8617 0.92251 0.00348 0.0
C993 C 0.86201 0.9195 0.12908 0.0
C994 C 0.30108 0.12667 0.87486 0.0
C995 C 0.31357 0.15066 0.93075 0.0
C996 C 0.30057 0.12606 0.75089 0.0
C997 C 0.3123 0.14944 0.67944 0.0
H998 H 0.29202 0.10825 0.92725 0.0
H999 H 0.29128 0.10719 0.71072 0.0
S1000 S 0.34343 0.2174 0.78467 0.0
N1001 N 0.33588 0.19831 0.9068 0.0
N1002 N 0.3335 0.19725 0.6748 0.0
C1003 C 0.3237 0.17355 0.735 0.0
C1004 C 0.32472 0.17414 0.86061 0.0
C1005 C 0.10616 0.93798 0.93973 0.0
C1006 C 0.11157 0.92147 0.87538 0.0
C1007 C 0.10273 0.93498 0.06368 0.0
C1008 C 0.1043 0.91517 0.12813 0.0
H1009 H 0.10475 0.95349 0.89406 0.0
H1010 H 0.09933 0.94871 0.10944 0.0
S1011 S 0.11467 0.86441 6e-05 0.0
N1012 N 0.11635 0.88318 0.88468 0.0
N1013 N 0.10931 0.87715 0.11662 0.0
C1014 C 0.10881 0.8979 0.06436 0.0
C1015 C 0.1126 0.90116 0.93841 0.0
C1016 C 0.34636 0.35879 0.79238 0.0
C1017 C 0.32598 0.34632 0.86666 0.0
C1018 C 0.34518 0.36075 0.66907 0.0
C1019 C 0.32359 0.35027 0.61481 0.0
H1020 H 0.36338 0.36746 0.82965 0.0
H1021 H 0.36142 0.37058 0.61593 0.0
S1022 S 0.26498 0.31517 0.76936 0.0
N1023 N 0.2834 0.32292 0.87633 0.0
N1024 N 0.28134 0.32675 0.64549 0.0
C1025 C 0.30308 0.33775 0.68805 0.0
C1026 C 0.30424 0.33569 0.8135 0.0
C1027 C 0.86508 0.11405 0.0951 0.0
C1028 C 0.88606 0.1285 0.15336 0.0
C1029 C 0.86507 0.11093 0.97255 0.0
C1030 C 0.88605 0.12219 0.90298 0.0
H1031 H 0.84843 0.10502 0.14443 0.0
H1032 H 0.84844 0.09996 0.93197 0.0
S1033 S 0.94589 0.1616 0.01216 0.0
N1034 N 0.92846 0.154 0.13161 0.0
N1035 N 0.92852 0.14818 0.90211 0.0
C1036 C 0.9072 0.13667 0.96014 0.0
C1037 C 0.90718 0.13988 0.08484 0.0
C1038 C 0.77509 0.71759 0.43807 0.0
C1039 C 0.76423 0.69414 0.37728 0.0
C1040 C 0.77411 0.71714 0.56197 0.0
C1041 C 0.76248 0.69323 0.63022 0.0
H1042 H 0.78427 0.73653 0.3898 0.0
H1043 H 0.78245 0.73576 0.60421 0.0
S1044 S 0.73063 0.62617 0.5142 0.0
N1045 N 0.74094 0.6462 0.39495 0.0
N1046 N 0.73936 0.64541 0.62743 0.0
C1047 C 0.75131 0.66959 0.57058 0.0
C1048 C 0.75218 0.67004 0.44435 0.0
C1049 C 0.53621 0.22031 0.5167 0.0
C1050 C 0.51548 0.20859 0.58847 0.0
C1051 C 0.53569 0.22159 0.39298 0.0
C1052 C 0.51444 0.21128 0.33613 0.0
H1053 H 0.55302 0.22892 0.55621 0.0
H1054 H 0.55215 0.23093 0.34164 0.0
S1055 S 0.45514 0.17658 0.48299 0.0
N1056 N 0.47296 0.18509 0.59304 0.0
N1057 N 0.47208 0.18766 0.36089 0.0
C1058 C 0.49356 0.19909 0.40667 0.0
C1059 C 0.49406 0.19768 0.53262 0.0
C1060 C 0.91413 0.41602 0.46576 0.0
C1061 C 0.92908 0.41016 0.39987 0.0
C1062 C 0.91559 0.41837 0.58882 0.0
C1063 C 0.93216 0.41511 0.65021 0.0
H1064 H 0.90103 0.41854 0.42214 0.0
H1065 H 0.90335 0.42224 0.63638 0.0
S1066 S 0.97761 0.4037 0.51545 0.0
N1067 N 0.96232 0.40365 0.40307 0.0
N1068 N 0.96535 0.40844 0.63385 0.0
C1069 C 0.94775 0.4102 0.58459 0.0
C1070 C 0.94612 0.40761 0.4596 0.0
C1071 C 0.76827 0.19676 0.45944 0.0
C1072 C 0.75794 0.20789 0.39004 0.0
C1073 C 0.76764 0.19751 0.58316 0.0
C1074 C 0.75686 0.20962 0.64246 0.0
H1075 H 0.77674 0.18719 0.4182 0.0
H1076 H 0.7755 0.18825 0.63262 0.0
S1077 S 0.7275 0.24209 0.50187 0.0
N1078 N 0.73663 0.23163 0.39023 0.0
N1079 N 0.7357 0.2331 0.62218 0.0
C1080 C 0.74645 0.22083 0.57427 0.0
C1081 C 0.74698 0.21999 0.44834 0.0
C1082 C 0.94296 0.67107 0.41064 0.0
C1083 C 0.93888 0.68908 0.34652 0.0
C1084 C 0.94303 0.67065 0.53479 0.0
C1085 C 0.93884 0.6881 0.5987 0.0
H1086 H 0.94654 0.65753 0.36447 0.0
H1087 H 0.94676 0.65691 0.58083 0.0
S1088 S 0.92319 0.73572 0.47291 0.0
N1089 N 0.92844 0.72299 0.3561 0.0
N1090 N 0.92735 0.72124 0.58907 0.0
C1091 C 0.93364 0.70527 0.53558 0.0
C1092 C 0.93399 0.70603 0.40947 0.0
C1093 C 0.50835 0.40303 0.36956 0.0
C1094 C 0.52874 0.41182 0.29746 0.0
C1095 C 0.50936 0.40519 0.49265 0.0
C1096 C 0.53076 0.41589 0.54863 0.0
H1097 H 0.4915 0.39482 0.33069 0.0
H1098 H 0.49321 0.39857 0.54407 0.0
S1099 S 0.58924 0.44148 0.39987 0.0
N1100 N 0.57106 0.43163 0.29123 0.0
N1101 N 0.57282 0.43533 0.52216 0.0
C1102 C 0.55129 0.4248 0.47753 0.0
C1103 C 0.5503 0.42277 0.35221 0.0
C1104 C 0.41799 0.98847 0.51406 0.0
C1105 C 0.39921 0.98696 0.45323 0.0
C1106 C 0.41842 0.98953 0.63769 0.0
C1107 C 0.40016 0.98928 0.705 0.0
H1108 H 0.43265 0.98922 0.46584 0.0
H1109 H 0.43333 0.99087 0.68064 0.0
S1110 S 0.34591 0.98292 0.58963 0.0
N1111 N 0.36102 0.98319 0.4708 0.0
N1112 N 0.36215 0.98587 0.70242 0.0
C1113 C 0.38109 0.98731 0.64555 0.0
C1114 C 0.38053 0.98595 0.51992 0.0
C1115 C 0.1529 0.55696 0.65821 0.0
C1116 C 0.1735 0.56513 0.7189 0.0
C1117 C 0.15335 0.55906 0.53426 0.0
C1118 C 0.17443 0.56946 0.46577 0.0
H1119 H 0.13623 0.54895 0.70664 0.0
H1120 H 0.13698 0.5523 0.49202 0.0
S1121 S 0.23335 0.59357 0.58116 0.0
N1122 N 0.21565 0.58391 0.70048 0.0
N1123 N 0.21651 0.58793 0.46836 0.0
C1124 C 0.19518 0.57764 0.52531 0.0
C1125 C 0.19471 0.57543 0.65146 0.0
C1126 C 0.66665 0.80189 0.6051 0.0
C1127 C 0.64584 0.78765 0.67547 0.0
C1128 C 0.66668 0.8008 0.48157 0.0
C1129 C 0.64588 0.78556 0.42333 0.0
H1130 H 0.68315 0.8138 0.64558 0.0
H1131 H 0.68319 0.81194 0.43161 0.0
S1132 S 0.58651 0.74477 0.5667 0.0
N1133 N 0.60374 0.7579 0.67749 0.0
N1134 N 0.60381 0.75594 0.44579 0.0
C1135 C 0.62491 0.77119 0.49262 0.0
C1136 C 0.62488 0.77226 0.61842 0.0
C1137 C 0.41012 0.57089 0.62537 0.0
C1138 C 0.42396 0.56331 0.68789 0.0
C1139 C 0.41014 0.57113 0.50149 0.0
C1140 C 0.42399 0.56377 0.43506 0.0
H1141 H 0.39915 0.57674 0.67223 0.0
H1142 H 0.39914 0.57711 0.45773 0.0
S1143 S 0.46341 0.54217 0.55599 0.0
N1144 N 0.45195 0.54819 0.67361 0.0
N1145 N 0.45194 0.5486 0.44148 0.0
C1146 C 0.43791 0.55609 0.49647 0.0
C1147 C 0.4379 0.55586 0.62257 0.0
C1148 C 0.6634 0.98471 0.60439 0.0
C1149 C 0.64459 0.98282 0.67294 0.0
C1150 C 0.6634 0.98519 0.48063 0.0
C1151 C 0.64458 0.9837 0.42025 0.0
H1152 H 0.67826 0.98571 0.64639 0.0
H1153 H 0.67823 0.98653 0.43228 0.0
S1154 S 0.59159 0.98015 0.55805 0.0
N1155 N 0.60696 0.98059 0.6709 0.0
N1156 N 0.60699 0.98139 0.43848 0.0
C1157 C 0.62578 0.98221 0.48758 0.0
C1158 C 0.62578 0.98178 0.61374 0.0
C1159 C 0.19682 0.77977 0.50122 0.0
C1160 C 0.17681 0.76127 0.44469 0.0
C1161 C 0.19668 0.78167 0.62455 0.0
C1162 C 0.17653 0.76516 0.69643 0.0
H1163 H 0.21269 0.79321 0.44981 0.0
H1164 H 0.21248 0.79627 0.66363 0.0
S1165 S 0.11992 0.71226 0.59287 0.0
N1166 N 0.13655 0.72547 0.47068 0.0
N1167 N 0.13627 0.72877 0.70182 0.0
C1168 C 0.15648 0.7463 0.64107 0.0
C1169 C 0.15663 0.74442 0.51554 0.0
loop_
_geom_bond_atom_site_label_1
_geom_bond_atom_site_label_2
_geom_bond_distance
_geom_bond_site_symmetry_2
_ccdc_geom_bond_type
Zn0 O1 2.055 . S
Zn0 O8 2.046 . S
Zn0 N16 2.036 . S
Zn0 O28 2.053 . S
Zn0 O30 2.066 . S
O1 Zn0 2.055 . S
O1 C4 1.259 . S
C2 O30 1.256 . S
C2 O31 1.244 . S
Zn3 O5 2.046 . S
Zn3 O7 2.055 . S
Zn3 N9 2.036 . S
Zn3 O27 2.066 . S
Zn3 O31 2.053 . S
C4 O1 1.259 . S
C4 O5 1.254 . S
O5 Zn3 2.046 . S
O5 C4 1.254 . S
C6 O27 1.256 . S
C6 O28 1.244 . S
O7 Zn3 2.055 . S
O7 C29 1.259 . S
O8 Zn0 2.046 . S
O8 C29 1.254 . S
N9 Zn3 2.036 . S
N9 C10 1.298 . S
N9 N12 1.398 . S
C10 N9 1.298 . S
C10 N13 1.367 . S
C10 C23 1.481 . S
C11 N12 1.299 . S
C11 N13 1.379 . S
N12 N9 1.398 . S
N12 C11 1.299 . S
N13 C10 1.367 . S
N13 C11 1.379 . S
C14 N16 1.298 1_655 S
C14 N18 1.367 . S
C14 C22 1.481 . S
C15 N17 1.299 . S
C15 N18 1.379 1_455 S
N16 Zn0 2.036 . S
N16 C14 1.298 1_455 S
N16 N17 1.398 . S
N17 C15 1.299 . S
N17 N16 1.398 . S
N18 C14 1.367 . S
N18 C15 1.379 1_655 S
H19 C22 0.980 . S
H20 C22 0.981 . S
H21 C22 0.981 . S
C22 C14 1.481 . S
C22 H19 0.980 . S
C22 H20 0.981 . S
C22 H21 0.981 . S
C23 C10 1.481 . S
C23 H24 0.980 . S
C23 H25 0.981 . S
C23 H26 0.981 . S
H24 C23 0.980 . S
H25 C23 0.981 . S
H26 C23 0.981 . S
O27 Zn3 2.066 . S
O27 C6 1.256 . S
O28 Zn0 2.053 . S
O28 C6 1.244 . S
C29 O7 1.259 . S
C29 O8 1.254 . S
O30 Zn0 2.066 . S
O30 C2 1.256 . S
O31 C2 1.244 . S
O31 Zn3 2.053 . S
Zn32 O33 2.055 . S
Zn32 O40 2.046 . S
Zn32 N48 2.036 . S
Zn32 O60 2.053 . S
Zn32 O62 2.066 . S
O33 Zn32 2.055 . S
O33 C36 1.259 . S
C34 O62 1.256 . S
C34 O63 1.244 . S
Zn35 O37 2.046 . S
Zn35 O39 2.055 . S
Zn35 N41 2.036 . S
Zn35 O59 2.066 . S
Zn35 O63 2.053 . S
C36 O33 1.259 . S
C36 O37 1.254 . S
O37 Zn35 2.046 . S
O37 C36 1.254 . S
C38 O59 1.256 . S
C38 O60 1.244 . S
O39 Zn35 2.055 . S
O39 C61 1.259 . S
O40 Zn32 2.046 . S
O40 C61 1.254 . S
N41 Zn35 2.036 . S
N41 C42 1.298 . S
N41 N44 1.398 . S
C42 N41 1.298 . S
C42 N45 1.367 . S
C42 C55 1.481 . S
C43 N44 1.299 . S
C43 N45 1.379 . S
N44 N41 1.398 . S
N44 C43 1.299 . S
N45 C42 1.367 . S
N45 C43 1.379 . S
C46 N48 1.298 . S
C46 N50 1.367 . S
C46 C54 1.481 . S
C47 N49 1.299 . S
C47 N50 1.379 . S
N48 Zn32 2.036 . S
N48 C46 1.298 . S
N48 N49 1.398 . S
N49 C47 1.299 . S
N49 N48 1.398 . S
N50 C46 1.367 . S
N50 C47 1.379 . S
H51 C54 0.980 . S
H52 C54 0.981 . S
H53 C54 0.981 . S
C54 C46 1.481 . S
C54 H51 0.980 . S
C54 H52 0.981 . S
C54 H53 0.981 . S
C55 C42 1.481 . S
C55 H56 0.980 . S
C55 H57 0.981 . S
C55 H58 0.981 . S
H56 C55 0.980 . S
H57 C55 0.981 . S
H58 C55 0.981 . S
O59 Zn35 2.066 . S
O59 C38 1.256 . S
O60 Zn32 2.053 . S
O60 C38 1.244 . S
C61 O39 1.259 . S
C61 O40 1.254 . S
O62 Zn32 2.066 . S
O62 C34 1.256 . S
O63 C34 1.244 . S
O63 Zn35 2.053 . S
Zn64 O65 2.055 . S
Zn64 O72 2.046 . S
Zn64 N80 2.036 . S
Zn64 O92 2.053 . S
Zn64 O94 2.066 . S
O65 Zn64 2.055 . S
O65 C68 1.259 . S
C66 O94 1.256 . S
C66 O95 1.244 . S
Zn67 O69 2.046 . S
Zn67 O71 2.055 . S
Zn67 N73 2.036 . S
Zn67 O91 2.066 . S
Zn67 O95 2.053 . S
C68 O65 1.259 . S
C68 O69 1.254 . S
O69 Zn67 2.046 . S
O69 C68 1.254 . S
C70 O91 1.256 . S
C70 O92 1.244 . S
O71 Zn67 2.055 . S
O71 C93 1.259 . S
O72 Zn64 2.046 . S
O72 C93 1.254 . S
N73 Zn67 2.036 . S
N73 C74 1.298 . S
N73 N76 1.398 . S
C74 N73 1.298 . S
C74 N77 1.367 . S
C74 C87 1.481 . S
C75 N76 1.299 . S
C75 N77 1.379 . S
N76 N73 1.398 . S
N76 C75 1.299 . S
N77 C74 1.367 . S
N77 C75 1.379 . S
C78 N80 1.298 . S
C78 N82 1.367 . S
C78 C86 1.481 . S
C79 N81 1.299 . S
C79 N82 1.379 . S
N80 Zn64 2.036 . S
N80 C78 1.298 . S
N80 N81 1.398 . S
N81 C79 1.299 . S
N81 N80 1.398 . S
N82 C78 1.367 . S
N82 C79 1.379 . S
H83 C86 0.980 . S
H84 C86 0.981 . S
H85 C86 0.981 . S
C86 C78 1.481 . S
C86 H83 0.980 . S
C86 H84 0.981 . S
C86 H85 0.981 . S
C87 C74 1.481 . S
C87 H88 0.980 . S
C87 H89 0.981 . S
C87 H90 0.981 . S
H88 C87 0.980 . S
H89 C87 0.981 . S
H90 C87 0.981 . S
O91 Zn67 2.066 . S
O91 C70 1.256 . S
O92 Zn64 2.053 . S
O92 C70 1.244 . S
C93 O71 1.259 . S
C93 O72 1.254 . S
O94 Zn64 2.066 . S
O94 C66 1.256 . S
O95 C66 1.244 . S
O95 Zn67 2.053 . S
Zn96 O97 2.055 . S
Zn96 O104 2.046 . S
Zn96 N112 2.036 . S
Zn96 O124 2.053 . S
Zn96 O126 2.066 . S
O97 Zn96 2.055 . S
O97 C100 1.259 . S
C98 O126 1.256 . S
C98 O127 1.244 . S
Zn99 O101 2.046 . S
Zn99 O103 2.055 . S
Zn99 N105 2.036 . S
Zn99 O123 2.066 . S
Zn99 O127 2.053 . S
C100 O97 1.259 . S
C100 O101 1.254 . S
O101 Zn99 2.046 . S
O101 C100 1.254 . S
C102 O123 1.256 . S
C102 O124 1.244 . S
O103 Zn99 2.055 . S
O103 C125 1.259 . S
O104 Zn96 2.046 . S
O104 C125 1.254 . S
N105 Zn99 2.036 . S
N105 C106 1.298 . S
N105 N108 1.398 . S
C106 N105 1.298 . S
C106 N109 1.367 . S
C106 C119 1.481 . S
C107 N108 1.299 . S
C107 N109 1.379 . S
N108 N105 1.398 . S
N108 C107 1.299 . S
N109 C106 1.367 . S
N109 C107 1.379 . S
C110 N112 1.298 . S
C110 N114 1.367 . S
C110 C118 1.481 . S
C111 N113 1.299 . S
C111 N114 1.379 . S
N112 Zn96 2.036 . S
N112 C110 1.298 . S
N112 N113 1.398 . S
N113 C111 1.299 . S
N113 N112 1.398 . S
N114 C110 1.367 . S
N114 C111 1.379 . S
H115 C118 0.980 . S
H116 C118 0.981 . S
H117 C118 0.981 . S
C118 C110 1.481 . S
C118 H115 0.980 . S
C118 H116 0.981 . S
C118 H117 0.981 . S
C119 C106 1.481 . S
C119 H120 0.980 . S
C119 H121 0.981 . S
C119 H122 0.981 . S
H120 C119 0.980 . S
H121 C119 0.981 . S
H122 C119 0.981 . S
O123 Zn99 2.066 . S
O123 C102 1.256 . S
O124 Zn96 2.053 . S
O124 C102 1.244 . S
C125 O103 1.259 . S
C125 O104 1.254 . S
O126 Zn96 2.066 . S
O126 C98 1.256 . S
O127 C98 1.244 . S
O127 Zn99 2.053 . S
Zn128 O129 2.055 . S
Zn128 O136 2.046 . S
Zn128 N144 2.036 . S
Zn128 O156 2.053 . S
Zn128 O158 2.066 . S
O129 Zn128 2.055 . S
O129 C132 1.259 . S
C130 O158 1.256 . S
C130 O159 1.244 . S
Zn131 O133 2.046 . S
Zn131 O135 2.055 . S
Zn131 N137 2.036 . S
Zn131 O155 2.066 . S
Zn131 O159 2.053 . S
C132 O129 1.259 . S
C132 O133 1.254 . S
O133 Zn131 2.046 . S
O133 C132 1.254 . S
C134 O155 1.256 . S
C134 O156 1.244 . S
O135 Zn131 2.055 . S
O135 C157 1.259 . S
O136 Zn128 2.046 . S
O136 C157 1.254 . S
N137 Zn131 2.036 . S
N137 C138 1.298 . S
N137 N140 1.398 . S
C138 N137 1.298 . S
C138 N141 1.367 . S
C138 C151 1.481 . S
C139 N140 1.299 . S
C139 N141 1.379 . S
N140 N137 1.398 . S
N140 C139 1.299 . S
N141 C138 1.367 . S
N141 C139 1.379 . S
C142 N144 1.298 . S
C142 N146 1.367 . S
C142 C150 1.481 . S
C143 N145 1.299 . S
C143 N146 1.379 . S
N144 Zn128 2.036 . S
N144 C142 1.298 . S
N144 N145 1.398 . S
N145 C143 1.299 . S
N145 N144 1.398 . S
N146 C142 1.367 . S
N146 C143 1.379 . S
H147 C150 0.980 . S
H148 C150 0.981 . S
H149 C150 0.981 . S
C150 C142 1.481 . S
C150 H147 0.980 . S
C150 H148 0.981 . S
C150 H149 0.981 . S
C151 C138 1.481 . S
C151 H152 0.980 . S
C151 H153 0.981 . S
C151 H154 0.981 . S
H152 C151 0.980 . S
H153 C151 0.981 . S
H154 C151 0.981 . S
O155 Zn131 2.066 . S
O155 C134 1.256 . S
O156 Zn128 2.053 . S
O156 C134 1.244 . S
C157 O135 1.259 . S
C157 O136 1.254 . S
O158 Zn128 2.066 . S
O158 C130 1.256 . S
O159 C130 1.244 . S
O159 Zn131 2.053 . S
Zn160 O161 2.055 . S
Zn160 O168 2.046 . S
Zn160 N176 2.036 . S
Zn160 O188 2.053 . S
Zn160 O190 2.066 . S
O161 Zn160 2.055 . S
O161 C164 1.259 . S
C162 O190 1.256 . S
C162 O191 1.244 . S
Zn163 O165 2.046 . S
Zn163 O167 2.055 . S
Zn163 N169 2.036 . S
Zn163 O187 2.066 . S
Zn163 O191 2.053 . S
C164 O161 1.259 . S
C164 O165 1.254 . S
O165 Zn163 2.046 . S
O165 C164 1.254 . S
C166 O187 1.256 . S
C166 O188 1.244 . S
O167 Zn163 2.055 . S
O167 C189 1.259 . S
O168 Zn160 2.046 . S
O168 C189 1.254 . S
N169 Zn163 2.036 . S
N169 C170 1.298 . S
N169 N172 1.398 . S
C170 N169 1.298 . S
C170 N173 1.367 . S
C170 C183 1.481 . S
C171 N172 1.299 . S
C171 N173 1.379 . S
N172 N169 1.398 . S
N172 C171 1.299 . S
N173 C170 1.367 . S
N173 C171 1.379 . S
C174 N176 1.298 . S
C174 N178 1.367 . S
C174 C182 1.481 . S
C175 N177 1.299 . S
C175 N178 1.379 . S
N176 Zn160 2.036 . S
N176 C174 1.298 . S
N176 N177 1.398 . S
N177 C175 1.299 . S
N177 N176 1.398 . S
N178 C174 1.367 . S
N178 C175 1.379 . S
H179 C182 0.980 . S
H180 C182 0.981 1_565 S
H181 C182 0.981 . S
C182 C174 1.481 . S
C182 H179 0.980 . S
C182 H180 0.981 1_545 S
C182 H181 0.981 . S
C183 C170 1.481 . S
C183 H184 0.980 . S
C183 H185 0.981 . S
C183 H186 0.981 . S
H184 C183 0.980 . S
H185 C183 0.981 . S
H186 C183 0.981 . S
O187 Zn163 2.066 . S
O187 C166 1.256 . S
O188 Zn160 2.053 . S
O188 C166 1.244 . S
C189 O167 1.259 . S
C189 O168 1.254 . S
O190 Zn160 2.066 . S
O190 C162 1.256 . S
O191 C162 1.244 . S
O191 Zn163 2.053 . S
Zn192 O193 2.055 1_556 S
Zn192 O200 2.046 . S
Zn192 N208 2.036 . S
Zn192 O220 2.053 . S
Zn192 O222 2.066 . S
O193 Zn192 2.055 1_554 S
O193 C196 1.259 . S
C194 O222 1.256 . S
C194 O223 1.244 . S
Zn195 O197 2.046 1_556 S
Zn195 O199 2.055 . S
Zn195 N201 2.036 . S
Zn195 O219 2.066 . S
Zn195 O223 2.053 . S
C196 O193 1.259 . S
C196 O197 1.254 . S
O197 Zn195 2.046 1_554 S
O197 C196 1.254 . S
C198 O219 1.256 . S
C198 O220 1.244 . S
O199 Zn195 2.055 . S
O199 C221 1.259 . S
O200 Zn192 2.046 . S
O200 C221 1.254 . S
N201 Zn195 2.036 . S
N201 C202 1.298 . S
N201 N204 1.398 . S
C202 N201 1.298 . S
C202 N205 1.367 . S
C202 C215 1.481 . S
C203 N204 1.299 . S
C203 N205 1.379 . S
N204 N201 1.398 . S
N204 C203 1.299 . S
N205 C202 1.367 . S
N205 C203 1.379 . S
C206 N208 1.298 1_554 S
C206 N210 1.367 1_554 S
C206 C214 1.481 . S
C207 N209 1.299 . S
C207 N210 1.379 . S
N208 Zn192 2.036 . S
N208 C206 1.298 1_556 S
N208 N209 1.398 . S
N209 C207 1.299 . S
N209 N208 1.398 . S
N210 C206 1.367 1_556 S
N210 C207 1.379 . S
H211 C214 0.980 . S
H212 C214 0.981 . S
H213 C214 0.981 . S
C214 C206 1.481 . S
C214 H211 0.980 . S
C214 H212 0.981 . S
C214 H213 0.981 . S
C215 C202 1.481 . S
C215 H216 0.980 . S
C215 H217 0.981 . S
C215 H218 0.981 . S
H216 C215 0.980 . S
H217 C215 0.981 . S
H218 C215 0.981 . S
O219 Zn195 2.066 . S
O219 C198 1.256 . S
O220 Zn192 2.053 . S
O220 C198 1.244 . S
C221 O199 1.259 . S
C221 O200 1.254 . S
O222 Zn192 2.066 . S
O222 C194 1.256 . S
O223 C194 1.244 . S
O223 Zn195 2.053 . S
Zn224 O225 2.055 . S
Zn224 O232 2.046 1_556 S
Zn224 N240 2.036 . S
Zn224 O252 2.053 . S
Zn224 O254 2.066 . S
O225 Zn224 2.055 . S
O225 C228 1.259 . S
C226 O254 1.256 . S
C226 O255 1.244 . S
Zn227 O229 2.046 . S
Zn227 O231 2.055 1_556 S
Zn227 N233 2.036 . S
Zn227 O251 2.066 . S
Zn227 O255 2.053 . S
C228 O225 1.259 . S
C228 O229 1.254 . S
O229 Zn227 2.046 . S
O229 C228 1.254 . S
C230 O251 1.256 . S
C230 O252 1.244 . S
O231 Zn227 2.055 1_554 S
O231 C253 1.259 . S
O232 Zn224 2.046 1_554 S
O232 C253 1.254 . S
N233 Zn227 2.036 . S
N233 C234 1.298 . S
N233 N236 1.398 . S
C234 N233 1.298 . S
C234 N237 1.367 . S
C234 C247 1.481 1_556 S
C235 N236 1.299 . S
C235 N237 1.379 . S
N236 N233 1.398 . S
N236 C235 1.299 . S
N237 C234 1.367 . S
N237 C235 1.379 . S
C238 N240 1.298 . S
C238 N242 1.367 . S
C238 C246 1.481 . S
C239 N241 1.299 . S
C239 N242 1.379 . S
N240 Zn224 2.036 . S
N240 C238 1.298 . S
N240 N241 1.398 . S
N241 C239 1.299 . S
N241 N240 1.398 . S
N242 C238 1.367 . S
N242 C239 1.379 . S
H243 C246 0.980 . S
H244 C246 0.981 . S
H245 C246 0.981 . S
C246 C238 1.481 . S
C246 H243 0.980 . S
C246 H244 0.981 . S
C246 H245 0.981 . S
C247 C234 1.481 1_554 S
C247 H248 0.980 . S
C247 H249 0.981 . S
C247 H250 0.981 . S
H248 C247 0.980 . S
H249 C247 0.981 . S
H250 C247 0.981 . S
O251 Zn227 2.066 . S
O251 C230 1.256 . S
O252 Zn224 2.053 . S
O252 C230 1.244 . S
C253 O231 1.259 . S
C253 O232 1.254 . S
O254 Zn224 2.066 . S
O254 C226 1.256 . S
O255 C226 1.244 . S
O255 Zn227 2.053 . S
Zn256 O257 2.055 . S
Zn256 O264 2.046 1_556 S
Zn256 N272 2.036 . S
Zn256 O284 2.053 . S
Zn256 O286 2.066 . S
O257 Zn256 2.055 . S
O257 C260 1.259 . S
C258 O286 1.256 . S
C258 O287 1.244 . S
Zn259 O261 2.046 . S
Zn259 O263 2.055 1_556 S
Zn259 N265 2.036 . S
Zn259 O283 2.066 . S
Zn259 O287 2.053 . S
C260 O257 1.259 . S
C260 O261 1.254 . S
O261 Zn259 2.046 . S
O261 C260 1.254 . S
C262 O283 1.256 . S
C262 O284 1.244 . S
O263 Zn259 2.055 1_554 S
O263 C285 1.259 . S
O264 Zn256 2.046 1_554 S
O264 C285 1.254 . S
N265 Zn259 2.036 . S
N265 C266 1.298 1_556 S
N265 N268 1.398 . S
C266 N265 1.298 1_554 S
C266 N269 1.367 1_554 S
C266 C279 1.481 . S
C267 N268 1.299 . S
C267 N269 1.379 . S
N268 N265 1.398 . S
N268 C267 1.299 . S
N269 C266 1.367 1_556 S
N269 C267 1.379 . S
C270 N272 1.298 . S
C270 N274 1.367 . S
C270 C278 1.481 . S
C271 N273 1.299 . S
C271 N274 1.379 . S
N272 Zn256 2.036 . S
N272 C270 1.298 . S
N272 N273 1.398 . S
N273 C271 1.299 . S
N273 N272 1.398 . S
N274 C270 1.367 . S
N274 C271 1.379 . S
H275 C278 0.980 . S
H276 C278 0.981 . S
H277 C278 0.981 . S
C278 C270 1.481 . S
C278 H275 0.980 . S
C278 H276 0.981 . S
C278 H277 0.981 . S
C279 C266 1.481 . S
C279 H280 0.980 . S
C279 H281 0.981 . S
C279 H282 0.981 . S
H280 C279 0.980 . S
H281 C279 0.981 . S
H282 C279 0.981 . S
O283 Zn259 2.066 . S
O283 C262 1.256 . S
O284 Zn256 2.053 . S
O284 C262 1.244 . S
C285 O263 1.259 . S
C285 O264 1.254 . S
O286 Zn256 2.066 . S
O286 C258 1.256 . S
O287 C258 1.244 . S
O287 Zn259 2.053 . S
Zn288 O289 2.055 1_556 S
Zn288 O296 2.046 . S
Zn288 N304 2.036 . S
Zn288 O316 2.053 . S
Zn288 O318 2.066 . S
O289 Zn288 2.055 1_554 S
O289 C292 1.259 . S
C290 O318 1.256 . S
C290 O319 1.244 . S
Zn291 O293 2.046 1_556 S
Zn291 O295 2.055 . S
Zn291 N297 2.036 . S
Zn291 O315 2.066 . S
Zn291 O319 2.053 . S
C292 O289 1.259 . S
C292 O293 1.254 . S
O293 Zn291 2.046 1_554 S
O293 C292 1.254 . S
C294 O315 1.256 . S
C294 O316 1.244 . S
O295 Zn291 2.055 . S
O295 C317 1.259 . S
O296 Zn288 2.046 . S
O296 C317 1.254 . S
N297 Zn291 2.036 . S
N297 C298 1.298 . S
N297 N300 1.398 . S
C298 N297 1.298 . S
C298 N301 1.367 . S
C298 C311 1.481 . S
C299 N300 1.299 . S
C299 N301 1.379 . S
N300 N297 1.398 . S
N300 C299 1.299 . S
N301 C298 1.367 . S
N301 C299 1.379 . S
C302 N304 1.298 . S
C302 N306 1.367 . S
C302 C310 1.481 1_556 S
C303 N305 1.299 . S
C303 N306 1.379 . S
N304 Zn288 2.036 . S
N304 C302 1.298 . S
N304 N305 1.398 . S
N305 C303 1.299 . S
N305 N304 1.398 . S
N306 C302 1.367 . S
N306 C303 1.379 . S
H307 C310 0.980 . S
H308 C310 0.981 . S
H309 C310 0.981 . S
C310 C302 1.481 1_554 S
C310 H307 0.980 . S
C310 H308 0.981 . S
C310 H309 0.981 . S
C311 C298 1.481 . S
C311 H312 0.980 . S
C311 H313 0.981 . S
C311 H314 0.981 . S
H312 C311 0.980 . S
H313 C311 0.981 . S
H314 C311 0.981 . S
O315 Zn291 2.066 . S
O315 C294 1.256 . S
O316 Zn288 2.053 . S
O316 C294 1.244 . S
C317 O295 1.259 . S
C317 O296 1.254 . S
O318 Zn288 2.066 . S
O318 C290 1.256 . S
O319 C290 1.244 . S
O319 Zn291 2.053 . S
Zn320 O321 2.055 1_556 S
Zn320 O328 2.046 . S
Zn320 N336 2.036 . S
Zn320 O348 2.053 . S
Zn320 O350 2.066 . S
O321 Zn320 2.055 1_554 S
O321 C324 1.259 . S
C322 O350 1.256 . S
C322 O351 1.244 . S
Zn323 O325 2.046 1_556 S
Zn323 O327 2.055 . S
Zn323 N329 2.036 . S
Zn323 O347 2.066 . S
Zn323 O351 2.053 . S
C324 O321 1.259 . S
C324 O325 1.254 . S
O325 Zn323 2.046 1_554 S
O325 C324 1.254 . S
C326 O347 1.256 . S
C326 O348 1.244 . S
O327 Zn323 2.055 . S
O327 C349 1.259 . S
O328 Zn320 2.046 . S
O328 C349 1.254 . S
N329 Zn323 2.036 . S
N329 C330 1.298 . S
N329 N332 1.398 . S
C330 N329 1.298 . S
C330 N333 1.367 . S
C330 C343 1.481 . S
C331 N332 1.299 . S
C331 N333 1.379 . S
N332 N329 1.398 . S
N332 C331 1.299 . S
N333 C330 1.367 . S
N333 C331 1.379 . S
C334 N336 1.298 1_554 S
C334 N338 1.367 1_554 S
C334 C342 1.481 . S
C335 N337 1.299 . S
C335 N338 1.379 . S
N336 Zn320 2.036 . S
N336 C334 1.298 1_556 S
N336 N337 1.398 . S
N337 C335 1.299 . S
N337 N336 1.398 . S
N338 C334 1.367 1_556 S
N338 C335 1.379 . S
H339 C342 0.980 . S
H340 C342 0.981 . S
H341 C342 0.981 . S
C342 C334 1.481 . S
C342 H339 0.980 . S
C342 H340 0.981 . S
C342 H341 0.981 . S
C343 C330 1.481 . S
C343 H344 0.980 . S
C343 H345 0.981 . S
C343 H346 0.981 . S
H344 C343 0.980 . S
H345 C343 0.981 . S
H346 C343 0.981 . S
O347 Zn323 2.066 . S
O347 C326 1.256 . S
O348 Zn320 2.053 . S
O348 C326 1.244 . S
C349 O327 1.259 . S
C349 O328 1.254 . S
O350 Zn320 2.066 . S
O350 C322 1.256 . S
O351 C322 1.244 . S
O351 Zn323 2.053 . S
Zn352 O353 2.055 1_556 S
Zn352 O360 2.046 . S
Zn352 N368 2.036 . S
Zn352 O380 2.053 . S
Zn352 O382 2.066 . S
O353 Zn352 2.055 1_554 S
O353 C356 1.259 . S
C354 O382 1.256 . S
C354 O383 1.244 . S
Zn355 O357 2.046 1_556 S
Zn355 O359 2.055 . S
Zn355 N361 2.036 . S
Zn355 O379 2.066 . S
Zn355 O383 2.053 . S
C356 O353 1.259 . S
C356 O357 1.254 . S
O357 Zn355 2.046 1_554 S
O357 C356 1.254 . S
C358 O379 1.256 . S
C358 O380 1.244 . S
O359 Zn355 2.055 . S
O359 C381 1.259 . S
O360 Zn352 2.046 . S
O360 C381 1.254 . S
N361 Zn355 2.036 . S
N361 C362 1.298 . S
N361 N364 1.398 . S
C362 N361 1.298 . S
C362 N365 1.367 . S
C362 C375 1.481 . S
C363 N364 1.299 . S
C363 N365 1.379 . S
N364 N361 1.398 . S
N364 C363 1.299 . S
N365 C362 1.367 . S
N365 C363 1.379 . S
C366 N368 1.298 . S
C366 N370 1.367 . S
C366 C374 1.481 1_556 S
C367 N369 1.299 . S
C367 N370 1.379 . S
N368 Zn352 2.036 . S
N368 C366 1.298 . S
N368 N369 1.398 . S
N369 C367 1.299 . S
N369 N368 1.398 . S
N370 C366 1.367 . S
N370 C367 1.379 . S
H371 C374 0.980 . S
H372 C374 0.981 . S
H373 C374 0.981 . S
C374 C366 1.481 1_554 S
C374 H371 0.980 . S
C374 H372 0.981 . S
C374 H373 0.981 . S
C375 C362 1.481 . S
C375 H376 0.980 . S
C375 H377 0.981 . S
C375 H378 0.981 . S
H376 C375 0.980 . S
H377 C375 0.981 . S
H378 C375 0.981 . S
O379 Zn355 2.066 . S
O379 C358 1.256 . S
O380 Zn352 2.053 . S
O380 C358 1.244 . S
C381 O359 1.259 . S
C381 O360 1.254 . S
O382 Zn352 2.066 . S
O382 C354 1.256 . S
O383 C354 1.244 . S
O383 Zn355 2.053 . S
Zn384 O385 2.055 1_545 S
Zn384 O392 2.046 1_544 S
Zn384 N400 2.036 . S
Zn384 O412 2.053 . S
Zn384 O414 2.066 . S
O385 Zn384 2.055 1_565 S
O385 C388 1.259 . S
C386 O414 1.256 1_565 S
C386 O415 1.244 . S
Zn387 O389 2.046 . S
Zn387 O391 2.055 1_554 S
Zn387 N393 2.036 . S
Zn387 O411 2.066 1_565 S
Zn387 O415 2.053 . S
C388 O385 1.259 . S
C388 O389 1.254 . S
O389 Zn387 2.046 . S
O389 C388 1.254 . S
C390 O411 1.256 . S
C390 O412 1.244 . S
O391 Zn387 2.055 1_556 S
O391 C413 1.259 . S
O392 Zn384 2.046 1_566 S
O392 C413 1.254 . S
N393 Zn387 2.036 . S
N393 C394 1.298 . S
N393 N396 1.398 . S
C394 N393 1.298 . S
C394 N397 1.367 . S
C394 C407 1.481 1_554 S
C395 N396 1.299 . S
C395 N397 1.379 . S
N396 N393 1.398 . S
N396 C395 1.299 . S
N397 C394 1.367 . S
N397 C395 1.379 . S
C398 N400 1.298 . S
C398 N402 1.367 . S
C398 C406 1.481 1_545 S
C399 N401 1.299 . S
C399 N402 1.379 . S
N400 Zn384 2.036 . S
N400 C398 1.298 . S
N400 N401 1.398 . S
N401 C399 1.299 . S
N401 N400 1.398 . S
N402 C398 1.367 . S
N402 C399 1.379 . S
H403 C406 0.980 . S
H404 C406 0.981 . S
H405 C406 0.981 . S
C406 C398 1.481 1_565 S
C406 H403 0.980 . S
C406 H404 0.981 . S
C406 H405 0.981 . S
C407 C394 1.481 1_556 S
C407 H408 0.980 . S
C407 H409 0.981 . S
C407 H410 0.981 1_565 S
H408 C407 0.980 . S
H409 C407 0.981 . S
H410 C407 0.981 1_545 S
O411 Zn387 2.066 1_545 S
O411 C390 1.256 . S
O412 Zn384 2.053 . S
O412 C390 1.244 . S
C413 O391 1.259 . S
C413 O392 1.254 . S
O414 Zn384 2.066 . S
O414 C386 1.256 1_545 S
O415 C386 1.244 . S
O415 Zn387 2.053 . S
Zn416 O417 2.055 . S
Zn416 O424 2.046 . S
Zn416 N432 2.036 . S
Zn416 O444 2.053 . S
Zn416 O446 2.066 . S
O417 Zn416 2.055 . S
O417 C420 1.259 . S
C418 O446 1.256 1_556 S
C418 O447 1.244 1_556 S
Zn419 O421 2.046 . S
Zn419 O423 2.055 . S
Zn419 N425 2.036 . S
Zn419 O443 2.066 . S
Zn419 O447 2.053 . S
C420 O417 1.259 . S
C420 O421 1.254 . S
O421 Zn419 2.046 . S
O421 C420 1.254 . S
C422 O443 1.256 . S
C422 O444 1.244 . S
O423 Zn419 2.055 . S
O423 C445 1.259 . S
O424 Zn416 2.046 . S
O424 C445 1.254 . S
N425 Zn419 2.036 . S
N425 C426 1.298 . S
N425 N428 1.398 . S
C426 N425 1.298 . S
C426 N429 1.367 . S
C426 C439 1.481 . S
C427 N428 1.299 . S
C427 N429 1.379 . S
N428 N425 1.398 . S
N428 C427 1.299 . S
N429 C426 1.367 . S
N429 C427 1.379 . S
C430 N432 1.298 . S
C430 N434 1.367 . S
C430 C438 1.481 . S
C431 N433 1.299 . S
C431 N434 1.379 . S
N432 Zn416 2.036 . S
N432 C430 1.298 . S
N432 N433 1.398 . S
N433 C431 1.299 . S
N433 N432 1.398 . S
N434 C430 1.367 . S
N434 C431 1.379 . S
H435 C438 0.980 . S
H436 C438 0.981 . S
H437 C438 0.981 1_556 S
C438 C430 1.481 . S
C438 H435 0.980 . S
C438 H436 0.981 . S
C438 H437 0.981 1_554 S
C439 C426 1.481 . S
C439 H440 0.980 . S
C439 H441 0.981 . S
C439 H442 0.981 . S
H440 C439 0.980 . S
H441 C439 0.981 . S
H442 C439 0.981 . S
O443 Zn419 2.066 . S
O443 C422 1.256 . S
O444 Zn416 2.053 . S
O444 C422 1.244 . S
C445 O423 1.259 . S
C445 O424 1.254 . S
O446 Zn416 2.066 . S
O446 C418 1.256 1_554 S
O447 C418 1.244 1_554 S
O447 Zn419 2.053 . S
Zn448 O449 2.055 1_554 S
Zn448 O456 2.046 . S
Zn448 N464 2.036 . S
Zn448 O476 2.053 . S
Zn448 O478 2.066 . S
O449 Zn448 2.055 1_556 S
O449 C452 1.259 . S
C450 O478 1.256 . S
C450 O479 1.244 . S
Zn451 O453 2.046 1_554 S
Zn451 O455 2.055 . S
Zn451 N457 2.036 . S
Zn451 O475 2.066 . S
Zn451 O479 2.053 . S
C452 O449 1.259 . S
C452 O453 1.254 . S
O453 Zn451 2.046 1_556 S
O453 C452 1.254 . S
C454 O475 1.256 . S
C454 O476 1.244 . S
O455 Zn451 2.055 . S
O455 C477 1.259 . S
O456 Zn448 2.046 . S
O456 C477 1.254 . S
N457 Zn451 2.036 . S
N457 C458 1.298 . S
N457 N460 1.398 . S
C458 N457 1.298 . S
C458 N461 1.367 . S
C458 C471 1.481 . S
C459 N460 1.299 . S
C459 N461 1.379 . S
N460 N457 1.398 . S
N460 C459 1.299 . S
N461 C458 1.367 . S
N461 C459 1.379 . S
C462 N464 1.298 . S
C462 N466 1.367 . S
C462 C470 1.481 1_554 S
C463 N465 1.299 . S
C463 N466 1.379 . S
N464 Zn448 2.036 . S
N464 C462 1.298 . S
N464 N465 1.398 . S
N465 C463 1.299 . S
N465 N464 1.398 . S
N466 C462 1.367 . S
N466 C463 1.379 . S
H467 C470 0.980 . S
H468 C470 0.981 . S
H469 C470 0.981 . S
C470 C462 1.481 1_556 S
C470 H467 0.980 . S
C470 H468 0.981 . S
C470 H469 0.981 . S
C471 C458 1.481 . S
C471 H472 0.980 . S
C471 H473 0.981 . S
C471 H474 0.981 . S
H472 C471 0.980 . S
H473 C471 0.981 . S
H474 C471 0.981 . S
O475 Zn451 2.066 . S
O475 C454 1.256 . S
O476 Zn448 2.053 . S
O476 C454 1.244 . S
C477 O455 1.259 . S
C477 O456 1.254 . S
O478 Zn448 2.066 . S
O478 C450 1.256 . S
O479 C450 1.244 . S
O479 Zn451 2.053 . S
Zn480 O481 2.055 . S
Zn480 O488 2.046 . S
Zn480 N496 2.036 . S
Zn480 O508 2.053 . S
Zn480 O510 2.066 1_554 S
O481 Zn480 2.055 . S
O481 C484 1.259 . S
C482 O510 1.256 . S
C482 O511 1.244 . S
Zn483 O485 2.046 . S
Zn483 O487 2.055 . S
Zn483 N489 2.036 . S
Zn483 O507 2.066 . S
Zn483 O511 2.053 1_554 S
C484 O481 1.259 . S
C484 O485 1.254 . S
O485 Zn483 2.046 . S
O485 C484 1.254 . S
C486 O507 1.256 . S
C486 O508 1.244 . S
O487 Zn483 2.055 . S
O487 C509 1.259 . S
O488 Zn480 2.046 . S
O488 C509 1.254 . S
N489 Zn483 2.036 . S
N489 C490 1.298 . S
N489 N492 1.398 . S
C490 N489 1.298 . S
C490 N493 1.367 . S
C490 C503 1.481 . S
C491 N492 1.299 . S
C491 N493 1.379 . S
N492 N489 1.398 . S
N492 C491 1.299 . S
N493 C490 1.367 . S
N493 C491 1.379 . S
C494 N496 1.298 . S
C494 N498 1.367 . S
C494 C502 1.481 . S
C495 N497 1.299 . S
C495 N498 1.379 . S
N496 Zn480 2.036 . S
N496 C494 1.298 . S
N496 N497 1.398 . S
N497 C495 1.299 . S
N497 N496 1.398 . S
N498 C494 1.367 . S
N498 C495 1.379 . S
H499 C502 0.980 . S
H500 C502 0.981 . S
H501 C502 0.981 1_556 S
C502 C494 1.481 . S
C502 H499 0.980 . S
C502 H500 0.981 . S
C502 H501 0.981 1_554 S
C503 C490 1.481 . S
C503 H504 0.980 . S
C503 H505 0.981 . S
C503 H506 0.981 . S
H504 C503 0.980 . S
H505 C503 0.981 . S
H506 C503 0.981 . S
O507 Zn483 2.066 . S
O507 C486 1.256 . S
O508 Zn480 2.053 . S
O508 C486 1.244 . S
C509 O487 1.259 . S
C509 O488 1.254 . S
O510 Zn480 2.066 1_556 S
O510 C482 1.256 . S
O511 C482 1.244 . S
O511 Zn483 2.053 1_556 S
Zn512 O513 2.055 . S
Zn512 O520 2.046 1_554 S
Zn512 N528 2.036 . S
Zn512 O540 2.053 1_565 S
Zn512 O542 2.066 . S
O513 Zn512 2.055 . S
O513 C516 1.259 . S
C514 O542 1.256 . S
C514 O543 1.244 . S
Zn515 O517 2.046 . S
Zn515 O519 2.055 1_554 S
Zn515 N521 2.036 . S
Zn515 O539 2.066 . S
Zn515 O543 2.053 . S
C516 O513 1.259 . S
C516 O517 1.254 . S
O517 Zn515 2.046 . S
O517 C516 1.254 . S
C518 O539 1.256 1_545 S
C518 O540 1.244 . S
O519 Zn515 2.055 1_556 S
O519 C541 1.259 . S
O520 Zn512 2.046 1_556 S
O520 C541 1.254 . S
N521 Zn515 2.036 . S
N521 C522 1.298 . S
N521 N524 1.398 . S
C522 N521 1.298 . S
C522 N525 1.367 . S
C522 C535 1.481 1_554 S
C523 N524 1.299 . S
C523 N525 1.379 . S
N524 N521 1.398 . S
N524 C523 1.299 . S
N525 C522 1.367 . S
N525 C523 1.379 . S
C526 N528 1.298 . S
C526 N530 1.367 . S
C526 C534 1.481 . S
C527 N529 1.299 . S
C527 N530 1.379 1_545 S
N528 Zn512 2.036 . S
N528 C526 1.298 . S
N528 N529 1.398 1_565 S
N529 C527 1.299 . S
N529 N528 1.398 1_545 S
N530 C526 1.367 . S
N530 C527 1.379 1_565 S
H531 C534 0.980 . S
H532 C534 0.981 . S
H533 C534 0.981 . S
C534 C526 1.481 . S
C534 H531 0.980 . S
C534 H532 0.981 . S
C534 H533 0.981 . S
C535 C522 1.481 1_556 S
C535 H536 0.980 . S
C535 H537 0.981 . S
C535 H538 0.981 . S
H536 C535 0.980 . S
H537 C535 0.981 . S
H538 C535 0.981 . S
O539 Zn515 2.066 . S
O539 C518 1.256 1_565 S
O540 Zn512 2.053 1_545 S
O540 C518 1.244 . S
C541 O519 1.259 . S
C541 O520 1.254 . S
O542 Zn512 2.066 . S
O542 C514 1.256 . S
O543 C514 1.244 . S
O543 Zn515 2.053 . S
Zn544 O545 2.055 . S
Zn544 O552 2.046 . S
Zn544 N560 2.036 . S
Zn544 O572 2.053 . S
Zn544 O574 2.066 . S
O545 Zn544 2.055 . S
O545 C548 1.259 . S
C546 O574 1.256 . S
C546 O575 1.244 . S
Zn547 O549 2.046 . S
Zn547 O551 2.055 . S
Zn547 N553 2.036 . S
Zn547 O571 2.066 . S
Zn547 O575 2.053 . S
C548 O545 1.259 . S
C548 O549 1.254 . S
O549 Zn547 2.046 . S
O549 C548 1.254 . S
C550 O571 1.256 1_556 S
C550 O572 1.244 1_556 S
O551 Zn547 2.055 . S
O551 C573 1.259 . S
O552 Zn544 2.046 . S
O552 C573 1.254 . S
N553 Zn547 2.036 . S
N553 C554 1.298 . S
N553 N556 1.398 . S
C554 N553 1.298 . S
C554 N557 1.367 . S
C554 C567 1.481 . S
C555 N556 1.299 . S
C555 N557 1.379 . S
N556 N553 1.398 . S
N556 C555 1.299 . S
N557 C554 1.367 . S
N557 C555 1.379 . S
C558 N560 1.298 . S
C558 N562 1.367 . S
C558 C566 1.481 . S
C559 N561 1.299 . S
C559 N562 1.379 . S
N560 Zn544 2.036 . S
N560 C558 1.298 . S
N560 N561 1.398 . S
N561 C559 1.299 . S
N561 N560 1.398 . S
N562 C558 1.367 . S
N562 C559 1.379 . S
H563 C566 0.980 . S
H564 C566 0.981 . S
H565 C566 0.981 . S
C566 C558 1.481 . S
C566 H563 0.980 . S
C566 H564 0.981 . S
C566 H565 0.981 . S
C567 C554 1.481 . S
C567 H568 0.980 . S
C567 H569 0.981 . S
C567 H570 0.981 1_554 S
H568 C567 0.980 . S
H569 C567 0.981 . S
H570 C567 0.981 1_556 S
O571 Zn547 2.066 . S
O571 C550 1.256 1_554 S
O572 Zn544 2.053 . S
O572 C550 1.244 1_554 S
C573 O551 1.259 . S
C573 O552 1.254 . S
O574 Zn544 2.066 . S
O574 C546 1.256 . S
O575 C546 1.244 . S
O575 Zn547 2.053 . S
C576 C577 1.369 . S
C576 C578 1.419 . S
C576 H580 0.930 . S
C577 C576 1.369 . S
C577 C586 1.429 . S
C578 C576 1.419 . S
C578 C579 1.363 . S
C578 H581 0.929 . S
C579 C578 1.363 . S
C579 C585 1.428 . S
H580 C576 0.930 . S
H581 C578 0.929 . S
S582 N583 1.613 . S
S582 N584 1.610 . S
N583 S582 1.613 . S
N583 C586 1.350 . S
N584 S582 1.610 . S
N584 C585 1.351 . S
C585 C579 1.428 . S
C585 N584 1.351 . S
C585 C586 1.434 . S
C586 C577 1.429 . S
C586 N583 1.350 . S
C586 C585 1.434 . S
C587 C588 1.369 . S
C587 C589 1.419 . S
C587 H591 0.930 . S
C588 C587 1.369 . S
C588 C597 1.429 . S
C589 C587 1.419 . S
C589 C590 1.363 . S
C589 H592 0.929 . S
C590 C589 1.363 . S
C590 C596 1.428 . S
H591 C587 0.930 . S
H592 C589 0.929 . S
S593 N594 1.613 . S
S593 N595 1.610 . S
N594 S593 1.613 . S
N594 C597 1.350 . S
N595 S593 1.610 . S
N595 C596 1.351 . S
C596 C590 1.428 . S
C596 N595 1.351 . S
C596 C597 1.434 . S
C597 C588 1.429 . S
C597 N594 1.350 . S
C597 C596 1.434 . S
C598 C599 1.369 . S
C598 C600 1.419 . S
C598 H602 0.930 . S
C599 C598 1.369 . S
C599 C608 1.429 . S
C600 C598 1.419 . S
C600 C601 1.363 . S
C600 H603 0.929 . S
C601 C600 1.363 . S
C601 C607 1.428 . S
H602 C598 0.930 . S
H603 C600 0.929 . S
S604 N605 1.613 . S
S604 N606 1.610 . S
N605 S604 1.613 . S
N605 C608 1.350 . S
N606 S604 1.610 . S
N606 C607 1.351 . S
C607 C601 1.428 . S
C607 N606 1.351 . S
C607 C608 1.434 . S
C608 C599 1.429 . S
C608 N605 1.350 . S
C608 C607 1.434 . S
C609 C610 1.369 . S
C609 C611 1.419 . S
C609 H613 0.930 . S
C610 C609 1.369 . S
C610 C619 1.429 . S
C611 C609 1.419 . S
C611 C612 1.363 . S
C611 H614 0.929 . S
C612 C611 1.363 . S
C612 C618 1.428 . S
H613 C609 0.930 . S
H614 C611 0.929 . S
S615 N616 1.613 . S
S615 N617 1.610 . S
N616 S615 1.613 . S
N616 C619 1.350 . S
N617 S615 1.610 . S
N617 C618 1.351 . S
C618 C612 1.428 . S
C618 N617 1.351 . S
C618 C619 1.434 . S
C619 C610 1.429 . S
C619 N616 1.350 . S
C619 C618 1.434 . S
C620 C621 1.369 . S
C620 C622 1.419 . S
C620 H624 0.930 . S
C621 C620 1.369 . S
C621 C630 1.429 . S
C622 C620 1.419 . S
C622 C623 1.363 . S
C622 H625 0.929 . S
C623 C622 1.363 . S
C623 C629 1.428 . S
H624 C620 0.930 . S
H625 C622 0.929 . S
S626 N627 1.613 . S
S626 N628 1.610 . S
N627 S626 1.613 . S
N627 C630 1.350 . S
N628 S626 1.610 . S
N628 C629 1.351 . S
C629 C623 1.428 . S
C629 N628 1.351 . S
C629 C630 1.434 . S
C630 C621 1.429 . S
C630 N627 1.350 . S
C630 C629 1.434 . S
C631 C632 1.369 . S
C631 C633 1.419 . S
C631 H635 0.930 . S
C632 C631 1.369 . S
C632 C641 1.429 . S
C633 C631 1.419 . S
C633 C634 1.363 . S
C633 H636 0.929 . S
C634 C633 1.363 . S
C634 C640 1.428 . S
H635 C631 0.930 . S
H636 C633 0.929 . S
S637 N638 1.613 . S
S637 N639 1.610 . S
N638 S637 1.613 . S
N638 C641 1.350 . S
N639 S637 1.610 . S
N639 C640 1.351 . S
C640 C634 1.428 . S
C640 N639 1.351 . S
C640 C641 1.434 . S
C641 C632 1.429 . S
C641 N638 1.350 . S
C641 C640 1.434 . S
C642 C643 1.369 . S
C642 C644 1.419 1_455 S
C642 H646 0.930 . S
C643 C642 1.369 . S
C643 C652 1.429 . S
C644 C642 1.419 1_655 S
C644 C645 1.363 . S
C644 H647 0.929 . S
C645 C644 1.363 . S
C645 C651 1.428 . S
H646 C642 0.930 . S
H647 C644 0.929 . S
S648 N649 1.613 . S
S648 N650 1.610 1_455 S
N649 S648 1.613 . S
N649 C652 1.350 . S
N650 S648 1.610 1_655 S
N650 C651 1.351 . S
C651 C645 1.428 . S
C651 N650 1.351 . S
C651 C652 1.434 1_655 S
C652 C643 1.429 . S
C652 N649 1.350 . S
C652 C651 1.434 1_455 S
C653 C654 1.369 . S
C653 C655 1.419 . S
C653 H657 0.930 . S
C654 C653 1.369 . S
C654 C663 1.429 . S
C655 C653 1.419 . S
C655 C656 1.363 . S
C655 H658 0.929 . S
C656 C655 1.363 . S
C656 C662 1.428 . S
H657 C653 0.930 . S
H658 C655 0.929 . S
S659 N660 1.613 . S
S659 N661 1.610 . S
N660 S659 1.613 . S
N660 C663 1.350 . S
N661 S659 1.610 . S
N661 C662 1.351 . S
C662 C656 1.428 . S
C662 N661 1.351 . S
C662 C663 1.434 . S
C663 C654 1.429 . S
C663 N660 1.350 . S
C663 C662 1.434 . S
C664 C665 1.369 . S
C664 C666 1.419 . S
C664 H668 0.930 . S
C665 C664 1.369 . S
C665 C674 1.429 . S
C666 C664 1.419 . S
C666 C667 1.363 . S
C666 H669 0.929 . S
C667 C666 1.363 . S
C667 C673 1.428 . S
H668 C664 0.930 . S
H669 C666 0.929 . S
S670 N671 1.613 . S
S670 N672 1.610 . S
N671 S670 1.613 . S
N671 C674 1.350 . S
N672 S670 1.610 . S
N672 C673 1.351 . S
C673 C667 1.428 . S
C673 N672 1.351 . S
C673 C674 1.434 . S
C674 C665 1.429 . S
C674 N671 1.350 . S
C674 C673 1.434 . S
C675 C676 1.369 1_545 S
C675 C677 1.419 . S
C675 H679 0.930 . S
C676 C675 1.369 1_565 S
C676 C685 1.429 . S
C677 C675 1.419 . S
C677 C678 1.363 . S
C677 H680 0.929 . S
C678 C677 1.363 . S
C678 C684 1.428 1_545 S
H679 C675 0.930 . S
H680 C677 0.929 . S
S681 N682 1.613 . S
S681 N683 1.610 . S
N682 S681 1.613 . S
N682 C685 1.350 . S
N683 S681 1.610 . S
N683 C684 1.351 . S
C684 C678 1.428 1_565 S
C684 N683 1.351 . S
C684 C685 1.434 . S
C685 C676 1.429 . S
C685 N682 1.350 . S
C685 C684 1.434 . S
C686 C687 1.369 . S
C686 C688 1.419 . S
C686 H690 0.930 . S
C687 C686 1.369 . S
C687 C696 1.429 . S
C688 C686 1.419 . S
C688 C689 1.363 . S
C688 H691 0.929 . S
C689 C688 1.363 . S
C689 C695 1.428 . S
H690 C686 0.930 . S
H691 C688 0.929 . S
S692 N693 1.613 . S
S692 N694 1.610 . S
N693 S692 1.613 . S
N693 C696 1.350 . S
N694 S692 1.610 . S
N694 C695 1.351 . S
C695 C689 1.428 . S
C695 N694 1.351 . S
C695 C696 1.434 . S
C696 C687 1.429 . S
C696 N693 1.350 . S
C696 C695 1.434 . S
C697 C698 1.369 . S
C697 C699 1.419 . S
C697 H701 0.930 . S
C698 C697 1.369 . S
C698 C707 1.429 . S
C699 C697 1.419 . S
C699 C700 1.363 . S
C699 H702 0.929 . S
C700 C699 1.363 . S
C700 C706 1.428 . S
H701 C697 0.930 . S
H702 C699 0.929 . S
S703 N704 1.613 . S
S703 N705 1.610 . S
N704 S703 1.613 . S
N704 C707 1.350 . S
N705 S703 1.610 . S
N705 C706 1.351 . S
C706 C700 1.428 . S
C706 N705 1.351 . S
C706 C707 1.434 . S
C707 C698 1.429 . S
C707 N704 1.350 . S
C707 C706 1.434 . S
C708 C709 1.369 . S
C708 C710 1.420 . S
C708 H712 0.930 . S
C709 C708 1.369 . S
C709 C718 1.429 1_554 S
C710 C708 1.420 . S
C710 C711 1.362 1_655 S
C710 H713 0.929 1_655 S
C711 C710 1.362 1_455 S
C711 C717 1.428 1_554 S
H712 C708 0.930 . S
H713 C710 0.929 1_455 S
S714 N715 1.613 1_455 S
S714 N716 1.610 . S
N715 S714 1.613 1_655 S
N715 C718 1.350 . S
N716 S714 1.610 . S
N716 C717 1.351 . S
C717 C711 1.428 1_556 S
C717 N716 1.351 . S
C717 C718 1.434 1_455 S
C718 C709 1.429 1_556 S
C718 N715 1.350 . S
C718 C717 1.434 1_655 S
C719 C720 1.369 . S
C719 C721 1.419 . S
C719 H723 0.930 . S
C720 C719 1.369 . S
C720 C729 1.429 1_556 S
C721 C719 1.419 . S
C721 C722 1.363 1_556 S
C721 H724 0.929 . S
C722 C721 1.363 1_554 S
C722 C728 1.428 . S
H723 C719 0.930 . S
H724 C721 0.929 . S
S725 N726 1.613 . S
S725 N727 1.610 . S
N726 S725 1.613 . S
N726 C729 1.350 . S
N727 S725 1.610 . S
N727 C728 1.351 . S
C728 C722 1.428 . S
C728 N727 1.351 . S
C728 C729 1.434 . S
C729 C720 1.429 1_554 S
C729 N726 1.350 . S
C729 C728 1.434 . S
C730 C731 1.369 . S
C730 C732 1.419 . S
C730 H734 0.930 . S
C731 C730 1.369 . S
C731 C740 1.429 1_556 S
C732 C730 1.419 . S
C732 C733 1.363 1_556 S
C732 H735 0.929 . S
C733 C732 1.363 1_554 S
C733 C739 1.428 . S
H734 C730 0.930 . S
H735 C732 0.929 . S
S736 N737 1.613 . S
S736 N738 1.610 . S
N737 S736 1.613 . S
N737 C740 1.350 . S
N738 S736 1.610 . S
N738 C739 1.351 . S
C739 C733 1.428 . S
C739 N738 1.351 . S
C739 C740 1.434 . S
C740 C731 1.429 1_554 S
C740 N737 1.350 . S
C740 C739 1.434 . S
C741 C742 1.369 . S
C741 C743 1.419 . S
C741 H745 0.930 . S
C742 C741 1.369 . S
C742 C751 1.429 1_556 S
C743 C741 1.419 . S
C743 C744 1.363 1_556 S
C743 H746 0.929 . S
C744 C743 1.363 1_554 S
C744 C750 1.428 . S
H745 C741 0.930 . S
H746 C743 0.929 . S
S747 N748 1.613 . S
S747 N749 1.610 . S
N748 S747 1.613 . S
N748 C751 1.350 . S
N749 S747 1.610 . S
N749 C750 1.351 . S
C750 C744 1.428 . S
C750 N749 1.351 . S
C750 C751 1.434 . S
C751 C742 1.429 1_554 S
C751 N748 1.350 . S
C751 C750 1.434 . S
C752 C753 1.369 1_556 S
C752 C754 1.419 1_455 S
C752 H756 0.930 . S
C753 C752 1.369 1_554 S
C753 C762 1.429 . S
C754 C752 1.419 1_655 S
C754 C755 1.363 1_556 S
C754 H757 0.929 . S
C755 C754 1.363 1_554 S
C755 C761 1.428 1_655 S
H756 C752 0.930 . S
H757 C754 0.929 . S
S758 N759 1.613 . S
S758 N760 1.610 . S
N759 S758 1.613 . S
N759 C762 1.350 . S
N760 S758 1.610 . S
N760 C761 1.351 . S
C761 C755 1.428 1_455 S
C761 N760 1.351 . S
C761 C762 1.434 . S
C762 C753 1.429 . S
C762 N759 1.350 . S
C762 C761 1.434 . S
C763 C764 1.369 1_556 S
C763 C765 1.419 . S
C763 H767 0.930 . S
C764 C763 1.369 1_554 S
C764 C773 1.429 . S
C765 C763 1.419 . S
C765 C766 1.363 . S
C765 H768 0.929 . S
C766 C765 1.363 . S
C766 C772 1.428 1_556 S
H767 C763 0.930 . S
H768 C765 0.929 . S
S769 N770 1.613 . S
S769 N771 1.610 . S
N770 S769 1.613 . S
N770 C773 1.350 . S
N771 S769 1.610 . S
N771 C772 1.351 . S
C772 C766 1.428 1_554 S
C772 N771 1.351 . S
C772 C773 1.434 . S
C773 C764 1.429 . S
C773 N770 1.350 . S
C773 C772 1.434 . S
C774 C775 1.369 . S
C774 C776 1.419 . S
C774 H778 0.930 . S
C775 C774 1.369 . S
C775 C784 1.429 . S
C776 C774 1.419 . S
C776 C777 1.363 . S
C776 H779 0.929 . S
C777 C776 1.363 . S
C777 C783 1.428 . S
H778 C774 0.930 . S
H779 C776 0.929 . S
S780 N781 1.613 . S
S780 N782 1.610 . S
N781 S780 1.613 . S
N781 C784 1.350 . S
N782 S780 1.610 . S
N782 C783 1.351 . S
C783 C777 1.428 . S
C783 N782 1.351 . S
C783 C784 1.434 . S
C784 C775 1.429 . S
C784 N781 1.350 . S
C784 C783 1.434 . S
C785 C786 1.369 . S
C785 C787 1.419 . S
C785 H789 0.930 . S
C786 C785 1.369 . S
C786 C795 1.429 . S
C787 C785 1.419 . S
C787 C788 1.363 1_545 S
C787 H790 0.929 . S
C788 C787 1.363 1_565 S
C788 C794 1.430 . S
H789 C785 0.930 . S
H790 C787 0.929 . S
S791 N792 1.613 1_565 S
S791 N793 1.610 . S
N792 S791 1.613 1_545 S
N792 C795 1.350 . S
N793 S791 1.610 . S
N793 C794 1.352 . S
C794 C788 1.430 . S
C794 N793 1.352 . S
C794 C795 1.432 1_565 S
C795 C786 1.429 . S
C795 N792 1.350 . S
C795 C794 1.432 1_545 S
C796 C797 1.369 . S
C796 C798 1.419 1_565 S
C796 H800 0.930 . S
C797 C796 1.369 . S
C797 C806 1.429 . S
C798 C796 1.419 1_545 S
C798 C799 1.363 . S
C798 H801 0.929 . S
C799 C798 1.363 . S
C799 C805 1.428 . S
H800 C796 0.930 . S
H801 C798 0.929 . S
S802 N803 1.613 . S
S802 N804 1.610 1_565 S
N803 S802 1.613 . S
N803 C806 1.350 . S
N804 S802 1.610 1_545 S
N804 C805 1.351 . S
C805 C799 1.428 . S
C805 N804 1.351 . S
C805 C806 1.434 1_545 S
C806 C797 1.429 . S
C806 N803 1.350 . S
C806 C805 1.434 1_565 S
C807 C808 1.369 . S
C807 C809 1.419 . S
C807 H811 0.930 . S
C808 C807 1.369 . S
C808 C817 1.429 . S
C809 C807 1.419 . S
C809 C810 1.363 . S
C809 H812 0.929 . S
C810 C809 1.363 . S
C810 C816 1.428 . S
H811 C807 0.930 . S
H812 C809 0.929 . S
S813 N814 1.613 . S
S813 N815 1.610 . S
N814 S813 1.613 . S
N814 C817 1.350 . S
N815 S813 1.610 . S
N815 C816 1.351 . S
C816 C810 1.428 . S
C816 N815 1.351 . S
C816 C817 1.434 . S
C817 C808 1.429 . S
C817 N814 1.350 . S
C817 C816 1.434 . S
C818 C819 1.369 . S
C818 C820 1.419 . S
C818 H822 0.930 . S
C819 C818 1.369 . S
C819 C828 1.429 . S
C820 C818 1.419 . S
C820 C821 1.363 1_655 S
C820 H823 0.929 1_655 S
C821 C820 1.363 1_455 S
C821 C827 1.428 1_455 S
H822 C818 0.930 . S
H823 C820 0.929 1_455 S
S824 N825 1.613 . S
S824 N826 1.610 1_655 S
N825 S824 1.613 . S
N825 C828 1.350 . S
N826 S824 1.610 1_455 S
N826 C827 1.351 1_455 S
C827 C821 1.428 1_655 S
C827 N826 1.351 1_655 S
C827 C828 1.434 . S
C828 C819 1.429 . S
C828 N825 1.350 . S
C828 C827 1.434 . S
C829 C830 1.369 . S
C829 C831 1.419 . S
C829 H833 0.930 1_655 S
C830 C829 1.369 . S
C830 C839 1.429 . S
C831 C829 1.419 . S
C831 C832 1.363 . S
C831 H834 0.929 . S
C832 C831 1.363 . S
C832 C838 1.428 . S
H833 C829 0.930 1_455 S
H834 C831 0.929 . S
S835 N836 1.613 . S
S835 N837 1.610 . S
N836 S835 1.613 . S
N836 C839 1.350 . S
N837 S835 1.610 . S
N837 C838 1.351 . S
C838 C832 1.428 . S
C838 N837 1.351 . S
C838 C839 1.434 . S
C839 C830 1.429 . S
C839 N836 1.350 . S
C839 C838 1.434 . S
C840 C841 1.369 . S
C840 C842 1.419 . S
C840 H844 0.930 . S
C841 C840 1.369 . S
C841 C850 1.429 . S
C842 C840 1.419 . S
C842 C843 1.363 . S
C842 H845 0.929 . S
C843 C842 1.363 . S
C843 C849 1.428 . S
H844 C840 0.930 . S
H845 C842 0.929 . S
S846 N847 1.613 . S
S846 N848 1.610 . S
N847 S846 1.613 . S
N847 C850 1.350 . S
N848 S846 1.610 . S
N848 C849 1.351 . S
C849 C843 1.428 . S
C849 N848 1.351 . S
C849 C850 1.434 . S
C850 C841 1.429 . S
C850 N847 1.350 . S
C850 C849 1.434 . S
C851 C852 1.369 . S
C851 C853 1.419 . S
C851 H855 0.930 . S
C852 C851 1.369 . S
C852 C861 1.429 . S
C853 C851 1.419 . S
C853 C854 1.363 . S
C853 H856 0.929 . S
C854 C853 1.363 . S
C854 C860 1.428 . S
H855 C851 0.930 . S
H856 C853 0.929 . S
S857 N858 1.613 . S
S857 N859 1.610 . S
N858 S857 1.613 . S
N858 C861 1.350 . S
N859 S857 1.610 . S
N859 C860 1.351 . S
C860 C854 1.428 . S
C860 N859 1.351 . S
C860 C861 1.434 . S
C861 C852 1.429 . S
C861 N858 1.350 . S
C861 C860 1.434 . S
C862 C863 1.369 . S
C862 C864 1.419 . S
C862 H866 0.930 . S
C863 C862 1.369 . S
C863 C872 1.429 . S
C864 C862 1.419 . S
C864 C865 1.363 . S
C864 H867 0.929 . S
C865 C864 1.363 . S
C865 C871 1.428 . S
H866 C862 0.930 . S
H867 C864 0.929 . S
S868 N869 1.613 . S
S868 N870 1.610 . S
N869 S868 1.613 . S
N869 C872 1.350 . S
N870 S868 1.610 . S
N870 C871 1.351 . S
C871 C865 1.428 . S
C871 N870 1.351 . S
C871 C872 1.434 . S
C872 C863 1.429 . S
C872 N869 1.350 . S
C872 C871 1.434 . S
C873 C874 1.369 . S
C873 C875 1.419 . S
C873 H877 0.930 . S
C874 C873 1.369 . S
C874 C883 1.429 1_554 S
C875 C873 1.419 . S
C875 C876 1.363 . S
C875 H878 0.929 . S
C876 C875 1.363 . S
C876 C882 1.428 1_554 S
H877 C873 0.930 . S
H878 C875 0.929 . S
S879 N880 1.613 . S
S879 N881 1.610 . S
N880 S879 1.613 . S
N880 C883 1.350 . S
N881 S879 1.610 . S
N881 C882 1.351 . S
C882 C876 1.428 1_556 S
C882 N881 1.351 . S
C882 C883 1.434 . S
C883 C874 1.429 1_556 S
C883 N880 1.350 . S
C883 C882 1.434 . S
C884 C885 1.369 1_554 S
C884 C886 1.419 . S
C884 H888 0.930 . S
C885 C884 1.369 1_556 S
C885 C894 1.429 . S
C886 C884 1.419 . S
C886 C887 1.363 1_554 S
C886 H889 0.929 . S
C887 C886 1.363 1_556 S
C887 C893 1.428 . S
H888 C884 0.930 . S
H889 C886 0.929 . S
S890 N891 1.613 . S
S890 N892 1.610 . S
N891 S890 1.613 . S
N891 C894 1.350 . S
N892 S890 1.610 . S
N892 C893 1.351 . S
C893 C887 1.428 . S
C893 N892 1.351 . S
C893 C894 1.434 . S
C894 C885 1.429 . S
C894 N891 1.350 . S
C894 C893 1.434 . S
C895 C896 1.369 . S
C895 C897 1.419 . S
C895 H899 0.930 . S
C896 C895 1.369 . S
C896 C905 1.429 1_556 S
C897 C895 1.419 . S
C897 C898 1.363 . S
C897 H900 0.929 . S
C898 C897 1.363 . S
C898 C904 1.428 1_556 S
H899 C895 0.930 . S
H900 C897 0.929 . S
S901 N902 1.613 . S
S901 N903 1.610 . S
N902 S901 1.613 . S
N902 C905 1.350 . S
N903 S901 1.610 . S
N903 C904 1.351 . S
C904 C898 1.428 1_554 S
C904 N903 1.351 . S
C904 C905 1.434 . S
C905 C896 1.429 1_554 S
C905 N902 1.350 . S
C905 C904 1.434 . S
C906 C907 1.369 . S
C906 C908 1.419 . S
C906 H910 0.930 . S
C907 C906 1.369 . S
C907 C916 1.429 . S
C908 C906 1.419 . S
C908 C909 1.363 . S
C908 H911 0.929 . S
C909 C908 1.363 . S
C909 C915 1.428 . S
H910 C906 0.930 . S
H911 C908 0.929 . S
S912 N913 1.613 . S
S912 N914 1.610 . S
N913 S912 1.613 . S
N913 C916 1.350 1_545 S
N914 S912 1.610 . S
N914 C915 1.351 1_545 S
C915 C909 1.428 . S
C915 N914 1.351 1_565 S
C915 C916 1.434 . S
C916 C907 1.429 . S
C916 N913 1.350 1_565 S
C916 C915 1.434 . S
C917 C918 1.369 . S
C917 C919 1.419 . S
C917 H921 0.930 1_554 S
C918 C917 1.369 . S
C918 C927 1.429 . S
C919 C917 1.419 . S
C919 C920 1.363 . S
C919 H922 0.929 1_554 S
C920 C919 1.363 . S
C920 C926 1.428 . S
H921 C917 0.930 1_556 S
H922 C919 0.929 1_556 S
S923 N924 1.613 . S
S923 N925 1.610 . S
N924 S923 1.613 . S
N924 C927 1.350 . S
N925 S923 1.610 . S
N925 C926 1.351 . S
C926 C920 1.428 . S
C926 N925 1.351 . S
C926 C927 1.434 . S
C927 C918 1.429 . S
C927 N924 1.350 . S
C927 C926 1.434 . S
C928 C929 1.369 . S
C928 C930 1.419 . S
C928 H932 0.930 . S
C929 C928 1.369 . S
C929 C938 1.429 . S
C930 C928 1.419 . S
C930 C931 1.363 . S
C930 H933 0.929 . S
C931 C930 1.363 . S
C931 C937 1.428 . S
H932 C928 0.930 . S
H933 C930 0.929 . S
S934 N935 1.613 . S
S934 N936 1.610 . S
N935 S934 1.613 . S
N935 C938 1.350 . S
N936 S934 1.610 . S
N936 C937 1.351 . S
C937 C931 1.428 . S
C937 N936 1.351 . S
C937 C938 1.434 . S
C938 C929 1.429 . S
C938 N935 1.350 . S
C938 C937 1.434 . S
C939 C940 1.369 . S
C939 C941 1.419 . S
C939 H943 0.930 . S
C940 C939 1.369 . S
C940 C949 1.429 . S
C941 C939 1.419 . S
C941 C942 1.363 . S
C941 H944 0.929 . S
C942 C941 1.363 . S
C942 C948 1.428 . S
H943 C939 0.930 . S
H944 C941 0.929 . S
S945 N946 1.613 . S
S945 N947 1.610 . S
N946 S945 1.613 . S
N946 C949 1.350 . S
N947 S945 1.610 . S
N947 C948 1.351 . S
C948 C942 1.428 . S
C948 N947 1.351 . S
C948 C949 1.434 . S
C949 C940 1.429 . S
C949 N946 1.350 . S
C949 C948 1.434 . S
C950 C951 1.369 . S
C950 C952 1.419 . S
C950 H954 0.930 . S
C951 C950 1.369 . S
C951 C960 1.429 . S
C952 C950 1.419 . S
C952 C953 1.363 . S
C952 H955 0.929 . S
C953 C952 1.363 . S
C953 C959 1.428 . S
H954 C950 0.930 . S
H955 C952 0.929 . S
S956 N957 1.613 . S
S956 N958 1.610 . S
N957 S956 1.613 . S
N957 C960 1.350 1_556 S
N958 S956 1.610 . S
N958 C959 1.351 1_556 S
C959 C953 1.428 . S
C959 N958 1.351 1_554 S
C959 C960 1.434 . S
C960 C951 1.429 . S
C960 N957 1.350 1_554 S
C960 C959 1.434 . S
C961 C962 1.369 . S
C961 C963 1.419 . S
C961 H965 0.930 . S
C962 C961 1.369 . S
C962 C971 1.429 . S
C963 C961 1.419 . S
C963 C964 1.363 . S
C963 H966 0.929 . S
C964 C963 1.363 . S
C964 C970 1.428 . S
H965 C961 0.930 . S
H966 C963 0.929 . S
S967 N968 1.613 . S
S967 N969 1.610 . S
N968 S967 1.613 . S
N968 C971 1.350 . S
N969 S967 1.610 . S
N969 C970 1.351 . S
C970 C964 1.428 . S
C970 N969 1.351 . S
C970 C971 1.434 . S
C971 C962 1.429 . S
C971 N968 1.350 . S
C971 C970 1.434 . S
C972 C973 1.369 1_556 S
C972 C974 1.419 . S
C972 H976 0.930 1_556 S
C973 C972 1.369 1_554 S
C973 C982 1.429 1_554 S
C974 C972 1.419 . S
C974 C975 1.363 . S
C974 H977 0.929 . S
C975 C974 1.363 . S
C975 C981 1.428 . S
H976 C972 0.930 1_554 S
H977 C974 0.929 . S
S978 N979 1.613 1_556 S
S978 N980 1.610 . S
N979 S978 1.613 1_554 S
N979 C982 1.350 1_554 S
N980 S978 1.610 . S
N980 C981 1.351 . S
C981 C975 1.428 . S
C981 N980 1.351 . S
C981 C982 1.434 . S
C982 C973 1.429 1_556 S
C982 N979 1.350 1_556 S
C982 C981 1.434 . S
C983 C984 1.369 . S
C983 C985 1.419 1_554 S
C983 H987 0.930 . S
C984 C983 1.369 . S
C984 C993 1.429 . S
C985 C983 1.419 1_556 S
C985 C986 1.363 . S
C985 H988 0.929 . S
C986 C985 1.363 . S
C986 C992 1.428 . S
H987 C983 0.930 . S
H988 C985 0.929 . S
S989 N990 1.613 . S
S989 N991 1.610 1_554 S
N990 S989 1.613 . S
N990 C993 1.350 . S
N991 S989 1.610 1_556 S
N991 C992 1.351 . S
C992 C986 1.428 . S
C992 N991 1.351 . S
C992 C993 1.434 1_556 S
C993 C984 1.429 . S
C993 N990 1.350 . S
C993 C992 1.434 1_554 S
C994 C995 1.369 1_556 S
C994 C996 1.419 . S
C994 H998 0.930 1_556 S
C995 C994 1.369 1_554 S
C995 C1004 1.429 1_554 S
C996 C994 1.419 . S
C996 C997 1.363 . S
C996 H999 0.929 . S
C997 C996 1.363 . S
C997 C1003 1.428 . S
H998 C994 0.930 1_554 S
H999 C996 0.929 . S
S1000 N1001 1.613 . S
S1000 N1002 1.610 . S
N1001 S1000 1.613 . S
N1001 C1004 1.350 . S
N1002 S1000 1.610 . S
N1002 C1003 1.351 . S
C1003 C997 1.428 . S
C1003 N1002 1.351 . S
C1003 C1004 1.434 . S
C1004 C995 1.429 1_556 S
C1004 N1001 1.350 . S
C1004 C1003 1.434 . S
C1005 C1006 1.369 . S
C1005 C1007 1.419 1_556 S
C1005 H1009 0.930 . S
C1006 C1005 1.369 . S
C1006 C1015 1.429 . S
C1007 C1005 1.419 1_554 S
C1007 C1008 1.363 . S
C1007 H1010 0.929 . S
C1008 C1007 1.363 . S
C1008 C1014 1.428 . S
H1009 C1005 0.930 . S
H1010 C1007 0.929 . S
S1011 N1012 1.613 1_554 S
S1011 N1013 1.610 . S
N1012 S1011 1.613 1_556 S
N1012 C1015 1.350 . S
N1013 S1011 1.610 . S
N1013 C1014 1.351 . S
C1014 C1008 1.428 . S
C1014 N1013 1.351 . S
C1014 C1015 1.434 1_554 S
C1015 C1006 1.429 . S
C1015 N1012 1.350 . S
C1015 C1014 1.434 1_556 S
C1016 C1017 1.369 1_556 S
C1016 C1018 1.419 . S
C1016 H1020 0.930 . S
C1017 C1016 1.369 1_554 S
C1017 C1026 1.429 1_554 S
C1018 C1016 1.419 . S
C1018 C1019 1.363 . S
C1018 H1021 0.929 . S
C1019 C1018 1.363 . S
C1019 C1025 1.428 . S
H1020 C1016 0.930 . S
H1021 C1018 0.929 . S
S1022 N1023 1.613 1_556 S
S1022 N1024 1.610 . S
N1023 S1022 1.613 1_554 S
N1023 C1026 1.350 1_554 S
N1024 S1022 1.610 . S
N1024 C1025 1.351 . S
C1025 C1019 1.428 . S
C1025 N1024 1.351 . S
C1025 C1026 1.434 . S
C1026 C1017 1.429 1_556 S
C1026 N1023 1.350 1_556 S
C1026 C1025 1.434 . S
C1027 C1028 1.369 . S
C1027 C1029 1.419 1_554 S
C1027 H1031 0.930 . S
C1028 C1027 1.369 . S
C1028 C1037 1.429 . S
C1029 C1027 1.419 1_556 S
C1029 C1030 1.363 . S
C1029 H1032 0.929 . S
C1030 C1029 1.363 . S
C1030 C1036 1.428 . S
H1031 C1027 0.930 . S
H1032 C1029 0.929 . S
S1033 N1034 1.613 1_556 S
S1033 N1035 1.610 . S
N1034 S1033 1.613 1_554 S
N1034 C1037 1.350 . S
N1035 S1033 1.610 . S
N1035 C1036 1.351 . S
C1036 C1030 1.428 . S
C1036 N1035 1.351 . S
C1036 C1037 1.434 1_556 S
C1037 C1028 1.429 . S
C1037 N1034 1.350 . S
C1037 C1036 1.434 1_554 S
C1038 C1039 1.369 . S
C1038 C1040 1.419 . S
C1038 H1042 0.930 . S
C1039 C1038 1.369 . S
C1039 C1048 1.429 . S
C1040 C1038 1.419 . S
C1040 C1041 1.363 . S
C1040 H1043 0.929 . S
C1041 C1040 1.363 . S
C1041 C1047 1.428 . S
H1042 C1038 0.930 . S
H1043 C1040 0.929 . S
S1044 N1045 1.613 . S
S1044 N1046 1.610 . S
N1045 S1044 1.613 . S
N1045 C1048 1.350 . S
N1046 S1044 1.610 . S
N1046 C1047 1.351 . S
C1047 C1041 1.428 . S
C1047 N1046 1.351 . S
C1047 C1048 1.434 . S
C1048 C1039 1.429 . S
C1048 N1045 1.350 . S
C1048 C1047 1.434 . S
C1049 C1050 1.369 . S
C1049 C1051 1.419 . S
C1049 H1053 0.930 . S
C1050 C1049 1.369 . S
C1050 C1059 1.429 . S
C1051 C1049 1.419 . S
C1051 C1052 1.363 . S
C1051 H1054 0.929 . S
C1052 C1051 1.363 . S
C1052 C1058 1.428 . S
H1053 C1049 0.930 . S
H1054 C1051 0.929 . S
S1055 N1056 1.613 . S
S1055 N1057 1.610 . S
N1056 S1055 1.613 . S
N1056 C1059 1.350 . S
N1057 S1055 1.610 . S
N1057 C1058 1.351 . S
C1058 C1052 1.428 . S
C1058 N1057 1.351 . S
C1058 C1059 1.434 . S
C1059 C1050 1.429 . S
C1059 N1056 1.350 . S
C1059 C1058 1.434 . S
C1060 C1061 1.369 . S
C1060 C1062 1.419 . S
C1060 H1064 0.930 . S
C1061 C1060 1.369 . S
C1061 C1070 1.429 . S
C1062 C1060 1.419 . S
C1062 C1063 1.363 . S
C1062 H1065 0.929 . S
C1063 C1062 1.363 . S
C1063 C1069 1.428 . S
H1064 C1060 0.930 . S
H1065 C1062 0.929 . S
S1066 N1067 1.613 . S
S1066 N1068 1.610 . S
N1067 S1066 1.613 . S
N1067 C1070 1.350 . S
N1068 S1066 1.610 . S
N1068 C1069 1.351 . S
C1069 C1063 1.428 . S
C1069 N1068 1.351 . S
C1069 C1070 1.434 . S
C1070 C1061 1.429 . S
C1070 N1067 1.350 . S
C1070 C1069 1.434 . S
C1071 C1072 1.369 . S
C1071 C1073 1.419 . S
C1071 H1075 0.930 . S
C1072 C1071 1.369 . S
C1072 C1081 1.429 . S
C1073 C1071 1.419 . S
C1073 C1074 1.363 . S
C1073 H1076 0.929 . S
C1074 C1073 1.363 . S
C1074 C1080 1.428 . S
H1075 C1071 0.930 . S
H1076 C1073 0.929 . S
S1077 N1078 1.613 . S
S1077 N1079 1.610 . S
N1078 S1077 1.613 . S
N1078 C1081 1.350 . S
N1079 S1077 1.610 . S
N1079 C1080 1.351 . S
C1080 C1074 1.428 . S
C1080 N1079 1.351 . S
C1080 C1081 1.434 . S
C1081 C1072 1.429 . S
C1081 N1078 1.350 . S
C1081 C1080 1.434 . S
C1082 C1083 1.369 . S
C1082 C1084 1.419 . S
C1082 H1086 0.930 . S
C1083 C1082 1.369 . S
C1083 C1092 1.429 . S
C1084 C1082 1.419 . S
C1084 C1085 1.363 . S
C1084 H1087 0.929 . S
C1085 C1084 1.363 . S
C1085 C1091 1.428 . S
H1086 C1082 0.930 . S
H1087 C1084 0.929 . S
S1088 N1089 1.613 . S
S1088 N1090 1.610 . S
N1089 S1088 1.613 . S
N1089 C1092 1.350 . S
N1090 S1088 1.610 . S
N1090 C1091 1.351 . S
C1091 C1085 1.428 . S
C1091 N1090 1.351 . S
C1091 C1092 1.434 . S
C1092 C1083 1.429 . S
C1092 N1089 1.350 . S
C1092 C1091 1.434 . S
C1093 C1094 1.369 . S
C1093 C1095 1.419 . S
C1093 H1097 0.930 . S
C1094 C1093 1.369 . S
C1094 C1103 1.429 . S
C1095 C1093 1.419 . S
C1095 C1096 1.363 . S
C1095 H1098 0.929 . S
C1096 C1095 1.363 . S
C1096 C1102 1.428 . S
H1097 C1093 0.930 . S
H1098 C1095 0.929 . S
S1099 N1100 1.613 . S
S1099 N1101 1.610 . S
N1100 S1099 1.613 . S
N1100 C1103 1.350 . S
N1101 S1099 1.610 . S
N1101 C1102 1.351 . S
C1102 C1096 1.428 . S
C1102 N1101 1.351 . S
C1102 C1103 1.434 . S
C1103 C1094 1.429 . S
C1103 N1100 1.350 . S
C1103 C1102 1.434 . S
C1104 C1105 1.369 . S
C1104 C1106 1.419 . S
C1104 H1108 0.920 . S
C1105 C1104 1.369 . S
C1105 C1114 1.429 . S
C1106 C1104 1.419 . S
C1106 C1107 1.363 . S
C1106 H1109 0.929 1_565 S
C1107 C1106 1.363 . S
C1107 C1113 1.428 . S
H1108 C1104 0.920 . S
H1109 C1106 0.929 1_545 S
S1110 N1111 1.613 . S
S1110 N1112 1.610 . S
N1111 S1110 1.613 . S
N1111 C1114 1.350 . S
N1112 S1110 1.610 . S
N1112 C1113 1.351 . S
C1113 C1107 1.428 . S
C1113 N1112 1.351 . S
C1113 C1114 1.434 . S
C1114 C1105 1.429 . S
C1114 N1111 1.350 . S
C1114 C1113 1.434 . S
C1115 C1116 1.369 . S
C1115 C1117 1.419 . S
C1115 H1119 0.930 . S
C1116 C1115 1.369 . S
C1116 C1125 1.429 . S
C1117 C1115 1.419 . S
C1117 C1118 1.363 . S
C1117 H1120 0.929 . S
C1118 C1117 1.363 . S
C1118 C1124 1.428 . S
H1119 C1115 0.930 . S
H1120 C1117 0.929 . S
S1121 N1122 1.613 . S
S1121 N1123 1.610 . S
N1122 S1121 1.613 . S
N1122 C1125 1.350 . S
N1123 S1121 1.610 . S
N1123 C1124 1.351 . S
C1124 C1118 1.428 . S
C1124 N1123 1.351 . S
C1124 C1125 1.434 . S
C1125 C1116 1.429 . S
C1125 N1122 1.350 . S
C1125 C1124 1.434 . S
C1126 C1127 1.369 . S
C1126 C1128 1.419 . S
C1126 H1130 0.930 . S
C1127 C1126 1.369 . S
C1127 C1136 1.429 . S
C1128 C1126 1.419 . S
C1128 C1129 1.363 . S
C1128 H1131 0.929 . S
C1129 C1128 1.363 . S
C1129 C1135 1.428 . S
H1130 C1126 0.930 . S
H1131 C1128 0.929 . S
S1132 N1133 1.613 . S
S1132 N1134 1.610 . S
N1133 S1132 1.613 . S
N1133 C1136 1.350 . S
N1134 S1132 1.610 . S
N1134 C1135 1.351 . S
C1135 C1129 1.428 . S
C1135 N1134 1.351 . S
C1135 C1136 1.434 . S
C1136 C1127 1.429 . S
C1136 N1133 1.350 . S
C1136 C1135 1.434 . S
C1137 C1138 1.369 . S
C1137 C1139 1.419 . S
C1137 H1141 0.930 . S
C1138 C1137 1.369 . S
C1138 C1147 1.429 . S
C1139 C1137 1.419 . S
C1139 C1140 1.363 . S
C1139 H1142 0.929 . S
C1140 C1139 1.363 . S
C1140 C1146 1.428 . S
H1141 C1137 0.930 . S
H1142 C1139 0.929 . S
S1143 N1144 1.613 . S
S1143 N1145 1.610 . S
N1144 S1143 1.613 . S
N1144 C1147 1.350 . S
N1145 S1143 1.610 . S
N1145 C1146 1.351 . S
C1146 C1140 1.428 . S
C1146 N1145 1.351 . S
C1146 C1147 1.434 . S
C1147 C1138 1.429 . S
C1147 N1144 1.350 . S
C1147 C1146 1.434 . S
C1148 C1149 1.369 . S
C1148 C1150 1.419 . S
C1148 H1152 0.930 . S
C1149 C1148 1.369 . S
C1149 C1158 1.429 . S
C1150 C1148 1.419 . S
C1150 C1151 1.363 . S
C1150 H1153 0.929 . S
C1151 C1150 1.363 . S
C1151 C1157 1.428 . S
H1152 C1148 0.930 . S
H1153 C1150 0.929 . S
S1154 N1155 1.595 1_545 S
S1154 N1156 1.590 1_545 S
N1155 S1154 1.595 1_565 S
N1155 C1158 1.350 . S
N1156 S1154 1.590 1_565 S
N1156 C1157 1.351 . S
C1157 C1151 1.428 . S
C1157 N1156 1.351 . S
C1157 C1158 1.434 . S
C1158 C1149 1.429 . S
C1158 N1155 1.350 . S
C1158 C1157 1.434 . S
C1159 C1160 1.369 . S
C1159 C1161 1.419 . S
C1159 H1163 0.930 . S
C1160 C1159 1.369 . S
C1160 C1169 1.429 . S
C1161 C1159 1.419 . S
C1161 C1162 1.363 . S
C1161 H1164 0.929 . S
C1162 C1161 1.363 . S
C1162 C1168 1.428 . S
H1163 C1159 0.930 . S
H1164 C1161 0.929 . S
S1165 N1166 1.613 . S
S1165 N1167 1.610 . S
N1166 S1165 1.613 . S
N1166 C1169 1.350 . S
N1167 S1165 1.610 . S
N1167 C1168 1.351 . S
C1168 C1162 1.428 . S
C1168 N1167 1.351 . S
C1168 C1169 1.434 . S
C1169 C1160 1.429 . S
C1169 N1166 1.350 . S
C1169 C1168 1.434 . S
C577 C422 2.156 . S
C579 C6 2.133 . S
C588 N50 1.258 . S
C590 N461 1.331 . S
C599 C70 1.602 . S
C601 N402 1.570 . S
C610 N82 1.186 . S
C612 N242 1.251 . S
C621 N274 1.054 . S
C623 N18 1.183 . S
C632 C38 1.360 . S
C634 N205 1.323 . S
C643 C102 1.592 . S
C645 N333 1.406 . S
C654 N146 1.267 . S
C656 N365 1.185 . S
C665 N301 1.615 . S
C667 C166 1.625 . S
C676 N530 1.291 . S
C678 N178 1.258 . S
C687 N114 1.501 . S
C689 C546 1.592 . S
C698 C486 2.181 . S
C700 C134 2.173 . S
C709 C262 2.084 1_554 S
C711 N434 1.980 . S
C720 C194 2.911 . S
C722 C450 2.840 . S
C731 C230 2.361 . S
C733 C390 2.395 . S
C742 C290 2.498 . S
C744 C518 2.456 . S
C753 N557 2.114 . S
C755 C322 2.345 1_554 S
C764 N498 1.709 . S
C766 C354 1.753 . S
C775 N13 1.186 . S
C777 N141 1.213 . S
C786 C164 0.602 . S
C788 C36 0.598 . S
C797 C100 1.169 . S
C799 N77 1.131 . S
C808 C132 1.126 . S
C810 C68 1.116 . S
C819 N173 1.199 . S
C821 C4 1.244 . S
C830 N109 1.269 1_655 S
C832 N45 1.276 . S
C841 C349 2.099 . S
C843 C221 2.091 . S
C852 C381 1.461 . S
C854 C228 1.463 . S
C863 C317 1.829 . S
C865 C260 1.824 . S
C874 N338 1.336 1_554 S
C876 N269 1.348 1_554 S
C885 N370 1.472 . S
C887 N210 1.402 . S
C896 N306 1.468 . S
C898 N237 1.481 . S
C907 N525 1.660 . S
C909 N397 1.653 . S
C918 C573 2.162 . S
C920 C420 2.163 . S
C929 N466 1.813 . S
C931 C484 1.855 . S
C940 C477 1.814 . S
C942 C516 1.825 . S
C951 C388 2.102 . S
C953 N562 2.066 . S
C962 N493 2.020 . S
C964 N429 2.046 . S
C973 C29 1.466 . S
C975 C2 1.469 . S
C984 C34 1.470 . S
C986 C61 1.472 . S
C995 C93 1.472 . S
C997 C66 1.473 . S
C1006 C125 1.465 . S
C1008 C98 1.466 . S
C1017 C157 1.467 . S
C1019 C130 1.474 . S
C1028 C162 1.474 . S
C1030 C189 1.472 . S
C1039 C196 1.463 . S
C1041 C198 1.467 . S
C1050 C226 1.474 . S
C1052 C253 1.471 . S
C1061 C285 1.480 . S
C1063 C258 1.477 . S
C1072 C292 1.462 . S
C1074 C294 1.474 . S
C1083 C324 1.463 . S
C1085 C326 1.466 . S
C1094 C356 1.481 . S
C1096 C358 1.483 . S
C1105 C386 1.466 . S
C1107 C413 1.460 . S
C1116 C418 1.467 . S
C1118 C445 1.459 . S
C1127 C452 1.469 . S
C1129 C454 1.472 . S
C1138 C482 1.468 . S
C1140 C509 1.459 . S
C1149 C541 1.466 . S
C1151 C514 1.471 . S
C1160 C548 1.465 . S
C1162 C550 1.467 . S
