# Generated by pormake.
# Topology fni, (5)-cn, num edge types: 1
# Building blocks:
#     Node 0, Type 0, BuildingBlock: XOMCOT_clean_sbu_0, # of connection points: 5
#     Node 1, Type 0, BuildingBlock: XOMCOT_clean_sbu_0, # of connection points: 5
#     Node 2, Type 0, BuildingBlock: XOMCOT_clean_sbu_0, # of connection points: 5
#     Node 3, Type 0, BuildingBlock: XOMCOT_clean_sbu_0, # of connection points: 5
#     Node 4, Type 0, BuildingBlock: XOMCOT_clean_sbu_0, # of connection points: 5
#     Node 5, Type 0, BuildingBlock: XOMCOT_clean_sbu_0, # of connection points: 5
#     Node 6, Type 0, BuildingBlock: XOMCOT_clean_sbu_0, # of connection points: 5
#     Node 7, Type 0, BuildingBlock: XOMCOT_clean_sbu_0, # of connection points: 5
#     Edge 8, Type (0, 0), BuildingBlock: EZIPEK_clean_linker_0, # of connection points: 2
#     Edge 9, Type (0, 0), BuildingBlock: EZIPEK_clean_linker_0, # of connection points: 2
#     Edge 10, Type (0, 0), BuildingBlock: EZIPEK_clean_linker_0, # of connection points: 2
#     Edge 11, Type (0, 0), BuildingBlock: EZIPEK_clean_linker_0, # of connection points: 2
#     Edge 12, Type (0, 0), BuildingBlock: EZIPEK_clean_linker_0, # of connection points: 2
#     Edge 13, Type (0, 0), BuildingBlock: EZIPEK_clean_linker_0, # of connection points: 2
#     Edge 14, Type (0, 0), BuildingBlock: EZIPEK_clean_linker_0, # of connection points: 2
#     Edge 15, Type (0, 0), BuildingBlock: EZIPEK_clean_linker_0, # of connection points: 2
#     Edge 16, Type (0, 0), BuildingBlock: EZIPEK_clean_linker_0, # of connection points: 2
#     Edge 17, Type (0, 0), BuildingBlock: EZIPEK_clean_linker_0, # of connection points: 2
#     Edge 18, Type (0, 0), BuildingBlock: EZIPEK_clean_linker_0, # of connection points: 2
#     Edge 19, Type (0, 0), BuildingBlock: EZIPEK_clean_linker_0, # of connection points: 2
#     Edge 20, Type (0, 0), BuildingBlock: EZIPEK_clean_linker_0, # of connection points: 2
#     Edge 21, Type (0, 0), BuildingBlock: EZIPEK_clean_linker_0, # of connection points: 2
#     Edge 22, Type (0, 0), BuildingBlock: EZIPEK_clean_linker_0, # of connection points: 2
#     Edge 23, Type (0, 0), BuildingBlock: EZIPEK_clean_linker_0, # of connection points: 2
#     Edge 24, Type (0, 0), BuildingBlock: EZIPEK_clean_linker_0, # of connection points: 2
#     Edge 25, Type (0, 0), BuildingBlock: EZIPEK_clean_linker_0, # of connection points: 2
#     Edge 26, Type (0, 0), BuildingBlock: EZIPEK_clean_linker_0, # of connection points: 2
#     Edge 27, Type (0, 0), BuildingBlock: EZIPEK_clean_linker_0, # of connection points: 2
# Relax obj value: 0.069
# Max RMSD: 0.157
# Mean RMSD: 0.156
data_MOF--net-fni--node1-XOMCOT_clean_sbu_0--edge1-EZIPEK_clean_linker_0
_symmetry_space_group_name_H-M    P1
_symmetry_Int_Tables_number       1
_symmetry_cell_setting            triclinic
loop_
_symmetry_equiv_pos_as_xyz
'x, y, z'
_cell_length_a     40.871337
_cell_length_b     41.523843
_cell_length_c     13.602495
_cell_angle_alpha  89.42714
_cell_angle_beta   90.510187
_cell_angle_gamma 89.974029
loop_
_atom_site_label
_atom_site_type_symbol
_atom_site_fract_x
_atom_site_fract_y
_atom_site_fract_z
_atom_type_partial_charge
Co0 Co 0.40295 0.35122 0.02101 0.0
C1 C 0.40295 0.35711 0.2402 0.0
C2 C 0.35566 0.34479 0.18326 0.0
C3 C 0.35412 0.34466 0.28426 0.0
N4 N 0.38607 0.35338 0.15485 0.0
N5 N 0.38395 0.35208 0.31969 0.0
H6 H 0.4289 0.3615 0.24529 0.0
H7 H 0.3361 0.33776 0.13448 0.0
C8 C 0.34047 0.39094 1.00053 0.0
O9 O 0.34538 0.40542 0.08478 0.0
N10 N 0.41963 0.34843 0.88859 0.0
C11 C 0.45131 0.34712 0.86205 0.0
C12 C 0.4529 0.34668 0.76074 0.0
C13 C 0.40235 0.34874 0.80341 0.0
N14 N 0.42213 0.34783 0.72461 0.0
C15 C 0.45654 0.38983 0.087 0.0
C16 C 0.43866 0.4466 0.9935 0.0
C17 C 0.46842 0.44523 0.04538 0.0
C18 C 0.4772 0.41649 0.09278 0.0
C19 C 0.41861 0.41921 0.98928 0.0
N20 N 0.42737 0.39133 0.03718 0.0
H21 H 0.46474 0.36759 0.12044 0.0
H22 H 0.39686 0.42035 0.94411 0.0
H23 H 0.47184 0.34692 0.91277 0.0
H24 H 0.37593 0.34977 0.79857 0.0
O25 O 0.43583 0.32032 0.06657 0.0
O26 O 0.3864 0.30785 1.0119 0.0
O27 O 0.36255 0.37302 0.96434 0.0
C28 C 0.41422 0.29815 0.04814 0.0
H29 H 0.33328 0.33789 0.32848 0.0
H30 H 0.47485 0.34605 0.71684 0.0
H31 H 0.43147 0.46835 0.95436 0.0
H32 H 0.5003 0.41444 0.13204 0.0
Co33 Co 0.64797 0.88847 0.25596 0.0
C34 C 0.64437 0.89223 0.47481 0.0
C35 C 0.61523 0.85337 0.42038 0.0
C36 C 0.6138 0.85287 0.52132 0.0
N37 N 0.63453 0.87799 0.39039 0.0
N38 N 0.63217 0.87725 0.55483 0.0
H39 H 0.66075 0.91256 0.47886 0.0
H40 H 0.60238 0.83695 0.37295 0.0
C41 C 0.60684 0.83025 0.17229 0.0
O42 O 0.57838 0.8446 0.16321 0.0
N43 N 0.66147 0.89846 0.12166 0.0
C44 C 0.68717 0.91643 0.09109 0.0
C45 C 0.68737 0.91742 0.98997 0.0
C46 C 0.64616 0.88932 0.03796 0.0
N47 N 0.66161 0.9004 0.95736 0.0
C48 C 0.61111 0.94367 0.19643 0.0
C49 C 0.55051 0.92372 0.26145 0.0
C50 C 0.55386 0.95495 0.22344 0.0
C51 C 0.58454 0.96484 0.18996 0.0
C52 C 0.57781 0.90344 0.26758 0.0
N53 N 0.6077 0.91321 0.2341 0.0
H54 H 0.63489 0.9523 0.1744 0.0
H55 H 0.5746 0.88028 0.30165 0.0
H56 H 0.70471 0.92842 0.13785 0.0
H57 H 0.62404 0.87515 0.03535 0.0
O58 O 0.6763 0.92295 0.30458 0.0
O59 O 0.69071 0.87226 0.28725 0.0
O60 O 0.63166 0.84537 0.20614 0.0
C61 C 0.69927 0.90117 0.31218 0.0
H62 H 0.60078 0.8357 0.56681 0.0
H63 H 0.70502 0.92957 0.94377 0.0
H64 H 0.52718 0.91545 0.28921 0.0
H65 H 0.5881 0.98902 0.16145 0.0
Co66 Co 0.11674 0.15163 0.54557 0.0
C67 C 0.11214 0.14425 0.76319 0.0
C68 C 0.15884 0.12838 0.71291 0.0
C69 C 0.15903 0.12727 0.8141 0.0
N70 N 0.1296 0.13964 0.68031 0.0
N71 N 0.12972 0.13741 0.84513 0.0
H72 H 0.08741 0.15313 0.76448 0.0
H73 H 0.17891 0.12119 0.66777 0.0
C74 C 0.17552 0.10966 0.47429 0.0
O75 O 0.16323 0.0815 0.49769 0.0
N76 N 0.10463 0.16411 0.41071 0.0
C77 C 0.08272 0.18667 0.38045 0.0
C78 C 0.08113 0.18704 0.27926 0.0
C79 C 0.11583 0.15101 0.32662 0.0
N80 N 0.102 0.1647 0.246 0.0
C81 C 0.06181 0.11356 0.48816 0.0
C82 C 0.07868 0.05756 0.58713 0.0
C83 C 0.04797 0.05977 0.54126 0.0
C84 C 0.03977 0.08798 0.49044 0.0
C85 C 0.10014 0.08384 0.58308 0.0
N86 N 0.09195 0.11144 0.53254 0.0
H87 H 0.05343 0.1358 0.45553 0.0
H88 H 0.12255 0.08219 0.62494 0.0
H89 H 0.06826 0.20162 0.42795 0.0
H90 H 0.13339 0.1316 0.32356 0.0
O91 O 0.08174 0.17807 0.59706 0.0
O92 O 0.13228 0.19469 0.56993 0.0
O93 O 0.15964 0.13554 0.49018 0.0
C94 C 0.10303 0.20137 0.60075 0.0
H95 H 0.17936 0.12045 0.86142 0.0
H96 H 0.06593 0.20251 0.23343 0.0
H97 H 0.08547 0.0362 0.62886 0.0
H98 H 0.01588 0.09072 0.45614 0.0
Co99 Co 0.8781 0.62613 0.75699 0.0
C100 C 0.87974 0.61767 0.53953 0.0
C101 C 0.83215 0.63131 0.58856 0.0
C102 C 0.83185 0.63153 0.48758 0.0
N103 N 0.86194 0.62189 0.62206 0.0
N104 N 0.86182 0.62323 0.45704 0.0
H105 H 0.90572 0.61296 0.53905 0.0
H106 H 0.81229 0.63931 0.63359 0.0
C107 C 0.8136 0.58943 0.77722 0.0
O108 O 0.81737 0.57405 0.69419 0.0
N109 N 0.89464 0.63109 0.89 0.0
C110 C 0.92635 0.63445 0.9165 0.0
C111 C 0.92862 0.63489 1.01765 0.0
C112 C 0.878 0.62958 0.9754 0.0
N113 N 0.89826 0.63173 0.05394 0.0
C114 C 0.9332 0.58806 0.70943 0.0
C115 C 0.91481 0.53173 0.80316 0.0
C116 C 0.94671 0.53445 0.76634 0.0
C117 C 0.95551 0.56294 0.71811 0.0
C118 C 0.89332 0.55812 0.79572 0.0
N119 N 0.90271 0.58597 0.74931 0.0
H120 H 0.94141 0.60986 0.67405 0.0
H121 H 0.86985 0.55635 0.83083 0.0
H122 H 0.94656 0.63578 0.86588 0.0
H123 H 0.85179 0.62652 0.9807 0.0
O124 O 0.91129 0.65605 0.71 0.0
O125 O 0.86177 0.66961 0.75674 0.0
O126 O 0.8372 0.60561 0.81408 0.0
C127 C 0.88976 0.67861 0.72165 0.0
H128 H 0.81189 0.63927 0.44011 0.0
H129 H 0.95079 0.63675 0.06135 0.0
H130 H 0.9071 0.50994 0.84076 0.0
H131 H 0.97987 0.56602 0.68864 0.0
Co132 Co 0.35655 0.11912 0.23347 0.0
C133 C 0.36328 0.11535 0.45262 0.0
C134 C 0.38357 0.15915 0.39487 0.0
C135 C 0.38622 0.15964 0.49587 0.0
N136 N 0.36955 0.13119 0.36712 0.0
N137 N 0.37291 0.13238 0.53207 0.0
H138 H 0.3507 0.09248 0.45742 0.0
H139 H 0.39013 0.17866 0.34604 0.0
C140 C 0.40795 0.16281 0.13157 0.0
O141 O 0.42755 0.13924 0.10734 0.0
N142 N 0.34276 0.10779 0.09917 0.0
C143 C 0.3118 0.10314 0.06604 0.0
C144 C 0.31176 0.10096 0.96527 0.0
C145 C 0.36104 0.10793 1.01645 0.0
N146 N 0.34267 0.10445 0.93414 0.0
C147 C 0.38872 0.05964 0.19135 0.0
C148 C 0.44968 0.07604 0.26536 0.0
C149 C 0.4451 0.04534 0.22591 0.0
C150 C 0.41413 0.03707 0.18935 0.0
C151 C 0.42355 0.09776 0.26682 0.0
N152 N 0.3938 0.08987 0.22711 0.0
H153 H 0.36474 0.05272 0.16495 0.0
H154 H 0.42756 0.12121 0.29809 0.0
H155 H 0.28999 0.10361 0.10982 0.0
H156 H 0.38703 0.11153 1.0151 0.0
O157 O 0.32463 0.08961 0.28956 0.0
O158 O 0.3153 0.1408 0.25242 0.0
O159 O 0.38131 0.15775 0.17824 0.0
C160 C 0.30458 0.11404 0.29107 0.0
H161 H 0.39526 0.1794 0.53979 0.0
H162 H 0.29038 0.09972 0.91787 0.0
H163 H 0.47323 0.08305 0.29537 0.0
H164 H 0.40961 0.0133 0.16006 0.0
Co165 Co 0.88439 0.86537 0.56242 0.0
C166 C 0.88887 0.87149 0.77723 0.0
C167 C 0.83876 0.87328 0.72807 0.0
C168 C 0.83938 0.87334 0.82953 0.0
N169 N 0.8698 0.87165 0.69566 0.0
N170 N 0.87084 0.87204 0.85975 0.0
H171 H 0.91526 0.86933 0.77649 0.0
H172 H 0.81714 0.87264 0.68177 0.0
C173 C 0.83422 0.9085 0.45025 0.0
O174 O 0.85594 0.92498 0.4 0.0
N175 N 0.90052 0.85907 0.42841 0.0
C176 C 0.93159 0.85104 0.40489 0.0
C177 C 0.93486 0.85075 0.30436 0.0
C178 C 0.88529 0.86282 0.3402 0.0
N179 N 0.9057 0.85829 0.26441 0.0
C180 C 0.94403 0.90023 0.58086 0.0
C181 C 0.91808 0.96163 0.57752 0.0
C182 C 0.95213 0.95761 0.57539 0.0
C183 C 0.96506 0.92656 0.58001 0.0
C184 C 0.89779 0.93438 0.57862 0.0
N185 N 0.91092 0.90416 0.57373 0.0
H186 H 0.95462 0.87657 0.58681 0.0
H187 H 0.8717 0.9377 0.58347 0.0
H188 H 0.95098 0.84563 0.45665 0.0
H189 H 0.86018 0.86918 0.32915 0.0
O190 O 0.91533 0.83307 0.61175 0.0
O191 O 0.86477 0.82313 0.56148 0.0
O192 O 0.84313 0.88782 0.51484 0.0
C193 C 0.89188 0.81225 0.59905 0.0
H194 H 0.8184 0.87324 0.87756 0.0
H195 H 0.95685 0.84561 0.26363 0.0
H196 H 0.90738 0.9855 0.57741 0.0
H197 H 0.99128 0.9227 0.58179 0.0
Co198 Co 0.15292 0.38137 0.80659 0.0
C199 C 0.14726 0.38295 0.02526 0.0
C200 C 0.14534 0.33469 0.9714 0.0
C201 C 0.14547 0.33346 0.0728 0.0
N202 N 0.14585 0.36577 0.941 0.0
N203 N 0.14673 0.36382 0.10612 0.0
H204 H 0.15083 0.40866 0.02838 0.0
H205 H 0.14729 0.31414 0.92371 0.0
C206 C 0.10415 0.32705 0.77459 0.0
O207 O 0.0846 0.33869 0.84169 0.0
N208 N 0.1603 0.39697 0.67377 0.0
C209 C 0.16099 0.42812 0.64489 0.0
C210 C 0.16126 0.42956 0.54349 0.0
C211 C 0.16057 0.37984 0.58973 0.0
N212 N 0.16089 0.39923 0.50938 0.0
C213 C 0.11114 0.43397 0.8663 0.0
C214 C 0.0593 0.4192 0.74283 0.0
C215 C 0.05686 0.44635 0.80227 0.0
C216 C 0.08342 0.45393 0.86392 0.0
C217 C 0.08792 0.40097 0.74425 0.0
N218 N 0.11278 0.40715 0.80913 0.0
H219 H 0.13179 0.44096 0.91096 0.0
H220 H 0.09025 0.38244 0.69068 0.0
H221 H 0.15969 0.44839 0.69404 0.0
H222 H 0.15929 0.35386 0.5869 0.0
O223 O 0.18482 0.41206 0.85839 0.0
O224 O 0.19592 0.36272 0.80942 0.0
O225 O 0.13022 0.34212 0.75098 0.0
C226 C 0.20647 0.38922 0.84826 0.0
H227 H 0.14636 0.31199 0.11853 0.0
H228 H 0.16045 0.45113 0.49816 0.0
H229 H 0.0398 0.41304 0.69194 0.0
H230 H 0.08293 0.47536 0.90863 0.0
Co231 Co 0.63009 0.64294 0.02408 0.0
C232 C 0.62754 0.64075 0.24112 0.0
C233 C 0.67702 0.63892 0.18929 0.0
C234 C 0.67776 0.64 0.29056 0.0
N235 N 0.64556 0.63947 0.1585 0.0
N236 N 0.64669 0.64119 0.32242 0.0
H237 H 0.60111 0.64237 0.24181 0.0
H238 H 0.69804 0.63908 0.14155 0.0
C239 C 0.67835 0.60058 0.90999 0.0
O240 O 0.65574 0.58917 0.85069 0.0
N241 N 0.61393 0.64704 0.88899 0.0
C242 C 0.58218 0.64762 0.86027 0.0
C243 C 0.58036 0.6497 0.7594 0.0
C244 C 0.63093 0.65044 0.80454 0.0
N245 N 0.61101 0.65111 0.72491 0.0
C246 C 0.57063 0.60886 0.06368 0.0
C247 C 0.59466 0.54705 0.04636 0.0
C248 C 0.5609 0.55158 0.05678 0.0
C249 C 0.54905 0.58285 0.06823 0.0
C250 C 0.61548 0.57387 0.04196 0.0
N251 N 0.60312 0.60448 0.0447 0.0
H252 H 0.56079 0.63272 0.07267 0.0
H253 H 0.64136 0.56964 0.03655 0.0
H254 H 0.56143 0.64668 0.90849 0.0
H255 H 0.65726 0.65145 0.80027 0.0
O256 O 0.59947 0.67632 0.06394 0.0
O257 O 0.64987 0.68518 1.01318 0.0
O258 O 0.67044 0.6179 0.98319 0.0
C259 C 0.62285 0.69687 0.04728 0.0
H260 H 0.69933 0.64056 0.33725 0.0
H261 H 0.55835 0.64931 0.71453 0.0
H262 H 0.60475 0.52303 0.04056 0.0
H263 H 0.52319 0.58717 0.079 0.0
C264 C 0.52168 0.51379 0.1413 0.0
C265 C 0.53767 0.5239 0.05406 0.0
C266 C 0.50954 0.48133 0.96192 0.0
C267 C 0.49136 0.47317 0.04712 0.0
N268 N 0.47611 0.48491 0.21374 0.0
N269 N 0.54268 0.52119 0.8777 0.0
C270 C 0.49631 0.49036 0.13574 0.0
C271 C 0.53045 0.50874 0.96326 0.0
N272 N 0.53146 0.52589 0.22993 0.0
N273 N 0.50778 0.46221 0.88078 0.0
H274 H 0.55812 0.54117 0.87537 0.0
H275 H 0.53533 0.51345 0.80834 0.0
H276 H 0.49279 0.44194 0.87666 0.0
H277 H 0.5232 0.46481 0.82069 0.0
H278 H 0.52321 0.51705 0.29718 0.0
H279 H 0.55005 0.54295 0.23683 0.0
H280 H 0.4762 0.49897 0.2767 0.0
H281 H 0.45719 0.46806 0.21214 0.0
C282 C 0.48677 0.01264 0.1342 0.0
C283 C 0.4726 0.02171 0.22482 0.0
C284 C 0.51363 0.98942 0.31434 0.0
C285 C 0.52572 0.97785 0.22367 0.0
N286 N 0.52013 0.97405 0.04751 0.0
N287 N 0.46843 0.01385 0.40026 0.0
C288 C 0.51123 0.98822 0.13353 0.0
C289 C 0.48486 0.00869 0.31473 0.0
N290 N 0.47773 0.02819 0.04913 0.0
N291 N 0.53034 0.98306 0.39989 0.0
H292 H 0.44703 0.02748 0.40352 0.0
H293 H 0.47425 0.00217 0.46625 0.0
H294 H 0.55182 0.96949 0.4028 0.0
H295 H 0.52466 0.99373 0.46659 0.0
H296 H 0.48968 0.02507 0.9826 0.0
H297 H 0.46014 0.04639 0.04661 0.0
H298 H 0.508 0.97815 0.9809 0.0
H299 H 0.5378 0.95597 0.04413 0.0
C300 C 0.98388 0.00325 0.65044 0.0
C301 C 0.97478 0.98543 0.56611 0.0
C302 C 0.01579 0.01424 0.46826 0.0
C303 C 0.02337 0.03356 0.55081 0.0
N304 N 0.01079 0.05064 0.71532 0.0
N305 N 0.97759 0.97738 0.39113 0.0
C306 C 1.00634 0.02924 0.6406 0.0
C307 C 0.98942 0.99199 0.47382 0.0
N308 N 0.97186 0.99467 0.74044 0.0
N309 N 0.03452 0.01644 0.38565 0.0
H310 H 0.95832 0.9609 0.39251 0.0
H311 H 0.98484 0.98359 0.32026 0.0
H312 H 0.05408 0.03244 0.37903 0.0
H313 H 0.03252 1.00066 0.32692 0.0
H314 H 0.98049 0.00418 0.80628 0.0
H315 H 0.95478 0.97627 0.75013 0.0
H316 H 0.99648 0.05089 0.77824 0.0
H317 H 0.02708 0.06992 0.71121 0.0
C318 C 0.00843 0.47459 0.87872 0.0
C319 C 0.02742 0.4677 0.79445 0.0
C320 C 0.98735 0.49678 0.69214 0.0
C321 C 0.97173 0.50836 0.77753 0.0
N322 N 0.97184 0.51254 0.95491 0.0
N323 N 0.03847 0.47933 0.62319 0.0
C324 C 0.98332 0.49833 0.87188 0.0
C325 C 0.01781 0.48067 0.70152 0.0
N326 N 0.01365 0.45796 0.96456 0.0
N327 N 0.97295 0.50098 0.60189 0.0
H328 H 0.06204 0.4698 0.62813 0.0
H329 H 0.0336 0.49105 0.55652 0.0
H330 H 0.95006 0.51182 0.59268 0.0
H331 H 0.98205 0.49057 0.53828 0.0
H332 H 0.99841 0.46003 0.0252 0.0
H333 H 0.03103 0.43967 0.97171 0.0
H334 H 0.98205 0.50832 0.02434 0.0
H335 H 0.95434 0.53078 0.95375 0.0
C336 C 0.4018 0.37996 0.47079 0.0
C337 C 0.39417 0.35096 0.42156 0.0
C338 C 0.40322 0.32017 0.57466 0.0
C339 C 0.41248 0.34894 0.62242 0.0
N340 N 0.42323 0.40573 0.61784 0.0
N341 N 0.39069 0.29316 0.42126 0.0
C342 C 0.41259 0.37873 0.57074 0.0
C343 C 0.39559 0.32094 0.47228 0.0
N344 N 0.39735 0.40866 0.42251 0.0
N345 N 0.4015 0.29224 0.62822 0.0
H346 H 0.38521 0.29302 0.34631 0.0
H347 H 0.39419 0.27019 0.4507 0.0
H348 H 0.40828 0.29097 0.70219 0.0
H349 H 0.3918 0.27082 0.60171 0.0
H350 H 0.39959 0.43104 0.45558 0.0
H351 H 0.38921 0.41008 0.34969 0.0
H352 H 0.42713 0.42779 0.58298 0.0
H353 H 0.42981 0.40562 0.69214 0.0
C354 C 0.6292 0.91294 0.80797 0.0
C355 C 0.65346 0.89412 0.85639 0.0
C356 C 0.66524 0.866 0.70335 0.0
C357 C 0.63986 0.88362 0.65607 0.0
N358 N 0.59554 0.9214 0.66143 0.0
N359 N 0.69174 0.8503 0.85715 0.0
C360 C 0.62121 0.90648 0.70798 0.0
C361 C 0.67074 0.86994 0.80584 0.0
N362 N 0.61456 0.9374 0.85761 0.0
N363 N 0.68442 0.84606 0.64909 0.0
H364 H 0.69614 0.85287 0.93235 0.0
H365 H 0.70303 0.83019 0.82749 0.0
H366 H 0.68056 0.84257 0.57402 0.0
H367 H 0.70535 0.83466 0.67626 0.0
H368 H 0.59865 0.95403 0.82522 0.0
H369 H 0.61982 0.94213 0.93128 0.0
H370 H 0.57891 0.9363 0.69642 0.0
H371 H 0.58983 0.9174 0.58762 0.0
C372 C 0.12984 0.17503 0.98426 0.0
C373 C 0.12129 0.14468 0.94506 0.0
C374 C 0.09784 0.12834 0.10327 0.0
C375 C 0.10875 0.1577 0.14454 0.0
N376 N 0.13899 0.20711 0.13021 0.0
N377 N 0.09988 0.09134 0.96575 0.0
C378 C 0.1257 0.18064 0.08638 0.0
C379 C 0.10601 0.12098 1.00433 0.0
N380 N 0.14157 0.19853 0.92304 0.0
N381 N 0.07874 0.10816 0.15806 0.0
H382 H 0.10483 0.08592 0.8926 0.0
H383 H 0.0917 0.07172 1.00689 0.0
H384 H 0.07221 0.11325 0.23022 0.0
H385 H 0.06747 0.08765 0.13041 0.0
H386 H 0.14522 0.22228 0.94425 0.0
H387 H 0.14541 0.19479 0.84831 0.0
H388 H 0.15425 0.2234 0.09438 0.0
H389 H 0.13693 0.21138 0.20534 0.0
C390 C 0.8884 0.59898 0.20335 0.0
C391 C 0.88965 0.62953 0.15622 0.0
C392 C 0.87676 0.65599 0.31147 0.0
C393 C 0.87318 0.62532 0.35707 0.0
N394 N 0.87245 0.56768 0.34731 0.0
N395 N 0.88289 0.68686 0.1597 0.0
C396 C 0.87838 0.59678 0.30329 0.0
C397 C 0.88329 0.65801 0.20894 0.0
N398 N 0.89725 0.57226 0.15221 0.0
N399 N 0.87461 0.68304 0.36738 0.0
H400 H 0.88821 0.68883 0.08499 0.0
H401 H 0.87549 0.70846 0.19059 0.0
H402 H 0.86984 0.68212 0.44252 0.0
H403 H 0.87981 0.70614 0.34171 0.0
H404 H 0.89998 0.54948 0.18377 0.0
H405 H 0.9038 0.57329 0.07826 0.0
H406 H 0.87267 0.54584 0.31049 0.0
H407 H 0.86533 0.56558 0.42057 0.0
C408 C 0.37137 0.09023 0.78034 0.0
C409 C 0.35215 0.11208 0.8345 0.0
C410 C 0.34501 0.14609 0.68754 0.0
C411 C 0.36593 0.12539 0.63429 0.0
N412 N 0.4033 0.08071 0.63333 0.0
N413 N 0.327 0.16422 0.84685 0.0
C414 C 0.38031 0.09819 0.68173 0.0
C415 C 0.34081 0.14101 0.79001 0.0
N416 N 0.38023 0.06156 0.82269 0.0
N417 N 0.32805 0.16988 0.63944 0.0
H418 H 0.32476 0.16178 0.92286 0.0
H419 H 0.32119 0.1872 0.82079 0.0
H420 H 0.33035 0.17441 0.56455 0.0
H421 H 0.30954 0.18324 0.67185 0.0
H422 H 0.39155 0.04304 0.78474 0.0
H423 H 0.37422 0.05554 0.89498 0.0
H424 H 0.41698 0.06232 0.66617 0.0
H425 H 0.41058 0.0864 0.56192 0.0
C426 C 0.89648 0.83448 0.10126 0.0
C427 C 0.8981 0.862 0.16142 0.0
C428 C 0.88232 0.89642 0.02125 0.0
C429 C 0.88225 0.86903 0.96003 0.0
N430 N 0.89557 0.81321 0.93624 0.0
N431 N 0.89819 0.91953 0.1781 0.0
C432 C 0.89134 0.8384 0.99843 0.0
C433 C 0.89252 0.89315 0.12122 0.0
N434 N 0.89855 0.80455 0.1435 0.0
N435 N 0.87249 0.92544 0.98326 0.0
H436 H 0.90632 0.91766 0.25085 0.0
H437 H 0.8974 0.94311 0.15159 0.0
H438 H 0.86674 0.92872 0.90893 0.0
H439 H 0.86853 0.94578 0.02567 0.0
H440 H 0.89417 0.78332 0.10551 0.0
H441 H 0.90195 0.80108 0.21896 0.0
H442 H 0.90516 0.79101 0.95814 0.0
H443 H 0.89242 0.81552 0.86064 0.0
C444 C 0.12559 0.38606 0.36655 0.0
C445 C 0.15733 0.38989 0.40786 0.0
C446 C 0.1821 0.37686 0.24919 0.0
C447 C 0.15037 0.37344 0.20745 0.0
N448 N 0.09204 0.37633 0.22056 0.0
N449 N 0.21561 0.39137 0.39122 0.0
C450 C 0.1221 0.37843 0.26485 0.0
C451 C 0.18557 0.3859 0.3497 0.0
N452 N 0.09898 0.38971 0.42556 0.0
N453 N 0.20872 0.37097 0.19217 0.0
H454 H 0.21853 0.39724 0.4652 0.0
H455 H 0.23751 0.39128 0.35297 0.0
H456 H 0.20655 0.36545 0.11792 0.0
H457 H 0.23276 0.37051 0.21774 0.0
H458 H 0.07497 0.38533 0.40385 0.0
H459 H 0.10106 0.39633 0.49911 0.0
H460 H 0.07001 0.38131 0.25482 0.0
H461 H 0.08918 0.37058 0.14647 0.0
C462 C 0.62411 0.61781 0.5812 0.0
C463 C 0.62029 0.64864 0.62346 0.0
C464 C 0.63044 0.67437 0.46376 0.0
C465 C 0.6365 0.64366 0.42313 0.0
N466 N 0.64176 0.58637 0.44139 0.0
N467 N 0.622 0.70621 0.61072 0.0
C468 C 0.63408 0.6154 0.48159 0.0
C469 C 0.62406 0.67696 0.56613 0.0
N470 N 0.6172 0.59098 0.63608 0.0
N471 N 0.63024 0.70083 0.40348 0.0
H472 H 0.61675 0.70845 0.6853 0.0
H473 H 0.62731 0.72802 0.5761 0.0
H474 H 0.63511 0.69934 0.32866 0.0
H475 H 0.6232 0.72372 0.42544 0.0
H476 H 0.61648 0.56777 0.60806 0.0
H477 H 0.61002 0.59215 0.70931 0.0
H478 H 0.64388 0.56503 0.48166 0.0
H479 H 0.64774 0.58396 0.36741 0.0
C480 C 0.255 0.36315 0.9312 0.0
C481 C 0.24077 0.39117 0.8878 0.0
C482 C 0.29209 0.42035 0.9226 0.0
C483 C 0.30712 0.39109 0.9544 0.0
N484 N 0.304 0.33253 0.95825 0.0
N485 N 0.24891 0.44507 0.82392 0.0
C486 C 0.28911 0.36187 0.94836 0.0
C487 C 0.26009 0.41957 0.87884 0.0
N488 N 0.2359 0.33809 0.96221 0.0
N489 N 0.30853 0.44878 0.93218 0.0
H490 H 0.22659 0.44488 0.78639 0.0
H491 H 0.26322 0.4651 0.80714 0.0
H492 H 0.33274 0.45003 0.95677 0.0
H493 H 0.29751 0.47116 0.92089 0.0
H494 H 0.24506 0.31872 1.00336 0.0
H495 H 0.21053 0.33863 0.95995 0.0
H496 H 0.29192 0.31099 0.94327 0.0
H497 H 0.32884 0.32925 0.97037 0.0
C498 C 0.63281 0.77466 0.1899 0.0
C499 C 0.61128 0.79613 0.13825 0.0
C500 C 0.59636 0.75165 0.02752 0.0
C501 C 0.61991 0.73145 0.07434 0.0
N502 N 0.66707 0.7275 0.18278 0.0
N503 N 0.58111 0.80651 0.98705 0.0
C504 C 0.64033 0.74421 0.14928 0.0
C505 C 0.59523 0.78504 0.05136 0.0
N506 N 0.6449 0.7821 0.28084 0.0
N507 N 0.57558 0.73931 0.95833 0.0
H508 H 0.58246 0.83137 0.9956 0.0
H509 H 0.57179 0.79993 0.91861 0.0
H510 H 0.57718 0.71569 0.93346 0.0
H511 H 0.55553 0.75202 0.93027 0.0
H512 H 0.65752 0.76563 0.32535 0.0
H513 H 0.63957 0.80316 0.31739 0.0
H514 H 0.68492 0.73773 0.2279 0.0
H515 H 0.67306 0.70446 0.16013 0.0
C516 C 0.24854 0.08828 0.31265 0.0
C517 C 0.27173 0.11236 0.33892 0.0
C518 C 0.23243 0.13415 0.45775 0.0
C519 C 0.20832 0.11167 0.4257 0.0
N520 N 0.19121 0.07397 0.30152 0.0
N521 N 0.28381 0.16099 0.42911 0.0
C522 C 0.21581 0.09045 0.34762 0.0
C523 C 0.26297 0.13615 0.40865 0.0
N524 N 0.25732 0.06331 0.25374 0.0
N525 N 0.22724 0.15277 0.53849 0.0
H526 H 0.3082 0.16161 0.40831 0.0
H527 H 0.27639 0.18193 0.46418 0.0
H528 H 0.20503 0.15478 0.57391 0.0
H529 H 0.24588 0.16509 0.5749 0.0
H530 H 0.24252 0.04321 0.24283 0.0
H531 H 0.28018 0.06115 0.22162 0.0
H532 H 0.1946 0.0609 0.23745 0.0
H533 H 0.16662 0.07647 0.31979 0.0
C534 C 0.8802 0.7366 0.75383 0.0
C535 C 0.8958 0.71303 0.69626 0.0
C536 C 0.91555 0.75626 0.58707 0.0
C537 C 0.89443 0.77834 0.63401 0.0
N538 N 0.85066 0.78653 0.75043 0.0
N539 N 0.92527 0.70055 0.5469 0.0
C540 C 0.87489 0.76764 0.71367 0.0
C541 C 0.91312 0.72279 0.61036 0.0
N542 N 0.87139 0.72979 0.8485 0.0
N543 N 0.93724 0.76695 0.51839 0.0
H544 H 0.92293 0.67582 0.55644 0.0
H545 H 0.93481 0.70666 0.47847 0.0
H546 H 0.93849 0.7909 0.49569 0.0
H547 H 0.95567 0.7525 0.48996 0.0
H548 H 0.8621 0.74716 0.89557 0.0
H549 H 0.87733 0.70806 0.88356 0.0
H550 H 0.83384 0.77808 0.80182 0.0
H551 H 0.84575 0.80963 0.72471 0.0
C552 C 0.78708 0.88164 0.36445 0.0
C553 C 0.79931 0.90831 0.41749 0.0
C554 C 0.74453 0.93293 0.40537 0.0
C555 C 0.73428 0.90785 0.34046 0.0
N556 N 0.75387 0.86821 0.22502 0.0
N557 N 0.79059 0.96216 0.4761 0.0
C558 C 0.75808 0.88538 0.3093 0.0
C559 C 0.7784 0.93506 0.43318 0.0
N560 N 0.80188 0.85219 0.36853 0.0
N561 N 0.72243 0.95374 0.4445 0.0
H562 H 0.8147 0.96379 0.50151 0.0
H563 H 0.77743 0.9836 0.48005 0.0
H564 H 0.69766 0.95385 0.42725 0.0
H565 H 0.72845 0.96966 0.50053 0.0
H566 H 0.79195 0.8321 0.33374 0.0
H567 H 0.82103 0.84664 0.41657 0.0
H568 H 0.77194 0.85292 0.19831 0.0
H569 H 0.73479 0.87274 0.17539 0.0
C570 C 0.10518 0.26176 0.58168 0.0
C571 C 0.09501 0.2343 0.63651 0.0
C572 C 0.08773 0.26801 0.7814 0.0
C573 C 0.09694 0.29573 0.72595 0.0
N574 N 0.10212 0.31954 0.56414 0.0
N575 N 0.06294 0.21539 0.7744 0.0
C576 C 0.10194 0.29279 0.62318 0.0
C577 C 0.08175 0.23865 0.73165 0.0
N578 N 0.11789 0.25851 0.48976 0.0
N579 N 0.08646 0.26874 0.88169 0.0
H580 H 0.05464 0.19536 0.7365 0.0
H581 H 0.05134 0.21856 0.84156 0.0
H582 H 0.09179 0.28904 0.92298 0.0
H583 H 0.08335 0.24803 0.92459 0.0
H584 H 0.12968 0.27724 0.45279 0.0
H585 H 0.11809 0.23685 0.45205 0.0
H586 H 0.10271 0.31863 0.48765 0.0
H587 H 0.09766 0.34244 0.5909 0.0
C588 C 0.73389 0.62513 0.87716 0.0
C589 C 0.71384 0.59715 0.88465 0.0
C590 C 0.76147 0.56366 0.84035 0.0
C591 C 0.78019 0.59189 0.8219 0.0
N592 N 0.78221 0.65027 0.81302 0.0
N593 N 0.70845 0.53946 0.87328 0.0
C594 C 0.76607 0.62272 0.8394 0.0
C595 C 0.72763 0.56632 0.86581 0.0
N596 N 0.72243 0.65462 0.90483 0.0
N597 N 0.7766 0.53429 0.83841 0.0
H598 H 0.68486 0.53985 0.90173 0.0
H599 H 0.71538 0.51691 0.84801 0.0
H600 H 0.80144 0.53164 0.82346 0.0
H601 H 0.76556 0.51284 0.86021 0.0
H602 H 0.73778 0.67394 0.92085 0.0
H603 H 0.69799 0.66008 0.9157 0.0
H604 H 0.77094 0.67272 0.80655 0.0
H605 H 0.80625 0.65105 0.79052 0.0
C606 C 0.41336 0.24167 0.98707 0.0
C607 C 0.42042 0.26319 0.06477 0.0
C608 C 0.43036 0.21701 0.17533 0.0
C609 C 0.41655 0.19639 0.10378 0.0
N610 N 0.39686 0.18804 0.93857 0.0
N611 N 0.43665 0.27155 0.23404 0.0
C612 C 0.40896 0.20836 1.00829 0.0
C613 C 0.42984 0.25095 0.15891 0.0
N614 N 0.41193 0.25311 0.89253 0.0
N615 N 0.4445 0.20397 0.258 0.0
H616 H 0.4367 0.29647 0.22588 0.0
H617 H 0.44034 0.26407 0.30653 0.0
H618 H 0.44567 0.17916 0.27052 0.0
H619 H 0.45777 0.21726 0.30911 0.0
H620 H 0.40972 0.23849 0.83112 0.0
H621 H 0.41647 0.27717 0.87477 0.0
H622 H 0.38727 0.19579 0.87127 0.0
H623 H 0.39524 0.16326 0.94965 0.0
loop_
_geom_bond_atom_site_label_1
_geom_bond_atom_site_label_2
_geom_bond_distance
_geom_bond_site_symmetry_2
_ccdc_geom_bond_type
Co0 N4 2.148 . S
Co0 N10 2.128 1_554 S
Co0 N20 2.194 . S
Co0 O25 2.351 . S
Co0 O26 2.155 . S
Co0 O27 2.096 1_554 S
C1 N4 1.301 . S
C1 N5 1.328 . S
C1 H6 0.930 . S
C2 C3 1.333 . S
C2 N4 1.317 . S
C2 H7 0.930 . S
C3 C2 1.333 . S
C3 N5 1.350 . S
C3 H29 0.931 . S
N4 Co0 2.148 . S
N4 C1 1.301 . S
N4 C2 1.317 . S
N5 C1 1.328 . S
N5 C3 1.350 . S
H6 C1 0.930 . S
H7 C2 0.930 . S
C8 O9 1.224 . S
C8 O27 1.247 . S
O9 C8 1.224 . S
N10 Co0 2.128 1_556 S
N10 C11 1.355 . S
N10 C13 1.311 . S
C11 N10 1.355 . S
C11 C12 1.363 . S
C11 H23 0.929 . S
C12 C11 1.363 . S
C12 N14 1.375 . S
C12 H30 0.931 . S
C13 N10 1.311 . S
C13 N14 1.347 . S
C13 H24 0.929 . S
N14 C12 1.375 . S
N14 C13 1.347 . S
C15 C18 1.365 . S
C15 N20 1.328 . S
C15 H21 0.929 . S
C16 C17 1.362 1_556 S
C16 C19 1.378 . S
C16 H31 0.929 . S
C17 C16 1.362 1_554 S
C17 C18 1.366 . S
C18 C15 1.365 . S
C18 C17 1.366 . S
C18 H32 0.930 . S
C19 C16 1.378 . S
C19 N20 1.315 1_556 S
C19 H22 0.930 . S
N20 Co0 2.194 . S
N20 C15 1.328 . S
N20 C19 1.315 1_554 S
H21 C15 0.929 . S
H22 C19 0.930 . S
H23 C11 0.929 . S
H24 C13 0.929 . S
O25 Co0 2.351 . S
O25 C28 1.244 . S
O26 Co0 2.155 . S
O26 C28 1.240 . S
O27 Co0 2.096 1_556 S
O27 C8 1.247 . S
C28 O25 1.244 . S
C28 O26 1.240 . S
H29 C3 0.931 . S
H30 C12 0.931 . S
H31 C16 0.929 . S
H32 C18 0.930 . S
Co33 N37 2.148 . S
Co33 N43 2.128 . S
Co33 N53 2.194 . S
Co33 O58 2.351 . S
Co33 O59 2.155 . S
Co33 O60 2.096 . S
C34 N37 1.301 . S
C34 N38 1.328 . S
C34 H39 0.930 . S
C35 C36 1.333 . S
C35 N37 1.317 . S
C35 H40 0.930 . S
C36 C35 1.333 . S
C36 N38 1.350 . S
C36 H62 0.931 . S
N37 Co33 2.148 . S
N37 C34 1.301 . S
N37 C35 1.317 . S
N38 C34 1.328 . S
N38 C36 1.350 . S
H39 C34 0.930 . S
H40 C35 0.930 . S
C41 O42 1.224 . S
C41 O60 1.247 . S
O42 C41 1.224 . S
N43 Co33 2.128 . S
N43 C44 1.355 . S
N43 C46 1.311 . S
C44 N43 1.355 . S
C44 C45 1.363 1_554 S
C44 H56 0.929 . S
C45 C44 1.363 1_556 S
C45 N47 1.375 . S
C45 H63 0.931 . S
C46 N43 1.311 . S
C46 N47 1.347 1_554 S
C46 H57 0.929 . S
N47 C45 1.375 . S
N47 C46 1.347 1_556 S
C48 C51 1.365 . S
C48 N53 1.328 . S
C48 H54 0.929 . S
C49 C50 1.362 . S
C49 C52 1.378 . S
C49 H64 0.929 . S
C50 C49 1.362 . S
C50 C51 1.366 . S
C51 C48 1.365 . S
C51 C50 1.366 . S
C51 H65 0.930 . S
C52 C49 1.378 . S
C52 N53 1.315 . S
C52 H55 0.930 . S
N53 Co33 2.194 . S
N53 C48 1.328 . S
N53 C52 1.315 . S
H54 C48 0.929 . S
H55 C52 0.930 . S
H56 C44 0.929 . S
H57 C46 0.929 . S
O58 Co33 2.351 . S
O58 C61 1.244 . S
O59 Co33 2.155 . S
O59 C61 1.240 . S
O60 Co33 2.096 . S
O60 C41 1.247 . S
C61 O58 1.244 . S
C61 O59 1.240 . S
H62 C36 0.931 . S
H63 C45 0.931 . S
H64 C49 0.929 . S
H65 C51 0.930 . S
Co66 N70 2.148 . S
Co66 N76 2.128 . S
Co66 N86 2.194 . S
Co66 O91 2.351 . S
Co66 O92 2.155 . S
Co66 O93 2.096 . S
C67 N70 1.301 . S
C67 N71 1.328 . S
C67 H72 0.930 . S
C68 C69 1.333 . S
C68 N70 1.317 . S
C68 H73 0.930 . S
C69 C68 1.333 . S
C69 N71 1.350 . S
C69 H95 0.931 . S
N70 Co66 2.148 . S
N70 C67 1.301 . S
N70 C68 1.317 . S
N71 C67 1.328 . S
N71 C69 1.350 . S
H72 C67 0.930 . S
H73 C68 0.930 . S
C74 O75 1.224 . S
C74 O93 1.247 . S
O75 C74 1.224 . S
N76 Co66 2.128 . S
N76 C77 1.355 . S
N76 C79 1.311 . S
C77 N76 1.355 . S
C77 C78 1.363 . S
C77 H89 0.929 . S
C78 C77 1.363 . S
C78 N80 1.375 . S
C78 H96 0.931 . S
C79 N76 1.311 . S
C79 N80 1.347 . S
C79 H90 0.929 . S
N80 C78 1.375 . S
N80 C79 1.347 . S
C81 C84 1.365 . S
C81 N86 1.328 . S
C81 H87 0.929 . S
C82 C83 1.362 . S
C82 C85 1.378 . S
C82 H97 0.929 . S
C83 C82 1.362 . S
C83 C84 1.366 . S
C84 C81 1.365 . S
C84 C83 1.366 . S
C84 H98 0.930 . S
C85 C82 1.378 . S
C85 N86 1.315 . S
C85 H88 0.930 . S
N86 Co66 2.194 . S
N86 C81 1.328 . S
N86 C85 1.315 . S
H87 C81 0.929 . S
H88 C85 0.930 . S
H89 C77 0.929 . S
H90 C79 0.929 . S
O91 Co66 2.351 . S
O91 C94 1.244 . S
O92 Co66 2.155 . S
O92 C94 1.240 . S
O93 Co66 2.096 . S
O93 C74 1.247 . S
C94 O91 1.244 . S
C94 O92 1.240 . S
H95 C69 0.931 . S
H96 C78 0.931 . S
H97 C82 0.929 . S
H98 C84 0.930 . S
Co99 N103 2.148 . S
Co99 N109 2.128 . S
Co99 N119 2.194 . S
Co99 O124 2.351 . S
Co99 O125 2.155 . S
Co99 O126 2.096 . S
C100 N103 1.301 . S
C100 N104 1.328 . S
C100 H105 0.930 . S
C101 C102 1.333 . S
C101 N103 1.317 . S
C101 H106 0.930 . S
C102 C101 1.333 . S
C102 N104 1.350 . S
C102 H128 0.931 . S
N103 Co99 2.148 . S
N103 C100 1.301 . S
N103 C101 1.317 . S
N104 C100 1.328 . S
N104 C102 1.350 . S
H105 C100 0.930 . S
H106 C101 0.930 . S
C107 O108 1.224 . S
C107 O126 1.247 . S
O108 C107 1.224 . S
N109 Co99 2.128 . S
N109 C110 1.355 . S
N109 C112 1.311 . S
C110 N109 1.355 . S
C110 C111 1.363 1_556 S
C110 H122 0.929 . S
C111 C110 1.363 1_554 S
C111 N113 1.375 . S
C111 H129 0.931 . S
C112 N109 1.311 . S
C112 N113 1.347 1_556 S
C112 H123 0.929 . S
N113 C111 1.375 . S
N113 C112 1.347 1_554 S
C114 C117 1.365 . S
C114 N119 1.328 . S
C114 H120 0.929 . S
C115 C116 1.362 . S
C115 C118 1.378 . S
C115 H130 0.929 . S
C116 C115 1.362 . S
C116 C117 1.366 . S
C117 C114 1.365 . S
C117 C116 1.366 . S
C117 H131 0.930 . S
C118 C115 1.378 . S
C118 N119 1.315 . S
C118 H121 0.930 . S
N119 Co99 2.194 . S
N119 C114 1.328 . S
N119 C118 1.315 . S
H120 C114 0.929 . S
H121 C118 0.930 . S
H122 C110 0.929 . S
H123 C112 0.929 . S
O124 Co99 2.351 . S
O124 C127 1.244 . S
O125 Co99 2.155 . S
O125 C127 1.240 . S
O126 Co99 2.096 . S
O126 C107 1.247 . S
C127 O124 1.244 . S
C127 O125 1.240 . S
H128 C102 0.931 . S
H129 C111 0.931 . S
H130 C115 0.929 . S
H131 C117 0.930 . S
Co132 N136 2.148 . S
Co132 N142 2.128 . S
Co132 N152 2.194 . S
Co132 O157 2.351 . S
Co132 O158 2.155 . S
Co132 O159 2.096 . S
C133 N136 1.301 . S
C133 N137 1.328 . S
C133 H138 0.930 . S
C134 C135 1.333 . S
C134 N136 1.317 . S
C134 H139 0.930 . S
C135 C134 1.333 . S
C135 N137 1.350 . S
C135 H161 0.931 . S
N136 Co132 2.148 . S
N136 C133 1.301 . S
N136 C134 1.317 . S
N137 C133 1.328 . S
N137 C135 1.350 . S
H138 C133 0.930 . S
H139 C134 0.930 . S
C140 O141 1.224 . S
C140 O159 1.247 . S
O141 C140 1.224 . S
N142 Co132 2.128 . S
N142 C143 1.355 . S
N142 C145 1.311 . S
C143 N142 1.355 . S
C143 C144 1.363 1_554 S
C143 H155 0.929 . S
C144 C143 1.363 1_556 S
C144 N146 1.375 . S
C144 H162 0.931 . S
C145 N142 1.311 . S
C145 N146 1.347 1_554 S
C145 H156 0.929 . S
N146 C144 1.375 . S
N146 C145 1.347 1_556 S
C147 C150 1.365 . S
C147 N152 1.328 . S
C147 H153 0.929 . S
C148 C149 1.362 . S
C148 C151 1.378 . S
C148 H163 0.929 . S
C149 C148 1.362 . S
C149 C150 1.366 . S
C150 C147 1.365 . S
C150 C149 1.366 . S
C150 H164 0.930 . S
C151 C148 1.378 . S
C151 N152 1.315 . S
C151 H154 0.930 . S
N152 Co132 2.194 . S
N152 C147 1.328 . S
N152 C151 1.315 . S
H153 C147 0.929 . S
H154 C151 0.930 . S
H155 C143 0.929 . S
H156 C145 0.929 . S
O157 Co132 2.351 . S
O157 C160 1.244 . S
O158 Co132 2.155 . S
O158 C160 1.240 . S
O159 Co132 2.096 . S
O159 C140 1.247 . S
C160 O157 1.244 . S
C160 O158 1.240 . S
H161 C135 0.931 . S
H162 C144 0.931 . S
H163 C148 0.929 . S
H164 C150 0.930 . S
Co165 N169 2.148 . S
Co165 N175 2.128 . S
Co165 N185 2.194 . S
Co165 O190 2.351 . S
Co165 O191 2.155 . S
Co165 O192 2.096 . S
C166 N169 1.301 . S
C166 N170 1.328 . S
C166 H171 0.930 . S
C167 C168 1.333 . S
C167 N169 1.317 . S
C167 H172 0.930 . S
C168 C167 1.333 . S
C168 N170 1.350 . S
C168 H194 0.931 . S
N169 Co165 2.148 . S
N169 C166 1.301 . S
N169 C167 1.317 . S
N170 C166 1.328 . S
N170 C168 1.350 . S
H171 C166 0.930 . S
H172 C167 0.930 . S
C173 O174 1.224 . S
C173 O192 1.247 . S
O174 C173 1.224 . S
N175 Co165 2.128 . S
N175 C176 1.355 . S
N175 C178 1.311 . S
C176 N175 1.355 . S
C176 C177 1.363 . S
C176 H188 0.929 . S
C177 C176 1.363 . S
C177 N179 1.375 . S
C177 H195 0.931 . S
C178 N175 1.311 . S
C178 N179 1.347 . S
C178 H189 0.929 . S
N179 C177 1.375 . S
N179 C178 1.347 . S
C180 C183 1.365 . S
C180 N185 1.328 . S
C180 H186 0.929 . S
C181 C182 1.362 . S
C181 C184 1.378 . S
C181 H196 0.929 . S
C182 C181 1.362 . S
C182 C183 1.366 . S
C183 C180 1.365 . S
C183 C182 1.366 . S
C183 H197 0.930 . S
C184 C181 1.378 . S
C184 N185 1.315 . S
C184 H187 0.930 . S
N185 Co165 2.194 . S
N185 C180 1.328 . S
N185 C184 1.315 . S
H186 C180 0.929 . S
H187 C184 0.930 . S
H188 C176 0.929 . S
H189 C178 0.929 . S
O190 Co165 2.351 . S
O190 C193 1.244 . S
O191 Co165 2.155 . S
O191 C193 1.240 . S
O192 Co165 2.096 . S
O192 C173 1.247 . S
C193 O190 1.244 . S
C193 O191 1.240 . S
H194 C168 0.931 . S
H195 C177 0.931 . S
H196 C181 0.929 . S
H197 C183 0.930 . S
Co198 N202 2.148 . S
Co198 N208 2.128 . S
Co198 N218 2.194 . S
Co198 O223 2.351 . S
Co198 O224 2.155 . S
Co198 O225 2.096 . S
C199 N202 1.301 . S
C199 N203 1.328 1_556 S
C199 H204 0.930 . S
C200 C201 1.333 1_556 S
C200 N202 1.317 . S
C200 H205 0.930 . S
C201 C200 1.333 1_554 S
C201 N203 1.350 . S
C201 H227 0.931 . S
N202 Co198 2.148 . S
N202 C199 1.301 . S
N202 C200 1.317 . S
N203 C199 1.328 1_554 S
N203 C201 1.350 . S
H204 C199 0.930 . S
H205 C200 0.930 . S
C206 O207 1.224 . S
C206 O225 1.247 . S
O207 C206 1.224 . S
N208 Co198 2.128 . S
N208 C209 1.355 . S
N208 C211 1.311 . S
C209 N208 1.355 . S
C209 C210 1.363 . S
C209 H221 0.929 . S
C210 C209 1.363 . S
C210 N212 1.375 . S
C210 H228 0.931 . S
C211 N208 1.311 . S
C211 N212 1.347 . S
C211 H222 0.929 . S
N212 C210 1.375 . S
N212 C211 1.347 . S
C213 C216 1.365 . S
C213 N218 1.328 . S
C213 H219 0.929 . S
C214 C215 1.362 . S
C214 C217 1.378 . S
C214 H229 0.929 . S
C215 C214 1.362 . S
C215 C216 1.366 . S
C216 C213 1.365 . S
C216 C215 1.366 . S
C216 H230 0.930 . S
C217 C214 1.378 . S
C217 N218 1.315 . S
C217 H220 0.930 . S
N218 Co198 2.194 . S
N218 C213 1.328 . S
N218 C217 1.315 . S
H219 C213 0.929 . S
H220 C217 0.930 . S
H221 C209 0.929 . S
H222 C211 0.929 . S
O223 Co198 2.351 . S
O223 C226 1.244 . S
O224 Co198 2.155 . S
O224 C226 1.240 . S
O225 Co198 2.096 . S
O225 C206 1.247 . S
C226 O223 1.244 . S
C226 O224 1.240 . S
H227 C201 0.931 . S
H228 C210 0.931 . S
H229 C214 0.929 . S
H230 C216 0.930 . S
Co231 N235 2.148 . S
Co231 N241 2.128 1_554 S
Co231 N251 2.194 . S
Co231 O256 2.351 . S
Co231 O257 2.155 . S
Co231 O258 2.096 1_554 S
C232 N235 1.301 . S
C232 N236 1.328 . S
C232 H237 0.930 . S
C233 C234 1.333 . S
C233 N235 1.317 . S
C233 H238 0.930 . S
C234 C233 1.333 . S
C234 N236 1.350 . S
C234 H260 0.931 . S
N235 Co231 2.148 . S
N235 C232 1.301 . S
N235 C233 1.317 . S
N236 C232 1.328 . S
N236 C234 1.350 . S
H237 C232 0.930 . S
H238 C233 0.930 . S
C239 O240 1.224 . S
C239 O258 1.247 . S
O240 C239 1.224 . S
N241 Co231 2.128 1_556 S
N241 C242 1.355 . S
N241 C244 1.311 . S
C242 N241 1.355 . S
C242 C243 1.363 . S
C242 H254 0.929 . S
C243 C242 1.363 . S
C243 N245 1.375 . S
C243 H261 0.931 . S
C244 N241 1.311 . S
C244 N245 1.347 . S
C244 H255 0.929 . S
N245 C243 1.375 . S
N245 C244 1.347 . S
C246 C249 1.365 . S
C246 N251 1.328 . S
C246 H252 0.929 . S
C247 C248 1.362 1_556 S
C247 C250 1.378 . S
C247 H262 0.929 . S
C248 C247 1.362 1_554 S
C248 C249 1.366 . S
C249 C246 1.365 . S
C249 C248 1.366 . S
C249 H263 0.930 . S
C250 C247 1.378 . S
C250 N251 1.315 1_556 S
C250 H253 0.930 . S
N251 Co231 2.194 . S
N251 C246 1.328 . S
N251 C250 1.315 1_554 S
H252 C246 0.929 . S
H253 C250 0.930 . S
H254 C242 0.929 . S
H255 C244 0.929 . S
O256 Co231 2.351 . S
O256 C259 1.244 . S
O257 Co231 2.155 . S
O257 C259 1.240 . S
O258 Co231 2.096 1_556 S
O258 C239 1.247 . S
C259 O256 1.244 . S
C259 O257 1.240 . S
H260 C234 0.931 . S
H261 C243 0.931 . S
H262 C247 0.929 . S
H263 C249 0.930 . S
C264 C265 1.363 . S
C264 C270 1.379 . S
C264 N272 1.356 . S
C265 C264 1.363 . S
C265 C271 1.363 1_554 S
C266 C267 1.363 1_556 S
C266 C271 1.379 . S
C266 N273 1.356 . S
C267 C266 1.363 1_554 S
C267 C270 1.363 . S
N268 C270 1.356 . S
N268 H280 0.984 . S
N268 H281 0.985 . S
N269 C271 1.356 . S
N269 H274 0.984 . S
N269 H275 0.985 . S
C270 C264 1.379 . S
C270 C267 1.363 . S
C270 N268 1.356 . S
C271 C265 1.363 1_556 S
C271 C266 1.379 . S
C271 N269 1.356 . S
N272 C264 1.356 . S
N272 H278 0.984 . S
N272 H279 0.984 . S
N273 C266 1.356 . S
N273 H276 0.984 . S
N273 H277 0.985 . S
H274 N269 0.984 . S
H275 N269 0.985 . S
H276 N273 0.984 . S
H277 N273 0.985 . S
H278 N272 0.984 . S
H279 N272 0.984 . S
H280 N268 0.984 . S
H281 N268 0.985 . S
C282 C283 1.363 1_565 S
C282 C288 1.379 . S
C282 N290 1.356 1_565 S
C283 C282 1.363 1_545 S
C283 C289 1.363 . S
C284 C285 1.363 . S
C284 C289 1.379 1_565 S
C284 N291 1.356 . S
C285 C284 1.363 . S
C285 C288 1.363 . S
N286 C288 1.356 . S
N286 H298 0.984 . S
N286 H299 0.985 . S
N287 C289 1.356 . S
N287 H292 0.984 . S
N287 H293 0.985 . S
C288 C282 1.379 . S
C288 C285 1.363 . S
C288 N286 1.356 . S
C289 C283 1.363 . S
C289 C284 1.379 1_545 S
C289 N287 1.356 . S
N290 C282 1.356 1_545 S
N290 H296 0.984 1_545 S
N290 H297 0.984 . S
N291 C284 1.356 . S
N291 H294 0.984 . S
N291 H295 0.985 1_565 S
H292 N287 0.984 . S
H293 N287 0.985 . S
H294 N291 0.984 . S
H295 N291 0.985 1_545 S
H296 N290 0.984 1_565 S
H297 N290 0.984 . S
H298 N286 0.984 . S
H299 N286 0.985 . S
C300 C301 1.363 1_545 S
C300 C306 1.396 . S
C300 N308 1.356 1_545 S
C301 C300 1.363 1_565 S
C301 C307 1.363 . S
C302 C303 1.363 . S
C302 C307 1.379 1_445 S
C302 N309 1.356 . S
C303 C302 1.363 . S
C303 C306 1.346 1_455 S
N304 C306 1.350 1_455 S
N304 H316 0.984 1_455 S
N304 H317 0.985 . S
N305 C307 1.356 . S
N305 H310 0.984 . S
N305 H311 0.977 1_655 S
C306 C300 1.396 . S
C306 C303 1.346 1_655 S
C306 N304 1.350 1_655 S
C307 C301 1.363 . S
C307 C302 1.379 1_665 S
C307 N305 1.356 . S
N308 C300 1.356 1_565 S
N308 H314 0.984 1_565 S
N308 H315 0.984 . S
N309 C302 1.356 . S
N309 H312 0.984 . S
N309 H313 0.976 1_545 S
H310 N305 0.984 . S
H311 N305 0.977 1_455 S
H312 N309 0.984 . S
H313 N309 0.976 1_565 S
H314 N308 0.984 1_545 S
H315 N308 0.984 . S
H316 N304 0.984 1_655 S
H317 N304 0.985 . S
C318 C319 1.363 . S
C318 C324 1.379 1_455 S
C318 N326 1.356 . S
C319 C318 1.363 . S
C319 C325 1.363 . S
C320 C321 1.381 . S
C320 C325 1.361 1_655 S
C320 N327 1.363 . S
C321 C320 1.381 . S
C321 C324 1.363 . S
N322 C324 1.356 . S
N322 H334 0.984 . S
N322 H335 0.985 . S
N323 C325 1.356 . S
N323 H328 0.984 . S
N323 H329 0.985 . S
C324 C318 1.379 1_655 S
C324 C321 1.363 . S
C324 N322 1.356 . S
C325 C319 1.363 . S
C325 C320 1.361 1_455 S
C325 N323 1.356 . S
N326 C318 1.356 . S
N326 H332 0.984 1_455 S
N326 H333 0.984 . S
N327 C320 1.363 . S
N327 H330 0.984 . S
N327 H331 0.985 1_655 S
H328 N323 0.984 . S
H329 N323 0.985 . S
H330 N327 0.984 . S
H331 N327 0.985 1_455 S
H332 N326 0.984 1_655 S
H333 N326 0.984 . S
H334 N322 0.984 . S
H335 N322 0.985 . S
C336 C337 1.363 . S
C336 C342 1.379 . S
C336 N344 1.356 . S
C337 C336 1.363 . S
C337 C343 1.363 . S
C338 C339 1.363 . S
C338 C343 1.379 . S
C338 N345 1.356 . S
C339 C338 1.363 . S
C339 C342 1.363 . S
N340 C342 1.356 . S
N340 H352 0.984 . S
N340 H353 0.985 . S
N341 C343 1.356 . S
N341 H346 0.984 . S
N341 H347 0.985 . S
C342 C336 1.379 . S
C342 C339 1.363 . S
C342 N340 1.356 . S
C343 C337 1.363 . S
C343 C338 1.379 . S
C343 N341 1.356 . S
N344 C336 1.356 . S
N344 H350 0.984 . S
N344 H351 0.984 . S
N345 C338 1.356 . S
N345 H348 0.984 . S
N345 H349 0.985 . S
H346 N341 0.984 . S
H347 N341 0.985 . S
H348 N345 0.984 . S
H349 N345 0.985 . S
H350 N344 0.984 . S
H351 N344 0.984 . S
H352 N340 0.984 . S
H353 N340 0.985 . S
C354 C355 1.363 . S
C354 C360 1.379 . S
C354 N362 1.356 . S
C355 C354 1.363 . S
C355 C361 1.363 . S
C356 C357 1.363 . S
C356 C361 1.379 . S
C356 N363 1.356 . S
C357 C356 1.363 . S
C357 C360 1.363 . S
N358 C360 1.356 . S
N358 H370 0.984 . S
N358 H371 0.985 . S
N359 C361 1.356 . S
N359 H364 0.984 . S
N359 H365 0.985 . S
C360 C354 1.379 . S
C360 C357 1.363 . S
C360 N358 1.356 . S
C361 C355 1.363 . S
C361 C356 1.379 . S
C361 N359 1.356 . S
N362 C354 1.356 . S
N362 H368 0.984 . S
N362 H369 0.984 . S
N363 C356 1.356 . S
N363 H366 0.984 . S
N363 H367 0.985 . S
H364 N359 0.984 . S
H365 N359 0.985 . S
H366 N363 0.984 . S
H367 N363 0.985 . S
H368 N362 0.984 . S
H369 N362 0.984 . S
H370 N358 0.984 . S
H371 N358 0.985 . S
C372 C373 1.363 . S
C372 C378 1.379 1_556 S
C372 N380 1.356 . S
C373 C372 1.363 . S
C373 C379 1.363 . S
C374 C375 1.363 . S
C374 C379 1.379 1_554 S
C374 N381 1.356 . S
C375 C374 1.363 . S
C375 C378 1.363 . S
N376 C378 1.356 . S
N376 H388 0.984 . S
N376 H389 0.985 . S
N377 C379 1.356 . S
N377 H382 0.984 . S
N377 H383 0.985 . S
C378 C372 1.379 1_554 S
C378 C375 1.363 . S
C378 N376 1.356 . S
C379 C373 1.363 . S
C379 C374 1.379 1_556 S
C379 N377 1.356 . S
N380 C372 1.356 . S
N380 H386 0.984 . S
N380 H387 0.984 . S
N381 C374 1.356 . S
N381 H384 0.984 . S
N381 H385 0.985 . S
H382 N377 0.984 . S
H383 N377 0.985 . S
H384 N381 0.984 . S
H385 N381 0.985 . S
H386 N380 0.984 . S
H387 N380 0.984 . S
H388 N376 0.984 . S
H389 N376 0.985 . S
C390 C391 1.363 . S
C390 C396 1.379 . S
C390 N398 1.356 . S
C391 C390 1.363 . S
C391 C397 1.363 . S
C392 C393 1.363 . S
C392 C397 1.379 . S
C392 N399 1.356 . S
C393 C392 1.363 . S
C393 C396 1.363 . S
N394 C396 1.356 . S
N394 H406 0.984 . S
N394 H407 0.985 . S
N395 C397 1.356 . S
N395 H400 0.984 . S
N395 H401 0.985 . S
C396 C390 1.379 . S
C396 C393 1.363 . S
C396 N394 1.356 . S
C397 C391 1.363 . S
C397 C392 1.379 . S
C397 N395 1.356 . S
N398 C390 1.356 . S
N398 H404 0.984 . S
N398 H405 0.984 . S
N399 C392 1.356 . S
N399 H402 0.984 . S
N399 H403 0.985 . S
H400 N395 0.984 . S
H401 N395 0.985 . S
H402 N399 0.984 . S
H403 N399 0.985 . S
H404 N398 0.984 . S
H405 N398 0.984 . S
H406 N394 0.984 . S
H407 N394 0.985 . S
C408 C409 1.363 . S
C408 C414 1.379 . S
C408 N416 1.356 . S
C409 C408 1.363 . S
C409 C415 1.363 . S
C410 C411 1.363 . S
C410 C415 1.379 . S
C410 N417 1.356 . S
C411 C410 1.363 . S
C411 C414 1.363 . S
N412 C414 1.356 . S
N412 H424 0.984 . S
N412 H425 0.985 . S
N413 C415 1.356 . S
N413 H418 0.984 . S
N413 H419 0.985 . S
C414 C408 1.379 . S
C414 C411 1.363 . S
C414 N412 1.356 . S
C415 C409 1.363 . S
C415 C410 1.379 . S
C415 N413 1.356 . S
N416 C408 1.356 . S
N416 H422 0.984 . S
N416 H423 0.984 . S
N417 C410 1.356 . S
N417 H420 0.984 . S
N417 H421 0.985 . S
H418 N413 0.984 . S
H419 N413 0.985 . S
H420 N417 0.984 . S
H421 N417 0.985 . S
H422 N416 0.984 . S
H423 N416 0.984 . S
H424 N412 0.984 . S
H425 N412 0.985 . S
C426 C427 1.363 . S
C426 C432 1.379 1_554 S
C426 N434 1.356 . S
C427 C426 1.363 . S
C427 C433 1.363 . S
C428 C429 1.363 . S
C428 C433 1.379 1_556 S
C428 N435 1.356 . S
C429 C428 1.363 . S
C429 C432 1.363 . S
N430 C432 1.356 . S
N430 H442 0.984 . S
N430 H443 0.985 . S
N431 C433 1.356 . S
N431 H436 0.984 . S
N431 H437 0.985 . S
C432 C426 1.379 1_556 S
C432 C429 1.363 . S
C432 N430 1.356 . S
C433 C427 1.363 . S
C433 C428 1.379 1_554 S
C433 N431 1.356 . S
N434 C426 1.356 . S
N434 H440 0.984 . S
N434 H441 0.984 . S
N435 C428 1.356 . S
N435 H438 0.984 . S
N435 H439 0.985 . S
H436 N431 0.984 . S
H437 N431 0.985 . S
H438 N435 0.984 . S
H439 N435 0.985 . S
H440 N434 0.984 . S
H441 N434 0.984 . S
H442 N430 0.984 . S
H443 N430 0.985 . S
C444 C445 1.363 . S
C444 C450 1.379 . S
C444 N452 1.356 . S
C445 C444 1.363 . S
C445 C451 1.363 . S
C446 C447 1.363 . S
C446 C451 1.379 . S
C446 N453 1.356 . S
C447 C446 1.363 . S
C447 C450 1.363 . S
N448 C450 1.356 . S
N448 H460 0.984 . S
N448 H461 0.985 . S
N449 C451 1.356 . S
N449 H454 0.984 . S
N449 H455 0.985 . S
C450 C444 1.379 . S
C450 C447 1.363 . S
C450 N448 1.356 . S
C451 C445 1.363 . S
C451 C446 1.379 . S
C451 N449 1.356 . S
N452 C444 1.356 . S
N452 H458 0.984 . S
N452 H459 0.984 . S
N453 C446 1.356 . S
N453 H456 0.984 . S
N453 H457 0.985 . S
H454 N449 0.984 . S
H455 N449 0.985 . S
H456 N453 0.984 . S
H457 N453 0.985 . S
H458 N452 0.984 . S
H459 N452 0.984 . S
H460 N448 0.984 . S
H461 N448 0.985 . S
C462 C463 1.363 . S
C462 C468 1.379 . S
C462 N470 1.356 . S
C463 C462 1.363 . S
C463 C469 1.363 . S
C464 C465 1.363 . S
C464 C469 1.379 . S
C464 N471 1.356 . S
C465 C464 1.363 . S
C465 C468 1.363 . S
N466 C468 1.356 . S
N466 H478 0.984 . S
N466 H479 0.985 . S
N467 C469 1.356 . S
N467 H472 0.984 . S
N467 H473 0.985 . S
C468 C462 1.379 . S
C468 C465 1.363 . S
C468 N466 1.356 . S
C469 C463 1.363 . S
C469 C464 1.379 . S
C469 N467 1.356 . S
N470 C462 1.356 . S
N470 H476 0.984 . S
N470 H477 0.984 . S
N471 C464 1.356 . S
N471 H474 0.984 . S
N471 H475 0.985 . S
H472 N467 0.984 . S
H473 N467 0.985 . S
H474 N471 0.984 . S
H475 N471 0.985 . S
H476 N470 0.984 . S
H477 N470 0.984 . S
H478 N466 0.984 . S
H479 N466 0.985 . S
C480 C481 1.363 . S
C480 C486 1.379 . S
C480 N488 1.356 . S
C481 C480 1.363 . S
C481 C487 1.363 . S
C482 C483 1.363 . S
C482 C487 1.379 . S
C482 N489 1.356 . S
C483 C482 1.363 . S
C483 C486 1.363 . S
N484 C486 1.356 . S
N484 H496 0.984 1_556 S
N484 H497 0.987 . S
N485 C487 1.356 . S
N485 H490 0.984 . S
N485 H491 0.985 . S
C486 C480 1.379 . S
C486 C483 1.363 . S
C486 N484 1.356 . S
C487 C481 1.363 . S
C487 C482 1.379 . S
C487 N485 1.356 . S
N488 C480 1.356 . S
N488 H494 0.984 . S
N488 H495 0.984 . S
N489 C482 1.356 . S
N489 H492 0.984 . S
N489 H493 0.985 . S
H490 N485 0.984 . S
H491 N485 0.985 . S
H492 N489 0.984 . S
H493 N489 0.985 . S
H494 N488 0.984 . S
H495 N488 0.984 . S
H496 N484 0.984 1_554 S
H497 N484 0.987 . S
C498 C499 1.363 . S
C498 C504 1.379 . S
C498 N506 1.356 . S
C499 C498 1.363 . S
C499 C505 1.363 . S
C500 C501 1.363 . S
C500 C505 1.379 . S
C500 N507 1.356 1_554 S
C501 C500 1.363 . S
C501 C504 1.363 . S
N502 C504 1.356 . S
N502 H514 0.984 . S
N502 H515 0.985 . S
N503 C505 1.356 . S
N503 H508 0.984 . S
N503 H509 0.985 . S
C504 C498 1.379 . S
C504 C501 1.363 . S
C504 N502 1.356 . S
C505 C499 1.363 . S
C505 C500 1.379 . S
C505 N503 1.356 . S
N506 C498 1.356 . S
N506 H512 0.984 . S
N506 H513 0.984 . S
N507 C500 1.356 1_556 S
N507 H510 0.984 . S
N507 H511 0.985 . S
H508 N503 0.984 . S
H509 N503 0.985 . S
H510 N507 0.984 . S
H511 N507 0.985 . S
H512 N506 0.984 . S
H513 N506 0.984 . S
H514 N502 0.984 . S
H515 N502 0.985 . S
C516 C517 1.363 . S
C516 C522 1.379 . S
C516 N524 1.356 . S
C517 C516 1.363 . S
C517 C523 1.363 . S
C518 C519 1.363 . S
C518 C523 1.379 . S
C518 N525 1.356 . S
C519 C518 1.363 . S
C519 C522 1.363 . S
N520 C522 1.356 . S
N520 H532 0.984 . S
N520 H533 0.985 . S
N521 C523 1.356 . S
N521 H526 0.984 . S
N521 H527 0.985 . S
C522 C516 1.379 . S
C522 C519 1.363 . S
C522 N520 1.356 . S
C523 C517 1.363 . S
C523 C518 1.379 . S
C523 N521 1.356 . S
N524 C516 1.356 . S
N524 H530 0.984 . S
N524 H531 0.984 . S
N525 C518 1.356 . S
N525 H528 0.984 . S
N525 H529 0.985 . S
H526 N521 0.984 . S
H527 N521 0.985 . S
H528 N525 0.984 . S
H529 N525 0.985 . S
H530 N524 0.984 . S
H531 N524 0.984 . S
H532 N520 0.984 . S
H533 N520 0.985 . S
C534 C535 1.363 . S
C534 C540 1.379 . S
C534 N542 1.356 . S
C535 C534 1.363 . S
C535 C541 1.363 . S
C536 C537 1.363 . S
C536 C541 1.379 . S
C536 N543 1.356 . S
C537 C536 1.363 . S
C537 C540 1.363 . S
N538 C540 1.356 . S
N538 H550 0.984 . S
N538 H551 0.985 . S
N539 C541 1.356 . S
N539 H544 0.984 . S
N539 H545 0.985 . S
C540 C534 1.379 . S
C540 C537 1.363 . S
C540 N538 1.356 . S
C541 C535 1.363 . S
C541 C536 1.379 . S
C541 N539 1.356 . S
N542 C534 1.356 . S
N542 H548 0.984 . S
N542 H549 0.984 . S
N543 C536 1.356 . S
N543 H546 0.984 . S
N543 H547 0.985 . S
H544 N539 0.984 . S
H545 N539 0.985 . S
H546 N543 0.984 . S
H547 N543 0.985 . S
H548 N542 0.984 . S
H549 N542 0.984 . S
H550 N538 0.984 . S
H551 N538 0.985 . S
C552 C553 1.363 . S
C552 C558 1.379 . S
C552 N560 1.356 . S
C553 C552 1.363 . S
C553 C559 1.363 . S
C554 C555 1.363 . S
C554 C559 1.379 . S
C554 N561 1.356 . S
C555 C554 1.363 . S
C555 C558 1.363 . S
N556 C558 1.356 . S
N556 H568 0.984 . S
N556 H569 0.985 . S
N557 C559 1.356 . S
N557 H562 0.984 . S
N557 H563 0.985 . S
C558 C552 1.379 . S
C558 C555 1.363 . S
C558 N556 1.356 . S
C559 C553 1.363 . S
C559 C554 1.379 . S
C559 N557 1.356 . S
N560 C552 1.356 . S
N560 H566 0.984 . S
N560 H567 0.984 . S
N561 C554 1.356 . S
N561 H564 0.984 . S
N561 H565 0.985 . S
H562 N557 0.984 . S
H563 N557 0.985 . S
H564 N561 0.984 . S
H565 N561 0.985 . S
H566 N560 0.984 . S
H567 N560 0.984 . S
H568 N556 0.984 . S
H569 N556 0.985 . S
C570 C571 1.363 . S
C570 C576 1.379 . S
C570 N578 1.356 . S
C571 C570 1.363 . S
C571 C577 1.363 . S
C572 C573 1.363 . S
C572 C577 1.379 . S
C572 N579 1.356 . S
C573 C572 1.363 . S
C573 C576 1.363 . S
N574 C576 1.356 . S
N574 H586 0.984 . S
N574 H587 0.985 . S
N575 C577 1.356 . S
N575 H580 0.984 . S
N575 H581 0.985 . S
C576 C570 1.379 . S
C576 C573 1.363 . S
C576 N574 1.356 . S
C577 C571 1.363 . S
C577 C572 1.379 . S
C577 N575 1.356 . S
N578 C570 1.356 . S
N578 H584 0.984 . S
N578 H585 0.984 . S
N579 C572 1.356 . S
N579 H582 0.984 . S
N579 H583 0.985 . S
H580 N575 0.984 . S
H581 N575 0.985 . S
H582 N579 0.984 . S
H583 N579 0.985 . S
H584 N578 0.984 . S
H585 N578 0.984 . S
H586 N574 0.984 . S
H587 N574 0.985 . S
C588 C589 1.363 . S
C588 C594 1.379 . S
C588 N596 1.356 . S
C589 C588 1.363 . S
C589 C595 1.363 . S
C590 C591 1.363 . S
C590 C595 1.379 . S
C590 N597 1.356 . S
C591 C590 1.363 . S
C591 C594 1.363 . S
N592 C594 1.356 . S
N592 H604 0.984 . S
N592 H605 0.985 . S
N593 C595 1.356 1_554 S
N593 H598 0.984 . S
N593 H599 0.985 . S
C594 C588 1.379 . S
C594 C591 1.363 . S
C594 N592 1.356 . S
C595 C589 1.363 . S
C595 C590 1.379 . S
C595 N593 1.356 1_556 S
N596 C588 1.356 . S
N596 H602 0.984 . S
N596 H603 0.984 . S
N597 C590 1.356 . S
N597 H600 0.984 . S
N597 H601 0.985 . S
H598 N593 0.984 . S
H599 N593 0.985 . S
H600 N597 0.984 . S
H601 N597 0.985 . S
H602 N596 0.984 . S
H603 N596 0.984 . S
H604 N592 0.984 . S
H605 N592 0.985 . S
C606 C607 1.363 . S
C606 C612 1.379 . S
C606 N614 1.356 1_554 S
C607 C606 1.363 . S
C607 C613 1.363 . S
C608 C609 1.363 . S
C608 C613 1.379 . S
C608 N615 1.356 . S
C609 C608 1.363 . S
C609 C612 1.363 . S
N610 C612 1.356 . S
N610 H622 0.984 . S
N610 H623 0.985 . S
N611 C613 1.356 . S
N611 H616 0.984 . S
N611 H617 0.985 . S
C612 C606 1.379 . S
C612 C609 1.363 . S
C612 N610 1.356 . S
C613 C607 1.363 . S
C613 C608 1.379 . S
C613 N611 1.356 . S
N614 C606 1.356 1_556 S
N614 H620 0.984 . S
N614 H621 0.984 . S
N615 C608 1.356 . S
N615 H618 0.984 . S
N615 H619 0.985 . S
H616 N611 0.984 . S
H617 N611 0.985 . S
H618 N615 0.984 . S
H619 N615 0.985 . S
H620 N614 0.984 . S
H621 N614 0.984 . S
H622 N610 0.984 . S
H623 N610 0.985 . S
C265 C248 1.332 . S
C267 C17 1.331 . S
C283 C149 1.321 . S
C285 C50 1.320 . S
C301 C182 1.312 . S
C303 C83 1.311 . S
C319 C215 1.321 . S
C321 C116 1.321 . S
C337 N5 1.467 . S
C339 N14 1.462 . S
C355 N47 1.462 . S
C357 N38 1.467 . S
C373 N71 1.467 . S
C375 N80 1.462 . S
C391 N113 1.463 . S
C393 N104 1.468 . S
C409 N146 1.462 . S
C411 N137 1.467 . S
C427 N179 1.455 . S
C429 N170 1.460 . S
C445 N212 1.462 . S
C447 N203 1.467 . S
C463 N245 1.469 . S
C465 N236 1.475 . S
C481 C226 1.398 . S
C483 C8 1.406 . S
C499 C41 1.421 . S
C501 C259 1.418 . S
C517 C160 1.386 . S
C519 C74 1.394 . S
C535 C127 1.372 . S
C537 C193 1.369 . S
C553 C173 1.367 . S
C555 C61 1.364 . S
C571 C94 1.380 . S
C573 C206 1.387 . S
C589 C239 1.415 . S
C591 C107 1.413 . S
C607 C28 1.391 . S
C609 C140 1.400 . S
