# Generated by pormake.
# Topology uow, (4)-cn, num edge types: 1
# Building blocks:
#     Node 0, Type 0, BuildingBlock: TATPOV_clean_sbu_0, # of connection points: 4
#     Node 1, Type 0, BuildingBlock: TATPOV_clean_sbu_0, # of connection points: 4
#     Node 2, Type 0, BuildingBlock: TATPOV_clean_sbu_0, # of connection points: 4
#     Node 3, Type 0, BuildingBlock: TATPOV_clean_sbu_0, # of connection points: 4
#     Node 4, Type 0, BuildingBlock: TATPOV_clean_sbu_0, # of connection points: 4
#     Node 5, Type 0, BuildingBlock: TATPOV_clean_sbu_0, # of connection points: 4
#     Node 6, Type 0, BuildingBlock: TATPOV_clean_sbu_0, # of connection points: 4
#     Node 7, Type 0, BuildingBlock: TATPOV_clean_sbu_0, # of connection points: 4
#     Node 8, Type 0, BuildingBlock: TATPOV_clean_sbu_0, # of connection points: 4
#     Node 9, Type 0, BuildingBlock: TATPOV_clean_sbu_0, # of connection points: 4
#     Node 10, Type 0, BuildingBlock: TATPOV_clean_sbu_0, # of connection points: 4
#     Node 11, Type 0, BuildingBlock: TATPOV_clean_sbu_0, # of connection points: 4
#     Node 12, Type 0, BuildingBlock: TATPOV_clean_sbu_0, # of connection points: 4
#     Node 13, Type 0, BuildingBlock: TATPOV_clean_sbu_0, # of connection points: 4
#     Node 14, Type 0, BuildingBlock: TATPOV_clean_sbu_0, # of connection points: 4
#     Node 15, Type 0, BuildingBlock: TATPOV_clean_sbu_0, # of connection points: 4
#     Node 16, Type 0, BuildingBlock: TATPOV_clean_sbu_0, # of connection points: 4
#     Node 17, Type 0, BuildingBlock: TATPOV_clean_sbu_0, # of connection points: 4
#     Node 18, Type 0, BuildingBlock: TATPOV_clean_sbu_0, # of connection points: 4
#     Node 19, Type 0, BuildingBlock: TATPOV_clean_sbu_0, # of connection points: 4
#     Node 20, Type 0, BuildingBlock: TATPOV_clean_sbu_0, # of connection points: 4
#     Node 21, Type 0, BuildingBlock: TATPOV_clean_sbu_0, # of connection points: 4
#     Node 22, Type 0, BuildingBlock: TATPOV_clean_sbu_0, # of connection points: 4
#     Node 23, Type 0, BuildingBlock: TATPOV_clean_sbu_0, # of connection points: 4
#     Node 24, Type 0, BuildingBlock: TATPOV_clean_sbu_0, # of connection points: 4
#     Node 25, Type 0, BuildingBlock: TATPOV_clean_sbu_0, # of connection points: 4
#     Node 26, Type 0, BuildingBlock: TATPOV_clean_sbu_0, # of connection points: 4
#     Node 27, Type 0, BuildingBlock: TATPOV_clean_sbu_0, # of connection points: 4
#     Node 28, Type 0, BuildingBlock: TATPOV_clean_sbu_0, # of connection points: 4
#     Node 29, Type 0, BuildingBlock: TATPOV_clean_sbu_0, # of connection points: 4
#     Node 30, Type 0, BuildingBlock: TATPOV_clean_sbu_0, # of connection points: 4
#     Node 31, Type 0, BuildingBlock: TATPOV_clean_sbu_0, # of connection points: 4
#     Edge 32, Type (0, 0), BuildingBlock: EZIPEK_clean_linker_0, # of connection points: 2
#     Edge 33, Type (0, 0), BuildingBlock: EZIPEK_clean_linker_0, # of connection points: 2
#     Edge 34, Type (0, 0), BuildingBlock: EZIPEK_clean_linker_0, # of connection points: 2
#     Edge 35, Type (0, 0), BuildingBlock: EZIPEK_clean_linker_0, # of connection points: 2
#     Edge 36, Type (0, 0), BuildingBlock: EZIPEK_clean_linker_0, # of connection points: 2
#     Edge 37, Type (0, 0), BuildingBlock: EZIPEK_clean_linker_0, # of connection points: 2
#     Edge 38, Type (0, 0), BuildingBlock: EZIPEK_clean_linker_0, # of connection points: 2
#     Edge 39, Type (0, 0), BuildingBlock: EZIPEK_clean_linker_0, # of connection points: 2
#     Edge 40, Type (0, 0), BuildingBlock: EZIPEK_clean_linker_0, # of connection points: 2
#     Edge 41, Type (0, 0), BuildingBlock: EZIPEK_clean_linker_0, # of connection points: 2
#     Edge 42, Type (0, 0), BuildingBlock: EZIPEK_clean_linker_0, # of connection points: 2
#     Edge 43, Type (0, 0), BuildingBlock: EZIPEK_clean_linker_0, # of connection points: 2
#     Edge 44, Type (0, 0), BuildingBlock: EZIPEK_clean_linker_0, # of connection points: 2
#     Edge 45, Type (0, 0), BuildingBlock: EZIPEK_clean_linker_0, # of connection points: 2
#     Edge 46, Type (0, 0), BuildingBlock: EZIPEK_clean_linker_0, # of connection points: 2
#     Edge 47, Type (0, 0), BuildingBlock: EZIPEK_clean_linker_0, # of connection points: 2
#     Edge 48, Type (0, 0), BuildingBlock: EZIPEK_clean_linker_0, # of connection points: 2
#     Edge 49, Type (0, 0), BuildingBlock: EZIPEK_clean_linker_0, # of connection points: 2
#     Edge 50, Type (0, 0), BuildingBlock: EZIPEK_clean_linker_0, # of connection points: 2
#     Edge 51, Type (0, 0), BuildingBlock: EZIPEK_clean_linker_0, # of connection points: 2
#     Edge 52, Type (0, 0), BuildingBlock: EZIPEK_clean_linker_0, # of connection points: 2
#     Edge 53, Type (0, 0), BuildingBlock: EZIPEK_clean_linker_0, # of connection points: 2
#     Edge 54, Type (0, 0), BuildingBlock: EZIPEK_clean_linker_0, # of connection points: 2
#     Edge 55, Type (0, 0), BuildingBlock: EZIPEK_clean_linker_0, # of connection points: 2
#     Edge 56, Type (0, 0), BuildingBlock: EZIPEK_clean_linker_0, # of connection points: 2
#     Edge 57, Type (0, 0), BuildingBlock: EZIPEK_clean_linker_0, # of connection points: 2
#     Edge 58, Type (0, 0), BuildingBlock: EZIPEK_clean_linker_0, # of connection points: 2
#     Edge 59, Type (0, 0), BuildingBlock: EZIPEK_clean_linker_0, # of connection points: 2
#     Edge 60, Type (0, 0), BuildingBlock: EZIPEK_clean_linker_0, # of connection points: 2
#     Edge 61, Type (0, 0), BuildingBlock: EZIPEK_clean_linker_0, # of connection points: 2
#     Edge 62, Type (0, 0), BuildingBlock: EZIPEK_clean_linker_0, # of connection points: 2
#     Edge 63, Type (0, 0), BuildingBlock: EZIPEK_clean_linker_0, # of connection points: 2
#     Edge 64, Type (0, 0), BuildingBlock: EZIPEK_clean_linker_0, # of connection points: 2
#     Edge 65, Type (0, 0), BuildingBlock: EZIPEK_clean_linker_0, # of connection points: 2
#     Edge 66, Type (0, 0), BuildingBlock: EZIPEK_clean_linker_0, # of connection points: 2
#     Edge 67, Type (0, 0), BuildingBlock: EZIPEK_clean_linker_0, # of connection points: 2
#     Edge 68, Type (0, 0), BuildingBlock: EZIPEK_clean_linker_0, # of connection points: 2
#     Edge 69, Type (0, 0), BuildingBlock: EZIPEK_clean_linker_0, # of connection points: 2
#     Edge 70, Type (0, 0), BuildingBlock: EZIPEK_clean_linker_0, # of connection points: 2
#     Edge 71, Type (0, 0), BuildingBlock: EZIPEK_clean_linker_0, # of connection points: 2
#     Edge 72, Type (0, 0), BuildingBlock: EZIPEK_clean_linker_0, # of connection points: 2
#     Edge 73, Type (0, 0), BuildingBlock: EZIPEK_clean_linker_0, # of connection points: 2
#     Edge 74, Type (0, 0), BuildingBlock: EZIPEK_clean_linker_0, # of connection points: 2
#     Edge 75, Type (0, 0), BuildingBlock: EZIPEK_clean_linker_0, # of connection points: 2
#     Edge 76, Type (0, 0), BuildingBlock: EZIPEK_clean_linker_0, # of connection points: 2
#     Edge 77, Type (0, 0), BuildingBlock: EZIPEK_clean_linker_0, # of connection points: 2
#     Edge 78, Type (0, 0), BuildingBlock: EZIPEK_clean_linker_0, # of connection points: 2
#     Edge 79, Type (0, 0), BuildingBlock: EZIPEK_clean_linker_0, # of connection points: 2
#     Edge 80, Type (0, 0), BuildingBlock: EZIPEK_clean_linker_0, # of connection points: 2
#     Edge 81, Type (0, 0), BuildingBlock: EZIPEK_clean_linker_0, # of connection points: 2
#     Edge 82, Type (0, 0), BuildingBlock: EZIPEK_clean_linker_0, # of connection points: 2
#     Edge 83, Type (0, 0), BuildingBlock: EZIPEK_clean_linker_0, # of connection points: 2
#     Edge 84, Type (0, 0), BuildingBlock: EZIPEK_clean_linker_0, # of connection points: 2
#     Edge 85, Type (0, 0), BuildingBlock: EZIPEK_clean_linker_0, # of connection points: 2
#     Edge 86, Type (0, 0), BuildingBlock: EZIPEK_clean_linker_0, # of connection points: 2
#     Edge 87, Type (0, 0), BuildingBlock: EZIPEK_clean_linker_0, # of connection points: 2
#     Edge 88, Type (0, 0), BuildingBlock: EZIPEK_clean_linker_0, # of connection points: 2
#     Edge 89, Type (0, 0), BuildingBlock: EZIPEK_clean_linker_0, # of connection points: 2
#     Edge 90, Type (0, 0), BuildingBlock: EZIPEK_clean_linker_0, # of connection points: 2
#     Edge 91, Type (0, 0), BuildingBlock: EZIPEK_clean_linker_0, # of connection points: 2
#     Edge 92, Type (0, 0), BuildingBlock: EZIPEK_clean_linker_0, # of connection points: 2
#     Edge 93, Type (0, 0), BuildingBlock: EZIPEK_clean_linker_0, # of connection points: 2
#     Edge 94, Type (0, 0), BuildingBlock: EZIPEK_clean_linker_0, # of connection points: 2
#     Edge 95, Type (0, 0), BuildingBlock: EZIPEK_clean_linker_0, # of connection points: 2
# Relax obj value: 0.169
# Max RMSD: 0.205
# Mean RMSD: 0.205
data_MOF--net-uow--node1-TATPOV_clean_sbu_0--edge1-EZIPEK_clean_linker_0
_symmetry_space_group_name_H-M    P1
_symmetry_Int_Tables_number       1
_symmetry_cell_setting            triclinic
loop_
_symmetry_equiv_pos_as_xyz
'x, y, z'
_cell_length_a     44.24365
_cell_length_b     44.235141
_cell_length_c     31.065575
_cell_angle_alpha  90.003511
_cell_angle_beta   90.102614
_cell_angle_gamma 89.851229
loop_
_atom_site_label
_atom_site_type_symbol
_atom_site_fract_x
_atom_site_fract_y
_atom_site_fract_z
_atom_type_partial_charge
Zn0 Zn 0.0766 0.34372 0.27739 0.0
Zn1 Zn 0.06572 0.40223 0.28094 0.0
O2 O 0.02375 0.38251 0.28473 0.0
O3 O 0.03211 0.33423 0.27498 0.0
O4 O 0.05408 0.44627 0.27933 0.0
O5 O 0.10006 0.34813 0.22334 0.0
O6 O 0.08736 0.39615 0.22268 0.0
C7 C 0.01361 0.35582 0.27999 0.0
C8 C 0.10178 0.37171 0.35265 0.0
O9 O 0.09162 0.39612 0.3361 0.0
O10 O 0.0978 0.34663 0.33396 0.0
C11 C 0.07172 0.46753 0.26844 0.0
O12 O 0.10023 0.46159 0.26013 0.0
C13 C 0.10032 0.37363 0.20497 0.0
Zn14 Zn 0.93347 0.7658 0.53611 0.0
Zn15 Zn 0.87637 0.76577 0.51458 0.0
O16 O 0.88533 0.72142 0.5336 0.0
O17 O 0.9344 0.72149 0.54484 0.0
O18 O 0.8325 0.76429 0.4963 0.0
O19 O 0.94622 0.78342 0.48083 0.0
O20 O 0.89858 0.78116 0.45996 0.0
C21 C 0.90962 0.70738 0.54333 0.0
C22 C 0.89847 0.80523 0.58864 0.0
O23 O 0.87692 0.79747 0.56378 0.0
O24 O 0.92451 0.79379 0.58451 0.0
C25 C 0.81141 0.76359 0.52403 0.0
O26 O 0.81807 0.76381 0.56525 0.0
C27 C 0.9262 0.7875 0.45246 0.0
Zn28 Zn 0.48836 0.67633 0.76469 0.0
Zn29 Zn 0.48712 0.61609 0.76601 0.0
O30 O 0.53113 0.62548 0.7838 0.0
O31 O 0.53292 0.67487 0.77734 0.0
O32 O 0.48607 0.57104 0.76108 0.0
O33 O 0.4738 0.67836 0.70403 0.0
O34 O 0.47446 0.62852 0.70481 0.0
C35 C 0.54608 0.65003 0.78536 0.0
C36 C 0.4466 0.65102 0.82676 0.0
O37 O 0.45533 0.62554 0.81231 0.0
O38 O 0.4576 0.67539 0.81235 0.0
C39 C 0.49671 0.55294 0.78898 0.0
O40 O 0.50953 0.56351 0.82404 0.0
C41 C 0.46965 0.65338 0.68525 0.0
Zn42 Zn 0.55115 0.16714 -0.00665 0.0
Zn43 Zn 0.60548 0.18466 0.02031 0.0
O44 O 0.57752 0.21658 0.04764 0.0
O45 O 0.53364 0.20579 0.0181 0.0
O46 O 0.64776 0.19912 0.03074 0.0
O47 O 0.56258 0.16591 0.93168 0.0
O48 O 0.60693 0.18206 0.95423 0.0
C49 C 0.54943 0.22221 0.04278 0.0
C50 C 0.58099 0.12527 0.05278 0.0
O51 O 0.60223 0.14459 0.05237 0.0
O52 O 0.55732 0.12994 0.03061 0.0
C53 C 0.66872 0.1807 0.02087 0.0
O54 O 0.66173 0.15288 0.00998 0.0
C55 C 0.58933 0.1741 0.92389 0.0
Zn56 Zn 0.97394 0.70184 0.27515 0.0
Zn57 Zn 0.00179 0.64739 0.27093 0.0
O58 O 0.95769 0.63871 0.25535 0.0
O59 O 0.93345 0.68128 0.2664 0.0
O60 O 0.02165 0.60645 0.27335 0.0
O61 O 0.99263 0.70956 0.33344 0.0
O62 O 0.01131 0.66343 0.33082 0.0
C63 C 0.93298 0.65359 0.25593 0.0
C64 C 0.0196 0.69672 0.20831 0.0
O65 O 0.02434 0.67047 0.22379 0.0
O66 O 0.99888 0.71355 0.22315 0.0
C67 C 0.01741 0.58578 0.24565 0.0
O68 O -0.00033 0.59085 0.21246 0.0
C69 C 0.008 0.68849 0.35033 0.0
Zn70 Zn 0.56333 0.7775 0.45068 0.0
Zn71 Zn 0.62136 0.76899 0.47299 0.0
O72 O 0.60831 0.72625 0.45268 0.0
O73 O 0.56042 0.73342 0.43604 0.0
O74 O 0.6648 0.76389 0.49266 0.0
O75 O 0.55265 0.79228 0.50923 0.0
O76 O 0.60011 0.78439 0.52818 0.0
C77 C 0.58311 0.71605 0.43901 0.0
C78 C 0.60414 0.81302 0.40037 0.0
O79 O 0.6243 0.8004 0.42361 0.0
O80 O 0.57647 0.80709 0.40591 0.0
C81 C 0.68682 0.76467 0.46643 0.0
O82 O 0.68158 0.76765 0.42505 0.0
C83 C 0.57331 0.7929 0.53737 0.0
Zn84 Zn 0.48005 0.31042 0.69596 0.0
Zn85 Zn 0.49238 0.36804 0.71438 0.0
O86 O 0.5338 0.35006 0.69774 0.0
O87 O 0.52384 0.3023 0.68463 0.0
O88 O 0.50236 0.41033 0.73223 0.0
O89 O 0.46304 0.30318 0.75448 0.0
O90 O 0.47088 0.3514 0.76794 0.0
C91 C 0.54268 0.32372 0.68692 0.0
C92 C 0.45104 0.35435 0.6394 0.0
O93 O 0.46454 0.37393 0.66237 0.0
O94 O 0.4536 0.32643 0.64782 0.0
C95 C 0.48111 0.42714 0.74578 0.0
O96 O 0.4535 0.4164 0.74797 0.0
C97 C 0.46104 0.32563 0.7795 0.0
Zn98 Zn 0.90021 0.27024 0.9818 0.0
Zn99 Zn 0.85051 0.24204 -4e-05 0.0
O100 O 0.8384 0.28589 0.98481 0.0
O101 O 0.88067 0.31135 0.98198 0.0
O102 O 0.81094 0.22336 0.01679 0.0
O103 O 0.92227 0.25327 0.03242 0.0
O104 O 0.87869 0.23364 0.05183 0.0
C105 C 0.8521 0.31096 0.97998 0.0
C106 C 0.88417 0.22377 0.92029 0.0
O107 O 0.86284 0.21795 0.94637 0.0
O108 O 0.9015 0.24596 0.92707 0.0
C109 C 0.78882 0.22744 0.99131 0.0
O110 O 0.79292 0.24289 0.95569 0.0
C111 C 0.90677 0.23811 0.05881 0.0
Zn112 Zn 0.99752 0.66244 0.72347 0.0
Zn113 Zn 0.99251 0.60273 0.72634 0.0
O114 O 0.03844 0.6088 0.71524 0.0
O115 O 0.04199 0.65843 0.71359 0.0
O116 O 0.98847 0.55806 0.73554 0.0
O117 O 0.98141 0.66813 0.7829 0.0
O118 O 0.97446 0.61891 0.78318 0.0
C119 C 0.05427 0.63265 0.71085 0.0
C120 C 0.95812 0.63724 0.65789 0.0
O121 O 0.96542 0.61175 0.67391 0.0
O122 O 0.96848 0.66156 0.67345 0.0
C123 C 0.96266 0.54844 0.74686 0.0
O124 O 0.93995 0.56751 0.75 0.0
C125 C 0.97186 0.64457 0.80139 0.0
Zn126 Zn 0.08839 0.25026 0.49441 0.0
Zn127 Zn 0.14663 0.23776 0.50244 0.0
O128 O 0.14451 0.28345 0.48684 0.0
O129 O 0.09617 0.29437 0.48602 0.0
O130 O 0.19109 0.23182 0.51476 0.0
O131 O 0.0787 0.23431 0.55254 0.0
O132 O 0.12712 0.2235 0.55949 0.0
C133 C 0.12334 0.30287 0.48263 0.0
C134 C 0.11099 0.20691 0.43179 0.0
O135 O 0.13626 0.20986 0.4511 0.0
O136 O 0.088 0.22176 0.44379 0.0
C137 C 0.21111 0.23193 0.4855 0.0
O138 O 0.203 0.23471 0.445 0.0
C139 C 0.10029 0.22358 0.57443 0.0
Zn140 Zn 0.45818 0.3089 0.24061 0.0
Zn141 Zn 0.48037 0.36008 0.21466 0.0
O142 O 0.43403 0.36205 0.20901 0.0
O143 O 0.41463 0.321 0.23664 0.0
O144 O 0.49156 0.40411 0.20925 0.0
O145 O 0.48029 0.30693 0.29589 0.0
O146 O 0.50249 0.34773 0.27059 0.0
C147 C 0.41088 0.34627 0.21832 0.0
C148 C 0.49459 0.30718 0.16026 0.0
O149 O 0.49721 0.33578 0.16392 0.0
O150 O 0.47987 0.29228 0.18812 0.0
C151 C 0.51765 0.41453 0.21766 0.0
O152 O 0.54019 0.39583 0.22507 0.0
C153 C 0.50052 0.32689 0.29872 0.0
Zn154 Zn 0.41534 0.78195 0.92071 0.0
Zn155 Zn 0.36695 0.78382 0.95632 0.0
O156 O 0.36962 0.73907 0.93602 0.0
O157 O 0.41861 0.73722 0.92585 0.0
O158 O 0.327 0.78643 0.98689 0.0
O159 O 0.43623 0.80858 0.96341 0.0
O160 O 0.39798 0.79461 0.0036 0.0
C161 C 0.39353 0.72379 0.9287 0.0
C162 C 0.37798 0.8179 0.87286 0.0
O163 O 0.36389 0.81683 0.90857 0.0
O164 O 0.39985 0.80006 0.86644 0.0
C165 C 0.30276 0.77853 0.96807 0.0
O166 O 0.30379 0.76826 0.92843 0.0
C167 C 0.42414 0.80642 5e-05 0.0
Zn168 Zn 0.89014 0.31212 0.7837 0.0
Zn169 Zn 0.90901 0.3671 0.77903 0.0
O170 O 0.94409 0.3474 0.81144 0.0
O171 O 0.93323 0.29982 0.79949 0.0
O172 O 0.92208 0.40979 0.76823 0.0
O173 O 0.87786 0.30855 0.72261 0.0
O174 O 0.90376 0.35078 0.71707 0.0
C175 C 0.95109 0.31956 0.81434 0.0
C176 C 0.85636 0.35231 0.83793 0.0
O177 O 0.87265 0.37202 0.81935 0.0
O178 O 0.86002 0.32459 0.82906 0.0
C179 C 0.93898 0.4245 0.79377 0.0
O180 O 0.94895 0.41171 0.82924 0.0
C181 C 0.89033 0.32846 0.69962 0.0
Zn182 Zn 0.45377 0.27072 0.462 0.0
Zn183 Zn 0.39935 0.2499 0.48306 0.0
O184 O 0.40057 0.29501 0.49867 0.0
O185 O 0.4426 0.31399 0.47352 0.0
O186 O 0.35482 0.24074 0.48693 0.0
O187 O 0.45318 0.25265 0.40307 0.0
O188 O 0.40896 0.23437 0.42244 0.0
C189 C 0.41776 0.31772 0.49296 0.0
C190 C 0.45137 0.22676 0.53403 0.0
O191 O 0.42291 0.22532 0.5278 0.0
O192 O 0.46782 0.2441 0.51157 0.0
C193 C 0.33952 0.23305 0.51965 0.0
O194 O 0.35294 0.22885 0.55692 0.0
C195 C 0.43018 0.23675 0.39509 0.0
Zn196 Zn 0.49037 0.65982 0.26333 0.0
Zn197 Zn 0.51139 0.60646 0.24624 0.0
O198 O 0.46528 0.60095 0.25487 0.0
O199 O 0.44702 0.64693 0.25726 0.0
O200 O 0.52424 0.56385 0.23114 0.0
O201 O 0.51293 0.67796 0.21439 0.0
O202 O 0.52481 0.63184 0.19374 0.0
C203 C 0.44257 0.61868 0.25644 0.0
C204 C 0.53167 0.63965 0.32751 0.0
O205 O 0.53533 0.61762 0.3015 0.0
O206 O 0.51158 0.65944 0.32037 0.0
C207 C 0.51478 0.54239 0.25473 0.0
O208 O 0.49931 0.54874 0.28964 0.0
C209 C 0.52525 0.66035 0.18756 0.0
Zn210 Zn 0.07038 0.83707 0.0623 0.0
Zn211 Zn 0.12296 0.81229 0.04248 0.0
O212 O 0.10341 0.77623 0.073 0.0
O213 O 0.06114 0.79833 0.09422 0.0
O214 O 0.1639 0.79851 0.02234 0.0
O215 O 0.05755 0.84181 0.00158 0.0
O216 O 0.10227 0.82308 0.98504 0.0
C217 C 0.07844 0.77547 0.09337 0.0
C218 C 0.11861 0.8683 0.10142 0.0
O219 O 0.13335 0.84615 0.08567 0.0
O220 O 0.09079 0.87118 0.09275 0.0
C221 C 0.18574 0.79289 0.04772 0.0
O222 O 0.18178 0.79469 0.08951 0.0
C223 C 0.07674 0.83388 0.97377 0.0
Zn224 Zn 0.51098 0.83199 0.78758 0.0
Zn225 Zn 0.51818 0.8891 0.76441 0.0
O226 O 0.47265 0.88761 0.77941 0.0
O227 O 0.46642 0.83924 0.79359 0.0
O228 O 0.52287 0.93165 0.74314 0.0
O229 O 0.5281 0.81662 0.73228 0.0
O230 O 0.53077 0.86411 0.71119 0.0
C231 C 0.45558 0.86559 0.78948 0.0
C232 C 0.55279 0.8637 0.84173 0.0
O233 O 0.5479 0.88572 0.81613 0.0
O234 O 0.53902 0.8389 0.83708 0.0
C235 C 0.54809 0.94107 0.72914 0.0
O236 O 0.57171 0.92302 0.72975 0.0
C237 C 0.53428 0.83597 0.70371 0.0
Zn238 Zn 0.40686 0.27607 0.0283 0.0
Zn239 Zn 0.35038 0.28121 -0.00309 0.0
O240 O 0.35211 0.23549 0.01017 0.0
O241 O 0.39834 0.2319 0.03661 0.0
O242 O 0.31 0.2878 0.96953 0.0
O243 O 0.42536 0.2898 0.97291 0.0
O244 O 0.37877 0.29605 0.94941 0.0
C245 C 0.37342 0.2198 0.0265 0.0
C246 C 0.36804 0.31536 0.07806 0.0
O247 O 0.34786 0.3077 0.05105 0.0
O248 O 0.39491 0.30578 0.07447 0.0
C249 C 0.2866 0.28468 0.99254 0.0
O250 O 0.28945 0.27648 0.033 0.0
C251 C 0.40719 0.29763 0.94347 0.0
Zn252 Zn 0.98392 0.18858 0.29387 0.0
Zn253 Zn 0.9853 0.1331 0.26626 0.0
O254 O 0.02777 0.14027 0.29387 0.0
O255 O 0.02773 0.1889 0.30848 0.0
O256 O 0.98818 0.09024 0.24396 0.0
O257 O 0.96797 0.20424 0.2385 0.0
O258 O 0.97371 0.15832 0.21232 0.0
C259 C 0.04129 0.16372 0.30801 0.0
C260 C 0.94144 0.15106 0.33684 0.0
O261 O 0.95006 0.13123 0.30984 0.0
O262 O 0.95377 0.1768 0.33808 0.0
C263 C 0.98461 0.06827 0.26984 0.0
O264 O 0.97937 0.07375 0.31071 0.0
C265 C 0.96601 0.18595 0.20741 0.0
Zn266 Zn 0.08895 0.73521 0.58718 0.0
Zn267 Zn 0.13816 0.73073 0.54545 0.0
O268 O 0.13956 0.77582 0.56456 0.0
O269 O 0.09312 0.77983 0.58939 0.0
O270 O 0.17682 0.72475 0.51199 0.0
O271 O 0.06434 0.71641 0.54029 0.0
O272 O 0.10482 0.7229 0.50033 0.0
C273 C 0.11798 0.79189 0.57932 0.0
C274 C 0.12563 0.69284 0.62703 0.0
O275 O 0.14052 0.69696 0.59242 0.0
O276 O 0.10324 0.70959 0.63548 0.0
C277 C 0.20224 0.72551 0.53106 0.0
O278 O 0.20338 0.73083 0.57262 0.0
C279 C 0.07691 0.71609 0.50381 0.0
Zn280 Zn 0.60667 0.17851 0.65588 0.0
Zn281 Zn 0.58443 0.12362 0.66997 0.0
O282 O 0.54589 0.14342 0.64723 0.0
O283 O 0.56469 0.18842 0.63219 0.0
O284 O 0.57383 0.08112 0.68637 0.0
O285 O 0.61583 0.18657 0.71784 0.0
O286 O 0.597 0.14113 0.72837 0.0
C287 C 0.5427 0.17005 0.63225 0.0
C288 C 0.63505 0.13436 0.60367 0.0
O289 O 0.61493 0.11783 0.62091 0.0
O290 O 0.63816 0.16144 0.61615 0.0
C291 C 0.56065 0.06235 0.66186 0.0
O292 O 0.552 0.07068 0.62315 0.0
C293 C 0.60837 0.16545 0.74296 0.0
Zn294 Zn 0.05744 0.27382 0.01991 0.0
Zn295 Zn 0.10724 0.28062 0.97219 0.0
O296 O 0.10266 0.23569 0.98529 0.0
O297 O 0.06409 0.22886 0.02818 0.0
O298 O 0.14947 0.28139 0.95041 0.0
O299 O 0.07157 0.30463 0.0629 0.0
O300 O 0.111 0.31141 0.02096 0.0
C301 C 0.08582 0.21792 0.00673 0.0
C302 C 0.0493 0.29367 0.92884 0.0
O303 O 0.07791 0.29271 0.92466 0.0
O304 O 0.03695 0.28733 0.96458 0.0
C305 C 0.16346 0.30597 0.94417 0.0
O306 O 0.14831 0.33151 0.94192 0.0
C307 C 0.09601 0.31812 0.05444 0.0
Zn308 Zn 0.02645 0.82476 0.23364 0.0
Zn309 Zn 9e-05 0.87955 0.23286 0.0
O310 O 0.04616 0.88621 0.22767 0.0
O311 O 0.06846 0.84216 0.23301 0.0
O312 O 0.98532 0.9225 0.23956 0.0
O313 O 0.00582 0.81413 0.28892 0.0
O314 O 0.98319 0.85862 0.28648 0.0
C315 C 0.07037 0.87058 0.22931 0.0
C316 C 0.98345 0.83539 0.16311 0.0
O317 O 0.97965 0.86154 0.17952 0.0
O318 O 0.00255 0.81704 0.17886 0.0
C319 C 0.99602 0.94345 0.21615 0.0
O320 O 0.0145 0.93666 0.18457 0.0
C321 C 0.98712 0.83295 0.30421 0.0
Zn322 Zn 0.43324 0.66329 0.42148 0.0
Zn323 Zn 0.37816 0.68048 0.44487 0.0
O324 O 0.3935 0.71999 0.41813 0.0
O325 O 0.4389 0.70522 0.39729 0.0
O326 O 0.33672 0.69058 0.46796 0.0
O327 O 0.44712 0.65427 0.48052 0.0
O328 O 0.40159 0.66911 0.50036 0.0
C329 C 0.41869 0.72547 0.39995 0.0
C330 C 0.38772 0.62929 0.37911 0.0
O331 O 0.37015 0.64763 0.39854 0.0
O332 O 0.41594 0.63051 0.38543 0.0
C333 C 0.31557 0.70145 0.44492 0.0
O334 O 0.3201 0.70653 0.40378 0.0
C335 C 0.42804 0.65958 0.50973 0.0
Zn336 Zn 0.46857 0.15275 0.16378 0.0
Zn337 Zn 0.44407 0.10263 0.1931 0.0
O338 O 0.48794 0.09125 0.17581 0.0
O339 O 0.50952 0.13433 0.1593 0.0
O340 O 0.43081 0.06269 0.21786 0.0
O341 O 0.4574 0.17563 0.21641 0.0
O342 O 0.43916 0.13313 0.24302 0.0
C343 C 0.51132 0.1061 0.16502 0.0
C344 C 0.41726 0.13255 0.11402 0.0
O345 O 0.415 0.11211 0.14274 0.0
O346 O 0.439 0.1511 0.11488 0.0
C347 C 0.43572 0.03977 0.19418 0.0
O348 O 0.44424 0.04388 0.15413 0.0
C349 C 0.445 0.16126 0.24672 0.0
Zn350 Zn 0.5756 0.74131 0.95707 0.0
Zn351 Zn 0.63152 0.73742 0.97927 0.0
O352 O 0.62633 0.78283 0.96181 0.0
O353 O 0.57711 0.78614 0.95333 0.0
O354 O 0.67489 0.73388 -0.00074 0.0
O355 O 0.56049 0.72109 0.00942 0.0
O356 O 0.60746 0.7226 0.03284 0.0
C357 C 0.60276 0.79865 0.95412 0.0
C358 C 0.60818 0.70276 0.90118 0.0
O359 O 0.62957 0.70755 0.92783 0.0
O360 O 0.58304 0.71603 0.90525 0.0
C361 C 0.69692 0.74418 0.97758 0.0
O362 O 0.69177 0.75818 0.941 0.0
C363 C 0.57968 0.71603 0.03869 0.0
Zn364 Zn 0.01833 0.83277 0.7156 0.0
Zn365 Zn 0.01852 0.89255 0.72778 0.0
O366 O 0.97484 0.88437 0.7065 0.0
O367 O 0.97417 0.83477 0.7018 0.0
O368 O 0.01785 0.93612 0.74512 0.0
O369 O 0.03204 0.82366 0.77537 0.0
O370 O 0.03101 0.87306 0.78489 0.0
C371 C 0.96062 0.85992 0.69895 0.0
C372 C 0.06144 0.86579 0.66274 0.0
O373 O 0.05204 0.88939 0.68203 0.0
O374 O 0.05003 0.84016 0.6706 0.0
C375 C 0.0049 0.95697 0.72393 0.0
O376 O 0.99158 0.95078 0.68717 0.0
C377 C 0.03587 0.84651 0.79913 0.0
Zn378 Zn 0.93041 0.2671 0.45173 0.0
Zn379 Zn 0.87422 0.28308 0.43375 0.0
O380 O 0.8725 0.23685 0.42503 0.0
O381 O 0.91726 0.22354 0.44913 0.0
O382 O 0.8314 0.29722 0.42752 0.0
O383 O 0.93058 0.28817 0.50849 0.0
O384 O 0.88214 0.29587 0.49621 0.0
C385 C 0.89137 0.21622 0.43514 0.0
C386 C 0.92557 0.30469 0.37672 0.0
O387 O 0.89767 0.30565 0.38664 0.0
O388 O 0.94399 0.2889 0.3984 0.0
C389 C 0.81165 0.28377 0.40496 0.0
O390 O 0.81969 0.26117 0.38007 0.0
C391 C 0.90502 0.29746 0.52094 0.0
Zn392 Zn 0.51724 0.81092 0.23102 0.0
Zn393 Zn 0.49518 0.86556 0.24473 0.0
O394 O 0.5398 0.86768 0.26412 0.0
O395 O 0.55961 0.82468 0.24318 0.0
O396 O 0.48097 0.90877 0.2461 0.0
O397 O 0.50084 0.80824 0.17141 0.0
O398 O 0.48456 0.85468 0.18213 0.0
C399 C 0.56278 0.85039 0.2605 0.0
C400 C 0.47164 0.81444 0.29853 0.0
O401 O 0.46956 0.84229 0.28851 0.0
O402 O 0.49055 0.79729 0.28001 0.0
C403 C 0.45309 0.91569 0.24444 0.0
O404 O 0.4326 0.89431 0.24675 0.0
C405 C 0.48694 0.83144 0.1582 0.0
Zn406 Zn 0.93664 0.68548 0.05606 0.0
Zn407 Zn 0.88072 0.70095 0.03408 0.0
O408 O 0.89897 0.74255 0.04972 0.0
O409 O 0.94399 0.7287 0.07313 0.0
O410 O 0.83799 0.71007 0.01479 0.0
O411 O 0.94687 0.67189 -0.00329 0.0
O412 O 0.89925 0.68077 0.98003 0.0
C413 C 0.92445 0.74912 0.0665 0.0
C414 C 0.8925 0.65714 0.10913 0.0
O415 O 0.87464 0.67402 0.08764 0.0
O416 O 0.92034 0.65643 0.09979 0.0
C417 C 0.81962 0.72534 0.03754 0.0
O418 O 0.82836 0.7361 0.07493 0.0
C419 C 0.9256 0.67163 0.96952 0.0
Zn420 Zn 0.02507 0.19931 0.81519 0.0
Zn421 Zn 0.02179 0.14012 0.79866 0.0
O422 O 0.97709 0.15232 0.80638 0.0
O423 O 0.97967 0.20143 0.81626 0.0
O424 O 0.01982 0.09718 0.77871 0.0
O425 O 0.04731 0.20844 0.76082 0.0
O426 O 0.04517 0.15948 0.74845 0.0
C427 C 0.96403 0.17763 0.81273 0.0
C428 C 0.05272 0.16004 0.88006 0.0
O429 O 0.04434 0.13817 0.85634 0.0
O430 O 0.04761 0.18715 0.8691 0.0
C431 C 0.00465 0.07686 0.79763 0.0
O432 O 0.98954 0.08341 0.83279 0.0
C433 C 0.05326 0.18594 0.73721 0.0
Zn434 Zn 0.58133 0.23462 0.4941 0.0
Zn435 Zn 0.63469 0.25946 0.47517 0.0
O436 O 0.64117 0.21349 0.47647 0.0
O437 O 0.59707 0.19219 0.48546 0.0
O438 O 0.67609 0.27243 0.45804 0.0
O439 O 0.56209 0.25798 0.44601 0.0
O440 O 0.60629 0.27824 0.43047 0.0
C441 C 0.62526 0.18966 0.47945 0.0
C442 C 0.60647 0.27405 0.56058 0.0
O443 O 0.62804 0.27826 0.53426 0.0
O444 O 0.58525 0.25585 0.55177 0.0
C445 C 0.68408 0.29437 0.43435 0.0
O446 O 0.66385 0.31337 0.41917 0.0
C447 C 0.57803 0.27572 0.42365 0.0
C448 C 0.09179 0.38556 0.12758 0.0
C449 C 0.11138 0.37467 0.15999 0.0
C450 C 0.13174 0.3366 0.11113 0.0
C451 C 0.10659 0.34207 0.08378 0.0
N452 N 0.06666 0.37503 0.05956 0.0
N453 N 0.1586 0.35117 0.17654 0.0
C454 C 0.08824 0.36811 0.08953 0.0
C455 C 0.1347 0.35426 0.14906 0.0
N456 N 0.07687 0.41224 0.13354 0.0
N457 N 0.15095 0.31307 0.10283 0.0
H458 H 0.16019 0.3643 0.20442 0.0
H459 H 0.17749 0.33779 0.17043 0.0
H460 H 0.14944 0.29993 0.07507 0.0
H461 H 0.16807 0.30609 0.12357 0.0
H462 H 0.0629 0.42225 0.11063 0.0
H463 H 0.08126 0.42603 0.16001 0.0
H464 H 0.05034 0.39175 0.06357 0.0
H465 H 0.06491 0.36337 0.03043 0.0
C466 C 0.96723 0.84058 0.37906 0.0
C467 C 0.96768 0.82362 0.34036 0.0
C468 C 0.9364 0.78431 0.37335 0.0
C469 C 0.93559 0.80154 0.41171 0.0
N470 N 0.94287 0.84916 0.44783 0.0
N471 N 0.94575 0.78412 0.2966 0.0
C472 C 0.94857 0.83079 0.41338 0.0
C473 C 0.95007 0.79692 0.33621 0.0
N474 N 0.98588 0.86493 0.38404 0.0
N475 N 0.92551 0.75543 0.37292 0.0
H476 H 0.95459 0.79328 0.26837 0.0
H477 H 0.93091 0.76628 0.29112 0.0
H478 H 0.91476 0.74564 0.3993 0.0
H479 H 0.92897 0.74049 0.34745 0.0
H480 H 0.98894 0.87605 0.41327 0.0
H481 H 0.00033 0.87257 0.35993 0.0
H482 H 0.94937 0.87175 0.44915 0.0
H483 H 0.92896 0.84262 0.47328 0.0
C484 C 0.47641 0.66941 0.60905 0.0
C485 C 0.45935 0.65341 0.64011 0.0
C486 C 0.42268 0.639 0.58467 0.0
C487 C 0.43797 0.65785 0.55496 0.0
N488 N 0.47536 0.69652 0.54162 0.0
N489 N 0.41337 0.62742 0.65963 0.0
C490 C 0.46375 0.67462 0.56788 0.0
C491 C 0.43169 0.6393 0.62857 0.0
N492 N 0.5051 0.67883 0.61839 0.0
N493 N 0.4003 0.62011 0.57077 0.0
H494 H 0.41884 0.62762 0.69229 0.0
H495 H 0.39153 0.61981 0.65346 0.0
H496 H 0.39324 0.6191 0.53876 0.0
H497 H 0.39062 0.60358 0.5902 0.0
H498 H 0.51963 0.68782 0.59537 0.0
H499 H 0.51554 0.67477 0.64798 0.0
H500 H 0.4924 0.71126 0.55122 0.0
H501 H 0.46597 0.70214 0.51185 0.0
C502 C 0.5862 0.19198 0.80619 0.0
C503 C 0.60757 0.17103 0.7896 0.0
C504 C 0.62035 0.15441 0.86252 0.0
C505 C 0.59928 0.17572 0.87885 0.0
N506 N 0.5688 0.22028 0.8681 0.0
N507 N 0.64939 0.13702 0.80098 0.0
C508 C 0.58444 0.19637 0.85119 0.0
C509 C 0.62615 0.15376 0.81754 0.0
N510 N 0.56614 0.20615 0.77929 0.0
N511 N 0.63354 0.13388 0.88959 0.0
H512 H 0.654 0.13612 0.76806 0.0
H513 H 0.66556 0.12616 0.81988 0.0
H514 H 0.63016 0.13404 0.92281 0.0
H515 H 0.64642 0.11562 0.87901 0.0
H516 H 0.54794 0.21898 0.79023 0.0
H517 H 0.56591 0.20304 0.74604 0.0
H518 H 0.55999 0.23778 0.84944 0.0
H519 H 0.56731 0.22419 0.90117 0.0
C520 C 0.01113 0.70974 0.42526 0.0
C521 C 0.02504 0.69421 0.3906 0.0
C522 C 0.07106 0.68857 0.43364 0.0
C523 C 0.05888 0.70825 0.46518 0.0
N524 N 0.01939 0.74373 0.48478 0.0
N525 N 0.07183 0.67677 0.35806 0.0
C526 C 0.02942 0.72056 0.45942 0.0
C527 C 0.05602 0.68573 0.39363 0.0
N528 N 0.98048 0.71353 0.4263 0.0
N529 N 0.09638 0.67182 0.44205 0.0
H530 H 0.06281 0.67684 0.32706 0.0
H531 H 0.0951 0.67298 0.35865 0.0
H532 H 0.10723 0.67183 0.47188 0.0
H533 H 0.10439 0.65528 0.42101 0.0
H534 H 0.96919 0.72249 0.45285 0.0
H535 H 0.96612 0.70461 0.40288 0.0
H536 H 0.99914 0.75507 0.47892 0.0
H537 H 0.03273 0.75409 0.50816 0.0
C538 C 0.54073 0.78883 0.6024 0.0
C539 C 0.56543 0.80281 0.58139 0.0
C540 C 0.57201 0.83669 0.64308 0.0
C541 C 0.54479 0.8254 0.66109 0.0
N542 N 0.49961 0.79532 0.65249 0.0
N543 N 0.60158 0.84363 0.57835 0.0
C544 C 0.52813 0.80269 0.63929 0.0
C545 C 0.58038 0.82771 0.6008 0.0
N546 N 0.52984 0.76178 0.5879 0.0
N547 N 0.5905 0.85497 0.66682 0.0
H548 H 0.60813 0.8381 0.5471 0.0
H549 H 0.61069 0.86392 0.5893 0.0
H550 H 0.58571 0.86136 0.69839 0.0
H551 H 0.61201 0.86134 0.65673 0.0
H552 H 0.51384 0.74923 0.60473 0.0
H553 H 0.53915 0.7503 0.56172 0.0
H554 H 0.48548 0.78099 0.63506 0.0
H555 H 0.48875 0.80603 0.67809 0.0
C556 C 0.4434 0.32833 0.8995 0.0
C557 C 0.41922 0.30732 0.90129 0.0
C558 C 0.41811 0.30565 0.82279 0.0
C559 C 0.44574 0.32179 0.82142 0.0
N560 N 0.48747 0.34455 0.86007 0.0
N561 N 0.38793 0.27083 0.86381 0.0
C562 C 0.45915 0.3323 0.86017 0.0
C563 C 0.40757 0.29463 0.86273 0.0
N564 N 0.45082 0.34508 0.93491 0.0
N565 N 0.40147 0.30143 0.78617 0.0
H566 H 0.38104 0.26036 0.89217 0.0
H567 H 0.38125 0.25922 0.83619 0.0
H568 H 0.40761 0.31058 0.75649 0.0
H569 H 0.3799 0.29202 0.78643 0.0
H570 H 0.46649 0.36263 0.93401 0.0
H571 H 0.43895 0.34377 0.96383 0.0
H572 H 0.49923 0.34967 0.88822 0.0
H573 H 0.5005 0.34678 0.83236 0.0
C574 C 0.94337 0.24107 0.12056 0.0
C575 C 0.92208 0.22412 0.09639 0.0
C576 C 0.92915 0.18137 0.14547 0.0
C577 C 0.953 0.19712 0.16636 0.0
N578 N 0.98824 0.23874 0.16483 0.0
N579 N 0.90208 0.17469 0.07866 0.0
C580 C 0.96185 0.22598 0.15104 0.0
C581 C 0.91711 0.19321 0.10661 0.0
N582 N 0.94509 0.27175 0.11609 0.0
N583 N 0.91663 0.15618 0.16352 0.0
H584 H 0.89446 0.18174 0.04852 0.0
H585 H 0.90043 0.15141 0.08336 0.0
H586 H 0.92329 0.14736 0.19313 0.0
H587 H 0.89726 0.14596 0.15114 0.0
H588 H 0.95846 0.28522 0.13598 0.0
H589 H 0.93064 0.28408 0.09614 0.0
H590 H 0.99683 0.25866 0.1518 0.0
H591 H 0.00316 0.22767 0.1856 0.0
C592 C 0.96417 0.62967 0.87918 0.0
C593 C 0.956 0.64765 0.84312 0.0
C594 C 0.92515 0.68018 0.88925 0.0
C595 C 0.93229 0.66153 0.92507 0.0
N596 N 0.95056 0.61341 0.95097 0.0
N597 N 0.92035 0.68282 0.81185 0.0
C598 C 0.94918 0.63454 0.91895 0.0
C599 C 0.93372 0.67057 0.84752 0.0
N600 N 0.98738 0.60931 0.8765 0.0
N601 N 0.91213 0.70796 0.89486 0.0
H602 H 0.92511 0.67537 0.7807 0.0
H603 H 0.9021 0.69773 0.81355 0.0
H604 H 0.90656 0.71688 0.92484 0.0
H605 H 0.90961 0.72348 0.86986 0.0
H606 H 0.99615 0.59807 0.90323 0.0
H607 H -0.00021 0.60561 0.84854 0.0
H608 H 0.9603 0.59213 0.9468 0.0
H609 H 0.93901 0.61589 0.98003 0.0
C610 C 0.07037 0.18697 0.61728 0.0
C611 C 0.09323 0.20933 0.61623 0.0
C612 C 0.0957 0.20839 0.69486 0.0
C613 C 0.0688 0.19095 0.69569 0.0
N614 N 0.02805 0.16675 0.65661 0.0
N615 N 0.12666 0.24322 0.65423 0.0
C616 C 0.05563 0.18064 0.65667 0.0
C617 C 0.10602 0.22031 0.65506 0.0
N618 N 0.06289 0.17167 0.58055 0.0
N619 N 0.11163 0.2131 0.73199 0.0
H620 H 0.1348 0.25266 0.6258 0.0
H621 H 0.13401 0.25441 0.68182 0.0
H622 H 0.10511 0.20394 0.76149 0.0
H623 H 0.13282 0.2233 0.73268 0.0
H624 H 0.04833 0.15319 0.58029 0.0
H625 H 0.07382 0.17534 0.55127 0.0
H626 H 0.01616 0.1619 0.62847 0.0
H627 H 0.01553 0.16269 0.68436 0.0
C628 C 0.53908 0.31436 0.40555 0.0
C629 C 0.56283 0.29508 0.3916 0.0
C630 C 0.55193 0.3081 0.31671 0.0
C631 C 0.52479 0.32229 0.33047 0.0
N632 N 0.49237 0.34018 0.38708 0.0
N633 N 0.59197 0.27269 0.3342 0.0
C634 C 0.5185 0.32613 0.37473 0.0
C635 C 0.56981 0.29223 0.34728 0.0
N636 N 0.53661 0.32164 0.4482 0.0
N637 N 0.56017 0.30914 0.27433 0.0
H638 H 0.60561 0.26059 0.35552 0.0
H639 H 0.59558 0.26675 0.30219 0.0
H640 H 0.5472 0.31971 0.25066 0.0
H641 H 0.58114 0.3019 0.26312 0.0
H642 H 0.52132 0.33749 0.46008 0.0
H643 H 0.55189 0.31389 0.47136 0.0
H644 H 0.4846 0.34057 0.41866 0.0
H645 H 0.47776 0.35051 0.3651 0.0
C646 C 0.4881 0.81929 0.07999 0.0
C647 C 0.47174 0.83028 0.11584 0.0
C648 C 0.42612 0.83295 0.07137 0.0
C649 C 0.44105 0.81617 0.0388 0.0
N650 N 0.48569 0.78844 0.01615 0.0
N651 N 0.42329 0.84317 0.14751 0.0
C652 C 0.47203 0.8082 0.04387 0.0
C653 C 0.44025 0.83626 0.11209 0.0
N654 N 0.51897 0.81953 0.08042 0.0
N655 N 0.39886 0.84638 0.06325 0.0
H656 H 0.43209 0.84463 0.17854 0.0
H657 H 0.39977 0.84456 0.14664 0.0
H658 H 0.38838 0.84561 0.03317 0.0
H659 H 0.38846 0.86113 0.08486 0.0
H660 H 0.53196 0.8142 0.05351 0.0
H661 H 0.53142 0.82817 0.10618 0.0
H662 H 0.50767 0.78051 0.02045 0.0
H663 H 0.47427 0.77716 0.99164 0.0
C664 C 0.90989 0.29488 0.6421 0.0
C665 C 0.8948 0.32202 0.65356 0.0
C666 C 0.88937 0.33514 0.57738 0.0
C667 C 0.90107 0.30624 0.56633 0.0
N668 N 0.91547 0.2558 0.58864 0.0
N669 N 0.86709 0.36672 0.6329 0.0
C670 C 0.90939 0.2853 0.5988 0.0
C671 C 0.88373 0.34194 0.62143 0.0
N672 N 0.92573 0.27876 0.67226 0.0
N673 N 0.88464 0.35632 0.54604 0.0
H674 H 0.86275 0.37237 0.66491 0.0
H675 H 0.85573 0.38033 0.6108 0.0
H676 H 0.88878 0.35215 0.51353 0.0
H677 H 0.87904 0.37874 0.55256 0.0
H678 H 0.93955 0.26045 0.66447 0.0
H679 H 0.92785 0.28558 0.70426 0.0
H680 H 0.9186 0.23906 0.61183 0.0
H681 H 0.91411 0.24727 0.5574 0.0
C682 C 0.41841 0.20365 0.28368 0.0
C683 C 0.43755 0.17787 0.28645 0.0
C684 C 0.44663 0.18814 0.36267 0.0
C685 C 0.43096 0.216 0.35818 0.0
N686 N 0.40369 0.25188 0.31457 0.0
N687 N 0.47285 0.14721 0.32687 0.0
C688 C 0.41716 0.22419 0.31876 0.0
C689 C 0.45219 0.17026 0.32563 0.0
N690 N 0.40091 0.20798 0.24786 0.0
N691 N 0.45607 0.17871 0.40245 0.0
H692 H 0.47779 0.13356 0.30044 0.0
H693 H 0.48691 0.14306 0.35313 0.0
H694 H 0.45315 0.19156 0.43031 0.0
H695 H 0.46455 0.15714 0.40849 0.0
H696 H 0.38451 0.22482 0.24537 0.0
H697 H 0.4008 0.19293 0.22199 0.0
H698 H 0.39625 0.26063 0.28528 0.0
H699 H 0.40174 0.26707 0.34013 0.0
C700 C 0.5694 0.66442 0.13615 0.0
C701 C 0.53996 0.67364 0.14914 0.0
C702 C 0.54206 0.71533 0.09788 0.0
C703 C 0.56875 0.7031 0.07975 0.0
N704 N 0.60509 0.66213 0.07736 0.0
N705 N 0.49534 0.70358 0.13363 0.0
C706 C 0.58183 0.67657 0.09769 0.0
C707 C 0.52541 0.6979 0.12752 0.0
N708 N 0.58614 0.64528 0.16122 0.0
N709 N 0.53297 0.74397 0.08765 0.0
H710 H 0.48155 0.68991 0.15258 0.0
H711 H 0.48342 0.7196 0.11569 0.0
H712 H 0.54577 0.75811 0.06797 0.0
H713 H 0.51489 0.7547 0.10283 0.0
H714 H 0.60874 0.6403 0.15487 0.0
H715 H 0.57871 0.63701 0.19075 0.0
H716 H 0.61313 0.64102 0.08706 0.0
H717 H 0.61449 0.6697 0.04861 0.0
C718 C 0.03029 0.82477 0.87282 0.0
C719 C 0.04715 0.84236 0.84331 0.0
C720 C 0.08407 0.85445 0.89943 0.0
C721 C 0.06823 0.83527 0.92805 0.0
N722 N 0.03088 0.79641 0.93938 0.0
N723 N 0.09346 0.86824 0.82525 0.0
C724 C 0.04269 0.81867 0.91395 0.0
C725 C 0.07506 0.85559 0.85562 0.0
N726 N 0.00192 0.815 0.86231 0.0
N727 N 0.10685 0.87247 0.91437 0.0
H728 H 0.08795 0.86899 0.79261 0.0
H729 H 0.11541 0.87537 0.83174 0.0
H730 H 0.11418 0.87223 0.94629 0.0
H731 H 0.11685 0.88937 0.89595 0.0
H732 H 0.9874 0.80487 0.88436 0.0
H733 H 0.99172 0.81948 0.8327 0.0
H734 H 0.01412 0.78159 0.92901 0.0
H735 H 0.03997 0.7907 0.96933 0.0
C736 C 0.14518 0.3562 0.39791 0.0
C737 C 0.11671 0.37086 0.39528 0.0
C738 C 0.10547 0.35546 0.46892 0.0
C739 C 0.12905 0.33393 0.46566 0.0
N740 N 0.18004 0.32635 0.44143 0.0
N741 N 0.07352 0.39188 0.43156 0.0
C742 C 0.15208 0.33859 0.43494 0.0
C743 C 0.09856 0.3738 0.43258 0.0
N744 N 0.16427 0.3575 0.3635 0.0
N745 N 0.08951 0.35726 0.50637 0.0
H746 H 0.06897 0.40628 0.40577 0.0
H747 H 0.05744 0.3928 0.4559 0.0
H748 H 0.0953 0.34394 0.53295 0.0
H749 H 0.07254 0.37303 0.51227 0.0
H750 H 0.18401 0.3448 0.36085 0.0
H751 H 0.1596 0.37129 0.33699 0.0
H752 H 0.19828 0.32971 0.42091 0.0
H753 H 0.18574 0.31572 0.4703 0.0
C754 C 0.89294 0.82 0.66446 0.0
C755 C 0.89503 0.8292 0.62111 0.0
C756 C 0.92307 0.87419 0.64261 0.0
C757 C 0.92919 0.85962 0.68216 0.0
N758 N 0.91159 0.82674 0.7378 0.0
N759 N 0.9046 0.86806 0.56924 0.0
C760 C 0.91048 0.83556 0.69574 0.0
C761 C 0.90678 0.85797 0.61064 0.0
N762 N 0.87629 0.79503 0.67426 0.0
N763 N 0.93361 0.90269 0.63561 0.0
H764 H 0.89204 0.85633 0.54617 0.0
H765 H 0.91531 0.88734 0.55772 0.0
H766 H 0.94415 0.91503 0.65993 0.0
H767 H 0.92924 0.91509 0.60782 0.0
H768 H 0.87429 0.78595 0.70499 0.0
H769 H 0.86356 0.78393 0.65074 0.0
H770 H 0.8993 0.80888 0.7506 0.0
H771 H 0.92454 0.83862 0.76029 0.0
C772 C 0.37847 0.68336 0.87805 0.0
C773 C 0.39296 0.69138 0.91689 0.0
C774 C 0.43244 0.65384 0.90374 0.0
C775 C 0.42314 0.65339 0.8602 0.0
N776 N 0.38442 0.66079 0.80708 0.0
N777 N 0.42602 0.67719 0.97436 0.0
C778 C 0.39461 0.6652 0.8481 0.0
C779 C 0.41699 0.67337 0.9327 0.0
N780 N 0.35019 0.69416 0.86959 0.0
N781 N 0.45715 0.63738 0.91593 0.0
H782 H 0.41424 0.69163 -0.00494 0.0
H783 H 0.44407 0.66588 0.98861 0.0
H784 H 0.46822 0.62296 0.89448 0.0
H785 H 0.46596 0.63698 0.94696 0.0
H786 H 0.33774 0.68854 0.8423 0.0
H787 H 0.33811 0.70657 0.89237 0.0
H788 H 0.36525 0.67112 0.79431 0.0
H789 H 0.39587 0.64669 0.78556 0.0
C790 C 0.55833 0.07812 0.08098 0.0
C791 C 0.57995 0.10132 0.08627 0.0
C792 C 0.56698 0.10607 0.16166 0.0
C793 C 0.5397 0.0909 0.15209 0.0
N794 N 0.5177 0.04919 0.1141 0.0
N795 N 0.61647 0.12156 0.1356 0.0
C796 C 0.53853 0.07177 0.11575 0.0
C797 C 0.58863 0.10948 0.12842 0.0
N798 N 0.55539 0.06467 0.04174 0.0
N799 N 0.57037 0.11941 0.2009 0.0
H800 H 0.63246 0.12289 0.11098 0.0
H801 H 0.6245 0.12725 0.16606 0.0
H802 H 0.55427 0.11643 0.22511 0.0
H803 H 0.58835 0.13349 0.20887 0.0
H804 H 0.53845 0.04932 0.034 0.0
H805 H 0.57046 0.06956 0.01682 0.0
H806 H 0.51576 0.03406 0.0886 0.0
H807 H 0.50425 0.04415 0.14069 0.0
C808 C 0.02846 0.71195 0.13226 0.0
C809 C 0.03958 0.70921 0.17481 0.0
C810 C 0.08295 0.7412 0.15699 0.0
C811 C 0.06892 0.74818 0.11711 0.0
N812 N 0.02998 0.7392 0.06442 0.0
N813 N 0.07747 0.71973 0.22851 0.0
C814 C 0.04236 0.73284 0.10377 0.0
C815 C 0.06728 0.72283 0.18714 0.0
N816 N 0.00463 0.69448 0.11946 0.0
N817 N 0.11085 0.75274 0.16634 0.0
H818 H 0.06708 0.70563 0.25093 0.0
H819 H 0.09532 0.73202 0.24145 0.0
H820 H 0.1225 0.76705 0.14559 0.0
H821 H 0.12359 0.7464 0.19305 0.0
H822 H 0.99675 0.69332 0.08793 0.0
H823 H 0.99422 0.67903 0.14002 0.0
H824 H 0.00891 0.73158 0.05434 0.0
H825 H 0.04069 0.75303 0.04192 0.0
C826 C 0.58798 0.87432 0.32372 0.0
C827 C 0.59046 0.85583 0.28689 0.0
C828 C 0.62326 0.82098 0.32584 0.0
C829 C 0.61188 0.83357 0.36454 0.0
N830 N 0.59145 0.87646 0.40187 0.0
N831 N 0.62379 0.82362 0.24735 0.0
C832 C 0.59766 0.86231 0.36387 0.0
C833 C 0.6133 0.83349 0.28611 0.0
N834 N 0.57578 0.90251 0.3199 0.0
N835 N 0.6409 0.79566 0.32721 0.0
H836 H 0.61601 0.83324 0.21865 0.0
H837 H 0.64136 0.80813 0.24379 0.0
H838 H 0.64902 0.78686 0.35612 0.0
H839 H 0.64732 0.78341 0.30012 0.0
H840 H 0.57403 0.91779 0.34525 0.0
H841 H 0.56997 0.9113 0.28977 0.0
H842 H 0.57856 0.89609 0.4044 0.0
H843 H 0.59929 0.86786 0.43117 0.0
C844 C 0.39315 0.34377 0.55475 0.0
C845 C 0.41355 0.34528 0.51998 0.0
C846 C 0.44916 0.37376 0.56377 0.0
C847 C 0.43359 0.36302 0.60065 0.0
N848 N 0.38721 0.34607 0.63254 0.0
N849 N 0.44995 0.37676 0.48532 0.0
C850 C 0.40385 0.35152 0.59643 0.0
C851 C 0.43771 0.36595 0.52247 0.0
N852 N 0.36437 0.33403 0.54752 0.0
N853 N 0.4759 0.38874 0.56822 0.0
H854 H 0.44079 0.37095 0.45542 0.0
H855 H 0.4669 0.39301 0.48423 0.0
H856 H 0.48406 0.39585 0.59802 0.0
H857 H 0.49008 0.39394 0.54258 0.0
H858 H 0.34772 0.33312 0.57109 0.0
H859 H 0.35683 0.32927 0.51636 0.0
H860 H 0.36646 0.33505 0.63246 0.0
H861 H 0.39478 0.35264 0.663 0.0
C862 C 0.91989 0.16101 0.85647 0.0
C863 C 0.93133 0.1797 0.82345 0.0
C864 C 0.89422 0.21848 0.84224 0.0
C865 C 0.89083 0.20425 0.88279 0.0
N866 N 0.89704 0.15974 0.92715 0.0
N867 N 0.92342 0.22166 0.77598 0.0
C868 C 0.90178 0.17436 0.88906 0.0
C869 C 0.91584 0.20672 0.81285 0.0
N870 N 0.92652 0.13089 0.85671 0.0
N871 N 0.87763 0.24379 0.83325 0.0
H872 H 0.93846 0.21224 0.75378 0.0
H873 H 0.91517 0.24286 0.76743 0.0
H874 H 0.86169 0.25227 0.85492 0.0
H875 H 0.878 0.25499 0.80383 0.0
H876 H 0.91738 0.11575 0.87879 0.0
H877 H 0.93786 0.12056 0.83124 0.0
H878 H 0.90796 0.13968 0.9355 0.0
H879 H 0.88303 0.16822 0.95121 0.0
C880 C 0.90782 0.65152 0.62896 0.0
C881 C 0.93708 0.63968 0.62118 0.0
C882 C 0.9352 0.6578 0.54712 0.0
C883 C 0.90983 0.67561 0.55858 0.0
N884 N 0.86419 0.67843 0.60005 0.0
N885 N 0.97488 0.62327 0.57105 0.0
C886 C 0.89323 0.66841 0.59597 0.0
C887 C 0.94915 0.6394 0.57907 0.0
N888 N 0.89527 0.64827 0.66882 0.0
N889 N 0.94667 0.66055 0.50654 0.0
H890 H 0.98486 0.6096 0.59452 0.0
H891 H 0.98573 0.62244 0.54141 0.0
H892 H 0.93585 0.6739 0.48339 0.0
H893 H 0.96582 0.64938 0.49539 0.0
H894 H 0.87548 0.659 0.67857 0.0
H895 H 0.90542 0.63495 0.69258 0.0
H896 H 0.85028 0.6731 0.62591 0.0
H897 H 0.85305 0.68952 0.57499 0.0
C898 C 0.09218 0.18571 0.31956 0.0
C899 C 0.07145 0.16229 0.32904 0.0
C900 C 0.0911 0.15868 0.40232 0.0
C901 C 0.1071 0.1859 0.39524 0.0
N902 N 0.13103 0.22007 0.34616 0.0
N903 N 0.06095 0.11812 0.37155 0.0
C904 C 0.11085 0.19728 0.35308 0.0
C905 C 0.0745 0.14566 0.36774 0.0
N906 N 0.09228 0.19775 0.27909 0.0
N907 N 0.09026 0.14668 0.44281 0.0
H908 H 0.04985 0.10783 0.34585 0.0
H909 H 0.06342 0.10411 0.39824 0.0
H910 H 0.10334 0.15539 0.46791 0.0
H911 H 0.07629 0.12889 0.45181 0.0
H912 H 0.10511 0.21627 0.26975 0.0
H913 H 0.07919 0.18847 0.25439 0.0
H914 H 0.13548 0.22954 0.31623 0.0
H915 H 0.14474 0.22838 0.37084 0.0
C916 C 0.5497 0.27411 0.07745 0.0
C917 C 0.53451 0.24648 0.06854 0.0
C918 C 0.49013 0.26624 0.10593 0.0
C919 C 0.50755 0.29014 0.1233 0.0
N920 N 0.5565 0.31433 0.12922 0.0
N921 N 0.49195 0.21391 0.0858 0.0
C922 C 0.53803 0.29371 0.10984 0.0
C923 C 0.50502 0.24189 0.08554 0.0
N924 N 0.57467 0.28215 0.05442 0.0
N925 N 0.45935 0.26658 0.10924 0.0
H926 H 0.50316 0.19424 0.07655 0.0
H927 H 0.47139 0.20968 0.10101 0.0
H928 H 0.44757 0.28483 0.12244 0.0
H929 H 0.44569 0.25049 0.09432 0.0
H930 H 0.58496 0.30322 0.05756 0.0
H931 H 0.58282 0.26939 0.02869 0.0
H932 H 0.57966 0.31528 0.12326 0.0
H933 H 0.54951 0.32857 0.15395 0.0
C934 C 0.38849 0.87098 0.85959 0.0
C935 C 0.37564 0.84411 0.84362 0.0
C936 C 0.40266 0.85072 0.77619 0.0
C937 C 0.42303 0.86973 0.79857 0.0
N938 N 0.43177 0.90468 0.85665 0.0
N939 N 0.36026 0.81575 0.78227 0.0
C940 C 0.4142 0.88294 0.83818 0.0
C941 C 0.37849 0.83741 0.79947 0.0
N942 N 0.37738 0.8832 0.89659 0.0
N943 N 0.40816 0.84401 0.73407 0.0
H944 H 0.34313 0.80593 0.80067 0.0
H945 H 0.36177 0.8079 0.75078 0.0
H946 H 0.42615 0.85392 0.71754 0.0
H947 H 0.39446 0.8302 0.71527 0.0
H948 H 0.38493 0.90348 0.90971 0.0
H949 H 0.35857 0.87384 0.91183 0.0
H950 H 0.42842 0.91294 0.88765 0.0
H951 H 0.45004 0.91428 0.84055 0.0
C952 C 0.81211 0.33051 0.93119 0.0
C953 C 0.83637 0.33705 0.95927 0.0
C954 C 0.85289 0.37645 0.90987 0.0
C955 C 0.83834 0.36001 0.87674 0.0
N956 N 0.79598 0.32955 0.85629 0.0
N957 N 0.87072 0.37497 0.98422 0.0
C958 C 0.81438 0.34043 0.88788 0.0
C959 C 0.85314 0.36374 0.95194 0.0
N960 N 0.78826 0.31401 0.94567 0.0
N961 N 0.8671 0.40292 0.90048 0.0
H962 H 0.86994 0.36566 0.01512 0.0
H963 H 0.88574 0.39283 0.98046 0.0
H964 H 0.86539 0.41275 0.87003 0.0
H965 H 0.87788 0.41632 0.92334 0.0
H966 H 0.76929 0.30921 0.92703 0.0
H967 H 0.78667 0.30774 0.97801 0.0
H968 H 0.7799 0.31276 0.86126 0.0
H969 H 0.79769 0.33742 0.82467 0.0
C970 C 0.49967 0.20664 0.63006 0.0
C971 C 0.5135 0.18006 0.61361 0.0
C972 C 0.47617 0.17854 0.55522 0.0
C973 C 0.46654 0.20794 0.56687 0.0
N974 N 0.46768 0.25017 0.6156 0.0
N975 N 0.51611 0.14112 0.55906 0.0
C976 C 0.47755 0.22186 0.60482 0.0
C977 C 0.50165 0.16563 0.57634 0.0
N978 N 0.50764 0.21707 0.66991 0.0
N979 N 0.46132 0.16338 0.52327 0.0
H980 H 0.53509 0.13108 0.57293 0.0
H981 H 0.5107 0.13198 0.52915 0.0
H982 H 0.44271 0.17256 0.50723 0.0
H983 H 0.46549 0.14083 0.51563 0.0
H984 H 0.49681 0.23495 0.68533 0.0
H985 H 0.52341 0.20597 0.68934 0.0
H986 H 0.47744 0.26328 0.6397 0.0
H987 H 0.45026 0.26108 0.59897 0.0
C988 C 0.59642 0.67473 0.38721 0.0
C989 C 0.57948 0.68451 0.42326 0.0
C990 C 0.53982 0.64801 0.40551 0.0
C991 C 0.55255 0.64516 0.36397 0.0
N992 N 0.59479 0.65215 0.31607 0.0
N993 N 0.53954 0.67526 0.47365 0.0
C994 C 0.58193 0.65654 0.35554 0.0
C995 C 0.55287 0.66879 0.43509 0.0
N996 N 0.62588 0.68327 0.38292 0.0
N997 N 0.51464 0.63164 0.41539 0.0
H998 H 0.54985 0.68946 0.49616 0.0
H999 H 0.51873 0.66686 0.48343 0.0
H1000 H 0.50527 0.6163 0.39358 0.0
H1001 H 0.50432 0.63156 0.44544 0.0
H1002 H 0.64006 0.67526 0.35876 0.0
H1003 H 0.63719 0.69561 0.40648 0.0
H1004 H 0.61414 0.66331 0.3057 0.0
H1005 H 0.58544 0.63795 0.29287 0.0
C1006 C 0.14193 0.86655 0.17265 0.0
C1007 C 0.13025 0.88491 0.13941 0.0
C1008 C 0.09914 0.91119 0.19175 0.0
C1009 C 0.09978 0.88419 0.21612 0.0
N1010 N 0.13167 0.84446 0.24306 0.0
N1011 N 0.10978 0.93332 0.12152 0.0
C1012 C 0.12524 0.86498 0.21163 0.0
C1013 C 0.11399 0.9111 0.15127 0.0
N1014 N 0.16702 0.84948 0.16514 0.0
N1015 N 0.08358 0.9356 0.20668 0.0
H1016 H 0.1205 0.93217 0.0916 0.0
H1017 H 0.0958 0.95199 0.12619 0.0
H1018 H 0.0738 0.93535 0.23723 0.0
H1019 H 0.08265 0.9563 0.19078 0.0
H1020 H 0.177 0.83545 0.18802 0.0
H1021 H 0.17876 0.85138 0.13611 0.0
H1022 H 0.14855 0.82812 0.24063 0.0
H1023 H 0.11972 0.84449 0.27205 0.0
C1024 C 0.58005 0.84956 0.95119 0.0
C1025 C 0.60423 0.83046 0.93895 0.0
C1026 C 0.60466 0.85288 0.86735 0.0
C1027 C 0.57574 0.86516 0.87618 0.0
N1028 N 0.54 0.88378 0.92753 0.0
N1029 N 0.64837 0.82528 0.89491 0.0
C1030 C 0.5653 0.86712 0.91904 0.0
C1031 C 0.61985 0.83638 0.90027 0.0
N1032 N 0.57028 0.84866 0.99279 0.0
N1033 N 0.61599 0.85494 0.82663 0.0
H1034 H 0.65978 0.81436 0.9199 0.0
H1035 H 0.66161 0.82941 0.86791 0.0
H1036 H 0.60515 0.8677 0.80287 0.0
H1037 H 0.6355 0.84396 0.81633 0.0
H1038 H 0.5524 0.8614 0.0048 0.0
H1039 H 0.58149 0.83548 0.01577 0.0
H1040 H 0.52989 0.88543 0.95763 0.0
H1041 H 0.52954 0.89671 0.90359 0.0
C1042 C 0.36026 0.32893 0.19451 0.0
C1043 C 0.38178 0.35241 0.19562 0.0
C1044 C 0.37318 0.36276 0.11981 0.0
C1045 C 0.36054 0.33351 0.11635 0.0
N1046 N 0.33419 0.29219 0.14962 0.0
N1047 N 0.39322 0.40149 0.16786 0.0
C1048 C 0.35046 0.3182 0.15371 0.0
C1049 C 0.38238 0.37309 0.16106 0.0
N1050 N 0.35106 0.31629 0.23226 0.0
N1051 N 0.37847 0.37911 0.08339 0.0
H1052 H 0.39964 0.40849 0.19867 0.0
H1053 H 0.39353 0.41831 0.14443 0.0
H1054 H 0.37106 0.37165 0.05326 0.0
H1055 H 0.39024 0.39945 0.08297 0.0
H1056 H 0.33468 0.29952 0.23443 0.0
H1057 H 0.35869 0.32472 0.26176 0.0
H1058 H 0.3286 0.2782 0.17531 0.0
H1059 H 0.32647 0.28461 0.11976 0.0
C1060 C 0.87233 0.17811 0.38281 0.0
C1061 C 0.88654 0.1841 0.42257 0.0
C1062 C 0.92235 0.1433 0.40967 0.0
C1063 C 0.91555 0.14623 0.3655 0.0
N1064 N 0.87919 0.1577 0.31068 0.0
N1065 N 0.91324 0.16253 0.48216 0.0
C1066 C 0.88804 0.15982 0.35262 0.0
C1067 C 0.90707 0.16249 0.43917 0.0
N1068 N 0.84481 0.19055 0.37414 0.0
N1069 N 0.94548 0.12475 0.42182 0.0
H1070 H 0.90179 0.17716 0.50297 0.0
H1071 H 0.92807 0.14756 0.49711 0.0
H1072 H 0.95655 0.11112 0.3993 0.0
H1073 H 0.95328 0.12259 0.45328 0.0
H1074 H 0.83271 0.18649 0.34596 0.0
H1075 H 0.833 0.20253 0.39772 0.0
H1076 H 0.86096 0.16951 0.29768 0.0
H1077 H 0.89095 0.14403 0.28893 0.0
C1078 C 0.11774 0.63831 0.63465 0.0
C1079 C 0.12892 0.66514 0.65328 0.0
C1080 C 0.10618 0.65124 0.72178 0.0
C1081 C 0.08668 0.63171 0.69881 0.0
N1082 N 0.07882 0.59961 0.63726 0.0
N1083 N 0.14333 0.69174 0.71684 0.0
C1084 C 0.09474 0.62214 0.65681 0.0
C1085 C 0.12719 0.66898 0.69828 0.0
N1086 N 0.12792 0.62975 0.59508 0.0
N1087 N 0.10265 0.65407 0.76519 0.0
H1088 H 0.15852 0.70456 0.69873 0.0
H1089 H 0.14179 0.69783 0.7491 0.0
H1090 H 0.08683 0.64104 0.7818 0.0
H1091 H 0.11624 0.66754 0.78466 0.0
H1092 H 0.12161 0.60979 0.57982 0.0
H1093 H 0.145 0.64174 0.5795 0.0
H1094 H 0.08115 0.59384 0.60496 0.0
H1095 H 0.06309 0.5866 0.65389 0.0
C1096 C 0.62151 0.13424 0.49354 0.0
C1097 C 0.6401 0.15989 0.48759 0.0
C1098 C 0.67238 0.14376 0.54651 0.0
C1099 C 0.64783 0.12621 0.56108 0.0
N1100 N 0.61103 0.08999 0.53801 0.0
N1101 N 0.69185 0.17619 0.48954 0.0
C1102 C 0.62681 0.1158 0.53024 0.0
C1103 C 0.66896 0.1599 0.50728 0.0
N1104 N 0.59793 0.12939 0.46616 0.0
N1105 N 0.69675 0.14747 0.57278 0.0
H1106 H 0.6891 0.18704 0.45992 0.0
H1107 H 0.71373 0.17658 0.50191 0.0
H1108 H 0.69843 0.13555 0.60175 0.0
H1109 H 0.71443 0.16228 0.56636 0.0
H1110 H 0.58176 0.11263 0.47058 0.0
H1111 H 0.59498 0.14279 0.43875 0.0
H1112 H 0.59547 0.08079 0.51656 0.0
H1113 H 0.61572 0.07675 0.56507 0.0
C1114 C 0.00544 0.32882 0.8357 0.0
C1115 C 0.97919 0.31026 0.83754 0.0
C1116 C 0.00688 0.27536 0.88436 0.0
C1117 C 0.0292 0.29763 0.89121 0.0
N1118 N 0.0496 0.34669 0.87424 0.0
N1119 N 0.95407 0.26754 0.87158 0.0
C1120 C 0.02876 0.32461 0.86675 0.0
C1121 C 0.97974 0.2836 0.86336 0.0
N1122 N 0.00863 0.3497 0.80365 0.0
N1123 N 0.01132 0.24658 0.89915 0.0
H1124 H 0.93248 0.27477 0.86321 0.0
H1125 H 0.95375 0.24895 0.89214 0.0
H1126 H 0.03131 0.2399 0.91438 0.0
H1127 H 0.99675 0.22878 0.89203 0.0
H1128 H 0.02835 0.36214 0.79918 0.0
H1129 H 0.99316 0.35187 0.77846 0.0
H1130 H 0.04813 0.36816 0.86055 0.0
H1131 H 0.06717 0.34423 0.89639 0.0
C1132 C 0.959 0.79348 0.06447 0.0
C1133 C 0.93201 0.7803 0.08026 0.0
C1134 C 0.93349 0.81304 0.14364 0.0
C1135 C 0.9623 0.82359 0.13032 0.0
N1136 N 0.99843 0.83123 0.07402 0.0
N1137 N 0.88831 0.78457 0.12603 0.0
C1138 C 0.97358 0.81637 0.08903 0.0
C1139 C 0.91731 0.79275 0.11666 0.0
N1140 N 0.97113 0.78298 0.0269 0.0
N1141 N 0.9228 0.8204 0.18359 0.0
H1142 H 0.87599 0.76963 0.10704 0.0
H1143 H 0.8754 0.79478 0.14997 0.0
H1144 H 0.93348 0.83588 0.20378 0.0
H1145 H 0.90417 0.81014 0.19777 0.0
H1146 H 0.99236 0.78896 0.01548 0.0
H1147 H 0.95977 0.76752 0.00733 0.0
H1148 H 0.00698 0.82865 0.0431 0.0
H1149 H 0.00915 0.84811 0.09188 0.0
C1150 C 0.36903 0.62942 0.30549 0.0
C1151 C 0.37756 0.61176 0.34129 0.0
C1152 C 0.41007 0.58159 0.29499 0.0
C1153 C 0.41196 0.60721 0.26797 0.0
N1154 N 0.38436 0.64765 0.23468 0.0
N1155 N 0.39522 0.56379 0.36614 0.0
C1156 C 0.38763 0.62809 0.26825 0.0
C1157 C 0.39335 0.58448 0.33379 0.0
N1158 N 0.34531 0.64892 0.30918 0.0
N1159 N 0.42503 0.55573 0.28424 0.0
H1160 H 0.38313 0.56689 0.39469 0.0
H1161 H 0.40872 0.5445 0.36495 0.0
H1162 H 0.43611 0.55369 0.25472 0.0
H1163 H 0.42406 0.53593 0.30229 0.0
H1164 H 0.33767 0.66277 0.28436 0.0
H1165 H 0.33218 0.64941 0.33709 0.0
H1166 H 0.36844 0.665 0.23372 0.0
H1167 H 0.39802 0.64582 0.20738 0.0
C1168 C 0.402 0.14257 0.03913 0.0
C1169 C 0.39299 0.13856 0.08236 0.0
C1170 C 0.35584 0.17908 0.07551 0.0
C1171 C 0.36982 0.18736 0.0363 0.0
N1172 N 0.39732 0.17244 0.97348 0.0
N1173 N 0.35324 0.14276 0.13434 0.0
C1174 C 0.3895 0.16699 0.01523 0.0
C1175 C 0.36662 0.15305 0.09767 0.0
N1176 N 0.42431 0.12451 0.02301 0.0
N1177 N 0.33435 0.19755 0.09297 0.0
H1178 H 0.36104 0.12343 0.15012 0.0
H1179 H 0.33315 0.15142 0.14665 0.0
H1180 H 0.32568 0.21615 0.07635 0.0
H1181 H 0.32554 0.19486 0.12377 0.0
H1182 H 0.43408 0.12723 0.99284 0.0
H1183 H 0.43295 0.10641 0.04085 0.0
H1184 H 0.41119 0.15839 0.95528 0.0
H1185 H 0.38802 0.19055 0.95635 0.0
C1186 C 0.58443 0.63529 0.841 0.0
C1187 C 0.5774 0.65133 0.80291 0.0
C1188 C 0.61217 0.6915 0.82377 0.0
C1189 C 0.61075 0.68036 0.86632 0.0
N1190 N 0.60226 0.63911 0.91491 0.0
N1191 N 0.59465 0.68628 0.74962 0.0
C1192 C 0.59991 0.65084 0.87442 0.0
C1193 C 0.59536 0.67643 0.79123 0.0
N1194 N 0.57612 0.60577 0.84498 0.0
N1195 N 0.62746 0.71769 0.81601 0.0
H1196 H 0.58241 0.67463 0.72611 0.0
H1197 H 0.60701 0.7045 0.73802 0.0
H1198 H 0.63998 0.72832 0.8402 0.0
H1199 H 0.62822 0.72852 0.78633 0.0
H1200 H 0.58154 0.59239 0.87146 0.0
H1201 H 0.56689 0.5938 0.81921 0.0
H1202 H 0.59185 0.61917 0.92463 0.0
H1203 H 0.61438 0.65013 0.93912 0.0
C1204 C 0.08158 0.86353 0.5891 0.0
C1205 C 0.08759 0.86643 0.6335 0.0
C1206 C 0.13196 0.83398 0.62694 0.0
C1207 C 0.12066 0.8247 0.58657 0.0
N1208 N 0.09434 0.83782 0.52203 0.0
N1209 N 0.12362 0.86492 0.69092 0.0
C1210 C 0.09923 0.84282 0.56478 0.0
C1211 C 0.11525 0.85583 0.65069 0.0
N1212 N 0.05735 0.87841 0.57198 0.0
N1213 N 0.15673 0.8197 0.64351 0.0
H1214 H 0.1108 0.88075 0.70799 0.0
H1215 H 0.14345 0.85821 0.70625 0.0
H1216 H 0.16878 0.80384 0.62542 0.0
H1217 H 0.16555 0.82375 0.67401 0.0
H1218 H 0.04998 0.87598 0.54036 0.0
H1219 H 0.04472 0.89362 0.59042 0.0
H1220 H 0.07918 0.85013 0.50328 0.0
H1221 H 0.10721 0.82194 0.50513 0.0
C1222 C 0.94282 0.3532 0.34365 0.0
C1223 C 0.93739 0.32174 0.33963 0.0
C1224 C 0.97032 0.31952 0.27662 0.0
C1225 C 0.98105 0.34864 0.28755 0.0
N1226 N 0.96518 0.39791 0.31163 0.0
N1227 N 0.9405 0.27595 0.29805 0.0
C1228 C 0.96328 0.36721 0.31471 0.0
C1229 C 0.94888 0.30538 0.30396 0.0
N1230 N 0.93018 0.36908 0.37678 0.0
N1231 N 0.98052 0.30603 0.23987 0.0
H1232 H 0.92376 0.26577 0.3167 0.0
H1233 H 0.95022 0.26155 0.27548 0.0
H1234 H 0.99496 0.3173 0.21872 0.0
H1235 H 0.97275 0.28539 0.22833 0.0
H1236 H 0.93633 0.39111 0.38463 0.0
H1237 H 0.91439 0.35964 0.39769 0.0
H1238 H 0.95145 0.41269 0.32892 0.0
H1239 H 0.97748 0.4084 0.28726 0.0
C1240 C 0.46539 0.79307 0.37201 0.0
C1241 C 0.45225 0.80101 0.33196 0.0
C1242 C 0.41087 0.76538 0.34351 0.0
C1243 C 0.42543 0.75558 0.38182 0.0
N1244 N 0.46052 0.7655 0.43928 0.0
N1245 N 0.4089 0.80212 0.28529 0.0
C1246 C 0.45068 0.77146 0.39841 0.0
C1247 C 0.42351 0.78983 0.31993 0.0
N1248 N 0.49264 0.80514 0.38352 0.0
N1249 N 0.38645 0.74989 0.32804 0.0
H1250 H 0.41806 0.81981 0.26738 0.0
H1251 H 0.38682 0.79677 0.27664 0.0
H1252 H 0.37628 0.73224 0.3448 0.0
H1253 H 0.37707 0.75347 0.29773 0.0
H1254 H 0.50541 0.7977 0.40964 0.0
H1255 H 0.50303 0.8222 0.36569 0.0
H1256 H 0.4775 0.77763 0.45472 0.0
H1257 H 0.44969 0.74993 0.45923 0.0
C1258 C 0.88127 0.66088 0.22434 0.0
C1259 C 0.90587 0.64129 0.23317 0.0
C1260 C 0.8994 0.61693 0.16376 0.0
C1261 C 0.88318 0.64288 0.15032 0.0
N1262 N 0.84548 0.6794 0.17047 0.0
N1263 N 0.92369 0.5905 0.22341 0.0
C1264 C 0.86914 0.66126 0.18184 0.0
C1265 C 0.9096 0.61541 0.20704 0.0
N1266 N 0.87085 0.67942 0.2561 0.0
N1267 N 0.90704 0.59558 0.13404 0.0
H1268 H 0.93014 0.58955 0.25576 0.0
H1269 H 0.92648 0.57039 0.20647 0.0
H1270 H 0.8989 0.59681 0.10248 0.0
H1271 H 0.92136 0.5774 0.14033 0.0
H1272 H 0.85405 0.69564 0.25189 0.0
H1273 H 0.87892 0.67748 0.28762 0.0
H1274 H 0.83451 0.69408 0.19145 0.0
H1275 H 0.83539 0.67785 0.14018 0.0
C1276 C 0.05855 0.16939 -0.00277 0.0
C1277 C 0.08618 0.18517 -0.00469 0.0
C1278 C 0.09795 0.16123 0.92686 0.0
C1279 C 0.06678 0.15494 0.92245 0.0
N1280 N 0.0188 0.14513 0.95563 0.0
N1281 N 0.13765 0.1823 0.97247 0.0
C1282 C 0.04774 0.15542 0.95904 0.0
C1283 C 0.10805 0.17556 0.96518 0.0
N1284 N 0.04265 0.16912 0.03475 0.0
N1285 N 0.1168 0.15594 0.89299 0.0
H1286 H 0.14429 0.19314 0.00084 0.0
H1287 H 0.15528 0.1756 0.95247 0.0
H1288 H 0.10919 0.14502 0.8652 0.0
H1289 H 0.13944 0.16224 0.89231 0.0
H1290 H 0.02267 0.15714 0.03908 0.0
H1291 H 0.05143 0.17901 0.06263 0.0
H1292 H 0.00261 0.14765 0.97965 0.0
H1293 H 0.01109 0.13434 0.9278 0.0
C1294 C 0.6027 0.27605 0.64018 0.0
C1295 C 0.60416 0.29182 0.60064 0.0
C1296 C 0.58384 0.33689 0.63577 0.0
C1297 C 0.57346 0.31821 0.6695 0.0
N1298 N 0.58012 0.27328 0.7115 0.0
N1299 N 0.59918 0.33865 0.56109 0.0
C1300 C 0.58602 0.28897 0.67466 0.0
C1301 C 0.59656 0.323 0.59879 0.0
N1302 N 0.61653 0.24855 0.64379 0.0
N1303 N 0.58118 0.36753 0.63894 0.0
H1304 H 0.60898 0.3295 0.53353 0.0
H1305 H 0.59029 0.36025 0.55658 0.0
H1306 H 0.5738 0.37799 0.66711 0.0
H1307 H 0.58997 0.38243 0.61624 0.0
H1308 H 0.61797 0.23644 0.67237 0.0
H1309 H 0.62879 0.23905 0.61843 0.0
H1310 H 0.58604 0.25078 0.71638 0.0
H1311 H 0.56888 0.28336 0.73736 0.0
C1312 C 0.04317 0.51212 0.29753 0.0
C1313 C 0.05945 0.49859 0.26321 0.0
C1314 C 0.05121 0.54401 0.21929 0.0
C1315 C 0.0319 0.55581 0.25161 0.0
N1316 N 0.00487 0.54843 0.31826 0.0
N1317 N 0.07417 0.49941 0.18827 0.0
C1318 C 0.02664 0.53918 0.28994 0.0
C1319 C 0.0623 0.51395 0.22322 0.0
N1320 N 0.04429 0.49968 0.33778 0.0
N1321 N 0.05984 0.56182 0.18554 0.0
H1322 H 0.08197 0.47719 0.18923 0.0
H1323 H 0.07363 0.50841 0.15728 0.0
H1324 H 0.05259 0.58412 0.1818 0.0
H1325 H 0.07645 0.55546 0.16358 0.0
H1326 H 0.03537 0.51025 0.36492 0.0
H1327 H 0.05683 0.48031 0.34493 0.0
H1328 H 0.9979 0.53543 0.34437 0.0
H1329 H 0.9916 0.56765 0.3134 0.0
C1330 C 0.76731 0.73776 0.48904 0.0
C1331 C 0.77938 0.76357 0.50997 0.0
C1332 C 0.72993 0.78879 0.50624 0.0
C1333 C 0.71842 0.76387 0.48249 0.0
N1334 N 0.72625 0.71571 0.44778 0.0
N1335 N 0.77402 0.81521 0.53354 0.0
C1336 C 0.7372 0.73869 0.47275 0.0
C1337 C 0.76112 0.78945 0.51754 0.0
N1338 N 0.78425 0.7119 0.48642 0.0
N1339 N 0.71107 0.81195 0.51783 0.0
H1340 H 0.79678 0.81661 0.54208 0.0
H1341 H 0.76294 0.83595 0.53528 0.0
H1342 H 0.68867 0.81358 0.50759 0.0
H1343 H 0.71699 0.82877 0.53968 0.0
H1344 H 0.77583 0.69124 0.47587 0.0
H1345 H 0.80635 0.71039 0.498 0.0
H1346 H 0.7397 0.6986 0.435 0.0
H1347 H 0.70378 0.71452 0.43771 0.0
C1348 C 0.50063 0.47891 0.72836 0.0
C1349 C 0.48722 0.4588 0.75831 0.0
C1350 C 0.48021 0.50047 0.80934 0.0
C1351 C 0.49549 0.52006 0.78054 0.0
N1352 N 0.52703 0.52616 0.71786 0.0
N1353 N 0.47084 0.44873 0.83097 0.0
C1354 C 0.5078 0.50872 0.74162 0.0
C1355 C 0.47897 0.46906 0.79996 0.0
N1356 N 0.50507 0.47017 0.68661 0.0
N1357 N 0.46559 0.51195 0.84448 0.0
H1358 H 0.47032 0.42546 0.8256 0.0
H1359 H 0.46756 0.45465 0.86309 0.0
H1360 H 0.46556 0.53486 0.85231 0.0
H1361 H 0.45129 0.49912 0.86379 0.0
H1362 H 0.51172 0.48506 0.66246 0.0
H1363 H 0.49931 0.44884 0.675 0.0
H1364 H 0.53901 0.51795 0.69147 0.0
H1365 H 0.53349 0.54787 0.72718 0.0
C1366 C 0.74373 0.22059 0.03978 0.0
C1367 C 0.75886 0.21411 0.00052 0.0
C1368 C 0.71386 0.18827 0.97357 0.0
C1369 C 0.6999 0.19186 0.01439 0.0
N1370 N 0.70365 0.20661 0.08896 0.0
N1371 N 0.76093 0.18537 0.93448 0.0
C1372 C 0.71546 0.20661 0.04834 0.0
C1373 C 0.7447 0.19601 0.96872 0.0
N1374 N 0.75553 0.24119 0.06794 0.0
N1375 N 0.69734 0.1791 0.9387 0.0
H1376 H 0.78393 0.18962 0.93048 0.0
H1377 H 0.75235 0.16964 0.91269 0.0
H1378 H 0.67421 0.17477 0.94002 0.0
H1379 H 0.70584 0.17907 0.90744 0.0
H1380 H 0.74385 0.24911 0.09476 0.0
H1381 H 0.77577 0.25256 0.06246 0.0
H1382 H 0.71549 0.2143 0.11581 0.0
H1383 H 0.68314 0.19632 0.0965 0.0
C1384 C 0.93926 0.47981 0.81181 0.0
C1385 C 0.94715 0.45604 0.78327 0.0
C1386 C 0.96456 0.49294 0.72999 0.0
C1387 C 0.9586 0.51653 0.75973 0.0
N1388 N 0.9474 0.5319 0.83258 0.0
N1389 N 0.97358 0.4394 0.7196 0.0
C1390 C 0.94805 0.50982 0.80177 0.0
C1391 C 0.96168 0.46243 0.74361 0.0
N1392 N 0.92211 0.47404 0.84743 0.0
N1393 N 0.97164 0.4996 0.68824 0.0
H1394 H 0.97251 0.41679 0.72902 0.0
H1395 H 0.98708 0.44292 0.69263 0.0
H1396 H 0.97363 0.52166 0.67678 0.0
H1397 H 0.97293 0.48333 0.66406 0.0
H1398 H 0.91291 0.49101 0.86666 0.0
H1399 H 0.91465 0.45246 0.85567 0.0
H1400 H 0.94286 0.52756 0.86489 0.0
H1401 H 0.95442 0.55403 0.82685 0.0
C1402 C 0.28762 0.25398 0.53258 0.0
C1403 C 0.30623 0.23073 0.51545 0.0
C1404 C 0.26165 0.2061 0.48397 0.0
C1405 C 0.2436 0.23094 0.49724 0.0
N1406 N 0.23956 0.28041 0.52953 0.0
N1407 N 0.31197 0.1856 0.4727 0.0
C1408 C 0.25654 0.25525 0.52075 0.0
C1409 C 0.2935 0.20702 0.49056 0.0
N1410 N 0.29972 0.27505 0.5598 0.0
N1411 N 0.24816 0.18118 0.46644 0.0
H1412 H 0.3351 0.18438 0.4791 0.0
H1413 H 0.30477 0.16998 0.44984 0.0
H1414 H 0.22489 0.1797 0.46135 0.0
H1415 H 0.25949 0.16101 0.46016 0.0
H1416 H 0.2868 0.29041 0.57731 0.0
H1417 H 0.32265 0.27592 0.56745 0.0
H1418 H 0.24845 0.30036 0.54193 0.0
H1419 H 0.2168 0.2824 0.52124 0.0
C1420 C 0.50817 0.49917 0.20256 0.0
C1421 C 0.51955 0.51033 0.24231 0.0
C1422 C 0.5307 0.45856 0.26567 0.0
C1423 C 0.52114 0.44753 0.22487 0.0
N1424 N 0.5075 0.4579 0.1512 0.0
N1425 N 0.54859 0.50148 0.30681 0.0
C1426 C 0.51204 0.46807 0.19224 0.0
C1427 C 0.53307 0.49025 0.27228 0.0
N1428 N 0.49202 0.51771 0.17579 0.0
N1429 N 0.53557 0.43905 0.29913 0.0
H1430 H 0.55118 0.52461 0.31226 0.0
H1431 H 0.56146 0.48799 0.32737 0.0
H1432 H 0.53302 0.41571 0.29662 0.0
H1433 H 0.53925 0.44624 0.33064 0.0
H1434 H 0.48034 0.50988 0.14888 0.0
H1435 H 0.48791 0.54045 0.18238 0.0
H1436 H 0.50375 0.47226 0.12514 0.0
H1437 H 0.51051 0.43531 0.14246 0.0
C1438 C 0.22926 0.75993 0.02602 0.0
C1439 C 0.21647 0.78921 0.02984 0.0
C1440 C 0.26154 0.81169 -0.00311 0.0
C1441 C 0.27332 0.78218 0.99004 0.0
N1442 N 0.26839 0.72803 -0.00493 0.0
N1443 N 0.21876 0.84298 0.01753 0.0
C1444 C 0.25716 0.75622 0.00379 0.0
C1445 C 0.23222 0.81513 0.01504 0.0
N1446 N 0.21487 0.73579 0.04427 0.0
N1447 N 0.27849 0.83641 0.98619 0.0
H1448 H 0.19812 0.84669 0.03287 0.0
H1449 H 0.2271 0.8623 0.00269 0.0
H1450 H 0.29916 0.83493 0.97027 0.0
H1451 H 0.27303 0.85845 -0.00504 0.0
H1452 H 0.22423 0.71426 0.04668 0.0
H1453 H 0.19407 0.7377 0.05981 0.0
H1454 H 0.25634 0.70813 -0.00034 0.0
H1455 H 0.28947 0.72444 0.98096 0.0
C1456 C 0.54132 0.99723 0.73625 0.0
C1457 C 0.55054 0.97201 0.71122 0.0
C1458 C 0.56744 0.0061 0.65394 0.0
C1459 C 0.55565 0.03106 0.6773 0.0
N1460 N 0.52515 0.04953 0.73608 0.0
N1461 N 0.56587 0.95203 0.64221 0.0
C1462 C 0.54073 0.02637 0.71713 0.0
C1463 C 0.56174 0.97629 0.66886 0.0
N1464 N 0.53446 0.99366 0.77884 0.0
N1465 N 0.58533 0.01074 0.61873 0.0
H1466 H 0.56116 0.92986 0.65139 0.0
H1467 H 0.571 0.95419 0.60964 0.0
H1468 H 0.59074 0.03216 0.60719 0.0
H1469 H 0.59716 0.99342 0.60345 0.0
H1470 H 0.53069 0.01178 0.7996 0.0
H1471 H 0.53551 0.97286 0.79457 0.0
H1472 H 0.51136 0.04659 0.7629 0.0
H1473 H 0.52343 0.07102 0.72244 0.0
C1474 C 0.24397 0.27821 0.93968 0.0
C1475 C 0.25667 0.2935 0.97553 0.0
C1476 C 0.20912 0.32036 0.98768 0.0
C1477 C 0.19653 0.30577 0.951 0.0
N1478 N 0.20377 0.27655 0.88646 0.0
N1479 N 0.25468 0.33552 0.02492 0.0
C1480 C 0.21465 0.28659 0.92508 0.0
C1481 C 0.2403 0.31667 -0.00331 0.0
N1482 N 0.25913 0.25462 0.9211 0.0
N1483 N 0.19114 0.33593 0.01582 0.0
H1484 H 0.27773 0.33385 0.03175 0.0
H1485 H 0.24451 0.35472 0.03794 0.0
H1486 H 0.168 0.33896 0.01169 0.0
H1487 H 0.19878 0.34364 0.04561 0.0
H1488 H 0.24955 0.24047 0.89805 0.0
H1489 H 0.28055 0.24763 0.93106 0.0
H1490 H 0.21684 0.26477 0.86419 0.0
H1491 H 0.18241 0.2826 0.87494 0.0
C1492 C 0.96877 0.02517 0.22181 0.0
C1493 C 0.9879 0.03661 0.25477 0.0
C1494 C 0.01009 0.98625 0.26482 0.0
C1495 C 0.99267 0.97537 0.22968 0.0
N1496 N 0.95873 0.98499 0.1705 0.0
N1497 N 0.03129 0.02983 0.30098 0.0
C1498 C 0.97309 0.99505 0.20675 0.0
C1499 C 0.00977 0.01761 0.27456 0.0
N1500 N 0.94553 0.04253 0.20641 0.0
N1501 N 0.02684 0.9666 0.28916 0.0
H1502 H 0.0325 0.05288 0.30783 0.0
H1503 H 0.04978 0.01772 0.31264 0.0
H1504 H 0.02874 0.94361 0.2823 0.0
H1505 H 0.03705 0.97264 0.31813 0.0
H1506 H 0.92886 0.03436 0.18579 0.0
H1507 H 0.94129 0.06449 0.21706 0.0
H1508 H 0.94688 0.99913 0.14961 0.0
H1509 H 0.96041 0.96274 0.1596 0.0
C1510 C 0.26629 0.68343 0.47508 0.0
C1511 C 0.28573 0.70781 0.46454 0.0
C1512 C 0.25037 0.74385 0.49754 0.0
C1513 C 0.23049 0.71958 0.50688 0.0
N1514 N 0.2171 0.66696 0.50051 0.0
N1515 N 0.29526 0.76134 0.46017 0.0
C1516 C 0.23771 0.68956 0.49431 0.0
C1517 C 0.2774 0.7381 0.47403 0.0
N1518 N 0.27548 0.65437 0.46741 0.0
N1519 N 0.24358 0.77231 0.51188 0.0
H1520 H 0.3158 0.75795 0.44444 0.0
H1521 H 0.28905 0.78401 0.4617 0.0
H1522 H 0.2233 0.77766 0.52721 0.0
H1523 H 0.25854 0.7904 0.51079 0.0
H1524 H 0.26427 0.63536 0.47884 0.0
H1525 H 0.29545 0.64906 0.45124 0.0
H1526 H 0.21931 0.6453 0.48782 0.0
H1527 H 0.19661 0.67023 0.51639 0.0
C1528 C 0.45484 0.00119 0.24762 0.0
C1529 C 0.43581 0.00871 0.21223 0.0
C1530 C 0.4267 0.95491 0.19884 0.0
C1531 C 0.44427 0.9475 0.23576 0.0
N1532 N 0.46808 0.96387 0.30155 0.0
N1533 N 0.39754 0.9933 0.16158 0.0
C1534 C 0.45602 0.97078 0.26223 0.0
C1535 C 0.4197 0.9857 0.19033 0.0
N1536 N 0.47347 0.02241 0.26545 0.0
N1537 N 0.41846 0.93297 0.17015 0.0
H1538 H 0.39157 0.01569 0.15513 0.0
H1539 H 0.38308 0.97748 0.14769 0.0
H1540 H 0.42405 0.91023 0.17381 0.0
H1541 H 0.40857 0.93774 0.14045 0.0
H1542 H 0.49015 0.01712 0.28796 0.0
H1543 H 0.47449 0.04476 0.25503 0.0
H1544 H 0.47434 0.98024 0.32396 0.0
H1545 H 0.46886 0.94184 0.31352 0.0
C1546 C 0.7777 0.76004 0.0139 0.0
C1547 C 0.78818 0.73028 0.0224 0.0
C1548 C 0.73978 0.70962 -0.00238 0.0
C1549 C 0.72837 0.73946 0.99285 0.0
N1550 N 0.73459 0.79315 0.00303 0.0
N1551 N 0.77762 0.67706 0.02998 0.0
C1552 C 0.74683 0.76473 0.00273 0.0
C1553 C 0.76879 0.70512 0.01633 0.0
N1554 N 0.7975 0.78372 0.01493 0.0
N1555 N 0.72342 0.6856 0.98268 0.0
H1556 H 0.79856 0.67285 0.0443 0.0
H1557 H 0.7632 0.6585 0.03077 0.0
H1558 H 0.70225 0.68793 0.96823 0.0
H1559 H 0.73198 0.66368 0.98096 0.0
H1560 H 0.79201 0.8054 0.00441 0.0
H1561 H 0.8203 0.78119 0.02281 0.0
H1562 H 0.74598 0.81207 0.01454 0.0
H1563 H 0.71204 0.7975 -0.00472 0.0
C1564 C 0.97668 0.03272 0.76624 0.0
C1565 C 0.00433 0.04589 0.77978 0.0
C1566 C 0.03231 0.00254 0.75108 0.0
C1567 C 0.00454 0.98803 0.74152 0.0
N1568 N 0.95012 0.98679 0.74736 0.0
N1569 N 0.0579 0.04093 0.79288 0.0
C1570 C 0.97662 0.00243 0.75103 0.0
C1571 C 0.03203 0.03013 0.77437 0.0
N1572 N 0.95068 0.04949 0.76625 0.0
N1573 N 0.05891 0.99053 0.73656 0.0
H1574 H 0.05851 0.06075 0.81107 0.0
H1575 H 0.07808 0.02877 0.79383 0.0
H1576 H 0.06003 0.97066 0.71853 0.0
H1577 H 0.07953 0.00175 0.73871 0.0
H1578 H 0.93058 0.04212 0.75227 0.0
H1579 H 0.94977 0.07187 0.77671 0.0
H1580 H 0.92948 0.99508 0.7584 0.0
H1581 H 0.94905 0.96442 0.73691 0.0
C1582 C 0.73675 0.29814 0.46104 0.0
C1583 C 0.71667 0.29818 0.42555 0.0
C1584 C 0.75988 0.29605 0.37639 0.0
C1585 C 0.77924 0.29045 0.412 0.0
N1586 N 0.78453 0.28026 0.48836 0.0
N1587 N 0.70871 0.2942 0.34876 0.0
C1588 C 0.76738 0.29022 0.4545 0.0
C1589 C 0.72806 0.29672 0.38289 0.0
N1590 N 0.72647 0.30571 0.50109 0.0
N1591 N 0.77189 0.30125 0.33659 0.0
H1592 H 0.68527 0.29452 0.35198 0.0
H1593 H 0.71591 0.2895 0.31756 0.0
H1594 H 0.79512 0.30137 0.33087 0.0
H1595 H 0.75902 0.30833 0.31032 0.0
H1596 H 0.74076 0.30871 0.52744 0.0
H1597 H 0.70413 0.31223 0.50675 0.0
H1598 H 0.77574 0.27688 0.51908 0.0
H1599 H 0.80649 0.27203 0.48512 0.0
loop_
_geom_bond_atom_site_label_1
_geom_bond_atom_site_label_2
_geom_bond_distance
_geom_bond_site_symmetry_2
_ccdc_geom_bond_type
Zn0 O3 2.031 1_455 S
Zn0 O5 2.049 . S
Zn0 O10 2.067 . S
Zn1 O2 1.962 1_455 S
Zn1 O4 1.986 . S
Zn1 O6 1.996 . S
Zn1 O9 1.943 . S
O2 Zn1 1.962 1_655 S
O2 C7 1.254 . S
O3 Zn0 2.031 1_655 S
O3 C7 1.269 . S
O4 Zn1 1.986 . S
O4 C11 1.262 . S
O5 Zn0 2.049 . S
O5 C13 1.260 . S
O6 Zn1 1.996 . S
O6 C13 1.257 . S
C7 O2 1.254 . S
C7 O3 1.269 . S
C8 O9 1.249 . S
C8 O10 1.270 . S
O9 Zn1 1.943 . S
O9 C8 1.249 . S
O10 Zn0 2.067 . S
O10 C8 1.270 . S
C11 O4 1.262 . S
C11 O12 1.232 . S
O12 C11 1.232 . S
C13 O5 1.260 . S
C13 O6 1.257 . S
Zn14 O17 2.031 . S
Zn14 O19 2.049 . S
Zn14 O24 2.067 . S
Zn15 O16 1.962 . S
Zn15 O18 1.986 . S
Zn15 O20 1.996 . S
Zn15 O23 1.943 . S
O16 Zn15 1.962 . S
O16 C21 1.254 . S
O17 Zn14 2.031 . S
O17 C21 1.269 . S
O18 Zn15 1.986 . S
O18 C25 1.262 . S
O19 Zn14 2.049 . S
O19 C27 1.260 . S
O20 Zn15 1.996 . S
O20 C27 1.257 . S
C21 O16 1.254 . S
C21 O17 1.269 . S
C22 O23 1.249 . S
C22 O24 1.270 . S
O23 Zn15 1.943 . S
O23 C22 1.249 . S
O24 Zn14 2.067 . S
O24 C22 1.270 . S
C25 O18 1.262 . S
C25 O26 1.232 . S
O26 C25 1.232 . S
C27 O19 1.260 . S
C27 O20 1.257 . S
Zn28 O31 2.031 . S
Zn28 O33 2.049 . S
Zn28 O38 2.067 . S
Zn29 O30 1.962 . S
Zn29 O32 1.986 . S
Zn29 O34 1.996 . S
Zn29 O37 1.943 . S
O30 Zn29 1.962 . S
O30 C35 1.254 . S
O31 Zn28 2.031 . S
O31 C35 1.269 . S
O32 Zn29 1.986 . S
O32 C39 1.262 . S
O33 Zn28 2.049 . S
O33 C41 1.260 . S
O34 Zn29 1.996 . S
O34 C41 1.257 . S
C35 O30 1.254 . S
C35 O31 1.269 . S
C36 O37 1.249 . S
C36 O38 1.270 . S
O37 Zn29 1.943 . S
O37 C36 1.249 . S
O38 Zn28 2.067 . S
O38 C36 1.270 . S
C39 O32 1.262 . S
C39 O40 1.232 . S
O40 C39 1.232 . S
C41 O33 1.260 . S
C41 O34 1.257 . S
Zn42 O45 2.031 . S
Zn42 O47 2.049 1_554 S
Zn42 O52 2.067 . S
Zn43 O44 1.962 . S
Zn43 O46 1.986 1_554 S
Zn43 O48 1.996 1_554 S
Zn43 O51 1.943 . S
O44 Zn43 1.962 . S
O44 C49 1.254 . S
O45 Zn42 2.031 . S
O45 C49 1.269 . S
O46 Zn43 1.986 1_556 S
O46 C53 1.262 1_556 S
O47 Zn42 2.049 1_556 S
O47 C55 1.260 . S
O48 Zn43 1.996 1_556 S
O48 C55 1.257 . S
C49 O44 1.254 . S
C49 O45 1.269 . S
C50 O51 1.249 . S
C50 O52 1.270 . S
O51 Zn43 1.943 . S
O51 C50 1.249 . S
O52 Zn42 2.067 . S
O52 C50 1.270 . S
C53 O46 1.262 1_554 S
C53 O54 1.232 . S
O54 C53 1.232 . S
C55 O47 1.260 . S
C55 O48 1.257 . S
Zn56 O59 2.031 1_455 S
Zn56 O61 2.049 . S
Zn56 O66 2.067 . S
Zn57 O58 1.962 1_455 S
Zn57 O60 1.986 . S
Zn57 O62 1.996 . S
Zn57 O65 1.943 . S
O58 Zn57 1.962 1_655 S
O58 C63 1.254 . S
O59 Zn56 2.031 1_655 S
O59 C63 1.269 . S
O60 Zn57 1.986 . S
O60 C67 1.262 . S
O61 Zn56 2.049 . S
O61 C69 1.260 . S
O62 Zn57 1.996 . S
O62 C69 1.257 . S
C63 O58 1.254 . S
C63 O59 1.269 . S
C64 O65 1.249 . S
C64 O66 1.270 . S
O65 Zn57 1.943 . S
O65 C64 1.249 . S
O66 Zn56 2.067 . S
O66 C64 1.270 . S
C67 O60 1.262 . S
C67 O68 1.232 . S
O68 C67 1.232 . S
C69 O61 1.260 . S
C69 O62 1.257 . S
Zn70 O73 2.031 . S
Zn70 O75 2.049 . S
Zn70 O80 2.067 . S
Zn71 O72 1.962 . S
Zn71 O74 1.986 . S
Zn71 O76 1.996 . S
Zn71 O79 1.943 . S
O72 Zn71 1.962 . S
O72 C77 1.254 . S
O73 Zn70 2.031 . S
O73 C77 1.269 . S
O74 Zn71 1.986 . S
O74 C81 1.262 . S
O75 Zn70 2.049 . S
O75 C83 1.260 . S
O76 Zn71 1.996 . S
O76 C83 1.257 . S
C77 O72 1.254 . S
C77 O73 1.269 . S
C78 O79 1.249 . S
C78 O80 1.270 . S
O79 Zn71 1.943 . S
O79 C78 1.249 . S
O80 Zn70 2.067 . S
O80 C78 1.270 . S
C81 O74 1.262 . S
C81 O82 1.232 . S
O82 C81 1.232 . S
C83 O75 1.260 . S
C83 O76 1.257 . S
Zn84 O87 2.031 . S
Zn84 O89 2.049 . S
Zn84 O94 2.067 . S
Zn85 O86 1.962 . S
Zn85 O88 1.986 . S
Zn85 O90 1.996 . S
Zn85 O93 1.943 . S
O86 Zn85 1.962 . S
O86 C91 1.254 . S
O87 Zn84 2.031 . S
O87 C91 1.269 . S
O88 Zn85 1.986 . S
O88 C95 1.262 . S
O89 Zn84 2.049 . S
O89 C97 1.260 . S
O90 Zn85 1.996 . S
O90 C97 1.257 . S
C91 O86 1.254 . S
C91 O87 1.269 . S
C92 O93 1.249 . S
C92 O94 1.270 . S
O93 Zn85 1.943 . S
O93 C92 1.249 . S
O94 Zn84 2.067 . S
O94 C92 1.270 . S
C95 O88 1.262 . S
C95 O96 1.232 . S
O96 C95 1.232 . S
C97 O89 1.260 . S
C97 O90 1.257 . S
Zn98 O101 2.031 . S
Zn98 O103 2.049 1_556 S
Zn98 O108 2.067 . S
Zn99 O100 1.962 . S
Zn99 O102 1.986 1_556 S
Zn99 O104 1.996 1_556 S
Zn99 O107 1.943 . S
O100 Zn99 1.962 . S
O100 C105 1.254 . S
O101 Zn98 2.031 . S
O101 C105 1.269 . S
O102 Zn99 1.986 1_554 S
O102 C109 1.262 1_554 S
O103 Zn98 2.049 1_554 S
O103 C111 1.260 . S
O104 Zn99 1.996 1_554 S
O104 C111 1.257 . S
C105 O100 1.254 . S
C105 O101 1.269 . S
C106 O107 1.249 . S
C106 O108 1.270 . S
O107 Zn99 1.943 . S
O107 C106 1.249 . S
O108 Zn98 2.067 . S
O108 C106 1.270 . S
C109 O102 1.262 1_556 S
C109 O110 1.232 . S
O110 C109 1.232 . S
C111 O103 1.260 . S
C111 O104 1.257 . S
Zn112 O115 2.031 1_655 S
Zn112 O117 2.049 . S
Zn112 O122 2.067 . S
Zn113 O114 1.962 1_655 S
Zn113 O116 1.986 . S
Zn113 O118 1.996 . S
Zn113 O121 1.943 . S
O114 Zn113 1.962 1_455 S
O114 C119 1.254 . S
O115 Zn112 2.031 1_455 S
O115 C119 1.269 . S
O116 Zn113 1.986 . S
O116 C123 1.262 . S
O117 Zn112 2.049 . S
O117 C125 1.260 . S
O118 Zn113 1.996 . S
O118 C125 1.257 . S
C119 O114 1.254 . S
C119 O115 1.269 . S
C120 O121 1.249 . S
C120 O122 1.270 . S
O121 Zn113 1.943 . S
O121 C120 1.249 . S
O122 Zn112 2.067 . S
O122 C120 1.270 . S
C123 O116 1.262 . S
C123 O124 1.232 . S
O124 C123 1.232 . S
C125 O117 1.260 . S
C125 O118 1.257 . S
Zn126 O129 2.031 . S
Zn126 O131 2.049 . S
Zn126 O136 2.067 . S
Zn127 O128 1.962 . S
Zn127 O130 1.986 . S
Zn127 O132 1.996 . S
Zn127 O135 1.943 . S
O128 Zn127 1.962 . S
O128 C133 1.254 . S
O129 Zn126 2.031 . S
O129 C133 1.269 . S
O130 Zn127 1.986 . S
O130 C137 1.262 . S
O131 Zn126 2.049 . S
O131 C139 1.260 . S
O132 Zn127 1.996 . S
O132 C139 1.257 . S
C133 O128 1.254 . S
C133 O129 1.269 . S
C134 O135 1.249 . S
C134 O136 1.270 . S
O135 Zn127 1.943 . S
O135 C134 1.249 . S
O136 Zn126 2.067 . S
O136 C134 1.270 . S
C137 O130 1.262 . S
C137 O138 1.232 . S
O138 C137 1.232 . S
C139 O131 1.260 . S
C139 O132 1.257 . S
Zn140 O143 2.031 . S
Zn140 O145 2.049 . S
Zn140 O150 2.067 . S
Zn141 O142 1.962 . S
Zn141 O144 1.986 . S
Zn141 O146 1.996 . S
Zn141 O149 1.943 . S
O142 Zn141 1.962 . S
O142 C147 1.254 . S
O143 Zn140 2.031 . S
O143 C147 1.269 . S
O144 Zn141 1.986 . S
O144 C151 1.262 . S
O145 Zn140 2.049 . S
O145 C153 1.260 . S
O146 Zn141 1.996 . S
O146 C153 1.257 . S
C147 O142 1.254 . S
C147 O143 1.269 . S
C148 O149 1.249 . S
C148 O150 1.270 . S
O149 Zn141 1.943 . S
O149 C148 1.249 . S
O150 Zn140 2.067 . S
O150 C148 1.270 . S
C151 O144 1.262 . S
C151 O152 1.232 . S
O152 C151 1.232 . S
C153 O145 1.260 . S
C153 O146 1.257 . S
Zn154 O157 2.031 . S
Zn154 O159 2.049 1_556 S
Zn154 O164 2.067 . S
Zn155 O156 1.962 . S
Zn155 O158 1.986 1_556 S
Zn155 O160 1.996 1_556 S
Zn155 O163 1.943 . S
O156 Zn155 1.962 . S
O156 C161 1.254 . S
O157 Zn154 2.031 . S
O157 C161 1.269 . S
O158 Zn155 1.986 1_554 S
O158 C165 1.262 1_554 S
O159 Zn154 2.049 1_554 S
O159 C167 1.260 . S
O160 Zn155 1.996 1_554 S
O160 C167 1.257 . S
C161 O156 1.254 . S
C161 O157 1.269 . S
C162 O163 1.249 . S
C162 O164 1.270 . S
O163 Zn155 1.943 . S
O163 C162 1.249 . S
O164 Zn154 2.067 . S
O164 C162 1.270 . S
C165 O158 1.262 1_556 S
C165 O166 1.232 . S
O166 C165 1.232 . S
C167 O159 1.260 . S
C167 O160 1.257 . S
Zn168 O171 2.031 1_655 S
Zn168 O173 2.049 . S
Zn168 O178 2.067 . S
Zn169 O170 1.962 1_655 S
Zn169 O172 1.986 . S
Zn169 O174 1.996 . S
Zn169 O177 1.943 . S
O170 Zn169 1.962 1_455 S
O170 C175 1.254 . S
O171 Zn168 2.031 1_455 S
O171 C175 1.269 . S
O172 Zn169 1.986 . S
O172 C179 1.262 . S
O173 Zn168 2.049 . S
O173 C181 1.260 . S
O174 Zn169 1.996 . S
O174 C181 1.257 . S
C175 O170 1.254 . S
C175 O171 1.269 . S
C176 O177 1.249 . S
C176 O178 1.270 . S
O177 Zn169 1.943 . S
O177 C176 1.249 . S
O178 Zn168 2.067 . S
O178 C176 1.270 . S
C179 O172 1.262 . S
C179 O180 1.232 . S
O180 C179 1.232 . S
C181 O173 1.260 . S
C181 O174 1.257 . S
Zn182 O185 2.031 . S
Zn182 O187 2.049 . S
Zn182 O192 2.067 . S
Zn183 O184 1.962 . S
Zn183 O186 1.986 . S
Zn183 O188 1.996 . S
Zn183 O191 1.943 . S
O184 Zn183 1.962 . S
O184 C189 1.254 . S
O185 Zn182 2.031 . S
O185 C189 1.269 . S
O186 Zn183 1.986 . S
O186 C193 1.262 . S
O187 Zn182 2.049 . S
O187 C195 1.260 . S
O188 Zn183 1.996 . S
O188 C195 1.257 . S
C189 O184 1.254 . S
C189 O185 1.269 . S
C190 O191 1.249 . S
C190 O192 1.270 . S
O191 Zn183 1.943 . S
O191 C190 1.249 . S
O192 Zn182 2.067 . S
O192 C190 1.270 . S
C193 O186 1.262 . S
C193 O194 1.232 . S
O194 C193 1.232 . S
C195 O187 1.260 . S
C195 O188 1.257 . S
Zn196 O199 2.031 . S
Zn196 O201 2.049 . S
Zn196 O206 2.067 . S
Zn197 O198 1.962 . S
Zn197 O200 1.986 . S
Zn197 O202 1.996 . S
Zn197 O205 1.943 . S
O198 Zn197 1.962 . S
O198 C203 1.254 . S
O199 Zn196 2.031 . S
O199 C203 1.269 . S
O200 Zn197 1.986 . S
O200 C207 1.262 . S
O201 Zn196 2.049 . S
O201 C209 1.260 . S
O202 Zn197 1.996 . S
O202 C209 1.257 . S
C203 O198 1.254 . S
C203 O199 1.269 . S
C204 O205 1.249 . S
C204 O206 1.270 . S
O205 Zn197 1.943 . S
O205 C204 1.249 . S
O206 Zn196 2.067 . S
O206 C204 1.270 . S
C207 O200 1.262 . S
C207 O208 1.232 . S
O208 C207 1.232 . S
C209 O201 1.260 . S
C209 O202 1.257 . S
Zn210 O213 2.031 . S
Zn210 O215 2.049 1_554 S
Zn210 O220 2.067 . S
Zn211 O212 1.962 . S
Zn211 O214 1.986 1_554 S
Zn211 O216 1.996 1_554 S
Zn211 O219 1.943 . S
O212 Zn211 1.962 . S
O212 C217 1.254 . S
O213 Zn210 2.031 . S
O213 C217 1.269 . S
O214 Zn211 1.986 1_556 S
O214 C221 1.262 1_556 S
O215 Zn210 2.049 1_556 S
O215 C223 1.260 . S
O216 Zn211 1.996 1_556 S
O216 C223 1.257 . S
C217 O212 1.254 . S
C217 O213 1.269 . S
C218 O219 1.249 . S
C218 O220 1.270 . S
O219 Zn211 1.943 . S
O219 C218 1.249 . S
O220 Zn210 2.067 . S
O220 C218 1.270 . S
C221 O214 1.262 1_554 S
C221 O222 1.232 . S
O222 C221 1.232 . S
C223 O215 1.260 . S
C223 O216 1.257 . S
Zn224 O227 2.031 . S
Zn224 O229 2.049 . S
Zn224 O234 2.067 . S
Zn225 O226 1.962 . S
Zn225 O228 1.986 . S
Zn225 O230 1.996 . S
Zn225 O233 1.943 . S
O226 Zn225 1.962 . S
O226 C231 1.254 . S
O227 Zn224 2.031 . S
O227 C231 1.269 . S
O228 Zn225 1.986 . S
O228 C235 1.262 . S
O229 Zn224 2.049 . S
O229 C237 1.260 . S
O230 Zn225 1.996 . S
O230 C237 1.257 . S
C231 O226 1.254 . S
C231 O227 1.269 . S
C232 O233 1.249 . S
C232 O234 1.270 . S
O233 Zn225 1.943 . S
O233 C232 1.249 . S
O234 Zn224 2.067 . S
O234 C232 1.270 . S
C235 O228 1.262 . S
C235 O236 1.232 . S
O236 C235 1.232 . S
C237 O229 1.260 . S
C237 O230 1.257 . S
Zn238 O241 2.031 . S
Zn238 O243 2.049 1_554 S
Zn238 O248 2.067 . S
Zn239 O240 1.962 . S
Zn239 O242 1.986 1_554 S
Zn239 O244 1.996 1_554 S
Zn239 O247 1.943 . S
O240 Zn239 1.962 . S
O240 C245 1.254 . S
O241 Zn238 2.031 . S
O241 C245 1.269 . S
O242 Zn239 1.986 1_556 S
O242 C249 1.262 1_556 S
O243 Zn238 2.049 1_556 S
O243 C251 1.260 . S
O244 Zn239 1.996 1_556 S
O244 C251 1.257 . S
C245 O240 1.254 . S
C245 O241 1.269 . S
C246 O247 1.249 . S
C246 O248 1.270 . S
O247 Zn239 1.943 . S
O247 C246 1.249 . S
O248 Zn238 2.067 . S
O248 C246 1.270 . S
C249 O242 1.262 1_554 S
C249 O250 1.232 . S
O250 C249 1.232 . S
C251 O243 1.260 . S
C251 O244 1.257 . S
Zn252 O255 2.031 1_655 S
Zn252 O257 2.049 . S
Zn252 O262 2.067 . S
Zn253 O254 1.962 1_655 S
Zn253 O256 1.986 . S
Zn253 O258 1.996 . S
Zn253 O261 1.943 . S
O254 Zn253 1.962 1_455 S
O254 C259 1.254 . S
O255 Zn252 2.031 1_455 S
O255 C259 1.269 . S
O256 Zn253 1.986 . S
O256 C263 1.262 . S
O257 Zn252 2.049 . S
O257 C265 1.260 . S
O258 Zn253 1.996 . S
O258 C265 1.257 . S
C259 O254 1.254 . S
C259 O255 1.269 . S
C260 O261 1.249 . S
C260 O262 1.270 . S
O261 Zn253 1.943 . S
O261 C260 1.249 . S
O262 Zn252 2.067 . S
O262 C260 1.270 . S
C263 O256 1.262 . S
C263 O264 1.232 . S
O264 C263 1.232 . S
C265 O257 1.260 . S
C265 O258 1.257 . S
Zn266 O269 2.031 . S
Zn266 O271 2.049 . S
Zn266 O276 2.067 . S
Zn267 O268 1.962 . S
Zn267 O270 1.986 . S
Zn267 O272 1.996 . S
Zn267 O275 1.943 . S
O268 Zn267 1.962 . S
O268 C273 1.254 . S
O269 Zn266 2.031 . S
O269 C273 1.269 . S
O270 Zn267 1.986 . S
O270 C277 1.262 . S
O271 Zn266 2.049 . S
O271 C279 1.260 . S
O272 Zn267 1.996 . S
O272 C279 1.257 . S
C273 O268 1.254 . S
C273 O269 1.269 . S
C274 O275 1.249 . S
C274 O276 1.270 . S
O275 Zn267 1.943 . S
O275 C274 1.249 . S
O276 Zn266 2.067 . S
O276 C274 1.270 . S
C277 O270 1.262 . S
C277 O278 1.232 . S
O278 C277 1.232 . S
C279 O271 1.260 . S
C279 O272 1.257 . S
Zn280 O283 2.031 . S
Zn280 O285 2.049 . S
Zn280 O290 2.067 . S
Zn281 O282 1.962 . S
Zn281 O284 1.986 . S
Zn281 O286 1.996 . S
Zn281 O289 1.943 . S
O282 Zn281 1.962 . S
O282 C287 1.254 . S
O283 Zn280 2.031 . S
O283 C287 1.269 . S
O284 Zn281 1.986 . S
O284 C291 1.262 . S
O285 Zn280 2.049 . S
O285 C293 1.260 . S
O286 Zn281 1.996 . S
O286 C293 1.257 . S
C287 O282 1.254 . S
C287 O283 1.269 . S
C288 O289 1.249 . S
C288 O290 1.270 . S
O289 Zn281 1.943 . S
O289 C288 1.249 . S
O290 Zn280 2.067 . S
O290 C288 1.270 . S
C291 O284 1.262 . S
C291 O292 1.232 . S
O292 C291 1.232 . S
C293 O285 1.260 . S
C293 O286 1.257 . S
Zn294 O297 2.031 . S
Zn294 O299 2.049 1_556 S
Zn294 O304 2.067 . S
Zn295 O296 1.962 . S
Zn295 O298 1.986 1_556 S
Zn295 O300 1.996 1_556 S
Zn295 O303 1.943 . S
O296 Zn295 1.962 . S
O296 C301 1.254 . S
O297 Zn294 2.031 . S
O297 C301 1.269 . S
O298 Zn295 1.986 1_554 S
O298 C305 1.262 1_554 S
O299 Zn294 2.049 1_554 S
O299 C307 1.260 . S
O300 Zn295 1.996 1_554 S
O300 C307 1.257 . S
C301 O296 1.254 . S
C301 O297 1.269 . S
C302 O303 1.249 . S
C302 O304 1.270 . S
O303 Zn295 1.943 . S
O303 C302 1.249 . S
O304 Zn294 2.067 . S
O304 C302 1.270 . S
C305 O298 1.262 1_556 S
C305 O306 1.232 . S
O306 C305 1.232 . S
C307 O299 1.260 . S
C307 O300 1.257 . S
Zn308 O311 2.031 1_655 S
Zn308 O313 2.049 . S
Zn308 O318 2.067 . S
Zn309 O310 1.962 1_655 S
Zn309 O312 1.986 . S
Zn309 O314 1.996 . S
Zn309 O317 1.943 . S
O310 Zn309 1.962 1_455 S
O310 C315 1.254 . S
O311 Zn308 2.031 1_455 S
O311 C315 1.269 . S
O312 Zn309 1.986 . S
O312 C319 1.262 . S
O313 Zn308 2.049 . S
O313 C321 1.260 . S
O314 Zn309 1.996 . S
O314 C321 1.257 . S
C315 O310 1.254 . S
C315 O311 1.269 . S
C316 O317 1.249 . S
C316 O318 1.270 . S
O317 Zn309 1.943 . S
O317 C316 1.249 . S
O318 Zn308 2.067 . S
O318 C316 1.270 . S
C319 O312 1.262 . S
C319 O320 1.232 . S
O320 C319 1.232 . S
C321 O313 1.260 . S
C321 O314 1.257 . S
Zn322 O325 2.031 . S
Zn322 O327 2.049 . S
Zn322 O332 2.067 . S
Zn323 O324 1.962 . S
Zn323 O326 1.986 . S
Zn323 O328 1.996 . S
Zn323 O331 1.943 . S
O324 Zn323 1.962 . S
O324 C329 1.254 . S
O325 Zn322 2.031 . S
O325 C329 1.269 . S
O326 Zn323 1.986 . S
O326 C333 1.262 . S
O327 Zn322 2.049 . S
O327 C335 1.260 . S
O328 Zn323 1.996 . S
O328 C335 1.257 . S
C329 O324 1.254 . S
C329 O325 1.269 . S
C330 O331 1.249 . S
C330 O332 1.270 . S
O331 Zn323 1.943 . S
O331 C330 1.249 . S
O332 Zn322 2.067 . S
O332 C330 1.270 . S
C333 O326 1.262 . S
C333 O334 1.232 . S
O334 C333 1.232 . S
C335 O327 1.260 . S
C335 O328 1.257 . S
Zn336 O339 2.031 . S
Zn336 O341 2.049 . S
Zn336 O346 2.067 . S
Zn337 O338 1.962 . S
Zn337 O340 1.986 . S
Zn337 O342 1.996 . S
Zn337 O345 1.943 . S
O338 Zn337 1.962 . S
O338 C343 1.254 . S
O339 Zn336 2.031 . S
O339 C343 1.269 . S
O340 Zn337 1.986 . S
O340 C347 1.262 . S
O341 Zn336 2.049 . S
O341 C349 1.260 . S
O342 Zn337 1.996 . S
O342 C349 1.257 . S
C343 O338 1.254 . S
C343 O339 1.269 . S
C344 O345 1.249 . S
C344 O346 1.270 . S
O345 Zn337 1.943 . S
O345 C344 1.249 . S
O346 Zn336 2.067 . S
O346 C344 1.270 . S
C347 O340 1.262 . S
C347 O348 1.232 . S
O348 C347 1.232 . S
C349 O341 1.260 . S
C349 O342 1.257 . S
Zn350 O353 2.031 . S
Zn350 O355 2.049 1_556 S
Zn350 O360 2.067 . S
Zn351 O352 1.962 . S
Zn351 O354 1.986 1_556 S
Zn351 O356 1.996 1_556 S
Zn351 O359 1.943 . S
O352 Zn351 1.962 . S
O352 C357 1.254 . S
O353 Zn350 2.031 . S
O353 C357 1.269 . S
O354 Zn351 1.986 1_554 S
O354 C361 1.262 1_554 S
O355 Zn350 2.049 1_554 S
O355 C363 1.260 . S
O356 Zn351 1.996 1_554 S
O356 C363 1.257 . S
C357 O352 1.254 . S
C357 O353 1.269 . S
C358 O359 1.249 . S
C358 O360 1.270 . S
O359 Zn351 1.943 . S
O359 C358 1.249 . S
O360 Zn350 2.067 . S
O360 C358 1.270 . S
C361 O354 1.262 1_556 S
C361 O362 1.232 . S
O362 C361 1.232 . S
C363 O355 1.260 . S
C363 O356 1.257 . S
Zn364 O367 2.031 1_455 S
Zn364 O369 2.049 . S
Zn364 O374 2.067 . S
Zn365 O366 1.962 1_455 S
Zn365 O368 1.986 . S
Zn365 O370 1.996 . S
Zn365 O373 1.943 . S
O366 Zn365 1.962 1_655 S
O366 C371 1.254 . S
O367 Zn364 2.031 1_655 S
O367 C371 1.269 . S
O368 Zn365 1.986 . S
O368 C375 1.262 . S
O369 Zn364 2.049 . S
O369 C377 1.260 . S
O370 Zn365 1.996 . S
O370 C377 1.257 . S
C371 O366 1.254 . S
C371 O367 1.269 . S
C372 O373 1.249 . S
C372 O374 1.270 . S
O373 Zn365 1.943 . S
O373 C372 1.249 . S
O374 Zn364 2.067 . S
O374 C372 1.270 . S
C375 O368 1.262 . S
C375 O376 1.232 . S
O376 C375 1.232 . S
C377 O369 1.260 . S
C377 O370 1.257 . S
Zn378 O381 2.031 . S
Zn378 O383 2.049 . S
Zn378 O388 2.067 . S
Zn379 O380 1.962 . S
Zn379 O382 1.986 . S
Zn379 O384 1.996 . S
Zn379 O387 1.943 . S
O380 Zn379 1.962 . S
O380 C385 1.254 . S
O381 Zn378 2.031 . S
O381 C385 1.269 . S
O382 Zn379 1.986 . S
O382 C389 1.262 . S
O383 Zn378 2.049 . S
O383 C391 1.260 . S
O384 Zn379 1.996 . S
O384 C391 1.257 . S
C385 O380 1.254 . S
C385 O381 1.269 . S
C386 O387 1.249 . S
C386 O388 1.270 . S
O387 Zn379 1.943 . S
O387 C386 1.249 . S
O388 Zn378 2.067 . S
O388 C386 1.270 . S
C389 O382 1.262 . S
C389 O390 1.232 . S
O390 C389 1.232 . S
C391 O383 1.260 . S
C391 O384 1.257 . S
Zn392 O395 2.031 . S
Zn392 O397 2.049 . S
Zn392 O402 2.067 . S
Zn393 O394 1.962 . S
Zn393 O396 1.986 . S
Zn393 O398 1.996 . S
Zn393 O401 1.943 . S
O394 Zn393 1.962 . S
O394 C399 1.254 . S
O395 Zn392 2.031 . S
O395 C399 1.269 . S
O396 Zn393 1.986 . S
O396 C403 1.262 . S
O397 Zn392 2.049 . S
O397 C405 1.260 . S
O398 Zn393 1.996 . S
O398 C405 1.257 . S
C399 O394 1.254 . S
C399 O395 1.269 . S
C400 O401 1.249 . S
C400 O402 1.270 . S
O401 Zn393 1.943 . S
O401 C400 1.249 . S
O402 Zn392 2.067 . S
O402 C400 1.270 . S
C403 O396 1.262 . S
C403 O404 1.232 . S
O404 C403 1.232 . S
C405 O397 1.260 . S
C405 O398 1.257 . S
Zn406 O409 2.031 . S
Zn406 O411 2.049 1_554 S
Zn406 O416 2.067 . S
Zn407 O408 1.962 . S
Zn407 O410 1.986 1_554 S
Zn407 O412 1.996 1_554 S
Zn407 O415 1.943 . S
O408 Zn407 1.962 . S
O408 C413 1.254 . S
O409 Zn406 2.031 . S
O409 C413 1.269 . S
O410 Zn407 1.986 1_556 S
O410 C417 1.262 1_556 S
O411 Zn406 2.049 1_556 S
O411 C419 1.260 . S
O412 Zn407 1.996 1_556 S
O412 C419 1.257 . S
C413 O408 1.254 . S
C413 O409 1.269 . S
C414 O415 1.249 . S
C414 O416 1.270 . S
O415 Zn407 1.943 . S
O415 C414 1.249 . S
O416 Zn406 2.067 . S
O416 C414 1.270 . S
C417 O410 1.262 1_554 S
C417 O418 1.232 . S
O418 C417 1.232 . S
C419 O411 1.260 . S
C419 O412 1.257 . S
Zn420 O423 2.031 1_455 S
Zn420 O425 2.049 . S
Zn420 O430 2.067 . S
Zn421 O422 1.962 1_455 S
Zn421 O424 1.986 . S
Zn421 O426 1.996 . S
Zn421 O429 1.943 . S
O422 Zn421 1.962 1_655 S
O422 C427 1.254 . S
O423 Zn420 2.031 1_655 S
O423 C427 1.269 . S
O424 Zn421 1.986 . S
O424 C431 1.262 . S
O425 Zn420 2.049 . S
O425 C433 1.260 . S
O426 Zn421 1.996 . S
O426 C433 1.257 . S
C427 O422 1.254 . S
C427 O423 1.269 . S
C428 O429 1.249 . S
C428 O430 1.270 . S
O429 Zn421 1.943 . S
O429 C428 1.249 . S
O430 Zn420 2.067 . S
O430 C428 1.270 . S
C431 O424 1.262 . S
C431 O432 1.232 . S
O432 C431 1.232 . S
C433 O425 1.260 . S
C433 O426 1.257 . S
Zn434 O437 2.031 . S
Zn434 O439 2.049 . S
Zn434 O444 2.067 . S
Zn435 O436 1.962 . S
Zn435 O438 1.986 . S
Zn435 O440 1.996 . S
Zn435 O443 1.943 . S
O436 Zn435 1.962 . S
O436 C441 1.254 . S
O437 Zn434 2.031 . S
O437 C441 1.269 . S
O438 Zn435 1.986 . S
O438 C445 1.262 . S
O439 Zn434 2.049 . S
O439 C447 1.260 . S
O440 Zn435 1.996 . S
O440 C447 1.257 . S
C441 O436 1.254 . S
C441 O437 1.269 . S
C442 O443 1.249 . S
C442 O444 1.270 . S
O443 Zn435 1.943 . S
O443 C442 1.249 . S
O444 Zn434 2.067 . S
O444 C442 1.270 . S
C445 O438 1.262 . S
C445 O446 1.232 . S
O446 C445 1.232 . S
C447 O439 1.260 . S
C447 O440 1.257 . S
C448 C449 1.363 . S
C448 C454 1.379 . S
C448 N456 1.356 . S
C449 C448 1.363 . S
C449 C455 1.363 . S
C450 C451 1.363 . S
C450 C455 1.379 . S
C450 N457 1.356 . S
C451 C450 1.363 . S
C451 C454 1.363 . S
N452 C454 1.356 . S
N452 H464 0.984 . S
N452 H465 0.985 . S
N453 C455 1.356 . S
N453 H458 0.984 . S
N453 H459 0.985 . S
C454 C448 1.379 . S
C454 C451 1.363 . S
C454 N452 1.356 . S
C455 C449 1.363 . S
C455 C450 1.379 . S
C455 N453 1.356 . S
N456 C448 1.356 . S
N456 H462 0.984 . S
N456 H463 0.984 . S
N457 C450 1.356 . S
N457 H460 0.984 . S
N457 H461 0.985 . S
H458 N453 0.984 . S
H459 N453 0.985 . S
H460 N457 0.984 . S
H461 N457 0.985 . S
H462 N456 0.984 . S
H463 N456 0.984 . S
H464 N452 0.984 . S
H465 N452 0.985 . S
C466 C467 1.363 . S
C466 C472 1.379 . S
C466 N474 1.356 . S
C467 C466 1.363 . S
C467 C473 1.363 . S
C468 C469 1.363 . S
C468 C473 1.379 . S
C468 N475 1.356 . S
C469 C468 1.363 . S
C469 C472 1.363 . S
N470 C472 1.356 . S
N470 H482 0.984 . S
N470 H483 0.985 . S
N471 C473 1.356 . S
N471 H476 0.984 . S
N471 H477 0.985 . S
C472 C466 1.379 . S
C472 C469 1.363 . S
C472 N470 1.356 . S
C473 C467 1.363 . S
C473 C468 1.379 . S
C473 N471 1.356 . S
N474 C466 1.356 . S
N474 H480 0.984 . S
N474 H481 0.984 . S
N475 C468 1.356 . S
N475 H478 0.984 . S
N475 H479 0.985 . S
H476 N471 0.984 . S
H477 N471 0.985 . S
H478 N475 0.984 . S
H479 N475 0.985 . S
H480 N474 0.984 . S
H481 N474 0.984 . S
H482 N470 0.984 . S
H483 N470 0.985 . S
C484 C485 1.363 . S
C484 C490 1.379 . S
C484 N492 1.356 . S
C485 C484 1.363 . S
C485 C491 1.363 . S
C486 C487 1.363 . S
C486 C491 1.379 . S
C486 N493 1.356 . S
C487 C486 1.363 . S
C487 C490 1.363 . S
N488 C490 1.356 . S
N488 H500 0.984 . S
N488 H501 0.985 . S
N489 C491 1.356 . S
N489 H494 0.984 . S
N489 H495 0.985 . S
C490 C484 1.379 . S
C490 C487 1.363 . S
C490 N488 1.356 . S
C491 C485 1.363 . S
C491 C486 1.379 . S
C491 N489 1.356 . S
N492 C484 1.356 . S
N492 H498 0.984 . S
N492 H499 0.984 . S
N493 C486 1.356 . S
N493 H496 0.984 . S
N493 H497 0.985 . S
H494 N489 0.984 . S
H495 N489 0.985 . S
H496 N493 0.984 . S
H497 N493 0.985 . S
H498 N492 0.984 . S
H499 N492 0.984 . S
H500 N488 0.984 . S
H501 N488 0.985 . S
C502 C503 1.363 . S
C502 C508 1.379 . S
C502 N510 1.356 . S
C503 C502 1.363 . S
C503 C509 1.363 . S
C504 C505 1.363 . S
C504 C509 1.379 . S
C504 N511 1.356 . S
C505 C504 1.363 . S
C505 C508 1.363 . S
N506 C508 1.356 . S
N506 H518 0.984 . S
N506 H519 0.985 . S
N507 C509 1.356 . S
N507 H512 0.984 . S
N507 H513 0.985 . S
C508 C502 1.379 . S
C508 C505 1.363 . S
C508 N506 1.356 . S
C509 C503 1.363 . S
C509 C504 1.379 . S
C509 N507 1.356 . S
N510 C502 1.356 . S
N510 H516 0.984 . S
N510 H517 0.984 . S
N511 C504 1.356 . S
N511 H514 0.984 . S
N511 H515 0.985 . S
H512 N507 0.984 . S
H513 N507 0.985 . S
H514 N511 0.984 . S
H515 N511 0.985 . S
H516 N510 0.984 . S
H517 N510 0.984 . S
H518 N506 0.984 . S
H519 N506 0.985 . S
C520 C521 1.363 . S
C520 C526 1.379 . S
C520 N528 1.356 . S
C521 C520 1.363 . S
C521 C527 1.363 . S
C522 C523 1.363 . S
C522 C527 1.379 . S
C522 N529 1.356 . S
C523 C522 1.363 . S
C523 C526 1.363 . S
N524 C526 1.356 . S
N524 H536 0.984 . S
N524 H537 0.985 . S
N525 C527 1.356 . S
N525 H530 0.984 . S
N525 H531 0.985 . S
C526 C520 1.379 . S
C526 C523 1.363 . S
C526 N524 1.356 . S
C527 C521 1.363 . S
C527 C522 1.379 . S
C527 N525 1.356 . S
N528 C520 1.356 . S
N528 H534 0.984 . S
N528 H535 0.984 . S
N529 C522 1.356 . S
N529 H532 0.984 . S
N529 H533 0.985 . S
H530 N525 0.984 . S
H531 N525 0.985 . S
H532 N529 0.984 . S
H533 N529 0.985 . S
H534 N528 0.984 . S
H535 N528 0.984 . S
H536 N524 0.984 . S
H537 N524 0.985 . S
C538 C539 1.363 . S
C538 C544 1.379 . S
C538 N546 1.356 . S
C539 C538 1.363 . S
C539 C545 1.363 . S
C540 C541 1.363 . S
C540 C545 1.379 . S
C540 N547 1.356 . S
C541 C540 1.363 . S
C541 C544 1.363 . S
N542 C544 1.356 . S
N542 H554 0.984 . S
N542 H555 0.985 . S
N543 C545 1.356 . S
N543 H548 0.984 . S
N543 H549 0.985 . S
C544 C538 1.379 . S
C544 C541 1.363 . S
C544 N542 1.356 . S
C545 C539 1.363 . S
C545 C540 1.379 . S
C545 N543 1.356 . S
N546 C538 1.356 . S
N546 H552 0.984 . S
N546 H553 0.984 . S
N547 C540 1.356 . S
N547 H550 0.984 . S
N547 H551 0.985 . S
H548 N543 0.984 . S
H549 N543 0.985 . S
H550 N547 0.984 . S
H551 N547 0.985 . S
H552 N546 0.984 . S
H553 N546 0.984 . S
H554 N542 0.984 . S
H555 N542 0.985 . S
C556 C557 1.363 . S
C556 C562 1.379 . S
C556 N564 1.356 . S
C557 C556 1.363 . S
C557 C563 1.363 . S
C558 C559 1.363 . S
C558 C563 1.379 . S
C558 N565 1.356 . S
C559 C558 1.363 . S
C559 C562 1.363 . S
N560 C562 1.356 . S
N560 H572 0.984 . S
N560 H573 0.985 . S
N561 C563 1.356 . S
N561 H566 0.984 . S
N561 H567 0.985 . S
C562 C556 1.379 . S
C562 C559 1.363 . S
C562 N560 1.356 . S
C563 C557 1.363 . S
C563 C558 1.379 . S
C563 N561 1.356 . S
N564 C556 1.356 . S
N564 H570 0.984 . S
N564 H571 0.984 . S
N565 C558 1.356 . S
N565 H568 0.984 . S
N565 H569 0.985 . S
H566 N561 0.984 . S
H567 N561 0.985 . S
H568 N565 0.984 . S
H569 N565 0.985 . S
H570 N564 0.984 . S
H571 N564 0.984 . S
H572 N560 0.984 . S
H573 N560 0.985 . S
C574 C575 1.363 . S
C574 C580 1.379 . S
C574 N582 1.356 . S
C575 C574 1.363 . S
C575 C581 1.363 . S
C576 C577 1.363 . S
C576 C581 1.379 . S
C576 N583 1.356 . S
C577 C576 1.363 . S
C577 C580 1.363 . S
N578 C580 1.356 . S
N578 H590 0.984 . S
N578 H591 0.985 . S
N579 C581 1.356 . S
N579 H584 0.984 . S
N579 H585 0.985 . S
C580 C574 1.379 . S
C580 C577 1.363 . S
C580 N578 1.356 . S
C581 C575 1.363 . S
C581 C576 1.379 . S
C581 N579 1.356 . S
N582 C574 1.356 . S
N582 H588 0.984 . S
N582 H589 0.984 . S
N583 C576 1.356 . S
N583 H586 0.984 . S
N583 H587 0.985 . S
H584 N579 0.984 . S
H585 N579 0.985 . S
H586 N583 0.984 . S
H587 N583 0.985 . S
H588 N582 0.984 . S
H589 N582 0.984 . S
H590 N578 0.984 . S
H591 N578 0.985 . S
C592 C593 1.363 . S
C592 C598 1.379 . S
C592 N600 1.356 . S
C593 C592 1.363 . S
C593 C599 1.363 . S
C594 C595 1.363 . S
C594 C599 1.379 . S
C594 N601 1.356 . S
C595 C594 1.363 . S
C595 C598 1.363 . S
N596 C598 1.356 . S
N596 H608 0.984 . S
N596 H609 0.985 . S
N597 C599 1.356 . S
N597 H602 0.984 . S
N597 H603 0.985 . S
C598 C592 1.379 . S
C598 C595 1.363 . S
C598 N596 1.356 . S
C599 C593 1.363 . S
C599 C594 1.379 . S
C599 N597 1.356 . S
N600 C592 1.356 . S
N600 H606 0.984 . S
N600 H607 0.984 . S
N601 C594 1.356 . S
N601 H604 0.984 . S
N601 H605 0.985 . S
H602 N597 0.984 . S
H603 N597 0.985 . S
H604 N601 0.984 . S
H605 N601 0.985 . S
H606 N600 0.984 . S
H607 N600 0.984 . S
H608 N596 0.984 . S
H609 N596 0.985 . S
C610 C611 1.363 . S
C610 C616 1.379 . S
C610 N618 1.356 . S
C611 C610 1.363 . S
C611 C617 1.363 . S
C612 C613 1.363 . S
C612 C617 1.379 . S
C612 N619 1.356 . S
C613 C612 1.363 . S
C613 C616 1.363 . S
N614 C616 1.356 . S
N614 H626 0.984 . S
N614 H627 0.985 . S
N615 C617 1.356 . S
N615 H620 0.984 . S
N615 H621 0.985 . S
C616 C610 1.379 . S
C616 C613 1.363 . S
C616 N614 1.356 . S
C617 C611 1.363 . S
C617 C612 1.379 . S
C617 N615 1.356 . S
N618 C610 1.356 . S
N618 H624 0.984 . S
N618 H625 0.984 . S
N619 C612 1.356 . S
N619 H622 0.984 . S
N619 H623 0.985 . S
H620 N615 0.984 . S
H621 N615 0.985 . S
H622 N619 0.984 . S
H623 N619 0.985 . S
H624 N618 0.984 . S
H625 N618 0.984 . S
H626 N614 0.984 . S
H627 N614 0.985 . S
C628 C629 1.363 . S
C628 C634 1.379 . S
C628 N636 1.356 . S
C629 C628 1.363 . S
C629 C635 1.363 . S
C630 C631 1.363 . S
C630 C635 1.379 . S
C630 N637 1.356 . S
C631 C630 1.363 . S
C631 C634 1.363 . S
N632 C634 1.356 . S
N632 H644 0.984 . S
N632 H645 0.985 . S
N633 C635 1.356 . S
N633 H638 0.984 . S
N633 H639 0.985 . S
C634 C628 1.379 . S
C634 C631 1.363 . S
C634 N632 1.356 . S
C635 C629 1.363 . S
C635 C630 1.379 . S
C635 N633 1.356 . S
N636 C628 1.356 . S
N636 H642 0.984 . S
N636 H643 0.984 . S
N637 C630 1.356 . S
N637 H640 0.984 . S
N637 H641 0.985 . S
H638 N633 0.984 . S
H639 N633 0.985 . S
H640 N637 0.984 . S
H641 N637 0.985 . S
H642 N636 0.984 . S
H643 N636 0.984 . S
H644 N632 0.984 . S
H645 N632 0.985 . S
C646 C647 1.363 . S
C646 C652 1.379 . S
C646 N654 1.356 . S
C647 C646 1.363 . S
C647 C653 1.363 . S
C648 C649 1.363 . S
C648 C653 1.379 . S
C648 N655 1.356 . S
C649 C648 1.363 . S
C649 C652 1.363 . S
N650 C652 1.356 . S
N650 H662 0.984 . S
N650 H663 0.985 . S
N651 C653 1.356 . S
N651 H656 0.984 . S
N651 H657 0.985 . S
C652 C646 1.379 . S
C652 C649 1.363 . S
C652 N650 1.356 . S
C653 C647 1.363 . S
C653 C648 1.379 . S
C653 N651 1.356 . S
N654 C646 1.356 . S
N654 H660 0.984 . S
N654 H661 0.984 . S
N655 C648 1.356 . S
N655 H658 0.984 . S
N655 H659 0.985 . S
H656 N651 0.984 . S
H657 N651 0.985 . S
H658 N655 0.984 . S
H659 N655 0.985 . S
H660 N654 0.984 . S
H661 N654 0.984 . S
H662 N650 0.984 . S
H663 N650 0.985 . S
C664 C665 1.363 . S
C664 C670 1.379 . S
C664 N672 1.356 . S
C665 C664 1.363 . S
C665 C671 1.363 . S
C666 C667 1.363 . S
C666 C671 1.379 . S
C666 N673 1.356 . S
C667 C666 1.363 . S
C667 C670 1.363 . S
N668 C670 1.356 . S
N668 H680 0.984 . S
N668 H681 0.985 . S
N669 C671 1.356 . S
N669 H674 0.984 . S
N669 H675 0.985 . S
C670 C664 1.379 . S
C670 C667 1.363 . S
C670 N668 1.356 . S
C671 C665 1.363 . S
C671 C666 1.379 . S
C671 N669 1.356 . S
N672 C664 1.356 . S
N672 H678 0.984 . S
N672 H679 0.984 . S
N673 C666 1.356 . S
N673 H676 0.984 . S
N673 H677 0.985 . S
H674 N669 0.984 . S
H675 N669 0.985 . S
H676 N673 0.984 . S
H677 N673 0.985 . S
H678 N672 0.984 . S
H679 N672 0.984 . S
H680 N668 0.984 . S
H681 N668 0.985 . S
C682 C683 1.363 . S
C682 C688 1.379 . S
C682 N690 1.356 . S
C683 C682 1.363 . S
C683 C689 1.363 . S
C684 C685 1.363 . S
C684 C689 1.379 . S
C684 N691 1.356 . S
C685 C684 1.363 . S
C685 C688 1.363 . S
N686 C688 1.356 . S
N686 H698 0.984 . S
N686 H699 0.985 . S
N687 C689 1.356 . S
N687 H692 0.984 . S
N687 H693 0.985 . S
C688 C682 1.379 . S
C688 C685 1.363 . S
C688 N686 1.356 . S
C689 C683 1.363 . S
C689 C684 1.379 . S
C689 N687 1.356 . S
N690 C682 1.356 . S
N690 H696 0.984 . S
N690 H697 0.984 . S
N691 C684 1.356 . S
N691 H694 0.984 . S
N691 H695 0.985 . S
H692 N687 0.984 . S
H693 N687 0.985 . S
H694 N691 0.984 . S
H695 N691 0.985 . S
H696 N690 0.984 . S
H697 N690 0.984 . S
H698 N686 0.984 . S
H699 N686 0.985 . S
C700 C701 1.363 . S
C700 C706 1.379 . S
C700 N708 1.356 . S
C701 C700 1.363 . S
C701 C707 1.363 . S
C702 C703 1.363 . S
C702 C707 1.379 . S
C702 N709 1.356 . S
C703 C702 1.363 . S
C703 C706 1.363 . S
N704 C706 1.356 . S
N704 H716 0.984 . S
N704 H717 0.985 . S
N705 C707 1.356 . S
N705 H710 0.984 . S
N705 H711 0.985 . S
C706 C700 1.379 . S
C706 C703 1.363 . S
C706 N704 1.356 . S
C707 C701 1.363 . S
C707 C702 1.379 . S
C707 N705 1.356 . S
N708 C700 1.356 . S
N708 H714 0.984 . S
N708 H715 0.984 . S
N709 C702 1.356 . S
N709 H712 0.984 . S
N709 H713 0.985 . S
H710 N705 0.984 . S
H711 N705 0.985 . S
H712 N709 0.984 . S
H713 N709 0.985 . S
H714 N708 0.984 . S
H715 N708 0.984 . S
H716 N704 0.984 . S
H717 N704 0.985 . S
C718 C719 1.363 . S
C718 C724 1.379 . S
C718 N726 1.356 . S
C719 C718 1.363 . S
C719 C725 1.363 . S
C720 C721 1.363 . S
C720 C725 1.379 . S
C720 N727 1.356 . S
C721 C720 1.363 . S
C721 C724 1.363 . S
N722 C724 1.356 . S
N722 H734 0.984 . S
N722 H735 0.985 . S
N723 C725 1.356 . S
N723 H728 0.984 . S
N723 H729 0.985 . S
C724 C718 1.379 . S
C724 C721 1.363 . S
C724 N722 1.356 . S
C725 C719 1.363 . S
C725 C720 1.379 . S
C725 N723 1.356 . S
N726 C718 1.356 . S
N726 H732 0.984 . S
N726 H733 0.984 . S
N727 C720 1.356 . S
N727 H730 0.984 . S
N727 H731 0.985 . S
H728 N723 0.984 . S
H729 N723 0.985 . S
H730 N727 0.984 . S
H731 N727 0.985 . S
H732 N726 0.984 . S
H733 N726 0.984 . S
H734 N722 0.984 . S
H735 N722 0.985 . S
C736 C737 1.363 . S
C736 C742 1.379 . S
C736 N744 1.356 . S
C737 C736 1.363 . S
C737 C743 1.363 . S
C738 C739 1.363 . S
C738 C743 1.379 . S
C738 N745 1.356 . S
C739 C738 1.363 . S
C739 C742 1.363 . S
N740 C742 1.356 . S
N740 H752 0.984 . S
N740 H753 0.985 . S
N741 C743 1.356 . S
N741 H746 0.984 . S
N741 H747 0.985 . S
C742 C736 1.379 . S
C742 C739 1.363 . S
C742 N740 1.356 . S
C743 C737 1.363 . S
C743 C738 1.379 . S
C743 N741 1.356 . S
N744 C736 1.356 . S
N744 H750 0.984 . S
N744 H751 0.984 . S
N745 C738 1.356 . S
N745 H748 0.984 . S
N745 H749 0.985 . S
H746 N741 0.984 . S
H747 N741 0.985 . S
H748 N745 0.984 . S
H749 N745 0.985 . S
H750 N744 0.984 . S
H751 N744 0.984 . S
H752 N740 0.984 . S
H753 N740 0.985 . S
C754 C755 1.363 . S
C754 C760 1.379 . S
C754 N762 1.356 . S
C755 C754 1.363 . S
C755 C761 1.363 . S
C756 C757 1.363 . S
C756 C761 1.379 . S
C756 N763 1.356 . S
C757 C756 1.363 . S
C757 C760 1.363 . S
N758 C760 1.356 . S
N758 H770 0.984 . S
N758 H771 0.985 . S
N759 C761 1.356 . S
N759 H764 0.984 . S
N759 H765 0.985 . S
C760 C754 1.379 . S
C760 C757 1.363 . S
C760 N758 1.356 . S
C761 C755 1.363 . S
C761 C756 1.379 . S
C761 N759 1.356 . S
N762 C754 1.356 . S
N762 H768 0.984 . S
N762 H769 0.984 . S
N763 C756 1.356 . S
N763 H766 0.984 . S
N763 H767 1.005 . S
H764 N759 0.984 . S
H765 N759 0.985 . S
H766 N763 0.984 . S
H767 N763 1.005 . S
H768 N762 0.984 . S
H769 N762 0.984 . S
H770 N758 0.984 . S
H771 N758 0.985 . S
C772 C773 1.363 . S
C772 C778 1.379 . S
C772 N780 1.356 . S
C773 C772 1.363 . S
C773 C779 1.363 . S
C774 C775 1.363 . S
C774 C779 1.379 . S
C774 N781 1.356 . S
C775 C774 1.363 . S
C775 C778 1.363 . S
N776 C778 1.356 . S
N776 H788 0.984 . S
N776 H789 0.985 . S
N777 C779 1.356 . S
N777 H782 0.984 . S
N777 H783 0.985 . S
C778 C772 1.379 . S
C778 C775 1.363 . S
C778 N776 1.356 . S
C779 C773 1.363 . S
C779 C774 1.379 . S
C779 N777 1.356 . S
N780 C772 1.356 . S
N780 H786 0.984 . S
N780 H787 0.984 . S
N781 C774 1.356 . S
N781 H784 0.984 . S
N781 H785 0.985 . S
H782 N777 0.984 . S
H783 N777 0.985 . S
H784 N781 0.984 . S
H785 N781 0.985 . S
H786 N780 0.984 . S
H787 N780 0.984 . S
H788 N776 0.984 . S
H789 N776 0.985 . S
C790 C791 1.363 . S
C790 C796 1.379 . S
C790 N798 1.356 . S
C791 C790 1.363 . S
C791 C797 1.363 . S
C792 C793 1.363 . S
C792 C797 1.379 . S
C792 N799 1.356 . S
C793 C792 1.363 . S
C793 C796 1.363 . S
N794 C796 1.356 . S
N794 H806 0.984 . S
N794 H807 0.985 . S
N795 C797 1.356 . S
N795 H800 0.984 . S
N795 H801 0.985 . S
C796 C790 1.379 . S
C796 C793 1.363 . S
C796 N794 1.356 . S
C797 C791 1.363 . S
C797 C792 1.379 . S
C797 N795 1.356 . S
N798 C790 1.356 . S
N798 H804 0.984 . S
N798 H805 0.984 . S
N799 C792 1.356 . S
N799 H802 0.984 . S
N799 H803 0.985 . S
H800 N795 0.984 . S
H801 N795 0.985 . S
H802 N799 0.984 . S
H803 N799 0.985 . S
H804 N798 0.984 . S
H805 N798 0.984 . S
H806 N794 0.984 . S
H807 N794 0.985 . S
C808 C809 1.363 . S
C808 C814 1.379 . S
C808 N816 1.356 . S
C809 C808 1.363 . S
C809 C815 1.363 . S
C810 C811 1.363 . S
C810 C815 1.379 . S
C810 N817 1.356 . S
C811 C810 1.363 . S
C811 C814 1.363 . S
N812 C814 1.356 . S
N812 H824 0.984 . S
N812 H825 0.985 . S
N813 C815 1.356 . S
N813 H818 0.984 . S
N813 H819 0.985 . S
C814 C808 1.379 . S
C814 C811 1.363 . S
C814 N812 1.356 . S
C815 C809 1.363 . S
C815 C810 1.379 . S
C815 N813 1.356 . S
N816 C808 1.356 . S
N816 H822 0.984 . S
N816 H823 0.984 . S
N817 C810 1.356 . S
N817 H820 0.984 . S
N817 H821 0.985 . S
H818 N813 0.984 . S
H819 N813 0.985 . S
H820 N817 0.984 . S
H821 N817 0.985 . S
H822 N816 0.984 . S
H823 N816 0.984 . S
H824 N812 0.984 . S
H825 N812 0.985 . S
C826 C827 1.363 . S
C826 C832 1.379 . S
C826 N834 1.356 . S
C827 C826 1.363 . S
C827 C833 1.363 . S
C828 C829 1.363 . S
C828 C833 1.379 . S
C828 N835 1.356 . S
C829 C828 1.363 . S
C829 C832 1.363 . S
N830 C832 1.356 . S
N830 H842 0.984 . S
N830 H843 0.985 . S
N831 C833 1.356 . S
N831 H836 0.984 . S
N831 H837 0.985 . S
C832 C826 1.379 . S
C832 C829 1.363 . S
C832 N830 1.356 . S
C833 C827 1.363 . S
C833 C828 1.379 . S
C833 N831 1.356 . S
N834 C826 1.356 . S
N834 H840 0.984 . S
N834 H841 0.984 . S
N835 C828 1.356 . S
N835 H838 0.984 . S
N835 H839 0.985 . S
H836 N831 0.984 . S
H837 N831 0.985 . S
H838 N835 0.984 . S
H839 N835 0.985 . S
H840 N834 0.984 . S
H841 N834 0.984 . S
H842 N830 0.984 . S
H843 N830 0.985 . S
C844 C845 1.363 . S
C844 C850 1.379 . S
C844 N852 1.356 . S
C845 C844 1.363 . S
C845 C851 1.363 . S
C846 C847 1.363 . S
C846 C851 1.379 . S
C846 N853 1.356 . S
C847 C846 1.363 . S
C847 C850 1.363 . S
N848 C850 1.356 . S
N848 H860 0.984 . S
N848 H861 0.985 . S
N849 C851 1.356 . S
N849 H854 0.984 . S
N849 H855 0.985 . S
C850 C844 1.379 . S
C850 C847 1.363 . S
C850 N848 1.356 . S
C851 C845 1.363 . S
C851 C846 1.379 . S
C851 N849 1.356 . S
N852 C844 1.356 . S
N852 H858 0.984 . S
N852 H859 0.984 . S
N853 C846 1.356 . S
N853 H856 0.984 . S
N853 H857 0.985 . S
H854 N849 0.984 . S
H855 N849 0.985 . S
H856 N853 0.984 . S
H857 N853 0.985 . S
H858 N852 0.984 . S
H859 N852 0.984 . S
H860 N848 0.984 . S
H861 N848 0.985 . S
C862 C863 1.363 . S
C862 C868 1.379 . S
C862 N870 1.356 . S
C863 C862 1.363 . S
C863 C869 1.363 . S
C864 C865 1.363 . S
C864 C869 1.379 . S
C864 N871 1.356 . S
C865 C864 1.363 . S
C865 C868 1.363 . S
N866 C868 1.356 . S
N866 H878 0.984 . S
N866 H879 0.985 . S
N867 C869 1.356 . S
N867 H872 0.984 . S
N867 H873 0.985 . S
C868 C862 1.379 . S
C868 C865 1.363 . S
C868 N866 1.356 . S
C869 C863 1.363 . S
C869 C864 1.379 . S
C869 N867 1.356 . S
N870 C862 1.356 . S
N870 H876 0.984 . S
N870 H877 0.984 . S
N871 C864 1.356 . S
N871 H874 0.984 . S
N871 H875 0.985 . S
H872 N867 0.984 . S
H873 N867 0.985 . S
H874 N871 0.984 . S
H875 N871 0.985 . S
H876 N870 0.984 . S
H877 N870 0.984 . S
H878 N866 0.984 . S
H879 N866 0.985 . S
C880 C881 1.363 . S
C880 C886 1.379 . S
C880 N888 1.356 . S
C881 C880 1.363 . S
C881 C887 1.363 . S
C882 C883 1.363 . S
C882 C887 1.379 . S
C882 N889 1.356 . S
C883 C882 1.363 . S
C883 C886 1.363 . S
N884 C886 1.356 . S
N884 H896 0.984 . S
N884 H897 0.985 . S
N885 C887 1.356 . S
N885 H890 0.984 . S
N885 H891 0.985 . S
C886 C880 1.379 . S
C886 C883 1.363 . S
C886 N884 1.356 . S
C887 C881 1.363 . S
C887 C882 1.379 . S
C887 N885 1.356 . S
N888 C880 1.356 . S
N888 H894 0.984 . S
N888 H895 0.984 . S
N889 C882 1.356 . S
N889 H892 0.984 . S
N889 H893 0.985 . S
H890 N885 0.984 . S
H891 N885 0.985 . S
H892 N889 0.984 . S
H893 N889 0.985 . S
H894 N888 0.984 . S
H895 N888 0.984 . S
H896 N884 0.984 . S
H897 N884 0.985 . S
C898 C899 1.363 . S
C898 C904 1.379 . S
C898 N906 1.356 . S
C899 C898 1.363 . S
C899 C905 1.363 . S
C900 C901 1.363 . S
C900 C905 1.379 . S
C900 N907 1.356 . S
C901 C900 1.363 . S
C901 C904 1.363 . S
N902 C904 1.356 . S
N902 H914 0.984 . S
N902 H915 0.985 . S
N903 C905 1.356 . S
N903 H908 0.975 1_455 S
N903 H909 0.985 1_455 S
C904 C898 1.379 . S
C904 C901 1.363 . S
C904 N902 1.356 . S
C905 C899 1.363 . S
C905 C900 1.379 . S
C905 N903 1.356 . S
N906 C898 1.356 . S
N906 H912 0.984 . S
N906 H913 0.984 . S
N907 C900 1.356 . S
N907 H910 0.984 . S
N907 H911 0.985 . S
H908 N903 0.975 1_655 S
H909 N903 0.985 1_655 S
H910 N907 0.984 . S
H911 N907 0.985 . S
H912 N906 0.984 . S
H913 N906 0.984 . S
H914 N902 0.984 . S
H915 N902 0.985 . S
C916 C917 1.363 . S
C916 C922 1.379 . S
C916 N924 1.356 . S
C917 C916 1.363 . S
C917 C923 1.363 . S
C918 C919 1.363 . S
C918 C923 1.379 . S
C918 N925 1.356 . S
C919 C918 1.363 . S
C919 C922 1.363 . S
N920 C922 1.356 . S
N920 H932 0.984 . S
N920 H933 0.985 . S
N921 C923 1.356 . S
N921 H926 0.984 . S
N921 H927 0.985 . S
C922 C916 1.379 . S
C922 C919 1.363 . S
C922 N920 1.356 . S
C923 C917 1.363 . S
C923 C918 1.379 . S
C923 N921 1.356 . S
N924 C916 1.356 . S
N924 H930 0.984 . S
N924 H931 0.984 . S
N925 C918 1.356 . S
N925 H928 0.984 . S
N925 H929 0.985 . S
H926 N921 0.984 . S
H927 N921 0.985 . S
H928 N925 0.984 . S
H929 N925 0.985 . S
H930 N924 0.984 . S
H931 N924 0.984 . S
H932 N920 0.984 . S
H933 N920 0.985 . S
C934 C935 1.363 . S
C934 C940 1.379 . S
C934 N942 1.356 . S
C935 C934 1.363 . S
C935 C941 1.363 . S
C936 C937 1.363 . S
C936 C941 1.379 . S
C936 N943 1.356 . S
C937 C936 1.363 . S
C937 C940 1.363 . S
N938 C940 1.356 . S
N938 H950 0.984 . S
N938 H951 0.985 . S
N939 C941 1.356 . S
N939 H944 0.984 . S
N939 H945 0.985 . S
C940 C934 1.379 . S
C940 C937 1.363 . S
C940 N938 1.356 . S
C941 C935 1.363 . S
C941 C936 1.379 . S
C941 N939 1.356 . S
N942 C934 1.356 . S
N942 H948 0.984 . S
N942 H949 0.984 . S
N943 C936 1.356 . S
N943 H946 0.984 . S
N943 H947 0.985 . S
H944 N939 0.984 . S
H945 N939 0.985 . S
H946 N943 0.984 . S
H947 N943 0.985 . S
H948 N942 0.984 . S
H949 N942 0.984 . S
H950 N938 0.984 . S
H951 N938 0.985 . S
C952 C953 1.363 . S
C952 C958 1.379 . S
C952 N960 1.356 . S
C953 C952 1.363 . S
C953 C959 1.363 . S
C954 C955 1.363 . S
C954 C959 1.379 . S
C954 N961 1.356 . S
C955 C954 1.363 . S
C955 C958 1.363 . S
N956 C958 1.356 . S
N956 H968 0.984 . S
N956 H969 0.985 . S
N957 C959 1.356 . S
N957 H962 0.984 . S
N957 H963 0.985 . S
C958 C952 1.379 . S
C958 C955 1.363 . S
C958 N956 1.356 . S
C959 C953 1.363 . S
C959 C954 1.379 . S
C959 N957 1.356 . S
N960 C952 1.356 . S
N960 H966 0.984 . S
N960 H967 0.984 . S
N961 C954 1.356 . S
N961 H964 0.984 . S
N961 H965 0.985 . S
H962 N957 0.984 . S
H963 N957 0.985 . S
H964 N961 0.984 . S
H965 N961 0.985 . S
H966 N960 0.984 . S
H967 N960 0.984 . S
H968 N956 0.984 . S
H969 N956 0.985 . S
C970 C971 1.363 . S
C970 C976 1.379 . S
C970 N978 1.356 . S
C971 C970 1.363 . S
C971 C977 1.363 . S
C972 C973 1.363 . S
C972 C977 1.379 . S
C972 N979 1.356 . S
C973 C972 1.363 . S
C973 C976 1.363 . S
N974 C976 1.356 . S
N974 H986 0.984 . S
N974 H987 0.985 . S
N975 C977 1.356 . S
N975 H980 0.984 . S
N975 H981 0.985 . S
C976 C970 1.379 . S
C976 C973 1.363 . S
C976 N974 1.356 . S
C977 C971 1.363 . S
C977 C972 1.379 . S
C977 N975 1.356 . S
N978 C970 1.356 . S
N978 H984 0.984 . S
N978 H985 0.984 . S
N979 C972 1.356 . S
N979 H982 0.984 . S
N979 H983 0.985 . S
H980 N975 0.984 . S
H981 N975 0.985 . S
H982 N979 0.984 . S
H983 N979 0.985 . S
H984 N978 0.984 . S
H985 N978 0.984 . S
H986 N974 0.984 . S
H987 N974 0.985 . S
C988 C989 1.363 . S
C988 C994 1.379 . S
C988 N996 1.356 . S
C989 C988 1.363 . S
C989 C995 1.363 . S
C990 C991 1.363 . S
C990 C995 1.379 . S
C990 N997 1.356 . S
C991 C990 1.363 . S
C991 C994 1.363 . S
N992 C994 1.356 . S
N992 H1004 0.984 . S
N992 H1005 0.985 . S
N993 C995 1.356 . S
N993 H998 0.984 . S
N993 H999 0.985 . S
C994 C988 1.379 . S
C994 C991 1.363 . S
C994 N992 1.356 . S
C995 C989 1.363 . S
C995 C990 1.379 . S
C995 N993 1.356 . S
N996 C988 1.356 . S
N996 H1002 0.984 . S
N996 H1003 0.984 . S
N997 C990 1.356 . S
N997 H1000 0.984 . S
N997 H1001 0.985 . S
H998 N993 0.984 . S
H999 N993 0.985 . S
H1000 N997 0.984 . S
H1001 N997 0.985 . S
H1002 N996 0.984 . S
H1003 N996 0.984 . S
H1004 N992 0.984 . S
H1005 N992 0.985 . S
C1006 C1007 1.363 . S
C1006 C1012 1.379 . S
C1006 N1014 1.356 . S
C1007 C1006 1.363 . S
C1007 C1013 1.363 . S
C1008 C1009 1.363 . S
C1008 C1013 1.379 . S
C1008 N1015 1.356 . S
C1009 C1008 1.363 . S
C1009 C1012 1.363 . S
N1010 C1012 1.356 . S
N1010 H1022 0.984 . S
N1010 H1023 0.985 . S
N1011 C1013 1.356 . S
N1011 H1016 0.984 . S
N1011 H1017 0.985 . S
C1012 C1006 1.379 . S
C1012 C1009 1.363 . S
C1012 N1010 1.356 . S
C1013 C1007 1.363 . S
C1013 C1008 1.379 . S
C1013 N1011 1.356 . S
N1014 C1006 1.356 . S
N1014 H1020 0.984 . S
N1014 H1021 0.984 . S
N1015 C1008 1.356 . S
N1015 H1018 0.984 . S
N1015 H1019 0.985 . S
H1016 N1011 0.984 . S
H1017 N1011 0.985 . S
H1018 N1015 0.984 . S
H1019 N1015 0.985 . S
H1020 N1014 0.984 . S
H1021 N1014 0.984 . S
H1022 N1010 0.984 . S
H1023 N1010 0.985 . S
C1024 C1025 1.363 . S
C1024 C1030 1.379 . S
C1024 N1032 1.356 . S
C1025 C1024 1.363 . S
C1025 C1031 1.363 . S
C1026 C1027 1.363 . S
C1026 C1031 1.379 . S
C1026 N1033 1.356 . S
C1027 C1026 1.363 . S
C1027 C1030 1.363 . S
N1028 C1030 1.356 . S
N1028 H1040 0.984 . S
N1028 H1041 0.985 . S
N1029 C1031 1.356 . S
N1029 H1034 0.984 . S
N1029 H1035 0.985 . S
C1030 C1024 1.379 . S
C1030 C1027 1.363 . S
C1030 N1028 1.356 . S
C1031 C1025 1.363 . S
C1031 C1026 1.379 . S
C1031 N1029 1.356 . S
N1032 C1024 1.356 . S
N1032 H1038 0.984 . S
N1032 H1039 0.984 . S
N1033 C1026 1.356 . S
N1033 H1036 0.984 . S
N1033 H1037 0.985 . S
H1034 N1029 0.984 . S
H1035 N1029 0.985 . S
H1036 N1033 0.984 . S
H1037 N1033 0.985 . S
H1038 N1032 0.984 . S
H1039 N1032 0.984 . S
H1040 N1028 0.984 . S
H1041 N1028 0.985 . S
C1042 C1043 1.363 . S
C1042 C1048 1.379 . S
C1042 N1050 1.356 . S
C1043 C1042 1.363 . S
C1043 C1049 1.363 . S
C1044 C1045 1.363 . S
C1044 C1049 1.379 . S
C1044 N1051 1.356 . S
C1045 C1044 1.363 . S
C1045 C1048 1.363 . S
N1046 C1048 1.356 . S
N1046 H1058 0.984 . S
N1046 H1059 0.985 . S
N1047 C1049 1.356 . S
N1047 H1052 0.984 . S
N1047 H1053 0.985 . S
C1048 C1042 1.379 . S
C1048 C1045 1.363 . S
C1048 N1046 1.356 . S
C1049 C1043 1.363 . S
C1049 C1044 1.379 . S
C1049 N1047 1.356 . S
N1050 C1042 1.356 . S
N1050 H1056 0.984 . S
N1050 H1057 0.984 . S
N1051 C1044 1.356 . S
N1051 H1054 0.984 . S
N1051 H1055 0.985 . S
H1052 N1047 0.984 . S
H1053 N1047 0.985 . S
H1054 N1051 0.984 . S
H1055 N1051 0.985 . S
H1056 N1050 0.984 . S
H1057 N1050 0.984 . S
H1058 N1046 0.984 . S
H1059 N1046 0.985 . S
C1060 C1061 1.363 . S
C1060 C1066 1.379 . S
C1060 N1068 1.356 . S
C1061 C1060 1.363 . S
C1061 C1067 1.363 . S
C1062 C1063 1.363 . S
C1062 C1067 1.379 . S
C1062 N1069 1.356 . S
C1063 C1062 1.363 . S
C1063 C1066 1.363 . S
N1064 C1066 1.356 . S
N1064 H1076 0.984 . S
N1064 H1077 0.985 . S
N1065 C1067 1.356 . S
N1065 H1070 0.984 . S
N1065 H1071 0.985 . S
C1066 C1060 1.379 . S
C1066 C1063 1.363 . S
C1066 N1064 1.356 . S
C1067 C1061 1.363 . S
C1067 C1062 1.379 . S
C1067 N1065 1.356 . S
N1068 C1060 1.356 . S
N1068 H1074 0.984 . S
N1068 H1075 0.984 . S
N1069 C1062 1.356 . S
N1069 H1072 0.984 . S
N1069 H1073 0.985 . S
H1070 N1065 0.984 . S
H1071 N1065 0.985 . S
H1072 N1069 0.984 . S
H1073 N1069 0.985 . S
H1074 N1068 0.984 . S
H1075 N1068 0.984 . S
H1076 N1064 0.984 . S
H1077 N1064 0.985 . S
C1078 C1079 1.363 . S
C1078 C1084 1.379 . S
C1078 N1086 1.356 . S
C1079 C1078 1.363 . S
C1079 C1085 1.363 . S
C1080 C1081 1.363 . S
C1080 C1085 1.379 . S
C1080 N1087 1.356 . S
C1081 C1080 1.363 . S
C1081 C1084 1.363 . S
N1082 C1084 1.356 . S
N1082 H1094 0.984 . S
N1082 H1095 0.985 . S
N1083 C1085 1.356 . S
N1083 H1088 0.984 . S
N1083 H1089 0.985 . S
C1084 C1078 1.379 . S
C1084 C1081 1.363 . S
C1084 N1082 1.356 . S
C1085 C1079 1.363 . S
C1085 C1080 1.379 . S
C1085 N1083 1.356 . S
N1086 C1078 1.356 . S
N1086 H1092 0.984 . S
N1086 H1093 0.984 . S
N1087 C1080 1.356 . S
N1087 H1090 0.984 . S
N1087 H1091 0.985 . S
H1088 N1083 0.984 . S
H1089 N1083 0.985 . S
H1090 N1087 0.984 . S
H1091 N1087 0.985 . S
H1092 N1086 0.984 . S
H1093 N1086 0.984 . S
H1094 N1082 0.984 . S
H1095 N1082 0.985 . S
C1096 C1097 1.363 . S
C1096 C1102 1.379 . S
C1096 N1104 1.356 . S
C1097 C1096 1.363 . S
C1097 C1103 1.363 . S
C1098 C1099 1.363 . S
C1098 C1103 1.379 . S
C1098 N1105 1.356 . S
C1099 C1098 1.363 . S
C1099 C1102 1.363 . S
N1100 C1102 1.356 . S
N1100 H1112 0.984 . S
N1100 H1113 0.985 . S
N1101 C1103 1.356 . S
N1101 H1106 0.984 . S
N1101 H1107 0.985 . S
C1102 C1096 1.379 . S
C1102 C1099 1.363 . S
C1102 N1100 1.356 . S
C1103 C1097 1.363 . S
C1103 C1098 1.379 . S
C1103 N1101 1.356 . S
N1104 C1096 1.356 . S
N1104 H1110 0.984 . S
N1104 H1111 0.984 . S
N1105 C1098 1.356 . S
N1105 H1108 0.984 . S
N1105 H1109 0.985 . S
H1106 N1101 0.984 . S
H1107 N1101 0.985 . S
H1108 N1105 0.984 . S
H1109 N1105 0.985 . S
H1110 N1104 0.984 . S
H1111 N1104 0.984 . S
H1112 N1100 0.984 . S
H1113 N1100 0.985 . S
C1114 C1115 1.363 . S
C1114 C1120 1.379 . S
C1114 N1122 1.356 . S
C1115 C1114 1.363 . S
C1115 C1121 1.363 . S
C1116 C1117 1.363 . S
C1116 C1121 1.379 . S
C1116 N1123 1.356 . S
C1117 C1116 1.363 . S
C1117 C1120 1.363 . S
N1118 C1120 1.356 . S
N1118 H1130 0.984 . S
N1118 H1131 0.985 . S
N1119 C1121 1.356 . S
N1119 H1124 0.973 1_455 S
N1119 H1125 0.985 1_455 S
C1120 C1114 1.379 . S
C1120 C1117 1.363 . S
C1120 N1118 1.356 . S
C1121 C1115 1.363 . S
C1121 C1116 1.379 . S
C1121 N1119 1.356 . S
N1122 C1114 1.356 . S
N1122 H1128 0.984 . S
N1122 H1129 0.984 . S
N1123 C1116 1.356 . S
N1123 H1126 0.984 . S
N1123 H1127 0.985 . S
H1124 N1119 0.973 1_655 S
H1125 N1119 0.985 1_655 S
H1126 N1123 0.984 . S
H1127 N1123 0.985 . S
H1128 N1122 0.984 . S
H1129 N1122 0.984 . S
H1130 N1118 0.984 . S
H1131 N1118 0.985 . S
C1132 C1133 1.363 . S
C1132 C1138 1.379 . S
C1132 N1140 1.356 . S
C1133 C1132 1.363 . S
C1133 C1139 1.363 . S
C1134 C1135 1.363 . S
C1134 C1139 1.379 . S
C1134 N1141 1.356 . S
C1135 C1134 1.363 . S
C1135 C1138 1.363 . S
N1136 C1138 1.356 . S
N1136 H1148 0.984 . S
N1136 H1149 0.985 . S
N1137 C1139 1.356 . S
N1137 H1142 0.984 . S
N1137 H1143 0.985 . S
C1138 C1132 1.379 . S
C1138 C1135 1.363 . S
C1138 N1136 1.356 . S
C1139 C1133 1.363 . S
C1139 C1134 1.379 . S
C1139 N1137 1.356 . S
N1140 C1132 1.356 . S
N1140 H1146 0.984 . S
N1140 H1147 0.984 . S
N1141 C1134 1.356 . S
N1141 H1144 0.984 . S
N1141 H1145 0.985 . S
H1142 N1137 0.984 . S
H1143 N1137 0.985 . S
H1144 N1141 0.984 . S
H1145 N1141 0.985 . S
H1146 N1140 0.984 . S
H1147 N1140 0.984 . S
H1148 N1136 0.984 . S
H1149 N1136 0.985 . S
C1150 C1151 1.363 . S
C1150 C1156 1.379 . S
C1150 N1158 1.356 . S
C1151 C1150 1.363 . S
C1151 C1157 1.363 . S
C1152 C1153 1.363 . S
C1152 C1157 1.379 . S
C1152 N1159 1.356 . S
C1153 C1152 1.363 . S
C1153 C1156 1.363 . S
N1154 C1156 1.356 . S
N1154 H1166 0.984 . S
N1154 H1167 0.985 . S
N1155 C1157 1.356 . S
N1155 H1160 0.984 . S
N1155 H1161 0.985 . S
C1156 C1150 1.379 . S
C1156 C1153 1.363 . S
C1156 N1154 1.356 . S
C1157 C1151 1.363 . S
C1157 C1152 1.379 . S
C1157 N1155 1.356 . S
N1158 C1150 1.356 . S
N1158 H1164 0.984 . S
N1158 H1165 0.984 . S
N1159 C1152 1.356 . S
N1159 H1162 0.984 . S
N1159 H1163 0.985 . S
H1160 N1155 0.984 . S
H1161 N1155 0.985 . S
H1162 N1159 0.984 . S
H1163 N1159 0.985 . S
H1164 N1158 0.984 . S
H1165 N1158 0.984 . S
H1166 N1154 0.984 . S
H1167 N1154 0.985 . S
C1168 C1169 1.363 . S
C1168 C1174 1.379 . S
C1168 N1176 1.356 . S
C1169 C1168 1.363 . S
C1169 C1175 1.363 . S
C1170 C1171 1.363 . S
C1170 C1175 1.379 . S
C1170 N1177 1.356 . S
C1171 C1170 1.363 . S
C1171 C1174 1.363 . S
N1172 C1174 1.356 . S
N1172 H1184 0.984 . S
N1172 H1185 0.985 . S
N1173 C1175 1.356 . S
N1173 H1178 0.984 . S
N1173 H1179 0.985 . S
C1174 C1168 1.379 . S
C1174 C1171 1.363 . S
C1174 N1172 1.356 . S
C1175 C1169 1.363 . S
C1175 C1170 1.379 . S
C1175 N1173 1.356 . S
N1176 C1168 1.356 . S
N1176 H1182 0.984 . S
N1176 H1183 0.984 . S
N1177 C1170 1.356 . S
N1177 H1180 0.984 . S
N1177 H1181 0.985 . S
H1178 N1173 0.984 . S
H1179 N1173 0.985 . S
H1180 N1177 0.984 . S
H1181 N1177 0.985 . S
H1182 N1176 0.984 . S
H1183 N1176 0.984 . S
H1184 N1172 0.984 . S
H1185 N1172 0.985 . S
C1186 C1187 1.363 . S
C1186 C1192 1.379 . S
C1186 N1194 1.356 . S
C1187 C1186 1.363 . S
C1187 C1193 1.363 . S
C1188 C1189 1.363 . S
C1188 C1193 1.379 . S
C1188 N1195 1.356 . S
C1189 C1188 1.363 . S
C1189 C1192 1.363 . S
N1190 C1192 1.356 . S
N1190 H1202 0.984 . S
N1190 H1203 0.985 . S
N1191 C1193 1.356 . S
N1191 H1196 0.984 . S
N1191 H1197 0.985 . S
C1192 C1186 1.379 . S
C1192 C1189 1.363 . S
C1192 N1190 1.356 . S
C1193 C1187 1.363 . S
C1193 C1188 1.379 . S
C1193 N1191 1.356 . S
N1194 C1186 1.356 . S
N1194 H1200 0.984 . S
N1194 H1201 0.984 . S
N1195 C1188 1.356 . S
N1195 H1198 0.984 . S
N1195 H1199 0.985 . S
H1196 N1191 0.984 . S
H1197 N1191 0.985 . S
H1198 N1195 0.984 . S
H1199 N1195 0.985 . S
H1200 N1194 0.984 . S
H1201 N1194 0.984 . S
H1202 N1190 0.984 . S
H1203 N1190 0.985 . S
C1204 C1205 1.363 . S
C1204 C1210 1.379 . S
C1204 N1212 1.356 . S
C1205 C1204 1.363 . S
C1205 C1211 1.363 . S
C1206 C1207 1.363 . S
C1206 C1211 1.379 . S
C1206 N1213 1.356 . S
C1207 C1206 1.363 . S
C1207 C1210 1.363 . S
N1208 C1210 1.356 . S
N1208 H1220 0.984 . S
N1208 H1221 0.985 . S
N1209 C1211 1.356 . S
N1209 H1214 0.984 . S
N1209 H1215 0.985 . S
C1210 C1204 1.379 . S
C1210 C1207 1.363 . S
C1210 N1208 1.356 . S
C1211 C1205 1.363 . S
C1211 C1206 1.379 . S
C1211 N1209 1.356 . S
N1212 C1204 1.356 . S
N1212 H1218 0.984 . S
N1212 H1219 0.984 . S
N1213 C1206 1.356 . S
N1213 H1216 0.984 . S
N1213 H1217 0.985 . S
H1214 N1209 0.984 . S
H1215 N1209 0.985 . S
H1216 N1213 0.984 . S
H1217 N1213 0.985 . S
H1218 N1212 0.984 . S
H1219 N1212 0.984 . S
H1220 N1208 0.984 . S
H1221 N1208 0.985 . S
C1222 C1223 1.363 . S
C1222 C1228 1.379 . S
C1222 N1230 1.356 . S
C1223 C1222 1.363 . S
C1223 C1229 1.363 . S
C1224 C1225 1.363 . S
C1224 C1229 1.379 . S
C1224 N1231 1.356 . S
C1225 C1224 1.363 . S
C1225 C1228 1.363 . S
N1226 C1228 1.356 . S
N1226 H1238 0.984 . S
N1226 H1239 0.985 . S
N1227 C1229 1.356 . S
N1227 H1232 0.984 . S
N1227 H1233 0.985 . S
C1228 C1222 1.379 . S
C1228 C1225 1.363 . S
C1228 N1226 1.356 . S
C1229 C1223 1.363 . S
C1229 C1224 1.379 . S
C1229 N1227 1.356 . S
N1230 C1222 1.356 . S
N1230 H1236 0.984 . S
N1230 H1237 0.984 . S
N1231 C1224 1.356 . S
N1231 H1234 0.984 . S
N1231 H1235 0.985 . S
H1232 N1227 0.984 . S
H1233 N1227 0.985 . S
H1234 N1231 0.984 . S
H1235 N1231 0.985 . S
H1236 N1230 0.984 . S
H1237 N1230 0.984 . S
H1238 N1226 0.984 . S
H1239 N1226 0.985 . S
C1240 C1241 1.363 . S
C1240 C1246 1.379 . S
C1240 N1248 1.356 . S
C1241 C1240 1.363 . S
C1241 C1247 1.363 . S
C1242 C1243 1.363 . S
C1242 C1247 1.379 . S
C1242 N1249 1.356 . S
C1243 C1242 1.363 . S
C1243 C1246 1.363 . S
N1244 C1246 1.356 . S
N1244 H1256 0.984 . S
N1244 H1257 0.985 . S
N1245 C1247 1.356 . S
N1245 H1250 0.984 . S
N1245 H1251 0.985 . S
C1246 C1240 1.379 . S
C1246 C1243 1.363 . S
C1246 N1244 1.356 . S
C1247 C1241 1.363 . S
C1247 C1242 1.379 . S
C1247 N1245 1.356 . S
N1248 C1240 1.356 . S
N1248 H1254 0.984 . S
N1248 H1255 0.984 . S
N1249 C1242 1.356 . S
N1249 H1252 0.984 . S
N1249 H1253 0.985 . S
H1250 N1245 0.984 . S
H1251 N1245 0.985 . S
H1252 N1249 0.984 . S
H1253 N1249 0.985 . S
H1254 N1248 0.984 . S
H1255 N1248 0.984 . S
H1256 N1244 0.984 . S
H1257 N1244 0.985 . S
C1258 C1259 1.363 . S
C1258 C1264 1.379 . S
C1258 N1266 1.356 . S
C1259 C1258 1.363 . S
C1259 C1265 1.363 . S
C1260 C1261 1.363 . S
C1260 C1265 1.379 . S
C1260 N1267 1.356 . S
C1261 C1260 1.363 . S
C1261 C1264 1.363 . S
N1262 C1264 1.356 . S
N1262 H1274 0.984 . S
N1262 H1275 0.985 . S
N1263 C1265 1.356 . S
N1263 H1268 0.984 . S
N1263 H1269 0.985 . S
C1264 C1258 1.379 . S
C1264 C1261 1.363 . S
C1264 N1262 1.356 . S
C1265 C1259 1.363 . S
C1265 C1260 1.379 . S
C1265 N1263 1.356 . S
N1266 C1258 1.356 . S
N1266 H1272 0.984 . S
N1266 H1273 0.984 . S
N1267 C1260 1.356 . S
N1267 H1270 0.984 . S
N1267 H1271 0.985 . S
H1268 N1263 0.984 . S
H1269 N1263 0.985 . S
H1270 N1267 0.984 . S
H1271 N1267 0.985 . S
H1272 N1266 0.984 . S
H1273 N1266 0.984 . S
H1274 N1262 0.984 . S
H1275 N1262 0.985 . S
C1276 C1277 1.363 . S
C1276 C1282 1.379 . S
C1276 N1284 1.356 . S
C1277 C1276 1.363 . S
C1277 C1283 1.363 . S
C1278 C1279 1.363 . S
C1278 C1283 1.379 . S
C1278 N1285 1.356 . S
C1279 C1278 1.363 . S
C1279 C1282 1.363 . S
N1280 C1282 1.356 . S
N1280 H1292 0.984 . S
N1280 H1293 0.985 . S
N1281 C1283 1.356 . S
N1281 H1286 0.984 . S
N1281 H1287 0.985 . S
C1282 C1276 1.379 . S
C1282 C1279 1.363 . S
C1282 N1280 1.356 . S
C1283 C1277 1.363 . S
C1283 C1278 1.379 . S
C1283 N1281 1.356 . S
N1284 C1276 1.356 . S
N1284 H1290 0.984 . S
N1284 H1291 0.984 . S
N1285 C1278 1.356 . S
N1285 H1288 0.984 . S
N1285 H1289 0.985 . S
H1286 N1281 0.984 . S
H1287 N1281 0.985 . S
H1288 N1285 0.984 . S
H1289 N1285 0.985 . S
H1290 N1284 0.984 . S
H1291 N1284 0.984 . S
H1292 N1280 0.984 . S
H1293 N1280 0.985 . S
C1294 C1295 1.363 . S
C1294 C1300 1.379 . S
C1294 N1302 1.356 . S
C1295 C1294 1.363 . S
C1295 C1301 1.363 . S
C1296 C1297 1.363 . S
C1296 C1301 1.379 . S
C1296 N1303 1.356 . S
C1297 C1296 1.363 . S
C1297 C1300 1.363 . S
N1298 C1300 1.356 . S
N1298 H1310 0.984 . S
N1298 H1311 0.985 . S
N1299 C1301 1.356 . S
N1299 H1304 0.984 . S
N1299 H1305 0.985 . S
C1300 C1294 1.379 . S
C1300 C1297 1.363 . S
C1300 N1298 1.356 . S
C1301 C1295 1.363 . S
C1301 C1296 1.379 . S
C1301 N1299 1.356 . S
N1302 C1294 1.356 . S
N1302 H1308 0.984 . S
N1302 H1309 0.984 . S
N1303 C1296 1.356 . S
N1303 H1306 0.984 . S
N1303 H1307 0.985 . S
H1304 N1299 0.984 . S
H1305 N1299 0.985 . S
H1306 N1303 0.984 . S
H1307 N1303 0.985 . S
H1308 N1302 0.984 . S
H1309 N1302 0.984 . S
H1310 N1298 0.984 . S
H1311 N1298 0.985 . S
C1312 C1313 1.363 . S
C1312 C1318 1.379 . S
C1312 N1320 1.356 . S
C1313 C1312 1.363 . S
C1313 C1319 1.363 . S
C1314 C1315 1.363 . S
C1314 C1319 1.379 . S
C1314 N1321 1.356 . S
C1315 C1314 1.363 . S
C1315 C1318 1.363 . S
N1316 C1318 1.356 . S
N1316 H1328 0.984 . S
N1316 H1329 0.985 . S
N1317 C1319 1.356 . S
N1317 H1322 0.984 . S
N1317 H1323 0.985 . S
C1318 C1312 1.379 . S
C1318 C1315 1.363 . S
C1318 N1316 1.356 . S
C1319 C1313 1.363 . S
C1319 C1314 1.379 . S
C1319 N1317 1.356 . S
N1320 C1312 1.356 . S
N1320 H1326 0.984 . S
N1320 H1327 0.984 . S
N1321 C1314 1.356 . S
N1321 H1324 0.984 . S
N1321 H1325 0.985 . S
H1322 N1317 0.984 . S
H1323 N1317 0.985 . S
H1324 N1321 0.984 . S
H1325 N1321 0.985 . S
H1326 N1320 0.984 . S
H1327 N1320 0.984 . S
H1328 N1316 0.984 . S
H1329 N1316 0.985 . S
C1330 C1331 1.363 . S
C1330 C1336 1.379 . S
C1330 N1338 1.356 . S
C1331 C1330 1.363 . S
C1331 C1337 1.363 . S
C1332 C1333 1.363 . S
C1332 C1337 1.379 . S
C1332 N1339 1.356 . S
C1333 C1332 1.363 . S
C1333 C1336 1.363 . S
N1334 C1336 1.356 . S
N1334 H1346 0.984 . S
N1334 H1347 0.985 . S
N1335 C1337 1.356 . S
N1335 H1340 0.984 . S
N1335 H1341 0.985 . S
C1336 C1330 1.379 . S
C1336 C1333 1.363 . S
C1336 N1334 1.356 . S
C1337 C1331 1.363 . S
C1337 C1332 1.379 . S
C1337 N1335 1.356 . S
N1338 C1330 1.356 . S
N1338 H1344 0.984 . S
N1338 H1345 0.984 . S
N1339 C1332 1.356 . S
N1339 H1342 0.984 . S
N1339 H1343 0.985 . S
H1340 N1335 0.984 . S
H1341 N1335 0.985 . S
H1342 N1339 0.984 . S
H1343 N1339 0.985 . S
H1344 N1338 0.984 . S
H1345 N1338 0.984 . S
H1346 N1334 0.984 . S
H1347 N1334 0.985 . S
C1348 C1349 1.363 . S
C1348 C1354 1.379 . S
C1348 N1356 1.356 . S
C1349 C1348 1.363 . S
C1349 C1355 1.363 . S
C1350 C1351 1.363 . S
C1350 C1355 1.379 . S
C1350 N1357 1.356 . S
C1351 C1350 1.363 . S
C1351 C1354 1.363 . S
N1352 C1354 1.356 . S
N1352 H1364 0.984 . S
N1352 H1365 0.985 . S
N1353 C1355 1.356 . S
N1353 H1358 0.984 . S
N1353 H1359 0.985 . S
C1354 C1348 1.379 . S
C1354 C1351 1.363 . S
C1354 N1352 1.356 . S
C1355 C1349 1.363 . S
C1355 C1350 1.379 . S
C1355 N1353 1.356 . S
N1356 C1348 1.356 . S
N1356 H1362 0.984 . S
N1356 H1363 0.984 . S
N1357 C1350 1.356 . S
N1357 H1360 0.984 . S
N1357 H1361 0.985 . S
H1358 N1353 0.984 . S
H1359 N1353 0.985 . S
H1360 N1357 0.984 . S
H1361 N1357 0.985 . S
H1362 N1356 0.984 . S
H1363 N1356 0.984 . S
H1364 N1352 0.984 . S
H1365 N1352 0.985 . S
C1366 C1367 1.363 1_554 S
C1366 C1372 1.379 . S
C1366 N1374 1.356 . S
C1367 C1366 1.363 1_556 S
C1367 C1373 1.363 . S
C1368 C1369 1.363 1_556 S
C1368 C1373 1.379 . S
C1368 N1375 1.356 . S
C1369 C1368 1.363 1_554 S
C1369 C1372 1.363 . S
N1370 C1372 1.356 . S
N1370 H1382 0.984 . S
N1370 H1383 0.985 . S
N1371 C1373 1.356 . S
N1371 H1376 0.984 . S
N1371 H1377 0.985 . S
C1372 C1366 1.379 . S
C1372 C1369 1.363 . S
C1372 N1370 1.356 . S
C1373 C1367 1.363 . S
C1373 C1368 1.379 . S
C1373 N1371 1.356 . S
N1374 C1366 1.356 . S
N1374 H1380 0.984 . S
N1374 H1381 0.984 . S
N1375 C1368 1.356 . S
N1375 H1378 0.984 . S
N1375 H1379 0.985 . S
H1376 N1371 0.984 . S
H1377 N1371 0.985 . S
H1378 N1375 0.984 . S
H1379 N1375 0.985 . S
H1380 N1374 0.984 . S
H1381 N1374 0.984 . S
H1382 N1370 0.984 . S
H1383 N1370 0.985 . S
C1384 C1385 1.363 . S
C1384 C1390 1.379 . S
C1384 N1392 1.356 . S
C1385 C1384 1.363 . S
C1385 C1391 1.363 . S
C1386 C1387 1.363 . S
C1386 C1391 1.379 . S
C1386 N1393 1.356 . S
C1387 C1386 1.363 . S
C1387 C1390 1.363 . S
N1388 C1390 1.356 . S
N1388 H1400 0.984 . S
N1388 H1401 0.985 . S
N1389 C1391 1.356 . S
N1389 H1394 0.984 . S
N1389 H1395 0.985 1_655 S
C1390 C1384 1.379 . S
C1390 C1387 1.363 . S
C1390 N1388 1.356 . S
C1391 C1385 1.363 . S
C1391 C1386 1.379 . S
C1391 N1389 1.356 . S
N1392 C1384 1.356 . S
N1392 H1398 0.984 . S
N1392 H1399 0.984 . S
N1393 C1386 1.356 . S
N1393 H1396 0.984 . S
N1393 H1397 0.985 1_655 S
H1394 N1389 0.984 . S
H1395 N1389 0.985 1_455 S
H1396 N1393 0.984 . S
H1397 N1393 0.985 1_455 S
H1398 N1392 0.984 . S
H1399 N1392 0.984 . S
H1400 N1388 0.984 . S
H1401 N1388 0.985 . S
C1402 C1403 1.363 . S
C1402 C1408 1.379 . S
C1402 N1410 1.356 . S
C1403 C1402 1.363 . S
C1403 C1409 1.363 . S
C1404 C1405 1.363 . S
C1404 C1409 1.379 . S
C1404 N1411 1.356 . S
C1405 C1404 1.363 . S
C1405 C1408 1.363 . S
N1406 C1408 1.356 . S
N1406 H1418 0.984 . S
N1406 H1419 0.985 . S
N1407 C1409 1.356 . S
N1407 H1412 0.984 . S
N1407 H1413 0.985 . S
C1408 C1402 1.379 . S
C1408 C1405 1.363 . S
C1408 N1406 1.356 . S
C1409 C1403 1.363 . S
C1409 C1404 1.379 . S
C1409 N1407 1.356 . S
N1410 C1402 1.356 . S
N1410 H1416 0.984 . S
N1410 H1417 0.984 . S
N1411 C1404 1.356 . S
N1411 H1414 0.984 . S
N1411 H1415 0.985 . S
H1412 N1407 0.984 . S
H1413 N1407 0.985 . S
H1414 N1411 0.984 . S
H1415 N1411 0.985 . S
H1416 N1410 0.984 . S
H1417 N1410 0.984 . S
H1418 N1406 0.984 . S
H1419 N1406 0.985 . S
C1420 C1421 1.363 . S
C1420 C1426 1.379 . S
C1420 N1428 1.356 . S
C1421 C1420 1.363 . S
C1421 C1427 1.363 . S
C1422 C1423 1.363 . S
C1422 C1427 1.379 . S
C1422 N1429 1.356 . S
C1423 C1422 1.363 . S
C1423 C1426 1.363 . S
N1424 C1426 1.356 . S
N1424 H1436 0.984 . S
N1424 H1437 0.985 . S
N1425 C1427 1.356 . S
N1425 H1430 0.984 . S
N1425 H1431 0.985 . S
C1426 C1420 1.379 . S
C1426 C1423 1.363 . S
C1426 N1424 1.356 . S
C1427 C1421 1.363 . S
C1427 C1422 1.379 . S
C1427 N1425 1.356 . S
N1428 C1420 1.356 . S
N1428 H1434 0.984 . S
N1428 H1435 0.984 . S
N1429 C1422 1.356 . S
N1429 H1432 0.984 . S
N1429 H1433 0.985 . S
H1430 N1425 0.984 . S
H1431 N1425 0.985 . S
H1432 N1429 0.984 . S
H1433 N1429 0.985 . S
H1434 N1428 0.984 . S
H1435 N1428 0.984 . S
H1436 N1424 0.984 . S
H1437 N1424 0.985 . S
C1438 C1439 1.363 . S
C1438 C1444 1.379 . S
C1438 N1446 1.356 . S
C1439 C1438 1.363 . S
C1439 C1445 1.363 1_554 S
C1440 C1441 1.363 . S
C1440 C1445 1.379 . S
C1440 N1447 1.356 . S
C1441 C1440 1.363 . S
C1441 C1444 1.363 1_556 S
N1442 C1444 1.356 . S
N1442 H1454 0.984 . S
N1442 H1455 0.985 . S
N1443 C1445 1.356 . S
N1443 H1448 0.984 . S
N1443 H1449 0.985 . S
C1444 C1438 1.379 . S
C1444 C1441 1.363 1_554 S
C1444 N1442 1.356 . S
C1445 C1439 1.363 1_556 S
C1445 C1440 1.379 . S
C1445 N1443 1.356 . S
N1446 C1438 1.356 . S
N1446 H1452 0.984 . S
N1446 H1453 0.984 . S
N1447 C1440 1.356 . S
N1447 H1450 0.984 . S
N1447 H1451 0.985 . S
H1448 N1443 0.984 . S
H1449 N1443 0.985 . S
H1450 N1447 0.984 . S
H1451 N1447 0.985 . S
H1452 N1446 0.984 . S
H1453 N1446 0.984 . S
H1454 N1442 0.984 . S
H1455 N1442 0.985 . S
C1456 C1457 1.363 . S
C1456 C1462 1.379 1_565 S
C1456 N1464 1.356 . S
C1457 C1456 1.363 . S
C1457 C1463 1.363 . S
C1458 C1459 1.363 . S
C1458 C1463 1.379 1_545 S
C1458 N1465 1.356 . S
C1459 C1458 1.363 . S
C1459 C1462 1.363 . S
N1460 C1462 1.356 . S
N1460 H1472 0.984 . S
N1460 H1473 0.985 . S
N1461 C1463 1.356 . S
N1461 H1466 0.984 . S
N1461 H1467 0.985 . S
C1462 C1456 1.379 1_545 S
C1462 C1459 1.363 . S
C1462 N1460 1.356 . S
C1463 C1457 1.363 . S
C1463 C1458 1.379 1_565 S
C1463 N1461 1.356 . S
N1464 C1456 1.356 . S
N1464 H1470 0.984 . S
N1464 H1471 0.984 . S
N1465 C1458 1.356 . S
N1465 H1468 0.984 . S
N1465 H1469 0.985 . S
H1466 N1461 0.984 . S
H1467 N1461 0.985 . S
H1468 N1465 0.984 . S
H1469 N1465 0.985 . S
H1470 N1464 0.984 . S
H1471 N1464 0.984 . S
H1472 N1460 0.984 . S
H1473 N1460 0.985 . S
C1474 C1475 1.363 1_556 S
C1474 C1480 1.379 . S
C1474 N1482 1.356 . S
C1475 C1474 1.363 1_554 S
C1475 C1481 1.363 . S
C1476 C1477 1.363 1_554 S
C1476 C1481 1.379 . S
C1476 N1483 1.356 . S
C1477 C1476 1.363 1_556 S
C1477 C1480 1.363 . S
N1478 C1480 1.356 . S
N1478 H1490 0.984 . S
N1478 H1491 0.985 . S
N1479 C1481 1.356 . S
N1479 H1484 0.984 . S
N1479 H1485 0.985 . S
C1480 C1474 1.379 . S
C1480 C1477 1.363 . S
C1480 N1478 1.356 . S
C1481 C1475 1.363 . S
C1481 C1476 1.379 . S
C1481 N1479 1.356 . S
N1482 C1474 1.356 . S
N1482 H1488 0.984 . S
N1482 H1489 0.984 . S
N1483 C1476 1.356 . S
N1483 H1486 0.984 . S
N1483 H1487 0.985 . S
H1484 N1479 0.984 . S
H1485 N1479 0.985 . S
H1486 N1483 0.984 . S
H1487 N1483 0.985 . S
H1488 N1482 0.984 . S
H1489 N1482 0.984 . S
H1490 N1478 0.984 . S
H1491 N1478 0.985 . S
C1492 C1493 1.363 . S
C1492 C1498 1.379 1_545 S
C1492 N1500 1.356 . S
C1493 C1492 1.363 . S
C1493 C1499 1.363 . S
C1494 C1495 1.363 . S
C1494 C1499 1.379 1_565 S
C1494 N1501 1.356 . S
C1495 C1494 1.363 . S
C1495 C1498 1.363 . S
N1496 C1498 1.356 . S
N1496 H1508 0.984 . S
N1496 H1509 0.985 . S
N1497 C1499 1.356 . S
N1497 H1502 0.984 . S
N1497 H1503 0.985 1_655 S
C1498 C1492 1.379 1_565 S
C1498 C1495 1.363 . S
C1498 N1496 1.356 . S
C1499 C1493 1.363 . S
C1499 C1494 1.379 1_545 S
C1499 N1497 1.356 . S
N1500 C1492 1.356 . S
N1500 H1506 0.984 . S
N1500 H1507 0.984 . S
N1501 C1494 1.356 . S
N1501 H1504 0.984 . S
N1501 H1505 0.985 1_655 S
H1502 N1497 0.984 . S
H1503 N1497 0.985 1_455 S
H1504 N1501 0.984 . S
H1505 N1501 0.985 1_455 S
H1506 N1500 0.984 . S
H1507 N1500 0.984 . S
H1508 N1496 0.984 . S
H1509 N1496 0.985 . S
C1510 C1511 1.363 . S
C1510 C1516 1.379 . S
C1510 N1518 1.356 . S
C1511 C1510 1.363 . S
C1511 C1517 1.363 . S
C1512 C1513 1.363 . S
C1512 C1517 1.379 . S
C1512 N1519 1.356 . S
C1513 C1512 1.363 . S
C1513 C1516 1.363 . S
N1514 C1516 1.356 . S
N1514 H1526 0.984 . S
N1514 H1527 0.985 . S
N1515 C1517 1.356 . S
N1515 H1520 0.984 . S
N1515 H1521 0.985 . S
C1516 C1510 1.379 . S
C1516 C1513 1.363 . S
C1516 N1514 1.356 . S
C1517 C1511 1.363 . S
C1517 C1512 1.379 . S
C1517 N1515 1.356 . S
N1518 C1510 1.356 . S
N1518 H1524 0.984 . S
N1518 H1525 0.984 . S
N1519 C1512 1.356 . S
N1519 H1522 0.984 . S
N1519 H1523 0.985 . S
H1520 N1515 0.984 . S
H1521 N1515 0.985 . S
H1522 N1519 0.984 . S
H1523 N1519 0.985 . S
H1524 N1518 0.984 . S
H1525 N1518 0.984 . S
H1526 N1514 0.984 . S
H1527 N1514 0.985 . S
C1528 C1529 1.363 . S
C1528 C1534 1.379 1_545 S
C1528 N1536 1.356 . S
C1529 C1528 1.363 . S
C1529 C1535 1.363 . S
C1530 C1531 1.363 . S
C1530 C1535 1.379 1_565 S
C1530 N1537 1.356 . S
C1531 C1530 1.363 . S
C1531 C1534 1.363 . S
N1532 C1534 1.356 . S
N1532 H1544 0.984 . S
N1532 H1545 0.985 . S
N1533 C1535 1.356 . S
N1533 H1538 0.984 . S
N1533 H1539 0.985 . S
C1534 C1528 1.379 1_565 S
C1534 C1531 1.363 . S
C1534 N1532 1.356 . S
C1535 C1529 1.363 . S
C1535 C1530 1.379 1_545 S
C1535 N1533 1.356 . S
N1536 C1528 1.356 . S
N1536 H1542 0.984 . S
N1536 H1543 0.984 . S
N1537 C1530 1.356 . S
N1537 H1540 0.984 . S
N1537 H1541 0.985 . S
H1538 N1533 0.984 . S
H1539 N1533 0.985 . S
H1540 N1537 0.984 . S
H1541 N1537 0.985 . S
H1542 N1536 0.984 . S
H1543 N1536 0.984 . S
H1544 N1532 0.984 . S
H1545 N1532 0.985 . S
C1546 C1547 1.363 . S
C1546 C1552 1.379 . S
C1546 N1554 1.356 . S
C1547 C1546 1.363 . S
C1547 C1553 1.363 1_554 S
C1548 C1549 1.363 . S
C1548 C1553 1.379 . S
C1548 N1555 1.356 . S
C1549 C1548 1.363 . S
C1549 C1552 1.363 1_556 S
N1550 C1552 1.356 . S
N1550 H1562 0.984 . S
N1550 H1563 0.985 . S
N1551 C1553 1.356 . S
N1551 H1556 0.984 . S
N1551 H1557 0.985 . S
C1552 C1546 1.379 . S
C1552 C1549 1.363 1_554 S
C1552 N1550 1.356 . S
C1553 C1547 1.363 1_556 S
C1553 C1548 1.379 . S
C1553 N1551 1.356 . S
N1554 C1546 1.356 . S
N1554 H1560 0.984 . S
N1554 H1561 0.984 . S
N1555 C1548 1.356 . S
N1555 H1558 0.984 . S
N1555 H1559 0.985 . S
H1556 N1551 0.984 . S
H1557 N1551 0.985 . S
H1558 N1555 0.984 . S
H1559 N1555 0.985 . S
H1560 N1554 0.984 . S
H1561 N1554 0.984 . S
H1562 N1550 0.984 . S
H1563 N1550 0.985 . S
C1564 C1565 1.363 . S
C1564 C1570 1.379 1_545 S
C1564 N1572 1.356 . S
C1565 C1564 1.363 . S
C1565 C1571 1.363 . S
C1566 C1567 1.363 . S
C1566 C1571 1.379 1_565 S
C1566 N1573 1.356 . S
C1567 C1566 1.363 . S
C1567 C1570 1.363 . S
N1568 C1570 1.356 . S
N1568 H1580 0.989 . S
N1568 H1581 0.985 . S
N1569 C1571 1.356 . S
N1569 H1574 0.984 . S
N1569 H1575 0.985 . S
C1570 C1564 1.379 1_565 S
C1570 C1567 1.363 . S
C1570 N1568 1.356 . S
C1571 C1565 1.363 . S
C1571 C1566 1.379 1_545 S
C1571 N1569 1.356 . S
N1572 C1564 1.356 . S
N1572 H1578 0.989 . S
N1572 H1579 0.984 . S
N1573 C1566 1.356 . S
N1573 H1576 0.984 . S
N1573 H1577 0.985 . S
H1574 N1569 0.984 . S
H1575 N1569 0.985 . S
H1576 N1573 0.984 . S
H1577 N1573 0.985 . S
H1578 N1572 0.989 . S
H1579 N1572 0.984 . S
H1580 N1568 0.989 . S
H1581 N1568 0.985 . S
C1582 C1583 1.363 . S
C1582 C1588 1.379 . S
C1582 N1590 1.356 . S
C1583 C1582 1.363 . S
C1583 C1589 1.363 . S
C1584 C1585 1.363 . S
C1584 C1589 1.379 . S
C1584 N1591 1.356 . S
C1585 C1584 1.363 . S
C1585 C1588 1.363 . S
N1586 C1588 1.356 . S
N1586 H1598 0.984 . S
N1586 H1599 0.985 . S
N1587 C1589 1.356 . S
N1587 H1592 0.984 . S
N1587 H1593 0.985 . S
C1588 C1582 1.379 . S
C1588 C1585 1.363 . S
C1588 N1586 1.356 . S
C1589 C1583 1.363 . S
C1589 C1584 1.379 . S
C1589 N1587 1.356 . S
N1590 C1582 1.356 . S
N1590 H1596 0.984 . S
N1590 H1597 0.984 . S
N1591 C1584 1.356 . S
N1591 H1594 0.984 . S
N1591 H1595 0.985 . S
H1592 N1587 0.984 . S
H1593 N1587 0.985 . S
H1594 N1591 0.984 . S
H1595 N1591 0.985 . S
H1596 N1590 0.984 . S
H1597 N1590 0.984 . S
H1598 N1586 0.984 . S
H1599 N1586 0.985 . S
C449 C13 1.370 . S
C451 C307 1.370 . S
C467 C321 1.370 . S
C469 C27 1.370 . S
C485 C41 1.370 . S
C487 C335 1.370 . S
C503 C293 1.370 . S
C505 C55 1.370 . S
C521 C69 1.370 . S
C523 C279 1.370 . S
C539 C83 1.370 . S
C541 C237 1.370 . S
C557 C251 1.370 . S
C559 C97 1.370 . S
C575 C111 1.370 . S
C577 C265 1.370 . S
C593 C125 1.370 . S
C595 C419 1.370 . S
C611 C139 1.370 . S
C613 C433 1.370 . S
C629 C447 1.370 . S
C631 C153 1.370 . S
C647 C405 1.370 . S
C649 C167 1.370 . S
C665 C181 1.370 . S
C667 C391 1.370 . S
C683 C349 1.370 . S
C685 C195 1.370 . S
C701 C209 1.370 . S
C703 C363 1.370 . S
C719 C377 1.370 . S
C721 C223 1.370 . S
C737 C8 1.184 . S
C739 C133 1.204 . S
C755 C22 1.184 . S
C757 C371 1.204 . S
C773 C161 1.204 . S
C775 C36 1.184 . S
C791 C50 1.184 . S
C793 C343 1.204 . S
C809 C64 1.184 . S
C811 C217 1.204 . S
C827 C399 1.204 . S
C829 C78 1.184 . S
C845 C189 1.204 . S
C847 C92 1.184 . S
C863 C427 1.204 . S
C865 C106 1.184 . S
C881 C120 1.184 . S
C883 C21 1.204 . S
C899 C259 1.204 . S
C901 C134 1.184 . S
C917 C49 1.204 . S
C919 C148 1.184 . S
C935 C162 1.184 . S
C937 C231 1.204 . S
C953 C105 1.204 . S
C955 C176 1.184 . S
C971 C287 1.204 . S
C973 C190 1.184 . S
C989 C77 1.204 . S
C991 C204 1.184 . S
C1007 C218 1.184 . S
C1009 C315 1.204 . S
C1025 C357 1.204 . S
C1027 C232 1.184 . S
C1043 C147 1.204 . S
C1045 C246 1.184 . S
C1061 C385 1.204 . S
C1063 C260 1.184 . S
C1079 C274 1.184 . S
C1081 C119 1.204 . S
C1097 C441 1.204 . S
C1099 C288 1.184 . S
C1115 C175 1.204 . S
C1117 C302 1.184 . S
C1133 C413 1.204 . S
C1135 C316 1.184 . S
C1151 C330 1.184 . S
C1153 C203 1.204 . S
C1169 C344 1.184 . S
C1171 C245 1.204 . S
C1187 C35 1.204 . S
C1189 C358 1.184 . S
C1205 C372 1.184 . S
C1207 C273 1.204 . S
C1223 C386 1.184 . S
C1225 C7 1.204 . S
C1241 C400 1.184 . S
C1243 C329 1.204 . S
C1259 C63 1.204 . S
C1261 C414 1.184 . S
C1277 C301 1.204 . S
C1279 C428 1.184 . S
C1295 C442 1.184 . S
C1297 C91 1.204 . S
C1313 C11 1.355 . S
C1315 C67 1.355 . S
C1331 C25 1.355 . S
C1333 C81 1.355 . S
C1349 C95 1.355 . S
C1351 C39 1.355 . S
C1367 C109 1.355 . S
C1369 C53 1.355 . S
C1385 C179 1.355 . S
C1387 C123 1.355 . S
C1403 C193 1.355 . S
C1405 C137 1.355 . S
C1421 C207 1.355 . S
C1423 C151 1.355 . S
C1439 C221 1.355 . S
C1441 C165 1.355 . S
C1457 C235 1.355 . S
C1459 C291 1.355 . S
C1475 C249 1.355 . S
C1477 C305 1.355 . S
C1493 C263 1.355 . S
C1495 C319 1.355 . S
C1511 C333 1.355 . S
C1513 C277 1.355 . S
C1529 C347 1.355 . S
C1531 C403 1.355 . S
C1547 C417 1.355 . S
C1549 C361 1.355 . S
C1565 C431 1.355 . S
C1567 C375 1.355 . S
C1583 C445 1.355 . S
C1585 C389 1.355 . S
