# Generated by pormake.
# Topology sxa, (6)-cn, num edge types: 1
# Building blocks:
#     Node 0, Type 0, BuildingBlock: LEVNOQ01_clean_sbu_1, # of connection points: 6
#     Node 1, Type 0, BuildingBlock: LEVNOQ01_clean_sbu_1, # of connection points: 6
#     Node 2, Type 0, BuildingBlock: LEVNOQ01_clean_sbu_1, # of connection points: 6
#     Node 3, Type 0, BuildingBlock: LEVNOQ01_clean_sbu_1, # of connection points: 6
#     Edge 4, Type (0, 0), BuildingBlock: ZUJKAS_clean_linker_0, # of connection points: 2
#     Edge 5, Type (0, 0), BuildingBlock: ZUJKAS_clean_linker_0, # of connection points: 2
#     Edge 6, Type (0, 0), BuildingBlock: ZUJKAS_clean_linker_0, # of connection points: 2
#     Edge 7, Type (0, 0), BuildingBlock: ZUJKAS_clean_linker_0, # of connection points: 2
#     Edge 8, Type (0, 0), BuildingBlock: ZUJKAS_clean_linker_0, # of connection points: 2
#     Edge 9, Type (0, 0), BuildingBlock: ZUJKAS_clean_linker_0, # of connection points: 2
#     Edge 10, Type (0, 0), BuildingBlock: ZUJKAS_clean_linker_0, # of connection points: 2
#     Edge 11, Type (0, 0), BuildingBlock: ZUJKAS_clean_linker_0, # of connection points: 2
#     Edge 12, Type (0, 0), BuildingBlock: ZUJKAS_clean_linker_0, # of connection points: 2
#     Edge 13, Type (0, 0), BuildingBlock: ZUJKAS_clean_linker_0, # of connection points: 2
#     Edge 14, Type (0, 0), BuildingBlock: ZUJKAS_clean_linker_0, # of connection points: 2
#     Edge 15, Type (0, 0), BuildingBlock: ZUJKAS_clean_linker_0, # of connection points: 2
# Relax obj value: 0.189
# Max RMSD: 0.231
# Mean RMSD: 0.231
data_MOF--net-sxa--node1-LEVNOQ01_clean_sbu_1--edge1-ZUJKAS_clean_linker_0
_symmetry_space_group_name_H-M    P1
_symmetry_Int_Tables_number       1
_symmetry_cell_setting            triclinic
loop_
_symmetry_equiv_pos_as_xyz
'x, y, z'
_cell_length_a     32.408405
_cell_length_b     37.812758
_cell_length_c     20.136098
_cell_angle_alpha  90.102656
_cell_angle_beta   90.209865
_cell_angle_gamma 90.055666
loop_
_atom_site_label
_atom_site_type_symbol
_atom_site_fract_x
_atom_site_fract_y
_atom_site_fract_z
_atom_type_partial_charge
O0 O 0.06768 0.74435 0.04863 0.0
Mg1 Mg 0.057 0.72566 0.14539 0.0
O2 O 0.03842 0.78701 0.10344 0.0
Mg3 Mg 0.9939 0.76688 0.18471 0.0
O4 O 0.00097 0.70352 0.16979 0.0
O5 O 0.05884 0.67305 0.14633 0.0
O6 O 0.94574 0.75099 0.27044 0.0
O7 O 0.94457 0.759 0.10511 0.0
Mg8 Mg 0.92304 0.82132 0.20281 0.0
O9 O 0.98371 0.82839 0.18366 0.0
O10 O 0.91122 0.79967 0.29569 0.0
O11 O 0.89427 0.79786 0.1182 0.0
O12 O 0.94008 0.8732 0.20103 0.0
C13 C 0.08421 0.76467 0.26582 0.0
C14 C 0.06079 0.77694 0.05538 0.0
C15 C 0.01983 0.67346 0.15852 0.0
C16 C 0.92021 0.7678 0.30749 0.0
C17 C 0.91012 0.77196 0.08715 0.0
C18 C 0.97631 0.86229 0.18444 0.0
O19 O 0.09673 0.7453 0.21888 0.0
O20 O 0.04637 0.77441 0.26756 0.0
O21 O 0.59728 0.22703 0.14116 0.0
Mg22 Mg 0.56064 0.20457 0.21812 0.0
O23 O 0.55007 0.26603 0.11012 0.0
Mg24 Mg 0.49727 0.26158 0.18455 0.0
O25 O 0.50223 0.19945 0.18434 0.0
O26 O 0.54203 0.15324 0.21098 0.0
O27 O 0.44266 0.2563 0.26471 0.0
O28 O 0.45449 0.24496 0.098 0.0
Mg29 Mg 0.43489 0.30849 0.15075 0.0
O30 O 0.4945 0.3251 0.16838 0.0
O31 O 0.39721 0.29542 0.23026 0.0
O32 O 0.41845 0.28852 0.05701 0.0
O33 O 0.44015 0.36082 0.14817 0.0
C34 C 0.56407 0.25839 0.31783 0.0
C35 C 0.58539 0.25184 0.10304 0.0
C36 C 0.50792 0.16534 0.187 0.0
C37 C 0.40789 0.27203 0.27143 0.0
C38 C 0.42964 0.25663 0.05437 0.0
C39 C 0.47914 0.35673 0.15816 0.0
O40 O 0.56636 0.22513 0.31391 0.0
O41 O 0.54449 0.27585 0.27317 0.0
O42 O 0.09319 0.29279 0.90619 0.0
Mg43 Mg 0.06027 0.3127 0.82426 0.0
O44 O 0.04639 0.25127 0.90019 0.0
Mg45 Mg 0.99561 0.26559 0.82485 0.0
O46 O 0.00039 0.32974 0.83451 0.0
O47 O 0.05656 0.36479 0.83131 0.0
O48 O 0.94143 0.27736 0.74537 0.0
O49 O 0.95314 0.27557 0.91427 0.0
Mg50 Mg 0.92785 0.21248 0.832 0.0
O51 O 0.98975 0.20305 0.83316 0.0
O52 O 0.9018 0.22982 0.74352 0.0
O53 O 0.90656 0.23341 0.92289 0.0
O54 O 0.94115 0.16056 0.83138 0.0
C55 C 0.07063 0.27231 0.70538 0.0
C56 C 0.07943 0.26336 0.92541 0.0
C57 C 0.01723 0.36128 0.83768 0.0
C58 C 0.91121 0.25976 0.7205 0.0
C59 C 0.92313 0.26145 0.94496 0.0
C60 C 0.97943 0.16965 0.8357 0.0
O61 O 0.08249 0.30104 0.73071 0.0
O62 O 0.04151 0.25467 0.73278 0.0
O63 O 0.39868 0.72274 0.87927 0.0
Mg64 Mg 0.43063 0.70013 0.79681 0.0
O65 O 0.44692 0.76263 0.90196 0.0
Mg66 Mg 0.49742 0.75851 0.82435 0.0
O67 O 0.4906 0.69709 0.8226 0.0
O68 O 0.45244 0.64933 0.80114 0.0
O69 O 0.55051 0.75312 0.74198 0.0
O70 O 0.54209 0.74083 0.907 0.0
Mg71 Mg 0.56127 0.80517 0.85749 0.0
O72 O 0.50139 0.82177 0.84309 0.0
O73 O 0.59688 0.79189 0.77539 0.0
O74 O 0.57925 0.78345 0.94929 0.0
O75 O 0.55594 0.85751 0.86266 0.0
C76 C 0.42619 0.75538 0.69694 0.0
C77 C 0.41246 0.74805 0.91473 0.0
C78 C 0.48675 0.66283 0.82157 0.0
C79 C 0.58544 0.76852 0.73444 0.0
C80 C 0.56805 0.75151 0.94992 0.0
C81 C 0.51679 0.85334 0.85418 0.0
O82 O 0.42172 0.72237 0.70334 0.0
O83 O 0.44828 0.77304 0.73844 0.0
H84 H 0.94014 0.36725 0.89668 0.0
H85 H 0.91451 0.41973 0.95702 0.0
H86 H 0.01676 0.4805 0.88174 0.0
H87 H 0.04226 0.42905 0.82371 0.0
H88 H 0.9579 0.45442 0.05685 0.0
H89 H 0.92401 0.54938 0.85712 0.0
H90 H 0.92832 0.50244 0.84179 0.0
H91 H 0.97376 0.52998 0.8443 0.0
C92 C 0.95672 0.39192 0.89286 0.0
C93 C 0.99401 0.39352 0.85754 0.0
C94 C 0.94201 0.42192 0.92692 0.0
C95 C 0.96368 0.45418 0.92393 0.0
C96 C -0.001 0.45626 0.88422 0.0
H97 H 0.05016 0.60758 0.17516 0.0
H98 H 0.02388 0.55355 0.12574 0.0
C99 C 0.01373 0.42652 0.85117 0.0
C100 C 0.95302 0.48494 0.96688 0.0
H101 H 0.94866 0.57513 0.96192 0.0
C102 C 0.95457 0.48073 0.03614 0.0
C103 C 0.94804 0.51933 0.94034 0.0
C104 C 0.94299 0.52547 0.86677 0.0
C105 C 0.95496 0.51016 0.07899 0.0
C106 C 0.95473 0.54471 0.05188 0.0
C107 C 0.94939 0.54877 0.98304 0.0
C108 C 0.96623 0.57637 0.09216 0.0
C109 C 0.95716 0.5039 0.15286 0.0
C110 C 0.94243 0.60751 0.0911 0.0
C111 C 0.95762 0.63886 0.11995 0.0
C112 C 0.99725 0.63969 0.14859 0.0
C113 C 0.0195 0.6079 0.15355 0.0
C114 C 0.00435 0.57677 0.12539 0.0
H115 H 0.94076 0.47915 0.16644 0.0
H116 H 0.98991 0.50081 0.16803 0.0
H117 H 0.94356 0.52623 0.1812 0.0
H118 H 0.91296 0.60794 0.06555 0.0
H119 H 0.93971 0.66284 0.11573 0.0
H120 H 0.46332 0.42318 0.20002 0.0
H121 H 0.48894 0.47735 0.14875 0.0
H122 H 0.57652 0.4165 0.03564 0.0
H123 H 0.55085 0.3621 0.08786 0.0
H124 H 0.57398 0.5107 0.12157 0.0
H125 H 0.48654 0.45983 0.90221 0.0
H126 H 0.47806 0.44266 0.98462 0.0
H127 H 0.5242 0.43139 0.94053 0.0
C128 C 0.48937 0.4215 0.16657 0.0
C129 C 0.50517 0.38836 0.14778 0.0
C130 C 0.50385 0.45248 0.13705 0.0
C131 C 0.53422 0.45089 0.08779 0.0
C132 C 0.55292 0.41825 0.07348 0.0
H133 H 0.53683 0.61043 0.77647 0.0
H134 H 0.56102 0.55987 0.84197 0.0
C135 C 0.53861 0.38718 0.10373 0.0
C136 C 0.54115 0.48232 0.04524 0.0
H137 H 0.51092 0.51772 0.89724 0.0
C138 C 0.56094 0.51216 0.07197 0.0
C139 C 0.52399 0.48413 0.98068 0.0
C140 C 0.50178 0.45297 0.94999 0.0
C141 C 0.56349 0.54403 0.0361 0.0
C142 C 0.54441 0.54644 0.97277 0.0
C143 C 0.52582 0.51607 0.94544 0.0
C144 C 0.53965 0.58052 0.9362 0.0
C145 C 0.58661 0.57466 0.06667 0.0
C146 C 0.52113 0.60976 0.96734 0.0
C147 C 0.50838 0.63898 0.93005 0.0
C148 C 0.51363 0.63951 0.86086 0.0
C149 C 0.53386 0.61118 0.83002 0.0
C150 C 0.54721 0.58214 0.86745 0.0
H151 H 0.61215 0.56513 0.09897 0.0
H152 H 0.59968 0.59243 0.02828 0.0
H153 H 0.56526 0.59012 0.09841 0.0
H154 H 0.5135 0.60895 0.0196 0.0
H155 H 0.4914 0.65992 0.95457 0.0
H156 H 0.52994 0.9195 0.80921 0.0
H157 H 0.50575 0.97393 0.86151 0.0
H158 H 0.42409 0.91334 0.9859 0.0
H159 H 0.44831 0.85858 0.93283 0.0
H160 H 0.42408 1.00712 0.89286 0.0
H161 H 0.51422 0.95975 0.11154 0.0
H162 H 0.52038 0.94052 0.03009 0.0
H163 H 0.47521 0.93085 0.078 0.0
C164 C 0.50543 0.91788 0.84555 0.0
C165 C 0.49086 0.88477 0.86683 0.0
C166 C 0.49181 0.94902 0.87573 0.0
C167 C 0.46363 0.94766 0.92828 0.0
C168 C 0.44611 0.91493 0.94566 0.0
H169 H 0.46011 0.1118 0.23339 0.0
H170 H 0.43815 0.05964 0.16988 0.0
C171 C 0.45952 0.88366 0.9148 0.0
C172 C 0.4574 0.97977 0.96971 0.0
H173 H 0.48878 0.01735 0.1156 0.0
C174 C 0.43754 1.00928 0.9421 0.0
C175 C 0.47517 0.98256 0.03378 0.0
C176 C 0.4977 0.95191 0.06535 0.0
C177 C 0.43533 0.04166 0.97659 0.0
C178 C 0.4548 0.04497 0.0395 0.0
C179 C 0.47361 0.01501 0.0677 0.0
C180 C 0.45922 0.07952 0.07501 0.0
C181 C 0.41206 0.07183 0.94508 0.0
C182 C 0.47708 0.10874 0.04291 0.0
C183 C 0.48858 0.13885 0.07906 0.0
C184 C 0.48269 0.14036 0.14807 0.0
C185 C 0.46344 0.11184 0.17987 0.0
C186 C 0.4514 0.08187 0.14361 0.0
H187 H 0.38663 0.06187 0.91293 0.0
H188 H 0.39882 0.08985 0.98298 0.0
H189 H 0.43336 0.08716 0.91308 0.0
H190 H 0.48497 0.10739 0.99079 0.0
H191 H 0.50499 0.15988 0.05387 0.0
H192 H -0.00051 0.86069 0.05571 0.0
H193 H 0.02146 0.91168 0.98971 0.0
H194 H 0.02704 0.97522 0.16756 0.0
H195 H 0.0061 0.92399 0.23355 0.0
H196 H 0.97117 0.96947 0.98577 0.0
H197 H 0.12721 1.01172 0.06705 0.0
H198 H 0.1074 0.96778 0.08215 0.0
H199 H 0.09194 1.00412 0.13408 0.0
C200 C 0.00779 0.885 0.08105 0.0
C201 C 0.00279 0.88805 0.15009 0.0
C202 C 0.01984 0.91425 0.04324 0.0
C203 C 0.0265 0.94726 0.07366 0.0
C204 C 0.02337 0.94989 0.14306 0.0
H205 H 0.01271 0.16497 0.95839 0.0
H206 H 0.03191 0.1095 0.01283 0.0
C207 C 0.0115 0.92057 0.18086 0.0
C208 C 0.02981 0.97976 0.03242 0.0
H209 H 0.08755 0.05416 0.00597 0.0
C210 C 0.99698 0.98768 0.98932 0.0
C211 C 0.06309 1.00385 0.03805 0.0
C212 C 0.09961 0.99637 0.08241 0.0
C213 C 0.99586 0.01933 0.95312 0.0
C214 C 0.02921 0.0435 0.95847 0.0
C215 C 0.06227 0.0355 1.00122 0.0
C216 C 0.02857 0.07805 0.92306 0.0
C217 C 0.9579 0.02723 0.91194 0.0
C218 C 0.02335 0.07937 0.85379 0.0
C219 C 0.01241 0.11109 0.82268 0.0
C220 C 0.00783 0.14221 0.85996 0.0
C221 C 0.01745 0.14162 0.92807 0.0
C222 C 0.02789 0.10979 0.95939 0.0
H223 H 0.93121 1.01057 0.92669 0.0
H224 H 0.94883 0.05543 0.9166 0.0
H225 H 0.96452 0.02165 0.85893 0.0
H226 H 0.02458 0.05536 0.82449 0.0
H227 H 0.00409 0.11067 0.77053 0.0
H228 H 0.41211 0.73435 0.57076 0.0
H229 H 0.35121 0.74778 0.50371 0.0
H230 H 0.31308 0.82516 0.64849 0.0
H231 H 0.37473 0.81199 0.71563 0.0
H232 H 0.27253 0.73537 0.55621 0.0
H233 H 0.28803 0.87429 0.46899 0.0
H234 H 0.33178 0.84866 0.49695 0.0
H235 H 0.29615 0.86647 0.55619 0.0
C236 C 0.39173 0.75537 0.58685 0.0
C237 C 0.39857 0.77251 0.64791 0.0
C238 C 0.35663 0.76275 0.54886 0.0
C239 C 0.32735 0.78737 0.57101 0.0
C240 C 0.33544 0.80639 0.62981 0.0
H241 H 0.07345 0.78042 0.39936 0.0
H242 H 0.12866 0.79063 0.4823 0.0
C243 C 0.37093 0.79912 0.66788 0.0
C244 C 0.28683 0.7899 0.53586 0.0
H245 H 0.227 0.84387 0.43908 0.0
C246 C 0.26232 0.75928 0.53143 0.0
C247 C 0.27343 0.82106 0.5035 0.0
C248 C 0.2987 0.85452 0.506 0.0
C249 C 0.22561 0.75865 0.49403 0.0
C250 C 0.21279 0.78947 0.4602 0.0
C251 C 0.23659 0.82042 0.46592 0.0
C252 C 0.17843 0.78806 0.41104 0.0
C253 C 0.20171 0.72453 0.48789 0.0
C254 C 0.18809 0.78383 0.34384 0.0
C255 C 0.15702 0.77757 0.29718 0.0
C256 C 0.11528 0.77584 0.3162 0.0
C257 C 0.10524 0.78183 0.38316 0.0
C258 C 0.13672 0.78759 0.43045 0.0
H259 H 0.21595 0.70272 0.51688 0.0
H260 H 0.16966 0.72855 0.5056 0.0
H261 H 0.19996 0.71643 0.43491 0.0
H262 H 0.21998 0.78391 0.32776 0.0
H263 H 0.16591 0.77316 0.24604 0.0
H264 H 0.0955 0.30877 0.59792 0.0
H265 H 0.1546 0.29492 0.52772 0.0
H266 H 0.16529 0.19276 0.62078 0.0
H267 H 0.10544 0.20659 0.69142 0.0
H268 H 0.2335 0.27736 0.60055 0.0
H269 H 0.18592 0.17762 0.41097 0.0
H270 H 0.14908 0.20835 0.44563 0.0
H271 H 0.16902 0.17323 0.49589 0.0
C272 C 0.10927 0.28272 0.60142 0.0
C273 C 0.09552 0.25859 0.64954 0.0
C274 C 0.1433 0.27496 0.56169 0.0
C275 C 0.16452 0.2429 0.56915 0.0
C276 C 0.14913 0.21754 0.61373 0.0
H277 H 0.39956 0.21052 0.34574 0.0
H278 H 0.3443 0.19717 0.42637 0.0
C279 C 0.11468 0.22529 0.65357 0.0
C280 C 0.20531 0.23866 0.53626 0.0
H281 H 0.25256 0.20228 0.40079 0.0
C282 C 0.2379 0.26041 0.55763 0.0
C283 C 0.21123 0.21632 0.48076 0.0
C284 C 0.17711 0.19246 0.45642 0.0
C285 C 0.27542 0.26179 0.52304 0.0
C286 C 0.28043 0.24133 0.46474 0.0
C287 C 0.24879 0.2179 0.44556 0.0
C288 C 0.31507 0.24843 0.41817 0.0
C289 C 0.30891 0.28629 0.54773 0.0
C290 C 0.31705 0.28152 0.38723 0.0
C291 C 0.34817 0.2891 0.3419 0.0
C292 C 0.37838 0.26379 0.32576 0.0
C293 C 0.37704 0.23069 0.35759 0.0
C294 C 0.34533 0.22296 0.40315 0.0
H295 H 0.30608 0.29129 0.60191 0.0
H296 H 0.34002 0.27531 0.5375 0.0
H297 H 0.30618 0.31208 0.52183 0.0
H298 H 0.29391 0.30147 0.39737 0.0
H299 H 0.34808 0.3149 0.31856 0.0
H300 H 0.87963 0.22313 0.61728 0.0
H301 H 0.82231 0.23992 0.54551 0.0
H302 H 0.82086 0.3438 0.63417 0.0
H303 H 0.87889 0.3268 0.70707 0.0
H304 H 0.74353 0.31017 0.6345 0.0
H305 H 0.81065 0.30286 0.38311 0.0
H306 H 0.82233 0.26418 0.43102 0.0
H307 H 0.84212 0.30652 0.45707 0.0
C308 C 0.86806 0.24998 0.62005 0.0
C309 C 0.88415 0.27381 0.66721 0.0
C310 C 0.83521 0.25957 0.57885 0.0
C311 C 0.81739 0.29327 0.58366 0.0
C312 C 0.83433 0.31774 0.62907 0.0
H313 H 0.60972 0.31906 0.30239 0.0
H314 H 0.6697 0.33677 0.36994 0.0
C315 C 0.86776 0.30819 0.67016 0.0
C316 C 0.77879 0.30097 0.54566 0.0
H317 H 0.73676 0.29394 0.3902 0.0
C318 C 0.7422 0.30745 0.5809 0.0
C319 C 0.77684 0.2978 0.47563 0.0
C320 C 0.81519 0.29282 0.43445 0.0
C321 C 0.7036 0.30841 0.54856 0.0
C322 C 0.70134 0.30232 0.4792 0.0
C323 C 0.73821 0.29832 0.44341 0.0
C324 C 0.66128 0.29605 0.44412 0.0
C325 C 0.66544 0.31509 0.58934 0.0
C326 C 0.6359 0.26792 0.46402 0.0
C327 C 0.60171 0.25795 0.42583 0.0
C328 C 0.59194 0.27579 0.36659 0.0
C329 C 0.61583 0.3053 0.34853 0.0
C330 C 0.65043 0.31516 0.38671 0.0
H331 H 0.67272 0.33112 0.63417 0.0
H332 H 0.64134 0.32893 0.55993 0.0
H333 H 0.6527 0.28942 0.60635 0.0
H334 H 0.64393 0.25217 0.50704 0.0
H335 H 0.58432 0.23478 0.44056 0.0
H336 H 0.88014 0.70379 0.30146 0.0
H337 H 0.82228 0.68566 0.37284 0.0
H338 H 0.84388 0.77641 0.49828 0.0
H339 H 0.90134 0.7942 0.42803 0.0
H340 H 0.8209 0.71644 0.57004 0.0
H341 H 0.71359 0.74137 0.35825 0.0
H342 H 0.75361 0.7091 0.34621 0.0
H343 H 0.76697 0.75489 0.35609 0.0
C344 C 0.87353 0.71893 0.34588 0.0
C345 C 0.89543 0.75025 0.35954 0.0
C346 C 0.84001 0.70894 0.38597 0.0
C347 C 0.8281 0.73011 0.44022 0.0
C348 C 0.85224 0.75969 0.4567 0.0
H349 H 0.65094 0.80694 0.69264 0.0
H350 H 0.70651 0.78893 0.61958 0.0
C351 C 0.88532 0.76973 0.41671 0.0
C352 C 0.78893 0.72397 0.47726 0.0
H353 H 0.68426 0.73449 0.46351 0.0
C354 C 0.79098 0.71947 0.54642 0.0
C355 C 0.74972 0.72809 0.44665 0.0
C356 C 0.74549 0.73384 0.37281 0.0
C357 C 0.75535 0.72088 0.58596 0.0
C358 C 0.71656 0.72723 0.55581 0.0
C359 C 0.71401 0.72942 0.48639 0.0
C360 C 0.6803 0.73783 0.59629 0.0
C361 C 0.75964 0.71748 0.6603 0.0
C362 C 0.64605 0.7155 0.60575 0.0
C363 C 0.61367 0.72579 0.64819 0.0
C364 C 0.61518 0.7586 0.68133 0.0
C365 C 0.64872 0.78133 0.66869 0.0
C366 C 0.68075 0.77107 0.62693 0.0
H367 H 0.7888 0.70395 0.67441 0.0
H368 H 0.75991 0.74427 0.68292 0.0
H369 H 0.73321 0.70262 0.68146 0.0
H370 H 0.645 0.68979 0.58203 0.0
H371 H 0.58844 0.70762 0.65702 0.0
H372 H 0.33568 0.72683 0.95306 0.0
H373 H 0.28344 0.76461 1.00264 0.0
H374 H 0.37375 0.84701 0.03263 0.0
H375 H 0.42707 0.80838 0.9862 0.0
H376 H 0.27945 0.81554 0.12871 0.0
H377 H 0.28415 0.87558 0.87674 0.0
H378 H 0.30591 0.83207 0.88709 0.0
H379 H 0.33005 0.86935 0.92656 0.0
C380 C 0.34491 0.75238 0.97248 0.0
C381 C 0.38503 0.76531 0.96312 0.0
C382 C 0.31506 0.77394 1.00089 0.0
C383 C 0.32484 0.8087 0.01975 0.0
C384 C 0.36576 0.82032 0.01769 0.0
H385 H 0.07376 0.84486 0.09392 0.0
H386 H 0.13655 0.87825 0.07712 0.0
C387 C 0.39595 0.79836 0.99055 0.0
C388 C 0.29045 0.83338 0.02929 0.0
H389 H 0.21795 0.86812 0.92573 0.0
C390 C 0.26635 0.82902 0.08605 0.0
C391 C 0.27411 0.85123 0.97351 0.0
C392 C 0.29983 0.85765 0.91242 0.0
C393 C 0.22411 0.83659 0.08444 0.0
C394 C 0.20621 0.84872 0.02419 0.0
C395 C 0.23177 0.85855 0.97143 0.0
C396 C 0.16278 0.84026 0.00923 0.0
C397 C 0.19824 0.82651 0.14375 0.0
C398 C 0.15481 0.81017 0.97012 0.0
C399 C 0.11799 0.79152 0.97772 0.0
C400 C 0.0891 0.80275 0.02494 0.0
C401 C 0.09464 0.83588 0.05586 0.0
C402 C 0.13106 0.85486 0.04721 0.0
H403 H 0.21734 0.81736 0.18631 0.0
H404 H 0.1799 0.84959 0.16048 0.0
H405 H 0.17647 0.80499 0.12999 0.0
H406 H 0.17898 0.79862 0.94 0.0
H407 H 0.11451 0.76629 0.95274 0.0
H408 H 0.07994 0.19185 0.92042 0.0
H409 H 0.13768 0.15372 0.95014 0.0
H410 H 0.19988 0.243 0.03921 0.0
H411 H 0.14212 0.28115 0.00973 0.0
H412 H 0.21053 0.17358 0.88685 0.0
H413 H 0.23876 0.1603 0.15536 0.0
H414 H 0.1877 0.16732 0.12105 0.0
H415 H 0.22165 0.20425 0.1365 0.0
C416 C 0.10477 0.20289 0.94987 0.0
C417 C 0.10661 0.23944 0.96284 0.0
C418 C 0.13789 0.18105 0.96638 0.0
C419 C 0.17288 0.19547 0.99705 0.0
C420 C 0.17276 0.23118 0.01662 0.0
H421 H 0.37713 0.27102 0.95151 0.0
H422 H 0.31966 0.23359 0.91865 0.0
C423 C 0.13989 0.25308 0.9994 0.0
C424 C 0.2128 0.17696 0.99389 0.0
H425 H 0.30026 0.17305 0.08646 0.0
C426 C 0.23 0.17176 0.93065 0.0
C427 C 0.23792 0.17358 0.05075 0.0
C428 C 0.22034 0.17628 0.11976 0.0
C429 C 0.27282 0.16947 0.92263 0.0
C430 C 0.29841 0.17262 0.9791 0.0
C431 C 0.28069 0.17136 0.04273 0.0
C432 C 0.34027 0.18779 0.97436 0.0
C433 C 0.29038 0.16756 0.85353 0.0
C434 C 0.37235 0.17384 0.01299 0.0
C435 C 0.40504 0.19551 0.03243 0.0
C436 C 0.40596 0.23131 0.01362 0.0
C437 C 0.37706 0.24362 0.96716 0.0
C438 C 0.34434 0.22197 0.94772 0.0
H439 H 0.27084 0.15046 0.82134 0.0
H440 H 0.29053 0.19442 0.83138 0.0
H441 H 0.32242 0.15715 0.85382 0.0
H442 H 0.36966 0.1477 0.03448 0.0
H443 H 0.42647 0.18545 0.06889 0.0
H444 H 0.57786 0.31515 0.03891 0.0
H445 H 0.63599 0.3546 0.01395 0.0
H446 H 0.71992 0.26731 0.04066 0.0
H447 H 0.66273 0.22894 0.07125 0.0
H448 H 0.71467 0.33945 0.13827 0.0
H449 H 0.74521 0.35236 0.86885 0.0
H450 H 0.69363 0.34933 0.90289 0.0
H451 H 0.72455 0.31021 0.89365 0.0
C452 C 0.60871 0.30445 0.03872 0.0
C453 C 0.61614 0.26973 0.06096 0.0
C454 C 0.6417 0.32687 0.02373 0.0
C455 C 0.68199 0.31387 0.02723 0.0
C456 C 0.68878 0.27775 0.03874 0.0
H457 H 0.86263 0.23842 0.02845 0.0
H458 H 0.8103 0.27646 0.07652 0.0
C459 C 0.65609 0.2558 0.056 0.0
C460 C 0.71779 0.33758 0.0314 0.0
H461 H 0.80512 0.34726 0.94135 0.0
C462 C 0.73421 0.34319 0.09519 0.0
C463 C 0.74262 0.34329 0.97529 0.0
C464 C 0.72557 0.33882 0.9061 0.0
C465 C 0.77685 0.34663 0.10433 0.0
C466 C 0.80261 0.34505 0.04832 0.0
C467 C 0.78516 0.34782 0.98449 0.0
C468 C 0.84162 0.32535 0.0519 0.0
C469 C 0.79446 0.3458 0.17358 0.0
C470 C 0.8783 0.34025 0.02847 0.0
C471 C 0.90917 0.31823 1.00346 0.0
C472 C 0.90207 0.28165 0.9975 0.0
C473 C 0.86833 0.26664 0.0305 0.0
C474 C 0.83851 0.28845 0.05843 0.0
H475 H 0.77345 0.35912 0.20918 0.0
H476 H 0.798 0.31786 0.18949 0.0
H477 H 0.82526 0.3587 0.17543 0.0
H478 H 0.88134 0.36865 0.02358 0.0
H479 H 0.93631 0.3301 0.98199 0.0
H480 H 0.92401 0.70554 0.03894 0.0
H481 H 0.87022 0.66535 0.99858 0.0
H482 H 0.78609 0.75326 0.98256 0.0
H483 H 0.83844 0.7929 0.02755 0.0
H484 H 0.79398 0.6701 0.08976 0.0
H485 H 0.75932 0.68164 0.82178 0.0
H486 H 0.81092 0.68631 0.85568 0.0
H487 H 0.77543 0.72286 0.85809 0.0
C488 C 0.8943 0.71638 0.02546 0.0
C489 C 0.88466 0.75196 0.03932 0.0
C490 C 0.86386 0.69343 1.00171 0.0
C491 C 0.82435 0.70642 0.9882 0.0
C492 C 0.81665 0.74288 0.99258 0.0
H493 H 0.62107 0.7625 0.05392 0.0
H494 H 0.68088 0.72575 0.0774 0.0
C495 C 0.84652 0.76552 0.01851 0.0
C496 C 0.78852 0.68266 0.98561 0.0
H497 H 0.6997 0.67983 0.89661 0.0
C498 C 0.77365 0.67036 0.04681 0.0
C499 C 0.76256 0.68233 0.92948 0.0
C500 C 0.77801 0.69368 0.86231 0.0
C501 C 0.73143 0.6642 0.05583 0.0
C502 C 0.70429 0.67026 1.00221 0.0
C503 C 0.72046 0.67577 0.93829 0.0
C504 C 0.66169 0.68251 0.01342 0.0
C505 C 0.71568 0.65556 0.1242 0.0
C506 C 0.6297 0.66935 0.97359 0.0
C507 C 0.59574 0.69063 0.95959 0.0
C508 C 0.59329 0.72517 0.98539 0.0
C509 C 0.62223 0.73607 0.03311 0.0
C510 C 0.65628 0.71479 0.04712 0.0
H511 H 0.73785 0.63827 0.15098 0.0
H512 H 0.71255 0.68038 0.15327 0.0
H513 H 0.68511 0.64229 0.12188 0.0
H514 H 0.63345 0.64472 0.94669 0.0
H515 H 0.5746 0.68182 0.9215 0.0
loop_
_geom_bond_atom_site_label_1
_geom_bond_atom_site_label_2
_geom_bond_distance
_geom_bond_site_symmetry_2
_ccdc_geom_bond_type
O0 Mg1 1.990 . S
O0 C14 1.253 . S
Mg1 O0 1.990 . S
Mg1 O4 2.180 . S
Mg1 O5 2.117 . S
Mg1 O19 2.030 . S
O2 Mg3 2.080 . S
O2 C14 1.260 . S
Mg3 O2 2.080 . S
Mg3 O4 2.101 . S
Mg3 O6 2.071 1_455 S
Mg3 O7 2.065 1_455 S
Mg3 O9 2.096 1_455 S
Mg3 O20 2.086 . S
O4 Mg1 2.180 . S
O4 Mg3 2.101 . S
O4 C15 1.279 . S
O5 Mg1 2.117 . S
O5 C15 1.250 . S
O6 Mg3 2.071 1_655 S
O6 C16 1.264 . S
O7 Mg3 2.065 1_655 S
O7 C17 1.260 . S
Mg8 O9 2.180 . S
Mg8 O10 2.030 . S
Mg8 O11 1.990 . S
Mg8 O12 2.117 . S
O9 Mg3 2.096 1_655 S
O9 Mg8 2.180 . S
O9 C18 1.279 . S
O10 Mg8 2.030 . S
O10 C16 1.248 . S
O11 Mg8 1.990 . S
O11 C17 1.253 . S
O12 Mg8 2.117 . S
O12 C18 1.250 . S
C13 O19 1.248 . S
C13 O20 1.264 . S
C14 O0 1.253 . S
C14 O2 1.260 . S
C15 O4 1.279 . S
C15 O5 1.250 . S
C16 O6 1.264 . S
C16 O10 1.248 . S
C17 O7 1.260 . S
C17 O11 1.253 . S
C18 O9 1.279 . S
C18 O12 1.250 . S
O19 Mg1 2.030 . S
O19 C13 1.248 . S
O20 Mg3 2.086 . S
O20 C13 1.264 . S
O21 Mg22 1.990 . S
O21 C35 1.253 . S
Mg22 O21 1.990 . S
Mg22 O25 2.180 . S
Mg22 O26 2.117 . S
Mg22 O40 2.030 . S
O23 Mg24 2.072 . S
O23 C35 1.260 . S
Mg24 O23 2.072 . S
Mg24 O25 2.099 . S
Mg24 O27 2.079 . S
Mg24 O28 2.072 . S
Mg24 O30 2.099 . S
Mg24 O41 2.079 . S
O25 Mg22 2.180 . S
O25 Mg24 2.099 . S
O25 C36 1.279 . S
O26 Mg22 2.117 . S
O26 C36 1.250 . S
O27 Mg24 2.079 . S
O27 C37 1.264 . S
O28 Mg24 2.072 . S
O28 C38 1.260 . S
Mg29 O30 2.180 . S
Mg29 O31 2.030 . S
Mg29 O32 1.990 . S
Mg29 O33 2.117 . S
O30 Mg24 2.099 . S
O30 Mg29 2.180 . S
O30 C39 1.279 . S
O31 Mg29 2.030 . S
O31 C37 1.248 . S
O32 Mg29 1.990 . S
O32 C38 1.253 . S
O33 Mg29 2.117 . S
O33 C39 1.250 . S
C34 O40 1.248 . S
C34 O41 1.264 . S
C35 O21 1.253 . S
C35 O23 1.260 . S
C36 O25 1.279 . S
C36 O26 1.250 . S
C37 O27 1.264 . S
C37 O31 1.248 . S
C38 O28 1.260 . S
C38 O32 1.253 . S
C39 O30 1.279 . S
C39 O33 1.250 . S
O40 Mg22 2.030 . S
O40 C34 1.248 . S
O41 Mg24 2.079 . S
O41 C34 1.264 . S
O42 Mg43 1.990 . S
O42 C56 1.253 . S
Mg43 O42 1.990 . S
Mg43 O46 2.180 . S
Mg43 O47 2.117 . S
Mg43 O61 2.030 . S
O44 Mg45 2.080 . S
O44 C56 1.260 . S
Mg45 O44 2.080 . S
Mg45 O46 2.101 . S
Mg45 O48 2.071 1_455 S
Mg45 O49 2.065 1_455 S
Mg45 O51 2.096 1_455 S
Mg45 O62 2.086 . S
O46 Mg43 2.180 . S
O46 Mg45 2.101 . S
O46 C57 1.279 . S
O47 Mg43 2.117 . S
O47 C57 1.250 . S
O48 Mg45 2.071 1_655 S
O48 C58 1.264 . S
O49 Mg45 2.065 1_655 S
O49 C59 1.260 . S
Mg50 O51 2.180 . S
Mg50 O52 2.030 . S
Mg50 O53 1.990 . S
Mg50 O54 2.117 . S
O51 Mg45 2.096 1_655 S
O51 Mg50 2.180 . S
O51 C60 1.279 . S
O52 Mg50 2.030 . S
O52 C58 1.248 . S
O53 Mg50 1.990 . S
O53 C59 1.253 . S
O54 Mg50 2.117 . S
O54 C60 1.250 . S
C55 O61 1.248 . S
C55 O62 1.264 . S
C56 O42 1.253 . S
C56 O44 1.260 . S
C57 O46 1.279 . S
C57 O47 1.250 . S
C58 O48 1.264 . S
C58 O52 1.248 . S
C59 O49 1.260 . S
C59 O53 1.253 . S
C60 O51 1.279 . S
C60 O54 1.250 . S
O61 Mg43 2.030 . S
O61 C55 1.248 . S
O62 Mg45 2.086 . S
O62 C55 1.264 . S
O63 Mg64 1.990 . S
O63 C77 1.253 . S
Mg64 O63 1.990 . S
Mg64 O67 2.180 . S
Mg64 O68 2.117 . S
Mg64 O82 2.030 . S
O65 Mg66 2.072 . S
O65 C77 1.260 . S
Mg66 O65 2.072 . S
Mg66 O67 2.099 . S
Mg66 O69 2.079 . S
Mg66 O70 2.072 . S
Mg66 O72 2.099 . S
Mg66 O83 2.079 . S
O67 Mg64 2.180 . S
O67 Mg66 2.099 . S
O67 C78 1.279 . S
O68 Mg64 2.117 . S
O68 C78 1.250 . S
O69 Mg66 2.079 . S
O69 C79 1.264 . S
O70 Mg66 2.072 . S
O70 C80 1.260 . S
Mg71 O72 2.180 . S
Mg71 O73 2.030 . S
Mg71 O74 1.990 . S
Mg71 O75 2.117 . S
O72 Mg66 2.099 . S
O72 Mg71 2.180 . S
O72 C81 1.279 . S
O73 Mg71 2.030 . S
O73 C79 1.248 . S
O74 Mg71 1.990 . S
O74 C80 1.253 . S
O75 Mg71 2.117 . S
O75 C81 1.250 . S
C76 O82 1.248 . S
C76 O83 1.264 . S
C77 O63 1.253 . S
C77 O65 1.260 . S
C78 O67 1.279 . S
C78 O68 1.250 . S
C79 O69 1.264 . S
C79 O73 1.248 . S
C80 O70 1.260 . S
C80 O74 1.253 . S
C81 O72 1.279 . S
C81 O75 1.250 . S
O82 Mg64 2.030 . S
O82 C76 1.248 . S
O83 Mg66 2.079 . S
O83 C76 1.264 . S
H84 C92 0.929 . S
H85 C94 0.930 . S
H86 C96 0.930 . S
H87 C99 0.929 . S
H88 C102 0.930 . S
H89 C104 0.960 . S
H90 C104 0.960 . S
H91 C104 0.960 1_455 S
C92 H84 0.929 . S
C92 C93 1.377 . S
C92 C94 1.384 . S
C93 C92 1.377 . S
C93 C99 1.390 1_655 S
C94 H85 0.930 . S
C94 C92 1.384 . S
C94 C95 1.372 . S
C95 C94 1.372 . S
C95 C96 1.400 1_655 S
C95 C100 1.490 . S
C96 H86 0.930 . S
C96 C95 1.400 1_455 S
C96 C99 1.386 . S
H97 C113 0.930 . S
H98 C114 0.931 . S
C99 H87 0.929 . S
C99 C93 1.390 1_455 S
C99 C96 1.386 . S
C100 C95 1.490 . S
C100 C102 1.395 1_556 S
C100 C103 1.403 . S
H101 C107 0.930 . S
C102 H88 0.930 . S
C102 C100 1.395 1_554 S
C102 C105 1.403 . S
C103 C100 1.403 . S
C103 C104 1.524 . S
C103 C107 1.400 . S
C104 H89 0.960 . S
C104 H90 0.960 . S
C104 H91 0.960 1_655 S
C104 C103 1.524 . S
C105 C102 1.403 . S
C105 C106 1.392 . S
C105 C109 1.495 . S
C106 C105 1.392 . S
C106 C107 1.385 1_554 S
C106 C108 1.478 . S
C107 H101 0.930 . S
C107 C103 1.400 . S
C107 C106 1.385 1_556 S
C108 C106 1.478 . S
C108 C110 1.381 . S
C108 C114 1.383 1_655 S
C109 C105 1.495 . S
C109 H115 0.959 . S
C109 H116 0.961 1_655 S
C109 H117 0.960 . S
C110 C108 1.381 . S
C110 C111 1.394 . S
C110 H118 0.930 . S
C111 C110 1.394 . S
C111 C112 1.383 . S
C111 H119 0.929 . S
C112 C111 1.383 . S
C112 C113 1.377 1_655 S
C113 H97 0.930 . S
C113 C112 1.377 1_455 S
C113 C114 1.379 . S
C114 H98 0.931 . S
C114 C108 1.383 1_455 S
C114 C113 1.379 . S
H115 C109 0.959 . S
H116 C109 0.961 1_455 S
H117 C109 0.960 . S
H118 C110 0.930 . S
H119 C111 0.929 . S
H120 C128 0.929 . S
H121 C130 0.930 . S
H122 C132 0.930 . S
H123 C135 0.929 . S
H124 C138 0.930 . S
H125 C140 0.960 . S
H126 C140 0.960 . S
H127 C140 0.960 . S
C128 H120 0.929 . S
C128 C129 1.377 . S
C128 C130 1.384 . S
C129 C128 1.377 . S
C129 C135 1.390 . S
C130 H121 0.930 . S
C130 C128 1.384 . S
C130 C131 1.372 . S
C131 C130 1.372 . S
C131 C132 1.400 . S
C131 C136 1.490 . S
C132 H122 0.930 . S
C132 C131 1.400 . S
C132 C135 1.386 . S
H133 C149 0.930 . S
H134 C150 0.931 . S
C135 H123 0.929 . S
C135 C129 1.390 . S
C135 C132 1.386 . S
C136 C131 1.490 . S
C136 C138 1.395 . S
C136 C139 1.403 1_554 S
H137 C143 0.930 . S
C138 H124 0.930 . S
C138 C136 1.395 . S
C138 C141 1.403 . S
C139 C136 1.403 1_556 S
C139 C140 1.524 . S
C139 C143 1.400 . S
C140 H125 0.960 . S
C140 H126 0.960 . S
C140 H127 0.960 . S
C140 C139 1.524 . S
C141 C138 1.403 . S
C141 C142 1.392 1_554 S
C141 C145 1.495 . S
C142 C141 1.392 1_556 S
C142 C143 1.385 . S
C142 C144 1.478 . S
C143 H137 0.930 . S
C143 C139 1.400 . S
C143 C142 1.385 . S
C144 C142 1.478 . S
C144 C146 1.381 . S
C144 C150 1.383 . S
C145 C141 1.495 . S
C145 H151 0.959 . S
C145 H152 0.961 . S
C145 H153 0.960 . S
C146 C144 1.381 . S
C146 C147 1.394 . S
C146 H154 0.930 . S
C147 C146 1.394 . S
C147 C148 1.383 . S
C147 H155 0.929 . S
C148 C147 1.383 . S
C148 C149 1.377 . S
C149 H133 0.930 . S
C149 C148 1.377 . S
C149 C150 1.379 . S
C150 H134 0.931 . S
C150 C144 1.383 . S
C150 C149 1.379 . S
H151 C145 0.959 . S
H152 C145 0.961 . S
H153 C145 0.960 . S
H154 C146 0.930 . S
H155 C147 0.929 . S
H156 C164 0.929 . S
H157 C166 0.930 . S
H158 C168 0.930 . S
H159 C171 0.929 . S
H160 C174 0.933 . S
H161 C176 0.960 . S
H162 C176 0.960 . S
H163 C176 0.960 . S
C164 H156 0.929 . S
C164 C165 1.377 . S
C164 C166 1.384 . S
C165 C164 1.377 . S
C165 C171 1.390 . S
C166 H157 0.930 . S
C166 C164 1.384 . S
C166 C167 1.372 . S
C167 C166 1.372 . S
C167 C168 1.400 . S
C167 C172 1.490 . S
C168 H158 0.930 . S
C168 C167 1.400 . S
C168 C171 1.386 . S
H169 C185 0.930 . S
H170 C186 0.931 . S
C171 H159 0.929 . S
C171 C165 1.390 . S
C171 C168 1.386 . S
C172 C167 1.490 . S
C172 C174 1.416 . S
C172 C175 1.403 1_556 S
H173 C179 0.930 . S
C174 H160 0.933 . S
C174 C172 1.416 . S
C174 C177 1.379 1_565 S
C175 C172 1.403 1_554 S
C175 C176 1.524 . S
C175 C179 1.400 1_565 S
C176 H161 0.960 . S
C176 H162 0.960 . S
C176 H163 0.960 . S
C176 C175 1.524 . S
C177 C174 1.379 1_545 S
C177 C178 1.392 1_556 S
C177 C181 1.495 . S
C178 C177 1.392 1_554 S
C178 C179 1.385 . S
C178 C180 1.478 . S
C179 H173 0.930 . S
C179 C175 1.400 1_545 S
C179 C178 1.385 . S
C180 C178 1.478 . S
C180 C182 1.381 . S
C180 C186 1.383 . S
C181 C177 1.495 . S
C181 H187 0.959 . S
C181 H188 0.961 . S
C181 H189 0.960 . S
C182 C180 1.381 . S
C182 C183 1.394 . S
C182 H190 0.930 . S
C183 C182 1.394 . S
C183 C184 1.383 . S
C183 H191 0.929 . S
C184 C183 1.383 . S
C184 C185 1.377 . S
C185 H169 0.930 . S
C185 C184 1.377 . S
C185 C186 1.379 . S
C186 H170 0.931 . S
C186 C180 1.383 . S
C186 C185 1.379 . S
H187 C181 0.959 . S
H188 C181 0.961 . S
H189 C181 0.960 . S
H190 C182 0.930 . S
H191 C183 0.929 . S
H192 C200 0.929 . S
H193 C202 0.930 1_556 S
H194 C204 0.930 . S
H195 C207 0.929 . S
H196 C210 0.930 . S
H197 C212 0.960 1_545 S
H198 C212 0.960 . S
H199 C212 0.960 . S
C200 H192 0.929 . S
C200 C201 1.377 . S
C200 C202 1.384 . S
C201 C200 1.377 . S
C201 C207 1.390 1_455 S
C202 H193 0.930 1_554 S
C202 C200 1.384 . S
C202 C203 1.372 . S
C203 C202 1.372 . S
C203 C204 1.400 1_455 S
C203 C208 1.490 . S
C204 H194 0.930 . S
C204 C203 1.400 1_655 S
C204 C207 1.386 . S
H205 C221 0.930 . S
H206 C222 0.931 . S
C207 H195 0.929 . S
C207 C201 1.390 1_655 S
C207 C204 1.386 . S
C208 C203 1.490 . S
C208 C210 1.395 1_454 S
C208 C211 1.403 . S
H209 C215 0.930 . S
C210 H196 0.930 . S
C210 C208 1.395 1_656 S
C210 C213 1.432 . S
C211 C208 1.403 . S
C211 C212 1.524 . S
C211 C215 1.400 1_565 S
C212 H197 0.960 1_565 S
C212 H198 0.960 . S
C212 H199 0.960 . S
C212 C211 1.524 . S
C213 C210 1.432 . S
C213 C214 1.365 1_665 S
C213 C217 1.496 . S
C214 C213 1.365 1_445 S
C214 C215 1.385 1_556 S
C214 C216 1.478 . S
C215 H209 0.930 . S
C215 C211 1.400 1_545 S
C215 C214 1.385 1_554 S
C216 C214 1.478 . S
C216 C218 1.381 . S
C216 C222 1.383 1_455 S
C217 C213 1.496 . S
C217 H223 0.959 . S
C217 H224 0.961 1_565 S
C217 H225 0.960 1_565 S
C218 C216 1.381 . S
C218 C219 1.394 . S
C218 H226 0.930 . S
C219 C218 1.394 . S
C219 C220 1.383 . S
C219 H227 0.929 . S
C220 C219 1.383 . S
C220 C221 1.377 1_455 S
C221 H205 0.930 . S
C221 C220 1.377 1_655 S
C221 C222 1.379 . S
C222 H206 0.931 . S
C222 C216 1.383 1_655 S
C222 C221 1.379 . S
H223 C217 0.959 . S
H224 C217 0.961 1_545 S
H225 C217 0.960 1_545 S
H226 C218 0.930 . S
H227 C219 0.929 . S
H228 C236 0.929 . S
H229 C238 0.930 . S
H230 C240 0.930 . S
H231 C243 0.929 . S
H232 C246 0.930 . S
H233 C248 0.960 . S
H234 C248 0.960 . S
H235 C248 0.960 . S
C236 H228 0.929 . S
C236 C237 1.377 . S
C236 C238 1.384 . S
C237 C236 1.377 . S
C237 C243 1.390 . S
C238 H229 0.930 . S
C238 C236 1.384 . S
C238 C239 1.372 . S
C239 C238 1.372 . S
C239 C240 1.400 . S
C239 C244 1.490 . S
C240 H230 0.930 . S
C240 C239 1.400 . S
C240 C243 1.386 . S
H241 C257 0.930 . S
H242 C258 0.931 . S
C243 H231 0.929 . S
C243 C237 1.390 . S
C243 C240 1.386 . S
C244 C239 1.490 . S
C244 C246 1.395 . S
C244 C247 1.403 . S
H245 C251 0.930 . S
C246 H232 0.930 . S
C246 C244 1.395 . S
C246 C249 1.403 . S
C247 C244 1.403 . S
C247 C248 1.524 . S
C247 C251 1.400 . S
C248 H233 0.960 . S
C248 H234 0.960 . S
C248 H235 0.960 . S
C248 C247 1.524 . S
C249 C246 1.403 . S
C249 C250 1.392 . S
C249 C253 1.495 . S
C250 C249 1.392 . S
C250 C251 1.385 . S
C250 C252 1.478 . S
C251 H245 0.930 . S
C251 C247 1.400 . S
C251 C250 1.385 . S
C252 C250 1.478 . S
C252 C254 1.381 . S
C252 C258 1.383 . S
C253 C249 1.495 . S
C253 H259 0.959 . S
C253 H260 0.961 . S
C253 H261 0.960 . S
C254 C252 1.381 . S
C254 C255 1.394 . S
C254 H262 0.930 . S
C255 C254 1.394 . S
C255 C256 1.383 . S
C255 H263 0.929 . S
C256 C255 1.383 . S
C256 C257 1.377 . S
C257 H241 0.930 . S
C257 C256 1.377 . S
C257 C258 1.379 . S
C258 H242 0.931 . S
C258 C252 1.383 . S
C258 C257 1.379 . S
H259 C253 0.959 . S
H260 C253 0.961 . S
H261 C253 0.960 . S
H262 C254 0.930 . S
H263 C255 0.929 . S
H264 C272 0.929 . S
H265 C274 0.930 . S
H266 C276 0.930 . S
H267 C279 0.929 . S
H268 C282 0.930 . S
H269 C284 0.960 . S
H270 C284 0.960 . S
H271 C284 0.960 . S
C272 H264 0.929 . S
C272 C273 1.377 . S
C272 C274 1.384 . S
C273 C272 1.377 . S
C273 C279 1.390 . S
C274 H265 0.930 . S
C274 C272 1.384 . S
C274 C275 1.372 . S
C275 C274 1.372 . S
C275 C276 1.400 . S
C275 C280 1.490 . S
C276 H266 0.930 . S
C276 C275 1.400 . S
C276 C279 1.386 . S
H277 C293 0.930 . S
H278 C294 0.931 . S
C279 H267 0.929 . S
C279 C273 1.390 . S
C279 C276 1.386 . S
C280 C275 1.490 . S
C280 C282 1.395 . S
C280 C283 1.403 . S
H281 C287 0.930 . S
C282 H268 0.930 . S
C282 C280 1.395 . S
C282 C285 1.403 . S
C283 C280 1.403 . S
C283 C284 1.524 . S
C283 C287 1.400 . S
C284 H269 0.960 . S
C284 H270 0.960 . S
C284 H271 0.960 . S
C284 C283 1.524 . S
C285 C282 1.403 . S
C285 C286 1.392 . S
C285 C289 1.495 . S
C286 C285 1.392 . S
C286 C287 1.385 . S
C286 C288 1.478 . S
C287 H281 0.930 . S
C287 C283 1.400 . S
C287 C286 1.385 . S
C288 C286 1.478 . S
C288 C290 1.381 . S
C288 C294 1.383 . S
C289 C285 1.495 . S
C289 H295 0.959 . S
C289 H296 0.961 . S
C289 H297 0.960 . S
C290 C288 1.381 . S
C290 C291 1.394 . S
C290 H298 0.930 . S
C291 C290 1.394 . S
C291 C292 1.383 . S
C291 H299 0.929 . S
C292 C291 1.383 . S
C292 C293 1.377 . S
C293 H277 0.930 . S
C293 C292 1.377 . S
C293 C294 1.379 . S
C294 H278 0.931 . S
C294 C288 1.383 . S
C294 C293 1.379 . S
H295 C289 0.959 . S
H296 C289 0.961 . S
H297 C289 0.960 . S
H298 C290 0.930 . S
H299 C291 0.929 . S
H300 C308 0.929 . S
H301 C310 0.930 . S
H302 C312 0.930 . S
H303 C315 0.929 . S
H304 C318 0.930 . S
H305 C320 0.960 . S
H306 C320 0.960 . S
H307 C320 0.960 . S
C308 H300 0.929 . S
C308 C309 1.377 . S
C308 C310 1.384 . S
C309 C308 1.377 . S
C309 C315 1.390 . S
C310 H301 0.930 . S
C310 C308 1.384 . S
C310 C311 1.372 . S
C311 C310 1.372 . S
C311 C312 1.400 . S
C311 C316 1.490 . S
C312 H302 0.930 . S
C312 C311 1.400 . S
C312 C315 1.386 . S
H313 C329 0.930 . S
H314 C330 0.931 . S
C315 H303 0.929 . S
C315 C309 1.390 . S
C315 C312 1.386 . S
C316 C311 1.490 . S
C316 C318 1.395 . S
C316 C319 1.403 . S
H317 C323 0.930 . S
C318 H304 0.930 . S
C318 C316 1.395 . S
C318 C321 1.403 . S
C319 C316 1.403 . S
C319 C320 1.524 . S
C319 C323 1.400 . S
C320 H305 0.960 . S
C320 H306 0.960 . S
C320 H307 0.960 . S
C320 C319 1.524 . S
C321 C318 1.403 . S
C321 C322 1.392 . S
C321 C325 1.495 . S
C322 C321 1.392 . S
C322 C323 1.385 . S
C322 C324 1.478 . S
C323 H317 0.930 . S
C323 C319 1.400 . S
C323 C322 1.385 . S
C324 C322 1.478 . S
C324 C326 1.381 . S
C324 C330 1.383 . S
C325 C321 1.495 . S
C325 H331 0.959 . S
C325 H332 0.961 . S
C325 H333 0.960 . S
C326 C324 1.381 . S
C326 C327 1.394 . S
C326 H334 0.930 . S
C327 C326 1.394 . S
C327 C328 1.383 . S
C327 H335 0.929 . S
C328 C327 1.383 . S
C328 C329 1.377 . S
C329 H313 0.930 . S
C329 C328 1.377 . S
C329 C330 1.379 . S
C330 H314 0.931 . S
C330 C324 1.383 . S
C330 C329 1.379 . S
H331 C325 0.959 . S
H332 C325 0.961 . S
H333 C325 0.960 . S
H334 C326 0.930 . S
H335 C327 0.929 . S
H336 C344 0.929 . S
H337 C346 0.930 . S
H338 C348 0.930 . S
H339 C351 0.929 . S
H340 C354 0.930 . S
H341 C356 0.960 . S
H342 C356 0.960 . S
H343 C356 0.960 . S
C344 H336 0.929 . S
C344 C345 1.377 . S
C344 C346 1.384 . S
C345 C344 1.377 . S
C345 C351 1.390 . S
C346 H337 0.930 . S
C346 C344 1.384 . S
C346 C347 1.372 . S
C347 C346 1.372 . S
C347 C348 1.400 . S
C347 C352 1.490 . S
C348 H338 0.930 . S
C348 C347 1.400 . S
C348 C351 1.386 . S
H349 C365 0.930 . S
H350 C366 0.931 . S
C351 H339 0.929 . S
C351 C345 1.390 . S
C351 C348 1.386 . S
C352 C347 1.490 . S
C352 C354 1.395 . S
C352 C355 1.403 . S
H353 C359 0.930 . S
C354 H340 0.930 . S
C354 C352 1.395 . S
C354 C357 1.403 . S
C355 C352 1.403 . S
C355 C356 1.524 . S
C355 C359 1.400 . S
C356 H341 0.960 . S
C356 H342 0.960 . S
C356 H343 0.960 . S
C356 C355 1.524 . S
C357 C354 1.403 . S
C357 C358 1.392 . S
C357 C361 1.495 . S
C358 C357 1.392 . S
C358 C359 1.385 . S
C358 C360 1.478 . S
C359 H353 0.930 . S
C359 C355 1.400 . S
C359 C358 1.385 . S
C360 C358 1.478 . S
C360 C362 1.381 . S
C360 C366 1.383 . S
C361 C357 1.495 . S
C361 H367 0.959 . S
C361 H368 0.961 . S
C361 H369 0.960 . S
C362 C360 1.381 . S
C362 C363 1.394 . S
C362 H370 0.930 . S
C363 C362 1.394 . S
C363 C364 1.383 . S
C363 H371 0.929 . S
C364 C363 1.383 . S
C364 C365 1.377 . S
C365 H349 0.930 . S
C365 C364 1.377 . S
C365 C366 1.379 . S
C366 H350 0.931 . S
C366 C360 1.383 . S
C366 C365 1.379 . S
H367 C361 0.959 . S
H368 C361 0.961 . S
H369 C361 0.960 . S
H370 C362 0.930 . S
H371 C363 0.929 . S
H372 C380 0.929 . S
H373 C382 0.930 . S
H374 C384 0.930 1_554 S
H375 C387 0.929 . S
H376 C390 0.930 . S
H377 C392 0.960 . S
H378 C392 0.960 . S
H379 C392 0.960 . S
C380 H372 0.929 . S
C380 C381 1.377 . S
C380 C382 1.384 . S
C381 C380 1.377 . S
C381 C387 1.390 . S
C382 H373 0.930 . S
C382 C380 1.384 . S
C382 C383 1.372 . S
C383 C382 1.372 . S
C383 C384 1.400 . S
C383 C388 1.490 . S
C384 H374 0.930 1_556 S
C384 C383 1.400 . S
C384 C387 1.386 . S
H385 C401 0.930 . S
H386 C402 0.931 . S
C387 H375 0.929 . S
C387 C381 1.390 . S
C387 C384 1.386 . S
C388 C383 1.490 . S
C388 C390 1.395 1_556 S
C388 C391 1.403 . S
H389 C395 0.930 . S
C390 H376 0.930 . S
C390 C388 1.395 1_554 S
C390 C393 1.403 . S
C391 C388 1.403 . S
C391 C392 1.524 . S
C391 C395 1.400 . S
C392 H377 0.960 . S
C392 H378 0.960 . S
C392 H379 0.960 . S
C392 C391 1.524 . S
C393 C390 1.403 . S
C393 C394 1.392 . S
C393 C397 1.495 . S
C394 C393 1.392 . S
C394 C395 1.385 1_554 S
C394 C396 1.478 . S
C395 H389 0.930 . S
C395 C391 1.400 . S
C395 C394 1.385 1_556 S
C396 C394 1.478 . S
C396 C398 1.381 . S
C396 C402 1.383 . S
C397 C393 1.495 . S
C397 H403 0.959 . S
C397 H404 0.961 . S
C397 H405 0.960 . S
C398 C396 1.381 . S
C398 C399 1.394 . S
C398 H406 0.930 1_554 S
C399 C398 1.394 . S
C399 C400 1.383 . S
C399 H407 0.929 . S
C400 C399 1.383 . S
C400 C401 1.377 . S
C401 H385 0.930 . S
C401 C400 1.377 . S
C401 C402 1.379 . S
C402 H386 0.931 . S
C402 C396 1.383 . S
C402 C401 1.379 . S
H403 C397 0.959 . S
H404 C397 0.961 . S
H405 C397 0.960 . S
H406 C398 0.930 1_556 S
H407 C399 0.929 . S
H408 C416 0.929 . S
H409 C418 0.930 . S
H410 C420 0.932 . S
H411 C423 0.929 1_554 S
H412 C426 0.930 . S
H413 C428 0.960 . S
H414 C428 0.960 . S
H415 C428 0.960 . S
C416 H408 0.929 . S
C416 C417 1.377 . S
C416 C418 1.384 . S
C417 C416 1.377 . S
C417 C423 1.390 . S
C418 H409 0.930 . S
C418 C416 1.384 . S
C418 C419 1.372 . S
C419 C418 1.372 . S
C419 C420 1.398 1_556 S
C419 C424 1.490 . S
C420 H410 0.932 . S
C420 C419 1.398 1_554 S
C420 C423 1.385 1_554 S
H421 C437 0.930 . S
H422 C438 0.931 . S
C423 H411 0.929 1_556 S
C423 C417 1.390 . S
C423 C420 1.385 1_556 S
C424 C419 1.490 . S
C424 C426 1.395 . S
C424 C427 1.403 1_556 S
H425 C431 0.930 . S
C426 H412 0.930 . S
C426 C424 1.395 . S
C426 C429 1.403 . S
C427 C424 1.403 1_554 S
C427 C428 1.524 . S
C427 C431 1.400 . S
C428 H413 0.960 . S
C428 H414 0.960 . S
C428 H415 0.960 . S
C428 C427 1.524 . S
C429 C426 1.403 . S
C429 C430 1.392 1_556 S
C429 C433 1.495 . S
C430 C429 1.392 1_554 S
C430 C431 1.385 . S
C430 C432 1.478 . S
C431 H425 0.930 . S
C431 C427 1.400 . S
C431 C430 1.385 . S
C432 C430 1.478 . S
C432 C434 1.381 1_554 S
C432 C438 1.383 . S
C433 C429 1.495 . S
C433 H439 0.959 . S
C433 H440 0.961 . S
C433 H441 0.960 . S
C434 C432 1.381 1_556 S
C434 C435 1.394 1_556 S
C434 H442 0.930 . S
C435 C434 1.394 1_554 S
C435 C436 1.383 . S
C435 H443 0.929 1_554 S
C436 C435 1.383 . S
C436 C437 1.377 . S
C437 H421 0.930 . S
C437 C436 1.377 . S
C437 C438 1.379 . S
C438 H422 0.931 . S
C438 C432 1.383 . S
C438 C437 1.379 . S
H439 C433 0.959 . S
H440 C433 0.961 . S
H441 C433 0.960 . S
H442 C434 0.930 . S
H443 C435 0.929 1_556 S
H444 C452 0.929 . S
H445 C454 0.930 . S
H446 C456 0.930 . S
H447 C459 0.929 . S
H448 C462 0.930 . S
H449 C464 0.960 . S
H450 C464 0.960 . S
H451 C464 0.960 . S
C452 H444 0.929 . S
C452 C453 1.377 . S
C452 C454 1.384 . S
C453 C452 1.377 . S
C453 C459 1.390 . S
C454 H445 0.930 . S
C454 C452 1.384 . S
C454 C455 1.372 . S
C455 C454 1.372 . S
C455 C456 1.400 . S
C455 C460 1.490 . S
C456 H446 0.930 . S
C456 C455 1.400 . S
C456 C459 1.386 . S
H457 C473 0.930 . S
H458 C474 0.931 . S
C459 H447 0.929 . S
C459 C453 1.390 . S
C459 C456 1.386 . S
C460 C455 1.490 . S
C460 C462 1.395 . S
C460 C463 1.403 1_554 S
H461 C467 0.930 . S
C462 H448 0.930 . S
C462 C460 1.395 . S
C462 C465 1.403 . S
C463 C460 1.403 1_556 S
C463 C464 1.524 . S
C463 C467 1.400 . S
C464 H449 0.960 . S
C464 H450 0.960 . S
C464 H451 0.960 . S
C464 C463 1.524 . S
C465 C462 1.403 . S
C465 C466 1.392 1_554 S
C465 C469 1.495 . S
C466 C465 1.392 1_556 S
C466 C467 1.385 . S
C466 C468 1.478 . S
C467 H461 0.930 . S
C467 C463 1.400 . S
C467 C466 1.385 . S
C468 C466 1.478 . S
C468 C470 1.381 . S
C468 C474 1.383 . S
C469 C465 1.495 . S
C469 H475 0.959 . S
C469 H476 0.961 . S
C469 H477 0.960 . S
C470 C468 1.381 . S
C470 C471 1.394 . S
C470 H478 0.930 . S
C471 C470 1.394 . S
C471 C472 1.383 . S
C471 H479 0.929 . S
C472 C471 1.383 . S
C472 C473 1.377 . S
C473 H457 0.930 . S
C473 C472 1.377 . S
C473 C474 1.379 . S
C474 H458 0.931 . S
C474 C468 1.383 . S
C474 C473 1.379 . S
H475 C469 0.959 . S
H476 C469 0.961 . S
H477 C469 0.960 . S
H478 C470 0.930 . S
H479 C471 0.929 . S
H480 C488 0.929 . S
H481 C490 0.930 . S
H482 C492 0.930 1_556 S
H483 C495 0.929 . S
H484 C498 0.930 . S
H485 C500 0.960 . S
H486 C500 0.960 . S
H487 C500 0.960 . S
C488 H480 0.929 . S
C488 C489 1.377 . S
C488 C490 1.384 . S
C489 C488 1.377 . S
C489 C495 1.390 . S
C490 H481 0.930 . S
C490 C488 1.384 . S
C490 C491 1.372 . S
C491 C490 1.372 . S
C491 C492 1.400 . S
C491 C496 1.490 . S
C492 H482 0.930 1_554 S
C492 C491 1.400 . S
C492 C495 1.386 . S
H493 C509 0.930 . S
H494 C510 0.931 . S
C495 H483 0.929 . S
C495 C489 1.390 . S
C495 C492 1.386 . S
C496 C491 1.490 . S
C496 C498 1.395 . S
C496 C499 1.403 1_554 S
H497 C503 0.930 . S
C498 H484 0.930 . S
C498 C496 1.395 . S
C498 C501 1.403 . S
C499 C496 1.403 1_556 S
C499 C500 1.524 . S
C499 C503 1.400 . S
C500 H485 0.960 . S
C500 H486 0.960 . S
C500 H487 0.960 . S
C500 C499 1.524 . S
C501 C498 1.403 . S
C501 C502 1.392 1_554 S
C501 C505 1.495 . S
C502 C501 1.392 1_556 S
C502 C503 1.385 . S
C502 C504 1.478 . S
C503 H497 0.930 . S
C503 C499 1.400 . S
C503 C502 1.385 . S
C504 C502 1.478 . S
C504 C506 1.381 . S
C504 C510 1.383 . S
C505 C501 1.495 . S
C505 H511 0.959 . S
C505 H512 0.961 . S
C505 H513 0.960 . S
C506 C504 1.381 . S
C506 C507 1.394 . S
C506 H514 0.930 1_556 S
C507 C506 1.394 . S
C507 C508 1.383 . S
C507 H515 0.929 . S
C508 C507 1.383 . S
C508 C509 1.377 . S
C509 H493 0.930 . S
C509 C508 1.377 . S
C509 C510 1.379 . S
C510 H494 0.931 . S
C510 C504 1.383 . S
C510 C509 1.379 . S
H511 C505 0.959 . S
H512 C505 0.961 . S
H513 C505 0.960 . S
H514 C506 0.930 1_554 S
H515 C507 0.929 . S
C93 C57 1.809 1_655 S
C112 C15 1.806 1_655 S
C129 C39 1.793 . S
C148 C78 1.802 . S
C165 C81 1.793 . S
C184 C36 1.794 . S
C201 C18 1.809 1_455 S
C220 C60 1.783 1_455 S
C237 C76 1.507 . S
C256 C13 1.480 . S
C273 C55 1.505 . S
C292 C37 1.490 . S
C309 C58 1.499 . S
C328 C34 1.521 . S
C345 C16 1.504 . S
C364 C79 1.489 . S
C381 C77 0.595 . S
C400 C14 0.518 . S
C417 C56 0.619 . S
C436 C38 0.619 . S
C453 C35 0.624 . S
C472 C59 0.669 . S
C489 C17 0.623 . S
C508 C80 0.653 . S
