# Generated by pormake.
# Topology snk, (6)-cn, num edge types: 1
# Building blocks:
#     Node 0, Type 0, BuildingBlock: BETFAJ_clean_sbu_0, # of connection points: 6
#     Node 1, Type 0, BuildingBlock: BETFAJ_clean_sbu_0, # of connection points: 6
#     Node 2, Type 0, BuildingBlock: BETFAJ_clean_sbu_0, # of connection points: 6
#     Node 3, Type 0, BuildingBlock: BETFAJ_clean_sbu_0, # of connection points: 6
#     Node 4, Type 0, BuildingBlock: BETFAJ_clean_sbu_0, # of connection points: 6
#     Node 5, Type 0, BuildingBlock: BETFAJ_clean_sbu_0, # of connection points: 6
#     Node 6, Type 0, BuildingBlock: BETFAJ_clean_sbu_0, # of connection points: 6
#     Node 7, Type 0, BuildingBlock: BETFAJ_clean_sbu_0, # of connection points: 6
#     Edge 8, Type (0, 0), BuildingBlock: KIFKEQ_clean_linker_1, # of connection points: 2
#     Edge 9, Type (0, 0), BuildingBlock: KIFKEQ_clean_linker_1, # of connection points: 2
#     Edge 10, Type (0, 0), BuildingBlock: KIFKEQ_clean_linker_1, # of connection points: 2
#     Edge 11, Type (0, 0), BuildingBlock: KIFKEQ_clean_linker_1, # of connection points: 2
#     Edge 12, Type (0, 0), BuildingBlock: KIFKEQ_clean_linker_1, # of connection points: 2
#     Edge 13, Type (0, 0), BuildingBlock: KIFKEQ_clean_linker_1, # of connection points: 2
#     Edge 14, Type (0, 0), BuildingBlock: KIFKEQ_clean_linker_1, # of connection points: 2
#     Edge 15, Type (0, 0), BuildingBlock: KIFKEQ_clean_linker_1, # of connection points: 2
#     Edge 16, Type (0, 0), BuildingBlock: KIFKEQ_clean_linker_1, # of connection points: 2
#     Edge 17, Type (0, 0), BuildingBlock: KIFKEQ_clean_linker_1, # of connection points: 2
#     Edge 18, Type (0, 0), BuildingBlock: KIFKEQ_clean_linker_1, # of connection points: 2
#     Edge 19, Type (0, 0), BuildingBlock: KIFKEQ_clean_linker_1, # of connection points: 2
#     Edge 20, Type (0, 0), BuildingBlock: KIFKEQ_clean_linker_1, # of connection points: 2
#     Edge 21, Type (0, 0), BuildingBlock: KIFKEQ_clean_linker_1, # of connection points: 2
#     Edge 22, Type (0, 0), BuildingBlock: KIFKEQ_clean_linker_1, # of connection points: 2
#     Edge 23, Type (0, 0), BuildingBlock: KIFKEQ_clean_linker_1, # of connection points: 2
#     Edge 24, Type (0, 0), BuildingBlock: KIFKEQ_clean_linker_1, # of connection points: 2
#     Edge 25, Type (0, 0), BuildingBlock: KIFKEQ_clean_linker_1, # of connection points: 2
#     Edge 26, Type (0, 0), BuildingBlock: KIFKEQ_clean_linker_1, # of connection points: 2
#     Edge 27, Type (0, 0), BuildingBlock: KIFKEQ_clean_linker_1, # of connection points: 2
#     Edge 28, Type (0, 0), BuildingBlock: KIFKEQ_clean_linker_1, # of connection points: 2
#     Edge 29, Type (0, 0), BuildingBlock: KIFKEQ_clean_linker_1, # of connection points: 2
#     Edge 30, Type (0, 0), BuildingBlock: KIFKEQ_clean_linker_1, # of connection points: 2
#     Edge 31, Type (0, 0), BuildingBlock: KIFKEQ_clean_linker_1, # of connection points: 2
# Relax obj value: 0.091
# Max RMSD: 0.153
# Mean RMSD: 0.125
data_MOF--net-snk--node1-BETFAJ_clean_sbu_0--edge1-KIFKEQ_clean_linker_1
_symmetry_space_group_name_H-M    P1
_symmetry_Int_Tables_number       1
_symmetry_cell_setting            triclinic
loop_
_symmetry_equiv_pos_as_xyz
'x, y, z'
_cell_length_a     38.478733
_cell_length_b     38.577858
_cell_length_c     25.683381
_cell_angle_alpha  83.545399
_cell_angle_beta   96.62915
_cell_angle_gamma 89.05418
loop_
_atom_site_label
_atom_site_type_symbol
_atom_site_fract_x
_atom_site_fract_y
_atom_site_fract_z
_atom_type_partial_charge
Sm0 Sm 0.9939 0.98109 0.44622 0.0
Sm1 Sm 0.03222 0.99922 0.55301 0.0
C2 C 0.96165 0.981 0.34909 0.0
C3 C 0.97025 0.9839 0.29439 0.0
C4 C 0.94456 0.97717 0.25384 0.0
C5 C 0.95241 0.97855 0.20182 0.0
C6 C 0.98623 0.98669 0.18929 0.0
C7 C 0.01186 0.99384 0.23017 0.0
C8 C 1.00396 0.99239 0.28229 0.0
C9 C 0.04684 0.93545 0.49267 0.0
C10 C 0.06156 0.03386 0.44788 0.0
C11 C 0.06448 0.99777 0.65033 0.0
C12 C 0.05541 0.99487 0.70488 0.0
C13 C 0.08041 0.98157 0.74669 0.0
C14 C 0.07279 0.97985 0.79889 0.0
C15 C 0.03993 0.99148 0.8104 0.0
C16 C 0.01471 1.0043 0.76811 0.0
C17 C 0.02235 0.0059 0.71588 0.0
C18 C 0.97829 0.04426 0.508 0.0
C19 C 0.96423 0.94715 0.55181 0.0
O20 O 0.96492 0.00909 0.37327 0.0
O21 O 0.97312 0.95263 0.37935 0.0
O22 O 0.04751 0.96815 0.4901 0.0
O23 O 0.01823 0.92563 0.46739 0.0
O24 O 0.03202 0.02446 0.42206 0.0
O25 O 0.07085 0.02237 0.49809 0.0
O26 O 0.06056 0.96992 0.62569 0.0
O27 O 0.05428 0.0266 0.62015 0.0
O28 O 0.97846 0.01164 0.50943 0.0
O29 O 1.00625 0.05439 0.53469 0.0
O30 O 0.99405 0.95613 0.57723 0.0
O31 O 0.95486 0.95866 0.50155 0.0
H32 H 0.91838 0.97064 0.26245 0.0
H33 H 0.93189 0.97345 0.17134 0.0
H34 H 0.03824 0.99986 0.22207 0.0
H35 H 0.0242 0.99753 0.31321 0.0
H36 H 0.106 0.97271 0.73897 0.0
H37 H 0.09263 0.96922 0.83024 0.0
H38 H 0.98928 0.01381 0.77534 0.0
H39 H 1.00259 0.01615 0.68413 0.0
Sm40 Sm 0.24623 0.73507 0.82727 0.0
Sm41 Sm 0.26464 0.77452 0.72203 0.0
C42 C 0.24625 0.70312 0.92445 0.0
C43 C 0.24994 0.7117 0.97927 0.0
C44 C 0.24669 0.68533 0.02045 0.0
C45 C 0.24841 0.69311 0.07259 0.0
C46 C 0.25339 0.72753 0.08467 0.0
C47 C 0.25725 0.75385 0.04317 0.0
C48 C 0.25548 0.74601 0.99092 0.0
C49 C 0.19845 0.78545 0.77869 0.0
C50 C 0.29537 0.80532 0.82798 0.0
C51 C 0.26427 0.80587 0.6245 0.0
C52 C 0.26126 0.79653 0.56993 0.0
C53 C 0.2451 0.82018 0.52843 0.0
C54 C 0.24333 0.81252 0.47617 0.0
C55 C 0.2578 0.78098 0.46423 0.0
C56 C 0.27348 0.75706 0.50622 0.0
C57 C 0.27511 0.76471 0.55849 0.0
C58 C 0.31239 0.72412 0.77056 0.0
C59 C 0.21548 0.70416 0.72145 0.0
O60 O 0.27423 0.70548 0.89984 0.0
O61 O 0.21788 0.71529 0.89456 0.0
O62 O 0.23114 0.78799 0.78309 0.0
O63 O 0.18961 0.75608 0.80263 0.0
O64 O 0.28701 0.77525 0.85303 0.0
O65 O 0.2844 0.81433 0.77748 0.0
O66 O 0.23615 0.80311 0.64875 0.0
O67 O 0.29285 0.79522 0.65522 0.0
O68 O 0.2797 0.72162 0.7661 0.0
O69 O 0.32126 0.75344 0.74646 0.0
O70 O 0.22397 0.73417 0.69634 0.0
O71 O 0.22629 0.69524 0.772 0.0
H72 H 0.2425 0.65868 1.01222 0.0
H73 H 0.24594 0.67208 0.1035 0.0
H74 H 0.26081 0.78067 0.05087 0.0
H75 H 0.25796 0.76676 0.95956 0.0
H76 H 0.23404 0.84479 0.5364 0.0
H77 H 0.23046 0.83129 0.44514 0.0
H78 H 0.28523 0.73269 0.49869 0.0
H79 H 0.28762 0.74594 0.58989 0.0
Sm80 Sm 0.52262 0.98562 0.07616 0.0
Sm81 Sm 0.4932 0.02033 0.96619 0.0
C82 C 0.54823 0.97009 0.17667 0.0
C83 C 0.54128 0.97697 0.2299 0.0
C84 C 0.53028 0.01012 0.24037 0.0
C85 C 0.5247 0.01592 0.29169 0.0
C86 C 0.52993 0.98865 0.33342 0.0
C87 C 0.54045 0.95541 0.32233 0.0
C88 C 0.54612 0.9497 0.27118 0.0
C89 C 0.47272 0.94871 0.02265 0.0
C90 C 0.45766 0.04476 0.06368 0.0
C91 C 0.46665 0.03356 0.86571 0.0
C92 C 0.47545 0.02864 0.8122 0.0
C93 C 0.46309 0.99975 0.7875 0.0
C94 C 0.47002 0.9957 0.73623 0.0
C95 C 0.48923 0.02059 0.70818 0.0
C96 C 0.50157 0.0495 0.73285 0.0
C97 C 0.49472 0.05352 0.78422 0.0
C98 C 0.54298 0.05754 0.01932 0.0
C99 C 0.55964 0.96236 0.9787 0.0
O100 O 0.55897 0.99606 0.14584 0.0
O101 O 0.52594 0.9507 0.15174 0.0
O102 O 0.47151 0.98124 0.02436 0.0
O103 O 0.50014 0.93423 0.0516 0.0
O104 O 0.48498 0.02923 0.0939 0.0
O105 O 0.4518 0.04121 1.0129 0.0
O106 O 0.45981 0.00558 0.8962 0.0
O107 O 0.48451 0.05613 0.89151 0.0
O108 O 0.54422 0.02494 0.01802 0.0
O109 O 0.51591 0.07196 0.98928 0.0
O110 O 0.53365 0.97961 0.94767 0.0
O111 O 0.56371 0.96326 0.0303 0.0
H112 H 0.52625 0.03158 0.20905 0.0
H113 H 0.5169 0.04191 0.2988 0.0
H114 H 0.54406 0.93363 0.35313 0.0
H115 H 0.55439 0.92387 0.26385 0.0
H116 H 0.44768 0.9804 0.80757 0.0
H117 H 0.45966 0.97341 0.71812 0.0
H118 H 0.51672 0.06898 0.71254 0.0
H119 H 0.50437 0.07626 0.8018 0.0
Sm120 Sm 0.23898 0.26871 0.2109 0.0
Sm121 Sm 0.27378 0.24091 0.32076 0.0
C122 C 0.22187 0.29232 0.10984 0.0
C123 C 0.22941 0.28572 0.05673 0.0
C124 C 0.26364 0.27905 0.04563 0.0
C125 C 0.26996 0.27399 0.99434 0.0
C126 C 0.24217 0.27536 0.95323 0.0
C127 C 0.20791 0.28149 0.96495 0.0
C128 C 0.20166 0.28669 1.01608 0.0
C129 C 0.20272 0.21846 0.26466 0.0
C130 C 0.29931 0.20538 0.22402 0.0
C131 C 0.28749 0.21393 0.42093 0.0
C132 C 0.28437 0.22276 0.47451 0.0
C133 C 0.2597 0.24789 0.48376 0.0
C134 C 0.25633 0.25482 0.53534 0.0
C135 C 0.27751 0.23666 0.57856 0.0
C136 C 0.30252 0.2119 0.5688 0.0
C137 C 0.30589 0.20506 0.51728 0.0
C138 C 0.31089 0.29124 0.26877 0.0
C139 C 0.21471 0.30631 0.30718 0.0
O140 O 0.24677 0.30523 0.14032 0.0
O141 O 0.20423 0.26874 0.13532 0.0
O142 O 0.23535 0.21774 0.26295 0.0
O143 O 0.18787 0.24578 0.23617 0.0
O144 O 0.28403 0.23268 0.19376 0.0
O145 O 0.29505 0.19945 0.27448 0.0
O146 O 0.25826 0.20928 0.39141 0.0
O147 O 0.31039 0.23095 0.39493 0.0
O148 O 0.27801 0.2919 0.26857 0.0
O149 O 0.32536 0.26468 0.29968 0.0
O150 O 0.23258 0.28104 0.33872 0.0
O151 O 0.21542 0.30976 0.25557 0.0
H152 H 0.28552 0.27804 0.07642 0.0
H153 H 0.29669 0.26963 0.98674 0.0
H154 H 0.18579 0.28202 0.93468 0.0
H155 H 0.17504 0.2916 0.02386 0.0
H156 H 0.24277 0.26178 0.45121 0.0
H157 H 0.23659 0.27381 0.54145 0.0
H158 H 0.31962 0.19785 0.60102 0.0
H159 H 0.32516 0.18567 0.51086 0.0
Sm160 Sm 0.74857 0.24533 0.30676 0.0
Sm161 Sm 0.77938 0.26408 0.20126 0.0
C162 C 0.72993 0.21693 0.39783 0.0
C163 C 0.73615 0.22256 0.45393 0.0
C164 C 0.76794 0.23541 0.47542 0.0
C165 C 0.77301 0.24114 0.52862 0.0
C166 C 0.74627 0.23441 0.56116 0.0
C167 C 0.71448 0.2216 0.53929 0.0
C168 C 0.70952 0.21571 0.48623 0.0
C169 C 0.71511 0.29952 0.24139 0.0
C170 C 0.80452 0.30674 0.30405 0.0
C171 C 0.79887 0.29178 0.11029 0.0
C172 C 0.79136 0.28696 0.05414 0.0
C173 C 0.77101 0.25933 0.03821 0.0
C174 C 0.76538 0.25411 0.98485 0.0
C175 C 0.78 0.27646 0.94644 0.0
C176 C 0.79993 0.30444 0.96278 0.0
C177 C 0.80556 0.30958 1.01612 0.0
C178 C 0.81272 0.21029 0.26805 0.0
C179 C 0.72198 0.20431 0.20298 0.0
O180 O 0.75658 0.20535 0.3766 0.0
O181 O 0.71107 0.24108 0.36669 0.0
O182 O 0.72629 0.27172 0.22695 0.0
O183 O 0.71974 0.29884 0.29242 0.0
O184 O 0.78931 0.2835 0.335 0.0
O185 O 0.80195 0.30638 0.25219 0.0
O186 O 0.77339 0.30499 0.13224 0.0
O187 O 0.81596 0.26598 0.14044 0.0
O188 O 0.80158 0.23843 0.28119 0.0
O189 O 0.80785 0.21004 0.21716 0.0
O190 O 0.73619 0.22869 0.17269 0.0
O191 O 0.72658 0.20283 0.25519 0.0
H192 H 0.78876 0.24123 0.45104 0.0
H193 H 0.79764 0.2514 0.54406 0.0
H194 H 0.69351 0.21578 0.56336 0.0
H195 H 0.68478 0.20585 0.47034 0.0
H196 H 0.75989 0.24154 0.06712 0.0
H197 H 0.75023 0.2321 0.97388 0.0
H198 H 0.81109 0.3225 0.93431 0.0
H199 H 0.82127 0.3311 0.02774 0.0
Sm200 Sm 0.73917 0.76865 0.71313 0.0
Sm201 Sm 0.77642 0.74119 0.82272 0.0
C202 C 0.72227 0.79252 0.6123 0.0
C203 C 0.73058 0.78555 0.5598 0.0
C204 C 0.7307 0.81343 0.51984 0.0
C205 C 0.7373 0.80744 0.46915 0.0
C206 C 0.74386 0.77335 0.45741 0.0
C207 C 0.7442 0.74545 0.49785 0.0
C208 C 0.73772 0.75151 0.54865 0.0
C209 C 0.70091 0.72435 0.7735 0.0
C210 C 0.79591 0.70134 0.72605 0.0
C211 C 0.79316 0.71762 0.92374 0.0
C212 C 0.78608 0.72521 0.97692 0.0
C213 C 0.76508 0.70291 1.00618 0.0
C214 C 0.75979 0.70853 0.0576 0.0
C215 C 0.77561 0.73645 0.08114 0.0
C216 C 0.79632 0.75897 0.05162 0.0
C217 C 0.80152 0.75342 1.00015 0.0
C218 C 0.81455 0.78567 0.76223 0.0
C219 C 0.7195 0.80844 0.80984 0.0
O220 O 0.74709 0.80562 0.64274 0.0
O221 O 0.70458 0.76893 0.63785 0.0
O222 O 0.73314 0.72031 0.76979 0.0
O223 O 0.68738 0.75134 0.74257 0.0
O224 O 0.779 0.72733 0.69475 0.0
O225 O 0.79571 0.69812 0.77775 0.0
O226 O 0.76748 0.70537 0.89375 0.0
O227 O 0.81199 0.73968 0.89735 0.0
O228 O 0.78236 0.78959 0.76621 0.0
O229 O 0.82816 0.75865 0.79304 0.0
O230 O 0.73692 0.78279 0.84121 0.0
O231 O 0.71928 0.81142 0.75808 0.0
H232 H 0.72524 0.83988 0.52769 0.0
H233 H 0.73648 0.82945 0.43885 0.0
H234 H 0.74963 0.71896 0.4903 0.0
H235 H 0.73802 0.7296 0.57905 0.0
H236 H 0.75315 0.68074 0.98956 0.0
H237 H 0.74402 0.69045 0.0794 0.0
H238 H 0.80851 0.78098 0.06828 0.0
H239 H 0.81795 0.77107 0.97887 0.0
Sm240 Sm 0.4841 0.51024 0.98167 0.0
Sm241 Sm 0.52322 0.52568 0.08895 0.0
C242 C 0.45151 0.51331 0.88431 0.0
C243 C 0.46082 0.51504 0.82988 0.0
C244 C 0.43733 0.53085 0.78778 0.0
C245 C 0.44516 0.53165 0.73573 0.0
C246 C 0.47666 0.51652 0.7247 0.0
C247 C 0.50037 0.5011 0.76722 0.0
C248 C 0.49258 0.50047 0.81927 0.0
C249 C 0.53922 0.46526 0.02187 0.0
C250 C 0.55141 0.56311 0.98462 0.0
C251 C 0.55554 0.52425 0.1864 0.0
C252 C 0.54668 0.52068 0.24104 0.0
C253 C 0.57298 0.52366 0.28267 0.0
C254 C 0.56493 0.5218 0.33467 0.0
C255 C 0.5303 0.51692 0.34615 0.0
C256 C 0.50401 0.51364 0.30411 0.0
C257 C 0.51214 0.51551 0.25204 0.0
C258 C 0.46907 0.57137 0.0466 0.0
C259 C 0.45669 0.47232 0.08535 0.0
O260 O 0.45751 0.54097 0.90884 0.0
O261 O 0.45951 0.48407 0.91476 0.0
O262 O 0.53858 0.49768 0.02294 0.0
O263 O 0.51104 0.45539 0.99547 0.0
O264 O 0.52116 0.55491 0.95953 0.0
O265 O 0.56161 0.54986 0.03393 0.0
O266 O 0.55217 0.49661 0.1612 0.0
O267 O 0.5443 0.55297 0.1569 0.0
O268 O 0.46897 0.53879 0.0474 0.0
O269 O 0.4979 0.58102 0.07142 0.0
O270 O 0.48734 0.4796 0.11012 0.0
O271 O 0.44574 0.48686 0.0371 0.0
H272 H 0.4127 0.54226 0.79512 0.0
H273 H 0.42617 0.54346 0.70404 0.0
H274 H 0.52508 0.48968 0.76028 0.0
H275 H 0.51127 0.48838 0.85121 0.0
H276 H 0.59977 0.52787 0.2749 0.0
H277 H 0.58577 0.52495 0.36574 0.0
H278 H 0.47717 0.50943 0.31144 0.0
H279 H 0.49145 0.51316 0.22033 0.0
Sm280 Sm 0.01955 0.48665 0.56985 0.0
Sm281 Sm 0.99367 0.52537 0.46052 0.0
C282 C 0.04191 0.4677 0.6709 0.0
C283 C 0.03492 0.47489 0.72408 0.0
C284 C 0.02744 0.50885 0.73537 0.0
C285 C 0.02188 0.51489 0.78663 0.0
C286 C 0.02341 0.48707 0.82743 0.0
C287 C 0.03049 0.4531 0.81563 0.0
C288 C 0.03624 0.44714 0.76455 0.0
C289 C 0.97266 0.4517 0.50792 0.0
C290 C 0.95465 0.54613 0.55743 0.0
C291 C 0.96966 0.54354 0.35976 0.0
C292 C 0.9764 0.53696 0.30637 0.0
C293 C 1.00059 0.51102 0.29843 0.0
C294 C 1.00668 0.50552 0.24716 0.0
C295 C 0.98864 0.52586 0.20292 0.0
C296 C 0.96431 0.5517 0.21142 0.0
C297 C 0.95833 0.55719 0.26259 0.0
C298 C 0.0406 0.56084 0.52182 0.0
C299 C 0.05887 0.46593 0.47337 0.0
O300 O 0.056 0.49241 0.64171 0.0
O301 O 0.01792 0.45112 0.64402 0.0
O302 O 0.97053 0.48376 0.51306 0.0
O303 O 0.99948 0.43646 0.53751 0.0
O304 O 0.98009 0.52818 0.58864 0.0
O305 O 0.95143 0.54632 0.50564 0.0
O306 O 0.95743 0.5177 0.38914 0.0
O307 O 0.9932 0.56096 0.38608 0.0
O308 O 0.04271 0.5286 0.51753 0.0
O309 O 0.01421 0.57584 0.4909 0.0
O310 O 0.03371 0.4842 0.44198 0.0
O311 O 0.06186 0.46554 0.52518 0.0
H312 H 0.026 0.5307 0.70468 0.0
H313 H 0.01608 0.54129 0.79423 0.0
H314 H 0.03226 0.43115 0.84615 0.0
H315 H 0.04202 0.42076 0.75672 0.0
H316 H 0.01479 0.49513 0.33181 0.0
H317 H 0.02585 0.48565 0.24224 0.0
H318 H 0.94947 0.56745 0.17847 0.0
H319 H 0.93945 0.57725 0.26797 0.0
H320 H 0.12484 0.05856 0.48602 0.0
H321 H 0.04965 0.06523 0.34625 0.0
H322 H 0.15996 0.10217 0.44153 0.0
H323 H 0.08493 0.10847 0.30188 0.0
H324 H 0.22918 0.15839 0.32398 0.0
H325 H 0.19635 0.11204 0.36767 0.0
H326 H 0.09968 0.16951 0.31006 0.0
H327 H 0.13239 0.21552 0.2664 0.0
C328 C 0.11593 0.06906 0.4457 0.0
C329 C 0.08428 0.05849 0.41988 0.0
C330 C 0.13616 0.09396 0.42014 0.0
C331 C 0.12511 0.10898 0.36831 0.0
C332 C 0.0939 0.09781 0.34212 0.0
C333 C 0.07377 0.07283 0.36752 0.0
C334 C 0.20092 0.16105 0.32082 0.0
C335 C 0.18331 0.1905 0.29176 0.0
C336 C 0.18214 0.1346 0.34593 0.0
C337 C 0.14538 0.13699 0.34209 0.0
C338 C 0.12791 0.16658 0.3131 0.0
C339 C 0.14666 0.19305 0.28834 0.0
H340 H 0.11566 0.9425 0.52472 0.0
H341 H 0.02787 0.87733 0.55056 0.0
H342 H 0.15248 0.90548 0.59328 0.0
H343 H 0.06338 0.8419 0.6221 0.0
H344 H 0.14259 0.765 0.71657 0.0
H345 H 0.10692 0.80027 0.64495 0.0
H346 H 0.16508 0.89128 0.68232 0.0
H347 H 0.20246 0.8549 0.75092 0.0
C348 C 0.10436 0.9202 0.54541 0.0
C349 C 0.0693 0.91231 0.53221 0.0
C350 C 0.12522 0.89921 0.58521 0.0
C351 C 0.11103 0.87059 0.6138 0.0
C352 C 0.07564 0.86306 0.60038 0.0
C353 C 0.05515 0.88342 0.5595 0.0
C354 C 0.14741 0.79263 0.70948 0.0
C355 C 0.17491 0.80749 0.73915 0.0
C356 C 0.12692 0.81298 0.66855 0.0
C357 C 0.1329 0.84885 0.6575 0.0
C358 C 0.16008 0.86369 0.68851 0.0
C359 C 0.18124 0.84305 0.72835 0.0
H360 H 0.325 0.79369 0.93045 0.0
H361 H 0.31858 0.86963 0.79213 0.0
H362 H 0.36633 0.82965 0.97733 0.0
H363 H 0.3604 0.90554 0.83931 0.0
H364 H 0.41243 0.97434 0.9625 0.0
H365 H 0.36771 0.94115 0.91538 0.0
H366 H 0.42752 0.84576 0.97104 0.0
H367 H 0.47195 0.8788 0.01792 0.0
C368 C 0.33223 0.81814 0.91003 0.0
C369 C 0.31855 0.82866 0.85734 0.0
C370 C 0.35612 0.83866 0.9369 0.0
C371 C 0.36689 0.87028 0.91188 0.0
C372 C 0.35246 0.88139 0.85974 0.0
C373 C 0.3286 0.86074 0.83267 0.0
C374 C 0.41598 0.94629 0.96444 0.0
C375 C 0.44561 0.92911 0.99385 0.0
C376 C 0.39046 0.92733 0.93739 0.0
C377 C 0.39399 0.89082 0.93974 0.0
C378 C 0.42375 0.87379 0.96911 0.0
C379 C 0.44929 0.89273 0.99576 0.0
H380 H 0.46378 0.06213 0.16478 0.0
H381 H 0.39666 0.07815 1.01664 0.0
H382 H 0.4253 0.10032 0.20308 0.0
H383 H 0.35764 0.11565 0.05544 0.0
H384 H 0.3175 0.21135 0.12347 0.0
H385 H 0.35507 0.17216 0.08535 0.0
H386 H 0.36871 0.10445 0.23257 0.0
H387 H 0.33185 0.14416 0.2712 0.0
C388 C 0.44066 0.07355 0.14043 0.0
C389 C 0.43342 0.06707 0.0875 0.0
C390 C 0.41843 0.09535 0.16256 0.0
C391 C 0.38829 0.11118 0.13244 0.0
C392 C 0.38087 0.10438 0.07964 0.0
C393 C 0.40317 0.08266 0.05744 0.0
C394 C 0.32846 0.1881 0.14779 0.0
C395 C 0.32166 0.18101 0.20053 0.0
C396 C 0.34988 0.16545 0.12574 0.0
C397 C 0.36499 0.13503 0.15578 0.0
C398 C 0.35798 0.12785 0.20844 0.0
C399 C 0.33663 0.15056 0.23055 0.0
H400 H 0.89761 0.92756 0.51863 0.0
H401 H 0.97797 0.91471 0.6522 0.0
H402 H 0.86015 0.88869 0.56798 0.0
H403 H 0.9406 0.87646 0.70114 0.0
H404 H 0.88311 0.77841 0.74945 0.0
H405 H 0.91798 0.81752 0.69683 0.0
H406 H 0.82731 0.8859 0.64759 0.0
H407 H 0.79222 0.84645 0.70056 0.0
C408 C 0.90726 0.91657 0.55844 0.0
C409 C 0.94086 0.9242 0.58133 0.0
C410 C 0.88573 0.89447 0.58678 0.0
C411 C 0.8975 0.87935 0.63834 0.0
C412 C 0.93094 0.88727 0.66123 0.0
C413 C 0.95231 0.90941 0.63316 0.0
C414 C 0.87058 0.80178 0.72741 0.0
C415 C 0.83499 0.80945 0.7292 0.0
C416 C 0.89059 0.82425 0.69739 0.0
C417 C 0.87547 0.85494 0.66831 0.0
C418 C 0.83963 0.86233 0.66928 0.0
C419 C 0.81959 0.83984 0.69967 0.0
H420 H 0.97618 0.11518 0.49711 0.0
H421 H 0.9201 0.02615 0.44766 0.0
H422 H 0.93343 0.15423 0.44043 0.0
H423 H 0.87739 0.06521 0.39077 0.0
H424 H 0.84049 0.14855 0.24717 0.0
H425 H 0.87863 0.1071 0.30815 0.0
H426 H 0.86988 0.17171 0.43322 0.0
H427 H 0.83209 0.21312 0.3724 0.0
C428 C 0.95455 0.10403 0.47441 0.0
C429 C 0.95145 0.06776 0.47641 0.0
C430 C 0.93006 0.12632 0.44216 0.0
C431 C 0.9022 0.11267 0.41119 0.0
C432 C 0.89884 0.07635 0.41386 0.0
C433 C 0.92317 0.05408 0.44647 0.0
C434 C 0.84656 0.15366 0.28779 0.0
C435 C 0.83361 0.18402 0.30509 0.0
C436 C 0.86819 0.12993 0.32268 0.0
C437 C 0.87731 0.13638 0.37525 0.0
C438 C 0.8636 0.16637 0.39273 0.0
C439 C 0.84186 0.18993 0.358 0.0
H440 H 0.69698 0.20822 0.09879 0.0
H441 H 0.69254 0.14549 0.24829 0.0
H442 H 0.65468 0.17119 0.05621 0.0
H443 H 0.65004 0.10807 0.20488 0.0
H444 H 0.60171 0.03208 0.08384 0.0
H445 H 0.64621 0.06579 0.13075 0.0
H446 H 0.5898 0.16128 0.06484 0.0
H447 H 0.54517 0.12778 0.01907 0.0
C448 C 0.68724 0.18636 0.12261 0.0
C449 C 0.69806 0.17996 0.17713 0.0
C450 C 0.66284 0.16525 0.09812 0.0
C451 C 0.64891 0.13697 0.12732 0.0
C452 C 0.66048 0.12971 0.18147 0.0
C453 C 0.68467 0.15119 0.20628 0.0
C454 C 0.59872 0.06024 0.07988 0.0
C455 C 0.56998 0.07734 0.04795 0.0
C456 C 0.62412 0.07947 0.10671 0.0
C457 C 0.62147 0.11611 0.1012 0.0
C458 C 0.59265 0.13308 0.06936 0.0
C459 C 0.56709 0.1139 0.04326 0.0
H460 H 0.66201 0.84733 0.76311 0.0
H461 H 0.72867 0.82567 0.91074 0.0
H462 H 0.6243 0.88469 0.804 0.0
H463 H 0.69234 0.86475 0.95117 0.0
H464 H 0.60067 0.90629 0.02528 0.0
H465 H 0.63972 0.87028 0.98428 0.0
H466 H 0.61601 0.93683 0.83669 0.0
H467 H 0.57537 0.97129 0.87719 0.0
C468 C 0.66899 0.85114 0.80412 0.0
C469 C 0.69829 0.83351 0.83368 0.0
C470 C 0.64742 0.87279 0.82768 0.0
C471 C 0.65497 0.87798 0.88125 0.0
C472 C 0.68498 0.86095 0.91029 0.0
C473 C 0.70611 0.83872 0.88697 0.0
C474 C 0.60391 0.9132 0.9841 0.0
C475 C 0.58483 0.94154 0.95447 0.0
C476 C 0.62656 0.89267 0.9605 0.0
C477 C 0.6313 0.90039 0.90683 0.0
C478 C 0.61265 0.92935 0.87766 0.0
C479 C 0.58946 0.94939 0.901 0.0
H480 H 0.53668 0.59763 0.88571 0.0
H481 H 0.61837 0.58196 0.0173 0.0
H482 H 0.57394 0.63607 0.83694 0.0
H483 H 0.65569 0.62114 0.96825 0.0
H484 H 0.63267 0.73259 0.78753 0.0
H485 H 0.59774 0.69407 0.84089 0.0
H486 H 0.68773 0.62453 0.88867 0.0
H487 H 0.72291 0.66348 0.83518 0.0
C488 C 0.56258 0.60242 0.9044 0.0
C489 C 0.57448 0.58669 0.95555 0.0
C490 C 0.5839 0.62469 0.87645 0.0
C491 C 0.61772 0.63185 0.8988 0.0
C492 C 0.62984 0.61594 0.94981 0.0
C493 C 0.60838 0.59367 0.978 0.0
C494 C 0.64503 0.7091 0.80943 0.0
C495 C 0.68045 0.70094 0.80703 0.0
C496 C 0.62498 0.68695 0.83988 0.0
C497 C 0.63987 0.65608 0.86872 0.0
C498 C 0.67556 0.64824 0.8672 0.0
C499 C 0.69566 0.67044 0.83646 0.0
H500 H 0.68657 0.35942 0.2666 0.0
H501 H 0.69377 0.29847 0.13682 0.0
H502 H 0.64594 0.40055 0.2098 0.0
H503 H 0.65331 0.33977 0.07986 0.0
H504 H 0.54398 0.39449 0.02588 0.0
H505 H 0.58957 0.3554 0.07635 0.0
H506 H 0.64368 0.44433 0.13042 0.0
H507 H 0.59809 0.48329 0.08025 0.0
C508 C 0.67971 0.35507 0.22578 0.0
C509 C 0.69303 0.32576 0.20609 0.0
C510 C 0.65663 0.37865 0.19324 0.0
C511 C 0.6464 0.3732 0.14054 0.0
C512 C 0.66047 0.34432 0.12052 0.0
C513 C 0.68371 0.32085 0.15299 0.0
C514 C 0.56579 0.40559 0.04823 0.0
C515 C 0.56752 0.44177 0.0495 0.0
C516 C 0.59192 0.38331 0.07685 0.0
C517 C 0.62007 0.3969 0.10735 0.0
C518 C 0.62207 0.43318 0.10769 0.0
C519 C 0.59608 0.45542 0.07887 0.0
H520 H 0.90548 0.47207 0.4694 0.0
H521 H 0.98355 0.39046 0.4688 0.0
H522 H 0.86305 0.43982 0.41583 0.0
H523 H 0.94152 0.35896 0.4139 0.0
H524 H 0.86183 0.33771 0.26797 0.0
H525 H 0.90243 0.37567 0.31393 0.0
H526 H 0.83848 0.3719 0.44163 0.0
H527 H 0.79841 0.33312 0.39671 0.0
C528 C 0.91361 0.44746 0.45733 0.0
C529 C 0.9476 0.43353 0.47344 0.0
C530 C 0.88941 0.4291 0.42684 0.0
C531 C 0.89922 0.39709 0.41084 0.0
C532 C 0.93352 0.38372 0.42559 0.0
C533 C 0.9574 0.40161 0.45714 0.0
C534 C 0.85623 0.34533 0.30554 0.0
C535 C 0.82704 0.33242 0.32888 0.0
C536 C 0.87948 0.36689 0.33179 0.0
C537 C 0.87339 0.3766 0.38108 0.0
C538 C 0.84352 0.36486 0.40346 0.0
C539 C 0.82075 0.34262 0.37788 0.0
H540 H 0.78705 0.68469 0.62486 0.0
H541 H 0.85267 0.66147 0.77314 0.0
H542 H 0.82302 0.64529 0.58448 0.0
H543 H 0.89008 0.62372 0.73234 0.0
H544 H 0.93819 0.53685 0.65859 0.0
H545 H 0.8978 0.57166 0.69903 0.0
H546 H 0.87579 0.63919 0.55208 0.0
H547 H 0.91455 0.6029 0.51111 0.0
C548 C 0.80932 0.67124 0.64878 0.0
C549 C 0.81695 0.67613 0.70223 0.0
C550 C 0.83025 0.64881 0.6255 0.0
C551 C 0.85988 0.63122 0.65475 0.0
C552 C 0.86724 0.63607 0.70848 0.0
C553 C 0.84586 0.65794 0.732 0.0
C554 C 0.9245 0.55902 0.63489 0.0
C555 C 0.92951 0.56706 0.5816 0.0
C556 C 0.90147 0.57926 0.65821 0.0
C557 C 0.88337 0.60861 0.6292 0.0
C558 C 0.88849 0.61651 0.57572 0.0
C559 C 0.91098 0.5958 0.55213 0.0
H560 H 0.38008 0.30285 0.2907 0.0
H561 H 0.28725 0.34376 0.19135 0.0
H562 H 0.41419 0.34801 0.24961 0.0
H563 H 0.3218 0.3866 0.14514 0.0
H564 H 0.38676 0.47794 0.09277 0.0
H565 H 0.35109 0.43636 0.13987 0.0
H566 H 0.44167 0.36609 0.18044 0.0
H567 H 0.47734 0.40943 0.13796 0.0
C568 C 0.36708 0.32121 0.25917 0.0
C569 C 0.33108 0.31935 0.24354 0.0
C570 C 0.38679 0.34702 0.23485 0.0
C571 C 0.37133 0.37103 0.19271 0.0
C572 C 0.33501 0.36918 0.17758 0.0
C573 C 0.31507 0.34411 0.20344 0.0
C574 C 0.39881 0.4536 0.11228 0.0
C575 C 0.4347 0.44685 0.11225 0.0
C576 C 0.37835 0.42945 0.13898 0.0
C577 C 0.39311 0.39738 0.16467 0.0
C578 C 0.42913 0.39065 0.16309 0.0
C579 C 0.44972 0.41535 0.13814 0.0
H580 H 0.48624 0.63093 0.99042 0.0
H581 H 0.40001 0.56381 0.01715 0.0
H582 H 0.44914 0.66716 0.92173 0.0
H583 H 0.36161 0.60158 0.95166 0.0
H584 H 0.30862 0.65448 0.79699 0.0
H585 H 0.34702 0.61751 0.8635 0.0
H586 H 0.40509 0.7083 0.90226 0.0
H587 H 0.36842 0.74418 0.83254 0.0
C588 C 0.45896 0.62457 0.98235 0.0
C589 C 0.4457 0.59492 1.009 0.0
C590 C 0.43755 0.6454 0.94312 0.0
C591 C 0.40212 0.63756 0.93084 0.0
C592 C 0.38885 0.60814 0.95885 0.0
C593 C 0.41062 0.58671 0.99692 0.0
C594 C 0.33 0.66617 0.81947 0.0
C595 C 0.33608 0.70183 0.80949 0.0
C596 C 0.35177 0.64518 0.85811 0.0
C597 C 0.37931 0.65975 0.88879 0.0
C598 C 0.38488 0.69578 0.8788 0.0
C599 C 0.36379 0.71648 0.839 0.0
H600 H 0.18534 0.71609 0.61932 0.0
H601 H 0.19292 0.63944 0.75689 0.0
H602 H 0.14433 0.67996 0.57226 0.0
H603 H 0.15137 0.60333 0.70949 0.0
H604 H 0.03986 0.63025 0.53019 0.0
H605 H 0.08339 0.66316 0.57897 0.0
H606 H 0.14431 0.56814 0.63249 0.0
H607 H 0.10041 0.53503 0.58343 0.0
C608 C 0.17843 0.69145 0.63954 0.0
C609 C 0.19236 0.68078 0.69206 0.0
C610 C 0.15471 0.67083 0.61258 0.0
C611 C 0.14434 0.63895 0.63732 0.0
C612 C 0.15899 0.6277 0.6893 0.0
C613 C 0.18268 0.64846 0.71649 0.0
C614 C 0.06253 0.61635 0.55236 0.0
C615 C 0.06683 0.58011 0.55288 0.0
C616 C 0.08756 0.63523 0.58011 0.0
C617 C 0.11745 0.6183 0.60922 0.0
C618 C 0.12146 0.58188 0.61062 0.0
C619 C 0.09642 0.56296 0.58248 0.0
H620 H 0.2233 0.32312 0.40822 0.0
H621 H 0.15787 0.3461 0.2597 0.0
H622 H 0.18783 0.36328 0.44793 0.0
H623 H 0.12105 0.38493 0.29987 0.0
H624 H 0.07624 0.47459 0.37256 0.0
H625 H 0.11535 0.43802 0.33253 0.0
H626 H 0.13474 0.37041 0.47972 0.0
H627 H 0.0971 0.40815 0.52014 0.0
C628 C 0.20108 0.33656 0.38415 0.0
C629 C 0.19337 0.33138 0.33082 0.0
C630 C 0.1805 0.35951 0.40703 0.0
C631 C 0.15119 0.37744 0.37747 0.0
C632 C 0.14366 0.37224 0.32391 0.0
C633 C 0.16467 0.34976 0.3008 0.0
C634 C 0.08904 0.45199 0.39637 0.0
C635 C 0.0836 0.44431 0.44955 0.0
C636 C 0.11134 0.43078 0.3733 0.0
C637 C 0.12834 0.40092 0.40256 0.0
C638 C 0.12285 0.39343 0.45594 0.0
C639 C 0.10104 0.41501 0.47921 0.0
H640 H 0.08383 0.00626 0.8967 0.0
H641 H 0.97845 0.97494 0.85087 0.0
H642 H 0.07148 1.00435 0.98785 0.0
H643 H 0.96561 0.97466 0.94159 0.0
H644 H 0.96569 0.94113 0.11794 0.0
H645 H 0.97874 0.94223 0.02724 0.0
H646 H 0.03887 0.03473 0.04413 0.0
H647 H 0.02593 0.03347 0.13511 0.0
C648 C 0.05802 0.99888 0.906 0.0
C649 C 0.0322 0.99064 0.86622 0.0
C650 C 0.05079 0.99825 0.95828 0.0
C651 C 0.01751 0.9894 0.97229 0.0
C652 C 0.99166 0.9812 0.9325 0.0
C653 C 0.99891 0.98179 0.88023 0.0
C654 C 0.98146 0.96189 0.10222 0.0
C655 C 0.99465 0.98728 0.13391 0.0
C656 C 0.98894 0.96254 0.05008 0.0
C657 C 0.00979 0.98863 0.02809 0.0
C658 C 0.02314 0.01394 0.05988 0.0
C659 C 0.01571 0.01325 0.11211 0.0
H660 H 0.24709 0.71816 0.42471 0.0
H661 H 0.26671 0.82631 0.3766 0.0
H662 H 0.24699 0.70547 0.33393 0.0
H663 H 0.2649 0.81394 0.28542 0.0
H664 H 0.29634 0.77207 0.13659 0.0
H665 H 0.29746 0.78498 0.22762 0.0
H666 H 0.21255 0.71495 0.24943 0.0
H667 H 0.21158 0.70195 0.1587 0.0
C668 C 0.25139 0.73927 0.39485 0.0
C669 C 0.25693 0.77329 0.40829 0.0
C670 C 0.2509 0.73207 0.34253 0.0
C671 C 0.25586 0.75867 0.30206 0.0
C672 C 0.26137 0.79268 0.31548 0.0
C673 C 0.26192 0.79989 0.36782 0.0
C674 C 0.27773 0.75963 0.16068 0.0
C675 C 0.25397 0.73584 0.1402 0.0
C676 C 0.27835 0.76705 0.21297 0.0
C677 C 0.25516 0.75096 0.24617 0.0
C678 C 0.23126 0.72736 0.2255 0.0
C679 C 0.23069 0.7199 0.17332 0.0
H680 H 0.48549 0.07106 0.62344 0.0
H681 H 0.50801 0.96099 0.66837 0.0
H682 H 0.49618 0.06432 0.53318 0.0
H683 H 0.5177 0.95409 0.57787 0.0
H684 H 0.56936 0.96228 0.4255 0.0
H685 H 0.55989 0.97044 0.51548 0.0
H686 H 0.46952 0.03723 0.45629 0.0
H687 H 0.47869 0.02876 0.36605 0.0
C688 C 0.49285 0.04545 0.61412 0.0
C689 C 0.49594 0.01657 0.65319 0.0
C690 C 0.4986 0.04153 0.56225 0.0
C691 C 0.50777 0.00867 0.54828 0.0
C692 C 0.51102 0.97983 0.58741 0.0
C693 C 0.50511 0.98372 0.63918 0.0
C694 C 0.54725 0.97845 0.43156 0.0
C695 C 0.52466 0.99467 0.38836 0.0
C696 C 0.54186 0.98317 0.48323 0.0
C697 C 0.51386 1.00436 0.49313 0.0
C698 C 0.49157 0.02104 0.45001 0.0
C699 C 0.49687 0.01621 0.39825 0.0
H700 H 0.21036 0.31017 0.86056 0.0
H701 H 0.2888 0.22979 0.92118 0.0
H702 H 0.2191 0.30084 0.77082 0.0
H703 H 0.29882 0.2217 0.83129 0.0
H704 H 0.27791 0.18829 0.66517 0.0
H705 H 0.27048 0.19823 0.75522 0.0
H706 H 0.25999 0.30924 0.70702 0.0
H707 H 0.26716 0.2992 0.6167 0.0
C708 C 0.22951 0.2905 0.85482 0.0
C709 C 0.24868 0.27057 0.8983 0.0
C710 C 0.23487 0.28549 0.80322 0.0
C711 C 0.25967 0.26049 0.79364 0.0
C712 C 0.27918 0.24087 0.83711 0.0
C713 C 0.27374 0.24582 0.88876 0.0
C714 C 0.27436 0.21486 0.67385 0.0
C715 C 0.27319 0.24295 0.63366 0.0
C716 C 0.27014 0.22058 0.72559 0.0
C717 C 0.2647 0.25455 0.73858 0.0
C718 C 0.26361 0.28267 0.69837 0.0
C719 C 0.26774 0.27694 0.64654 0.0
H720 H 0.7207 0.25588 0.88924 0.0
H721 H 0.82794 0.28308 0.87508 0.0
H722 H 0.71292 0.24504 0.79701 0.0
H723 H 0.81967 0.27387 0.78229 0.0
H724 H 0.80414 0.21854 0.63322 0.0
H725 H 0.81216 0.22837 0.72596 0.0
H726 H 0.70804 0.27508 0.70931 0.0
H727 H 0.69994 0.26481 0.61683 0.0
C728 C 0.74264 0.25955 0.86651 0.0
C729 C 0.77495 0.27038 0.88975 0.0
C730 C 0.73805 0.25374 0.81336 0.0
C731 C 0.76564 0.25863 0.782 0.0
C732 C 0.79794 0.26946 0.80528 0.0
C733 C 0.80255 0.27521 0.85842 0.0
C734 C 0.78307 0.23113 0.6493 0.0
C735 C 0.75138 0.24082 0.61761 0.0
C736 C 0.78767 0.23682 0.7025 0.0
C737 C 0.76075 0.25252 0.7253 0.0
C738 C 0.72912 0.26236 0.69344 0.0
C739 C 0.72448 0.25653 0.64033 0.0
H740 H 0.71739 0.72145 0.40127 0.0
H741 H 0.78317 0.81099 0.39005 0.0
H742 H 0.72567 0.71188 0.31112 0.0
H743 H 0.79055 0.80211 0.2994 0.0
H744 H 0.82538 0.75381 0.15818 0.0
H745 H 0.81833 0.76198 0.24916 0.0
H746 H 0.70879 0.7388 0.22091 0.0
H747 H 0.71584 0.7306 0.12983 0.0
C748 C 0.73377 0.73898 0.37966 0.0
C749 C 0.74962 0.76699 0.4029 0.0
C750 C 0.73818 0.73375 0.32776 0.0
C751 C 0.75867 0.7563 0.2979 0.0
C752 C 0.77483 0.78406 0.32138 0.0
C753 C 0.77032 0.78937 0.37318 0.0
C754 C 0.7997 0.75079 0.1712 0.0
C755 C 0.77115 0.74164 0.13661 0.0
C756 C 0.79567 0.75544 0.22341 0.0
C757 C 0.76299 0.75106 0.2424 0.0
C758 C 0.73445 0.74185 0.20784 0.0
C759 C 0.73848 0.73719 0.1556 0.0
H760 H 0.46554 0.56947 0.64326 0.0
H761 H 0.50541 0.4632 0.68004 0.0
H762 H 0.47801 0.56907 0.55236 0.0
H763 H 0.51759 0.46262 0.58908 0.0
H764 H 0.56839 0.48583 0.4369 0.0
H765 H 0.55575 0.48623 0.52758 0.0
H766 H 0.45938 0.54475 0.472 0.0
H767 H 0.47282 0.54569 0.3814 0.0
C768 C 0.4767 0.5459 0.63186 0.0
C769 C 0.48451 0.51639 0.66911 0.0
C770 C 0.4838 0.54563 0.57961 0.0
C771 C 0.49882 0.5158 0.56311 0.0
C772 C 0.50658 0.48628 0.60042 0.0
C773 C 0.49958 0.48659 0.65268 0.0
C774 C 0.54463 0.49906 0.44397 0.0
C775 C 0.52172 0.51584 0.40161 0.0
C776 C 0.53715 0.49893 0.49607 0.0
C777 C 0.50652 0.51554 0.50738 0.0
C778 C 0.48344 0.53206 0.46499 0.0
C779 C 0.49093 0.5322 0.41285 0.0
H780 H 0.04936 0.53949 0.88305 0.0
H781 H 0.98551 0.44866 0.89605 0.0
H782 H 0.04206 0.54867 0.97364 0.0
H783 H 0.97776 0.45802 0.98633 0.0
H784 H 0.99915 0.46376 0.16322 0.0
H785 H 0.00848 0.4547 0.07341 0.0
H786 H 0.99994 0.56606 0.02787 0.0
H787 H 0.99234 0.57519 0.11814 0.0
C788 C 0.03342 0.52171 0.90505 0.0
C789 C 0.01807 0.49331 0.88225 0.0
C790 C 0.02921 0.52696 0.95707 0.0
C791 C 0.00937 0.50405 0.98759 0.0
C792 C 0.99377 0.47582 0.96453 0.0
C793 C 0.99813 0.47049 0.91263 0.0
C794 C 0.99974 0.48636 0.13426 0.0
C795 C 0.9949 0.52022 0.14812 0.0
C796 C 1.00463 0.48114 0.08247 0.0
C797 C 1.0048 0.50962 0.04308 0.0
C798 C 1.00031 0.54349 0.0571 0.0
C799 C 0.99548 0.54871 0.10887 0.0
loop_
_geom_bond_atom_site_label_1
_geom_bond_atom_site_label_2
_geom_bond_distance
_geom_bond_site_symmetry_2
_ccdc_geom_bond_type
Sm0 C2 2.846 1_655 S
Sm0 O20 2.543 1_565 S
Sm0 O21 2.450 1_655 S
Sm0 O22 2.681 1_655 S
Sm0 O23 2.464 1_655 S
Sm0 O24 2.396 1_665 S
Sm0 O28 2.386 1_565 S
Sm0 O31 2.408 . S
Sm1 C11 2.846 1_455 S
Sm1 O22 2.386 1_545 S
Sm1 O25 2.408 . S
Sm1 O26 2.543 1_545 S
Sm1 O27 2.450 1_455 S
Sm1 O28 2.681 1_455 S
Sm1 O29 2.464 1_455 S
Sm1 O30 2.396 1_445 S
C2 Sm0 2.846 1_455 S
C2 C3 1.506 . S
C2 O20 1.261 1_465 S
C2 O21 1.242 . S
C3 C2 1.506 . S
C3 C4 1.358 1_565 S
C3 C8 1.382 . S
C4 C3 1.358 1_545 S
C4 C5 1.385 . S
C4 H32 0.930 1_455 S
C5 C4 1.385 . S
C5 C6 1.410 . S
C5 H33 0.929 . S
C6 C5 1.410 . S
C6 C7 1.320 1_545 S
C7 C6 1.320 1_565 S
C7 C8 1.398 . S
C7 H34 0.930 . S
C8 C3 1.382 . S
C8 C7 1.398 . S
C8 H35 0.929 . S
C9 O22 1.271 . S
C9 O23 1.251 . S
C10 O24 1.252 . S
C10 O25 1.272 . S
C11 Sm1 2.846 1_655 S
C11 C12 1.506 . S
C11 O26 1.261 1_645 S
C11 O27 1.242 . S
C12 C11 1.506 . S
C12 C13 1.358 1_545 S
C12 C17 1.382 . S
C13 C12 1.358 1_565 S
C13 C14 1.385 . S
C13 H36 0.930 1_655 S
C14 C13 1.385 . S
C14 C15 1.404 . S
C14 H37 0.936 . S
C15 C14 1.404 . S
C15 C16 1.326 1_565 S
C16 C15 1.326 1_545 S
C16 C17 1.398 . S
C16 H38 0.930 . S
C17 C12 1.382 . S
C17 C16 1.398 . S
C17 H39 0.929 . S
C18 O28 1.271 . S
C18 O29 1.251 . S
C19 O30 1.252 . S
C19 O31 1.272 . S
O20 Sm0 2.543 1_545 S
O20 C2 1.261 1_645 S
O21 Sm0 2.450 1_455 S
O21 C2 1.242 . S
O22 Sm0 2.681 1_455 S
O22 Sm1 2.386 1_565 S
O22 C9 1.271 . S
O23 Sm0 2.464 1_455 S
O23 C9 1.251 . S
O24 Sm0 2.396 1_445 S
O24 C10 1.252 . S
O25 Sm1 2.408 . S
O25 C10 1.272 . S
O26 Sm1 2.543 1_565 S
O26 C11 1.261 1_465 S
O27 Sm1 2.450 1_655 S
O27 C11 1.242 . S
O28 Sm0 2.386 1_545 S
O28 Sm1 2.681 1_655 S
O28 C18 1.271 . S
O29 Sm1 2.464 1_655 S
O29 C18 1.251 . S
O30 Sm1 2.396 1_665 S
O30 C19 1.252 . S
O31 Sm0 2.408 . S
O31 C19 1.272 . S
H32 C4 0.930 1_655 S
H33 C5 0.929 . S
H34 C7 0.930 . S
H35 C8 0.929 . S
H36 C13 0.930 1_455 S
H37 C14 0.936 . S
H38 C16 0.930 . S
H39 C17 0.929 . S
Sm40 C42 2.846 . S
Sm40 O60 2.543 . S
Sm40 O61 2.450 . S
Sm40 O62 2.681 . S
Sm40 O63 2.464 . S
Sm40 O64 2.396 . S
Sm40 O68 2.386 . S
Sm40 O71 2.408 . S
Sm41 C51 2.846 . S
Sm41 O62 2.386 . S
Sm41 O65 2.408 . S
Sm41 O66 2.543 . S
Sm41 O67 2.450 . S
Sm41 O68 2.681 . S
Sm41 O69 2.464 . S
Sm41 O70 2.396 . S
C42 Sm40 2.846 . S
C42 C43 1.506 . S
C42 O60 1.261 . S
C42 O61 1.242 . S
C43 C42 1.506 . S
C43 C44 1.358 . S
C43 C48 1.382 . S
C44 C43 1.358 . S
C44 C45 1.385 1_556 S
C44 H72 0.930 . S
C45 C44 1.385 1_554 S
C45 C46 1.395 . S
C45 H73 0.929 . S
C46 C45 1.395 . S
C46 C47 1.335 . S
C47 C46 1.335 . S
C47 C48 1.398 1_554 S
C47 H74 0.930 . S
C48 C43 1.382 . S
C48 C47 1.398 1_556 S
C48 H75 0.929 . S
C49 O62 1.271 . S
C49 O63 1.251 . S
C50 O64 1.252 . S
C50 O65 1.272 . S
C51 Sm41 2.846 . S
C51 C52 1.506 . S
C51 O66 1.261 . S
C51 O67 1.242 . S
C52 C51 1.506 . S
C52 C53 1.358 . S
C52 C57 1.382 . S
C53 C52 1.358 . S
C53 C54 1.385 . S
C53 H76 0.930 . S
C54 C53 1.385 . S
C54 C55 1.395 . S
C54 H77 0.929 . S
C55 C54 1.395 . S
C55 C56 1.335 . S
C56 C55 1.335 . S
C56 C57 1.398 . S
C56 H78 0.930 . S
C57 C52 1.382 . S
C57 C56 1.398 . S
C57 H79 0.929 . S
C58 O68 1.271 . S
C58 O69 1.251 . S
C59 O70 1.252 . S
C59 O71 1.272 . S
O60 Sm40 2.543 . S
O60 C42 1.261 . S
O61 Sm40 2.450 . S
O61 C42 1.242 . S
O62 Sm40 2.681 . S
O62 Sm41 2.386 . S
O62 C49 1.271 . S
O63 Sm40 2.464 . S
O63 C49 1.251 . S
O64 Sm40 2.396 . S
O64 C50 1.252 . S
O65 Sm41 2.408 . S
O65 C50 1.272 . S
O66 Sm41 2.543 . S
O66 C51 1.261 . S
O67 Sm41 2.450 . S
O67 C51 1.242 . S
O68 Sm40 2.386 . S
O68 Sm41 2.681 . S
O68 C58 1.271 . S
O69 Sm41 2.464 . S
O69 C58 1.251 . S
O70 Sm41 2.396 . S
O70 C59 1.252 . S
O71 Sm40 2.408 . S
O71 C59 1.272 . S
H72 C44 0.930 . S
H73 C45 0.929 . S
H74 C47 0.930 . S
H75 C48 0.929 . S
H76 C53 0.930 . S
H77 C54 0.929 . S
H78 C56 0.930 . S
H79 C57 0.929 . S
Sm80 C82 2.846 . S
Sm80 O100 2.543 . S
Sm80 O101 2.450 . S
Sm80 O102 2.681 1_554 S
Sm80 O103 2.464 . S
Sm80 O104 2.396 1_565 S
Sm80 O108 2.386 1_565 S
Sm80 O111 2.408 . S
Sm81 C91 2.846 . S
Sm81 O102 2.386 1_545 S
Sm81 O105 2.408 . S
Sm81 O106 2.543 . S
Sm81 O107 2.450 . S
Sm81 O108 2.681 1_556 S
Sm81 O109 2.464 . S
Sm81 O110 2.396 1_545 S
C82 Sm80 2.846 . S
C82 C83 1.506 . S
C82 O100 1.261 . S
C82 O101 1.242 . S
C83 C82 1.506 . S
C83 C84 1.358 1_565 S
C83 C88 1.382 . S
C84 C83 1.358 1_545 S
C84 C85 1.385 . S
C84 H112 0.930 . S
C85 C84 1.385 . S
C85 C86 1.395 1_545 S
C85 H113 0.929 . S
C86 C85 1.395 1_565 S
C86 C87 1.335 . S
C87 C86 1.335 . S
C87 C88 1.398 . S
C87 H114 0.930 . S
C88 C83 1.382 . S
C88 C87 1.398 . S
C88 H115 0.929 . S
C89 O102 1.271 . S
C89 O103 1.251 1_556 S
C90 O104 1.252 . S
C90 O105 1.272 1_554 S
C91 Sm81 2.846 . S
C91 C92 1.506 . S
C91 O106 1.261 . S
C91 O107 1.242 . S
C92 C91 1.506 . S
C92 C93 1.335 1_545 S
C92 C97 1.382 . S
C93 C92 1.335 1_565 S
C93 C94 1.390 . S
C93 H116 0.949 . S
C94 C93 1.390 . S
C94 C95 1.395 1_565 S
C94 H117 0.929 . S
C95 C94 1.395 1_545 S
C95 C96 1.335 . S
C96 C95 1.335 . S
C96 C97 1.398 . S
C96 H118 0.930 . S
C97 C92 1.382 . S
C97 C96 1.398 . S
C97 H119 0.929 . S
C98 O108 1.271 . S
C98 O109 1.251 1_554 S
C99 O110 1.252 . S
C99 O111 1.272 1_556 S
O100 Sm80 2.543 . S
O100 C82 1.261 . S
O101 Sm80 2.450 . S
O101 C82 1.242 . S
O102 Sm80 2.681 1_556 S
O102 Sm81 2.386 1_565 S
O102 C89 1.271 . S
O103 Sm80 2.464 . S
O103 C89 1.251 1_554 S
O104 Sm80 2.396 1_545 S
O104 C90 1.252 . S
O105 Sm81 2.408 . S
O105 C90 1.272 1_556 S
O106 Sm81 2.543 . S
O106 C91 1.261 . S
O107 Sm81 2.450 . S
O107 C91 1.242 . S
O108 Sm80 2.386 1_545 S
O108 Sm81 2.681 1_554 S
O108 C98 1.271 . S
O109 Sm81 2.464 . S
O109 C98 1.251 1_556 S
O110 Sm81 2.396 1_565 S
O110 C99 1.252 . S
O111 Sm80 2.408 . S
O111 C99 1.272 1_554 S
H112 C84 0.930 . S
H113 C85 0.929 . S
H114 C87 0.930 . S
H115 C88 0.929 . S
H116 C93 0.949 . S
H117 C94 0.929 . S
H118 C96 0.930 . S
H119 C97 0.929 . S
Sm120 C122 2.846 . S
Sm120 O140 2.543 . S
Sm120 O141 2.450 . S
Sm120 O142 2.681 . S
Sm120 O143 2.464 . S
Sm120 O144 2.396 . S
Sm120 O148 2.386 . S
Sm120 O151 2.408 . S
Sm121 C131 2.846 . S
Sm121 O142 2.386 . S
Sm121 O145 2.408 . S
Sm121 O146 2.543 . S
Sm121 O147 2.450 . S
Sm121 O148 2.681 . S
Sm121 O149 2.464 . S
Sm121 O150 2.396 . S
C122 Sm120 2.846 . S
C122 C123 1.506 . S
C122 O140 1.261 . S
C122 O141 1.242 . S
C123 C122 1.506 . S
C123 C124 1.358 . S
C123 C128 1.382 . S
C124 C123 1.358 . S
C124 C125 1.385 1_554 S
C124 H152 0.930 . S
C125 C124 1.385 1_556 S
C125 C126 1.395 . S
C125 H153 0.929 . S
C126 C125 1.395 . S
C126 C127 1.335 . S
C127 C126 1.335 . S
C127 C128 1.398 1_556 S
C127 H154 0.930 . S
C128 C123 1.382 . S
C128 C127 1.398 1_554 S
C128 H155 0.929 . S
C129 O142 1.271 . S
C129 O143 1.251 . S
C130 O144 1.252 . S
C130 O145 1.272 . S
C131 Sm121 2.846 . S
C131 C132 1.506 . S
C131 O146 1.261 . S
C131 O147 1.242 . S
C132 C131 1.506 . S
C132 C133 1.358 . S
C132 C137 1.382 . S
C133 C132 1.358 . S
C133 C134 1.385 . S
C133 H156 0.930 . S
C134 C133 1.385 . S
C134 C135 1.395 . S
C134 H157 0.929 . S
C135 C134 1.395 . S
C135 C136 1.335 . S
C136 C135 1.335 . S
C136 C137 1.398 . S
C136 H158 0.930 . S
C137 C132 1.382 . S
C137 C136 1.398 . S
C137 H159 0.929 . S
C138 O148 1.271 . S
C138 O149 1.251 . S
C139 O150 1.252 . S
C139 O151 1.272 . S
O140 Sm120 2.543 . S
O140 C122 1.261 . S
O141 Sm120 2.450 . S
O141 C122 1.242 . S
O142 Sm120 2.681 . S
O142 Sm121 2.386 . S
O142 C129 1.271 . S
O143 Sm120 2.464 . S
O143 C129 1.251 . S
O144 Sm120 2.396 . S
O144 C130 1.252 . S
O145 Sm121 2.408 . S
O145 C130 1.272 . S
O146 Sm121 2.543 . S
O146 C131 1.261 . S
O147 Sm121 2.450 . S
O147 C131 1.242 . S
O148 Sm120 2.386 . S
O148 Sm121 2.681 . S
O148 C138 1.271 . S
O149 Sm121 2.464 . S
O149 C138 1.251 . S
O150 Sm121 2.396 . S
O150 C139 1.252 . S
O151 Sm120 2.408 . S
O151 C139 1.272 . S
H152 C124 0.930 . S
H153 C125 0.929 . S
H154 C127 0.930 . S
H155 C128 0.929 . S
H156 C133 0.930 . S
H157 C134 0.929 . S
H158 C136 0.930 . S
H159 C137 0.929 . S
Sm160 C162 2.846 . S
Sm160 O180 2.543 . S
Sm160 O181 2.450 . S
Sm160 O182 2.681 . S
Sm160 O183 2.464 . S
Sm160 O184 2.396 . S
Sm160 O188 2.386 . S
Sm160 O191 2.408 . S
Sm161 C171 2.846 . S
Sm161 O182 2.386 . S
Sm161 O185 2.408 . S
Sm161 O186 2.543 . S
Sm161 O187 2.450 . S
Sm161 O188 2.681 . S
Sm161 O189 2.464 . S
Sm161 O190 2.396 . S
C162 Sm160 2.846 . S
C162 C163 1.506 . S
C162 O180 1.261 . S
C162 O181 1.242 . S
C163 C162 1.506 . S
C163 C164 1.358 . S
C163 C168 1.382 . S
C164 C163 1.358 . S
C164 C165 1.385 . S
C164 H192 0.930 . S
C165 C164 1.385 . S
C165 C166 1.395 . S
C165 H193 0.929 . S
C166 C165 1.395 . S
C166 C167 1.335 . S
C167 C166 1.335 . S
C167 C168 1.398 . S
C167 H194 0.930 . S
C168 C163 1.382 . S
C168 C167 1.398 . S
C168 H195 0.929 . S
C169 O182 1.271 . S
C169 O183 1.251 . S
C170 O184 1.252 . S
C170 O185 1.272 . S
C171 Sm161 2.846 . S
C171 C172 1.506 . S
C171 O186 1.261 . S
C171 O187 1.242 . S
C172 C171 1.506 . S
C172 C173 1.358 . S
C172 C177 1.382 . S
C173 C172 1.358 . S
C173 C174 1.385 1_554 S
C173 H196 0.930 . S
C174 C173 1.385 1_556 S
C174 C175 1.395 . S
C174 H197 0.929 . S
C175 C174 1.395 . S
C175 C176 1.335 . S
C176 C175 1.335 . S
C176 C177 1.398 1_556 S
C176 H198 0.930 . S
C177 C172 1.382 . S
C177 C176 1.398 1_554 S
C177 H199 0.929 . S
C178 O188 1.271 . S
C178 O189 1.251 . S
C179 O190 1.252 . S
C179 O191 1.272 . S
O180 Sm160 2.543 . S
O180 C162 1.261 . S
O181 Sm160 2.450 . S
O181 C162 1.242 . S
O182 Sm160 2.681 . S
O182 Sm161 2.386 . S
O182 C169 1.271 . S
O183 Sm160 2.464 . S
O183 C169 1.251 . S
O184 Sm160 2.396 . S
O184 C170 1.252 . S
O185 Sm161 2.408 . S
O185 C170 1.272 . S
O186 Sm161 2.543 . S
O186 C171 1.261 . S
O187 Sm161 2.450 . S
O187 C171 1.242 . S
O188 Sm160 2.386 . S
O188 Sm161 2.681 . S
O188 C178 1.271 . S
O189 Sm161 2.464 . S
O189 C178 1.251 . S
O190 Sm161 2.396 . S
O190 C179 1.252 . S
O191 Sm160 2.408 . S
O191 C179 1.272 . S
H192 C164 0.930 . S
H193 C165 0.929 . S
H194 C167 0.930 . S
H195 C168 0.929 . S
H196 C173 0.930 . S
H197 C174 0.929 . S
H198 C176 0.930 . S
H199 C177 0.929 . S
Sm200 C202 2.846 . S
Sm200 O220 2.543 . S
Sm200 O221 2.450 . S
Sm200 O222 2.681 . S
Sm200 O223 2.464 . S
Sm200 O224 2.396 . S
Sm200 O228 2.386 . S
Sm200 O231 2.408 . S
Sm201 C211 2.846 . S
Sm201 O222 2.386 . S
Sm201 O225 2.408 . S
Sm201 O226 2.543 . S
Sm201 O227 2.450 . S
Sm201 O228 2.681 . S
Sm201 O229 2.464 . S
Sm201 O230 2.396 . S
C202 Sm200 2.846 . S
C202 C203 1.506 . S
C202 O220 1.261 . S
C202 O221 1.242 . S
C203 C202 1.506 . S
C203 C204 1.358 . S
C203 C208 1.382 . S
C204 C203 1.358 . S
C204 C205 1.385 . S
C204 H232 0.930 . S
C205 C204 1.385 . S
C205 C206 1.395 . S
C205 H233 0.929 . S
C206 C205 1.395 . S
C206 C207 1.335 . S
C207 C206 1.335 . S
C207 C208 1.398 . S
C207 H234 0.930 . S
C208 C203 1.382 . S
C208 C207 1.398 . S
C208 H235 0.929 . S
C209 O222 1.271 . S
C209 O223 1.251 . S
C210 O224 1.252 . S
C210 O225 1.272 . S
C211 Sm201 2.846 . S
C211 C212 1.506 . S
C211 O226 1.261 . S
C211 O227 1.242 . S
C212 C211 1.506 . S
C212 C213 1.358 . S
C212 C217 1.382 . S
C213 C212 1.358 . S
C213 C214 1.385 1_556 S
C213 H236 0.930 . S
C214 C213 1.385 1_554 S
C214 C215 1.395 . S
C214 H237 0.929 . S
C215 C214 1.395 . S
C215 C216 1.335 . S
C216 C215 1.335 . S
C216 C217 1.398 1_554 S
C216 H238 0.930 . S
C217 C212 1.382 . S
C217 C216 1.398 1_556 S
C217 H239 0.929 . S
C218 O228 1.271 . S
C218 O229 1.251 . S
C219 O230 1.252 . S
C219 O231 1.272 . S
O220 Sm200 2.543 . S
O220 C202 1.261 . S
O221 Sm200 2.450 . S
O221 C202 1.242 . S
O222 Sm200 2.681 . S
O222 Sm201 2.386 . S
O222 C209 1.271 . S
O223 Sm200 2.464 . S
O223 C209 1.251 . S
O224 Sm200 2.396 . S
O224 C210 1.252 . S
O225 Sm201 2.408 . S
O225 C210 1.272 . S
O226 Sm201 2.543 . S
O226 C211 1.261 . S
O227 Sm201 2.450 . S
O227 C211 1.242 . S
O228 Sm200 2.386 . S
O228 Sm201 2.681 . S
O228 C218 1.271 . S
O229 Sm201 2.464 . S
O229 C218 1.251 . S
O230 Sm201 2.396 . S
O230 C219 1.252 . S
O231 Sm200 2.408 . S
O231 C219 1.272 . S
H232 C204 0.930 . S
H233 C205 0.929 . S
H234 C207 0.930 . S
H235 C208 0.929 . S
H236 C213 0.930 . S
H237 C214 0.929 . S
H238 C216 0.930 . S
H239 C217 0.929 . S
Sm240 C242 2.846 . S
Sm240 O260 2.543 . S
Sm240 O261 2.450 . S
Sm240 O262 2.681 1_556 S
Sm240 O263 2.464 . S
Sm240 O264 2.396 . S
Sm240 O268 2.386 . S
Sm240 O271 2.408 1_556 S
Sm241 C251 2.846 . S
Sm241 O262 2.386 . S
Sm241 O265 2.408 1_554 S
Sm241 O266 2.543 . S
Sm241 O267 2.450 . S
Sm241 O268 2.681 1_554 S
Sm241 O269 2.464 . S
Sm241 O270 2.396 . S
C242 Sm240 2.846 . S
C242 C243 1.506 . S
C242 O260 1.261 . S
C242 O261 1.242 . S
C243 C242 1.506 . S
C243 C244 1.358 . S
C243 C248 1.382 . S
C244 C243 1.358 . S
C244 C245 1.385 . S
C244 H272 0.930 . S
C245 C244 1.385 . S
C245 C246 1.395 . S
C245 H273 0.929 . S
C246 C245 1.395 . S
C246 C247 1.335 . S
C247 C246 1.335 . S
C247 C248 1.398 . S
C247 H274 0.930 . S
C248 C243 1.382 . S
C248 C247 1.398 . S
C248 H275 0.929 . S
C249 O262 1.271 . S
C249 O263 1.251 1_554 S
C250 O264 1.252 . S
C250 O265 1.272 . S
C251 Sm241 2.846 . S
C251 C252 1.506 . S
C251 O266 1.261 . S
C251 O267 1.242 . S
C252 C251 1.506 . S
C252 C253 1.358 . S
C252 C257 1.382 . S
C253 C252 1.358 . S
C253 C254 1.385 . S
C253 H276 0.930 . S
C254 C253 1.385 . S
C254 C255 1.395 . S
C254 H277 0.929 . S
C255 C254 1.395 . S
C255 C256 1.335 . S
C256 C255 1.335 . S
C256 C257 1.398 . S
C256 H278 0.930 . S
C257 C252 1.382 . S
C257 C256 1.398 . S
C257 H279 0.929 . S
C258 O268 1.271 . S
C258 O269 1.251 1_556 S
C259 O270 1.252 . S
C259 O271 1.272 . S
O260 Sm240 2.543 . S
O260 C242 1.261 . S
O261 Sm240 2.450 . S
O261 C242 1.242 . S
O262 Sm240 2.681 1_554 S
O262 Sm241 2.386 . S
O262 C249 1.271 . S
O263 Sm240 2.464 . S
O263 C249 1.251 1_556 S
O264 Sm240 2.396 . S
O264 C250 1.252 . S
O265 Sm241 2.408 1_556 S
O265 C250 1.272 . S
O266 Sm241 2.543 . S
O266 C251 1.261 . S
O267 Sm241 2.450 . S
O267 C251 1.242 . S
O268 Sm240 2.386 . S
O268 Sm241 2.681 1_556 S
O268 C258 1.271 . S
O269 Sm241 2.464 . S
O269 C258 1.251 1_554 S
O270 Sm241 2.396 . S
O270 C259 1.252 . S
O271 Sm240 2.408 1_554 S
O271 C259 1.272 . S
H272 C244 0.930 . S
H273 C245 0.929 . S
H274 C247 0.930 . S
H275 C248 0.929 . S
H276 C253 0.930 . S
H277 C254 0.929 . S
H278 C256 0.930 . S
H279 C257 0.929 . S
Sm280 C282 2.846 1_455 S
Sm280 O300 2.543 . S
Sm280 O301 2.450 1_455 S
Sm280 O302 2.681 1_455 S
Sm280 O303 2.464 1_455 S
Sm280 O304 2.396 1_455 S
Sm280 O308 2.386 . S
Sm280 O311 2.408 . S
Sm281 C291 2.846 1_655 S
Sm281 O302 2.386 . S
Sm281 O305 2.408 . S
Sm281 O306 2.543 . S
Sm281 O307 2.450 1_655 S
Sm281 O308 2.681 1_655 S
Sm281 O309 2.464 1_655 S
Sm281 O310 2.396 1_655 S
C282 Sm280 2.846 1_655 S
C282 C283 1.506 . S
C282 O300 1.261 1_655 S
C282 O301 1.242 . S
C283 C282 1.506 . S
C283 C284 1.358 . S
C283 C288 1.382 . S
C284 C283 1.358 . S
C284 C285 1.385 . S
C284 H312 0.930 1_655 S
C285 C284 1.385 . S
C285 C286 1.395 . S
C285 H313 0.929 . S
C286 C285 1.395 . S
C286 C287 1.335 . S
C287 C286 1.335 . S
C287 C288 1.398 . S
C287 H314 0.930 . S
C288 C283 1.382 . S
C288 C287 1.398 . S
C288 H315 0.929 . S
C289 O302 1.271 . S
C289 O303 1.251 . S
C290 O304 1.252 . S
C290 O305 1.272 . S
C291 Sm281 2.846 1_455 S
C291 C292 1.506 . S
C291 O306 1.261 1_455 S
C291 O307 1.242 . S
C292 C291 1.506 . S
C292 C293 1.358 . S
C292 C297 1.382 . S
C293 C292 1.358 . S
C293 C294 1.385 . S
C293 H316 0.930 1_455 S
C294 C293 1.385 . S
C294 C295 1.395 . S
C294 H317 0.929 . S
C295 C294 1.395 . S
C295 C296 1.335 . S
C296 C295 1.335 . S
C296 C297 1.398 . S
C296 H318 0.930 . S
C297 C292 1.382 . S
C297 C296 1.398 . S
C297 H319 0.929 . S
C298 O308 1.271 . S
C298 O309 1.251 . S
C299 O310 1.252 . S
C299 O311 1.272 . S
O300 Sm280 2.543 . S
O300 C282 1.261 1_455 S
O301 Sm280 2.450 1_655 S
O301 C282 1.242 . S
O302 Sm280 2.681 1_655 S
O302 Sm281 2.386 . S
O302 C289 1.271 . S
O303 Sm280 2.464 1_655 S
O303 C289 1.251 . S
O304 Sm280 2.396 1_655 S
O304 C290 1.252 . S
O305 Sm281 2.408 . S
O305 C290 1.272 . S
O306 Sm281 2.543 . S
O306 C291 1.261 1_655 S
O307 Sm281 2.450 1_455 S
O307 C291 1.242 . S
O308 Sm280 2.386 . S
O308 Sm281 2.681 1_455 S
O308 C298 1.271 . S
O309 Sm281 2.464 1_455 S
O309 C298 1.251 . S
O310 Sm281 2.396 1_455 S
O310 C299 1.252 . S
O311 Sm280 2.408 . S
O311 C299 1.272 . S
H312 C284 0.930 1_455 S
H313 C285 0.929 . S
H314 C287 0.930 . S
H315 C288 0.929 . S
H316 C293 0.930 1_655 S
H317 C294 0.929 . S
H318 C296 0.930 . S
H319 C297 0.929 . S
H320 C328 0.950 . S
H321 C333 0.950 . S
H322 C330 0.950 . S
H323 C332 0.950 . S
H324 C334 0.950 . S
H325 C336 0.950 . S
H326 C338 0.950 . S
H327 C339 0.950 . S
C328 H320 0.950 . S
C328 C329 1.386 . S
C328 C330 1.391 . S
C329 C328 1.386 . S
C329 C333 1.393 . S
C330 H322 0.950 . S
C330 C328 1.391 . S
C330 C331 1.400 . S
C331 C330 1.400 . S
C331 C332 1.398 . S
C331 C337 1.491 . S
C332 H323 0.950 . S
C332 C331 1.398 . S
C332 C333 1.391 . S
C333 H321 0.950 . S
C333 C329 1.393 . S
C333 C332 1.391 . S
C334 H324 0.950 . S
C334 C335 1.386 . S
C334 C336 1.391 . S
C335 C334 1.386 . S
C335 C339 1.393 . S
C336 H325 0.950 . S
C336 C334 1.391 . S
C336 C337 1.400 . S
C337 C331 1.491 . S
C337 C336 1.400 . S
C337 C338 1.398 . S
C338 H326 0.950 . S
C338 C337 1.398 . S
C338 C339 1.391 . S
C339 H327 0.950 . S
C339 C335 1.393 . S
C339 C338 1.391 . S
H340 C348 0.950 . S
H341 C353 0.950 . S
H342 C350 0.950 . S
H343 C352 0.950 . S
H344 C354 0.950 . S
H345 C356 0.950 . S
H346 C358 0.950 . S
H347 C359 0.950 . S
C348 H340 0.950 . S
C348 C349 1.386 . S
C348 C350 1.391 . S
C349 C348 1.386 . S
C349 C353 1.393 . S
C350 H342 0.950 . S
C350 C348 1.391 . S
C350 C351 1.400 . S
C351 C350 1.400 . S
C351 C352 1.398 . S
C351 C357 1.491 . S
C352 H343 0.950 . S
C352 C351 1.398 . S
C352 C353 1.391 . S
C353 H341 0.950 . S
C353 C349 1.393 . S
C353 C352 1.391 . S
C354 H344 0.950 . S
C354 C355 1.386 . S
C354 C356 1.391 . S
C355 C354 1.386 . S
C355 C359 1.393 . S
C356 H345 0.950 . S
C356 C354 1.391 . S
C356 C357 1.400 . S
C357 C351 1.491 . S
C357 C356 1.400 . S
C357 C358 1.398 . S
C358 H346 0.950 . S
C358 C357 1.398 . S
C358 C359 1.391 . S
C359 H347 0.950 . S
C359 C355 1.393 . S
C359 C358 1.391 . S
H360 C368 0.950 . S
H361 C373 0.950 . S
H362 C370 0.950 . S
H363 C372 0.950 . S
H364 C374 0.950 . S
H365 C376 0.950 . S
H366 C378 0.950 . S
H367 C379 0.957 . S
C368 H360 0.950 . S
C368 C369 1.386 . S
C368 C370 1.391 . S
C369 C368 1.386 . S
C369 C373 1.393 . S
C370 H362 0.950 . S
C370 C368 1.391 . S
C370 C371 1.400 . S
C371 C370 1.400 . S
C371 C372 1.398 . S
C371 C377 1.491 . S
C372 H363 0.950 . S
C372 C371 1.398 . S
C372 C373 1.391 . S
C373 H361 0.950 . S
C373 C369 1.393 . S
C373 C372 1.391 . S
C374 H364 0.950 . S
C374 C375 1.386 . S
C374 C376 1.391 . S
C375 C374 1.386 . S
C375 C379 1.393 . S
C376 H365 0.950 . S
C376 C374 1.391 . S
C376 C377 1.400 . S
C377 C371 1.491 . S
C377 C376 1.400 . S
C377 C378 1.398 . S
C378 H366 0.950 . S
C378 C377 1.398 . S
C378 C379 1.391 . S
C379 H367 0.957 . S
C379 C375 1.393 . S
C379 C378 1.391 . S
H380 C388 0.950 . S
H381 C393 0.950 . S
H382 C390 0.950 . S
H383 C392 0.950 . S
H384 C394 0.950 . S
H385 C396 0.950 . S
H386 C398 0.950 . S
H387 C399 0.950 . S
C388 H380 0.950 . S
C388 C389 1.386 . S
C388 C390 1.391 . S
C389 C388 1.386 . S
C389 C393 1.393 . S
C390 H382 0.950 . S
C390 C388 1.391 . S
C390 C391 1.400 . S
C391 C390 1.400 . S
C391 C392 1.398 . S
C391 C397 1.491 . S
C392 H383 0.950 . S
C392 C391 1.398 . S
C392 C393 1.391 . S
C393 H381 0.950 . S
C393 C389 1.393 . S
C393 C392 1.391 . S
C394 H384 0.950 . S
C394 C395 1.386 . S
C394 C396 1.391 . S
C395 C394 1.386 . S
C395 C399 1.393 . S
C396 H385 0.950 . S
C396 C394 1.391 . S
C396 C397 1.400 . S
C397 C391 1.491 . S
C397 C396 1.400 . S
C397 C398 1.398 . S
C398 H386 0.950 . S
C398 C397 1.398 . S
C398 C399 1.391 . S
C399 H387 0.950 . S
C399 C395 1.393 . S
C399 C398 1.391 . S
H400 C408 0.950 . S
H401 C413 0.950 . S
H402 C410 0.950 . S
H403 C412 0.950 . S
H404 C414 0.950 . S
H405 C416 0.950 . S
H406 C418 0.950 . S
H407 C419 0.950 . S
C408 H400 0.950 . S
C408 C409 1.386 . S
C408 C410 1.391 . S
C409 C408 1.386 . S
C409 C413 1.393 . S
C410 H402 0.950 . S
C410 C408 1.391 . S
C410 C411 1.400 . S
C411 C410 1.400 . S
C411 C412 1.398 . S
C411 C417 1.491 . S
C412 H403 0.950 . S
C412 C411 1.398 . S
C412 C413 1.391 . S
C413 H401 0.950 . S
C413 C409 1.393 . S
C413 C412 1.391 . S
C414 H404 0.950 . S
C414 C415 1.386 . S
C414 C416 1.391 . S
C415 C414 1.386 . S
C415 C419 1.393 . S
C416 H405 0.950 . S
C416 C414 1.391 . S
C416 C417 1.400 . S
C417 C411 1.491 . S
C417 C416 1.400 . S
C417 C418 1.398 . S
C418 H406 0.950 . S
C418 C417 1.398 . S
C418 C419 1.391 . S
C419 H407 0.950 . S
C419 C415 1.393 . S
C419 C418 1.391 . S
H420 C428 0.950 . S
H421 C433 0.950 . S
H422 C430 0.950 . S
H423 C432 0.950 . S
H424 C434 0.950 . S
H425 C436 0.950 . S
H426 C438 0.950 . S
H427 C439 0.950 . S
C428 H420 0.950 . S
C428 C429 1.386 . S
C428 C430 1.391 . S
C429 C428 1.386 . S
C429 C433 1.393 . S
C430 H422 0.950 . S
C430 C428 1.391 . S
C430 C431 1.400 . S
C431 C430 1.400 . S
C431 C432 1.398 . S
C431 C437 1.491 . S
C432 H423 0.950 . S
C432 C431 1.398 . S
C432 C433 1.391 . S
C433 H421 0.950 . S
C433 C429 1.393 . S
C433 C432 1.391 . S
C434 H424 0.950 . S
C434 C435 1.386 . S
C434 C436 1.391 . S
C435 C434 1.386 . S
C435 C439 1.393 . S
C436 H425 0.950 . S
C436 C434 1.391 . S
C436 C437 1.400 . S
C437 C431 1.491 . S
C437 C436 1.400 . S
C437 C438 1.398 . S
C438 H426 0.950 . S
C438 C437 1.398 . S
C438 C439 1.391 . S
C439 H427 0.950 . S
C439 C435 1.393 . S
C439 C438 1.391 . S
H440 C448 0.950 . S
H441 C453 0.950 . S
H442 C450 0.950 . S
H443 C452 0.950 . S
H444 C454 0.950 . S
H445 C456 0.950 . S
H446 C458 0.950 . S
H447 C459 0.950 1_556 S
C448 H440 0.950 . S
C448 C449 1.386 . S
C448 C450 1.391 . S
C449 C448 1.386 . S
C449 C453 1.393 . S
C450 H442 0.950 . S
C450 C448 1.391 . S
C450 C451 1.400 . S
C451 C450 1.400 . S
C451 C452 1.398 . S
C451 C457 1.491 . S
C452 H443 0.950 . S
C452 C451 1.398 . S
C452 C453 1.391 . S
C453 H441 0.950 . S
C453 C449 1.393 . S
C453 C452 1.391 . S
C454 H444 0.950 . S
C454 C455 1.386 . S
C454 C456 1.391 . S
C455 C454 1.386 . S
C455 C459 1.393 . S
C456 H445 0.950 . S
C456 C454 1.391 . S
C456 C457 1.400 . S
C457 C451 1.491 . S
C457 C456 1.400 . S
C457 C458 1.398 . S
C458 H446 0.950 . S
C458 C457 1.398 . S
C458 C459 1.391 . S
C459 H447 0.950 1_554 S
C459 C455 1.393 . S
C459 C458 1.391 . S
H460 C468 0.950 . S
H461 C473 0.950 . S
H462 C470 0.950 . S
H463 C472 0.950 . S
H464 C474 0.950 . S
H465 C476 0.950 . S
H466 C478 0.950 . S
H467 C479 0.950 . S
C468 H460 0.950 . S
C468 C469 1.386 . S
C468 C470 1.391 . S
C469 C468 1.386 . S
C469 C473 1.393 . S
C470 H462 0.950 . S
C470 C468 1.391 . S
C470 C471 1.400 . S
C471 C470 1.400 . S
C471 C472 1.398 . S
C471 C477 1.491 . S
C472 H463 0.950 . S
C472 C471 1.398 . S
C472 C473 1.391 . S
C473 H461 0.950 . S
C473 C469 1.393 . S
C473 C472 1.391 . S
C474 H464 0.950 . S
C474 C475 1.386 . S
C474 C476 1.391 . S
C475 C474 1.386 . S
C475 C479 1.393 . S
C476 H465 0.950 . S
C476 C474 1.391 . S
C476 C477 1.400 . S
C477 C471 1.491 . S
C477 C476 1.400 . S
C477 C478 1.398 . S
C478 H466 0.950 . S
C478 C477 1.398 . S
C478 C479 1.391 . S
C479 H467 0.950 . S
C479 C475 1.393 . S
C479 C478 1.391 . S
H480 C488 0.950 . S
H481 C493 0.950 . S
H482 C490 0.950 . S
H483 C492 0.950 . S
H484 C494 0.950 . S
H485 C496 0.950 . S
H486 C498 0.950 . S
H487 C499 0.950 . S
C488 H480 0.950 . S
C488 C489 1.386 . S
C488 C490 1.391 . S
C489 C488 1.386 . S
C489 C493 1.393 . S
C490 H482 0.950 . S
C490 C488 1.391 . S
C490 C491 1.400 . S
C491 C490 1.400 . S
C491 C492 1.398 . S
C491 C497 1.491 . S
C492 H483 0.950 . S
C492 C491 1.398 . S
C492 C493 1.391 . S
C493 H481 0.950 . S
C493 C489 1.393 . S
C493 C492 1.391 . S
C494 H484 0.950 . S
C494 C495 1.386 . S
C494 C496 1.391 . S
C495 C494 1.386 . S
C495 C499 1.393 . S
C496 H485 0.950 . S
C496 C494 1.391 . S
C496 C497 1.400 . S
C497 C491 1.491 . S
C497 C496 1.400 . S
C497 C498 1.398 . S
C498 H486 0.950 . S
C498 C497 1.398 . S
C498 C499 1.391 . S
C499 H487 0.950 . S
C499 C495 1.393 . S
C499 C498 1.391 . S
H500 C508 0.950 . S
H501 C513 0.950 . S
H502 C510 0.950 . S
H503 C512 0.950 . S
H504 C514 0.950 . S
H505 C516 0.950 . S
H506 C518 0.950 . S
H507 C519 0.950 . S
C508 H500 0.950 . S
C508 C509 1.386 . S
C508 C510 1.391 . S
C509 C508 1.386 . S
C509 C513 1.393 . S
C510 H502 0.950 . S
C510 C508 1.391 . S
C510 C511 1.400 . S
C511 C510 1.400 . S
C511 C512 1.398 . S
C511 C517 1.491 . S
C512 H503 0.950 . S
C512 C511 1.398 . S
C512 C513 1.391 . S
C513 H501 0.950 . S
C513 C509 1.393 . S
C513 C512 1.391 . S
C514 H504 0.950 . S
C514 C515 1.386 . S
C514 C516 1.391 . S
C515 C514 1.386 . S
C515 C519 1.393 . S
C516 H505 0.950 . S
C516 C514 1.391 . S
C516 C517 1.400 . S
C517 C511 1.491 . S
C517 C516 1.400 . S
C517 C518 1.398 . S
C518 H506 0.950 . S
C518 C517 1.398 . S
C518 C519 1.391 . S
C519 H507 0.950 . S
C519 C515 1.393 . S
C519 C518 1.391 . S
H520 C528 0.950 . S
H521 C533 0.950 . S
H522 C530 0.950 . S
H523 C532 0.950 . S
H524 C534 0.950 . S
H525 C536 0.950 . S
H526 C538 0.950 . S
H527 C539 0.950 . S
C528 H520 0.950 . S
C528 C529 1.386 . S
C528 C530 1.391 . S
C529 C528 1.386 . S
C529 C533 1.393 . S
C530 H522 0.950 . S
C530 C528 1.391 . S
C530 C531 1.400 . S
C531 C530 1.400 . S
C531 C532 1.398 . S
C531 C537 1.491 . S
C532 H523 0.950 . S
C532 C531 1.398 . S
C532 C533 1.391 . S
C533 H521 0.950 . S
C533 C529 1.393 . S
C533 C532 1.391 . S
C534 H524 0.950 . S
C534 C535 1.386 . S
C534 C536 1.391 . S
C535 C534 1.386 . S
C535 C539 1.393 . S
C536 H525 0.950 . S
C536 C534 1.391 . S
C536 C537 1.400 . S
C537 C531 1.491 . S
C537 C536 1.400 . S
C537 C538 1.398 . S
C538 H526 0.950 . S
C538 C537 1.398 . S
C538 C539 1.391 . S
C539 H527 0.950 . S
C539 C535 1.393 . S
C539 C538 1.391 . S
H540 C548 0.950 . S
H541 C553 0.950 . S
H542 C550 0.950 . S
H543 C552 0.950 . S
H544 C554 0.950 . S
H545 C556 0.950 . S
H546 C558 0.950 . S
H547 C559 0.950 . S
C548 H540 0.950 . S
C548 C549 1.386 . S
C548 C550 1.391 . S
C549 C548 1.386 . S
C549 C553 1.393 . S
C550 H542 0.950 . S
C550 C548 1.391 . S
C550 C551 1.400 . S
C551 C550 1.400 . S
C551 C552 1.398 . S
C551 C557 1.491 . S
C552 H543 0.950 . S
C552 C551 1.398 . S
C552 C553 1.391 . S
C553 H541 0.950 . S
C553 C549 1.393 . S
C553 C552 1.391 . S
C554 H544 0.950 . S
C554 C555 1.386 . S
C554 C556 1.391 . S
C555 C554 1.386 . S
C555 C559 1.393 . S
C556 H545 0.950 . S
C556 C554 1.391 . S
C556 C557 1.400 . S
C557 C551 1.491 . S
C557 C556 1.400 . S
C557 C558 1.398 . S
C558 H546 0.950 . S
C558 C557 1.398 . S
C558 C559 1.391 . S
C559 H547 0.950 . S
C559 C555 1.393 . S
C559 C558 1.391 . S
H560 C568 0.950 . S
H561 C573 0.950 . S
H562 C570 0.950 . S
H563 C572 0.950 . S
H564 C574 0.950 . S
H565 C576 0.950 . S
H566 C578 0.950 . S
H567 C579 0.950 . S
C568 H560 0.950 . S
C568 C569 1.386 . S
C568 C570 1.391 . S
C569 C568 1.386 . S
C569 C573 1.393 . S
C570 H562 0.950 . S
C570 C568 1.391 . S
C570 C571 1.400 . S
C571 C570 1.400 . S
C571 C572 1.398 . S
C571 C577 1.491 . S
C572 H563 0.950 . S
C572 C571 1.398 . S
C572 C573 1.391 . S
C573 H561 0.950 . S
C573 C569 1.393 . S
C573 C572 1.391 . S
C574 H564 0.950 . S
C574 C575 1.386 . S
C574 C576 1.391 . S
C575 C574 1.386 . S
C575 C579 1.393 . S
C576 H565 0.950 . S
C576 C574 1.391 . S
C576 C577 1.400 . S
C577 C571 1.491 . S
C577 C576 1.400 . S
C577 C578 1.398 . S
C578 H566 0.950 . S
C578 C577 1.398 . S
C578 C579 1.391 . S
C579 H567 0.950 . S
C579 C575 1.393 . S
C579 C578 1.391 . S
H580 C588 0.950 . S
H581 C593 0.950 . S
H582 C590 0.950 . S
H583 C592 0.950 . S
H584 C594 0.950 . S
H585 C596 0.950 . S
H586 C598 0.950 . S
H587 C599 0.950 . S
C588 H580 0.950 . S
C588 C589 1.386 . S
C588 C590 1.391 . S
C589 C588 1.386 . S
C589 C593 1.393 . S
C590 H582 0.950 . S
C590 C588 1.391 . S
C590 C591 1.400 . S
C591 C590 1.400 . S
C591 C592 1.398 . S
C591 C597 1.491 . S
C592 H583 0.950 . S
C592 C591 1.398 . S
C592 C593 1.391 . S
C593 H581 0.950 . S
C593 C589 1.393 . S
C593 C592 1.391 . S
C594 H584 0.950 . S
C594 C595 1.386 . S
C594 C596 1.391 . S
C595 C594 1.386 . S
C595 C599 1.393 . S
C596 H585 0.950 . S
C596 C594 1.391 . S
C596 C597 1.400 . S
C597 C591 1.491 . S
C597 C596 1.400 . S
C597 C598 1.398 . S
C598 H586 0.950 . S
C598 C597 1.398 . S
C598 C599 1.391 . S
C599 H587 0.950 . S
C599 C595 1.393 . S
C599 C598 1.391 . S
H600 C608 0.950 . S
H601 C613 0.950 . S
H602 C610 0.950 . S
H603 C612 0.950 . S
H604 C614 0.950 . S
H605 C616 0.950 . S
H606 C618 0.950 . S
H607 C619 0.950 . S
C608 H600 0.950 . S
C608 C609 1.386 . S
C608 C610 1.391 . S
C609 C608 1.386 . S
C609 C613 1.393 . S
C610 H602 0.950 . S
C610 C608 1.391 . S
C610 C611 1.400 . S
C611 C610 1.400 . S
C611 C612 1.398 . S
C611 C617 1.491 . S
C612 H603 0.950 . S
C612 C611 1.398 . S
C612 C613 1.391 . S
C613 H601 0.950 . S
C613 C609 1.393 . S
C613 C612 1.391 . S
C614 H604 0.950 . S
C614 C615 1.386 . S
C614 C616 1.391 . S
C615 C614 1.386 . S
C615 C619 1.393 . S
C616 H605 0.950 . S
C616 C614 1.391 . S
C616 C617 1.400 . S
C617 C611 1.491 . S
C617 C616 1.400 . S
C617 C618 1.398 . S
C618 H606 0.950 . S
C618 C617 1.398 . S
C618 C619 1.391 . S
C619 H607 0.950 . S
C619 C615 1.393 . S
C619 C618 1.391 . S
H620 C628 0.950 . S
H621 C633 0.950 . S
H622 C630 0.950 . S
H623 C632 0.950 . S
H624 C634 0.950 . S
H625 C636 0.950 . S
H626 C638 0.950 . S
H627 C639 0.950 . S
C628 H620 0.950 . S
C628 C629 1.386 . S
C628 C630 1.391 . S
C629 C628 1.386 . S
C629 C633 1.393 . S
C630 H622 0.950 . S
C630 C628 1.391 . S
C630 C631 1.400 . S
C631 C630 1.400 . S
C631 C632 1.398 . S
C631 C637 1.491 . S
C632 H623 0.950 . S
C632 C631 1.398 . S
C632 C633 1.391 . S
C633 H621 0.950 . S
C633 C629 1.393 . S
C633 C632 1.391 . S
C634 H624 0.950 . S
C634 C635 1.386 . S
C634 C636 1.391 . S
C635 C634 1.386 . S
C635 C639 1.393 . S
C636 H625 0.950 . S
C636 C634 1.391 . S
C636 C637 1.400 . S
C637 C631 1.491 . S
C637 C636 1.400 . S
C637 C638 1.398 . S
C638 H626 0.950 . S
C638 C637 1.398 . S
C638 C639 1.391 . S
C639 H627 0.950 . S
C639 C635 1.393 . S
C639 C638 1.391 . S
H640 C648 0.950 . S
H641 C653 0.950 . S
H642 C650 0.950 . S
H643 C652 0.950 . S
H644 C654 0.950 . S
H645 C656 0.950 . S
H646 C658 0.950 . S
H647 C659 0.950 . S
C648 H640 0.950 . S
C648 C649 1.387 1_455 S
C648 C650 1.391 . S
C649 C648 1.387 1_655 S
C649 C653 1.390 1_565 S
C650 H642 0.950 . S
C650 C648 1.391 . S
C650 C651 1.396 1_465 S
C651 C650 1.396 1_645 S
C651 C652 1.401 . S
C651 C657 1.493 1_646 S
C652 H643 0.950 . S
C652 C651 1.401 . S
C652 C653 1.391 . S
C653 H641 0.950 . S
C653 C649 1.390 1_545 S
C653 C652 1.391 . S
C654 H644 0.950 . S
C654 C655 1.389 1_655 S
C654 C656 1.391 . S
C655 C654 1.389 1_455 S
C655 C659 1.387 1_545 S
C656 H645 0.950 . S
C656 C654 1.391 . S
C656 C657 1.399 1_645 S
C657 C651 1.493 1_464 S
C657 C656 1.399 1_465 S
C657 C658 1.399 . S
C658 H646 0.950 . S
C658 C657 1.399 . S
C658 C659 1.391 . S
C659 H647 0.950 . S
C659 C655 1.387 1_565 S
C659 C658 1.391 . S
H660 C668 0.950 . S
H661 C673 0.950 . S
H662 C670 0.950 . S
H663 C672 0.950 . S
H664 C674 0.950 . S
H665 C676 0.950 . S
H666 C678 0.950 . S
H667 C679 0.950 . S
C668 H660 0.950 . S
C668 C669 1.386 . S
C668 C670 1.391 . S
C669 C668 1.386 . S
C669 C673 1.393 . S
C670 H662 0.950 . S
C670 C668 1.391 . S
C670 C671 1.400 . S
C671 C670 1.400 . S
C671 C672 1.398 . S
C671 C677 1.491 . S
C672 H663 0.950 . S
C672 C671 1.398 . S
C672 C673 1.391 . S
C673 H661 0.950 . S
C673 C669 1.393 . S
C673 C672 1.391 . S
C674 H664 0.950 . S
C674 C675 1.386 . S
C674 C676 1.391 . S
C675 C674 1.386 . S
C675 C679 1.393 . S
C676 H665 0.950 . S
C676 C674 1.391 . S
C676 C677 1.400 . S
C677 C671 1.491 . S
C677 C676 1.400 . S
C677 C678 1.398 . S
C678 H666 0.950 . S
C678 C677 1.398 . S
C678 C679 1.391 . S
C679 H667 0.950 . S
C679 C675 1.393 . S
C679 C678 1.391 . S
H680 C688 0.950 . S
H681 C693 0.950 . S
H682 C690 0.950 . S
H683 C692 0.950 . S
H684 C694 0.950 . S
H685 C696 0.950 . S
H686 C698 0.950 . S
H687 C699 0.950 . S
C688 H680 0.950 . S
C688 C689 1.386 . S
C688 C690 1.391 . S
C689 C688 1.386 . S
C689 C693 1.393 1_545 S
C690 H682 0.950 . S
C690 C688 1.391 . S
C690 C691 1.400 . S
C691 C690 1.400 . S
C691 C692 1.398 1_545 S
C691 C697 1.491 1_545 S
C692 H683 0.950 . S
C692 C691 1.398 1_565 S
C692 C693 1.391 . S
C693 H681 0.950 . S
C693 C689 1.393 1_565 S
C693 C692 1.391 . S
C694 H684 0.950 . S
C694 C695 1.386 . S
C694 C696 1.391 . S
C695 C694 1.386 . S
C695 C699 1.393 1_565 S
C696 H685 0.950 . S
C696 C694 1.391 . S
C696 C697 1.400 . S
C697 C691 1.491 1_565 S
C697 C696 1.400 . S
C697 C698 1.398 1_565 S
C698 H686 0.950 . S
C698 C697 1.398 1_545 S
C698 C699 1.391 . S
C699 H687 0.950 . S
C699 C695 1.393 1_545 S
C699 C698 1.391 . S
H700 C708 0.950 . S
H701 C713 0.950 . S
H702 C710 0.950 . S
H703 C712 0.950 . S
H704 C714 0.950 . S
H705 C716 0.950 . S
H706 C718 0.950 . S
H707 C719 0.950 . S
C708 H700 0.950 . S
C708 C709 1.386 . S
C708 C710 1.391 . S
C709 C708 1.386 . S
C709 C713 1.393 . S
C710 H702 0.950 . S
C710 C708 1.391 . S
C710 C711 1.400 . S
C711 C710 1.400 . S
C711 C712 1.398 . S
C711 C717 1.491 . S
C712 H703 0.950 . S
C712 C711 1.398 . S
C712 C713 1.391 . S
C713 H701 0.950 . S
C713 C709 1.393 . S
C713 C712 1.391 . S
C714 H704 0.950 . S
C714 C715 1.386 . S
C714 C716 1.391 . S
C715 C714 1.386 . S
C715 C719 1.393 . S
C716 H705 0.950 . S
C716 C714 1.391 . S
C716 C717 1.400 . S
C717 C711 1.491 . S
C717 C716 1.400 . S
C717 C718 1.398 . S
C718 H706 0.950 . S
C718 C717 1.398 . S
C718 C719 1.391 . S
C719 H707 0.950 . S
C719 C715 1.393 . S
C719 C718 1.391 . S
H720 C728 0.950 . S
H721 C733 0.950 . S
H722 C730 0.950 . S
H723 C732 0.950 . S
H724 C734 0.950 . S
H725 C736 0.950 . S
H726 C738 0.950 . S
H727 C739 0.950 . S
C728 H720 0.950 . S
C728 C729 1.386 . S
C728 C730 1.391 . S
C729 C728 1.386 . S
C729 C733 1.393 . S
C730 H722 0.950 . S
C730 C728 1.391 . S
C730 C731 1.400 . S
C731 C730 1.400 . S
C731 C732 1.398 . S
C731 C737 1.491 . S
C732 H723 0.950 . S
C732 C731 1.398 . S
C732 C733 1.391 . S
C733 H721 0.950 . S
C733 C729 1.393 . S
C733 C732 1.391 . S
C734 H724 0.950 . S
C734 C735 1.386 . S
C734 C736 1.391 . S
C735 C734 1.386 . S
C735 C739 1.393 . S
C736 H725 0.950 . S
C736 C734 1.391 . S
C736 C737 1.400 . S
C737 C731 1.491 . S
C737 C736 1.400 . S
C737 C738 1.398 . S
C738 H726 0.950 . S
C738 C737 1.398 . S
C738 C739 1.391 . S
C739 H727 0.950 . S
C739 C735 1.393 . S
C739 C738 1.391 . S
H740 C748 0.950 . S
H741 C753 0.950 . S
H742 C750 0.950 . S
H743 C752 0.950 . S
H744 C754 0.950 . S
H745 C756 0.950 . S
H746 C758 0.950 . S
H747 C759 0.950 . S
C748 H740 0.950 . S
C748 C749 1.386 . S
C748 C750 1.391 . S
C749 C748 1.386 . S
C749 C753 1.393 . S
C750 H742 0.950 . S
C750 C748 1.391 . S
C750 C751 1.400 . S
C751 C750 1.400 . S
C751 C752 1.398 . S
C751 C757 1.491 . S
C752 H743 0.950 . S
C752 C751 1.398 . S
C752 C753 1.391 . S
C753 H741 0.950 . S
C753 C749 1.393 . S
C753 C752 1.391 . S
C754 H744 0.950 . S
C754 C755 1.386 . S
C754 C756 1.391 . S
C755 C754 1.386 . S
C755 C759 1.393 . S
C756 H745 0.950 . S
C756 C754 1.391 . S
C756 C757 1.400 . S
C757 C751 1.491 . S
C757 C756 1.400 . S
C757 C758 1.398 . S
C758 H746 0.950 . S
C758 C757 1.398 . S
C758 C759 1.391 . S
C759 H747 0.950 . S
C759 C755 1.393 . S
C759 C758 1.391 . S
H760 C768 0.950 . S
H761 C773 0.950 . S
H762 C770 0.950 . S
H763 C772 0.950 . S
H764 C774 0.950 . S
H765 C776 0.950 . S
H766 C778 0.950 . S
H767 C779 0.950 . S
C768 H760 0.950 . S
C768 C769 1.386 . S
C768 C770 1.391 . S
C769 C768 1.386 . S
C769 C773 1.393 . S
C770 H762 0.950 . S
C770 C768 1.391 . S
C770 C771 1.400 . S
C771 C770 1.400 . S
C771 C772 1.398 . S
C771 C777 1.491 . S
C772 H763 0.950 . S
C772 C771 1.398 . S
C772 C773 1.391 . S
C773 H761 0.950 . S
C773 C769 1.393 . S
C773 C772 1.391 . S
C774 H764 0.950 . S
C774 C775 1.386 . S
C774 C776 1.391 . S
C775 C774 1.386 . S
C775 C779 1.393 . S
C776 H765 0.950 . S
C776 C774 1.391 . S
C776 C777 1.400 . S
C777 C771 1.491 . S
C777 C776 1.400 . S
C777 C778 1.398 . S
C778 H766 0.950 . S
C778 C777 1.398 . S
C778 C779 1.391 . S
C779 H767 0.950 . S
C779 C775 1.393 . S
C779 C778 1.391 . S
H780 C788 0.950 . S
H781 C793 0.950 . S
H782 C790 0.950 . S
H783 C792 0.950 . S
H784 C794 0.950 . S
H785 C796 0.950 . S
H786 C798 0.950 . S
H787 C799 0.950 . S
C788 H780 0.950 . S
C788 C789 1.386 1_455 S
C788 C790 1.391 . S
C789 C788 1.386 1_655 S
C789 C793 1.393 . S
C790 H782 0.950 . S
C790 C788 1.391 . S
C790 C791 1.400 1_455 S
C791 C790 1.400 1_655 S
C791 C792 1.398 . S
C791 C797 1.491 1_656 S
C792 H783 0.950 . S
C792 C791 1.398 . S
C792 C793 1.391 . S
C793 H781 0.950 . S
C793 C789 1.393 . S
C793 C792 1.391 . S
C794 H784 0.950 . S
C794 C795 1.386 1_655 S
C794 C796 1.391 . S
C795 C794 1.386 1_455 S
C795 C799 1.393 . S
C796 H785 0.950 . S
C796 C794 1.391 . S
C796 C797 1.400 1_655 S
C797 C791 1.491 1_454 S
C797 C796 1.400 1_455 S
C797 C798 1.398 . S
C798 H786 0.950 . S
C798 C797 1.398 . S
C798 C799 1.391 . S
C799 H787 0.950 . S
C799 C795 1.393 . S
C799 C798 1.391 . S
C329 C10 1.524 . S
C335 C129 1.503 . S
C349 C9 0.892 . S
C355 C49 0.895 . S
C369 C50 1.527 . S
C375 C89 1.516 . S
C389 C90 2.066 . S
C395 C130 2.059 . S
C409 C19 1.529 . S
C415 C218 1.520 . S
C429 C18 0.896 . S
C435 C178 0.877 . S
C449 C179 1.523 . S
C455 C98 1.503 . S
C469 C219 2.064 . S
C475 C99 2.063 . S
C489 C250 1.535 . S
C495 C209 1.525 . S
C509 C169 0.879 . S
C515 C249 0.895 . S
C529 C289 1.519 . S
C535 C170 1.535 . S
C549 C210 2.066 . S
C555 C290 2.063 . S
C569 C138 1.510 . S
C575 C259 1.526 . S
C589 C258 0.896 . S
C595 C58 0.882 . S
C609 C59 1.524 . S
C615 C298 1.506 . S
C629 C139 2.060 . S
C635 C299 2.063 . S
C649 C15 1.427 . S
C655 C6 1.427 . S
C669 C55 1.439 . S
C675 C46 1.439 . S
C689 C95 1.613 . S
C695 C86 1.613 . S
C709 C126 1.596 . S
C715 C135 1.596 . S
C729 C175 1.425 . S
C735 C166 1.425 . S
C749 C206 1.595 . S
C755 C215 1.595 . S
C769 C246 1.437 . S
C775 C255 1.437 . S
C789 C286 1.606 . S
C795 C295 1.606 . S
