# Generated by pormake.
# Topology uov, (4)-cn, num edge types: 1
# Building blocks:
#     Node 0, Type 0, BuildingBlock: NAHDIM_clean_sbu_0, # of connection points: 4
#     Node 1, Type 0, BuildingBlock: NAHDIM_clean_sbu_0, # of connection points: 4
#     Node 2, Type 0, BuildingBlock: NAHDIM_clean_sbu_0, # of connection points: 4
#     Node 3, Type 0, BuildingBlock: NAHDIM_clean_sbu_0, # of connection points: 4
#     Node 4, Type 0, BuildingBlock: NAHDIM_clean_sbu_0, # of connection points: 4
#     Node 5, Type 0, BuildingBlock: NAHDIM_clean_sbu_0, # of connection points: 4
#     Node 6, Type 0, BuildingBlock: NAHDIM_clean_sbu_0, # of connection points: 4
#     Node 7, Type 0, BuildingBlock: NAHDIM_clean_sbu_0, # of connection points: 4
#     Edge 8, Type (0, 0), BuildingBlock: UVAHIK_clean_linker_0, # of connection points: 2
#     Edge 9, Type (0, 0), BuildingBlock: UVAHIK_clean_linker_0, # of connection points: 2
#     Edge 10, Type (0, 0), BuildingBlock: UVAHIK_clean_linker_0, # of connection points: 2
#     Edge 11, Type (0, 0), BuildingBlock: UVAHIK_clean_linker_0, # of connection points: 2
#     Edge 12, Type (0, 0), BuildingBlock: UVAHIK_clean_linker_0, # of connection points: 2
#     Edge 13, Type (0, 0), BuildingBlock: UVAHIK_clean_linker_0, # of connection points: 2
#     Edge 14, Type (0, 0), BuildingBlock: UVAHIK_clean_linker_0, # of connection points: 2
#     Edge 15, Type (0, 0), BuildingBlock: UVAHIK_clean_linker_0, # of connection points: 2
#     Edge 16, Type (0, 0), BuildingBlock: UVAHIK_clean_linker_0, # of connection points: 2
#     Edge 17, Type (0, 0), BuildingBlock: UVAHIK_clean_linker_0, # of connection points: 2
#     Edge 18, Type (0, 0), BuildingBlock: UVAHIK_clean_linker_0, # of connection points: 2
#     Edge 19, Type (0, 0), BuildingBlock: UVAHIK_clean_linker_0, # of connection points: 2
#     Edge 20, Type (0, 0), BuildingBlock: UVAHIK_clean_linker_0, # of connection points: 2
#     Edge 21, Type (0, 0), BuildingBlock: UVAHIK_clean_linker_0, # of connection points: 2
#     Edge 22, Type (0, 0), BuildingBlock: UVAHIK_clean_linker_0, # of connection points: 2
#     Edge 23, Type (0, 0), BuildingBlock: UVAHIK_clean_linker_0, # of connection points: 2
# Relax obj value: 0.256
# Max RMSD: 0.232
# Mean RMSD: 0.232
data_MOF--net-uov--node1-NAHDIM_clean_sbu_0--edge1-UVAHIK_clean_linker_0
_symmetry_space_group_name_H-M    P1
_symmetry_Int_Tables_number       1
_symmetry_cell_setting            triclinic
loop_
_symmetry_equiv_pos_as_xyz
'x, y, z'
_cell_length_a     38.703186
_cell_length_b     38.73717
_cell_length_c     53.276919
_cell_angle_alpha  89.987951
_cell_angle_beta   89.996191
_cell_angle_gamma 89.981985
loop_
_atom_site_label
_atom_site_type_symbol
_atom_site_fract_x
_atom_site_fract_y
_atom_site_fract_z
_atom_type_partial_charge
C0 C 0.98094 0.31098 0.63541 0.0
O1 O 0.95559 0.29152 0.6437 0.0
O2 O 0.96058 0.23238 0.59985 0.0
Zn3 Zn 0.00593 0.24685 0.61481 0.0
O4 O 0.01698 0.21974 0.64598 0.0
C5 C 0.03817 0.2509 0.56681 0.0
O6 O 0.01089 0.27013 0.5623 0.0
O7 O 0.00515 0.29729 0.62276 0.0
C8 C 0.03249 0.19089 0.64446 0.0
O9 O 0.04041 0.17856 0.62222 0.0
C10 C 0.93774 0.21419 0.61071 0.0
O11 O 0.94266 0.20427 0.63402 0.0
O12 O 0.04229 0.23831 0.58863 0.0
C13 C 0.31736 0.97546 0.3535 0.0
O14 O 0.29877 0.94831 0.34749 0.0
O15 O 0.23819 0.04067 0.39215 0.0
Zn16 Zn 0.25334 -0.00308 0.37522 0.0
O17 O 0.22379 0.98562 0.34536 0.0
C18 C 0.26051 0.96251 0.42236 0.0
O19 O 0.27871 0.99028 0.42742 0.0
O20 O 0.30314 0.00016 0.3653 0.0
C21 C 0.19121 0.98329 0.34774 0.0
O22 O 0.17712 0.98997 0.36966 0.0
C23 C 0.22233 0.06585 0.38212 0.0
O24 O 0.21521 0.06499 0.35801 0.0
O25 O 0.24764 0.95902 0.40056 0.0
C26 C 0.97998 0.67897 0.62865 0.0
O27 O 0.95325 0.69814 0.63476 0.0
O28 O 0.04601 0.75793 0.59089 0.0
Zn29 Zn 0.00204 0.74258 0.60746 0.0
O30 O 0.99155 0.77077 0.63823 0.0
C31 C 0.96687 0.73657 0.56037 0.0
O32 O 0.99447 0.71837 0.55478 0.0
O33 O 0.00491 0.69263 0.61675 0.0
C34 C 0.9748 0.79887 0.63631 0.0
O35 O 0.96574 0.80989 0.61393 0.0
C36 C 0.06978 0.7754 0.60131 0.0
O37 O 0.06682 0.78386 0.62509 0.0
O38 O 0.96387 0.74898 0.58234 0.0
C39 C 0.68507 0.97841 0.35926 0.0
O40 O 0.70531 0.9533 0.3516 0.0
O41 O 0.76083 0.95765 0.39853 0.0
Zn42 Zn 0.74724 0.0031 0.38329 0.0
O43 O 0.77757 0.01453 0.35371 0.0
C44 C 0.74177 0.03371 0.43204 0.0
O45 O 0.72453 0.00516 0.43655 0.0
O46 O 0.69755 0.0023 0.37284 0.0
C47 C 0.80498 0.0321 0.35676 0.0
O48 O 0.81356 0.04216 0.37946 0.0
C49 C 0.77788 0.93418 0.3874 0.0
O50 O 0.78678 0.93853 0.36381 0.0
O51 O 0.75336 0.0391 0.41007 0.0
C52 C -0.0028 0.30956 0.13441 0.0
O53 O 0.02175 0.29282 0.14633 0.0
O54 O 0.03096 0.23402 0.09867 0.0
Zn55 Zn 0.98366 0.24276 0.11278 0.0
O56 O 0.97529 0.21516 0.14417 0.0
C57 C 0.95475 0.23355 0.06358 0.0
O58 O 0.98305 0.24986 0.05689 0.0
O59 O 0.97766 0.29322 0.11941 0.0
C60 C 0.96724 0.18349 0.14202 0.0
O61 O 0.96605 0.16965 0.11952 0.0
C62 C 0.05643 0.22102 0.11036 0.0
O63 O 0.05302 0.21261 0.13412 0.0
O64 O 0.94904 0.22818 0.08674 0.0
C65 C 0.31876 0.03989 0.86505 0.0
O66 O 0.30246 0.06871 0.85964 0.0
O67 O 0.238 0.98118 0.90711 0.0
Zn68 Zn 0.25444 0.02357 0.88897 0.0
O69 O 0.22392 0.03452 0.8595 0.0
C70 C 0.26643 0.05956 0.93504 0.0
O71 O 0.28455 0.03165 0.93988 0.0
O72 O 0.30317 0.01667 0.8775 0.0
C73 C 0.19545 0.05017 0.86297 0.0
O74 O 0.18616 0.05825 0.88595 0.0
C75 C 0.21591 0.95984 0.89874 0.0
O76 O 0.20299 0.96433 0.87618 0.0
O77 O 0.25212 0.06261 0.91369 0.0
C78 C 0.97653 0.67753 0.11826 0.0
O79 O 0.9555 0.68976 0.10107 0.0
O80 O 0.95122 0.76211 0.10554 0.0
Zn81 Zn 0.99611 0.74886 0.12184 0.0
O82 O 0.00529 0.77639 0.15304 0.0
C83 C 0.02933 0.75406 0.07384 0.0
O84 O 0.00053 0.73938 0.06634 0.0
O85 O -0.00349 0.69814 0.12981 0.0
C86 C 0.0067 0.80913 0.15202 0.0
O87 O 3e-05 0.82468 0.13064 0.0
C88 C 0.9245 0.77528 0.11552 0.0
O89 O 0.92429 0.78203 0.13969 0.0
O90 O 0.03377 0.75973 0.09712 0.0
C91 C 0.68128 0.98935 0.85312 0.0
O92 O 0.70403 0.01295 0.84676 0.0
O93 O 0.75521 0.00285 0.89388 0.0
Zn94 Zn 0.74024 0.95895 0.87704 0.0
O95 O 0.77109 0.94755 0.84785 0.0
C96 C 0.72901 0.92649 0.92422 0.0
O97 O 0.70991 0.95421 0.92738 0.0
O98 O 0.69109 0.96343 0.86587 0.0
C99 C 0.8004 0.93377 0.85179 0.0
O100 O 0.81007 0.92756 0.875 0.0
C101 C 0.77755 0.02393 0.88551 0.0
O102 O 0.79184 0.01829 0.86353 0.0
O103 O 0.74392 0.92184 0.90323 0.0
C104 C 0.00874 0.62116 0.62754 0.0
C105 C 0.98044 0.6417 0.6346 0.0
C106 C 0.00857 0.58569 0.63208 0.0
C107 C 0.94895 0.51328 0.64145 0.0
H108 H 0.03251 0.46447 0.66034 0.0
C109 C 0.95293 0.36479 0.65191 0.0
C110 C 0.98099 0.34862 0.63997 0.0
C111 C 0.95253 0.40062 0.65513 0.0
C112 C 0.009 0.47775 0.655 0.0
H113 H 0.93012 0.64125 0.65256 0.0
H114 H 0.92993 0.57923 0.66061 0.0
H115 H 0.03246 0.52743 0.65914 0.0
H116 H 0.03096 0.35726 0.62256 0.0
H117 H 0.03011 0.41955 0.62801 0.0
H118 H 0.92571 0.46358 0.63677 0.0
C119 C 0.95207 0.59057 0.65131 0.0
C120 C 0.00897 0.51377 0.65429 0.0
C121 C 0.95226 0.62611 0.64678 0.0
C122 C 0.00893 0.36889 0.63182 0.0
C123 C 0.00858 0.4046 0.63511 0.0
C124 C 0.94897 0.47723 0.64218 0.0
C125 C 0.9801 0.56993 0.6438 0.0
C126 C 0.97915 0.53191 0.64703 0.0
C127 C 0.98026 0.4209 0.64659 0.0
C128 C 0.97919 0.45908 0.64847 0.0
H129 H 0.03086 0.63236 0.61811 0.0
H130 H 0.03035 0.57045 0.62575 0.0
H131 H 0.92567 0.52647 0.63551 0.0
H132 H 0.93106 0.34987 0.65847 0.0
H133 H 0.9305 0.41246 0.66423 0.0
C134 C 0.63281 0.95052 0.34018 0.0
C135 C 0.64786 0.97847 0.35296 0.0
C136 C 0.59728 0.95004 0.33539 0.0
C137 C 0.51981 0.00604 0.33255 0.0
H138 H 0.4702 0.92245 0.34998 0.0
C139 C 0.37476 0.00499 0.35536 0.0
C140 C 0.35479 0.97646 0.34799 0.0
C141 C 0.41045 0.00511 0.35163 0.0
C142 C 0.48367 0.9458 0.34456 0.0
H143 H 0.63758 0.02821 0.37017 0.0
H144 H 0.57579 0.02723 0.36198 0.0
H145 H 0.53314 0.9228 0.35106 0.0
H146 H 0.35648 0.92613 0.33016 0.0
H147 H 0.41888 0.92648 0.3235 0.0
H148 H 0.47031 0.02927 0.3266 0.0
C149 C 0.59141 0.00584 0.35544 0.0
C150 C 0.51974 0.946 0.3452 0.0
C151 C 0.62681 0.00626 0.36031 0.0
C152 C 0.37117 0.94843 0.33618 0.0
C153 C 0.40692 0.94856 0.33246 0.0
C154 C 0.48374 0.00584 0.33188 0.0
C155 C 0.57618 0.97759 0.34315 0.0
C156 C 0.53817 0.97632 0.33971 0.0
C157 C 0.42701 0.97673 0.34042 0.0
C158 C 0.46525 0.97592 0.3384 0.0
H159 H 0.64834 0.92876 0.3342 0.0
H160 H 0.58629 0.92806 0.32569 0.0
H161 H 0.53333 0.02963 0.3278 0.0
H162 H 0.36297 0.027 0.36452 0.0
H163 H 0.4252 0.02702 0.3583 0.0
C164 C 0.9673 0.36497 0.12408 0.0
C165 C 0.99323 0.34731 0.13736 0.0
C166 C 0.96448 0.40079 0.12573 0.0
C167 C 0.01589 0.47799 0.13966 0.0
H168 H 0.92639 0.52308 0.13961 0.0
C169 C 0.00128 0.62649 0.14095 0.0
C170 C 0.97731 0.64013 0.12377 0.0
C171 C 0.00252 0.591 0.14558 0.0
C172 C 0.95156 0.51084 0.13952 0.0
H173 H 0.036 0.35334 0.16331 0.0
H174 H 0.03086 0.41605 0.16633 0.0
H175 H 0.92965 0.46037 0.14295 0.0
H176 H 0.93555 0.62728 0.09826 0.0
H177 H 0.93788 0.56544 0.10624 0.0
H178 H 0.03775 0.52846 0.13582 0.0
C179 C 0.013 0.40212 0.15441 0.0
C180 C 0.95343 0.47495 0.14143 0.0
C181 C 0.01583 0.3662 0.15277 0.0
C182 C 0.95432 0.61762 0.11161 0.0
C183 C 0.95548 0.58219 0.11631 0.0
C184 C 0.01401 0.51391 0.1378 0.0
C185 C 0.98747 0.41982 0.14072 0.0
C186 C 0.98559 0.45808 0.14108 0.0
C187 C 0.97972 0.56848 0.13324 0.0
C188 C 0.9818 0.53066 0.13728 0.0
H189 H 0.94948 0.35121 0.11202 0.0
H190 H 0.94484 0.41365 0.11466 0.0
H191 H 0.04104 0.46576 0.13902 0.0
H192 H 0.0193 0.64317 0.15068 0.0
H193 H 0.02127 0.5812 0.1589 0.0
C194 C 0.37214 0.00366 0.86304 0.0
C195 C 0.35517 0.03483 0.85753 0.0
C196 C 0.40693 -0.00075 0.85701 0.0
C197 C 0.48614 0.04877 0.84676 0.0
H198 H 0.52192 0.96037 0.82454 0.0
C199 C 0.6324 0.02446 0.83575 0.0
C200 C 0.64426 0.99397 0.84716 0.0
C201 C 0.59705 0.02984 0.832 0.0
C202 C 0.51231 0.9852 0.83076 0.0
H203 H 0.36122 0.08553 0.84077 0.0
H204 H 0.42214 0.07774 0.83019 0.0
H205 H 0.4596 0.96932 0.82705 0.0
H206 H 0.62846 0.94465 0.86272 0.0
H207 H 0.56699 0.95415 0.85639 0.0
H208 H 0.5388 0.06434 0.85118 0.0
C209 C 0.40849 0.05686 0.83938 0.0
C210 C 0.47665 0.99031 0.83221 0.0
C211 C 0.37359 0.06125 0.84536 0.0
C212 C 0.62019 0.96847 0.85393 0.0
C213 C 0.58493 0.9738 0.85012 0.0
C214 C 0.5218 0.04366 0.8453 0.0
C215 C 0.4256 0.02591 0.84534 0.0
C216 C 0.4632 0.02188 0.8408 0.0
C217 C 0.57292 0.00476 0.83949 0.0
C218 C 0.53526 0.01155 0.83786 0.0
H219 H 0.35871 0.98277 0.87239 0.0
H220 H 0.41946 0.97529 0.8622 0.0
H221 H 0.47659 0.07327 0.85369 0.0
H222 H 0.65031 0.04455 0.83022 0.0
H223 H 0.58857 0.05381 0.82352 0.0
C224 C 0.21791 0.09491 0.42384 0.0
C225 C 0.20944 0.09422 0.39819 0.0
C226 C 0.20333 0.11952 0.43974 0.0
C227 C 0.12578 0.17285 0.44561 0.0
H228 H 0.17461 0.2102 0.50309 0.0
C229 C 0.05549 0.25229 0.5215 0.0
C230 C 0.06215 0.24163 0.54625 0.0
C231 C 0.07642 0.24097 0.50176 0.0
C232 C 0.16064 0.19996 0.48712 0.0
H233 H 0.18018 0.11985 0.36889 0.0
H234 H 0.15475 0.16311 0.39675 0.0
H235 H 0.20656 0.17882 0.47082 0.0
H236 H 0.09685 0.21187 0.56983 0.0
H237 H 0.13315 0.192 0.53543 0.0
H238 H 0.07975 0.19309 0.46224 0.0
C239 C 0.17241 0.14426 0.40456 0.0
C240 C 0.17891 0.18201 0.46865 0.0
C241 C 0.1871 0.1196 0.38859 0.0
C242 C 0.09096 0.22051 0.55097 0.0
C243 C 0.11193 0.20931 0.53126 0.0
C244 C 0.10753 0.19087 0.46405 0.0
C245 C 0.17992 0.14409 0.43039 0.0
C246 C 0.16155 0.16747 0.44802 0.0
C247 C 0.10453 0.21891 0.50638 0.0
C248 C 0.12463 0.20386 0.48532 0.0
H249 H 0.23511 0.0758 0.43187 0.0
H250 H 0.20933 0.11831 0.45957 0.0
H251 H 0.11154 0.16163 0.43014 0.0
H252 H 0.0336 0.2687 0.51724 0.0
H253 H 0.0703 0.24911 0.48282 0.0
C254 C 0.23169 0.90835 0.43713 0.0
C255 C 0.25188 0.93758 0.44244 0.0
C256 C 0.22034 0.88682 0.45647 0.0
C257 C 0.19878 0.89071 0.52312 0.0
H258 H 0.1876 0.79176 0.51582 0.0
C259 C 0.12354 0.81102 0.5963 0.0
C260 C 0.09891 0.78844 0.58601 0.0
C261 C 0.14905 0.82574 0.58107 0.0
C262 C 0.19052 0.81938 0.51813 0.0
H263 H 0.27748 0.96616 0.47213 0.0
H264 H 0.25765 0.92848 0.5059 0.0
H265 H 0.22058 0.82395 0.48453 0.0
H266 H 0.08269 0.76242 0.5519 0.0
H267 H 0.12664 0.78834 0.52543 0.0
H268 H 0.16766 0.88649 0.55612 0.0
C269 C 0.2503 0.92247 0.48678 0.0
C270 C 0.20942 0.83779 0.50023 0.0
C271 C 0.26177 0.94396 0.46741 0.0
C272 C 0.10119 0.7798 0.56044 0.0
C273 C 0.12663 0.79446 0.54526 0.0
C274 C 0.17983 0.87233 0.54098 0.0
C275 C 0.22887 0.89408 0.48156 0.0
C276 C 0.21304 0.87378 0.50221 0.0
C277 C 0.15047 0.8181 0.55527 0.0
C278 C 0.17473 0.83659 0.53835 0.0
H279 H 0.2237 0.90264 0.41809 0.0
H280 H 0.20357 0.86537 0.45184 0.0
H281 H 0.20072 0.91848 0.52503 0.0
H282 H 0.12261 0.81805 0.61596 0.0
H283 H 0.16731 0.84354 0.5894 0.0
C284 C 0.78186 0.90049 0.42732 0.0
C285 C 0.79034 0.90396 0.40179 0.0
C286 C 0.79639 0.87416 0.44174 0.0
C287 C 0.8741 0.8204 0.44408 0.0
H288 H 0.82674 0.77809 0.50038 0.0
C289 C 0.94723 0.73635 0.51555 0.0
C290 C 0.94146 0.74567 0.5407 0.0
C291 C 0.92527 0.74827 0.4966 0.0
C292 C 0.84029 0.78966 0.4847 0.0
H293 H 0.81932 0.88134 0.37106 0.0
H294 H 0.84452 0.83508 0.39628 0.0
H295 H 0.79397 0.81216 0.47003 0.0
H296 H 0.90708 0.7733 0.56584 0.0
H297 H 0.86899 0.7942 0.53283 0.0
H298 H 0.92054 0.79884 0.45912 0.0
C299 C 0.82701 0.85312 0.40519 0.0
C300 C 0.82155 0.80919 0.46734 0.0
C301 C 0.81245 0.87953 0.39072 0.0
C302 C 0.91233 0.76574 0.54664 0.0
C303 C 0.89033 0.77753 0.52772 0.0
C304 C 0.8928 0.80081 0.46138 0.0
C305 C 0.8197 0.85059 0.43099 0.0
C306 C 0.83841 0.82558 0.44721 0.0
C307 C 0.89699 0.76958 0.50243 0.0
C308 C 0.87626 0.78599 0.48225 0.0
H309 H 0.76483 0.9188 0.43644 0.0
H310 H 0.79051 0.8733 0.46161 0.0
H311 H 0.88801 0.83301 0.429 0.0
H312 H 0.96933 0.72075 0.51036 0.0
H313 H 0.93082 0.74138 0.47731 0.0
C314 C 0.74235 0.04913 0.47772 0.0
C315 C 0.75072 0.05749 0.45277 0.0
C316 C 0.7541 0.0697 0.49752 0.0
C317 C 0.79273 0.15481 0.51285 0.0
H318 H 0.83941 0.10403 0.56562 0.0
C319 C 0.90313 0.21211 0.57114 0.0
C320 C 0.90759 0.20176 0.59622 0.0
C321 C 0.87692 0.19785 0.55648 0.0
C322 C 0.82586 0.11872 0.5514 0.0
H323 H 0.77652 0.09493 0.42896 0.0
H324 H 0.79711 0.13062 0.46344 0.0
H325 H 0.80559 0.07295 0.5345 0.0
H326 H 0.88687 0.16957 0.62595 0.0
H327 H 0.84082 0.14478 0.60029 0.0
H328 H 0.81392 0.20052 0.52935 0.0
C329 C 0.78131 0.10832 0.46774 0.0
C330 C 0.80648 0.10086 0.53351 0.0
C331 C 0.76969 0.08771 0.44797 0.0
C332 C 0.88426 0.17794 0.60664 0.0
C333 C 0.85798 0.16362 0.59192 0.0
C334 C 0.81204 0.17269 0.53079 0.0
C335 C 0.77428 0.09914 0.49275 0.0
C336 C 0.79048 0.11863 0.51365 0.0
C337 C 0.85447 0.17291 0.56652 0.0
C338 C 0.82963 0.15475 0.54986 0.0
H339 H 0.72762 0.02613 0.48205 0.0
H340 H 0.74795 0.0622 0.51659 0.0
H341 H 0.78021 0.16925 0.498 0.0
H342 H 0.92056 0.23049 0.56253 0.0
H343 H 0.87529 0.20529 0.53691 0.0
C344 C 0.81797 0.07301 0.89461 0.0
C345 C 0.78973 0.05241 0.90175 0.0
C346 C 0.83169 0.09733 0.91126 0.0
C347 C 0.83884 0.11253 0.9789 0.0
H348 H 0.87396 0.20233 0.95935 0.0
C349 C 0.90032 0.20287 0.05152 0.0
C350 C 0.9313 0.21902 0.04438 0.0
C351 C 0.8796 0.18655 0.03366 0.0
C352 C 0.86445 0.17724 0.96505 0.0
H353 H 0.75253 0.04258 0.93141 0.0
H354 H 0.77629 0.08507 0.96025 0.0
H355 H 0.84376 0.16661 0.92852 0.0
H356 H 0.96422 0.23177 0.01275 0.0
H357 H 0.92843 0.20269 0.98165 0.0
H358 H 0.86015 0.12248 0.01513 0.0
C359 C 0.78822 0.08201 0.94199 0.0
C360 C 0.84715 0.15683 0.9474 0.0
C361 C 0.77452 0.05777 0.92539 0.0
C362 C 0.9405 0.21955 0.01887 0.0
C363 C 0.91986 0.20304 0.001 0.0
C364 C 0.85619 0.13281 0.99646 0.0
C365 C 0.81744 0.10148 0.93535 0.0
C366 C 0.83431 0.12417 0.95413 0.0
C367 C 0.88949 0.1858 0.00826 0.0
C368 C 0.86939 0.16532 0.98974 0.0
H369 H 0.83023 0.06956 0.87651 0.0
H370 H 0.85435 0.11181 0.90566 0.0
H371 H 0.82987 0.08721 0.98455 0.0
H372 H 0.89233 0.20228 0.07101 0.0
H373 H 0.85603 0.17409 0.03982 0.0
C374 C 0.2694 0.0783 0.98 0.0
C375 C 0.25842 0.08449 0.95526 0.0
C376 C 0.25745 0.09893 -0.00029 0.0
C377 C 0.21008 0.18004 0.01465 0.0
H378 H 0.17107 0.1256 0.06876 0.0
C379 C 0.09186 0.22267 0.07118 0.0
C380 C 0.08852 0.21287 0.09647 0.0
C381 C 0.12036 0.21215 0.05711 0.0
C382 C 0.18246 0.14141 0.05417 0.0
H383 H 0.22821 0.11865 0.93157 0.0
H384 H 0.20718 0.15432 0.96587 0.0
H385 H 0.20828 0.09805 0.03797 0.0
H386 H 0.11344 0.18582 0.12718 0.0
H387 H 0.16344 0.16744 0.10252 0.0
H388 H 0.18301 0.22313 0.03037 0.0
C389 C 0.22516 0.1337 0.97011 0.0
C390 C 0.20384 0.12558 0.03648 0.0
C391 C 0.23703 0.11306 0.95043 0.0
C392 C 0.11515 0.19362 0.1077 0.0
C393 C 0.14371 0.18299 0.09355 0.0
C394 C 0.18872 0.1959 0.03239 0.0
C395 C 0.23439 0.12624 0.99505 0.0
C396 C 0.21699 0.14447 0.01607 0.0
C397 C 0.14626 0.19155 0.06796 0.0
C398 C 0.17376 0.17649 0.05187 0.0
H399 H 0.28609 0.05666 0.98434 0.0
H400 H 0.2654 0.09284 0.01869 0.0
H401 H 0.22031 0.1954 -0.00063 0.0
H402 H 0.07191 0.23764 0.06195 0.0
H403 H 0.12121 0.21883 0.03738 0.0
C404 C 0.04695 0.76637 0.0295 0.0
C405 C 0.05451 0.7673 0.0553 0.0
C406 C 0.0689 0.7823 0.01219 0.0
C407 C 0.13271 0.85237 0.00918 0.0
H408 H 0.14889 0.81799 0.94184 0.0
C409 C 0.21666 0.92777 0.93949 0.0
C410 C 0.20284 0.93207 0.91529 0.0
C411 C 0.20239 0.9038 0.95606 0.0
C412 C 0.14446 0.82795 0.96055 0.0
H413 H 0.09205 0.78394 0.08301 0.0
H414 H 0.13059 0.8112 0.05277 0.0
H415 H 0.11746 0.78232 0.97204 0.0
H416 H 0.16408 0.91353 0.88916 0.0
H417 H 0.13889 0.87186 0.91826 0.0
H418 H 0.15908 0.89815 0.9977 0.0
C419 C 0.1073 0.79885 0.04597 0.0
C420 C 0.12647 0.80755 0.97784 0.0
C421 C 0.0853 0.78306 0.06329 0.0
C422 C 0.17529 0.91088 0.90768 0.0
C423 C 0.16098 0.88687 0.92431 0.0
C424 C 0.1507 0.87267 0.99196 0.0
C425 C 0.09894 0.79938 0.02029 0.0
C426 C 0.12012 0.81968 0.0023 0.0
C427 C 0.17394 0.88359 0.94886 0.0
C428 C 0.15654 0.86085 0.96739 0.0
H429 H 0.02344 0.75442 0.02272 0.0
H430 H 0.06151 0.78247 0.99258 0.0
H431 H 0.12768 0.86285 0.02767 0.0
H432 H 0.23809 0.94346 0.94589 0.0
H433 H 0.21334 0.90146 0.9747 0.0
C434 C 0.7593 0.87541 0.94278 0.0
C435 C 0.73687 0.90365 0.94573 0.0
C436 C 0.77041 0.85661 0.96364 0.0
C437 C 0.78658 0.8692 0.03051 0.0
H438 H 0.80796 0.77144 0.02874 0.0
C439 C 0.86722 0.80438 0.10857 0.0
C440 C 0.8947 0.78427 0.09941 0.0
C441 C 0.84062 0.81493 0.09247 0.0
C442 C 0.80208 0.79876 0.02954 0.0
H443 H 0.70684 0.93296 0.97274 0.0
H444 H 0.72621 0.9 0.00915 0.0
H445 H 0.77354 0.79701 0.99512 0.0
H446 H 0.91501 0.75819 0.06649 0.0
H447 H 0.86912 0.77676 0.03859 0.0
H448 H 0.81627 0.87129 0.06433 0.0
C449 C 0.73553 0.89274 0.99072 0.0
C450 C 0.78239 0.81338 0.0103 0.0
C451 C 0.72433 0.91151 0.96984 0.0
C452 C 0.89433 0.77383 0.07415 0.0
C453 C 0.86779 0.7842 0.05817 0.0
C454 C 0.8063 0.85458 0.04973 0.0
C455 C 0.75937 0.86564 0.98792 0.0
C456 C 0.77529 0.84896 0.01019 0.0
C457 C 0.84091 0.80534 0.067 0.0
C458 C 0.81517 0.81942 0.04905 0.0
H459 H 0.76937 0.8686 0.92447 0.0
H460 H 0.78905 0.83611 0.96084 0.0
H461 H 0.78191 0.89676 0.03086 0.0
H462 H 0.8667 0.81273 0.12796 0.0
H463 H 0.8201 0.831 0.09987 0.0
C464 C 0.06643 0.14455 0.66601 0.0
C465 C 0.04357 0.17265 0.66748 0.0
C466 C 0.07889 0.12887 0.68783 0.0
C467 C 0.09271 0.14709 0.75511 0.0
H468 H 0.11203 0.04895 0.75846 0.0
C469 C 0.14533 0.08253 0.84482 0.0
C470 C 0.17395 0.06071 0.84134 0.0
C471 C 0.12621 0.09414 0.82424 0.0
C472 C 0.10686 0.07642 0.75773 0.0
H473 H 0.01469 0.20544 0.69297 0.0
H474 H 0.03579 0.1776 0.73101 0.0
H475 H 0.08359 0.07279 0.72139 0.0
H476 H 0.20432 0.03311 0.8136 0.0
H477 H 0.17086 0.05335 0.77769 0.0
H478 H 0.11607 0.15069 0.79142 0.0
C479 C 0.0448 0.16819 0.71302 0.0
C480 C 0.09065 0.09011 0.7365 0.0
C481 C 0.03254 0.18403 0.69121 0.0
C482 C 0.18246 0.04998 0.81691 0.0
C483 C 0.16318 0.06139 0.79635 0.0
C484 C 0.10867 0.13337 0.77639 0.0
C485 C 0.06856 0.14078 0.71162 0.0
C486 C 0.08374 0.12569 0.73481 0.0
C487 C 0.13514 0.08395 0.79978 0.0
C488 C 0.11626 0.09797 0.77781 0.0
H489 H 0.07549 0.13521 0.64802 0.0
H490 H 0.09749 0.10814 0.68601 0.0
H491 H 0.08837 0.17469 0.7543 0.0
H492 H 0.13803 0.09121 0.86341 0.0
H493 H 0.1045 0.11124 0.82745 0.0
C494 C 0.0222 0.86523 0.17262 0.0
C495 C 0.01952 0.82906 0.1738 0.0
C496 C 0.03766 0.88366 0.1922 0.0
C497 C 0.10208 0.87189 0.24156 0.0
H498 H 0.06787 0.95896 0.26756 0.0
C499 C 0.18558 0.95818 0.30467 0.0
C500 C 0.16985 0.97027 0.32676 0.0
C501 C 0.16578 0.94307 0.28573 0.0
C502 C 0.07764 0.93462 0.2605 0.0
H503 H 0.02953 0.78406 0.19698 0.0
H504 H 0.05647 0.81624 0.23104 0.0
H505 H 0.03425 0.92757 0.23597 0.0
H506 H 0.1208 0.97727 0.34583 0.0
H507 H 0.08621 0.95092 0.31262 0.0
H508 H 0.14536 0.87873 0.26599 0.0
C509 C 0.04697 0.83027 0.21486 0.0
C510 C 0.05853 0.91679 0.24235 0.0
C511 C 0.03137 0.81188 0.19539 0.0
C512 C 0.13372 0.9681 0.32908 0.0
C513 C 0.11387 0.95317 0.31002 0.0
C514 C 0.12127 0.8898 0.25948 0.0
C515 C 0.0509 0.86625 0.21325 0.0
C516 C 0.07055 0.88518 0.23277 0.0
C517 C 0.1298 0.93991 0.28838 0.0
C518 C 0.10929 0.92135 0.26913 0.0
H519 H 0.01323 0.87925 0.15629 0.0
H520 H 0.04048 0.91137 0.1904 0.0
H521 H 0.11222 0.8478 0.23431 0.0
H522 H 0.21333 0.95959 0.30222 0.0
H523 H 0.17869 0.93352 0.26907 0.0
C524 C 0.93876 0.84412 0.65724 0.0
C525 C 0.96303 0.81727 0.65908 0.0
C526 C 0.92532 0.85952 0.67884 0.0
C527 C 0.9116 0.84139 0.74613 0.0
H528 H 0.88594 0.93813 0.74843 0.0
C529 C 0.85265 0.9039 0.83458 0.0
C530 C 0.82281 0.92381 0.83051 0.0
C531 C 0.87295 0.89311 0.81436 0.0
C532 C 0.89289 0.91104 0.74799 0.0
H533 H 0.99347 0.78659 0.68499 0.0
H534 H 0.97065 0.814 0.72268 0.0
H535 H 0.91675 0.91568 0.71192 0.0
H536 H 0.79138 0.94881 0.80209 0.0
H537 H 0.8269 0.93 0.76682 0.0
H538 H 0.88763 0.83679 0.78216 0.0
C539 C 0.96131 0.8226 0.70456 0.0
C540 C 0.91046 0.89814 0.72708 0.0
C541 C 0.97456 0.80701 0.68295 0.0
C542 C 0.81416 0.93341 0.80585 0.0
C543 C 0.83462 0.92284 0.78566 0.0
C544 C 0.89428 0.85435 0.76709 0.0
C545 C 0.93605 0.8486 0.70279 0.0
C546 C 0.91964 0.86305 0.72575 0.0
C547 C 0.864 0.90225 0.78969 0.0
C548 C 0.88436 0.8892 0.76811 0.0
H549 H 0.92928 0.85257 0.63912 0.0
H550 H 0.90561 0.87915 0.67674 0.0
H551 H 0.91768 0.81412 0.74559 0.0
H552 H 0.86007 0.89614 0.85336 0.0
H553 H 0.89564 0.87753 0.81803 0.0
C554 C 0.85108 0.06864 0.33737 0.0
C555 C 0.82595 0.04272 0.33489 0.0
C556 C 0.8695 0.08022 0.31645 0.0
C557 C 0.86389 0.08311 0.24712 0.0
H558 H 0.95873 0.11464 0.25241 0.0
C559 C 0.94042 0.13101 0.16122 0.0
C560 C 0.95643 0.16331 0.16423 0.0
C561 C 0.92746 0.11321 0.18198 0.0
C562 C 0.93222 0.10597 0.25072 0.0
H563 H 0.80137 0.00759 0.30872 0.0
H564 H 0.83419 0.02704 0.27234 0.0
H565 H 0.93071 0.08826 0.28873 0.0
H566 H 0.97268 0.2016 0.1915 0.0
H567 H 0.95025 0.17027 0.22781 0.0
H568 H 0.86556 0.10072 0.20907 0.0
C569 C 0.83903 0.03917 0.29031 0.0
C570 C 0.91609 0.09098 0.27152 0.0
C571 C 0.82034 0.02787 0.31119 0.0
C572 C 0.96037 0.17682 0.18855 0.0
C573 C 0.94771 0.15882 0.20935 0.0
C574 C 0.88014 0.09774 0.22629 0.0
C575 C 0.86349 0.06588 0.29259 0.0
C576 C 0.88156 0.07975 0.27007 0.0
C577 C 0.93057 0.12715 0.20621 0.0
C578 C 0.91432 0.10967 0.22795 0.0
H579 H 0.85592 0.0807 0.35537 0.0
H580 H 0.8877 0.10117 0.31891 0.0
H581 H 0.83711 0.07541 0.24539 0.0
H582 H 0.93704 0.11984 0.14275 0.0
H583 H 0.91466 0.08866 0.17907 0.0
loop_
_geom_bond_atom_site_label_1
_geom_bond_atom_site_label_2
_geom_bond_distance
_geom_bond_site_symmetry_2
_ccdc_geom_bond_type
C0 O1 1.160 . S
C0 O7 1.185 . S
O1 C0 1.160 . S
O2 Zn3 1.899 . S
O2 C10 1.284 1_455 S
Zn3 O2 1.899 . S
Zn3 O4 2.032 . S
Zn3 O7 2.086 . S
Zn3 O12 1.977 . S
O4 Zn3 2.032 . S
O4 C8 1.278 . S
C5 O6 1.203 . S
C5 O12 1.267 . S
O6 C5 1.203 . S
O7 C0 1.185 . S
O7 Zn3 2.086 . S
C8 O4 1.278 . S
C8 O9 1.211 . S
O9 C8 1.211 . S
C10 O2 1.284 1_655 S
C10 O11 1.273 1_655 S
O11 C10 1.273 1_455 S
O12 Zn3 1.977 . S
O12 C5 1.267 . S
C13 O14 1.160 . S
C13 O20 1.185 . S
O14 C13 1.160 . S
O15 Zn16 1.899 . S
O15 C23 1.284 1_565 S
Zn16 O15 1.899 . S
Zn16 O17 2.032 . S
Zn16 O20 2.086 . S
Zn16 O25 1.977 . S
O17 Zn16 2.032 . S
O17 C21 1.278 . S
C18 O19 1.203 . S
C18 O25 1.267 . S
O19 C18 1.203 . S
O20 C13 1.185 . S
O20 Zn16 2.086 . S
C21 O17 1.278 . S
C21 O22 1.211 . S
O22 C21 1.211 . S
C23 O15 1.284 1_545 S
C23 O24 1.273 1_545 S
O24 C23 1.273 1_565 S
O25 Zn16 1.977 . S
O25 C18 1.267 . S
C26 O27 1.160 . S
C26 O33 1.185 . S
O27 C26 1.160 . S
O28 Zn29 1.899 . S
O28 C36 1.284 1_655 S
Zn29 O28 1.899 . S
Zn29 O30 2.032 . S
Zn29 O33 2.086 . S
Zn29 O38 1.977 . S
O30 Zn29 2.032 . S
O30 C34 1.278 . S
C31 O32 1.203 . S
C31 O38 1.267 . S
O32 C31 1.203 . S
O33 C26 1.185 . S
O33 Zn29 2.086 . S
C34 O30 1.278 . S
C34 O35 1.211 . S
O35 C34 1.211 . S
C36 O28 1.284 1_455 S
C36 O37 1.273 1_455 S
O37 C36 1.273 1_655 S
O38 Zn29 1.977 . S
O38 C31 1.267 . S
C39 O40 1.160 . S
C39 O46 1.185 . S
O40 C39 1.160 . S
O41 Zn42 1.899 . S
O41 C49 1.284 1_545 S
Zn42 O41 1.899 . S
Zn42 O43 2.032 . S
Zn42 O46 2.086 . S
Zn42 O51 1.977 . S
O43 Zn42 2.032 . S
O43 C47 1.278 . S
C44 O45 1.203 . S
C44 O51 1.267 . S
O45 C44 1.203 . S
O46 C39 1.185 . S
O46 Zn42 2.086 . S
C47 O43 1.278 . S
C47 O48 1.211 . S
O48 C47 1.211 . S
C49 O41 1.284 1_565 S
C49 O50 1.273 1_565 S
O50 C49 1.273 1_545 S
O51 Zn42 1.977 . S
O51 C44 1.267 . S
C52 O53 1.160 . S
C52 O59 1.185 . S
O53 C52 1.160 . S
O54 Zn55 1.899 . S
O54 C62 1.284 1_655 S
Zn55 O54 1.899 . S
Zn55 O56 2.032 . S
Zn55 O59 2.086 . S
Zn55 O64 1.977 . S
O56 Zn55 2.032 . S
O56 C60 1.278 . S
C57 O58 1.203 . S
C57 O64 1.267 . S
O58 C57 1.203 . S
O59 C52 1.185 . S
O59 Zn55 2.086 . S
C60 O56 1.278 . S
C60 O61 1.211 . S
O61 C60 1.211 . S
C62 O54 1.284 1_455 S
C62 O63 1.273 1_455 S
O63 C62 1.273 1_655 S
O64 Zn55 1.977 . S
O64 C57 1.267 . S
C65 O66 1.160 . S
C65 O72 1.185 . S
O66 C65 1.160 . S
O67 Zn68 1.899 . S
O67 C75 1.284 1_545 S
Zn68 O67 1.899 . S
Zn68 O69 2.032 . S
Zn68 O72 2.086 . S
Zn68 O77 1.977 . S
O69 Zn68 2.032 . S
O69 C73 1.278 . S
C70 O71 1.203 . S
C70 O77 1.267 . S
O71 C70 1.203 . S
O72 C65 1.185 . S
O72 Zn68 2.086 . S
C73 O69 1.278 . S
C73 O74 1.211 . S
O74 C73 1.211 . S
C75 O67 1.284 1_565 S
C75 O76 1.273 1_565 S
O76 C75 1.273 1_545 S
O77 Zn68 1.977 . S
O77 C70 1.267 . S
C78 O79 1.160 . S
C78 O85 1.185 . S
O79 C78 1.160 . S
O80 Zn81 1.899 . S
O80 C88 1.284 1_455 S
Zn81 O80 1.899 . S
Zn81 O82 2.032 . S
Zn81 O85 2.086 . S
Zn81 O90 1.977 . S
O82 Zn81 2.032 . S
O82 C86 1.278 . S
C83 O84 1.203 . S
C83 O90 1.267 . S
O84 C83 1.203 . S
O85 C78 1.185 . S
O85 Zn81 2.086 . S
C86 O82 1.278 . S
C86 O87 1.211 . S
O87 C86 1.211 . S
C88 O80 1.284 1_655 S
C88 O89 1.273 1_655 S
O89 C88 1.273 1_455 S
O90 Zn81 1.977 . S
O90 C83 1.267 . S
C91 O92 1.160 . S
C91 O98 1.185 . S
O92 C91 1.160 . S
O93 Zn94 1.899 . S
O93 C101 1.284 1_565 S
Zn94 O93 1.899 . S
Zn94 O95 2.032 . S
Zn94 O98 2.086 . S
Zn94 O103 1.977 . S
O95 Zn94 2.032 . S
O95 C99 1.278 . S
C96 O97 1.203 . S
C96 O103 1.267 . S
O97 C96 1.203 . S
O98 C91 1.185 . S
O98 Zn94 2.086 . S
C99 O95 1.278 . S
C99 O100 1.211 . S
O100 C99 1.211 . S
C101 O93 1.284 1_545 S
C101 O102 1.273 1_545 S
O102 C101 1.273 1_565 S
O103 Zn94 1.977 . S
O103 C96 1.267 . S
C104 C105 1.349 . S
C104 C106 1.327 . S
C104 H129 0.950 . S
C105 C104 1.349 . S
C105 C121 1.349 . S
C106 C104 1.327 . S
C106 C125 1.429 . S
C106 H130 0.950 1_655 S
C107 C124 1.574 . S
C107 C126 1.368 . S
C107 H131 0.949 . S
H108 C112 0.949 . S
C109 C110 1.349 . S
C109 C111 1.327 . S
C109 H132 0.950 . S
C110 C109 1.349 . S
C110 C122 1.349 . S
C111 C109 1.327 . S
C111 C127 1.429 . S
C111 H133 0.950 1_455 S
C112 H108 0.949 . S
C112 C120 1.574 . S
C112 C128 1.368 . S
H113 C121 0.950 . S
H114 C119 0.950 . S
H115 C120 0.949 . S
H116 C122 0.950 . S
H117 C123 0.950 . S
H118 C124 0.949 . S
C119 H114 0.950 . S
C119 C121 1.327 . S
C119 C125 1.429 . S
C120 C112 1.574 . S
C120 H115 0.949 . S
C120 C126 1.368 1_455 S
C121 C105 1.349 . S
C121 H113 0.950 . S
C121 C119 1.327 . S
C122 C110 1.349 . S
C122 H116 0.950 . S
C122 C123 1.327 . S
C123 H117 0.950 . S
C123 C122 1.327 . S
C123 C127 1.429 . S
C124 C107 1.574 . S
C124 H118 0.949 . S
C124 C128 1.368 1_655 S
C125 C106 1.429 . S
C125 C119 1.429 . S
C125 C126 1.523 . S
C126 C107 1.368 . S
C126 C120 1.368 1_655 S
C126 C125 1.523 . S
C127 C111 1.429 . S
C127 C123 1.429 . S
C127 C128 1.523 . S
C128 C112 1.368 . S
C128 C124 1.368 1_455 S
C128 C127 1.523 . S
H129 C104 0.950 . S
H130 C106 0.950 1_455 S
H131 C107 0.949 . S
H132 C109 0.950 . S
H133 C111 0.950 1_655 S
C134 C135 1.349 . S
C134 C136 1.327 . S
C134 H159 0.950 . S
C135 C134 1.349 . S
C135 C151 1.349 . S
C136 C134 1.327 . S
C136 C155 1.429 . S
C136 H160 0.950 1_545 S
C137 C154 1.574 . S
C137 C156 1.368 . S
C137 H161 0.949 . S
H138 C142 0.949 . S
C139 C140 1.349 . S
C139 C141 1.327 . S
C139 H162 0.950 . S
C140 C139 1.349 . S
C140 C152 1.349 . S
C141 C139 1.327 . S
C141 C157 1.429 . S
C141 H163 0.950 1_565 S
C142 H138 0.949 . S
C142 C150 1.574 . S
C142 C158 1.368 . S
H143 C151 0.950 . S
H144 C149 0.950 . S
H145 C150 0.949 . S
H146 C152 0.950 . S
H147 C153 0.950 . S
H148 C154 0.949 . S
C149 H144 0.950 . S
C149 C151 1.327 . S
C149 C155 1.429 . S
C150 C142 1.574 . S
C150 H145 0.949 . S
C150 C156 1.368 1_565 S
C151 C135 1.349 . S
C151 H143 0.950 . S
C151 C149 1.327 . S
C152 C140 1.349 . S
C152 H146 0.950 . S
C152 C153 1.327 . S
C153 H147 0.950 . S
C153 C152 1.327 . S
C153 C157 1.429 . S
C154 C137 1.574 . S
C154 H148 0.949 . S
C154 C158 1.368 1_545 S
C155 C136 1.429 . S
C155 C149 1.429 . S
C155 C156 1.523 . S
C156 C137 1.368 . S
C156 C150 1.368 1_545 S
C156 C155 1.523 . S
C157 C141 1.429 . S
C157 C153 1.429 . S
C157 C158 1.523 . S
C158 C142 1.368 . S
C158 C154 1.368 1_565 S
C158 C157 1.523 . S
H159 C134 0.950 . S
H160 C136 0.950 1_565 S
H161 C137 0.949 . S
H162 C139 0.950 . S
H163 C141 0.950 1_545 S
C164 C165 1.349 . S
C164 C166 1.327 . S
C164 H189 0.950 . S
C165 C164 1.349 . S
C165 C181 1.349 . S
C166 C164 1.327 . S
C166 C185 1.429 . S
C166 H190 0.950 . S
C167 C184 1.574 . S
C167 C186 1.368 1_455 S
C167 H191 0.949 . S
H168 C172 0.949 . S
C169 C170 1.349 . S
C169 C171 1.327 . S
C169 H192 0.950 . S
C170 C169 1.349 . S
C170 C182 1.349 . S
C171 C169 1.327 . S
C171 C187 1.429 . S
C171 H193 0.950 . S
C172 H168 0.949 . S
C172 C180 1.574 . S
C172 C188 1.368 1_655 S
H173 C181 0.950 . S
H174 C179 0.950 1_455 S
H175 C180 0.949 . S
H176 C182 0.950 . S
H177 C183 0.950 1_655 S
H178 C184 0.949 . S
C179 H174 0.950 1_655 S
C179 C181 1.327 . S
C179 C185 1.429 . S
C180 C172 1.574 . S
C180 H175 0.949 . S
C180 C186 1.368 . S
C181 C165 1.349 . S
C181 H173 0.950 . S
C181 C179 1.327 . S
C182 C170 1.349 . S
C182 H176 0.950 . S
C182 C183 1.327 . S
C183 H177 0.950 1_455 S
C183 C182 1.327 . S
C183 C187 1.429 . S
C184 C167 1.574 . S
C184 H178 0.949 . S
C184 C188 1.368 . S
C185 C166 1.429 . S
C185 C179 1.429 . S
C185 C186 1.523 . S
C186 C167 1.368 1_655 S
C186 C180 1.368 . S
C186 C185 1.523 . S
C187 C171 1.429 . S
C187 C183 1.429 . S
C187 C188 1.523 . S
C188 C172 1.368 1_455 S
C188 C184 1.368 . S
C188 C187 1.523 . S
H189 C164 0.950 . S
H190 C166 0.950 . S
H191 C167 0.949 . S
H192 C169 0.950 . S
H193 C171 0.950 . S
C194 C195 1.349 . S
C194 C196 1.327 . S
C194 H219 0.950 . S
C195 C194 1.349 . S
C195 C211 1.349 . S
C196 C194 1.327 . S
C196 C215 1.429 . S
C196 H220 0.950 1_545 S
C197 C214 1.574 . S
C197 C216 1.368 . S
C197 H221 0.949 . S
H198 C202 0.949 . S
C199 C200 1.349 . S
C199 C201 1.327 . S
C199 H222 0.950 . S
C200 C199 1.349 . S
C200 C212 1.349 . S
C201 C199 1.327 . S
C201 C217 1.429 . S
C201 H223 0.950 1_565 S
C202 H198 0.949 . S
C202 C210 1.574 . S
C202 C218 1.368 . S
H203 C211 0.950 . S
H204 C209 0.950 . S
H205 C210 0.949 . S
H206 C212 0.950 . S
H207 C213 0.950 . S
H208 C214 0.949 . S
C209 H204 0.950 . S
C209 C211 1.327 . S
C209 C215 1.429 . S
C210 C202 1.574 . S
C210 H205 0.949 . S
C210 C216 1.368 1_565 S
C211 C195 1.349 . S
C211 H203 0.950 . S
C211 C209 1.327 . S
C212 C200 1.349 . S
C212 H206 0.950 . S
C212 C213 1.327 . S
C213 H207 0.950 . S
C213 C212 1.327 . S
C213 C217 1.429 . S
C214 C197 1.574 . S
C214 H208 0.949 . S
C214 C218 1.368 1_545 S
C215 C196 1.429 . S
C215 C209 1.429 . S
C215 C216 1.523 . S
C216 C197 1.368 . S
C216 C210 1.368 1_545 S
C216 C215 1.523 . S
C217 C201 1.429 . S
C217 C213 1.429 . S
C217 C218 1.523 . S
C218 C202 1.368 . S
C218 C214 1.368 1_565 S
C218 C217 1.523 . S
H219 C194 0.950 . S
H220 C196 0.950 1_565 S
H221 C197 0.949 . S
H222 C199 0.950 . S
H223 C201 0.950 1_545 S
C224 C225 1.349 . S
C224 C226 1.327 . S
C224 H249 0.950 . S
C225 C224 1.349 . S
C225 C241 1.349 . S
C226 C224 1.327 . S
C226 C245 1.429 . S
C226 H250 0.950 . S
C227 C244 1.574 . S
C227 C246 1.368 . S
C227 H251 0.949 . S
H228 C232 0.949 . S
C229 C230 1.349 . S
C229 C231 1.327 . S
C229 H252 0.950 . S
C230 C229 1.349 . S
C230 C242 1.349 . S
C231 C229 1.327 . S
C231 C247 1.429 . S
C231 H253 0.950 . S
C232 H228 0.949 . S
C232 C240 1.574 . S
C232 C248 1.368 . S
H233 C241 0.950 . S
H234 C239 0.950 . S
H235 C240 0.949 . S
H236 C242 0.950 . S
H237 C243 0.950 . S
H238 C244 0.949 . S
C239 H234 0.950 . S
C239 C241 1.327 . S
C239 C245 1.429 . S
C240 C232 1.574 . S
C240 H235 0.949 . S
C240 C246 1.368 . S
C241 C225 1.349 . S
C241 H233 0.950 . S
C241 C239 1.327 . S
C242 C230 1.349 . S
C242 H236 0.950 . S
C242 C243 1.327 . S
C243 H237 0.950 . S
C243 C242 1.327 . S
C243 C247 1.429 . S
C244 C227 1.574 . S
C244 H238 0.949 . S
C244 C248 1.368 . S
C245 C226 1.429 . S
C245 C239 1.429 . S
C245 C246 1.523 . S
C246 C227 1.368 . S
C246 C240 1.368 . S
C246 C245 1.523 . S
C247 C231 1.429 . S
C247 C243 1.429 . S
C247 C248 1.523 . S
C248 C232 1.368 . S
C248 C244 1.368 . S
C248 C247 1.523 . S
H249 C224 0.950 . S
H250 C226 0.950 . S
H251 C227 0.949 . S
H252 C229 0.950 . S
H253 C231 0.950 . S
C254 C255 1.349 . S
C254 C256 1.327 . S
C254 H279 0.950 . S
C255 C254 1.349 . S
C255 C271 1.349 . S
C256 C254 1.327 . S
C256 C275 1.429 . S
C256 H280 0.950 . S
C257 C274 1.574 . S
C257 C276 1.368 . S
C257 H281 0.949 . S
H258 C262 0.949 . S
C259 C260 1.349 . S
C259 C261 1.327 . S
C259 H282 0.950 . S
C260 C259 1.349 . S
C260 C272 1.349 . S
C261 C259 1.327 . S
C261 C277 1.429 . S
C261 H283 0.950 . S
C262 H258 0.949 . S
C262 C270 1.574 . S
C262 C278 1.368 . S
H263 C271 0.950 . S
H264 C269 0.950 . S
H265 C270 0.949 . S
H266 C272 0.950 . S
H267 C273 0.950 . S
H268 C274 0.949 . S
C269 H264 0.950 . S
C269 C271 1.327 . S
C269 C275 1.429 . S
C270 C262 1.574 . S
C270 H265 0.949 . S
C270 C276 1.368 . S
C271 C255 1.349 . S
C271 H263 0.950 . S
C271 C269 1.327 . S
C272 C260 1.349 . S
C272 H266 0.950 . S
C272 C273 1.327 . S
C273 H267 0.950 . S
C273 C272 1.327 . S
C273 C277 1.429 . S
C274 C257 1.574 . S
C274 H268 0.949 . S
C274 C278 1.368 . S
C275 C256 1.429 . S
C275 C269 1.429 . S
C275 C276 1.523 . S
C276 C257 1.368 . S
C276 C270 1.368 . S
C276 C275 1.523 . S
C277 C261 1.429 . S
C277 C273 1.429 . S
C277 C278 1.523 . S
C278 C262 1.368 . S
C278 C274 1.368 . S
C278 C277 1.523 . S
H279 C254 0.950 . S
H280 C256 0.950 . S
H281 C257 0.949 . S
H282 C259 0.950 . S
H283 C261 0.950 . S
C284 C285 1.349 . S
C284 C286 1.327 . S
C284 H309 0.950 . S
C285 C284 1.349 . S
C285 C301 1.349 . S
C286 C284 1.327 . S
C286 C305 1.429 . S
C286 H310 0.950 . S
C287 C304 1.574 . S
C287 C306 1.368 . S
C287 H311 0.949 . S
H288 C292 0.949 . S
C289 C290 1.349 . S
C289 C291 1.327 . S
C289 H312 0.950 . S
C290 C289 1.349 . S
C290 C302 1.349 . S
C291 C289 1.327 . S
C291 C307 1.429 . S
C291 H313 0.950 . S
C292 H288 0.949 . S
C292 C300 1.574 . S
C292 C308 1.368 . S
H293 C301 0.950 . S
H294 C299 0.950 . S
H295 C300 0.949 . S
H296 C302 0.950 . S
H297 C303 0.950 . S
H298 C304 0.949 . S
C299 H294 0.950 . S
C299 C301 1.327 . S
C299 C305 1.429 . S
C300 C292 1.574 . S
C300 H295 0.949 . S
C300 C306 1.368 . S
C301 C285 1.349 . S
C301 H293 0.950 . S
C301 C299 1.327 . S
C302 C290 1.349 . S
C302 H296 0.950 . S
C302 C303 1.327 . S
C303 H297 0.950 . S
C303 C302 1.327 . S
C303 C307 1.429 . S
C304 C287 1.574 . S
C304 H298 0.949 . S
C304 C308 1.368 . S
C305 C286 1.429 . S
C305 C299 1.429 . S
C305 C306 1.523 . S
C306 C287 1.368 . S
C306 C300 1.368 . S
C306 C305 1.523 . S
C307 C291 1.429 . S
C307 C303 1.429 . S
C307 C308 1.523 . S
C308 C292 1.368 . S
C308 C304 1.368 . S
C308 C307 1.523 . S
H309 C284 0.950 . S
H310 C286 0.950 . S
H311 C287 0.949 . S
H312 C289 0.950 . S
H313 C291 0.950 . S
C314 C315 1.349 . S
C314 C316 1.327 . S
C314 H339 0.950 . S
C315 C314 1.349 . S
C315 C331 1.349 . S
C316 C314 1.327 . S
C316 C335 1.429 . S
C316 H340 0.950 . S
C317 C334 1.574 . S
C317 C336 1.368 . S
C317 H341 0.949 . S
H318 C322 0.949 . S
C319 C320 1.349 . S
C319 C321 1.327 . S
C319 H342 0.950 . S
C320 C319 1.349 . S
C320 C332 1.349 . S
C321 C319 1.327 . S
C321 C337 1.429 . S
C321 H343 0.950 . S
C322 H318 0.949 . S
C322 C330 1.574 . S
C322 C338 1.368 . S
H323 C331 0.950 . S
H324 C329 0.950 . S
H325 C330 0.949 . S
H326 C332 0.950 . S
H327 C333 0.950 . S
H328 C334 0.949 . S
C329 H324 0.950 . S
C329 C331 1.327 . S
C329 C335 1.429 . S
C330 C322 1.574 . S
C330 H325 0.949 . S
C330 C336 1.368 . S
C331 C315 1.349 . S
C331 H323 0.950 . S
C331 C329 1.327 . S
C332 C320 1.349 . S
C332 H326 0.950 . S
C332 C333 1.327 . S
C333 H327 0.950 . S
C333 C332 1.327 . S
C333 C337 1.429 . S
C334 C317 1.574 . S
C334 H328 0.949 . S
C334 C338 1.368 . S
C335 C316 1.429 . S
C335 C329 1.429 . S
C335 C336 1.523 . S
C336 C317 1.368 . S
C336 C330 1.368 . S
C336 C335 1.523 . S
C337 C321 1.429 . S
C337 C333 1.429 . S
C337 C338 1.523 . S
C338 C322 1.368 . S
C338 C334 1.368 . S
C338 C337 1.523 . S
H339 C314 0.950 . S
H340 C316 0.950 . S
H341 C317 0.949 . S
H342 C319 0.950 . S
H343 C321 0.950 . S
C344 C345 1.349 . S
C344 C346 1.327 . S
C344 H369 0.950 . S
C345 C344 1.349 . S
C345 C361 1.349 . S
C346 C344 1.327 . S
C346 C365 1.429 . S
C346 H370 0.950 . S
C347 C364 1.574 1_556 S
C347 C366 1.368 . S
C347 H371 0.949 . S
H348 C352 0.949 . S
C349 C350 1.349 . S
C349 C351 1.327 . S
C349 H372 0.950 . S
C350 C349 1.349 . S
C350 C362 1.349 . S
C351 C349 1.327 . S
C351 C367 1.429 . S
C351 H373 0.950 . S
C352 H348 0.949 . S
C352 C360 1.574 . S
C352 C368 1.368 1_556 S
H353 C361 0.950 1_565 S
H354 C359 0.950 . S
H355 C360 0.949 . S
H356 C362 0.950 . S
H357 C363 0.950 . S
H358 C364 0.949 . S
C359 H354 0.950 . S
C359 C361 1.327 . S
C359 C365 1.429 . S
C360 C352 1.574 . S
C360 H355 0.949 . S
C360 C366 1.368 . S
C361 C345 1.349 . S
C361 H353 0.950 1_545 S
C361 C359 1.327 . S
C362 C350 1.349 . S
C362 H356 0.950 . S
C362 C363 1.327 . S
C363 H357 0.950 . S
C363 C362 1.327 . S
C363 C367 1.429 . S
C364 C347 1.574 1_554 S
C364 H358 0.949 . S
C364 C368 1.368 . S
C365 C346 1.429 . S
C365 C359 1.429 . S
C365 C366 1.523 . S
C366 C347 1.368 . S
C366 C360 1.368 . S
C366 C365 1.523 . S
C367 C351 1.429 . S
C367 C363 1.429 . S
C367 C368 1.523 . S
C368 C352 1.368 1_554 S
C368 C364 1.368 . S
C368 C367 1.523 . S
H369 C344 0.950 . S
H370 C346 0.950 . S
H371 C347 0.949 . S
H372 C349 0.950 . S
H373 C351 0.950 . S
C374 C375 1.349 . S
C374 C376 1.327 . S
C374 H399 0.950 . S
C375 C374 1.349 . S
C375 C391 1.349 . S
C376 C374 1.327 . S
C376 C395 1.429 . S
C376 H400 0.950 . S
C377 C394 1.574 1_556 S
C377 C396 1.368 . S
C377 H401 0.949 . S
H378 C382 0.949 . S
C379 C380 1.349 . S
C379 C381 1.327 . S
C379 H402 0.950 . S
C380 C379 1.349 . S
C380 C392 1.349 . S
C381 C379 1.327 . S
C381 C397 1.429 . S
C381 H403 0.950 . S
C382 H378 0.949 . S
C382 C390 1.574 . S
C382 C398 1.368 . S
H383 C391 0.950 . S
H384 C389 0.950 . S
H385 C390 0.949 . S
H386 C392 0.950 . S
H387 C393 0.950 . S
H388 C394 0.956 . S
C389 H384 0.950 . S
C389 C391 1.327 . S
C389 C395 1.429 . S
C390 C382 1.574 . S
C390 H385 0.949 . S
C390 C396 1.368 1_554 S
C391 C375 1.349 . S
C391 H383 0.950 . S
C391 C389 1.327 . S
C392 C380 1.349 . S
C392 H386 0.950 . S
C392 C393 1.327 . S
C393 H387 0.950 . S
C393 C392 1.327 . S
C393 C397 1.429 . S
C394 C377 1.574 1_554 S
C394 H388 0.956 . S
C394 C398 1.368 . S
C395 C376 1.429 . S
C395 C389 1.429 . S
C395 C396 1.523 . S
C396 C377 1.368 . S
C396 C390 1.368 1_556 S
C396 C395 1.523 . S
C397 C381 1.429 . S
C397 C393 1.429 . S
C397 C398 1.523 . S
C398 C382 1.368 . S
C398 C394 1.368 . S
C398 C397 1.523 . S
H399 C374 0.950 . S
H400 C376 0.950 . S
H401 C377 0.949 . S
H402 C379 0.950 . S
H403 C381 0.950 . S
C404 C405 1.349 . S
C404 C406 1.327 . S
C404 H429 0.950 . S
C405 C404 1.349 . S
C405 C421 1.349 . S
C406 C404 1.327 . S
C406 C425 1.429 . S
C406 H430 0.950 . S
C407 C424 1.574 1_554 S
C407 C426 1.368 . S
C407 H431 0.949 . S
H408 C412 0.949 . S
C409 C410 1.349 . S
C409 C411 1.327 . S
C409 H432 0.950 1_565 S
C410 C409 1.349 . S
C410 C422 1.349 . S
C411 C409 1.327 . S
C411 C427 1.429 . S
C411 H433 0.950 . S
C412 H408 0.949 . S
C412 C420 1.574 . S
C412 C428 1.368 . S
H413 C421 0.950 . S
H414 C419 0.950 . S
H415 C420 0.949 . S
H416 C422 0.950 . S
H417 C423 0.950 . S
H418 C424 0.949 . S
C419 H414 0.950 . S
C419 C421 1.327 . S
C419 C425 1.429 . S
C420 C412 1.574 . S
C420 H415 0.949 . S
C420 C426 1.368 1_556 S
C421 C405 1.349 . S
C421 H413 0.950 . S
C421 C419 1.327 . S
C422 C410 1.349 . S
C422 H416 0.950 . S
C422 C423 1.327 . S
C423 H417 0.950 . S
C423 C422 1.327 . S
C423 C427 1.429 . S
C424 C407 1.574 1_556 S
C424 H418 0.949 . S
C424 C428 1.368 . S
C425 C406 1.429 . S
C425 C419 1.429 . S
C425 C426 1.523 . S
C426 C407 1.368 . S
C426 C420 1.368 1_554 S
C426 C425 1.523 . S
C427 C411 1.429 . S
C427 C423 1.429 . S
C427 C428 1.523 . S
C428 C412 1.368 . S
C428 C424 1.368 . S
C428 C427 1.523 . S
H429 C404 0.950 . S
H430 C406 0.950 . S
H431 C407 0.949 . S
H432 C409 0.950 1_545 S
H433 C411 0.950 . S
C434 C435 1.349 . S
C434 C436 1.327 . S
C434 H459 0.950 . S
C435 C434 1.349 . S
C435 C451 1.349 . S
C436 C434 1.327 . S
C436 C455 1.429 . S
C436 H460 0.950 . S
C437 C454 1.574 . S
C437 C456 1.368 1_554 S
C437 H461 0.949 . S
H438 C442 0.949 1_556 S
C439 C440 1.349 . S
C439 C441 1.327 . S
C439 H462 0.950 . S
C440 C439 1.349 . S
C440 C452 1.349 . S
C441 C439 1.327 . S
C441 C457 1.429 . S
C441 H463 0.950 . S
C442 H438 0.949 1_554 S
C442 C450 1.574 1_554 S
C442 C458 1.368 . S
H443 C451 0.950 . S
H444 C449 0.962 . S
H445 C450 0.949 . S
H446 C452 0.950 . S
H447 C453 0.950 . S
H448 C454 0.949 . S
C449 H444 0.962 . S
C449 C451 1.327 . S
C449 C455 1.429 . S
C450 C442 1.574 1_556 S
C450 H445 0.949 . S
C450 C456 1.368 . S
C451 C435 1.349 . S
C451 H443 0.950 . S
C451 C449 1.327 . S
C452 C440 1.349 . S
C452 H446 0.950 . S
C452 C453 1.327 . S
C453 H447 0.950 . S
C453 C452 1.327 . S
C453 C457 1.429 . S
C454 C437 1.574 . S
C454 H448 0.949 . S
C454 C458 1.368 . S
C455 C436 1.429 . S
C455 C449 1.429 . S
C455 C456 1.523 . S
C456 C437 1.368 1_556 S
C456 C450 1.368 . S
C456 C455 1.523 . S
C457 C441 1.429 . S
C457 C453 1.429 . S
C457 C458 1.523 . S
C458 C442 1.368 . S
C458 C454 1.368 . S
C458 C457 1.523 . S
H459 C434 0.950 . S
H460 C436 0.950 . S
H461 C437 0.949 . S
H462 C439 0.950 . S
H463 C441 0.950 . S
C464 C465 1.349 . S
C464 C466 1.327 . S
C464 H489 0.950 . S
C465 C464 1.349 . S
C465 C481 1.349 . S
C466 C464 1.327 . S
C466 C485 1.429 . S
C466 H490 0.950 . S
C467 C484 1.574 . S
C467 C486 1.368 . S
C467 H491 0.949 . S
H468 C472 0.949 . S
C469 C470 1.349 . S
C469 C471 1.327 . S
C469 H492 0.950 . S
C470 C469 1.349 . S
C470 C482 1.349 . S
C471 C469 1.327 . S
C471 C487 1.429 . S
C471 H493 0.950 . S
C472 H468 0.949 . S
C472 C480 1.574 . S
C472 C488 1.368 . S
H473 C481 0.950 . S
H474 C479 0.950 . S
H475 C480 0.949 . S
H476 C482 0.950 . S
H477 C483 0.950 . S
H478 C484 0.949 . S
C479 H474 0.950 . S
C479 C481 1.327 . S
C479 C485 1.429 . S
C480 C472 1.574 . S
C480 H475 0.949 . S
C480 C486 1.368 . S
C481 C465 1.349 . S
C481 H473 0.950 . S
C481 C479 1.327 . S
C482 C470 1.349 . S
C482 H476 0.950 . S
C482 C483 1.327 . S
C483 H477 0.950 . S
C483 C482 1.327 . S
C483 C487 1.429 . S
C484 C467 1.574 . S
C484 H478 0.949 . S
C484 C488 1.368 . S
C485 C466 1.429 . S
C485 C479 1.429 . S
C485 C486 1.523 . S
C486 C467 1.368 . S
C486 C480 1.368 . S
C486 C485 1.523 . S
C487 C471 1.429 . S
C487 C483 1.429 . S
C487 C488 1.523 . S
C488 C472 1.368 . S
C488 C484 1.368 . S
C488 C487 1.523 . S
H489 C464 0.950 . S
H490 C466 0.950 . S
H491 C467 0.949 . S
H492 C469 0.950 . S
H493 C471 0.950 . S
C494 C495 1.349 . S
C494 C496 1.327 . S
C494 H519 0.950 . S
C495 C494 1.349 . S
C495 C511 1.349 . S
C496 C494 1.327 . S
C496 C515 1.429 . S
C496 H520 0.950 . S
C497 C514 1.574 . S
C497 C516 1.368 . S
C497 H521 0.949 . S
H498 C502 0.949 . S
C499 C500 1.349 . S
C499 C501 1.327 . S
C499 H522 0.950 . S
C500 C499 1.349 . S
C500 C512 1.349 . S
C501 C499 1.327 . S
C501 C517 1.429 . S
C501 H523 0.950 . S
C502 H498 0.949 . S
C502 C510 1.574 . S
C502 C518 1.368 . S
H503 C511 0.950 . S
H504 C509 0.950 . S
H505 C510 0.949 . S
H506 C512 0.950 . S
H507 C513 0.950 . S
H508 C514 0.949 . S
C509 H504 0.950 . S
C509 C511 1.327 . S
C509 C515 1.429 . S
C510 C502 1.574 . S
C510 H505 0.949 . S
C510 C516 1.368 . S
C511 C495 1.349 . S
C511 H503 0.950 . S
C511 C509 1.327 . S
C512 C500 1.349 . S
C512 H506 0.950 . S
C512 C513 1.327 . S
C513 H507 0.950 . S
C513 C512 1.327 . S
C513 C517 1.429 . S
C514 C497 1.574 . S
C514 H508 0.949 . S
C514 C518 1.368 . S
C515 C496 1.429 . S
C515 C509 1.429 . S
C515 C516 1.523 . S
C516 C497 1.368 . S
C516 C510 1.368 . S
C516 C515 1.523 . S
C517 C501 1.429 . S
C517 C513 1.429 . S
C517 C518 1.523 . S
C518 C502 1.368 . S
C518 C514 1.368 . S
C518 C517 1.523 . S
H519 C494 0.950 . S
H520 C496 0.950 . S
H521 C497 0.949 . S
H522 C499 0.950 . S
H523 C501 0.950 . S
C524 C525 1.349 . S
C524 C526 1.327 . S
C524 H549 0.950 . S
C525 C524 1.349 . S
C525 C541 1.349 . S
C526 C524 1.327 . S
C526 C545 1.429 . S
C526 H550 0.950 . S
C527 C544 1.574 . S
C527 C546 1.368 . S
C527 H551 0.949 . S
H528 C532 0.949 . S
C529 C530 1.349 . S
C529 C531 1.327 . S
C529 H552 0.950 . S
C530 C529 1.349 . S
C530 C542 1.349 . S
C531 C529 1.327 . S
C531 C547 1.429 . S
C531 H553 0.950 . S
C532 H528 0.949 . S
C532 C540 1.574 . S
C532 C548 1.368 . S
H533 C541 0.950 . S
H534 C539 0.950 . S
H535 C540 0.949 . S
H536 C542 0.950 . S
H537 C543 0.950 . S
H538 C544 0.949 . S
C539 H534 0.950 . S
C539 C541 1.327 . S
C539 C545 1.429 . S
C540 C532 1.574 . S
C540 H535 0.949 . S
C540 C546 1.368 . S
C541 C525 1.349 . S
C541 H533 0.950 . S
C541 C539 1.327 . S
C542 C530 1.349 . S
C542 H536 0.950 . S
C542 C543 1.327 . S
C543 H537 0.950 . S
C543 C542 1.327 . S
C543 C547 1.429 . S
C544 C527 1.574 . S
C544 H538 0.949 . S
C544 C548 1.368 . S
C545 C526 1.429 . S
C545 C539 1.429 . S
C545 C546 1.523 . S
C546 C527 1.368 . S
C546 C540 1.368 . S
C546 C545 1.523 . S
C547 C531 1.429 . S
C547 C543 1.429 . S
C547 C548 1.523 . S
C548 C532 1.368 . S
C548 C544 1.368 . S
C548 C547 1.523 . S
H549 C524 0.950 . S
H550 C526 0.950 . S
H551 C527 0.949 . S
H552 C529 0.950 . S
H553 C531 0.950 . S
C554 C555 1.349 . S
C554 C556 1.327 . S
C554 H579 0.950 . S
C555 C554 1.349 . S
C555 C571 1.349 . S
C556 C554 1.327 . S
C556 C575 1.429 . S
C556 H580 0.950 . S
C557 C574 1.574 . S
C557 C576 1.368 . S
C557 H581 0.949 . S
H558 C562 0.949 . S
C559 C560 1.349 . S
C559 C561 1.327 . S
C559 H582 0.950 . S
C560 C559 1.349 . S
C560 C572 1.349 . S
C561 C559 1.327 . S
C561 C577 1.429 . S
C561 H583 0.950 . S
C562 H558 0.949 . S
C562 C570 1.574 . S
C562 C578 1.368 . S
H563 C571 0.950 . S
H564 C569 0.950 . S
H565 C570 0.949 . S
H566 C572 0.950 . S
H567 C573 0.950 . S
H568 C574 0.949 . S
C569 H564 0.950 . S
C569 C571 1.327 . S
C569 C575 1.429 . S
C570 C562 1.574 . S
C570 H565 0.949 . S
C570 C576 1.368 . S
C571 C555 1.349 . S
C571 H563 0.950 . S
C571 C569 1.327 . S
C572 C560 1.349 . S
C572 H566 0.950 . S
C572 C573 1.327 . S
C573 H567 0.950 . S
C573 C572 1.327 . S
C573 C577 1.429 . S
C574 C557 1.574 . S
C574 H568 0.949 . S
C574 C578 1.368 . S
C575 C556 1.429 . S
C575 C569 1.429 . S
C575 C576 1.523 . S
C576 C557 1.368 . S
C576 C570 1.368 . S
C576 C575 1.523 . S
C577 C561 1.429 . S
C577 C573 1.429 . S
C577 C578 1.523 . S
C578 C562 1.368 . S
C578 C574 1.368 . S
C578 C577 1.523 . S
H579 C554 0.950 . S
H580 C556 0.950 . S
H581 C557 0.949 . S
H582 C559 0.950 . S
H583 C561 0.950 . S
C105 C26 1.190 . S
C110 C0 1.190 . S
C135 C39 1.190 . S
C140 C13 1.190 . S
C165 C52 1.190 . S
C170 C78 1.190 . S
C195 C65 1.190 . S
C200 C91 1.190 . S
C225 C23 0.600 . S
C230 C5 0.647 . S
C255 C18 0.647 . S
C260 C36 0.600 . S
C285 C49 0.600 . S
C290 C31 0.647 . S
C315 C44 0.647 . S
C320 C10 0.600 . S
C345 C101 0.600 . S
C350 C57 0.647 . S
C375 C70 0.647 . S
C380 C62 0.600 . S
C405 C83 0.647 . S
C410 C75 0.600 . S
C435 C96 0.647 . S
C440 C88 0.600 . S
C465 C8 1.655 . S
C470 C73 1.655 . S
C495 C86 1.655 . S
C500 C21 1.655 . S
C525 C34 1.655 . S
C530 C99 1.655 . S
C555 C47 1.655 . S
C560 C60 1.655 . S
