# Generated by pormake.
# Topology yfl, (5)-cn, num edge types: 1
# Building blocks:
#     Node 0, Type 0, BuildingBlock: XOMCOT_clean_sbu_0, # of connection points: 5
#     Node 1, Type 0, BuildingBlock: XOMCOT_clean_sbu_0, # of connection points: 5
#     Node 2, Type 0, BuildingBlock: XOMCOT_clean_sbu_0, # of connection points: 5
#     Node 3, Type 0, BuildingBlock: XOMCOT_clean_sbu_0, # of connection points: 5
#     Node 4, Type 0, BuildingBlock: XOMCOT_clean_sbu_0, # of connection points: 5
#     Node 5, Type 0, BuildingBlock: XOMCOT_clean_sbu_0, # of connection points: 5
#     Node 6, Type 0, BuildingBlock: XOMCOT_clean_sbu_0, # of connection points: 5
#     Node 7, Type 0, BuildingBlock: XOMCOT_clean_sbu_0, # of connection points: 5
#     Node 8, Type 0, BuildingBlock: XOMCOT_clean_sbu_0, # of connection points: 5
#     Node 9, Type 0, BuildingBlock: XOMCOT_clean_sbu_0, # of connection points: 5
#     Node 10, Type 0, BuildingBlock: XOMCOT_clean_sbu_0, # of connection points: 5
#     Node 11, Type 0, BuildingBlock: XOMCOT_clean_sbu_0, # of connection points: 5
#     Node 12, Type 0, BuildingBlock: XOMCOT_clean_sbu_0, # of connection points: 5
#     Node 13, Type 0, BuildingBlock: XOMCOT_clean_sbu_0, # of connection points: 5
#     Node 14, Type 0, BuildingBlock: XOMCOT_clean_sbu_0, # of connection points: 5
#     Node 15, Type 0, BuildingBlock: XOMCOT_clean_sbu_0, # of connection points: 5
#     Edge 16, Type (0, 0), BuildingBlock: ZUJKAS_clean_linker_0, # of connection points: 2
#     Edge 17, Type (0, 0), BuildingBlock: ZUJKAS_clean_linker_0, # of connection points: 2
#     Edge 18, Type (0, 0), BuildingBlock: ZUJKAS_clean_linker_0, # of connection points: 2
#     Edge 19, Type (0, 0), BuildingBlock: ZUJKAS_clean_linker_0, # of connection points: 2
#     Edge 20, Type (0, 0), BuildingBlock: ZUJKAS_clean_linker_0, # of connection points: 2
#     Edge 21, Type (0, 0), BuildingBlock: ZUJKAS_clean_linker_0, # of connection points: 2
#     Edge 22, Type (0, 0), BuildingBlock: ZUJKAS_clean_linker_0, # of connection points: 2
#     Edge 23, Type (0, 0), BuildingBlock: ZUJKAS_clean_linker_0, # of connection points: 2
#     Edge 24, Type (0, 0), BuildingBlock: ZUJKAS_clean_linker_0, # of connection points: 2
#     Edge 25, Type (0, 0), BuildingBlock: ZUJKAS_clean_linker_0, # of connection points: 2
#     Edge 26, Type (0, 0), BuildingBlock: ZUJKAS_clean_linker_0, # of connection points: 2
#     Edge 27, Type (0, 0), BuildingBlock: ZUJKAS_clean_linker_0, # of connection points: 2
#     Edge 28, Type (0, 0), BuildingBlock: ZUJKAS_clean_linker_0, # of connection points: 2
#     Edge 29, Type (0, 0), BuildingBlock: ZUJKAS_clean_linker_0, # of connection points: 2
#     Edge 30, Type (0, 0), BuildingBlock: ZUJKAS_clean_linker_0, # of connection points: 2
#     Edge 31, Type (0, 0), BuildingBlock: ZUJKAS_clean_linker_0, # of connection points: 2
#     Edge 32, Type (0, 0), BuildingBlock: ZUJKAS_clean_linker_0, # of connection points: 2
#     Edge 33, Type (0, 0), BuildingBlock: ZUJKAS_clean_linker_0, # of connection points: 2
#     Edge 34, Type (0, 0), BuildingBlock: ZUJKAS_clean_linker_0, # of connection points: 2
#     Edge 35, Type (0, 0), BuildingBlock: ZUJKAS_clean_linker_0, # of connection points: 2
#     Edge 36, Type (0, 0), BuildingBlock: ZUJKAS_clean_linker_0, # of connection points: 2
#     Edge 37, Type (0, 0), BuildingBlock: ZUJKAS_clean_linker_0, # of connection points: 2
#     Edge 38, Type (0, 0), BuildingBlock: ZUJKAS_clean_linker_0, # of connection points: 2
#     Edge 39, Type (0, 0), BuildingBlock: ZUJKAS_clean_linker_0, # of connection points: 2
#     Edge 40, Type (0, 0), BuildingBlock: ZUJKAS_clean_linker_0, # of connection points: 2
#     Edge 41, Type (0, 0), BuildingBlock: ZUJKAS_clean_linker_0, # of connection points: 2
#     Edge 42, Type (0, 0), BuildingBlock: ZUJKAS_clean_linker_0, # of connection points: 2
#     Edge 43, Type (0, 0), BuildingBlock: ZUJKAS_clean_linker_0, # of connection points: 2
#     Edge 44, Type (0, 0), BuildingBlock: ZUJKAS_clean_linker_0, # of connection points: 2
#     Edge 45, Type (0, 0), BuildingBlock: ZUJKAS_clean_linker_0, # of connection points: 2
#     Edge 46, Type (0, 0), BuildingBlock: ZUJKAS_clean_linker_0, # of connection points: 2
#     Edge 47, Type (0, 0), BuildingBlock: ZUJKAS_clean_linker_0, # of connection points: 2
#     Edge 48, Type (0, 0), BuildingBlock: ZUJKAS_clean_linker_0, # of connection points: 2
#     Edge 49, Type (0, 0), BuildingBlock: ZUJKAS_clean_linker_0, # of connection points: 2
#     Edge 50, Type (0, 0), BuildingBlock: ZUJKAS_clean_linker_0, # of connection points: 2
#     Edge 51, Type (0, 0), BuildingBlock: ZUJKAS_clean_linker_0, # of connection points: 2
#     Edge 52, Type (0, 0), BuildingBlock: ZUJKAS_clean_linker_0, # of connection points: 2
#     Edge 53, Type (0, 0), BuildingBlock: ZUJKAS_clean_linker_0, # of connection points: 2
#     Edge 54, Type (0, 0), BuildingBlock: ZUJKAS_clean_linker_0, # of connection points: 2
#     Edge 55, Type (0, 0), BuildingBlock: ZUJKAS_clean_linker_0, # of connection points: 2
# Relax obj value: 0.359
# Max RMSD: 0.251
# Mean RMSD: 0.251
data_MOF--net-yfl--node1-XOMCOT_clean_sbu_0--edge1-ZUJKAS_clean_linker_0
_symmetry_space_group_name_H-M    P1
_symmetry_Int_Tables_number       1
_symmetry_cell_setting            triclinic
loop_
_symmetry_equiv_pos_as_xyz
'x, y, z'
_cell_length_a     37.756714
_cell_length_b     37.765235
_cell_length_c     128.48563
_cell_angle_alpha  90.013403
_cell_angle_beta   90.004776
_cell_angle_gamma 90.039702
loop_
_atom_site_label
_atom_site_type_symbol
_atom_site_fract_x
_atom_site_fract_y
_atom_site_fract_z
_atom_type_partial_charge
Co0 Co 0.05515 0.30104 0.31576 0.0
C1 C 0.1148 0.27488 0.32819 0.0
C2 C 0.13243 0.297 0.31369 0.0
C3 C 0.1617 0.2884 0.31957 0.0
N4 N 0.10317 0.28859 0.31914 0.0
N5 N 0.15049 0.27464 0.32869 0.0
H6 H 0.09748 0.26757 0.33455 0.0
H7 H 0.13253 0.31019 0.30622 0.0
C8 C 0.04802 0.28418 0.29297 0.0
O9 O 0.01755 0.26853 0.29482 0.0
N10 N 0.00688 0.31477 0.3123 0.0
C11 C 0.97616 0.30685 0.31714 0.0
C12 C 0.94851 0.32093 0.31153 0.0
C13 C 0.99741 0.3353 0.30416 0.0
N14 N 0.96193 0.33846 0.30328 0.0
C15 C 0.02229 0.24137 0.32548 0.0
C16 C 0.04398 0.19123 0.3112 0.0
C17 C 0.02021 0.18131 0.31907 0.0
C18 C 0.01045 0.20663 0.32649 0.0
C19 C 0.05537 0.22632 0.31055 0.0
N20 N 0.04216 0.25146 0.31713 0.0
H21 H 0.01536 0.26015 0.33146 0.0
H22 H 0.0747 0.23312 0.3047 0.0
H23 H 0.97338 0.292 0.32424 0.0
H24 H 0.01616 0.34617 0.29865 0.0
O25 O 0.04753 0.31628 0.32997 0.0
O26 O 0.06708 0.35024 0.31711 0.0
O27 O 0.06665 0.29632 0.30048 0.0
C28 C 0.05834 0.34722 0.32686 0.0
H29 H 0.18904 0.29318 0.31747 0.0
H30 H 0.92064 0.31801 0.3133 0.0
H31 H 0.05321 0.17233 0.30548 0.0
H32 H 0.99388 0.19969 0.33307 0.0
Co33 Co 0.30816 0.96336 0.6835 0.0
C34 C 0.29645 0.90004 0.67074 0.0
C35 C 0.33052 0.88891 0.68372 0.0
C36 C 0.32762 0.85878 0.67773 0.0
N37 N 0.31098 0.91461 0.6793 0.0
N38 N 0.30623 0.86591 0.66957 0.0
H39 H 0.2804 0.91467 0.66525 0.0
H40 H 0.34658 0.89213 0.69063 0.0
C41 C 0.29765 0.961 0.7066 0.0
O42 O 0.27321 0.98556 0.70564 0.0
N43 N 0.30673 0.01262 0.68783 0.0
C44 C 0.28551 0.03975 0.685 0.0
C45 C 0.29493 0.06939 0.69063 0.0
C46 C 0.32947 0.02662 0.69479 0.0
N47 N 0.32253 0.06095 0.69679 0.0
C48 C 0.23775 0.97584 0.67629 0.0
C49 C 0.20353 0.93445 0.69089 0.0
C50 C 0.18337 0.95497 0.68402 0.0
C51 C 0.20093 0.97492 0.67641 0.0
C52 C 0.24042 0.9361 0.69045 0.0
N53 N 0.25696 0.95887 0.68376 0.0
H54 H 0.25079 0.99079 0.67026 0.0
H55 H 0.25553 0.91904 0.69551 0.0
H56 H 0.26456 0.03882 0.67934 0.0
H57 H 0.34971 0.01131 0.69871 0.0
O58 O 0.31427 0.97777 0.66916 0.0
O59 O 0.35769 0.96924 0.68057 0.0
O60 O 0.31302 0.94848 0.69853 0.0
C61 C 0.34799 0.9779 0.67119 0.0
H62 H 0.34071 0.83378 0.67918 0.0
H63 H 0.28223 0.09505 0.69028 0.0
H64 H 0.19093 0.91735 0.69656 0.0
H65 H 0.18644 0.9906 0.67079 0.0
Co66 Co 0.95277 0.69813 0.31525 0.0
C67 C 0.8912 0.69924 0.32915 0.0
C68 C 0.88302 0.66387 0.31627 0.0
C69 C 0.85379 0.66233 0.32268 0.0
N70 N 0.90628 0.68701 0.32037 0.0
N71 N 0.85904 0.68463 0.33076 0.0
H72 H 0.90406 0.71754 0.33442 0.0
H73 H 0.8873 0.64874 0.30924 0.0
C74 C 0.94223 0.71369 0.29262 0.0
O75 O 0.96308 0.74139 0.29358 0.0
N76 N -8e-05 0.708 0.30996 0.0
C77 C 0.02513 0.7308 0.31323 0.0
C78 C 0.05502 0.72619 0.30721 0.0
C79 C 0.01529 0.68926 0.30226 0.0
N80 N 0.04871 0.70003 0.30031 0.0
C81 C 0.95669 0.76735 0.32412 0.0
C82 C 0.90686 0.79891 0.31139 0.0
C83 C 0.92511 0.8196 0.31866 0.0
C84 C 0.94949 0.80325 0.32529 0.0
C85 C 0.91446 0.76283 0.31062 0.0
N86 N 0.94104 0.74808 0.31641 0.0
H87 H 0.97498 0.7551 0.32945 0.0
H88 H 0.89874 0.7469 0.3054 0.0
H89 H 0.02291 0.74906 0.31963 0.0
H90 H 0.00181 0.66841 0.29806 0.0
O91 O 0.97191 0.69053 0.32905 0.0
O92 O 0.96644 0.64942 0.31678 0.0
O93 O 0.93452 0.6948 0.30056 0.0
C94 C 0.97638 0.65787 0.32615 0.0
H95 H 0.83059 0.64595 0.32152 0.0
H96 H 0.07966 0.74059 0.308 0.0
H97 H 0.88686 0.81048 0.30639 0.0
H98 H 0.96365 0.81826 0.33115 0.0
Co99 Co 0.68929 0.02903 0.68401 0.0
C100 C 0.70268 0.08936 0.67025 0.0
C101 C 0.67049 0.1045 0.68328 0.0
C102 C 0.67441 0.13337 0.67682 0.0
N103 N 0.68829 0.0771 0.67912 0.0
N104 N 0.69452 0.1237 0.66861 0.0
H105 H 0.71825 0.07316 0.66502 0.0
H106 H 0.65479 0.10328 0.69031 0.0
C107 C 0.70065 0.03488 0.70701 0.0
O108 O 0.7249 0.01005 0.70629 0.0
N109 N 0.68895 0.98051 0.68901 0.0
C110 C 0.70756 0.9517 0.68604 0.0
C111 C 0.69744 0.92332 0.6921 0.0
C112 C 0.66693 0.96877 0.69651 0.0
N113 N 0.67212 0.9343 0.69875 0.0
C114 C 0.75893 0.01242 0.67693 0.0
C115 C 0.79519 0.05541 0.69069 0.0
C116 C 0.81432 0.03298 0.68407 0.0
C117 C 0.79575 0.01213 0.6769 0.0
C118 C 0.75824 0.05496 0.69039 0.0
N119 N 0.74063 0.03154 0.68414 0.0
H120 H 0.74517 0.997 0.67114 0.0
H121 H 0.74391 0.07346 0.69521 0.0
H122 H 0.72702 0.95062 0.67993 0.0
H123 H 0.64765 0.98549 0.70034 0.0
O124 O 0.68241 0.01257 0.66989 0.0
O125 O 0.63951 0.02456 0.68119 0.0
O126 O 0.6852 0.04642 0.69883 0.0
C127 C 0.64875 0.01408 0.67193 0.0
H128 H 0.66204 0.15897 0.67787 0.0
H129 H 0.70858 0.89695 0.69181 0.0
H130 H 0.80864 0.07314 0.69601 0.0
H131 H 0.80943 0.99496 0.67148 0.0
Co132 Co 0.06532 0.18384 0.93506 0.0
C133 C 0.12727 0.20696 0.92302 0.0
C134 C 0.1426 0.17766 0.93662 0.0
C135 C 0.17257 0.18549 0.93096 0.0
N136 N 0.11436 0.19112 0.9316 0.0
N137 N 0.16281 0.20383 0.92241 0.0
H138 H 0.11077 0.21877 0.91707 0.0
H139 H 0.14137 0.16206 0.94366 0.0
C140 C 0.0635 0.20066 0.9579 0.0
O141 O 0.03608 0.22137 0.95628 0.0
N142 N 0.01576 0.17493 0.93854 0.0
C143 C 0.98693 0.17859 0.93241 0.0
C144 C 0.95767 0.16593 0.93761 0.0
C145 C 0.00365 0.15793 0.94709 0.0
N146 N 0.96818 0.15316 0.9469 0.0
C147 C 0.03509 0.24918 0.92783 0.0
C148 C 0.07505 0.29315 0.94039 0.0
C149 C 0.0491 0.3081 0.93395 0.0
C150 C 0.02944 0.28562 0.92746 0.0
C151 C 0.07968 0.2565 0.94053 0.0
N152 N 0.05844 0.23483 0.93473 0.0
H153 H 0.02119 0.23272 0.92237 0.0
H154 H 0.10052 0.24556 0.94531 0.0
H155 H 0.98691 0.18779 0.92447 0.0
H156 H 0.02061 0.14863 0.95326 0.0
O157 O 0.0554 0.17291 0.92063 0.0
O158 O 0.07114 0.13399 0.93273 0.0
O159 O 0.07825 0.1846 0.95029 0.0
C160 C 0.06239 0.14022 0.9231 0.0
H161 H 0.19933 0.17746 0.93283 0.0
H162 H 0.93095 0.16521 0.93458 0.0
H163 H 0.09194 0.30959 0.94519 0.0
H164 H 0.0096 0.29595 0.92219 0.0
Co165 Co 0.19174 0.93473 0.06326 0.0
C166 C 0.21038 0.86994 0.07512 0.0
C167 C 0.18398 0.85773 0.06084 0.0
C168 C 0.1875 0.82698 0.06648 0.0
N169 N 0.19905 0.88472 0.06614 0.0
N170 N 0.20409 0.8348 0.07546 0.0
H171 H 0.21919 0.8848 0.0818 0.0
H172 H 0.16884 0.86052 0.05375 0.0
C173 C 0.20953 0.90537 0.04212 0.0
O174 O 0.23666 0.88835 0.04612 0.0
N175 N 0.18311 0.98407 0.06041 0.0
C176 C 0.19736 0.01227 0.06529 0.0
C177 C 0.1864 0.04255 0.06023 0.0
C178 C 0.16328 0.99734 0.05264 0.0
N179 N 0.16499 0.03301 0.0523 0.0
C180 C 0.26192 0.94045 0.07173 0.0
C181 C 0.29258 0.97044 0.0543 0.0
C182 C 0.31337 0.96533 0.06321 0.0
C183 C 0.29757 0.95005 0.072 0.0
C184 C 0.25706 0.96025 0.05435 0.0
N185 N 0.24234 0.9444 0.06289 0.0
H186 H 0.24983 0.93145 0.07881 0.0
H187 H 0.24106 0.96658 0.04765 0.0
H188 H 0.21528 0.01082 0.07184 0.0
H189 H 0.14908 0.98115 0.04708 0.0
O190 O 0.18241 0.94337 0.07788 0.0
O191 O 0.14235 0.92805 0.06605 0.0
O192 O 0.19 0.92484 0.04787 0.0
C193 C 0.14953 0.93607 0.07567 0.0
H194 H 0.1768 0.80133 0.06441 0.0
H195 H 0.19403 0.06942 0.06213 0.0
H196 H 0.30323 0.98343 0.04747 0.0
H197 H 0.31241 0.94602 0.07911 0.0
Co198 Co 0.94246 0.80135 0.93464 0.0
C199 C 0.87625 0.78401 0.92309 0.0
C200 C 0.86674 0.81685 0.93638 0.0
C201 C 0.83555 0.81342 0.93095 0.0
N202 N 0.89222 0.79783 0.93158 0.0
N203 N 0.84165 0.79278 0.9226 0.0
H204 H 0.88996 0.77079 0.91685 0.0
H205 H 0.871 0.83391 0.94302 0.0
C206 C 0.90951 0.78702 0.95553 0.0
O207 O 0.89008 0.76178 0.95139 0.0
N208 N 0.99216 0.80614 0.93772 0.0
C209 C 0.01955 0.79076 0.93276 0.0
C210 C 0.0503 0.79901 0.93803 0.0
C211 C 0.00641 0.82383 0.94578 0.0
N212 N 0.0419 0.81978 0.94622 0.0
C213 C 0.94577 0.73142 0.92597 0.0
C214 C 0.96723 0.69771 0.94399 0.0
C215 C 0.96327 0.67785 0.93487 0.0
C216 C 0.95262 0.69515 0.92575 0.0
C217 C 0.96036 0.73397 0.94384 0.0
N218 N 0.94824 0.7502 0.93502 0.0
H219 H 0.94018 0.74455 0.91873 0.0
H220 H 0.96632 0.74911 0.95074 0.0
H221 H 0.01719 0.77397 0.92597 0.0
H222 H 0.99091 0.83822 0.95145 0.0
O223 O 0.95242 0.80993 0.92005 0.0
O224 O 0.93979 0.8511 0.93181 0.0
O225 O 0.93173 0.80409 0.94996 0.0
C226 C 0.94769 0.84327 0.92223 0.0
H227 H 0.81078 0.82646 0.93275 0.0
H228 H 0.07667 0.78999 0.93607 0.0
H229 H 0.97695 0.68562 0.95108 0.0
H230 H 0.95012 0.6809 0.91847 0.0
Co231 Co 0.80669 0.05397 0.06397 0.0
C232 C 0.79674 0.11668 0.07708 0.0
C233 C 0.82238 0.13018 0.0627 0.0
C234 C 0.82039 0.16012 0.06881 0.0
N235 N 0.8075 0.1031 0.06793 0.0
N236 N 0.80449 0.15147 0.07787 0.0
H237 H 0.78436 0.1011 0.08314 0.0
H238 H 0.83511 0.12807 0.05519 0.0
C239 C 0.79298 0.0547 0.04091 0.0
O240 O 0.76935 0.02943 0.04207 0.0
N241 N 0.80699 0.00433 0.05998 0.0
C242 C 0.78985 0.97647 0.06422 0.0
C243 C 0.79841 0.94636 0.05872 0.0
C244 C 0.82695 0.99035 0.0523 0.0
N245 N 0.82158 0.95522 0.05118 0.0
C246 C 0.7381 0.03864 0.07242 0.0
C247 C 0.69949 0.07659 0.05798 0.0
C248 C 0.68145 0.05634 0.06541 0.0
C249 C 0.70122 0.03808 0.07291 0.0
C250 C 0.73644 0.07658 0.05784 0.0
N251 N 0.75523 0.05554 0.0645 0.0
H252 H 0.75286 0.0254 0.07846 0.0
H253 H 0.74977 0.09374 0.05239 0.0
H254 H 0.77265 0.9772 0.07089 0.0
H255 H 0.84417 0.00596 0.04737 0.0
O256 O 0.81676 0.0405 0.07824 0.0
O257 O 0.8569 0.05156 0.06606 0.0
O258 O 0.80833 0.06816 0.04885 0.0
C259 C 0.85 0.04289 0.07564 0.0
H260 H 0.8315 0.18577 0.06694 0.0
H261 H 0.78834 0.91999 0.06019 0.0
H262 H 0.68517 0.09248 0.05236 0.0
H263 H 0.68837 0.02286 0.07897 0.0
Co264 Co 0.53983 0.80842 0.81603 0.0
C265 C 0.60017 0.7885 0.82934 0.0
C266 C 0.61712 0.81448 0.81532 0.0
C267 C 0.64629 0.8087 0.8215 0.0
N268 N 0.58832 0.80184 0.82026 0.0
N269 N 0.63554 0.79255 0.83032 0.0
H270 H 0.583 0.77808 0.83535 0.0
H271 H 0.61679 0.82842 0.80798 0.0
C272 C 0.54263 0.79092 0.79331 0.0
O273 O 0.51535 0.76975 0.79465 0.0
N274 N 0.49108 0.81695 0.81165 0.0
C275 C 0.46048 0.81277 0.81698 0.0
C276 C 0.43272 0.82503 0.811 0.0
C277 C 0.48143 0.83382 0.80283 0.0
N278 N 0.44609 0.83784 0.80204 0.0
C279 C 0.50839 0.74263 0.82231 0.0
C280 C 0.55224 0.69968 0.8106 0.0
C281 C 0.5244 0.68434 0.81622 0.0
C282 C 0.50285 0.70618 0.82233 0.0
C283 C 0.55679 0.73628 0.81081 0.0
N284 N 0.53362 0.75745 0.8161 0.0
H285 H 0.4929 0.75871 0.82748 0.0
H286 H 0.57877 0.74767 0.80659 0.0
H287 H 0.45813 0.80311 0.82485 0.0
H288 H 0.49994 0.84421 0.79719 0.0
O289 O 0.52698 0.81815 0.83028 0.0
O290 O 0.54452 0.85822 0.8187 0.0
O291 O 0.55554 0.80804 0.80102 0.0
C292 C 0.53433 0.85101 0.82816 0.0
H293 H 0.67315 0.81685 0.81979 0.0
H294 H 0.40495 0.82454 0.81307 0.0
H295 H 0.56998 0.68369 0.80593 0.0
H296 H 0.48222 0.69516 0.82721 0.0
Co297 Co 0.80791 0.46087 0.18478 0.0
C298 C 0.79923 0.3983 0.17103 0.0
C299 C 0.83188 0.38664 0.18419 0.0
C300 C 0.83182 0.35766 0.1777 0.0
N301 N 0.81056 0.41188 0.18017 0.0
N302 N 0.81141 0.36519 0.1694 0.0
H303 H 0.78451 0.413 0.1653 0.0
H304 H 0.84844 0.38982 0.19098 0.0
C305 C 0.80479 0.42099 0.20504 0.0
O306 O 0.77998 0.40038 0.20117 0.0
N307 N 0.80671 0.5095 0.18928 0.0
C308 C 0.78749 0.53628 0.18532 0.0
C309 C 0.7946 0.56646 0.19101 0.0
C310 C 0.82534 0.52353 0.19719 0.0
N311 N 0.81842 0.55834 0.19849 0.0
C312 C 0.73537 0.45342 0.17843 0.0
C313 C 0.70591 0.46818 0.19763 0.0
C314 C 0.68341 0.46174 0.18917 0.0
C315 C 0.69863 0.45442 0.17946 0.0
C316 C 0.74253 0.46712 0.19624 0.0
N317 N 0.75693 0.4584 0.18682 0.0
H318 H 0.74627 0.45056 0.17076 0.0
H319 H 0.75924 0.47447 0.2027 0.0
H320 H 0.76942 0.53394 0.17882 0.0
H321 H 0.84304 0.50822 0.20203 0.0
O322 O 0.80904 0.4764 0.1704 0.0
O323 O 0.85609 0.4673 0.1805 0.0
O324 O 0.8179 0.44596 0.19955 0.0
C325 C 0.84329 0.47661 0.17151 0.0
H326 H 0.84759 0.33395 0.17865 0.0
H327 H 0.78304 0.59228 0.1897 0.0
H328 H 0.69541 0.47456 0.20525 0.0
H329 H 0.68237 0.45103 0.17258 0.0
Co330 Co 0.4526 0.18549 0.81552 0.0
C331 C 0.39165 0.2077 0.82818 0.0
C332 C 0.37544 0.17736 0.81486 0.0
C333 C 0.34601 0.18457 0.82081 0.0
N334 N 0.40391 0.19186 0.81951 0.0
N335 N 0.35631 0.20352 0.82919 0.0
H336 H 0.40854 0.22024 0.83391 0.0
H337 H 0.3762 0.16141 0.80787 0.0
C338 C 0.45141 0.19914 0.79256 0.0
O339 O 0.47921 0.21978 0.79369 0.0
N340 N 0.50167 0.17742 0.81142 0.0
C341 C 0.53197 0.18553 0.81647 0.0
C342 C 0.56026 0.17244 0.81089 0.0
C343 C 0.51211 0.15766 0.80321 0.0
N344 N 0.5477 0.15509 0.80249 0.0
C345 C 0.48052 0.25249 0.82205 0.0
C346 C 0.43943 0.29352 0.80897 0.0
C347 C 0.46469 0.31 0.81531 0.0
C348 C 0.48484 0.28909 0.82208 0.0
C349 C 0.43597 0.25679 0.80921 0.0
N350 N 0.45796 0.23657 0.81521 0.0
H351 H 0.49446 0.23717 0.82778 0.0
H352 H 0.41538 0.24468 0.80459 0.0
H353 H 0.53394 0.19856 0.8239 0.0
H354 H 0.49385 0.14544 0.79783 0.0
O355 O 0.46495 0.17714 0.82989 0.0
O356 O 0.44853 0.1359 0.81854 0.0
O357 O 0.43753 0.18395 0.80046 0.0
C358 C 0.45824 0.144 0.82797 0.0
H359 H 0.31928 0.17565 0.81925 0.0
H360 H 0.58788 0.1749 0.81302 0.0
H361 H 0.42264 0.30875 0.80381 0.0
H362 H 0.50326 0.30096 0.82753 0.0
Co363 Co 0.18607 0.54599 0.18591 0.0
C364 C 0.20377 0.60676 0.17211 0.0
C365 C 0.17574 0.62296 0.18577 0.0
C366 C 0.17883 0.65168 0.17927 0.0
N367 N 0.19213 0.59482 0.18142 0.0
N368 N 0.19638 0.64136 0.17067 0.0
H369 H 0.21383 0.58998 0.166 0.0
H370 H 0.16016 0.62216 0.19282 0.0
C371 C 0.20364 0.58414 0.20565 0.0
O372 O 0.23027 0.59926 0.20078 0.0
N373 N 0.17857 0.49781 0.19029 0.0
C374 C 0.19254 0.4684 0.18602 0.0
C375 C 0.18136 0.43953 0.1917 0.0
C376 C 0.15884 0.48664 0.19838 0.0
N377 N 0.16018 0.45109 0.19945 0.0
C378 C 0.25699 0.53946 0.17791 0.0
C379 C 0.28767 0.51897 0.19649 0.0
C380 C 0.30907 0.52262 0.18766 0.0
C381 C 0.29326 0.53246 0.17824 0.0
C382 C 0.25152 0.52596 0.19579 0.0
N383 N 0.23686 0.53785 0.18671 0.0
H384 H 0.24505 0.54492 0.17049 0.0
H385 H 0.23522 0.5211 0.20254 0.0
H386 H 0.20997 0.46808 0.17934 0.0
H387 H 0.14456 0.50427 0.20352 0.0
O388 O 0.1776 0.53182 0.17163 0.0
O389 O 0.13664 0.5503 0.18278 0.0
O390 O 0.18391 0.56189 0.20089 0.0
C391 C 0.14451 0.53926 0.17347 0.0
H392 H 0.16735 0.67758 0.18053 0.0
H393 H 0.18831 0.41218 0.19023 0.0
H394 H 0.29859 0.50994 0.20382 0.0
H395 H 0.30874 0.53469 0.17117 0.0
Co396 Co 0.5529 0.68798 0.43606 0.0
C397 C 0.61614 0.70403 0.42361 0.0
C398 C 0.62987 0.67965 0.43816 0.0
C399 C 0.66021 0.68358 0.43233 0.0
N400 N 0.60235 0.69241 0.43266 0.0
N401 N 0.65146 0.6987 0.42317 0.0
H402 H 0.6003 0.71398 0.41724 0.0
H403 H 0.62788 0.66678 0.44565 0.0
C404 C 0.54872 0.69942 0.4591 0.0
O405 O 0.52129 0.72023 0.45762 0.0
N406 N 0.50317 0.68203 0.43958 0.0
C407 C 0.47383 0.69763 0.43571 0.0
C408 C 0.44466 0.68473 0.44092 0.0
C409 C 0.49112 0.65886 0.44675 0.0
N410 N 0.45567 0.6606 0.44794 0.0
C411 C 0.53141 0.75575 0.4282 0.0
C412 C 0.56648 0.79605 0.4429 0.0
C413 C 0.54514 0.81317 0.43553 0.0
C414 C 0.52813 0.79253 0.42795 0.0
C415 C 0.56886 0.75918 0.44287 0.0
N416 N 0.54952 0.73936 0.43602 0.0
H417 H 0.51947 0.74046 0.42204 0.0
H418 H 0.58675 0.74675 0.4483 0.0
H419 H 0.47295 0.71701 0.42959 0.0
H420 H 0.50828 0.64152 0.45116 0.0
O421 O 0.54202 0.67841 0.42158 0.0
O422 O 0.55567 0.63804 0.43346 0.0
O423 O 0.56527 0.68626 0.45133 0.0
C424 C 0.54728 0.64526 0.42387 0.0
H425 H 0.68644 0.67479 0.43453 0.0
H426 H 0.41759 0.69339 0.43985 0.0
H427 H 0.58162 0.81099 0.44855 0.0
H428 H 0.51202 0.80453 0.42194 0.0
Co429 Co 0.69052 0.43429 0.56445 0.0
C430 C 0.71027 0.3729 0.57713 0.0
C431 C 0.68672 0.35677 0.56268 0.0
C432 C 0.69308 0.32706 0.5686 0.0
N433 N 0.69754 0.38537 0.56806 0.0
N434 N 0.70764 0.3373 0.57772 0.0
H435 H 0.72013 0.38974 0.5833 0.0
H436 H 0.67356 0.35752 0.55521 0.0
C437 C 0.70404 0.43809 0.54148 0.0
O438 O 0.72265 0.46708 0.54296 0.0
N439 N 0.68223 0.48358 0.56079 0.0
C440 C 0.69537 0.51351 0.56505 0.0
C441 C 0.68173 0.54225 0.55984 0.0
C442 C 0.65953 0.49479 0.55336 0.0
N443 N 0.65936 0.53038 0.55245 0.0
C444 C 0.75578 0.45972 0.57298 0.0
C445 C 0.79994 0.42908 0.55842 0.0
C446 C 0.81454 0.45158 0.56596 0.0
C447 C 0.79205 0.46617 0.57349 0.0
C448 C 0.76343 0.42341 0.5582 0.0
N449 N 0.74156 0.44083 0.56495 0.0
H450 H 0.73914 0.47007 0.57908 0.0
H451 H 0.75296 0.40473 0.55264 0.0
H452 H 0.7132 0.51512 0.57156 0.0
H453 H 0.64441 0.47704 0.54846 0.0
O454 O 0.67907 0.445 0.57878 0.0
O455 O 0.64051 0.42873 0.56666 0.0
O456 O 0.69109 0.42124 0.54922 0.0
C457 C 0.64646 0.43797 0.57626 0.0
H458 H 0.68556 0.30024 0.5666 0.0
H459 H 0.68779 0.56977 0.56138 0.0
H460 H 0.81659 0.41577 0.55278 0.0
H461 H 0.80219 0.48301 0.57963 0.0
Co462 Co 0.44284 0.3076 0.43481 0.0
C463 C 0.37848 0.28419 0.42336 0.0
C464 C 0.36625 0.31922 0.43595 0.0
C465 C 0.33571 0.31303 0.4304 0.0
N466 N 0.39305 0.30064 0.43166 0.0
N467 N 0.34354 0.29103 0.42248 0.0
H468 H 0.39335 0.27036 0.41748 0.0
H469 H 0.36911 0.33779 0.44231 0.0
C470 C 0.40971 0.29508 0.45585 0.0
O471 O 0.391 0.2687 0.45206 0.0
N472 N 0.49207 0.31567 0.43794 0.0
C473 C 0.52041 0.30068 0.43336 0.0
C474 C 0.55043 0.31119 0.43864 0.0
C475 C 0.50503 0.33544 0.44578 0.0
N476 N 0.54061 0.33301 0.44645 0.0
C477 C 0.45142 0.23726 0.4268 0.0
C478 C 0.47161 0.20607 0.44532 0.0
C479 C 0.46985 0.18525 0.43632 0.0
C480 C 0.4599 0.20133 0.42695 0.0
C481 C 0.46314 0.24199 0.4448 0.0
N482 N 0.45158 0.2569 0.43572 0.0
H483 H 0.44621 0.24948 0.41939 0.0
H484 H 0.46735 0.25794 0.45165 0.0
H485 H 0.51921 0.28251 0.42686 0.0
H486 H 0.48861 0.35006 0.45117 0.0
O487 O 0.45267 0.31524 0.42015 0.0
O488 O 0.43727 0.35674 0.43151 0.0
O489 O 0.43162 0.31174 0.45008 0.0
C490 C 0.44578 0.34843 0.42202 0.0
H491 H 0.31016 0.32512 0.4318 0.0
H492 H 0.57727 0.30286 0.43699 0.0
H493 H 0.48068 0.195 0.45263 0.0
H494 H 0.45899 0.18638 0.41976 0.0
Co495 Co 0.30343 0.56346 0.56428 0.0
C496 C 0.28853 0.62699 0.57665 0.0
C497 C 0.31613 0.63995 0.56254 0.0
C498 C 0.31206 0.67041 0.56832 0.0
N499 N 0.3014 0.61289 0.5678 0.0
N500 N 0.2948 0.66213 0.5772 0.0
H501 H 0.27656 0.61146 0.58279 0.0
H502 H 0.33001 0.63751 0.55521 0.0
C503 C 0.28684 0.56043 0.54153 0.0
O504 O 0.26502 0.53408 0.54344 0.0
N505 N 0.30684 0.51352 0.56065 0.0
C506 C 0.29176 0.48477 0.56506 0.0
C507 C 0.30149 0.45513 0.55951 0.0
C508 C 0.32693 0.50055 0.55284 0.0
N509 N 0.32338 0.46519 0.55177 0.0
C510 C 0.23651 0.54381 0.57307 0.0
C511 C 0.1948 0.58002 0.55899 0.0
C512 C 0.17848 0.55819 0.56639 0.0
C513 C 0.19981 0.54085 0.57371 0.0
C514 C 0.23167 0.58213 0.55864 0.0
N515 N 0.25206 0.5619 0.5651 0.0
H516 H 0.25239 0.5315 0.57902 0.0
H517 H 0.24369 0.60015 0.55316 0.0
H518 H 0.27506 0.48457 0.57184 0.0
H519 H 0.34263 0.51705 0.54773 0.0
O520 O 0.31474 0.55211 0.57858 0.0
O521 O 0.35387 0.56427 0.56619 0.0
O522 O 0.30281 0.57606 0.54902 0.0
C523 C 0.34769 0.55598 0.57585 0.0
H524 H 0.32183 0.69642 0.56626 0.0
H525 H 0.2929 0.42828 0.56103 0.0
H526 H 0.17926 0.59536 0.55353 0.0
H527 H 0.1884 0.52444 0.57976 0.0
H528 H 0.11216 0.30796 0.28619 0.0
H529 H 0.12643 0.33198 0.26906 0.0
H530 H 0.02133 0.30651 0.25827 0.0
H531 H 0.00677 0.28205 0.27542 0.0
H532 H 0.07787 0.29248 0.24349 0.0
H533 H 0.08263 0.4281 0.26004 0.0
H534 H 0.11013 0.39678 0.26676 0.0
H535 H 0.06283 0.39123 0.26683 0.0
C536 C 0.09219 0.30697 0.28015 0.0
C537 C 0.05824 0.29334 0.28219 0.0
C538 C 0.10037 0.32083 0.27037 0.0
C539 C 0.07471 0.32159 0.26249 0.0
C540 C 0.04141 0.30627 0.26429 0.0
H541 H 0.09952 0.46546 0.20988 0.0
H542 H 0.07449 0.43206 0.22445 0.0
C543 C 0.03321 0.29222 0.27408 0.0
C544 C 0.08229 0.34013 0.25259 0.0
H545 H 0.10532 0.42099 0.2429 0.0
C546 C 0.08361 0.32062 0.24331 0.0
C547 C 0.08898 0.37697 0.25238 0.0
C548 C 0.08576 0.39963 0.26201 0.0
C549 C 0.09294 0.33682 0.23385 0.0
C550 C 0.10169 0.37329 0.23376 0.0
C551 C 0.09895 0.39297 0.24299 0.0
C552 C 0.11498 0.39152 0.2243 0.0
C553 C 0.0932 0.31476 0.22406 0.0
C554 C 0.14602 0.37983 0.21937 0.0
C555 C 0.16033 0.39886 0.21105 0.0
C556 C 0.14415 0.43024 0.20758 0.0
C557 C 0.11281 0.44164 0.21245 0.0
C558 C 0.09838 0.42247 0.22073 0.0
H559 H 0.07544 0.29141 0.22478 0.0
H560 H 0.08486 0.33056 0.2172 0.0
H561 H 0.12044 0.30486 0.22266 0.0
H562 H 0.15986 0.35661 0.22218 0.0
H563 H 0.18478 0.38969 0.20759 0.0
H564 H 0.38311 0.87264 0.80196 0.0
H565 H 0.35093 0.89444 0.7866 0.0
H566 H 0.43388 0.85479 0.76672 0.0
H567 H 0.46589 0.83286 0.78191 0.0
H568 H 0.38305 0.94324 0.76961 0.0
H569 H 0.33527 0.81183 0.75603 0.0
H570 H 0.34686 0.82054 0.76944 0.0
H571 H 0.38102 0.81418 0.75991 0.0
C572 C 0.39433 0.86849 0.79431 0.0
C573 C 0.42708 0.85118 0.79315 0.0
C574 C 0.37605 0.88104 0.78557 0.0
C575 C 0.39002 0.87595 0.77556 0.0
C576 C 0.42264 0.85876 0.77439 0.0
H577 H 0.34888 0.91266 0.71138 0.0
H578 H 0.36789 0.8934 0.72863 0.0
C579 C 0.44101 0.84653 0.78309 0.0
C580 C 0.37101 0.88877 0.76624 0.0
H581 H 0.33036 0.85964 0.74413 0.0
C582 C 0.371 0.92515 0.76408 0.0
C583 C 0.3556 0.86493 0.75909 0.0
C584 C 0.35434 0.82567 0.76121 0.0
C585 C 0.35733 0.93824 0.75467 0.0
C586 C 0.34264 0.91425 0.74737 0.0
C587 C 0.34165 0.87796 0.74972 0.0
C588 C 0.33019 0.92589 0.73697 0.0
C589 C 0.36035 0.97733 0.75239 0.0
C590 C 0.30233 0.95021 0.73593 0.0
C591 C 0.29146 0.96144 0.72606 0.0
C592 C 0.30808 0.94827 0.71705 0.0
C593 C 0.3355 0.92337 0.71814 0.0
C594 C 0.3464 0.91229 0.728 0.0
H595 H 0.37932 0.9907 0.75771 0.0
H596 H 0.36902 0.98187 0.74424 0.0
H597 H 0.33405 0.98996 0.75342 0.0
H598 H 0.28897 0.96049 0.74275 0.0
H599 H 0.27015 0.98052 0.72549 0.0
H600 H 0.87765 0.54802 0.21016 0.0
H601 H 0.89686 0.58251 0.22509 0.0
H602 H 0.81162 0.65641 0.21997 0.0
H603 H 0.79073 0.62082 0.20535 0.0
H604 H 0.91889 0.6494 0.2277 0.0
H605 H 0.79404 0.62755 0.24971 0.0
H606 H 0.80402 0.60416 0.23784 0.0
H607 H 0.78832 0.64909 0.23737 0.0
C608 C 0.86259 0.57132 0.21222 0.0
C609 C 0.83203 0.58101 0.20663 0.0
C610 C 0.87394 0.5913 0.22072 0.0
C611 C 0.85525 0.62162 0.22379 0.0
C612 C 0.82593 0.63259 0.21791 0.0
H613 H 0.94401 0.75203 0.2745 0.0
H614 H 0.92164 0.73403 0.2574 0.0
C615 C 0.81426 0.61236 0.20945 0.0
C616 C 0.86597 0.64064 0.23339 0.0
H617 H 0.83778 0.66227 0.25782 0.0
C618 C 0.90111 0.65248 0.23427 0.0
C619 C 0.8428 0.64424 0.24199 0.0
C620 C 0.8053 0.63033 0.24176 0.0
C621 C 0.91403 0.66692 0.2436 0.0
C622 C 0.89083 0.67053 0.25219 0.0
C623 C 0.85543 0.65966 0.2512 0.0
C624 C 0.90333 0.68259 0.26254 0.0
C625 C 0.95277 0.67652 0.24432 0.0
C626 C 0.89937 0.66019 0.27117 0.0
C627 C 0.91152 0.6706 0.28095 0.0
C628 C 0.92809 0.70362 0.28231 0.0
C629 C 0.93162 0.72631 0.27369 0.0
C630 C 0.91906 0.71598 0.2639 0.0
H631 H 0.96849 0.66433 0.23795 0.0
H632 H 0.95568 0.70568 0.24372 0.0
H633 H 0.96414 0.66797 0.25188 0.0
H634 H 0.88727 0.63433 0.27031 0.0
H635 H 0.90843 0.65245 0.28742 0.0
H636 H 0.61607 0.16893 0.79712 0.0
H637 H 0.64786 0.14647 0.78196 0.0
H638 H 0.55654 0.08466 0.77323 0.0
H639 H 0.52517 0.10543 0.78861 0.0
H640 H 0.61778 0.04827 0.77028 0.0
H641 H 0.62802 0.18244 0.75285 0.0
H642 H 0.64774 0.17867 0.76551 0.0
H643 H 0.60068 0.17326 0.76404 0.0
C644 C 0.60286 0.15008 0.79211 0.0
C645 C 0.56772 0.13948 0.79407 0.0
C646 C 0.621 0.13759 0.78335 0.0
C647 C 0.60426 0.11459 0.77632 0.0
C648 C 0.56985 0.10271 0.77849 0.0
H649 H 0.64533 0.07888 0.71148 0.0
H650 H 0.62446 0.09744 0.7286 0.0
C651 C 0.5518 0.11494 0.78727 0.0
C652 C 0.62196 0.10366 0.76652 0.0
H653 H 0.65576 0.1358 0.74375 0.0
C654 C 0.62624 0.06738 0.76449 0.0
C655 C 0.6325 0.12865 0.75891 0.0
C656 C 0.62675 0.16791 0.76036 0.0
C657 C 0.64048 0.05537 0.75503 0.0
C658 C 0.65153 0.0804 0.74749 0.0
C659 C 0.64757 0.11668 0.74957 0.0
C660 C 0.66525 0.0696 0.73715 0.0
C661 C 0.64229 0.01601 0.75304 0.0
C662 C 0.69554 0.04827 0.73623 0.0
C663 C 0.70742 0.03735 0.72643 0.0
C664 C 0.68949 0.04799 0.71736 0.0
C665 C 0.65979 0.07021 0.7183 0.0
C666 C 0.6478 0.08086 0.72809 0.0
H667 H 0.62471 0.00096 0.75838 0.0
H668 H 0.63472 0.00968 0.7449 0.0
H669 H 0.66982 0.00673 0.75432 0.0
H670 H 0.70993 0.03998 0.7431 0.0
H671 H 0.73051 0.02043 0.72598 0.0
H672 H 0.19365 0.09295 0.04441 0.0
H673 H 0.17175 0.12721 0.02962 0.0
H674 H 0.08095 0.05817 0.02738 0.0
H675 H 0.10325 0.0234 0.04206 0.0
H676 H 0.11228 0.06477 0.0092 0.0
H677 H 0.09427 0.19876 0.02577 0.0
H678 H 0.13806 0.18208 0.02802 0.0
H679 H 0.10061 0.16011 0.03382 0.0
C680 C 0.16863 0.0856 0.04091 0.0
C681 C 0.15017 0.05548 0.04437 0.0
C682 C 0.15604 0.10529 0.03248 0.0
C683 C 0.12442 0.09561 0.02747 0.0
C684 C 0.10536 0.0662 0.03114 0.0
H685 H 0.0259 0.21059 0.9759 0.0
H686 H 0.03985 0.18676 0.99316 0.0
C687 C 0.11815 0.04629 0.03949 0.0
C688 C 0.11313 0.1138 0.01778 0.0
H689 H 0.09675 0.19501 0.00709 0.0
C690 C 0.10852 0.09321 0.00879 0.0
C691 C 0.10781 0.15088 0.01725 0.0
C692 C 0.11008 0.17418 0.02676 0.0
C693 C 0.09977 0.1087 0.99922 0.0
C694 C 0.0965 0.14594 0.99855 0.0
C695 C 0.0999 0.16652 0.00759 0.0
C696 C 0.08981 0.16371 0.98847 0.0
C697 C 0.09389 0.08493 0.98993 0.0
C698 C 0.11391 0.15976 0.98025 0.0
C699 C 0.10597 0.17311 0.97039 0.0
C700 C 0.07395 0.19109 0.96862 0.0
C701 C 0.0508 0.19689 0.97702 0.0
C702 C 0.05868 0.18325 0.98688 0.0
H703 H 0.08743 0.0574 0.99233 0.0
H704 H 0.07209 0.09502 0.98494 0.0
H705 H 0.11845 0.08402 0.98519 0.0
H706 H 0.13848 0.14547 0.98138 0.0
H707 H 0.12453 0.16856 0.96411 0.0
H708 H 0.03309 0.87794 0.95826 0.0
H709 H 0.0682 0.89482 0.97344 0.0
H710 H 0.13789 0.80624 0.96811 0.0
H711 H 0.10273 0.78902 0.95294 0.0
H712 H 0.07688 0.85026 0.99064 0.0
H713 H 0.20706 0.88843 0.97382 0.0
H714 H 0.1671 0.88597 0.96611 0.0
H715 H 0.19012 0.8462 0.9697 0.0
C716 C 0.05602 0.86218 0.96026 0.0
C717 C 0.06494 0.83198 0.95442 0.0
C718 C 0.07618 0.87199 0.9689 0.0
C719 C 0.1058 0.85196 0.97184 0.0
C720 C 0.11555 0.82248 0.96585 0.0
H721 H 0.23347 0.85469 0.02851 0.0
H722 H 0.21044 0.84199 0.01104 0.0
C723 C 0.09538 0.81265 0.95718 0.0
C724 C 0.12421 0.86002 0.98174 0.0
H725 H 0.20363 0.88471 0.99225 0.0
C726 C 0.10456 0.85793 0.99098 0.0
C727 C 0.1604 0.8696 0.98216 0.0
C728 C 0.18245 0.873 0.97242 0.0
C729 C 0.12008 0.86516 0.00066 0.0
C730 C 0.15609 0.87539 0.00108 0.0
C731 C 0.17599 0.87696 0.99187 0.0
C732 C 0.17296 0.88528 0.01106 0.0
C733 C 0.09786 0.86136 0.01036 0.0
C734 C 0.16033 0.91451 0.01666 0.0
C735 C 0.17322 0.92171 0.02661 0.0
C736 C 0.19925 0.89996 0.03113 0.0
C737 C 0.21334 0.87185 0.02526 0.0
C738 C 0.20024 0.86456 0.01529 0.0
H739 H 0.07404 0.84471 0.00898 0.0
H740 H 0.11347 0.84949 0.0168 0.0
H741 H 0.08875 0.88793 0.0129 0.0
H742 H 0.13974 0.93121 0.01344 0.0
H743 H 0.16214 0.94389 0.03085 0.0
H744 H 0.94967 0.83326 0.96678 0.0
H745 H 0.93811 0.85586 0.98421 0.0
H746 H 0.84613 0.78859 0.98658 0.0
H747 H 0.85767 0.76543 0.96909 0.0
H748 H 0.87567 0.89156 0.98934 0.0
H749 H 0.89625 0.77451 0.01483 0.0
H750 H 0.91333 0.77683 0.00171 0.0
H751 H 0.86728 0.76752 0.00392 0.0
C752 C 0.92722 0.82283 0.97103 0.0
C753 C 0.90444 0.79766 0.96651 0.0
C754 C 0.92072 0.83577 0.98101 0.0
C755 C 0.89144 0.82373 0.98671 0.0
C756 C 0.86923 0.79778 0.98238 0.0
H757 H 0.78987 0.89692 0.0431 0.0
H758 H 0.80873 0.86335 0.02781 0.0
C759 C 0.87577 0.7847 0.97237 0.0
C760 C 0.88251 0.84087 0.99673 0.0
H761 H 0.87168 0.8258 0.02274 0.0
C762 C 0.87499 0.87724 0.99665 0.0
C763 C 0.88143 0.822 0.00622 0.0
C764 C 0.89027 0.7831 0.00675 0.0
C765 C 0.866 0.89527 0.00581 0.0
C766 C 0.86522 0.87653 0.01533 0.0
C767 C 0.87254 0.84008 0.01542 0.0
C768 C 0.85605 0.89442 0.02522 0.0
C769 C 0.85665 0.93407 0.00515 0.0
C770 C 0.87704 0.92225 0.029 0.0
C771 C 0.86636 0.94148 0.03774 0.0
C772 C 0.8346 0.93304 0.0429 0.0
C773 C 0.81458 0.90397 0.03937 0.0
C774 C 0.82524 0.88482 0.03061 0.0
H775 H 0.84996 0.94213 0.99707 0.0
H776 H 0.83387 0.94048 0.01029 0.0
H777 H 0.87969 0.95008 0.00773 0.0
H778 H 0.90132 0.92958 0.02506 0.0
H779 H 0.88273 0.96323 0.04037 0.0
H780 H 0.76886 0.03061 0.02201 0.0
H781 H 0.79195 0.04562 0.00474 0.0
H782 H 0.86728 0.11707 0.01877 0.0
H783 H 0.84396 0.10302 0.03594 0.0
H784 H 0.8366 0.14552 0.00163 0.0
H785 H 0.88532 0.00967 0.99313 0.0
H786 H 0.83883 0.0128 0.99594 0.0
H787 H 0.87064 0.02293 0.00591 0.0
C788 C 0.79013 0.04975 0.02141 0.0
C789 C 0.80464 0.0655 0.03037 0.0
C790 C 0.80349 0.05807 0.01154 0.0
C791 C 0.83178 0.08197 0.01048 0.0
C792 C 0.84553 0.09845 0.0194 0.0
H793 H 0.98886 0.11293 0.96348 0.0
H794 H 0.95269 0.095 0.97823 0.0
C795 C 0.83213 0.09034 0.02922 0.0
C796 C 0.84766 0.08985 0.00018 0.0
H797 H 0.89402 0.05283 0.98011 0.0
C798 C 0.84893 0.12524 0.99688 0.0
C799 C 0.8641 0.06335 0.99407 0.0
C800 C 0.86503 0.0251 0.99745 0.0
C801 C 0.8668 0.13503 0.98774 0.0
C802 C 0.88308 0.10853 0.9816 0.0
C803 C 0.88126 0.07303 0.9848 0.0
C804 C 0.90414 0.11747 0.97221 0.0
C805 C 0.86937 0.17384 0.98502 0.0
C806 C 0.88872 0.13531 0.96378 0.0
C807 C 0.9095 0.14623 0.95537 0.0
C808 C 0.94613 0.13914 0.95514 0.0
C809 C 0.96105 0.11969 0.96341 0.0
C810 C 0.94029 0.10905 0.97184 0.0
H811 H 0.86305 0.19106 0.99179 0.0
H812 H 0.89633 0.18063 0.9822 0.0
H813 H 0.8502 0.17997 0.97874 0.0
H814 H 0.8607 0.14141 0.9638 0.0
H815 H 0.8969 0.16116 0.94922 0.0
H816 H 0.59889 0.83229 0.78787 0.0
H817 H 0.61834 0.84795 0.77036 0.0
H818 H 0.53701 0.78126 0.75725 0.0
H819 H 0.5169 0.7657 0.77479 0.0
H820 H 0.64148 0.80524 0.75358 0.0
H821 H 0.51805 0.87968 0.74442 0.0
H822 H 0.52935 0.86644 0.7575 0.0
H823 H 0.5126 0.83439 0.74843 0.0
C824 C 0.5852 0.82074 0.78128 0.0
C825 C 0.55616 0.79795 0.78272 0.0
C826 C 0.59644 0.82966 0.77128 0.0
C827 C 0.57882 0.81609 0.76254 0.0
C828 C 0.55058 0.79239 0.76392 0.0
H829 H 0.66258 0.86312 0.69995 0.0
H830 H 0.63808 0.82999 0.71471 0.0
C831 C 0.53928 0.78342 0.77394 0.0
C832 C 0.58952 0.82804 0.75205 0.0
H833 H 0.56292 0.87981 0.73174 0.0
C834 C 0.62422 0.82114 0.74871 0.0
C835 C 0.5669 0.84902 0.74582 0.0
C836 C 0.52971 0.85814 0.74921 0.0
C837 C 0.63731 0.83557 0.73942 0.0
C838 C 0.61489 0.85706 0.73328 0.0
C839 C 0.57987 0.86308 0.73646 0.0
C840 C 0.62836 0.87651 0.72412 0.0
C841 C 0.67548 0.8292 0.73649 0.0
C842 C 0.63036 0.91353 0.72449 0.0
C843 C 0.64432 0.93242 0.71612 0.0
C844 C 0.6564 0.91466 0.70718 0.0
C845 C 0.65386 0.87751 0.70677 0.0
C846 C 0.63985 0.85858 0.71517 0.0
H847 H 0.69071 0.81669 0.74291 0.0
H848 H 0.67657 0.81139 0.72962 0.0
H849 H 0.68859 0.85449 0.73433 0.0
H850 H 0.62179 0.9278 0.73136 0.0
H851 H 0.64648 0.9609 0.71681 0.0
H852 H 0.85772 0.45715 0.21489 0.0
H853 H 0.88226 0.44608 0.23215 0.0
H854 H 0.80835 0.36036 0.23661 0.0
H855 H 0.78333 0.37127 0.21928 0.0
H856 H 0.8163 0.41043 0.25407 0.0
H857 H 0.94439 0.35793 0.2393 0.0
H858 H 0.93079 0.39985 0.23402 0.0
H859 H 0.90527 0.36083 0.23125 0.0
C860 C 0.84653 0.43596 0.21952 0.0
C861 C 0.81866 0.41492 0.21567 0.0
C862 C 0.86072 0.42962 0.22937 0.0
C863 C 0.8474 0.40214 0.23557 0.0
C864 C 0.81906 0.3816 0.23189 0.0
H865 H 0.89797 0.31665 0.29618 0.0
H866 H 0.86881 0.33488 0.28013 0.0
C867 C 0.80486 0.38784 0.222 0.0
C868 C 0.8634 0.39473 0.24585 0.0
H869 H 0.93956 0.36637 0.25744 0.0
C870 C 0.8432 0.40071 0.25484 0.0
C871 C 0.89855 0.38228 0.24678 0.0
C872 C 0.92104 0.37454 0.23734 0.0
C873 C 0.85747 0.39499 0.2648 0.0
C874 C 0.89256 0.3822 0.26573 0.0
C875 C 0.91273 0.37633 0.25672 0.0
C876 C 0.90867 0.37354 0.27594 0.0
C877 C 0.83507 0.40336 0.2742 0.0
C878 C 0.94099 0.38894 0.2789 0.0
C879 C 0.95786 0.37842 0.28807 0.0
C880 C 0.94278 0.35218 0.29446 0.0
C881 C 0.90998 0.33743 0.29158 0.0
C882 C 0.89322 0.34785 0.28239 0.0
H883 H 0.81384 0.42268 0.27231 0.0
H884 H 0.82217 0.37871 0.27698 0.0
H885 H 0.85141 0.41426 0.28064 0.0
H886 H 0.95345 0.40873 0.27401 0.0
H887 H 0.98295 0.39047 0.2901 0.0
H888 H 0.3898 0.05693 0.7039 0.0
H889 H 0.41389 0.08632 0.71933 0.0
H890 H 0.31511 0.1417 0.72358 0.0
H891 H 0.29083 0.11236 0.70817 0.0
H892 H 0.3766 0.18373 0.72749 0.0
H893 H 0.37904 0.05488 0.74833 0.0
H894 H 0.403 0.05527 0.73626 0.0
H895 H 0.35574 0.06095 0.73621 0.0
C896 C 0.37332 0.07556 0.70808 0.0
C897 C 0.33828 0.08199 0.70491 0.0
C898 C 0.38711 0.09233 0.71687 0.0
C899 C 0.366 0.11561 0.72268 0.0
C900 C 0.33174 0.12369 0.7192 0.0
H901 H 0.3898 0.16541 0.78765 0.0
H902 H 0.36884 0.14829 0.77041 0.0
C903 C 0.31796 0.10702 0.71038 0.0
C904 C 0.37876 0.12966 0.73274 0.0
H905 H 0.40355 0.10395 0.75712 0.0
C906 C 0.38256 0.16638 0.73398 0.0
C907 C 0.38592 0.10687 0.74122 0.0
C908 C 0.38045 0.06732 0.74051 0.0
C909 C 0.39368 0.18096 0.74349 0.0
C910 C 0.40161 0.15808 0.75189 0.0
C911 C 0.39764 0.12139 0.75064 0.0
C912 C 0.4132 0.1714 0.76218 0.0
C913 C 0.39606 0.22068 0.74455 0.0
C914 C 0.44499 0.19032 0.76326 0.0
C915 C 0.45699 0.20034 0.77312 0.0
C916 C 0.43756 0.19121 0.78207 0.0
C917 C 0.40545 0.17276 0.78092 0.0
C918 C 0.39341 0.16296 0.77108 0.0
H919 H 0.38073 0.23446 0.73839 0.0
H920 H 0.38616 0.22947 0.75227 0.0
H921 H 0.42416 0.22894 0.74385 0.0
H922 H 0.46103 0.19644 0.7565 0.0
H923 H 0.48197 0.21429 0.77376 0.0
H924 H 0.15437 0.5543 0.21853 0.0
H925 H 0.13666 0.57441 0.23585 0.0
H926 H 0.21513 0.65727 0.2346 0.0
H927 H 0.23308 0.63745 0.21723 0.0
H928 H 0.18001 0.58542 0.25487 0.0
H929 H 0.1172 0.70783 0.23925 0.0
H930 H 0.12733 0.67023 0.2311 0.0
H931 H 0.16216 0.69906 0.2354 0.0
C932 C 0.16807 0.57667 0.22195 0.0
C933 C 0.19494 0.59449 0.21646 0.0
C934 C 0.15797 0.58802 0.23185 0.0
C935 C 0.17436 0.6175 0.23642 0.0
C936 C 0.20196 0.63467 0.23113 0.0
H937 H 0.10279 0.73541 0.29102 0.0
H938 H 0.13879 0.71499 0.27638 0.0
C939 C 0.21222 0.62323 0.22123 0.0
C940 C 0.16133 0.6311 0.2465 0.0
H941 H 0.11382 0.69858 0.25728 0.0
C942 C 0.16576 0.61027 0.25544 0.0
C943 C 0.14292 0.66359 0.24719 0.0
C944 C 0.1368 0.68651 0.23774 0.0
C945 C 0.15189 0.62097 0.26508 0.0
C946 C 0.13238 0.6529 0.2657 0.0
C947 C 0.12883 0.67415 0.2568 0.0
C948 C 0.11339 0.66375 0.27528 0.0
C949 C 0.15834 0.59802 0.2745 0.0
C950 C 0.08732 0.64166 0.27957 0.0
C951 C 0.06695 0.65311 0.28799 0.0
C952 C 0.07185 0.68714 0.29222 0.0
C953 C 0.09853 0.70895 0.28804 0.0
C954 C 0.11901 0.69739 0.27963 0.0
H955 H 0.18274 0.58187 0.27358 0.0
H956 H 0.16081 0.61418 0.28169 0.0
H957 H 0.13575 0.57952 0.27548 0.0
H958 H 0.08195 0.61591 0.27621 0.0
H959 H 0.04704 0.6354 0.29108 0.0
H960 H 0.68249 0.59175 0.54399 0.0
H961 H 0.65635 0.62372 0.52942 0.0
H962 H 0.57119 0.54763 0.52809 0.0
H963 H 0.59763 0.51517 0.54264 0.0
H964 H 0.5995 0.55754 0.50946 0.0
H965 H 0.57272 0.68871 0.52681 0.0
H966 H 0.61793 0.67578 0.52873 0.0
H967 H 0.5829 0.65031 0.53462 0.0
C968 C 0.65777 0.58225 0.54077 0.0
C969 C 0.64208 0.55095 0.54449 0.0
C970 C 0.64276 0.60066 0.53244 0.0
C971 C 0.61144 0.58847 0.52777 0.0
C972 C 0.59527 0.55763 0.53161 0.0
H973 H 0.50876 0.70463 0.47681 0.0
H974 H 0.52133 0.67796 0.49381 0.0
C975 C 0.61046 0.53903 0.53989 0.0
C976 C 0.59758 0.60606 0.51828 0.0
H977 H 0.57604 0.68671 0.50805 0.0
C978 C 0.5939 0.5857 0.5092 0.0
C979 C 0.58974 0.6427 0.51795 0.0
C980 C 0.59065 0.66554 0.52758 0.0
C981 C 0.58413 0.60123 0.49972 0.0
C982 C 0.5788 0.63827 0.49924 0.0
C983 C 0.58081 0.65841 0.5084 0.0
C984 C 0.57213 0.65652 0.48923 0.0
C985 C 0.57968 0.57776 0.49029 0.0
C986 C 0.59705 0.65429 0.48116 0.0
C987 C 0.58993 0.66934 0.47147 0.0
C988 C 0.55794 0.68735 0.4697 0.0
C989 C 0.53373 0.69106 0.47795 0.0
C990 C 0.54078 0.67573 0.48764 0.0
H991 H 0.5741 0.54992 0.49256 0.0
H992 H 0.55785 0.5873 0.48523 0.0
H993 H 0.60457 0.57795 0.4857 0.0
H994 H 0.62181 0.64036 0.48231 0.0
H995 H 0.60927 0.66631 0.4653 0.0
H996 H 0.60052 0.30416 0.45439 0.0
H997 H 0.63341 0.32465 0.46965 0.0
H998 H 0.56332 0.4143 0.47236 0.0
H999 H 0.53017 0.3938 0.45714 0.0
H1000 H 0.66868 0.3874 0.47487 0.0
H1001 H 0.55211 0.36423 0.50034 0.0
H1002 H 0.5542 0.34824 0.48713 0.0
H1003 H 0.5438 0.39387 0.4897 0.0
C1004 C 0.59249 0.32855 0.45812 0.0
C1005 C 0.56248 0.34715 0.45464 0.0
C1006 C 0.61124 0.34017 0.46686 0.0
C1007 C 0.60035 0.37058 0.47225 0.0
C1008 C 0.57164 0.39029 0.46845 0.0
H1009 H 0.70963 0.47614 0.52342 0.0
H1010 H 0.68723 0.45955 0.50622 0.0
C1011 C 0.55274 0.37857 0.45977 0.0
C1012 C 0.6178 0.38054 0.48216 0.0
H1013 H 0.60197 0.39137 0.5081 0.0
C1014 C 0.65417 0.38829 0.48215 0.0
C1015 C 0.59885 0.38111 0.49166 0.0
C1016 C 0.56017 0.3711 0.49227 0.0
C1017 C 0.67208 0.39695 0.4914 0.0
C1018 C 0.6529 0.39836 0.50085 0.0
C1019 C 0.61658 0.39043 0.50084 0.0
C1020 C 0.66979 0.40733 0.51093 0.0
C1021 C 0.71143 0.40372 0.49101 0.0
C1022 C 0.66735 0.38356 0.51929 0.0
C1023 C 0.67973 0.3931 0.52913 0.0
C1024 C 0.69487 0.42662 0.53081 0.0
C1025 C 0.69842 0.44998 0.52235 0.0
C1026 C 0.68575 0.44049 0.5125 0.0
H1027 H 0.72358 0.39252 0.48385 0.0
H1028 H 0.71626 0.43271 0.49101 0.0
H1029 H 0.72492 0.39221 0.4979 0.0
H1030 H 0.65509 0.35785 0.51825 0.0
H1031 H 0.6767 0.37446 0.53547 0.0
H1032 H 0.38272 0.47615 0.54033 0.0
H1033 H 0.40086 0.44373 0.52473 0.0
H1034 H 0.31129 0.37384 0.5282 0.0
H1035 H 0.29298 0.40607 0.54378 0.0
H1036 H 0.37373 0.33858 0.52277 0.0
H1037 H 0.34916 0.45403 0.49695 0.0
H1038 H 0.37942 0.46265 0.50742 0.0
H1039 H 0.3339 0.45254 0.51025 0.0
C1040 C 0.36692 0.45386 0.53778 0.0
C1041 C 0.33623 0.44391 0.54326 0.0
C1042 C 0.37729 0.43539 0.52886 0.0
C1043 C 0.357 0.40685 0.5252 0.0
C1044 C 0.32723 0.3959 0.53088 0.0
H1045 H 0.35841 0.27443 0.46973 0.0
H1046 H 0.34686 0.29943 0.48701 0.0
C1047 C 0.31691 0.41426 0.53982 0.0
C1048 C 0.36613 0.38903 0.51529 0.0
H1049 H 0.37513 0.40347 0.4892 0.0
C1050 C 0.374 0.3527 0.51541 0.0
C1051 C 0.36628 0.40756 0.50571 0.0
C1052 C 0.35643 0.44626 0.50501 0.0
C1053 C 0.38266 0.33448 0.50623 0.0
C1054 C 0.3829 0.35304 0.49667 0.0
C1055 C 0.37501 0.38935 0.49655 0.0
C1056 C 0.39139 0.33555 0.48666 0.0
C1057 C 0.39213 0.29574 0.50684 0.0
C1058 C 0.42017 0.34759 0.48075 0.0
C1059 C 0.42668 0.33357 0.47089 0.0
C1060 C 0.40443 0.30727 0.4667 0.0
C1061 C 0.37614 0.29452 0.47275 0.0
C1062 C 0.36958 0.30867 0.48264 0.0
H1063 H 0.39907 0.28764 0.5149 0.0
H1064 H 0.36909 0.27967 0.50428 0.0
H1065 H 0.41476 0.28953 0.50163 0.0
H1066 H 0.43728 0.36833 0.4837 0.0
H1067 H 0.44882 0.34392 0.46648 0.0
H1068 H 0.32388 0.618 0.53475 0.0
H1069 H 0.34438 0.6301 0.51709 0.0
H1070 H 0.29232 0.5355 0.50612 0.0
H1071 H 0.2718 0.52297 0.52383 0.0
H1072 H 0.36304 0.5411 0.49986 0.0
H1073 H 0.28999 0.66491 0.49147 0.0
H1074 H 0.31307 0.66643 0.50368 0.0
H1075 H 0.27754 0.63524 0.50188 0.0
C1076 C 0.31633 0.6 0.52856 0.0
C1077 C 0.29608 0.5696 0.53068 0.0
C1078 C 0.32791 0.60707 0.51846 0.0
C1079 C 0.31942 0.58397 0.51028 0.0
C1080 C 0.29885 0.55382 0.51233 0.0
H1081 H 0.38522 0.64614 0.44738 0.0
H1082 H 0.34905 0.62246 0.46159 0.0
C1083 C 0.28705 0.5468 0.52244 0.0
C1084 C 0.33419 0.59032 0.49978 0.0
H1085 H 0.34135 0.65353 0.48094 0.0
C1086 C 0.3579 0.56542 0.49563 0.0
C1087 C 0.32701 0.62176 0.4942 0.0
C1088 C 0.30023 0.64846 0.49798 0.0
C1089 C 0.37621 0.57214 0.48633 0.0
C1090 C 0.37091 0.60475 0.48115 0.0
C1091 C 0.34566 0.62869 0.48498 0.0
C1092 C 0.39304 0.61581 0.4722 0.0
C1093 C 0.40145 0.54452 0.48223 0.0
C1094 C 0.4297 0.61993 0.47347 0.0
C1095 C 0.45036 0.63363 0.46541 0.0
C1096 C 0.43473 0.64371 0.45592 0.0
C1097 C 0.39803 0.63894 0.45461 0.0
C1098 C 0.37736 0.62524 0.4627 0.0
H1099 H 0.39437 0.51764 0.48508 0.0
H1100 H 0.40173 0.54423 0.47359 0.0
H1101 H 0.42861 0.55063 0.485 0.0
H1102 H 0.44222 0.61373 0.48083 0.0
H1103 H 0.47833 0.63761 0.4668 0.0
H1104 H 0.9526 0.16182 0.32399 0.0
H1105 H 0.92827 0.10199 0.32504 0.0
H1106 H 0.02916 0.059 0.31566 0.0
H1107 H 0.05425 0.11858 0.31509 0.0
H1108 H 0.92124 0.05162 0.31004 0.0
H1109 H 0.0076 0.00309 0.34181 0.0
H1110 H 0.00427 0.04939 0.33849 0.0
H1111 H 0.03249 0.02044 0.33107 0.0
C1112 C 0.96981 0.1396 0.32233 0.0
C1113 C 0.00549 0.14495 0.31957 0.0
C1114 C 0.95575 0.10549 0.32284 0.0
C1115 C 0.97708 0.07612 0.3206 0.0
C1116 C 0.01248 0.08133 0.31764 0.0
H1117 H 0.92887 0.86526 0.30241 0.0
H1118 H 0.93417 0.92963 0.30333 0.0
C1119 C 0.02665 0.11543 0.31719 0.0
C1120 C 0.96222 0.03999 0.32121 0.0
H1121 H 0.97637 0.95903 0.33208 0.0
C1122 C 0.93297 0.0314 0.31495 0.0
C1123 C 0.97708 0.01398 0.32779 0.0
C1124 C 0.00685 0.02226 0.33525 0.0
C1125 C 0.91915 0.99692 0.31476 0.0
C1126 C 0.93559 0.97034 0.32081 0.0
C1127 C 0.96388 0.97937 0.32739 0.0
C1128 C 0.9258 0.93251 0.31999 0.0
C1129 C 0.88718 0.98938 0.30807 0.0
C1130 C 0.91908 0.91274 0.32903 0.0
C1131 C 0.91669 0.87592 0.32853 0.0
C1132 C 0.92074 0.85838 0.31898 0.0
C1133 C 0.92518 0.87828 0.30985 0.0
C1134 C 0.92805 0.91507 0.31036 0.0
H1135 H 0.8707 0.01349 0.30704 0.0
H1136 H 0.89612 0.98081 0.30023 0.0
H1137 H 0.87048 0.96811 0.31146 0.0
H1138 H 0.91732 0.92569 0.33654 0.0
H1139 H 0.91309 0.86105 0.33567 0.0
H1140 H 0.1342 0.95433 0.66841 0.0
H1141 H 0.07088 0.96669 0.66996 0.0
H1142 H 0.08108 0.97213 0.70336 0.0
H1143 H 0.14471 0.96091 0.70186 0.0
H1144 H 0.01632 0.93203 0.68098 0.0
H1145 H 0.03953 0.06924 0.69531 0.0
H1146 H 0.07414 0.04283 0.68951 0.0
H1147 H 0.0604 0.0346 0.70268 0.0
C1148 C 0.12293 0.95808 0.67608 0.0
C1149 C 0.14443 0.95711 0.68501 0.0
C1150 C 0.0868 0.96494 0.67695 0.0
C1151 C 0.07163 0.971 0.68675 0.0
C1152 C 0.09256 0.96816 0.69572 0.0
H1153 H 0.8541 0.02894 0.70176 0.0
H1154 H 0.91736 0.01515 0.70302 0.0
C1155 C 0.12876 0.96134 0.69486 0.0
C1156 C 0.03413 0.98152 0.68746 0.0
H1157 H 0.98007 0.05082 0.69365 0.0
C1158 C 0.00833 0.95791 0.6838 0.0
C1159 C 0.024 0.01536 0.69113 0.0
C1160 C 0.05091 0.04216 0.69481 0.0
C1161 C 0.9725 0.96738 0.68363 0.0
C1162 C 0.96249 0.00145 0.68708 0.0
C1163 C 0.9881 0.02477 0.69099 0.0
C1164 C 0.92554 0.01354 0.68637 0.0
C1165 C 0.94559 0.94096 0.67972 0.0
C1166 C 0.9099 0.01853 0.67659 0.0
C1167 C 0.87401 0.02665 0.67584 0.0
C1168 C 0.85325 0.02989 0.68487 0.0
C1169 C 0.86951 0.02682 0.69468 0.0
C1170 C 0.90549 0.01874 0.69542 0.0
H1171 H 0.9564 0.9136 0.67959 0.0
H1172 H 0.92144 0.94132 0.68466 0.0
H1173 H 0.9377 0.94812 0.67168 0.0
H1174 H 0.9253 0.01524 0.66954 0.0
H1175 H 0.8623 0.02954 0.66819 0.0
H1176 H 0.94404 0.62761 0.94904 0.0
H1177 H 0.96003 0.56467 0.94904 0.0
H1178 H 0.01825 0.57924 0.92049 0.0
H1179 H 0.00266 0.64218 0.92047 0.0
H1180 H 0.94668 0.51355 0.93157 0.0
H1181 H 0.08851 0.53163 0.94221 0.0
H1182 H 0.05522 0.56479 0.94487 0.0
H1183 H 0.07165 0.55904 0.93188 0.0
C1184 C 0.96037 0.61737 0.9428 0.0
C1185 C 0.97211 0.6397 0.93475 0.0
C1186 C 0.96933 0.58152 0.94279 0.0
C1187 C 0.9905 0.56762 0.93482 0.0
C1188 C 0.0021 0.58971 0.92675 0.0
H1189 H 0.03467 0.35116 0.9173 0.0
H1190 H 0.02024 0.41428 0.91763 0.0
C1191 C 0.99294 0.6255 0.9267 0.0
C1192 C 0.00016 0.52982 0.93487 0.0
H1193 H 0.07 0.4735 0.93795 0.0
C1194 C 0.97359 0.5047 0.93297 0.0
C1195 C 0.03526 0.51864 0.93678 0.0
C1196 C 0.06439 0.54481 0.93913 0.0
C1197 C 0.98139 0.46843 0.93278 0.0
C1198 C 0.01661 0.45728 0.93451 0.0
C1199 C 0.04308 0.48236 0.93657 0.0
C1200 C 0.02631 0.41951 0.93429 0.0
C1201 C 0.95199 0.44219 0.93082 0.0
C1202 C 0.03503 0.40197 0.94354 0.0
C1203 C 0.0429 0.36586 0.94341 0.0
C1204 C 0.04246 0.34681 0.934 0.0
C1205 C 0.03456 0.36486 0.9247 0.0
C1206 C 0.02649 0.40091 0.92486 0.0
H1207 H 0.92541 0.45466 0.93135 0.0
H1208 H 0.95505 0.43083 0.92291 0.0
H1209 H 0.95341 0.42004 0.93649 0.0
H1210 H 0.035 0.41607 0.95089 0.0
H1211 H 0.04846 0.35271 0.95072 0.0
H1212 H 0.63936 0.04559 0.04849 0.0
H1213 H 0.57549 0.03518 0.04824 0.0
H1214 H 0.57142 0.04955 0.08153 0.0
H1215 H 0.63547 0.05964 0.08185 0.0
H1216 H 0.53889 0.98914 0.07531 0.0
H1217 H 0.49199 0.10139 0.0512 0.0
H1218 H 0.52629 0.07617 0.04502 0.0
H1219 H 0.53582 0.10009 0.0568 0.0
C1220 C 0.62472 0.04727 0.05573 0.0
C1221 C 0.64235 0.05343 0.06519 0.0
C1222 C 0.58822 0.04141 0.05557 0.0
C1223 C 0.56864 0.0421 0.06484 0.0
C1224 C 0.58606 0.04903 0.07428 0.0
H1225 H 0.34834 -0.00219 0.07927 0.0
H1226 H 0.41023 0.01672 0.07978 0.0
C1227 C 0.62261 0.05466 0.07446 0.0
C1228 C 0.53057 0.03281 0.06481 0.0
H1229 H 0.45081 0.05411 0.05396 0.0
C1230 C 0.51957 0.00358 0.07073 0.0
C1231 C 0.50547 0.05163 0.05879 0.0
C1232 C 0.51539 0.08427 0.05267 0.0
C1233 C 0.48425 0.99218 0.07063 0.0
C1234 C 0.45936 0.01064 0.06449 0.0
C1235 C 0.47017 0.04 0.05861 0.0
C1236 C 0.4219 -0.00031 0.06409 0.0
C1237 C 0.47383 0.96005 0.07691 0.0
C1238 C 0.4081 0.98423 0.05504 0.0
C1239 C 0.37286 0.97298 0.05475 0.0
C1240 C 0.35082 0.97729 0.06349 0.0
C1241 C 0.36476 0.99336 0.07248 0.0
C1242 C 0.40002 0.00441 0.07278 0.0
H1243 H 0.49727 0.9453 0.07982 0.0
H1244 H 0.4578 0.96854 0.0837 0.0
H1245 H 0.45731 0.94185 0.07215 0.0
H1246 H 0.42475 0.98041 0.04827 0.0
H1247 H 0.36305 0.96044 0.04774 0.0
H1248 H 0.52709 0.34623 0.81564 0.0
H1249 H 0.53556 0.4104 0.81554 0.0
H1250 H 0.42248 0.42549 0.81383 0.0
H1251 H 0.41365 0.36131 0.81428 0.0
H1252 H 0.51343 0.45948 0.80027 0.0
H1253 H 0.4528 0.48616 0.83893 0.0
H1254 H 0.46586 0.44232 0.83485 0.0
H1255 H 0.42552 0.46152 0.83004 0.0
C1256 C 0.50401 0.36322 0.81537 0.0
C1257 C 0.4697 0.3488 0.81504 0.0
C1258 C 0.50891 0.39979 0.81523 0.0
C1259 C 0.47962 0.42248 0.81481 0.0
C1260 C 0.44535 0.40827 0.81432 0.0
H1261 H 0.4607 0.65086 0.81459 0.0
H1262 H 0.44962 0.5871 0.81383 0.0
C1263 C 0.4404 0.37167 0.81447 0.0
C1264 C 0.48509 0.46109 0.81481 0.0
H1265 H 0.46962 0.53595 0.82892 0.0
C1266 C 0.50392 0.47627 0.80653 0.0
C1267 C 0.47256 0.48268 0.823 0.0
C1268 C 0.45331 0.46741 0.83227 0.0
C1269 C 0.51035 0.51278 0.80617 0.0
C1270 C 0.49803 0.53431 0.8144 0.0
C1271 C 0.47896 0.51919 0.82263 0.0
C1272 C 0.50497 0.57267 0.81468 0.0
C1273 C 0.52982 0.52807 0.79695 0.0
C1274 C 0.53975 0.58537 0.81552 0.0
C1275 C 0.54616 0.62171 0.81602 0.0
C1276 C 0.51783 0.6458 0.81574 0.0
C1277 C 0.483 0.63288 0.81495 0.0
C1278 C 0.47664 0.59657 0.81445 0.0
H1279 H 0.52979 0.50963 0.79021 0.0
H1280 H 0.51784 0.55359 0.7945 0.0
H1281 H 0.55777 0.53319 0.79916 0.0
H1282 H 0.56186 0.56717 0.81593 0.0
H1283 H 0.57321 0.6309 0.81679 0.0
H1284 H 0.64633 0.51062 0.20051 0.0
H1285 H 0.5822 0.51794 0.20148 0.0
H1286 H 0.56814 0.42941 0.18067 0.0
H1287 H 0.6322 0.42075 0.18006 0.0
H1288 H 0.53886 0.53364 0.18537 0.0
H1289 H 0.49729 0.40669 0.2033 0.0
H1290 H 0.54275 0.42151 0.20329 0.0
H1291 H 0.52415 0.40085 0.19191 0.0
C1292 C 0.62962 0.49209 0.19636 0.0
C1293 C 0.64442 0.46498 0.19024 0.0
C1294 C 0.59297 0.49652 0.19685 0.0
C1295 C 0.57042 0.47395 0.19125 0.0
C1296 C 0.58502 0.44666 0.18522 0.0
H1297 H 0.34939 0.484 0.17413 0.0
H1298 H 0.41317 0.47225 0.17521 0.0
C1299 C 0.62167 0.44206 0.18477 0.0
C1300 C 0.53182 0.48053 0.19116 0.0
H1301 H 0.45147 0.44203 0.19577 0.0
C1302 C 0.51978 0.51371 0.18773 0.0
C1303 C 0.50701 0.45445 0.19425 0.0
C1304 C 0.51842 0.419 0.19849 0.0
C1305 C 0.48352 0.52129 0.18713 0.0
C1306 C 0.45885 0.49502 0.19002 0.0
C1307 C 0.47071 0.46194 0.19351 0.0
C1308 C 0.4205 0.50166 0.18949 0.0
C1309 C 0.47162 0.55707 0.18327 0.0
C1310 C 0.40388 0.52192 0.1972 0.0
C1311 C 0.3676 0.52865 0.19661 0.0
C1312 C 0.3475 0.51533 0.18827 0.0
C1313 C 0.36433 0.49493 0.18057 0.0
C1314 C 0.40059 0.48802 0.18121 0.0
H1315 H 0.49406 0.57335 0.18036 0.0
H1316 H 0.45194 0.55384 0.17691 0.0
H1317 H 0.45847 0.57162 0.1897 0.0
H1318 H 0.41903 0.5326 0.20364 0.0
H1319 H 0.35534 0.54467 0.20261 0.0
H1320 H 0.53789 0.85568 0.45263 0.0
H1321 H 0.52777 0.91966 0.45303 0.0
H1322 H 0.53052 0.92292 0.41952 0.0
H1323 H 0.54175 0.8591 0.41899 0.0
H1324 H 0.57428 0.97808 0.43972 0.0
H1325 H 0.42901 0.96456 0.43287 0.0
H1326 H 0.45426 0.93043 0.43936 0.0
H1327 H 0.45926 0.93699 0.42563 0.0
C1328 C 0.53697 0.87004 0.44534 0.0
C1329 C 0.54053 0.85221 0.43577 0.0
C1330 C 0.53101 0.90651 0.4456 0.0
C1331 C 0.52831 0.92569 0.43631 0.0
C1332 C 0.5324 0.90831 0.42676 0.0
H1333 H 0.51166 0.14906 0.42261 0.0
H1334 H 0.52689 0.08605 0.42296 0.0
C1335 C 0.53854 0.87186 0.42648 0.0
C1336 C 0.52014 0.9638 0.4366 0.0
H1337 H 0.45199 0.02242 0.43413 0.0
C1338 C 0.54761 0.98791 0.4385 0.0
C1339 C 0.48525 0.97616 0.43508 0.0
C1340 C 0.45503 0.95086 0.43315 0.0
C1341 C 0.54104 0.02447 0.43882 0.0
C1342 C 0.50619 0.0369 0.43714 0.0
C1343 C 0.47867 0.01267 0.43538 0.0
C1344 C 0.49775 0.07505 0.43709 0.0
C1345 C 0.57123 0.04954 0.44103 0.0
C1346 C 0.476 0.08944 0.44486 0.0
C1347 C 0.46719 0.12535 0.44467 0.0
C1348 C 0.47965 0.14729 0.43662 0.0
C1349 C 0.50139 0.1327 0.42884 0.0
C1350 C 0.51038 0.09686 0.42908 0.0
H1351 H 0.59473 0.03552 0.44421 0.0
H1352 H 0.57916 0.06291 0.43371 0.0
H1353 H 0.56293 0.07029 0.44665 0.0
H1354 H 0.46585 0.07286 0.45106 0.0
H1355 H 0.45015 0.13583 0.45071 0.0
H1356 H 0.13598 0.54908 0.54944 0.0
H1357 H 0.07302 0.53417 0.54922 0.0
H1358 H 0.07075 0.53719 0.58277 0.0
H1359 H 0.13337 0.55353 0.58306 0.0
H1360 H 0.0446 0.47403 0.55798 0.0
H1361 H 0.98323 0.59426 0.57502 0.0
H1362 H 0.02806 0.59375 0.57013 0.0
H1363 H 0.01825 0.57604 0.5828 0.0
C1364 C 0.12188 0.5475 0.55676 0.0
C1365 C 0.13966 0.55247 0.56627 0.0
C1366 C 0.086 0.53872 0.55662 0.0
C1367 C 0.06724 0.5349 0.56597 0.0
C1368 C 0.08464 0.54061 0.57547 0.0
H1369 H 0.85934 0.45779 0.58264 0.0
H1370 H 0.92121 0.47708 0.58247 0.0
C1371 C 0.12051 0.54952 0.57562 0.0
C1372 C 0.03018 0.52239 0.5658 0.0
H1373 H 0.94634 0.54328 0.57354 0.0
C1374 C 0.02304 0.48927 0.5613 0.0
C1375 C 0.00225 0.54233 0.57019 0.0
C1376 C 0.00819 0.57872 0.57472 0.0
C1377 C 0.98869 0.47522 0.56124 0.0
C1378 C 0.96086 0.49503 0.5657 0.0
C1379 C 0.96792 0.52818 0.57017 0.0
C1380 C 0.92407 0.48197 0.56572 0.0
C1381 C 0.98249 0.43905 0.55659 0.0
C1382 C 0.90544 0.47834 0.55634 0.0
C1383 C 0.87008 0.46759 0.55641 0.0
C1384 C 0.85277 0.46042 0.56587 0.0
C1385 C 0.87179 0.46357 0.57524 0.0
C1386 C 0.90712 0.47442 0.57516 0.0
H1387 H 0.00761 0.42417 0.55554 0.0
H1388 H 0.96441 0.42322 0.56158 0.0
H1389 H 0.96982 0.44204 0.54885 0.0
H1390 H 0.91803 0.48461 0.54899 0.0
H1391 H 0.856 0.46599 0.54908 0.0
H1392 H 0.97096 0.65292 0.34734 0.0
H1393 H 0.99345 0.60435 0.35836 0.0
H1394 H 0.04104 0.55611 0.33133 0.0
H1395 H 0.01782 0.60338 0.32036 0.0
H1396 H 0.97405 0.5281 0.35209 0.0
H1397 H 0.11762 0.55106 0.35602 0.0
H1398 H 0.08561 0.58667 0.35516 0.0
H1399 H 0.10112 0.56493 0.34355 0.0
C1400 C 0.98675 0.63214 0.34385 0.0
C1401 C 0.99254 0.63147 0.33303 0.0
C1402 C -0.00037 0.60467 0.35013 0.0
C1403 C 0.01937 0.57715 0.34566 0.0
C1404 C 0.0264 0.57753 0.33493 0.0
H1405 H 0.07892 0.41392 0.32204 0.0
H1406 H 0.07358 0.46662 0.33271 0.0
C1407 C 0.01286 0.60427 0.32866 0.0
C1408 C 0.02843 0.54479 0.35147 0.0
H1409 H 0.09953 0.48975 0.35203 0.0
C1410 C 0.00144 0.51964 0.35265 0.0
C1411 C 0.06408 0.53424 0.35242 0.0
C1412 C 0.09379 0.56079 0.35183 0.0
C1413 C 0.00932 0.48335 0.35267 0.0
C1414 C 0.04509 0.4726 0.35168 0.0
C1415 C 0.07209 0.49803 0.35258 0.0
C1416 C 0.05387 0.43905 0.34633 0.0
C1417 C 0.97918 0.45712 0.35219 0.0
C1418 C 0.0454 0.40579 0.35051 0.0
C1419 C 0.04797 0.37539 0.3443 0.0
C1420 C 0.05927 0.37802 0.33389 0.0
C1421 C 0.06982 0.41104 0.32999 0.0
C1422 C 0.06707 0.4412 0.33614 0.0
H1423 H 0.95292 0.47009 0.353 0.0
H1424 H 0.97978 0.4427 0.34466 0.0
H1425 H 0.982 0.43742 0.35854 0.0
H1426 H 0.03561 0.40349 0.3584 0.0
H1427 H 0.04004 0.35012 0.34754 0.0
H1428 H 0.40918 0.01275 0.67435 0.0
H1429 H 0.45706 0.02176 0.66195 0.0
H1430 H 0.39527 0.97128 0.63788 0.0
H1431 H 0.3463 0.96311 0.65036 0.0
H1432 H 0.46291 0.93933 0.64261 0.0
H1433 H 0.48031 0.08174 0.63579 0.0
H1434 H 0.46514 0.07473 0.64885 0.0
H1435 H 0.43731 0.06185 0.63808 0.0
C1436 C 0.40544 0.00442 0.66635 0.0
C1437 C 0.37437 0.98714 0.66327 0.0
C1438 C 0.43257 0.00996 0.65923 0.0
C1439 C 0.4294 -0.00217 0.64893 0.0
C1440 C 0.39784 0.9815 0.64572 0.0
H1441 H 0.65204 0.02321 0.65084 0.0
H1442 H 0.60351 0.01364 0.63828 0.0
C1443 C 0.37012 0.97673 0.65284 0.0
C1444 C 0.46195 0.99642 0.64259 0.0
H1445 H 0.53478 0.04913 0.64184 0.0
C1446 C 0.47853 0.9633 0.64179 0.0
C1447 C 0.48221 0.02743 0.64109 0.0
C1448 C 0.46512 0.06344 0.64088 0.0
C1449 C 0.51555 0.96087 0.64203 0.0
C1450 C 0.53563 0.99221 0.64308 0.0
C1451 C 0.51923 0.02501 0.64137 0.0
C1452 C 0.56741 0.99234 0.64975 0.0
C1453 C 0.5326 0.92495 0.64286 0.0
C1454 C 0.56288 0.98375 0.6603 0.0
C1455 C 0.58981 0.99008 0.66744 0.0
C1456 C 0.62199 0.00462 0.66414 0.0
C1457 C 0.62736 0.01173 0.65351 0.0
C1458 C 0.59988 0.00617 0.64635 0.0
H1459 H 0.5178 0.90513 0.63817 0.0
H1460 H 0.56061 0.92574 0.64022 0.0
H1461 H 0.53201 0.91614 0.6511 0.0
H1462 H 0.53769 0.97388 0.66313 0.0
H1463 H 0.58518 0.98429 0.67559 0.0
H1464 H 0.07725 0.07091 0.9263 0.0
H1465 H 0.06245 0.0214 0.91517 0.0
H1466 H 0.02415 0.09324 0.89158 0.0
H1467 H 0.03818 0.14348 0.90298 0.0
H1468 H 0.97602 0.04726 0.89529 0.0
H1469 H 0.09585 0.96906 0.89049 0.0
H1470 H 0.09525 0.98084 0.90396 0.0
H1471 H 0.09801 0.01521 0.89418 0.0
C1472 C 0.06644 0.07634 0.91865 0.0
C1473 C 0.05853 0.11104 0.91556 0.0
C1474 C 0.05848 0.04791 0.91218 0.0
C1475 C 0.04287 0.05344 0.90238 0.0
C1476 C 0.03659 0.08829 0.89903 0.0
H1477 H 0.97773 0.83802 0.90282 0.0
H1478 H 0.99516 0.88738 0.89146 0.0
C1479 C 0.0445 0.11694 0.90557 0.0
C1480 C 0.02736 0.02259 0.89686 0.0
H1481 H 0.04171 0.93378 0.89659 0.0
C1482 C 0.99065 0.02256 0.8951 0.0
C1483 C 0.04621 0.99039 0.89595 0.0
C1484 C 0.0861 0.98913 0.89612 0.0
C1485 C 0.97181 0.99062 0.89456 0.0
C1486 C 0.9901 0.95845 0.89622 0.0
C1487 C 0.02728 0.95846 0.89581 0.0
C1488 C 0.97248 0.92795 0.90133 0.0
C1489 C 0.93216 0.99186 0.89328 0.0
C1490 C 0.95338 0.9342 0.91054 0.0
C1491 C 0.94361 0.90631 0.91699 0.0
C1492 C 0.953 0.87145 0.91446 0.0
C1493 C 0.9702 0.86472 0.90495 0.0
C1494 C 0.98007 0.89286 0.89845 0.0
H1495 H 0.92488 0.01167 0.88726 0.0
H1496 H 0.92113 0.96568 0.89103 0.0
H1497 H 0.91979 0.00051 0.90069 0.0
H1498 H 0.94818 0.96092 0.91319 0.0
H1499 H 0.93023 0.91233 0.92423 0.0
H1500 H 0.84566 0.0144 0.0953 0.0
H1501 H 0.89545 -0.00224 0.10665 0.0
H1502 H 0.96865 0.03824 0.08374 0.0
H1503 H 0.91977 0.05514 0.07264 0.0
H1504 H 0.94372 0.9498 0.10232 0.0
H1505 H 0.0172 0.07166 0.10941 0.0
H1506 H 0.97094 0.07241 0.10575 0.0
H1507 H 0.00529 0.07279 0.09595 0.0
C1508 C 0.87244 0.02039 0.09284 0.0
C1509 C 0.87892 0.03583 0.08306 0.0
C1510 C 0.90078 0.01103 0.09934 0.0
C1511 C 0.93582 0.01754 0.09619 0.0
C1512 C 0.94194 0.03407 0.08656 0.0
H1513 H 0.08144 0.91537 0.0733 0.0
H1514 H 0.03191 0.92858 0.08454 0.0
C1515 C 0.91388 0.04323 0.08011 0.0
C1516 C 0.96652 0.00222 0.10178 0.0
H1517 H 0.05462 0.02007 0.10284 0.0
C1518 C 0.96784 0.96528 0.10292 0.0
C1519 C -0.00213 0.02212 0.10323 0.0
C1520 C 0.9975 0.062 0.10365 0.0
C1521 C 0.00049 0.94766 0.10332 0.0
C1522 C 0.03203 0.96753 0.10215 0.0
C1523 C 0.03051 0.00451 0.10323 0.0
C1524 C 0.06345 0.95234 0.09683 0.0
C1525 C 0.00076 0.90781 0.10391 0.0
C1526 C 0.0981 0.96125 0.09988 0.0
C1527 C 0.12676 0.95423 0.09325 0.0
C1528 C 0.12101 0.93852 0.08347 0.0
C1529 C 0.08672 0.92768 0.08076 0.0
C1530 C 0.0583 0.93469 0.08732 0.0
H1531 H 0.98116 0.89861 0.10977 0.0
H1532 H 0.99266 0.89659 0.09629 0.0
H1533 H 0.02731 0.89739 0.10602 0.0
H1534 H 0.10274 0.97525 0.10711 0.0
H1535 H 0.15301 0.96278 0.09554 0.0
H1536 H 0.47651 0.15268 0.84851 0.0
H1537 H 0.48696 0.10568 0.86139 0.0
H1538 H 0.45949 0.02723 0.8383 0.0
H1539 H 0.44829 0.07348 0.82566 0.0
H1540 H 0.43339 0.0115 0.85864 0.0
H1541 H 0.57686 0.04561 0.85945 0.0
H1542 H 0.54337 0.07685 0.86338 0.0
H1543 H 0.54944 0.0669 0.84982 0.0
C1544 C 0.47229 0.12534 0.84627 0.0
C1545 C 0.46203 0.11662 0.83605 0.0
C1546 C 0.47823 0.09862 0.85363 0.0
C1547 C 0.47412 0.06299 0.8508 0.0
C1548 C 0.46245 0.05458 0.84072 0.0
H1549 H 0.54342 0.92148 0.82535 0.0
H1550 H 0.5333 0.96851 0.83786 0.0
C1551 C 0.45636 0.08106 0.83344 0.0
C1552 C 0.48581 0.03342 0.8575 0.0
H1553 H 0.56179 0.98532 0.85783 0.0
C1554 C 0.46151 0.00577 0.85905 0.0
C1555 C 0.52241 0.02637 0.85854 0.0
C1556 C 0.54971 0.05542 0.85778 0.0
C1557 C 0.47284 0.97043 0.85884 0.0
C1558 C 0.50926 0.96337 0.85736 0.0
C1559 C 0.53375 0.99103 0.85858 0.0
C1560 C 0.52009 0.93345 0.85066 0.0
C1561 C 0.44544 0.94139 0.85841 0.0
C1562 C 0.51637 0.89799 0.8537 0.0
C1563 C 0.52165 0.87085 0.84643 0.0
C1564 C 0.53092 0.87897 0.83608 0.0
C1565 C 0.53614 0.91438 0.83324 0.0
C1566 C 0.53066 0.94129 0.84043 0.0
H1567 H 0.41848 0.95127 0.86031 0.0
H1568 H 0.44483 0.92965 0.85049 0.0
H1569 H 0.45236 0.92014 0.86401 0.0
H1570 H 0.50852 0.89137 0.86157 0.0
H1571 H 0.51783 0.84365 0.84885 0.0
H1572 H 0.89006 0.52971 0.17245 0.0
H1573 H 0.93808 0.54177 0.16033 0.0
H1574 H 0.90001 0.45898 0.14001 0.0
H1575 H 0.85082 0.44751 0.1522 0.0
H1576 H 0.96829 0.44863 0.14744 0.0
H1577 H 0.9608 0.58332 0.13178 0.0
H1578 H 0.94464 0.58375 0.14489 0.0
H1579 H 0.92167 0.55803 0.13516 0.0
C1580 C 0.89121 0.51507 0.1652 0.0
C1581 C 0.86706 0.48787 0.16317 0.0
C1582 C 0.91837 0.52218 0.15821 0.0
C1583 C 0.92227 0.50175 0.14914 0.0
C1584 C 0.89701 0.47554 0.14684 0.0
H1585 H 0.14959 0.50806 0.15417 0.0
H1586 H 0.10097 0.49787 0.14174 0.0
C1587 C 0.86913 0.46895 0.15379 0.0
C1588 C 0.95688 0.50305 0.14377 0.0
H1589 H 0.01892 0.56721 0.1403 0.0
C1590 C 0.9795 0.47405 0.14528 0.0
C1591 C 0.97141 0.5358 0.14062 0.0
C1592 C 0.94815 0.56684 0.1379 0.0
C1593 C 0.01625 0.47897 0.14598 0.0
C1594 C 0.03012 0.51361 0.14501 0.0
C1595 C 0.00811 0.54081 0.14132 0.0
C1596 C 0.06144 0.52402 0.1512 0.0
C1597 C 0.03915 0.44835 0.14937 0.0
C1598 C 0.0554 0.54278 0.16046 0.0
C1599 C 0.08272 0.5484 0.16751 0.0
C1600 C 0.11681 0.53544 0.16546 0.0
C1601 C 0.12343 0.5181 0.15596 0.0
C1602 C 0.0958 0.51231 0.14886 0.0
H1603 H 0.02454 0.4228 0.14924 0.0
H1604 H 0.06248 0.4461 0.14417 0.0
H1605 H 0.04895 0.45303 0.1574 0.0
H1606 H 0.02901 0.55178 0.16246 0.0
H1607 H 0.07683 0.56218 0.1747 0.0
H1608 H 0.56192 0.57576 0.42657 0.0
H1609 H 0.54866 0.52726 0.41492 0.0
H1610 H 0.51011 0.60088 0.39185 0.0
H1611 H 0.52279 0.65019 0.40377 0.0
H1612 H 0.46311 0.55205 0.39477 0.0
H1613 H 0.5866 0.47994 0.38982 0.0
H1614 H 0.58499 0.49066 0.40336 0.0
H1615 H 0.5864 0.52586 0.39382 0.0
C1616 C 0.55127 0.58184 0.41895 0.0
C1617 C 0.5431 0.61674 0.41613 0.0
C1618 C 0.54422 0.55401 0.41218 0.0
C1619 C 0.52921 0.56032 0.40235 0.0
C1620 C 0.52221 0.59538 0.39932 0.0
H1621 H 0.47631 0.34345 0.40264 0.0
H1622 H 0.4906 0.39291 0.39094 0.0
C1623 C 0.52931 0.62347 0.40615 0.0
C1624 C 0.51545 0.52964 0.39637 0.0
H1625 H 0.534 0.4417 0.39561 0.0
C1626 C 0.47887 0.52807 0.39447 0.0
C1627 C 0.53581 0.49846 0.39526 0.0
C1628 C 0.57571 0.49909 0.39555 0.0
C1629 C 0.46157 0.49531 0.39369 0.0
C1630 C 0.48128 0.46392 0.3953 0.0
C1631 C 0.51842 0.46569 0.39491 0.0
C1632 C 0.46513 0.43272 0.40049 0.0
C1633 C 0.42196 0.49475 0.39227 0.0
C1634 C 0.44541 0.4384 0.40962 0.0
C1635 C 0.43738 0.41045 0.41624 0.0
C1636 C 0.44922 0.37613 0.414 0.0
C1637 C 0.46695 0.36976 0.40456 0.0
C1638 C 0.47502 0.39795 0.39786 0.0
H1639 H 0.41414 0.51399 0.38615 0.0
H1640 H 0.41216 0.46804 0.39007 0.0
H1641 H 0.40889 0.5032 0.3996 0.0
H1642 H 0.43845 0.46489 0.41209 0.0
H1643 H 0.42348 0.41619 0.42343 0.0
H1644 H 0.34405 0.52934 0.59568 0.0
H1645 H 0.39405 0.5122 0.60681 0.0
H1646 H 0.46673 0.55064 0.58346 0.0
H1647 H 0.41748 0.56817 0.57253 0.0
H1648 H 0.43944 0.46271 0.602 0.0
H1649 H 0.5188 0.58114 0.60883 0.0
H1650 H 0.47246 0.58401 0.60535 0.0
H1651 H 0.50631 0.5827 0.59541 0.0
C1652 C 0.37077 0.53492 0.59308 0.0
C1653 C 0.37697 0.5498 0.58321 0.0
C1654 C 0.39924 0.52526 0.59946 0.0
C1655 C 0.43419 0.53079 0.59609 0.0
C1656 C 0.44012 0.54716 0.58643 0.0
H1657 H 0.57732 0.42199 0.57311 0.0
H1658 H 0.5275 0.43809 0.58397 0.0
C1659 C 0.41185 0.5567 0.58008 0.0
C1660 C 0.46462 0.51405 0.60144 0.0
H1661 H 0.55349 0.52775 0.60231 0.0
C1662 C 0.46426 0.47706 0.60255 0.0
C1663 C 0.49689 0.53249 0.60277 0.0
C1664 C 0.4984 0.57235 0.60315 0.0
C1665 C 0.49603 0.45793 0.60286 0.0
C1666 C 0.52841 0.47634 0.60171 0.0
C1667 C 0.52866 0.51336 0.60273 0.0
C1668 C 0.55926 0.45954 0.59657 0.0
C1669 C 0.49446 0.4181 0.60339 0.0
C1670 C 0.59402 0.46622 0.59994 0.0
C1671 C 0.62281 0.4575 0.59357 0.0
C1672 C 0.61714 0.4423 0.58371 0.0
C1673 C 0.58254 0.43378 0.58065 0.0
C1674 C 0.55395 0.44248 0.58697 0.0
H1675 H 0.47398 0.40962 0.60907 0.0
H1676 H 0.48657 0.40742 0.59568 0.0
H1677 H 0.52034 0.40648 0.60566 0.0
H1678 H 0.59877 0.47974 0.60724 0.0
H1679 H 0.64929 0.46425 0.59614 0.0
H1680 H 0.29127 0.33057 0.414 0.0
H1681 H 0.25677 0.31674 0.39847 0.0
H1682 H 0.31057 0.21639 0.39576 0.0
H1683 H 0.3458 0.23058 0.41125 0.0
H1684 H 0.30986 0.24941 0.37771 0.0
H1685 H 0.17421 0.25246 0.39365 0.0
H1686 H 0.19714 0.29275 0.39664 0.0
H1687 H 0.21286 0.25141 0.40191 0.0
C1688 C 0.29522 0.30524 0.41024 0.0
C1689 C 0.32111 0.28156 0.41386 0.0
C1690 C 0.27539 0.29728 0.40137 0.0
C1691 C 0.28054 0.2652 0.39606 0.0
C1692 C 0.30598 0.24121 0.39977 0.0
H1693 H 0.13718 0.22562 0.34353 0.0
H1694 H 0.17037 0.2165 0.35971 0.0
C1695 C 0.32612 0.24935 0.40858 0.0
C1696 C 0.26137 0.25818 0.38619 0.0
H1697 H 0.17939 0.26162 0.37508 0.0
C1698 C 0.28126 0.25147 0.37717 0.0
C1699 C 0.22402 0.26007 0.38548 0.0
C1700 C 0.20084 0.26416 0.39497 0.0
C1701 C 0.26499 0.24862 0.36738 0.0
C1702 C 0.22796 0.25366 0.36657 0.0
C1703 C 0.20786 0.25832 0.37566 0.0
C1704 C 0.2098 0.25657 0.35636 0.0
C1705 C 0.28776 0.24046 0.35804 0.0
C1706 C 0.22094 0.28199 0.34909 0.0
C1707 C 0.20225 0.28696 0.33984 0.0
C1708 C 0.1716 0.26708 0.33775 0.0
C1709 C 0.16063 0.24138 0.34497 0.0
C1710 C 0.17959 0.23613 0.35419 0.0
H1711 H 0.31153 0.22493 0.3603 0.0
H1712 H 0.27285 0.2254 0.35204 0.0
H1713 H 0.29713 0.26565 0.35454 0.0
H1714 H 0.24343 0.29891 0.35073 0.0
H1715 H 0.21093 0.30747 0.33454 0.0
H1716 H 0.24758 0.86737 0.65743 0.0
H1717 H 0.23615 0.8314 0.64193 0.0
H1718 H 0.33594 0.7779 0.64632 0.0
H1719 H 0.34739 0.81353 0.6618 0.0
H1720 H 0.27475 0.82924 0.6242 0.0
H1721 H 0.26944 0.69545 0.64161 0.0
H1722 H 0.26688 0.73528 0.64935 0.0
H1723 H 0.30918 0.71855 0.64514 0.0
C1724 C 0.26696 0.84779 0.65512 0.0
C1725 C 0.29835 0.84323 0.66086 0.0
C1726 C 0.26034 0.82718 0.64629 0.0
C1727 C 0.28492 0.80159 0.64307 0.0
C1728 C 0.31613 0.7968 0.64883 0.0
H1729 H 0.33361 0.71893 0.58315 0.0
H1730 H 0.32582 0.75423 0.59887 0.0
C1731 C 0.32269 0.81724 0.65767 0.0
C1732 C 0.27929 0.78153 0.6333 0.0
H1733 H 0.28009 0.69805 0.62316 0.0
C1734 C 0.27539 0.80053 0.62398 0.0
C1735 C 0.27949 0.74409 0.63304 0.0
C1736 C 0.28109 0.72216 0.64284 0.0
C1737 C 0.27347 0.78312 0.61435 0.0
C1738 C 0.2763 0.74579 0.61404 0.0
C1739 C 0.27838 0.72672 0.62339 0.0
C1740 C 0.27913 0.72607 0.6041 0.0
C1741 C 0.26865 0.80492 0.60461 0.0
C1742 C 0.25579 0.69814 0.60188 0.0
C1743 C 0.26036 0.67772 0.5929 0.0
C1744 C 0.28843 0.68481 0.58601 0.0
C1745 C 0.31136 0.7132 0.58818 0.0
C1746 C 0.30689 0.73346 0.59717 0.0
H1747 H 0.25533 0.83048 0.60634 0.0
H1748 H 0.29502 0.81103 0.60124 0.0
H1749 H 0.25286 0.79045 0.59869 0.0
H1750 H 0.23428 0.6919 0.60715 0.0
H1751 H 0.24211 0.65622 0.59139 0.0
H1752 H 0.85301 0.74432 0.34228 0.0
H1753 H 0.81675 0.75254 0.35788 0.0
H1754 H 0.77755 0.64571 0.35491 0.0
H1755 H 0.81355 0.63741 0.33928 0.0
H1756 H 0.72494 0.69379 0.35959 0.0
H1757 H 0.83998 0.70954 0.38617 0.0
H1758 H 0.83907 0.74016 0.37548 0.0
H1759 H 0.84453 0.69364 0.373 0.0
C1760 C 0.83677 0.72256 0.34498 0.0
C1761 C 0.83635 0.69012 0.33961 0.0
C1762 C 0.8161 0.72728 0.35389 0.0
C1763 C 0.79499 0.69951 0.35765 0.0
C1764 C 0.79377 0.66744 0.35214 0.0
H1765 H 0.7088 0.65931 0.41805 0.0
H1766 H 0.74349 0.66306 0.40208 0.0
C1767 C 0.81424 0.66278 0.3432 0.0
C1768 C 0.77446 0.70352 0.36739 0.0
H1769 H 0.78315 0.71687 0.39354 0.0
C1770 C 0.73759 0.69899 0.36702 0.0
C1771 C 0.79118 0.70992 0.37707 0.0
C1772 C 0.83089 0.71329 0.37802 0.0
C1773 C 0.71695 0.70034 0.37609 0.0
C1774 C 0.73363 0.70715 0.38575 0.0
C1775 C 0.77045 0.71202 0.3861 0.0
C1776 C 0.71369 0.70683 0.39566 0.0
C1777 C 0.6777 0.69319 0.37529 0.0
C1778 C 0.68597 0.7308 0.39746 0.0
C1779 C 0.66603 0.7287 0.40661 0.0
C1780 C 0.67374 0.70284 0.41415 0.0
C1781 C 0.70239 0.67978 0.41248 0.0
C1782 C 0.72215 0.68177 0.40332 0.0
H1783 H 0.67057 0.68048 0.36778 0.0
H1784 H 0.66866 0.67582 0.38174 0.0
H1785 H 0.66309 0.7186 0.37584 0.0
H1786 H 0.67955 0.75088 0.39175 0.0
H1787 H 0.64447 0.74716 0.40777 0.0
H1788 H 0.70806 0.09956 0.64911 0.0
H1789 H 0.71852 0.13499 0.63354 0.0
H1790 H 0.70774 0.23058 0.65163 0.0
H1791 H 0.6985 0.19529 0.66734 0.0
H1792 H 0.67091 0.18238 0.62523 0.0
H1793 H 0.79734 0.24994 0.63474 0.0
H1794 H 0.78176 0.21156 0.64177 0.0
H1795 H 0.76389 0.25464 0.64458 0.0
C1796 C 0.70874 0.12808 0.64986 0.0
C1797 C 0.70254 0.14457 0.65951 0.0
C1798 C 0.71451 0.1483 0.64092 0.0
C1799 C 0.71437 0.18537 0.64146 0.0
C1800 C 0.70866 0.20198 0.65108 0.0
H1801 H 0.70544 0.3574 0.59799 0.0
H1802 H 0.71053 0.31912 0.61321 0.0
C1803 C 0.70292 0.18177 0.66003 0.0
C1804 C 0.71743 0.20659 0.63182 0.0
H1805 H 0.76522 0.27227 0.62014 0.0
C1806 C 0.69175 0.20176 0.62405 0.0
C1807 C 0.74459 0.23191 0.63035 0.0
C1808 C 0.77367 0.23717 0.63826 0.0
C1809 C 0.69186 0.2223 0.61497 0.0
C1810 C 0.71876 0.24793 0.61356 0.0
C1811 C 0.74471 0.25251 0.62126 0.0
C1812 C 0.71928 0.27128 0.60432 0.0
C1813 C 0.6625 0.21727 0.60713 0.0
C1814 C 0.72354 0.25715 0.59431 0.0
C1815 C 0.72076 0.27901 0.58557 0.0
C1816 C 0.71387 0.31539 0.58671 0.0
C1817 C 0.71113 0.32963 0.59681 0.0
C1818 C 0.71387 0.30776 0.60552 0.0
H1819 H 0.6399 0.20209 0.61042 0.0
H1820 H 0.65256 0.24322 0.60431 0.0
H1821 H 0.67286 0.20239 0.60034 0.0
H1822 H 0.72839 0.22912 0.59324 0.0
H1823 H 0.72361 0.26737 0.57792 0.0
H1824 H 0.22072 0.16923 0.91542 0.0
H1825 H 0.2547 0.18241 0.89977 0.0
H1826 H 0.18874 0.27351 0.89392 0.0
H1827 H 0.15406 0.25988 0.90955 0.0
H1828 H 0.19481 0.23497 0.87701 0.0
H1829 H 0.32885 0.25429 0.89305 0.0
H1830 H 0.31113 0.21277 0.89734 0.0
H1831 H 0.28995 0.25348 0.90121 0.0
C1832 C 0.21395 0.19253 0.91094 0.0
C1833 C 0.1848 0.2136 0.91372 0.0
C1834 C 0.2335 0.20015 0.90201 0.0
C1835 C 0.22477 0.22939 0.89577 0.0
C1836 C 0.19611 0.25095 0.89865 0.0
H1837 H 0.365 0.26015 0.84187 0.0
H1838 H 0.33107 0.2737 0.85766 0.0
C1839 C 0.17627 0.2431 0.90754 0.0
C1840 C 0.24352 0.23519 0.88577 0.0
H1841 H 0.32597 0.23606 0.87492 0.0
C1842 C 0.22349 0.23593 0.87657 0.0
C1843 C 0.28089 0.23727 0.88516 0.0
C1844 C 0.30386 0.23983 0.89474 0.0
C1845 C 0.23987 0.23629 0.86677 0.0
C1846 C 0.27726 0.2348 0.86617 0.0
C1847 C 0.29728 0.23653 0.87537 0.0
C1848 C 0.296 0.22859 0.8562 0.0
C1849 C 0.21685 0.23776 0.85718 0.0
C1850 C 0.28766 0.19874 0.85017 0.0
C1851 C 0.30677 0.19115 0.84115 0.0
C1852 C 0.33509 0.2129 0.83807 0.0
C1853 C 0.34341 0.24287 0.84409 0.0
C1854 C 0.324 0.25067 0.85308 0.0
H1855 H 0.19159 0.25181 0.8588 0.0
H1856 H 0.23051 0.25129 0.85064 0.0
H1857 H 0.2101 0.2104 0.85473 0.0
H1858 H 0.26701 0.18062 0.8526 0.0
H1859 H 0.30023 0.16746 0.83682 0.0
H1860 H 0.15305 0.69212 0.16299 0.0
H1861 H 0.15942 0.72359 0.1465 0.0
H1862 H 0.25665 0.66735 0.14039 0.0
H1863 H 0.25002 0.63527 0.15687 0.0
H1864 H 0.21041 0.76725 0.13942 0.0
H1865 H 0.20115 0.64863 0.11404 0.0
H1866 H 0.19077 0.64731 0.12774 0.0
H1867 H 0.23614 0.64649 0.12347 0.0
C1868 C 0.17595 0.68667 0.15819 0.0
C1869 C 0.20102 0.66116 0.1612 0.0
C1870 C 0.17948 0.70455 0.14874 0.0
C1871 C 0.20819 0.69739 0.14213 0.0
C1872 C 0.23381 0.67263 0.14524 0.0
H1873 H 0.25655 0.83746 0.0897 0.0
H1874 H 0.26084 0.8028 0.10578 0.0
C1875 C 0.23009 0.65445 0.15466 0.0
C1876 C 0.2111 0.71609 0.13203 0.0
H1877 H 0.21395 0.70311 0.10574 0.0
C1878 C 0.21128 0.75325 0.13205 0.0
C1879 C 0.21176 0.69772 0.12243 0.0
C1880 C 0.20961 0.65785 0.12187 0.0
C1881 C 0.2118 0.77261 0.12274 0.0
C1882 C 0.21322 0.75425 0.11314 0.0
C1883 C 0.21327 0.71709 0.11311 0.0
C1884 C 0.21263 0.77316 0.10304 0.0
C1885 C 0.20951 0.81248 0.12328 0.0
C1886 C 0.18508 0.76679 0.09594 0.0
C1887 C 0.1829 0.78616 0.08671 0.0
C1888 C 0.20819 0.81236 0.08443 0.0
C1889 C 0.23646 0.81779 0.09136 0.0
C1890 C 0.23883 0.79813 0.10055 0.0
H1891 H 0.19933 0.82165 0.13093 0.0
H1892 H 0.23634 0.82392 0.12219 0.0
H1893 H 0.192 0.82305 0.11707 0.0
H1894 H 0.16463 0.74755 0.0977 0.0
H1895 H 0.16066 0.78161 0.08157 0.0
H1896 H 0.83971 0.73468 0.91033 0.0
H1897 H 0.80242 0.72555 0.89493 0.0
H1898 H 0.75383 0.82752 0.89992 0.0
H1899 H 0.79044 0.8364 0.91536 0.0
H1900 H 0.70551 0.77778 0.89437 0.0
H1901 H 0.82078 0.77462 0.86749 0.0
H1902 H 0.82167 0.74151 0.8775 0.0
H1903 H 0.8248 0.78756 0.88094 0.0
C1904 C 0.82096 0.75503 0.90813 0.0
C1905 C 0.81809 0.78631 0.914 0.0
C1906 C 0.79978 0.74985 0.89934 0.0
C1907 C 0.77585 0.77616 0.89617 0.0
C1908 C 0.77216 0.80689 0.90222 0.0
H1909 H 0.69188 0.83042 0.83699 0.0
H1910 H 0.72519 0.82178 0.85303 0.0
C1911 C 0.79302 0.81189 0.91106 0.0
C1912 C 0.75536 0.77255 0.88639 0.0
H1913 H 0.76438 0.76693 0.86002 0.0
C1914 C 0.71831 0.77515 0.88685 0.0
C1915 C 0.77224 0.76949 0.8766 0.0
C1916 C 0.81205 0.76845 0.87554 0.0
C1917 C 0.69767 0.77568 0.87777 0.0
C1918 C 0.71456 0.77258 0.86798 0.0
C1919 C 0.75153 0.76903 0.86754 0.0
C1920 C 0.69485 0.77624 0.85807 0.0
C1921 C 0.65822 0.78125 0.87873 0.0
C1922 C 0.66706 0.75314 0.85548 0.0
C1923 C 0.64779 0.75819 0.8463 0.0
C1924 C 0.6564 0.78605 0.8395 0.0
C1925 C 0.6849 0.80844 0.84199 0.0
C1926 C 0.70387 0.80362 0.85118 0.0
H1927 H 0.6507 0.79124 0.88656 0.0
H1928 H 0.6486 0.80033 0.8728 0.0
H1929 H 0.64442 0.75566 0.87747 0.0
H1930 H 0.6602 0.73133 0.86056 0.0
H1931 H 0.62623 0.7403 0.84449 0.0
H1932 H 0.79668 0.22274 0.07828 0.0
H1933 H 0.79411 0.26062 0.09373 0.0
H1934 H 0.80139 0.16843 0.11341 0.0
H1935 H 0.80402 0.1305 0.09805 0.0
H1936 H 0.75047 0.21739 0.12003 0.0
H1937 H 0.87999 0.28209 0.11218 0.0
H1938 H 0.8486 0.285 0.10171 0.0
H1939 H 0.86582 0.24253 0.10548 0.0
C1940 C 0.7978 0.21058 0.0859 0.0
C1941 C 0.80072 0.17363 0.08693 0.0
C1942 C 0.79636 0.23223 0.09471 0.0
C1943 C 0.79815 0.21732 0.1047 0.0
C1944 C 0.80004 0.18043 0.10576 0.0
H1945 H 0.8117 0.29372 0.16813 0.0
H1946 H 0.80663 0.25782 0.15232 0.0
C1947 C 0.80135 0.15877 0.09696 0.0
C1948 C 0.7987 0.2401 0.11407 0.0
H1949 H 0.847 0.3039 0.12644 0.0
C1950 C 0.77155 0.23631 0.12144 0.0
C1951 C 0.82633 0.26466 0.11588 0.0
C1952 C 0.85704 0.2687 0.10845 0.0
C1953 C 0.7711 0.25675 0.13057 0.0
C1954 C 0.79879 0.28119 0.13239 0.0
C1955 C 0.82579 0.28515 0.12498 0.0
C1956 C 0.80059 0.30268 0.142 0.0
C1957 C 0.74081 0.25239 0.13812 0.0
C1958 C 0.79951 0.33973 0.14139 0.0
C1959 C 0.80265 0.36024 0.15038 0.0
C1960 C 0.8072 0.34405 0.16015 0.0
C1961 C 0.80835 0.3069 0.16072 0.0
C1962 C 0.8051 0.28638 0.15172 0.0
H1963 H 0.71764 0.23925 0.13443 0.0
H1964 H 0.7496 0.23574 0.14475 0.0
H1965 H 0.7323 0.27843 0.14126 0.0
H1966 H 0.79643 0.35277 0.13393 0.0
H1967 H 0.80236 0.38877 0.14963 0.0
loop_
_geom_bond_atom_site_label_1
_geom_bond_atom_site_label_2
_geom_bond_distance
_geom_bond_site_symmetry_2
_ccdc_geom_bond_type
Co0 N4 2.148 . S
Co0 N10 2.128 1_455 S
Co0 N20 2.194 . S
Co0 O25 2.351 1_455 S
Co0 O26 2.155 . S
Co0 O27 2.096 . S
C1 N4 1.301 . S
C1 N5 1.328 . S
C1 H6 0.930 . S
C2 C3 1.333 . S
C2 N4 1.317 . S
C2 H7 0.930 . S
C3 C2 1.333 . S
C3 N5 1.350 . S
C3 H29 0.931 . S
N4 Co0 2.148 . S
N4 C1 1.301 . S
N4 C2 1.317 . S
N5 C1 1.328 . S
N5 C3 1.350 . S
H6 C1 0.930 . S
H7 C2 0.930 . S
C8 O9 1.224 . S
C8 O27 1.247 . S
O9 C8 1.224 . S
N10 Co0 2.128 1_655 S
N10 C11 1.355 . S
N10 C13 1.311 . S
C11 N10 1.355 . S
C11 C12 1.363 . S
C11 H23 0.929 . S
C12 C11 1.363 . S
C12 N14 1.375 . S
C12 H30 0.931 . S
C13 N10 1.311 . S
C13 N14 1.347 . S
C13 H24 0.929 . S
N14 C12 1.375 . S
N14 C13 1.347 . S
C15 C18 1.362 1_455 S
C15 N20 1.335 . S
C15 H21 0.927 1_455 S
C16 C17 1.347 1_455 S
C16 C19 1.378 . S
C16 H31 0.929 . S
C17 C16 1.347 1_655 S
C17 C18 1.373 . S
C18 C15 1.362 1_655 S
C18 C17 1.373 . S
C18 H32 0.930 . S
C19 C16 1.378 . S
C19 N20 1.315 . S
C19 H22 0.930 . S
N20 Co0 2.194 . S
N20 C15 1.335 . S
N20 C19 1.315 . S
H21 C15 0.927 1_655 S
H22 C19 0.930 . S
H23 C11 0.929 . S
H24 C13 0.929 . S
O25 Co0 2.351 1_655 S
O25 C28 1.248 . S
O26 Co0 2.155 . S
O26 C28 1.229 1_455 S
O27 Co0 2.096 . S
O27 C8 1.247 . S
C28 O25 1.248 . S
C28 O26 1.229 1_655 S
H29 C3 0.931 . S
H30 C12 0.931 . S
H31 C16 0.929 . S
H32 C18 0.930 . S
Co33 N37 2.148 . S
Co33 N43 2.128 1_565 S
Co33 N53 2.194 . S
Co33 O58 2.351 1_565 S
Co33 O59 2.155 . S
Co33 O60 2.096 . S
C34 N37 1.301 . S
C34 N38 1.328 . S
C34 H39 0.930 . S
C35 C36 1.333 . S
C35 N37 1.317 . S
C35 H40 0.930 . S
C36 C35 1.333 . S
C36 N38 1.350 . S
C36 H62 0.931 . S
N37 Co33 2.148 . S
N37 C34 1.301 . S
N37 C35 1.317 . S
N38 C34 1.328 . S
N38 C36 1.350 . S
H39 C34 0.930 . S
H40 C35 0.930 . S
C41 O42 1.224 . S
C41 O60 1.247 . S
O42 C41 1.224 . S
N43 Co33 2.128 1_545 S
N43 C44 1.355 . S
N43 C46 1.311 . S
C44 N43 1.355 . S
C44 C45 1.363 . S
C44 H56 0.929 . S
C45 C44 1.363 . S
C45 N47 1.375 . S
C45 H63 0.931 . S
C46 N43 1.311 . S
C46 N47 1.347 . S
C46 H57 0.929 . S
N47 C45 1.375 . S
N47 C46 1.347 . S
C48 C51 1.362 1_565 S
C48 N53 1.335 . S
C48 H54 0.927 1_565 S
C49 C50 1.347 1_565 S
C49 C52 1.378 . S
C49 H64 0.929 . S
C50 C49 1.347 1_545 S
C50 C51 1.373 . S
C51 C48 1.362 1_545 S
C51 C50 1.373 . S
C51 H65 0.930 . S
C52 C49 1.378 . S
C52 N53 1.315 . S
C52 H55 0.930 . S
N53 Co33 2.194 . S
N53 C48 1.335 . S
N53 C52 1.315 . S
H54 C48 0.927 1_545 S
H55 C52 0.930 . S
H56 C44 0.929 . S
H57 C46 0.929 . S
O58 Co33 2.351 1_545 S
O58 C61 1.248 . S
O59 Co33 2.155 . S
O59 C61 1.229 1_565 S
O60 Co33 2.096 . S
O60 C41 1.247 . S
C61 O58 1.248 . S
C61 O59 1.229 1_545 S
H62 C36 0.931 . S
H63 C45 0.931 . S
H64 C49 0.929 . S
H65 C51 0.930 . S
Co66 N70 2.148 . S
Co66 N76 2.128 1_655 S
Co66 N86 2.194 . S
Co66 O91 2.351 1_655 S
Co66 O92 2.155 . S
Co66 O93 2.096 . S
C67 N70 1.301 . S
C67 N71 1.328 . S
C67 H72 0.930 . S
C68 C69 1.333 . S
C68 N70 1.317 . S
C68 H73 0.930 . S
C69 C68 1.333 . S
C69 N71 1.350 . S
C69 H95 0.931 . S
N70 Co66 2.148 . S
N70 C67 1.301 . S
N70 C68 1.317 . S
N71 C67 1.328 . S
N71 C69 1.350 . S
H72 C67 0.930 . S
H73 C68 0.930 . S
C74 O75 1.224 . S
C74 O93 1.247 . S
O75 C74 1.224 . S
N76 Co66 2.128 1_455 S
N76 C77 1.355 . S
N76 C79 1.311 . S
C77 N76 1.355 . S
C77 C78 1.363 . S
C77 H89 0.929 . S
C78 C77 1.363 . S
C78 N80 1.375 . S
C78 H96 0.931 . S
C79 N76 1.311 . S
C79 N80 1.347 . S
C79 H90 0.929 . S
N80 C78 1.375 . S
N80 C79 1.347 . S
C81 C84 1.362 1_655 S
C81 N86 1.335 . S
C81 H87 0.927 1_655 S
C82 C83 1.347 1_655 S
C82 C85 1.378 . S
C82 H97 0.929 . S
C83 C82 1.347 1_455 S
C83 C84 1.373 . S
C84 C81 1.362 1_455 S
C84 C83 1.373 . S
C84 H98 0.930 . S
C85 C82 1.378 . S
C85 N86 1.315 . S
C85 H88 0.930 . S
N86 Co66 2.194 . S
N86 C81 1.335 . S
N86 C85 1.315 . S
H87 C81 0.927 1_455 S
H88 C85 0.930 . S
H89 C77 0.929 . S
H90 C79 0.929 . S
O91 Co66 2.351 1_455 S
O91 C94 1.248 . S
O92 Co66 2.155 . S
O92 C94 1.229 1_655 S
O93 Co66 2.096 . S
O93 C74 1.247 . S
C94 O91 1.248 . S
C94 O92 1.229 1_455 S
H95 C69 0.931 . S
H96 C78 0.931 . S
H97 C82 0.929 . S
H98 C84 0.930 . S
Co99 N103 2.148 . S
Co99 N109 2.128 1_545 S
Co99 N119 2.194 . S
Co99 O124 2.351 1_545 S
Co99 O125 2.155 . S
Co99 O126 2.096 . S
C100 N103 1.301 . S
C100 N104 1.328 . S
C100 H105 0.930 . S
C101 C102 1.333 . S
C101 N103 1.317 . S
C101 H106 0.930 . S
C102 C101 1.333 . S
C102 N104 1.350 . S
C102 H128 0.931 . S
N103 Co99 2.148 . S
N103 C100 1.301 . S
N103 C101 1.317 . S
N104 C100 1.328 . S
N104 C102 1.350 . S
H105 C100 0.930 . S
H106 C101 0.930 . S
C107 O108 1.224 . S
C107 O126 1.247 . S
O108 C107 1.224 . S
N109 Co99 2.128 1_565 S
N109 C110 1.355 . S
N109 C112 1.311 . S
C110 N109 1.355 . S
C110 C111 1.363 . S
C110 H122 0.929 . S
C111 C110 1.363 . S
C111 N113 1.375 . S
C111 H129 0.931 . S
C112 N109 1.311 . S
C112 N113 1.347 . S
C112 H123 0.929 . S
N113 C111 1.375 . S
N113 C112 1.347 . S
C114 C117 1.362 1_545 S
C114 N119 1.335 . S
C114 H120 0.927 1_545 S
C115 C116 1.347 1_545 S
C115 C118 1.378 . S
C115 H130 0.929 . S
C116 C115 1.347 1_565 S
C116 C117 1.373 . S
C117 C114 1.362 1_565 S
C117 C116 1.373 . S
C117 H131 0.930 . S
C118 C115 1.378 . S
C118 N119 1.315 . S
C118 H121 0.930 . S
N119 Co99 2.194 . S
N119 C114 1.335 . S
N119 C118 1.315 . S
H120 C114 0.927 1_565 S
H121 C118 0.930 . S
H122 C110 0.929 . S
H123 C112 0.929 . S
O124 Co99 2.351 1_565 S
O124 C127 1.248 . S
O125 Co99 2.155 . S
O125 C127 1.229 1_545 S
O126 Co99 2.096 . S
O126 C107 1.247 . S
C127 O124 1.248 . S
C127 O125 1.229 1_565 S
H128 C102 0.931 . S
H129 C111 0.931 . S
H130 C115 0.929 . S
H131 C117 0.930 . S
Co132 N136 2.148 . S
Co132 N142 2.128 1_455 S
Co132 N152 2.194 . S
Co132 O157 2.351 1_455 S
Co132 O158 2.155 . S
Co132 O159 2.096 . S
C133 N136 1.301 . S
C133 N137 1.328 . S
C133 H138 0.930 . S
C134 C135 1.333 . S
C134 N136 1.317 . S
C134 H139 0.930 . S
C135 C134 1.333 . S
C135 N137 1.350 . S
C135 H161 0.931 . S
N136 Co132 2.148 . S
N136 C133 1.301 . S
N136 C134 1.317 . S
N137 C133 1.328 . S
N137 C135 1.350 . S
H138 C133 0.930 . S
H139 C134 0.930 . S
C140 O141 1.224 . S
C140 O159 1.247 . S
O141 C140 1.224 . S
N142 Co132 2.128 1_655 S
N142 C143 1.355 . S
N142 C145 1.311 . S
C143 N142 1.355 . S
C143 C144 1.363 . S
C143 H155 0.929 . S
C144 C143 1.363 . S
C144 N146 1.375 . S
C144 H162 0.931 . S
C145 N142 1.311 . S
C145 N146 1.347 . S
C145 H156 0.929 . S
N146 C144 1.375 . S
N146 C145 1.347 . S
C147 C150 1.362 1_455 S
C147 N152 1.334 . S
C147 H153 0.927 1_455 S
C148 C149 1.346 1_455 S
C148 C151 1.378 . S
C148 H163 0.929 . S
C149 C148 1.346 1_655 S
C149 C150 1.373 . S
C150 C147 1.362 1_655 S
C150 C149 1.373 . S
C150 H164 0.930 . S
C151 C148 1.378 . S
C151 N152 1.315 . S
C151 H154 0.930 . S
N152 Co132 2.194 . S
N152 C147 1.334 . S
N152 C151 1.315 . S
H153 C147 0.927 1_655 S
H154 C151 0.930 . S
H155 C143 0.929 . S
H156 C145 0.929 . S
O157 Co132 2.351 1_655 S
O157 C160 1.248 . S
O158 Co132 2.155 . S
O158 C160 1.229 1_455 S
O159 Co132 2.096 . S
O159 C140 1.247 . S
C160 O157 1.248 . S
C160 O158 1.229 1_655 S
H161 C135 0.931 . S
H162 C144 0.931 . S
H163 C148 0.929 . S
H164 C150 0.930 . S
Co165 N169 2.148 . S
Co165 N175 2.128 1_565 S
Co165 N185 2.194 . S
Co165 O190 2.351 1_565 S
Co165 O191 2.155 . S
Co165 O192 2.096 . S
C166 N169 1.301 . S
C166 N170 1.328 . S
C166 H171 0.930 . S
C167 C168 1.333 . S
C167 N169 1.317 . S
C167 H172 0.930 . S
C168 C167 1.333 . S
C168 N170 1.350 . S
C168 H194 0.931 . S
N169 Co165 2.148 . S
N169 C166 1.301 . S
N169 C167 1.317 . S
N170 C166 1.328 . S
N170 C168 1.350 . S
H171 C166 0.930 . S
H172 C167 0.930 . S
C173 O174 1.224 . S
C173 O192 1.247 . S
O174 C173 1.224 . S
N175 Co165 2.128 1_545 S
N175 C176 1.355 . S
N175 C178 1.311 . S
C176 N175 1.355 . S
C176 C177 1.363 . S
C176 H188 0.929 . S
C177 C176 1.363 . S
C177 N179 1.375 . S
C177 H195 0.931 . S
C178 N175 1.311 . S
C178 N179 1.347 . S
C178 H189 0.929 . S
N179 C177 1.375 . S
N179 C178 1.347 . S
C180 C183 1.362 1_565 S
C180 N185 1.334 . S
C180 H186 0.927 1_565 S
C181 C182 1.346 1_565 S
C181 C184 1.378 . S
C181 H196 0.929 . S
C182 C181 1.346 1_545 S
C182 C183 1.373 . S
C183 C180 1.362 1_545 S
C183 C182 1.373 . S
C183 H197 0.930 . S
C184 C181 1.378 . S
C184 N185 1.315 . S
C184 H187 0.930 . S
N185 Co165 2.194 . S
N185 C180 1.334 . S
N185 C184 1.315 . S
H186 C180 0.927 1_545 S
H187 C184 0.930 . S
H188 C176 0.929 . S
H189 C178 0.929 . S
O190 Co165 2.351 1_545 S
O190 C193 1.248 . S
O191 Co165 2.155 . S
O191 C193 1.229 1_565 S
O192 Co165 2.096 . S
O192 C173 1.247 . S
C193 O190 1.248 . S
C193 O191 1.229 1_545 S
H194 C168 0.931 . S
H195 C177 0.931 . S
H196 C181 0.929 . S
H197 C183 0.930 . S
Co198 N202 2.148 . S
Co198 N208 2.128 1_655 S
Co198 N218 2.194 . S
Co198 O223 2.351 1_655 S
Co198 O224 2.155 . S
Co198 O225 2.096 . S
C199 N202 1.301 . S
C199 N203 1.328 . S
C199 H204 0.930 . S
C200 C201 1.333 . S
C200 N202 1.317 . S
C200 H205 0.930 . S
C201 C200 1.333 . S
C201 N203 1.350 . S
C201 H227 0.931 . S
N202 Co198 2.148 . S
N202 C199 1.301 . S
N202 C200 1.317 . S
N203 C199 1.328 . S
N203 C201 1.350 . S
H204 C199 0.930 . S
H205 C200 0.930 . S
C206 O207 1.224 . S
C206 O225 1.247 . S
O207 C206 1.224 . S
N208 Co198 2.128 1_455 S
N208 C209 1.355 . S
N208 C211 1.311 . S
C209 N208 1.355 . S
C209 C210 1.363 . S
C209 H221 0.929 . S
C210 C209 1.363 . S
C210 N212 1.375 . S
C210 H228 0.931 . S
C211 N208 1.311 . S
C211 N212 1.347 . S
C211 H222 0.929 . S
N212 C210 1.375 . S
N212 C211 1.347 . S
C213 C216 1.362 1_655 S
C213 N218 1.334 . S
C213 H219 0.927 1_655 S
C214 C215 1.346 1_655 S
C214 C217 1.378 . S
C214 H229 0.929 . S
C215 C214 1.346 1_455 S
C215 C216 1.373 . S
C216 C213 1.362 1_455 S
C216 C215 1.373 . S
C216 H230 0.930 . S
C217 C214 1.378 . S
C217 N218 1.315 . S
C217 H220 0.930 . S
N218 Co198 2.194 . S
N218 C213 1.334 . S
N218 C217 1.315 . S
H219 C213 0.927 1_455 S
H220 C217 0.930 . S
H221 C209 0.929 . S
H222 C211 0.929 . S
O223 Co198 2.351 1_455 S
O223 C226 1.248 . S
O224 Co198 2.155 . S
O224 C226 1.229 1_655 S
O225 Co198 2.096 . S
O225 C206 1.247 . S
C226 O223 1.248 . S
C226 O224 1.229 1_455 S
H227 C201 0.931 . S
H228 C210 0.931 . S
H229 C214 0.929 . S
H230 C216 0.930 . S
Co231 N235 2.148 . S
Co231 N241 2.128 1_545 S
Co231 N251 2.194 . S
Co231 O256 2.351 1_545 S
Co231 O257 2.155 . S
Co231 O258 2.096 . S
C232 N235 1.301 . S
C232 N236 1.328 . S
C232 H237 0.930 . S
C233 C234 1.333 . S
C233 N235 1.317 . S
C233 H238 0.930 . S
C234 C233 1.333 . S
C234 N236 1.350 . S
C234 H260 0.931 . S
N235 Co231 2.148 . S
N235 C232 1.301 . S
N235 C233 1.317 . S
N236 C232 1.328 . S
N236 C234 1.350 . S
H237 C232 0.930 . S
H238 C233 0.930 . S
C239 O240 1.224 . S
C239 O258 1.247 . S
O240 C239 1.224 . S
N241 Co231 2.128 1_565 S
N241 C242 1.355 . S
N241 C244 1.311 . S
C242 N241 1.355 . S
C242 C243 1.363 . S
C242 H254 0.929 . S
C243 C242 1.363 . S
C243 N245 1.375 . S
C243 H261 0.931 . S
C244 N241 1.311 . S
C244 N245 1.347 . S
C244 H255 0.929 . S
N245 C243 1.375 . S
N245 C244 1.347 . S
C246 C249 1.362 1_545 S
C246 N251 1.334 . S
C246 H252 0.927 1_545 S
C247 C248 1.346 1_545 S
C247 C250 1.378 . S
C247 H262 0.929 . S
C248 C247 1.346 1_565 S
C248 C249 1.373 . S
C249 C246 1.362 1_565 S
C249 C248 1.373 . S
C249 H263 0.930 . S
C250 C247 1.378 . S
C250 N251 1.315 . S
C250 H253 0.930 . S
N251 Co231 2.194 . S
N251 C246 1.334 . S
N251 C250 1.315 . S
H252 C246 0.927 1_565 S
H253 C250 0.930 . S
H254 C242 0.929 . S
H255 C244 0.929 . S
O256 Co231 2.351 1_565 S
O256 C259 1.248 . S
O257 Co231 2.155 . S
O257 C259 1.229 1_545 S
O258 Co231 2.096 . S
O258 C239 1.247 . S
C259 O256 1.248 . S
C259 O257 1.229 1_565 S
H260 C234 0.931 . S
H261 C243 0.931 . S
H262 C247 0.929 . S
H263 C249 0.930 . S
Co264 N268 2.148 . S
Co264 N274 2.128 . S
Co264 N284 2.194 . S
Co264 O289 2.351 . S
Co264 O290 2.155 . S
Co264 O291 2.096 . S
C265 N268 1.301 . S
C265 N269 1.328 . S
C265 H270 0.930 . S
C266 C267 1.333 . S
C266 N268 1.317 . S
C266 H271 0.930 . S
C267 C266 1.333 . S
C267 N269 1.350 . S
C267 H293 0.931 . S
N268 Co264 2.148 . S
N268 C265 1.301 . S
N268 C266 1.317 . S
N269 C265 1.328 . S
N269 C267 1.350 . S
H270 C265 0.930 . S
H271 C266 0.930 . S
C272 O273 1.224 . S
C272 O291 1.247 . S
O273 C272 1.224 . S
N274 Co264 2.128 . S
N274 C275 1.355 . S
N274 C277 1.311 . S
C275 N274 1.355 . S
C275 C276 1.363 . S
C275 H287 0.929 . S
C276 C275 1.363 . S
C276 N278 1.375 . S
C276 H294 0.931 . S
C277 N274 1.311 . S
C277 N278 1.347 . S
C277 H288 0.929 . S
N278 C276 1.375 . S
N278 C277 1.347 . S
C279 C282 1.365 . S
C279 N284 1.328 . S
C279 H285 0.929 . S
C280 C281 1.362 . S
C280 C283 1.378 . S
C280 H295 0.929 . S
C281 C280 1.362 . S
C281 C282 1.366 . S
C282 C279 1.365 . S
C282 C281 1.366 . S
C282 H296 0.930 . S
C283 C280 1.378 . S
C283 N284 1.315 . S
C283 H286 0.930 . S
N284 Co264 2.194 . S
N284 C279 1.328 . S
N284 C283 1.315 . S
H285 C279 0.929 . S
H286 C283 0.930 . S
H287 C275 0.929 . S
H288 C277 0.929 . S
O289 Co264 2.351 . S
O289 C292 1.244 . S
O290 Co264 2.155 . S
O290 C292 1.240 . S
O291 Co264 2.096 . S
O291 C272 1.247 . S
C292 O289 1.244 . S
C292 O290 1.240 . S
H293 C267 0.931 . S
H294 C276 0.931 . S
H295 C280 0.929 . S
H296 C282 0.930 . S
Co297 N301 2.148 . S
Co297 N307 2.128 . S
Co297 N317 2.194 . S
Co297 O322 2.351 . S
Co297 O323 2.155 . S
Co297 O324 2.096 . S
C298 N301 1.301 . S
C298 N302 1.328 . S
C298 H303 0.930 . S
C299 C300 1.333 . S
C299 N301 1.317 . S
C299 H304 0.930 . S
C300 C299 1.333 . S
C300 N302 1.350 . S
C300 H326 0.931 . S
N301 Co297 2.148 . S
N301 C298 1.301 . S
N301 C299 1.317 . S
N302 C298 1.328 . S
N302 C300 1.350 . S
H303 C298 0.930 . S
H304 C299 0.930 . S
C305 O306 1.224 . S
C305 O324 1.247 . S
O306 C305 1.224 . S
N307 Co297 2.128 . S
N307 C308 1.355 . S
N307 C310 1.311 . S
C308 N307 1.355 . S
C308 C309 1.363 . S
C308 H320 0.929 . S
C309 C308 1.363 . S
C309 N311 1.375 . S
C309 H327 0.931 . S
C310 N307 1.311 . S
C310 N311 1.347 . S
C310 H321 0.929 . S
N311 C309 1.375 . S
N311 C310 1.347 . S
C312 C315 1.365 . S
C312 N317 1.328 . S
C312 H318 0.929 . S
C313 C314 1.362 . S
C313 C316 1.378 . S
C313 H328 0.929 . S
C314 C313 1.362 . S
C314 C315 1.366 . S
C315 C312 1.365 . S
C315 C314 1.366 . S
C315 H329 0.930 . S
C316 C313 1.378 . S
C316 N317 1.315 . S
C316 H319 0.930 . S
N317 Co297 2.194 . S
N317 C312 1.328 . S
N317 C316 1.315 . S
H318 C312 0.929 . S
H319 C316 0.930 . S
H320 C308 0.929 . S
H321 C310 0.929 . S
O322 Co297 2.351 . S
O322 C325 1.244 . S
O323 Co297 2.155 . S
O323 C325 1.240 . S
O324 Co297 2.096 . S
O324 C305 1.247 . S
C325 O322 1.244 . S
C325 O323 1.240 . S
H326 C300 0.931 . S
H327 C309 0.931 . S
H328 C313 0.929 . S
H329 C315 0.930 . S
Co330 N334 2.148 . S
Co330 N340 2.128 . S
Co330 N350 2.194 . S
Co330 O355 2.351 . S
Co330 O356 2.155 . S
Co330 O357 2.096 . S
C331 N334 1.301 . S
C331 N335 1.328 . S
C331 H336 0.930 . S
C332 C333 1.333 . S
C332 N334 1.317 . S
C332 H337 0.930 . S
C333 C332 1.333 . S
C333 N335 1.350 . S
C333 H359 0.931 . S
N334 Co330 2.148 . S
N334 C331 1.301 . S
N334 C332 1.317 . S
N335 C331 1.328 . S
N335 C333 1.350 . S
H336 C331 0.930 . S
H337 C332 0.930 . S
C338 O339 1.224 . S
C338 O357 1.247 . S
O339 C338 1.224 . S
N340 Co330 2.128 . S
N340 C341 1.355 . S
N340 C343 1.311 . S
C341 N340 1.355 . S
C341 C342 1.363 . S
C341 H353 0.929 . S
C342 C341 1.363 . S
C342 N344 1.375 . S
C342 H360 0.931 . S
C343 N340 1.311 . S
C343 N344 1.347 . S
C343 H354 0.929 . S
N344 C342 1.375 . S
N344 C343 1.347 . S
C345 C348 1.365 . S
C345 N350 1.328 . S
C345 H351 0.929 . S
C346 C347 1.362 . S
C346 C349 1.378 . S
C346 H361 0.929 . S
C347 C346 1.362 . S
C347 C348 1.366 . S
C348 C345 1.365 . S
C348 C347 1.366 . S
C348 H362 0.930 . S
C349 C346 1.378 . S
C349 N350 1.315 . S
C349 H352 0.930 . S
N350 Co330 2.194 . S
N350 C345 1.328 . S
N350 C349 1.315 . S
H351 C345 0.929 . S
H352 C349 0.930 . S
H353 C341 0.929 . S
H354 C343 0.929 . S
O355 Co330 2.351 . S
O355 C358 1.244 . S
O356 Co330 2.155 . S
O356 C358 1.240 . S
O357 Co330 2.096 . S
O357 C338 1.247 . S
C358 O355 1.244 . S
C358 O356 1.240 . S
H359 C333 0.931 . S
H360 C342 0.931 . S
H361 C346 0.929 . S
H362 C348 0.930 . S
Co363 N367 2.148 . S
Co363 N373 2.128 . S
Co363 N383 2.194 . S
Co363 O388 2.351 . S
Co363 O389 2.155 . S
Co363 O390 2.096 . S
C364 N367 1.301 . S
C364 N368 1.328 . S
C364 H369 0.930 . S
C365 C366 1.333 . S
C365 N367 1.317 . S
C365 H370 0.930 . S
C366 C365 1.333 . S
C366 N368 1.350 . S
C366 H392 0.931 . S
N367 Co363 2.148 . S
N367 C364 1.301 . S
N367 C365 1.317 . S
N368 C364 1.328 . S
N368 C366 1.350 . S
H369 C364 0.930 . S
H370 C365 0.930 . S
C371 O372 1.224 . S
C371 O390 1.247 . S
O372 C371 1.224 . S
N373 Co363 2.128 . S
N373 C374 1.355 . S
N373 C376 1.311 . S
C374 N373 1.355 . S
C374 C375 1.363 . S
C374 H386 0.929 . S
C375 C374 1.363 . S
C375 N377 1.375 . S
C375 H393 0.931 . S
C376 N373 1.311 . S
C376 N377 1.347 . S
C376 H387 0.929 . S
N377 C375 1.375 . S
N377 C376 1.347 . S
C378 C381 1.365 . S
C378 N383 1.328 . S
C378 H384 0.929 . S
C379 C380 1.362 . S
C379 C382 1.378 . S
C379 H394 0.929 . S
C380 C379 1.362 . S
C380 C381 1.366 . S
C381 C378 1.365 . S
C381 C380 1.366 . S
C381 H395 0.930 . S
C382 C379 1.378 . S
C382 N383 1.315 . S
C382 H385 0.930 . S
N383 Co363 2.194 . S
N383 C378 1.328 . S
N383 C382 1.315 . S
H384 C378 0.929 . S
H385 C382 0.930 . S
H386 C374 0.929 . S
H387 C376 0.929 . S
O388 Co363 2.351 . S
O388 C391 1.244 . S
O389 Co363 2.155 . S
O389 C391 1.240 . S
O390 Co363 2.096 . S
O390 C371 1.247 . S
C391 O388 1.244 . S
C391 O389 1.240 . S
H392 C366 0.931 . S
H393 C375 0.931 . S
H394 C379 0.929 . S
H395 C381 0.930 . S
Co396 N400 2.148 . S
Co396 N406 2.128 . S
Co396 N416 2.194 . S
Co396 O421 2.351 . S
Co396 O422 2.155 . S
Co396 O423 2.096 . S
C397 N400 1.301 . S
C397 N401 1.328 . S
C397 H402 0.930 . S
C398 C399 1.333 . S
C398 N400 1.317 . S
C398 H403 0.930 . S
C399 C398 1.333 . S
C399 N401 1.350 . S
C399 H425 0.931 . S
N400 Co396 2.148 . S
N400 C397 1.301 . S
N400 C398 1.317 . S
N401 C397 1.328 . S
N401 C399 1.350 . S
H402 C397 0.930 . S
H403 C398 0.930 . S
C404 O405 1.224 . S
C404 O423 1.247 . S
O405 C404 1.224 . S
N406 Co396 2.128 . S
N406 C407 1.355 . S
N406 C409 1.311 . S
C407 N406 1.355 . S
C407 C408 1.363 . S
C407 H419 0.929 . S
C408 C407 1.363 . S
C408 N410 1.375 . S
C408 H426 0.931 . S
C409 N406 1.311 . S
C409 N410 1.347 . S
C409 H420 0.929 . S
N410 C408 1.375 . S
N410 C409 1.347 . S
C411 C414 1.365 . S
C411 N416 1.328 . S
C411 H417 0.929 . S
C412 C413 1.362 . S
C412 C415 1.378 . S
C412 H427 0.929 . S
C413 C412 1.362 . S
C413 C414 1.366 . S
C414 C411 1.365 . S
C414 C413 1.366 . S
C414 H428 0.930 . S
C415 C412 1.378 . S
C415 N416 1.315 . S
C415 H418 0.930 . S
N416 Co396 2.194 . S
N416 C411 1.328 . S
N416 C415 1.315 . S
H417 C411 0.929 . S
H418 C415 0.930 . S
H419 C407 0.929 . S
H420 C409 0.929 . S
O421 Co396 2.351 . S
O421 C424 1.244 . S
O422 Co396 2.155 . S
O422 C424 1.240 . S
O423 Co396 2.096 . S
O423 C404 1.247 . S
C424 O421 1.244 . S
C424 O422 1.240 . S
H425 C399 0.931 . S
H426 C408 0.931 . S
H427 C412 0.929 . S
H428 C414 0.930 . S
Co429 N433 2.148 . S
Co429 N439 2.128 . S
Co429 N449 2.194 . S
Co429 O454 2.351 . S
Co429 O455 2.155 . S
Co429 O456 2.096 . S
C430 N433 1.301 . S
C430 N434 1.328 . S
C430 H435 0.930 . S
C431 C432 1.333 . S
C431 N433 1.317 . S
C431 H436 0.930 . S
C432 C431 1.333 . S
C432 N434 1.350 . S
C432 H458 0.931 . S
N433 Co429 2.148 . S
N433 C430 1.301 . S
N433 C431 1.317 . S
N434 C430 1.328 . S
N434 C432 1.350 . S
H435 C430 0.930 . S
H436 C431 0.930 . S
C437 O438 1.224 . S
C437 O456 1.247 . S
O438 C437 1.224 . S
N439 Co429 2.128 . S
N439 C440 1.355 . S
N439 C442 1.311 . S
C440 N439 1.355 . S
C440 C441 1.363 . S
C440 H452 0.929 . S
C441 C440 1.363 . S
C441 N443 1.375 . S
C441 H459 0.931 . S
C442 N439 1.311 . S
C442 N443 1.347 . S
C442 H453 0.929 . S
N443 C441 1.375 . S
N443 C442 1.347 . S
C444 C447 1.365 . S
C444 N449 1.328 . S
C444 H450 0.929 . S
C445 C446 1.362 . S
C445 C448 1.378 . S
C445 H460 0.929 . S
C446 C445 1.362 . S
C446 C447 1.366 . S
C447 C444 1.365 . S
C447 C446 1.366 . S
C447 H461 0.930 . S
C448 C445 1.378 . S
C448 N449 1.315 . S
C448 H451 0.930 . S
N449 Co429 2.194 . S
N449 C444 1.328 . S
N449 C448 1.315 . S
H450 C444 0.929 . S
H451 C448 0.930 . S
H452 C440 0.929 . S
H453 C442 0.929 . S
O454 Co429 2.351 . S
O454 C457 1.244 . S
O455 Co429 2.155 . S
O455 C457 1.240 . S
O456 Co429 2.096 . S
O456 C437 1.247 . S
C457 O454 1.244 . S
C457 O455 1.240 . S
H458 C432 0.931 . S
H459 C441 0.931 . S
H460 C445 0.929 . S
H461 C447 0.930 . S
Co462 N466 2.148 . S
Co462 N472 2.128 . S
Co462 N482 2.194 . S
Co462 O487 2.351 . S
Co462 O488 2.155 . S
Co462 O489 2.096 . S
C463 N466 1.301 . S
C463 N467 1.328 . S
C463 H468 0.930 . S
C464 C465 1.333 . S
C464 N466 1.317 . S
C464 H469 0.930 . S
C465 C464 1.333 . S
C465 N467 1.350 . S
C465 H491 0.931 . S
N466 Co462 2.148 . S
N466 C463 1.301 . S
N466 C464 1.317 . S
N467 C463 1.328 . S
N467 C465 1.350 . S
H468 C463 0.930 . S
H469 C464 0.930 . S
C470 O471 1.224 . S
C470 O489 1.247 . S
O471 C470 1.224 . S
N472 Co462 2.128 . S
N472 C473 1.355 . S
N472 C475 1.311 . S
C473 N472 1.355 . S
C473 C474 1.363 . S
C473 H485 0.929 . S
C474 C473 1.363 . S
C474 N476 1.375 . S
C474 H492 0.931 . S
C475 N472 1.311 . S
C475 N476 1.347 . S
C475 H486 0.929 . S
N476 C474 1.375 . S
N476 C475 1.347 . S
C477 C480 1.365 . S
C477 N482 1.328 . S
C477 H483 0.929 . S
C478 C479 1.362 . S
C478 C481 1.378 . S
C478 H493 0.929 . S
C479 C478 1.362 . S
C479 C480 1.366 . S
C480 C477 1.365 . S
C480 C479 1.366 . S
C480 H494 0.930 . S
C481 C478 1.378 . S
C481 N482 1.315 . S
C481 H484 0.930 . S
N482 Co462 2.194 . S
N482 C477 1.328 . S
N482 C481 1.315 . S
H483 C477 0.929 . S
H484 C481 0.930 . S
H485 C473 0.929 . S
H486 C475 0.929 . S
O487 Co462 2.351 . S
O487 C490 1.244 . S
O488 Co462 2.155 . S
O488 C490 1.240 . S
O489 Co462 2.096 . S
O489 C470 1.247 . S
C490 O487 1.244 . S
C490 O488 1.240 . S
H491 C465 0.931 . S
H492 C474 0.931 . S
H493 C478 0.929 . S
H494 C480 0.930 . S
Co495 N499 2.148 . S
Co495 N505 2.128 . S
Co495 N515 2.194 . S
Co495 O520 2.351 . S
Co495 O521 2.155 . S
Co495 O522 2.096 . S
C496 N499 1.301 . S
C496 N500 1.328 . S
C496 H501 0.930 . S
C497 C498 1.333 . S
C497 N499 1.317 . S
C497 H502 0.930 . S
C498 C497 1.333 . S
C498 N500 1.350 . S
C498 H524 0.931 . S
N499 Co495 2.148 . S
N499 C496 1.301 . S
N499 C497 1.317 . S
N500 C496 1.328 . S
N500 C498 1.350 . S
H501 C496 0.930 . S
H502 C497 0.930 . S
C503 O504 1.224 . S
C503 O522 1.247 . S
O504 C503 1.224 . S
N505 Co495 2.128 . S
N505 C506 1.355 . S
N505 C508 1.311 . S
C506 N505 1.355 . S
C506 C507 1.363 . S
C506 H518 0.929 . S
C507 C506 1.363 . S
C507 N509 1.375 . S
C507 H525 0.931 . S
C508 N505 1.311 . S
C508 N509 1.347 . S
C508 H519 0.929 . S
N509 C507 1.375 . S
N509 C508 1.347 . S
C510 C513 1.365 . S
C510 N515 1.328 . S
C510 H516 0.929 . S
C511 C512 1.362 . S
C511 C514 1.378 . S
C511 H526 0.929 . S
C512 C511 1.362 . S
C512 C513 1.366 . S
C513 C510 1.365 . S
C513 C512 1.366 . S
C513 H527 0.930 . S
C514 C511 1.378 . S
C514 N515 1.315 . S
C514 H517 0.930 . S
N515 Co495 2.194 . S
N515 C510 1.328 . S
N515 C514 1.315 . S
H516 C510 0.929 . S
H517 C514 0.930 . S
H518 C506 0.929 . S
H519 C508 0.929 . S
O520 Co495 2.351 . S
O520 C523 1.244 . S
O521 Co495 2.155 . S
O521 C523 1.240 . S
O522 Co495 2.096 . S
O522 C503 1.247 . S
C523 O520 1.244 . S
C523 O521 1.240 . S
H524 C498 0.931 . S
H525 C507 0.931 . S
H526 C511 0.929 . S
H527 C513 0.930 . S
H528 C536 0.929 . S
H529 C538 0.930 . S
H530 C540 0.930 . S
H531 C543 0.929 . S
H532 C546 0.930 . S
H533 C548 0.960 . S
H534 C548 0.960 . S
H535 C548 0.960 . S
C536 H528 0.929 . S
C536 C537 1.377 . S
C536 C538 1.384 . S
C537 C536 1.377 . S
C537 C543 1.390 . S
C538 H529 0.930 . S
C538 C536 1.384 . S
C538 C539 1.372 . S
C539 C538 1.372 . S
C539 C540 1.400 . S
C539 C544 1.490 . S
C540 H530 0.930 . S
C540 C539 1.400 . S
C540 C543 1.386 . S
H541 C557 0.930 . S
H542 C558 0.931 . S
C543 H531 0.929 . S
C543 C537 1.390 . S
C543 C540 1.386 . S
C544 C539 1.490 . S
C544 C546 1.395 . S
C544 C547 1.403 . S
H545 C551 0.930 . S
C546 H532 0.930 . S
C546 C544 1.395 . S
C546 C549 1.403 . S
C547 C544 1.403 . S
C547 C548 1.524 . S
C547 C551 1.400 . S
C548 H533 0.960 . S
C548 H534 0.960 . S
C548 H535 0.960 . S
C548 C547 1.524 . S
C549 C546 1.403 . S
C549 C550 1.392 . S
C549 C553 1.495 . S
C550 C549 1.392 . S
C550 C551 1.385 . S
C550 C552 1.478 . S
C551 H545 0.930 . S
C551 C547 1.400 . S
C551 C550 1.385 . S
C552 C550 1.478 . S
C552 C554 1.381 . S
C552 C558 1.383 . S
C553 C549 1.495 . S
C553 H559 0.959 . S
C553 H560 0.961 . S
C553 H561 0.960 . S
C554 C552 1.381 . S
C554 C555 1.394 . S
C554 H562 0.930 . S
C555 C554 1.394 . S
C555 C556 1.383 . S
C555 H563 0.929 . S
C556 C555 1.383 . S
C556 C557 1.377 . S
C557 H541 0.930 . S
C557 C556 1.377 . S
C557 C558 1.379 . S
C558 H542 0.931 . S
C558 C552 1.383 . S
C558 C557 1.379 . S
H559 C553 0.959 . S
H560 C553 0.961 . S
H561 C553 0.960 . S
H562 C554 0.930 . S
H563 C555 0.929 . S
H564 C572 0.929 . S
H565 C574 0.930 . S
H566 C576 0.930 . S
H567 C579 0.929 . S
H568 C582 0.930 . S
H569 C584 0.960 . S
H570 C584 0.960 . S
H571 C584 0.960 . S
C572 H564 0.929 . S
C572 C573 1.377 . S
C572 C574 1.384 . S
C573 C572 1.377 . S
C573 C579 1.390 . S
C574 H565 0.930 . S
C574 C572 1.384 . S
C574 C575 1.372 . S
C575 C574 1.372 . S
C575 C576 1.400 . S
C575 C580 1.490 . S
C576 H566 0.930 . S
C576 C575 1.400 . S
C576 C579 1.386 . S
H577 C593 0.930 . S
H578 C594 0.931 . S
C579 H567 0.929 . S
C579 C573 1.390 . S
C579 C576 1.386 . S
C580 C575 1.490 . S
C580 C582 1.395 . S
C580 C583 1.403 . S
H581 C587 0.930 . S
C582 H568 0.930 . S
C582 C580 1.395 . S
C582 C585 1.403 . S
C583 C580 1.403 . S
C583 C584 1.524 . S
C583 C587 1.400 . S
C584 H569 0.960 . S
C584 H570 0.960 . S
C584 H571 0.960 . S
C584 C583 1.524 . S
C585 C582 1.403 . S
C585 C586 1.392 . S
C585 C589 1.495 . S
C586 C585 1.392 . S
C586 C587 1.385 . S
C586 C588 1.478 . S
C587 H581 0.930 . S
C587 C583 1.400 . S
C587 C586 1.385 . S
C588 C586 1.478 . S
C588 C590 1.381 . S
C588 C594 1.383 . S
C589 C585 1.495 . S
C589 H595 0.959 . S
C589 H596 0.961 . S
C589 H597 0.960 . S
C590 C588 1.381 . S
C590 C591 1.394 . S
C590 H598 0.930 . S
C591 C590 1.394 . S
C591 C592 1.383 . S
C591 H599 0.929 . S
C592 C591 1.383 . S
C592 C593 1.377 . S
C593 H577 0.930 . S
C593 C592 1.377 . S
C593 C594 1.379 . S
C594 H578 0.931 . S
C594 C588 1.383 . S
C594 C593 1.379 . S
H595 C589 0.959 . S
H596 C589 0.961 . S
H597 C589 0.960 . S
H598 C590 0.930 . S
H599 C591 0.929 . S
H600 C608 0.929 . S
H601 C610 0.930 . S
H602 C612 0.930 . S
H603 C615 0.929 . S
H604 C618 0.930 . S
H605 C620 0.960 . S
H606 C620 0.960 . S
H607 C620 0.960 . S
C608 H600 0.929 . S
C608 C609 1.377 . S
C608 C610 1.384 . S
C609 C608 1.377 . S
C609 C615 1.390 . S
C610 H601 0.930 . S
C610 C608 1.384 . S
C610 C611 1.372 . S
C611 C610 1.372 . S
C611 C612 1.400 . S
C611 C616 1.490 . S
C612 H602 0.930 . S
C612 C611 1.400 . S
C612 C615 1.386 . S
H613 C629 0.930 . S
H614 C630 0.931 . S
C615 H603 0.929 . S
C615 C609 1.390 . S
C615 C612 1.386 . S
C616 C611 1.490 . S
C616 C618 1.395 . S
C616 C619 1.403 . S
H617 C623 0.930 . S
C618 H604 0.930 . S
C618 C616 1.395 . S
C618 C621 1.403 . S
C619 C616 1.403 . S
C619 C620 1.524 . S
C619 C623 1.400 . S
C620 H605 0.960 . S
C620 H606 0.960 . S
C620 H607 0.960 . S
C620 C619 1.524 . S
C621 C618 1.403 . S
C621 C622 1.392 . S
C621 C625 1.495 . S
C622 C621 1.392 . S
C622 C623 1.385 . S
C622 C624 1.478 . S
C623 H617 0.930 . S
C623 C619 1.400 . S
C623 C622 1.385 . S
C624 C622 1.478 . S
C624 C626 1.381 . S
C624 C630 1.383 . S
C625 C621 1.495 . S
C625 H631 0.959 . S
C625 H632 0.961 . S
C625 H633 0.960 . S
C626 C624 1.381 . S
C626 C627 1.394 . S
C626 H634 0.930 . S
C627 C626 1.394 . S
C627 C628 1.383 . S
C627 H635 0.929 . S
C628 C627 1.383 . S
C628 C629 1.377 . S
C629 H613 0.930 . S
C629 C628 1.377 . S
C629 C630 1.379 . S
C630 H614 0.931 . S
C630 C624 1.383 . S
C630 C629 1.379 . S
H631 C625 0.959 . S
H632 C625 0.961 . S
H633 C625 0.960 . S
H634 C626 0.930 . S
H635 C627 0.929 . S
H636 C644 0.929 . S
H637 C646 0.930 . S
H638 C648 0.930 . S
H639 C651 0.929 . S
H640 C654 0.930 . S
H641 C656 0.960 . S
H642 C656 0.960 . S
H643 C656 0.960 . S
C644 H636 0.929 . S
C644 C645 1.377 . S
C644 C646 1.384 . S
C645 C644 1.377 . S
C645 C651 1.390 . S
C646 H637 0.930 . S
C646 C644 1.384 . S
C646 C647 1.372 . S
C647 C646 1.372 . S
C647 C648 1.400 . S
C647 C652 1.490 . S
C648 H638 0.930 . S
C648 C647 1.400 . S
C648 C651 1.386 . S
H649 C665 0.930 . S
H650 C666 0.931 . S
C651 H639 0.929 . S
C651 C645 1.390 . S
C651 C648 1.386 . S
C652 C647 1.490 . S
C652 C654 1.395 . S
C652 C655 1.403 . S
H653 C659 0.930 . S
C654 H640 0.930 . S
C654 C652 1.395 . S
C654 C657 1.403 . S
C655 C652 1.403 . S
C655 C656 1.524 . S
C655 C659 1.400 . S
C656 H641 0.960 . S
C656 H642 0.960 . S
C656 H643 0.960 . S
C656 C655 1.524 . S
C657 C654 1.403 . S
C657 C658 1.392 . S
C657 C661 1.495 . S
C658 C657 1.392 . S
C658 C659 1.385 . S
C658 C660 1.478 . S
C659 H653 0.930 . S
C659 C655 1.400 . S
C659 C658 1.385 . S
C660 C658 1.478 . S
C660 C662 1.381 . S
C660 C666 1.383 . S
C661 C657 1.495 . S
C661 H667 0.959 . S
C661 H668 0.961 . S
C661 H669 0.960 . S
C662 C660 1.381 . S
C662 C663 1.394 . S
C662 H670 0.930 . S
C663 C662 1.394 . S
C663 C664 1.383 . S
C663 H671 0.929 . S
C664 C663 1.383 . S
C664 C665 1.377 . S
C665 H649 0.930 . S
C665 C664 1.377 . S
C665 C666 1.379 . S
C666 H650 0.931 . S
C666 C660 1.383 . S
C666 C665 1.379 . S
H667 C661 0.959 . S
H668 C661 0.961 . S
H669 C661 0.960 . S
H670 C662 0.930 . S
H671 C663 0.929 . S
H672 C680 0.929 . S
H673 C682 0.930 . S
H674 C684 0.930 . S
H675 C687 0.929 . S
H676 C690 0.930 . S
H677 C692 0.960 . S
H678 C692 0.960 . S
H679 C692 0.960 . S
C680 H672 0.929 . S
C680 C681 1.377 . S
C680 C682 1.384 . S
C681 C680 1.377 . S
C681 C687 1.390 . S
C682 H673 0.930 . S
C682 C680 1.384 . S
C682 C683 1.372 . S
C683 C682 1.372 . S
C683 C684 1.400 . S
C683 C688 1.490 . S
C684 H674 0.930 . S
C684 C683 1.400 . S
C684 C687 1.386 . S
H685 C701 0.930 . S
H686 C702 0.931 . S
C687 H675 0.929 . S
C687 C681 1.390 . S
C687 C684 1.386 . S
C688 C683 1.490 . S
C688 C690 1.395 1_554 S
C688 C691 1.403 . S
H689 C695 0.930 . S
C690 H676 0.930 . S
C690 C688 1.395 1_556 S
C690 C693 1.403 . S
C691 C688 1.403 . S
C691 C692 1.524 . S
C691 C695 1.400 1_554 S
C692 H677 0.960 . S
C692 H678 0.960 . S
C692 H679 0.960 . S
C692 C691 1.524 . S
C693 C690 1.403 . S
C693 C694 1.392 . S
C693 C697 1.495 . S
C694 C693 1.392 . S
C694 C695 1.385 . S
C694 C696 1.478 . S
C695 H689 0.930 . S
C695 C691 1.400 1_556 S
C695 C694 1.385 . S
C696 C694 1.478 . S
C696 C698 1.381 . S
C696 C702 1.383 . S
C697 C693 1.495 . S
C697 H703 0.959 . S
C697 H704 0.961 . S
C697 H705 0.960 . S
C698 C696 1.381 . S
C698 C699 1.394 . S
C698 H706 0.930 . S
C699 C698 1.394 . S
C699 C700 1.383 . S
C699 H707 0.929 . S
C700 C699 1.383 . S
C700 C701 1.377 . S
C701 H685 0.930 . S
C701 C700 1.377 . S
C701 C702 1.379 . S
C702 H686 0.931 . S
C702 C696 1.383 . S
C702 C701 1.379 . S
H703 C697 0.959 . S
H704 C697 0.961 . S
H705 C697 0.960 . S
H706 C698 0.930 . S
H707 C699 0.929 . S
H708 C716 0.929 . S
H709 C718 0.930 . S
H710 C720 0.930 . S
H711 C723 0.929 . S
H712 C726 0.954 . S
H713 C728 0.960 . S
H714 C728 0.960 . S
H715 C728 0.960 . S
C716 H708 0.929 . S
C716 C717 1.377 . S
C716 C718 1.384 . S
C717 C716 1.377 . S
C717 C723 1.390 . S
C718 H709 0.930 . S
C718 C716 1.384 . S
C718 C719 1.372 . S
C719 C718 1.372 . S
C719 C720 1.400 . S
C719 C724 1.490 . S
C720 H710 0.930 . S
C720 C719 1.400 . S
C720 C723 1.386 . S
H721 C737 0.930 . S
H722 C738 0.931 . S
C723 H711 0.929 . S
C723 C717 1.390 . S
C723 C720 1.386 . S
C724 C719 1.490 . S
C724 C726 1.430 . S
C724 C727 1.403 . S
H725 C731 0.930 . S
C726 H712 0.954 . S
C726 C724 1.430 . S
C726 C729 1.347 1_556 S
C727 C724 1.403 . S
C727 C728 1.524 . S
C727 C731 1.400 1_556 S
C728 H713 0.960 . S
C728 H714 0.960 . S
C728 H715 0.960 . S
C728 C727 1.524 . S
C729 C726 1.347 1_554 S
C729 C730 1.392 . S
C729 C733 1.495 . S
C730 C729 1.392 . S
C730 C731 1.385 . S
C730 C732 1.478 . S
C731 H725 0.930 . S
C731 C727 1.400 1_554 S
C731 C730 1.385 . S
C732 C730 1.478 . S
C732 C734 1.381 . S
C732 C738 1.383 . S
C733 C729 1.495 . S
C733 H739 0.959 . S
C733 H740 0.961 . S
C733 H741 0.960 . S
C734 C732 1.381 . S
C734 C735 1.394 . S
C734 H742 0.930 . S
C735 C734 1.394 . S
C735 C736 1.383 . S
C735 H743 0.929 . S
C736 C735 1.383 . S
C736 C737 1.377 . S
C737 H721 0.930 . S
C737 C736 1.377 . S
C737 C738 1.379 . S
C738 H722 0.931 . S
C738 C732 1.383 . S
C738 C737 1.379 . S
H739 C733 0.959 . S
H740 C733 0.961 . S
H741 C733 0.960 . S
H742 C734 0.930 . S
H743 C735 0.929 . S
H744 C752 0.929 . S
H745 C754 0.930 . S
H746 C756 0.930 . S
H747 C759 0.929 . S
H748 C762 0.930 . S
H749 C764 0.960 . S
H750 C764 0.960 . S
H751 C764 0.960 . S
C752 H744 0.929 . S
C752 C753 1.377 . S
C752 C754 1.384 . S
C753 C752 1.377 . S
C753 C759 1.390 . S
C754 H745 0.930 . S
C754 C752 1.384 . S
C754 C755 1.372 . S
C755 C754 1.372 . S
C755 C756 1.400 . S
C755 C760 1.490 . S
C756 H746 0.930 . S
C756 C755 1.400 . S
C756 C759 1.386 . S
H757 C773 0.930 . S
H758 C774 0.931 . S
C759 H747 0.929 . S
C759 C753 1.390 . S
C759 C756 1.386 . S
C760 C755 1.490 . S
C760 C762 1.395 . S
C760 C763 1.403 . S
H761 C767 0.930 . S
C762 H748 0.930 . S
C762 C760 1.395 . S
C762 C765 1.403 1_556 S
C763 C760 1.403 . S
C763 C764 1.524 . S
C763 C767 1.400 1_556 S
C764 H749 0.960 . S
C764 H750 0.960 . S
C764 H751 0.960 . S
C764 C763 1.524 . S
C765 C762 1.403 1_554 S
C765 C766 1.392 . S
C765 C769 1.495 . S
C766 C765 1.392 . S
C766 C767 1.385 . S
C766 C768 1.478 . S
C767 H761 0.930 . S
C767 C763 1.400 1_554 S
C767 C766 1.385 . S
C768 C766 1.478 . S
C768 C770 1.381 . S
C768 C774 1.383 . S
C769 C765 1.495 . S
C769 H775 0.959 . S
C769 H776 0.961 . S
C769 H777 0.960 . S
C770 C768 1.381 . S
C770 C771 1.394 . S
C770 H778 0.930 . S
C771 C770 1.394 . S
C771 C772 1.383 . S
C771 H779 0.929 . S
C772 C771 1.383 . S
C772 C773 1.377 . S
C773 H757 0.930 . S
C773 C772 1.377 . S
C773 C774 1.379 . S
C774 H758 0.931 . S
C774 C768 1.383 . S
C774 C773 1.379 . S
H775 C769 0.959 . S
H776 C769 0.961 . S
H777 C769 0.960 . S
H778 C770 0.930 . S
H779 C771 0.929 . S
H780 C788 0.929 . S
H781 C790 0.930 . S
H782 C792 0.930 . S
H783 C795 0.929 . S
H784 C798 0.930 . S
H785 C800 0.960 1_556 S
H786 C800 0.960 . S
H787 C800 0.960 . S
C788 H780 0.929 . S
C788 C789 1.377 . S
C788 C790 1.384 . S
C789 C788 1.377 . S
C789 C795 1.390 . S
C790 H781 0.930 . S
C790 C788 1.384 . S
C790 C791 1.372 . S
C791 C790 1.372 . S
C791 C792 1.400 . S
C791 C796 1.490 . S
C792 H782 0.930 . S
C792 C791 1.400 . S
C792 C795 1.386 . S
H793 C809 0.930 . S
H794 C810 0.931 . S
C795 H783 0.929 . S
C795 C789 1.390 . S
C795 C792 1.386 . S
C796 C791 1.490 . S
C796 C798 1.395 . S
C796 C799 1.403 . S
H797 C803 0.930 . S
C798 H784 0.930 . S
C798 C796 1.395 . S
C798 C801 1.403 . S
C799 C796 1.403 . S
C799 C800 1.524 . S
C799 C803 1.400 1_554 S
C800 H785 0.960 1_554 S
C800 H786 0.960 . S
C800 H787 0.960 . S
C800 C799 1.524 . S
C801 C798 1.403 . S
C801 C802 1.392 1_554 S
C801 C805 1.495 . S
C802 C801 1.392 1_556 S
C802 C803 1.385 . S
C802 C804 1.478 . S
C803 H797 0.930 . S
C803 C799 1.400 1_556 S
C803 C802 1.385 . S
C804 C802 1.478 . S
C804 C806 1.381 . S
C804 C810 1.383 . S
C805 C801 1.495 . S
C805 H811 0.959 . S
C805 H812 0.961 . S
C805 H813 0.921 1_554 S
C806 C804 1.381 . S
C806 C807 1.394 . S
C806 H814 0.930 . S
C807 C806 1.394 . S
C807 C808 1.383 . S
C807 H815 0.929 . S
C808 C807 1.383 . S
C808 C809 1.377 . S
C809 H793 0.930 . S
C809 C808 1.377 . S
C809 C810 1.379 . S
C810 H794 0.931 . S
C810 C804 1.383 . S
C810 C809 1.379 . S
H811 C805 0.959 . S
H812 C805 0.961 . S
H813 C805 0.921 1_556 S
H814 C806 0.930 . S
H815 C807 0.929 . S
H816 C824 0.929 . S
H817 C826 0.930 . S
H818 C828 0.930 . S
H819 C831 0.929 . S
H820 C834 0.930 . S
H821 C836 0.960 . S
H822 C836 0.960 . S
H823 C836 0.960 . S
C824 H816 0.929 . S
C824 C825 1.377 . S
C824 C826 1.384 . S
C825 C824 1.377 . S
C825 C831 1.390 . S
C826 H817 0.930 . S
C826 C824 1.384 . S
C826 C827 1.372 . S
C827 C826 1.372 . S
C827 C828 1.400 . S
C827 C832 1.490 . S
C828 H818 0.930 . S
C828 C827 1.400 . S
C828 C831 1.386 . S
H829 C845 0.930 . S
H830 C846 0.931 . S
C831 H819 0.929 . S
C831 C825 1.390 . S
C831 C828 1.386 . S
C832 C827 1.490 . S
C832 C834 1.395 . S
C832 C835 1.403 . S
H833 C839 0.930 . S
C834 H820 0.930 . S
C834 C832 1.395 . S
C834 C837 1.403 . S
C835 C832 1.403 . S
C835 C836 1.524 . S
C835 C839 1.400 . S
C836 H821 0.960 . S
C836 H822 0.960 . S
C836 H823 0.960 . S
C836 C835 1.524 . S
C837 C834 1.403 . S
C837 C838 1.392 . S
C837 C841 1.495 . S
C838 C837 1.392 . S
C838 C839 1.385 . S
C838 C840 1.478 . S
C839 H833 0.930 . S
C839 C835 1.400 . S
C839 C838 1.385 . S
C840 C838 1.478 . S
C840 C842 1.381 . S
C840 C846 1.383 . S
C841 C837 1.495 . S
C841 H847 0.959 . S
C841 H848 0.961 . S
C841 H849 0.960 . S
C842 C840 1.381 . S
C842 C843 1.394 . S
C842 H850 0.930 . S
C843 C842 1.394 . S
C843 C844 1.383 . S
C843 H851 0.929 . S
C844 C843 1.383 . S
C844 C845 1.377 . S
C845 H829 0.930 . S
C845 C844 1.377 . S
C845 C846 1.379 . S
C846 H830 0.931 . S
C846 C840 1.383 . S
C846 C845 1.379 . S
H847 C841 0.959 . S
H848 C841 0.961 . S
H849 C841 0.960 . S
H850 C842 0.930 . S
H851 C843 0.929 . S
H852 C860 0.929 . S
H853 C862 0.930 . S
H854 C864 0.930 . S
H855 C867 0.929 . S
H856 C870 0.930 . S
H857 C872 0.960 . S
H858 C872 0.960 . S
H859 C872 0.960 . S
C860 H852 0.929 . S
C860 C861 1.377 . S
C860 C862 1.384 . S
C861 C860 1.377 . S
C861 C867 1.390 . S
C862 H853 0.930 . S
C862 C860 1.384 . S
C862 C863 1.372 . S
C863 C862 1.372 . S
C863 C864 1.400 . S
C863 C868 1.490 . S
C864 H854 0.930 . S
C864 C863 1.400 . S
C864 C867 1.386 . S
H865 C881 0.930 . S
H866 C882 0.931 . S
C867 H855 0.929 . S
C867 C861 1.390 . S
C867 C864 1.386 . S
C868 C863 1.490 . S
C868 C870 1.395 . S
C868 C871 1.403 . S
H869 C875 0.930 . S
C870 H856 0.930 . S
C870 C868 1.395 . S
C870 C873 1.403 . S
C871 C868 1.403 . S
C871 C872 1.524 . S
C871 C875 1.400 . S
C872 H857 0.960 . S
C872 H858 0.960 . S
C872 H859 0.960 . S
C872 C871 1.524 . S
C873 C870 1.403 . S
C873 C874 1.392 . S
C873 C877 1.495 . S
C874 C873 1.392 . S
C874 C875 1.385 . S
C874 C876 1.478 . S
C875 H869 0.930 . S
C875 C871 1.400 . S
C875 C874 1.385 . S
C876 C874 1.478 . S
C876 C878 1.381 . S
C876 C882 1.383 . S
C877 C873 1.495 . S
C877 H883 0.959 . S
C877 H884 0.961 . S
C877 H885 0.960 . S
C878 C876 1.381 . S
C878 C879 1.394 . S
C878 H886 0.930 . S
C879 C878 1.394 . S
C879 C880 1.383 . S
C879 H887 0.929 . S
C880 C879 1.383 . S
C880 C881 1.377 . S
C881 H865 0.930 . S
C881 C880 1.377 . S
C881 C882 1.379 . S
C882 H866 0.931 . S
C882 C876 1.383 . S
C882 C881 1.379 . S
H883 C877 0.959 . S
H884 C877 0.961 . S
H885 C877 0.960 . S
H886 C878 0.930 . S
H887 C879 0.929 . S
H888 C896 0.929 . S
H889 C898 0.930 . S
H890 C900 0.930 . S
H891 C903 0.929 . S
H892 C906 0.930 . S
H893 C908 0.960 . S
H894 C908 0.960 . S
H895 C908 0.960 . S
C896 H888 0.929 . S
C896 C897 1.377 . S
C896 C898 1.384 . S
C897 C896 1.377 . S
C897 C903 1.390 . S
C898 H889 0.930 . S
C898 C896 1.384 . S
C898 C899 1.372 . S
C899 C898 1.372 . S
C899 C900 1.400 . S
C899 C904 1.490 . S
C900 H890 0.930 . S
C900 C899 1.400 . S
C900 C903 1.386 . S
H901 C917 0.930 . S
H902 C918 0.931 . S
C903 H891 0.929 . S
C903 C897 1.390 . S
C903 C900 1.386 . S
C904 C899 1.490 . S
C904 C906 1.395 . S
C904 C907 1.403 . S
H905 C911 0.930 . S
C906 H892 0.930 . S
C906 C904 1.395 . S
C906 C909 1.403 . S
C907 C904 1.403 . S
C907 C908 1.524 . S
C907 C911 1.400 . S
C908 H893 0.960 . S
C908 H894 0.960 . S
C908 H895 0.960 . S
C908 C907 1.524 . S
C909 C906 1.403 . S
C909 C910 1.392 . S
C909 C913 1.495 . S
C910 C909 1.392 . S
C910 C911 1.385 . S
C910 C912 1.478 . S
C911 H905 0.930 . S
C911 C907 1.400 . S
C911 C910 1.385 . S
C912 C910 1.478 . S
C912 C914 1.381 . S
C912 C918 1.383 . S
C913 C909 1.495 . S
C913 H919 0.959 . S
C913 H920 0.961 . S
C913 H921 0.960 . S
C914 C912 1.381 . S
C914 C915 1.394 . S
C914 H922 0.930 . S
C915 C914 1.394 . S
C915 C916 1.383 . S
C915 H923 0.929 . S
C916 C915 1.383 . S
C916 C917 1.377 . S
C917 H901 0.930 . S
C917 C916 1.377 . S
C917 C918 1.379 . S
C918 H902 0.931 . S
C918 C912 1.383 . S
C918 C917 1.379 . S
H919 C913 0.959 . S
H920 C913 0.961 . S
H921 C913 0.960 . S
H922 C914 0.930 . S
H923 C915 0.929 . S
H924 C932 0.929 . S
H925 C934 0.930 . S
H926 C936 0.930 . S
H927 C939 0.929 . S
H928 C942 0.930 . S
H929 C944 0.960 . S
H930 C944 0.960 . S
H931 C944 0.960 . S
C932 H924 0.929 . S
C932 C933 1.377 . S
C932 C934 1.384 . S
C933 C932 1.377 . S
C933 C939 1.390 . S
C934 H925 0.930 . S
C934 C932 1.384 . S
C934 C935 1.372 . S
C935 C934 1.372 . S
C935 C936 1.400 . S
C935 C940 1.490 . S
C936 H926 0.930 . S
C936 C935 1.400 . S
C936 C939 1.386 . S
H937 C953 0.930 . S
H938 C954 0.931 . S
C939 H927 0.929 . S
C939 C933 1.390 . S
C939 C936 1.386 . S
C940 C935 1.490 . S
C940 C942 1.395 . S
C940 C943 1.403 . S
H941 C947 0.930 . S
C942 H928 0.930 . S
C942 C940 1.395 . S
C942 C945 1.403 . S
C943 C940 1.403 . S
C943 C944 1.524 . S
C943 C947 1.400 . S
C944 H929 0.960 . S
C944 H930 0.960 . S
C944 H931 0.960 . S
C944 C943 1.524 . S
C945 C942 1.403 . S
C945 C946 1.392 . S
C945 C949 1.495 . S
C946 C945 1.392 . S
C946 C947 1.385 . S
C946 C948 1.478 . S
C947 H941 0.930 . S
C947 C943 1.400 . S
C947 C946 1.385 . S
C948 C946 1.478 . S
C948 C950 1.381 . S
C948 C954 1.383 . S
C949 C945 1.495 . S
C949 H955 0.959 . S
C949 H956 0.961 . S
C949 H957 0.960 . S
C950 C948 1.381 . S
C950 C951 1.394 . S
C950 H958 0.930 . S
C951 C950 1.394 . S
C951 C952 1.383 . S
C951 H959 0.929 . S
C952 C951 1.383 . S
C952 C953 1.377 . S
C953 H937 0.930 . S
C953 C952 1.377 . S
C953 C954 1.379 . S
C954 H938 0.931 . S
C954 C948 1.383 . S
C954 C953 1.379 . S
H955 C949 0.959 . S
H956 C949 0.961 . S
H957 C949 0.960 . S
H958 C950 0.930 . S
H959 C951 0.929 . S
H960 C968 0.929 . S
H961 C970 0.930 . S
H962 C972 0.930 . S
H963 C975 0.929 . S
H964 C978 0.930 . S
H965 C980 0.960 . S
H966 C980 0.960 . S
H967 C980 0.960 . S
C968 H960 0.929 . S
C968 C969 1.377 . S
C968 C970 1.384 . S
C969 C968 1.377 . S
C969 C975 1.390 . S
C970 H961 0.930 . S
C970 C968 1.384 . S
C970 C971 1.372 . S
C971 C970 1.372 . S
C971 C972 1.400 . S
C971 C976 1.490 . S
C972 H962 0.930 . S
C972 C971 1.400 . S
C972 C975 1.386 . S
H973 C989 0.930 . S
H974 C990 0.931 . S
C975 H963 0.929 . S
C975 C969 1.390 . S
C975 C972 1.386 . S
C976 C971 1.490 . S
C976 C978 1.395 . S
C976 C979 1.403 . S
H977 C983 0.930 . S
C978 H964 0.930 . S
C978 C976 1.395 . S
C978 C981 1.403 . S
C979 C976 1.403 . S
C979 C980 1.524 . S
C979 C983 1.400 . S
C980 H965 0.960 . S
C980 H966 0.960 . S
C980 H967 0.960 . S
C980 C979 1.524 . S
C981 C978 1.403 . S
C981 C982 1.392 . S
C981 C985 1.495 . S
C982 C981 1.392 . S
C982 C983 1.385 . S
C982 C984 1.478 . S
C983 H977 0.930 . S
C983 C979 1.400 . S
C983 C982 1.385 . S
C984 C982 1.478 . S
C984 C986 1.381 . S
C984 C990 1.383 . S
C985 C981 1.495 . S
C985 H991 0.959 . S
C985 H992 0.961 . S
C985 H993 0.960 . S
C986 C984 1.381 . S
C986 C987 1.394 . S
C986 H994 0.930 . S
C987 C986 1.394 . S
C987 C988 1.383 . S
C987 H995 0.929 . S
C988 C987 1.383 . S
C988 C989 1.377 . S
C989 H973 0.930 . S
C989 C988 1.377 . S
C989 C990 1.379 . S
C990 H974 0.931 . S
C990 C984 1.383 . S
C990 C989 1.379 . S
H991 C985 0.959 . S
H992 C985 0.961 . S
H993 C985 0.960 . S
H994 C986 0.930 . S
H995 C987 0.929 . S
H996 C1004 0.929 . S
H997 C1006 0.930 . S
H998 C1008 0.930 . S
H999 C1011 0.929 . S
H1000 C1014 0.930 . S
H1001 C1016 0.960 . S
H1002 C1016 0.960 . S
H1003 C1016 0.960 . S
C1004 H996 0.929 . S
C1004 C1005 1.377 . S
C1004 C1006 1.384 . S
C1005 C1004 1.377 . S
C1005 C1011 1.390 . S
C1006 H997 0.930 . S
C1006 C1004 1.384 . S
C1006 C1007 1.372 . S
C1007 C1006 1.372 . S
C1007 C1008 1.400 . S
C1007 C1012 1.490 . S
C1008 H998 0.930 . S
C1008 C1007 1.400 . S
C1008 C1011 1.386 . S
H1009 C1025 0.930 . S
H1010 C1026 0.931 . S
C1011 H999 0.929 . S
C1011 C1005 1.390 . S
C1011 C1008 1.386 . S
C1012 C1007 1.490 . S
C1012 C1014 1.395 . S
C1012 C1015 1.403 . S
H1013 C1019 0.930 . S
C1014 H1000 0.930 . S
C1014 C1012 1.395 . S
C1014 C1017 1.403 . S
C1015 C1012 1.403 . S
C1015 C1016 1.524 . S
C1015 C1019 1.400 . S
C1016 H1001 0.960 . S
C1016 H1002 0.960 . S
C1016 H1003 0.960 . S
C1016 C1015 1.524 . S
C1017 C1014 1.403 . S
C1017 C1018 1.392 . S
C1017 C1021 1.495 . S
C1018 C1017 1.392 . S
C1018 C1019 1.385 . S
C1018 C1020 1.478 . S
C1019 H1013 0.930 . S
C1019 C1015 1.400 . S
C1019 C1018 1.385 . S
C1020 C1018 1.478 . S
C1020 C1022 1.381 . S
C1020 C1026 1.383 . S
C1021 C1017 1.495 . S
C1021 H1027 0.959 . S
C1021 H1028 0.961 . S
C1021 H1029 0.960 . S
C1022 C1020 1.381 . S
C1022 C1023 1.394 . S
C1022 H1030 0.930 . S
C1023 C1022 1.394 . S
C1023 C1024 1.383 . S
C1023 H1031 0.929 . S
C1024 C1023 1.383 . S
C1024 C1025 1.377 . S
C1025 H1009 0.930 . S
C1025 C1024 1.377 . S
C1025 C1026 1.379 . S
C1026 H1010 0.931 . S
C1026 C1020 1.383 . S
C1026 C1025 1.379 . S
H1027 C1021 0.959 . S
H1028 C1021 0.961 . S
H1029 C1021 0.960 . S
H1030 C1022 0.930 . S
H1031 C1023 0.929 . S
H1032 C1040 0.929 . S
H1033 C1042 0.930 . S
H1034 C1044 0.930 . S
H1035 C1047 0.929 . S
H1036 C1050 0.930 . S
H1037 C1052 0.960 . S
H1038 C1052 0.960 . S
H1039 C1052 0.960 . S
C1040 H1032 0.929 . S
C1040 C1041 1.377 . S
C1040 C1042 1.384 . S
C1041 C1040 1.377 . S
C1041 C1047 1.390 . S
C1042 H1033 0.930 . S
C1042 C1040 1.384 . S
C1042 C1043 1.372 . S
C1043 C1042 1.372 . S
C1043 C1044 1.400 . S
C1043 C1048 1.490 . S
C1044 H1034 0.930 . S
C1044 C1043 1.400 . S
C1044 C1047 1.386 . S
H1045 C1061 0.930 . S
H1046 C1062 0.931 . S
C1047 H1035 0.929 . S
C1047 C1041 1.390 . S
C1047 C1044 1.386 . S
C1048 C1043 1.490 . S
C1048 C1050 1.395 . S
C1048 C1051 1.403 . S
H1049 C1055 0.930 . S
C1050 H1036 0.930 . S
C1050 C1048 1.395 . S
C1050 C1053 1.403 . S
C1051 C1048 1.403 . S
C1051 C1052 1.524 . S
C1051 C1055 1.400 . S
C1052 H1037 0.960 . S
C1052 H1038 0.960 . S
C1052 H1039 0.960 . S
C1052 C1051 1.524 . S
C1053 C1050 1.403 . S
C1053 C1054 1.392 . S
C1053 C1057 1.495 . S
C1054 C1053 1.392 . S
C1054 C1055 1.385 . S
C1054 C1056 1.478 . S
C1055 H1049 0.930 . S
C1055 C1051 1.400 . S
C1055 C1054 1.385 . S
C1056 C1054 1.478 . S
C1056 C1058 1.381 . S
C1056 C1062 1.383 . S
C1057 C1053 1.495 . S
C1057 H1063 0.959 . S
C1057 H1064 0.961 . S
C1057 H1065 0.960 . S
C1058 C1056 1.381 . S
C1058 C1059 1.394 . S
C1058 H1066 0.930 . S
C1059 C1058 1.394 . S
C1059 C1060 1.383 . S
C1059 H1067 0.929 . S
C1060 C1059 1.383 . S
C1060 C1061 1.377 . S
C1061 H1045 0.930 . S
C1061 C1060 1.377 . S
C1061 C1062 1.379 . S
C1062 H1046 0.931 . S
C1062 C1056 1.383 . S
C1062 C1061 1.379 . S
H1063 C1057 0.959 . S
H1064 C1057 0.961 . S
H1065 C1057 0.960 . S
H1066 C1058 0.930 . S
H1067 C1059 0.929 . S
H1068 C1076 0.929 . S
H1069 C1078 0.930 . S
H1070 C1080 0.930 . S
H1071 C1083 0.929 . S
H1072 C1086 0.930 . S
H1073 C1088 0.960 . S
H1074 C1088 0.960 . S
H1075 C1088 0.960 . S
C1076 H1068 0.929 . S
C1076 C1077 1.377 . S
C1076 C1078 1.384 . S
C1077 C1076 1.377 . S
C1077 C1083 1.390 . S
C1078 H1069 0.930 . S
C1078 C1076 1.384 . S
C1078 C1079 1.372 . S
C1079 C1078 1.372 . S
C1079 C1080 1.400 . S
C1079 C1084 1.490 . S
C1080 H1070 0.930 . S
C1080 C1079 1.400 . S
C1080 C1083 1.386 . S
H1081 C1097 0.930 . S
H1082 C1098 0.931 . S
C1083 H1071 0.929 . S
C1083 C1077 1.390 . S
C1083 C1080 1.386 . S
C1084 C1079 1.490 . S
C1084 C1086 1.395 . S
C1084 C1087 1.403 . S
H1085 C1091 0.930 . S
C1086 H1072 0.930 . S
C1086 C1084 1.395 . S
C1086 C1089 1.403 . S
C1087 C1084 1.403 . S
C1087 C1088 1.524 . S
C1087 C1091 1.400 . S
C1088 H1073 0.960 . S
C1088 H1074 0.960 . S
C1088 H1075 0.960 . S
C1088 C1087 1.524 . S
C1089 C1086 1.403 . S
C1089 C1090 1.392 . S
C1089 C1093 1.495 . S
C1090 C1089 1.392 . S
C1090 C1091 1.385 . S
C1090 C1092 1.478 . S
C1091 H1085 0.930 . S
C1091 C1087 1.400 . S
C1091 C1090 1.385 . S
C1092 C1090 1.478 . S
C1092 C1094 1.381 . S
C1092 C1098 1.383 . S
C1093 C1089 1.495 . S
C1093 H1099 0.959 . S
C1093 H1100 0.961 . S
C1093 H1101 0.960 . S
C1094 C1092 1.381 . S
C1094 C1095 1.394 . S
C1094 H1102 0.930 . S
C1095 C1094 1.394 . S
C1095 C1096 1.383 . S
C1095 H1103 0.929 . S
C1096 C1095 1.383 . S
C1096 C1097 1.377 . S
C1097 H1081 0.930 . S
C1097 C1096 1.377 . S
C1097 C1098 1.379 . S
C1098 H1082 0.931 . S
C1098 C1092 1.383 . S
C1098 C1097 1.379 . S
H1099 C1093 0.959 . S
H1100 C1093 0.961 . S
H1101 C1093 0.960 . S
H1102 C1094 0.930 . S
H1103 C1095 0.929 . S
H1104 C1112 0.929 . S
H1105 C1114 0.930 . S
H1106 C1116 0.930 . S
H1107 C1119 0.929 . S
H1108 C1122 0.930 . S
H1109 C1124 0.960 . S
H1110 C1124 0.960 . S
H1111 C1124 0.960 . S
C1112 H1104 0.929 . S
C1112 C1113 1.377 . S
C1112 C1114 1.384 . S
C1113 C1112 1.377 . S
C1113 C1119 1.390 1_655 S
C1114 H1105 0.930 . S
C1114 C1112 1.384 . S
C1114 C1115 1.372 . S
C1115 C1114 1.372 . S
C1115 C1116 1.400 1_655 S
C1115 C1120 1.490 . S
C1116 H1106 0.930 . S
C1116 C1115 1.400 1_455 S
C1116 C1119 1.386 . S
H1117 C1133 0.930 . S
H1118 C1134 0.931 . S
C1119 H1107 0.929 . S
C1119 C1113 1.390 1_455 S
C1119 C1116 1.386 . S
C1120 C1115 1.490 . S
C1120 C1122 1.395 . S
C1120 C1123 1.403 1_655 S
H1121 C1127 0.930 . S
C1122 H1108 0.930 . S
C1122 C1120 1.395 . S
C1122 C1125 1.403 1_545 S
C1123 C1120 1.403 1_455 S
C1123 C1124 1.524 . S
C1123 C1127 1.400 1_545 S
C1124 H1109 0.960 . S
C1124 H1110 0.960 . S
C1124 H1111 0.960 . S
C1124 C1123 1.524 . S
C1125 C1122 1.403 1_565 S
C1125 C1126 1.392 . S
C1125 C1129 1.495 . S
C1126 C1125 1.392 . S
C1126 C1127 1.385 1_655 S
C1126 C1128 1.478 . S
C1127 H1121 0.930 . S
C1127 C1123 1.400 1_565 S
C1127 C1126 1.385 1_455 S
C1128 C1126 1.478 . S
C1128 C1130 1.381 . S
C1128 C1134 1.383 1_655 S
C1129 C1125 1.495 . S
C1129 H1135 0.959 . S
C1129 H1136 0.961 . S
C1129 H1137 0.960 . S
C1130 C1128 1.381 . S
C1130 C1131 1.394 . S
C1130 H1138 0.930 . S
C1131 C1130 1.394 . S
C1131 C1132 1.383 1_655 S
C1131 H1139 0.929 . S
C1132 C1131 1.383 1_455 S
C1132 C1133 1.377 . S
C1133 H1117 0.930 . S
C1133 C1132 1.377 . S
C1133 C1134 1.379 . S
C1134 H1118 0.931 . S
C1134 C1128 1.383 1_455 S
C1134 C1133 1.379 . S
H1135 C1129 0.959 . S
H1136 C1129 0.961 . S
H1137 C1129 0.960 . S
H1138 C1130 0.930 . S
H1139 C1131 0.929 . S
H1140 C1148 0.929 . S
H1141 C1150 0.930 . S
H1142 C1152 0.930 . S
H1143 C1155 0.929 . S
H1144 C1158 0.930 . S
H1145 C1160 0.960 . S
H1146 C1160 0.960 . S
H1147 C1160 0.960 . S
C1148 H1140 0.929 . S
C1148 C1149 1.377 1_565 S
C1148 C1150 1.384 . S
C1149 C1148 1.377 1_545 S
C1149 C1155 1.390 . S
C1150 H1141 0.930 . S
C1150 C1148 1.384 . S
C1150 C1151 1.372 1_565 S
C1151 C1150 1.372 1_545 S
C1151 C1152 1.400 . S
C1151 C1156 1.489 1_545 S
C1152 H1142 0.930 . S
C1152 C1151 1.400 . S
C1152 C1155 1.386 . S
H1153 C1169 0.930 . S
H1154 C1170 0.931 . S
C1155 H1143 0.929 . S
C1155 C1149 1.390 . S
C1155 C1152 1.386 . S
C1156 C1151 1.489 1_565 S
C1156 C1158 1.405 . S
C1156 C1159 1.393 1_565 S
H1157 C1163 0.930 . S
C1158 H1144 0.930 . S
C1158 C1156 1.405 . S
C1158 C1161 1.403 1_455 S
C1159 C1156 1.393 1_545 S
C1159 C1160 1.524 . S
C1159 C1163 1.400 1_455 S
C1160 H1145 0.960 . S
C1160 H1146 0.960 . S
C1160 H1147 0.960 . S
C1160 C1159 1.524 . S
C1161 C1158 1.403 1_655 S
C1161 C1162 1.392 . S
C1161 C1165 1.495 . S
C1162 C1161 1.392 . S
C1162 C1163 1.385 1_565 S
C1162 C1164 1.478 . S
C1163 H1157 0.930 . S
C1163 C1159 1.400 1_655 S
C1163 C1162 1.385 1_545 S
C1164 C1162 1.478 . S
C1164 C1166 1.381 . S
C1164 C1170 1.383 1_565 S
C1165 C1161 1.495 . S
C1165 H1171 0.959 . S
C1165 H1172 0.961 . S
C1165 H1173 0.960 . S
C1166 C1164 1.381 . S
C1166 C1167 1.394 . S
C1166 H1174 0.930 . S
C1167 C1166 1.394 . S
C1167 C1168 1.383 . S
C1167 H1175 0.929 . S
C1168 C1167 1.383 . S
C1168 C1169 1.377 1_565 S
C1169 H1153 0.930 . S
C1169 C1168 1.377 1_545 S
C1169 C1170 1.379 . S
C1170 H1154 0.931 . S
C1170 C1164 1.383 1_545 S
C1170 C1169 1.379 . S
H1171 C1165 0.959 . S
H1172 C1165 0.961 . S
H1173 C1165 0.960 . S
H1174 C1166 0.930 . S
H1175 C1167 0.929 . S
H1176 C1184 0.929 . S
H1177 C1186 0.930 . S
H1178 C1188 0.930 . S
H1179 C1191 0.929 . S
H1180 C1194 0.930 . S
H1181 C1196 0.960 . S
H1182 C1196 0.960 . S
H1183 C1196 0.960 . S
C1184 H1176 0.929 . S
C1184 C1185 1.377 1_655 S
C1184 C1186 1.384 . S
C1185 C1184 1.377 1_455 S
C1185 C1191 1.390 . S
C1186 H1177 0.930 . S
C1186 C1184 1.384 . S
C1186 C1187 1.372 1_655 S
C1187 C1186 1.372 1_455 S
C1187 C1188 1.400 . S
C1187 C1192 1.488 1_455 S
C1188 H1178 0.930 . S
C1188 C1187 1.400 . S
C1188 C1191 1.386 . S
H1189 C1205 0.930 . S
H1190 C1206 0.931 . S
C1191 H1179 0.929 . S
C1191 C1185 1.390 . S
C1191 C1188 1.386 . S
C1192 C1187 1.488 1_655 S
C1192 C1194 1.415 . S
C1192 C1195 1.385 1_655 S
H1193 C1199 0.930 . S
C1194 H1180 0.930 . S
C1194 C1192 1.415 . S
C1194 C1197 1.403 . S
C1195 C1192 1.385 1_455 S
C1195 C1196 1.524 . S
C1195 C1199 1.400 . S
C1196 H1181 0.960 . S
C1196 H1182 0.960 . S
C1196 H1183 0.960 . S
C1196 C1195 1.524 . S
C1197 C1194 1.403 . S
C1197 C1198 1.392 . S
C1197 C1201 1.495 . S
C1198 C1197 1.392 . S
C1198 C1199 1.385 1_655 S
C1198 C1200 1.478 . S
C1199 H1193 0.930 . S
C1199 C1195 1.400 . S
C1199 C1198 1.385 1_455 S
C1200 C1198 1.478 . S
C1200 C1202 1.381 . S
C1200 C1206 1.383 1_655 S
C1201 C1197 1.495 . S
C1201 H1207 0.959 . S
C1201 H1208 0.961 . S
C1201 H1209 0.960 . S
C1202 C1200 1.381 . S
C1202 C1203 1.394 . S
C1202 H1210 0.930 . S
C1203 C1202 1.394 . S
C1203 C1204 1.383 . S
C1203 H1211 0.929 . S
C1204 C1203 1.383 . S
C1204 C1205 1.377 1_655 S
C1205 H1189 0.930 . S
C1205 C1204 1.377 1_455 S
C1205 C1206 1.379 . S
C1206 H1190 0.931 . S
C1206 C1200 1.383 1_455 S
C1206 C1205 1.379 . S
H1207 C1201 0.959 . S
H1208 C1201 0.961 . S
H1209 C1201 0.960 . S
H1210 C1202 0.930 . S
H1211 C1203 0.929 . S
H1212 C1220 0.929 . S
H1213 C1222 0.930 . S
H1214 C1224 0.930 . S
H1215 C1227 0.929 . S
H1216 C1230 0.930 . S
H1217 C1232 0.960 . S
H1218 C1232 0.960 . S
H1219 C1232 0.960 . S
C1220 H1212 0.929 . S
C1220 C1221 1.377 . S
C1220 C1222 1.384 . S
C1221 C1220 1.377 . S
C1221 C1227 1.390 1_565 S
C1222 H1213 0.930 . S
C1222 C1220 1.384 . S
C1222 C1223 1.372 . S
C1223 C1222 1.372 . S
C1223 C1224 1.400 1_565 S
C1223 C1228 1.490 . S
C1224 H1214 0.930 . S
C1224 C1223 1.400 1_545 S
C1224 C1227 1.386 . S
H1225 C1241 0.930 . S
H1226 C1242 0.931 . S
C1227 H1215 0.929 . S
C1227 C1221 1.390 1_545 S
C1227 C1224 1.386 . S
C1228 C1223 1.490 . S
C1228 C1230 1.395 . S
C1228 C1231 1.403 1_565 S
H1229 C1235 0.930 . S
C1230 H1216 0.930 . S
C1230 C1228 1.395 . S
C1230 C1233 1.403 . S
C1231 C1228 1.403 1_545 S
C1231 C1232 1.524 . S
C1231 C1235 1.400 . S
C1232 H1217 0.960 . S
C1232 H1218 0.960 . S
C1232 H1219 0.960 . S
C1232 C1231 1.524 . S
C1233 C1230 1.403 . S
C1233 C1234 1.392 . S
C1233 C1237 1.495 . S
C1234 C1233 1.392 . S
C1234 C1235 1.385 1_565 S
C1234 C1236 1.478 . S
C1235 H1229 0.930 . S
C1235 C1231 1.400 . S
C1235 C1234 1.385 1_545 S
C1236 C1234 1.478 . S
C1236 C1238 1.381 . S
C1236 C1242 1.383 1_565 S
C1237 C1233 1.495 . S
C1237 H1243 0.959 . S
C1237 H1244 0.961 . S
C1237 H1245 0.960 . S
C1238 C1236 1.381 . S
C1238 C1239 1.394 . S
C1238 H1246 0.930 . S
C1239 C1238 1.394 . S
C1239 C1240 1.383 1_565 S
C1239 H1247 0.929 . S
C1240 C1239 1.383 1_545 S
C1240 C1241 1.377 . S
C1241 H1225 0.930 . S
C1241 C1240 1.377 . S
C1241 C1242 1.379 . S
C1242 H1226 0.931 . S
C1242 C1236 1.383 1_545 S
C1242 C1241 1.379 . S
H1243 C1237 0.959 . S
H1244 C1237 0.961 . S
H1245 C1237 0.960 . S
H1246 C1238 0.930 . S
H1247 C1239 0.929 . S
H1248 C1256 0.929 . S
H1249 C1258 0.930 . S
H1250 C1260 0.930 . S
H1251 C1263 0.929 . S
H1252 C1266 0.930 . S
H1253 C1268 0.960 . S
H1254 C1268 0.960 . S
H1255 C1268 0.960 . S
C1256 H1248 0.929 . S
C1256 C1257 1.377 . S
C1256 C1258 1.384 . S
C1257 C1256 1.377 . S
C1257 C1263 1.390 . S
C1258 H1249 0.930 . S
C1258 C1256 1.384 . S
C1258 C1259 1.372 . S
C1259 C1258 1.372 . S
C1259 C1260 1.400 . S
C1259 C1264 1.490 . S
C1260 H1250 0.930 . S
C1260 C1259 1.400 . S
C1260 C1263 1.386 . S
H1261 C1277 0.930 . S
H1262 C1278 0.931 . S
C1263 H1251 0.929 . S
C1263 C1257 1.390 . S
C1263 C1260 1.386 . S
C1264 C1259 1.490 . S
C1264 C1266 1.395 . S
C1264 C1267 1.403 . S
H1265 C1271 0.930 . S
C1266 H1252 0.930 . S
C1266 C1264 1.395 . S
C1266 C1269 1.403 . S
C1267 C1264 1.403 . S
C1267 C1268 1.524 . S
C1267 C1271 1.400 . S
C1268 H1253 0.960 . S
C1268 H1254 0.960 . S
C1268 H1255 0.960 . S
C1268 C1267 1.524 . S
C1269 C1266 1.403 . S
C1269 C1270 1.392 . S
C1269 C1273 1.495 . S
C1270 C1269 1.392 . S
C1270 C1271 1.385 . S
C1270 C1272 1.478 . S
C1271 H1265 0.930 . S
C1271 C1267 1.400 . S
C1271 C1270 1.385 . S
C1272 C1270 1.478 . S
C1272 C1274 1.381 . S
C1272 C1278 1.383 . S
C1273 C1269 1.495 . S
C1273 H1279 0.959 . S
C1273 H1280 0.961 . S
C1273 H1281 0.960 . S
C1274 C1272 1.381 . S
C1274 C1275 1.394 . S
C1274 H1282 0.930 . S
C1275 C1274 1.394 . S
C1275 C1276 1.383 . S
C1275 H1283 0.929 . S
C1276 C1275 1.383 . S
C1276 C1277 1.377 . S
C1277 H1261 0.930 . S
C1277 C1276 1.377 . S
C1277 C1278 1.379 . S
C1278 H1262 0.931 . S
C1278 C1272 1.383 . S
C1278 C1277 1.379 . S
H1279 C1273 0.959 . S
H1280 C1273 0.961 . S
H1281 C1273 0.960 . S
H1282 C1274 0.930 . S
H1283 C1275 0.929 . S
H1284 C1292 0.929 . S
H1285 C1294 0.930 . S
H1286 C1296 0.930 . S
H1287 C1299 0.929 . S
H1288 C1302 0.930 . S
H1289 C1304 0.960 . S
H1290 C1304 0.960 . S
H1291 C1304 0.960 . S
C1292 H1284 0.929 . S
C1292 C1293 1.377 . S
C1292 C1294 1.384 . S
C1293 C1292 1.377 . S
C1293 C1299 1.390 . S
C1294 H1285 0.930 . S
C1294 C1292 1.384 . S
C1294 C1295 1.372 . S
C1295 C1294 1.372 . S
C1295 C1296 1.400 . S
C1295 C1300 1.490 . S
C1296 H1286 0.930 . S
C1296 C1295 1.400 . S
C1296 C1299 1.386 . S
H1297 C1313 0.930 . S
H1298 C1314 0.931 . S
C1299 H1287 0.929 . S
C1299 C1293 1.390 . S
C1299 C1296 1.386 . S
C1300 C1295 1.490 . S
C1300 C1302 1.395 . S
C1300 C1303 1.403 . S
H1301 C1307 0.930 . S
C1302 H1288 0.930 . S
C1302 C1300 1.395 . S
C1302 C1305 1.403 . S
C1303 C1300 1.403 . S
C1303 C1304 1.524 . S
C1303 C1307 1.400 . S
C1304 H1289 0.960 . S
C1304 H1290 0.960 . S
C1304 H1291 0.960 . S
C1304 C1303 1.524 . S
C1305 C1302 1.403 . S
C1305 C1306 1.392 . S
C1305 C1309 1.495 . S
C1306 C1305 1.392 . S
C1306 C1307 1.385 . S
C1306 C1308 1.478 . S
C1307 H1301 0.930 . S
C1307 C1303 1.400 . S
C1307 C1306 1.385 . S
C1308 C1306 1.478 . S
C1308 C1310 1.381 . S
C1308 C1314 1.383 . S
C1309 C1305 1.495 . S
C1309 H1315 0.959 . S
C1309 H1316 0.961 . S
C1309 H1317 0.960 . S
C1310 C1308 1.381 . S
C1310 C1311 1.394 . S
C1310 H1318 0.930 . S
C1311 C1310 1.394 . S
C1311 C1312 1.383 . S
C1311 H1319 0.929 . S
C1312 C1311 1.383 . S
C1312 C1313 1.377 . S
C1313 H1297 0.930 . S
C1313 C1312 1.377 . S
C1313 C1314 1.379 . S
C1314 H1298 0.931 . S
C1314 C1308 1.383 . S
C1314 C1313 1.379 . S
H1315 C1309 0.959 . S
H1316 C1309 0.961 . S
H1317 C1309 0.960 . S
H1318 C1310 0.930 . S
H1319 C1311 0.929 . S
H1320 C1328 0.929 . S
H1321 C1330 0.930 . S
H1322 C1332 0.930 . S
H1323 C1335 0.929 . S
H1324 C1338 0.930 . S
H1325 C1340 0.960 . S
H1326 C1340 0.960 . S
H1327 C1340 0.960 . S
C1328 H1320 0.929 . S
C1328 C1329 1.377 . S
C1328 C1330 1.384 . S
C1329 C1328 1.377 . S
C1329 C1335 1.390 . S
C1330 H1321 0.930 . S
C1330 C1328 1.384 . S
C1330 C1331 1.372 . S
C1331 C1330 1.372 . S
C1331 C1332 1.400 . S
C1331 C1336 1.490 . S
C1332 H1322 0.930 . S
C1332 C1331 1.400 . S
C1332 C1335 1.386 . S
H1333 C1349 0.930 . S
H1334 C1350 0.931 . S
C1335 H1323 0.929 . S
C1335 C1329 1.390 . S
C1335 C1332 1.386 . S
C1336 C1331 1.490 . S
C1336 C1338 1.395 . S
C1336 C1339 1.403 . S
H1337 C1343 0.930 . S
C1338 H1324 0.930 . S
C1338 C1336 1.395 . S
C1338 C1341 1.403 1_565 S
C1339 C1336 1.403 . S
C1339 C1340 1.524 . S
C1339 C1343 1.400 1_565 S
C1340 H1325 0.960 . S
C1340 H1326 0.960 . S
C1340 H1327 0.960 . S
C1340 C1339 1.524 . S
C1341 C1338 1.403 1_545 S
C1341 C1342 1.392 . S
C1341 C1345 1.495 . S
C1342 C1341 1.392 . S
C1342 C1343 1.385 . S
C1342 C1344 1.478 . S
C1343 H1337 0.930 . S
C1343 C1339 1.400 1_545 S
C1343 C1342 1.385 . S
C1344 C1342 1.478 . S
C1344 C1346 1.381 . S
C1344 C1350 1.383 . S
C1345 C1341 1.495 . S
C1345 H1351 0.959 . S
C1345 H1352 0.961 . S
C1345 H1353 0.960 . S
C1346 C1344 1.381 . S
C1346 C1347 1.394 . S
C1346 H1354 0.930 . S
C1347 C1346 1.394 . S
C1347 C1348 1.383 . S
C1347 H1355 0.929 . S
C1348 C1347 1.383 . S
C1348 C1349 1.377 . S
C1349 H1333 0.930 . S
C1349 C1348 1.377 . S
C1349 C1350 1.379 . S
C1350 H1334 0.931 . S
C1350 C1344 1.383 . S
C1350 C1349 1.379 . S
H1351 C1345 0.959 . S
H1352 C1345 0.961 . S
H1353 C1345 0.960 . S
H1354 C1346 0.930 . S
H1355 C1347 0.929 . S
H1356 C1364 0.929 . S
H1357 C1366 0.930 . S
H1358 C1368 0.930 . S
H1359 C1371 0.929 . S
H1360 C1374 0.930 . S
H1361 C1376 0.960 . S
H1362 C1376 0.960 . S
H1363 C1376 0.960 . S
C1364 H1356 0.929 . S
C1364 C1365 1.377 . S
C1364 C1366 1.384 . S
C1365 C1364 1.377 . S
C1365 C1371 1.390 . S
C1366 H1357 0.930 . S
C1366 C1364 1.384 . S
C1366 C1367 1.372 . S
C1367 C1366 1.372 . S
C1367 C1368 1.400 . S
C1367 C1372 1.490 . S
C1368 H1358 0.930 . S
C1368 C1367 1.400 . S
C1368 C1371 1.386 . S
H1369 C1385 0.930 . S
H1370 C1386 0.931 . S
C1371 H1359 0.929 . S
C1371 C1365 1.390 . S
C1371 C1368 1.386 . S
C1372 C1367 1.490 . S
C1372 C1374 1.395 . S
C1372 C1375 1.403 . S
H1373 C1379 0.930 . S
C1374 H1360 0.930 . S
C1374 C1372 1.395 . S
C1374 C1377 1.403 1_455 S
C1375 C1372 1.403 . S
C1375 C1376 1.524 . S
C1375 C1379 1.400 1_455 S
C1376 H1361 0.960 . S
C1376 H1362 0.960 . S
C1376 H1363 0.960 . S
C1376 C1375 1.524 . S
C1377 C1374 1.403 1_655 S
C1377 C1378 1.392 . S
C1377 C1381 1.495 . S
C1378 C1377 1.392 . S
C1378 C1379 1.385 . S
C1378 C1380 1.478 . S
C1379 H1373 0.930 . S
C1379 C1375 1.400 1_655 S
C1379 C1378 1.385 . S
C1380 C1378 1.478 . S
C1380 C1382 1.381 . S
C1380 C1386 1.383 . S
C1381 C1377 1.495 . S
C1381 H1387 0.959 . S
C1381 H1388 0.961 . S
C1381 H1389 0.960 . S
C1382 C1380 1.381 . S
C1382 C1383 1.394 . S
C1382 H1390 0.930 . S
C1383 C1382 1.394 . S
C1383 C1384 1.383 . S
C1383 H1391 0.929 . S
C1384 C1383 1.383 . S
C1384 C1385 1.377 . S
C1385 H1369 0.930 . S
C1385 C1384 1.377 . S
C1385 C1386 1.379 . S
C1386 H1370 0.931 . S
C1386 C1380 1.383 . S
C1386 C1385 1.379 . S
H1387 C1381 0.959 . S
H1388 C1381 0.961 . S
H1389 C1381 0.960 . S
H1390 C1382 0.930 . S
H1391 C1383 0.929 . S
H1392 C1400 0.929 . S
H1393 C1402 0.930 . S
H1394 C1404 0.930 . S
H1395 C1407 0.929 . S
H1396 C1410 0.930 . S
H1397 C1412 0.960 . S
H1398 C1412 0.960 . S
H1399 C1412 0.960 . S
C1400 H1392 0.929 . S
C1400 C1401 1.377 1_655 S
C1400 C1402 1.384 . S
C1401 C1400 1.377 1_455 S
C1401 C1407 1.390 . S
C1402 H1393 0.930 . S
C1402 C1400 1.384 . S
C1402 C1403 1.372 1_655 S
C1403 C1402 1.372 1_455 S
C1403 C1404 1.400 . S
C1403 C1408 1.489 1_455 S
C1404 H1394 0.930 . S
C1404 C1403 1.400 . S
C1404 C1407 1.386 . S
H1405 C1421 0.930 . S
H1406 C1422 0.931 . S
C1407 H1395 0.929 . S
C1407 C1401 1.390 . S
C1407 C1404 1.386 . S
C1408 C1403 1.489 1_655 S
C1408 C1410 1.403 . S
C1408 C1411 1.396 1_655 S
H1409 C1415 0.930 . S
C1410 H1396 0.930 . S
C1410 C1408 1.403 . S
C1410 C1413 1.403 . S
C1411 C1408 1.396 1_455 S
C1411 C1412 1.524 . S
C1411 C1415 1.400 . S
C1412 H1397 0.960 . S
C1412 H1398 0.960 . S
C1412 H1399 0.960 . S
C1412 C1411 1.524 . S
C1413 C1410 1.403 . S
C1413 C1414 1.392 . S
C1413 C1417 1.495 . S
C1414 C1413 1.392 . S
C1414 C1415 1.385 1_655 S
C1414 C1416 1.478 . S
C1415 H1409 0.930 . S
C1415 C1411 1.400 . S
C1415 C1414 1.385 1_455 S
C1416 C1414 1.478 . S
C1416 C1418 1.381 . S
C1416 C1422 1.383 1_655 S
C1417 C1413 1.495 . S
C1417 H1423 0.959 . S
C1417 H1424 0.961 . S
C1417 H1425 0.960 . S
C1418 C1416 1.381 . S
C1418 C1419 1.394 . S
C1418 H1426 0.930 . S
C1419 C1418 1.394 . S
C1419 C1420 1.383 . S
C1419 H1427 0.929 . S
C1420 C1419 1.383 . S
C1420 C1421 1.377 1_655 S
C1421 H1405 0.930 . S
C1421 C1420 1.377 1_455 S
C1421 C1422 1.379 . S
C1422 H1406 0.931 . S
C1422 C1416 1.383 1_455 S
C1422 C1421 1.379 . S
H1423 C1417 0.959 . S
H1424 C1417 0.961 . S
H1425 C1417 0.960 . S
H1426 C1418 0.930 . S
H1427 C1419 0.929 . S
H1428 C1436 0.929 . S
H1429 C1438 0.930 . S
H1430 C1440 0.930 . S
H1431 C1443 0.929 . S
H1432 C1446 0.930 . S
H1433 C1448 0.960 . S
H1434 C1448 0.960 . S
H1435 C1448 0.960 . S
C1436 H1428 0.929 . S
C1436 C1437 1.377 1_565 S
C1436 C1438 1.384 . S
C1437 C1436 1.377 1_545 S
C1437 C1443 1.390 . S
C1438 H1429 0.930 . S
C1438 C1436 1.384 . S
C1438 C1439 1.372 1_565 S
C1439 C1438 1.372 1_545 S
C1439 C1440 1.400 . S
C1439 C1444 1.490 1_545 S
C1440 H1430 0.930 . S
C1440 C1439 1.400 . S
C1440 C1443 1.386 . S
H1441 C1457 0.930 . S
H1442 C1458 0.931 . S
C1443 H1431 0.929 . S
C1443 C1437 1.390 . S
C1443 C1440 1.386 . S
C1444 C1439 1.490 1_565 S
C1444 C1446 1.399 . S
C1444 C1447 1.399 1_565 S
H1445 C1451 0.930 . S
C1446 H1432 0.930 . S
C1446 C1444 1.399 . S
C1446 C1449 1.403 . S
C1447 C1444 1.399 1_545 S
C1447 C1448 1.524 . S
C1447 C1451 1.400 . S
C1448 H1433 0.960 . S
C1448 H1434 0.960 . S
C1448 H1435 0.960 . S
C1448 C1447 1.524 . S
C1449 C1446 1.403 . S
C1449 C1450 1.392 . S
C1449 C1453 1.495 . S
C1450 C1449 1.392 . S
C1450 C1451 1.385 1_565 S
C1450 C1452 1.478 . S
C1451 H1445 0.930 . S
C1451 C1447 1.400 . S
C1451 C1450 1.385 1_545 S
C1452 C1450 1.478 . S
C1452 C1454 1.381 . S
C1452 C1458 1.383 1_565 S
C1453 C1449 1.495 . S
C1453 H1459 0.959 . S
C1453 H1460 0.961 . S
C1453 H1461 0.960 . S
C1454 C1452 1.381 . S
C1454 C1455 1.394 . S
C1454 H1462 0.930 . S
C1455 C1454 1.394 . S
C1455 C1456 1.383 . S
C1455 H1463 0.929 . S
C1456 C1455 1.383 . S
C1456 C1457 1.377 1_565 S
C1457 H1441 0.930 . S
C1457 C1456 1.377 1_545 S
C1457 C1458 1.379 . S
C1458 H1442 0.931 . S
C1458 C1452 1.383 1_545 S
C1458 C1457 1.379 . S
H1459 C1453 0.959 . S
H1460 C1453 0.961 . S
H1461 C1453 0.960 . S
H1462 C1454 0.930 . S
H1463 C1455 0.929 . S
H1464 C1472 0.929 . S
H1465 C1474 0.930 . S
H1466 C1476 0.930 . S
H1467 C1479 0.929 . S
H1468 C1482 0.930 . S
H1469 C1484 0.960 . S
H1470 C1484 0.960 . S
H1471 C1484 0.960 . S
C1472 H1464 0.929 . S
C1472 C1473 1.377 . S
C1472 C1474 1.384 . S
C1473 C1472 1.377 . S
C1473 C1479 1.390 1_655 S
C1474 H1465 0.930 . S
C1474 C1472 1.384 . S
C1474 C1475 1.372 . S
C1475 C1474 1.372 . S
C1475 C1476 1.400 1_655 S
C1475 C1480 1.490 . S
C1476 H1466 0.930 . S
C1476 C1475 1.400 1_455 S
C1476 C1479 1.386 . S
H1477 C1493 0.930 . S
H1478 C1494 0.931 . S
C1479 H1467 0.929 . S
C1479 C1473 1.390 1_455 S
C1479 C1476 1.386 . S
C1480 C1475 1.490 . S
C1480 C1482 1.395 . S
C1480 C1483 1.403 1_655 S
H1481 C1487 0.930 . S
C1482 H1468 0.930 . S
C1482 C1480 1.395 . S
C1482 C1485 1.403 1_545 S
C1483 C1480 1.403 1_455 S
C1483 C1484 1.524 . S
C1483 C1487 1.400 1_545 S
C1484 H1469 0.960 . S
C1484 H1470 0.960 . S
C1484 H1471 0.960 . S
C1484 C1483 1.524 . S
C1485 C1482 1.403 1_565 S
C1485 C1486 1.392 . S
C1485 C1489 1.495 . S
C1486 C1485 1.392 . S
C1486 C1487 1.385 1_655 S
C1486 C1488 1.478 . S
C1487 H1481 0.930 . S
C1487 C1483 1.400 1_565 S
C1487 C1486 1.385 1_455 S
C1488 C1486 1.478 . S
C1488 C1490 1.381 . S
C1488 C1494 1.383 1_655 S
C1489 C1485 1.495 . S
C1489 H1495 0.959 . S
C1489 H1496 0.961 . S
C1489 H1497 0.960 . S
C1490 C1488 1.381 . S
C1490 C1491 1.394 . S
C1490 H1498 0.930 . S
C1491 C1490 1.394 . S
C1491 C1492 1.383 1_655 S
C1491 H1499 0.929 . S
C1492 C1491 1.383 1_455 S
C1492 C1493 1.377 . S
C1493 H1477 0.930 . S
C1493 C1492 1.377 . S
C1493 C1494 1.379 . S
C1494 H1478 0.931 . S
C1494 C1488 1.383 1_455 S
C1494 C1493 1.379 . S
H1495 C1489 0.959 . S
H1496 C1489 0.961 . S
H1497 C1489 0.960 . S
H1498 C1490 0.930 . S
H1499 C1491 0.929 . S
H1500 C1508 0.929 . S
H1501 C1510 0.930 . S
H1502 C1512 0.930 . S
H1503 C1515 0.929 . S
H1504 C1518 0.930 . S
H1505 C1520 0.960 . S
H1506 C1520 0.964 . S
H1507 C1520 0.960 . S
C1508 H1500 0.929 . S
C1508 C1509 1.377 . S
C1508 C1510 1.384 . S
C1509 C1508 1.377 . S
C1509 C1515 1.390 1_565 S
C1510 H1501 0.930 . S
C1510 C1508 1.384 . S
C1510 C1511 1.372 . S
C1511 C1510 1.372 . S
C1511 C1512 1.400 1_565 S
C1511 C1516 1.490 . S
C1512 H1502 0.930 . S
C1512 C1511 1.400 1_545 S
C1512 C1515 1.386 . S
H1513 C1529 0.930 . S
H1514 C1530 0.931 . S
C1515 H1503 0.929 . S
C1515 C1509 1.390 1_545 S
C1515 C1512 1.386 . S
C1516 C1511 1.490 . S
C1516 C1518 1.395 . S
C1516 C1519 1.403 1_565 S
H1517 C1523 0.930 . S
C1518 H1504 0.930 . S
C1518 C1516 1.395 . S
C1518 C1521 1.403 1_655 S
C1519 C1516 1.403 1_545 S
C1519 C1520 1.524 . S
C1519 C1523 1.400 1_655 S
C1520 H1505 0.960 . S
C1520 H1506 0.964 . S
C1520 H1507 0.960 . S
C1520 C1519 1.524 . S
C1521 C1518 1.403 1_455 S
C1521 C1522 1.392 . S
C1521 C1525 1.495 . S
C1522 C1521 1.392 . S
C1522 C1523 1.385 1_565 S
C1522 C1524 1.478 1_565 S
C1523 H1517 0.930 . S
C1523 C1519 1.400 1_455 S
C1523 C1522 1.385 1_545 S
C1524 C1522 1.478 1_545 S
C1524 C1526 1.381 1_545 S
C1524 C1530 1.383 . S
C1525 C1521 1.495 . S
C1525 H1531 0.959 . S
C1525 H1532 0.961 . S
C1525 H1533 0.960 . S
C1526 C1524 1.381 1_565 S
C1526 C1527 1.394 . S
C1526 H1534 0.930 . S
C1527 C1526 1.394 . S
C1527 C1528 1.383 1_565 S
C1527 H1535 0.929 . S
C1528 C1527 1.383 1_545 S
C1528 C1529 1.377 . S
C1529 H1513 0.930 . S
C1529 C1528 1.377 . S
C1529 C1530 1.379 . S
C1530 H1514 0.931 . S
C1530 C1524 1.383 . S
C1530 C1529 1.379 . S
H1531 C1525 0.959 . S
H1532 C1525 0.961 . S
H1533 C1525 0.960 . S
H1534 C1526 0.930 . S
H1535 C1527 0.929 . S
H1536 C1544 0.929 . S
H1537 C1546 0.930 . S
H1538 C1548 0.930 . S
H1539 C1551 0.929 . S
H1540 C1554 0.930 . S
H1541 C1556 0.960 . S
H1542 C1556 0.960 . S
H1543 C1556 0.960 . S
C1544 H1536 0.929 . S
C1544 C1545 1.377 . S
C1544 C1546 1.384 . S
C1545 C1544 1.377 . S
C1545 C1551 1.390 . S
C1546 H1537 0.930 . S
C1546 C1544 1.384 . S
C1546 C1547 1.372 . S
C1547 C1546 1.372 . S
C1547 C1548 1.400 . S
C1547 C1552 1.490 . S
C1548 H1538 0.930 . S
C1548 C1547 1.400 . S
C1548 C1551 1.386 . S
H1549 C1565 0.930 . S
H1550 C1566 0.931 . S
C1551 H1539 0.929 . S
C1551 C1545 1.390 . S
C1551 C1548 1.386 . S
C1552 C1547 1.490 . S
C1552 C1554 1.395 . S
C1552 C1555 1.403 . S
H1553 C1559 0.930 . S
C1554 H1540 0.930 . S
C1554 C1552 1.395 . S
C1554 C1557 1.403 1_545 S
C1555 C1552 1.403 . S
C1555 C1556 1.524 . S
C1555 C1559 1.400 1_545 S
C1556 H1541 0.960 . S
C1556 H1542 0.960 . S
C1556 H1543 0.960 . S
C1556 C1555 1.524 . S
C1557 C1554 1.403 1_565 S
C1557 C1558 1.392 . S
C1557 C1561 1.495 . S
C1558 C1557 1.392 . S
C1558 C1559 1.385 . S
C1558 C1560 1.478 . S
C1559 H1553 0.930 . S
C1559 C1555 1.400 1_565 S
C1559 C1558 1.385 . S
C1560 C1558 1.478 . S
C1560 C1562 1.381 . S
C1560 C1566 1.383 . S
C1561 C1557 1.495 . S
C1561 H1567 0.959 . S
C1561 H1568 0.961 . S
C1561 H1569 0.960 . S
C1562 C1560 1.381 . S
C1562 C1563 1.394 . S
C1562 H1570 0.930 . S
C1563 C1562 1.394 . S
C1563 C1564 1.383 . S
C1563 H1571 0.929 . S
C1564 C1563 1.383 . S
C1564 C1565 1.377 . S
C1565 H1549 0.930 . S
C1565 C1564 1.377 . S
C1565 C1566 1.379 . S
C1566 H1550 0.931 . S
C1566 C1560 1.383 . S
C1566 C1565 1.379 . S
H1567 C1561 0.959 . S
H1568 C1561 0.961 . S
H1569 C1561 0.960 . S
H1570 C1562 0.930 . S
H1571 C1563 0.929 . S
H1572 C1580 0.929 . S
H1573 C1582 0.930 . S
H1574 C1584 0.930 . S
H1575 C1587 0.929 . S
H1576 C1590 0.930 . S
H1577 C1592 0.960 . S
H1578 C1592 0.960 . S
H1579 C1592 0.960 . S
C1580 H1572 0.929 . S
C1580 C1581 1.377 . S
C1580 C1582 1.384 . S
C1581 C1580 1.377 . S
C1581 C1587 1.390 . S
C1582 H1573 0.930 . S
C1582 C1580 1.384 . S
C1582 C1583 1.372 . S
C1583 C1582 1.372 . S
C1583 C1584 1.400 . S
C1583 C1588 1.490 . S
C1584 H1574 0.930 . S
C1584 C1583 1.400 . S
C1584 C1587 1.386 . S
H1585 C1601 0.930 . S
H1586 C1602 0.931 . S
C1587 H1575 0.929 . S
C1587 C1581 1.390 . S
C1587 C1584 1.386 . S
C1588 C1583 1.490 . S
C1588 C1590 1.395 . S
C1588 C1591 1.403 . S
H1589 C1595 0.930 . S
C1590 H1576 0.930 . S
C1590 C1588 1.395 . S
C1590 C1593 1.403 1_655 S
C1591 C1588 1.403 . S
C1591 C1592 1.524 . S
C1591 C1595 1.400 1_655 S
C1592 H1577 0.960 . S
C1592 H1578 0.960 . S
C1592 H1579 0.960 . S
C1592 C1591 1.524 . S
C1593 C1590 1.403 1_455 S
C1593 C1594 1.392 . S
C1593 C1597 1.495 . S
C1594 C1593 1.392 . S
C1594 C1595 1.385 . S
C1594 C1596 1.478 . S
C1595 H1589 0.930 . S
C1595 C1591 1.400 1_455 S
C1595 C1594 1.385 . S
C1596 C1594 1.478 . S
C1596 C1598 1.381 . S
C1596 C1602 1.383 . S
C1597 C1593 1.495 . S
C1597 H1603 0.959 . S
C1597 H1604 0.961 . S
C1597 H1605 0.960 . S
C1598 C1596 1.381 . S
C1598 C1599 1.394 . S
C1598 H1606 0.930 . S
C1599 C1598 1.394 . S
C1599 C1600 1.383 . S
C1599 H1607 0.929 . S
C1600 C1599 1.383 . S
C1600 C1601 1.377 . S
C1601 H1585 0.930 . S
C1601 C1600 1.377 . S
C1601 C1602 1.379 . S
C1602 H1586 0.931 . S
C1602 C1596 1.383 . S
C1602 C1601 1.379 . S
H1603 C1597 0.959 . S
H1604 C1597 0.961 . S
H1605 C1597 0.960 . S
H1606 C1598 0.930 . S
H1607 C1599 0.929 . S
H1608 C1616 0.929 . S
H1609 C1618 0.930 . S
H1610 C1620 0.930 . S
H1611 C1623 0.929 . S
H1612 C1626 0.930 . S
H1613 C1628 0.960 . S
H1614 C1628 0.960 . S
H1615 C1628 0.960 . S
C1616 H1608 0.929 . S
C1616 C1617 1.377 . S
C1616 C1618 1.384 . S
C1617 C1616 1.377 . S
C1617 C1623 1.390 . S
C1618 H1609 0.930 . S
C1618 C1616 1.384 . S
C1618 C1619 1.372 . S
C1619 C1618 1.372 . S
C1619 C1620 1.400 . S
C1619 C1624 1.490 . S
C1620 H1610 0.930 . S
C1620 C1619 1.400 . S
C1620 C1623 1.386 . S
H1621 C1637 0.930 . S
H1622 C1638 0.931 . S
C1623 H1611 0.929 . S
C1623 C1617 1.390 . S
C1623 C1620 1.386 . S
C1624 C1619 1.490 . S
C1624 C1626 1.395 . S
C1624 C1627 1.403 . S
H1625 C1631 0.930 . S
C1626 H1612 0.930 . S
C1626 C1624 1.395 . S
C1626 C1629 1.403 . S
C1627 C1624 1.403 . S
C1627 C1628 1.524 . S
C1627 C1631 1.400 . S
C1628 H1613 0.960 . S
C1628 H1614 0.960 . S
C1628 H1615 0.960 . S
C1628 C1627 1.524 . S
C1629 C1626 1.403 . S
C1629 C1630 1.392 . S
C1629 C1633 1.495 . S
C1630 C1629 1.392 . S
C1630 C1631 1.385 . S
C1630 C1632 1.478 . S
C1631 H1625 0.930 . S
C1631 C1627 1.400 . S
C1631 C1630 1.385 . S
C1632 C1630 1.478 . S
C1632 C1634 1.381 . S
C1632 C1638 1.383 . S
C1633 C1629 1.495 . S
C1633 H1639 0.959 . S
C1633 H1640 0.961 . S
C1633 H1641 0.960 . S
C1634 C1632 1.381 . S
C1634 C1635 1.394 . S
C1634 H1642 0.930 . S
C1635 C1634 1.394 . S
C1635 C1636 1.383 . S
C1635 H1643 0.929 . S
C1636 C1635 1.383 . S
C1636 C1637 1.377 . S
C1637 H1621 0.930 . S
C1637 C1636 1.377 . S
C1637 C1638 1.379 . S
C1638 H1622 0.931 . S
C1638 C1632 1.383 . S
C1638 C1637 1.379 . S
H1639 C1633 0.959 . S
H1640 C1633 0.961 . S
H1641 C1633 0.960 . S
H1642 C1634 0.930 . S
H1643 C1635 0.929 . S
H1644 C1652 0.929 . S
H1645 C1654 0.930 . S
H1646 C1656 0.930 . S
H1647 C1659 0.929 . S
H1648 C1662 0.930 . S
H1649 C1664 0.960 . S
H1650 C1664 0.960 . S
H1651 C1664 0.960 . S
C1652 H1644 0.929 . S
C1652 C1653 1.377 . S
C1652 C1654 1.384 . S
C1653 C1652 1.377 . S
C1653 C1659 1.390 . S
C1654 H1645 0.930 . S
C1654 C1652 1.384 . S
C1654 C1655 1.372 . S
C1655 C1654 1.372 . S
C1655 C1656 1.400 . S
C1655 C1660 1.490 . S
C1656 H1646 0.930 . S
C1656 C1655 1.400 . S
C1656 C1659 1.386 . S
H1657 C1673 0.930 . S
H1658 C1674 0.931 . S
C1659 H1647 0.929 . S
C1659 C1653 1.390 . S
C1659 C1656 1.386 . S
C1660 C1655 1.490 . S
C1660 C1662 1.395 . S
C1660 C1663 1.403 . S
H1661 C1667 0.930 . S
C1662 H1648 0.930 . S
C1662 C1660 1.395 . S
C1662 C1665 1.403 . S
C1663 C1660 1.403 . S
C1663 C1664 1.524 . S
C1663 C1667 1.400 . S
C1664 H1649 0.960 . S
C1664 H1650 0.960 . S
C1664 H1651 0.960 . S
C1664 C1663 1.524 . S
C1665 C1662 1.403 . S
C1665 C1666 1.392 . S
C1665 C1669 1.495 . S
C1666 C1665 1.392 . S
C1666 C1667 1.385 . S
C1666 C1668 1.478 . S
C1667 H1661 0.930 . S
C1667 C1663 1.400 . S
C1667 C1666 1.385 . S
C1668 C1666 1.478 . S
C1668 C1670 1.381 . S
C1668 C1674 1.383 . S
C1669 C1665 1.495 . S
C1669 H1675 0.959 . S
C1669 H1676 0.961 . S
C1669 H1677 0.960 . S
C1670 C1668 1.381 . S
C1670 C1671 1.394 . S
C1670 H1678 0.930 . S
C1671 C1670 1.394 . S
C1671 C1672 1.383 . S
C1671 H1679 0.929 . S
C1672 C1671 1.383 . S
C1672 C1673 1.377 . S
C1673 H1657 0.930 . S
C1673 C1672 1.377 . S
C1673 C1674 1.379 . S
C1674 H1658 0.931 . S
C1674 C1668 1.383 . S
C1674 C1673 1.379 . S
H1675 C1669 0.959 . S
H1676 C1669 0.961 . S
H1677 C1669 0.960 . S
H1678 C1670 0.930 . S
H1679 C1671 0.929 . S
H1680 C1688 0.929 . S
H1681 C1690 0.930 . S
H1682 C1692 0.930 . S
H1683 C1695 0.929 . S
H1684 C1698 0.930 . S
H1685 C1700 0.960 . S
H1686 C1700 0.960 . S
H1687 C1700 0.960 . S
C1688 H1680 0.929 . S
C1688 C1689 1.377 . S
C1688 C1690 1.384 . S
C1689 C1688 1.377 . S
C1689 C1695 1.390 . S
C1690 H1681 0.930 . S
C1690 C1688 1.384 . S
C1690 C1691 1.372 . S
C1691 C1690 1.372 . S
C1691 C1692 1.400 . S
C1691 C1696 1.490 . S
C1692 H1682 0.930 . S
C1692 C1691 1.400 . S
C1692 C1695 1.386 . S
H1693 C1709 0.930 . S
H1694 C1710 0.931 . S
C1695 H1683 0.929 . S
C1695 C1689 1.390 . S
C1695 C1692 1.386 . S
C1696 C1691 1.490 . S
C1696 C1698 1.395 . S
C1696 C1699 1.403 . S
H1697 C1703 0.930 . S
C1698 H1684 0.930 . S
C1698 C1696 1.395 . S
C1698 C1701 1.403 . S
C1699 C1696 1.403 . S
C1699 C1700 1.524 . S
C1699 C1703 1.400 . S
C1700 H1685 0.960 . S
C1700 H1686 0.960 . S
C1700 H1687 0.960 . S
C1700 C1699 1.524 . S
C1701 C1698 1.403 . S
C1701 C1702 1.392 . S
C1701 C1705 1.495 . S
C1702 C1701 1.392 . S
C1702 C1703 1.385 . S
C1702 C1704 1.478 . S
C1703 H1697 0.930 . S
C1703 C1699 1.400 . S
C1703 C1702 1.385 . S
C1704 C1702 1.478 . S
C1704 C1706 1.381 . S
C1704 C1710 1.383 . S
C1705 C1701 1.495 . S
C1705 H1711 0.959 . S
C1705 H1712 0.961 . S
C1705 H1713 0.960 . S
C1706 C1704 1.381 . S
C1706 C1707 1.394 . S
C1706 H1714 0.930 . S
C1707 C1706 1.394 . S
C1707 C1708 1.383 . S
C1707 H1715 0.929 . S
C1708 C1707 1.383 . S
C1708 C1709 1.377 . S
C1709 H1693 0.930 . S
C1709 C1708 1.377 . S
C1709 C1710 1.379 . S
C1710 H1694 0.931 . S
C1710 C1704 1.383 . S
C1710 C1709 1.379 . S
H1711 C1705 0.959 . S
H1712 C1705 0.961 . S
H1713 C1705 0.960 . S
H1714 C1706 0.930 . S
H1715 C1707 0.929 . S
H1716 C1724 0.929 . S
H1717 C1726 0.930 . S
H1718 C1728 0.930 . S
H1719 C1731 0.929 . S
H1720 C1734 0.930 . S
H1721 C1736 0.960 . S
H1722 C1736 0.960 . S
H1723 C1736 0.960 . S
C1724 H1716 0.929 . S
C1724 C1725 1.377 . S
C1724 C1726 1.384 . S
C1725 C1724 1.377 . S
C1725 C1731 1.390 . S
C1726 H1717 0.930 . S
C1726 C1724 1.384 . S
C1726 C1727 1.372 . S
C1727 C1726 1.372 . S
C1727 C1728 1.400 . S
C1727 C1732 1.490 . S
C1728 H1718 0.930 . S
C1728 C1727 1.400 . S
C1728 C1731 1.386 . S
H1729 C1745 0.930 . S
H1730 C1746 0.931 . S
C1731 H1719 0.929 . S
C1731 C1725 1.390 . S
C1731 C1728 1.386 . S
C1732 C1727 1.490 . S
C1732 C1734 1.395 . S
C1732 C1735 1.403 . S
H1733 C1739 0.930 . S
C1734 H1720 0.930 . S
C1734 C1732 1.395 . S
C1734 C1737 1.403 . S
C1735 C1732 1.403 . S
C1735 C1736 1.524 . S
C1735 C1739 1.400 . S
C1736 H1721 0.960 . S
C1736 H1722 0.960 . S
C1736 H1723 0.960 . S
C1736 C1735 1.524 . S
C1737 C1734 1.403 . S
C1737 C1738 1.392 . S
C1737 C1741 1.495 . S
C1738 C1737 1.392 . S
C1738 C1739 1.385 . S
C1738 C1740 1.478 . S
C1739 H1733 0.930 . S
C1739 C1735 1.400 . S
C1739 C1738 1.385 . S
C1740 C1738 1.478 . S
C1740 C1742 1.381 . S
C1740 C1746 1.383 . S
C1741 C1737 1.495 . S
C1741 H1747 0.959 . S
C1741 H1748 0.961 . S
C1741 H1749 0.960 . S
C1742 C1740 1.381 . S
C1742 C1743 1.394 . S
C1742 H1750 0.930 . S
C1743 C1742 1.394 . S
C1743 C1744 1.383 . S
C1743 H1751 0.929 . S
C1744 C1743 1.383 . S
C1744 C1745 1.377 . S
C1745 H1729 0.930 . S
C1745 C1744 1.377 . S
C1745 C1746 1.379 . S
C1746 H1730 0.931 . S
C1746 C1740 1.383 . S
C1746 C1745 1.379 . S
H1747 C1741 0.959 . S
H1748 C1741 0.961 . S
H1749 C1741 0.960 . S
H1750 C1742 0.930 . S
H1751 C1743 0.929 . S
H1752 C1760 0.929 . S
H1753 C1762 0.930 . S
H1754 C1764 0.930 . S
H1755 C1767 0.929 . S
H1756 C1770 0.930 . S
H1757 C1772 0.960 . S
H1758 C1772 0.960 . S
H1759 C1772 0.960 . S
C1760 H1752 0.929 . S
C1760 C1761 1.377 . S
C1760 C1762 1.384 . S
C1761 C1760 1.377 . S
C1761 C1767 1.390 . S
C1762 H1753 0.930 . S
C1762 C1760 1.384 . S
C1762 C1763 1.372 . S
C1763 C1762 1.372 . S
C1763 C1764 1.400 . S
C1763 C1768 1.490 . S
C1764 H1754 0.930 . S
C1764 C1763 1.400 . S
C1764 C1767 1.386 . S
H1765 C1781 0.930 . S
H1766 C1782 0.931 . S
C1767 H1755 0.929 . S
C1767 C1761 1.390 . S
C1767 C1764 1.386 . S
C1768 C1763 1.490 . S
C1768 C1770 1.395 . S
C1768 C1771 1.403 . S
H1769 C1775 0.930 . S
C1770 H1756 0.930 . S
C1770 C1768 1.395 . S
C1770 C1773 1.403 . S
C1771 C1768 1.403 . S
C1771 C1772 1.524 . S
C1771 C1775 1.400 . S
C1772 H1757 0.960 . S
C1772 H1758 0.960 . S
C1772 H1759 0.960 . S
C1772 C1771 1.524 . S
C1773 C1770 1.403 . S
C1773 C1774 1.392 . S
C1773 C1777 1.495 . S
C1774 C1773 1.392 . S
C1774 C1775 1.385 . S
C1774 C1776 1.478 . S
C1775 H1769 0.930 . S
C1775 C1771 1.400 . S
C1775 C1774 1.385 . S
C1776 C1774 1.478 . S
C1776 C1778 1.381 . S
C1776 C1782 1.383 . S
C1777 C1773 1.495 . S
C1777 H1783 0.959 . S
C1777 H1784 0.961 . S
C1777 H1785 0.960 . S
C1778 C1776 1.381 . S
C1778 C1779 1.394 . S
C1778 H1786 0.930 . S
C1779 C1778 1.394 . S
C1779 C1780 1.383 . S
C1779 H1787 0.929 . S
C1780 C1779 1.383 . S
C1780 C1781 1.377 . S
C1781 H1765 0.930 . S
C1781 C1780 1.377 . S
C1781 C1782 1.379 . S
C1782 H1766 0.931 . S
C1782 C1776 1.383 . S
C1782 C1781 1.379 . S
H1783 C1777 0.959 . S
H1784 C1777 0.961 . S
H1785 C1777 0.960 . S
H1786 C1778 0.930 . S
H1787 C1779 0.929 . S
H1788 C1796 0.929 . S
H1789 C1798 0.930 . S
H1790 C1800 0.930 . S
H1791 C1803 0.929 . S
H1792 C1806 0.930 . S
H1793 C1808 0.960 . S
H1794 C1808 0.960 . S
H1795 C1808 0.960 . S
C1796 H1788 0.929 . S
C1796 C1797 1.377 . S
C1796 C1798 1.384 . S
C1797 C1796 1.377 . S
C1797 C1803 1.390 . S
C1798 H1789 0.930 . S
C1798 C1796 1.384 . S
C1798 C1799 1.372 . S
C1799 C1798 1.372 . S
C1799 C1800 1.400 . S
C1799 C1804 1.490 . S
C1800 H1790 0.930 . S
C1800 C1799 1.400 . S
C1800 C1803 1.386 . S
H1801 C1817 0.930 . S
H1802 C1818 0.931 . S
C1803 H1791 0.929 . S
C1803 C1797 1.390 . S
C1803 C1800 1.386 . S
C1804 C1799 1.490 . S
C1804 C1806 1.395 . S
C1804 C1807 1.403 . S
H1805 C1811 0.930 . S
C1806 H1792 0.930 . S
C1806 C1804 1.395 . S
C1806 C1809 1.403 . S
C1807 C1804 1.403 . S
C1807 C1808 1.524 . S
C1807 C1811 1.400 . S
C1808 H1793 0.960 . S
C1808 H1794 0.960 . S
C1808 H1795 0.960 . S
C1808 C1807 1.524 . S
C1809 C1806 1.403 . S
C1809 C1810 1.392 . S
C1809 C1813 1.495 . S
C1810 C1809 1.392 . S
C1810 C1811 1.385 . S
C1810 C1812 1.478 . S
C1811 H1805 0.930 . S
C1811 C1807 1.400 . S
C1811 C1810 1.385 . S
C1812 C1810 1.478 . S
C1812 C1814 1.381 . S
C1812 C1818 1.383 . S
C1813 C1809 1.495 . S
C1813 H1819 0.959 . S
C1813 H1820 0.961 . S
C1813 H1821 0.960 . S
C1814 C1812 1.381 . S
C1814 C1815 1.394 . S
C1814 H1822 0.930 . S
C1815 C1814 1.394 . S
C1815 C1816 1.383 . S
C1815 H1823 0.929 . S
C1816 C1815 1.383 . S
C1816 C1817 1.377 . S
C1817 H1801 0.930 . S
C1817 C1816 1.377 . S
C1817 C1818 1.379 . S
C1818 H1802 0.931 . S
C1818 C1812 1.383 . S
C1818 C1817 1.379 . S
H1819 C1813 0.959 . S
H1820 C1813 0.961 . S
H1821 C1813 0.960 . S
H1822 C1814 0.930 . S
H1823 C1815 0.929 . S
H1824 C1832 0.929 . S
H1825 C1834 0.930 . S
H1826 C1836 0.930 . S
H1827 C1839 0.929 . S
H1828 C1842 0.930 . S
H1829 C1844 0.960 . S
H1830 C1844 0.960 . S
H1831 C1844 0.960 . S
C1832 H1824 0.929 . S
C1832 C1833 1.377 . S
C1832 C1834 1.384 . S
C1833 C1832 1.377 . S
C1833 C1839 1.390 . S
C1834 H1825 0.930 . S
C1834 C1832 1.384 . S
C1834 C1835 1.372 . S
C1835 C1834 1.372 . S
C1835 C1836 1.400 . S
C1835 C1840 1.490 . S
C1836 H1826 0.930 . S
C1836 C1835 1.400 . S
C1836 C1839 1.386 . S
H1837 C1853 0.930 . S
H1838 C1854 0.931 . S
C1839 H1827 0.929 . S
C1839 C1833 1.390 . S
C1839 C1836 1.386 . S
C1840 C1835 1.490 . S
C1840 C1842 1.395 . S
C1840 C1843 1.403 . S
H1841 C1847 0.930 . S
C1842 H1828 0.930 . S
C1842 C1840 1.395 . S
C1842 C1845 1.403 . S
C1843 C1840 1.403 . S
C1843 C1844 1.524 . S
C1843 C1847 1.400 . S
C1844 H1829 0.960 . S
C1844 H1830 0.960 . S
C1844 H1831 0.960 . S
C1844 C1843 1.524 . S
C1845 C1842 1.403 . S
C1845 C1846 1.392 . S
C1845 C1849 1.495 . S
C1846 C1845 1.392 . S
C1846 C1847 1.385 . S
C1846 C1848 1.478 . S
C1847 H1841 0.930 . S
C1847 C1843 1.400 . S
C1847 C1846 1.385 . S
C1848 C1846 1.478 . S
C1848 C1850 1.381 . S
C1848 C1854 1.383 . S
C1849 C1845 1.495 . S
C1849 H1855 0.959 . S
C1849 H1856 0.961 . S
C1849 H1857 0.960 . S
C1850 C1848 1.381 . S
C1850 C1851 1.394 . S
C1850 H1858 0.930 . S
C1851 C1850 1.394 . S
C1851 C1852 1.383 . S
C1851 H1859 0.929 . S
C1852 C1851 1.383 . S
C1852 C1853 1.377 . S
C1853 H1837 0.930 . S
C1853 C1852 1.377 . S
C1853 C1854 1.379 . S
C1854 H1838 0.931 . S
C1854 C1848 1.383 . S
C1854 C1853 1.379 . S
H1855 C1849 0.959 . S
H1856 C1849 0.961 . S
H1857 C1849 0.960 . S
H1858 C1850 0.930 . S
H1859 C1851 0.929 . S
H1860 C1868 0.929 . S
H1861 C1870 0.930 . S
H1862 C1872 0.930 . S
H1863 C1875 0.929 . S
H1864 C1878 0.930 . S
H1865 C1880 0.960 . S
H1866 C1880 0.960 . S
H1867 C1880 0.960 . S
C1868 H1860 0.929 . S
C1868 C1869 1.377 . S
C1868 C1870 1.384 . S
C1869 C1868 1.377 . S
C1869 C1875 1.390 . S
C1870 H1861 0.930 . S
C1870 C1868 1.384 . S
C1870 C1871 1.372 . S
C1871 C1870 1.372 . S
C1871 C1872 1.400 . S
C1871 C1876 1.490 . S
C1872 H1862 0.930 . S
C1872 C1871 1.400 . S
C1872 C1875 1.386 . S
H1873 C1889 0.930 . S
H1874 C1890 0.931 . S
C1875 H1863 0.929 . S
C1875 C1869 1.390 . S
C1875 C1872 1.386 . S
C1876 C1871 1.490 . S
C1876 C1878 1.395 . S
C1876 C1879 1.403 . S
H1877 C1883 0.930 . S
C1878 H1864 0.930 . S
C1878 C1876 1.395 . S
C1878 C1881 1.403 . S
C1879 C1876 1.403 . S
C1879 C1880 1.524 . S
C1879 C1883 1.400 . S
C1880 H1865 0.960 . S
C1880 H1866 0.960 . S
C1880 H1867 0.960 . S
C1880 C1879 1.524 . S
C1881 C1878 1.403 . S
C1881 C1882 1.392 . S
C1881 C1885 1.495 . S
C1882 C1881 1.392 . S
C1882 C1883 1.385 . S
C1882 C1884 1.478 . S
C1883 H1877 0.930 . S
C1883 C1879 1.400 . S
C1883 C1882 1.385 . S
C1884 C1882 1.478 . S
C1884 C1886 1.381 . S
C1884 C1890 1.383 . S
C1885 C1881 1.495 . S
C1885 H1891 0.959 . S
C1885 H1892 0.961 . S
C1885 H1893 0.960 . S
C1886 C1884 1.381 . S
C1886 C1887 1.394 . S
C1886 H1894 0.930 . S
C1887 C1886 1.394 . S
C1887 C1888 1.383 . S
C1887 H1895 0.929 . S
C1888 C1887 1.383 . S
C1888 C1889 1.377 . S
C1889 H1873 0.930 . S
C1889 C1888 1.377 . S
C1889 C1890 1.379 . S
C1890 H1874 0.931 . S
C1890 C1884 1.383 . S
C1890 C1889 1.379 . S
H1891 C1885 0.959 . S
H1892 C1885 0.961 . S
H1893 C1885 0.960 . S
H1894 C1886 0.930 . S
H1895 C1887 0.929 . S
H1896 C1904 0.929 . S
H1897 C1906 0.930 . S
H1898 C1908 0.930 . S
H1899 C1911 0.929 . S
H1900 C1914 0.930 . S
H1901 C1916 0.960 . S
H1902 C1916 0.960 . S
H1903 C1916 0.960 . S
C1904 H1896 0.929 . S
C1904 C1905 1.377 . S
C1904 C1906 1.384 . S
C1905 C1904 1.377 . S
C1905 C1911 1.390 . S
C1906 H1897 0.930 . S
C1906 C1904 1.384 . S
C1906 C1907 1.372 . S
C1907 C1906 1.372 . S
C1907 C1908 1.400 . S
C1907 C1912 1.490 . S
C1908 H1898 0.930 . S
C1908 C1907 1.400 . S
C1908 C1911 1.386 . S
H1909 C1925 0.930 . S
H1910 C1926 0.931 . S
C1911 H1899 0.929 . S
C1911 C1905 1.390 . S
C1911 C1908 1.386 . S
C1912 C1907 1.490 . S
C1912 C1914 1.395 . S
C1912 C1915 1.403 . S
H1913 C1919 0.930 . S
C1914 H1900 0.930 . S
C1914 C1912 1.395 . S
C1914 C1917 1.403 . S
C1915 C1912 1.403 . S
C1915 C1916 1.524 . S
C1915 C1919 1.400 . S
C1916 H1901 0.960 . S
C1916 H1902 0.960 . S
C1916 H1903 0.960 . S
C1916 C1915 1.524 . S
C1917 C1914 1.403 . S
C1917 C1918 1.392 . S
C1917 C1921 1.495 . S
C1918 C1917 1.392 . S
C1918 C1919 1.385 . S
C1918 C1920 1.478 . S
C1919 H1913 0.930 . S
C1919 C1915 1.400 . S
C1919 C1918 1.385 . S
C1920 C1918 1.478 . S
C1920 C1922 1.381 . S
C1920 C1926 1.383 . S
C1921 C1917 1.495 . S
C1921 H1927 0.959 . S
C1921 H1928 0.961 . S
C1921 H1929 0.960 . S
C1922 C1920 1.381 . S
C1922 C1923 1.394 . S
C1922 H1930 0.930 . S
C1923 C1922 1.394 . S
C1923 C1924 1.383 . S
C1923 H1931 0.929 . S
C1924 C1923 1.383 . S
C1924 C1925 1.377 . S
C1925 H1909 0.930 . S
C1925 C1924 1.377 . S
C1925 C1926 1.379 . S
C1926 H1910 0.931 . S
C1926 C1920 1.383 . S
C1926 C1925 1.379 . S
H1927 C1921 0.959 . S
H1928 C1921 0.961 . S
H1929 C1921 0.960 . S
H1930 C1922 0.930 . S
H1931 C1923 0.929 . S
H1932 C1940 0.929 . S
H1933 C1942 0.930 . S
H1934 C1944 0.930 . S
H1935 C1947 0.929 . S
H1936 C1950 0.930 . S
H1937 C1952 0.960 . S
H1938 C1952 0.960 . S
H1939 C1952 0.960 . S
C1940 H1932 0.929 . S
C1940 C1941 1.377 . S
C1940 C1942 1.384 . S
C1941 C1940 1.377 . S
C1941 C1947 1.390 . S
C1942 H1933 0.930 . S
C1942 C1940 1.384 . S
C1942 C1943 1.372 . S
C1943 C1942 1.372 . S
C1943 C1944 1.400 . S
C1943 C1948 1.490 . S
C1944 H1934 0.930 . S
C1944 C1943 1.400 . S
C1944 C1947 1.386 . S
H1945 C1961 0.930 . S
H1946 C1962 0.931 . S
C1947 H1935 0.929 . S
C1947 C1941 1.390 . S
C1947 C1944 1.386 . S
C1948 C1943 1.490 . S
C1948 C1950 1.395 . S
C1948 C1951 1.403 . S
H1949 C1955 0.930 . S
C1950 H1936 0.930 . S
C1950 C1948 1.395 . S
C1950 C1953 1.403 . S
C1951 C1948 1.403 . S
C1951 C1952 1.524 . S
C1951 C1955 1.400 . S
C1952 H1937 0.960 . S
C1952 H1938 0.960 . S
C1952 H1939 0.960 . S
C1952 C1951 1.524 . S
C1953 C1950 1.403 . S
C1953 C1954 1.392 . S
C1953 C1957 1.495 . S
C1954 C1953 1.392 . S
C1954 C1955 1.385 . S
C1954 C1956 1.478 . S
C1955 H1949 0.930 . S
C1955 C1951 1.400 . S
C1955 C1954 1.385 . S
C1956 C1954 1.478 . S
C1956 C1958 1.381 . S
C1956 C1962 1.383 . S
C1957 C1953 1.495 . S
C1957 H1963 0.959 . S
C1957 H1964 0.961 . S
C1957 H1965 0.960 . S
C1958 C1956 1.381 . S
C1958 C1959 1.394 . S
C1958 H1966 0.930 . S
C1959 C1958 1.394 . S
C1959 C1960 1.383 . S
C1959 H1967 0.929 . S
C1960 C1959 1.383 . S
C1960 C1961 1.377 . S
C1961 H1945 0.930 . S
C1961 C1960 1.377 . S
C1961 C1962 1.379 . S
C1962 H1946 0.931 . S
C1962 C1956 1.383 . S
C1962 C1961 1.379 . S
H1963 C1957 0.959 . S
H1964 C1957 0.961 . S
H1965 C1957 0.960 . S
H1966 C1958 0.930 . S
H1967 C1959 0.929 . S
C537 C8 0.832 . S
C556 N377 0.821 . S
C573 N278 0.833 . S
C592 C41 0.819 . S
C609 N311 0.831 . S
C628 C74 0.808 . S
C645 N344 0.834 . S
C664 C107 0.828 . S
C681 N179 0.830 . S
C700 C140 0.834 . S
C717 N212 0.827 . S
C736 C173 0.810 . S
C753 C206 0.830 . S
C772 N245 0.817 . S
C789 C239 0.830 . S
C808 N146 0.847 . S
C825 C272 0.823 . S
C844 N113 0.847 . S
C861 C305 0.823 . S
C880 N14 0.833 . S
C897 N47 0.830 . S
C916 C338 0.816 . S
C933 C371 0.823 . S
C952 N80 0.819 . S
C969 N443 0.832 . S
C988 C404 0.825 . S
C1005 N476 0.834 . S
C1024 C437 0.835 . S
C1041 N509 0.827 . S
C1060 C470 0.840 . S
C1077 C503 0.829 . S
C1096 N410 0.812 . S
C1113 C17 1.438 . S
C1132 C83 1.414 . S
C1149 C50 1.439 . S
C1168 C116 1.453 . S
C1185 C215 1.437 . S
C1204 C149 1.454 . S
C1221 C248 1.433 . S
C1240 C182 1.413 . S
C1257 C347 1.435 . S
C1276 C281 1.417 . S
C1293 C314 1.430 . S
C1312 C380 1.412 . S
C1329 C413 1.435 . S
C1348 C479 1.442 . S
C1365 C512 1.428 . S
C1384 C446 1.412 . S
C1401 C94 0.716 . S
C1420 C28 0.725 . S
C1437 C61 0.687 . S
C1456 C127 0.767 . S
C1473 C160 0.683 . S
C1492 C226 0.665 . S
C1509 C259 0.717 . S
C1528 C193 0.626 . S
C1545 C358 0.704 . S
C1564 C292 0.774 . S
C1581 C325 0.701 . S
C1600 C391 0.649 . S
C1617 C424 0.677 . S
C1636 C490 0.625 . S
C1653 C523 0.678 . S
C1672 C457 0.765 . S
C1689 N467 1.527 . S
C1708 N5 1.503 . S
C1725 N38 1.525 . S
C1744 N500 1.511 . S
C1761 N71 1.533 . S
C1780 N401 1.550 . S
C1797 N104 1.533 . S
C1816 N434 1.511 . S
C1833 N137 1.525 . S
C1852 N335 1.503 . S
C1869 N368 1.530 . S
C1888 N170 1.550 . S
C1905 N203 1.532 . S
C1924 N269 1.547 . S
C1941 N236 1.525 . S
C1960 N302 1.522 . S
