# Generated by pormake.
# Topology whd, (6)-cn, num edge types: 1
# Building blocks:
#     Node 0, Type 0, BuildingBlock: IZENUY_clean_sbu_0, # of connection points: 6
#     Node 1, Type 0, BuildingBlock: IZENUY_clean_sbu_0, # of connection points: 6
#     Node 2, Type 0, BuildingBlock: IZENUY_clean_sbu_0, # of connection points: 6
#     Node 3, Type 0, BuildingBlock: IZENUY_clean_sbu_0, # of connection points: 6
#     Node 4, Type 0, BuildingBlock: IZENUY_clean_sbu_0, # of connection points: 6
#     Node 5, Type 0, BuildingBlock: IZENUY_clean_sbu_0, # of connection points: 6
#     Node 6, Type 0, BuildingBlock: IZENUY_clean_sbu_0, # of connection points: 6
#     Node 7, Type 0, BuildingBlock: IZENUY_clean_sbu_0, # of connection points: 6
#     Node 8, Type 0, BuildingBlock: IZENUY_clean_sbu_0, # of connection points: 6
#     Node 9, Type 0, BuildingBlock: IZENUY_clean_sbu_0, # of connection points: 6
#     Node 10, Type 0, BuildingBlock: IZENUY_clean_sbu_0, # of connection points: 6
#     Node 11, Type 0, BuildingBlock: IZENUY_clean_sbu_0, # of connection points: 6
#     Node 12, Type 0, BuildingBlock: IZENUY_clean_sbu_0, # of connection points: 6
#     Node 13, Type 0, BuildingBlock: IZENUY_clean_sbu_0, # of connection points: 6
#     Node 14, Type 0, BuildingBlock: IZENUY_clean_sbu_0, # of connection points: 6
#     Node 15, Type 0, BuildingBlock: IZENUY_clean_sbu_0, # of connection points: 6
#     Edge 16, Type (0, 0), BuildingBlock: AJUNOK_clean_linker_0, # of connection points: 2
#     Edge 17, Type (0, 0), BuildingBlock: AJUNOK_clean_linker_0, # of connection points: 2
#     Edge 18, Type (0, 0), BuildingBlock: AJUNOK_clean_linker_0, # of connection points: 2
#     Edge 19, Type (0, 0), BuildingBlock: AJUNOK_clean_linker_0, # of connection points: 2
#     Edge 20, Type (0, 0), BuildingBlock: AJUNOK_clean_linker_0, # of connection points: 2
#     Edge 21, Type (0, 0), BuildingBlock: AJUNOK_clean_linker_0, # of connection points: 2
#     Edge 22, Type (0, 0), BuildingBlock: AJUNOK_clean_linker_0, # of connection points: 2
#     Edge 23, Type (0, 0), BuildingBlock: AJUNOK_clean_linker_0, # of connection points: 2
#     Edge 24, Type (0, 0), BuildingBlock: AJUNOK_clean_linker_0, # of connection points: 2
#     Edge 25, Type (0, 0), BuildingBlock: AJUNOK_clean_linker_0, # of connection points: 2
#     Edge 26, Type (0, 0), BuildingBlock: AJUNOK_clean_linker_0, # of connection points: 2
#     Edge 27, Type (0, 0), BuildingBlock: AJUNOK_clean_linker_0, # of connection points: 2
#     Edge 28, Type (0, 0), BuildingBlock: AJUNOK_clean_linker_0, # of connection points: 2
#     Edge 29, Type (0, 0), BuildingBlock: AJUNOK_clean_linker_0, # of connection points: 2
#     Edge 30, Type (0, 0), BuildingBlock: AJUNOK_clean_linker_0, # of connection points: 2
#     Edge 31, Type (0, 0), BuildingBlock: AJUNOK_clean_linker_0, # of connection points: 2
#     Edge 32, Type (0, 0), BuildingBlock: AJUNOK_clean_linker_0, # of connection points: 2
#     Edge 33, Type (0, 0), BuildingBlock: AJUNOK_clean_linker_0, # of connection points: 2
#     Edge 34, Type (0, 0), BuildingBlock: AJUNOK_clean_linker_0, # of connection points: 2
#     Edge 35, Type (0, 0), BuildingBlock: AJUNOK_clean_linker_0, # of connection points: 2
#     Edge 36, Type (0, 0), BuildingBlock: AJUNOK_clean_linker_0, # of connection points: 2
#     Edge 37, Type (0, 0), BuildingBlock: AJUNOK_clean_linker_0, # of connection points: 2
#     Edge 38, Type (0, 0), BuildingBlock: AJUNOK_clean_linker_0, # of connection points: 2
#     Edge 39, Type (0, 0), BuildingBlock: AJUNOK_clean_linker_0, # of connection points: 2
#     Edge 40, Type (0, 0), BuildingBlock: AJUNOK_clean_linker_0, # of connection points: 2
#     Edge 41, Type (0, 0), BuildingBlock: AJUNOK_clean_linker_0, # of connection points: 2
#     Edge 42, Type (0, 0), BuildingBlock: AJUNOK_clean_linker_0, # of connection points: 2
#     Edge 43, Type (0, 0), BuildingBlock: AJUNOK_clean_linker_0, # of connection points: 2
#     Edge 44, Type (0, 0), BuildingBlock: AJUNOK_clean_linker_0, # of connection points: 2
#     Edge 45, Type (0, 0), BuildingBlock: AJUNOK_clean_linker_0, # of connection points: 2
#     Edge 46, Type (0, 0), BuildingBlock: AJUNOK_clean_linker_0, # of connection points: 2
#     Edge 47, Type (0, 0), BuildingBlock: AJUNOK_clean_linker_0, # of connection points: 2
#     Edge 48, Type (0, 0), BuildingBlock: AJUNOK_clean_linker_0, # of connection points: 2
#     Edge 49, Type (0, 0), BuildingBlock: AJUNOK_clean_linker_0, # of connection points: 2
#     Edge 50, Type (0, 0), BuildingBlock: AJUNOK_clean_linker_0, # of connection points: 2
#     Edge 51, Type (0, 0), BuildingBlock: AJUNOK_clean_linker_0, # of connection points: 2
#     Edge 52, Type (0, 0), BuildingBlock: AJUNOK_clean_linker_0, # of connection points: 2
#     Edge 53, Type (0, 0), BuildingBlock: AJUNOK_clean_linker_0, # of connection points: 2
#     Edge 54, Type (0, 0), BuildingBlock: AJUNOK_clean_linker_0, # of connection points: 2
#     Edge 55, Type (0, 0), BuildingBlock: AJUNOK_clean_linker_0, # of connection points: 2
#     Edge 56, Type (0, 0), BuildingBlock: AJUNOK_clean_linker_0, # of connection points: 2
#     Edge 57, Type (0, 0), BuildingBlock: AJUNOK_clean_linker_0, # of connection points: 2
#     Edge 58, Type (0, 0), BuildingBlock: AJUNOK_clean_linker_0, # of connection points: 2
#     Edge 59, Type (0, 0), BuildingBlock: AJUNOK_clean_linker_0, # of connection points: 2
#     Edge 60, Type (0, 0), BuildingBlock: AJUNOK_clean_linker_0, # of connection points: 2
#     Edge 61, Type (0, 0), BuildingBlock: AJUNOK_clean_linker_0, # of connection points: 2
#     Edge 62, Type (0, 0), BuildingBlock: AJUNOK_clean_linker_0, # of connection points: 2
#     Edge 63, Type (0, 0), BuildingBlock: AJUNOK_clean_linker_0, # of connection points: 2
# Relax obj value: 0.275
# Max RMSD: 0.227
# Mean RMSD: 0.227
data_MOF--net-whd--node1-IZENUY_clean_sbu_0--edge1-AJUNOK_clean_linker_0
_symmetry_space_group_name_H-M    P1
_symmetry_Int_Tables_number       1
_symmetry_cell_setting            triclinic
loop_
_symmetry_equiv_pos_as_xyz
'x, y, z'
_cell_length_a     37.925019
_cell_length_b     38.171479
_cell_length_c     21.554175
_cell_angle_alpha  90.03366
_cell_angle_beta   89.988006
_cell_angle_gamma 90.135129
loop_
_atom_site_label
_atom_site_type_symbol
_atom_site_fract_x
_atom_site_fract_y
_atom_site_fract_z
_atom_type_partial_charge
Fe0 Fe 0.18183 0.36027 0.3411 0.0
Fe1 Fe 0.15841 0.43161 0.3916 0.0
O2 O 0.18891 0.40588 0.34943 0.0
Fe3 Fe 0.22635 0.42595 0.31485 0.0
O4 O 0.21141 0.41311 0.23831 0.0
O5 O 0.19984 0.35827 0.26148 0.0
O6 O 0.13949 0.36691 0.30497 0.0
C7 C 0.11415 0.38346 0.32825 0.0
C8 C 0.25322 0.36037 0.35625 0.0
O9 O 0.11914 0.40502 0.37205 0.0
C10 C 0.22489 0.46018 0.42559 0.0
O11 O 0.1623 0.35447 0.41919 0.0
O12 O 0.16662 0.40677 0.46157 0.0
O13 O 0.25523 0.38714 0.32156 0.0
O14 O 0.2238 0.35018 0.37634 0.0
C15 C 0.1722 0.47618 0.29584 0.0
O16 O 0.19177 0.46264 0.41939 0.0
O17 O 0.243 0.44104 0.38981 0.0
C18 C 0.16405 0.37398 0.46686 0.0
O19 O 0.14883 0.45862 0.32394 0.0
O20 O 0.20447 0.46809 0.30098 0.0
C21 C 0.20298 0.38255 0.22155 0.0
Fe22 Fe 0.35875 0.8509 0.67804 0.0
Fe23 Fe 0.42273 0.80429 0.70733 0.0
O24 O 0.40426 0.84171 0.67062 0.0
Fe25 Fe 0.4307 0.87044 0.62608 0.0
O26 O 0.42042 0.90733 0.67631 0.0
O27 O 0.36345 0.89873 0.67143 0.0
O28 O 0.3637 0.85626 0.76018 0.0
C29 C 0.37669 0.83389 0.79654 0.0
C30 C 0.36848 0.86369 0.55604 0.0
O31 O 0.39404 0.80773 0.77654 0.0
C32 C 0.45663 0.80687 0.58923 0.0
O33 O 0.3449 0.8054 0.68685 0.0
O34 O 0.39233 0.77443 0.66818 0.0
O35 O 0.39545 0.88143 0.57086 0.0
O36 O 0.3521 0.84567 0.59552 0.0
C37 C 0.47596 0.85215 0.72579 0.0
O38 O 0.45476 0.7956 0.64459 0.0
O39 O 0.44257 0.83546 0.57376 0.0
C40 C 0.35921 0.77715 0.67005 0.0
O41 O 0.45482 0.83044 0.74962 0.0
O42 O 0.4708 0.8645 0.6722 0.0
C43 C 0.38944 0.9182 0.68461 0.0
Fe44 Fe 0.8003 0.59805 0.31338 0.0
Fe45 Fe 0.84379 0.66444 0.34044 0.0
O46 O 0.8375 0.61864 0.34767 0.0
Fe47 Fe 0.86848 0.5931 0.38884 0.0
O48 O 0.87854 0.56734 0.32061 0.0
O49 O 0.82321 0.5565 0.29771 0.0
O50 O 0.81445 0.61174 0.23753 0.0
C51 C 0.82173 0.64258 0.22117 0.0
C52 C 0.80271 0.56293 0.42241 0.0
O53 O 0.82546 0.66679 0.26106 0.0
C54 C 0.8615 0.64989 0.46519 0.0
O55 O 0.7707 0.63612 0.32148 0.0
O56 O 0.80174 0.6734 0.37619 0.0
O57 O 0.83582 0.56117 0.41562 0.0
O58 O 0.78422 0.58228 0.38796 0.0
C59 C 0.91177 0.64213 0.32641 0.0
O60 O 0.86339 0.66993 0.4184 0.0
O61 O 0.85977 0.61712 0.45914 0.0
C62 C 0.77243 0.66301 0.35587 0.0
O63 O 0.88627 0.65891 0.3041 0.0
O64 O 0.90714 0.62024 0.36966 0.0
C65 C 0.85577 0.54953 0.2919 0.0
Fe66 Fe 0.60612 0.22176 0.71177 0.0
Fe67 Fe 0.60031 0.15977 0.62105 0.0
O68 O 0.62596 0.18696 0.6696 0.0
Fe69 Fe 0.67169 0.17877 0.67579 0.0
O70 O 0.66726 0.17045 0.75767 0.0
O71 O 0.63502 0.21669 0.78012 0.0
O72 O 0.57534 0.19217 0.75037 0.0
C73 C 0.55393 0.17264 0.72174 0.0
C74 C 0.66833 0.25253 0.67522 0.0
O75 O 0.55987 0.16359 0.66642 0.0
C76 C 0.66273 0.16906 0.55221 0.0
O77 O 0.57352 0.2319 0.65063 0.0
O78 O 0.58817 0.1969 0.57338 0.0
O79 O 0.68393 0.2244 0.68892 0.0
O80 O 0.63513 0.25444 0.67649 0.0
C81 C 0.64233 0.11078 0.67534 0.0
O82 O 0.63582 0.15097 0.56556 0.0
O83 O 0.6784 0.18662 0.59337 0.0
C84 C 0.57226 0.22365 0.59355 0.0
O85 O 0.61109 0.12117 0.66698 0.0
O86 O 0.66802 0.13114 0.66457 0.0
C87 C 0.65315 0.19043 0.7971 0.0
Fe88 Fe 0.18043 0.66808 0.67884 0.0
Fe89 Fe 0.15748 0.59648 0.62827 0.0
O90 O 0.18793 0.62261 0.67008 0.0
Fe91 Fe 0.22567 0.603 0.70418 0.0
O92 O 0.2107 0.61536 0.78108 0.0
O93 O 0.19856 0.67006 0.75841 0.0
O94 O 0.13833 0.66074 0.71541 0.0
C95 C 0.11319 0.64327 0.69338 0.0
C96 C 0.25184 0.66914 0.66362 0.0
O97 O 0.11801 0.62237 0.6486 0.0
C98 C 0.22421 0.56876 0.59355 0.0
O99 O 0.16059 0.67379 0.60087 0.0
O100 O 0.16506 0.62157 0.55818 0.0
O101 O 0.25412 0.64217 0.69764 0.0
O102 O 0.22228 0.67882 0.64342 0.0
C103 C 0.17227 0.55215 0.72376 0.0
O104 O 0.19111 0.566 0.59996 0.0
O105 O 0.24223 0.58836 0.62888 0.0
C106 C 0.16214 0.65435 0.55306 0.0
O107 O 0.14851 0.56929 0.69611 0.0
O108 O 0.20441 0.56054 0.71774 0.0
C109 C 0.20169 0.64567 0.79813 0.0
Fe110 Fe 0.5996 0.86534 0.39593 0.0
Fe111 Fe 0.67166 0.84602 0.34416 0.0
O112 O 0.62586 0.83778 0.34925 0.0
Fe113 Fe 0.60646 0.80261 0.30738 0.0
O114 O 0.57696 0.83192 0.26643 0.0
O115 O 0.55977 0.86164 0.34808 0.0
O116 O 0.61119 0.90338 0.34998 0.0
C117 C 0.6424 0.91377 0.34179 0.0
C118 C 0.57057 0.80215 0.4239 0.0
O119 O 0.66803 0.89371 0.35385 0.0
C120 C 0.66786 0.77218 0.34633 0.0
O121 O 0.63437 0.87433 0.45273 0.0
O122 O 0.67764 0.83907 0.427 0.0
O123 O 0.5727 0.7933 0.36716 0.0
O124 O 0.58666 0.82877 0.44396 0.0
C125 C 0.65415 0.83329 0.22265 0.0
O126 O 0.68379 0.80026 0.33283 0.0
O127 O 0.63464 0.7704 0.34502 0.0
C128 C 0.66159 0.85705 0.46708 0.0
O129 O 0.66796 0.85365 0.26188 0.0
O130 O 0.6364 0.8068 0.24006 0.0
C131 C 0.55567 0.8527 0.29206 0.0
Fe132 Fe 0.84838 0.35768 0.67788 0.0
Fe133 Fe 0.86826 0.42877 0.62505 0.0
O134 O 0.83974 0.40297 0.67116 0.0
Fe135 Fe 0.80319 0.42217 0.71 0.0
O136 O 0.80696 0.39358 0.77903 0.0
O137 O 0.85455 0.36206 0.75993 0.0
O138 O 0.89656 0.36202 0.67054 0.0
C139 C 0.91624 0.38783 0.68392 0.0
C140 C 0.77403 0.3598 0.67244 0.0
O141 O 0.90571 0.41861 0.6741 0.0
C142 C 0.80398 0.45447 0.59092 0.0
O143 O 0.84238 0.35121 0.59531 0.0
O144 O 0.87893 0.39348 0.56998 0.0
O145 O 0.77169 0.39275 0.67256 0.0
O146 O 0.80238 0.34479 0.68751 0.0
C147 C 0.85293 0.47399 0.72577 0.0
O148 O 0.83236 0.4401 0.5743 0.0
O149 O 0.79411 0.45405 0.64731 0.0
C150 C 0.86073 0.3669 0.55539 0.0
O151 O 0.86296 0.46905 0.67053 0.0
O152 O 0.83131 0.45324 0.75098 0.0
C153 C 0.8329 0.37528 0.7975 0.0
Fe154 Fe 0.42666 0.22502 0.31846 0.0
Fe155 Fe 0.43049 0.15709 0.39394 0.0
O156 O 0.40548 0.1878 0.35113 0.0
Fe157 Fe 0.35967 0.1811 0.33997 0.0
O158 O 0.35954 0.19896 0.25998 0.0
O159 O 0.41542 0.21034 0.24133 0.0
O160 O 0.46919 0.20317 0.30691 0.0
C161 C 0.47676 0.1711 0.30012 0.0
C162 C 0.36016 0.25207 0.35593 0.0
O163 O 0.45864 0.14777 0.32715 0.0
C164 C 0.37128 0.16357 0.46639 0.0
O165 O 0.44033 0.24115 0.39453 0.0
O166 O 0.4614 0.18997 0.42381 0.0
O167 O 0.34909 0.22286 0.37469 0.0
O168 O 0.38772 0.25394 0.32283 0.0
C169 C 0.38322 0.11371 0.32709 0.0
O170 O 0.40441 0.16516 0.46277 0.0
O171 O 0.35227 0.1618 0.41791 0.0
C172 C 0.45891 0.22284 0.43087 0.0
O173 O 0.40387 0.11826 0.37252 0.0
O174 O 0.36667 0.13901 0.30412 0.0
C175 C 0.38526 0.20153 0.2224 0.0
Fe176 Fe 0.68301 0.86044 0.83958 0.0
Fe177 Fe 0.65895 0.93325 0.88394 0.0
O178 O 0.69 0.9063 0.84548 0.0
Fe179 Fe 0.72835 0.92585 0.8127 0.0
O180 O 0.71492 0.91232 0.73663 0.0
O181 O 0.70086 0.85775 0.75974 0.0
O182 O 0.64023 0.86542 0.80373 0.0
C183 C 0.61494 0.88324 0.82412 0.0
C184 C 0.75462 0.86019 0.85479 0.0
O185 O 0.61983 0.90715 0.86375 0.0
C186 C 0.72497 0.96091 0.92166 0.0
O187 O 0.66385 0.85606 0.91808 0.0
O188 O 0.66515 0.9098 0.95558 0.0
O189 O 0.7571 0.88721 0.82115 0.0
O190 O 0.72504 0.85079 0.8752 0.0
C191 C 0.67484 0.97561 0.78652 0.0
O192 O 0.69221 0.96437 0.91205 0.0
O193 O 0.74355 0.94105 0.88818 0.0
C194 C 0.66355 0.87712 0.96375 0.0
O195 O 0.65097 0.95868 0.81421 0.0
O196 O 0.707 0.96816 0.79579 0.0
C197 C 0.70581 0.88197 0.72008 0.0
Fe198 Fe 0.93062 0.36569 0.12664 0.0
Fe199 Fe 0.85845 0.34617 0.17899 0.0
O200 O 0.90426 0.3375 0.17237 0.0
Fe201 Fe 0.92374 0.30121 0.2108 0.0
O202 O 0.95485 0.32932 0.2525 0.0
O203 O 0.97108 0.35967 0.17117 0.0
O204 O 0.92055 0.4028 0.17632 0.0
C205 C 0.88955 0.41336 0.18641 0.0
C206 C 0.95733 0.30243 0.09215 0.0
O207 O 0.86335 0.39391 0.17402 0.0
C208 C 0.86095 0.27239 0.17101 0.0
O209 O 0.8956 0.37709 0.07238 0.0
O210 O 0.85196 0.34184 0.09578 0.0
O211 O 0.95608 0.29245 0.14837 0.0
O212 O 0.94189 0.33005 0.07506 0.0
C213 C 0.87557 0.32899 0.29864 0.0
O214 O 0.84543 0.3004 0.18571 0.0
O215 O 0.89416 0.27002 0.17279 0.0
C216 C 0.86866 0.35983 0.05658 0.0
O217 O 0.86185 0.35082 0.26207 0.0
O218 O 0.89517 0.30439 0.27944 0.0
C219 C 0.97618 0.34997 0.22632 0.0
Fe220 Fe 0.37264 0.09782 0.89042 0.0
Fe221 Fe 0.30387 0.10313 0.81542 0.0
O222 O 0.34125 0.12353 0.84982 0.0
Fe223 Fe 0.34752 0.16931 0.84254 0.0
O224 O 0.3899 0.16355 0.80583 0.0
O225 O 0.41118 0.12503 0.87115 0.0
O226 O 0.38208 0.07171 0.82158 0.0
C227 C 0.35882 0.05449 0.79253 0.0
C228 C 0.36649 0.15456 0.96767 0.0
O229 O 0.32646 0.06167 0.79935 0.0
C230 C 0.27616 0.16811 0.85856 0.0
O231 O 0.34012 0.06604 0.91755 0.0
O232 O 0.28824 0.08694 0.89034 0.0
O233 O 0.36682 0.17471 0.92079 0.0
O234 O 0.36511 0.12174 0.96164 0.0
C235 C 0.32576 0.14765 0.72255 0.0
O236 O 0.27429 0.14126 0.82405 0.0
O237 O 0.30551 0.17865 0.87827 0.0
C238 C 0.30704 0.06755 0.92451 0.0
O239 O 0.31766 0.11693 0.73872 0.0
O240 O 0.3294 0.17163 0.763 0.0
C241 C 0.41543 0.14654 0.82731 0.0
Fe242 Fe 0.10228 0.72664 0.20421 0.0
Fe243 Fe 0.09479 0.65856 0.12907 0.0
O244 O 0.12166 0.68868 0.17042 0.0
Fe245 Fe 0.16755 0.68086 0.17858 0.0
O246 O 0.16975 0.69817 0.25845 0.0
O247 O 0.115 0.71236 0.28132 0.0
O248 O 0.05953 0.70593 0.21876 0.0
C249 C 0.05021 0.67426 0.22435 0.0
C250 C 0.16903 0.75222 0.16376 0.0
O251 O 0.06719 0.65035 0.19695 0.0
C252 C 0.15313 0.66284 0.05314 0.0
O253 O 0.08723 0.74283 0.12877 0.0
O254 O 0.06469 0.692 0.10046 0.0
O255 O 0.17881 0.72272 0.14409 0.0
O256 O 0.14165 0.75473 0.19701 0.0
C257 C 0.14195 0.6139 0.19279 0.0
O258 O 0.1201 0.66521 0.05847 0.0
O259 O 0.17302 0.66176 0.10039 0.0
C260 C 0.06742 0.72479 0.09374 0.0
O261 O 0.11987 0.61919 0.14998 0.0
O262 O 0.16046 0.63852 0.2139 0.0
C263 C 0.1454 0.70287 0.29808 0.0
Fe264 Fe 0.65951 0.0912 0.13544 0.0
Fe265 Fe 0.72831 0.09979 0.20819 0.0
O266 O 0.69013 0.11858 0.17414 0.0
Fe267 Fe 0.68256 0.16427 0.17922 0.0
O268 O 0.64011 0.15811 0.21618 0.0
O269 O 0.62017 0.1171 0.15422 0.0
O270 O 0.65116 0.06633 0.20543 0.0
C271 C 0.67484 0.0497 0.23386 0.0
C272 C 0.66395 0.14685 0.05542 0.0
O273 O 0.70706 0.05756 0.22604 0.0
C274 C 0.75408 0.16497 0.16267 0.0
O275 O 0.69293 0.06011 0.10884 0.0
O276 O 0.74405 0.08381 0.13354 0.0
O277 O 0.66281 0.16777 0.10118 0.0
O278 O 0.66636 0.11425 0.06359 0.0
C279 C 0.70617 0.14492 0.29908 0.0
O280 O 0.75669 0.13863 0.19803 0.0
O281 O 0.72436 0.1743 0.1428 0.0
C282 C 0.72573 0.06366 0.10001 0.0
O283 O 0.71445 0.11411 0.28394 0.0
O284 O 0.70097 0.16831 0.25823 0.0
C285 C 0.615 0.13975 0.19595 0.0
Fe286 Fe 0.16903 0.3475 0.84118 0.0
Fe287 Fe 0.10317 0.30261 0.81437 0.0
O288 O 0.12316 0.33988 0.84946 0.0
Fe289 Fe 0.09705 0.36973 0.89237 0.0
O290 O 0.12304 0.40901 0.87308 0.0
O291 O 0.16186 0.38978 0.80605 0.0
O292 O 0.17124 0.33024 0.76136 0.0
C293 C 0.14696 0.32609 0.72148 0.0
C294 C 0.15533 0.36411 0.96704 0.0
O295 O 0.11625 0.31735 0.7378 0.0
C296 C 0.06854 0.30354 0.925 0.0
O297 O 0.17969 0.30559 0.87545 0.0
O298 O 0.14223 0.27415 0.82136 0.0
O299 O 0.12229 0.36151 0.96234 0.0
O300 O 0.17476 0.36651 0.91936 0.0
C301 C 0.05261 0.35639 0.79571 0.0
O302 O 0.08788 0.28578 0.88907 0.0
O303 O 0.06612 0.33641 0.91945 0.0
C304 C 0.16923 0.27629 0.8558 0.0
O305 O 0.06073 0.32428 0.80014 0.0
O306 O 0.06988 0.37936 0.82507 0.0
C307 C 0.14414 0.41448 0.82869 0.0
Fe308 Fe 0.30578 0.92272 0.20745 0.0
Fe309 Fe 0.35161 0.85771 0.17957 0.0
O310 O 0.343 0.90318 0.1713 0.0
Fe311 Fe 0.37224 0.9288 0.12635 0.0
O312 O 0.36611 0.96926 0.16986 0.0
O313 O 0.33298 0.9547 0.24906 0.0
O314 O 0.30862 0.89512 0.27703 0.0
C315 C 0.3339 0.87689 0.29794 0.0
C316 C 0.30877 0.95515 0.08826 0.0
O317 O 0.35604 0.86248 0.26246 0.0
C318 C 0.36572 0.86699 0.05723 0.0
O319 O 0.27502 0.89248 0.16938 0.0
O320 O 0.30561 0.84473 0.18692 0.0
O321 O 0.33724 0.94032 0.07308 0.0
O322 O 0.29751 0.954 0.14372 0.0
C323 C 0.41953 0.88771 0.18669 0.0
O324 O 0.34738 0.85059 0.09646 0.0
O325 O 0.38366 0.89341 0.07316 0.0
C326 C 0.27737 0.85946 0.17064 0.0
O327 O 0.39971 0.86193 0.17444 0.0
O328 O 0.40903 0.91866 0.17766 0.0
C329 C 0.35414 0.97567 0.2232 0.0
Fe330 Fe 0.92216 0.72 0.80995 0.0
Fe331 Fe 0.92803 0.65698 0.8982 0.0
O332 O 0.90231 0.68452 0.85049 0.0
Fe333 Fe 0.8566 0.6758 0.84369 0.0
O334 O 0.86091 0.66911 0.76136 0.0
O335 O 0.894 0.71525 0.74058 0.0
O336 O 0.95366 0.69124 0.77101 0.0
C337 C 0.97497 0.67153 0.7992 0.0
C338 C 0.85925 0.74986 0.84569 0.0
O339 O 0.96881 0.66202 0.85415 0.0
C340 C 0.86542 0.66437 0.96687 0.0
O341 O 0.95393 0.73007 0.87266 0.0
O342 O 0.93956 0.69353 0.94795 0.0
O343 O 0.84382 0.7214 0.83309 0.0
O344 O 0.89248 0.75201 0.84514 0.0
C345 C 0.88689 0.60851 0.83954 0.0
O346 O 0.89235 0.64667 0.9526 0.0
O347 O 0.84973 0.68231 0.92643 0.0
C348 C 0.95515 0.72092 0.92937 0.0
O349 O 0.91791 0.61913 0.84985 0.0
O350 O 0.86079 0.62792 0.85212 0.0
C351 C 0.87454 0.69002 0.72287 0.0
C352 C 0.19023 0.53488 0.25556 0.0
C353 C 0.16322 0.51012 0.26588 0.0
C354 C 0.18299 0.56816 0.23177 0.0
C355 C 0.14856 0.57791 0.21545 0.0
H356 H 0.21733 0.52892 0.26716 0.0
H357 H 0.20467 0.58641 0.22595 0.0
S358 S 0.06834 0.52272 0.22996 0.0
N359 N 0.10048 0.49763 0.25627 0.0
N360 N 0.08708 0.56008 0.20946 0.0
C361 C 0.12131 0.55324 0.22346 0.0
C362 C 0.12857 0.51942 0.24916 0.0
C363 C 0.52171 0.89441 0.76303 0.0
C364 C 0.50994 0.85963 0.7565 0.0
C365 C 0.55533 0.90195 0.78709 0.0
C366 C 0.57872 0.87489 0.80322 0.0
H367 H 0.50488 0.9159 0.74906 0.0
H368 H 0.56354 0.92907 0.79104 0.0
S369 S 0.56044 0.77951 0.79468 0.0
N370 N 0.52387 0.79801 0.76918 0.0
N371 N 0.58752 0.81204 0.81199 0.0
C372 C 0.56715 0.84004 0.79711 0.0
C373 C 0.53261 0.83243 0.77436 0.0
C374 C 0.84807 0.46217 0.20979 0.0
C375 C 0.88288 0.44946 0.20906 0.0
C376 C 0.83998 0.49499 0.23453 0.0
C377 C 0.86627 0.51663 0.26015 0.0
H378 H 0.82652 0.44645 0.19192 0.0
H379 H 0.81259 0.50296 0.23483 0.0
S380 S 0.96215 0.4968 0.26615 0.0
N381 N 0.94432 0.46188 0.23343 0.0
N382 N 0.92915 0.5238 0.28012 0.0
C383 C 0.90149 0.50488 0.25786 0.0
C384 C 0.90977 0.47128 0.23236 0.0
C385 C 0.48058 0.15594 0.83889 0.0
C386 C 0.45076 0.15217 0.80062 0.0
C387 C 0.51402 0.16273 0.81331 0.0
C388 C 0.5188 0.16488 0.74864 0.0
H389 H 0.47787 0.15444 0.88887 0.0
H390 H 0.53628 0.16608 0.84427 0.0
S391 S 0.44888 0.1549 0.62878 0.0
N392 N 0.42802 0.15021 0.69545 0.0
N393 N 0.4906 0.16166 0.64705 0.0
C394 C 0.4891 0.16022 0.71005 0.0
C395 C 0.45514 0.15422 0.73614 0.0
C396 C 0.1894 0.49125 0.75103 0.0
C397 C 0.16398 0.51802 0.75303 0.0
C398 C 0.18265 0.45815 0.77594 0.0
C399 C 0.15046 0.45049 0.80535 0.0
H400 H 0.21468 0.4956 0.72897 0.0
H401 H 0.20302 0.43841 0.77215 0.0
S402 S 0.07581 0.51215 0.8265 0.0
N403 N 0.10568 0.53517 0.78829 0.0
N404 N 0.09317 0.47293 0.8371 0.0
C405 C 0.12503 0.47728 0.80932 0.0
C406 C 0.1317 0.51099 0.78258 0.0
C407 C 0.5048 0.89364 0.27799 0.0
C408 C 0.52291 0.86315 0.25954 0.0
C409 C 0.47206 0.90249 0.252 0.0
C410 C 0.45599 0.88077 0.20756 0.0
H411 H 0.51574 0.91055 0.31354 0.0
H412 H 0.4586 0.92566 0.2687 0.0
S413 S 0.49329 0.7993 0.14039 0.0
N414 N 0.52307 0.81236 0.19127 0.0
N415 N 0.46144 0.82864 0.14335 0.0
C416 C 0.47429 0.85085 0.18726 0.0
C417 C 0.50781 0.84215 0.21293 0.0
C418 C 0.8492 0.55472 0.82944 0.0
C419 C 0.88047 0.57282 0.81442 0.0
C420 C 0.84112 0.52216 0.80244 0.0
C421 C 0.86356 0.50681 0.75811 0.0
H422 H 0.83062 0.56595 0.862 0.0
H423 H 0.8165 0.50954 0.81487 0.0
S424 S 0.94901 0.54327 0.70346 0.0
N425 N 0.93446 0.5725 0.75377 0.0
N426 N 0.91895 0.5119 0.70176 0.0
C427 C 0.89518 0.52443 0.74338 0.0
C428 C 0.90373 0.55722 0.77186 0.0
C429 C 0.57038 0.18052 0.24032 0.0
C430 C 0.57872 0.14688 0.21847 0.0
C431 C 0.53696 0.18811 0.26405 0.0
C432 C 0.51072 0.16212 0.26956 0.0
H433 H 0.58979 0.20138 0.23875 0.0
H434 H 0.53196 0.21464 0.27909 0.0
S435 S 0.51769 0.07071 0.21279 0.0
N436 N 0.55681 0.08799 0.19813 0.0
N437 N 0.49433 0.10201 0.24599 0.0
C438 C 0.51823 0.12856 0.24621 0.0
C439 C 0.55212 0.12102 0.22 0.0
C440 C 0.63203 0.02336 0.75832 0.0
C441 C 0.66565 1.00806 0.75181 0.0
C442 C 0.62413 0.05592 0.7313 0.0
C443 C 0.64952 0.07447 0.69675 0.0
H444 H 0.61197 1.01074 0.78629 0.0
H445 H 0.59839 0.06723 0.73964 0.0
S446 S 0.73966 0.04351 0.65783 0.0
N447 N 0.72318 1.01239 0.7024 0.0
N448 N 0.7084 0.07332 0.6519 0.0
C449 C 0.68255 0.05858 0.68704 0.0
C450 C 0.69057 0.02548 0.71443 0.0
C451 C 0.07395 0.36773 0.24156 0.0
C452 C 0.07824 0.37605 0.30466 0.0
C453 C 0.04079 0.35957 0.21715 0.0
C454 C 1.0106 0.35843 0.25506 0.0
H455 H 0.09644 0.3678 0.21049 0.0
H456 H 0.03889 0.35369 0.16807 0.0
S457 S 1.00742 0.37802 0.42341 0.0
N458 N 0.0494 0.38308 0.40471 0.0
N459 N 0.98694 0.36671 0.35872 0.0
C460 C 0.0144 0.3665 0.31832 0.0
C461 C 0.04823 0.37564 0.34311 0.0
C462 C 0.40782 0.97173 0.7444 0.0
C463 C 0.38307 0.95454 0.7063 0.0
C464 C 0.40057 1.00477 0.77027 0.0
C465 C 0.36834 0.02187 0.75874 0.0
H466 H 0.43243 0.95901 0.75623 0.0
H467 H 0.41982 0.01634 0.80129 0.0
S468 S 0.29702 0.99024 0.65444 0.0
N469 N 0.32665 0.95867 0.65329 0.0
N470 N 0.31318 0.02061 0.70101 0.0
C471 C 0.34428 1.00573 0.71788 0.0
C472 C 0.35157 0.97212 0.69197 0.0
C473 C 1.00609 0.63175 0.26944 0.0
C474 C 0.01576 0.66642 0.25453 0.0
C475 C 0.97277 0.62403 0.29484 0.0
C476 C 0.94777 0.65062 0.30487 0.0
H477 H 0.02423 0.61039 0.261 0.0
H478 H 0.96613 0.59699 0.30478 0.0
S479 S 0.96017 0.74569 0.27741 0.0
N480 N 0.99768 0.72778 0.25542 0.0
N481 N 0.93523 0.71286 0.30104 0.0
C482 C 0.95726 0.68531 0.29142 0.0
C483 C 0.9912 0.69332 0.26686 0.0
C484 C 0.69248 0.99292 0.28205 0.0
C485 C 0.66564 0.01681 0.26683 0.0
C486 C 0.68465 0.96017 0.3076 0.0
C487 C 0.64963 0.94983 0.31937 0.0
H488 H 0.71986 0.99903 0.27254 0.0
H489 H 0.70637 0.94254 0.31681 0.0
S490 S 0.56973 1.00395 0.29367 0.0
N491 N 0.60264 0.02883 0.26959 0.0
N492 N 0.58789 0.96712 0.31756 0.0
C493 C 0.62254 0.97394 0.30666 0.0
C494 C 0.63054 1.00742 0.28048 0.0
C495 C 0.96376 0.34655 0.71658 0.0
C496 C 0.95223 0.38127 0.70867 0.0
C497 C 0.99649 0.33903 0.74321 0.0
C498 C 0.01927 0.36587 0.76354 0.0
H499 H 0.94717 0.32472 0.70298 0.0
H500 H 1.00353 0.31175 0.749 0.0
S501 S 1.00275 0.46142 0.75021 0.0
N502 N 0.96702 0.44299 0.72099 0.0
N503 N 0.02867 0.42882 0.77109 0.0
C504 C 1.00859 0.40081 0.75451 0.0
C505 C 0.97511 0.40851 0.72713 0.0
C506 C 0.37456 0.04852 0.33942 0.0
C507 C 0.37699 0.07829 0.30101 0.0
C508 C 0.36644 0.01529 0.31452 0.0
C509 C 0.3614 1.0107 0.2503 0.0
H510 H 0.37821 0.05105 0.38906 0.0
H511 H 0.36467 0.99302 0.34546 0.0
S512 S 0.36586 0.08031 0.12998 0.0
N513 N 0.37402 0.10089 0.19578 0.0
N514 N 0.35971 0.03888 0.14903 0.0
C515 C 0.36431 0.04029 0.21157 0.0
C516 C 0.37187 0.07395 0.2369 0.0
C517 C 0.0478 0.65225 0.68187 0.0
C518 C 0.07768 0.64853 0.72 0.0
C519 C 0.01454 0.66 0.70747 0.0
C520 C 1.00999 0.66335 0.77207 0.0
H521 H 0.05035 0.65012 0.63195 0.0
H522 H 0.99223 0.66318 0.6766 0.0
S523 S 0.08007 0.65423 0.89173 0.0
N524 N 0.1006 0.64795 0.82516 0.0
N525 N 0.03846 0.66145 0.87346 0.0
C526 C 0.03971 0.65879 0.81055 0.0
C527 C 0.07345 0.65167 0.78446 0.0
C528 C 0.24068 0.50729 0.57393 0.0
C529 C 0.24114 0.54235 0.55371 0.0
C530 C 0.24077 0.47947 0.53131 0.0
C531 C 0.24163 0.48587 0.4672 0.0
H532 H 0.23625 0.50142 0.62245 0.0
H533 H 0.23631 0.45312 0.54835 0.0
S534 S 0.24797 0.57265 0.39118 0.0
N535 N 0.24648 0.58174 0.4661 0.0
N536 N 0.24705 0.52947 0.38589 0.0
C537 C 0.24599 0.52058 0.44687 0.0
C538 C 0.24566 0.5489 0.49025 0.0
C539 C 0.51744 0.78608 0.56773 0.0
C540 C 0.48307 0.79246 0.54605 0.0
C541 C 0.54603 0.78514 0.52646 0.0
C542 C 0.54098 0.78958 0.46228 0.0
H543 H 0.52282 0.78564 0.61711 0.0
H544 H 0.57249 0.78394 0.5453 0.0
S545 S 0.45537 0.80101 0.38184 0.0
N546 N 0.44502 0.7989 0.4562 0.0
N547 N 0.49857 0.79598 0.3785 0.0
C548 C 0.50631 0.79178 0.43963 0.0
C549 C 0.47734 0.79353 0.48167 0.0
C550 C 0.7802 0.51357 0.56564 0.0
C551 C 0.78833 0.47928 0.54635 0.0
C552 C 0.77942 0.54119 0.52261 0.0
C553 C 0.7864 0.53511 0.45959 0.0
H554 H 0.77854 0.5198 0.6146 0.0
H555 H 0.77703 0.56771 0.53954 0.0
S556 S 0.80077 0.44912 0.38433 0.0
N557 N 0.79691 0.43997 0.45892 0.0
N558 N 0.79545 0.49192 0.37859 0.0
C559 C 0.78963 0.50043 0.43899 0.0
C560 C 0.79056 0.47241 0.48241 0.0
C561 C 0.48027 0.23799 0.53598 0.0
C562 C 0.48542 0.23918 0.47149 0.0
C563 C 0.50908 0.238 0.57689 0.0
C564 C 0.54389 0.23782 0.55415 0.0
H565 H 0.45414 0.23359 0.5546 0.0
H566 H 0.50407 0.23408 0.62589 0.0
S567 S 0.57112 0.247 0.39012 0.0
N568 N 0.52756 0.24607 0.38767 0.0
N569 N 0.58179 0.24404 0.46421 0.0
C570 C 0.54921 0.24261 0.49037 0.0
C571 C 0.51989 0.24373 0.44905 0.0
C572 C 0.74265 0.04766 0.99352 0.0
C573 C 0.74219 0.03901 0.05678 0.0
C574 C 0.74219 0.02134 0.94813 0.0
C575 C 0.74134 0.98574 0.9649 0.0
H576 H 0.73935 0.07466 0.97914 0.0
H577 H 0.73866 0.02886 0.90004 0.0
S578 S 0.74454 0.94986 0.12417 0.0
N579 N 0.74473 0.9928 0.13388 0.0
N580 N 0.74411 0.94328 0.04837 0.0
C581 C 0.74467 0.97689 0.02768 0.0
C582 C 0.74505 1.00365 0.07384 0.0
C583 C 0.97834 0.28962 0.9853 0.0
C584 C 0.98442 0.28829 0.04963 0.0
C585 C 1.00641 0.28873 0.94309 0.0
C586 C 0.0415 0.28681 0.96381 0.0
H587 H 0.95205 0.29464 0.96776 0.0
H588 H 1.00089 0.2936 0.8945 0.0
S589 S 0.07117 0.27735 0.12642 0.0
N590 N 0.0278 0.2799 0.13138 0.0
N591 N 0.0806 0.27938 0.05166 0.0
C592 C 0.04768 0.28168 0.02726 0.0
C593 C 0.01904 0.28206 0.07038 0.0
C594 C 0.28603 0.04406 0.02507 0.0
C595 C 0.29136 0.0391 0.96119 0.0
C596 C 0.28709 0.01553 0.06626 0.0
C597 C 0.29455 0.98148 0.0447 0.0
H598 H 0.28468 0.07034 0.04394 0.0
H599 H 0.28599 0.02082 0.11561 0.0
S600 S 0.30486 0.95444 0.88056 0.0
N601 N 0.29928 0.9973 0.87751 0.0
N602 N 0.30224 0.9439 0.95476 0.0
C603 C 0.29624 0.97589 0.98039 0.0
C604 C 0.29444 1.00472 0.93861 0.0
C605 C 0.97657 0.73507 0.03565 0.0
C606 C 0.98213 0.73622 0.97119 0.0
C607 C 1.00488 0.73768 0.07716 0.0
C608 C 0.03975 0.74106 0.0557 0.0
H609 H 0.95066 0.72896 0.05396 0.0
H610 H 0.99987 0.73279 0.12587 0.0
S611 S 0.06764 0.75198 0.89234 0.0
N612 N 0.02445 0.74688 0.8884 0.0
N613 N 0.07774 0.75045 0.96687 0.0
C614 C 0.04519 0.74628 0.99205 0.0
C615 C 0.01627 0.74423 0.9496 0.0
C616 C 0.19546 0.40392 0.11194 0.0
C617 C 0.19496 0.37583 0.15467 0.0
C618 C 0.18381 0.39967 0.0505 0.0
C619 C 0.17098 0.36729 0.02949 0.0
H620 H 0.2039 0.42979 0.12641 0.0
H621 H 0.1837 0.42217 0.01986 0.0
S622 S 0.16787 0.28443 0.11856 0.0
N623 N 0.18328 0.31351 0.16849 0.0
N624 N 0.16103 0.30604 0.05331 0.0
C625 C 0.1716 0.33869 0.0703 0.0
C626 C 0.18373 0.34281 0.13275 0.0
C627 C 0.37081 0.88297 0.94704 0.0
C628 C 0.36695 0.85645 0.99167 0.0
C629 C 0.37338 0.87504 0.88425 0.0
C630 C 0.3729 0.84018 0.86347 0.0
H631 H 0.37182 0.91029 0.96067 0.0
H632 H 0.3765 0.89652 0.85178 0.0
S633 S 0.36295 0.76096 0.96132 0.0
N634 N 0.36199 0.79389 0.01115 0.0
N635 N 0.36791 0.77872 0.89191 0.0
C636 C 0.36904 0.81321 0.90733 0.0
C637 C 0.36564 0.82141 0.97177 0.0
C638 C 0.85105 0.62629 0.05631 0.0
C639 C 0.85008 0.65966 0.0291 0.0
C640 C 0.84029 0.6211 0.11754 0.0
C641 C 0.8288 0.64923 0.15465 0.0
H642 H 0.86075 0.60399 0.03031 0.0
H643 H 0.8424 0.59492 0.13658 0.0
S644 S 0.81999 0.7417 0.10405 0.0
N645 N 0.83523 0.72109 0.04219 0.0
N646 N 0.81576 0.71159 0.15867 0.0
C647 C 0.82689 0.68271 0.12754 0.0
C648 C 0.83725 0.68785 0.06435 0.0
C649 C 0.67174 0.13767 0.94196 0.0
C650 C 0.6617 0.16002 0.99075 0.0
C651 C 0.6697 0.1483 0.88015 0.0
C652 C 0.65727 0.18178 0.86388 0.0
H653 H 0.6813 0.11147 0.95134 0.0
H654 H 0.67731 0.12959 0.84479 0.0
S655 S 0.62874 0.25103 0.97391 0.0
N656 N 0.63983 0.21779 0.01882 0.0
N657 N 0.6356 0.23778 0.90196 0.0
C658 C 0.64758 0.20476 0.91209 0.0
C659 C 0.64996 0.19393 0.97558 0.0
C660 C 0.19397 0.6239 0.90773 0.0
C661 C 0.19306 0.65199 0.86502 0.0
C662 C 0.18208 0.6278 0.96918 0.0
C663 C 0.16851 0.65983 0.99027 0.0
H664 H 0.20306 0.59829 0.89327 0.0
H665 H 0.18248 0.60532 0.99982 0.0
S666 S 0.16329 0.74246 0.90087 0.0
N667 N 0.17961 0.71387 0.8511 0.0
N668 N 0.15698 0.72071 0.96616 0.0
C669 C 0.16846 0.68839 0.94933 0.0
C670 C 0.18084 0.68462 0.88691 0.0
C671 C 0.66702 0.87663 0.13947 0.0
C672 C 0.65763 0.84216 0.15578 0.0
C673 C 0.66849 0.88731 0.07761 0.0
C674 C 0.66116 0.86399 0.02864 0.0
H675 H 0.67261 0.89604 0.17487 0.0
H676 H 0.67544 0.91433 0.06837 0.0
S677 S 0.63573 0.77048 0.04576 0.0
N678 N 0.64089 0.78445 0.11775 0.0
N679 N 0.64439 0.80444 1.00073 0.0
C680 C 0.65213 0.82921 0.04393 0.0
C681 C 0.65015 0.81836 0.10754 0.0
C682 C 0.87516 0.36896 0.88356 0.0
C683 C 0.83984 0.37039 0.8641 0.0
C684 C 0.88377 0.36503 0.94589 0.0
C685 C 0.85745 0.36184 0.99138 0.0
H686 H 0.89651 0.37158 0.8504 0.0
H687 H 0.91143 0.36452 0.95854 0.0
S688 S 0.76093 0.3622 0.96458 0.0
N689 N 0.77819 0.36744 0.89474 0.0
N690 N 0.79457 0.35921 0.01304 0.0
C691 C 0.82195 0.36229 0.97277 0.0
C692 C 0.81308 0.36696 0.90883 0.0
C693 C 0.34548 0.18744 0.06139 0.0
C694 C 0.37233 0.16899 0.03045 0.0
C695 C 0.3496 0.19823 0.12355 0.0
C696 C 0.38107 0.1916 0.15611 0.0
H697 H 0.32078 0.19262 0.03802 0.0
H698 H 0.32808 0.21177 0.14621 0.0
S699 S 0.4588 0.14325 0.09562 0.0
N700 N 0.43079 0.14375 0.03697 0.0
N701 N 0.4392 0.16467 0.1525 0.0
C702 C 0.40821 0.17349 0.12498 0.0
C703 C 0.40366 0.16198 0.06249 0.0
C704 C 0.68684 0.83535 0.56722 0.0
C705 C 0.6775 0.86334 0.5283 0.0
C706 C 0.697 0.8414 0.62909 0.0
C707 C 0.69881 0.87567 0.65328 0.0
H708 H 0.68471 0.80862 0.55066 0.0
H709 H 0.70276 0.8191 0.65842 0.0
S710 S 0.67952 0.95793 0.56712 0.0
N711 N 0.67247 0.92634 0.51633 0.0
N712 N 0.69196 0.93805 0.63138 0.0
C713 C 0.69106 0.9039 0.6133 0.0
C714 C 0.68029 0.89763 0.55109 0.0
C715 C 0.89668 0.34573 0.46675 0.0
C716 C 0.86339 0.35281 0.4923 0.0
C717 C 0.90006 0.33562 0.40458 0.0
C718 C 0.87042 0.33372 0.36565 0.0
H719 H 0.92024 0.34852 0.49477 0.0
H720 H 0.92616 0.33092 0.38609 0.0
S721 S 0.77739 0.34806 0.41141 0.0
N722 N 0.80011 0.35501 0.47569 0.0
N723 N 0.80668 0.33809 0.35745 0.0
C724 C 0.83694 0.33997 0.39105 0.0
C725 C 0.83337 0.34901 0.45489 0.0
C726 C 0.32386 0.1298 0.60987 0.0
C727 C 0.33275 0.15496 0.65548 0.0
C728 C 0.33463 0.13356 0.54768 0.0
C729 C 0.35517 0.16231 0.52897 0.0
H730 H 0.30937 0.1064 0.62258 0.0
H731 H 0.3283 0.11301 0.51479 0.0
S732 S 0.38314 0.23703 0.62731 0.0
N733 N 0.36131 0.2111 0.67515 0.0
N734 N 0.38189 0.21753 0.55894 0.0
C735 C 0.36297 0.18832 0.57302 0.0
C736 C 0.35163 0.18486 0.63602 0.0
C737 C 0.17828 0.65438 0.44056 0.0
C738 C 0.15922 0.66958 0.48971 0.0
C739 C 0.17504 0.66665 0.37945 0.0
C740 C 0.15189 0.69415 0.36447 0.0
H741 H 0.19571 0.63254 0.44935 0.0
H742 H 0.18974 0.65342 0.34327 0.0
S743 S 0.09639 0.74348 0.4762 0.0
N744 N 0.11726 0.71451 0.51961 0.0
N745 N 0.11014 0.73685 0.40441 0.0
C746 C 0.13301 0.70998 0.41331 0.0
C747 C 0.13697 0.69795 0.47594 0.0
C748 C 0.68188 0.13024 0.46699 0.0
C749 C 0.67871 0.1643 0.4907 0.0
C750 C 0.6926 0.12446 0.4059 0.0
C751 C 0.69989 0.15259 0.36557 0.0
H752 H 0.67524 0.10781 0.49557 0.0
H753 H 0.69359 0.09763 0.38954 0.0
S754 S 0.69713 0.247 0.40695 0.0
N755 N 0.68519 0.22659 0.47122 0.0
N756 N 0.70488 0.21597 0.35522 0.0
C757 C 0.69792 0.18691 0.38948 0.0
C758 C 0.68749 0.1927 0.4524 0.0
C759 C 0.17599 0.36316 0.64078 0.0
C760 C 0.15394 0.33464 0.65538 0.0
C761 C 0.17932 0.37525 0.57961 0.0
C762 C 0.16141 0.35886 0.53022 0.0
H763 H 0.18961 0.37727 0.67727 0.0
H764 H 0.19586 0.39792 0.57102 0.0
S765 S 0.10231 0.28164 0.54302 0.0
N766 N 0.11488 0.28946 0.61511 0.0
N767 N 0.12212 0.31149 0.49974 0.0
C768 C 0.14045 0.32938 0.54372 0.0
C769 C 0.13641 0.31752 0.60636 0.0
C770 C 0.35913 0.83764 0.45243 0.0
C771 C 0.35503 0.86615 0.49281 0.0
C772 C 0.35117 0.84095 0.38931 0.0
C773 C 0.33798 0.87259 0.36534 0.0
H774 H 0.36996 0.81318 0.46924 0.0
H775 H 0.35598 0.81886 0.3589 0.0
S776 S 0.3208 0.95411 0.45406 0.0
N777 N 0.33633 0.92639 0.50608 0.0
N778 N 0.31981 0.93242 0.38772 0.0
C779 C 0.33224 0.90074 0.40621 0.0
C780 C 0.34124 0.89758 0.47004 0.0
C781 C 0.89127 0.69762 0.61063 0.0
C782 C 0.86802 0.68407 0.65579 0.0
C783 C 0.88817 0.68797 0.54783 0.0
C784 C 0.86192 0.66432 0.52858 0.0
H785 H 0.91292 0.71453 0.62418 0.0
H786 H 0.90739 0.69769 0.51482 0.0
S787 S 0.79104 0.62616 0.62583 0.0
N788 N 0.81514 0.64933 0.67464 0.0
N789 N 0.80995 0.63097 0.55737 0.0
C790 C 0.83736 0.65235 0.57237 0.0
C791 C 0.84023 0.66229 0.6358 0.0
C792 C 0.33746 0.31044 0.31966 0.0
C793 C 0.33685 0.28308 0.3635 0.0
C794 C 0.31153 0.33674 0.31979 0.0
C795 C 0.28404 0.33667 0.36379 0.0
H796 H 0.35691 0.31053 0.28287 0.0
H797 H 0.312 0.35609 0.28307 0.0
S798 S 0.27454 0.27471 0.49561 0.0
N799 N 0.30931 0.26039 0.45719 0.0
N800 N 0.26079 0.3096 0.4575 0.0
C801 C 0.28481 0.31101 0.41071 0.0
C802 C 0.31113 0.2843 0.41054 0.0
C803 C 0.27707 0.72647 0.62879 0.0
C804 C 0.28241 0.69352 0.65672 0.0
C805 C 0.30304 0.75251 0.6304 0.0
C806 C 0.33581 0.74671 0.65894 0.0
H807 H 0.25195 0.733 0.60792 0.0
H808 H 0.29691 0.77796 0.61095 0.0
S809 S 0.36532 0.664 0.7321 0.0
N810 N 0.32461 0.65562 0.70906 0.0
N811 N 0.37363 0.70481 0.71109 0.0
C812 C 0.34271 0.71326 0.68311 0.0
C813 C 0.31597 0.68664 0.68225 0.0
C814 C 0.72063 0.74495 0.3931 0.0
C815 C 0.68965 0.74091 0.35818 0.0
C816 C 0.7459 0.71842 0.39578 0.0
C817 C 0.74164 0.68689 0.36252 0.0
H818 H 0.72606 0.76947 0.41666 0.0
H819 H 0.76985 0.72363 0.42161 0.0
S820 S 0.66283 0.66197 0.26985 0.0
N821 N 0.65408 0.70197 0.2947 0.0
N822 N 0.70191 0.6519 0.29856 0.0
C823 C 0.70949 0.68155 0.33085 0.0
C824 C 0.68342 0.70863 0.3289 0.0
C825 C 0.7112 0.34202 0.6933 0.0
C826 C 0.74302 0.33724 0.66071 0.0
C827 C 0.6852 0.31551 0.6942 0.0
C828 C 0.69053 0.28364 0.66266 0.0
H829 H 0.70751 0.36512 0.72177 0.0
H830 H 0.66214 0.31894 0.7232 0.0
S831 S 0.76631 0.2615 0.56125 0.0
N832 N 0.77599 0.3006 0.58931 0.0
N833 N 0.72762 0.25106 0.59123 0.0
C834 C 0.72087 0.28008 0.62581 0.0
C835 C 0.74701 0.30684 0.62478 0.0
C836 C 0.77937 0.80295 0.89069 0.0
C837 C 0.78486 0.83542 0.86106 0.0
C838 C 0.80459 0.7763 0.88815 0.0
C839 C 0.83677 0.78096 0.85682 0.0
H840 H 0.75462 0.79723 0.9137 0.0
H841 H 0.79829 0.75127 0.90922 0.0
S842 S 0.8667 0.86218 0.7786 0.0
N843 N 0.8268 0.87173 0.80426 0.0
N844 N 0.87442 0.82145 0.80049 0.0
C845 C 0.84397 0.814 0.83098 0.0
C846 C 0.81798 0.84124 0.83285 0.0
C847 C 0.81564 0.18463 0.19009 0.0
C848 C 0.78479 0.18898 0.15418 0.0
C849 C 0.8421 0.21052 0.19165 0.0
C850 C 0.83852 0.24164 0.15755 0.0
H851 H 0.81854 0.16201 0.21995 0.0
H852 H 0.86422 0.20723 0.2229 0.0
S853 S 0.76659 0.26344 0.04785 0.0
N854 N 0.75517 0.22503 0.07684 0.0
N855 N 0.80443 0.27364 0.08117 0.0
C856 C 0.80936 0.24513 0.11794 0.0
C857 C 0.78265 0.2188 0.11579 0.0
C858 C 0.19201 0.21771 0.82089 0.0
C859 C 0.19257 0.24539 0.86417 0.0
C860 C 0.21784 0.19135 0.82172 0.0
C861 C 0.24521 0.19166 0.8659 0.0
H862 H 0.17265 0.21737 0.78394 0.0
H863 H 0.21745 0.17178 0.78531 0.0
S864 S 0.25447 0.25445 0.99669 0.0
N865 N 0.21987 0.26861 0.95769 0.0
N866 N 0.26823 0.21929 0.95929 0.0
C867 C 0.24435 0.21763 0.91235 0.0
C868 C 0.21812 0.24441 0.91148 0.0
C869 C 0.22652 0.77778 0.12827 0.0
C870 C 0.19341 0.7828 0.15652 0.0
C871 C 0.25256 0.80382 0.12975 0.0
C872 C 0.24663 0.83633 0.15863 0.0
H873 H 0.2332 0.75287 0.10729 0.0
H874 H 0.27818 0.79788 0.11014 0.0
S875 S 0.16326 0.86503 0.23221 0.0
N876 N 0.15507 0.82455 0.20908 0.0
N877 N 0.20426 0.87357 0.21106 0.0
C878 C 0.21294 0.84293 0.18292 0.0
C879 C 0.18631 0.81616 0.18208 0.0
loop_
_geom_bond_atom_site_label_1
_geom_bond_atom_site_label_2
_geom_bond_distance
_geom_bond_site_symmetry_2
_ccdc_geom_bond_type
Fe0 O2 1.918 . S
Fe0 O5 1.997 . S
Fe0 O6 2.002 . S
Fe0 O11 1.976 . S
Fe0 O14 1.996 . S
Fe1 O2 1.918 . S
Fe1 O9 1.997 . S
Fe1 O12 1.996 . S
Fe1 O16 1.976 . S
Fe1 O19 2.002 . S
O2 Fe0 1.918 . S
O2 Fe1 1.918 . S
O2 Fe3 1.918 . S
Fe3 O2 1.918 . S
Fe3 O4 2.002 . S
Fe3 O13 1.976 . S
Fe3 O17 1.996 . S
Fe3 O20 1.997 . S
O4 Fe3 2.002 . S
O4 C21 1.295 . S
O5 Fe0 1.997 . S
O5 C21 1.235 . S
O6 Fe0 2.002 . S
O6 C7 1.295 . S
C7 O6 1.295 . S
C7 O9 1.235 . S
C8 O13 1.287 . S
C8 O14 1.255 . S
O9 Fe1 1.997 . S
O9 C7 1.235 . S
C10 O16 1.287 . S
C10 O17 1.255 . S
O11 Fe0 1.976 . S
O11 C18 1.287 . S
O12 Fe1 1.996 . S
O12 C18 1.255 . S
O13 Fe3 1.976 . S
O13 C8 1.287 . S
O14 Fe0 1.996 . S
O14 C8 1.255 . S
C15 O19 1.295 . S
C15 O20 1.235 . S
O16 Fe1 1.976 . S
O16 C10 1.287 . S
O17 Fe3 1.996 . S
O17 C10 1.255 . S
C18 O11 1.287 . S
C18 O12 1.255 . S
O19 Fe1 2.002 . S
O19 C15 1.295 . S
O20 Fe3 1.997 . S
O20 C15 1.235 . S
C21 O4 1.295 . S
C21 O5 1.235 . S
Fe22 O24 1.918 . S
Fe22 O27 1.997 . S
Fe22 O28 2.002 . S
Fe22 O33 1.976 . S
Fe22 O36 1.996 . S
Fe23 O24 1.918 . S
Fe23 O31 1.997 . S
Fe23 O34 1.996 . S
Fe23 O38 1.976 . S
Fe23 O41 2.002 . S
O24 Fe22 1.918 . S
O24 Fe23 1.918 . S
O24 Fe25 1.918 . S
Fe25 O24 1.918 . S
Fe25 O26 2.002 . S
Fe25 O35 1.976 . S
Fe25 O39 1.996 . S
Fe25 O42 1.997 . S
O26 Fe25 2.002 . S
O26 C43 1.295 . S
O27 Fe22 1.997 . S
O27 C43 1.235 . S
O28 Fe22 2.002 . S
O28 C29 1.295 . S
C29 O28 1.295 . S
C29 O31 1.235 . S
C30 O35 1.287 . S
C30 O36 1.255 . S
O31 Fe23 1.997 . S
O31 C29 1.235 . S
C32 O38 1.287 . S
C32 O39 1.255 . S
O33 Fe22 1.976 . S
O33 C40 1.287 . S
O34 Fe23 1.996 . S
O34 C40 1.255 . S
O35 Fe25 1.976 . S
O35 C30 1.287 . S
O36 Fe22 1.996 . S
O36 C30 1.255 . S
C37 O41 1.295 . S
C37 O42 1.235 . S
O38 Fe23 1.976 . S
O38 C32 1.287 . S
O39 Fe25 1.996 . S
O39 C32 1.255 . S
C40 O33 1.287 . S
C40 O34 1.255 . S
O41 Fe23 2.002 . S
O41 C37 1.295 . S
O42 Fe25 1.997 . S
O42 C37 1.235 . S
C43 O26 1.295 . S
C43 O27 1.235 . S
Fe44 O46 1.918 . S
Fe44 O49 1.997 . S
Fe44 O50 2.002 . S
Fe44 O55 1.976 . S
Fe44 O58 1.996 . S
Fe45 O46 1.918 . S
Fe45 O53 1.997 . S
Fe45 O56 1.996 . S
Fe45 O60 1.976 . S
Fe45 O63 2.002 . S
O46 Fe44 1.918 . S
O46 Fe45 1.918 . S
O46 Fe47 1.918 . S
Fe47 O46 1.918 . S
Fe47 O48 2.002 . S
Fe47 O57 1.976 . S
Fe47 O61 1.996 . S
Fe47 O64 1.997 . S
O48 Fe47 2.002 . S
O48 C65 1.295 . S
O49 Fe44 1.997 . S
O49 C65 1.235 . S
O50 Fe44 2.002 . S
O50 C51 1.295 . S
C51 O50 1.295 . S
C51 O53 1.235 . S
C52 O57 1.287 . S
C52 O58 1.255 . S
O53 Fe45 1.997 . S
O53 C51 1.235 . S
C54 O60 1.287 . S
C54 O61 1.255 . S
O55 Fe44 1.976 . S
O55 C62 1.287 . S
O56 Fe45 1.996 . S
O56 C62 1.255 . S
O57 Fe47 1.976 . S
O57 C52 1.287 . S
O58 Fe44 1.996 . S
O58 C52 1.255 . S
C59 O63 1.295 . S
C59 O64 1.235 . S
O60 Fe45 1.976 . S
O60 C54 1.287 . S
O61 Fe47 1.996 . S
O61 C54 1.255 . S
C62 O55 1.287 . S
C62 O56 1.255 . S
O63 Fe45 2.002 . S
O63 C59 1.295 . S
O64 Fe47 1.997 . S
O64 C59 1.235 . S
C65 O48 1.295 . S
C65 O49 1.235 . S
Fe66 O68 1.918 . S
Fe66 O71 1.997 . S
Fe66 O72 2.002 . S
Fe66 O77 1.976 . S
Fe66 O80 1.996 . S
Fe67 O68 1.918 . S
Fe67 O75 1.997 . S
Fe67 O78 1.996 . S
Fe67 O82 1.976 . S
Fe67 O85 2.002 . S
O68 Fe66 1.918 . S
O68 Fe67 1.918 . S
O68 Fe69 1.918 . S
Fe69 O68 1.918 . S
Fe69 O70 2.002 . S
Fe69 O79 1.976 . S
Fe69 O83 1.996 . S
Fe69 O86 1.997 . S
O70 Fe69 2.002 . S
O70 C87 1.295 . S
O71 Fe66 1.997 . S
O71 C87 1.235 . S
O72 Fe66 2.002 . S
O72 C73 1.295 . S
C73 O72 1.295 . S
C73 O75 1.235 . S
C74 O79 1.287 . S
C74 O80 1.255 . S
O75 Fe67 1.997 . S
O75 C73 1.235 . S
C76 O82 1.287 . S
C76 O83 1.255 . S
O77 Fe66 1.976 . S
O77 C84 1.287 . S
O78 Fe67 1.996 . S
O78 C84 1.255 . S
O79 Fe69 1.976 . S
O79 C74 1.287 . S
O80 Fe66 1.996 . S
O80 C74 1.255 . S
C81 O85 1.295 . S
C81 O86 1.235 . S
O82 Fe67 1.976 . S
O82 C76 1.287 . S
O83 Fe69 1.996 . S
O83 C76 1.255 . S
C84 O77 1.287 . S
C84 O78 1.255 . S
O85 Fe67 2.002 . S
O85 C81 1.295 . S
O86 Fe69 1.997 . S
O86 C81 1.235 . S
C87 O70 1.295 . S
C87 O71 1.235 . S
Fe88 O90 1.918 . S
Fe88 O93 1.997 . S
Fe88 O94 2.002 . S
Fe88 O99 1.976 . S
Fe88 O102 1.996 . S
Fe89 O90 1.918 . S
Fe89 O97 1.997 . S
Fe89 O100 1.996 . S
Fe89 O104 1.976 . S
Fe89 O107 2.002 . S
O90 Fe88 1.918 . S
O90 Fe89 1.918 . S
O90 Fe91 1.918 . S
Fe91 O90 1.918 . S
Fe91 O92 2.002 . S
Fe91 O101 1.976 . S
Fe91 O105 1.996 . S
Fe91 O108 1.997 . S
O92 Fe91 2.002 . S
O92 C109 1.295 . S
O93 Fe88 1.997 . S
O93 C109 1.235 . S
O94 Fe88 2.002 . S
O94 C95 1.295 . S
C95 O94 1.295 . S
C95 O97 1.235 . S
C96 O101 1.287 . S
C96 O102 1.255 . S
O97 Fe89 1.997 . S
O97 C95 1.235 . S
C98 O104 1.287 . S
C98 O105 1.255 . S
O99 Fe88 1.976 . S
O99 C106 1.287 . S
O100 Fe89 1.996 . S
O100 C106 1.255 . S
O101 Fe91 1.976 . S
O101 C96 1.287 . S
O102 Fe88 1.996 . S
O102 C96 1.255 . S
C103 O107 1.295 . S
C103 O108 1.235 . S
O104 Fe89 1.976 . S
O104 C98 1.287 . S
O105 Fe91 1.996 . S
O105 C98 1.255 . S
C106 O99 1.287 . S
C106 O100 1.255 . S
O107 Fe89 2.002 . S
O107 C103 1.295 . S
O108 Fe91 1.997 . S
O108 C103 1.235 . S
C109 O92 1.295 . S
C109 O93 1.235 . S
Fe110 O112 1.918 . S
Fe110 O115 1.997 . S
Fe110 O116 2.002 . S
Fe110 O121 1.976 . S
Fe110 O124 1.996 . S
Fe111 O112 1.918 . S
Fe111 O119 1.997 . S
Fe111 O122 1.996 . S
Fe111 O126 1.976 . S
Fe111 O129 2.002 . S
O112 Fe110 1.918 . S
O112 Fe111 1.918 . S
O112 Fe113 1.918 . S
Fe113 O112 1.918 . S
Fe113 O114 2.002 . S
Fe113 O123 1.976 . S
Fe113 O127 1.996 . S
Fe113 O130 1.997 . S
O114 Fe113 2.002 . S
O114 C131 1.295 . S
O115 Fe110 1.997 . S
O115 C131 1.235 . S
O116 Fe110 2.002 . S
O116 C117 1.295 . S
C117 O116 1.295 . S
C117 O119 1.235 . S
C118 O123 1.287 . S
C118 O124 1.255 . S
O119 Fe111 1.997 . S
O119 C117 1.235 . S
C120 O126 1.287 . S
C120 O127 1.255 . S
O121 Fe110 1.976 . S
O121 C128 1.287 . S
O122 Fe111 1.996 . S
O122 C128 1.255 . S
O123 Fe113 1.976 . S
O123 C118 1.287 . S
O124 Fe110 1.996 . S
O124 C118 1.255 . S
C125 O129 1.295 . S
C125 O130 1.235 . S
O126 Fe111 1.976 . S
O126 C120 1.287 . S
O127 Fe113 1.996 . S
O127 C120 1.255 . S
C128 O121 1.287 . S
C128 O122 1.255 . S
O129 Fe111 2.002 . S
O129 C125 1.295 . S
O130 Fe113 1.997 . S
O130 C125 1.235 . S
C131 O114 1.295 . S
C131 O115 1.235 . S
Fe132 O134 1.918 . S
Fe132 O137 1.997 . S
Fe132 O138 2.002 . S
Fe132 O143 1.976 . S
Fe132 O146 1.996 . S
Fe133 O134 1.918 . S
Fe133 O141 1.997 . S
Fe133 O144 1.996 . S
Fe133 O148 1.976 . S
Fe133 O151 2.002 . S
O134 Fe132 1.918 . S
O134 Fe133 1.918 . S
O134 Fe135 1.918 . S
Fe135 O134 1.918 . S
Fe135 O136 2.002 . S
Fe135 O145 1.976 . S
Fe135 O149 1.996 . S
Fe135 O152 1.997 . S
O136 Fe135 2.002 . S
O136 C153 1.295 . S
O137 Fe132 1.997 . S
O137 C153 1.235 . S
O138 Fe132 2.002 . S
O138 C139 1.295 . S
C139 O138 1.295 . S
C139 O141 1.235 . S
C140 O145 1.287 . S
C140 O146 1.255 . S
O141 Fe133 1.997 . S
O141 C139 1.235 . S
C142 O148 1.287 . S
C142 O149 1.255 . S
O143 Fe132 1.976 . S
O143 C150 1.287 . S
O144 Fe133 1.996 . S
O144 C150 1.255 . S
O145 Fe135 1.976 . S
O145 C140 1.287 . S
O146 Fe132 1.996 . S
O146 C140 1.255 . S
C147 O151 1.295 . S
C147 O152 1.235 . S
O148 Fe133 1.976 . S
O148 C142 1.287 . S
O149 Fe135 1.996 . S
O149 C142 1.255 . S
C150 O143 1.287 . S
C150 O144 1.255 . S
O151 Fe133 2.002 . S
O151 C147 1.295 . S
O152 Fe135 1.997 . S
O152 C147 1.235 . S
C153 O136 1.295 . S
C153 O137 1.235 . S
Fe154 O156 1.918 . S
Fe154 O159 1.997 . S
Fe154 O160 2.002 . S
Fe154 O165 1.976 . S
Fe154 O168 1.996 . S
Fe155 O156 1.918 . S
Fe155 O163 1.997 . S
Fe155 O166 1.996 . S
Fe155 O170 1.976 . S
Fe155 O173 2.002 . S
O156 Fe154 1.918 . S
O156 Fe155 1.918 . S
O156 Fe157 1.918 . S
Fe157 O156 1.918 . S
Fe157 O158 2.002 . S
Fe157 O167 1.976 . S
Fe157 O171 1.996 . S
Fe157 O174 1.997 . S
O158 Fe157 2.002 . S
O158 C175 1.295 . S
O159 Fe154 1.997 . S
O159 C175 1.235 . S
O160 Fe154 2.002 . S
O160 C161 1.295 . S
C161 O160 1.295 . S
C161 O163 1.235 . S
C162 O167 1.287 . S
C162 O168 1.255 . S
O163 Fe155 1.997 . S
O163 C161 1.235 . S
C164 O170 1.287 . S
C164 O171 1.255 . S
O165 Fe154 1.976 . S
O165 C172 1.287 . S
O166 Fe155 1.996 . S
O166 C172 1.255 . S
O167 Fe157 1.976 . S
O167 C162 1.287 . S
O168 Fe154 1.996 . S
O168 C162 1.255 . S
C169 O173 1.295 . S
C169 O174 1.235 . S
O170 Fe155 1.976 . S
O170 C164 1.287 . S
O171 Fe157 1.996 . S
O171 C164 1.255 . S
C172 O165 1.287 . S
C172 O166 1.255 . S
O173 Fe155 2.002 . S
O173 C169 1.295 . S
O174 Fe157 1.997 . S
O174 C169 1.235 . S
C175 O158 1.295 . S
C175 O159 1.235 . S
Fe176 O178 1.918 . S
Fe176 O181 1.997 . S
Fe176 O182 2.002 . S
Fe176 O187 1.976 . S
Fe176 O190 1.996 . S
Fe177 O178 1.918 . S
Fe177 O185 1.997 . S
Fe177 O188 1.996 . S
Fe177 O192 1.976 . S
Fe177 O195 2.002 . S
O178 Fe176 1.918 . S
O178 Fe177 1.918 . S
O178 Fe179 1.918 . S
Fe179 O178 1.918 . S
Fe179 O180 2.002 . S
Fe179 O189 1.976 . S
Fe179 O193 1.996 . S
Fe179 O196 1.997 . S
O180 Fe179 2.002 . S
O180 C197 1.295 . S
O181 Fe176 1.997 . S
O181 C197 1.235 . S
O182 Fe176 2.002 . S
O182 C183 1.295 . S
C183 O182 1.295 . S
C183 O185 1.235 . S
C184 O189 1.287 . S
C184 O190 1.255 . S
O185 Fe177 1.997 . S
O185 C183 1.235 . S
C186 O192 1.287 . S
C186 O193 1.255 . S
O187 Fe176 1.976 . S
O187 C194 1.287 . S
O188 Fe177 1.996 . S
O188 C194 1.255 . S
O189 Fe179 1.976 . S
O189 C184 1.287 . S
O190 Fe176 1.996 . S
O190 C184 1.255 . S
C191 O195 1.295 . S
C191 O196 1.235 . S
O192 Fe177 1.976 . S
O192 C186 1.287 . S
O193 Fe179 1.996 . S
O193 C186 1.255 . S
C194 O187 1.287 . S
C194 O188 1.255 . S
O195 Fe177 2.002 . S
O195 C191 1.295 . S
O196 Fe179 1.997 . S
O196 C191 1.235 . S
C197 O180 1.295 . S
C197 O181 1.235 . S
Fe198 O200 1.918 . S
Fe198 O203 1.997 . S
Fe198 O204 2.002 . S
Fe198 O209 1.976 . S
Fe198 O212 1.996 . S
Fe199 O200 1.918 . S
Fe199 O207 1.997 . S
Fe199 O210 1.996 . S
Fe199 O214 1.976 . S
Fe199 O217 2.002 . S
O200 Fe198 1.918 . S
O200 Fe199 1.918 . S
O200 Fe201 1.918 . S
Fe201 O200 1.918 . S
Fe201 O202 2.002 . S
Fe201 O211 1.976 . S
Fe201 O215 1.996 . S
Fe201 O218 1.997 . S
O202 Fe201 2.002 . S
O202 C219 1.295 . S
O203 Fe198 1.997 . S
O203 C219 1.235 . S
O204 Fe198 2.002 . S
O204 C205 1.295 . S
C205 O204 1.295 . S
C205 O207 1.235 . S
C206 O211 1.287 . S
C206 O212 1.255 . S
O207 Fe199 1.997 . S
O207 C205 1.235 . S
C208 O214 1.287 . S
C208 O215 1.255 . S
O209 Fe198 1.976 . S
O209 C216 1.287 . S
O210 Fe199 1.996 . S
O210 C216 1.255 . S
O211 Fe201 1.976 . S
O211 C206 1.287 . S
O212 Fe198 1.996 . S
O212 C206 1.255 . S
C213 O217 1.295 . S
C213 O218 1.235 . S
O214 Fe199 1.976 . S
O214 C208 1.287 . S
O215 Fe201 1.996 . S
O215 C208 1.255 . S
C216 O209 1.287 . S
C216 O210 1.255 . S
O217 Fe199 2.002 . S
O217 C213 1.295 . S
O218 Fe201 1.997 . S
O218 C213 1.235 . S
C219 O202 1.295 . S
C219 O203 1.235 . S
Fe220 O222 1.918 . S
Fe220 O225 1.997 . S
Fe220 O226 2.002 . S
Fe220 O231 1.976 . S
Fe220 O234 1.996 . S
Fe221 O222 1.918 . S
Fe221 O229 1.997 . S
Fe221 O232 1.996 . S
Fe221 O236 1.976 . S
Fe221 O239 2.002 . S
O222 Fe220 1.918 . S
O222 Fe221 1.918 . S
O222 Fe223 1.918 . S
Fe223 O222 1.918 . S
Fe223 O224 2.002 . S
Fe223 O233 1.976 . S
Fe223 O237 1.996 . S
Fe223 O240 1.997 . S
O224 Fe223 2.002 . S
O224 C241 1.295 . S
O225 Fe220 1.997 . S
O225 C241 1.235 . S
O226 Fe220 2.002 . S
O226 C227 1.295 . S
C227 O226 1.295 . S
C227 O229 1.235 . S
C228 O233 1.287 . S
C228 O234 1.255 . S
O229 Fe221 1.997 . S
O229 C227 1.235 . S
C230 O236 1.287 . S
C230 O237 1.255 . S
O231 Fe220 1.976 . S
O231 C238 1.287 . S
O232 Fe221 1.996 . S
O232 C238 1.255 . S
O233 Fe223 1.976 . S
O233 C228 1.287 . S
O234 Fe220 1.996 . S
O234 C228 1.255 . S
C235 O239 1.295 . S
C235 O240 1.235 . S
O236 Fe221 1.976 . S
O236 C230 1.287 . S
O237 Fe223 1.996 . S
O237 C230 1.255 . S
C238 O231 1.287 . S
C238 O232 1.255 . S
O239 Fe221 2.002 . S
O239 C235 1.295 . S
O240 Fe223 1.997 . S
O240 C235 1.235 . S
C241 O224 1.295 . S
C241 O225 1.235 . S
Fe242 O244 1.918 . S
Fe242 O247 1.997 . S
Fe242 O248 2.002 . S
Fe242 O253 1.976 . S
Fe242 O256 1.996 . S
Fe243 O244 1.918 . S
Fe243 O251 1.997 . S
Fe243 O254 1.996 . S
Fe243 O258 1.976 . S
Fe243 O261 2.002 . S
O244 Fe242 1.918 . S
O244 Fe243 1.918 . S
O244 Fe245 1.918 . S
Fe245 O244 1.918 . S
Fe245 O246 2.002 . S
Fe245 O255 1.976 . S
Fe245 O259 1.996 . S
Fe245 O262 1.997 . S
O246 Fe245 2.002 . S
O246 C263 1.295 . S
O247 Fe242 1.997 . S
O247 C263 1.235 . S
O248 Fe242 2.002 . S
O248 C249 1.295 . S
C249 O248 1.295 . S
C249 O251 1.235 . S
C250 O255 1.287 . S
C250 O256 1.255 . S
O251 Fe243 1.997 . S
O251 C249 1.235 . S
C252 O258 1.287 . S
C252 O259 1.255 . S
O253 Fe242 1.976 . S
O253 C260 1.287 . S
O254 Fe243 1.996 . S
O254 C260 1.255 . S
O255 Fe245 1.976 . S
O255 C250 1.287 . S
O256 Fe242 1.996 . S
O256 C250 1.255 . S
C257 O261 1.295 . S
C257 O262 1.235 . S
O258 Fe243 1.976 . S
O258 C252 1.287 . S
O259 Fe245 1.996 . S
O259 C252 1.255 . S
C260 O253 1.287 . S
C260 O254 1.255 . S
O261 Fe243 2.002 . S
O261 C257 1.295 . S
O262 Fe245 1.997 . S
O262 C257 1.235 . S
C263 O246 1.295 . S
C263 O247 1.235 . S
Fe264 O266 1.918 . S
Fe264 O269 1.997 . S
Fe264 O270 2.002 . S
Fe264 O275 1.976 . S
Fe264 O278 1.996 . S
Fe265 O266 1.918 . S
Fe265 O273 1.997 . S
Fe265 O276 1.996 . S
Fe265 O280 1.976 . S
Fe265 O283 2.002 . S
O266 Fe264 1.918 . S
O266 Fe265 1.918 . S
O266 Fe267 1.918 . S
Fe267 O266 1.918 . S
Fe267 O268 2.002 . S
Fe267 O277 1.976 . S
Fe267 O281 1.996 . S
Fe267 O284 1.997 . S
O268 Fe267 2.002 . S
O268 C285 1.295 . S
O269 Fe264 1.997 . S
O269 C285 1.235 . S
O270 Fe264 2.002 . S
O270 C271 1.295 . S
C271 O270 1.295 . S
C271 O273 1.235 . S
C272 O277 1.287 . S
C272 O278 1.255 . S
O273 Fe265 1.997 . S
O273 C271 1.235 . S
C274 O280 1.287 . S
C274 O281 1.255 . S
O275 Fe264 1.976 . S
O275 C282 1.287 . S
O276 Fe265 1.996 . S
O276 C282 1.255 . S
O277 Fe267 1.976 . S
O277 C272 1.287 . S
O278 Fe264 1.996 . S
O278 C272 1.255 . S
C279 O283 1.295 . S
C279 O284 1.235 . S
O280 Fe265 1.976 . S
O280 C274 1.287 . S
O281 Fe267 1.996 . S
O281 C274 1.255 . S
C282 O275 1.287 . S
C282 O276 1.255 . S
O283 Fe265 2.002 . S
O283 C279 1.295 . S
O284 Fe267 1.997 . S
O284 C279 1.235 . S
C285 O268 1.295 . S
C285 O269 1.235 . S
Fe286 O288 1.918 . S
Fe286 O291 1.997 . S
Fe286 O292 2.002 . S
Fe286 O297 1.976 . S
Fe286 O300 1.996 . S
Fe287 O288 1.918 . S
Fe287 O295 1.997 . S
Fe287 O298 1.996 . S
Fe287 O302 1.976 . S
Fe287 O305 2.002 . S
O288 Fe286 1.918 . S
O288 Fe287 1.918 . S
O288 Fe289 1.918 . S
Fe289 O288 1.918 . S
Fe289 O290 2.002 . S
Fe289 O299 1.976 . S
Fe289 O303 1.996 . S
Fe289 O306 1.997 . S
O290 Fe289 2.002 . S
O290 C307 1.295 . S
O291 Fe286 1.997 . S
O291 C307 1.235 . S
O292 Fe286 2.002 . S
O292 C293 1.295 . S
C293 O292 1.295 . S
C293 O295 1.235 . S
C294 O299 1.287 . S
C294 O300 1.255 . S
O295 Fe287 1.997 . S
O295 C293 1.235 . S
C296 O302 1.287 . S
C296 O303 1.255 . S
O297 Fe286 1.976 . S
O297 C304 1.287 . S
O298 Fe287 1.996 . S
O298 C304 1.255 . S
O299 Fe289 1.976 . S
O299 C294 1.287 . S
O300 Fe286 1.996 . S
O300 C294 1.255 . S
C301 O305 1.295 . S
C301 O306 1.235 . S
O302 Fe287 1.976 . S
O302 C296 1.287 . S
O303 Fe289 1.996 . S
O303 C296 1.255 . S
C304 O297 1.287 . S
C304 O298 1.255 . S
O305 Fe287 2.002 . S
O305 C301 1.295 . S
O306 Fe289 1.997 . S
O306 C301 1.235 . S
C307 O290 1.295 . S
C307 O291 1.235 . S
Fe308 O310 1.918 . S
Fe308 O313 1.997 . S
Fe308 O314 2.002 . S
Fe308 O319 1.976 . S
Fe308 O322 1.996 . S
Fe309 O310 1.918 . S
Fe309 O317 1.997 . S
Fe309 O320 1.996 . S
Fe309 O324 1.976 . S
Fe309 O327 2.002 . S
O310 Fe308 1.918 . S
O310 Fe309 1.918 . S
O310 Fe311 1.918 . S
Fe311 O310 1.918 . S
Fe311 O312 2.002 . S
Fe311 O321 1.976 . S
Fe311 O325 1.996 . S
Fe311 O328 1.997 . S
O312 Fe311 2.002 . S
O312 C329 1.295 . S
O313 Fe308 1.997 . S
O313 C329 1.235 . S
O314 Fe308 2.002 . S
O314 C315 1.295 . S
C315 O314 1.295 . S
C315 O317 1.235 . S
C316 O321 1.287 . S
C316 O322 1.255 . S
O317 Fe309 1.997 . S
O317 C315 1.235 . S
C318 O324 1.287 . S
C318 O325 1.255 . S
O319 Fe308 1.976 . S
O319 C326 1.287 . S
O320 Fe309 1.996 . S
O320 C326 1.255 . S
O321 Fe311 1.976 . S
O321 C316 1.287 . S
O322 Fe308 1.996 . S
O322 C316 1.255 . S
C323 O327 1.295 . S
C323 O328 1.235 . S
O324 Fe309 1.976 . S
O324 C318 1.287 . S
O325 Fe311 1.996 . S
O325 C318 1.255 . S
C326 O319 1.287 . S
C326 O320 1.255 . S
O327 Fe309 2.002 . S
O327 C323 1.295 . S
O328 Fe311 1.997 . S
O328 C323 1.235 . S
C329 O312 1.295 . S
C329 O313 1.235 . S
Fe330 O332 1.918 . S
Fe330 O335 1.997 . S
Fe330 O336 2.002 . S
Fe330 O341 1.976 . S
Fe330 O344 1.996 . S
Fe331 O332 1.918 . S
Fe331 O339 1.997 . S
Fe331 O342 1.996 . S
Fe331 O346 1.976 . S
Fe331 O349 2.002 . S
O332 Fe330 1.918 . S
O332 Fe331 1.918 . S
O332 Fe333 1.918 . S
Fe333 O332 1.918 . S
Fe333 O334 2.002 . S
Fe333 O343 1.976 . S
Fe333 O347 1.996 . S
Fe333 O350 1.997 . S
O334 Fe333 2.002 . S
O334 C351 1.295 . S
O335 Fe330 1.997 . S
O335 C351 1.235 . S
O336 Fe330 2.002 . S
O336 C337 1.295 . S
C337 O336 1.295 . S
C337 O339 1.235 . S
C338 O343 1.287 . S
C338 O344 1.255 . S
O339 Fe331 1.997 . S
O339 C337 1.235 . S
C340 O346 1.287 . S
C340 O347 1.255 . S
O341 Fe330 1.976 . S
O341 C348 1.287 . S
O342 Fe331 1.996 . S
O342 C348 1.255 . S
O343 Fe333 1.976 . S
O343 C338 1.287 . S
O344 Fe330 1.996 . S
O344 C338 1.255 . S
C345 O349 1.295 . S
C345 O350 1.235 . S
O346 Fe331 1.976 . S
O346 C340 1.287 . S
O347 Fe333 1.996 . S
O347 C340 1.255 . S
C348 O341 1.287 . S
C348 O342 1.255 . S
O349 Fe331 2.002 . S
O349 C345 1.295 . S
O350 Fe333 1.997 . S
O350 C345 1.235 . S
C351 O334 1.295 . S
C351 O335 1.235 . S
C352 C353 1.369 . S
C352 C354 1.419 . S
C352 H356 0.930 . S
C353 C352 1.369 . S
C353 C362 1.429 . S
C354 C352 1.419 . S
C354 C355 1.363 . S
C354 H357 0.929 . S
C355 C354 1.363 . S
C355 C361 1.428 . S
H356 C352 0.930 . S
H357 C354 0.929 . S
S358 N359 1.613 . S
S358 N360 1.610 . S
N359 S358 1.613 . S
N359 C362 1.350 . S
N360 S358 1.610 . S
N360 C361 1.351 . S
C361 C355 1.428 . S
C361 N360 1.351 . S
C361 C362 1.434 . S
C362 C353 1.429 . S
C362 N359 1.350 . S
C362 C361 1.434 . S
C363 C364 1.369 . S
C363 C365 1.419 . S
C363 H367 0.930 . S
C364 C363 1.369 . S
C364 C373 1.429 . S
C365 C363 1.419 . S
C365 C366 1.363 . S
C365 H368 0.929 . S
C366 C365 1.363 . S
C366 C372 1.428 . S
H367 C363 0.930 . S
H368 C365 0.929 . S
S369 N370 1.613 . S
S369 N371 1.610 . S
N370 S369 1.613 . S
N370 C373 1.350 . S
N371 S369 1.610 . S
N371 C372 1.351 . S
C372 C366 1.428 . S
C372 N371 1.351 . S
C372 C373 1.434 . S
C373 C364 1.429 . S
C373 N370 1.350 . S
C373 C372 1.434 . S
C374 C375 1.369 . S
C374 C376 1.419 . S
C374 H378 0.930 . S
C375 C374 1.369 . S
C375 C384 1.429 . S
C376 C374 1.419 . S
C376 C377 1.363 . S
C376 H379 0.929 . S
C377 C376 1.363 . S
C377 C383 1.428 . S
H378 C374 0.930 . S
H379 C376 0.929 . S
S380 N381 1.613 . S
S380 N382 1.610 . S
N381 S380 1.613 . S
N381 C384 1.350 . S
N382 S380 1.610 . S
N382 C383 1.351 . S
C383 C377 1.428 . S
C383 N382 1.351 . S
C383 C384 1.434 . S
C384 C375 1.429 . S
C384 N381 1.350 . S
C384 C383 1.434 . S
C385 C386 1.369 . S
C385 C387 1.419 . S
C385 H389 0.930 . S
C386 C385 1.369 . S
C386 C395 1.429 . S
C387 C385 1.419 . S
C387 C388 1.363 . S
C387 H390 0.929 . S
C388 C387 1.363 . S
C388 C394 1.428 . S
H389 C385 0.930 . S
H390 C387 0.929 . S
S391 N392 1.613 . S
S391 N393 1.610 . S
N392 S391 1.613 . S
N392 C395 1.350 . S
N393 S391 1.610 . S
N393 C394 1.351 . S
C394 C388 1.428 . S
C394 N393 1.351 . S
C394 C395 1.434 . S
C395 C386 1.429 . S
C395 N392 1.350 . S
C395 C394 1.434 . S
C396 C397 1.369 . S
C396 C398 1.419 . S
C396 H400 0.930 . S
C397 C396 1.369 . S
C397 C406 1.429 . S
C398 C396 1.419 . S
C398 C399 1.363 . S
C398 H401 0.929 . S
C399 C398 1.363 . S
C399 C405 1.428 . S
H400 C396 0.930 . S
H401 C398 0.929 . S
S402 N403 1.613 . S
S402 N404 1.610 . S
N403 S402 1.613 . S
N403 C406 1.350 . S
N404 S402 1.610 . S
N404 C405 1.351 . S
C405 C399 1.428 . S
C405 N404 1.351 . S
C405 C406 1.434 . S
C406 C397 1.429 . S
C406 N403 1.350 . S
C406 C405 1.434 . S
C407 C408 1.369 . S
C407 C409 1.419 . S
C407 H411 0.930 . S
C408 C407 1.369 . S
C408 C417 1.429 . S
C409 C407 1.419 . S
C409 C410 1.363 . S
C409 H412 0.929 . S
C410 C409 1.363 . S
C410 C416 1.428 . S
H411 C407 0.930 . S
H412 C409 0.929 . S
S413 N414 1.613 . S
S413 N415 1.610 . S
N414 S413 1.613 . S
N414 C417 1.350 . S
N415 S413 1.610 . S
N415 C416 1.351 . S
C416 C410 1.428 . S
C416 N415 1.351 . S
C416 C417 1.434 . S
C417 C408 1.429 . S
C417 N414 1.350 . S
C417 C416 1.434 . S
C418 C419 1.369 . S
C418 C420 1.419 . S
C418 H422 0.930 . S
C419 C418 1.369 . S
C419 C428 1.429 . S
C420 C418 1.419 . S
C420 C421 1.363 . S
C420 H423 0.929 . S
C421 C420 1.363 . S
C421 C427 1.428 . S
H422 C418 0.930 . S
H423 C420 0.929 . S
S424 N425 1.613 . S
S424 N426 1.610 . S
N425 S424 1.613 . S
N425 C428 1.350 . S
N426 S424 1.610 . S
N426 C427 1.351 . S
C427 C421 1.428 . S
C427 N426 1.351 . S
C427 C428 1.434 . S
C428 C419 1.429 . S
C428 N425 1.350 . S
C428 C427 1.434 . S
C429 C430 1.369 . S
C429 C431 1.419 . S
C429 H433 0.930 . S
C430 C429 1.369 . S
C430 C439 1.429 . S
C431 C429 1.419 . S
C431 C432 1.363 . S
C431 H434 0.929 . S
C432 C431 1.363 . S
C432 C438 1.428 . S
H433 C429 0.930 . S
H434 C431 0.929 . S
S435 N436 1.613 . S
S435 N437 1.610 . S
N436 S435 1.613 . S
N436 C439 1.350 . S
N437 S435 1.610 . S
N437 C438 1.351 . S
C438 C432 1.428 . S
C438 N437 1.351 . S
C438 C439 1.434 . S
C439 C430 1.429 . S
C439 N436 1.350 . S
C439 C438 1.434 . S
C440 C441 1.369 . S
C440 C442 1.419 . S
C440 H444 0.930 1_545 S
C441 C440 1.369 . S
C441 C450 1.429 . S
C442 C440 1.419 . S
C442 C443 1.363 . S
C442 H445 0.929 . S
C443 C442 1.363 . S
C443 C449 1.428 . S
H444 C440 0.930 1_565 S
H445 C442 0.929 . S
S446 N447 1.613 . S
S446 N448 1.610 . S
N447 S446 1.613 . S
N447 C450 1.350 . S
N448 S446 1.610 . S
N448 C449 1.351 . S
C449 C443 1.428 . S
C449 N448 1.351 . S
C449 C450 1.434 . S
C450 C441 1.429 . S
C450 N447 1.350 . S
C450 C449 1.434 . S
C451 C452 1.369 . S
C451 C453 1.419 . S
C451 H455 0.930 . S
C452 C451 1.369 . S
C452 C461 1.429 . S
C453 C451 1.419 . S
C453 C454 1.363 . S
C453 H456 0.929 . S
C454 C453 1.363 . S
C454 C460 1.428 . S
H455 C451 0.930 . S
H456 C453 0.929 . S
S457 N458 1.613 . S
S457 N459 1.610 . S
N458 S457 1.613 . S
N458 C461 1.350 . S
N459 S457 1.610 . S
N459 C460 1.351 . S
C460 C454 1.428 . S
C460 N459 1.351 . S
C460 C461 1.434 . S
C461 C452 1.429 . S
C461 N458 1.350 . S
C461 C460 1.434 . S
C462 C463 1.369 . S
C462 C464 1.419 . S
C462 H466 0.930 . S
C463 C462 1.369 . S
C463 C472 1.429 . S
C464 C462 1.419 . S
C464 C465 1.363 . S
C464 H467 0.929 . S
C465 C464 1.363 . S
C465 C471 1.428 . S
H466 C462 0.930 . S
H467 C464 0.929 . S
S468 N469 1.613 . S
S468 N470 1.610 . S
N469 S468 1.613 . S
N469 C472 1.350 . S
N470 S468 1.610 . S
N470 C471 1.351 . S
C471 C465 1.428 . S
C471 N470 1.351 . S
C471 C472 1.434 . S
C472 C463 1.429 . S
C472 N469 1.350 . S
C472 C471 1.434 . S
C473 C474 1.369 . S
C473 C475 1.419 . S
C473 H477 0.910 1_655 S
C474 C473 1.369 . S
C474 C483 1.429 . S
C475 C473 1.419 . S
C475 C476 1.363 . S
C475 H478 0.929 . S
C476 C475 1.363 . S
C476 C482 1.428 . S
H477 C473 0.910 1_455 S
H478 C475 0.929 . S
S479 N480 1.613 . S
S479 N481 1.610 . S
N480 S479 1.613 . S
N480 C483 1.350 . S
N481 S479 1.610 . S
N481 C482 1.351 . S
C482 C476 1.428 . S
C482 N481 1.351 . S
C482 C483 1.434 . S
C483 C474 1.429 . S
C483 N480 1.350 . S
C483 C482 1.434 . S
C484 C485 1.369 . S
C484 C486 1.419 . S
C484 H488 0.930 . S
C485 C484 1.369 . S
C485 C494 1.429 . S
C486 C484 1.419 . S
C486 C487 1.363 . S
C486 H489 0.929 . S
C487 C486 1.363 . S
C487 C493 1.428 . S
H488 C484 0.930 . S
H489 C486 0.929 . S
S490 N491 1.613 1_565 S
S490 N492 1.610 . S
N491 S490 1.613 1_545 S
N491 C494 1.350 1_545 S
N492 S490 1.610 . S
N492 C493 1.351 . S
C493 C487 1.428 . S
C493 N492 1.351 . S
C493 C494 1.434 . S
C494 C485 1.429 . S
C494 N491 1.350 1_565 S
C494 C493 1.434 . S
C495 C496 1.369 . S
C495 C497 1.419 . S
C495 H499 0.930 . S
C496 C495 1.369 . S
C496 C505 1.429 . S
C497 C495 1.419 . S
C497 C498 1.363 . S
C497 H500 0.929 . S
C498 C497 1.363 . S
C498 C504 1.428 . S
H499 C495 0.930 . S
H500 C497 0.929 . S
S501 N502 1.613 . S
S501 N503 1.610 1_655 S
N502 S501 1.613 . S
N502 C505 1.350 . S
N503 S501 1.610 1_455 S
N503 C504 1.351 1_455 S
C504 C498 1.428 . S
C504 N503 1.351 1_655 S
C504 C505 1.434 . S
C505 C496 1.429 . S
C505 N502 1.350 . S
C505 C504 1.434 . S
C506 C507 1.369 . S
C506 C508 1.419 . S
C506 H510 0.930 . S
C507 C506 1.369 . S
C507 C516 1.429 . S
C508 C506 1.419 . S
C508 C509 1.363 . S
C508 H511 0.929 . S
C509 C508 1.363 . S
C509 C515 1.428 . S
H510 C506 0.930 . S
H511 C508 0.929 . S
S512 N513 1.613 . S
S512 N514 1.610 . S
N513 S512 1.613 . S
N513 C516 1.350 . S
N514 S512 1.610 . S
N514 C515 1.351 . S
C515 C509 1.428 . S
C515 N514 1.351 . S
C515 C516 1.434 . S
C516 C507 1.429 . S
C516 N513 1.350 . S
C516 C515 1.434 . S
C517 C518 1.369 . S
C517 C519 1.419 . S
C517 H521 0.930 . S
C518 C517 1.369 . S
C518 C527 1.429 . S
C519 C517 1.419 . S
C519 C520 1.363 . S
C519 H522 0.929 1_455 S
C520 C519 1.363 . S
C520 C526 1.428 . S
H521 C517 0.930 . S
H522 C519 0.929 1_655 S
S523 N524 1.613 . S
S523 N525 1.610 . S
N524 S523 1.613 . S
N524 C527 1.350 . S
N525 S523 1.610 . S
N525 C526 1.351 . S
C526 C520 1.428 . S
C526 N525 1.351 . S
C526 C527 1.434 . S
C527 C518 1.429 . S
C527 N524 1.350 . S
C527 C526 1.434 . S
C528 C529 1.369 . S
C528 C530 1.419 . S
C528 H532 0.930 . S
C529 C528 1.369 . S
C529 C538 1.429 . S
C530 C528 1.419 . S
C530 C531 1.363 . S
C530 H533 0.929 . S
C531 C530 1.363 . S
C531 C537 1.428 . S
H532 C528 0.930 . S
H533 C530 0.929 . S
S534 N535 1.613 . S
S534 N536 1.610 . S
N535 S534 1.613 . S
N535 C538 1.350 . S
N536 S534 1.610 . S
N536 C537 1.351 . S
C537 C531 1.428 . S
C537 N536 1.351 . S
C537 C538 1.434 . S
C538 C529 1.429 . S
C538 N535 1.350 . S
C538 C537 1.434 . S
C539 C540 1.369 . S
C539 C541 1.419 . S
C539 H543 0.930 . S
C540 C539 1.369 . S
C540 C549 1.429 . S
C541 C539 1.419 . S
C541 C542 1.363 . S
C541 H544 0.929 . S
C542 C541 1.363 . S
C542 C548 1.428 . S
H543 C539 0.930 . S
H544 C541 0.929 . S
S545 N546 1.613 . S
S545 N547 1.610 . S
N546 S545 1.613 . S
N546 C549 1.350 . S
N547 S545 1.610 . S
N547 C548 1.351 . S
C548 C542 1.428 . S
C548 N547 1.351 . S
C548 C549 1.434 . S
C549 C540 1.429 . S
C549 N546 1.350 . S
C549 C548 1.434 . S
C550 C551 1.369 . S
C550 C552 1.419 . S
C550 H554 0.930 . S
C551 C550 1.369 . S
C551 C560 1.429 . S
C552 C550 1.419 . S
C552 C553 1.363 . S
C552 H555 0.929 . S
C553 C552 1.363 . S
C553 C559 1.428 . S
H554 C550 0.930 . S
H555 C552 0.929 . S
S556 N557 1.613 . S
S556 N558 1.610 . S
N557 S556 1.613 . S
N557 C560 1.350 . S
N558 S556 1.610 . S
N558 C559 1.351 . S
C559 C553 1.428 . S
C559 N558 1.351 . S
C559 C560 1.434 . S
C560 C551 1.429 . S
C560 N557 1.350 . S
C560 C559 1.434 . S
C561 C562 1.369 . S
C561 C563 1.419 . S
C561 H565 0.930 . S
C562 C561 1.369 . S
C562 C571 1.429 . S
C563 C561 1.419 . S
C563 C564 1.363 . S
C563 H566 0.929 . S
C564 C563 1.363 . S
C564 C570 1.428 . S
H565 C561 0.930 . S
H566 C563 0.929 . S
S567 N568 1.613 . S
S567 N569 1.610 . S
N568 S567 1.613 . S
N568 C571 1.350 . S
N569 S567 1.610 . S
N569 C570 1.351 . S
C570 C564 1.428 . S
C570 N569 1.351 . S
C570 C571 1.434 . S
C571 C562 1.429 . S
C571 N568 1.350 . S
C571 C570 1.434 . S
C572 C573 1.369 . S
C572 C574 1.419 1_544 S
C572 H576 0.930 . S
C573 C572 1.369 . S
C573 C582 1.429 . S
C574 C572 1.419 1_566 S
C574 C575 1.363 . S
C574 H577 0.929 . S
C575 C574 1.363 . S
C575 C581 1.428 . S
H576 C572 0.930 . S
H577 C574 0.929 . S
S578 N579 1.613 1_565 S
S578 N580 1.610 1_554 S
N579 S578 1.613 1_545 S
N579 C582 1.350 . S
N580 S578 1.610 1_556 S
N580 C581 1.351 . S
C581 C575 1.428 . S
C581 N580 1.351 . S
C581 C582 1.434 1_566 S
C582 C573 1.429 . S
C582 N579 1.350 . S
C582 C581 1.434 1_544 S
C583 C584 1.369 1_556 S
C583 C585 1.419 . S
C583 H587 0.930 . S
C584 C583 1.369 1_554 S
C584 C593 1.429 1_655 S
C585 C583 1.419 . S
C585 C586 1.363 1_655 S
C585 H588 0.929 . S
C586 C585 1.363 1_455 S
C586 C592 1.428 1_556 S
H587 C583 0.930 . S
H588 C585 0.929 . S
S589 N590 1.613 . S
S589 N591 1.610 . S
N590 S589 1.613 . S
N590 C593 1.350 . S
N591 S589 1.610 . S
N591 C592 1.351 . S
C592 C586 1.428 1_554 S
C592 N591 1.351 . S
C592 C593 1.434 . S
C593 C584 1.429 1_455 S
C593 N590 1.350 . S
C593 C592 1.434 . S
C594 C595 1.369 1_554 S
C594 C596 1.419 . S
C594 H598 0.930 . S
C595 C594 1.369 1_556 S
C595 C604 1.429 1_545 S
C596 C594 1.419 . S
C596 C597 1.363 1_545 S
C596 H599 0.929 . S
C597 C596 1.363 1_565 S
C597 C603 1.428 1_554 S
H598 C594 0.930 . S
H599 C596 0.929 . S
S600 N601 1.613 . S
S600 N602 1.610 . S
N601 S600 1.613 . S
N601 C604 1.350 . S
N602 S600 1.610 . S
N602 C603 1.351 . S
C603 C597 1.428 1_556 S
C603 N602 1.351 . S
C603 C604 1.434 . S
C604 C595 1.429 1_565 S
C604 N601 1.350 . S
C604 C603 1.434 . S
C605 C606 1.369 1_554 S
C605 C607 1.419 . S
C605 H609 0.930 . S
C606 C605 1.369 1_556 S
C606 C615 1.429 1_655 S
C607 C605 1.419 . S
C607 C608 1.363 1_655 S
C607 H610 0.929 . S
C608 C607 1.363 1_455 S
C608 C614 1.428 1_554 S
H609 C605 0.930 . S
H610 C607 0.929 . S
S611 N612 1.613 . S
S611 N613 1.610 . S
N612 S611 1.613 . S
N612 C615 1.350 . S
N613 S611 1.610 . S
N613 C614 1.351 . S
C614 C608 1.428 1_556 S
C614 N613 1.351 . S
C614 C615 1.434 . S
C615 C606 1.429 1_455 S
C615 N612 1.350 . S
C615 C614 1.434 . S
C616 C617 1.369 . S
C616 C618 1.419 . S
C616 H620 0.930 . S
C617 C616 1.369 . S
C617 C626 1.429 . S
C618 C616 1.419 . S
C618 C619 1.363 . S
C618 H621 0.929 1_554 S
C619 C618 1.363 . S
C619 C625 1.428 . S
H620 C616 0.930 . S
H621 C618 0.929 1_556 S
S622 N623 1.613 . S
S622 N624 1.610 . S
N623 S622 1.613 . S
N623 C626 1.350 . S
N624 S622 1.610 . S
N624 C625 1.351 . S
C625 C619 1.428 . S
C625 N624 1.351 . S
C625 C626 1.434 . S
C626 C617 1.429 . S
C626 N623 1.350 . S
C626 C625 1.434 . S
C627 C628 1.369 . S
C627 C629 1.419 . S
C627 H631 0.930 . S
C628 C627 1.369 . S
C628 C637 1.429 . S
C629 C627 1.419 . S
C629 C630 1.363 . S
C629 H632 0.929 . S
C630 C629 1.363 . S
C630 C636 1.428 . S
H631 C627 0.930 . S
H632 C629 0.929 . S
S633 N634 1.613 1_556 S
S633 N635 1.610 . S
N634 S633 1.613 1_554 S
N634 C637 1.350 1_554 S
N635 S633 1.610 . S
N635 C636 1.351 . S
C636 C630 1.428 . S
C636 N635 1.351 . S
C636 C637 1.434 . S
C637 C628 1.429 . S
C637 N634 1.350 1_556 S
C637 C636 1.434 . S
C638 C639 1.369 . S
C638 C640 1.419 . S
C638 H642 0.930 . S
C639 C638 1.369 . S
C639 C648 1.429 . S
C640 C638 1.419 . S
C640 C641 1.363 . S
C640 H643 0.929 . S
C641 C640 1.363 . S
C641 C647 1.428 . S
H642 C638 0.930 . S
H643 C640 0.929 . S
S644 N645 1.613 1_554 S
S644 N646 1.610 . S
N645 S644 1.613 1_556 S
N645 C648 1.350 1_556 S
N646 S644 1.610 . S
N646 C647 1.351 . S
C647 C641 1.428 . S
C647 N646 1.351 . S
C647 C648 1.434 . S
C648 C639 1.429 . S
C648 N645 1.350 1_554 S
C648 C647 1.434 . S
C649 C650 1.369 . S
C649 C651 1.419 . S
C649 H653 0.930 . S
C650 C649 1.369 . S
C650 C659 1.429 . S
C651 C649 1.419 . S
C651 C652 1.363 . S
C651 H654 0.929 . S
C652 C651 1.363 . S
C652 C658 1.428 . S
H653 C649 0.930 . S
H654 C651 0.929 . S
S655 N656 1.613 1_556 S
S655 N657 1.610 . S
N656 S655 1.613 1_554 S
N656 C659 1.350 1_554 S
N657 S655 1.610 . S
N657 C658 1.351 . S
C658 C652 1.428 . S
C658 N657 1.351 . S
C658 C659 1.434 . S
C659 C650 1.429 . S
C659 N656 1.350 1_556 S
C659 C658 1.434 . S
C660 C661 1.369 . S
C660 C662 1.419 . S
C660 H664 0.930 . S
C661 C660 1.369 . S
C661 C670 1.429 . S
C662 C660 1.419 . S
C662 C663 1.363 . S
C662 H665 0.929 1_556 S
C663 C662 1.363 . S
C663 C669 1.428 . S
H664 C660 0.930 . S
H665 C662 0.929 1_554 S
S666 N667 1.613 . S
S666 N668 1.610 . S
N667 S666 1.613 . S
N667 C670 1.350 . S
N668 S666 1.610 . S
N668 C669 1.351 . S
C669 C663 1.428 . S
C669 N668 1.351 . S
C669 C670 1.434 . S
C670 C661 1.429 . S
C670 N667 1.350 . S
C670 C669 1.434 . S
C671 C672 1.369 . S
C671 C673 1.419 . S
C671 H675 0.930 . S
C672 C671 1.369 . S
C672 C681 1.429 . S
C673 C671 1.419 . S
C673 C674 1.363 . S
C673 H676 0.929 . S
C674 C673 1.363 . S
C674 C680 1.428 . S
H675 C671 0.930 . S
H676 C673 0.929 . S
S677 N678 1.613 1_556 S
S677 N679 1.610 . S
N678 S677 1.613 1_554 S
N678 C681 1.350 . S
N679 S677 1.610 . S
N679 C680 1.351 1_556 S
C680 C674 1.428 . S
C680 N679 1.351 1_554 S
C680 C681 1.434 . S
C681 C672 1.429 . S
C681 N678 1.350 . S
C681 C680 1.434 . S
C682 C683 1.369 . S
C682 C684 1.419 . S
C682 H686 0.930 . S
C683 C682 1.369 . S
C683 C692 1.429 . S
C684 C682 1.419 . S
C684 C685 1.363 . S
C684 H687 0.929 . S
C685 C684 1.363 . S
C685 C691 1.428 . S
H686 C682 0.930 . S
H687 C684 0.929 . S
S688 N689 1.613 . S
S688 N690 1.610 1_556 S
N689 S688 1.613 . S
N689 C692 1.350 . S
N690 S688 1.610 1_554 S
N690 C691 1.351 1_554 S
C691 C685 1.428 . S
C691 N690 1.351 1_556 S
C691 C692 1.434 . S
C692 C683 1.429 . S
C692 N689 1.350 . S
C692 C691 1.434 . S
C693 C694 1.369 . S
C693 C695 1.419 . S
C693 H697 0.930 . S
C694 C693 1.369 . S
C694 C703 1.429 . S
C695 C693 1.419 . S
C695 C696 1.363 . S
C695 H698 0.929 . S
C696 C695 1.363 . S
C696 C702 1.428 . S
H697 C693 0.930 . S
H698 C695 0.929 . S
S699 N700 1.613 . S
S699 N701 1.610 . S
N700 S699 1.613 . S
N700 C703 1.350 . S
N701 S699 1.610 . S
N701 C702 1.351 . S
C702 C696 1.428 . S
C702 N701 1.351 . S
C702 C703 1.434 . S
C703 C694 1.429 . S
C703 N700 1.350 . S
C703 C702 1.434 . S
C704 C705 1.369 . S
C704 C706 1.419 . S
C704 H708 0.930 . S
C705 C704 1.369 . S
C705 C714 1.429 . S
C706 C704 1.419 . S
C706 C707 1.363 . S
C706 H709 0.929 . S
C707 C706 1.363 . S
C707 C713 1.428 . S
H708 C704 0.930 . S
H709 C706 0.929 . S
S710 N711 1.613 . S
S710 N712 1.610 . S
N711 S710 1.613 . S
N711 C714 1.350 . S
N712 S710 1.610 . S
N712 C713 1.351 . S
C713 C707 1.428 . S
C713 N712 1.351 . S
C713 C714 1.434 . S
C714 C705 1.429 . S
C714 N711 1.350 . S
C714 C713 1.434 . S
C715 C716 1.369 . S
C715 C717 1.419 . S
C715 H719 0.930 . S
C716 C715 1.369 . S
C716 C725 1.429 . S
C717 C715 1.419 . S
C717 C718 1.363 . S
C717 H720 0.929 . S
C718 C717 1.363 . S
C718 C724 1.428 . S
H719 C715 0.930 . S
H720 C717 0.929 . S
S721 N722 1.613 . S
S721 N723 1.610 . S
N722 S721 1.613 . S
N722 C725 1.350 . S
N723 S721 1.610 . S
N723 C724 1.351 . S
C724 C718 1.428 . S
C724 N723 1.351 . S
C724 C725 1.434 . S
C725 C716 1.429 . S
C725 N722 1.350 . S
C725 C724 1.434 . S
C726 C727 1.369 . S
C726 C728 1.419 . S
C726 H730 0.930 . S
C727 C726 1.369 . S
C727 C736 1.429 . S
C728 C726 1.419 . S
C728 C729 1.363 . S
C728 H731 0.929 . S
C729 C728 1.363 . S
C729 C735 1.428 . S
H730 C726 0.930 . S
H731 C728 0.929 . S
S732 N733 1.613 . S
S732 N734 1.610 . S
N733 S732 1.613 . S
N733 C736 1.350 . S
N734 S732 1.610 . S
N734 C735 1.351 . S
C735 C729 1.428 . S
C735 N734 1.351 . S
C735 C736 1.434 . S
C736 C727 1.429 . S
C736 N733 1.350 . S
C736 C735 1.434 . S
C737 C738 1.369 . S
C737 C739 1.419 . S
C737 H741 0.930 . S
C738 C737 1.369 . S
C738 C747 1.429 . S
C739 C737 1.419 . S
C739 C740 1.363 . S
C739 H742 0.929 . S
C740 C739 1.363 . S
C740 C746 1.428 . S
H741 C737 0.930 . S
H742 C739 0.929 . S
S743 N744 1.613 . S
S743 N745 1.610 . S
N744 S743 1.613 . S
N744 C747 1.350 . S
N745 S743 1.610 . S
N745 C746 1.351 . S
C746 C740 1.428 . S
C746 N745 1.351 . S
C746 C747 1.434 . S
C747 C738 1.429 . S
C747 N744 1.350 . S
C747 C746 1.434 . S
C748 C749 1.369 . S
C748 C750 1.419 . S
C748 H752 0.930 . S
C749 C748 1.369 . S
C749 C758 1.429 . S
C750 C748 1.419 . S
C750 C751 1.363 . S
C750 H753 0.929 . S
C751 C750 1.363 . S
C751 C757 1.428 . S
H752 C748 0.930 . S
H753 C750 0.929 . S
S754 N755 1.613 . S
S754 N756 1.610 . S
N755 S754 1.613 . S
N755 C758 1.350 . S
N756 S754 1.610 . S
N756 C757 1.351 . S
C757 C751 1.428 . S
C757 N756 1.351 . S
C757 C758 1.434 . S
C758 C749 1.429 . S
C758 N755 1.350 . S
C758 C757 1.434 . S
C759 C760 1.369 . S
C759 C761 1.419 . S
C759 H763 0.930 . S
C760 C759 1.369 . S
C760 C769 1.429 . S
C761 C759 1.419 . S
C761 C762 1.363 . S
C761 H764 0.929 . S
C762 C761 1.363 . S
C762 C768 1.428 . S
H763 C759 0.930 . S
H764 C761 0.929 . S
S765 N766 1.613 . S
S765 N767 1.610 . S
N766 S765 1.613 . S
N766 C769 1.350 . S
N767 S765 1.610 . S
N767 C768 1.351 . S
C768 C762 1.428 . S
C768 N767 1.351 . S
C768 C769 1.434 . S
C769 C760 1.429 . S
C769 N766 1.350 . S
C769 C768 1.434 . S
C770 C771 1.369 . S
C770 C772 1.419 . S
C770 H774 0.930 . S
C771 C770 1.369 . S
C771 C780 1.429 . S
C772 C770 1.419 . S
C772 C773 1.363 . S
C772 H775 0.929 . S
C773 C772 1.363 . S
C773 C779 1.428 . S
H774 C770 0.930 . S
H775 C772 0.929 . S
S776 N777 1.613 . S
S776 N778 1.610 . S
N777 S776 1.613 . S
N777 C780 1.350 . S
N778 S776 1.610 . S
N778 C779 1.351 . S
C779 C773 1.428 . S
C779 N778 1.351 . S
C779 C780 1.434 . S
C780 C771 1.429 . S
C780 N777 1.350 . S
C780 C779 1.434 . S
C781 C782 1.369 . S
C781 C783 1.419 . S
C781 H785 0.930 . S
C782 C781 1.369 . S
C782 C791 1.429 . S
C783 C781 1.419 . S
C783 C784 1.363 . S
C783 H786 0.929 . S
C784 C783 1.363 . S
C784 C790 1.428 . S
H785 C781 0.930 . S
H786 C783 0.929 . S
S787 N788 1.613 . S
S787 N789 1.610 . S
N788 S787 1.613 . S
N788 C791 1.350 . S
N789 S787 1.610 . S
N789 C790 1.351 . S
C790 C784 1.428 . S
C790 N789 1.351 . S
C790 C791 1.434 . S
C791 C782 1.429 . S
C791 N788 1.350 . S
C791 C790 1.434 . S
C792 C793 1.369 . S
C792 C794 1.419 . S
C792 H796 0.930 . S
C793 C792 1.369 . S
C793 C802 1.429 . S
C794 C792 1.419 . S
C794 C795 1.363 . S
C794 H797 0.929 . S
C795 C794 1.363 . S
C795 C801 1.428 . S
H796 C792 0.930 . S
H797 C794 0.929 . S
S798 N799 1.613 . S
S798 N800 1.610 . S
N799 S798 1.613 . S
N799 C802 1.350 . S
N800 S798 1.610 . S
N800 C801 1.351 . S
C801 C795 1.428 . S
C801 N800 1.351 . S
C801 C802 1.434 . S
C802 C793 1.429 . S
C802 N799 1.350 . S
C802 C801 1.434 . S
C803 C804 1.369 . S
C803 C805 1.419 . S
C803 H807 0.930 . S
C804 C803 1.369 . S
C804 C813 1.429 . S
C805 C803 1.419 . S
C805 C806 1.363 . S
C805 H808 0.929 . S
C806 C805 1.363 . S
C806 C812 1.428 . S
H807 C803 0.930 . S
H808 C805 0.929 . S
S809 N810 1.613 . S
S809 N811 1.610 . S
N810 S809 1.613 . S
N810 C813 1.350 . S
N811 S809 1.610 . S
N811 C812 1.351 . S
C812 C806 1.428 . S
C812 N811 1.351 . S
C812 C813 1.434 . S
C813 C804 1.429 . S
C813 N810 1.350 . S
C813 C812 1.434 . S
C814 C815 1.369 . S
C814 C816 1.419 . S
C814 H818 0.930 . S
C815 C814 1.369 . S
C815 C824 1.429 . S
C816 C814 1.419 . S
C816 C817 1.363 . S
C816 H819 0.929 . S
C817 C816 1.363 . S
C817 C823 1.428 . S
H818 C814 0.930 . S
H819 C816 0.929 . S
S820 N821 1.613 . S
S820 N822 1.610 . S
N821 S820 1.613 . S
N821 C824 1.350 . S
N822 S820 1.610 . S
N822 C823 1.351 . S
C823 C817 1.428 . S
C823 N822 1.351 . S
C823 C824 1.434 . S
C824 C815 1.429 . S
C824 N821 1.350 . S
C824 C823 1.434 . S
C825 C826 1.369 . S
C825 C827 1.419 . S
C825 H829 0.930 . S
C826 C825 1.369 . S
C826 C835 1.429 . S
C827 C825 1.419 . S
C827 C828 1.363 . S
C827 H830 0.929 . S
C828 C827 1.363 . S
C828 C834 1.428 . S
H829 C825 0.930 . S
H830 C827 0.929 . S
S831 N832 1.613 . S
S831 N833 1.610 . S
N832 S831 1.613 . S
N832 C835 1.350 . S
N833 S831 1.610 . S
N833 C834 1.351 . S
C834 C828 1.428 . S
C834 N833 1.351 . S
C834 C835 1.434 . S
C835 C826 1.429 . S
C835 N832 1.350 . S
C835 C834 1.434 . S
C836 C837 1.369 . S
C836 C838 1.419 . S
C836 H840 0.930 . S
C837 C836 1.369 . S
C837 C846 1.429 . S
C838 C836 1.419 . S
C838 C839 1.363 . S
C838 H841 0.929 . S
C839 C838 1.363 . S
C839 C845 1.428 . S
H840 C836 0.930 . S
H841 C838 0.929 . S
S842 N843 1.613 . S
S842 N844 1.610 . S
N843 S842 1.613 . S
N843 C846 1.350 . S
N844 S842 1.610 . S
N844 C845 1.351 . S
C845 C839 1.428 . S
C845 N844 1.351 . S
C845 C846 1.434 . S
C846 C837 1.429 . S
C846 N843 1.350 . S
C846 C845 1.434 . S
C847 C848 1.369 . S
C847 C849 1.419 . S
C847 H851 0.930 . S
C848 C847 1.369 . S
C848 C857 1.429 . S
C849 C847 1.419 . S
C849 C850 1.363 . S
C849 H852 0.929 . S
C850 C849 1.363 . S
C850 C856 1.428 . S
H851 C847 0.930 . S
H852 C849 0.929 . S
S853 N854 1.613 . S
S853 N855 1.610 . S
N854 S853 1.613 . S
N854 C857 1.350 . S
N855 S853 1.610 . S
N855 C856 1.351 . S
C856 C850 1.428 . S
C856 N855 1.351 . S
C856 C857 1.434 . S
C857 C848 1.429 . S
C857 N854 1.350 . S
C857 C856 1.434 . S
C858 C859 1.369 . S
C858 C860 1.419 . S
C858 H862 0.930 . S
C859 C858 1.369 . S
C859 C868 1.429 . S
C860 C858 1.419 . S
C860 C861 1.363 . S
C860 H863 0.929 . S
C861 C860 1.363 . S
C861 C867 1.428 . S
H862 C858 0.930 . S
H863 C860 0.929 . S
S864 N865 1.613 . S
S864 N866 1.610 . S
N865 S864 1.613 . S
N865 C868 1.350 . S
N866 S864 1.610 . S
N866 C867 1.351 . S
C867 C861 1.428 . S
C867 N866 1.351 . S
C867 C868 1.434 . S
C868 C859 1.429 . S
C868 N865 1.350 . S
C868 C867 1.434 . S
C869 C870 1.369 . S
C869 C871 1.419 . S
C869 H873 0.930 . S
C870 C869 1.369 . S
C870 C879 1.429 . S
C871 C869 1.419 . S
C871 C872 1.363 . S
C871 H874 0.929 . S
C872 C871 1.363 . S
C872 C878 1.428 . S
H873 C869 0.930 . S
H874 C871 0.929 . S
S875 N876 1.613 . S
S875 N877 1.610 . S
N876 S875 1.613 . S
N876 C879 1.350 . S
N877 S875 1.610 . S
N877 C878 1.351 . S
C878 C872 1.428 . S
C878 N877 1.351 . S
C878 C879 1.434 . S
C879 C870 1.429 . S
C879 N876 1.350 . S
C879 C878 1.434 . S
C353 C15 1.462 . S
C355 C257 1.474 . S
C364 C37 1.464 . S
C366 C183 1.474 . S
C375 C205 1.475 . S
C377 C65 1.461 . S
C386 C241 1.477 . S
C388 C73 1.463 . S
C397 C103 1.462 . S
C399 C307 1.473 . S
C408 C131 1.464 . S
C410 C323 1.474 . S
C419 C345 1.475 . S
C421 C147 1.461 . S
C430 C285 1.475 . S
C432 C161 1.467 . S
C441 C191 1.457 1_545 S
C443 C81 1.474 . S
C452 C7 1.473 . S
C454 C219 1.466 1_455 S
C463 C43 1.473 . S
C465 C227 1.461 1_565 S
C474 C249 1.465 1_655 S
C476 C59 1.474 . S
C485 C271 1.462 1_565 S
C487 C117 1.475 . S
C496 C139 1.475 . S
C498 C301 1.467 1_655 S
C507 C169 1.475 . S
C509 C329 1.457 1_545 S
C518 C95 1.476 . S
C520 C337 1.463 1_455 S
C529 C98 1.274 . S
C531 C10 1.275 . S
C540 C32 1.248 . S
C542 C118 1.247 . S
C551 C142 1.273 . S
C553 C52 1.274 . S
C562 C172 1.245 . S
C564 C84 1.244 . S
C573 C282 1.278 . S
C575 C186 1.277 . S
C584 C206 1.238 . S
C586 C296 1.239 . S
C595 C238 1.274 . S
C597 C316 1.273 . S
C606 C348 1.241 . S
C608 C260 1.241 . S
C617 C21 1.520 . S
C619 C294 1.546 1_554 S
C628 C318 1.541 1_556 S
C630 C29 1.514 . S
C639 C340 1.546 1_554 S
C641 C51 1.523 . S
C650 C272 1.540 1_556 S
C652 C87 1.513 . S
C661 C109 1.519 . S
C663 C252 1.546 1_556 S
C672 C125 1.515 . S
C674 C194 1.541 1_554 S
C683 C153 1.524 . S
C685 C216 1.545 1_556 S
C694 C228 1.540 1_554 S
C696 C175 1.510 . S
C705 C128 1.545 . S
C707 C197 1.521 . S
C716 C150 1.541 . S
C718 C213 1.511 . S
C727 C235 1.520 . S
C729 C164 1.546 . S
C738 C106 1.540 . S
C740 C263 1.513 . S
C749 C76 1.546 . S
C751 C279 1.521 . S
C760 C293 1.514 . S
C762 C18 1.541 . S
C771 C30 1.545 . S
C773 C315 1.523 . S
C782 C351 1.509 . S
C784 C54 1.540 . S
C793 C162 1.271 . S
C795 C8 1.265 . S
C804 C96 1.267 . S
C806 C40 1.273 . S
C815 C120 1.275 . S
C817 C62 1.270 . S
C826 C140 1.266 . S
C828 C74 1.273 . S
C837 C184 1.269 . S
C839 C338 1.274 . S
C848 C274 1.266 . S
C850 C208 1.273 . S
C859 C304 1.271 . S
C861 C230 1.265 . S
C870 C250 1.275 . S
C872 C326 1.269 . S
