# Generated by pormake.
# Topology wme, (6)-cn, num edge types: 1
# Building blocks:
#     Node 0, Type 0, BuildingBlock: FUNLAD_clean_sbu_0, # of connection points: 6
#     Node 1, Type 0, BuildingBlock: FUNLAD_clean_sbu_0, # of connection points: 6
#     Node 2, Type 0, BuildingBlock: FUNLAD_clean_sbu_0, # of connection points: 6
#     Node 3, Type 0, BuildingBlock: FUNLAD_clean_sbu_0, # of connection points: 6
#     Node 4, Type 0, BuildingBlock: FUNLAD_clean_sbu_0, # of connection points: 6
#     Node 5, Type 0, BuildingBlock: FUNLAD_clean_sbu_0, # of connection points: 6
#     Node 6, Type 0, BuildingBlock: FUNLAD_clean_sbu_0, # of connection points: 6
#     Node 7, Type 0, BuildingBlock: FUNLAD_clean_sbu_0, # of connection points: 6
#     Node 8, Type 0, BuildingBlock: FUNLAD_clean_sbu_0, # of connection points: 6
#     Node 9, Type 0, BuildingBlock: FUNLAD_clean_sbu_0, # of connection points: 6
#     Node 10, Type 0, BuildingBlock: FUNLAD_clean_sbu_0, # of connection points: 6
#     Node 11, Type 0, BuildingBlock: FUNLAD_clean_sbu_0, # of connection points: 6
#     Edge 12, Type (0, 0), BuildingBlock: OJICUG_clean_linker_0, # of connection points: 2
#     Edge 13, Type (0, 0), BuildingBlock: OJICUG_clean_linker_0, # of connection points: 2
#     Edge 14, Type (0, 0), BuildingBlock: OJICUG_clean_linker_0, # of connection points: 2
#     Edge 15, Type (0, 0), BuildingBlock: OJICUG_clean_linker_0, # of connection points: 2
#     Edge 16, Type (0, 0), BuildingBlock: OJICUG_clean_linker_0, # of connection points: 2
#     Edge 17, Type (0, 0), BuildingBlock: OJICUG_clean_linker_0, # of connection points: 2
#     Edge 18, Type (0, 0), BuildingBlock: OJICUG_clean_linker_0, # of connection points: 2
#     Edge 19, Type (0, 0), BuildingBlock: OJICUG_clean_linker_0, # of connection points: 2
#     Edge 20, Type (0, 0), BuildingBlock: OJICUG_clean_linker_0, # of connection points: 2
#     Edge 21, Type (0, 0), BuildingBlock: OJICUG_clean_linker_0, # of connection points: 2
#     Edge 22, Type (0, 0), BuildingBlock: OJICUG_clean_linker_0, # of connection points: 2
#     Edge 23, Type (0, 0), BuildingBlock: OJICUG_clean_linker_0, # of connection points: 2
#     Edge 24, Type (0, 0), BuildingBlock: OJICUG_clean_linker_0, # of connection points: 2
#     Edge 25, Type (0, 0), BuildingBlock: OJICUG_clean_linker_0, # of connection points: 2
#     Edge 26, Type (0, 0), BuildingBlock: OJICUG_clean_linker_0, # of connection points: 2
#     Edge 27, Type (0, 0), BuildingBlock: OJICUG_clean_linker_0, # of connection points: 2
#     Edge 28, Type (0, 0), BuildingBlock: OJICUG_clean_linker_0, # of connection points: 2
#     Edge 29, Type (0, 0), BuildingBlock: OJICUG_clean_linker_0, # of connection points: 2
#     Edge 30, Type (0, 0), BuildingBlock: OJICUG_clean_linker_0, # of connection points: 2
#     Edge 31, Type (0, 0), BuildingBlock: OJICUG_clean_linker_0, # of connection points: 2
#     Edge 32, Type (0, 0), BuildingBlock: OJICUG_clean_linker_0, # of connection points: 2
#     Edge 33, Type (0, 0), BuildingBlock: OJICUG_clean_linker_0, # of connection points: 2
#     Edge 34, Type (0, 0), BuildingBlock: OJICUG_clean_linker_0, # of connection points: 2
#     Edge 35, Type (0, 0), BuildingBlock: OJICUG_clean_linker_0, # of connection points: 2
#     Edge 36, Type (0, 0), BuildingBlock: OJICUG_clean_linker_0, # of connection points: 2
#     Edge 37, Type (0, 0), BuildingBlock: OJICUG_clean_linker_0, # of connection points: 2
#     Edge 38, Type (0, 0), BuildingBlock: OJICUG_clean_linker_0, # of connection points: 2
#     Edge 39, Type (0, 0), BuildingBlock: OJICUG_clean_linker_0, # of connection points: 2
#     Edge 40, Type (0, 0), BuildingBlock: OJICUG_clean_linker_0, # of connection points: 2
#     Edge 41, Type (0, 0), BuildingBlock: OJICUG_clean_linker_0, # of connection points: 2
#     Edge 42, Type (0, 0), BuildingBlock: OJICUG_clean_linker_0, # of connection points: 2
#     Edge 43, Type (0, 0), BuildingBlock: OJICUG_clean_linker_0, # of connection points: 2
#     Edge 44, Type (0, 0), BuildingBlock: OJICUG_clean_linker_0, # of connection points: 2
#     Edge 45, Type (0, 0), BuildingBlock: OJICUG_clean_linker_0, # of connection points: 2
#     Edge 46, Type (0, 0), BuildingBlock: OJICUG_clean_linker_0, # of connection points: 2
#     Edge 47, Type (0, 0), BuildingBlock: OJICUG_clean_linker_0, # of connection points: 2
# Relax obj value: 0.121
# Max RMSD: 0.201
# Mean RMSD: 0.201
data_MOF--net-wme--node1-FUNLAD_clean_sbu_0--edge1-OJICUG_clean_linker_0
_symmetry_space_group_name_H-M    P1
_symmetry_Int_Tables_number       1
_symmetry_cell_setting            triclinic
loop_
_symmetry_equiv_pos_as_xyz
'x, y, z'
_cell_length_a     21.395071
_cell_length_b     21.349811
_cell_length_c     69.226429
_cell_angle_alpha  90.028258
_cell_angle_beta   89.978092
_cell_angle_gamma 120.03301
loop_
_atom_site_label
_atom_site_type_symbol
_atom_site_fract_x
_atom_site_fract_y
_atom_site_fract_z
_atom_type_partial_charge
C0 C 0.19928 0.19711 0.14712 0.0
N1 N 0.16899 0.28684 0.09786 0.0
C2 C 0.23275 0.29285 0.09217 0.0
C3 C 0.24374 0.28032 0.07309 0.0
C4 C 0.18835 0.25997 0.05954 0.0
C5 C 0.12256 0.25334 0.06564 0.0
C6 C 0.11409 0.26755 0.085 0.0
Zn7 Zn 0.16053 0.29829 0.12724 0.0
C8 C 0.02074 0.19879 0.14377 0.0
N9 N 0.15857 0.31178 0.18898 0.0
C10 C 0.21048 0.31399 0.20079 0.0
C11 C 0.10034 0.3133 0.19634 0.0
C12 C 0.09216 0.31633 0.21625 0.0
C13 C 0.1443 0.31773 0.22883 0.0
C14 C 0.20443 0.31706 0.22085 0.0
Zn15 Zn 0.16452 0.30347 0.15957 0.0
O16 O 0.19101 0.22094 0.13115 0.0
C17 C 0.30229 0.40953 0.1432 0.0
O18 O 0.19312 0.22433 0.16279 0.0
H19 H 0.05963 0.31164 0.18677 0.0
H20 H 0.27509 0.30545 0.10255 0.0
H21 H 0.25625 0.31255 0.19465 0.0
O22 O 0.26739 0.38173 0.1278 0.0
O23 O 0.27252 0.38489 0.15945 0.0
H24 H 0.06335 0.2618 0.0898 0.0
O25 O 0.13324 0.38018 0.15575 0.0
O26 O 0.12703 0.37421 0.12398 0.0
O27 O 0.05646 0.22421 0.15921 0.0
O28 O 0.05223 0.21766 0.12748 0.0
C29 C 0.11799 0.39885 0.13983 0.0
H30 H 0.29477 0.28474 0.06909 0.0
H31 H 0.07851 0.23774 0.05555 0.0
H32 H 0.04552 0.31789 0.22172 0.0
H33 H 0.2456 0.31735 0.23 0.0
C34 C -0.02625 0.21737 0.64712 0.0
N35 N 0.85398 0.18813 0.59792 0.0
C36 C 0.91208 0.25178 0.59222 0.0
C37 C 0.93568 0.26245 0.57316 0.0
C38 C 0.90034 0.20684 0.55964 0.0
C39 C 0.84077 0.14119 0.56574 0.0
C40 C 0.81803 0.13305 0.58509 0.0
Zn41 Zn 0.83422 0.17988 0.6273 0.0
C42 C 0.79266 0.03964 0.64381 0.0
N43 N 0.81915 0.17814 0.68905 0.0
C44 C 0.86923 0.22975 0.70089 0.0
C45 C 0.75899 0.1201 0.69638 0.0
C46 C 0.74777 0.11177 0.71629 0.0
C47 C 0.79891 0.16355 0.7289 0.0
C48 C 0.86011 0.22353 0.72095 0.0
Zn49 Zn 0.83328 0.18404 0.65963 0.0
O50 O 0.94168 0.20947 0.63116 0.0
C51 C 0.86626 0.32234 0.64327 0.0
O52 O 0.94069 0.21165 0.66281 0.0
H53 H 0.71964 0.07963 0.68678 0.0
H54 H 0.94208 0.29423 0.60259 0.0
H55 H 0.91675 0.27537 0.69478 0.0
O56 O 0.85877 0.2872 0.62787 0.0
O57 O 0.86106 0.29256 0.65953 0.0
H58 H 0.77278 0.0824 0.5899 0.0
O59 O 0.72559 0.15369 0.65584 0.0
O60 O 0.7251 0.14722 0.62407 0.0
O61 O 0.80329 0.07552 0.65925 0.0
O62 O 0.80546 0.07116 0.62753 0.0
C63 C 0.69164 0.13864 0.63993 0.0
H64 H -0.01741 0.31337 0.56915 0.0
H65 H 0.81207 0.09699 0.55568 0.0
H66 H 0.69926 0.06528 0.72172 0.0
H67 H 0.90129 0.26443 0.73014 0.0
C68 C 0.72406 -0.01231 0.14695 0.0
N69 N 0.63438 0.86682 0.09779 0.0
C70 C 0.62812 0.92446 0.09203 0.0
C71 C 0.64094 0.948 0.07296 0.0
C72 C 0.66183 0.91308 0.05948 0.0
C73 C 0.66862 0.85398 0.06564 0.0
C74 C 0.65413 0.83129 0.085 0.0
Zn75 Zn 0.62296 0.84734 0.1272 0.0
C76 C 0.72266 0.80741 0.14384 0.0
N77 N 0.60973 0.83294 0.18897 0.0
C78 C 0.60769 0.88328 0.2006 0.0
C79 C 0.6081 0.77329 0.19654 0.0
C80 C 0.605 0.76279 0.21648 0.0
C81 C 0.60363 0.81416 0.22888 0.0
C82 C 0.60468 0.87495 0.22069 0.0
Zn83 Zn 0.61794 0.84647 0.15953 0.0
O84 O 0.70005 0.95542 0.131 0.0
C85 C 0.51159 0.87765 0.14309 0.0
O86 O 0.69691 0.95445 0.16264 0.0
H87 H 0.61011 0.73398 0.18709 0.0
H88 H 0.6152 0.9542 0.10236 0.0
H89 H 0.60889 0.93023 0.19431 0.0
O90 O 0.53941 0.87059 0.12768 0.0
O91 O 0.53648 0.87293 0.15933 0.0
H92 H 0.66011 0.78642 0.08986 0.0
O93 O 0.54148 0.73826 0.15584 0.0
O94 O 0.5473 0.73769 0.12406 0.0
O95 O 0.69719 0.81771 0.15927 0.0
O96 O 0.70366 0.81979 0.12755 0.0
C97 C 0.52273 0.70414 0.13993 0.0
H98 H 0.63639 -0.00542 0.06891 0.0
H99 H 0.68463 0.82561 0.05561 0.0
H100 H 0.60532 0.71566 0.22213 0.0
H101 H 0.60288 0.91552 0.22968 0.0
C102 C 0.70912 0.74316 0.64698 0.0
N103 N 0.73962 0.65308 0.59777 0.0
C104 C 0.67579 0.64687 0.59207 0.0
C105 C 0.66476 0.65923 0.57299 0.0
C106 C 0.72019 0.67965 0.55944 0.0
C107 C 0.78605 0.68649 0.56554 0.0
C108 C 0.79455 0.67243 0.58491 0.0
Zn109 Zn 0.74804 0.64189 0.62718 0.0
C110 C 0.88771 0.74152 0.64372 0.0
N111 N 0.74967 0.62884 0.68894 0.0
C112 C 0.69773 0.62668 0.70073 0.0
C113 C 0.80788 0.62734 0.69632 0.0
C114 C 0.81598 0.62437 0.71623 0.0
C115 C 0.7638 0.62301 0.7288 0.0
C116 C 0.70371 0.62368 0.7208 0.0
Zn117 Zn 0.74381 0.6369 0.65951 0.0
O118 O 0.71749 0.71924 0.63102 0.0
C119 C 0.60618 0.53073 0.64314 0.0
O120 O 0.71519 0.71604 0.66267 0.0
H121 H 0.84861 0.62895 0.68675 0.0
H122 H 0.63343 0.63427 0.60245 0.0
H123 H 0.65198 0.6281 0.69458 0.0
O124 O 0.64119 0.55841 0.62774 0.0
O125 O 0.63583 0.55549 0.65939 0.0
H126 H 0.84534 0.67836 0.58972 0.0
O127 O 0.77511 0.56018 0.65577 0.0
O128 O 0.78161 0.56597 0.62399 0.0
O129 O 0.85188 0.71618 0.65915 0.0
O130 O 0.85633 0.72257 0.62743 0.0
C131 C 0.7905 0.54142 0.63987 0.0
H132 H 0.61369 0.65467 0.56899 0.0
H133 H 0.83013 0.70217 0.55546 0.0
H134 H 0.86258 0.6228 0.72171 0.0
H135 H 0.6625 0.62341 0.72994 0.0
C136 C 0.93457 0.72281 0.14705 0.0
N137 N 0.05469 0.75259 0.09788 0.0
C138 C -0.00334 0.68897 0.09211 0.0
C139 C -0.02677 0.67846 0.07304 0.0
C140 C 0.00865 0.7342 0.05957 0.0
C141 C 0.06812 0.79982 0.06574 0.0
C142 C 0.09069 0.80781 0.08509 0.0
Zn143 Zn 0.07419 0.76043 0.12727 0.0
C144 C 0.11571 0.90062 0.14395 0.0
N145 N 0.08872 0.76135 0.18902 0.0
C146 C 0.03817 0.70932 0.20067 0.0
C147 C 0.14872 0.81898 0.19657 0.0
C148 C 0.15939 0.82633 0.21651 0.0
C149 C 0.10782 0.77397 0.22893 0.0
C150 C 0.04665 0.71463 0.22075 0.0
Zn151 Zn 0.07508 0.75617 0.1596 0.0
O152 O -0.03334 0.73072 0.1311 0.0
C153 C 0.04217 0.61793 0.14308 0.0
O154 O -0.03237 0.72853 0.16274 0.0
H155 H 0.1882 0.86003 0.18711 0.0
H156 H -0.03341 0.64641 0.10244 0.0
H157 H -0.00907 0.66388 0.1944 0.0
O158 O 0.04972 0.65311 0.1277 0.0
O159 O 0.04728 0.64765 0.15935 0.0
H160 H 0.13587 0.85843 0.08995 0.0
O161 O 0.18282 0.7866 0.15585 0.0
O162 O 0.18334 0.7932 0.12408 0.0
O163 O 0.10511 0.86469 0.15937 0.0
O164 O 0.1029 0.86915 0.12765 0.0
C165 C 0.21679 0.80174 0.13994 0.0
H166 H 0.92639 0.62756 0.06898 0.0
H167 H 0.09686 0.84413 0.05571 0.0
H168 H 0.20682 0.87349 0.22214 0.0
H169 H 0.0059 0.67254 0.22976 0.0
C170 C 0.18436 0.95266 0.647 0.0
N171 N 0.27411 0.07331 0.59781 0.0
C172 C 0.28037 0.01565 0.59203 0.0
C173 C 0.26761 -0.00784 0.57296 0.0
C174 C 0.24679 0.02712 0.55949 0.0
C175 C 0.24003 0.08625 0.56567 0.0
C176 C 0.25446 0.1089 0.58503 0.0
Zn177 Zn 0.28546 0.09294 0.62721 0.0
C178 C 0.18571 0.13285 0.6438 0.0
N179 N 0.29857 0.10794 0.68896 0.0
C180 C 0.30071 0.0581 0.70077 0.0
C181 C 0.29996 0.16776 0.69633 0.0
C182 C 0.30272 0.17886 0.71624 0.0
C183 C 0.30399 0.12795 0.72882 0.0
C184 C 0.30352 0.06713 0.72083 0.0
Zn185 Zn 0.29046 0.09388 0.65954 0.0
O186 O 0.20835 -0.0151 0.63105 0.0
C187 C 0.39682 0.06269 0.64314 0.0
O188 O 0.21154 -0.01408 0.66269 0.0
H189 H 0.29836 0.20692 0.68675 0.0
H190 H 0.29325 -0.01408 0.60236 0.0
H191 H 0.29938 0.01085 0.69463 0.0
O192 O 0.36898 0.06966 0.62773 0.0
O193 O 0.37196 0.06749 0.65939 0.0
H194 H 0.24853 0.1538 0.5899 0.0
O195 O 0.36691 0.20208 0.65578 0.0
O196 O 0.36112 0.20253 0.624 0.0
O197 O 0.21115 0.12253 0.65922 0.0
O198 O 0.20476 0.12051 0.6275 0.0
C199 C 0.38568 0.23614 0.63987 0.0
H200 H 0.27214 0.94557 0.56889 0.0
H201 H 0.22408 0.11466 0.55565 0.0
H202 H 0.30415 0.2271 0.72171 0.0
H203 H 0.30373 0.02613 0.72999 0.0
C204 C 0.72604 0.72391 0.39382 0.0
N205 N 0.63521 0.7531 0.44302 0.0
C206 C 0.62938 0.68932 0.44873 0.0
C207 C 0.64233 0.67863 0.46779 0.0
C208 C 0.66293 0.73437 0.48129 0.0
C209 C 0.66924 0.80013 0.47518 0.0
C210 C 0.65461 0.80828 0.45584 0.0
Zn211 Zn 0.62393 0.76148 0.41361 0.0
C212 C 0.72282 0.90177 0.39714 0.0
N213 N 0.61109 0.76349 0.35185 0.0
C214 C 0.60942 0.71172 0.34003 0.0
C215 C 0.60912 0.8216 0.3445 0.0
C216 C 0.60615 0.82981 0.32459 0.0
C217 C 0.60528 0.77782 0.31199 0.0
C218 C 0.60642 0.71781 0.31996 0.0
Zn219 Zn 0.6191 0.75751 0.38128 0.0
O220 O 0.70173 0.7317 0.40978 0.0
C221 C 0.51357 0.61921 0.39757 0.0
O222 O 0.69881 0.72975 0.37813 0.0
H223 H 0.61034 0.86219 0.35409 0.0
H224 H 0.61675 0.64678 0.43837 0.0
H225 H 0.6112 0.66604 0.34615 0.0
O226 O 0.54108 0.65418 0.41299 0.0
O227 O 0.53836 0.64909 0.38133 0.0
H228 H 0.66025 0.85904 0.45101 0.0
O229 O 0.54186 0.788 0.38503 0.0
O230 O 0.54753 0.79432 0.41681 0.0
O231 O 0.69764 0.86597 0.38169 0.0
O232 O 0.70395 0.87017 0.41342 0.0
C233 C 0.52281 0.803 0.40094 0.0
H234 H 0.63813 0.62762 0.47181 0.0
H235 H 0.685 0.84444 0.48523 0.0
H236 H 0.60421 0.87634 0.31914 0.0
H237 H 0.60654 0.67675 0.3108 0.0
C238 C -0.02755 0.74231 0.89384 0.0
N239 N 0.8519 0.65242 0.943 0.0
C240 C 0.90965 0.64653 0.94875 0.0
C241 C 0.93292 0.6591 0.96784 0.0
C242 C 0.89763 0.67938 0.98134 0.0
C243 C 0.83848 0.68592 0.97519 0.0
C244 C 0.81606 0.67166 0.95581 0.0
Zn245 Zn 0.8325 0.64089 0.9136 0.0
C246 C 0.79187 0.74005 0.89693 0.0
N247 N 0.81814 0.62725 0.85184 0.0
C248 C 0.86859 0.62554 0.84023 0.0
C249 C 0.75848 0.62528 0.84425 0.0
C250 C 0.7481 0.62218 0.8243 0.0
C251 C 0.7996 0.62119 0.81192 0.0
C252 C 0.86038 0.62256 0.82014 0.0
Zn253 Zn 0.8316 0.63562 0.88127 0.0
O254 O 0.94025 0.7184 0.9098 0.0
C255 C 0.86363 0.52984 0.89778 0.0
O256 O 0.93926 0.71504 0.87816 0.0
H257 H 0.71908 0.62704 0.85368 0.0
H258 H 0.93961 0.634 0.93841 0.0
H259 H 0.91554 0.62701 0.84654 0.0
O260 O 0.85622 0.5576 0.91316 0.0
O261 O 0.85861 0.55442 0.88152 0.0
H262 H 0.7711 0.67735 0.95096 0.0
O263 O 0.72366 0.55866 0.88498 0.0
O264 O 0.72317 0.56482 0.91675 0.0
O265 O 0.80235 0.71462 0.88151 0.0
O266 O 0.80452 0.72134 0.91323 0.0
C267 C 0.68965 0.54004 0.9009 0.0
H268 H -0.02048 0.65476 0.97189 0.0
H269 H 0.80986 0.70149 0.98524 0.0
H270 H 0.70096 0.62224 0.81863 0.0
H271 H 0.90105 0.62105 0.81116 0.0
C272 C 0.20154 -0.01106 0.39366 0.0
N273 N 0.17071 0.86883 0.44298 0.0
C274 C 0.23462 0.92657 0.44867 0.0
C275 C 0.24565 0.9502 0.46774 0.0
C276 C 0.19016 0.91526 0.48128 0.0
C277 C 0.12424 0.85608 0.47519 0.0
C278 C 0.11572 0.83331 0.45583 0.0
Zn279 Zn 0.16217 0.84879 0.4136 0.0
C280 C 0.02257 0.80901 0.39707 0.0
N281 N 0.15994 0.83296 0.35186 0.0
C282 C 0.21191 0.8825 0.34 0.0
C283 C 0.10142 0.77315 0.34455 0.0
C284 C 0.09299 0.76175 0.32465 0.0
C285 C 0.14516 0.81235 0.31201 0.0
C286 C 0.2056 0.87318 0.31994 0.0
Zn287 Zn 0.16609 0.84746 0.38127 0.0
O288 O 0.19323 0.95684 0.40964 0.0
C289 C 0.30356 0.87852 0.39763 0.0
O290 O 0.19532 0.95546 0.378 0.0
H291 H 0.06067 0.73422 0.35416 0.0
H292 H 0.27704 0.95622 0.43829 0.0
H293 H 0.2579 0.92975 0.34609 0.0
O294 O 0.26884 0.87181 0.41304 0.0
O295 O 0.27387 0.87355 0.38139 0.0
H296 H 0.06489 0.78833 0.45103 0.0
O297 O 0.13414 0.73924 0.38514 0.0
O298 O 0.12811 0.73917 0.41691 0.0
O299 O 0.05824 0.81912 0.38163 0.0
O300 O 0.05401 0.82146 0.41335 0.0
C301 C 0.11888 0.70535 0.40107 0.0
H302 H 0.29678 -0.00319 0.47174 0.0
H303 H 0.08011 0.8277 0.48527 0.0
H304 H 0.04612 0.71352 0.31923 0.0
H305 H 0.24682 0.91396 0.31074 0.0
C306 C 0.18225 0.21669 0.89386 0.0
N307 N 0.27274 0.18695 0.943 0.0
C308 C 0.27847 0.25064 0.94879 0.0
C309 C 0.2656 0.26115 0.96787 0.0
C310 C 0.24517 0.20533 0.98133 0.0
C311 C 0.2389 0.13965 0.97514 0.0
C312 C 0.25345 0.13167 0.95577 0.0
Zn313 Zn 0.28424 0.17903 0.9136 0.0
C314 C 0.18546 0.03879 0.89697 0.0
N315 N 0.29763 0.17785 0.85184 0.0
C316 C 0.29922 0.23 0.84021 0.0
C317 C 0.2999 0.12015 0.84427 0.0
C318 C 0.30326 0.11287 0.82433 0.0
C319 C 0.30422 0.16538 0.81193 0.0
C320 C 0.30246 0.22477 0.82013 0.0
Zn321 Zn 0.28928 0.1831 0.88127 0.0
O322 O 0.20648 0.20889 0.90982 0.0
C323 C 0.39474 0.32136 0.89772 0.0
O324 O 0.20955 0.21088 0.87817 0.0
H325 H 0.29825 0.07902 0.85372 0.0
H326 H 0.29103 0.29326 0.93847 0.0
H327 H 0.29751 0.27549 0.84651 0.0
O328 O 0.36713 0.28632 0.91313 0.0
O329 O 0.37003 0.29155 0.88148 0.0
H330 H 0.2479 0.08099 0.95089 0.0
O331 O 0.3665 0.15253 0.88497 0.0
O332 O 0.36055 0.14611 0.91674 0.0
O333 O 0.21077 0.07462 0.88153 0.0
O334 O 0.2042 0.07034 0.91326 0.0
C335 C 0.38539 0.13746 0.90089 0.0
H336 H 0.26976 0.31211 0.97195 0.0
H337 H 0.22325 0.09528 0.98515 0.0
H338 H 0.30348 0.06567 0.81868 0.0
H339 H 0.30393 0.26698 0.81114 0.0
C340 C 0.93584 0.19823 0.39399 0.0
N341 N 0.05686 0.28845 0.44305 0.0
C342 C -0.00079 0.29446 0.44885 0.0
C343 C -0.02387 0.28203 0.46795 0.0
C344 C 0.01149 0.26176 0.48142 0.0
C345 C 0.07053 0.2551 0.47522 0.0
C346 C 0.09278 0.26923 0.45582 0.0
Zn347 Zn 0.07598 0.29976 0.41363 0.0
C348 C 0.11644 0.20048 0.39692 0.0
N349 N 0.08978 0.31305 0.35188 0.0
C350 C 0.03928 0.31474 0.34029 0.0
C351 C 0.14943 0.31505 0.34426 0.0
C352 C 0.15977 0.31821 0.3243 0.0
C353 C 0.10825 0.31923 0.31195 0.0
C354 C 0.04745 0.31777 0.3202 0.0
Zn355 Zn 0.07656 0.30484 0.38131 0.0
O356 O -0.03181 0.22225 0.40992 0.0
C357 C 0.04467 0.4107 0.39786 0.0
O358 O -0.03112 0.22539 0.37828 0.0
H359 H 0.18886 0.31331 0.35366 0.0
H360 H -0.03081 0.30695 0.43853 0.0
H361 H -0.00767 0.31324 0.34663 0.0
O362 O 0.05228 0.38307 0.41323 0.0
O363 O 0.04952 0.38601 0.38158 0.0
H364 H 0.13766 0.26345 0.45093 0.0
O365 O 0.18453 0.38184 0.38494 0.0
O366 O 0.18533 0.37581 0.41671 0.0
O367 O 0.10583 0.22584 0.38151 0.0
O368 O 0.10393 0.21928 0.41323 0.0
C369 C 0.21869 0.40054 0.40083 0.0
H370 H 0.92959 0.28645 0.47204 0.0
H371 H 0.09918 0.23952 0.48524 0.0
H372 H 0.20692 0.3182 0.31861 0.0
H373 H 0.00676 0.3193 0.31124 0.0
C374 C 0.70667 0.95151 0.89376 0.0
N375 N 0.73768 0.07192 0.94303 0.0
C376 C 0.67376 0.01424 0.94874 0.0
C377 C 0.66281 -0.00945 0.96779 0.0
C378 C 0.71839 0.02535 0.98132 0.0
C379 C 0.78433 0.08447 0.97521 0.0
C380 C 0.79277 0.10732 0.95586 0.0
Zn381 Zn 0.74602 0.09176 0.91364 0.0
C382 C 0.88566 0.13154 0.89703 0.0
N383 N 0.74772 0.10687 0.85188 0.0
C384 C 0.69537 0.05681 0.84021 0.0
C385 C 0.80585 0.16651 0.84437 0.0
C386 C 0.81337 0.17728 0.82443 0.0
C387 C 0.76067 0.1262 0.81199 0.0
C388 C 0.70083 0.06541 0.82014 0.0
Zn389 Zn 0.74214 0.09294 0.8813 0.0
O390 O 0.71492 -0.01634 0.90974 0.0
C391 C 0.60462 0.06191 0.89773 0.0
O392 O 0.71296 -0.01506 0.8781 0.0
H393 H 0.84713 0.20561 0.85384 0.0
H394 H 0.63125 -0.01536 0.93837 0.0
H395 H 0.64954 0.00986 0.84646 0.0
O396 O 0.63934 0.06876 0.91314 0.0
O397 O 0.63433 0.06676 0.88149 0.0
H398 H 0.84363 0.15222 0.95105 0.0
O399 O 0.77405 0.20117 0.8851 0.0
O400 O 0.78014 0.20145 0.91688 0.0
O401 O 0.85002 0.12142 0.88159 0.0
O402 O 0.85418 0.11908 0.91331 0.0
C403 C 0.78934 0.23516 0.90103 0.0
H404 H 0.61166 0.94396 0.9718 0.0
H405 H 0.82854 0.11275 0.98527 0.0
H406 H 0.8609 0.2244 0.81882 0.0
H407 H 0.65847 0.02506 0.81111 0.0
C408 C 0.15418 0.01254 0.16311 0.0
C409 C 0.14674 -0.02095 0.14512 0.0
H410 H 0.17963 0.11003 0.17801 0.0
C411 C 0.17087 0.02134 0.12835 0.0
H412 H 0.13766 -0.01872 0.17635 0.0
C413 C 0.1965 0.09524 0.12937 0.0
C414 C 0.19726 0.12758 0.14713 0.0
H415 H 0.16787 -0.00286 0.11437 0.0
H416 H 0.21083 0.12593 0.11604 0.0
C417 C 0.17935 0.08645 0.16412 0.0
C418 C 0.11208 0.17083 0.66298 0.0
C419 C 0.13803 0.16343 0.64497 0.0
H420 H 0.04058 0.19664 0.67793 0.0
C421 C 0.11984 0.18755 0.62823 0.0
H422 H 0.1268 0.15427 0.6762 0.0
C423 C 0.0719 0.21342 0.62928 0.0
C424 C 0.04066 0.21446 0.64706 0.0
H425 H 0.14092 0.18455 0.61424 0.0
H426 H 0.05565 0.2279 0.61597 0.0
C427 C 0.06368 0.19624 0.66403 0.0
C428 C 0.83493 0.07791 0.16391 0.0
C429 C 0.79384 0.05484 0.14692 0.0
H430 H 0.93997 0.14065 0.17615 0.0
C431 C 0.82638 0.08593 0.12914 0.0
H432 H 0.81122 0.05498 0.17781 0.0
C433 C 0.90028 0.13353 0.12813 0.0
C434 C 0.94242 0.15157 0.1449 0.0
H435 H 0.79576 0.06965 0.11581 0.0
H436 H 0.92456 0.15441 0.11414 0.0
C437 C 0.90884 0.12598 0.1629 0.0
C438 C 0.71226 0.84508 0.62917 0.0
C439 C 0.71113 0.81268 0.64695 0.0
H440 H 0.74118 0.94321 0.61418 0.0
C441 C 0.72863 0.85376 0.66395 0.0
H442 H 0.69824 0.81442 0.61583 0.0
C443 C 0.7538 0.92765 0.66295 0.0
C444 C 0.76162 0.9612 0.64495 0.0
H445 H 0.72804 0.83013 0.67785 0.0
H446 H 0.77 0.95886 0.6762 0.0
C447 C 0.73788 0.91897 0.62817 0.0
C448 C 0.84465 0.74392 0.164 0.0
C449 C 0.86767 0.72573 0.14702 0.0
H450 H 0.78153 0.78587 0.17622 0.0
C451 C 0.83643 0.72683 0.12925 0.0
H452 H 0.86773 0.74346 0.17789 0.0
C453 C 0.7885 0.7527 0.12822 0.0
C454 C 0.7703 0.77679 0.14499 0.0
H455 H 0.85269 0.71237 0.11592 0.0
H456 H 0.76743 0.75574 0.11424 0.0
C457 C 0.79625 0.76934 0.16299 0.0
C458 C -0.00054 0.8145 0.6629 0.0
C459 C -0.03398 0.78877 0.64489 0.0
H460 H 0.09694 0.88561 0.67784 0.0
C461 C 0.0083 0.80667 0.62814 0.0
H462 H -0.03179 0.79992 0.67613 0.0
C463 C 0.08219 0.85427 0.62919 0.0
C464 C 0.11459 0.8855 0.64697 0.0
H465 H -0.01587 0.78569 0.61415 0.0
H466 H 0.11292 0.87044 0.61587 0.0
C467 C 0.07336 0.86256 0.66394 0.0
C468 C 0.91091 0.77067 0.37792 0.0
C469 C 0.94434 0.77838 0.39593 0.0
H470 H 0.81351 0.74441 0.363 0.0
C471 C 0.90212 0.7544 0.41269 0.0
H472 H 0.94211 0.7871 0.36469 0.0
C473 C 0.82831 0.72833 0.41166 0.0
C474 C 0.79592 0.72696 0.39388 0.0
H475 H 0.92628 0.75763 0.42668 0.0
H476 H 0.79764 0.71397 0.42499 0.0
C477 C 0.83709 0.74506 0.3769 0.0
C478 C 0.07118 0.84431 0.91162 0.0
C479 C 0.03984 0.81188 0.89386 0.0
H480 H 0.14053 0.94244 0.9266 0.0
C481 C 0.06329 0.85291 0.87685 0.0
H482 H 0.05463 0.8137 0.92497 0.0
C483 C 0.11207 0.92679 0.87784 0.0
C484 C 0.13795 0.96037 0.89583 0.0
H485 H 0.04018 0.82925 0.86296 0.0
H486 H 0.12702 0.95796 0.86459 0.0
C487 C 0.11949 0.91818 0.91262 0.0
C488 C 0.17234 0.13567 0.41245 0.0
C489 C 0.1476 0.15328 0.39572 0.0
H490 H 0.21333 0.07197 0.42471 0.0
C491 C 0.1549 0.12719 0.37772 0.0
H492 H 0.16949 0.15695 0.42643 0.0
C493 C 0.18061 0.07897 0.37667 0.0
C494 C 0.19919 0.05628 0.39364 0.0
H495 H 0.13793 0.14154 0.3645 0.0
H496 H 0.18077 0.05559 0.36279 0.0
C497 C 0.19852 0.08794 0.41139 0.0
C498 C 0.07127 0.19552 0.87691 0.0
C499 C 0.11235 0.21362 0.8939 0.0
H500 H -0.0337 0.15347 0.86467 0.0
C501 C 0.07986 0.21225 0.91168 0.0
H502 H 0.09493 0.19618 0.86302 0.0
C503 C 0.00605 0.18619 0.91269 0.0
C504 C -0.03609 0.1622 0.89591 0.0
H505 H 0.11047 0.22663 0.92501 0.0
H506 H -0.01818 0.18296 0.92667 0.0
C507 C -0.00256 0.16991 0.87791 0.0
C508 C 0.84472 0.08766 0.37704 0.0
C509 C 0.86844 0.12867 0.39405 0.0
H510 H 0.78081 -0.01735 0.36476 0.0
C511 C 0.83736 0.09622 0.41183 0.0
H512 H 0.86762 0.11133 0.36314 0.0
C513 C 0.78904 0.02235 0.41283 0.0
C514 C 0.77033 -0.01982 0.39603 0.0
H515 H 0.85412 0.12681 0.42518 0.0
H516 H 0.76821 -0.00193 0.42682 0.0
C517 C 0.79595 0.01379 0.37803 0.0
C518 C 0.73619 0.80502 0.91252 0.0
C519 C 0.76068 0.78722 0.89577 0.0
H520 H 0.69538 0.86885 0.92483 0.0
C521 C 0.75309 0.8131 0.87777 0.0
H522 H 0.73925 0.78389 0.9265 0.0
C523 C 0.72735 0.86129 0.87676 0.0
C524 C 0.70904 0.88418 0.89375 0.0
H525 H 0.76986 0.7986 0.86454 0.0
H526 H 0.72696 0.8845 0.86288 0.0
C527 C 0.70999 0.85273 0.9115 0.0
C528 C 0.05368 0.52565 0.12398 0.0
C529 C 0.0437 0.55019 0.14197 0.0
H530 H 0.08654 0.45891 0.10917 0.0
C531 C 0.0494 0.51786 0.15897 0.0
H532 H 0.049 0.54927 0.1106 0.0
C533 C 0.0715 0.46689 0.15812 0.0
C534 C 0.08793 0.4472 0.14025 0.0
H535 H 0.04141 0.53521 0.17301 0.0
H536 H 0.07833 0.44508 0.17157 0.0
C537 C 0.07587 0.47453 0.12314 0.0
C538 C 0.57741 0.09331 0.65824 0.0
C539 C 0.61338 0.10916 0.64036 0.0
H540 H 0.47918 0.06352 0.67312 0.0
C541 C 0.57396 0.09684 0.62325 0.0
H542 H 0.60607 0.10043 0.6717 0.0
C543 C 0.50075 0.07468 0.62409 0.0
C544 C 0.46632 0.06495 0.64207 0.0
H545 H 0.60013 0.10711 0.60928 0.0
H546 H 0.47241 0.06964 0.6107 0.0
C547 C 0.50443 0.07122 0.65908 0.0
C548 C 0.45382 0.58975 0.15826 0.0
C549 C 0.47399 0.62572 0.14037 0.0
H550 H 0.3847 0.49157 0.17316 0.0
C551 C 0.44654 0.58623 0.12327 0.0
H552 H 0.47566 0.61847 0.1717 0.0
C553 C 0.39494 0.51302 0.12413 0.0
C554 C 0.37003 0.47871 0.14211 0.0
H555 H 0.46248 0.61239 0.1093 0.0
H556 H 0.37133 0.48468 0.11074 0.0
C557 C 0.40234 0.51677 0.15912 0.0
C558 C 0.83639 0.47312 0.65826 0.0
C559 C 0.82054 0.49305 0.64036 0.0
H560 H 0.86601 0.4046 0.67321 0.0
C561 C 0.83317 0.46598 0.62327 0.0
H562 H 0.82911 0.49473 0.6717 0.0
C563 C 0.85537 0.41488 0.62416 0.0
C564 C 0.86477 0.39009 0.64216 0.0
H565 H 0.82297 0.4818 0.60928 0.0
H566 H 0.86051 0.39147 0.61079 0.0
C567 C 0.8585 0.42216 0.65915 0.0
C568 C 0.40403 0.86922 0.15905 0.0
C569 C 0.44211 0.87541 0.14203 0.0
H570 H 0.30242 0.84008 0.17169 0.0
C571 C 0.40765 0.86562 0.12406 0.0
H572 H 0.42931 0.87698 0.17309 0.0
C573 C 0.33444 0.84348 0.12324 0.0
C574 C 0.29506 0.83123 0.14036 0.0
H575 H 0.43596 0.8706 0.11066 0.0
H576 H 0.30825 0.83316 0.10927 0.0
C577 C 0.33106 0.84715 0.15823 0.0
C578 C 0.51361 0.42717 0.62406 0.0
C579 C 0.53844 0.46155 0.64204 0.0
H580 H 0.44611 0.32775 0.60923 0.0
C581 C 0.50603 0.42357 0.65905 0.0
H582 H 0.53728 0.45546 0.61067 0.0
C583 C 0.45453 0.3506 0.65819 0.0
C584 C 0.43443 0.31456 0.64031 0.0
H585 H 0.52361 0.44884 0.67309 0.0
H586 H 0.43262 0.32194 0.67164 0.0
C587 C 0.46198 0.35397 0.6232 0.0
C588 C 0.40273 0.86999 0.38171 0.0
C589 C 0.37081 0.87631 0.39872 0.0
H590 H 0.47538 0.84092 0.36913 0.0
C591 C 0.39555 0.86676 0.41671 0.0
H592 H 0.38517 0.87757 0.36767 0.0
C593 C 0.44673 0.84475 0.41757 0.0
C594 C 0.47394 0.83241 0.40047 0.0
H595 H 0.3722 0.87185 0.43009 0.0
H596 H 0.46266 0.83462 0.43155 0.0
C597 C 0.45377 0.84807 0.38258 0.0
C598 C 0.57183 0.46469 0.91759 0.0
C599 C 0.61129 0.49165 0.90047 0.0
H600 H 0.47017 0.39042 0.93016 0.0
C601 C 0.57528 0.47169 0.8826 0.0
H602 H 0.59803 0.48054 0.93155 0.0
C603 C 0.5022 0.42087 0.88177 0.0
C604 C 0.46408 0.38896 0.89879 0.0
H605 H 0.60398 0.4932 0.86914 0.0
H606 H 0.47693 0.40332 0.86773 0.0
C607 C 0.49853 0.41373 0.91676 0.0
C608 C 0.07246 0.59062 0.38283 0.0
C609 C 0.08901 0.62688 0.40068 0.0
H610 H 0.04283 0.49219 0.36796 0.0
C611 C 0.07763 0.58767 0.4178 0.0
H612 H 0.0788 0.61913 0.36938 0.0
C613 C 0.05602 0.51442 0.41697 0.0
C614 C 0.04594 0.47983 0.39899 0.0
H615 H 0.08845 0.61407 0.43176 0.0
H616 H 0.05185 0.48629 0.43035 0.0
C617 C 0.05095 0.51762 0.38199 0.0
C618 C 0.51258 0.07381 0.91675 0.0
C619 C 0.53735 0.0641 0.89878 0.0
H620 H 0.44544 0.10609 0.93154 0.0
C621 C 0.50547 0.07024 0.88176 0.0
H622 H 0.5359 0.06886 0.93015 0.0
C623 C 0.45443 0.09217 0.88259 0.0
C624 C 0.43423 0.10801 0.90046 0.0
H625 H 0.52305 0.06252 0.86772 0.0
H626 H 0.43285 0.0992 0.86913 0.0
C627 C 0.46139 0.09582 0.91758 0.0
C628 C 0.33669 0.4756 0.41745 0.0
C629 C 0.29704 0.44894 0.40035 0.0
H630 H 0.4385 0.54961 0.42998 0.0
C631 C 0.33285 0.46918 0.38245 0.0
H632 H 0.31065 0.45953 0.43143 0.0
C633 C 0.40592 0.51999 0.38159 0.0
C634 C 0.44424 0.5516 0.39861 0.0
H635 H 0.30399 0.44791 0.369 0.0
H636 H 0.43104 0.53777 0.36754 0.0
C637 C 0.40998 0.52654 0.41659 0.0
C638 C 0.85711 0.42277 0.88191 0.0
C639 C 0.86232 0.46069 0.89891 0.0
H640 H 0.82908 0.32116 0.86931 0.0
C641 C 0.85242 0.42622 0.91689 0.0
H642 H 0.86509 0.44811 0.86787 0.0
C643 C 0.83077 0.35297 0.91773 0.0
C644 C 0.8192 0.31363 0.90062 0.0
H645 H 0.85674 0.45446 0.93027 0.0
H646 H 0.82009 0.32667 0.9317 0.0
C647 C 0.83557 0.34977 0.88276 0.0
C648 C 0.058 0.27739 0.27863 0.0
C649 C 0.11735 0.32021 0.29062 0.0
H650 H 0.02016 0.24195 0.24988 0.0
C651 C 0.18571 0.3626 0.28211 0.0
H652 H 0.00487 0.24313 0.28472 0.0
C653 C 0.19453 0.36188 0.26211 0.0
C654 C 0.1352 0.31883 0.25013 0.0
H655 H 0.23239 0.39697 0.2909 0.0
H656 H 0.24772 0.39582 0.256 0.0
C657 C 0.06683 0.27667 0.25864 0.0
C658 C 0.76162 0.08543 0.75861 0.0
C659 C 0.78868 0.15418 0.75019 0.0
H660 H 0.73232 0.02284 0.7846 0.0
C661 C 0.80571 0.21359 0.76226 0.0
H662 H 0.74909 0.03868 0.74979 0.0
C663 C 0.796 0.20446 0.78226 0.0
C664 C 0.76911 0.1357 0.79067 0.0
H665 H 0.82566 0.26708 0.75623 0.0
H666 H 0.80888 0.25122 0.79112 0.0
C667 C 0.7519 0.0763 0.77859 0.0
C668 C 0.56085 0.73633 0.25869 0.0
C669 C 0.60274 0.80495 0.25021 0.0
H670 H 0.52806 0.67405 0.28478 0.0
C671 C 0.64512 0.86446 0.26223 0.0
H672 H 0.52682 0.68949 0.24989 0.0
C673 C 0.64588 0.85558 0.28222 0.0
C674 C 0.6042 0.78695 0.2907 0.0
H675 H 0.679 0.91781 0.25616 0.0
H676 H 0.68025 0.9024 0.29099 0.0
C677 C 0.56161 0.72744 0.2787 0.0
C678 C 0.84115 0.664 0.75862 0.0
C679 C 0.7728 0.62191 0.7501 0.0
H680 H 0.90305 0.69739 0.78471 0.0
C681 C 0.71341 0.57888 0.76206 0.0
H682 H 0.88786 0.69871 0.74988 0.0
C683 C 0.72218 0.57808 0.78207 0.0
C684 C 0.79053 0.62036 0.79059 0.0
H685 H 0.66024 0.545 0.75595 0.0
H686 H 0.67546 0.54371 0.79085 0.0
C687 C 0.84991 0.66319 0.77861 0.0
C688 C 0.18567 0.8082 0.25869 0.0
C689 C 0.11726 0.78231 0.25025 0.0
H690 H 0.24804 0.83713 0.28474 0.0
C691 C 0.05818 0.7661 0.26231 0.0
H692 H 0.23216 0.82028 0.24986 0.0
C693 C 0.06732 0.77585 0.28229 0.0
C694 C 0.13575 0.80197 0.29073 0.0
H695 H 0.00501 0.7473 0.25627 0.0
H696 H 0.02085 0.76414 0.29109 0.0
C697 C 0.19482 0.81795 0.27869 0.0
C698 C 0.34794 0.13121 0.78216 0.0
C699 C 0.30545 0.15718 0.79061 0.0
H700 H 0.38155 0.10246 0.75609 0.0
C701 C 0.26281 0.1737 0.77856 0.0
H702 H 0.38217 0.1189 0.79099 0.0
C703 C 0.2624 0.16419 0.75857 0.0
C704 C 0.3047 0.13801 0.75011 0.0
H705 H 0.22846 0.19256 0.7846 0.0
H706 H 0.22783 0.17614 0.74977 0.0
C707 C 0.34753 0.12169 0.76215 0.0
C708 C 0.27939 0.28112 1.01119 0.0
C709 C 0.23058 0.21705 1.00159 0.0
H710 H 0.30367 0.34504 0.03684 0.0
C711 C 0.16652 0.16728 1.01104 0.0
H712 H 0.32921 0.32041 1.00428 0.0
C713 C 0.15139 0.18188 0.0297 0.0
C714 C 0.20065 0.24591 0.03929 0.0
H715 H 0.12763 0.11785 1.00387 0.0
H716 H 0.10194 0.14261 0.03676 0.0
C717 C 0.26476 0.29522 0.02982 0.0
C718 C -0.02947 0.18353 0.51122 0.0
C719 C -0.0145 0.24775 0.5017 0.0
H720 H 0.9301 0.11927 0.53699 0.0
C721 C -0.02897 0.29721 0.51124 0.0
H722 H -0.01954 0.14416 0.5041 0.0
C723 C 0.94235 0.28304 0.52987 0.0
C724 C 0.92681 0.21875 0.5394 0.0
H725 H -0.01791 0.34715 0.50427 0.0
H726 H 0.93201 0.32242 0.53683 0.0
C727 C 0.94085 0.16887 0.52988 0.0
C728 C 0.62749 0.95469 0.02967 0.0
C729 C 0.67636 0.93958 0.03923 0.0
H730 H 0.6031 -0.00556 1.00409 0.0
C731 C 0.74042 0.95421 0.02974 0.0
H732 H 0.57765 0.94389 0.0366 0.0
C733 C 0.75547 -0.01589 1.0111 0.0
C734 C 0.70615 -0.00126 1.00156 0.0
H735 H 0.77937 0.94381 0.03687 0.0
H736 H 0.80491 -0.00547 1.00402 0.0
C737 C 0.64205 -0.01638 1.01106 0.0
C738 C 0.64381 0.64423 0.52972 0.0
C739 C 0.70786 0.69365 0.53918 0.0
H740 H 0.57926 0.61899 0.5042 0.0
C741 C 0.75698 0.75776 0.52961 0.0
H742 H 0.605 0.59435 0.53672 0.0
C743 C 0.74174 0.77237 0.51097 0.0
C744 C 0.6777 0.72252 0.50152 0.0
H745 H 0.80638 0.79711 0.53668 0.0
H746 H 0.78051 0.82188 0.50382 0.0
C747 C 0.62907 0.65834 0.5111 0.0
C748 C 0.93851 0.75756 1.01118 0.0
C749 C 0.92373 0.69345 1.00162 0.0
H750 H -0.02127 0.82171 0.03698 0.0
C751 C 0.9384 0.64408 1.01111 0.0
H752 H 0.92842 0.79686 1.00408 0.0
C753 C -0.03295 0.65824 0.02974 0.0
C754 C -0.01764 0.72241 0.03932 0.0
H755 H 0.92749 0.59421 1.00411 0.0
H756 H -0.02248 0.61892 0.03668 0.0
C757 C -0.03184 0.77221 0.02983 0.0
C758 C 0.15312 0.95632 0.51112 0.0
C759 C 0.20245 0.94176 0.50153 0.0
H760 H 0.12923 -0.00354 0.53693 0.0
C761 C 0.26655 0.95681 0.51101 0.0
H762 H 0.10368 0.94594 0.50405 0.0
C763 C 0.28111 -0.0144 0.52964 0.0
C764 C 0.23224 0.00066 0.53924 0.0
H765 H 0.3055 0.94605 0.504 0.0
H766 H 0.33095 -0.00364 0.53656 0.0
C767 C 0.16818 -0.01391 0.52977 0.0
loop_
_geom_bond_atom_site_label_1
_geom_bond_atom_site_label_2
_geom_bond_distance
_geom_bond_site_symmetry_2
_ccdc_geom_bond_type
C0 O16 1.251 . S
C0 O18 1.254 . S
N1 C2 1.333 . S
N1 C6 1.307 . S
N1 Zn7 2.020 . S
C2 N1 1.333 . S
C2 C3 1.379 . S
C2 H20 0.952 . S
C3 C2 1.379 . S
C3 C4 1.390 . S
C3 H30 0.949 . S
C4 C3 1.390 . S
C4 C5 1.357 . S
C5 C4 1.357 . S
C5 C6 1.370 . S
C5 H31 0.950 . S
C6 N1 1.307 . S
C6 C5 1.370 . S
C6 H24 0.948 . S
Zn7 N1 2.020 . S
Zn7 O16 2.039 . S
Zn7 O22 2.034 . S
Zn7 O26 2.025 . S
Zn7 O28 2.024 . S
C8 O27 1.246 . S
C8 O28 1.249 . S
N9 C10 1.307 . S
N9 C11 1.333 . S
N9 Zn15 2.020 . S
C10 N9 1.307 . S
C10 C14 1.370 . S
C10 H21 0.948 . S
C11 N9 1.333 . S
C11 C12 1.379 . S
C11 H19 0.952 . S
C12 C11 1.379 . S
C12 C13 1.390 . S
C12 H32 0.949 . S
C13 C12 1.390 . S
C13 C14 1.357 . S
C14 C10 1.370 . S
C14 C13 1.357 . S
C14 H33 0.950 . S
Zn15 N9 2.020 . S
Zn15 O18 2.025 . S
Zn15 O23 2.024 . S
Zn15 O25 2.039 . S
Zn15 O27 2.034 . S
O16 C0 1.251 . S
O16 Zn7 2.039 . S
C17 O22 1.246 . S
C17 O23 1.249 . S
O18 C0 1.254 . S
O18 Zn15 2.025 . S
H19 C11 0.952 . S
H20 C2 0.952 . S
H21 C10 0.948 . S
O22 Zn7 2.034 . S
O22 C17 1.246 . S
O23 Zn15 2.024 . S
O23 C17 1.249 . S
H24 C6 0.948 . S
O25 Zn15 2.039 . S
O25 C29 1.251 . S
O26 Zn7 2.025 . S
O26 C29 1.254 . S
O27 C8 1.246 . S
O27 Zn15 2.034 . S
O28 Zn7 2.024 . S
O28 C8 1.249 . S
C29 O25 1.251 . S
C29 O26 1.254 . S
H30 C3 0.949 . S
H31 C5 0.950 . S
H32 C12 0.949 . S
H33 C14 0.950 . S
C34 O50 1.251 1_455 S
C34 O52 1.254 1_455 S
N35 C36 1.333 . S
N35 C40 1.307 . S
N35 Zn41 2.020 . S
C36 N35 1.333 . S
C36 C37 1.379 . S
C36 H54 0.952 . S
C37 C36 1.379 . S
C37 C38 1.390 . S
C37 H64 0.949 1_655 S
C38 C37 1.390 . S
C38 C39 1.357 . S
C39 C38 1.357 . S
C39 C40 1.370 . S
C39 H65 0.950 . S
C40 N35 1.307 . S
C40 C39 1.370 . S
C40 H58 0.948 . S
Zn41 N35 2.020 . S
Zn41 O50 2.039 . S
Zn41 O56 2.034 . S
Zn41 O60 2.025 . S
Zn41 O62 2.024 . S
C42 O61 1.246 . S
C42 O62 1.249 . S
N43 C44 1.307 . S
N43 C45 1.333 . S
N43 Zn49 2.020 . S
C44 N43 1.307 . S
C44 C48 1.370 . S
C44 H55 0.948 . S
C45 N43 1.333 . S
C45 C46 1.379 . S
C45 H53 0.952 . S
C46 C45 1.379 . S
C46 C47 1.390 . S
C46 H66 0.949 . S
C47 C46 1.390 . S
C47 C48 1.357 . S
C48 C44 1.370 . S
C48 C47 1.357 . S
C48 H67 0.950 . S
Zn49 N43 2.020 . S
Zn49 O52 2.025 . S
Zn49 O57 2.024 . S
Zn49 O59 2.039 . S
Zn49 O61 2.034 . S
O50 C34 1.251 1_655 S
O50 Zn41 2.039 . S
C51 O56 1.246 . S
C51 O57 1.249 . S
O52 C34 1.254 1_655 S
O52 Zn49 2.025 . S
H53 C45 0.952 . S
H54 C36 0.952 . S
H55 C44 0.948 . S
O56 Zn41 2.034 . S
O56 C51 1.246 . S
O57 Zn49 2.024 . S
O57 C51 1.249 . S
H58 C40 0.948 . S
O59 Zn49 2.039 . S
O59 C63 1.251 . S
O60 Zn41 2.025 . S
O60 C63 1.254 . S
O61 C42 1.246 . S
O61 Zn49 2.034 . S
O62 Zn41 2.024 . S
O62 C42 1.249 . S
C63 O59 1.251 . S
C63 O60 1.254 . S
H64 C37 0.949 1_455 S
H65 C39 0.950 . S
H66 C46 0.949 . S
H67 C48 0.950 . S
C68 O84 1.251 1_545 S
C68 O86 1.254 1_545 S
N69 C70 1.333 . S
N69 C74 1.307 . S
N69 Zn75 2.020 . S
C70 N69 1.333 . S
C70 C71 1.379 . S
C70 H88 0.952 . S
C71 C70 1.379 . S
C71 C72 1.390 . S
C71 H98 0.949 1_565 S
C72 C71 1.390 . S
C72 C73 1.357 . S
C73 C72 1.357 . S
C73 C74 1.370 . S
C73 H99 0.950 . S
C74 N69 1.307 . S
C74 C73 1.370 . S
C74 H92 0.948 . S
Zn75 N69 2.020 . S
Zn75 O84 2.039 . S
Zn75 O90 2.034 . S
Zn75 O94 2.025 . S
Zn75 O96 2.024 . S
C76 O95 1.246 . S
C76 O96 1.249 . S
N77 C78 1.307 . S
N77 C79 1.333 . S
N77 Zn83 2.020 . S
C78 N77 1.307 . S
C78 C82 1.370 . S
C78 H89 0.948 . S
C79 N77 1.333 . S
C79 C80 1.379 . S
C79 H87 0.952 . S
C80 C79 1.379 . S
C80 C81 1.390 . S
C80 H100 0.949 . S
C81 C80 1.390 . S
C81 C82 1.357 . S
C82 C78 1.370 . S
C82 C81 1.357 . S
C82 H101 0.950 . S
Zn83 N77 2.020 . S
Zn83 O86 2.025 . S
Zn83 O91 2.024 . S
Zn83 O93 2.039 . S
Zn83 O95 2.034 . S
O84 C68 1.251 1_565 S
O84 Zn75 2.039 . S
C85 O90 1.246 . S
C85 O91 1.249 . S
O86 C68 1.254 1_565 S
O86 Zn83 2.025 . S
H87 C79 0.952 . S
H88 C70 0.952 . S
H89 C78 0.948 . S
O90 Zn75 2.034 . S
O90 C85 1.246 . S
O91 Zn83 2.024 . S
O91 C85 1.249 . S
H92 C74 0.948 . S
O93 Zn83 2.039 . S
O93 C97 1.251 . S
O94 Zn75 2.025 . S
O94 C97 1.254 . S
O95 C76 1.246 . S
O95 Zn83 2.034 . S
O96 Zn75 2.024 . S
O96 C76 1.249 . S
C97 O93 1.251 . S
C97 O94 1.254 . S
H98 C71 0.949 1_545 S
H99 C73 0.950 . S
H100 C80 0.949 . S
H101 C82 0.950 . S
C102 O118 1.251 . S
C102 O120 1.254 . S
N103 C104 1.333 . S
N103 C108 1.307 . S
N103 Zn109 2.020 . S
C104 N103 1.333 . S
C104 C105 1.379 . S
C104 H122 0.952 . S
C105 C104 1.379 . S
C105 C106 1.390 . S
C105 H132 0.949 . S
C106 C105 1.390 . S
C106 C107 1.357 . S
C107 C106 1.357 . S
C107 C108 1.370 . S
C107 H133 0.950 . S
C108 N103 1.307 . S
C108 C107 1.370 . S
C108 H126 0.948 . S
Zn109 N103 2.020 . S
Zn109 O118 2.039 . S
Zn109 O124 2.034 . S
Zn109 O128 2.025 . S
Zn109 O130 2.024 . S
C110 O129 1.246 . S
C110 O130 1.249 . S
N111 C112 1.307 . S
N111 C113 1.333 . S
N111 Zn117 2.020 . S
C112 N111 1.307 . S
C112 C116 1.370 . S
C112 H123 0.948 . S
C113 N111 1.333 . S
C113 C114 1.379 . S
C113 H121 0.952 . S
C114 C113 1.379 . S
C114 C115 1.390 . S
C114 H134 0.949 . S
C115 C114 1.390 . S
C115 C116 1.357 . S
C116 C112 1.370 . S
C116 C115 1.357 . S
C116 H135 0.950 . S
Zn117 N111 2.020 . S
Zn117 O120 2.025 . S
Zn117 O125 2.024 . S
Zn117 O127 2.039 . S
Zn117 O129 2.034 . S
O118 C102 1.251 . S
O118 Zn109 2.039 . S
C119 O124 1.246 . S
C119 O125 1.249 . S
O120 C102 1.254 . S
O120 Zn117 2.025 . S
H121 C113 0.952 . S
H122 C104 0.952 . S
H123 C112 0.948 . S
O124 Zn109 2.034 . S
O124 C119 1.246 . S
O125 Zn117 2.024 . S
O125 C119 1.249 . S
H126 C108 0.948 . S
O127 Zn117 2.039 . S
O127 C131 1.251 . S
O128 Zn109 2.025 . S
O128 C131 1.254 . S
O129 C110 1.246 . S
O129 Zn117 2.034 . S
O130 Zn109 2.024 . S
O130 C110 1.249 . S
C131 O127 1.251 . S
C131 O128 1.254 . S
H132 C105 0.949 . S
H133 C107 0.950 . S
H134 C114 0.949 . S
H135 C116 0.950 . S
C136 O152 1.251 1_655 S
C136 O154 1.254 1_655 S
N137 C138 1.333 . S
N137 C142 1.307 . S
N137 Zn143 2.020 . S
C138 N137 1.333 . S
C138 C139 1.379 . S
C138 H156 0.952 . S
C139 C138 1.379 . S
C139 C140 1.390 . S
C139 H166 0.949 1_455 S
C140 C139 1.390 . S
C140 C141 1.357 . S
C141 C140 1.357 . S
C141 C142 1.370 . S
C141 H167 0.950 . S
C142 N137 1.307 . S
C142 C141 1.370 . S
C142 H160 0.948 . S
Zn143 N137 2.020 . S
Zn143 O152 2.039 . S
Zn143 O158 2.034 . S
Zn143 O162 2.025 . S
Zn143 O164 2.024 . S
C144 O163 1.246 . S
C144 O164 1.249 . S
N145 C146 1.307 . S
N145 C147 1.333 . S
N145 Zn151 2.020 . S
C146 N145 1.307 . S
C146 C150 1.370 . S
C146 H157 0.948 . S
C147 N145 1.333 . S
C147 C148 1.379 . S
C147 H155 0.952 . S
C148 C147 1.379 . S
C148 C149 1.390 . S
C148 H168 0.949 . S
C149 C148 1.390 . S
C149 C150 1.357 . S
C150 C146 1.370 . S
C150 C149 1.357 . S
C150 H169 0.950 . S
Zn151 N145 2.020 . S
Zn151 O154 2.025 . S
Zn151 O159 2.024 . S
Zn151 O161 2.039 . S
Zn151 O163 2.034 . S
O152 C136 1.251 1_455 S
O152 Zn143 2.039 . S
C153 O158 1.246 . S
C153 O159 1.249 . S
O154 C136 1.254 1_455 S
O154 Zn151 2.025 . S
H155 C147 0.952 . S
H156 C138 0.952 . S
H157 C146 0.948 . S
O158 Zn143 2.034 . S
O158 C153 1.246 . S
O159 Zn151 2.024 . S
O159 C153 1.249 . S
H160 C142 0.948 . S
O161 Zn151 2.039 . S
O161 C165 1.251 . S
O162 Zn143 2.025 . S
O162 C165 1.254 . S
O163 C144 1.246 . S
O163 Zn151 2.034 . S
O164 Zn143 2.024 . S
O164 C144 1.249 . S
C165 O161 1.251 . S
C165 O162 1.254 . S
H166 C139 0.949 1_655 S
H167 C141 0.950 . S
H168 C148 0.949 . S
H169 C150 0.950 . S
C170 O186 1.251 1_565 S
C170 O188 1.254 1_565 S
N171 C172 1.333 . S
N171 C176 1.307 . S
N171 Zn177 2.020 . S
C172 N171 1.333 . S
C172 C173 1.379 . S
C172 H190 0.952 . S
C173 C172 1.379 . S
C173 C174 1.390 . S
C173 H200 0.949 1_545 S
C174 C173 1.390 . S
C174 C175 1.357 . S
C175 C174 1.357 . S
C175 C176 1.370 . S
C175 H201 0.950 . S
C176 N171 1.307 . S
C176 C175 1.370 . S
C176 H194 0.948 . S
Zn177 N171 2.020 . S
Zn177 O186 2.039 . S
Zn177 O192 2.034 . S
Zn177 O196 2.025 . S
Zn177 O198 2.024 . S
C178 O197 1.246 . S
C178 O198 1.249 . S
N179 C180 1.307 . S
N179 C181 1.333 . S
N179 Zn185 2.020 . S
C180 N179 1.307 . S
C180 C184 1.370 . S
C180 H191 0.948 . S
C181 N179 1.333 . S
C181 C182 1.379 . S
C181 H189 0.952 . S
C182 C181 1.379 . S
C182 C183 1.390 . S
C182 H202 0.949 . S
C183 C182 1.390 . S
C183 C184 1.357 . S
C184 C180 1.370 . S
C184 C183 1.357 . S
C184 H203 0.950 . S
Zn185 N179 2.020 . S
Zn185 O188 2.025 . S
Zn185 O193 2.024 . S
Zn185 O195 2.039 . S
Zn185 O197 2.034 . S
O186 C170 1.251 1_545 S
O186 Zn177 2.039 . S
C187 O192 1.246 . S
C187 O193 1.249 . S
O188 C170 1.254 1_545 S
O188 Zn185 2.025 . S
H189 C181 0.952 . S
H190 C172 0.952 . S
H191 C180 0.948 . S
O192 Zn177 2.034 . S
O192 C187 1.246 . S
O193 Zn185 2.024 . S
O193 C187 1.249 . S
H194 C176 0.948 . S
O195 Zn185 2.039 . S
O195 C199 1.251 . S
O196 Zn177 2.025 . S
O196 C199 1.254 . S
O197 C178 1.246 . S
O197 Zn185 2.034 . S
O198 Zn177 2.024 . S
O198 C178 1.249 . S
C199 O195 1.251 . S
C199 O196 1.254 . S
H200 C173 0.949 1_565 S
H201 C175 0.950 . S
H202 C182 0.949 . S
H203 C184 0.950 . S
C204 O220 1.251 . S
C204 O222 1.254 . S
N205 C206 1.333 . S
N205 C210 1.307 . S
N205 Zn211 2.020 . S
C206 N205 1.333 . S
C206 C207 1.379 . S
C206 H224 0.952 . S
C207 C206 1.379 . S
C207 C208 1.390 . S
C207 H234 0.949 . S
C208 C207 1.390 . S
C208 C209 1.357 . S
C209 C208 1.357 . S
C209 C210 1.370 . S
C209 H235 0.950 . S
C210 N205 1.307 . S
C210 C209 1.370 . S
C210 H228 0.948 . S
Zn211 N205 2.020 . S
Zn211 O220 2.039 . S
Zn211 O226 2.034 . S
Zn211 O230 2.025 . S
Zn211 O232 2.024 . S
C212 O231 1.246 . S
C212 O232 1.249 . S
N213 C214 1.307 . S
N213 C215 1.333 . S
N213 Zn219 2.020 . S
C214 N213 1.307 . S
C214 C218 1.370 . S
C214 H225 0.948 . S
C215 N213 1.333 . S
C215 C216 1.379 . S
C215 H223 0.952 . S
C216 C215 1.379 . S
C216 C217 1.390 . S
C216 H236 0.949 . S
C217 C216 1.390 . S
C217 C218 1.357 . S
C218 C214 1.370 . S
C218 C217 1.357 . S
C218 H237 0.950 . S
Zn219 N213 2.020 . S
Zn219 O222 2.025 . S
Zn219 O227 2.024 . S
Zn219 O229 2.039 . S
Zn219 O231 2.034 . S
O220 C204 1.251 . S
O220 Zn211 2.039 . S
C221 O226 1.246 . S
C221 O227 1.249 . S
O222 C204 1.254 . S
O222 Zn219 2.025 . S
H223 C215 0.952 . S
H224 C206 0.952 . S
H225 C214 0.948 . S
O226 Zn211 2.034 . S
O226 C221 1.246 . S
O227 Zn219 2.024 . S
O227 C221 1.249 . S
H228 C210 0.948 . S
O229 Zn219 2.039 . S
O229 C233 1.251 . S
O230 Zn211 2.025 . S
O230 C233 1.254 . S
O231 C212 1.246 . S
O231 Zn219 2.034 . S
O232 Zn211 2.024 . S
O232 C212 1.249 . S
C233 O229 1.251 . S
C233 O230 1.254 . S
H234 C207 0.949 . S
H235 C209 0.950 . S
H236 C216 0.949 . S
H237 C218 0.950 . S
C238 O254 1.251 1_455 S
C238 O256 1.254 1_455 S
N239 C240 1.333 . S
N239 C244 1.307 . S
N239 Zn245 2.020 . S
C240 N239 1.333 . S
C240 C241 1.379 . S
C240 H258 0.952 . S
C241 C240 1.379 . S
C241 C242 1.390 . S
C241 H268 0.949 1_655 S
C242 C241 1.390 . S
C242 C243 1.357 . S
C243 C242 1.357 . S
C243 C244 1.370 . S
C243 H269 0.950 . S
C244 N239 1.307 . S
C244 C243 1.370 . S
C244 H262 0.948 . S
Zn245 N239 2.020 . S
Zn245 O254 2.039 . S
Zn245 O260 2.034 . S
Zn245 O264 2.025 . S
Zn245 O266 2.024 . S
C246 O265 1.246 . S
C246 O266 1.249 . S
N247 C248 1.307 . S
N247 C249 1.333 . S
N247 Zn253 2.020 . S
C248 N247 1.307 . S
C248 C252 1.370 . S
C248 H259 0.948 . S
C249 N247 1.333 . S
C249 C250 1.379 . S
C249 H257 0.952 . S
C250 C249 1.379 . S
C250 C251 1.390 . S
C250 H270 0.949 . S
C251 C250 1.390 . S
C251 C252 1.357 . S
C252 C248 1.370 . S
C252 C251 1.357 . S
C252 H271 0.950 . S
Zn253 N247 2.020 . S
Zn253 O256 2.025 . S
Zn253 O261 2.024 . S
Zn253 O263 2.039 . S
Zn253 O265 2.034 . S
O254 C238 1.251 1_655 S
O254 Zn245 2.039 . S
C255 O260 1.246 . S
C255 O261 1.249 . S
O256 C238 1.254 1_655 S
O256 Zn253 2.025 . S
H257 C249 0.952 . S
H258 C240 0.952 . S
H259 C248 0.948 . S
O260 Zn245 2.034 . S
O260 C255 1.246 . S
O261 Zn253 2.024 . S
O261 C255 1.249 . S
H262 C244 0.948 . S
O263 Zn253 2.039 . S
O263 C267 1.251 . S
O264 Zn245 2.025 . S
O264 C267 1.254 . S
O265 C246 1.246 . S
O265 Zn253 2.034 . S
O266 Zn245 2.024 . S
O266 C246 1.249 . S
C267 O263 1.251 . S
C267 O264 1.254 . S
H268 C241 0.949 1_455 S
H269 C243 0.950 . S
H270 C250 0.949 . S
H271 C252 0.950 . S
C272 O288 1.251 1_545 S
C272 O290 1.254 1_545 S
N273 C274 1.333 . S
N273 C278 1.307 . S
N273 Zn279 2.020 . S
C274 N273 1.333 . S
C274 C275 1.379 . S
C274 H292 0.952 . S
C275 C274 1.379 . S
C275 C276 1.390 . S
C275 H302 0.949 1_565 S
C276 C275 1.390 . S
C276 C277 1.357 . S
C277 C276 1.357 . S
C277 C278 1.370 . S
C277 H303 0.950 . S
C278 N273 1.307 . S
C278 C277 1.370 . S
C278 H296 0.948 . S
Zn279 N273 2.020 . S
Zn279 O288 2.039 . S
Zn279 O294 2.034 . S
Zn279 O298 2.025 . S
Zn279 O300 2.024 . S
C280 O299 1.246 . S
C280 O300 1.249 . S
N281 C282 1.307 . S
N281 C283 1.333 . S
N281 Zn287 2.020 . S
C282 N281 1.307 . S
C282 C286 1.370 . S
C282 H293 0.948 . S
C283 N281 1.333 . S
C283 C284 1.379 . S
C283 H291 0.952 . S
C284 C283 1.379 . S
C284 C285 1.390 . S
C284 H304 0.949 . S
C285 C284 1.390 . S
C285 C286 1.357 . S
C286 C282 1.370 . S
C286 C285 1.357 . S
C286 H305 0.950 . S
Zn287 N281 2.020 . S
Zn287 O290 2.025 . S
Zn287 O295 2.024 . S
Zn287 O297 2.039 . S
Zn287 O299 2.034 . S
O288 C272 1.251 1_565 S
O288 Zn279 2.039 . S
C289 O294 1.246 . S
C289 O295 1.249 . S
O290 C272 1.254 1_565 S
O290 Zn287 2.025 . S
H291 C283 0.952 . S
H292 C274 0.952 . S
H293 C282 0.948 . S
O294 Zn279 2.034 . S
O294 C289 1.246 . S
O295 Zn287 2.024 . S
O295 C289 1.249 . S
H296 C278 0.948 . S
O297 Zn287 2.039 . S
O297 C301 1.251 . S
O298 Zn279 2.025 . S
O298 C301 1.254 . S
O299 C280 1.246 . S
O299 Zn287 2.034 . S
O300 Zn279 2.024 . S
O300 C280 1.249 . S
C301 O297 1.251 . S
C301 O298 1.254 . S
H302 C275 0.949 1_545 S
H303 C277 0.950 . S
H304 C284 0.949 . S
H305 C286 0.950 . S
C306 O322 1.251 . S
C306 O324 1.254 . S
N307 C308 1.333 . S
N307 C312 1.307 . S
N307 Zn313 2.020 . S
C308 N307 1.333 . S
C308 C309 1.379 . S
C308 H326 0.952 . S
C309 C308 1.379 . S
C309 C310 1.390 . S
C309 H336 0.949 . S
C310 C309 1.390 . S
C310 C311 1.357 . S
C311 C310 1.357 . S
C311 C312 1.370 . S
C311 H337 0.950 . S
C312 N307 1.307 . S
C312 C311 1.370 . S
C312 H330 0.948 . S
Zn313 N307 2.020 . S
Zn313 O322 2.039 . S
Zn313 O328 2.034 . S
Zn313 O332 2.025 . S
Zn313 O334 2.024 . S
C314 O333 1.246 . S
C314 O334 1.249 . S
N315 C316 1.307 . S
N315 C317 1.333 . S
N315 Zn321 2.020 . S
C316 N315 1.307 . S
C316 C320 1.370 . S
C316 H327 0.948 . S
C317 N315 1.333 . S
C317 C318 1.379 . S
C317 H325 0.952 . S
C318 C317 1.379 . S
C318 C319 1.390 . S
C318 H338 0.949 . S
C319 C318 1.390 . S
C319 C320 1.357 . S
C320 C316 1.370 . S
C320 C319 1.357 . S
C320 H339 0.950 . S
Zn321 N315 2.020 . S
Zn321 O324 2.025 . S
Zn321 O329 2.024 . S
Zn321 O331 2.039 . S
Zn321 O333 2.034 . S
O322 C306 1.251 . S
O322 Zn313 2.039 . S
C323 O328 1.246 . S
C323 O329 1.249 . S
O324 C306 1.254 . S
O324 Zn321 2.025 . S
H325 C317 0.952 . S
H326 C308 0.952 . S
H327 C316 0.948 . S
O328 Zn313 2.034 . S
O328 C323 1.246 . S
O329 Zn321 2.024 . S
O329 C323 1.249 . S
H330 C312 0.948 . S
O331 Zn321 2.039 . S
O331 C335 1.251 . S
O332 Zn313 2.025 . S
O332 C335 1.254 . S
O333 C314 1.246 . S
O333 Zn321 2.034 . S
O334 Zn313 2.024 . S
O334 C314 1.249 . S
C335 O331 1.251 . S
C335 O332 1.254 . S
H336 C309 0.949 . S
H337 C311 0.950 . S
H338 C318 0.949 . S
H339 C320 0.950 . S
C340 O356 1.251 1_655 S
C340 O358 1.254 1_655 S
N341 C342 1.333 . S
N341 C346 1.307 . S
N341 Zn347 2.020 . S
C342 N341 1.333 . S
C342 C343 1.379 . S
C342 H360 0.952 . S
C343 C342 1.379 . S
C343 C344 1.390 . S
C343 H370 0.949 1_455 S
C344 C343 1.390 . S
C344 C345 1.357 . S
C345 C344 1.357 . S
C345 C346 1.370 . S
C345 H371 0.950 . S
C346 N341 1.307 . S
C346 C345 1.370 . S
C346 H364 0.948 . S
Zn347 N341 2.020 . S
Zn347 O356 2.039 . S
Zn347 O362 2.034 . S
Zn347 O366 2.025 . S
Zn347 O368 2.024 . S
C348 O367 1.246 . S
C348 O368 1.249 . S
N349 C350 1.307 . S
N349 C351 1.333 . S
N349 Zn355 2.020 . S
C350 N349 1.307 . S
C350 C354 1.370 . S
C350 H361 0.948 . S
C351 N349 1.333 . S
C351 C352 1.379 . S
C351 H359 0.952 . S
C352 C351 1.379 . S
C352 C353 1.390 . S
C352 H372 0.949 . S
C353 C352 1.390 . S
C353 C354 1.357 . S
C354 C350 1.370 . S
C354 C353 1.357 . S
C354 H373 0.950 . S
Zn355 N349 2.020 . S
Zn355 O358 2.025 . S
Zn355 O363 2.024 . S
Zn355 O365 2.039 . S
Zn355 O367 2.034 . S
O356 C340 1.251 1_455 S
O356 Zn347 2.039 . S
C357 O362 1.246 . S
C357 O363 1.249 . S
O358 C340 1.254 1_455 S
O358 Zn355 2.025 . S
H359 C351 0.952 . S
H360 C342 0.952 . S
H361 C350 0.948 . S
O362 Zn347 2.034 . S
O362 C357 1.246 . S
O363 Zn355 2.024 . S
O363 C357 1.249 . S
H364 C346 0.948 . S
O365 Zn355 2.039 . S
O365 C369 1.251 . S
O366 Zn347 2.025 . S
O366 C369 1.254 . S
O367 C348 1.246 . S
O367 Zn355 2.034 . S
O368 Zn347 2.024 . S
O368 C348 1.249 . S
C369 O365 1.251 . S
C369 O366 1.254 . S
H370 C343 0.949 1_655 S
H371 C345 0.950 . S
H372 C352 0.949 . S
H373 C354 0.950 . S
C374 O390 1.251 1_565 S
C374 O392 1.254 1_565 S
N375 C376 1.333 . S
N375 C380 1.307 . S
N375 Zn381 2.020 . S
C376 N375 1.333 . S
C376 C377 1.379 . S
C376 H394 0.952 . S
C377 C376 1.379 . S
C377 C378 1.390 . S
C377 H404 0.949 1_545 S
C378 C377 1.390 . S
C378 C379 1.357 . S
C379 C378 1.357 . S
C379 C380 1.370 . S
C379 H405 0.950 . S
C380 N375 1.307 . S
C380 C379 1.370 . S
C380 H398 0.948 . S
Zn381 N375 2.020 . S
Zn381 O390 2.039 . S
Zn381 O396 2.034 . S
Zn381 O400 2.025 . S
Zn381 O402 2.024 . S
C382 O401 1.246 . S
C382 O402 1.249 . S
N383 C384 1.307 . S
N383 C385 1.333 . S
N383 Zn389 2.020 . S
C384 N383 1.307 . S
C384 C388 1.370 . S
C384 H395 0.948 . S
C385 N383 1.333 . S
C385 C386 1.379 . S
C385 H393 0.952 . S
C386 C385 1.379 . S
C386 C387 1.390 . S
C386 H406 0.949 . S
C387 C386 1.390 . S
C387 C388 1.357 . S
C388 C384 1.370 . S
C388 C387 1.357 . S
C388 H407 0.950 . S
Zn389 N383 2.020 . S
Zn389 O392 2.025 . S
Zn389 O397 2.024 . S
Zn389 O399 2.039 . S
Zn389 O401 2.034 . S
O390 C374 1.251 1_545 S
O390 Zn381 2.039 . S
C391 O396 1.246 . S
C391 O397 1.249 . S
O392 C374 1.254 1_545 S
O392 Zn389 2.025 . S
H393 C385 0.952 . S
H394 C376 0.952 . S
H395 C384 0.948 . S
O396 Zn381 2.034 . S
O396 C391 1.246 . S
O397 Zn389 2.024 . S
O397 C391 1.249 . S
H398 C380 0.948 . S
O399 Zn389 2.039 . S
O399 C403 1.251 . S
O400 Zn381 2.025 . S
O400 C403 1.254 . S
O401 C382 1.246 . S
O401 Zn389 2.034 . S
O402 Zn381 2.024 . S
O402 C382 1.249 . S
C403 O399 1.251 . S
C403 O400 1.254 . S
H404 C377 0.949 1_565 S
H405 C379 0.950 . S
H406 C386 0.949 . S
H407 C388 0.950 . S
C408 C409 1.387 . S
C408 H412 0.950 . S
C408 C417 1.390 . S
C409 C408 1.387 . S
C409 C411 1.387 . S
H410 C417 0.950 . S
C411 C409 1.387 . S
C411 C413 1.390 . S
C411 H415 0.950 . S
H412 C408 0.950 . S
C413 C411 1.390 . S
C413 C414 1.387 . S
C413 H416 0.950 . S
C414 C413 1.387 . S
C414 C417 1.387 . S
H415 C411 0.950 . S
H416 C413 0.950 . S
C417 C408 1.390 . S
C417 H410 0.950 . S
C417 C414 1.387 . S
C418 C419 1.387 . S
C418 H422 0.950 . S
C418 C427 1.390 . S
C419 C418 1.387 . S
C419 C421 1.387 . S
H420 C427 0.950 . S
C421 C419 1.387 . S
C421 C423 1.390 . S
C421 H425 0.950 . S
H422 C418 0.950 . S
C423 C421 1.390 . S
C423 C424 1.387 . S
C423 H426 0.950 . S
C424 C423 1.387 . S
C424 C427 1.387 . S
H425 C421 0.950 . S
H426 C423 0.950 . S
C427 C418 1.390 . S
C427 H420 0.950 . S
C427 C424 1.387 . S
C428 C429 1.387 . S
C428 H432 0.950 . S
C428 C437 1.390 . S
C429 C428 1.387 . S
C429 C431 1.387 . S
H430 C437 0.950 . S
C431 C429 1.387 . S
C431 C433 1.390 . S
C431 H435 0.950 . S
H432 C428 0.950 . S
C433 C431 1.390 . S
C433 C434 1.387 . S
C433 H436 0.950 . S
C434 C433 1.387 . S
C434 C437 1.387 . S
H435 C431 0.950 . S
H436 C433 0.950 . S
C437 C428 1.390 . S
C437 H430 0.950 . S
C437 C434 1.387 . S
C438 C439 1.387 . S
C438 H442 0.950 . S
C438 C447 1.390 . S
C439 C438 1.387 . S
C439 C441 1.387 . S
H440 C447 0.950 . S
C441 C439 1.387 . S
C441 C443 1.390 . S
C441 H445 0.950 . S
H442 C438 0.950 . S
C443 C441 1.390 . S
C443 C444 1.387 . S
C443 H446 0.950 . S
C444 C443 1.387 . S
C444 C447 1.387 . S
H445 C441 0.950 . S
H446 C443 0.950 . S
C447 C438 1.390 . S
C447 H440 0.950 . S
C447 C444 1.387 . S
C448 C449 1.387 . S
C448 H452 0.950 . S
C448 C457 1.390 . S
C449 C448 1.387 . S
C449 C451 1.387 . S
H450 C457 0.950 . S
C451 C449 1.387 . S
C451 C453 1.390 . S
C451 H455 0.950 . S
H452 C448 0.950 . S
C453 C451 1.390 . S
C453 C454 1.387 . S
C453 H456 0.950 . S
C454 C453 1.387 . S
C454 C457 1.387 . S
H455 C451 0.950 . S
H456 C453 0.950 . S
C457 C448 1.390 . S
C457 H450 0.950 . S
C457 C454 1.387 . S
C458 C459 1.387 . S
C458 H462 0.950 . S
C458 C467 1.390 . S
C459 C458 1.387 . S
C459 C461 1.387 . S
H460 C467 0.950 . S
C461 C459 1.387 . S
C461 C463 1.390 . S
C461 H465 0.950 . S
H462 C458 0.950 . S
C463 C461 1.390 . S
C463 C464 1.387 . S
C463 H466 0.950 . S
C464 C463 1.387 . S
C464 C467 1.387 . S
H465 C461 0.950 . S
H466 C463 0.950 . S
C467 C458 1.390 . S
C467 H460 0.950 . S
C467 C464 1.387 . S
C468 C469 1.387 . S
C468 H472 0.950 . S
C468 C477 1.390 . S
C469 C468 1.387 . S
C469 C471 1.387 . S
H470 C477 0.950 . S
C471 C469 1.387 . S
C471 C473 1.390 . S
C471 H475 0.950 . S
H472 C468 0.950 . S
C473 C471 1.390 . S
C473 C474 1.387 . S
C473 H476 0.950 . S
C474 C473 1.387 . S
C474 C477 1.387 . S
H475 C471 0.950 . S
H476 C473 0.950 . S
C477 C468 1.390 . S
C477 H470 0.950 . S
C477 C474 1.387 . S
C478 C479 1.387 . S
C478 H482 0.950 . S
C478 C487 1.390 . S
C479 C478 1.387 . S
C479 C481 1.387 . S
H480 C487 0.950 . S
C481 C479 1.387 . S
C481 C483 1.390 . S
C481 H485 0.950 . S
H482 C478 0.950 . S
C483 C481 1.390 . S
C483 C484 1.387 . S
C483 H486 0.950 . S
C484 C483 1.387 . S
C484 C487 1.387 . S
H485 C481 0.950 . S
H486 C483 0.950 . S
C487 C478 1.390 . S
C487 H480 0.950 . S
C487 C484 1.387 . S
C488 C489 1.387 . S
C488 H492 0.950 . S
C488 C497 1.390 . S
C489 C488 1.387 . S
C489 C491 1.387 . S
H490 C497 0.950 . S
C491 C489 1.387 . S
C491 C493 1.390 . S
C491 H495 0.950 . S
H492 C488 0.950 . S
C493 C491 1.390 . S
C493 C494 1.387 . S
C493 H496 0.950 . S
C494 C493 1.387 . S
C494 C497 1.387 . S
H495 C491 0.950 . S
H496 C493 0.950 . S
C497 C488 1.390 . S
C497 H490 0.950 . S
C497 C494 1.387 . S
C498 C499 1.387 . S
C498 H502 0.950 . S
C498 C507 1.390 . S
C499 C498 1.387 . S
C499 C501 1.387 . S
H500 C507 0.950 . S
C501 C499 1.387 . S
C501 C503 1.390 . S
C501 H505 0.950 . S
H502 C498 0.950 . S
C503 C501 1.390 . S
C503 C504 1.387 . S
C503 H506 0.950 . S
C504 C503 1.387 . S
C504 C507 1.387 . S
H505 C501 0.950 . S
H506 C503 0.950 . S
C507 C498 1.390 . S
C507 H500 0.950 . S
C507 C504 1.387 . S
C508 C509 1.387 . S
C508 H512 0.950 . S
C508 C517 1.390 . S
C509 C508 1.387 . S
C509 C511 1.387 . S
H510 C517 0.950 . S
C511 C509 1.387 . S
C511 C513 1.390 . S
C511 H515 0.950 . S
H512 C508 0.950 . S
C513 C511 1.390 . S
C513 C514 1.387 . S
C513 H516 0.950 . S
C514 C513 1.387 . S
C514 C517 1.387 . S
H515 C511 0.950 . S
H516 C513 0.950 . S
C517 C508 1.390 . S
C517 H510 0.950 . S
C517 C514 1.387 . S
C518 C519 1.387 . S
C518 H522 0.950 . S
C518 C527 1.390 . S
C519 C518 1.387 . S
C519 C521 1.387 . S
H520 C527 0.950 . S
C521 C519 1.387 . S
C521 C523 1.390 . S
C521 H525 0.950 . S
H522 C518 0.950 . S
C523 C521 1.390 . S
C523 C524 1.387 . S
C523 H526 0.950 . S
C524 C523 1.387 . S
C524 C527 1.387 . S
H525 C521 0.950 . S
H526 C523 0.950 . S
C527 C518 1.390 . S
C527 H520 0.950 . S
C527 C524 1.387 . S
C528 C529 1.387 . S
C528 H532 0.950 . S
C528 C537 1.390 . S
C529 C528 1.387 . S
C529 C531 1.387 . S
H530 C537 0.950 . S
C531 C529 1.387 . S
C531 C533 1.390 . S
C531 H535 0.950 . S
H532 C528 0.950 . S
C533 C531 1.390 . S
C533 C534 1.387 . S
C533 H536 0.950 . S
C534 C533 1.387 . S
C534 C537 1.387 . S
H535 C531 0.950 . S
H536 C533 0.950 . S
C537 C528 1.390 . S
C537 H530 0.950 . S
C537 C534 1.387 . S
C538 C539 1.387 . S
C538 H542 0.950 . S
C538 C547 1.390 . S
C539 C538 1.387 . S
C539 C541 1.387 . S
H540 C547 0.950 . S
C541 C539 1.387 . S
C541 C543 1.390 . S
C541 H545 0.950 . S
H542 C538 0.950 . S
C543 C541 1.390 . S
C543 C544 1.387 . S
C543 H546 0.950 . S
C544 C543 1.387 . S
C544 C547 1.387 . S
H545 C541 0.950 . S
H546 C543 0.950 . S
C547 C538 1.390 . S
C547 H540 0.950 . S
C547 C544 1.387 . S
C548 C549 1.387 . S
C548 H552 0.950 . S
C548 C557 1.390 . S
C549 C548 1.387 . S
C549 C551 1.387 . S
H550 C557 0.950 . S
C551 C549 1.387 . S
C551 C553 1.390 . S
C551 H555 0.950 . S
H552 C548 0.950 . S
C553 C551 1.390 . S
C553 C554 1.387 . S
C553 H556 0.950 . S
C554 C553 1.387 . S
C554 C557 1.387 . S
H555 C551 0.950 . S
H556 C553 0.950 . S
C557 C548 1.390 . S
C557 H550 0.950 . S
C557 C554 1.387 . S
C558 C559 1.387 . S
C558 H562 0.950 . S
C558 C567 1.390 . S
C559 C558 1.387 . S
C559 C561 1.387 . S
H560 C567 0.950 . S
C561 C559 1.387 . S
C561 C563 1.390 . S
C561 H565 0.950 . S
H562 C558 0.950 . S
C563 C561 1.390 . S
C563 C564 1.387 . S
C563 H566 0.950 . S
C564 C563 1.387 . S
C564 C567 1.387 . S
H565 C561 0.950 . S
H566 C563 0.950 . S
C567 C558 1.390 . S
C567 H560 0.950 . S
C567 C564 1.387 . S
C568 C569 1.387 . S
C568 H572 0.950 . S
C568 C577 1.390 . S
C569 C568 1.387 . S
C569 C571 1.387 . S
H570 C577 0.950 . S
C571 C569 1.387 . S
C571 C573 1.390 . S
C571 H575 0.950 . S
H572 C568 0.950 . S
C573 C571 1.390 . S
C573 C574 1.387 . S
C573 H576 0.950 . S
C574 C573 1.387 . S
C574 C577 1.387 . S
H575 C571 0.950 . S
H576 C573 0.950 . S
C577 C568 1.390 . S
C577 H570 0.950 . S
C577 C574 1.387 . S
C578 C579 1.387 . S
C578 H582 0.950 . S
C578 C587 1.390 . S
C579 C578 1.387 . S
C579 C581 1.387 . S
H580 C587 0.950 . S
C581 C579 1.387 . S
C581 C583 1.390 . S
C581 H585 0.950 . S
H582 C578 0.950 . S
C583 C581 1.390 . S
C583 C584 1.387 . S
C583 H586 0.950 . S
C584 C583 1.387 . S
C584 C587 1.387 . S
H585 C581 0.950 . S
H586 C583 0.950 . S
C587 C578 1.390 . S
C587 H580 0.950 . S
C587 C584 1.387 . S
C588 C589 1.387 . S
C588 H592 0.950 . S
C588 C597 1.390 . S
C589 C588 1.387 . S
C589 C591 1.387 . S
H590 C597 0.950 . S
C591 C589 1.387 . S
C591 C593 1.390 . S
C591 H595 0.950 . S
H592 C588 0.950 . S
C593 C591 1.390 . S
C593 C594 1.387 . S
C593 H596 0.950 . S
C594 C593 1.387 . S
C594 C597 1.387 . S
H595 C591 0.950 . S
H596 C593 0.950 . S
C597 C588 1.390 . S
C597 H590 0.950 . S
C597 C594 1.387 . S
C598 C599 1.387 . S
C598 H602 0.950 . S
C598 C607 1.390 . S
C599 C598 1.387 . S
C599 C601 1.387 . S
H600 C607 0.950 . S
C601 C599 1.387 . S
C601 C603 1.390 . S
C601 H605 0.950 . S
H602 C598 0.950 . S
C603 C601 1.390 . S
C603 C604 1.387 . S
C603 H606 0.950 . S
C604 C603 1.387 . S
C604 C607 1.387 . S
H605 C601 0.950 . S
H606 C603 0.950 . S
C607 C598 1.390 . S
C607 H600 0.950 . S
C607 C604 1.387 . S
C608 C609 1.387 . S
C608 H612 0.950 . S
C608 C617 1.390 . S
C609 C608 1.387 . S
C609 C611 1.387 . S
H610 C617 0.950 . S
C611 C609 1.387 . S
C611 C613 1.390 . S
C611 H615 0.950 . S
H612 C608 0.950 . S
C613 C611 1.390 . S
C613 C614 1.387 . S
C613 H616 0.950 . S
C614 C613 1.387 . S
C614 C617 1.387 . S
H615 C611 0.950 . S
H616 C613 0.950 . S
C617 C608 1.390 . S
C617 H610 0.950 . S
C617 C614 1.387 . S
C618 C619 1.387 . S
C618 H622 0.950 . S
C618 C627 1.390 . S
C619 C618 1.387 . S
C619 C621 1.387 . S
H620 C627 0.950 . S
C621 C619 1.387 . S
C621 C623 1.390 . S
C621 H625 0.950 . S
H622 C618 0.950 . S
C623 C621 1.390 . S
C623 C624 1.387 . S
C623 H626 0.950 . S
C624 C623 1.387 . S
C624 C627 1.387 . S
H625 C621 0.950 . S
H626 C623 0.950 . S
C627 C618 1.390 . S
C627 H620 0.950 . S
C627 C624 1.387 . S
C628 C629 1.387 . S
C628 H632 0.950 . S
C628 C637 1.390 . S
C629 C628 1.387 . S
C629 C631 1.387 . S
H630 C637 0.950 . S
C631 C629 1.387 . S
C631 C633 1.390 . S
C631 H635 0.950 . S
H632 C628 0.950 . S
C633 C631 1.390 . S
C633 C634 1.387 . S
C633 H636 0.950 . S
C634 C633 1.387 . S
C634 C637 1.387 . S
H635 C631 0.950 . S
H636 C633 0.950 . S
C637 C628 1.390 . S
C637 H630 0.950 . S
C637 C634 1.387 . S
C638 C639 1.387 . S
C638 H642 0.950 . S
C638 C647 1.390 . S
C639 C638 1.387 . S
C639 C641 1.387 . S
H640 C647 0.950 . S
C641 C639 1.387 . S
C641 C643 1.390 . S
C641 H645 0.950 . S
H642 C638 0.950 . S
C643 C641 1.390 . S
C643 C644 1.387 . S
C643 H646 0.950 . S
C644 C643 1.387 . S
C644 C647 1.387 . S
H645 C641 0.950 . S
H646 C643 0.950 . S
C647 C638 1.390 . S
C647 H640 0.950 . S
C647 C644 1.387 . S
C648 C649 1.387 . S
C648 H652 0.950 . S
C648 C657 1.390 . S
C649 C648 1.387 . S
C649 C651 1.387 . S
H650 C657 0.950 . S
C651 C649 1.387 . S
C651 C653 1.390 . S
C651 H655 0.950 . S
H652 C648 0.950 . S
C653 C651 1.390 . S
C653 C654 1.387 . S
C653 H656 0.950 . S
C654 C653 1.387 . S
C654 C657 1.387 . S
H655 C651 0.950 . S
H656 C653 0.950 . S
C657 C648 1.390 . S
C657 H650 0.950 . S
C657 C654 1.387 . S
C658 C659 1.387 . S
C658 H662 0.950 . S
C658 C667 1.390 . S
C659 C658 1.387 . S
C659 C661 1.387 . S
H660 C667 0.950 . S
C661 C659 1.387 . S
C661 C663 1.390 . S
C661 H665 0.950 . S
H662 C658 0.950 . S
C663 C661 1.390 . S
C663 C664 1.387 . S
C663 H666 0.950 . S
C664 C663 1.387 . S
C664 C667 1.387 . S
H665 C661 0.950 . S
H666 C663 0.950 . S
C667 C658 1.390 . S
C667 H660 0.950 . S
C667 C664 1.387 . S
C668 C669 1.387 . S
C668 H672 0.950 . S
C668 C677 1.390 . S
C669 C668 1.387 . S
C669 C671 1.387 . S
H670 C677 0.950 . S
C671 C669 1.387 . S
C671 C673 1.390 . S
C671 H675 0.950 . S
H672 C668 0.950 . S
C673 C671 1.390 . S
C673 C674 1.387 . S
C673 H676 0.950 . S
C674 C673 1.387 . S
C674 C677 1.387 . S
H675 C671 0.950 . S
H676 C673 0.950 . S
C677 C668 1.390 . S
C677 H670 0.950 . S
C677 C674 1.387 . S
C678 C679 1.387 . S
C678 H682 0.950 . S
C678 C687 1.390 . S
C679 C678 1.387 . S
C679 C681 1.387 . S
H680 C687 0.950 . S
C681 C679 1.387 . S
C681 C683 1.390 . S
C681 H685 0.950 . S
H682 C678 0.950 . S
C683 C681 1.390 . S
C683 C684 1.387 . S
C683 H686 0.950 . S
C684 C683 1.387 . S
C684 C687 1.387 . S
H685 C681 0.950 . S
H686 C683 0.950 . S
C687 C678 1.390 . S
C687 H680 0.950 . S
C687 C684 1.387 . S
C688 C689 1.387 . S
C688 H692 0.950 . S
C688 C697 1.390 . S
C689 C688 1.387 . S
C689 C691 1.387 . S
H690 C697 0.950 . S
C691 C689 1.387 . S
C691 C693 1.390 . S
C691 H695 0.950 . S
H692 C688 0.950 . S
C693 C691 1.390 . S
C693 C694 1.387 . S
C693 H696 0.950 . S
C694 C693 1.387 . S
C694 C697 1.387 . S
H695 C691 0.950 . S
H696 C693 0.950 . S
C697 C688 1.390 . S
C697 H690 0.950 . S
C697 C694 1.387 . S
C698 C699 1.387 . S
C698 H702 0.950 . S
C698 C707 1.390 . S
C699 C698 1.387 . S
C699 C701 1.387 . S
H700 C707 0.950 . S
C701 C699 1.387 . S
C701 C703 1.390 . S
C701 H705 0.950 . S
H702 C698 0.950 . S
C703 C701 1.390 . S
C703 C704 1.387 . S
C703 H706 0.950 . S
C704 C703 1.387 . S
C704 C707 1.387 . S
H705 C701 0.950 . S
H706 C703 0.950 . S
C707 C698 1.390 . S
C707 H700 0.950 . S
C707 C704 1.387 . S
C708 C709 1.387 . S
C708 H712 0.950 . S
C708 C717 1.386 1_556 S
C709 C708 1.387 . S
C709 C711 1.392 . S
H710 C717 0.950 . S
C711 C709 1.392 . S
C711 C713 1.386 1_556 S
C711 H715 0.950 . S
H712 C708 0.950 . S
C713 C711 1.386 1_554 S
C713 C714 1.387 . S
C713 H716 0.950 . S
C714 C713 1.387 . S
C714 C717 1.392 . S
H715 C711 0.950 . S
H716 C713 0.950 . S
C717 C708 1.386 1_554 S
C717 H710 0.950 . S
C717 C714 1.392 . S
C718 C719 1.387 1_655 S
C718 H722 0.950 . S
C718 C727 1.390 . S
C719 C718 1.387 1_455 S
C719 C721 1.387 . S
H720 C727 0.950 . S
C721 C719 1.387 . S
C721 C723 1.390 . S
C721 H725 0.950 . S
H722 C718 0.950 . S
C723 C721 1.390 . S
C723 C724 1.387 1_455 S
C723 H726 0.950 . S
C724 C723 1.387 1_655 S
C724 C727 1.387 . S
H725 C721 0.950 . S
H726 C723 0.950 . S
C727 C718 1.390 . S
C727 H720 0.950 . S
C727 C724 1.387 . S
C728 C729 1.387 . S
C728 H732 0.950 . S
C728 C737 1.390 1_564 S
C729 C728 1.387 . S
C729 C731 1.387 . S
H730 C737 0.950 . S
C731 C729 1.387 . S
C731 C733 1.390 1_564 S
C731 H735 0.950 . S
H732 C728 0.950 . S
C733 C731 1.390 1_546 S
C733 C734 1.387 . S
C733 H736 0.950 . S
C734 C733 1.387 . S
C734 C737 1.387 . S
H735 C731 0.950 . S
H736 C733 0.950 . S
C737 C728 1.390 1_546 S
C737 H730 0.950 . S
C737 C734 1.387 . S
C738 C739 1.387 . S
C738 H742 0.950 . S
C738 C747 1.390 . S
C739 C738 1.387 . S
C739 C741 1.387 . S
H740 C747 0.950 . S
C741 C739 1.387 . S
C741 C743 1.390 . S
C741 H745 0.950 . S
H742 C738 0.950 . S
C743 C741 1.390 . S
C743 C744 1.387 . S
C743 H746 0.950 . S
C744 C743 1.387 . S
C744 C747 1.387 . S
H745 C741 0.950 . S
H746 C743 0.950 . S
C747 C738 1.390 . S
C747 H740 0.950 . S
C747 C744 1.387 . S
C748 C749 1.388 . S
C748 H752 0.950 . S
C748 C757 1.389 1_656 S
C749 C748 1.388 . S
C749 C751 1.387 . S
H750 C757 0.950 . S
C751 C749 1.387 . S
C751 C753 1.388 1_656 S
C751 H755 0.950 . S
H752 C748 0.950 . S
C753 C751 1.388 1_454 S
C753 C754 1.388 . S
C753 H756 0.950 . S
C754 C753 1.388 . S
C754 C757 1.387 . S
H755 C751 0.950 . S
H756 C753 0.950 . S
C757 C748 1.389 1_454 S
C757 H750 0.950 . S
C757 C754 1.387 . S
C758 C759 1.387 . S
C758 H762 0.950 . S
C758 C767 1.390 1_565 S
C759 C758 1.387 . S
C759 C761 1.387 . S
H760 C767 0.950 . S
C761 C759 1.387 . S
C761 C763 1.390 1_565 S
C761 H765 0.950 . S
H762 C758 0.950 . S
C763 C761 1.390 1_545 S
C763 C764 1.387 . S
C763 H766 0.950 . S
C764 C763 1.387 . S
C764 C767 1.387 . S
H765 C761 0.950 . S
H766 C763 0.950 . S
C767 C758 1.390 1_545 S
C767 H760 0.950 . S
C767 C764 1.387 . S
C409 C144 1.129 1_545 S
C414 C0 1.106 . S
C419 C178 1.129 . S
C424 C34 1.106 . S
C429 C68 1.106 . S
C434 C8 1.130 1_655 S
C439 C102 1.103 . S
C444 C42 1.128 1_565 S
C449 C136 1.107 . S
C454 C76 1.130 . S
C459 C110 1.130 1_455 S
C464 C170 1.107 . S
C469 C280 1.129 1_655 S
C474 C204 1.106 . S
C479 C238 1.103 . S
C484 C314 1.128 1_565 S
C489 C348 1.128 . S
C494 C272 1.103 . S
C499 C306 1.106 . S
C504 C382 1.129 1_455 S
C509 C340 1.106 . S
C514 C212 1.129 1_545 S
C519 C246 1.128 . S
C524 C374 1.103 . S
C529 C153 1.269 . S
C534 C29 1.288 . S
C539 C63 1.288 . S
C544 C187 1.267 . S
C549 C97 1.288 . S
C554 C17 1.267 . S
C559 C131 1.288 . S
C564 C51 1.267 . S
C569 C85 1.266 . S
C574 C165 1.288 . S
C579 C119 1.269 . S
C584 C199 1.288 . S
C589 C289 1.267 . S
C594 C233 1.288 . S
C599 C267 1.288 . S
C604 C323 1.269 . S
C609 C301 1.288 . S
C614 C357 1.267 . S
C619 C391 1.269 . S
C624 C335 1.288 . S
C629 C369 1.288 . S
C634 C221 1.269 . S
C639 C255 1.267 . S
C644 C403 1.288 . S
C649 C353 1.558 . S
C654 C13 1.558 . S
C659 C47 1.559 . S
C664 C387 1.558 . S
C669 C81 1.557 . S
C674 C217 1.557 . S
C679 C115 1.558 . S
C684 C251 1.558 . S
C689 C149 1.557 . S
C694 C285 1.557 . S
C699 C319 1.557 . S
C704 C183 1.557 . S
C709 C310 1.766 . S
C714 C4 1.766 . S
C719 C344 1.764 . S
C724 C38 1.764 . S
C729 C72 1.766 . S
C734 C378 1.766 . S
C739 C106 1.766 . S
C744 C208 1.766 . S
C749 C242 1.764 . S
C754 C140 1.764 . S
C759 C276 1.764 . S
C764 C174 1.764 . S
