# Generated by pormake.
# Topology wli, (5)-cn, num edge types: 1
# Building blocks:
#     Node 0, Type 0, BuildingBlock: XOMCOT_clean_sbu_1, # of connection points: 5
#     Node 1, Type 0, BuildingBlock: XOMCOT_clean_sbu_1, # of connection points: 5
#     Node 2, Type 0, BuildingBlock: XOMCOT_clean_sbu_1, # of connection points: 5
#     Node 3, Type 0, BuildingBlock: XOMCOT_clean_sbu_1, # of connection points: 5
#     Node 4, Type 0, BuildingBlock: XOMCOT_clean_sbu_1, # of connection points: 5
#     Node 5, Type 0, BuildingBlock: XOMCOT_clean_sbu_1, # of connection points: 5
#     Edge 6, Type (0, 0), BuildingBlock: XUDNAN_clean_linker_2, # of connection points: 2
#     Edge 7, Type (0, 0), BuildingBlock: XUDNAN_clean_linker_2, # of connection points: 2
#     Edge 8, Type (0, 0), BuildingBlock: XUDNAN_clean_linker_2, # of connection points: 2
#     Edge 9, Type (0, 0), BuildingBlock: XUDNAN_clean_linker_2, # of connection points: 2
#     Edge 10, Type (0, 0), BuildingBlock: XUDNAN_clean_linker_2, # of connection points: 2
#     Edge 11, Type (0, 0), BuildingBlock: XUDNAN_clean_linker_2, # of connection points: 2
#     Edge 12, Type (0, 0), BuildingBlock: XUDNAN_clean_linker_2, # of connection points: 2
#     Edge 13, Type (0, 0), BuildingBlock: XUDNAN_clean_linker_2, # of connection points: 2
#     Edge 14, Type (0, 0), BuildingBlock: XUDNAN_clean_linker_2, # of connection points: 2
#     Edge 15, Type (0, 0), BuildingBlock: XUDNAN_clean_linker_2, # of connection points: 2
#     Edge 16, Type (0, 0), BuildingBlock: XUDNAN_clean_linker_2, # of connection points: 2
#     Edge 17, Type (0, 0), BuildingBlock: XUDNAN_clean_linker_2, # of connection points: 2
#     Edge 18, Type (0, 0), BuildingBlock: XUDNAN_clean_linker_2, # of connection points: 2
#     Edge 19, Type (0, 0), BuildingBlock: XUDNAN_clean_linker_2, # of connection points: 2
#     Edge 20, Type (0, 0), BuildingBlock: XUDNAN_clean_linker_2, # of connection points: 2
# Relax obj value: 0.114
# Max RMSD: 0.138
# Mean RMSD: 0.138
data_MOF--net-wli--node1-XOMCOT_clean_sbu_1--edge1-XUDNAN_clean_linker_2
_symmetry_space_group_name_H-M    P1
_symmetry_Int_Tables_number       1
_symmetry_cell_setting            triclinic
loop_
_symmetry_equiv_pos_as_xyz
'x, y, z'
_cell_length_a     35.291424
_cell_length_b     35.563176
_cell_length_c     27.352423
_cell_angle_alpha  90.644387
_cell_angle_beta   89.559804
_cell_angle_gamma 119.66664
loop_
_atom_site_label
_atom_site_type_symbol
_atom_site_fract_x
_atom_site_fract_y
_atom_site_fract_z
_atom_type_partial_charge
C0 C 0.21546 0.49294 0.02497 0.0
C1 C 0.2432 0.52806 0.99717 0.0
N2 N 0.28435 0.54051 0.01066 0.0
N3 N 0.23922 0.48275 0.05492 0.0
C4 C 0.28113 0.51272 0.04573 0.0
H5 H 0.18023 0.47577 0.0233 0.0
Co6 Co 0.2184 0.43793 0.10033 0.0
C7 C 0.28495 0.40745 0.09226 0.0
O8 O 0.28238 0.39645 0.13835 0.0
N9 N 0.1965 0.3931 0.1469 0.0
C10 C 0.1605 0.32752 0.17999 0.0
C11 C 0.18559 0.35116 0.14084 0.0
C12 C 0.17792 0.39401 0.19005 0.0
N13 N 0.15568 0.35465 0.21083 0.0
O14 O 0.2566 0.47852 0.14836 0.0
H15 H 0.19262 0.33803 0.10838 0.0
H16 H 0.17729 0.42219 0.2041 0.0
O17 O 0.2623 0.42374 0.07661 0.0
C18 C 0.23702 0.49836 0.16413 0.0
O19 O 0.19801 0.48658 0.14678 0.0
N20 N 0.17852 0.40009 0.05439 0.0
C21 C 0.1125 0.35645 0.98587 0.0
C22 C 0.15649 0.37227 0.97304 0.0
C23 C 0.18911 0.39369 0.00811 0.0
C24 C 0.13609 0.3837 0.06787 0.0
C25 C 0.10264 0.36063 0.03477 0.0
H26 H 0.22289 0.40791 0.99708 0.0
H27 H 0.1281 0.38991 0.10421 0.0
H28 H 0.30878 0.51387 0.06403 0.0
H29 H 0.23395 0.54363 0.96964 0.0
H30 H 0.1454 0.29283 0.18433 0.0
H31 H 0.16602 0.37047 0.93577 0.0
H32 H 0.06936 0.34781 0.04723 0.0
C33 C 0.56908 0.74383 0.67854 0.0
C34 C 0.53619 0.74045 0.64907 0.0
N35 N 0.52025 0.76453 0.66899 0.0
N36 N 0.57452 0.77067 0.71647 0.0
C37 C 0.54397 0.78253 0.70979 0.0
H38 H 0.58685 0.7266 0.67327 0.0
Co39 Co 0.61187 0.78257 0.76971 0.0
C40 C 0.66786 0.87832 0.76802 0.0
O41 O 0.70058 0.87325 0.78207 0.0
N42 N 0.64784 0.79257 0.82503 0.0
C43 C 0.67494 0.81224 0.90039 0.0
C44 C 0.65419 0.82007 0.86264 0.0
C45 C 0.66349 0.76726 0.842 0.0
N46 N 0.68054 0.7787 0.88742 0.0
O47 O 0.56541 0.77264 0.8138 0.0
H48 H 0.64233 0.84288 0.86374 0.0
H49 H 0.66031 0.73926 0.82293 0.0
O50 O 0.62983 0.84491 0.76418 0.0
C51 C 0.53692 0.73267 0.81676 0.0
O52 O 0.5412 0.70458 0.78903 0.0
N53 N 0.65629 0.78853 0.72569 0.0
C54 C 0.71094 0.78334 0.65487 0.0
C55 C 0.70278 0.818 0.65528 0.0
C56 C 0.67414 0.8192 0.68993 0.0
C57 C 0.66286 0.75384 0.72436 0.0
C58 C 0.69052 0.75088 0.68982 0.0
H59 H 0.66423 0.84312 0.68538 0.0
H60 H 0.64363 0.72638 0.74736 0.0
H61 H 0.53868 0.80328 0.73486 0.0
H62 H 0.52375 0.72044 0.61656 0.0
H63 H 0.68266 0.82819 0.93577 0.0
H64 H 0.71599 0.84231 0.62699 0.0
H65 H 0.69441 0.72251 0.6891 0.0
C66 C 0.32038 0.83108 0.35108 0.0
C67 C 0.3301 0.80397 0.32445 0.0
N68 N 0.30104 0.76285 0.33614 0.0
N69 N 0.28513 0.80727 0.37932 0.0
C70 C 0.27391 0.7657 0.36933 0.0
H71 H 0.339 0.86605 0.35155 0.0
Co72 Co 0.26665 0.83079 0.4292 0.0
C73 C 0.1719 0.79061 0.40903 0.0
O74 O 0.17584 0.8292 0.41398 0.0
N75 N 0.25104 0.8555 0.48192 0.0
C76 C 0.22254 0.86768 0.54934 0.0
C77 C 0.21466 0.84041 0.50975 0.0
C78 C 0.28103 0.89042 0.50726 0.0
N79 N 0.26454 0.89925 0.54777 0.0
O80 O 0.27431 0.79537 0.4756 0.0
H81 H 0.18501 0.81005 0.50404 0.0
H82 H 0.31511 0.90788 0.49726 0.0
O83 O 0.20495 0.7856 0.41678 0.0
C84 C 0.31484 0.81198 0.4847 0.0
O85 O 0.34262 0.84761 0.46213 0.0
N86 N 0.26298 0.86829 0.38292 0.0
C87 C 0.26524 0.92703 0.31411 0.0
C88 C 0.24053 0.88229 0.30552 0.0
C89 C 0.24092 0.85357 0.33967 0.0
C90 C 0.28909 0.91163 0.39029 0.0
C91 C 0.29035 0.94142 0.35684 0.0
H92 H 0.22371 0.81938 0.33103 0.0
H93 H 0.31085 0.92361 0.42093 0.0
H94 H 0.2481 0.73827 0.38819 0.0
H95 H 0.35703 0.81382 0.29912 0.0
H96 H 0.19976 0.86304 0.57849 0.0
H97 H 0.22135 0.86942 0.2726 0.0
H98 H 0.31223 0.97551 0.36378 0.0
C99 C 0.49563 0.21389 0.99268 0.0
C100 C 0.52973 0.24418 0.02002 0.0
N101 N 0.54289 0.28335 1.00063 0.0
N102 N 0.48666 0.23386 0.95662 0.0
C103 C 0.51642 0.27629 0.96202 0.0
H104 H 0.47879 0.1793 0.9983 0.0
Co105 Co 0.4441 0.20471 0.90893 0.0
C106 C 0.42836 0.28066 0.89112 0.0
O107 O 0.44893 0.29165 0.84898 0.0
N108 N 0.40234 0.17455 0.86109 0.0
C109 C 0.34402 0.14343 0.81313 0.0
C110 C 0.36379 0.17214 0.85144 0.0
C111 C 0.40519 0.14715 0.82871 0.0
N112 N 0.37023 0.12773 0.79878 0.0
O113 O 0.4862 0.23538 0.85839 0.0
H114 H 0.35062 0.18958 0.87129 0.0
H115 H 0.43215 0.14079 0.82817 0.0
O116 O 0.42585 0.24858 0.91436 0.0
C117 C 0.5134 0.22173 0.85412 0.0
O118 O 0.51031 0.19168 0.88404 0.0
N119 N 0.40409 0.17236 0.95791 0.0
C120 C 0.35399 0.12265 0.03708 0.0
C121 C 0.36668 0.16681 0.03323 0.0
C122 C 0.39331 0.19124 0.99493 0.0
C123 C 0.39062 0.12932 0.9591 0.0
C124 C 0.36622 0.10404 0.99856 0.0
H125 H 0.40758 0.22581 0.99699 0.0
H126 H 0.40099 0.11501 0.93063 0.0
H127 H 0.51873 0.30138 0.93809 0.0
H128 H 0.5445 0.23782 0.05109 0.0
H129 H 0.31286 0.13502 0.79706 0.0
H130 H 0.35792 0.18358 0.06019 0.0
H131 H 0.35902 0.07081 0.9991 0.0
C132 C 0.82938 0.28834 0.64021 0.0
C133 C 0.79903 0.29219 0.66819 0.0
N134 N 0.75909 0.26173 0.65343 0.0
N135 N 0.80885 0.25496 0.60853 0.0
C136 C 0.76582 0.23968 0.61691 0.0
H137 H 0.86439 0.30876 0.64257 0.0
Co138 Co 0.83854 0.24 0.562 0.0
C139 C 0.80392 0.14685 0.57742 0.0
O140 O 0.84458 0.15561 0.57266 0.0
N141 N 0.86938 0.22802 0.51266 0.0
C142 C 0.88595 0.20242 0.44592 0.0
C143 C 0.85474 0.19425 0.48106 0.0
C144 C 0.90828 0.25745 0.4934 0.0
N145 N 0.91998 0.24244 0.45362 0.0
O146 O 0.80575 0.2473 0.51131 0.0
H147 H 0.82251 0.16616 0.4817 0.0
H148 H 0.92601 0.29058 0.50605 0.0
O149 O 0.79476 0.17714 0.57018 0.0
C150 C 0.82289 0.28782 0.50392 0.0
O151 O 0.85714 0.3146 0.52978 0.0
N152 N 0.87294 0.23661 0.61366 0.0
C153 C 0.92003 0.24859 0.69952 0.0
C154 C 0.87537 0.21918 0.69792 0.0
C155 C 0.85239 0.21409 0.65503 0.0
C156 C 0.91695 0.26419 0.61437 0.0
C157 C 0.94128 0.27012 0.65676 0.0
H158 H 0.81729 0.19482 0.65674 0.0
H159 H 0.93316 0.28484 0.58395 0.0
H160 H 0.74006 0.21303 0.59675 0.0
H161 H 0.80572 0.31614 0.69655 0.0
H162 H 0.88276 0.18081 0.41615 0.0
H163 H 0.85774 0.20267 0.73064 0.0
H164 H 0.97561 0.29419 0.65724 0.0
C165 C 0.76132 0.55085 0.32701 0.0
C166 C 0.75552 0.5156 0.35307 0.0
N167 N 0.77941 0.49992 0.33177 0.0
N168 N 0.78934 0.55791 0.2898 0.0
C169 C 0.79956 0.52606 0.29342 0.0
H170 H 0.74541 0.56965 0.33428 0.0
Co171 Co 0.80568 0.60053 0.24209 0.0
C172 C 0.90082 0.62814 0.22426 0.0
O173 O 0.90166 0.63885 0.17832 0.0
N174 N 0.82045 0.64295 0.19433 0.0
C175 C 0.84615 0.70539 0.15504 0.0
C176 C 0.85245 0.68475 0.19395 0.0
C177 C 0.79501 0.63917 0.15583 0.0
N178 N 0.80986 0.67657 0.1311 0.0
O179 O 0.79367 0.55791 0.19188 0.0
H180 H 0.87777 0.69967 0.22128 0.0
H181 H 0.76463 0.61008 0.14778 0.0
O182 O 0.8656 0.61301 0.2489 0.0
C183 C 0.75262 0.53296 0.18784 0.0
O184 O 0.72638 0.53933 0.21677 0.0
N185 N 0.81407 0.64119 0.29064 0.0
C186 C 0.81147 0.69267 0.36619 0.0
C187 C 0.8451 0.68258 0.36388 0.0
C188 C 0.84557 0.6562 0.32592 0.0
C189 C 0.78226 0.65226 0.29134 0.0
C190 C 0.7802 0.67786 0.32899 0.0
H191 H 0.87009 0.64649 0.32641 0.0
H192 H 0.75725 0.63951 0.2635 0.0
H193 H 0.8212 0.52206 0.26833 0.0
H194 H 0.73447 0.50184 0.38455 0.0
H195 H 0.86625 0.73916 0.14575 0.0
H196 H 0.86933 0.693 0.39255 0.0
H197 H 0.75371 0.68501 0.32982 0.0
H198 H 0.23053 0.68391 0.31957 0.0
H199 H 0.37165 0.75522 0.31194 0.0
H200 H 0.37161 0.69136 0.27536 0.0
H201 H 0.21877 0.5763 0.34535 0.0
H202 H 0.17098 0.54861 0.30746 0.0
H203 H 0.1826 0.59809 0.33864 0.0
H204 H 0.17987 0.63178 0.25609 0.0
H205 H 0.16819 0.5825 0.22478 0.0
H206 H 0.21433 0.63308 0.20637 0.0
H207 H 0.35553 0.6212 0.23253 0.0
H208 H 0.32421 0.55278 0.18433 0.0
H209 H 0.19414 0.52838 0.22043 0.0
C210 C 0.2614 0.68565 0.3113 0.0
C211 C 0.30104 0.72447 0.3186 0.0
C212 C 0.34083 0.7259 0.30621 0.0
C213 C 0.34116 0.68967 0.28581 0.0
C214 C 0.30142 0.65209 0.2781 0.0
C215 C 0.26226 0.64987 0.29057 0.0
C216 C 0.22393 0.60714 0.27473 0.0
C217 C 0.19752 0.58099 0.3192 0.0
C218 C 0.1949 0.61406 0.23833 0.0
C219 C 0.24755 0.58621 0.25023 0.0
C220 C 0.29225 0.61218 0.25315 0.0
C221 C 0.32055 0.60033 0.2306 0.0
C222 C 0.30258 0.5614 0.20347 0.0
C223 C 0.25685 0.53531 0.19877 0.0
C224 C 0.22928 0.54758 0.22348 0.0
H225 H 0.45342 0.67011 0.80133 0.0
H226 H 0.54018 0.75715 0.91254 0.0
H227 H 0.48284 0.71919 0.9754 0.0
H228 H 0.35163 0.66114 0.8543 0.0
H229 H 0.31988 0.60517 0.83587 0.0
H230 H 0.36638 0.64206 0.80003 0.0
H231 H 0.3988 0.59107 0.8083 0.0
H232 H 0.35288 0.55443 0.8448 0.0
H233 H 0.40741 0.57629 0.86834 0.0
H234 H 0.41976 0.66376 0.02706 0.0
H235 H 0.35211 0.6028 0.06155 0.0
H236 H 0.30506 0.55655 0.91531 0.0
C237 C 0.45983 0.68184 0.83876 0.0
C238 C 0.50089 0.71652 0.85236 0.0
C239 C 0.50855 0.73098 0.90154 0.0
C240 C 0.47632 0.70942 0.93739 0.0
C241 C 0.43647 0.67429 0.92299 0.0
C242 C 0.42777 0.66141 0.87457 0.0
C243 C 0.38291 0.62225 0.86849 0.0
C244 C 0.35345 0.63333 0.83787 0.0
C245 C 0.3857 0.58375 0.84618 0.0
C246 C 0.36812 0.61405 0.92123 0.0
C247 C 0.39951 0.64415 0.95228 0.0
C248 C 0.39457 0.64071 0.00299 0.0
C249 C 0.35637 0.60598 0.02228 0.0
C250 C 0.32351 0.5757 0.99088 0.0
C251 C 0.32945 0.57999 0.93984 0.0
H252 H 0.37916 0.79404 0.46629 0.0
H253 H 0.29141 0.78988 0.58023 0.0
H254 H 0.33307 0.77368 0.64131 0.0
H255 H 0.39641 0.70634 0.51653 0.0
H256 H 0.4525 0.73343 0.49666 0.0
H257 H 0.41229 0.73923 0.46241 0.0
H258 H 0.45932 0.82259 0.47083 0.0
H259 H 0.49916 0.81714 0.50597 0.0
H260 H 0.47424 0.84685 0.53089 0.0
H261 H 0.39196 0.76919 0.69088 0.0
H262 H 0.45619 0.76636 0.72281 0.0
H263 H 0.50223 0.77026 0.57476 0.0
C264 C 0.36796 0.78827 0.50389 0.0
C265 C 0.33204 0.79261 0.51885 0.0
C266 C 0.31844 0.78572 0.56824 0.0
C267 C 0.34211 0.7769 0.60306 0.0
C268 C 0.37857 0.77435 0.58737 0.0
C269 C 0.39064 0.77874 0.53863 0.0
C270 C 0.43183 0.77629 0.53101 0.0
C271 C 0.4227 0.73644 0.49982 0.0
C272 C 0.46826 0.81821 0.50836 0.0
C273 C 0.44213 0.77137 0.58324 0.0
C274 C 0.41123 0.77042 0.6154 0.0
C275 C 0.41583 0.76907 0.6659 0.0
C276 C 0.45253 0.76793 0.68374 0.0
C277 C 0.48381 0.76782 0.65111 0.0
C278 C 0.47835 0.76957 0.60035 0.0
H279 H 0.59814 0.24539 0.86572 0.0
H280 H 0.50311 0.22822 0.75583 0.0
H281 H 0.55646 0.23763 0.69051 0.0
H282 H 0.69492 0.32787 0.79839 0.0
H283 H 0.72869 0.30703 0.821 0.0
H284 H 0.68406 0.30275 0.85757 0.0
H285 H 0.65307 0.21991 0.86321 0.0
H286 H 0.69698 0.22373 0.82581 0.0
H287 H 0.64125 0.18815 0.8078 0.0
H288 H 0.61836 0.23958 0.63786 0.0
H289 H 0.6862 0.24497 0.60307 0.0
H290 H 0.74045 0.26447 0.7486 0.0
C291 C 0.58908 0.24488 0.82785 0.0
C292 C 0.54693 0.23663 0.81551 0.0
C293 C 0.53571 0.23546 0.76578 0.0
C294 C 0.56564 0.24033 0.72859 0.0
C295 C 0.6067 0.24707 0.74204 0.0
C296 C 0.61869 0.25046 0.79062 0.0
C297 C 0.66421 0.25707 0.79596 0.0
C298 C 0.69478 0.30132 0.81961 0.0
C299 C 0.66381 0.22 0.8249 0.0
C300 C 0.6758 0.25579 0.7429 0.0
C301 C 0.64226 0.24969 0.71215 0.0
C302 C 0.64502 0.24508 0.66165 0.0
C303 C 0.68336 0.24774 0.64222 0.0
C304 C 0.71845 0.25541 0.67322 0.0
C305 C 0.71429 0.25921 0.7241 0.0
H306 H 0.7805 0.47603 0.4247 0.0
H307 H 0.7846 0.44 0.27383 0.0
H308 H 0.78732 0.37507 0.30141 0.0
H309 H 0.85671 0.44794 0.4686 0.0
H310 H 0.82993 0.42918 0.52681 0.0
H311 H 0.82449 0.4699 0.49427 0.0
H312 H 0.7403 0.42185 0.49758 0.0
H313 H 0.74558 0.38066 0.52959 0.0
H314 H 0.715 0.3674 0.47347 0.0
H315 H 0.79121 0.31436 0.34721 0.0
H316 H 0.80582 0.27022 0.40605 0.0
H317 H 0.80199 0.34919 0.52546 0.0
C318 C 0.78137 0.45412 0.3975 0.0
C319 C 0.78196 0.46267 0.34721 0.0
C320 C 0.78427 0.43397 0.31258 0.0
C321 C 0.78538 0.39687 0.32793 0.0
C322 C 0.78446 0.38924 0.37802 0.0
C323 C 0.78305 0.4175 0.41219 0.0
C324 C 0.78599 0.40437 0.46375 0.0
C325 C 0.8267 0.43995 0.48986 0.0
C326 C 0.74422 0.39289 0.4928 0.0
C327 C 0.78998 0.36463 0.45347 0.0
C328 C 0.7881 0.35567 0.40394 0.0
C329 C 0.79241 0.32097 0.38605 0.0
C330 C 0.80029 0.29585 0.41959 0.0
C331 C 0.80444 0.30624 0.47 0.0
C332 C 0.79833 0.34039 0.48702 0.0
H333 H 0.56288 0.3074 0.09475 0.0
H334 H 0.60294 0.35009 0.9462 0.0
H335 H 0.6667 0.41738 0.97769 0.0
H336 H 0.58937 0.41078 0.14346 0.0
H337 H 0.60668 0.40126 0.20161 0.0
H338 H 0.56637 0.35645 0.16635 0.0
H339 H 0.61438 0.32004 0.16908 0.0
H340 H 0.6552 0.36516 0.20371 0.0
H341 H 0.66981 0.34909 0.1471 0.0
H342 H 0.72707 0.4802 0.02748 0.0
H343 H 0.77133 0.5361 0.08984 0.0
H344 H 0.68819 0.45166 0.20413 0.0
C345 C 0.58527 0.33084 0.06889 0.0
C346 C 0.5784 0.32363 0.01815 0.0
C347 C 0.60773 0.35531 0.98527 0.0
C348 C 0.64414 0.39329 0.00284 0.0
C349 C 0.65032 0.3991 0.05335 0.0
C350 C 0.62116 0.36889 0.08578 0.0
C351 C 0.63311 0.38351 0.13822 0.0
C352 C 0.59674 0.3883 0.1639 0.0
C353 C 0.64376 0.3526 0.16616 0.0
C354 C 0.67346 0.42689 0.13051 0.0
C355 C 0.68357 0.43521 0.08145 0.0
C356 C 0.71944 0.47388 0.06595 0.0
C357 C 0.74463 0.50523 0.10147 0.0
C358 C 0.73317 0.49773 0.15149 0.0
C359 C 0.69772 0.45786 0.16602 0.0
H360 H 0.99604 0.25182 0.72962 0.0
H361 H 0.89373 0.27843 0.77605 0.0
H362 H 0.93091 0.30658 0.85488 0.0
H363 H 1.01181 0.21719 0.85044 0.0
H364 H 0.07001 0.2413 0.84299 0.0
H365 H 0.03491 0.22201 0.79027 0.0
H366 H 0.07853 0.29771 0.75091 0.0
H367 H 0.1136 0.31728 0.80358 0.0
H368 H 0.08492 0.34462 0.78403 0.0
H369 H 0.98109 0.33744 0.92411 0.0
H370 H 0.03908 0.36449 0.98508 0.0
H371 H 0.10689 0.3119 0.89945 0.0
C372 C 0.98149 0.26325 0.75674 0.0
C373 C 0.94197 0.26274 0.74725 0.0
C374 C 0.9237 0.27804 0.78317 0.0
C375 C 0.94463 0.29423 0.82785 0.0
C376 C 0.98353 0.29442 0.83621 0.0
C377 C 1.00164 0.2789 0.80216 0.0
C378 C 0.04385 0.28299 0.82104 0.0
C379 C 0.03989 0.2382 0.82651 0.0
C380 C 0.0825 0.31241 0.78791 0.0
C381 C 0.04689 0.30407 0.87048 0.0
C382 C 1.01177 0.31046 0.87809 0.0
C383 C 1.00823 0.33161 0.91934 0.0
C384 C 0.04135 0.34646 0.95416 0.0
C385 C 0.07737 0.33937 0.94828 0.0
C386 C 0.07995 0.31781 0.90556 0.0
H387 H 0.74024 0.66271 0.42438 0.0
H388 H 0.87089 0.771 0.40608 0.0
H389 H 0.86032 0.80689 0.47927 0.0
H390 H 0.68872 0.72236 0.46423 0.0
H391 H 0.65398 0.68223 0.50786 0.0
H392 H 0.67226 0.66616 0.45405 0.0
H393 H 0.70445 0.62959 0.50844 0.0
H394 H 0.68637 0.64565 0.56244 0.0
H395 H 0.743 0.66084 0.55563 0.0
H396 H 0.83293 0.83179 0.55268 0.0
H397 H 0.7933 0.84114 0.62303 0.0
H398 H 0.68296 0.71395 0.59418 0.0
C399 C 0.76649 0.69412 0.43569 0.0
C400 C 0.80613 0.71456 0.40962 0.0
C401 C 0.84023 0.75514 0.42578 0.0
C402 C 0.83445 0.77564 0.4671 0.0
C403 C 0.7947 0.75462 0.49198 0.0
C404 C 0.76154 0.71452 0.47706 0.0
C405 C 0.72235 0.69805 0.51043 0.0
C406 C 0.68196 0.69186 0.48247 0.0
C407 C 0.71355 0.65605 0.53573 0.0
C408 C 0.73832 0.7353 0.54634 0.0
C409 C 0.77996 0.76785 0.53505 0.0
C410 C 0.80055 0.80627 0.56217 0.0
C411 C 0.77791 0.81136 0.60186 0.0
C412 C 0.73558 0.77793 0.6142 0.0
C413 C 0.71573 0.73955 0.58608 0.0
H414 H 0.30876 0.03288 0.0513 0.0
H415 H 0.35007 0.15466 0.12959 0.0
H416 H 0.31845 0.11489 0.20396 0.0
H417 H 0.21159 0.96217 0.12458 0.0
H418 H 0.22435 0.91896 0.12467 0.0
H419 H 0.2402 0.95524 0.07349 0.0
H420 H 0.32055 0.97364 0.08393 0.0
H421 H 0.30489 0.93731 0.13477 0.0
H422 H 0.34677 0.99302 0.14234 0.0
H423 H 0.28902 0.06396 0.27273 0.0
H424 H 0.27305 1.00659 0.33214 0.0
H425 H 0.26334 0.92008 0.21332 0.0
C426 C 0.31138 0.05183 0.0835 0.0
C427 C 0.3317 0.0977 0.0825 0.0
C428 C 0.33338 0.11983 0.12691 0.0
C429 C 0.31562 0.0974 0.17031 0.0
C430 C 0.29704 0.0527 0.16978 0.0
C431 C 0.29546 0.03015 0.12778 0.0
C432 C 0.28031 0.98311 0.13885 0.0
C433 C 0.2365 0.9531 0.11391 0.0
C434 C 0.31522 0.97109 0.12412 0.0
C435 C 0.2751 0.98333 0.19388 0.0
C436 C 0.28351 0.02349 0.21063 0.0
C437 C 0.28239 0.03232 0.26012 0.0
C438 C 0.27374 0.9996 0.29363 0.0
C439 C 0.26759 0.95887 0.27768 0.0
C440 C 0.26723 0.95048 0.22692 0.0
H441 H 0.37772 0.26304 0.97434 0.0
H442 H 0.43356 0.35594 0.85707 0.0
H443 H 0.40319 0.39889 0.89527 0.0
H444 H 0.28052 0.26773 0.99285 0.0
H445 H 0.28133 0.26373 0.05843 0.0
H446 H 0.30573 0.23976 0.02041 0.0
H447 H 0.37877 0.28365 0.06649 0.0
H448 H 0.35473 0.30784 0.10478 0.0
H449 H 0.40368 0.34173 0.07062 0.0
H450 H 0.36423 0.43067 0.94675 0.0
H451 H 0.32437 0.45001 0.00786 0.0
H452 H 0.30174 0.33988 0.09537 0.0
C453 C 0.38464 0.29272 0.95693 0.0
C454 C 0.40898 0.30618 0.91293 0.0
C455 C 0.41523 0.34474 0.8908 0.0
C456 C 0.39814 0.36945 0.91235 0.0
C457 C 0.3752 0.35552 0.95639 0.0
C458 C 0.3688 0.31814 0.97853 0.0
C459 C 0.34413 0.31047 0.02639 0.0
C460 C 0.30033 0.2679 0.02437 0.0
C461 C 0.372 0.31097 0.06962 0.0
C462 C 0.33743 0.3494 0.02793 0.0
C463 C 0.35504 0.37476 0.98692 0.0
C464 C 0.35087 0.41128 0.9792 0.0
C465 C 0.32818 0.42203 0.01411 0.0
C466 C 0.3106 0.39692 0.05681 0.0
C467 C 0.31564 0.36029 0.06371 0.0
H468 H 0.8242 0.09226 0.62414 0.0
H469 H 0.71402 0.1096 0.59001 0.0
H470 H 0.66554 0.04311 0.63711 0.0
H471 H 0.77003 0.97694 0.61821 0.0
H472 H 0.80053 0.97323 0.66867 0.0
H473 H 0.82445 0.0204 0.63055 0.0
H474 H 0.83839 0.06908 0.70725 0.0
H475 H 0.81404 0.022 0.74556 0.0
H476 H 0.7934 0.05932 0.74682 0.0
H477 H 0.62926 0.97102 0.68769 0.0
H478 H 0.61083 0.90563 0.73667 0.0
H479 H 0.7479 0.94316 0.74084 0.0
C480 C 0.78979 0.08209 0.62577 0.0
C481 C 0.77286 0.10593 0.60252 0.0
C482 C 0.7277 0.09162 0.60697 0.0
C483 C 0.70001 0.05397 0.6338 0.0
C484 C 0.71817 0.03151 0.65662 0.0
C485 C 0.76224 0.04554 0.65291 0.0
C486 C 0.77487 1.01742 0.68167 0.0
C487 C 0.79355 0.99571 0.64775 0.0
C488 C 0.80707 0.04352 0.72276 0.0
C489 C 0.73101 0.98477 0.70209 0.0
C490 C 0.69837 0.99283 0.68717 0.0
C491 C 0.65482 0.96497 0.69993 0.0
C492 C 0.64463 0.92796 0.72793 0.0
C493 C 0.67791 0.91947 0.74347 0.0
C494 C 0.72159 0.94887 0.73067 0.0
H495 H 0.13119 0.80128 0.3314 0.0
H496 H 0.12442 0.70349 0.42972 0.0
H497 H 0.05559 0.64882 0.38967 0.0
H498 H 1.01949 0.76749 0.32596 0.0
H499 H 1.0197 0.77885 0.26188 0.0
H500 H 0.06848 0.80894 0.29748 0.0
H501 H 0.1109 0.78681 0.23678 0.0
H502 H 0.06216 0.75659 0.20091 0.0
H503 H 0.09089 0.7303 0.22362 0.0
H504 H 0.98233 0.60775 0.34436 0.0
H505 H 0.91637 0.58217 0.29284 0.0
H506 H 0.97637 0.70542 0.21874 0.0
C507 C 0.1153 0.76826 0.34437 0.0
C508 C 0.13261 0.75653 0.38403 0.0
C509 C 0.11147 0.71299 0.39946 0.0
C510 C 0.07243 0.68188 0.37694 0.0
C511 C 0.05583 0.69473 0.33823 0.0
C512 C 0.07722 0.7368 0.32152 0.0
C513 C 0.0532 0.74269 0.27925 0.0
C514 C 0.0394 0.77648 0.29193 0.0
C515 C 0.08095 0.7548 0.23236 0.0
C516 C 1.01411 0.69764 0.27539 0.0
C517 C 1.0159 0.67043 0.30996 0.0
C518 C 0.98126 0.62846 0.31637 0.0
C519 C 0.94396 0.61417 0.28697 0.0
C520 C 0.94196 0.64137 0.25088 0.0
C521 C 0.97776 0.6834 0.24476 0.0
H522 H 0.93828 0.21753 0.36482 0.0
H523 H 0.99317 0.31942 0.47538 0.0
H524 H 0.05953 0.35818 0.42582 0.0
H525 H 0.03885 0.21835 0.33675 0.0
H526 H 1.02696 0.20806 0.27244 0.0
H527 H 0.98308 0.18818 0.31632 0.0
H528 H 0.94902 0.2279 0.27112 0.0
H529 H 0.9927 0.24779 0.22703 0.0
H530 H 0.98156 0.28523 0.26048 0.0
H531 H 0.11986 0.38751 0.36288 0.0
H532 H 0.16964 0.40362 0.29226 0.0
H533 H 0.07736 0.2815 0.22474 0.0
C534 C 0.96402 0.24781 0.37916 0.0
C535 C 0.95946 0.2652 0.42439 0.0
C536 C 0.99474 0.30526 0.44081 0.0
C537 C 0.03301 0.32761 0.41294 0.0
C538 C 0.03613 0.30952 0.36872 0.0
C539 C 1.00268 0.27041 0.35204 0.0
C540 C 1.01437 0.25792 0.30328 0.0
C541 C 1.01591 0.21562 0.30747 0.0
C542 C 0.98252 0.25453 0.26311 0.0
C543 C 0.05953 0.29628 0.29503 0.0
C544 C 0.07141 0.32576 0.33317 0.0
C545 C 0.11099 0.36449 0.33301 0.0
C546 C 0.13902 0.37344 0.29273 0.0
C547 C 0.12762 0.34372 0.25322 0.0
C548 C 0.0874 0.30447 0.25479 0.0
H549 H 0.73803 0.81264 0.96331 0.0
H550 H 0.65926 0.69391 0.88127 0.0
H551 H 0.6861 0.65597 0.93298 0.0
H552 H 0.83035 0.79647 0.9828 0.0
H553 H 0.84044 0.81856 0.04401 0.0
H554 H 0.81614 0.83713 0.99953 0.0
H555 H 0.75074 0.81713 0.05774 0.0
H556 H 0.7749 0.79863 0.10243 0.0
H557 H 0.72032 0.76282 0.08096 0.0
H558 H 0.71974 0.62994 0.99497 0.0
H559 H 0.75802 0.61796 0.06292 0.0
H560 H 0.81414 0.75284 0.10619 0.0
C561 C 0.72633 0.77865 0.95624 0.0
C562 C 0.6967 0.75655 0.9177 0.0
C563 C 0.68254 0.71204 0.90968 0.0
C564 C 0.69741 0.69001 0.93917 0.0
C565 C 0.72654 0.71276 0.97668 0.0
C566 C 0.7409 0.7561 0.98535 0.0
C567 C 0.77179 0.77273 0.02861 0.0
C568 C 0.81739 0.80833 0.01277 0.0
C569 C 0.75332 0.78876 0.06987 0.0
C570 C 0.77223 0.73188 0.04309 0.0
C571 C 0.74594 0.6977 0.01257 0.0
C572 C 0.74045 0.65649 0.01909 0.0
C573 C 0.76216 0.64993 0.058 0.0
C574 C 0.78912 0.68436 0.09009 0.0
C575 C 0.79432 0.72594 0.08207 0.0
H576 H 0.29192 0.06795 0.759 0.0
H577 H 0.43145 0.11649 0.74996 0.0
H578 H 0.41909 0.06241 0.68604 0.0
H579 H 0.25802 0.95561 0.74051 0.0
H580 H 0.21154 0.94456 0.70349 0.0
H581 H 0.231 0.98696 0.74906 0.0
H582 H 0.23902 0.04211 0.68303 0.0
H583 H 0.21938 0.99983 0.6373 0.0
H584 H 0.27127 0.04825 0.62915 0.0
H585 H 0.39193 1.00266 0.62351 0.0
H586 H 0.35212 0.94279 0.5653 0.0
H587 H 0.2301 0.93419 0.61171 0.0
C588 C 0.31997 0.06754 0.74342 0.0
C589 C 0.36273 0.09654 0.76021 0.0
C590 C 0.39833 0.09433 0.73877 0.0
C591 C 0.39168 0.06379 0.70207 0.0
C592 C 0.34921 0.0356 0.68678 0.0
C593 C 0.31394 0.03727 0.70655 0.0
C594 C 0.27165 1.00332 0.68317 0.0
C595 C 0.24127 0.97068 0.72134 0.0
C596 C 0.249 0.02466 0.65658 0.0
C597 C 0.28872 0.98234 0.64723 0.0
C598 C 0.33355 1.00146 0.65004 0.0
C599 C 0.35682 0.98765 0.62073 0.0
C600 C 0.33379 0.95363 0.58739 0.0
C601 C 0.28776 0.93364 0.58323 0.0
C602 C 0.26513 0.94833 0.61399 0.0
loop_
_geom_bond_atom_site_label_1
_geom_bond_atom_site_label_2
_geom_bond_distance
_geom_bond_site_symmetry_2
_ccdc_geom_bond_type
C0 C1 1.351 1_554 S
C0 N3 1.368 . S
C0 H5 0.931 . S
C1 C0 1.351 1_556 S
C1 N2 1.373 . S
C1 H29 0.930 . S
N2 C1 1.373 . S
N2 C4 1.340 . S
N3 C0 1.368 . S
N3 C4 1.321 1_554 S
N3 Co6 2.135 . S
C4 N2 1.340 . S
C4 N3 1.321 1_556 S
C4 H28 0.930 . S
H5 C0 0.931 . S
Co6 N3 2.135 . S
Co6 N9 2.121 . S
Co6 O14 2.055 . S
Co6 O17 2.039 . S
Co6 N20 2.140 . S
C7 O8 1.227 . S
C7 O17 1.265 . S
O8 C7 1.227 . S
N9 Co6 2.121 . S
N9 C11 1.375 . S
N9 C12 1.313 . S
C10 C11 1.338 . S
C10 N13 1.377 . S
C10 H30 0.930 . S
C11 N9 1.375 . S
C11 C10 1.338 . S
C11 H15 0.931 . S
C12 N9 1.313 . S
C12 N13 1.344 . S
C12 H16 0.930 . S
N13 C10 1.377 . S
N13 C12 1.344 . S
O14 Co6 2.055 . S
O14 C18 1.253 . S
H15 C11 0.931 . S
H16 C12 0.930 . S
O17 Co6 2.039 . S
O17 C7 1.265 . S
C18 O14 1.253 . S
C18 O19 1.227 . S
O19 C18 1.227 . S
N20 Co6 2.140 . S
N20 C23 1.346 1_554 S
N20 C24 1.345 . S
C21 C22 1.387 . S
C21 C25 1.391 . S
C22 C21 1.387 . S
C22 C23 1.369 . S
C22 H31 0.929 . S
C23 N20 1.346 1_556 S
C23 C22 1.369 . S
C23 H26 0.928 . S
C24 N20 1.345 . S
C24 C25 1.371 1_554 S
C24 H27 0.931 . S
C25 C21 1.391 . S
C25 C24 1.371 1_556 S
C25 H32 0.928 1_556 S
H26 C23 0.928 . S
H27 C24 0.931 . S
H28 C4 0.930 . S
H29 C1 0.930 . S
H30 C10 0.930 . S
H31 C22 0.929 . S
H32 C25 0.928 1_554 S
C33 C34 1.351 . S
C33 N36 1.368 . S
C33 H38 0.931 . S
C34 C33 1.351 . S
C34 N35 1.373 . S
C34 H62 0.930 . S
N35 C34 1.373 . S
N35 C37 1.340 . S
N36 C33 1.368 . S
N36 C37 1.321 . S
N36 Co39 2.135 . S
C37 N35 1.340 . S
C37 N36 1.321 . S
C37 H61 0.930 . S
H38 C33 0.931 . S
Co39 N36 2.135 . S
Co39 N42 2.121 . S
Co39 O47 2.055 . S
Co39 O50 2.039 . S
Co39 N53 2.140 . S
C40 O41 1.227 . S
C40 O50 1.265 . S
O41 C40 1.227 . S
N42 Co39 2.121 . S
N42 C44 1.375 . S
N42 C45 1.313 . S
C43 C44 1.338 . S
C43 N46 1.377 . S
C43 H63 0.930 . S
C44 N42 1.375 . S
C44 C43 1.338 . S
C44 H48 0.931 . S
C45 N42 1.313 . S
C45 N46 1.344 . S
C45 H49 0.930 . S
N46 C43 1.377 . S
N46 C45 1.344 . S
O47 Co39 2.055 . S
O47 C51 1.253 . S
H48 C44 0.931 . S
H49 C45 0.930 . S
O50 Co39 2.039 . S
O50 C40 1.265 . S
C51 O47 1.253 . S
C51 O52 1.227 . S
O52 C51 1.227 . S
N53 Co39 2.140 . S
N53 C56 1.346 . S
N53 C57 1.345 . S
C54 C55 1.387 . S
C54 C58 1.391 . S
C55 C54 1.387 . S
C55 C56 1.369 . S
C55 H64 0.929 . S
C56 N53 1.346 . S
C56 C55 1.369 . S
C56 H59 0.928 . S
C57 N53 1.345 . S
C57 C58 1.371 . S
C57 H60 0.931 . S
C58 C54 1.391 . S
C58 C57 1.371 . S
C58 H65 0.930 . S
H59 C56 0.928 . S
H60 C57 0.931 . S
H61 C37 0.930 . S
H62 C34 0.930 . S
H63 C43 0.930 . S
H64 C55 0.929 . S
H65 C58 0.930 . S
C66 C67 1.351 . S
C66 N69 1.368 . S
C66 H71 0.931 . S
C67 C66 1.351 . S
C67 N68 1.373 . S
C67 H95 0.930 . S
N68 C67 1.373 . S
N68 C70 1.340 . S
N69 C66 1.368 . S
N69 C70 1.321 . S
N69 Co72 2.135 . S
C70 N68 1.340 . S
C70 N69 1.321 . S
C70 H94 0.930 . S
H71 C66 0.931 . S
Co72 N69 2.135 . S
Co72 N75 2.121 . S
Co72 O80 2.055 . S
Co72 O83 2.039 . S
Co72 N86 2.140 . S
C73 O74 1.227 . S
C73 O83 1.265 . S
O74 C73 1.227 . S
N75 Co72 2.121 . S
N75 C77 1.375 . S
N75 C78 1.313 . S
C76 C77 1.338 . S
C76 N79 1.377 . S
C76 H96 0.930 . S
C77 N75 1.375 . S
C77 C76 1.338 . S
C77 H81 0.931 . S
C78 N75 1.313 . S
C78 N79 1.344 . S
C78 H82 0.930 . S
N79 C76 1.377 . S
N79 C78 1.344 . S
O80 Co72 2.055 . S
O80 C84 1.253 . S
H81 C77 0.931 . S
H82 C78 0.930 . S
O83 Co72 2.039 . S
O83 C73 1.265 . S
C84 O80 1.253 . S
C84 O85 1.227 . S
O85 C84 1.227 . S
N86 Co72 2.140 . S
N86 C89 1.346 . S
N86 C90 1.345 . S
C87 C88 1.387 . S
C87 C91 1.391 . S
C88 C87 1.387 . S
C88 C89 1.369 . S
C88 H97 0.929 . S
C89 N86 1.346 . S
C89 C88 1.369 . S
C89 H92 0.928 . S
C90 N86 1.345 . S
C90 C91 1.371 . S
C90 H93 0.931 . S
C91 C87 1.391 . S
C91 C90 1.371 . S
C91 H98 0.930 . S
H92 C89 0.928 . S
H93 C90 0.931 . S
H94 C70 0.930 . S
H95 C67 0.930 . S
H96 C76 0.930 . S
H97 C88 0.929 . S
H98 C91 0.930 . S
C99 C100 1.351 1_556 S
C99 N102 1.368 . S
C99 H104 0.931 . S
C100 C99 1.351 1_554 S
C100 N101 1.373 . S
C100 H128 0.930 . S
N101 C100 1.373 . S
N101 C103 1.340 . S
N102 C99 1.368 . S
N102 C103 1.321 1_556 S
N102 Co105 2.135 . S
C103 N101 1.340 . S
C103 N102 1.321 1_554 S
C103 H127 0.930 . S
H104 C99 0.931 . S
Co105 N102 2.135 . S
Co105 N108 2.121 . S
Co105 O113 2.055 . S
Co105 O116 2.039 . S
Co105 N119 2.140 . S
C106 O107 1.227 . S
C106 O116 1.265 . S
O107 C106 1.227 . S
N108 Co105 2.121 . S
N108 C110 1.375 . S
N108 C111 1.313 . S
C109 C110 1.338 . S
C109 N112 1.377 . S
C109 H129 0.930 . S
C110 N108 1.375 . S
C110 C109 1.338 . S
C110 H114 0.931 . S
C111 N108 1.313 . S
C111 N112 1.344 . S
C111 H115 0.930 . S
N112 C109 1.377 . S
N112 C111 1.344 . S
O113 Co105 2.055 . S
O113 C117 1.253 . S
H114 C110 0.931 . S
H115 C111 0.930 . S
O116 Co105 2.039 . S
O116 C106 1.265 . S
C117 O113 1.253 . S
C117 O118 1.227 . S
O118 C117 1.227 . S
N119 Co105 2.140 . S
N119 C122 1.346 1_556 S
N119 C123 1.345 . S
C120 C121 1.387 . S
C120 C124 1.391 . S
C121 C120 1.387 . S
C121 C122 1.369 . S
C121 H130 0.929 . S
C122 N119 1.346 1_554 S
C122 C121 1.369 . S
C122 H125 0.928 . S
C123 N119 1.345 . S
C123 C124 1.371 1_556 S
C123 H126 0.931 . S
C124 C120 1.391 . S
C124 C123 1.371 1_554 S
C124 H131 0.928 1_554 S
H125 C122 0.928 . S
H126 C123 0.931 . S
H127 C103 0.930 . S
H128 C100 0.930 . S
H129 C109 0.930 . S
H130 C121 0.929 . S
H131 C124 0.928 1_556 S
C132 C133 1.351 . S
C132 N135 1.368 . S
C132 H137 0.931 . S
C133 C132 1.351 . S
C133 N134 1.373 . S
C133 H161 0.930 . S
N134 C133 1.373 . S
N134 C136 1.340 . S
N135 C132 1.368 . S
N135 C136 1.321 . S
N135 Co138 2.135 . S
C136 N134 1.340 . S
C136 N135 1.321 . S
C136 H160 0.930 . S
H137 C132 0.931 . S
Co138 N135 2.135 . S
Co138 N141 2.121 . S
Co138 O146 2.055 . S
Co138 O149 2.039 . S
Co138 N152 2.140 . S
C139 O140 1.227 . S
C139 O149 1.265 . S
O140 C139 1.227 . S
N141 Co138 2.121 . S
N141 C143 1.375 . S
N141 C144 1.313 . S
C142 C143 1.338 . S
C142 N145 1.377 . S
C142 H162 0.930 . S
C143 N141 1.375 . S
C143 C142 1.338 . S
C143 H147 0.931 . S
C144 N141 1.313 . S
C144 N145 1.344 . S
C144 H148 0.930 . S
N145 C142 1.377 . S
N145 C144 1.344 . S
O146 Co138 2.055 . S
O146 C150 1.253 . S
H147 C143 0.931 . S
H148 C144 0.930 . S
O149 Co138 2.039 . S
O149 C139 1.265 . S
C150 O146 1.253 . S
C150 O151 1.227 . S
O151 C150 1.227 . S
N152 Co138 2.140 . S
N152 C155 1.346 . S
N152 C156 1.345 . S
C153 C154 1.387 . S
C153 C157 1.391 . S
C154 C153 1.387 . S
C154 C155 1.369 . S
C154 H163 0.929 . S
C155 N152 1.346 . S
C155 C154 1.369 . S
C155 H158 0.928 . S
C156 N152 1.345 . S
C156 C157 1.371 . S
C156 H159 0.931 . S
C157 C153 1.391 . S
C157 C156 1.371 . S
C157 H164 0.930 . S
H158 C155 0.928 . S
H159 C156 0.931 . S
H160 C136 0.930 . S
H161 C133 0.930 . S
H162 C142 0.930 . S
H163 C154 0.929 . S
H164 C157 0.930 . S
C165 C166 1.351 . S
C165 N168 1.368 . S
C165 H170 0.931 . S
C166 C165 1.351 . S
C166 N167 1.373 . S
C166 H194 0.930 . S
N167 C166 1.373 . S
N167 C169 1.340 . S
N168 C165 1.368 . S
N168 C169 1.321 . S
N168 Co171 2.135 . S
C169 N167 1.340 . S
C169 N168 1.321 . S
C169 H193 0.930 . S
H170 C165 0.931 . S
Co171 N168 2.135 . S
Co171 N174 2.121 . S
Co171 O179 2.055 . S
Co171 O182 2.039 . S
Co171 N185 2.140 . S
C172 O173 1.227 . S
C172 O182 1.265 . S
O173 C172 1.227 . S
N174 Co171 2.121 . S
N174 C176 1.375 . S
N174 C177 1.313 . S
C175 C176 1.338 . S
C175 N178 1.377 . S
C175 H195 0.930 . S
C176 N174 1.375 . S
C176 C175 1.338 . S
C176 H180 0.931 . S
C177 N174 1.313 . S
C177 N178 1.344 . S
C177 H181 0.930 . S
N178 C175 1.377 . S
N178 C177 1.344 . S
O179 Co171 2.055 . S
O179 C183 1.253 . S
H180 C176 0.931 . S
H181 C177 0.930 . S
O182 Co171 2.039 . S
O182 C172 1.265 . S
C183 O179 1.253 . S
C183 O184 1.227 . S
O184 C183 1.227 . S
N185 Co171 2.140 . S
N185 C188 1.346 . S
N185 C189 1.345 . S
C186 C187 1.387 . S
C186 C190 1.391 . S
C187 C186 1.387 . S
C187 C188 1.369 . S
C187 H196 0.929 . S
C188 N185 1.346 . S
C188 C187 1.369 . S
C188 H191 0.928 . S
C189 N185 1.345 . S
C189 C190 1.371 . S
C189 H192 0.931 . S
C190 C186 1.391 . S
C190 C189 1.371 . S
C190 H197 0.930 . S
H191 C188 0.928 . S
H192 C189 0.931 . S
H193 C169 0.930 . S
H194 C166 0.930 . S
H195 C175 0.930 . S
H196 C187 0.929 . S
H197 C190 0.930 . S
H198 C210 0.930 . S
H199 C212 0.930 . S
H200 C213 0.930 . S
H201 C217 0.959 . S
H202 C217 0.959 . S
H203 C217 0.961 . S
H204 C218 0.960 . S
H205 C218 0.961 . S
H206 C218 0.959 . S
H207 C221 0.929 . S
H208 C222 0.931 . S
H209 C224 0.930 . S
C210 H198 0.930 . S
C210 C211 1.399 . S
C210 C215 1.399 . S
C211 C210 1.399 . S
C211 C212 1.376 . S
C212 H199 0.930 . S
C212 C211 1.376 . S
C212 C213 1.388 . S
C213 H200 0.930 . S
C213 C212 1.388 . S
C213 C214 1.390 . S
C214 C213 1.390 . S
C214 C215 1.394 . S
C214 C220 1.465 . S
C215 C210 1.399 . S
C215 C214 1.394 . S
C215 C216 1.516 . S
C216 C215 1.516 . S
C216 C217 1.502 . S
C216 C218 1.561 . S
C216 C219 1.526 . S
C217 H201 0.959 . S
C217 H202 0.959 . S
C217 H203 0.961 . S
C217 C216 1.502 . S
C218 H204 0.960 . S
C218 H205 0.961 . S
C218 H206 0.959 . S
C218 C216 1.561 . S
C219 C216 1.526 . S
C219 C220 1.396 . S
C219 C224 1.390 . S
C220 C214 1.465 . S
C220 C219 1.396 . S
C220 C221 1.399 . S
C221 H207 0.929 . S
C221 C220 1.399 . S
C221 C222 1.385 . S
C222 H208 0.931 . S
C222 C221 1.385 . S
C222 C223 1.389 . S
C223 C222 1.389 . S
C223 C224 1.387 . S
C224 H209 0.930 . S
C224 C219 1.390 . S
C224 C223 1.387 . S
H225 C237 0.930 . S
H226 C239 0.930 . S
H227 C240 0.930 . S
H228 C244 0.959 . S
H229 C244 0.959 . S
H230 C244 0.961 . S
H231 C245 0.960 . S
H232 C245 0.961 . S
H233 C245 0.959 . S
H234 C248 0.929 . S
H235 C249 0.931 1_554 S
H236 C251 0.930 . S
C237 H225 0.930 . S
C237 C238 1.399 . S
C237 C242 1.399 . S
C238 C237 1.399 . S
C238 C239 1.376 . S
C239 H226 0.930 . S
C239 C238 1.376 . S
C239 C240 1.388 . S
C240 H227 0.930 . S
C240 C239 1.388 . S
C240 C241 1.390 . S
C241 C240 1.390 . S
C241 C242 1.394 . S
C241 C247 1.465 . S
C242 C237 1.399 . S
C242 C241 1.394 . S
C242 C243 1.516 . S
C243 C242 1.516 . S
C243 C244 1.502 . S
C243 C245 1.561 . S
C243 C246 1.526 . S
C244 H228 0.959 . S
C244 H229 0.959 . S
C244 H230 0.961 . S
C244 C243 1.502 . S
C245 H231 0.960 . S
C245 H232 0.961 . S
C245 H233 0.959 . S
C245 C243 1.561 . S
C246 C243 1.526 . S
C246 C247 1.396 . S
C246 C251 1.390 . S
C247 C241 1.465 . S
C247 C246 1.396 . S
C247 C248 1.399 . S
C248 H234 0.929 . S
C248 C247 1.399 . S
C248 C249 1.385 . S
C249 H235 0.931 1_556 S
C249 C248 1.385 . S
C249 C250 1.389 . S
C250 C249 1.389 . S
C250 C251 1.387 . S
C251 H236 0.930 . S
C251 C246 1.390 . S
C251 C250 1.387 . S
H252 C264 0.930 . S
H253 C266 0.930 . S
H254 C267 0.930 . S
H255 C271 0.959 . S
H256 C271 0.959 . S
H257 C271 0.961 . S
H258 C272 0.960 . S
H259 C272 0.961 . S
H260 C272 0.959 . S
H261 C275 0.929 . S
H262 C276 0.931 . S
H263 C278 0.930 . S
C264 H252 0.930 . S
C264 C265 1.399 . S
C264 C269 1.399 . S
C265 C264 1.399 . S
C265 C266 1.376 . S
C266 H253 0.930 . S
C266 C265 1.376 . S
C266 C267 1.388 . S
C267 H254 0.930 . S
C267 C266 1.388 . S
C267 C268 1.390 . S
C268 C267 1.390 . S
C268 C269 1.394 . S
C268 C274 1.465 . S
C269 C264 1.399 . S
C269 C268 1.394 . S
C269 C270 1.516 . S
C270 C269 1.516 . S
C270 C271 1.502 . S
C270 C272 1.561 . S
C270 C273 1.526 . S
C271 H255 0.959 . S
C271 H256 0.959 . S
C271 H257 0.961 . S
C271 C270 1.502 . S
C272 H258 0.960 . S
C272 H259 0.961 . S
C272 H260 0.959 . S
C272 C270 1.561 . S
C273 C270 1.526 . S
C273 C274 1.396 . S
C273 C278 1.390 . S
C274 C268 1.465 . S
C274 C273 1.396 . S
C274 C275 1.399 . S
C275 H261 0.929 . S
C275 C274 1.399 . S
C275 C276 1.385 . S
C276 H262 0.931 . S
C276 C275 1.385 . S
C276 C277 1.389 . S
C277 C276 1.389 . S
C277 C278 1.387 . S
C278 H263 0.930 . S
C278 C273 1.390 . S
C278 C277 1.387 . S
H279 C291 0.930 . S
H280 C293 0.930 . S
H281 C294 0.930 . S
H282 C298 0.959 . S
H283 C298 0.959 . S
H284 C298 0.961 . S
H285 C299 0.960 . S
H286 C299 0.961 . S
H287 C299 0.959 . S
H288 C302 0.929 . S
H289 C303 0.931 . S
H290 C305 0.930 . S
C291 H279 0.930 . S
C291 C292 1.399 . S
C291 C296 1.399 . S
C292 C291 1.399 . S
C292 C293 1.376 . S
C293 H280 0.930 . S
C293 C292 1.376 . S
C293 C294 1.388 . S
C294 H281 0.930 . S
C294 C293 1.388 . S
C294 C295 1.390 . S
C295 C294 1.390 . S
C295 C296 1.394 . S
C295 C301 1.465 . S
C296 C291 1.399 . S
C296 C295 1.394 . S
C296 C297 1.516 . S
C297 C296 1.516 . S
C297 C298 1.502 . S
C297 C299 1.561 . S
C297 C300 1.526 . S
C298 H282 0.959 . S
C298 H283 0.959 . S
C298 H284 0.961 . S
C298 C297 1.502 . S
C299 H285 0.960 . S
C299 H286 0.961 . S
C299 H287 0.959 . S
C299 C297 1.561 . S
C300 C297 1.526 . S
C300 C301 1.396 . S
C300 C305 1.390 . S
C301 C295 1.465 . S
C301 C300 1.396 . S
C301 C302 1.399 . S
C302 H288 0.929 . S
C302 C301 1.399 . S
C302 C303 1.385 . S
C303 H289 0.931 . S
C303 C302 1.385 . S
C303 C304 1.389 . S
C304 C303 1.389 . S
C304 C305 1.387 . S
C305 H290 0.930 . S
C305 C300 1.390 . S
C305 C304 1.387 . S
H306 C318 0.930 . S
H307 C320 0.930 . S
H308 C321 0.930 . S
H309 C325 0.959 . S
H310 C325 0.959 . S
H311 C325 0.961 . S
H312 C326 0.960 . S
H313 C326 0.961 . S
H314 C326 0.959 . S
H315 C329 0.929 . S
H316 C330 0.931 . S
H317 C332 0.930 . S
C318 H306 0.930 . S
C318 C319 1.399 . S
C318 C323 1.399 . S
C319 C318 1.399 . S
C319 C320 1.376 . S
C320 H307 0.930 . S
C320 C319 1.376 . S
C320 C321 1.388 . S
C321 H308 0.930 . S
C321 C320 1.388 . S
C321 C322 1.390 . S
C322 C321 1.390 . S
C322 C323 1.394 . S
C322 C328 1.465 . S
C323 C318 1.399 . S
C323 C322 1.394 . S
C323 C324 1.516 . S
C324 C323 1.516 . S
C324 C325 1.502 . S
C324 C326 1.561 . S
C324 C327 1.526 . S
C325 H309 0.959 . S
C325 H310 0.959 . S
C325 H311 0.961 . S
C325 C324 1.502 . S
C326 H312 0.960 . S
C326 H313 0.961 . S
C326 H314 0.959 . S
C326 C324 1.561 . S
C327 C324 1.526 . S
C327 C328 1.396 . S
C327 C332 1.390 . S
C328 C322 1.465 . S
C328 C327 1.396 . S
C328 C329 1.399 . S
C329 H315 0.929 . S
C329 C328 1.399 . S
C329 C330 1.385 . S
C330 H316 0.931 . S
C330 C329 1.385 . S
C330 C331 1.389 . S
C331 C330 1.389 . S
C331 C332 1.387 . S
C332 H317 0.930 . S
C332 C327 1.390 . S
C332 C331 1.387 . S
H333 C345 0.930 . S
H334 C347 0.916 1_556 S
H335 C348 0.930 . S
H336 C352 0.959 . S
H337 C352 0.959 . S
H338 C352 0.961 . S
H339 C353 0.960 . S
H340 C353 0.961 . S
H341 C353 0.959 . S
H342 C356 0.929 . S
H343 C357 0.931 . S
H344 C359 0.930 . S
C345 H333 0.930 . S
C345 C346 1.399 . S
C345 C350 1.399 . S
C346 C345 1.399 . S
C346 C347 1.376 . S
C347 H334 0.916 1_554 S
C347 C346 1.376 . S
C347 C348 1.388 . S
C348 H335 0.930 . S
C348 C347 1.388 . S
C348 C349 1.390 . S
C349 C348 1.390 . S
C349 C350 1.394 . S
C349 C355 1.465 . S
C350 C345 1.399 . S
C350 C349 1.394 . S
C350 C351 1.516 . S
C351 C350 1.516 . S
C351 C352 1.502 . S
C351 C353 1.561 . S
C351 C354 1.526 . S
C352 H336 0.959 . S
C352 H337 0.959 . S
C352 H338 0.961 . S
C352 C351 1.502 . S
C353 H339 0.960 . S
C353 H340 0.961 . S
C353 H341 0.959 . S
C353 C351 1.561 . S
C354 C351 1.526 . S
C354 C355 1.396 . S
C354 C359 1.390 . S
C355 C349 1.465 . S
C355 C354 1.396 . S
C355 C356 1.399 . S
C356 H342 0.929 . S
C356 C355 1.399 . S
C356 C357 1.385 . S
C357 H343 0.931 . S
C357 C356 1.385 . S
C357 C358 1.389 . S
C358 C357 1.389 . S
C358 C359 1.387 . S
C359 H344 0.930 . S
C359 C354 1.390 . S
C359 C358 1.387 . S
H360 C372 0.930 . S
H361 C374 0.930 . S
H362 C375 0.930 1_455 S
H363 C379 0.959 . S
H364 C379 0.959 . S
H365 C379 0.961 . S
H366 C380 0.960 1_655 S
H367 C380 0.961 . S
H368 C380 0.959 . S
H369 C383 0.929 . S
H370 C384 0.931 . S
H371 C386 0.930 . S
C372 H360 0.930 . S
C372 C373 1.399 . S
C372 C377 1.399 . S
C373 C372 1.399 . S
C373 C374 1.376 . S
C374 H361 0.930 . S
C374 C373 1.376 . S
C374 C375 1.388 . S
C375 H362 0.930 1_655 S
C375 C374 1.388 . S
C375 C376 1.390 . S
C376 C375 1.390 . S
C376 C377 1.394 . S
C376 C382 1.465 1_655 S
C377 C372 1.399 . S
C377 C376 1.394 . S
C377 C378 1.516 . S
C378 C377 1.516 . S
C378 C379 1.502 . S
C378 C380 1.561 1_655 S
C378 C381 1.526 1_655 S
C379 H363 0.959 . S
C379 H364 0.959 . S
C379 H365 0.961 . S
C379 C378 1.502 . S
C380 H366 0.960 1_455 S
C380 H367 0.961 . S
C380 H368 0.959 . S
C380 C378 1.561 1_455 S
C381 C378 1.526 1_455 S
C381 C382 1.396 . S
C381 C386 1.390 . S
C382 C376 1.465 1_455 S
C382 C381 1.396 . S
C382 C383 1.399 . S
C383 H369 0.929 . S
C383 C382 1.399 . S
C383 C384 1.385 . S
C384 H370 0.931 . S
C384 C383 1.385 . S
C384 C385 1.389 . S
C385 C384 1.389 . S
C385 C386 1.387 . S
C386 H371 0.930 . S
C386 C381 1.390 . S
C386 C385 1.387 . S
H387 C399 0.930 . S
H388 C401 0.930 . S
H389 C402 0.930 . S
H390 C406 0.959 . S
H391 C406 0.959 . S
H392 C406 0.961 . S
H393 C407 0.960 . S
H394 C407 0.961 . S
H395 C407 0.959 . S
H396 C410 0.929 . S
H397 C411 0.931 . S
H398 C413 0.930 . S
C399 H387 0.930 . S
C399 C400 1.399 . S
C399 C404 1.399 . S
C400 C399 1.399 . S
C400 C401 1.376 . S
C401 H388 0.930 . S
C401 C400 1.376 . S
C401 C402 1.388 . S
C402 H389 0.930 . S
C402 C401 1.388 . S
C402 C403 1.390 . S
C403 C402 1.390 . S
C403 C404 1.394 . S
C403 C409 1.465 . S
C404 C399 1.399 . S
C404 C403 1.394 . S
C404 C405 1.516 . S
C405 C404 1.516 . S
C405 C406 1.502 . S
C405 C407 1.561 . S
C405 C408 1.526 . S
C406 H390 0.959 . S
C406 H391 0.959 . S
C406 H392 0.961 . S
C406 C405 1.502 . S
C407 H393 0.960 . S
C407 H394 0.961 . S
C407 H395 0.959 . S
C407 C405 1.561 . S
C408 C405 1.526 . S
C408 C409 1.396 . S
C408 C413 1.390 . S
C409 C403 1.465 . S
C409 C408 1.396 . S
C409 C410 1.399 . S
C410 H396 0.929 . S
C410 C409 1.399 . S
C410 C411 1.385 . S
C411 H397 0.931 . S
C411 C410 1.385 . S
C411 C412 1.389 . S
C412 C411 1.389 . S
C412 C413 1.387 . S
C413 H398 0.930 . S
C413 C408 1.390 . S
C413 C412 1.387 . S
H414 C426 0.930 . S
H415 C428 0.930 . S
H416 C429 0.930 . S
H417 C433 0.959 . S
H418 C433 0.959 . S
H419 C433 0.961 . S
H420 C434 0.960 . S
H421 C434 0.961 . S
H422 C434 0.959 . S
H423 C437 0.929 . S
H424 C438 0.931 . S
H425 C440 0.930 . S
C426 H414 0.930 . S
C426 C427 1.399 . S
C426 C431 1.399 . S
C427 C426 1.399 . S
C427 C428 1.376 . S
C428 H415 0.930 . S
C428 C427 1.376 . S
C428 C429 1.388 . S
C429 H416 0.930 . S
C429 C428 1.388 . S
C429 C430 1.390 . S
C430 C429 1.390 . S
C430 C431 1.394 . S
C430 C436 1.468 . S
C431 C426 1.399 . S
C431 C430 1.394 . S
C431 C432 1.516 1_545 S
C432 C431 1.516 1_565 S
C432 C433 1.502 . S
C432 C434 1.561 . S
C432 C435 1.526 . S
C433 H417 0.959 . S
C433 H418 0.959 . S
C433 H419 0.961 . S
C433 C432 1.502 . S
C434 H420 0.960 . S
C434 H421 0.961 . S
C434 H422 0.959 . S
C434 C432 1.561 . S
C435 C432 1.526 . S
C435 C436 1.392 1_565 S
C435 C440 1.390 . S
C436 C430 1.468 . S
C436 C435 1.392 1_545 S
C436 C437 1.399 . S
C437 H423 0.929 . S
C437 C436 1.399 . S
C437 C438 1.385 1_545 S
C438 H424 0.931 . S
C438 C437 1.385 1_565 S
C438 C439 1.389 . S
C439 C438 1.389 . S
C439 C440 1.387 . S
C440 H425 0.930 . S
C440 C435 1.390 . S
C440 C439 1.387 . S
H441 C453 0.930 1_554 S
H442 C455 0.930 . S
H443 C456 0.930 . S
H444 C460 0.959 . S
H445 C460 0.959 . S
H446 C460 0.961 . S
H447 C461 0.960 . S
H448 C461 0.961 . S
H449 C461 0.959 . S
H450 C464 0.929 . S
H451 C465 0.931 . S
H452 C467 0.930 . S
C453 H441 0.930 1_556 S
C453 C454 1.399 . S
C453 C458 1.399 1_556 S
C454 C453 1.399 . S
C454 C455 1.376 . S
C455 H442 0.930 . S
C455 C454 1.376 . S
C455 C456 1.388 . S
C456 H443 0.930 . S
C456 C455 1.388 . S
C456 C457 1.390 . S
C457 C456 1.390 . S
C457 C458 1.394 1_556 S
C457 C463 1.465 . S
C458 C453 1.399 1_554 S
C458 C457 1.394 1_554 S
C458 C459 1.516 . S
C459 C458 1.516 . S
C459 C460 1.502 . S
C459 C461 1.561 . S
C459 C462 1.526 . S
C460 H444 0.959 . S
C460 H445 0.959 . S
C460 H446 0.961 . S
C460 C459 1.502 . S
C461 H447 0.960 . S
C461 H448 0.961 . S
C461 H449 0.959 . S
C461 C459 1.561 . S
C462 C459 1.526 . S
C462 C463 1.396 1_554 S
C462 C467 1.390 . S
C463 C457 1.465 . S
C463 C462 1.396 1_556 S
C463 C464 1.399 . S
C464 H450 0.929 . S
C464 C463 1.399 . S
C464 C465 1.385 . S
C465 H451 0.931 . S
C465 C464 1.385 . S
C465 C466 1.389 1_556 S
C466 C465 1.389 1_554 S
C466 C467 1.387 . S
C467 H452 0.930 . S
C467 C462 1.390 . S
C467 C466 1.387 . S
H468 C480 0.930 . S
H469 C482 0.930 . S
H470 C483 0.930 . S
H471 C487 0.959 . S
H472 C487 0.959 . S
H473 C487 0.961 . S
H474 C488 0.960 . S
H475 C488 0.961 . S
H476 C488 0.959 . S
H477 C491 0.929 . S
H478 C492 0.931 . S
H479 C494 0.930 . S
C480 H468 0.930 . S
C480 C481 1.399 . S
C480 C485 1.399 . S
C481 C480 1.399 . S
C481 C482 1.376 . S
C482 H469 0.930 . S
C482 C481 1.376 . S
C482 C483 1.388 . S
C483 H470 0.930 . S
C483 C482 1.388 . S
C483 C484 1.390 . S
C484 C483 1.390 . S
C484 C485 1.394 . S
C484 C490 1.465 1_545 S
C485 C480 1.399 . S
C485 C484 1.394 . S
C485 C486 1.516 1_545 S
C486 C485 1.516 1_565 S
C486 C487 1.502 . S
C486 C488 1.561 . S
C486 C489 1.526 . S
C487 H471 0.959 . S
C487 H472 0.959 . S
C487 H473 0.961 . S
C487 C486 1.502 . S
C488 H474 0.960 . S
C488 H475 0.961 . S
C488 H476 0.959 . S
C488 C486 1.561 . S
C489 C486 1.526 . S
C489 C490 1.396 . S
C489 C494 1.390 . S
C490 C484 1.465 1_565 S
C490 C489 1.396 . S
C490 C491 1.399 . S
C491 H477 0.929 . S
C491 C490 1.399 . S
C491 C492 1.385 . S
C492 H478 0.931 . S
C492 C491 1.385 . S
C492 C493 1.389 . S
C493 C492 1.389 . S
C493 C494 1.387 . S
C494 H479 0.930 . S
C494 C489 1.390 . S
C494 C493 1.387 . S
H495 C507 0.930 . S
H496 C509 0.930 . S
H497 C510 0.930 . S
H498 C514 0.959 . S
H499 C514 0.959 . S
H500 C514 0.961 . S
H501 C515 0.960 . S
H502 C515 0.961 . S
H503 C515 0.959 . S
H504 C518 0.929 . S
H505 C519 0.931 . S
H506 C521 0.930 . S
C507 H495 0.930 . S
C507 C508 1.399 . S
C507 C512 1.399 . S
C508 C507 1.399 . S
C508 C509 1.376 . S
C509 H496 0.930 . S
C509 C508 1.376 . S
C509 C510 1.388 . S
C510 H497 0.930 . S
C510 C509 1.388 . S
C510 C511 1.390 . S
C511 C510 1.390 . S
C511 C512 1.394 . S
C511 C517 1.465 1_455 S
C512 C507 1.399 . S
C512 C511 1.394 . S
C512 C513 1.516 . S
C513 C512 1.516 . S
C513 C514 1.502 . S
C513 C515 1.561 . S
C513 C516 1.526 1_455 S
C514 H498 0.959 . S
C514 H499 0.959 . S
C514 H500 0.961 . S
C514 C513 1.502 . S
C515 H501 0.960 . S
C515 H502 0.961 . S
C515 H503 0.959 . S
C515 C513 1.561 . S
C516 C513 1.526 1_655 S
C516 C517 1.396 . S
C516 C521 1.390 . S
C517 C511 1.465 1_655 S
C517 C516 1.396 . S
C517 C518 1.399 . S
C518 H504 0.929 . S
C518 C517 1.399 . S
C518 C519 1.385 . S
C519 H505 0.931 . S
C519 C518 1.385 . S
C519 C520 1.389 . S
C520 C519 1.389 . S
C520 C521 1.387 . S
C521 H506 0.930 . S
C521 C516 1.390 . S
C521 C520 1.387 . S
H522 C534 0.930 . S
H523 C536 0.930 . S
H524 C537 0.930 . S
H525 C541 0.959 . S
H526 C541 0.959 . S
H527 C541 0.961 . S
H528 C542 0.960 . S
H529 C542 0.961 . S
H530 C542 0.959 . S
H531 C545 0.929 . S
H532 C546 0.931 . S
H533 C548 0.930 . S
C534 H522 0.930 . S
C534 C535 1.399 . S
C534 C539 1.399 . S
C535 C534 1.399 . S
C535 C536 1.376 . S
C536 H523 0.930 . S
C536 C535 1.376 . S
C536 C537 1.388 1_655 S
C537 H524 0.930 . S
C537 C536 1.388 1_455 S
C537 C538 1.390 . S
C538 C537 1.390 . S
C538 C539 1.394 1_455 S
C538 C544 1.465 . S
C539 C534 1.399 . S
C539 C538 1.394 1_655 S
C539 C540 1.516 . S
C540 C539 1.516 . S
C540 C541 1.502 . S
C540 C542 1.561 . S
C540 C543 1.526 1_655 S
C541 H525 0.959 . S
C541 H526 0.959 . S
C541 H527 0.961 . S
C541 C540 1.502 . S
C542 H528 0.960 . S
C542 H529 0.961 . S
C542 H530 0.959 . S
C542 C540 1.561 . S
C543 C540 1.526 1_455 S
C543 C544 1.396 . S
C543 C548 1.390 . S
C544 C538 1.465 . S
C544 C543 1.396 . S
C544 C545 1.399 . S
C545 H531 0.929 . S
C545 C544 1.399 . S
C545 C546 1.385 . S
C546 H532 0.931 . S
C546 C545 1.385 . S
C546 C547 1.389 . S
C547 C546 1.389 . S
C547 C548 1.387 . S
C548 H533 0.930 . S
C548 C543 1.390 . S
C548 C547 1.387 . S
H549 C561 0.930 . S
H550 C563 0.930 . S
H551 C564 0.930 . S
H552 C568 0.959 . S
H553 C568 0.959 1_554 S
H554 C568 0.961 . S
H555 C569 0.960 . S
H556 C569 0.961 . S
H557 C569 0.959 . S
H558 C572 0.929 . S
H559 C573 0.931 . S
H560 C575 0.930 . S
C561 H549 0.930 . S
C561 C562 1.399 . S
C561 C566 1.399 . S
C562 C561 1.399 . S
C562 C563 1.376 . S
C563 H550 0.930 . S
C563 C562 1.376 . S
C563 C564 1.388 . S
C564 H551 0.930 . S
C564 C563 1.388 . S
C564 C565 1.390 . S
C565 C564 1.390 . S
C565 C566 1.394 . S
C565 C571 1.465 1_556 S
C566 C561 1.399 . S
C566 C565 1.394 . S
C566 C567 1.516 1_556 S
C567 C566 1.516 1_554 S
C567 C568 1.502 1_554 S
C567 C569 1.561 . S
C567 C570 1.526 . S
C568 H552 0.959 . S
C568 H553 0.959 1_556 S
C568 H554 0.961 . S
C568 C567 1.502 1_556 S
C569 H555 0.960 . S
C569 H556 0.961 . S
C569 H557 0.959 . S
C569 C567 1.561 . S
C570 C567 1.526 . S
C570 C571 1.396 . S
C570 C575 1.390 . S
C571 C565 1.465 1_554 S
C571 C570 1.396 . S
C571 C572 1.399 . S
C572 H558 0.929 . S
C572 C571 1.399 . S
C572 C573 1.385 . S
C573 H559 0.931 . S
C573 C572 1.385 . S
C573 C574 1.389 . S
C574 C573 1.389 . S
C574 C575 1.387 . S
C575 H560 0.930 . S
C575 C570 1.390 . S
C575 C574 1.387 . S
H576 C588 0.930 . S
H577 C590 0.930 . S
H578 C591 0.930 . S
H579 C595 0.959 . S
H580 C595 0.959 . S
H581 C595 0.961 . S
H582 C596 0.960 . S
H583 C596 0.961 . S
H584 C596 0.959 . S
H585 C599 0.929 . S
H586 C600 0.931 . S
H587 C602 0.930 . S
C588 H576 0.930 . S
C588 C589 1.399 . S
C588 C593 1.399 . S
C589 C588 1.399 . S
C589 C590 1.376 . S
C590 H577 0.930 . S
C590 C589 1.376 . S
C590 C591 1.388 . S
C591 H578 0.930 . S
C591 C590 1.388 . S
C591 C592 1.390 . S
C592 C591 1.390 . S
C592 C593 1.394 . S
C592 C598 1.467 . S
C593 C588 1.399 . S
C593 C592 1.394 . S
C593 C594 1.516 1_545 S
C594 C593 1.516 1_565 S
C594 C595 1.502 . S
C594 C596 1.561 . S
C594 C597 1.526 . S
C595 H579 0.959 . S
C595 H580 0.959 . S
C595 H581 0.961 . S
C595 C594 1.502 . S
C596 H582 0.960 . S
C596 H583 0.961 . S
C596 H584 0.959 . S
C596 C594 1.561 . S
C597 C594 1.526 . S
C597 C598 1.393 1_565 S
C597 C602 1.390 . S
C598 C592 1.467 . S
C598 C597 1.393 1_545 S
C598 C599 1.400 . S
C599 H585 0.929 . S
C599 C598 1.400 . S
C599 C600 1.385 1_545 S
C600 H586 0.931 . S
C600 C599 1.385 1_565 S
C600 C601 1.389 . S
C601 C600 1.389 . S
C601 C602 1.387 . S
C602 H587 0.930 . S
C602 C597 1.390 . S
C602 C601 1.387 . S
C211 N68 1.216 . S
C223 C18 1.254 . S
C238 C51 1.258 . S
C250 N2 1.158 . S
C265 C84 1.238 . S
C277 N35 1.244 . S
C292 C117 1.237 . S
C304 N134 1.243 . S
C319 N167 1.122 . S
C331 C150 1.274 . S
C346 N101 1.122 . S
C358 C183 1.273 . S
C373 C153 0.695 . S
C385 C21 0.680 . S
C400 C186 0.673 . S
C412 C54 0.675 . S
C427 C120 0.677 . S
C439 C87 0.694 . S
C454 C106 1.586 . S
C466 C7 1.508 . S
C481 C139 1.517 . S
C493 C40 1.586 . S
C508 C73 1.571 . S
C520 C172 1.512 . S
C535 N145 1.979 . S
C547 N13 1.975 . S
C562 N46 1.989 . S
C574 N178 1.990 . S
C589 N112 1.969 . S
C601 N79 1.974 . S
