# Generated by pormake.
# Topology lcy-e, (6)-cn, num edge types: 1
# Building blocks:
#     Node 0, Type 0, BuildingBlock: PAMTUU_clean_sbu_0, # of connection points: 6
#     Node 1, Type 0, BuildingBlock: PAMTUU_clean_sbu_0, # of connection points: 6
#     Node 2, Type 0, BuildingBlock: PAMTUU_clean_sbu_0, # of connection points: 6
#     Node 3, Type 0, BuildingBlock: PAMTUU_clean_sbu_0, # of connection points: 6
#     Node 4, Type 0, BuildingBlock: PAMTUU_clean_sbu_0, # of connection points: 6
#     Node 5, Type 0, BuildingBlock: PAMTUU_clean_sbu_0, # of connection points: 6
#     Node 6, Type 0, BuildingBlock: PAMTUU_clean_sbu_0, # of connection points: 6
#     Node 7, Type 0, BuildingBlock: PAMTUU_clean_sbu_0, # of connection points: 6
#     Node 8, Type 0, BuildingBlock: PAMTUU_clean_sbu_0, # of connection points: 6
#     Node 9, Type 0, BuildingBlock: PAMTUU_clean_sbu_0, # of connection points: 6
#     Node 10, Type 0, BuildingBlock: PAMTUU_clean_sbu_0, # of connection points: 6
#     Node 11, Type 0, BuildingBlock: PAMTUU_clean_sbu_0, # of connection points: 6
#     Edge 12, Type (0, 0), BuildingBlock: ZUJKAS_clean_linker_0, # of connection points: 2
#     Edge 13, Type (0, 0), BuildingBlock: ZUJKAS_clean_linker_0, # of connection points: 2
#     Edge 14, Type (0, 0), BuildingBlock: ZUJKAS_clean_linker_0, # of connection points: 2
#     Edge 15, Type (0, 0), BuildingBlock: ZUJKAS_clean_linker_0, # of connection points: 2
#     Edge 16, Type (0, 0), BuildingBlock: ZUJKAS_clean_linker_0, # of connection points: 2
#     Edge 17, Type (0, 0), BuildingBlock: ZUJKAS_clean_linker_0, # of connection points: 2
#     Edge 18, Type (0, 0), BuildingBlock: ZUJKAS_clean_linker_0, # of connection points: 2
#     Edge 19, Type (0, 0), BuildingBlock: ZUJKAS_clean_linker_0, # of connection points: 2
#     Edge 20, Type (0, 0), BuildingBlock: ZUJKAS_clean_linker_0, # of connection points: 2
#     Edge 21, Type (0, 0), BuildingBlock: ZUJKAS_clean_linker_0, # of connection points: 2
#     Edge 22, Type (0, 0), BuildingBlock: ZUJKAS_clean_linker_0, # of connection points: 2
#     Edge 23, Type (0, 0), BuildingBlock: ZUJKAS_clean_linker_0, # of connection points: 2
#     Edge 24, Type (0, 0), BuildingBlock: ZUJKAS_clean_linker_0, # of connection points: 2
#     Edge 25, Type (0, 0), BuildingBlock: ZUJKAS_clean_linker_0, # of connection points: 2
#     Edge 26, Type (0, 0), BuildingBlock: ZUJKAS_clean_linker_0, # of connection points: 2
#     Edge 27, Type (0, 0), BuildingBlock: ZUJKAS_clean_linker_0, # of connection points: 2
#     Edge 28, Type (0, 0), BuildingBlock: ZUJKAS_clean_linker_0, # of connection points: 2
#     Edge 29, Type (0, 0), BuildingBlock: ZUJKAS_clean_linker_0, # of connection points: 2
#     Edge 30, Type (0, 0), BuildingBlock: ZUJKAS_clean_linker_0, # of connection points: 2
#     Edge 31, Type (0, 0), BuildingBlock: ZUJKAS_clean_linker_0, # of connection points: 2
#     Edge 32, Type (0, 0), BuildingBlock: ZUJKAS_clean_linker_0, # of connection points: 2
#     Edge 33, Type (0, 0), BuildingBlock: ZUJKAS_clean_linker_0, # of connection points: 2
#     Edge 34, Type (0, 0), BuildingBlock: ZUJKAS_clean_linker_0, # of connection points: 2
#     Edge 35, Type (0, 0), BuildingBlock: ZUJKAS_clean_linker_0, # of connection points: 2
#     Edge 36, Type (0, 0), BuildingBlock: ZUJKAS_clean_linker_0, # of connection points: 2
#     Edge 37, Type (0, 0), BuildingBlock: ZUJKAS_clean_linker_0, # of connection points: 2
#     Edge 38, Type (0, 0), BuildingBlock: ZUJKAS_clean_linker_0, # of connection points: 2
#     Edge 39, Type (0, 0), BuildingBlock: ZUJKAS_clean_linker_0, # of connection points: 2
#     Edge 40, Type (0, 0), BuildingBlock: ZUJKAS_clean_linker_0, # of connection points: 2
#     Edge 41, Type (0, 0), BuildingBlock: ZUJKAS_clean_linker_0, # of connection points: 2
#     Edge 42, Type (0, 0), BuildingBlock: ZUJKAS_clean_linker_0, # of connection points: 2
#     Edge 43, Type (0, 0), BuildingBlock: ZUJKAS_clean_linker_0, # of connection points: 2
#     Edge 44, Type (0, 0), BuildingBlock: ZUJKAS_clean_linker_0, # of connection points: 2
#     Edge 45, Type (0, 0), BuildingBlock: ZUJKAS_clean_linker_0, # of connection points: 2
#     Edge 46, Type (0, 0), BuildingBlock: ZUJKAS_clean_linker_0, # of connection points: 2
#     Edge 47, Type (0, 0), BuildingBlock: ZUJKAS_clean_linker_0, # of connection points: 2
# Relax obj value: 0.153
# Max RMSD: 0.289
# Mean RMSD: 0.277
data_MOF--net-lcy-e--node1-PAMTUU_clean_sbu_0--edge1-ZUJKAS_clean_linker_0
_symmetry_space_group_name_H-M    P1
_symmetry_Int_Tables_number       1
_symmetry_cell_setting            triclinic
loop_
_symmetry_equiv_pos_as_xyz
'x, y, z'
_cell_length_a     55.021049
_cell_length_b     55.125542
_cell_length_c     55.070191
_cell_angle_alpha  89.930951
_cell_angle_beta   90.107299
_cell_angle_gamma 89.68226
loop_
_atom_site_label
_atom_site_type_symbol
_atom_site_fract_x
_atom_site_fract_y
_atom_site_fract_z
_atom_type_partial_charge
Tb0 Tb 0.0998 0.27932 0.4696 0.0
Tb1 Tb 0.11918 0.23936 0.5099 0.0
C2 C 0.07728 0.27483 0.5224 0.0
C3 C 0.09835 0.32075 0.41616 0.0
C4 C 0.11985 0.34271 0.37514 0.0
C5 C 0.0972 0.35082 0.38389 0.0
C6 C 0.08656 0.33992 0.40418 0.0
C7 C 0.12102 0.31263 0.40767 0.0
C8 C 0.13165 0.32346 0.38729 0.0
C9 C 0.08661 0.30917 0.43716 0.0
O10 O 0.13413 0.29272 0.48315 0.0
O11 O 0.13346 0.27479 0.52073 0.0
O12 O 0.14815 0.24378 0.48381 0.0
O13 O 0.12488 0.25462 0.45107 0.0
O14 O 0.12471 0.22853 0.54609 0.0
O15 O 0.13592 0.20561 0.51636 0.0
O16 O 0.0945 0.22052 0.48517 0.0
O17 O 0.07105 0.25293 0.47346 0.0
O18 O 0.08388 0.28957 0.50472 0.0
O19 O 0.08437 0.25207 0.52288 0.0
C20 C 0.14044 0.29238 0.50613 0.0
O21 O 0.08366 0.28578 0.43565 0.0
O22 O 0.09458 0.31553 0.45852 0.0
C23 C 0.1451 0.24567 0.46028 0.0
C24 C 0.12281 0.18604 0.55198 0.0
C25 C 0.10377 0.14441 0.5749 0.0
C26 C 0.129 0.1472 0.572 0.0
C27 C 0.1384 0.16782 0.56067 0.0
C28 C 0.09759 0.1834 0.5547 0.0
C29 C 0.08815 0.16279 0.56617 0.0
C30 C 0.13328 0.20735 0.5398 0.0
C31 C 0.07426 0.22947 0.47596 0.0
H32 H 0.08747 0.36537 0.37481 0.0
H33 H 0.06902 0.34637 0.41043 0.0
H34 H 0.13044 0.29787 0.41676 0.0
H35 H 0.14922 0.31695 0.38122 0.0
H36 H 0.14155 0.13359 0.5788 0.0
H37 H 0.1579 0.16954 0.5587 0.0
H38 H 0.08524 0.19721 0.5479 0.0
H39 H 0.06863 0.16109 0.56792 0.0
Tb40 Tb 0.03233 0.91578 0.76974 0.0
Tb41 Tb 0.99218 0.8967 0.72983 0.0
C42 C 0.97984 0.93889 0.76444 0.0
C43 C 0.08578 0.91681 0.81099 0.0
C44 C 0.127 0.89468 0.83235 0.0
C45 C 0.11867 0.91747 0.84044 0.0
C46 C 0.09826 0.92842 0.82981 0.0
C47 C 0.09385 0.894 0.80292 0.0
C48 C 0.11433 0.88306 0.81347 0.0
C49 C 0.0647 0.92881 0.7996 0.0
O50 O 0.01858 0.88174 0.78363 0.0
O51 O 0.98109 0.88289 0.76546 0.0
O52 O 0.01823 0.86756 0.73466 0.0
O53 O 0.05093 0.89063 0.74531 0.0
O54 O 0.95584 0.89132 0.71937 0.0
O55 O 0.98546 0.88017 0.69621 0.0
O56 O 0.01702 0.92093 0.71066 0.0
O57 O 0.02886 0.94432 0.74288 0.0
O58 O 0.99711 0.9318 0.77954 0.0
O59 O 0.97969 0.93193 0.74169 0.0
C60 C 0.99554 0.87577 0.78323 0.0
O61 O 0.06613 0.93199 0.77619 0.0
O62 O 0.04339 0.92084 0.80598 0.0
C63 C 0.04176 0.87046 0.7366 0.0
C64 C 0.9496 0.89382 0.6771 0.0
C65 C 0.92579 0.91378 0.63619 0.0
C66 C 0.91896 0.89102 0.64548 0.0
C67 C 0.93077 0.88116 0.66573 0.0
C68 C 0.9565 0.91658 0.66805 0.0
C69 C 0.94473 0.92646 0.64772 0.0
C70 C 0.96199 0.88289 0.69814 0.0
C71 C 0.02642 0.94101 0.71941 0.0
H72 H 0.12816 0.92704 0.85472 0.0
H73 H 0.09232 0.94607 0.8362 0.0
H74 H 0.08437 0.88473 0.78841 0.0
H75 H 0.12008 0.86539 0.80701 0.0
H76 H 0.90471 0.88063 0.63687 0.0
H77 H 0.92528 0.86354 0.67243 0.0
H78 H 0.971 0.92665 0.67669 0.0
H79 H 0.95027 0.94412 0.64119 0.0
Tb80 Tb 0.37997 0.76921 0.97131 0.0
Tb81 Tb 0.36162 0.80966 0.01137 0.0
C82 C 0.40346 0.77443 0.02364 0.0
C83 C 0.38056 0.72656 0.91879 0.0
C84 C 0.35894 0.70409 0.87806 0.0
C85 C 0.38137 0.69575 0.88729 0.0
C86 C 0.39205 0.7069 0.90743 0.0
C87 C 0.35808 0.73487 0.90988 0.0
C88 C 0.34739 0.72378 0.88965 0.0
C89 C 0.39251 0.73852 0.9395 0.0
O90 O 0.34527 0.75684 0.9847 0.0
O91 O 0.3471 0.77434 0.02233 0.0
O92 O 0.33246 0.80605 0.98528 0.0
O93 O 0.35497 0.7939 0.95252 0.0
O94 O 0.35641 0.81991 0.04776 0.0
O95 O 0.34555 0.84353 0.01833 0.0
O96 O 0.38614 0.82837 0.98646 0.0
O97 O 0.40877 0.79569 0.97383 0.0
O98 O 0.39585 0.75933 0.0067 0.0
O99 O 0.39693 0.79732 0.02343 0.0
C100 C 0.33928 0.75715 0.00772 0.0
O101 O 0.39569 0.76184 0.93741 0.0
O102 O 0.38465 0.7327 0.96104 0.0
C103 C 0.33515 0.80362 0.96177 0.0
C104 C 0.3592 0.86205 0.05429 0.0
C105 C 0.37913 0.90262 0.07817 0.0
C106 C 0.35605 0.89382 0.08459 0.0
C107 C 0.34621 0.87373 0.07275 0.0
C108 C 0.3823 0.87057 0.04782 0.0
C109 C 0.39217 0.89074 0.05964 0.0
C110 C 0.34817 0.84131 0.04176 0.0
C111 C 0.40583 0.81919 0.9764 0.0
H112 H 0.39093 0.68088 0.87866 0.0
H113 H 0.40945 0.7003 0.91401 0.0
H114 H 0.34888 0.75001 0.91848 0.0
H115 H 0.33 0.73049 0.8832 0.0
H116 H 0.34536 0.90273 0.09849 0.0
H117 H 0.32831 0.86744 0.07789 0.0
H118 H 0.39261 0.86168 0.03361 0.0
H119 H 0.41007 0.89691 0.05442 0.0
Tb120 Tb 0.44708 0.13612 0.26591 0.0
Tb121 Tb 0.48733 0.1555 0.2261 0.0
C122 C 0.50023 0.114 0.26175 0.0
C123 C 0.39391 0.13451 0.30755 0.0
C124 C 0.35259 0.15574 0.32946 0.0
C125 C 0.36079 0.13255 0.33654 0.0
C126 C 0.38124 0.12205 0.32567 0.0
C127 C 0.38598 0.15771 0.30045 0.0
C128 C 0.36545 0.16822 0.31127 0.0
C129 C 0.41501 0.1229 0.29591 0.0
O130 O 0.4596 0.17094 0.27879 0.0
O131 O 0.49746 0.17017 0.26158 0.0
O132 O 0.46037 0.18391 0.22969 0.0
O133 O 0.42805 0.1605 0.24091 0.0
O134 O 0.52353 0.16197 0.21608 0.0
O135 O 0.49385 0.17175 0.19221 0.0
O136 O 0.46339 0.13033 0.20706 0.0
O137 O 0.45123 0.10736 0.23952 0.0
O138 O 0.48244 0.12069 0.27637 0.0
O139 O 0.5008 0.12095 0.23897 0.0
C140 C 0.48248 0.17744 0.27875 0.0
O141 O 0.41337 0.11981 0.27251 0.0
O142 O 0.4363 0.13109 0.30219 0.0
C143 C 0.4369 0.18053 0.23154 0.0
C144 C 0.53032 0.15904 0.17347 0.0
C145 C 0.55524 0.14039 0.13267 0.0
C146 C 0.53991 0.16075 0.13041 0.0
C147 C 0.52768 0.17001 0.15061 0.0
C148 C 0.54547 0.13853 0.17579 0.0
C149 C 0.55789 0.12936 0.15558 0.0
C150 C 0.51735 0.16956 0.19447 0.0
C151 C 0.454 0.11035 0.21606 0.0
H152 H 0.35115 0.12228 0.35022 0.0
H153 H 0.38706 0.10409 0.3313 0.0
H154 H 0.39561 0.16762 0.28649 0.0
H155 H 0.35979 0.18619 0.30556 0.0
H156 H 0.53772 0.16983 0.11308 0.0
H157 H 0.51619 0.1859 0.14839 0.0
H158 H 0.5478 0.12959 0.19317 0.0
H159 H 0.56941 0.11352 0.15784 0.0
Tb160 Tb 0.59765 0.26923 0.55558 0.0
Tb161 Tb 0.61597 0.30843 0.51435 0.0
C162 C 0.5747 0.27242 0.50306 0.0
C163 C 0.59815 0.22804 0.60885 0.0
C164 C 0.62169 0.20622 0.649 0.0
C165 C 0.60034 0.19614 0.6392 0.0
C166 C 0.58867 0.207 0.61937 0.0
C167 C 0.61964 0.238 0.61822 0.0
C168 C 0.63126 0.22724 0.63816 0.0
C169 C 0.58549 0.23943 0.5882 0.0
O170 O 0.63247 0.25639 0.54276 0.0
O171 O 0.63134 0.27295 0.50463 0.0
O172 O 0.64497 0.30553 0.5408 0.0
O173 O 0.62215 0.29449 0.57369 0.0
O174 O 0.62131 0.318 0.47782 0.0
O175 O 0.63141 0.34237 0.50673 0.0
O176 O 0.59109 0.32766 0.53865 0.0
O177 O 0.56846 0.29537 0.55159 0.0
O178 O 0.58234 0.25803 0.52064 0.0
O179 O 0.5811 0.29528 0.50211 0.0
C180 C 0.63865 0.25587 0.5198 0.0
O181 O 0.58207 0.2628 0.5897 0.0
O182 O 0.593 0.23303 0.5667 0.0
C183 C 0.64205 0.30372 0.56436 0.0
C184 C 0.61726 0.36007 0.47045 0.0
C185 C 0.59584 0.39983 0.44585 0.0
C186 C 0.62128 0.39772 0.44793 0.0
C187 C 0.63185 0.37802 0.46007 0.0
C188 C 0.59187 0.3621 0.46872 0.0
C189 C 0.58125 0.38179 0.45648 0.0
C190 C 0.62887 0.33968 0.48336 0.0
C191 C 0.57125 0.31878 0.54849 0.0
H192 H 0.5927 0.17971 0.64673 0.0
H193 H 0.57222 0.19895 0.61223 0.0
H194 H 0.62731 0.25421 0.61023 0.0
H195 H 0.6475 0.23565 0.64532 0.0
H196 H 0.63309 0.41146 0.44042 0.0
H197 H 0.65147 0.37687 0.46145 0.0
H198 H 0.58029 0.34844 0.47677 0.0
H199 H 0.56163 0.38269 0.45506 0.0
Tb200 Tb 0.98523 0.39284 0.79793 0.0
Tb201 Tb 0.94358 0.4116 0.75915 0.0
C202 C 0.97944 0.37067 0.74524 0.0
C203 C 0.02905 0.39107 0.84965 0.0
C204 C 0.05245 0.41124 0.89058 0.0
C205 C 0.06245 0.39101 0.87852 0.0
C206 C 0.05082 0.38102 0.85831 0.0
C207 C 0.01918 0.41155 0.86122 0.0
C208 C 0.03074 0.42151 0.88154 0.0
C209 C 0.01664 0.3797 0.82891 0.0
O210 O 0.99747 0.42759 0.78451 0.0
O211 O 0.97838 0.42691 0.74749 0.0
O212 O 0.94797 0.44051 0.7853 0.0
O213 O 0.96113 0.41767 0.81755 0.0
O214 O 0.93185 0.41696 0.72317 0.0
O215 O 0.90932 0.42751 0.75343 0.0
O216 O 0.92568 0.38683 0.78444 0.0
O217 O 0.9588 0.36396 0.79538 0.0
O218 O 0.99467 0.37761 0.76236 0.0
O219 O 0.95645 0.37704 0.74577 0.0
C220 C 0.9962 0.43425 0.76167 0.0
O221 O 0.99334 0.37635 0.83133 0.0
O222 O 0.02203 0.38811 0.80747 0.0
C223 C 0.95121 0.4376 0.80871 0.0
C224 C 0.88951 0.41299 0.71853 0.0
C225 C 0.84875 0.39114 0.6966 0.0
C226 C 0.85662 0.41423 0.68913 0.0
C227 C 0.8768 0.42504 0.70002 0.0
C228 C 0.88186 0.38993 0.72606 0.0
C229 C 0.8616 0.37912 0.71523 0.0
C230 C 0.91052 0.42477 0.72996 0.0
C231 C 0.93519 0.36696 0.79384 0.0
H232 H 0.07937 0.38291 0.88462 0.0
H233 H 0.05878 0.36531 0.8495 0.0
H234 H 1.00239 0.41964 0.85473 0.0
H235 H 0.02239 0.43694 0.89044 0.0
H236 H 0.84696 0.42411 0.67507 0.0
H237 H 0.88242 0.44288 0.69405 0.0
H238 H 0.89155 0.38033 0.74031 0.0
H239 H 0.85618 0.36123 0.72122 0.0
Tb240 Tb 0.85478 0.73781 0.01293 0.0
Tb241 Tb 0.87373 0.77496 0.05562 0.0
C242 C 0.83207 0.79013 0.02105 0.0
C243 C 0.85238 0.68726 0.96804 0.0
C244 C 0.87217 0.64628 0.94432 0.0
C245 C 0.849 0.65527 0.93799 0.0
C246 C 0.83923 0.67554 0.94975 0.0
C247 C 0.8756 0.67861 0.97434 0.0
C248 C 0.8854 0.65826 0.96261 0.0
C249 C 0.84127 0.70786 0.98093 0.0
O250 O 0.88923 0.75187 1.0005 0.0
O251 O 0.88852 0.78805 0.02102 0.0
O252 O 0.90283 0.74913 0.04973 0.0
O253 O 0.88014 0.71733 0.03588 0.0
O254 O 0.87916 0.81031 0.06867 0.0
O255 O 0.8901 0.77912 0.08983 0.0
O256 O 0.84898 0.74924 0.07291 0.0
O257 O 0.82601 0.73957 0.03963 0.0
O258 O 0.83904 0.77368 0.00508 0.0
O259 O 0.83889 0.78883 0.04383 0.0
C260 C 0.89577 0.77462 1.00257 0.0
O261 O 0.8381 0.70484 1.00417 0.0
O262 O 0.84991 0.72928 0.976 0.0
C263 C 0.90015 0.72587 0.04572 0.0
C264 C 0.87622 0.81326 0.11131 0.0
C265 C 0.85566 0.83312 0.15384 0.0
C266 C 0.88095 0.83351 0.15014 0.0
C267 C 0.89111 0.82368 0.12906 0.0
C268 C 0.85097 0.81271 0.11486 0.0
C269 C 0.84075 0.82266 0.13592 0.0
C270 C 0.88739 0.80262 0.08954 0.0
C271 C 0.82903 0.74036 0.06324 0.0
H272 H 0.83815 0.64631 0.92427 0.0
H273 H 0.82122 0.68189 0.94476 0.0
H274 H 0.88602 0.68747 0.98846 0.0
H275 H 0.90338 0.652 0.96776 0.0
H276 H 0.89291 0.84173 0.16339 0.0
H277 H 0.91064 0.82422 0.12662 0.0
H278 H 0.83921 0.80453 0.10139 0.0
H279 H 0.82124 0.82188 0.13832 0.0
Tb280 Tb 0.52825 0.63533 0.26218 0.0
Tb281 Tb 0.48906 0.65822 0.30174 0.0
C282 C 0.47428 0.61682 0.26442 0.0
C283 C 0.58141 0.63168 0.22026 0.0
C284 C 0.62175 0.65181 0.1958 0.0
C285 C 0.61343 0.62839 0.19006 0.0
C286 C 0.5935 0.61844 0.20221 0.0
C287 C 0.58933 0.65522 0.22582 0.0
C288 C 0.60933 0.66517 0.21374 0.0
C289 C 0.56137 0.62036 0.23386 0.0
O290 O 0.5028 0.65712 0.24166 0.0
O291 O 0.48891 0.68363 0.27098 0.0
O292 O 0.52546 0.67067 0.31022 0.0
O293 O 0.54093 0.67136 0.27203 0.0
O294 O 0.45398 0.66896 0.31277 0.0
O295 O 0.48472 0.67347 0.33642 0.0
O296 O 0.4969 0.62164 0.31438 0.0
O297 O 0.53456 0.61806 0.29717 0.0
O298 O 0.4972 0.61056 0.2606 0.0
O299 O 0.46812 0.63604 0.27716 0.0
C300 C 0.49125 0.67698 0.24806 0.0
O301 O 0.56331 0.62099 0.2574 0.0
O302 O 0.53937 0.62565 0.22683 0.0
C303 C 0.54064 0.67958 0.29432 0.0
C304 C 0.44757 0.66407 0.35499 0.0
C305 C 0.42376 0.64444 0.39596 0.0
C306 C 0.42606 0.66971 0.39309 0.0
C307 C 0.43785 0.67939 0.37281 0.0
C308 C 0.44518 0.63885 0.35757 0.0
C309 C 0.4333 0.62912 0.37784 0.0
C310 C 0.46118 0.67463 0.33455 0.0
C311 C 0.51811 0.6108 0.31276 0.0
H312 H 0.62271 0.61747 0.17658 0.0
H313 H 0.58774 0.60021 0.19775 0.0
H314 H 0.58022 0.66578 0.23969 0.0
H315 H 0.61503 0.68335 0.21841 0.0
H316 H 0.41864 0.68205 0.40648 0.0
H317 H 0.43958 0.6989 0.37116 0.0
H318 H 0.45277 0.6267 0.34408 0.0
H319 H 0.43206 0.60959 0.37958 0.0
Tb320 Tb 0.24155 0.48226 0.12241 0.0
Tb321 Tb 0.20318 0.524 0.14156 0.0
C322 C 0.23961 0.53522 0.10048 0.0
C323 C 0.28126 0.42756 0.12047 0.0
C324 C 0.30212 0.38567 0.14166 0.0
C325 C 0.3129 0.39673 0.12131 0.0
C326 C 0.30252 0.41743 0.1108 0.0
C327 C 0.27058 0.4169 0.14097 0.0
C328 C 0.28086 0.39609 0.15142 0.0
C329 C 0.27038 0.44911 0.10893 0.0
O330 O 0.25512 0.49429 0.15718 0.0
O331 O 0.23897 0.5327 0.15689 0.0
O332 O 0.20592 0.49732 0.17032 0.0
O333 O 0.21628 0.46438 0.14721 0.0
O334 O 0.19361 0.56067 0.14643 0.0
O335 O 0.16985 0.53202 0.15825 0.0
O336 O 0.18327 0.50047 0.11662 0.0
O337 O 0.21533 0.48746 0.09354 0.0
O338 O 0.25362 0.51712 0.10768 0.0
O339 O 0.21672 0.53659 0.10694 0.0
C340 C 0.25591 0.5171 0.16381 0.0
O341 O 0.24692 0.44852 0.10567 0.0
O342 O 0.27746 0.47002 0.11729 0.0
C343 C 0.20732 0.47377 0.16726 0.0
C344 C 0.15134 0.56759 0.14348 0.0
C345 C 0.11019 0.59035 0.1226 0.0
C346 C 0.11754 0.59592 0.14644 0.0
C347 C 0.13791 0.58463 0.15676 0.0
C348 C 0.14424 0.56198 0.11965 0.0
C349 C 0.12382 0.57324 0.1093 0.0
C350 C 0.17221 0.55529 0.15494 0.0
C351 C 0.19193 0.49084 0.09656 0.0
H352 H 0.32953 0.38953 0.1136 0.0
H353 H 0.31111 0.42554 0.09509 0.0
H354 H 0.25418 0.42455 0.14876 0.0
H355 H 0.27191 0.38797 0.1669 0.0
H356 H 0.10729 0.60871 0.15734 0.0
H357 H 0.14305 0.58905 0.17523 0.0
H358 H 0.15443 0.54881 0.10913 0.0
H359 H 0.11884 0.56872 0.09083 0.0
Tb360 Tb 0.74475 0.06409 0.90178 0.0
Tb361 Tb 0.70218 0.02758 0.88053 0.0
C362 C 0.73512 0.01249 0.92615 0.0
C363 C 0.78457 0.11851 0.90643 0.0
C364 C 0.80198 0.16322 0.88832 0.0
C365 C 0.81459 0.15069 0.9068 0.0
C366 C 0.80596 0.12858 0.91573 0.0
C367 C 0.77156 0.1311 0.8884 0.0
C368 C 0.78016 0.15326 0.87944 0.0
C369 C 0.77738 0.09395 0.91408 0.0
O370 O 0.76167 0.03222 0.8866 0.0
O371 O 0.73396 0.02513 0.85667 0.0
O372 O 0.69559 0.06333 0.86561 0.0
O373 O 0.73444 0.07747 0.86588 0.0
O374 O 0.69109 0.99345 0.86749 0.0
O375 O 0.66643 0.02398 0.8679 0.0
O376 O 0.68973 0.04005 0.91573 0.0
O377 O 0.70987 0.0763 0.91596 0.0
O378 O 0.74491 0.03428 0.92822 0.0
O379 O 0.72008 0.00653 0.90855 0.0
C380 C 0.75615 0.02316 0.8654 0.0
O381 O 0.75666 0.09178 0.92532 0.0
O382 O 0.78016 0.07723 0.89765 0.0
C383 C 0.71222 0.07798 0.85725 0.0
C384 C 0.64961 0.9856 0.8752 0.0
C385 C 0.61072 0.95861 0.89466 0.0
C386 C 0.61757 0.95587 0.87019 0.0
C387 C 0.6368 0.96929 0.86056 0.0
C388 C 0.64325 0.98806 0.89976 0.0
C389 C 0.62393 0.97473 0.90939 0.0
C390 C 0.66871 1.00072 0.86437 0.0
C391 C 0.69277 0.06202 0.92434 0.0
H392 H 0.83162 0.15751 0.91383 0.0
H393 H 0.81641 0.11898 0.92944 0.0
H394 H 0.75505 0.12353 0.88087 0.0
H395 H 0.7698 0.1625 0.86544 0.0
H396 H 0.60764 0.94384 0.85827 0.0
H397 H 0.64139 0.96723 0.84155 0.0
H398 H 0.653 1.00053 0.91137 0.0
H399 H 0.61933 0.97705 0.92836 0.0
Tb400 Tb 0.73574 0.98083 0.40285 0.0
Tb401 Tb 0.77517 0.02108 0.3828 0.0
C402 C 0.73933 0.03414 0.42414 0.0
C403 C 0.69415 0.92774 0.40448 0.0
C404 C 0.67124 0.88714 0.3832 0.0
C405 C 0.66113 0.89867 0.40368 0.0
C406 C 0.67251 0.91872 0.41421 0.0
C407 C 0.70418 0.91663 0.38383 0.0
C408 C 0.69287 0.89648 0.37333 0.0
C409 C 0.70604 0.94861 0.41614 0.0
O410 O 0.72227 0.99343 0.36818 0.0
O411 O 0.7396 0.03115 0.36771 0.0
O412 O 0.77111 0.99432 0.35443 0.0
O413 O 0.76089 0.96208 0.37844 0.0
O414 O 0.78541 0.05714 0.37613 0.0
O415 O 0.80919 0.02733 0.36674 0.0
O416 O 0.79428 0.99719 0.40831 0.0
O417 O 0.76201 0.98549 0.4317 0.0
O418 O 0.72492 0.0161 0.41794 0.0
O419 O 0.76206 0.03489 0.41706 0.0
C420 C 0.7221 0.01621 0.3613 0.0
O421 O 0.72952 0.94696 0.41903 0.0
O422 O 0.69954 0.97 0.40831 0.0
C423 C 0.76946 0.97087 0.35798 0.0
C424 C 0.82813 0.06346 0.37993 0.0
C425 C 0.86888 0.08776 0.39955 0.0
C426 C 0.87176 0.07067 0.38083 0.0
C427 C 0.85161 0.05876 0.37107 0.0
C428 C 0.8252 0.08043 0.39878 0.0
C429 C 0.84536 0.09249 0.40842 0.0
C430 C 0.80712 0.0508 0.36895 0.0
C431 C 0.78545 0.98832 0.42864 0.0
H432 H 0.64428 0.89235 0.41151 0.0
H433 H 0.6644 0.92716 0.43002 0.0
H434 H 0.72086 0.9234 0.37596 0.0
H435 H 0.70132 0.88799 0.35774 0.0
H436 H 0.88957 0.06683 0.37337 0.0
H437 H 0.85436 0.0459 0.35645 0.0
H438 H 0.80736 0.08445 0.40608 0.0
H439 H 0.84256 0.1054 0.42298 0.0
Tb440 Tb 0.27125 0.52596 0.64317 0.0
Tb441 Tb 0.23248 0.56769 0.62503 0.0
C442 C 0.21828 0.53101 0.66502 0.0
C443 C 0.32293 0.48182 0.64544 0.0
C444 C 0.36361 0.4577 0.62552 0.0
C445 C 0.35442 0.45098 0.64839 0.0
C446 C 0.33428 0.46294 0.65823 0.0
C447 C 0.33182 0.48858 0.62256 0.0
C448 C 0.35205 0.47664 0.61269 0.0
C449 C 0.30218 0.49454 0.65648 0.0
O450 O 0.25802 0.51409 0.60815 0.0
O451 O 0.2209 0.53322 0.60897 0.0
O452 O 0.25873 0.56346 0.59606 0.0
O453 O 0.29098 0.55045 0.61897 0.0
O454 O 0.19667 0.58025 0.62009 0.0
O455 O 0.22726 0.60191 0.60902 0.0
O456 O 0.25754 0.58502 0.65047 0.0
O457 O 0.26777 0.5515 0.6728 0.0
O458 O 0.23555 0.51609 0.65763 0.0
O459 O 0.2184 0.55406 0.65906 0.0
C460 C 0.23515 0.51543 0.60148 0.0
O461 O 0.30475 0.51782 0.65957 0.0
O462 O 0.28079 0.48926 0.64785 0.0
C463 C 0.2822 0.56043 0.59906 0.0
C464 C 0.19316 0.62278 0.62391 0.0
C465 C 0.1743 0.66514 0.64574 0.0
C466 C 0.17391 0.66235 0.62035 0.0
C467 C 0.18325 0.64135 0.60956 0.0
C468 C 0.19362 0.62539 0.64926 0.0
C469 C 0.18415 0.64636 0.66011 0.0
C470 C 0.20381 0.60132 0.61211 0.0
C471 C 0.26637 0.57512 0.67039 0.0
H472 H 0.36308 0.43675 0.65893 0.0
H473 H 0.32769 0.45758 0.67596 0.0
H474 H 0.3232 0.50314 0.61242 0.0
H475 H 0.35851 0.4821 0.59495 0.0
H476 H 0.16617 0.67632 0.6088 0.0
H477 H 0.18284 0.63966 0.58996 0.0
H478 H 0.20147 0.6113 0.66062 0.0
H479 H 0.18491 0.64806 0.67968 0.0
H480 H 0.16428 0.32742 0.48062 0.0
H481 H 0.18142 0.36512 0.4961 0.0
H482 H 0.16211 0.34427 0.56904 0.0
H483 H 0.14538 0.30616 0.55373 0.0
H484 H 0.1576 0.40114 0.51919 0.0
H485 H 0.23148 0.36598 0.57834 0.0
H486 H 0.21601 0.34714 0.55653 0.0
H487 H 0.20222 0.35364 0.58541 0.0
C488 C 0.16404 0.33062 0.50003 0.0
C489 C 0.15356 0.31368 0.51596 0.0
C490 C 0.17377 0.35226 0.50883 0.0
C491 C 0.17324 0.35751 0.53376 0.0
C492 C 0.16322 0.34043 0.5498 0.0
H493 H 0.18736 0.50229 0.59684 0.0
H494 H 0.17164 0.46467 0.57936 0.0
C495 C 0.15363 0.31863 0.541 0.0
C496 C 0.18208 0.38139 0.54264 0.0
H497 H 0.22215 0.40798 0.5817 0.0
C498 C 0.17179 0.40264 0.5328 0.0
C499 C 0.20074 0.38337 0.56023 0.0
C500 C 0.21344 0.36134 0.57059 0.0
C501 C 0.17953 0.42577 0.54013 0.0
C502 C 0.19771 0.42774 0.5582 0.0
C503 C 0.20809 0.40649 0.56795 0.0
C504 C 0.20669 0.45159 0.56703 0.0
C505 C 0.16852 0.44782 0.52803 0.0
C506 C 0.2316 0.45683 0.56597 0.0
C507 C 0.24064 0.47818 0.57613 0.0
C508 C 0.22495 0.49484 0.58756 0.0
C509 C 0.19988 0.49002 0.58786 0.0
C510 C 0.19086 0.4685 0.57785 0.0
H511 H 0.16025 0.44325 0.5102 0.0
H512 H 0.15397 0.45533 0.5398 0.0
H513 H 0.18235 0.46214 0.5252 0.0
H514 H 0.24417 0.44411 0.5577 0.0
H515 H 0.26005 0.48131 0.57557 0.0
H516 H 0.79599 1.00148 0.88435 0.0
H517 H 0.83194 0.98707 0.86303 0.0
H518 H 0.79775 1.00336 0.79433 0.0
H519 H 0.76133 0.01823 0.81582 0.0
H520 H 0.83836 0.95072 0.82757 0.0
H521 H 0.86196 0.04279 0.79344 0.0
H522 H 0.83981 0.03816 0.81712 0.0
H523 H 0.83218 0.03159 0.78614 0.0
C524 C 0.79596 1.00185 0.86467 0.0
C525 C 0.77595 0.01123 0.85172 0.0
C526 C 0.81653 0.99353 0.85252 0.0
C527 C 0.81768 0.99453 0.82715 0.0
C528 C 0.79733 1.00282 0.81398 0.0
H529 H 0.94396 0.96065 0.73776 0.0
H530 H 0.90453 0.97503 0.75224 0.0
C531 C 0.77649 0.01106 0.82622 0.0
C532 C 0.84075 0.98763 0.81506 0.0
H533 H 0.88986 0.01128 0.78562 0.0
C534 C 0.84954 0.96389 0.8182 0.0
C535 C 0.85532 0.00491 0.80297 0.0
C536 C 0.84704 0.03086 0.79977 0.0
C537 C 0.87264 0.95701 0.80983 0.0
C538 C 0.88753 0.97448 0.79844 0.0
C539 C 0.87847 0.99803 0.79461 0.0
C540 C 0.91244 0.96843 0.79015 0.0
C541 C 0.88088 0.93106 0.81321 0.0
C542 C 0.93037 0.96095 0.8068 0.0
C543 C 0.95303 0.95275 0.7986 0.0
C544 C 0.9581 0.95192 0.77361 0.0
C545 C 0.94061 0.96088 0.75714 0.0
C546 C 0.91803 0.96911 0.76535 0.0
H547 H 0.86533 0.91875 0.81661 0.0
H548 H 0.89093 0.92448 0.79702 0.0
H549 H 0.89327 0.92995 0.8291 0.0
H550 H 0.92655 0.96076 0.82608 0.0
H551 H 0.96607 0.94598 0.81176 0.0
H552 H 0.31356 0.72352 0.98222 0.0
H553 H 0.29546 0.68619 0.99749 0.0
H554 H 0.31728 0.705 0.07031 0.0
H555 H 0.335 0.74276 0.05521 0.0
H556 H 0.31881 0.64907 0.01949 0.0
H557 H 0.24742 0.68529 0.08067 0.0
H558 H 0.26293 0.70406 0.05883 0.0
H559 H 0.27722 0.69659 0.0873 0.0
C560 C 0.31416 0.71996 1.00156 0.0
C561 C 0.32564 0.7362 0.01752 0.0
C562 C 0.30387 0.69853 0.01025 0.0
C563 C 0.30484 0.69281 0.03506 0.0
C564 C 0.31584 0.70922 0.05115 0.0
H565 H 0.28764 0.54735 0.09579 0.0
H566 H 0.3041 0.58495 0.07897 0.0
C567 C 0.326 0.73082 0.04249 0.0
C568 C 0.29548 0.66907 0.04373 0.0
H569 H 0.25544 0.64296 0.08305 0.0
C570 C 0.30488 0.64773 0.03333 0.0
C571 C 0.27716 0.66732 0.06163 0.0
C572 C 0.2654 0.68953 0.07261 0.0
C573 C 0.29658 0.62472 0.0404 0.0
C574 C 0.27874 0.62295 0.05877 0.0
C575 C 0.26924 0.6443 0.06908 0.0
C576 C 0.26922 0.59923 0.06732 0.0
C577 C 0.30662 0.60258 0.02773 0.0
C578 C 0.24416 0.5947 0.06645 0.0
C579 C 0.23471 0.57335 0.07623 0.0
C580 C 0.25012 0.55601 0.0871 0.0
C581 C 0.27532 0.56017 0.08726 0.0
C582 C 0.28476 0.58168 0.07762 0.0
H583 H 0.31471 0.60726 0.00986 0.0
H584 H 0.32113 0.59435 0.03913 0.0
H585 H 0.29226 0.5888 0.02484 0.0
H586 H 0.23182 0.60793 0.05858 0.0
H587 H 0.21522 0.57074 0.0758 0.0
H588 H 0.5418 0.10193 0.2376 0.0
H589 H 0.57866 0.08384 0.25408 0.0
H590 H 0.54441 0.07696 0.32411 0.0
H591 H 0.50736 0.09594 0.30787 0.0
H592 H 0.58891 0.09597 0.32823 0.0
H593 H 0.5948 0.01475 0.26972 0.0
H594 H 0.59276 0.04204 0.2521 0.0
H595 H 0.56778 0.03335 0.27128 0.0
C596 C 0.54184 0.09628 0.25644 0.0
C597 C 0.52147 0.10031 0.27138 0.0
C598 C 0.563 0.08578 0.26581 0.0
C599 C 0.56424 0.07862 0.29023 0.0
C600 C 0.54383 0.08222 0.30515 0.0
H601 H 0.68082 0.99129 0.35042 0.0
H602 H 0.64314 0.00704 0.33334 0.0
C603 C 0.52262 0.09296 0.29582 0.0
C604 C 0.58732 0.06868 0.30034 0.0
H605 H 0.63113 0.02558 0.29099 0.0
C606 C 0.59805 0.08044 0.32023 0.0
C607 C 0.59916 0.04827 0.29006 0.0
C608 C 0.58789 0.03373 0.26978 0.0
C609 C 0.62044 0.07264 0.32986 0.0
C610 C 0.63283 0.05294 0.31883 0.0
C611 C 0.62188 0.04094 0.29919 0.0
C612 C 0.65645 0.04355 0.32821 0.0
C613 C 0.63027 0.08523 0.3521 0.0
C614 C 0.67685 0.05865 0.33047 0.0
C615 C 0.69856 0.04971 0.34053 0.0
C616 C 0.70036 0.0254 0.34812 0.0
C617 C 0.6802 0.01012 0.34479 0.0
C618 C 0.65854 0.0191 0.33502 0.0
H619 H 0.61573 0.09506 0.3621 0.0
H620 H 0.63907 0.0721 0.36469 0.0
H621 H 0.64404 0.09874 0.34646 0.0
H622 H 0.67593 0.07741 0.3247 0.0
H623 H 0.71375 0.06193 0.34273 0.0
H624 H 0.6558 0.24687 0.4737 0.0
H625 H 0.67381 0.20901 0.45858 0.0
H626 H 0.6679 0.17745 0.53002 0.0
H627 H 0.65087 0.21519 0.54539 0.0
H628 H 0.7097 0.16544 0.51069 0.0
H629 H 0.63696 0.14827 0.44322 0.0
H630 H 0.6521 0.17661 0.43843 0.0
H631 H 0.63468 0.17197 0.46566 0.0
C632 C 0.65859 0.23195 0.48622 0.0
C633 C 0.6518 0.23411 0.51073 0.0
C634 C 0.66863 0.21021 0.4775 0.0
C635 C 0.67166 0.19012 0.49302 0.0
C636 C 0.66562 0.19258 0.51763 0.0
H637 H 0.69334 0.04084 0.44278 0.0
H638 H 0.67678 0.0778 0.46139 0.0
C639 C 0.65588 0.21429 0.52639 0.0
C640 C 0.68112 0.16647 0.48391 0.0
H641 H 0.67134 0.12197 0.44192 0.0
C642 C 0.70124 0.15592 0.49569 0.0
C643 C 0.66978 0.15371 0.46471 0.0
C644 C 0.64704 0.16307 0.45243 0.0
C645 C 0.71057 0.13326 0.48859 0.0
C646 C 0.69998 0.12106 0.46861 0.0
C647 C 0.67959 0.13137 0.4571 0.0
C648 C 0.71029 0.09806 0.45883 0.0
C649 C 0.73138 0.12245 0.50293 0.0
C650 C 0.73459 0.09709 0.45126 0.0
C651 C 0.74415 0.07598 0.44098 0.0
C652 C 0.72951 0.05538 0.43756 0.0
C653 C 0.70517 0.05628 0.44528 0.0
C654 C 0.69565 0.07744 0.45581 0.0
H655 H 0.73173 0.12951 0.52182 0.0
H656 H 0.73027 0.10235 0.50366 0.0
H657 H 0.7488 0.12749 0.4942 0.0
H658 H 0.74609 0.1129 0.45271 0.0
H659 H 0.7629 0.07616 0.43501 0.0
H660 H 0.03026 0.46008 0.78656 0.0
H661 H 0.06712 0.47861 0.77059 0.0
H662 H 0.04656 0.45743 0.69806 0.0
H663 H 0.00924 0.43936 0.71388 0.0
H664 H 0.10368 0.45583 0.74833 0.0
H665 H 0.0667 0.52666 0.68684 0.0
H666 H 0.04809 0.51118 0.70885 0.0
H667 H 0.05526 0.49695 0.68033 0.0
C668 C 0.03332 0.45975 0.76714 0.0
C669 C 0.01673 0.4483 0.75148 0.0
C670 C 0.05448 0.4703 0.75804 0.0
C671 C 0.05962 0.4696 0.73309 0.0
C672 C 0.0428 0.4587 0.71731 0.0
H673 H 0.20458 0.48358 0.67059 0.0
H674 H 0.16659 0.46848 0.68781 0.0
C675 C 0.02145 0.44832 0.72639 0.0
C676 C 0.0833 0.47888 0.724 0.0
H677 H 0.10903 0.51804 0.6835 0.0
C678 C 0.10483 0.46953 0.73423 0.0
C679 C 0.08486 0.49693 0.70577 0.0
C680 C 0.0625 0.50871 0.69496 0.0
C681 C 0.12781 0.47753 0.72663 0.0
C682 C 0.12939 0.49498 0.70784 0.0
C683 C 0.10786 0.50452 0.69777 0.0
C684 C 0.15312 0.50387 0.69852 0.0
C685 C 0.15012 0.46757 0.73921 0.0
C686 C 0.15819 0.52879 0.69855 0.0
C687 C 0.17979 0.53749 0.68852 0.0
C688 C 0.19686 0.52144 0.67821 0.0
C689 C 0.19202 0.49641 0.67868 0.0
C690 C 0.17029 0.48774 0.68857 0.0
H691 H 0.14572 0.46016 0.75744 0.0
H692 H 0.15787 0.45258 0.72819 0.0
H693 H 0.16422 0.48175 0.74133 0.0
H694 H 0.14526 0.5416 0.7061 0.0
H695 H 0.18287 0.55688 0.68843 0.0
H696 H 0.77679 0.00886 0.95385 0.0
H697 H 0.79232 0.97221 0.97419 0.0
H698 H 0.72702 0.93401 0.95444 0.0
H699 H 0.7112 0.9704 0.9349 0.0
H700 H 0.7418 0.92161 0.99934 0.0
H701 H 0.81905 0.91589 0.93473 0.0
H702 H 0.81791 0.94333 0.95222 0.0
H703 H 0.79419 0.93697 0.9307 0.0
C704 C 0.76553 0.99282 0.95438 0.0
C705 C 0.74289 0.99249 0.9425 0.0
C706 C 0.77455 0.97179 0.96573 0.0
C707 C 0.76111 0.95014 0.96525 0.0
C708 C 0.73784 0.95036 0.95485 0.0
H709 H 0.81648 0.80227 0.97506 0.0
H710 H 0.79787 0.84067 0.96204 0.0
C711 C 0.72884 0.97125 0.94362 0.0
C712 C 0.77139 0.92683 0.97437 0.0
H713 H 0.817 0.88559 0.96494 0.0
C714 C 0.75831 0.91378 0.9919 0.0
C715 C 0.79262 0.91633 0.96424 0.0
C716 C 0.80668 0.92869 0.94427 0.0
C717 C 0.76586 0.89061 0.9996 0.0
C718 C 0.78744 0.8804 0.98994 0.0
C719 C 0.80051 0.89343 0.97239 0.0
C720 C 0.79705 0.85643 0.99803 0.0
C721 C 0.75022 0.87705 0.01748 0.0
C722 C 0.80262 0.85241 0.02256 0.0
C723 C 0.81295 0.83045 0.03007 0.0
C724 C 0.81834 0.81204 0.01315 0.0
C725 C 0.81244 0.81594 0.98859 0.0
C726 C 0.80192 0.83794 0.98111 0.0
H727 H 0.73113 0.88372 0.01714 0.0
H728 H 0.75027 0.85728 0.01367 0.0
H729 H 0.75741 0.87989 0.0361 0.0
H730 H 0.79963 0.86654 0.03589 0.0
H731 H 0.81742 0.82827 0.04911 0.0
H732 H 0.42859 0.63343 0.2563 0.0
H733 H 0.39435 0.61231 0.23854 0.0
H734 H 0.43884 0.54856 0.22828 0.0
H735 H 0.4739 0.56988 0.24626 0.0
H736 H 0.39392 0.58802 0.18913 0.0
H737 H 0.37438 0.52837 0.26849 0.0
H738 H 0.39085 0.55642 0.27194 0.0
H739 H 0.40515 0.53096 0.25757 0.0
C740 C 0.43129 0.61486 0.25044 0.0
C741 C 0.45404 0.60325 0.25298 0.0
C742 C 0.41161 0.60287 0.24016 0.0
C743 C 0.414 0.57888 0.23228 0.0
C744 C 0.43665 0.56709 0.23445 0.0
H745 H 0.29408 0.48962 0.18021 0.0
H746 H 0.33277 0.50368 0.19638 0.0
C747 C 0.45663 0.57927 0.24463 0.0
C748 C 0.39239 0.56674 0.22185 0.0
H749 H 0.34588 0.52874 0.23663 0.0
C750 C 0.38354 0.5748 0.19933 0.0
C751 C 0.37891 0.54961 0.23528 0.0
C752 C 0.3876 0.54075 0.25972 0.0
C753 C 0.36133 0.56646 0.18999 0.0
C754 C 0.34724 0.55013 0.20391 0.0
C755 C 0.35652 0.54146 0.22611 0.0
C756 C 0.32295 0.54171 0.19562 0.0
C757 C 0.35327 0.57513 0.16523 0.0
C758 C 0.30413 0.55835 0.19057 0.0
C759 C 0.28186 0.55037 0.18119 0.0
C760 C 0.27793 0.52556 0.1769 0.0
C761 C 0.29642 0.50888 0.18316 0.0
C762 C 0.31864 0.51688 0.19242 0.0
H763 H 0.36889 0.58157 0.15424 0.0
H764 H 0.3439 0.56052 0.15507 0.0
H765 H 0.34043 0.59056 0.16739 0.0
H766 H 0.3068 0.57757 0.19351 0.0
H767 H 0.26805 0.5637 0.17667 0.0
H768 H 0.52982 0.18235 0.29331 0.0
H769 H 0.54441 0.19891 0.33188 0.0
H770 H 0.47108 0.21914 0.351 0.0
H771 H 0.45629 0.20214 0.31284 0.0
H772 H 0.54247 0.24332 0.35297 0.0
H773 H 0.49077 0.1774 0.40833 0.0
H774 H 0.49409 0.17442 0.37588 0.0
H775 H 0.47178 0.1949 0.38832 0.0
C776 C 0.51684 0.19062 0.30558 0.0
C777 C 0.49187 0.19073 0.30011 0.0
C778 C 0.5252 0.19998 0.32767 0.0
C779 C 0.50875 0.20966 0.34461 0.0
C780 C 0.484 0.21107 0.33854 0.0
H781 H 0.54847 0.29738 0.46908 0.0
H782 H 0.53148 0.28171 0.43127 0.0
C783 C 0.47561 0.20154 0.31661 0.0
C784 C 0.51741 0.21797 0.36874 0.0
H785 H 0.50948 0.20982 0.42975 0.0
C786 C 0.53531 0.23596 0.36976 0.0
C787 C 0.5084 0.20799 0.39066 0.0
C788 C 0.49039 0.18744 0.39082 0.0
C789 C 0.54409 0.24462 0.39206 0.0
C790 C 0.53424 0.23546 0.41397 0.0
C791 C 0.51673 0.21709 0.41296 0.0
C792 C 0.54222 0.24449 0.43807 0.0
C793 C 0.56419 0.26315 0.39191 0.0
C794 C 0.55258 0.22854 0.45515 0.0
C795 C 0.56194 0.23739 0.47705 0.0
C796 C 0.56116 0.26236 0.48216 0.0
C797 C 0.54959 0.27807 0.46558 0.0
C798 C 0.54005 0.26918 0.44385 0.0
H799 H 0.57431 0.26298 0.37446 0.0
H800 H 0.55621 0.28152 0.39425 0.0
H801 H 0.57727 0.25985 0.40694 0.0
H802 H 0.55423 0.20936 0.45115 0.0
H803 H 0.57081 0.22483 0.4894 0.0
H804 H 0.05919 0.32093 0.53012 0.0
H805 H 0.04077 0.33671 0.56748 0.0
H806 H 0.0476 0.26608 0.60065 0.0
H807 H 0.06501 0.25005 0.56344 0.0
H808 H 0.00557 0.28552 0.6121 0.0
H809 H 0.07779 0.35349 0.62802 0.0
H810 H 0.06226 0.35752 0.59962 0.0
H811 H 0.08017 0.33058 0.60478 0.0
C812 C 0.05649 0.30872 0.54528 0.0
C813 C 0.06372 0.28425 0.54374 0.0
C814 C 0.04621 0.31782 0.56674 0.0
C815 C 0.04334 0.30274 0.58715 0.0
C816 C 0.04974 0.27815 0.58527 0.0
H817 H 0.02535 0.35253 0.73667 0.0
H818 H 0.04064 0.33459 0.69889 0.0
C819 C 0.05972 0.269 0.56386 0.0
C820 C 0.03392 0.31227 0.61064 0.0
H821 H 0.04417 0.35444 0.6549 0.0
C822 C 0.01405 0.30059 0.62145 0.0
C823 C 0.04527 0.3316 0.62316 0.0
C824 C 0.0677 0.34388 0.61346 0.0
C825 C 0.00512 0.30774 0.64425 0.0
C826 C 0.01584 0.32768 0.65632 0.0
C827 C 0.03584 0.33925 0.64562 0.0
C828 C 0.00629 0.33717 0.67977 0.0
C829 C 0.98467 0.29338 0.65538 0.0
C830 C 0.98192 0.34453 0.68168 0.0
C831 C 0.97308 0.3544 0.70329 0.0
C832 C 0.98852 0.35762 0.72345 0.0
C833 C 0.01293 0.35016 0.72159 0.0
C834 C 0.02171 0.34001 0.69995 0.0
H835 H 0.98417 0.27458 0.64815 0.0
H836 H 0.98637 0.29247 0.67545 0.0
H837 H 0.96708 0.30222 0.65079 0.0
H838 H 0.9698 0.34322 0.66623 0.0
H839 H 0.95426 0.36022 0.70385 0.0
H840 H 0.02054 0.85203 0.81911 0.0
H841 H 1.00431 0.83423 0.85629 0.0
H842 H 0.93163 0.85355 0.83373 0.0
H843 H 0.94769 0.87089 0.79615 0.0
H844 H 0.97998 0.85627 0.89236 0.0
H845 H 0.92246 0.78381 0.85336 0.0
H846 H 0.94454 0.80004 0.83554 0.0
H847 H 0.91527 0.81339 0.84169 0.0
C848 C 1.00105 0.85216 0.82184 0.0
C849 C 0.98541 0.86273 0.80451 0.0
C850 C 0.9918 0.84205 0.84319 0.0
C851 C 0.96671 0.84229 0.84778 0.0
C852 C 0.951 0.85261 0.83041 0.0
H853 H 0.9004 0.82283 0.99099 0.0
H854 H 0.91846 0.83997 0.95418 0.0
C855 C 0.96023 0.86256 0.8089 0.0
C856 C 0.95722 0.83263 0.87118 0.0
H857 H 0.91762 0.79177 0.89547 0.0
C858 C 0.9664 0.84209 0.89304 0.0
C859 C 0.93969 0.81396 0.87213 0.0
C860 C 0.93007 0.80202 0.84945 0.0
C861 C 0.95845 0.83354 0.91574 0.0
C862 C 0.9404 0.81536 0.91667 0.0
C863 C 0.93133 0.80582 0.89481 0.0
C864 C 0.93099 0.80547 0.94001 0.0
C865 C 0.96992 0.84365 0.93845 0.0
C866 C 0.93186 0.78038 0.94436 0.0
C867 C 0.92133 0.77054 0.96521 0.0
C868 C 0.9097 0.78557 0.98231 0.0
C869 C 0.9095 0.81079 0.97837 0.0
C870 C 0.91987 0.82062 0.95732 0.0
H871 H 0.98787 0.85194 0.93463 0.0
H872 H 0.95792 0.85799 0.94603 0.0
H873 H 0.97239 0.82933 0.95245 0.0
H874 H 0.94034 0.7683 0.93135 0.0
H875 H 0.92184 0.75105 0.96766 0.0
H876 H 0.48672 0.7266 0.24155 0.0
H877 H 0.471 0.74734 0.20485 0.0
H878 H 0.45363 0.678 0.17327 0.0
H879 H 0.46904 0.65752 0.20932 0.0
H880 H 0.48935 0.73877 0.15582 0.0
H881 H 0.3912 0.71822 0.16283 0.0
H882 H 0.41149 0.71688 0.18864 0.0
H883 H 0.41032 0.69212 0.16743 0.0
C884 C 0.47906 0.71596 0.22693 0.0
C885 C 0.47914 0.69051 0.2282 0.0
C886 C 0.47024 0.72774 0.20597 0.0
C887 C 0.46096 0.71418 0.18642 0.0
C888 C 0.46035 0.68885 0.18821 0.0
H889 H 0.40904 0.72735 0.03915 0.0
H890 H 0.4249 0.71369 0.07854 0.0
C891 C 0.46932 0.67718 0.2088 0.0
C892 C 0.4533 0.72582 0.16328 0.0
H893 H 0.40583 0.72888 0.12332 0.0
C894 C 0.471 0.73703 0.14884 0.0
C895 C 0.42942 0.72325 0.15412 0.0
C896 C 0.40945 0.71216 0.16915 0.0
C897 C 0.46568 0.74485 0.12507 0.0
C898 C 0.44194 0.74166 0.11567 0.0
C899 C 0.4241 0.73105 0.1304 0.0
C900 C 0.43496 0.74956 0.09078 0.0
C901 C 0.48573 0.75558 0.10989 0.0
C902 C 0.43575 0.77417 0.08439 0.0
C903 C 0.42681 0.78199 0.06192 0.0
C904 C 0.41675 0.76537 0.04534 0.0
C905 C 0.41686 0.74058 0.05136 0.0
C906 C 0.42576 0.73278 0.07394 0.0
H907 H 0.504 0.75099 0.11727 0.0
H908 H 0.48465 0.74912 0.09083 0.0
H909 H 0.48384 0.77563 0.10977 0.0
H910 H 0.44237 0.78751 0.09719 0.0
H911 H 0.42696 0.80124 0.05795 0.0
H912 H 0.14322 0.32061 0.33701 0.0
H913 H 0.16098 0.3399 0.30107 0.0
H914 H 0.13884 0.41007 0.32781 0.0
H915 H 0.12159 0.39108 0.36395 0.0
H916 H 0.13727 0.36951 0.26598 0.0
H917 H 0.21128 0.41918 0.3124 0.0
H918 H 0.19515 0.3945 0.32658 0.0
H919 H 0.18186 0.42436 0.32552 0.0
C920 C 0.14242 0.34018 0.33539 0.0
C921 C 0.13103 0.3543 0.35342 0.0
C922 C 0.15244 0.35115 0.31477 0.0
C923 C 0.15151 0.37644 0.31191 0.0
C924 C 0.14012 0.39056 0.32982 0.0
H925 H 0.18574 0.4873 0.20972 0.0
H926 H 0.17329 0.46161 0.24342 0.0
C927 C 0.13004 0.37963 0.35037 0.0
C928 C 0.16179 0.38818 0.28993 0.0
H929 H 0.20222 0.43129 0.27174 0.0
C930 C 0.15168 0.3828 0.26714 0.0
C931 C 0.18066 0.40543 0.2915 0.0
C932 C 0.19306 0.41108 0.31528 0.0
C933 C 0.15913 0.39509 0.24604 0.0
C934 C 0.17747 0.41292 0.24776 0.0
C935 C 0.1881 0.41769 0.27045 0.0
C936 C 0.18482 0.42802 0.22665 0.0
C937 C 0.1466 0.38966 0.22228 0.0
C938 C 0.19555 0.4177 0.20592 0.0
C939 C 0.20268 0.43242 0.18642 0.0
C940 C 0.19936 0.45774 0.18741 0.0
C941 C 0.18863 0.46791 0.20826 0.0
C942 C 0.1815 0.45324 0.22762 0.0
H943 H 0.12959 0.37923 0.22495 0.0
H944 H 0.14217 0.40669 0.2124 0.0
H945 H 0.15894 0.37871 0.21069 0.0
H946 H 0.19869 0.39832 0.20495 0.0
H947 H 0.21101 0.42399 0.17073 0.0
H948 H 0.8771 0.91354 0.62608 0.0
H949 H 0.85654 0.92873 0.58968 0.0
H950 H 0.9251 0.95314 0.56111 0.0
H951 H 0.94596 0.9374 0.59726 0.0
H952 H 0.85553 0.97656 0.57064 0.0
H953 H 0.89709 0.91099 0.50592 0.0
H954 H 0.89803 0.90652 0.5384 0.0
H955 H 0.91791 0.92806 0.5243 0.0
C956 C 0.88786 0.92194 0.61197 0.0
C957 C 0.91321 0.92405 0.6145 0.0
C958 C 0.87606 0.93076 0.59125 0.0
C959 C 0.88933 0.94175 0.57254 0.0
C960 C 0.91457 0.94436 0.57516 0.0
H961 H 0.83506 0.9941 0.43131 0.0
H962 H 0.86173 0.98466 0.46587 0.0
C963 C 0.92641 0.93558 0.59594 0.0
C964 C 0.87654 0.95049 0.55042 0.0
H965 H 0.8699 0.93994 0.48963 0.0
C966 C 0.85875 0.96865 0.55291 0.0
C967 C 0.8809 0.94024 0.52727 0.0
C968 C 0.89938 0.92024 0.52369 0.0
C969 C 0.84496 0.97662 0.53293 0.0
C970 C 0.84873 0.96581 0.50994 0.0
C971 C 0.86703 0.94818 0.50728 0.0
C972 C 0.83281 0.97147 0.48886 0.0
C973 C 0.82645 0.99658 0.53664 0.0
C974 C 0.80783 0.96674 0.49016 0.0
C975 C 0.79261 0.97206 0.47054 0.0
C976 C 0.80203 0.98211 0.44905 0.0
C977 C 0.82718 0.98642 0.44759 0.0
C978 C 0.84245 0.98106 0.46731 0.0
H979 H 0.83082 0.00773 0.55285 0.0
H980 H 0.82534 0.00865 0.52052 0.0
H981 H 0.80831 0.98839 0.53956 0.0
H982 H 0.80009 0.95881 0.50638 0.0
H983 H 0.77339 0.96829 0.47231 0.0
H984 H 0.2873 0.56031 0.71289 0.0
H985 H 0.30155 0.58521 0.74648 0.0
H986 H 0.27927 0.64986 0.70814 0.0
H987 H 0.2646 0.62495 0.67428 0.0
H988 H 0.33732 0.6213 0.74487 0.0
H989 H 0.24849 0.65856 0.77589 0.0
H990 H 0.25071 0.63263 0.756 0.0
H991 H 0.25546 0.66262 0.74426 0.0
C992 C 0.28526 0.57982 0.71153 0.0
C993 C 0.27474 0.59059 0.69081 0.0
C994 C 0.29347 0.59404 0.73081 0.0
C995 C 0.29127 0.61938 0.72997 0.0
C996 C 0.28079 0.63031 0.70936 0.0
H997 H 0.33609 0.72604 0.83935 0.0
H998 H 0.31963 0.7067 0.80284 0.0
C999 C 0.27256 0.61604 0.68995 0.0
C1000 C 0.30073 0.63409 0.75049 0.0
H1001 H 0.2835 0.67158 0.79687 0.0
C1002 C 0.32556 0.63236 0.75619 0.0
C1003 C 0.2854 0.64863 0.76516 0.0
C1004 C 0.25849 0.65068 0.76023 0.0
C1005 C 0.33545 0.64456 0.77625 0.0
C1006 C 0.32002 0.6585 0.79138 0.0
C1007 C 0.29529 0.66079 0.78533 0.0
C1008 C 0.32915 0.67021 0.81392 0.0
C1009 C 0.36242 0.64251 0.78094 0.0
C1010 C 0.33943 0.65609 0.83256 0.0
C1011 C 0.3488 0.66705 0.85344 0.0
C1012 C 0.34792 0.6924 0.85627 0.0
C1013 C 0.33694 0.70646 0.83787 0.0
C1014 C 0.32761 0.69546 0.81692 0.0
H1015 H 0.3725 0.63734 0.76425 0.0
H1016 H 0.36987 0.65986 0.78788 0.0
H1017 H 0.36577 0.62824 0.79479 0.0
H1018 H 0.34025 0.63652 0.83095 0.0
H1019 H 0.35664 0.65562 0.86745 0.0
H1020 H 0.60297 0.12641 0.13021 0.0
H1021 H 0.62555 0.11294 0.09435 0.0
H1022 H 0.56048 0.11945 0.05098 0.0
H1023 H 0.53789 0.1332 0.08668 0.0
H1024 H 0.61968 0.07428 0.06431 0.0
H1025 H 0.60809 0.15988 0.01248 0.0
H1026 H 0.60083 0.15748 0.04432 0.0
H1027 H 0.57985 0.14666 0.02175 0.0
C1028 C 0.59345 0.12482 0.11306 0.0
C1029 C 0.5687 0.13106 0.11122 0.0
C1030 C 0.60639 0.1172 0.09258 0.0
C1031 C 0.59483 0.11566 0.06987 0.0
C1032 C 0.56995 0.12116 0.06815 0.0
H1033 H 0.65324 0.03934 0.94403 0.0
H1034 H 0.62911 0.05229 0.97895 0.0
C1035 C 0.55704 0.12894 0.08858 0.0
C1036 C 0.60882 0.1082 0.04806 0.0
H1037 H 0.62507 0.12646 0.99108 0.0
C1038 C 0.6209 0.0857 0.04831 0.0
C1039 C 0.61071 0.12328 0.02733 0.0
C1040 C 0.59939 0.14827 0.02646 0.0
C1041 C 0.63456 0.07773 0.0283 0.0
C1042 C 0.63574 0.09245 0.00724 0.0
C1043 C 0.62391 0.11507 0.00711 0.0
C1044 C 0.64969 0.08501 0.98541 0.0
C1045 C 0.64807 0.05389 0.03013 0.0
C1046 C 0.66869 0.09956 0.97682 0.0
C1047 C 0.68235 0.09238 0.95665 0.0
C1048 C 0.67725 0.07047 0.94466 0.0
C1049 C 0.6578 0.05622 0.95294 0.0
C1050 C 0.64407 0.0635 0.97303 0.0
H1051 H 0.65073 0.04823 0.04933 0.0
H1052 H 0.63739 0.03959 0.02088 0.0
H1053 H 0.66613 0.05499 0.02124 0.0
H1054 H 0.67325 0.11631 0.986 0.0
H1055 H 0.69718 0.1038 0.95079 0.0
H1056 H 0.60005 0.18589 0.68886 0.0
H1057 H 0.61967 0.16606 0.72346 0.0
H1058 H 0.69007 0.1815 0.69318 0.0
H1059 H 0.67064 0.20085 0.65802 0.0
H1060 H 0.65512 0.125 0.71897 0.0
H1061 H 0.69167 0.20639 0.76624 0.0
H1062 H 0.66642 0.20833 0.74527 0.0
H1063 H 0.69663 0.20359 0.73403 0.0
C1064 C 0.61971 0.18494 0.68938 0.0
C1065 C 0.63373 0.19489 0.67051 0.0
C1066 C 0.63088 0.17376 0.70929 0.0
C1067 C 0.65628 0.17252 0.71094 0.0
C1068 C 0.67042 0.18261 0.69237 0.0
H1069 H 0.7425 0.10528 0.82844 0.0
H1070 H 0.7311 0.12877 0.79215 0.0
C1071 C 0.65926 0.1937 0.67233 0.0
C1072 C 0.66775 0.15962 0.73163 0.0
H1073 H 0.69857 0.1684 0.7848 0.0
C1074 C 0.66475 0.13444 0.7333 0.0
C1075 C 0.68054 0.172 0.75009 0.0
C1076 C 0.68402 0.1991 0.74906 0.0
C1077 C 0.6738 0.12132 0.75321 0.0
C1078 C 0.68562 0.13382 0.77228 0.0
C1079 C 0.6894 0.1589 0.77022 0.0
C1080 C 0.69267 0.12123 0.79509 0.0
C1081 C 0.67056 0.09415 0.75365 0.0
C1082 C 0.67477 0.10998 0.80917 0.0
C1083 C 0.68117 0.09656 0.8297 0.0
C1084 C 0.70565 0.09428 0.83681 0.0
C1085 C 0.72351 0.10658 0.82338 0.0
C1086 C 0.71704 0.11998 0.80265 0.0
H1087 H 0.66821 0.08672 0.73505 0.0
H1088 H 0.68635 0.08496 0.76235 0.0
H1089 H 0.65401 0.0897 0.7642 0.0
H1090 H 0.65579 0.11125 0.80403 0.0
H1091 H 0.66688 0.08765 0.83977 0.0
H1092 H 0.14313 0.50119 0.09172 0.0
H1093 H 0.11645 0.49052 0.05766 0.0
H1094 H 0.1764 0.45454 0.02215 0.0
H1095 H 0.20313 0.4654 0.05564 0.0
H1096 H 0.15111 0.48401 0.99122 0.0
H1097 H 0.08813 0.42412 0.04206 0.0
H1098 H 0.09104 0.4543 0.05396 0.0
H1099 H 0.11674 0.43405 0.05454 0.0
C1100 C 0.15058 0.49089 0.07671 0.0
C1101 C 0.17527 0.4841 0.07648 0.0
C1102 C 0.13528 0.48472 0.0573 0.0
C1103 C 0.14436 0.47147 0.03746 0.0
C1104 C 0.16898 0.46476 0.03724 0.0
H1105 H 0.07469 0.38622 0.92756 0.0
H1106 H 0.09579 0.40261 0.96288 0.0
C1107 C 0.18425 0.47098 0.05648 0.0
C1108 C 0.12859 0.46476 0.0166 0.0
H1109 H 0.07947 0.43064 1.00057 0.0
C1110 C 0.13535 0.47246 0.99326 0.0
C1111 C 0.10818 0.44949 0.01929 0.0
C1112 C 0.10063 0.43979 0.04376 0.0
C1113 C 0.12255 0.46499 0.9725 0.0
C1114 C 0.10207 0.44981 0.97519 0.0
C1115 C 0.09507 0.44241 0.99856 0.0
C1116 C 0.08859 0.44018 0.95388 0.0
C1117 C 0.13171 0.47265 0.94785 0.0
C1118 C 0.07723 0.45583 0.93717 0.0
C1119 C 0.06542 0.44651 0.91669 0.0
C1120 C 0.06454 0.42132 0.91262 0.0
C1121 C 0.07543 0.40572 0.92978 0.0
C1122 C 0.08731 0.41505 0.95015 0.0
H1123 H 0.15075 0.47921 0.94866 0.0
H1124 H 0.13079 0.4574 0.93473 0.0
H1125 H 0.12016 0.48767 0.94084 0.0
H1126 H 0.07759 0.47528 0.9399 0.0
H1127 H 0.05735 0.45909 0.90384 0.0
H1128 H 0.78567 0.98338 0.31295 0.0
H1129 H 0.79852 0.95672 0.28017 0.0
H1130 H 0.78388 0.8942 0.32484 0.0
H1131 H 0.77044 0.9209 0.35787 0.0
H1132 H 0.83609 0.92425 0.28034 0.0
H1133 H 0.74878 0.87762 0.2615 0.0
H1134 H 0.75055 0.90477 0.2797 0.0
H1135 H 0.7591 0.87594 0.29244 0.0
C1136 C 0.78502 0.96397 0.31589 0.0
C1137 C 0.77701 0.95431 0.33812 0.0
C1138 C 0.79241 0.94873 0.29706 0.0
C1139 C 0.79195 0.92346 0.29992 0.0
C1140 C 0.78397 0.91365 0.32206 0.0
H1141 H 0.8721 0.82874 0.20059 0.0
H1142 H 0.85625 0.84878 0.23692 0.0
C1143 C 0.77645 0.92894 0.34098 0.0
C1144 C 0.80073 0.90774 0.27985 0.0
H1145 H 0.78312 0.86445 0.23917 0.0
C1146 C 0.82454 0.91109 0.27141 0.0
C1147 C 0.78554 0.89078 0.26805 0.0
C1148 C 0.7595 0.88712 0.27569 0.0
C1149 C 0.83353 0.89816 0.25138 0.0
C1150 C 0.81847 0.88097 0.23975 0.0
C1151 C 0.79468 0.87748 0.24825 0.0
C1152 C 0.82688 0.8672 0.21816 0.0
C1153 C 0.85882 0.90363 0.24237 0.0
C1154 C 0.81509 0.87016 0.19572 0.0
C1155 C 0.82406 0.85865 0.17491 0.0
C1156 C 0.84501 0.84395 0.17619 0.0
C1157 C 0.85624 0.84034 0.1989 0.0
C1158 C 0.84719 0.85176 0.21968 0.0
H1159 H 0.86557 0.92124 0.2494 0.0
H1160 H 0.87146 0.88918 0.24866 0.0
H1161 H 0.85932 0.90412 0.22222 0.0
H1162 H 0.79935 0.88196 0.19415 0.0
H1163 H 0.81507 0.86191 0.1577 0.0
H1164 H 0.33214 0.55668 0.59702 0.0
H1165 H 0.35891 0.57032 0.56413 0.0
H1166 H 0.29646 0.59453 0.52321 0.0
H1167 H 0.26975 0.58141 0.55583 0.0
H1168 H 0.36062 0.55701 0.51491 0.0
H1169 H 0.33915 0.65481 0.52456 0.0
H1170 H 0.33141 0.63276 0.5475 0.0
H1171 H 0.31257 0.63642 0.52099 0.0
C1172 C 0.32412 0.565 0.58106 0.0
C1173 C 0.29877 0.56814 0.57923 0.0
C1174 C 0.33945 0.57273 0.56225 0.0
C1175 C 0.32972 0.58385 0.54138 0.0
C1176 C 0.30444 0.58651 0.53934 0.0
H1177 H 0.3915 0.60668 0.39842 0.0
H1178 H 0.37052 0.59113 0.43433 0.0
C1179 C 0.28916 0.57885 0.55804 0.0
C1180 C 0.34578 0.5926 0.52154 0.0
H1181 H 0.35944 0.64298 0.48816 0.0
C1182 C 0.36054 0.57584 0.50918 0.0
C1183 C 0.34594 0.61724 0.51426 0.0
C1184 C 0.33161 0.63641 0.52766 0.0
C1185 C 0.37484 0.58292 0.48924 0.0
C1186 C 0.37405 0.60734 0.48121 0.0
C1187 C 0.35987 0.62421 0.49409 0.0
C1188 C 0.38766 0.61589 0.45949 0.0
C1189 C 0.39082 0.56421 0.47713 0.0
C1190 C 0.40396 0.6353 0.4615 0.0
C1191 C 0.41583 0.64435 0.44098 0.0
C1192 C 0.41162 0.63424 0.4179 0.0
C1193 C 0.39543 0.61466 0.41594 0.0
C1194 C 0.38347 0.60569 0.4365 0.0
H1195 H 0.39488 0.54875 0.48948 0.0
H1196 H 0.38128 0.55693 0.46096 0.0
H1197 H 0.40824 0.57227 0.47107 0.0
H1198 H 0.40747 0.64352 0.47901 0.0
H1199 H 0.42841 0.65922 0.44322 0.0
H1200 H 0.1872 0.22289 0.47347 0.0
H1201 H 0.22032 0.20931 0.44746 0.0
H1202 H 0.18206 0.23623 0.38449 0.0
H1203 H 0.14859 0.25017 0.41054 0.0
H1204 H 0.21674 0.17573 0.40815 0.0
H1205 H 0.25136 0.26581 0.37872 0.0
H1206 H 0.2319 0.26228 0.40485 0.0
H1207 H 0.21938 0.26031 0.37482 0.0
C1208 C 0.18575 0.22609 0.45411 0.0
C1209 C 0.16517 0.23768 0.44412 0.0
C1210 C 0.20475 0.21825 0.43926 0.0
C1211 C 0.20377 0.22193 0.41409 0.0
C1212 C 0.18332 0.23351 0.40394 0.0
H1213 H 0.31556 0.18129 0.30749 0.0
H1214 H 0.27859 0.19756 0.32638 0.0
C1215 C 0.16416 0.24133 0.41883 0.0
C1216 C 0.22402 0.21289 0.39874 0.0
H1217 H 0.2721 0.23125 0.36421 0.0
C1218 C 0.22876 0.18785 0.39841 0.0
C1219 C 0.23957 0.22873 0.38594 0.0
C1220 C 0.23552 0.25582 0.3861 0.0
C1221 C 0.24884 0.17824 0.38596 0.0
C1222 C 0.26497 0.19414 0.37394 0.0
C1223 C 0.2598 0.21912 0.37356 0.0
C1224 C 0.28777 0.18517 0.36255 0.0
C1225 C 0.2526 0.1511 0.3858 0.0
C1226 C 0.30547 0.17335 0.37672 0.0
C1227 C 0.32659 0.16412 0.36603 0.0
C1228 C 0.33058 0.16664 0.34093 0.0
C1229 C 0.31314 0.17915 0.32688 0.0
C1230 C 0.29195 0.18837 0.33762 0.0
H1231 H 0.23537 0.14131 0.3894 0.0
H1232 H 0.26001 0.14486 0.36812 0.0
H1233 H 0.26574 0.14605 0.40027 0.0
H1234 H 0.30293 0.17123 0.3961 0.0
H1235 H 0.33986 0.15507 0.37747 0.0
H1236 H 0.0672 0.14203 0.60861 0.0
H1237 H 0.05306 0.10622 0.63074 0.0
H1238 H 0.10387 0.06147 0.59125 0.0
H1239 H 0.11813 0.09714 0.56912 0.0
H1240 H 0.03307 0.06229 0.61549 0.0
H1241 H 0.12157 0.04757 0.66195 0.0
H1242 H 0.11441 0.07516 0.64573 0.0
H1243 H 0.1235 0.04838 0.62942 0.0
C1244 C 0.07518 0.12453 0.60445 0.0
C1245 C 0.09399 0.1225 0.58728 0.0
C1246 C 0.06713 0.10408 0.61716 0.0
C1247 C 0.07771 0.08123 0.61298 0.0
C1248 C 0.09584 0.079 0.59521 0.0
H1249 H 0.02252 0.94283 0.66957 0.0
H1250 H 0.0345 0.97614 0.64264 0.0
C1251 C 0.10397 0.09942 0.58257 0.0
C1252 C 0.07022 0.05988 0.62761 0.0
H1253 H 0.09158 0.01759 0.66784 0.0
C1254 C 0.04584 0.05247 0.62692 0.0
C1255 C 0.08686 0.04726 0.64273 0.0
C1256 C 0.113 0.05508 0.64525 0.0
C1257 C 0.03769 0.03273 0.64087 0.0
C1258 C 0.05445 0.01986 0.65564 0.0
C1259 C 0.0788 0.02731 0.65633 0.0
C1260 C 0.04695 0.99949 0.67164 0.0
C1261 C 0.01108 0.02628 0.64023 0.0
C1262 C 0.05044 1.00129 0.6968 0.0
C1263 C 0.04384 0.98228 0.71217 0.0
C1264 C 0.03364 0.96091 0.70274 0.0
C1265 C 0.03028 0.95903 0.67746 0.0
C1266 C 0.03695 0.97813 0.66205 0.0
H1267 H 0.9998 0.04122 0.63256 0.0
H1268 H 0.00856 0.01002 0.62867 0.0
H1269 H 1.00434 0.02195 0.65872 0.0
H1270 H 0.05819 0.01755 0.70461 0.0
H1271 H 0.04675 0.98443 0.7315 0.0
H1272 H 0.16441 0.87066 0.80966 0.0
H1273 H 0.20041 0.85201 0.82842 0.0
H1274 H 0.17531 0.87458 0.89902 0.0
H1275 H 0.1391 0.89274 0.88055 0.0
H1276 H 0.23647 0.87462 0.85743 0.0
H1277 H 0.18933 0.80178 0.90798 0.0
H1278 H 0.17508 0.81837 0.88345 0.0
H1279 H 0.17684 0.83145 0.9133 0.0
C1280 C 0.16641 0.87138 0.82922 0.0
C1281 C 0.14882 0.88313 0.84362 0.0
C1282 C 0.18706 0.86085 0.83987 0.0
C1283 C 0.19037 0.86163 0.86513 0.0
C1284 C 0.17292 0.87342 0.87953 0.0
H1285 H 0.29314 0.82636 0.97506 0.0
H1286 H 0.25939 0.839 0.94931 0.0
C1287 C 0.15235 0.88401 0.86891 0.0
C1288 C 0.21232 0.85071 0.87654 0.0
H1289 H 0.23033 0.80978 0.91963 0.0
C1290 C 0.23523 0.86021 0.87079 0.0
C1291 C 0.21062 0.83184 0.89387 0.0
C1292 C 0.18668 0.82007 0.89988 0.0
C1293 C 0.25637 0.85219 0.88285 0.0
C1294 C 0.25452 0.83392 0.90081 0.0
C1295 C 0.2317 0.82385 0.9059 0.0
C1296 C 0.27561 0.82627 0.9159 0.0
C1297 C 0.28031 0.86407 0.87708 0.0
C1298 C 0.29602 0.81477 0.90568 0.0
C1299 C 0.31555 0.80748 0.92045 0.0
C1300 C 0.3149 0.81147 0.94568 0.0
C1301 C 0.29434 0.82294 0.95574 0.0
C1302 C 0.27495 0.83019 0.94103 0.0
H1303 H 0.27789 0.8809 0.8662 0.0
H1304 H 0.29025 0.86861 0.89403 0.0
H1305 H 0.29176 0.85128 0.8665 0.0
H1306 H 0.29673 0.8112 0.88637 0.0
H1307 H 0.33102 0.79856 0.91213 0.0
H1308 H 0.46041 0.10694 0.16661 0.0
H1309 H 0.4485 0.07329 0.14004 0.0
H1310 H 0.4201 0.03471 0.20183 0.0
H1311 H 0.43164 0.06804 0.22836 0.0
H1312 H 0.46267 0.023 0.14309 0.0
H1313 H 0.36314 0.03537 0.15313 0.0
H1314 H 0.38465 0.05868 0.16112 0.0
H1315 H 0.37912 0.03385 0.18155 0.0
C1316 C 0.45152 0.09135 0.17452 0.0
C1317 C 0.44686 0.09029 0.19962 0.0
C1318 C 0.44479 0.07213 0.15932 0.0
C1319 C 0.4331 0.05169 0.16893 0.0
C1320 C 0.42869 0.05051 0.19397 0.0
H1321 H 0.37749 0.91338 0.12662 0.0
H1322 H 0.39177 0.95008 0.14683 0.0
C1323 C 0.43543 0.06959 0.20913 0.0
C1324 C 0.42575 0.03125 0.1531 0.0
H1325 H 0.37652 0.99771 0.1364 0.0
C1326 C 0.44382 0.0176 0.14132 0.0
C1327 C 0.40114 0.02431 0.15084 0.0
C1328 C 0.38085 0.03894 0.16213 0.0
C1329 C 0.43801 0.99652 0.12822 0.0
C1330 C 0.41346 0.98919 0.12661 0.0
C1331 C 0.39535 1.00327 0.1378 0.0
C1332 C 0.40608 0.9665 0.1142 0.0
C1333 C 0.45824 0.98174 0.11704 0.0
C1334 C 0.40944 0.96352 0.08911 0.0
C1335 C 0.40119 0.94255 0.07745 0.0
C1336 C 0.38926 0.92427 0.09065 0.0
C1337 C 0.38627 0.92724 0.11584 0.0
C1338 C 0.39453 0.94815 0.12745 0.0
H1339 H 0.47634 0.98693 0.12428 0.0
H1340 H 0.45545 0.96208 0.12036 0.0
H1341 H 0.45833 0.98474 0.09711 0.0
H1342 H 0.41791 0.97766 0.07845 0.0
H1343 H 0.40349 0.94099 0.05799 0.0
H1344 H 0.81162 0.36633 0.71846 0.0
H1345 H 0.77594 0.34818 0.69901 0.0
H1346 H 0.80126 0.37266 0.62915 0.0
H1347 H 0.83714 0.39031 0.6483 0.0
H1348 H 0.74 0.37207 0.67034 0.0
H1349 H 0.78757 0.30019 0.61825 0.0
H1350 H 0.80161 0.31591 0.64334 0.0
H1351 H 0.80008 0.32988 0.61384 0.0
C1352 C 0.80974 0.36755 0.69892 0.0
C1353 C 0.82726 0.37973 0.68492 0.0
C1354 C 0.78929 0.35731 0.68787 0.0
C1355 C 0.78613 0.35881 0.66262 0.0
C1356 C 0.80355 0.37095 0.64863 0.0
H1357 H 0.68402 0.32629 0.55125 0.0
H1358 H 0.71768 0.33843 0.57724 0.0
C1359 C 0.82392 0.38126 0.65964 0.0
C1360 C 0.76429 0.34842 0.65081 0.0
H1361 H 0.74664 0.30893 0.60656 0.0
C1362 C 0.74135 0.35803 0.65662 0.0
C1363 C 0.76614 0.33005 0.633 0.0
C1364 C 0.79014 0.31821 0.62686 0.0
C1365 C 0.72032 0.35061 0.64419 0.0
C1366 C 0.72231 0.33283 0.62578 0.0
C1367 C 0.74516 0.32264 0.6206 0.0
C1368 C 0.70129 0.32564 0.61052 0.0
C1369 C 0.69634 0.36263 0.65009 0.0
C1370 C 0.68083 0.31433 0.62059 0.0
C1371 C 0.66136 0.30739 0.60572 0.0
C1372 C 0.66216 0.3115 0.5805 0.0
C1373 C 0.68274 0.3228 0.57057 0.0
C1374 C 0.70207 0.32975 0.5854 0.0
H1375 H 0.69875 0.37935 0.66107 0.0
H1376 H 0.68631 0.36739 0.63321 0.0
H1377 H 0.685 0.34985 0.66067 0.0
H1378 H 0.68003 0.31059 0.63988 0.0
H1379 H 0.64587 0.2986 0.61395 0.0
H1380 H 0.92778 0.47962 0.79656 0.0
H1381 H 0.91603 0.513 0.82304 0.0
H1382 H 0.94601 0.47491 0.8847 0.0
H1383 H 0.95815 0.44121 0.85817 0.0
H1384 H 0.8848 0.51108 0.86369 0.0
H1385 H 0.97735 0.54297 0.88867 0.0
H1386 H 0.972 0.52314 0.86316 0.0
H1387 H 0.97118 0.51133 0.89353 0.0
C1388 C 0.93202 0.47825 0.81573 0.0
C1389 C 0.944 0.45768 0.82519 0.0
C1390 C 0.92522 0.4974 0.83086 0.0
C1391 C 0.93036 0.49658 0.85579 0.0
C1392 C 0.94221 0.47608 0.86543 0.0
H1393 H 0.89733 0.60821 0.96482 0.0
H1394 H 0.91179 0.57115 0.94482 0.0
C1395 C 0.949 0.45677 0.85026 0.0
C1396 C 0.92264 0.51712 0.87145 0.0
H1397 H 0.9441 0.56435 0.90531 0.0
C1398 C 0.89776 0.52265 0.8729 0.0
C1399 C 0.93957 0.53211 0.88355 0.0
C1400 C 0.96655 0.52731 0.88212 0.0
C1401 C 0.88934 0.54295 0.88582 0.0
C1402 C 0.90631 0.55844 0.89722 0.0
C1403 C 0.93115 0.55251 0.89644 0.0
C1404 C 0.89856 0.58133 0.90921 0.0
C1405 C 0.86233 0.54761 0.88717 0.0
C1406 C 0.8869 0.59961 0.89571 0.0
C1407 C 0.87873 0.62081 0.90702 0.0
C1408 C 0.88215 0.62427 0.9321 0.0
C1409 C 0.89453 0.60622 0.94546 0.0
C1410 C 0.90271 0.58498 0.93409 0.0
H1411 H 0.85177 0.53084 0.88365 0.0
H1412 H 0.85709 0.55488 0.90522 0.0
H1413 H 0.85714 0.56118 0.87316 0.0
H1414 H 0.88405 0.59744 0.87637 0.0
H1415 H 0.86975 0.63453 0.89608 0.0
H1416 H 0.78799 0.71655 0.04922 0.0
H1417 H 0.75457 0.70256 0.0745 0.0
H1418 H 0.79079 0.72987 0.13825 0.0
H1419 H 0.82452 0.74422 0.11294 0.0
H1420 H 0.75667 0.66929 0.11391 0.0
H1421 H 0.72153 0.75976 0.14223 0.0
H1422 H 0.74192 0.75595 0.11684 0.0
H1423 H 0.75336 0.75409 0.14733 0.0
C1424 C 0.78894 0.71971 0.06861 0.0
C1425 C 0.80899 0.73161 0.07901 0.0
C1426 C 0.76977 0.71163 0.08305 0.0
C1427 C 0.77002 0.71538 0.10822 0.0
C1428 C 0.79004 0.7271 0.1188 0.0
H1429 H 0.65908 0.67793 0.21592 0.0
H1430 H 0.69555 0.69326 0.19576 0.0
C1431 C 0.80938 0.73514 0.10433 0.0
C1432 C 0.74939 0.70655 0.12316 0.0
H1433 H 0.70128 0.72545 0.15762 0.0
C1434 C 0.74461 0.68156 0.12355 0.0
C1435 C 0.73373 0.72256 0.13581 0.0
C1436 C 0.73767 0.74962 0.1355 0.0
C1437 C 0.72454 0.67215 0.1361 0.0
C1438 C 0.70844 0.68821 0.14817 0.0
C1439 C 0.71354 0.71316 0.14828 0.0
C1440 C 0.68594 0.67948 0.16028 0.0
C1441 C 0.72093 0.64504 0.1365 0.0
C1442 C 0.6681 0.6671 0.14696 0.0
C1443 C 0.64722 0.65835 0.15841 0.0
C1444 C 0.64357 0.66198 0.18343 0.0
C1445 C 0.66118 0.67496 0.19661 0.0
C1446 C 0.68212 0.68365 0.18513 0.0
H1447 H 0.73818 0.63513 0.13285 0.0
H1448 H 0.71368 0.63893 0.15428 0.0
H1449 H 0.70771 0.63999 0.12215 0.0
H1450 H 0.67031 0.66423 0.12764 0.0
H1451 H 0.63384 0.64887 0.1476 0.0
H1452 H 0.5548 0.42598 0.45766 0.0
H1453 H 0.53718 0.46067 0.4359 0.0
H1454 H 0.59477 0.45648 0.38305 0.0
H1455 H 0.61184 0.42129 0.40397 0.0
H1456 H 0.55703 0.50505 0.42659 0.0
H1457 H 0.53548 0.45943 0.33984 0.0
H1458 H 0.54303 0.44277 0.3671 0.0
H1459 H 0.56669 0.45526 0.34839 0.0
C1460 C 0.56348 0.43216 0.44116 0.0
C1461 C 0.58474 0.42074 0.43256 0.0
C1462 C 0.55347 0.45211 0.42884 0.0
C1463 C 0.56441 0.46095 0.40761 0.0
C1464 C 0.58567 0.44968 0.39908 0.0
H1465 H 0.55856 0.58191 0.31142 0.0
H1466 H 0.56737 0.54594 0.33576 0.0
C1467 C 0.59563 0.42973 0.41129 0.0
C1468 C 0.55429 0.48252 0.39479 0.0
H1469 H 0.53665 0.50294 0.33883 0.0
C1470 C 0.55221 0.50453 0.4075 0.0
C1471 C 0.54786 0.48181 0.36989 0.0
C1472 C 0.54813 0.45848 0.35558 0.0
C1473 C 0.54504 0.52605 0.39568 0.0
C1474 C 0.53967 0.52547 0.37057 0.0
C1475 C 0.54095 0.50335 0.35806 0.0
C1476 C 0.53413 0.54783 0.35656 0.0
C1477 C 0.54421 0.54945 0.40983 0.0
C1478 C 0.51245 0.56087 0.36019 0.0
C1479 C 0.50726 0.58154 0.34621 0.0
C1480 C 0.52371 0.58951 0.32838 0.0
C1481 C 0.54548 0.57642 0.32501 0.0
C1482 C 0.55056 0.55578 0.33887 0.0
H1483 H 0.55235 0.54747 0.42821 0.0
H1484 H 0.55399 0.56396 0.39989 0.0
H1485 H 0.52502 0.55536 0.41193 0.0
H1486 H 0.4994 0.55486 0.37359 0.0
H1487 H 0.4903 0.59113 0.34924 0.0
H1488 H 0.30587 0.37361 0.18998 0.0
H1489 H 0.32467 0.33739 0.20769 0.0
H1490 H 0.34281 0.31156 0.13607 0.0
H1491 H 0.323 0.34705 0.11813 0.0
H1492 H 0.3257 0.27525 0.16522 0.0
H1493 H 0.39752 0.32737 0.21287 0.0
H1494 H 0.36706 0.33609 0.22074 0.0
H1495 H 0.37787 0.34093 0.19033 0.0
C1496 C 0.31355 0.36009 0.17795 0.0
C1497 C 0.31309 0.36341 0.15259 0.0
C1498 C 0.32455 0.33951 0.18814 0.0
C1499 C 0.33555 0.32199 0.17323 0.0
C1500 C 0.33458 0.32493 0.14794 0.0
H1501 H 0.44857 0.2201 0.20448 0.0
H1502 H 0.4221 0.2532 0.19154 0.0
C1503 C 0.32347 0.34539 0.13772 0.0
C1504 C 0.34856 0.30081 0.18383 0.0
H1505 H 0.39702 0.28511 0.21944 0.0
C1506 C 0.34123 0.27736 0.17717 0.0
C1507 C 0.36896 0.30364 0.19924 0.0
C1508 C 0.37851 0.32834 0.20607 0.0
C1509 C 0.35397 0.25668 0.18521 0.0
C1510 C 0.37428 0.25954 0.20071 0.0
C1511 C 0.38132 0.28296 0.2077 0.0
C1512 C 0.38976 0.23874 0.20837 0.0
C1513 C 0.34615 0.23206 0.17627 0.0
C1514 C 0.38038 0.21949 0.22217 0.0
C1515 C 0.39553 0.20028 0.2295 0.0
C1516 C 0.42035 0.20022 0.22338 0.0
C1517 C 0.42959 0.21957 0.20961 0.0
C1518 C 0.41447 0.23857 0.20219 0.0
H1519 H 0.33382 0.23344 0.16032 0.0
H1520 H 0.36215 0.22081 0.1712 0.0
H1521 H 0.33627 0.22255 0.19099 0.0
H1522 H 0.36147 0.21947 0.22756 0.0
H1523 H 0.3879 0.18574 0.24025 0.0
H1524 H 0.88557 0.36264 0.7887 0.0
H1525 H 0.85983 0.32938 0.80302 0.0
H1526 H 0.92279 0.2935 0.83334 0.0
H1527 H 0.94857 0.32621 0.81881 0.0
H1528 H 0.89454 0.26237 0.80788 0.0
H1529 H 0.83775 0.31559 0.87211 0.0
H1530 H 0.83768 0.32676 0.84146 0.0
H1531 H 0.86528 0.32742 0.85896 0.0
C1532 C 0.89391 0.34772 0.79852 0.0
C1533 C 0.91917 0.34718 0.80264 0.0
C1534 C 0.87914 0.32876 0.80681 0.0
C1535 C 0.8893 0.30905 0.81957 0.0
C1536 C 0.91449 0.3085 0.82359 0.0
H1537 H 0.82514 0.20041 0.912 0.0
H1538 H 0.84489 0.2358 0.89414 0.0
C1539 C 0.92923 0.32729 0.81525 0.0
C1540 C 0.87405 0.28862 0.82841 0.0
H1541 H 0.82763 0.27427 0.86696 0.0
C1542 C 0.87984 0.265 0.82072 0.0
C1543 C 0.85503 0.29199 0.84538 0.0
C1544 C 0.84863 0.31676 0.85518 0.0
C1545 C 0.86735 0.24469 0.82965 0.0
C1546 C 0.84813 0.24807 0.8464 0.0
C1547 C 0.84221 0.2717 0.85397 0.0
C1548 C 0.83484 0.2272 0.85716 0.0
C1549 C 0.87548 0.21973 0.82171 0.0
C1550 C 0.82212 0.21081 0.8424 0.0
C1551 C 0.81102 0.19037 0.85254 0.0
C1552 C 0.81221 0.18594 0.87771 0.0
C1553 C 0.82421 0.20293 0.89252 0.0
C1554 C 0.83536 0.22331 0.88235 0.0
H1555 H 0.89404 0.21996 0.81379 0.0
H1556 H 0.87536 0.20681 0.83719 0.0
H1557 H 0.86282 0.21291 0.80762 0.0
H1558 H 0.82105 0.21365 0.82297 0.0
H1559 H 0.80212 0.17767 0.84051 0.0
H1560 H 0.09623 0.63795 0.12638 0.0
H1561 H 0.05958 0.65726 0.11011 0.0
H1562 H 0.03825 0.58958 0.07747 0.0
H1563 H 0.0746 0.56987 0.09429 0.0
H1564 H 0.04446 0.66142 0.06122 0.0
H1565 H 0.97767 0.60991 0.1165 0.0
H1566 H 0.00967 0.6105 0.12379 0.0
H1567 H 0.9989 0.5921 0.09918 0.0
C1568 C 0.08365 0.62707 0.11595 0.0
C1569 C 0.0883 0.60229 0.11183 0.0
C1570 C 0.06277 0.63819 0.10652 0.0
C1571 C 0.046 0.62479 0.09287 0.0
C1572 C 0.05074 0.60017 0.0883 0.0
H1573 H 0.90536 0.67725 0.035 0.0
H1574 H 0.94051 0.65102 0.04409 0.0
C1575 C 0.07167 0.58901 0.09771 0.0
C1576 C 0.02374 0.63687 0.08334 0.0
H1577 H 0.96191 0.63894 0.08918 0.0
C1578 C 0.0264 0.6564 0.06721 0.0
C1579 C 1.00017 0.63017 0.09101 0.0
C1580 C 0.99628 0.60965 0.10871 0.0
C1581 C 0.0062 0.66972 0.05892 0.0
C1582 C 0.98271 0.66366 0.06736 0.0
C1583 C 0.97993 0.64357 0.08277 0.0
C1584 C 0.9612 0.67916 0.06191 0.0
C1585 C 0.01023 0.69025 0.04125 0.0
C1586 C 0.96095 0.70346 0.06937 0.0
C1587 C 0.94105 0.7184 0.06423 0.0
C1588 C 0.92073 0.70936 0.05167 0.0
C1589 C 0.92071 0.68481 0.04467 0.0
C1590 C 0.94078 0.66981 0.04982 0.0
H1591 H 0.02735 0.6877 0.03087 0.0
H1592 H 0.99488 0.69193 0.02822 0.0
H1593 H 0.0117 0.70752 0.05147 0.0
H1594 H 0.97621 0.71092 0.07927 0.0
H1595 H 0.94167 0.73712 0.07016 0.0
H1596 H 0.66657 0.87512 0.33489 0.0
H1597 H 0.64616 0.83975 0.31749 0.0
H1598 H 0.6282 0.81477 0.3894 0.0
H1599 H 0.64898 0.84962 0.407 0.0
H1600 H 0.65474 0.78771 0.32734 0.0
H1601 H 0.56199 0.8191 0.35217 0.0
H1602 H 0.58772 0.83928 0.35108 0.0
H1603 H 0.58374 0.81933 0.37656 0.0
C1604 C 0.65853 0.86198 0.34705 0.0
C1605 C 0.65929 0.86541 0.37239 0.0
C1606 C 0.64678 0.84183 0.33704 0.0
C1607 C 0.6354 0.82483 0.35215 0.0
C1608 C 0.6365 0.82791 0.3774 0.0
H1609 H 0.54774 0.69723 0.34002 0.0
H1610 H 0.57206 0.73195 0.35229 0.0
C1611 C 0.64832 0.84794 0.38742 0.0
C1612 C 0.62213 0.80393 0.34166 0.0
H1613 H 0.56574 0.7787 0.33796 0.0
C1614 C 0.63526 0.78577 0.32944 0.0
C1615 C 0.59673 0.80152 0.34442 0.0
C1616 C 0.58161 0.82091 0.35658 0.0
C1617 C 0.62373 0.76476 0.32073 0.0
C1618 C 0.59834 0.76214 0.32389 0.0
C1619 C 0.5852 0.78064 0.33562 0.0
C1620 C 0.58501 0.74005 0.31613 0.0
C1621 C 0.63896 0.74518 0.30904 0.0
C1622 C 0.58428 0.73284 0.29166 0.0
C1623 C 0.57043 0.71276 0.28454 0.0
C1624 C 0.55685 0.69972 0.30175 0.0
C1625 C 0.55791 0.70684 0.32625 0.0
C1626 C 0.57181 0.72675 0.33333 0.0
H1627 H 0.65857 0.74721 0.31341 0.0
H1628 H 0.633 0.7269 0.31497 0.0
H1629 H 0.63687 0.7463 0.28903 0.0
H1630 H 0.59391 0.74309 0.27796 0.0
H1631 H 0.56989 0.70787 0.26551 0.0
H1632 H 0.56773 0.36823 0.54221 0.0
H1633 H 0.53412 0.39491 0.55465 0.0
H1634 H 0.4957 0.33322 0.5832 0.0
H1635 H 0.52901 0.30659 0.57119 0.0
H1636 H 0.484 0.39277 0.54117 0.0
H1637 H 0.49643 0.38094 0.64038 0.0
H1638 H 0.51963 0.37279 0.61867 0.0
H1639 H 0.49452 0.35277 0.6242 0.0
C1640 C 0.55218 0.36038 0.55126 0.0
C1641 C 0.55118 0.33527 0.55585 0.0
C1642 C 0.53298 0.37564 0.55829 0.0
C1643 C 0.51261 0.36608 0.5702 0.0
C1644 C 0.51146 0.34104 0.57449 0.0
H1645 H 0.37407 0.40913 0.62655 0.0
H1646 H 0.41078 0.38868 0.61206 0.0
C1647 C 0.53053 0.32582 0.56747 0.0
C1648 C 0.49221 0.38199 0.57787 0.0
H1649 H 0.45866 0.39816 0.62742 0.0
C1650 C 0.4786 0.39425 0.56004 0.0
C1651 C 0.48526 0.38388 0.60252 0.0
C1652 C 0.49985 0.37209 0.62259 0.0
C1653 C 0.45755 0.40749 0.56613 0.0
C1654 C 0.4502 0.40873 0.59071 0.0
C1655 C 0.46424 0.39704 0.60857 0.0
C1656 C 0.42757 0.42131 0.59833 0.0
C1657 C 0.44283 0.41924 0.54615 0.0
C1658 C 0.42482 0.44648 0.5954 0.0
C1659 C 0.40385 0.45827 0.60378 0.0
C1660 C 0.38534 0.44511 0.6154 0.0
C1661 C 0.3881 0.41986 0.61801 0.0
C1662 C 0.40902 0.40812 0.60963 0.0
H1663 H 0.448 0.41229 0.52793 0.0
H1664 H 0.42311 0.41611 0.54894 0.0
H1665 H 0.44595 0.4391 0.54638 0.0
H1666 H 0.43911 0.45708 0.58714 0.0
H1667 H 0.40246 0.47777 0.60179 0.0
H1668 H 0.18086 0.71208 0.63113 0.0
H1669 H 0.16271 0.74881 0.64837 0.0
H1670 H 0.12682 0.70568 0.70284 0.0
H1671 H 0.14507 0.66889 0.68579 0.0
H1672 H 0.11519 0.75967 0.65129 0.0
H1673 H 0.15492 0.75972 0.74374 0.0
H1674 H 0.16661 0.7408 0.71965 0.0
H1675 H 0.1402 0.73167 0.7365 0.0
C1676 C 0.16918 0.71043 0.64685 0.0
C1677 C 0.16436 0.68757 0.65707 0.0
C1678 C 0.15892 0.73145 0.65676 0.0
C1679 C 0.14367 0.73008 0.67712 0.0
C1680 C 0.13903 0.7073 0.68753 0.0
H1681 H 0.02858 0.82683 0.71749 0.0
H1682 H 0.0549 0.79413 0.70342 0.0
C1683 C 0.1494 0.68626 0.6777 0.0
C1684 C 0.1312 0.75222 0.68626 0.0
H1685 H 0.12038 0.78575 0.73733 0.0
C1686 C 0.11655 0.76549 0.67005 0.0
C1687 C 0.13321 0.76005 0.71066 0.0
C1688 C 0.14978 0.74747 0.72859 0.0
C1689 C 0.1032 0.78581 0.67774 0.0
C1690 C 0.10413 0.79282 0.70242 0.0
C1691 C 0.11948 0.78016 0.71847 0.0
C1692 C 0.08844 0.81256 0.71199 0.0
C1693 C 0.08815 0.79959 0.65933 0.0
C1694 C 0.09856 0.83352 0.72224 0.0
C1695 C 0.08348 0.85237 0.73048 0.0
C1696 C 0.05804 0.85044 0.72871 0.0
C1697 C 0.04806 0.8291 0.71898 0.0
C1698 C 0.06309 0.81037 0.71079 0.0
H1699 H 0.09477 0.79646 0.64054 0.0
H1700 H 0.06905 0.7933 0.66027 0.0
H1701 H 0.08836 0.81938 0.66306 0.0
H1702 H 0.1181 0.83547 0.7235 0.0
H1703 H 0.09176 0.86847 0.73803 0.0
H1704 H 0.44607 0.80694 0.95017 0.0
H1705 H 0.47943 0.83304 0.93767 0.0
H1706 H 0.44447 0.89428 0.9718 0.0
H1707 H 0.41083 0.86817 0.98462 0.0
H1708 H 0.47651 0.87597 0.90834 0.0
H1709 H 0.51471 0.89385 1.00021 0.0
H1710 H 0.49414 0.86911 0.99431 0.0
H1711 H 0.48274 0.89962 0.99619 0.0
C1712 C 0.4454 0.82594 0.95513 0.0
C1713 C 0.42575 0.83543 0.96848 0.0
C1714 C 0.46452 0.84085 0.94791 0.0
C1715 C 0.46457 0.86552 0.95402 0.0
C1716 C 0.44494 0.87519 0.96719 0.0
H1717 H 0.57476 0.97565 0.92464 0.0
H1718 H 0.53885 0.95397 0.93916 0.0
C1719 C 0.42567 0.86027 0.97435 0.0
C1720 C 0.4851 0.88098 0.94613 0.0
H1721 H 0.53411 0.91258 0.96703 0.0
C1722 C 0.48907 0.88405 0.92116 0.0
C1723 C 0.50138 0.89158 0.9629 0.0
C1724 C 0.49826 0.88832 0.98992 0.0
C1725 C 0.50893 0.89737 0.91247 0.0
C1726 C 0.52563 0.90741 0.92921 0.0
C1727 C 0.52137 0.90478 0.95422 0.0
C1728 C 0.54785 0.9203 0.92106 0.0
C1729 C 0.51165 0.90078 0.88541 0.0
C1730 C 0.56515 0.90841 0.90655 0.0
C1731 C 0.58568 0.92073 0.89824 0.0
C1732 C 0.58949 0.94516 0.90449 0.0
C1733 C 0.57248 0.95681 0.91964 0.0
C1734 C 0.55189 0.94448 0.92786 0.0
H1735 H 0.49407 0.89837 0.87578 0.0
H1736 H 0.51882 0.91906 0.88105 0.0
H1737 H 0.52459 0.88702 0.87831 0.0
H1738 H 0.56278 0.88956 0.90162 0.0
H1739 H 0.59864 0.91109 0.887 0.0
H1740 H 0.91366 0.06909 0.41132 0.0
H1741 H 0.94917 0.09095 0.42658 0.0
H1742 H 0.90831 0.15793 0.42471 0.0
H1743 H 0.87271 0.13616 0.40975 0.0
H1744 H 0.97486 0.12698 0.40574 0.0
H1745 H 0.93615 0.16011 0.49236 0.0
H1746 H 0.92153 0.13709 0.47431 0.0
H1747 H 0.91798 0.16868 0.46665 0.0
C1748 C 0.91223 0.08848 0.41422 0.0
C1749 C 0.89031 0.10087 0.40944 0.0
C1750 C 0.93252 0.10093 0.42301 0.0
C1751 C 0.93133 0.12603 0.42723 0.0
C1752 C 0.90951 0.13847 0.42229 0.0
H1753 H 0.02899 0.24216 0.45976 0.0
H1754 H 0.99556 0.2155 0.44863 0.0
C1755 C 0.88917 0.126 0.41367 0.0
C1756 C 0.95314 0.13938 0.43582 0.0
H1757 H 0.97303 0.17883 0.47928 0.0
C1758 C 0.97456 0.13808 0.42199 0.0
C1759 C 0.9528 0.1538 0.45709 0.0
C1760 C 0.93096 0.15483 0.47359 0.0
C1761 C 0.99527 0.1515 0.42833 0.0
C1762 C 0.99462 0.16647 0.44915 0.0
C1763 C 0.97343 0.16739 0.46327 0.0
C1764 C 0.0153 0.18227 0.45592 0.0
C1765 C 0.01744 0.15026 0.41229 0.0
C1766 C 0.03752 0.1724 0.46389 0.0
C1767 C 0.05678 0.18764 0.47039 0.0
C1768 C 0.05414 0.21302 0.46897 0.0
C1769 C 0.03178 0.22274 0.46101 0.0
C1770 C 0.01257 0.20753 0.45467 0.0
H1771 H 0.01363 0.14106 0.39476 0.0
H1772 H 0.02435 0.16877 0.40848 0.0
H1773 H 0.03204 0.14001 0.4218 0.0
H1774 H 0.03988 0.15293 0.46527 0.0
H1775 H 0.07368 0.17954 0.47654 0.0
loop_
_geom_bond_atom_site_label_1
_geom_bond_atom_site_label_2
_geom_bond_distance
_geom_bond_site_symmetry_2
_ccdc_geom_bond_type
Tb0 C9 2.764 . S
Tb0 O10 2.325 . S
Tb0 O13 2.303 . S
Tb0 O17 2.322 . S
Tb0 O18 2.349 . S
Tb0 O21 2.415 . S
Tb0 O22 2.399 . S
Tb1 O11 2.322 . S
Tb1 O12 2.349 . S
Tb1 O14 2.415 . S
Tb1 O15 2.399 . S
Tb1 O16 2.325 . S
Tb1 O19 2.303 . S
Tb1 C30 2.764 . S
C2 O18 1.261 . S
C2 O19 1.257 . S
C3 C6 1.358 . S
C3 C7 1.332 . S
C3 C9 1.504 . S
C4 C5 1.373 . S
C4 C8 1.308 . S
C5 C4 1.373 . S
C5 C6 1.429 . S
C5 H32 0.932 . S
C6 C3 1.358 . S
C6 C5 1.429 . S
C6 H33 0.930 . S
C7 C3 1.332 . S
C7 C8 1.394 . S
C7 H34 0.932 . S
C8 C4 1.308 . S
C8 C7 1.394 . S
C8 H35 0.929 . S
C9 Tb0 2.764 . S
C9 C3 1.504 . S
C9 O21 1.239 . S
C9 O22 1.263 . S
O10 Tb0 2.325 . S
O10 C20 1.236 . S
O11 Tb1 2.322 . S
O11 C20 1.257 . S
O12 Tb1 2.349 . S
O12 C23 1.261 . S
O13 Tb0 2.303 . S
O13 C23 1.257 . S
O14 Tb1 2.415 . S
O14 C30 1.239 . S
O15 Tb1 2.399 . S
O15 C30 1.263 . S
O16 Tb1 2.325 . S
O16 C31 1.236 . S
O17 Tb0 2.322 . S
O17 C31 1.257 . S
O18 Tb0 2.349 . S
O18 C2 1.261 . S
O19 Tb1 2.303 . S
O19 C2 1.257 . S
C20 O10 1.236 . S
C20 O11 1.257 . S
O21 Tb0 2.415 . S
O21 C9 1.239 . S
O22 Tb0 2.399 . S
O22 C9 1.263 . S
C23 O12 1.261 . S
C23 O13 1.257 . S
C24 C27 1.358 . S
C24 C28 1.332 . S
C24 C30 1.504 . S
C25 C26 1.373 . S
C25 C29 1.308 . S
C26 C25 1.373 . S
C26 C27 1.429 . S
C26 H36 0.932 . S
C27 C24 1.358 . S
C27 C26 1.429 . S
C27 H37 0.930 . S
C28 C24 1.332 . S
C28 C29 1.394 . S
C28 H38 0.932 . S
C29 C25 1.308 . S
C29 C28 1.394 . S
C29 H39 0.929 . S
C30 Tb1 2.764 . S
C30 O14 1.239 . S
C30 O15 1.263 . S
C30 C24 1.504 . S
C31 O16 1.236 . S
C31 O17 1.257 . S
H32 C5 0.932 . S
H33 C6 0.930 . S
H34 C7 0.932 . S
H35 C8 0.929 . S
H36 C26 0.932 . S
H37 C27 0.930 . S
H38 C28 0.932 . S
H39 C29 0.929 . S
Tb40 C49 2.764 . S
Tb40 O50 2.325 . S
Tb40 O53 2.303 . S
Tb40 O57 2.322 . S
Tb40 O58 2.349 . S
Tb40 O61 2.415 . S
Tb40 O62 2.399 . S
Tb41 O51 2.324 . S
Tb41 O52 2.349 1_655 S
Tb41 O54 2.415 . S
Tb41 O55 2.399 . S
Tb41 O56 2.325 1_655 S
Tb41 O59 2.303 . S
Tb41 C70 2.764 . S
C42 O58 1.261 1_655 S
C42 O59 1.257 . S
C43 C46 1.358 . S
C43 C47 1.332 . S
C43 C49 1.504 . S
C44 C45 1.373 . S
C44 C48 1.308 . S
C45 C44 1.373 . S
C45 C46 1.429 . S
C45 H72 0.932 . S
C46 C43 1.358 . S
C46 C45 1.429 . S
C46 H73 0.930 . S
C47 C43 1.332 . S
C47 C48 1.394 . S
C47 H74 0.932 . S
C48 C44 1.308 . S
C48 C47 1.394 . S
C48 H75 0.929 . S
C49 Tb40 2.764 . S
C49 C43 1.504 . S
C49 O61 1.239 . S
C49 O62 1.263 . S
O50 Tb40 2.325 . S
O50 C60 1.236 . S
O51 Tb41 2.324 . S
O51 C60 1.251 1_655 S
O52 Tb41 2.349 1_455 S
O52 C63 1.261 . S
O53 Tb40 2.303 . S
O53 C63 1.257 . S
O54 Tb41 2.415 . S
O54 C70 1.239 . S
O55 Tb41 2.399 . S
O55 C70 1.263 . S
O56 Tb41 2.325 1_455 S
O56 C71 1.236 . S
O57 Tb40 2.322 . S
O57 C71 1.257 . S
O58 Tb40 2.349 . S
O58 C42 1.261 1_455 S
O59 Tb41 2.303 . S
O59 C42 1.257 . S
C60 O50 1.236 . S
C60 O51 1.251 1_455 S
O61 Tb40 2.415 . S
O61 C49 1.239 . S
O62 Tb40 2.399 . S
O62 C49 1.263 . S
C63 O52 1.261 . S
C63 O53 1.257 . S
C64 C67 1.358 . S
C64 C68 1.332 . S
C64 C70 1.504 . S
C65 C66 1.373 . S
C65 C69 1.308 . S
C66 C65 1.373 . S
C66 C67 1.429 . S
C66 H76 0.932 . S
C67 C64 1.358 . S
C67 C66 1.429 . S
C67 H77 0.930 . S
C68 C64 1.332 . S
C68 C69 1.394 . S
C68 H78 0.932 . S
C69 C65 1.308 . S
C69 C68 1.394 . S
C69 H79 0.929 . S
C70 Tb41 2.764 . S
C70 O54 1.239 . S
C70 O55 1.263 . S
C70 C64 1.504 . S
C71 O56 1.236 . S
C71 O57 1.257 . S
H72 C45 0.932 . S
H73 C46 0.930 . S
H74 C47 0.932 . S
H75 C48 0.929 . S
H76 C66 0.932 . S
H77 C67 0.930 . S
H78 C68 0.932 . S
H79 C69 0.929 . S
Tb80 C89 2.764 . S
Tb80 O90 2.325 . S
Tb80 O93 2.303 . S
Tb80 O97 2.322 . S
Tb80 O98 2.349 . S
Tb80 O101 2.415 . S
Tb80 O102 2.399 . S
Tb81 O91 2.322 . S
Tb81 O92 2.349 1_554 S
Tb81 O94 2.415 . S
Tb81 O95 2.399 . S
Tb81 O96 2.325 1_554 S
Tb81 O99 2.303 . S
Tb81 C110 2.764 . S
C82 O98 1.261 1_554 S
C82 O99 1.257 . S
C83 C86 1.358 . S
C83 C87 1.332 . S
C83 C89 1.504 . S
C84 C85 1.373 . S
C84 C88 1.308 . S
C85 C84 1.373 . S
C85 C86 1.429 . S
C85 H112 0.932 . S
C86 C83 1.358 . S
C86 C85 1.429 . S
C86 H113 0.930 . S
C87 C83 1.332 . S
C87 C88 1.394 . S
C87 H114 0.932 . S
C88 C84 1.308 . S
C88 C87 1.394 . S
C88 H115 0.929 . S
C89 Tb80 2.764 . S
C89 C83 1.504 . S
C89 O101 1.239 . S
C89 O102 1.263 . S
O90 Tb80 2.325 . S
O90 C100 1.236 1_556 S
O91 Tb81 2.322 . S
O91 C100 1.257 . S
O92 Tb81 2.349 1_556 S
O92 C103 1.261 . S
O93 Tb80 2.303 . S
O93 C103 1.257 . S
O94 Tb81 2.415 . S
O94 C110 1.239 . S
O95 Tb81 2.399 . S
O95 C110 1.263 . S
O96 Tb81 2.325 1_556 S
O96 C111 1.236 . S
O97 Tb80 2.322 . S
O97 C111 1.257 . S
O98 Tb80 2.349 . S
O98 C82 1.261 1_556 S
O99 Tb81 2.303 . S
O99 C82 1.257 . S
C100 O90 1.236 1_554 S
C100 O91 1.257 . S
O101 Tb80 2.415 . S
O101 C89 1.239 . S
O102 Tb80 2.399 . S
O102 C89 1.263 . S
C103 O92 1.261 . S
C103 O93 1.257 . S
C104 C107 1.358 . S
C104 C108 1.332 . S
C104 C110 1.504 . S
C105 C106 1.373 . S
C105 C109 1.308 . S
C106 C105 1.373 . S
C106 C107 1.429 . S
C106 H116 0.932 . S
C107 C104 1.358 . S
C107 C106 1.429 . S
C107 H117 0.930 . S
C108 C104 1.332 . S
C108 C109 1.394 . S
C108 H118 0.932 . S
C109 C105 1.308 . S
C109 C108 1.394 . S
C109 H119 0.929 . S
C110 Tb81 2.764 . S
C110 O94 1.239 . S
C110 O95 1.263 . S
C110 C104 1.504 . S
C111 O96 1.236 . S
C111 O97 1.257 . S
H112 C85 0.932 . S
H113 C86 0.930 . S
H114 C87 0.932 . S
H115 C88 0.929 . S
H116 C106 0.932 . S
H117 C107 0.930 . S
H118 C108 0.932 . S
H119 C109 0.929 . S
Tb120 C129 2.764 . S
Tb120 O130 2.325 . S
Tb120 O133 2.303 . S
Tb120 O137 2.322 . S
Tb120 O138 2.349 . S
Tb120 O141 2.415 . S
Tb120 O142 2.399 . S
Tb121 O131 2.322 . S
Tb121 O132 2.349 . S
Tb121 O134 2.415 . S
Tb121 O135 2.399 . S
Tb121 O136 2.325 . S
Tb121 O139 2.303 . S
Tb121 C150 2.764 . S
C122 O138 1.261 . S
C122 O139 1.257 . S
C123 C126 1.358 . S
C123 C127 1.332 . S
C123 C129 1.504 . S
C124 C125 1.373 . S
C124 C128 1.308 . S
C125 C124 1.373 . S
C125 C126 1.429 . S
C125 H152 0.932 . S
C126 C123 1.358 . S
C126 C125 1.429 . S
C126 H153 0.930 . S
C127 C123 1.332 . S
C127 C128 1.394 . S
C127 H154 0.932 . S
C128 C124 1.308 . S
C128 C127 1.394 . S
C128 H155 0.929 . S
C129 Tb120 2.764 . S
C129 C123 1.504 . S
C129 O141 1.239 . S
C129 O142 1.263 . S
O130 Tb120 2.325 . S
O130 C140 1.236 . S
O131 Tb121 2.322 . S
O131 C140 1.257 . S
O132 Tb121 2.349 . S
O132 C143 1.261 . S
O133 Tb120 2.303 . S
O133 C143 1.257 . S
O134 Tb121 2.415 . S
O134 C150 1.239 . S
O135 Tb121 2.399 . S
O135 C150 1.263 . S
O136 Tb121 2.325 . S
O136 C151 1.236 . S
O137 Tb120 2.322 . S
O137 C151 1.257 . S
O138 Tb120 2.349 . S
O138 C122 1.261 . S
O139 Tb121 2.303 . S
O139 C122 1.257 . S
C140 O130 1.236 . S
C140 O131 1.257 . S
O141 Tb120 2.415 . S
O141 C129 1.239 . S
O142 Tb120 2.399 . S
O142 C129 1.263 . S
C143 O132 1.261 . S
C143 O133 1.257 . S
C144 C147 1.358 . S
C144 C148 1.332 . S
C144 C150 1.504 . S
C145 C146 1.373 . S
C145 C149 1.308 . S
C146 C145 1.373 . S
C146 C147 1.429 . S
C146 H156 0.932 . S
C147 C144 1.358 . S
C147 C146 1.429 . S
C147 H157 0.930 . S
C148 C144 1.332 . S
C148 C149 1.394 . S
C148 H158 0.932 . S
C149 C145 1.308 . S
C149 C148 1.394 . S
C149 H159 0.929 . S
C150 Tb121 2.764 . S
C150 O134 1.239 . S
C150 O135 1.263 . S
C150 C144 1.504 . S
C151 O136 1.236 . S
C151 O137 1.257 . S
H152 C125 0.932 . S
H153 C126 0.930 . S
H154 C127 0.932 . S
H155 C128 0.929 . S
H156 C146 0.932 . S
H157 C147 0.930 . S
H158 C148 0.932 . S
H159 C149 0.929 . S
Tb160 C169 2.764 . S
Tb160 O170 2.325 . S
Tb160 O173 2.303 . S
Tb160 O177 2.322 . S
Tb160 O178 2.349 . S
Tb160 O181 2.415 . S
Tb160 O182 2.399 . S
Tb161 O171 2.322 . S
Tb161 O172 2.349 . S
Tb161 O174 2.415 . S
Tb161 O175 2.399 . S
Tb161 O176 2.325 . S
Tb161 O179 2.303 . S
Tb161 C190 2.764 . S
C162 O178 1.261 . S
C162 O179 1.257 . S
C163 C166 1.358 . S
C163 C167 1.332 . S
C163 C169 1.504 . S
C164 C165 1.373 . S
C164 C168 1.308 . S
C165 C164 1.373 . S
C165 C166 1.429 . S
C165 H192 0.932 . S
C166 C163 1.358 . S
C166 C165 1.429 . S
C166 H193 0.930 . S
C167 C163 1.332 . S
C167 C168 1.394 . S
C167 H194 0.932 . S
C168 C164 1.308 . S
C168 C167 1.394 . S
C168 H195 0.929 . S
C169 Tb160 2.764 . S
C169 C163 1.504 . S
C169 O181 1.239 . S
C169 O182 1.263 . S
O170 Tb160 2.325 . S
O170 C180 1.236 . S
O171 Tb161 2.322 . S
O171 C180 1.257 . S
O172 Tb161 2.349 . S
O172 C183 1.261 . S
O173 Tb160 2.303 . S
O173 C183 1.257 . S
O174 Tb161 2.415 . S
O174 C190 1.239 . S
O175 Tb161 2.399 . S
O175 C190 1.263 . S
O176 Tb161 2.325 . S
O176 C191 1.236 . S
O177 Tb160 2.322 . S
O177 C191 1.257 . S
O178 Tb160 2.349 . S
O178 C162 1.261 . S
O179 Tb161 2.303 . S
O179 C162 1.257 . S
C180 O170 1.236 . S
C180 O171 1.257 . S
O181 Tb160 2.415 . S
O181 C169 1.239 . S
O182 Tb160 2.399 . S
O182 C169 1.263 . S
C183 O172 1.261 . S
C183 O173 1.257 . S
C184 C187 1.358 . S
C184 C188 1.332 . S
C184 C190 1.504 . S
C185 C186 1.373 . S
C185 C189 1.308 . S
C186 C185 1.373 . S
C186 C187 1.429 . S
C186 H196 0.932 . S
C187 C184 1.358 . S
C187 C186 1.429 . S
C187 H197 0.930 . S
C188 C184 1.332 . S
C188 C189 1.394 . S
C188 H198 0.932 . S
C189 C185 1.308 . S
C189 C188 1.394 . S
C189 H199 0.929 . S
C190 Tb161 2.764 . S
C190 O174 1.239 . S
C190 O175 1.263 . S
C190 C184 1.504 . S
C191 O176 1.236 . S
C191 O177 1.257 . S
H192 C165 0.932 . S
H193 C166 0.930 . S
H194 C167 0.932 . S
H195 C168 0.929 . S
H196 C186 0.932 . S
H197 C187 0.930 . S
H198 C188 0.932 . S
H199 C189 0.929 . S
Tb200 C209 2.764 1_655 S
Tb200 O210 2.325 1_655 S
Tb200 O213 2.303 . S
Tb200 O217 2.322 . S
Tb200 O218 2.349 1_655 S
Tb200 O221 2.415 1_655 S
Tb200 O222 2.399 1_655 S
Tb201 O211 2.322 . S
Tb201 O212 2.349 . S
Tb201 O214 2.415 . S
Tb201 O215 2.399 . S
Tb201 O216 2.325 . S
Tb201 O219 2.303 . S
Tb201 C230 2.764 . S
C202 O218 1.261 1_655 S
C202 O219 1.257 . S
C203 C206 1.358 . S
C203 C207 1.332 . S
C203 C209 1.504 . S
C204 C205 1.373 . S
C204 C208 1.308 . S
C205 C204 1.373 . S
C205 C206 1.429 . S
C205 H232 0.932 . S
C206 C203 1.358 . S
C206 C205 1.429 . S
C206 H233 0.930 . S
C207 C203 1.332 . S
C207 C208 1.394 . S
C207 H234 0.932 . S
C208 C204 1.308 . S
C208 C207 1.394 . S
C208 H235 0.929 . S
C209 Tb200 2.764 1_455 S
C209 C203 1.504 . S
C209 O221 1.239 . S
C209 O222 1.263 . S
O210 Tb200 2.325 1_455 S
O210 C220 1.236 1_455 S
O211 Tb201 2.322 . S
O211 C220 1.257 . S
O212 Tb201 2.349 . S
O212 C223 1.261 . S
O213 Tb200 2.303 . S
O213 C223 1.257 . S
O214 Tb201 2.415 . S
O214 C230 1.239 . S
O215 Tb201 2.399 . S
O215 C230 1.263 . S
O216 Tb201 2.325 . S
O216 C231 1.236 . S
O217 Tb200 2.322 . S
O217 C231 1.257 . S
O218 Tb200 2.349 1_455 S
O218 C202 1.261 1_455 S
O219 Tb201 2.303 . S
O219 C202 1.257 . S
C220 O210 1.236 1_655 S
C220 O211 1.257 . S
O221 Tb200 2.415 1_455 S
O221 C209 1.239 . S
O222 Tb200 2.399 1_455 S
O222 C209 1.263 . S
C223 O212 1.261 . S
C223 O213 1.257 . S
C224 C227 1.358 . S
C224 C228 1.332 . S
C224 C230 1.504 . S
C225 C226 1.373 . S
C225 C229 1.308 . S
C226 C225 1.373 . S
C226 C227 1.429 . S
C226 H236 0.932 . S
C227 C224 1.358 . S
C227 C226 1.429 . S
C227 H237 0.930 . S
C228 C224 1.332 . S
C228 C229 1.394 . S
C228 H238 0.932 . S
C229 C225 1.308 . S
C229 C228 1.394 . S
C229 H239 0.929 . S
C230 Tb201 2.764 . S
C230 O214 1.239 . S
C230 O215 1.263 . S
C230 C224 1.504 . S
C231 O216 1.236 . S
C231 O217 1.257 . S
H232 C205 0.932 . S
H233 C206 0.930 . S
H234 C207 0.932 . S
H235 C208 0.929 . S
H236 C226 0.932 . S
H237 C227 0.930 . S
H238 C228 0.932 . S
H239 C229 0.929 . S
Tb240 C249 2.764 . S
Tb240 O250 2.325 . S
Tb240 O253 2.303 1_556 S
Tb240 O257 2.322 1_556 S
Tb240 O258 2.349 . S
Tb240 O261 2.415 . S
Tb240 O262 2.399 . S
Tb241 O251 2.322 . S
Tb241 O252 2.349 . S
Tb241 O254 2.415 . S
Tb241 O255 2.399 . S
Tb241 O256 2.325 . S
Tb241 O259 2.303 . S
Tb241 C270 2.764 . S
C242 O258 1.261 . S
C242 O259 1.257 1_556 S
C243 C246 1.358 . S
C243 C247 1.332 . S
C243 C249 1.504 . S
C244 C245 1.373 . S
C244 C248 1.308 . S
C245 C244 1.373 . S
C245 C246 1.429 . S
C245 H272 0.932 . S
C246 C243 1.358 . S
C246 C245 1.429 . S
C246 H273 0.930 . S
C247 C243 1.332 . S
C247 C248 1.394 . S
C247 H274 0.932 . S
C248 C244 1.308 . S
C248 C247 1.394 . S
C248 H275 0.929 . S
C249 Tb240 2.764 . S
C249 C243 1.504 . S
C249 O261 1.239 . S
C249 O262 1.263 . S
O250 Tb240 2.325 . S
O250 C260 1.236 . S
O251 Tb241 2.322 . S
O251 C260 1.257 1_554 S
O252 Tb241 2.349 . S
O252 C263 1.261 . S
O253 Tb240 2.303 1_554 S
O253 C263 1.257 . S
O254 Tb241 2.415 . S
O254 C270 1.239 . S
O255 Tb241 2.399 . S
O255 C270 1.263 . S
O256 Tb241 2.325 . S
O256 C271 1.236 . S
O257 Tb240 2.322 1_554 S
O257 C271 1.257 . S
O258 Tb240 2.349 . S
O258 C242 1.261 . S
O259 Tb241 2.303 . S
O259 C242 1.257 1_554 S
C260 O250 1.236 . S
C260 O251 1.257 1_556 S
O261 Tb240 2.415 . S
O261 C249 1.239 . S
O262 Tb240 2.399 . S
O262 C249 1.263 . S
C263 O252 1.261 . S
C263 O253 1.257 . S
C264 C267 1.358 . S
C264 C268 1.332 . S
C264 C270 1.504 . S
C265 C266 1.373 . S
C265 C269 1.308 . S
C266 C265 1.373 . S
C266 C267 1.429 . S
C266 H276 0.932 . S
C267 C264 1.358 . S
C267 C266 1.429 . S
C267 H277 0.930 . S
C268 C264 1.332 . S
C268 C269 1.394 . S
C268 H278 0.932 . S
C269 C265 1.308 . S
C269 C268 1.394 . S
C269 H279 0.929 . S
C270 Tb241 2.764 . S
C270 O254 1.239 . S
C270 O255 1.263 . S
C270 C264 1.504 . S
C271 O256 1.236 . S
C271 O257 1.257 . S
H272 C245 0.932 . S
H273 C246 0.930 . S
H274 C247 0.932 . S
H275 C248 0.929 . S
H276 C266 0.932 . S
H277 C267 0.930 . S
H278 C268 0.932 . S
H279 C269 0.929 . S
Tb280 C289 2.764 . S
Tb280 O290 2.325 . S
Tb280 O293 2.303 . S
Tb280 O297 2.322 . S
Tb280 O298 2.349 . S
Tb280 O301 2.415 . S
Tb280 O302 2.399 . S
Tb281 O291 2.322 . S
Tb281 O292 2.349 . S
Tb281 O294 2.415 . S
Tb281 O295 2.399 . S
Tb281 O296 2.325 . S
Tb281 O299 2.303 . S
Tb281 C310 2.764 . S
C282 O298 1.261 . S
C282 O299 1.257 . S
C283 C286 1.358 . S
C283 C287 1.332 . S
C283 C289 1.504 . S
C284 C285 1.373 . S
C284 C288 1.308 . S
C285 C284 1.373 . S
C285 C286 1.429 . S
C285 H312 0.932 . S
C286 C283 1.358 . S
C286 C285 1.429 . S
C286 H313 0.930 . S
C287 C283 1.332 . S
C287 C288 1.394 . S
C287 H314 0.932 . S
C288 C284 1.308 . S
C288 C287 1.394 . S
C288 H315 0.929 . S
C289 Tb280 2.764 . S
C289 C283 1.504 . S
C289 O301 1.239 . S
C289 O302 1.263 . S
O290 Tb280 2.325 . S
O290 C300 1.236 . S
O291 Tb281 2.322 . S
O291 C300 1.257 . S
O292 Tb281 2.349 . S
O292 C303 1.261 . S
O293 Tb280 2.303 . S
O293 C303 1.257 . S
O294 Tb281 2.415 . S
O294 C310 1.239 . S
O295 Tb281 2.399 . S
O295 C310 1.263 . S
O296 Tb281 2.325 . S
O296 C311 1.236 . S
O297 Tb280 2.322 . S
O297 C311 1.257 . S
O298 Tb280 2.349 . S
O298 C282 1.261 . S
O299 Tb281 2.303 . S
O299 C282 1.257 . S
C300 O290 1.236 . S
C300 O291 1.257 . S
O301 Tb280 2.415 . S
O301 C289 1.239 . S
O302 Tb280 2.399 . S
O302 C289 1.263 . S
C303 O292 1.261 . S
C303 O293 1.257 . S
C304 C307 1.358 . S
C304 C308 1.332 . S
C304 C310 1.504 . S
C305 C306 1.373 . S
C305 C309 1.308 . S
C306 C305 1.373 . S
C306 C307 1.429 . S
C306 H316 0.932 . S
C307 C304 1.358 . S
C307 C306 1.429 . S
C307 H317 0.930 . S
C308 C304 1.332 . S
C308 C309 1.394 . S
C308 H318 0.932 . S
C309 C305 1.308 . S
C309 C308 1.394 . S
C309 H319 0.929 . S
C310 Tb281 2.764 . S
C310 O294 1.239 . S
C310 O295 1.263 . S
C310 C304 1.504 . S
C311 O296 1.236 . S
C311 O297 1.257 . S
H312 C285 0.932 . S
H313 C286 0.930 . S
H314 C287 0.932 . S
H315 C288 0.929 . S
H316 C306 0.932 . S
H317 C307 0.930 . S
H318 C308 0.932 . S
H319 C309 0.929 . S
Tb320 C329 2.764 . S
Tb320 O330 2.325 . S
Tb320 O333 2.303 . S
Tb320 O337 2.322 . S
Tb320 O338 2.349 . S
Tb320 O341 2.415 . S
Tb320 O342 2.399 . S
Tb321 O331 2.322 . S
Tb321 O332 2.349 . S
Tb321 O334 2.415 . S
Tb321 O335 2.399 . S
Tb321 O336 2.325 . S
Tb321 O339 2.303 . S
Tb321 C350 2.764 . S
C322 O338 1.261 . S
C322 O339 1.257 . S
C323 C326 1.358 . S
C323 C327 1.332 . S
C323 C329 1.504 . S
C324 C325 1.373 . S
C324 C328 1.308 . S
C325 C324 1.373 . S
C325 C326 1.429 . S
C325 H352 0.932 . S
C326 C323 1.358 . S
C326 C325 1.429 . S
C326 H353 0.930 . S
C327 C323 1.332 . S
C327 C328 1.394 . S
C327 H354 0.932 . S
C328 C324 1.308 . S
C328 C327 1.394 . S
C328 H355 0.929 . S
C329 Tb320 2.764 . S
C329 C323 1.504 . S
C329 O341 1.239 . S
C329 O342 1.263 . S
O330 Tb320 2.325 . S
O330 C340 1.236 . S
O331 Tb321 2.322 . S
O331 C340 1.257 . S
O332 Tb321 2.349 . S
O332 C343 1.261 . S
O333 Tb320 2.303 . S
O333 C343 1.257 . S
O334 Tb321 2.415 . S
O334 C350 1.239 . S
O335 Tb321 2.399 . S
O335 C350 1.263 . S
O336 Tb321 2.325 . S
O336 C351 1.236 . S
O337 Tb320 2.322 . S
O337 C351 1.257 . S
O338 Tb320 2.349 . S
O338 C322 1.261 . S
O339 Tb321 2.303 . S
O339 C322 1.257 . S
C340 O330 1.236 . S
C340 O331 1.257 . S
O341 Tb320 2.415 . S
O341 C329 1.239 . S
O342 Tb320 2.399 . S
O342 C329 1.263 . S
C343 O332 1.261 . S
C343 O333 1.257 . S
C344 C347 1.358 . S
C344 C348 1.332 . S
C344 C350 1.504 . S
C345 C346 1.373 . S
C345 C349 1.308 . S
C346 C345 1.373 . S
C346 C347 1.429 . S
C346 H356 0.932 . S
C347 C344 1.358 . S
C347 C346 1.429 . S
C347 H357 0.930 . S
C348 C344 1.332 . S
C348 C349 1.394 . S
C348 H358 0.932 . S
C349 C345 1.308 . S
C349 C348 1.394 . S
C349 H359 0.929 . S
C350 Tb321 2.764 . S
C350 O334 1.239 . S
C350 O335 1.263 . S
C350 C344 1.504 . S
C351 O336 1.236 . S
C351 O337 1.257 . S
H352 C325 0.932 . S
H353 C326 0.930 . S
H354 C327 0.932 . S
H355 C328 0.929 . S
H356 C346 0.932 . S
H357 C347 0.930 . S
H358 C348 0.932 . S
H359 C349 0.929 . S
Tb360 C369 2.764 . S
Tb360 O370 2.325 . S
Tb360 O373 2.303 . S
Tb360 O377 2.322 . S
Tb360 O378 2.349 . S
Tb360 O381 2.415 . S
Tb360 O382 2.399 . S
Tb361 O371 2.322 . S
Tb361 O372 2.349 . S
Tb361 O374 2.415 1_545 S
Tb361 O375 2.399 1_545 S
Tb361 O376 2.325 . S
Tb361 O379 2.303 . S
Tb361 C390 2.764 1_545 S
C362 O378 1.261 . S
C362 O379 1.257 . S
C363 C366 1.358 . S
C363 C367 1.332 . S
C363 C369 1.504 . S
C364 C365 1.373 . S
C364 C368 1.308 . S
C365 C364 1.373 . S
C365 C366 1.429 . S
C365 H392 0.932 . S
C366 C363 1.358 . S
C366 C365 1.429 . S
C366 H393 0.930 . S
C367 C363 1.332 . S
C367 C368 1.394 . S
C367 H394 0.932 . S
C368 C364 1.308 . S
C368 C367 1.394 . S
C368 H395 0.929 . S
C369 Tb360 2.764 . S
C369 C363 1.504 . S
C369 O381 1.239 . S
C369 O382 1.263 . S
O370 Tb360 2.325 . S
O370 C380 1.236 . S
O371 Tb361 2.322 . S
O371 C380 1.257 . S
O372 Tb361 2.349 . S
O372 C383 1.261 . S
O373 Tb360 2.303 . S
O373 C383 1.257 . S
O374 Tb361 2.415 1_565 S
O374 C390 1.239 . S
O375 Tb361 2.399 1_565 S
O375 C390 1.263 . S
O376 Tb361 2.325 . S
O376 C391 1.236 . S
O377 Tb360 2.322 . S
O377 C391 1.257 . S
O378 Tb360 2.349 . S
O378 C362 1.261 . S
O379 Tb361 2.303 . S
O379 C362 1.257 . S
C380 O370 1.236 . S
C380 O371 1.257 . S
O381 Tb360 2.415 . S
O381 C369 1.239 . S
O382 Tb360 2.399 . S
O382 C369 1.263 . S
C383 O372 1.261 . S
C383 O373 1.257 . S
C384 C387 1.358 . S
C384 C388 1.332 . S
C384 C390 1.504 . S
C385 C386 1.373 . S
C385 C389 1.308 . S
C386 C385 1.373 . S
C386 C387 1.429 . S
C386 H396 0.932 . S
C387 C384 1.358 . S
C387 C386 1.429 . S
C387 H397 0.930 . S
C388 C384 1.332 . S
C388 C389 1.394 . S
C388 H398 0.932 . S
C389 C385 1.308 . S
C389 C388 1.394 . S
C389 H399 0.929 . S
C390 Tb361 2.764 1_565 S
C390 O374 1.239 . S
C390 O375 1.263 . S
C390 C384 1.504 . S
C391 O376 1.236 . S
C391 O377 1.257 . S
H392 C365 0.932 . S
H393 C366 0.930 . S
H394 C367 0.932 . S
H395 C368 0.929 . S
H396 C386 0.932 . S
H397 C387 0.930 . S
H398 C388 0.932 . S
H399 C389 0.929 . S
Tb400 C409 2.764 . S
Tb400 O410 2.325 . S
Tb400 O413 2.303 . S
Tb400 O417 2.322 . S
Tb400 O418 2.349 . S
Tb400 O421 2.415 . S
Tb400 O422 2.399 . S
Tb401 O411 2.322 . S
Tb401 O412 2.349 1_545 S
Tb401 O414 2.415 . S
Tb401 O415 2.399 . S
Tb401 O416 2.325 1_545 S
Tb401 O419 2.303 . S
Tb401 C430 2.764 . S
C402 O418 1.261 1_545 S
C402 O419 1.257 . S
C403 C406 1.358 . S
C403 C407 1.332 . S
C403 C409 1.504 . S
C404 C405 1.373 . S
C404 C408 1.308 . S
C405 C404 1.373 . S
C405 C406 1.429 . S
C405 H432 0.932 . S
C406 C403 1.358 . S
C406 C405 1.429 . S
C406 H433 0.930 . S
C407 C403 1.332 . S
C407 C408 1.394 . S
C407 H434 0.932 . S
C408 C404 1.308 . S
C408 C407 1.394 . S
C408 H435 0.929 . S
C409 Tb400 2.764 . S
C409 C403 1.504 . S
C409 O421 1.239 . S
C409 O422 1.263 . S
O410 Tb400 2.325 . S
O410 C420 1.236 . S
O411 Tb401 2.322 . S
O411 C420 1.257 1_545 S
O412 Tb401 2.349 1_565 S
O412 C423 1.261 . S
O413 Tb400 2.303 . S
O413 C423 1.257 . S
O414 Tb401 2.415 . S
O414 C430 1.239 . S
O415 Tb401 2.399 . S
O415 C430 1.263 . S
O416 Tb401 2.325 1_565 S
O416 C431 1.236 . S
O417 Tb400 2.322 . S
O417 C431 1.257 . S
O418 Tb400 2.349 . S
O418 C402 1.261 1_565 S
O419 Tb401 2.303 . S
O419 C402 1.257 . S
C420 O410 1.236 . S
C420 O411 1.257 1_565 S
O421 Tb400 2.415 . S
O421 C409 1.239 . S
O422 Tb400 2.399 . S
O422 C409 1.263 . S
C423 O412 1.261 . S
C423 O413 1.257 . S
C424 C427 1.358 . S
C424 C428 1.332 . S
C424 C430 1.504 . S
C425 C426 1.373 . S
C425 C429 1.308 . S
C426 C425 1.373 . S
C426 C427 1.429 . S
C426 H436 0.932 . S
C427 C424 1.358 . S
C427 C426 1.429 . S
C427 H437 0.930 . S
C428 C424 1.332 . S
C428 C429 1.394 . S
C428 H438 0.932 . S
C429 C425 1.308 . S
C429 C428 1.394 . S
C429 H439 0.929 . S
C430 Tb401 2.764 . S
C430 O414 1.239 . S
C430 O415 1.263 . S
C430 C424 1.504 . S
C431 O416 1.236 . S
C431 O417 1.257 . S
H432 C405 0.932 . S
H433 C406 0.930 . S
H434 C407 0.932 . S
H435 C408 0.929 . S
H436 C426 0.932 . S
H437 C427 0.930 . S
H438 C428 0.932 . S
H439 C429 0.929 . S
Tb440 C449 2.764 . S
Tb440 O450 2.325 . S
Tb440 O453 2.303 . S
Tb440 O457 2.322 . S
Tb440 O458 2.349 . S
Tb440 O461 2.415 . S
Tb440 O462 2.399 . S
Tb441 O451 2.322 . S
Tb441 O452 2.349 . S
Tb441 O454 2.415 . S
Tb441 O455 2.399 . S
Tb441 O456 2.325 . S
Tb441 O459 2.303 . S
Tb441 C470 2.764 . S
C442 O458 1.261 . S
C442 O459 1.257 . S
C443 C446 1.358 . S
C443 C447 1.332 . S
C443 C449 1.504 . S
C444 C445 1.373 . S
C444 C448 1.308 . S
C445 C444 1.373 . S
C445 C446 1.429 . S
C445 H472 0.932 . S
C446 C443 1.358 . S
C446 C445 1.429 . S
C446 H473 0.930 . S
C447 C443 1.332 . S
C447 C448 1.394 . S
C447 H474 0.932 . S
C448 C444 1.308 . S
C448 C447 1.394 . S
C448 H475 0.929 . S
C449 Tb440 2.764 . S
C449 C443 1.504 . S
C449 O461 1.239 . S
C449 O462 1.263 . S
O450 Tb440 2.325 . S
O450 C460 1.236 . S
O451 Tb441 2.322 . S
O451 C460 1.257 . S
O452 Tb441 2.349 . S
O452 C463 1.261 . S
O453 Tb440 2.303 . S
O453 C463 1.257 . S
O454 Tb441 2.415 . S
O454 C470 1.239 . S
O455 Tb441 2.399 . S
O455 C470 1.263 . S
O456 Tb441 2.325 . S
O456 C471 1.236 . S
O457 Tb440 2.322 . S
O457 C471 1.257 . S
O458 Tb440 2.349 . S
O458 C442 1.261 . S
O459 Tb441 2.303 . S
O459 C442 1.257 . S
C460 O450 1.236 . S
C460 O451 1.257 . S
O461 Tb440 2.415 . S
O461 C449 1.239 . S
O462 Tb440 2.399 . S
O462 C449 1.263 . S
C463 O452 1.261 . S
C463 O453 1.257 . S
C464 C467 1.358 . S
C464 C468 1.332 . S
C464 C470 1.504 . S
C465 C466 1.373 . S
C465 C469 1.308 . S
C466 C465 1.373 . S
C466 C467 1.429 . S
C466 H476 0.932 . S
C467 C464 1.358 . S
C467 C466 1.429 . S
C467 H477 0.930 . S
C468 C464 1.332 . S
C468 C469 1.394 . S
C468 H478 0.932 . S
C469 C465 1.308 . S
C469 C468 1.394 . S
C469 H479 0.929 . S
C470 Tb441 2.764 . S
C470 O454 1.239 . S
C470 O455 1.263 . S
C470 C464 1.504 . S
C471 O456 1.236 . S
C471 O457 1.257 . S
H472 C445 0.932 . S
H473 C446 0.930 . S
H474 C447 0.932 . S
H475 C448 0.929 . S
H476 C466 0.932 . S
H477 C467 0.930 . S
H478 C468 0.932 . S
H479 C469 0.929 . S
H480 C488 0.929 . S
H481 C490 0.930 . S
H482 C492 0.930 . S
H483 C495 0.929 . S
H484 C498 0.930 . S
H485 C500 0.960 . S
H486 C500 0.960 . S
H487 C500 0.960 . S
C488 H480 0.929 . S
C488 C489 1.377 . S
C488 C490 1.384 . S
C489 C488 1.377 . S
C489 C495 1.390 . S
C490 H481 0.930 . S
C490 C488 1.384 . S
C490 C491 1.372 . S
C491 C490 1.372 . S
C491 C492 1.400 . S
C491 C496 1.490 . S
C492 H482 0.930 . S
C492 C491 1.400 . S
C492 C495 1.386 . S
H493 C509 0.930 . S
H494 C510 0.931 . S
C495 H483 0.929 . S
C495 C489 1.390 . S
C495 C492 1.386 . S
C496 C491 1.490 . S
C496 C498 1.395 . S
C496 C499 1.403 . S
H497 C503 0.930 . S
C498 H484 0.930 . S
C498 C496 1.395 . S
C498 C501 1.403 . S
C499 C496 1.403 . S
C499 C500 1.524 . S
C499 C503 1.400 . S
C500 H485 0.960 . S
C500 H486 0.960 . S
C500 H487 0.960 . S
C500 C499 1.524 . S
C501 C498 1.403 . S
C501 C502 1.392 . S
C501 C505 1.495 . S
C502 C501 1.392 . S
C502 C503 1.385 . S
C502 C504 1.478 . S
C503 H497 0.930 . S
C503 C499 1.400 . S
C503 C502 1.385 . S
C504 C502 1.478 . S
C504 C506 1.381 . S
C504 C510 1.383 . S
C505 C501 1.495 . S
C505 H511 0.959 . S
C505 H512 0.961 . S
C505 H513 0.960 . S
C506 C504 1.381 . S
C506 C507 1.394 . S
C506 H514 0.930 . S
C507 C506 1.394 . S
C507 C508 1.383 . S
C507 H515 0.929 . S
C508 C507 1.383 . S
C508 C509 1.377 . S
C509 H493 0.930 . S
C509 C508 1.377 . S
C509 C510 1.379 . S
C510 H494 0.931 . S
C510 C504 1.383 . S
C510 C509 1.379 . S
H511 C505 0.959 . S
H512 C505 0.961 . S
H513 C505 0.960 . S
H514 C506 0.930 . S
H515 C507 0.929 . S
H516 C524 0.929 1_565 S
H517 C526 0.930 . S
H518 C528 0.930 . S
H519 C531 0.929 . S
H520 C534 0.930 . S
H521 C536 0.960 . S
H522 C536 0.960 . S
H523 C536 0.960 . S
C524 H516 0.929 1_545 S
C524 C525 1.377 . S
C524 C526 1.384 1_545 S
C525 C524 1.377 . S
C525 C531 1.390 . S
C526 H517 0.930 . S
C526 C524 1.384 1_565 S
C526 C527 1.372 1_565 S
C527 C526 1.372 1_545 S
C527 C528 1.400 . S
C527 C532 1.490 1_545 S
C528 H518 0.930 . S
C528 C527 1.400 . S
C528 C531 1.386 . S
H529 C545 0.930 . S
H530 C546 0.931 . S
C531 H519 0.929 . S
C531 C525 1.390 . S
C531 C528 1.386 . S
C532 C527 1.490 1_565 S
C532 C534 1.395 . S
C532 C535 1.403 1_565 S
H533 C539 0.930 . S
C534 H520 0.930 . S
C534 C532 1.395 . S
C534 C537 1.403 . S
C535 C532 1.403 1_545 S
C535 C536 1.524 . S
C535 C539 1.400 . S
C536 H521 0.960 . S
C536 H522 0.960 . S
C536 H523 0.960 . S
C536 C535 1.524 . S
C537 C534 1.403 . S
C537 C538 1.392 . S
C537 C541 1.495 . S
C538 C537 1.392 . S
C538 C539 1.385 1_565 S
C538 C540 1.478 . S
C539 H533 0.930 . S
C539 C535 1.400 . S
C539 C538 1.385 1_545 S
C540 C538 1.478 . S
C540 C542 1.381 . S
C540 C546 1.383 . S
C541 C537 1.495 . S
C541 H547 0.959 . S
C541 H548 0.961 . S
C541 H549 0.960 . S
C542 C540 1.381 . S
C542 C543 1.394 . S
C542 H550 0.930 . S
C543 C542 1.394 . S
C543 C544 1.383 . S
C543 H551 0.929 . S
C544 C543 1.383 . S
C544 C545 1.377 . S
C545 H529 0.930 . S
C545 C544 1.377 . S
C545 C546 1.379 . S
C546 H530 0.931 . S
C546 C540 1.383 . S
C546 C545 1.379 . S
H547 C541 0.959 . S
H548 C541 0.961 . S
H549 C541 0.960 . S
H550 C542 0.930 . S
H551 C543 0.929 . S
H552 C560 0.929 . S
H553 C562 0.930 . S
H554 C564 0.930 . S
H555 C567 0.929 . S
H556 C570 0.930 . S
H557 C572 0.960 . S
H558 C572 0.960 . S
H559 C572 0.960 . S
C560 H552 0.929 . S
C560 C561 1.377 . S
C560 C562 1.384 . S
C561 C560 1.377 . S
C561 C567 1.390 . S
C562 H553 0.930 . S
C562 C560 1.384 . S
C562 C563 1.372 . S
C563 C562 1.372 . S
C563 C564 1.400 . S
C563 C568 1.490 . S
C564 H554 0.930 . S
C564 C563 1.400 . S
C564 C567 1.386 . S
H565 C581 0.930 . S
H566 C582 0.931 . S
C567 H555 0.929 . S
C567 C561 1.390 . S
C567 C564 1.386 . S
C568 C563 1.490 . S
C568 C570 1.395 . S
C568 C571 1.403 . S
H569 C575 0.930 . S
C570 H556 0.930 . S
C570 C568 1.395 . S
C570 C573 1.403 . S
C571 C568 1.403 . S
C571 C572 1.524 . S
C571 C575 1.400 . S
C572 H557 0.960 . S
C572 H558 0.960 . S
C572 H559 0.960 . S
C572 C571 1.524 . S
C573 C570 1.403 . S
C573 C574 1.392 . S
C573 C577 1.495 . S
C574 C573 1.392 . S
C574 C575 1.385 . S
C574 C576 1.478 . S
C575 H569 0.930 . S
C575 C571 1.400 . S
C575 C574 1.385 . S
C576 C574 1.478 . S
C576 C578 1.381 . S
C576 C582 1.383 . S
C577 C573 1.495 . S
C577 H583 0.959 1_554 S
C577 H584 0.961 1_554 S
C577 H585 0.960 . S
C578 C576 1.381 . S
C578 C579 1.394 . S
C578 H586 0.930 . S
C579 C578 1.394 . S
C579 C580 1.383 . S
C579 H587 0.929 . S
C580 C579 1.383 . S
C580 C581 1.377 . S
C581 H565 0.930 . S
C581 C580 1.377 . S
C581 C582 1.379 . S
C582 H566 0.931 . S
C582 C576 1.383 . S
C582 C581 1.379 . S
H583 C577 0.959 1_556 S
H584 C577 0.961 1_556 S
H585 C577 0.960 . S
H586 C578 0.930 . S
H587 C579 0.929 . S
H588 C596 0.929 . S
H589 C598 0.930 . S
H590 C600 0.930 . S
H591 C603 0.929 . S
H592 C606 0.930 . S
H593 C608 0.960 1_565 S
H594 C608 0.960 . S
H595 C608 0.960 . S
C596 H588 0.929 . S
C596 C597 1.377 . S
C596 C598 1.384 . S
C597 C596 1.377 . S
C597 C603 1.390 . S
C598 H589 0.930 . S
C598 C596 1.384 . S
C598 C599 1.372 . S
C599 C598 1.372 . S
C599 C600 1.400 . S
C599 C604 1.490 . S
C600 H590 0.930 . S
C600 C599 1.400 . S
C600 C603 1.386 . S
H601 C617 0.930 1_565 S
H602 C618 0.931 . S
C603 H591 0.929 . S
C603 C597 1.390 . S
C603 C600 1.386 . S
C604 C599 1.490 . S
C604 C606 1.395 . S
C604 C607 1.403 . S
H605 C611 0.930 . S
C606 H592 0.930 . S
C606 C604 1.395 . S
C606 C609 1.403 . S
C607 C604 1.403 . S
C607 C608 1.524 . S
C607 C611 1.400 . S
C608 H593 0.960 1_545 S
C608 H594 0.960 . S
C608 H595 0.960 . S
C608 C607 1.524 . S
C609 C606 1.403 . S
C609 C610 1.392 . S
C609 C613 1.495 . S
C610 C609 1.392 . S
C610 C611 1.385 . S
C610 C612 1.478 . S
C611 H605 0.930 . S
C611 C607 1.400 . S
C611 C610 1.385 . S
C612 C610 1.478 . S
C612 C614 1.381 . S
C612 C618 1.383 . S
C613 C609 1.495 . S
C613 H619 0.959 . S
C613 H620 0.961 . S
C613 H621 0.960 . S
C614 C612 1.381 . S
C614 C615 1.394 . S
C614 H622 0.930 . S
C615 C614 1.394 . S
C615 C616 1.383 . S
C615 H623 0.929 . S
C616 C615 1.383 . S
C616 C617 1.377 . S
C617 H601 0.930 1_545 S
C617 C616 1.377 . S
C617 C618 1.379 . S
C618 H602 0.931 . S
C618 C612 1.383 . S
C618 C617 1.379 . S
H619 C613 0.959 . S
H620 C613 0.961 . S
H621 C613 0.960 . S
H622 C614 0.930 . S
H623 C615 0.929 . S
H624 C632 0.929 . S
H625 C634 0.930 . S
H626 C636 0.930 . S
H627 C639 0.929 . S
H628 C642 0.930 . S
H629 C644 0.960 . S
H630 C644 0.960 . S
H631 C644 0.960 . S
C632 H624 0.929 . S
C632 C633 1.377 . S
C632 C634 1.384 . S
C633 C632 1.377 . S
C633 C639 1.390 . S
C634 H625 0.930 . S
C634 C632 1.384 . S
C634 C635 1.372 . S
C635 C634 1.372 . S
C635 C636 1.400 . S
C635 C640 1.490 . S
C636 H626 0.930 . S
C636 C635 1.400 . S
C636 C639 1.386 . S
H637 C653 0.930 . S
H638 C654 0.931 . S
C639 H627 0.929 . S
C639 C633 1.390 . S
C639 C636 1.386 . S
C640 C635 1.490 . S
C640 C642 1.395 . S
C640 C643 1.403 . S
H641 C647 0.930 . S
C642 H628 0.930 . S
C642 C640 1.395 . S
C642 C645 1.403 . S
C643 C640 1.403 . S
C643 C644 1.524 . S
C643 C647 1.400 . S
C644 H629 0.960 . S
C644 H630 0.960 . S
C644 H631 0.960 . S
C644 C643 1.524 . S
C645 C642 1.403 . S
C645 C646 1.392 . S
C645 C649 1.495 . S
C646 C645 1.392 . S
C646 C647 1.385 . S
C646 C648 1.478 . S
C647 H641 0.930 . S
C647 C643 1.400 . S
C647 C646 1.385 . S
C648 C646 1.478 . S
C648 C650 1.381 . S
C648 C654 1.383 . S
C649 C645 1.495 . S
C649 H655 0.959 . S
C649 H656 0.961 . S
C649 H657 0.960 . S
C650 C648 1.381 . S
C650 C651 1.394 . S
C650 H658 0.930 . S
C651 C650 1.394 . S
C651 C652 1.383 . S
C651 H659 0.929 . S
C652 C651 1.383 . S
C652 C653 1.377 . S
C653 H637 0.930 . S
C653 C652 1.377 . S
C653 C654 1.379 . S
C654 H638 0.931 . S
C654 C648 1.383 . S
C654 C653 1.379 . S
H655 C649 0.959 . S
H656 C649 0.961 . S
H657 C649 0.960 . S
H658 C650 0.930 . S
H659 C651 0.929 . S
H660 C668 0.929 . S
H661 C670 0.930 . S
H662 C672 0.930 . S
H663 C675 0.929 . S
H664 C678 0.930 . S
H665 C680 0.960 . S
H666 C680 0.960 . S
H667 C680 0.960 . S
C668 H660 0.929 . S
C668 C669 1.377 . S
C668 C670 1.384 . S
C669 C668 1.377 . S
C669 C675 1.390 . S
C670 H661 0.930 . S
C670 C668 1.384 . S
C670 C671 1.372 . S
C671 C670 1.372 . S
C671 C672 1.400 . S
C671 C676 1.490 . S
C672 H662 0.930 . S
C672 C671 1.400 . S
C672 C675 1.386 . S
H673 C689 0.930 . S
H674 C690 0.931 . S
C675 H663 0.929 . S
C675 C669 1.390 . S
C675 C672 1.386 . S
C676 C671 1.490 . S
C676 C678 1.395 . S
C676 C679 1.403 . S
H677 C683 0.930 . S
C678 H664 0.930 . S
C678 C676 1.395 . S
C678 C681 1.403 . S
C679 C676 1.403 . S
C679 C680 1.524 . S
C679 C683 1.400 . S
C680 H665 0.960 . S
C680 H666 0.960 . S
C680 H667 0.960 . S
C680 C679 1.524 . S
C681 C678 1.403 . S
C681 C682 1.392 . S
C681 C685 1.495 . S
C682 C681 1.392 . S
C682 C683 1.385 . S
C682 C684 1.478 . S
C683 H677 0.930 . S
C683 C679 1.400 . S
C683 C682 1.385 . S
C684 C682 1.478 . S
C684 C686 1.381 . S
C684 C690 1.383 . S
C685 C681 1.495 . S
C685 H691 0.959 . S
C685 H692 0.961 . S
C685 H693 0.960 . S
C686 C684 1.381 . S
C686 C687 1.394 . S
C686 H694 0.930 . S
C687 C686 1.394 . S
C687 C688 1.383 . S
C687 H695 0.929 . S
C688 C687 1.383 . S
C688 C689 1.377 . S
C689 H673 0.930 . S
C689 C688 1.377 . S
C689 C690 1.379 . S
C690 H674 0.931 . S
C690 C684 1.383 . S
C690 C689 1.379 . S
H691 C685 0.959 . S
H692 C685 0.961 . S
H693 C685 0.960 . S
H694 C686 0.930 . S
H695 C687 0.929 . S
H696 C704 0.929 . S
H697 C706 0.930 . S
H698 C708 0.930 . S
H699 C711 0.929 . S
H700 C714 0.930 . S
H701 C716 0.960 . S
H702 C716 0.960 . S
H703 C716 0.960 . S
C704 H696 0.929 . S
C704 C705 1.377 . S
C704 C706 1.384 . S
C705 C704 1.377 . S
C705 C711 1.390 . S
C706 H697 0.930 . S
C706 C704 1.384 . S
C706 C707 1.372 . S
C707 C706 1.372 . S
C707 C708 1.400 . S
C707 C712 1.490 . S
C708 H698 0.930 . S
C708 C707 1.400 . S
C708 C711 1.386 . S
H709 C725 0.930 . S
H710 C726 0.931 . S
C711 H699 0.929 . S
C711 C705 1.390 . S
C711 C708 1.386 . S
C712 C707 1.490 . S
C712 C714 1.395 . S
C712 C715 1.403 . S
H713 C719 0.930 . S
C714 H700 0.930 . S
C714 C712 1.395 . S
C714 C717 1.403 . S
C715 C712 1.403 . S
C715 C716 1.524 . S
C715 C719 1.400 . S
C716 H701 0.960 . S
C716 H702 0.960 . S
C716 H703 0.960 . S
C716 C715 1.524 . S
C717 C714 1.403 . S
C717 C718 1.392 . S
C717 C721 1.495 1_556 S
C718 C717 1.392 . S
C718 C719 1.385 . S
C718 C720 1.478 . S
C719 H713 0.930 . S
C719 C715 1.400 . S
C719 C718 1.385 . S
C720 C718 1.478 . S
C720 C722 1.381 . S
C720 C726 1.383 . S
C721 C717 1.495 1_554 S
C721 H727 0.959 . S
C721 H728 0.961 . S
C721 H729 0.960 . S
C722 C720 1.381 . S
C722 C723 1.394 . S
C722 H730 0.930 . S
C723 C722 1.394 . S
C723 C724 1.383 . S
C723 H731 0.929 . S
C724 C723 1.383 . S
C724 C725 1.377 . S
C725 H709 0.930 . S
C725 C724 1.377 . S
C725 C726 1.379 . S
C726 H710 0.931 . S
C726 C720 1.383 . S
C726 C725 1.379 . S
H727 C721 0.959 . S
H728 C721 0.961 . S
H729 C721 0.960 . S
H730 C722 0.930 . S
H731 C723 0.929 . S
H732 C740 0.929 . S
H733 C742 0.930 . S
H734 C744 0.930 . S
H735 C747 0.929 . S
H736 C750 0.930 . S
H737 C752 0.960 . S
H738 C752 0.960 . S
H739 C752 0.960 . S
C740 H732 0.929 . S
C740 C741 1.377 . S
C740 C742 1.384 . S
C741 C740 1.377 . S
C741 C747 1.390 . S
C742 H733 0.930 . S
C742 C740 1.384 . S
C742 C743 1.372 . S
C743 C742 1.372 . S
C743 C744 1.400 . S
C743 C748 1.490 . S
C744 H734 0.930 . S
C744 C743 1.400 . S
C744 C747 1.386 . S
H745 C761 0.930 . S
H746 C762 0.931 . S
C747 H735 0.929 . S
C747 C741 1.390 . S
C747 C744 1.386 . S
C748 C743 1.490 . S
C748 C750 1.395 . S
C748 C751 1.403 . S
H749 C755 0.930 . S
C750 H736 0.930 . S
C750 C748 1.395 . S
C750 C753 1.403 . S
C751 C748 1.403 . S
C751 C752 1.524 . S
C751 C755 1.400 . S
C752 H737 0.960 . S
C752 H738 0.960 . S
C752 H739 0.960 . S
C752 C751 1.524 . S
C753 C750 1.403 . S
C753 C754 1.392 . S
C753 C757 1.495 . S
C754 C753 1.392 . S
C754 C755 1.385 . S
C754 C756 1.478 . S
C755 H749 0.930 . S
C755 C751 1.400 . S
C755 C754 1.385 . S
C756 C754 1.478 . S
C756 C758 1.381 . S
C756 C762 1.383 . S
C757 C753 1.495 . S
C757 H763 0.959 . S
C757 H764 0.961 . S
C757 H765 0.960 . S
C758 C756 1.381 . S
C758 C759 1.394 . S
C758 H766 0.930 . S
C759 C758 1.394 . S
C759 C760 1.383 . S
C759 H767 0.929 . S
C760 C759 1.383 . S
C760 C761 1.377 . S
C761 H745 0.930 . S
C761 C760 1.377 . S
C761 C762 1.379 . S
C762 H746 0.931 . S
C762 C756 1.383 . S
C762 C761 1.379 . S
H763 C757 0.959 . S
H764 C757 0.961 . S
H765 C757 0.960 . S
H766 C758 0.930 . S
H767 C759 0.929 . S
H768 C776 0.929 . S
H769 C778 0.930 . S
H770 C780 0.930 . S
H771 C783 0.929 . S
H772 C786 0.930 . S
H773 C788 0.960 . S
H774 C788 0.960 . S
H775 C788 0.960 . S
C776 H768 0.929 . S
C776 C777 1.377 . S
C776 C778 1.384 . S
C777 C776 1.377 . S
C777 C783 1.390 . S
C778 H769 0.930 . S
C778 C776 1.384 . S
C778 C779 1.372 . S
C779 C778 1.372 . S
C779 C780 1.400 . S
C779 C784 1.490 . S
C780 H770 0.930 . S
C780 C779 1.400 . S
C780 C783 1.386 . S
H781 C797 0.930 . S
H782 C798 0.931 . S
C783 H771 0.929 . S
C783 C777 1.390 . S
C783 C780 1.386 . S
C784 C779 1.490 . S
C784 C786 1.395 . S
C784 C787 1.403 . S
H785 C791 0.930 . S
C786 H772 0.930 . S
C786 C784 1.395 . S
C786 C789 1.403 . S
C787 C784 1.403 . S
C787 C788 1.524 . S
C787 C791 1.400 . S
C788 H773 0.960 . S
C788 H774 0.960 . S
C788 H775 0.960 . S
C788 C787 1.524 . S
C789 C786 1.403 . S
C789 C790 1.392 . S
C789 C793 1.495 . S
C790 C789 1.392 . S
C790 C791 1.385 . S
C790 C792 1.478 . S
C791 H785 0.930 . S
C791 C787 1.400 . S
C791 C790 1.385 . S
C792 C790 1.478 . S
C792 C794 1.381 . S
C792 C798 1.383 . S
C793 C789 1.495 . S
C793 H799 0.959 . S
C793 H800 0.961 . S
C793 H801 0.960 . S
C794 C792 1.381 . S
C794 C795 1.394 . S
C794 H802 0.930 . S
C795 C794 1.394 . S
C795 C796 1.383 . S
C795 H803 0.929 . S
C796 C795 1.383 . S
C796 C797 1.377 . S
C797 H781 0.930 . S
C797 C796 1.377 . S
C797 C798 1.379 . S
C798 H782 0.931 . S
C798 C792 1.383 . S
C798 C797 1.379 . S
H799 C793 0.959 . S
H800 C793 0.961 . S
H801 C793 0.960 . S
H802 C794 0.930 . S
H803 C795 0.929 . S
H804 C812 0.929 . S
H805 C814 0.930 . S
H806 C816 0.930 . S
H807 C819 0.929 . S
H808 C822 0.930 1_655 S
H809 C824 0.960 . S
H810 C824 0.960 . S
H811 C824 0.960 . S
C812 H804 0.929 . S
C812 C813 1.377 . S
C812 C814 1.384 . S
C813 C812 1.377 . S
C813 C819 1.390 . S
C814 H805 0.930 . S
C814 C812 1.384 . S
C814 C815 1.372 . S
C815 C814 1.372 . S
C815 C816 1.400 . S
C815 C820 1.490 . S
C816 H806 0.930 . S
C816 C815 1.400 . S
C816 C819 1.386 . S
H817 C833 0.930 . S
H818 C834 0.931 . S
C819 H807 0.929 . S
C819 C813 1.390 . S
C819 C816 1.386 . S
C820 C815 1.490 . S
C820 C822 1.395 . S
C820 C823 1.403 . S
H821 C827 0.930 . S
C822 H808 0.930 1_455 S
C822 C820 1.395 . S
C822 C825 1.403 1_455 S
C823 C820 1.403 . S
C823 C824 1.524 . S
C823 C827 1.400 . S
C824 H809 0.960 . S
C824 H810 0.960 . S
C824 H811 0.960 . S
C824 C823 1.524 . S
C825 C822 1.403 1_655 S
C825 C826 1.392 1_655 S
C825 C829 1.495 . S
C826 C825 1.392 1_455 S
C826 C827 1.385 . S
C826 C828 1.478 . S
C827 H821 0.930 . S
C827 C823 1.400 . S
C827 C826 1.385 . S
C828 C826 1.478 . S
C828 C830 1.381 1_455 S
C828 C834 1.383 . S
C829 C825 1.495 . S
C829 H835 0.959 . S
C829 H836 0.961 . S
C829 H837 0.960 . S
C830 C828 1.381 1_655 S
C830 C831 1.394 . S
C830 H838 0.930 . S
C831 C830 1.394 . S
C831 C832 1.383 . S
C831 H839 0.929 . S
C832 C831 1.383 . S
C832 C833 1.377 1_655 S
C833 H817 0.930 . S
C833 C832 1.377 1_455 S
C833 C834 1.379 . S
C834 H818 0.931 . S
C834 C828 1.383 . S
C834 C833 1.379 . S
H835 C829 0.959 . S
H836 C829 0.961 . S
H837 C829 0.960 . S
H838 C830 0.930 . S
H839 C831 0.929 . S
H840 C848 0.929 . S
H841 C850 0.930 . S
H842 C852 0.930 . S
H843 C855 0.929 . S
H844 C858 0.930 . S
H845 C860 0.960 . S
H846 C860 0.960 . S
H847 C860 0.960 . S
C848 H840 0.929 . S
C848 C849 1.377 . S
C848 C850 1.384 . S
C849 C848 1.377 . S
C849 C855 1.390 1_455 S
C850 H841 0.930 . S
C850 C848 1.384 . S
C850 C851 1.372 1_455 S
C851 C850 1.372 1_655 S
C851 C852 1.400 . S
C851 C856 1.490 . S
C852 H842 0.930 . S
C852 C851 1.400 . S
C852 C855 1.386 . S
H853 C869 0.930 . S
H854 C870 0.931 . S
C855 H843 0.929 . S
C855 C849 1.390 1_655 S
C855 C852 1.386 . S
C856 C851 1.490 . S
C856 C858 1.395 . S
C856 C859 1.403 . S
H857 C863 0.930 . S
C858 H844 0.930 . S
C858 C856 1.395 . S
C858 C861 1.403 . S
C859 C856 1.403 . S
C859 C860 1.524 . S
C859 C863 1.400 . S
C860 H845 0.960 . S
C860 H846 0.960 . S
C860 H847 0.960 . S
C860 C859 1.524 . S
C861 C858 1.403 . S
C861 C862 1.392 . S
C861 C865 1.495 . S
C862 C861 1.392 . S
C862 C863 1.385 . S
C862 C864 1.478 . S
C863 H857 0.930 . S
C863 C859 1.400 . S
C863 C862 1.385 . S
C864 C862 1.478 . S
C864 C866 1.381 . S
C864 C870 1.383 . S
C865 C861 1.495 . S
C865 H871 0.959 1_655 S
C865 H872 0.961 . S
C865 H873 0.960 . S
C866 C864 1.381 . S
C866 C867 1.394 . S
C866 H874 0.930 . S
C867 C866 1.394 . S
C867 C868 1.383 . S
C867 H875 0.929 . S
C868 C867 1.383 . S
C868 C869 1.377 . S
C869 H853 0.930 . S
C869 C868 1.377 . S
C869 C870 1.379 . S
C870 H854 0.931 . S
C870 C864 1.383 . S
C870 C869 1.379 . S
H871 C865 0.959 1_455 S
H872 C865 0.961 . S
H873 C865 0.960 . S
H874 C866 0.930 . S
H875 C867 0.929 . S
H876 C884 0.929 . S
H877 C886 0.930 . S
H878 C888 0.930 . S
H879 C891 0.929 . S
H880 C894 0.930 . S
H881 C896 0.960 . S
H882 C896 0.960 . S
H883 C896 0.960 . S
C884 H876 0.929 . S
C884 C885 1.377 . S
C884 C886 1.384 . S
C885 C884 1.377 . S
C885 C891 1.390 . S
C886 H877 0.930 . S
C886 C884 1.384 . S
C886 C887 1.372 . S
C887 C886 1.372 . S
C887 C888 1.400 . S
C887 C892 1.490 . S
C888 H878 0.930 . S
C888 C887 1.400 . S
C888 C891 1.386 . S
H889 C905 0.930 . S
H890 C906 0.931 . S
C891 H879 0.929 . S
C891 C885 1.390 . S
C891 C888 1.386 . S
C892 C887 1.490 . S
C892 C894 1.395 . S
C892 C895 1.403 . S
H893 C899 0.930 . S
C894 H880 0.930 . S
C894 C892 1.395 . S
C894 C897 1.403 . S
C895 C892 1.403 . S
C895 C896 1.524 . S
C895 C899 1.400 . S
C896 H881 0.960 . S
C896 H882 0.960 . S
C896 H883 0.960 . S
C896 C895 1.524 . S
C897 C894 1.403 . S
C897 C898 1.392 . S
C897 C901 1.495 . S
C898 C897 1.392 . S
C898 C899 1.385 . S
C898 C900 1.478 . S
C899 H893 0.930 . S
C899 C895 1.400 . S
C899 C898 1.385 . S
C900 C898 1.478 . S
C900 C902 1.381 . S
C900 C906 1.383 . S
C901 C897 1.495 . S
C901 H907 0.959 . S
C901 H908 0.961 . S
C901 H909 0.960 . S
C902 C900 1.381 . S
C902 C903 1.394 . S
C902 H910 0.930 . S
C903 C902 1.394 . S
C903 C904 1.383 . S
C903 H911 0.929 . S
C904 C903 1.383 . S
C904 C905 1.377 . S
C905 H889 0.930 . S
C905 C904 1.377 . S
C905 C906 1.379 . S
C906 H890 0.931 . S
C906 C900 1.383 . S
C906 C905 1.379 . S
H907 C901 0.959 . S
H908 C901 0.961 . S
H909 C901 0.960 . S
H910 C902 0.930 . S
H911 C903 0.929 . S
H912 C920 0.929 . S
H913 C922 0.930 . S
H914 C924 0.930 . S
H915 C927 0.929 . S
H916 C930 0.930 . S
H917 C932 0.960 . S
H918 C932 0.960 . S
H919 C932 0.960 . S
C920 H912 0.929 . S
C920 C921 1.377 . S
C920 C922 1.384 . S
C921 C920 1.377 . S
C921 C927 1.390 . S
C922 H913 0.930 . S
C922 C920 1.384 . S
C922 C923 1.372 . S
C923 C922 1.372 . S
C923 C924 1.400 . S
C923 C928 1.490 . S
C924 H914 0.930 . S
C924 C923 1.400 . S
C924 C927 1.386 . S
H925 C941 0.930 . S
H926 C942 0.931 . S
C927 H915 0.929 . S
C927 C921 1.390 . S
C927 C924 1.386 . S
C928 C923 1.490 . S
C928 C930 1.395 . S
C928 C931 1.403 . S
H929 C935 0.930 . S
C930 H916 0.930 . S
C930 C928 1.395 . S
C930 C933 1.403 . S
C931 C928 1.403 . S
C931 C932 1.524 . S
C931 C935 1.400 . S
C932 H917 0.960 . S
C932 H918 0.960 . S
C932 H919 0.960 . S
C932 C931 1.524 . S
C933 C930 1.403 . S
C933 C934 1.392 . S
C933 C937 1.495 . S
C934 C933 1.392 . S
C934 C935 1.385 . S
C934 C936 1.478 . S
C935 H929 0.930 . S
C935 C931 1.400 . S
C935 C934 1.385 . S
C936 C934 1.478 . S
C936 C938 1.381 . S
C936 C942 1.383 . S
C937 C933 1.495 . S
C937 H943 0.959 . S
C937 H944 0.961 . S
C937 H945 0.960 . S
C938 C936 1.381 . S
C938 C939 1.394 . S
C938 H946 0.930 . S
C939 C938 1.394 . S
C939 C940 1.383 . S
C939 H947 0.929 . S
C940 C939 1.383 . S
C940 C941 1.377 . S
C941 H925 0.930 . S
C941 C940 1.377 . S
C941 C942 1.379 . S
C942 H926 0.931 . S
C942 C936 1.383 . S
C942 C941 1.379 . S
H943 C937 0.959 . S
H944 C937 0.961 . S
H945 C937 0.960 . S
H946 C938 0.930 . S
H947 C939 0.929 . S
H948 C956 0.929 . S
H949 C958 0.930 . S
H950 C960 0.930 . S
H951 C963 0.929 . S
H952 C966 0.930 . S
H953 C968 0.960 . S
H954 C968 0.960 . S
H955 C968 0.960 . S
C956 H948 0.929 . S
C956 C957 1.377 . S
C956 C958 1.384 . S
C957 C956 1.377 . S
C957 C963 1.390 . S
C958 H949 0.930 . S
C958 C956 1.384 . S
C958 C959 1.372 . S
C959 C958 1.372 . S
C959 C960 1.400 . S
C959 C964 1.490 . S
C960 H950 0.930 . S
C960 C959 1.400 . S
C960 C963 1.386 . S
H961 C977 0.930 . S
H962 C978 0.931 . S
C963 H951 0.929 . S
C963 C957 1.390 . S
C963 C960 1.386 . S
C964 C959 1.490 . S
C964 C966 1.395 . S
C964 C967 1.403 . S
H965 C971 0.930 . S
C966 H952 0.930 . S
C966 C964 1.395 . S
C966 C969 1.403 . S
C967 C964 1.403 . S
C967 C968 1.524 . S
C967 C971 1.400 . S
C968 H953 0.960 . S
C968 H954 0.960 . S
C968 H955 0.960 . S
C968 C967 1.524 . S
C969 C966 1.403 . S
C969 C970 1.392 . S
C969 C973 1.495 . S
C970 C969 1.392 . S
C970 C971 1.385 . S
C970 C972 1.478 . S
C971 H965 0.930 . S
C971 C967 1.400 . S
C971 C970 1.385 . S
C972 C970 1.478 . S
C972 C974 1.381 . S
C972 C978 1.383 . S
C973 C969 1.495 . S
C973 H979 0.959 . S
C973 H980 0.961 . S
C973 H981 0.960 . S
C974 C972 1.381 . S
C974 C975 1.394 . S
C974 H982 0.930 . S
C975 C974 1.394 . S
C975 C976 1.383 . S
C975 H983 0.929 . S
C976 C975 1.383 . S
C976 C977 1.377 . S
C977 H961 0.930 . S
C977 C976 1.377 . S
C977 C978 1.379 . S
C978 H962 0.931 . S
C978 C972 1.383 . S
C978 C977 1.379 . S
H979 C973 0.959 . S
H980 C973 0.961 . S
H981 C973 0.960 . S
H982 C974 0.930 . S
H983 C975 0.929 . S
H984 C992 0.929 . S
H985 C994 0.930 . S
H986 C996 0.930 . S
H987 C999 0.929 . S
H988 C1002 0.930 . S
H989 C1004 0.960 . S
H990 C1004 0.960 . S
H991 C1004 0.960 . S
C992 H984 0.929 . S
C992 C993 1.377 . S
C992 C994 1.384 . S
C993 C992 1.377 . S
C993 C999 1.390 . S
C994 H985 0.930 . S
C994 C992 1.384 . S
C994 C995 1.372 . S
C995 C994 1.372 . S
C995 C996 1.400 . S
C995 C1000 1.490 . S
C996 H986 0.930 . S
C996 C995 1.400 . S
C996 C999 1.386 . S
H997 C1013 0.930 . S
H998 C1014 0.931 . S
C999 H987 0.929 . S
C999 C993 1.390 . S
C999 C996 1.386 . S
C1000 C995 1.490 . S
C1000 C1002 1.395 . S
C1000 C1003 1.403 . S
H1001 C1007 0.930 . S
C1002 H988 0.930 . S
C1002 C1000 1.395 . S
C1002 C1005 1.403 . S
C1003 C1000 1.403 . S
C1003 C1004 1.524 . S
C1003 C1007 1.400 . S
C1004 H989 0.960 . S
C1004 H990 0.960 . S
C1004 H991 0.960 . S
C1004 C1003 1.524 . S
C1005 C1002 1.403 . S
C1005 C1006 1.392 . S
C1005 C1009 1.495 . S
C1006 C1005 1.392 . S
C1006 C1007 1.385 . S
C1006 C1008 1.478 . S
C1007 H1001 0.930 . S
C1007 C1003 1.400 . S
C1007 C1006 1.385 . S
C1008 C1006 1.478 . S
C1008 C1010 1.381 . S
C1008 C1014 1.383 . S
C1009 C1005 1.495 . S
C1009 H1015 0.959 . S
C1009 H1016 0.961 . S
C1009 H1017 0.960 . S
C1010 C1008 1.381 . S
C1010 C1011 1.394 . S
C1010 H1018 0.930 . S
C1011 C1010 1.394 . S
C1011 C1012 1.383 . S
C1011 H1019 0.929 . S
C1012 C1011 1.383 . S
C1012 C1013 1.377 . S
C1013 H997 0.930 . S
C1013 C1012 1.377 . S
C1013 C1014 1.379 . S
C1014 H998 0.931 . S
C1014 C1008 1.383 . S
C1014 C1013 1.379 . S
H1015 C1009 0.959 . S
H1016 C1009 0.961 . S
H1017 C1009 0.960 . S
H1018 C1010 0.930 . S
H1019 C1011 0.929 . S
H1020 C1028 0.929 . S
H1021 C1030 0.930 . S
H1022 C1032 0.930 . S
H1023 C1035 0.929 . S
H1024 C1038 0.930 . S
H1025 C1040 0.960 . S
H1026 C1040 0.960 . S
H1027 C1040 0.960 . S
C1028 H1020 0.929 . S
C1028 C1029 1.377 . S
C1028 C1030 1.384 . S
C1029 C1028 1.377 . S
C1029 C1035 1.390 . S
C1030 H1021 0.930 . S
C1030 C1028 1.384 . S
C1030 C1031 1.372 . S
C1031 C1030 1.372 . S
C1031 C1032 1.400 . S
C1031 C1036 1.490 . S
C1032 H1022 0.930 . S
C1032 C1031 1.400 . S
C1032 C1035 1.386 . S
H1033 C1049 0.930 . S
H1034 C1050 0.931 . S
C1035 H1023 0.929 . S
C1035 C1029 1.390 . S
C1035 C1032 1.386 . S
C1036 C1031 1.490 . S
C1036 C1038 1.395 . S
C1036 C1039 1.403 . S
H1037 C1043 0.930 1_556 S
C1038 H1024 0.930 . S
C1038 C1036 1.395 . S
C1038 C1041 1.403 . S
C1039 C1036 1.403 . S
C1039 C1040 1.524 . S
C1039 C1043 1.400 . S
C1040 H1025 0.960 . S
C1040 H1026 0.960 . S
C1040 H1027 0.960 . S
C1040 C1039 1.524 . S
C1041 C1038 1.403 . S
C1041 C1042 1.392 . S
C1041 C1045 1.495 . S
C1042 C1041 1.392 . S
C1042 C1043 1.385 . S
C1042 C1044 1.478 1_554 S
C1043 H1037 0.930 1_554 S
C1043 C1039 1.400 . S
C1043 C1042 1.385 . S
C1044 C1042 1.478 1_556 S
C1044 C1046 1.381 . S
C1044 C1050 1.383 . S
C1045 C1041 1.495 . S
C1045 H1051 0.959 . S
C1045 H1052 0.961 . S
C1045 H1053 0.960 . S
C1046 C1044 1.381 . S
C1046 C1047 1.394 . S
C1046 H1054 0.930 . S
C1047 C1046 1.394 . S
C1047 C1048 1.383 . S
C1047 H1055 0.929 . S
C1048 C1047 1.383 . S
C1048 C1049 1.377 . S
C1049 H1033 0.930 . S
C1049 C1048 1.377 . S
C1049 C1050 1.379 . S
C1050 H1034 0.931 . S
C1050 C1044 1.383 . S
C1050 C1049 1.379 . S
H1051 C1045 0.959 . S
H1052 C1045 0.961 . S
H1053 C1045 0.960 . S
H1054 C1046 0.930 . S
H1055 C1047 0.929 . S
H1056 C1064 0.929 . S
H1057 C1066 0.930 . S
H1058 C1068 0.930 . S
H1059 C1071 0.929 . S
H1060 C1074 0.930 . S
H1061 C1076 0.960 . S
H1062 C1076 0.960 . S
H1063 C1076 0.960 . S
C1064 H1056 0.929 . S
C1064 C1065 1.377 . S
C1064 C1066 1.384 . S
C1065 C1064 1.377 . S
C1065 C1071 1.390 . S
C1066 H1057 0.930 . S
C1066 C1064 1.384 . S
C1066 C1067 1.372 . S
C1067 C1066 1.372 . S
C1067 C1068 1.400 . S
C1067 C1072 1.490 . S
C1068 H1058 0.930 . S
C1068 C1067 1.400 . S
C1068 C1071 1.386 . S
H1069 C1085 0.930 . S
H1070 C1086 0.931 . S
C1071 H1059 0.929 . S
C1071 C1065 1.390 . S
C1071 C1068 1.386 . S
C1072 C1067 1.490 . S
C1072 C1074 1.395 . S
C1072 C1075 1.403 . S
H1073 C1079 0.930 . S
C1074 H1060 0.930 . S
C1074 C1072 1.395 . S
C1074 C1077 1.403 . S
C1075 C1072 1.403 . S
C1075 C1076 1.524 . S
C1075 C1079 1.400 . S
C1076 H1061 0.960 . S
C1076 H1062 0.960 . S
C1076 H1063 0.960 . S
C1076 C1075 1.524 . S
C1077 C1074 1.403 . S
C1077 C1078 1.392 . S
C1077 C1081 1.495 . S
C1078 C1077 1.392 . S
C1078 C1079 1.385 . S
C1078 C1080 1.478 . S
C1079 H1073 0.930 . S
C1079 C1075 1.400 . S
C1079 C1078 1.385 . S
C1080 C1078 1.478 . S
C1080 C1082 1.381 . S
C1080 C1086 1.383 . S
C1081 C1077 1.495 . S
C1081 H1087 0.959 . S
C1081 H1088 0.961 . S
C1081 H1089 0.960 . S
C1082 C1080 1.381 . S
C1082 C1083 1.394 . S
C1082 H1090 0.930 . S
C1083 C1082 1.394 . S
C1083 C1084 1.383 . S
C1083 H1091 0.929 . S
C1084 C1083 1.383 . S
C1084 C1085 1.377 . S
C1085 H1069 0.930 . S
C1085 C1084 1.377 . S
C1085 C1086 1.379 . S
C1086 H1070 0.931 . S
C1086 C1080 1.383 . S
C1086 C1085 1.379 . S
H1087 C1081 0.959 . S
H1088 C1081 0.961 . S
H1089 C1081 0.960 . S
H1090 C1082 0.930 . S
H1091 C1083 0.929 . S
H1092 C1100 0.929 . S
H1093 C1102 0.930 . S
H1094 C1104 0.930 . S
H1095 C1107 0.929 . S
H1096 C1110 0.930 . S
H1097 C1112 0.960 . S
H1098 C1112 0.960 1_554 S
H1099 C1112 0.960 1_554 S
C1100 H1092 0.929 . S
C1100 C1101 1.377 . S
C1100 C1102 1.384 . S
C1101 C1100 1.377 . S
C1101 C1107 1.390 . S
C1102 H1093 0.930 . S
C1102 C1100 1.384 . S
C1102 C1103 1.372 . S
C1103 C1102 1.372 . S
C1103 C1104 1.400 . S
C1103 C1108 1.490 1_554 S
C1104 H1094 0.930 . S
C1104 C1103 1.400 . S
C1104 C1107 1.386 . S
H1105 C1121 0.930 . S
H1106 C1122 0.931 . S
C1107 H1095 0.929 . S
C1107 C1101 1.390 . S
C1107 C1104 1.386 . S
C1108 C1103 1.490 1_556 S
C1108 C1110 1.395 . S
C1108 C1111 1.403 . S
H1109 C1115 0.930 . S
C1110 H1096 0.930 . S
C1110 C1108 1.395 . S
C1110 C1113 1.403 . S
C1111 C1108 1.403 . S
C1111 C1112 1.524 . S
C1111 C1115 1.400 . S
C1112 H1097 0.960 . S
C1112 H1098 0.960 1_556 S
C1112 H1099 0.960 1_556 S
C1112 C1111 1.524 . S
C1113 C1110 1.403 . S
C1113 C1114 1.392 . S
C1113 C1117 1.495 . S
C1114 C1113 1.392 . S
C1114 C1115 1.385 . S
C1114 C1116 1.478 . S
C1115 H1109 0.930 . S
C1115 C1111 1.400 . S
C1115 C1114 1.385 . S
C1116 C1114 1.478 . S
C1116 C1118 1.381 . S
C1116 C1122 1.383 . S
C1117 C1113 1.495 . S
C1117 H1123 0.959 . S
C1117 H1124 0.961 . S
C1117 H1125 0.960 . S
C1118 C1116 1.381 . S
C1118 C1119 1.394 . S
C1118 H1126 0.930 . S
C1119 C1118 1.394 . S
C1119 C1120 1.383 . S
C1119 H1127 0.929 . S
C1120 C1119 1.383 . S
C1120 C1121 1.377 . S
C1121 H1105 0.930 . S
C1121 C1120 1.377 . S
C1121 C1122 1.379 . S
C1122 H1106 0.931 . S
C1122 C1116 1.383 . S
C1122 C1121 1.379 . S
H1123 C1117 0.959 . S
H1124 C1117 0.961 . S
H1125 C1117 0.960 . S
H1126 C1118 0.930 . S
H1127 C1119 0.929 . S
H1128 C1136 0.929 . S
H1129 C1138 0.930 . S
H1130 C1140 0.930 . S
H1131 C1143 0.929 . S
H1132 C1146 0.930 . S
H1133 C1148 0.960 . S
H1134 C1148 0.960 . S
H1135 C1148 0.960 . S
C1136 H1128 0.929 . S
C1136 C1137 1.377 . S
C1136 C1138 1.384 . S
C1137 C1136 1.377 . S
C1137 C1143 1.390 . S
C1138 H1129 0.930 . S
C1138 C1136 1.384 . S
C1138 C1139 1.372 . S
C1139 C1138 1.372 . S
C1139 C1140 1.400 . S
C1139 C1144 1.490 . S
C1140 H1130 0.930 . S
C1140 C1139 1.400 . S
C1140 C1143 1.386 . S
H1141 C1157 0.930 . S
H1142 C1158 0.931 . S
C1143 H1131 0.929 . S
C1143 C1137 1.390 . S
C1143 C1140 1.386 . S
C1144 C1139 1.490 . S
C1144 C1146 1.395 . S
C1144 C1147 1.403 . S
H1145 C1151 0.930 . S
C1146 H1132 0.930 . S
C1146 C1144 1.395 . S
C1146 C1149 1.403 . S
C1147 C1144 1.403 . S
C1147 C1148 1.524 . S
C1147 C1151 1.400 . S
C1148 H1133 0.960 . S
C1148 H1134 0.960 . S
C1148 H1135 0.960 . S
C1148 C1147 1.524 . S
C1149 C1146 1.403 . S
C1149 C1150 1.392 . S
C1149 C1153 1.495 . S
C1150 C1149 1.392 . S
C1150 C1151 1.385 . S
C1150 C1152 1.478 . S
C1151 H1145 0.930 . S
C1151 C1147 1.400 . S
C1151 C1150 1.385 . S
C1152 C1150 1.478 . S
C1152 C1154 1.381 . S
C1152 C1158 1.383 . S
C1153 C1149 1.495 . S
C1153 H1159 0.959 . S
C1153 H1160 0.961 . S
C1153 H1161 0.960 . S
C1154 C1152 1.381 . S
C1154 C1155 1.394 . S
C1154 H1162 0.930 . S
C1155 C1154 1.394 . S
C1155 C1156 1.383 . S
C1155 H1163 0.929 . S
C1156 C1155 1.383 . S
C1156 C1157 1.377 . S
C1157 H1141 0.930 . S
C1157 C1156 1.377 . S
C1157 C1158 1.379 . S
C1158 H1142 0.931 . S
C1158 C1152 1.383 . S
C1158 C1157 1.379 . S
H1159 C1153 0.959 . S
H1160 C1153 0.961 . S
H1161 C1153 0.960 . S
H1162 C1154 0.930 . S
H1163 C1155 0.929 . S
H1164 C1172 0.929 . S
H1165 C1174 0.930 . S
H1166 C1176 0.930 . S
H1167 C1179 0.929 . S
H1168 C1182 0.930 . S
H1169 C1184 0.960 . S
H1170 C1184 0.960 . S
H1171 C1184 0.960 . S
C1172 H1164 0.929 . S
C1172 C1173 1.377 . S
C1172 C1174 1.384 . S
C1173 C1172 1.377 . S
C1173 C1179 1.390 . S
C1174 H1165 0.930 . S
C1174 C1172 1.384 . S
C1174 C1175 1.372 . S
C1175 C1174 1.372 . S
C1175 C1176 1.400 . S
C1175 C1180 1.490 . S
C1176 H1166 0.930 . S
C1176 C1175 1.400 . S
C1176 C1179 1.386 . S
H1177 C1193 0.930 . S
H1178 C1194 0.931 . S
C1179 H1167 0.929 . S
C1179 C1173 1.390 . S
C1179 C1176 1.386 . S
C1180 C1175 1.490 . S
C1180 C1182 1.395 . S
C1180 C1183 1.403 . S
H1181 C1187 0.930 . S
C1182 H1168 0.930 . S
C1182 C1180 1.395 . S
C1182 C1185 1.403 . S
C1183 C1180 1.403 . S
C1183 C1184 1.524 . S
C1183 C1187 1.400 . S
C1184 H1169 0.960 . S
C1184 H1170 0.960 . S
C1184 H1171 0.960 . S
C1184 C1183 1.524 . S
C1185 C1182 1.403 . S
C1185 C1186 1.392 . S
C1185 C1189 1.495 . S
C1186 C1185 1.392 . S
C1186 C1187 1.385 . S
C1186 C1188 1.478 . S
C1187 H1181 0.930 . S
C1187 C1183 1.400 . S
C1187 C1186 1.385 . S
C1188 C1186 1.478 . S
C1188 C1190 1.381 . S
C1188 C1194 1.383 . S
C1189 C1185 1.495 . S
C1189 H1195 0.959 . S
C1189 H1196 0.961 . S
C1189 H1197 0.960 . S
C1190 C1188 1.381 . S
C1190 C1191 1.394 . S
C1190 H1198 0.930 . S
C1191 C1190 1.394 . S
C1191 C1192 1.383 . S
C1191 H1199 0.929 . S
C1192 C1191 1.383 . S
C1192 C1193 1.377 . S
C1193 H1177 0.930 . S
C1193 C1192 1.377 . S
C1193 C1194 1.379 . S
C1194 H1178 0.931 . S
C1194 C1188 1.383 . S
C1194 C1193 1.379 . S
H1195 C1189 0.959 . S
H1196 C1189 0.961 . S
H1197 C1189 0.960 . S
H1198 C1190 0.930 . S
H1199 C1191 0.929 . S
H1200 C1208 0.929 . S
H1201 C1210 0.930 . S
H1202 C1212 0.930 . S
H1203 C1215 0.929 . S
H1204 C1218 0.930 . S
H1205 C1220 0.960 . S
H1206 C1220 0.960 . S
H1207 C1220 0.960 . S
C1208 H1200 0.929 . S
C1208 C1209 1.377 . S
C1208 C1210 1.384 . S
C1209 C1208 1.377 . S
C1209 C1215 1.390 . S
C1210 H1201 0.930 . S
C1210 C1208 1.384 . S
C1210 C1211 1.372 . S
C1211 C1210 1.372 . S
C1211 C1212 1.400 . S
C1211 C1216 1.490 . S
C1212 H1202 0.930 . S
C1212 C1211 1.400 . S
C1212 C1215 1.386 . S
H1213 C1229 0.930 . S
H1214 C1230 0.931 . S
C1215 H1203 0.929 . S
C1215 C1209 1.390 . S
C1215 C1212 1.386 . S
C1216 C1211 1.490 . S
C1216 C1218 1.395 . S
C1216 C1219 1.403 . S
H1217 C1223 0.930 . S
C1218 H1204 0.930 . S
C1218 C1216 1.395 . S
C1218 C1221 1.403 . S
C1219 C1216 1.403 . S
C1219 C1220 1.524 . S
C1219 C1223 1.400 . S
C1220 H1205 0.960 . S
C1220 H1206 0.960 . S
C1220 H1207 0.960 . S
C1220 C1219 1.524 . S
C1221 C1218 1.403 . S
C1221 C1222 1.392 . S
C1221 C1225 1.495 . S
C1222 C1221 1.392 . S
C1222 C1223 1.385 . S
C1222 C1224 1.478 . S
C1223 H1217 0.930 . S
C1223 C1219 1.400 . S
C1223 C1222 1.385 . S
C1224 C1222 1.478 . S
C1224 C1226 1.381 . S
C1224 C1230 1.383 . S
C1225 C1221 1.495 . S
C1225 H1231 0.959 . S
C1225 H1232 0.961 . S
C1225 H1233 0.960 . S
C1226 C1224 1.381 . S
C1226 C1227 1.394 . S
C1226 H1234 0.930 . S
C1227 C1226 1.394 . S
C1227 C1228 1.383 . S
C1227 H1235 0.929 . S
C1228 C1227 1.383 . S
C1228 C1229 1.377 . S
C1229 H1213 0.930 . S
C1229 C1228 1.377 . S
C1229 C1230 1.379 . S
C1230 H1214 0.931 . S
C1230 C1224 1.383 . S
C1230 C1229 1.379 . S
H1231 C1225 0.959 . S
H1232 C1225 0.961 . S
H1233 C1225 0.960 . S
H1234 C1226 0.930 . S
H1235 C1227 0.929 . S
H1236 C1244 0.929 . S
H1237 C1246 0.930 . S
H1238 C1248 0.930 . S
H1239 C1251 0.929 . S
H1240 C1254 0.930 . S
H1241 C1256 0.960 . S
H1242 C1256 0.960 . S
H1243 C1256 0.960 . S
C1244 H1236 0.929 . S
C1244 C1245 1.377 . S
C1244 C1246 1.384 . S
C1245 C1244 1.377 . S
C1245 C1251 1.390 . S
C1246 H1237 0.930 . S
C1246 C1244 1.384 . S
C1246 C1247 1.372 . S
C1247 C1246 1.372 . S
C1247 C1248 1.400 . S
C1247 C1252 1.490 . S
C1248 H1238 0.930 . S
C1248 C1247 1.400 . S
C1248 C1251 1.386 . S
H1249 C1265 0.930 . S
H1250 C1266 0.931 . S
C1251 H1239 0.929 . S
C1251 C1245 1.390 . S
C1251 C1248 1.386 . S
C1252 C1247 1.490 . S
C1252 C1254 1.395 . S
C1252 C1255 1.403 . S
H1253 C1259 0.930 . S
C1254 H1240 0.930 . S
C1254 C1252 1.395 . S
C1254 C1257 1.403 . S
C1255 C1252 1.403 . S
C1255 C1256 1.524 . S
C1255 C1259 1.400 . S
C1256 H1241 0.960 . S
C1256 H1242 0.960 . S
C1256 H1243 0.960 . S
C1256 C1255 1.524 . S
C1257 C1254 1.403 . S
C1257 C1258 1.392 . S
C1257 C1261 1.495 . S
C1258 C1257 1.392 . S
C1258 C1259 1.385 . S
C1258 C1260 1.478 . S
C1259 H1253 0.930 . S
C1259 C1255 1.400 . S
C1259 C1258 1.385 . S
C1260 C1258 1.478 . S
C1260 C1262 1.381 . S
C1260 C1266 1.383 1_545 S
C1261 C1257 1.495 . S
C1261 H1267 0.959 1_455 S
C1261 H1268 0.951 1_455 S
C1261 H1269 0.960 . S
C1262 C1260 1.381 . S
C1262 C1263 1.394 1_545 S
C1262 H1270 0.930 . S
C1263 C1262 1.394 1_565 S
C1263 C1264 1.383 . S
C1263 H1271 0.929 . S
C1264 C1263 1.383 . S
C1264 C1265 1.377 . S
C1265 H1249 0.930 . S
C1265 C1264 1.377 . S
C1265 C1266 1.379 . S
C1266 H1250 0.931 . S
C1266 C1260 1.383 1_565 S
C1266 C1265 1.379 . S
H1267 C1261 0.959 1_655 S
H1268 C1261 0.951 1_655 S
H1269 C1261 0.960 . S
H1270 C1262 0.930 . S
H1271 C1263 0.929 . S
H1272 C1280 0.929 . S
H1273 C1282 0.930 . S
H1274 C1284 0.930 . S
H1275 C1287 0.929 . S
H1276 C1290 0.930 . S
H1277 C1292 0.960 . S
H1278 C1292 0.960 . S
H1279 C1292 0.960 . S
C1280 H1272 0.929 . S
C1280 C1281 1.377 . S
C1280 C1282 1.384 . S
C1281 C1280 1.377 . S
C1281 C1287 1.390 . S
C1282 H1273 0.930 . S
C1282 C1280 1.384 . S
C1282 C1283 1.372 . S
C1283 C1282 1.372 . S
C1283 C1284 1.400 . S
C1283 C1288 1.490 . S
C1284 H1274 0.930 . S
C1284 C1283 1.400 . S
C1284 C1287 1.386 . S
H1285 C1301 0.930 . S
H1286 C1302 0.931 . S
C1287 H1275 0.929 . S
C1287 C1281 1.390 . S
C1287 C1284 1.386 . S
C1288 C1283 1.490 . S
C1288 C1290 1.395 . S
C1288 C1291 1.403 . S
H1289 C1295 0.930 . S
C1290 H1276 0.930 . S
C1290 C1288 1.395 . S
C1290 C1293 1.403 . S
C1291 C1288 1.403 . S
C1291 C1292 1.524 . S
C1291 C1295 1.400 . S
C1292 H1277 0.960 . S
C1292 H1278 0.960 . S
C1292 H1279 0.960 . S
C1292 C1291 1.524 . S
C1293 C1290 1.403 . S
C1293 C1294 1.392 . S
C1293 C1297 1.495 . S
C1294 C1293 1.392 . S
C1294 C1295 1.385 . S
C1294 C1296 1.478 . S
C1295 H1289 0.930 . S
C1295 C1291 1.400 . S
C1295 C1294 1.385 . S
C1296 C1294 1.478 . S
C1296 C1298 1.381 . S
C1296 C1302 1.383 . S
C1297 C1293 1.495 . S
C1297 H1303 0.959 . S
C1297 H1304 0.961 . S
C1297 H1305 0.960 . S
C1298 C1296 1.381 . S
C1298 C1299 1.394 . S
C1298 H1306 0.930 . S
C1299 C1298 1.394 . S
C1299 C1300 1.383 . S
C1299 H1307 0.929 . S
C1300 C1299 1.383 . S
C1300 C1301 1.377 . S
C1301 H1285 0.930 . S
C1301 C1300 1.377 . S
C1301 C1302 1.379 . S
C1302 H1286 0.931 . S
C1302 C1296 1.383 . S
C1302 C1301 1.379 . S
H1303 C1297 0.959 . S
H1304 C1297 0.961 . S
H1305 C1297 0.960 . S
H1306 C1298 0.930 . S
H1307 C1299 0.929 . S
H1308 C1316 0.929 . S
H1309 C1318 0.930 . S
H1310 C1320 0.930 . S
H1311 C1323 0.929 . S
H1312 C1326 0.930 . S
H1313 C1328 0.960 . S
H1314 C1328 0.960 . S
H1315 C1328 0.960 . S
C1316 H1308 0.929 . S
C1316 C1317 1.377 . S
C1316 C1318 1.384 . S
C1317 C1316 1.377 . S
C1317 C1323 1.390 . S
C1318 H1309 0.930 . S
C1318 C1316 1.384 . S
C1318 C1319 1.372 . S
C1319 C1318 1.372 . S
C1319 C1320 1.400 . S
C1319 C1324 1.490 . S
C1320 H1310 0.930 . S
C1320 C1319 1.400 . S
C1320 C1323 1.386 . S
H1321 C1337 0.930 . S
H1322 C1338 0.931 . S
C1323 H1311 0.929 . S
C1323 C1317 1.390 . S
C1323 C1320 1.386 . S
C1324 C1319 1.490 . S
C1324 C1326 1.395 . S
C1324 C1327 1.403 . S
H1325 C1331 0.930 . S
C1326 H1312 0.930 . S
C1326 C1324 1.395 . S
C1326 C1329 1.403 1_545 S
C1327 C1324 1.403 . S
C1327 C1328 1.524 . S
C1327 C1331 1.400 1_545 S
C1328 H1313 0.960 . S
C1328 H1314 0.960 . S
C1328 H1315 0.960 . S
C1328 C1327 1.524 . S
C1329 C1326 1.403 1_565 S
C1329 C1330 1.392 . S
C1329 C1333 1.495 . S
C1330 C1329 1.392 . S
C1330 C1331 1.385 . S
C1330 C1332 1.478 . S
C1331 H1325 0.930 . S
C1331 C1327 1.400 1_565 S
C1331 C1330 1.385 . S
C1332 C1330 1.478 . S
C1332 C1334 1.381 . S
C1332 C1338 1.383 . S
C1333 C1329 1.495 . S
C1333 H1339 0.959 . S
C1333 H1340 0.961 . S
C1333 H1341 0.960 . S
C1334 C1332 1.381 . S
C1334 C1335 1.394 . S
C1334 H1342 0.930 . S
C1335 C1334 1.394 . S
C1335 C1336 1.383 . S
C1335 H1343 0.929 . S
C1336 C1335 1.383 . S
C1336 C1337 1.377 . S
C1337 H1321 0.930 . S
C1337 C1336 1.377 . S
C1337 C1338 1.379 . S
C1338 H1322 0.931 . S
C1338 C1332 1.383 . S
C1338 C1337 1.379 . S
H1339 C1333 0.959 . S
H1340 C1333 0.961 . S
H1341 C1333 0.960 . S
H1342 C1334 0.930 . S
H1343 C1335 0.929 . S
H1344 C1352 0.929 . S
H1345 C1354 0.930 . S
H1346 C1356 0.930 . S
H1347 C1359 0.929 . S
H1348 C1362 0.930 . S
H1349 C1364 0.960 . S
H1350 C1364 0.960 . S
H1351 C1364 0.960 . S
C1352 H1344 0.929 . S
C1352 C1353 1.377 . S
C1352 C1354 1.384 . S
C1353 C1352 1.377 . S
C1353 C1359 1.390 . S
C1354 H1345 0.930 . S
C1354 C1352 1.384 . S
C1354 C1355 1.372 . S
C1355 C1354 1.372 . S
C1355 C1356 1.400 . S
C1355 C1360 1.490 . S
C1356 H1346 0.930 . S
C1356 C1355 1.400 . S
C1356 C1359 1.386 . S
H1357 C1373 0.930 . S
H1358 C1374 0.931 . S
C1359 H1347 0.929 . S
C1359 C1353 1.390 . S
C1359 C1356 1.386 . S
C1360 C1355 1.490 . S
C1360 C1362 1.395 . S
C1360 C1363 1.403 . S
H1361 C1367 0.930 . S
C1362 H1348 0.930 . S
C1362 C1360 1.395 . S
C1362 C1365 1.403 . S
C1363 C1360 1.403 . S
C1363 C1364 1.524 . S
C1363 C1367 1.400 . S
C1364 H1349 0.960 . S
C1364 H1350 0.960 . S
C1364 H1351 0.960 . S
C1364 C1363 1.524 . S
C1365 C1362 1.403 . S
C1365 C1366 1.392 . S
C1365 C1369 1.495 . S
C1366 C1365 1.392 . S
C1366 C1367 1.385 . S
C1366 C1368 1.478 . S
C1367 H1361 0.930 . S
C1367 C1363 1.400 . S
C1367 C1366 1.385 . S
C1368 C1366 1.478 . S
C1368 C1370 1.381 . S
C1368 C1374 1.383 . S
C1369 C1365 1.495 . S
C1369 H1375 0.959 . S
C1369 H1376 0.961 . S
C1369 H1377 0.960 . S
C1370 C1368 1.381 . S
C1370 C1371 1.394 . S
C1370 H1378 0.930 . S
C1371 C1370 1.394 . S
C1371 C1372 1.383 . S
C1371 H1379 0.929 . S
C1372 C1371 1.383 . S
C1372 C1373 1.377 . S
C1373 H1357 0.930 . S
C1373 C1372 1.377 . S
C1373 C1374 1.379 . S
C1374 H1358 0.931 . S
C1374 C1368 1.383 . S
C1374 C1373 1.379 . S
H1375 C1369 0.959 . S
H1376 C1369 0.961 . S
H1377 C1369 0.960 . S
H1378 C1370 0.930 . S
H1379 C1371 0.929 . S
H1380 C1388 0.929 . S
H1381 C1390 0.930 . S
H1382 C1392 0.930 . S
H1383 C1395 0.929 . S
H1384 C1398 0.930 . S
H1385 C1400 0.960 . S
H1386 C1400 0.960 . S
H1387 C1400 0.960 . S
C1388 H1380 0.929 . S
C1388 C1389 1.377 . S
C1388 C1390 1.384 . S
C1389 C1388 1.377 . S
C1389 C1395 1.390 . S
C1390 H1381 0.930 . S
C1390 C1388 1.384 . S
C1390 C1391 1.372 . S
C1391 C1390 1.372 . S
C1391 C1392 1.400 . S
C1391 C1396 1.490 . S
C1392 H1382 0.930 . S
C1392 C1391 1.400 . S
C1392 C1395 1.386 . S
H1393 C1409 0.930 . S
H1394 C1410 0.931 . S
C1395 H1383 0.929 . S
C1395 C1389 1.390 . S
C1395 C1392 1.386 . S
C1396 C1391 1.490 . S
C1396 C1398 1.395 . S
C1396 C1399 1.403 . S
H1397 C1403 0.930 . S
C1398 H1384 0.930 . S
C1398 C1396 1.395 . S
C1398 C1401 1.403 . S
C1399 C1396 1.403 . S
C1399 C1400 1.524 . S
C1399 C1403 1.400 . S
C1400 H1385 0.960 . S
C1400 H1386 0.960 . S
C1400 H1387 0.960 . S
C1400 C1399 1.524 . S
C1401 C1398 1.403 . S
C1401 C1402 1.392 . S
C1401 C1405 1.495 . S
C1402 C1401 1.392 . S
C1402 C1403 1.385 . S
C1402 C1404 1.478 . S
C1403 H1397 0.930 . S
C1403 C1399 1.400 . S
C1403 C1402 1.385 . S
C1404 C1402 1.478 . S
C1404 C1406 1.381 . S
C1404 C1410 1.383 . S
C1405 C1401 1.495 . S
C1405 H1411 0.959 . S
C1405 H1412 0.961 . S
C1405 H1413 0.960 . S
C1406 C1404 1.381 . S
C1406 C1407 1.394 . S
C1406 H1414 0.930 . S
C1407 C1406 1.394 . S
C1407 C1408 1.383 . S
C1407 H1415 0.929 . S
C1408 C1407 1.383 . S
C1408 C1409 1.377 . S
C1409 H1393 0.930 . S
C1409 C1408 1.377 . S
C1409 C1410 1.379 . S
C1410 H1394 0.931 . S
C1410 C1404 1.383 . S
C1410 C1409 1.379 . S
H1411 C1405 0.959 . S
H1412 C1405 0.961 . S
H1413 C1405 0.960 . S
H1414 C1406 0.930 . S
H1415 C1407 0.929 . S
H1416 C1424 0.929 . S
H1417 C1426 0.930 . S
H1418 C1428 0.930 . S
H1419 C1431 0.929 . S
H1420 C1434 0.930 . S
H1421 C1436 0.960 . S
H1422 C1436 0.960 . S
H1423 C1436 0.960 . S
C1424 H1416 0.929 . S
C1424 C1425 1.377 . S
C1424 C1426 1.384 . S
C1425 C1424 1.377 . S
C1425 C1431 1.390 . S
C1426 H1417 0.930 . S
C1426 C1424 1.384 . S
C1426 C1427 1.372 . S
C1427 C1426 1.372 . S
C1427 C1428 1.400 . S
C1427 C1432 1.490 . S
C1428 H1418 0.930 . S
C1428 C1427 1.400 . S
C1428 C1431 1.386 . S
H1429 C1445 0.930 . S
H1430 C1446 0.931 . S
C1431 H1419 0.929 . S
C1431 C1425 1.390 . S
C1431 C1428 1.386 . S
C1432 C1427 1.490 . S
C1432 C1434 1.395 . S
C1432 C1435 1.403 . S
H1433 C1439 0.930 . S
C1434 H1420 0.930 . S
C1434 C1432 1.395 . S
C1434 C1437 1.403 . S
C1435 C1432 1.403 . S
C1435 C1436 1.524 . S
C1435 C1439 1.400 . S
C1436 H1421 0.960 . S
C1436 H1422 0.960 . S
C1436 H1423 0.960 . S
C1436 C1435 1.524 . S
C1437 C1434 1.403 . S
C1437 C1438 1.392 . S
C1437 C1441 1.495 . S
C1438 C1437 1.392 . S
C1438 C1439 1.385 . S
C1438 C1440 1.478 . S
C1439 H1433 0.930 . S
C1439 C1435 1.400 . S
C1439 C1438 1.385 . S
C1440 C1438 1.478 . S
C1440 C1442 1.381 . S
C1440 C1446 1.383 . S
C1441 C1437 1.495 . S
C1441 H1447 0.959 . S
C1441 H1448 0.961 . S
C1441 H1449 0.960 . S
C1442 C1440 1.381 . S
C1442 C1443 1.394 . S
C1442 H1450 0.930 . S
C1443 C1442 1.394 . S
C1443 C1444 1.383 . S
C1443 H1451 0.929 . S
C1444 C1443 1.383 . S
C1444 C1445 1.377 . S
C1445 H1429 0.930 . S
C1445 C1444 1.377 . S
C1445 C1446 1.379 . S
C1446 H1430 0.931 . S
C1446 C1440 1.383 . S
C1446 C1445 1.379 . S
H1447 C1441 0.959 . S
H1448 C1441 0.961 . S
H1449 C1441 0.960 . S
H1450 C1442 0.930 . S
H1451 C1443 0.929 . S
H1452 C1460 0.929 . S
H1453 C1462 0.930 . S
H1454 C1464 0.930 . S
H1455 C1467 0.929 . S
H1456 C1470 0.930 . S
H1457 C1472 0.960 . S
H1458 C1472 0.960 . S
H1459 C1472 0.960 . S
C1460 H1452 0.929 . S
C1460 C1461 1.377 . S
C1460 C1462 1.384 . S
C1461 C1460 1.377 . S
C1461 C1467 1.390 . S
C1462 H1453 0.930 . S
C1462 C1460 1.384 . S
C1462 C1463 1.372 . S
C1463 C1462 1.372 . S
C1463 C1464 1.400 . S
C1463 C1468 1.490 . S
C1464 H1454 0.930 . S
C1464 C1463 1.400 . S
C1464 C1467 1.386 . S
H1465 C1481 0.930 . S
H1466 C1482 0.931 . S
C1467 H1455 0.929 . S
C1467 C1461 1.390 . S
C1467 C1464 1.386 . S
C1468 C1463 1.490 . S
C1468 C1470 1.395 . S
C1468 C1471 1.403 . S
H1469 C1475 0.930 . S
C1470 H1456 0.930 . S
C1470 C1468 1.395 . S
C1470 C1473 1.403 . S
C1471 C1468 1.403 . S
C1471 C1472 1.524 . S
C1471 C1475 1.400 . S
C1472 H1457 0.960 . S
C1472 H1458 0.960 . S
C1472 H1459 0.960 . S
C1472 C1471 1.524 . S
C1473 C1470 1.403 . S
C1473 C1474 1.392 . S
C1473 C1477 1.495 . S
C1474 C1473 1.392 . S
C1474 C1475 1.385 . S
C1474 C1476 1.478 . S
C1475 H1469 0.930 . S
C1475 C1471 1.400 . S
C1475 C1474 1.385 . S
C1476 C1474 1.478 . S
C1476 C1478 1.381 . S
C1476 C1482 1.383 . S
C1477 C1473 1.495 . S
C1477 H1483 0.959 . S
C1477 H1484 0.961 . S
C1477 H1485 0.960 . S
C1478 C1476 1.381 . S
C1478 C1479 1.394 . S
C1478 H1486 0.930 . S
C1479 C1478 1.394 . S
C1479 C1480 1.383 . S
C1479 H1487 0.929 . S
C1480 C1479 1.383 . S
C1480 C1481 1.377 . S
C1481 H1465 0.930 . S
C1481 C1480 1.377 . S
C1481 C1482 1.379 . S
C1482 H1466 0.931 . S
C1482 C1476 1.383 . S
C1482 C1481 1.379 . S
H1483 C1477 0.959 . S
H1484 C1477 0.961 . S
H1485 C1477 0.960 . S
H1486 C1478 0.930 . S
H1487 C1479 0.929 . S
H1488 C1496 0.929 . S
H1489 C1498 0.930 . S
H1490 C1500 0.930 . S
H1491 C1503 0.929 . S
H1492 C1506 0.930 . S
H1493 C1508 0.960 . S
H1494 C1508 0.960 . S
H1495 C1508 0.960 . S
C1496 H1488 0.929 . S
C1496 C1497 1.377 . S
C1496 C1498 1.384 . S
C1497 C1496 1.377 . S
C1497 C1503 1.390 . S
C1498 H1489 0.930 . S
C1498 C1496 1.384 . S
C1498 C1499 1.372 . S
C1499 C1498 1.372 . S
C1499 C1500 1.400 . S
C1499 C1504 1.490 . S
C1500 H1490 0.930 . S
C1500 C1499 1.400 . S
C1500 C1503 1.386 . S
H1501 C1517 0.930 . S
H1502 C1518 0.931 . S
C1503 H1491 0.929 . S
C1503 C1497 1.390 . S
C1503 C1500 1.386 . S
C1504 C1499 1.490 . S
C1504 C1506 1.395 . S
C1504 C1507 1.403 . S
H1505 C1511 0.930 . S
C1506 H1492 0.930 . S
C1506 C1504 1.395 . S
C1506 C1509 1.403 . S
C1507 C1504 1.403 . S
C1507 C1508 1.524 . S
C1507 C1511 1.400 . S
C1508 H1493 0.960 . S
C1508 H1494 0.960 . S
C1508 H1495 0.960 . S
C1508 C1507 1.524 . S
C1509 C1506 1.403 . S
C1509 C1510 1.392 . S
C1509 C1513 1.495 . S
C1510 C1509 1.392 . S
C1510 C1511 1.385 . S
C1510 C1512 1.478 . S
C1511 H1505 0.930 . S
C1511 C1507 1.400 . S
C1511 C1510 1.385 . S
C1512 C1510 1.478 . S
C1512 C1514 1.381 . S
C1512 C1518 1.383 . S
C1513 C1509 1.495 . S
C1513 H1519 0.959 . S
C1513 H1520 0.961 . S
C1513 H1521 0.960 . S
C1514 C1512 1.381 . S
C1514 C1515 1.394 . S
C1514 H1522 0.930 . S
C1515 C1514 1.394 . S
C1515 C1516 1.383 . S
C1515 H1523 0.929 . S
C1516 C1515 1.383 . S
C1516 C1517 1.377 . S
C1517 H1501 0.930 . S
C1517 C1516 1.377 . S
C1517 C1518 1.379 . S
C1518 H1502 0.931 . S
C1518 C1512 1.383 . S
C1518 C1517 1.379 . S
H1519 C1513 0.959 . S
H1520 C1513 0.961 . S
H1521 C1513 0.960 . S
H1522 C1514 0.930 . S
H1523 C1515 0.929 . S
H1524 C1532 0.929 . S
H1525 C1534 0.930 . S
H1526 C1536 0.930 . S
H1527 C1539 0.929 . S
H1528 C1542 0.930 . S
H1529 C1544 0.960 . S
H1530 C1544 0.960 . S
H1531 C1544 0.960 . S
C1532 H1524 0.929 . S
C1532 C1533 1.377 . S
C1532 C1534 1.384 . S
C1533 C1532 1.377 . S
C1533 C1539 1.390 . S
C1534 H1525 0.930 . S
C1534 C1532 1.384 . S
C1534 C1535 1.372 . S
C1535 C1534 1.372 . S
C1535 C1536 1.400 . S
C1535 C1540 1.490 . S
C1536 H1526 0.930 . S
C1536 C1535 1.400 . S
C1536 C1539 1.386 . S
H1537 C1553 0.930 . S
H1538 C1554 0.931 . S
C1539 H1527 0.929 . S
C1539 C1533 1.390 . S
C1539 C1536 1.386 . S
C1540 C1535 1.490 . S
C1540 C1542 1.395 . S
C1540 C1543 1.403 . S
H1541 C1547 0.930 . S
C1542 H1528 0.930 . S
C1542 C1540 1.395 . S
C1542 C1545 1.403 . S
C1543 C1540 1.403 . S
C1543 C1544 1.524 . S
C1543 C1547 1.400 . S
C1544 H1529 0.960 . S
C1544 H1530 0.960 . S
C1544 H1531 0.960 . S
C1544 C1543 1.524 . S
C1545 C1542 1.403 . S
C1545 C1546 1.392 . S
C1545 C1549 1.495 . S
C1546 C1545 1.392 . S
C1546 C1547 1.385 . S
C1546 C1548 1.478 . S
C1547 H1541 0.930 . S
C1547 C1543 1.400 . S
C1547 C1546 1.385 . S
C1548 C1546 1.478 . S
C1548 C1550 1.381 . S
C1548 C1554 1.383 . S
C1549 C1545 1.495 . S
C1549 H1555 0.959 . S
C1549 H1556 0.961 . S
C1549 H1557 0.960 . S
C1550 C1548 1.381 . S
C1550 C1551 1.394 . S
C1550 H1558 0.930 . S
C1551 C1550 1.394 . S
C1551 C1552 1.383 . S
C1551 H1559 0.929 . S
C1552 C1551 1.383 . S
C1552 C1553 1.377 . S
C1553 H1537 0.930 . S
C1553 C1552 1.377 . S
C1553 C1554 1.379 . S
C1554 H1538 0.931 . S
C1554 C1548 1.383 . S
C1554 C1553 1.379 . S
H1555 C1549 0.959 . S
H1556 C1549 0.961 . S
H1557 C1549 0.960 . S
H1558 C1550 0.930 . S
H1559 C1551 0.929 . S
H1560 C1568 0.929 . S
H1561 C1570 0.930 . S
H1562 C1572 0.930 . S
H1563 C1575 0.929 . S
H1564 C1578 0.930 . S
H1565 C1580 0.960 1_655 S
H1566 C1580 0.960 . S
H1567 C1580 0.960 . S
C1568 H1560 0.929 . S
C1568 C1569 1.377 . S
C1568 C1570 1.384 . S
C1569 C1568 1.377 . S
C1569 C1575 1.390 . S
C1570 H1561 0.930 . S
C1570 C1568 1.384 . S
C1570 C1571 1.372 . S
C1571 C1570 1.372 . S
C1571 C1572 1.400 . S
C1571 C1576 1.490 . S
C1572 H1562 0.930 . S
C1572 C1571 1.400 . S
C1572 C1575 1.386 . S
H1573 C1589 0.930 . S
H1574 C1590 0.931 . S
C1575 H1563 0.929 . S
C1575 C1569 1.390 . S
C1575 C1572 1.386 . S
C1576 C1571 1.490 . S
C1576 C1578 1.395 . S
C1576 C1579 1.403 . S
H1577 C1583 0.930 . S
C1578 H1564 0.930 . S
C1578 C1576 1.395 . S
C1578 C1581 1.403 1_455 S
C1579 C1576 1.403 . S
C1579 C1580 1.524 . S
C1579 C1583 1.400 1_455 S
C1580 H1565 0.960 1_455 S
C1580 H1566 0.960 . S
C1580 H1567 0.960 . S
C1580 C1579 1.524 . S
C1581 C1578 1.403 1_655 S
C1581 C1582 1.392 . S
C1581 C1585 1.495 . S
C1582 C1581 1.392 . S
C1582 C1583 1.385 . S
C1582 C1584 1.478 . S
C1583 H1577 0.930 . S
C1583 C1579 1.400 1_655 S
C1583 C1582 1.385 . S
C1584 C1582 1.478 . S
C1584 C1586 1.381 . S
C1584 C1590 1.383 . S
C1585 C1581 1.495 . S
C1585 H1591 0.959 1_655 S
C1585 H1592 0.961 . S
C1585 H1593 0.960 . S
C1586 C1584 1.381 . S
C1586 C1587 1.394 . S
C1586 H1594 0.930 . S
C1587 C1586 1.394 . S
C1587 C1588 1.383 . S
C1587 H1595 0.929 . S
C1588 C1587 1.383 . S
C1588 C1589 1.377 . S
C1589 H1573 0.930 . S
C1589 C1588 1.377 . S
C1589 C1590 1.379 . S
C1590 H1574 0.931 . S
C1590 C1584 1.383 . S
C1590 C1589 1.379 . S
H1591 C1585 0.959 1_455 S
H1592 C1585 0.961 . S
H1593 C1585 0.960 . S
H1594 C1586 0.930 . S
H1595 C1587 0.929 . S
H1596 C1604 0.929 . S
H1597 C1606 0.930 . S
H1598 C1608 0.930 . S
H1599 C1611 0.929 . S
H1600 C1614 0.930 . S
H1601 C1616 0.960 . S
H1602 C1616 0.960 . S
H1603 C1616 0.960 . S
C1604 H1596 0.929 . S
C1604 C1605 1.377 . S
C1604 C1606 1.384 . S
C1605 C1604 1.377 . S
C1605 C1611 1.390 . S
C1606 H1597 0.930 . S
C1606 C1604 1.384 . S
C1606 C1607 1.372 . S
C1607 C1606 1.372 . S
C1607 C1608 1.400 . S
C1607 C1612 1.490 . S
C1608 H1598 0.930 . S
C1608 C1607 1.400 . S
C1608 C1611 1.386 . S
H1609 C1625 0.930 . S
H1610 C1626 0.931 . S
C1611 H1599 0.929 . S
C1611 C1605 1.390 . S
C1611 C1608 1.386 . S
C1612 C1607 1.490 . S
C1612 C1614 1.395 . S
C1612 C1615 1.403 . S
H1613 C1619 0.930 . S
C1614 H1600 0.930 . S
C1614 C1612 1.395 . S
C1614 C1617 1.403 . S
C1615 C1612 1.403 . S
C1615 C1616 1.524 . S
C1615 C1619 1.400 . S
C1616 H1601 0.960 . S
C1616 H1602 0.960 . S
C1616 H1603 0.960 . S
C1616 C1615 1.524 . S
C1617 C1614 1.403 . S
C1617 C1618 1.392 . S
C1617 C1621 1.495 . S
C1618 C1617 1.392 . S
C1618 C1619 1.385 . S
C1618 C1620 1.478 . S
C1619 H1613 0.930 . S
C1619 C1615 1.400 . S
C1619 C1618 1.385 . S
C1620 C1618 1.478 . S
C1620 C1622 1.381 . S
C1620 C1626 1.383 . S
C1621 C1617 1.495 . S
C1621 H1627 0.959 . S
C1621 H1628 0.961 . S
C1621 H1629 0.960 . S
C1622 C1620 1.381 . S
C1622 C1623 1.394 . S
C1622 H1630 0.930 . S
C1623 C1622 1.394 . S
C1623 C1624 1.383 . S
C1623 H1631 0.929 . S
C1624 C1623 1.383 . S
C1624 C1625 1.377 . S
C1625 H1609 0.930 . S
C1625 C1624 1.377 . S
C1625 C1626 1.379 . S
C1626 H1610 0.931 . S
C1626 C1620 1.383 . S
C1626 C1625 1.379 . S
H1627 C1621 0.959 . S
H1628 C1621 0.961 . S
H1629 C1621 0.960 . S
H1630 C1622 0.930 . S
H1631 C1623 0.929 . S
H1632 C1640 0.929 . S
H1633 C1642 0.930 . S
H1634 C1644 0.930 . S
H1635 C1647 0.929 . S
H1636 C1650 0.930 . S
H1637 C1652 0.960 . S
H1638 C1652 0.960 . S
H1639 C1652 0.960 . S
C1640 H1632 0.929 . S
C1640 C1641 1.377 . S
C1640 C1642 1.384 . S
C1641 C1640 1.377 . S
C1641 C1647 1.390 . S
C1642 H1633 0.930 . S
C1642 C1640 1.384 . S
C1642 C1643 1.372 . S
C1643 C1642 1.372 . S
C1643 C1644 1.400 . S
C1643 C1648 1.490 . S
C1644 H1634 0.930 . S
C1644 C1643 1.400 . S
C1644 C1647 1.386 . S
H1645 C1661 0.930 . S
H1646 C1662 0.931 . S
C1647 H1635 0.929 . S
C1647 C1641 1.390 . S
C1647 C1644 1.386 . S
C1648 C1643 1.490 . S
C1648 C1650 1.395 . S
C1648 C1651 1.403 . S
H1649 C1655 0.930 . S
C1650 H1636 0.930 . S
C1650 C1648 1.395 . S
C1650 C1653 1.403 . S
C1651 C1648 1.403 . S
C1651 C1652 1.524 . S
C1651 C1655 1.400 . S
C1652 H1637 0.960 . S
C1652 H1638 0.960 . S
C1652 H1639 0.960 . S
C1652 C1651 1.524 . S
C1653 C1650 1.403 . S
C1653 C1654 1.392 . S
C1653 C1657 1.495 . S
C1654 C1653 1.392 . S
C1654 C1655 1.385 . S
C1654 C1656 1.478 . S
C1655 H1649 0.930 . S
C1655 C1651 1.400 . S
C1655 C1654 1.385 . S
C1656 C1654 1.478 . S
C1656 C1658 1.381 . S
C1656 C1662 1.383 . S
C1657 C1653 1.495 . S
C1657 H1663 0.959 . S
C1657 H1664 0.961 . S
C1657 H1665 0.960 . S
C1658 C1656 1.381 . S
C1658 C1659 1.394 . S
C1658 H1666 0.930 . S
C1659 C1658 1.394 . S
C1659 C1660 1.383 . S
C1659 H1667 0.929 . S
C1660 C1659 1.383 . S
C1660 C1661 1.377 . S
C1661 H1645 0.930 . S
C1661 C1660 1.377 . S
C1661 C1662 1.379 . S
C1662 H1646 0.931 . S
C1662 C1656 1.383 . S
C1662 C1661 1.379 . S
H1663 C1657 0.959 . S
H1664 C1657 0.961 . S
H1665 C1657 0.960 . S
H1666 C1658 0.930 . S
H1667 C1659 0.929 . S
H1668 C1676 0.929 . S
H1669 C1678 0.930 . S
H1670 C1680 0.930 . S
H1671 C1683 0.929 . S
H1672 C1686 0.930 . S
H1673 C1688 0.960 . S
H1674 C1688 0.960 . S
H1675 C1688 0.960 . S
C1676 H1668 0.929 . S
C1676 C1677 1.377 . S
C1676 C1678 1.384 . S
C1677 C1676 1.377 . S
C1677 C1683 1.390 . S
C1678 H1669 0.930 . S
C1678 C1676 1.384 . S
C1678 C1679 1.372 . S
C1679 C1678 1.372 . S
C1679 C1680 1.400 . S
C1679 C1684 1.490 . S
C1680 H1670 0.930 . S
C1680 C1679 1.400 . S
C1680 C1683 1.386 . S
H1681 C1697 0.930 . S
H1682 C1698 0.931 . S
C1683 H1671 0.929 . S
C1683 C1677 1.390 . S
C1683 C1680 1.386 . S
C1684 C1679 1.490 . S
C1684 C1686 1.395 . S
C1684 C1687 1.403 . S
H1685 C1691 0.930 . S
C1686 H1672 0.930 . S
C1686 C1684 1.395 . S
C1686 C1689 1.403 . S
C1687 C1684 1.403 . S
C1687 C1688 1.524 . S
C1687 C1691 1.400 . S
C1688 H1673 0.960 . S
C1688 H1674 0.960 . S
C1688 H1675 0.960 . S
C1688 C1687 1.524 . S
C1689 C1686 1.403 . S
C1689 C1690 1.392 . S
C1689 C1693 1.495 . S
C1690 C1689 1.392 . S
C1690 C1691 1.385 . S
C1690 C1692 1.478 . S
C1691 H1685 0.930 . S
C1691 C1687 1.400 . S
C1691 C1690 1.385 . S
C1692 C1690 1.478 . S
C1692 C1694 1.381 . S
C1692 C1698 1.383 . S
C1693 C1689 1.495 . S
C1693 H1699 0.959 . S
C1693 H1700 0.961 . S
C1693 H1701 0.960 . S
C1694 C1692 1.381 . S
C1694 C1695 1.394 . S
C1694 H1702 0.930 . S
C1695 C1694 1.394 . S
C1695 C1696 1.383 . S
C1695 H1703 0.929 . S
C1696 C1695 1.383 . S
C1696 C1697 1.377 . S
C1697 H1681 0.930 . S
C1697 C1696 1.377 . S
C1697 C1698 1.379 . S
C1698 H1682 0.931 . S
C1698 C1692 1.383 . S
C1698 C1697 1.379 . S
H1699 C1693 0.959 . S
H1700 C1693 0.961 . S
H1701 C1693 0.960 . S
H1702 C1694 0.930 . S
H1703 C1695 0.929 . S
H1704 C1712 0.929 . S
H1705 C1714 0.930 . S
H1706 C1716 0.930 . S
H1707 C1719 0.927 1_554 S
H1708 C1722 0.930 . S
H1709 C1724 0.960 . S
H1710 C1724 0.960 . S
H1711 C1724 0.936 1_554 S
C1712 H1704 0.929 . S
C1712 C1713 1.377 . S
C1712 C1714 1.384 . S
C1713 C1712 1.377 . S
C1713 C1719 1.390 . S
C1714 H1705 0.930 . S
C1714 C1712 1.384 . S
C1714 C1715 1.372 . S
C1715 C1714 1.372 . S
C1715 C1716 1.400 . S
C1715 C1720 1.490 . S
C1716 H1706 0.930 . S
C1716 C1715 1.400 . S
C1716 C1719 1.386 . S
H1717 C1733 0.930 . S
H1718 C1734 0.931 . S
C1719 H1707 0.927 1_556 S
C1719 C1713 1.390 . S
C1719 C1716 1.386 . S
C1720 C1715 1.490 . S
C1720 C1722 1.395 . S
C1720 C1723 1.403 . S
H1721 C1727 0.930 . S
C1722 H1708 0.930 . S
C1722 C1720 1.395 . S
C1722 C1725 1.403 . S
C1723 C1720 1.403 . S
C1723 C1724 1.524 . S
C1723 C1727 1.400 . S
C1724 H1709 0.960 . S
C1724 H1710 0.960 . S
C1724 H1711 0.936 1_556 S
C1724 C1723 1.524 . S
C1725 C1722 1.403 . S
C1725 C1726 1.392 . S
C1725 C1729 1.495 . S
C1726 C1725 1.392 . S
C1726 C1727 1.385 . S
C1726 C1728 1.478 . S
C1727 H1721 0.930 . S
C1727 C1723 1.400 . S
C1727 C1726 1.385 . S
C1728 C1726 1.478 . S
C1728 C1730 1.381 . S
C1728 C1734 1.383 . S
C1729 C1725 1.495 . S
C1729 H1735 0.959 . S
C1729 H1736 0.961 . S
C1729 H1737 0.960 . S
C1730 C1728 1.381 . S
C1730 C1731 1.394 . S
C1730 H1738 0.930 . S
C1731 C1730 1.394 . S
C1731 C1732 1.383 . S
C1731 H1739 0.929 . S
C1732 C1731 1.383 . S
C1732 C1733 1.377 . S
C1733 H1717 0.930 . S
C1733 C1732 1.377 . S
C1733 C1734 1.379 . S
C1734 H1718 0.931 . S
C1734 C1728 1.383 . S
C1734 C1733 1.379 . S
H1735 C1729 0.959 . S
H1736 C1729 0.961 . S
H1737 C1729 0.960 . S
H1738 C1730 0.930 . S
H1739 C1731 0.929 . S
H1740 C1748 0.929 . S
H1741 C1750 0.930 . S
H1742 C1752 0.930 . S
H1743 C1755 0.929 . S
H1744 C1758 0.930 . S
H1745 C1760 0.960 . S
H1746 C1760 0.960 . S
H1747 C1760 0.960 . S
C1748 H1740 0.929 . S
C1748 C1749 1.377 . S
C1748 C1750 1.384 . S
C1749 C1748 1.377 . S
C1749 C1755 1.390 . S
C1750 H1741 0.930 . S
C1750 C1748 1.384 . S
C1750 C1751 1.372 . S
C1751 C1750 1.372 . S
C1751 C1752 1.400 . S
C1751 C1756 1.490 . S
C1752 H1742 0.930 . S
C1752 C1751 1.400 . S
C1752 C1755 1.386 . S
H1753 C1769 0.930 . S
H1754 C1770 0.931 1_655 S
C1755 H1743 0.929 . S
C1755 C1749 1.390 . S
C1755 C1752 1.386 . S
C1756 C1751 1.490 . S
C1756 C1758 1.395 . S
C1756 C1759 1.403 . S
H1757 C1763 0.930 . S
C1758 H1744 0.930 . S
C1758 C1756 1.395 . S
C1758 C1761 1.403 . S
C1759 C1756 1.403 . S
C1759 C1760 1.524 . S
C1759 C1763 1.400 . S
C1760 H1745 0.960 . S
C1760 H1746 0.960 . S
C1760 H1747 0.960 . S
C1760 C1759 1.524 . S
C1761 C1758 1.403 . S
C1761 C1762 1.392 . S
C1761 C1765 1.495 1_655 S
C1762 C1761 1.392 . S
C1762 C1763 1.385 . S
C1762 C1764 1.478 1_655 S
C1763 H1757 0.930 . S
C1763 C1759 1.400 . S
C1763 C1762 1.385 . S
C1764 C1762 1.478 1_455 S
C1764 C1766 1.381 . S
C1764 C1770 1.383 . S
C1765 C1761 1.495 1_455 S
C1765 H1771 0.959 1_455 S
C1765 H1772 0.961 . S
C1765 H1773 0.960 . S
C1766 C1764 1.381 . S
C1766 C1767 1.394 . S
C1766 H1774 0.930 . S
C1767 C1766 1.394 . S
C1767 C1768 1.383 . S
C1767 H1775 0.929 . S
C1768 C1767 1.383 . S
C1768 C1769 1.377 . S
C1769 H1753 0.930 . S
C1769 C1768 1.377 . S
C1769 C1770 1.379 . S
C1770 H1754 0.931 1_455 S
C1770 C1764 1.383 . S
C1770 C1769 1.379 . S
H1771 C1765 0.959 1_655 S
H1772 C1765 0.961 . S
H1773 C1765 0.960 . S
H1774 C1766 0.930 . S
H1775 C1767 0.929 . S
C489 C20 1.513 . S
C508 C460 1.526 . S
C525 C380 1.606 . S
C544 C42 1.636 . S
C561 C100 1.341 . S
C580 C322 1.396 . S
C597 C122 1.636 . S
C616 C420 1.587 1_545 S
C633 C180 1.667 . S
C652 C402 1.686 . S
C669 C220 1.340 1_455 S
C688 C442 1.373 . S
C705 C362 1.447 1_565 S
C724 C242 1.448 . S
C741 C282 1.380 . S
C760 C340 1.330 . S
C777 C140 1.444 . S
C796 C162 1.461 . S
C813 C2 1.391 . S
C832 C202 1.410 . S
C849 C60 1.617 . S
C868 C260 1.631 . S
C885 C300 1.522 . S
C904 C82 1.576 . S
C921 C4 1.821 . S
C940 C343 1.808 . S
C957 C65 1.089 . S
C976 C431 1.086 . S
C993 C471 1.721 . S
C1012 C84 1.689 . S
C1029 C145 1.611 . S
C1048 C391 1.609 . S
C1065 C164 1.261 . S
C1084 C383 1.215 . S
C1101 C351 1.957 . S
C1120 C204 1.909 . S
C1137 C423 1.694 . S
C1156 C265 1.740 . S
C1173 C463 1.033 . S
C1192 C305 1.039 . S
C1209 C23 1.389 . S
C1228 C124 1.398 . S
C1245 C25 1.129 . S
C1264 C71 1.133 . S
C1281 C44 1.309 . S
C1300 C103 1.286 . S
C1317 C151 1.095 . S
C1336 C105 1.080 . S
C1353 C225 1.866 . S
C1372 C183 1.826 . S
C1389 C223 1.543 . S
C1408 C244 1.547 . S
C1425 C271 1.896 . S
C1444 C284 1.864 . S
C1461 C185 1.825 . S
C1480 C311 1.828 . S
C1497 C324 1.893 . S
C1516 C143 1.904 . S
C1533 C231 2.133 . S
C1552 C364 2.082 . S
C1569 C345 1.455 . S
C1588 C263 1.397 . S
C1605 C404 1.253 . S
C1624 C303 1.270 . S
C1641 C191 1.115 . S
C1660 C444 1.061 . S
C1677 C465 1.253 . S
C1696 C63 1.202 . S
C1713 C111 1.329 . S
C1732 C385 1.332 . S
C1749 C425 1.700 . S
C1768 C31 1.698 . S
