# Generated by pormake.
# Topology ukh, (4)-cn, num edge types: 1
# Building blocks:
#     Node 0, Type 0, BuildingBlock: AZAVOO_clean_sbu_0, # of connection points: 4
#     Node 1, Type 0, BuildingBlock: AZAVOO_clean_sbu_0, # of connection points: 4
#     Node 2, Type 0, BuildingBlock: AZAVOO_clean_sbu_0, # of connection points: 4
#     Node 3, Type 0, BuildingBlock: AZAVOO_clean_sbu_0, # of connection points: 4
#     Node 4, Type 0, BuildingBlock: AZAVOO_clean_sbu_0, # of connection points: 4
#     Node 5, Type 0, BuildingBlock: AZAVOO_clean_sbu_0, # of connection points: 4
#     Node 6, Type 0, BuildingBlock: AZAVOO_clean_sbu_0, # of connection points: 4
#     Node 7, Type 0, BuildingBlock: AZAVOO_clean_sbu_0, # of connection points: 4
#     Node 8, Type 0, BuildingBlock: AZAVOO_clean_sbu_0, # of connection points: 4
#     Node 9, Type 0, BuildingBlock: AZAVOO_clean_sbu_0, # of connection points: 4
#     Node 10, Type 0, BuildingBlock: AZAVOO_clean_sbu_0, # of connection points: 4
#     Node 11, Type 0, BuildingBlock: AZAVOO_clean_sbu_0, # of connection points: 4
#     Edge 12, Type (0, 0), BuildingBlock: XUDNAN_clean_linker_2, # of connection points: 2
#     Edge 13, Type (0, 0), BuildingBlock: XUDNAN_clean_linker_2, # of connection points: 2
#     Edge 14, Type (0, 0), BuildingBlock: XUDNAN_clean_linker_2, # of connection points: 2
#     Edge 15, Type (0, 0), BuildingBlock: XUDNAN_clean_linker_2, # of connection points: 2
#     Edge 16, Type (0, 0), BuildingBlock: XUDNAN_clean_linker_2, # of connection points: 2
#     Edge 17, Type (0, 0), BuildingBlock: XUDNAN_clean_linker_2, # of connection points: 2
#     Edge 18, Type (0, 0), BuildingBlock: XUDNAN_clean_linker_2, # of connection points: 2
#     Edge 19, Type (0, 0), BuildingBlock: XUDNAN_clean_linker_2, # of connection points: 2
#     Edge 20, Type (0, 0), BuildingBlock: XUDNAN_clean_linker_2, # of connection points: 2
#     Edge 21, Type (0, 0), BuildingBlock: XUDNAN_clean_linker_2, # of connection points: 2
#     Edge 22, Type (0, 0), BuildingBlock: XUDNAN_clean_linker_2, # of connection points: 2
#     Edge 23, Type (0, 0), BuildingBlock: XUDNAN_clean_linker_2, # of connection points: 2
#     Edge 24, Type (0, 0), BuildingBlock: XUDNAN_clean_linker_2, # of connection points: 2
#     Edge 25, Type (0, 0), BuildingBlock: XUDNAN_clean_linker_2, # of connection points: 2
#     Edge 26, Type (0, 0), BuildingBlock: XUDNAN_clean_linker_2, # of connection points: 2
#     Edge 27, Type (0, 0), BuildingBlock: XUDNAN_clean_linker_2, # of connection points: 2
#     Edge 28, Type (0, 0), BuildingBlock: XUDNAN_clean_linker_2, # of connection points: 2
#     Edge 29, Type (0, 0), BuildingBlock: XUDNAN_clean_linker_2, # of connection points: 2
#     Edge 30, Type (0, 0), BuildingBlock: XUDNAN_clean_linker_2, # of connection points: 2
#     Edge 31, Type (0, 0), BuildingBlock: XUDNAN_clean_linker_2, # of connection points: 2
#     Edge 32, Type (0, 0), BuildingBlock: XUDNAN_clean_linker_2, # of connection points: 2
#     Edge 33, Type (0, 0), BuildingBlock: XUDNAN_clean_linker_2, # of connection points: 2
#     Edge 34, Type (0, 0), BuildingBlock: XUDNAN_clean_linker_2, # of connection points: 2
#     Edge 35, Type (0, 0), BuildingBlock: XUDNAN_clean_linker_2, # of connection points: 2
# Relax obj value: 0.220
# Max RMSD: 0.237
# Mean RMSD: 0.237
data_MOF--net-ukh--node1-AZAVOO_clean_sbu_0--edge1-XUDNAN_clean_linker_2
_symmetry_space_group_name_H-M    P1
_symmetry_Int_Tables_number       1
_symmetry_cell_setting            triclinic
loop_
_symmetry_equiv_pos_as_xyz
'x, y, z'
_cell_length_a     31.461961
_cell_length_b     31.432975
_cell_length_c     61.289689
_cell_angle_alpha  90.07313
_cell_angle_beta   90.000945
_cell_angle_gamma 119.87915
loop_
_atom_site_label
_atom_site_type_symbol
_atom_site_fract_x
_atom_site_fract_y
_atom_site_fract_z
_atom_type_partial_charge
Mg0 Mg 0.34529 0.21192 0.036 0.0
O1 O 0.27932 0.21513 0.02127 0.0
O2 O 0.21272 0.15922 0.03902 0.0
Mg3 Mg 0.23464 0.12059 0.0644 0.0
C4 C 0.23308 0.19261 0.02459 0.0
C5 C 0.44075 0.29531 0.01464 0.0
O6 O 0.45207 0.26037 0.01379 0.0
O7 O 0.34333 0.25085 0.0666 0.0
O8 O 0.27936 0.19103 0.08429 0.0
O9 O 0.33623 0.15153 0.01339 0.0
O10 O 0.30123 0.14002 0.04563 0.0
C11 C 0.31626 0.23444 0.08346 0.0
C12 C 0.30848 0.12146 0.02839 0.0
O13 O 0.39832 0.28516 0.02103 0.0
Mg14 Mg 0.10633 0.35582 0.36458 0.0
O15 O 0.03496 0.28151 0.3572 0.0
O16 O 0.0552 0.2235 0.36289 0.0
Mg17 Mg 0.13368 0.25563 0.37444 0.0
C18 C 0.02429 0.23643 0.35718 0.0
C19 C 0.06049 0.4168 0.34568 0.0
O20 O 0.07229 0.40305 0.3275 0.0
O21 O 0.09724 0.34446 0.40184 0.0
O22 O 0.11688 0.28528 0.4046 0.0
O23 O 0.13436 0.35604 0.33004 0.0
O24 O 0.14789 0.32322 0.35907 0.0
C25 C 0.10473 0.31463 0.41317 0.0
C26 C 0.15259 0.33105 0.33862 0.0
O27 O 0.06682 0.40077 0.36373 0.0
Mg28 Mg 0.749 0.13876 0.68702 0.0
O29 O 0.76428 0.07397 0.68559 0.0
O30 O 0.84509 0.10537 0.68212 0.0
Mg31 Mg 0.88176 0.18878 0.68485 0.0
C32 C 0.80167 0.06865 0.68285 0.0
C33 C 0.6496 0.09971 0.71054 0.0
O34 O 0.67524 0.1435 0.71931 0.0
O35 O 0.77315 0.15554 0.72272 0.0
O36 O 0.85382 0.18425 0.71943 0.0
O37 O 0.75228 0.13821 0.65034 0.0
O38 O 0.81467 0.18466 0.67207 0.0
C39 C 0.81594 0.17294 0.73097 0.0
C40 C 0.79874 0.16839 0.65286 0.0
O41 O 0.66983 0.08586 0.69644 0.0
Mg42 Mg 0.65918 0.74272 0.04908 0.0
O43 O 0.7426 0.77058 0.04635 0.0
O44 O 0.78067 0.85096 0.05351 0.0
Mg45 Mg 0.72466 0.87433 0.06118 0.0
C46 C 0.78176 0.8122 0.04831 0.0
C47 C 0.65957 0.64813 0.03363 0.0
O48 O 0.69406 0.67986 0.02068 0.0
O49 O 0.66169 0.7459 0.08628 0.0
O50 O 0.70059 0.82708 0.09198 0.0
O51 O 0.65869 0.76087 0.01424 0.0
O52 O 0.6712 0.81196 0.04157 0.0
C53 C 0.67914 0.78303 0.09901 0.0
C54 C 0.6702 0.80445 0.02088 0.0
O55 O 0.64102 0.66336 0.04794 0.0
Mg56 Mg 0.98137 0.76004 0.39956 0.0
O57 O 0.02861 0.82046 0.37334 0.0
O58 O 0.01518 0.88391 0.37688 0.0
Mg59 Mg 0.98602 0.87816 0.41094 0.0
C60 C 0.03342 0.86139 0.3666 0.0
C61 C 0.99922 0.6924 0.36793 0.0
O62 O 0.97866 0.70977 0.35471 0.0
O63 O 0.0393 0.79371 0.42657 0.0
O64 O 0.0486 0.86445 0.41897 0.0
O65 O 0.91318 0.73969 0.38071 0.0
O66 O 0.94181 0.79707 0.40618 0.0
C67 C 0.03797 0.8314 0.43314 0.0
C68 C 0.90914 0.77276 0.39166 0.0
O69 O 0.00792 0.70784 0.38753 0.0
Mg70 Mg 0.18299 0.81349 0.7192 0.0
O71 O 0.1803 0.87536 0.70065 0.0
O72 O 0.10259 0.85161 0.69247 0.0
Mg73 Mg 0.05472 0.77404 0.70629 0.0
C74 C 0.14819 0.88338 0.6919 0.0
C75 C 0.29668 0.86631 0.71704 0.0
O76 O 0.28514 0.8327 0.7019 0.0
O77 O 0.15403 0.8309 0.75024 0.0
O78 O 0.0751 0.80109 0.74139 0.0
O79 O 0.18316 0.77816 0.68697 0.0
O80 O 0.11715 0.76124 0.70617 0.0
C81 C 0.1103 0.82046 0.75512 0.0
C82 C 0.13597 0.75407 0.68906 0.0
O83 O 0.26257 0.86764 0.72758 0.0
Mg84 Mg 0.77682 0.68114 0.5923 0.0
O85 O 0.78114 0.74702 0.61171 0.0
O86 O 0.85891 0.80775 0.6103 0.0
Mg87 Mg 0.90497 0.78268 0.59161 0.0
C88 C 0.81462 0.79078 0.61642 0.0
C89 C 0.66984 0.59514 0.58862 0.0
O90 O 0.69508 0.5748 0.58166 0.0
O91 O 0.78296 0.71847 0.55909 0.0
O92 O 0.86264 0.7754 0.56067 0.0
O93 O 0.79822 0.65233 0.62155 0.0
O94 O 0.85083 0.70599 0.59829 0.0
C95 C 0.82173 0.75374 0.55064 0.0
C96 C 0.84323 0.6799 0.61545 0.0
O97 O 0.6927 0.6406 0.59345 0.0
Mg98 Mg 0.09867 0.74098 0.9564 0.0
O99 O 0.05586 0.77392 0.97298 0.0
O100 O 0.1039 0.85541 0.97187 0.0
Mg101 Mg 0.17439 0.87461 0.95339 0.0
C102 C 0.06428 0.8171 0.97755 0.0
C103 C 0.00771 0.64598 0.9741 0.0
O104 O 0.01886 0.67253 -0.00802 0.0
O105 O 0.08059 0.75934 0.92281 0.0
O106 O 0.13218 0.84055 0.92198 0.0
O107 O 0.13574 0.74676 0.98845 0.0
O108 O 0.16464 0.80324 0.96261 0.0
C109 C 0.10013 0.8007 0.91301 0.0
C110 C 0.16795 0.79043 0.98212 0.0
O111 O 0.03155 0.66527 0.95671 0.0
Mg112 Mg 0.40605 0.20114 0.28066 0.0
O113 O 0.32716 0.13642 0.28118 0.0
O114 O 0.27474 0.16446 0.28352 0.0
Mg115 Mg 0.32055 0.2483 0.28098 0.0
C116 C 0.28361 0.12902 0.28302 0.0
C117 C 0.454 0.13554 0.28592 0.0
O118 O 0.46683 0.15882 0.3047 0.0
O119 O 0.40028 0.21663 0.24465 0.0
O120 O 0.34608 0.24299 0.24703 0.0
O121 O 0.39957 0.20145 0.31731 0.0
O122 O 0.38463 0.2471 0.29461 0.0
C123 C 0.37388 0.23245 0.23593 0.0
C124 C 0.38357 0.23174 0.31405 0.0
O125 O 0.42999 0.14586 0.27236 0.0
Mg126 Mg 0.20687 0.28474 0.60708 0.0
O127 O 0.21086 0.214 0.6145 0.0
O128 O 0.1408 0.1524 0.60126 0.0
Mg129 Mg 0.09232 0.17881 0.58614 0.0
C130 C 0.18155 0.1681 0.61122 0.0
C131 C 0.32381 0.33803 0.60378 0.0
O132 O 0.31426 0.3032 0.58949 0.0
O133 O 0.22089 0.28442 0.57043 0.0
O134 O 0.14738 0.22366 0.5601 0.0
O135 O 0.16387 0.27539 0.63843 0.0
O136 O 0.13163 0.24313 0.60655 0.0
C137 C 0.19018 0.25873 0.55559 0.0
C138 C 0.12552 0.24791 0.62675 0.0
O139 O 0.28855 0.33753 0.6142 0.0
Mg140 Mg 0.87209 0.20886 0.93345 0.0
O141 O 0.94695 0.21688 0.94324 0.0
O142 O 0.94942 0.15359 0.92784 0.0
Mg143 Mg 0.88102 0.1085 0.90735 0.0
C144 C 0.96822 0.19184 0.93985 0.0
C145 C 0.87568 0.29284 0.96213 0.0
O146 O 0.84279 0.25512 0.9733 0.0
O147 O 0.89784 0.23692 0.89918 0.0
O148 O 0.89785 0.17203 0.88418 0.0
O149 O 0.83536 0.15812 0.9615 0.0
O150 O 0.84224 0.13429 0.92843 0.0
C151 C 0.90299 0.21489 0.88277 0.0
C152 C 0.8277 0.1229 0.94821 0.0
O153 O 0.89562 0.28554 0.9456 0.0
Mg154 Mg 0.6201 0.84711 0.30205 0.0
O155 O 0.69459 0.91863 0.30454 0.0
O156 O 0.75378 0.89921 0.30338 0.0
Mg157 Mg 0.71792 0.8166 0.29756 0.0
C158 C 0.73982 0.93081 0.30539 0.0
C159 C 0.55314 0.88487 0.2821 0.0
O160 O 0.54061 0.8472 0.26909 0.0
O161 O 0.62858 0.84088 0.2654 0.0
O162 O 0.68897 0.82274 0.2641 0.0
O163 O 0.62406 0.83879 0.3382 0.0
O164 O 0.65064 0.80653 0.3133 0.0
C165 C 0.6575 0.83097 0.25477 0.0
C166 C 0.64694 0.81524 0.33348 0.0
O167 O 0.58405 0.89358 0.29723 0.0
H168 H 0.56863 0.57679 0.04599 0.0
H169 H 0.69789 0.60001 0.01058 0.0
H170 H 0.65562 0.51172 0.0008 0.0
H171 H 0.53234 0.4565 0.06701 0.0
H172 H 0.46792 0.43516 0.06353 0.0
H173 H 0.50992 0.4992 0.06852 0.0
H174 H 0.47954 0.52136 0.03329 0.0
H175 H 0.43795 0.45733 0.02802 0.0
H176 H 0.48219 0.49461 0.00765 0.0
H177 H 0.59812 0.41965 -0.00455 0.0
H178 H 0.53071 0.33308 -0.00527 0.0
H179 H 0.43888 0.37445 0.03142 0.0
C180 C 0.58845 0.56329 0.03646 0.0
C181 C 0.63672 0.59504 0.02924 0.0
C182 C 0.66094 0.57611 0.01639 0.0
C183 C 0.63721 0.52613 0.01072 0.0
C184 C 0.58916 0.49598 0.01781 0.0
C185 C 0.56513 0.51403 0.03036 0.0
C186 C 0.51312 0.47486 0.03533 0.0
C187 C 0.5054 0.4659 0.06006 0.0
C188 C 0.47603 0.48783 0.02548 0.0
C189 C 0.51155 0.43171 0.02374 0.0
C190 C 0.55572 0.44428 0.01383 0.0
C191 C 0.56325 0.40953 0.00299 0.0
C192 C 0.52481 0.36057 0.0026 0.0
C193 C 0.47942 0.34722 0.01275 0.0
C194 C 0.47277 0.38358 0.02312 0.0
H195 H 0.05475 0.4706 0.38003 0.0
H196 H 0.03396 0.45015 0.30997 0.0
H197 H 0.01631 0.51823 0.30818 0.0
H198 H 0.9596 0.50269 0.38976 0.0
H199 H 0.99483 0.54787 0.41025 0.0
H200 H 0.00335 0.49583 0.40618 0.0
H201 H 0.09621 0.55454 0.40011 0.0
H202 H 0.08792 0.60676 0.40394 0.0
H203 H 0.116 0.60107 0.3793 0.0
H204 H 0.00334 0.58998 0.31367 0.0
H205 H 0.99351 0.65914 0.32623 0.0
H206 H 0.02428 0.63477 0.39268 0.0
C207 C 0.04579 0.47996 0.36435 0.0
C208 C 0.04555 0.45478 0.34513 0.0
C209 C 0.0343 0.46873 0.32492 0.0
C210 C 0.02427 0.50744 0.32372 0.0
C211 C 0.02574 0.53206 0.34287 0.0
C212 C 0.03598 0.5188 0.36283 0.0
C213 C 0.03638 0.55218 0.38085 0.0
C214 C 0.99613 0.52289 0.39776 0.0
C215 C 0.08715 0.5803 0.39168 0.0
C216 C 0.025 0.58639 0.36788 0.0
C217 C 0.01889 0.57399 0.34601 0.0
C218 C 0.00796 0.59998 0.33076 0.0
C219 C 0.00253 0.63932 0.33807 0.0
C220 C 0.00822 0.6526 0.36044 0.0
C221 C 0.02001 0.62584 0.37546 0.0
H222 H 0.37764 0.87639 0.69564 0.0
H223 H 0.33301 0.94094 0.74711 0.0
H224 H 0.4193 0.00547 0.75232 0.0
H225 H 0.49339 0.90133 0.72031 0.0
H226 H 0.52488 0.91494 0.69449 0.0
H227 H 0.45998 0.87221 0.69573 0.0
H228 H 0.44449 0.92367 0.66713 0.0
H229 H 0.50925 0.96655 0.66583 0.0
H230 H 0.46712 0.98793 0.67222 0.0
H231 H 0.50974 0.06539 0.75055 0.0
H232 H 0.59782 0.11615 0.74205 0.0
H233 H 0.58309 0.01202 0.69185 0.0
C234 C 0.38598 0.90374 0.70819 0.0
C235 C 0.34855 0.90354 0.721 0.0
C236 C 0.36106 0.94028 0.73712 0.0
C237 C 0.40998 0.97705 0.74022 0.0
C238 C 0.44589 0.97644 0.72714 0.0
C239 C 0.43452 0.94066 0.7115 0.0
C240 C 0.47969 0.9493 0.69904 0.0
C241 C 0.49009 0.90693 0.70262 0.0
C242 C 0.47483 0.95735 0.67461 0.0
C243 C 0.51817 0.99596 0.70992 0.0
C244 C 0.49798 0.01089 0.72615 0.0
C245 C 0.52604 0.05387 0.73799 0.0
C246 C 0.57602 0.08249 0.73301 0.0
C247 C 0.59739 0.06802 0.71632 0.0
C248 C 0.56798 0.02392 0.7048 0.0
H249 H 0.60911 0.49997 0.57567 0.0
H250 H 0.60963 0.62014 0.61087 0.0
H251 H 0.52192 0.56659 0.61969 0.0
H252 H 0.48805 0.45133 0.55241 0.0
H253 H 0.47372 0.38839 0.55473 0.0
H254 H 0.53638 0.43636 0.5513 0.0
H255 H 0.56047 0.4076 0.58643 0.0
H256 H 0.49779 0.35985 0.5901 0.0
H257 H 0.52912 0.4036 0.61163 0.0
H258 H 0.43454 0.49869 0.6257 0.0
H259 H 0.35265 0.42443 0.62563 0.0
H260 H 0.40883 0.34933 0.58562 0.0
C261 C 0.59079 0.51517 0.58516 0.0
C262 C 0.61637 0.56432 0.59262 0.0
C263 C 0.59086 0.58272 0.60491 0.0
C264 C 0.54107 0.55248 0.6101 0.0
C265 C 0.51719 0.50402 0.60275 0.0
C266 C 0.54107 0.48566 0.59032 0.0
C267 C 0.50684 0.43257 0.58407 0.0
C268 C 0.5009 0.42685 0.55915 0.0
C269 C 0.52463 0.39893 0.59363 0.0
C270 C 0.45992 0.42383 0.59495 0.0
C271 C 0.46676 0.46536 0.6058 0.0
C272 C 0.42876 0.46605 0.61718 0.0
C273 C 0.38237 0.42353 0.61712 0.0
C274 C 0.37413 0.38092 0.6056 0.0
C275 C 0.41378 0.38119 0.59458 0.0
H276 H 0.92465 0.37486 0.93705 0.0
H277 H 0.8521 0.32442 -0.00038 0.0
H278 H 0.8714 0.40908 0.00848 0.0
H279 H 0.02235 0.48753 0.9551 0.0
H280 H 0.02387 0.52064 0.93085 0.0
H281 H 1.00197 0.45584 0.92936 0.0
H282 H 0.92036 0.44195 0.91254 0.0
H283 H 0.94189 0.50679 0.91418 0.0
H284 H 0.88476 0.46365 0.92687 0.0
H285 H 0.90417 0.50085 0.01128 0.0
H286 H 0.94831 0.59134 0.00794 0.0
H287 H 0.99532 0.57906 0.94279 0.0
C288 C 0.91267 0.38148 0.95262 0.0
C289 C 0.88708 0.34316 0.9677 0.0
C290 C 0.87179 0.35333 0.98782 0.0
C291 C 0.88243 0.40121 -0.00704 0.0
C292 C 0.90772 0.43816 0.97765 0.0
C293 C 0.9224 0.42868 0.95786 0.0
C294 C 0.95029 0.47476 0.94444 0.0
C295 C 0.00272 0.48531 0.93967 0.0
C296 C 0.92266 0.47158 0.92325 0.0
C297 C 0.95021 0.51202 0.95999 0.0
C298 C 0.92527 0.49035 0.97902 0.0
C299 C 0.92323 0.51814 -0.00367 0.0
C300 C 0.94835 0.56946 -0.00572 0.0
C301 C 0.97502 0.59225 0.97507 0.0
C302 C 0.97472 0.56285 0.95757 0.0
H303 H 0.50888 0.10742 0.3103 0.0
H304 H 0.4237 0.07389 0.25059 0.0
H305 H 0.43946 0.0058 0.24314 0.0
H306 H 0.60128 0.08221 0.28923 0.0
H307 H 0.60686 0.05582 0.31441 0.0
H308 H 0.58915 0.10218 0.3149 0.0
H309 H 0.51076 0.04351 0.33657 0.0
H310 H 0.52813 0.99691 0.33607 0.0
H311 H 0.46918 0.98357 0.32564 0.0
H312 H 0.46278 0.94001 0.24268 0.0
H313 H 0.49486 0.88341 0.24853 0.0
H314 H 0.56562 0.96101 0.30824 0.0
C315 C 0.49367 0.08591 0.29561 0.0
C316 C 0.46504 0.09599 0.28104 0.0
C317 C 0.44585 0.06695 0.26198 0.0
C318 C 0.45449 0.02812 0.25762 0.0
C319 C 0.48256 0.01896 0.27242 0.0
C320 C 0.5021 0.04719 0.29096 0.0
C321 C 0.53108 0.02975 0.3042 0.0
C322 C 0.58531 0.06988 0.30577 0.0
C323 C 0.50841 0.0124 0.32696 0.0
C324 C 0.52464 0.9872 0.29024 0.0
C325 C 0.49642 0.98146 0.27202 0.0
C326 C 0.48507 0.94424 0.25685 0.0
C327 C 0.50337 0.91222 0.26035 0.0
C328 C 0.53281 0.91782 0.27881 0.0
C329 C 0.54335 0.95581 0.29392 0.0
H330 H 0.29834 0.21605 0.20967 0.0
H331 H 0.45484 0.27028 0.20949 0.0
H332 H 0.45875 0.29423 0.17065 0.0
H333 H 0.27598 0.1606 0.15828 0.0
H334 H 0.22805 0.17386 0.15142 0.0
H335 H 0.24022 0.16757 0.1795 0.0
H336 H 0.25192 0.25398 0.18735 0.0
H337 H 0.24132 0.26099 0.15901 0.0
H338 H 0.29697 0.3061 0.17216 0.0
H339 H 0.44453 0.30947 0.13181 0.0
H340 H 0.41187 0.29563 0.09439 0.0
H341 H 0.26383 0.2274 0.11997 0.0
C342 C 0.33349 0.23326 0.20145 0.0
C343 C 0.37637 0.24171 0.2124 0.0
C344 C 0.4216 0.26337 0.20119 0.0
C345 C 0.42423 0.2778 0.17932 0.0
C346 C 0.38124 0.26994 0.16909 0.0
C347 C 0.33655 0.24707 0.17969 0.0
C348 C 0.29478 0.23686 0.16446 0.0
C349 C 0.25762 0.18146 0.16334 0.0
C350 C 0.26979 0.26625 0.17115 0.0
C351 C 0.32263 0.25584 0.14334 0.0
C352 C 0.37264 0.27657 0.1465 0.0
C353 C 0.40553 0.29366 0.12915 0.0
C354 C 0.38658 0.28605 0.10792 0.0
C355 C 0.33524 0.2602 0.10436 0.0
C356 C 0.30319 0.24765 0.12229 0.0
H357 H 0.07297 0.23967 0.44131 0.0
H358 H 0.15254 0.3983 0.43771 0.0
H359 H 0.19037 0.40217 0.47371 0.0
H360 H 0.05561 0.2277 0.50154 0.0
H361 H 0.06425 0.17516 0.50159 0.0
H362 H 0.03765 0.18753 0.47816 0.0
H363 H 0.1047 0.18576 0.45417 0.0
H364 H 0.13333 0.17649 0.47769 0.0
H365 H 0.16839 0.22801 0.45992 0.0
H366 H 0.22684 0.38674 0.50829 0.0
H367 H 0.24452 0.3542 0.54172 0.0
H368 H 0.1465 0.20582 0.51929 0.0
C369 C 0.09645 0.27527 0.44864 0.0
C370 C 0.10942 0.31868 0.43701 0.0
C371 C 0.14125 0.36469 0.4467 0.0
C372 C 0.16365 0.36712 0.4669 0.0
C373 C 0.1535 0.32321 0.47697 0.0
C374 C 0.11959 0.27821 0.46837 0.0
C375 C 0.11698 0.2362 0.48133 0.0
C376 C 0.0656 0.20483 0.49126 0.0
C377 C 0.13174 0.2048 0.46744 0.0
C378 C 0.15493 0.26437 0.49859 0.0
C379 C 0.17584 0.3145 0.49589 0.0
C380 C 0.21056 0.34755 0.51055 0.0
C381 C 0.22117 0.32872 0.52929 0.0
C382 C 0.1969 0.27743 0.53307 0.0
C383 C 0.16592 0.24517 0.51677 0.0
H384 H 0.88074 0.16489 0.75729 0.0
H385 H 0.77032 0.20903 0.75693 0.0
H386 H 0.79318 0.2399 0.79484 0.0
H387 H 0.85769 0.11931 0.81138 0.0
H388 H 0.921 0.13833 0.81685 0.0
H389 H 0.89802 0.12432 0.7894 0.0
H390 H 0.9667 0.21061 0.77733 0.0
H391 H 0.98878 0.22534 0.80499 0.0
H392 H 0.97186 0.26442 0.79038 0.0
H393 H 0.82837 0.26553 0.83268 0.0
H394 H 0.85738 0.26506 0.87001 0.0
H395 H 0.94169 0.20012 0.84575 0.0
C396 C 0.86137 0.18105 0.76523 0.0
C397 C 0.82399 0.1849 0.75432 0.0
C398 C 0.79886 0.20553 0.7652 0.0
C399 C 0.81216 0.22383 0.78652 0.0
C400 C 0.85028 0.22072 0.79663 0.0
C401 C 0.87359 0.19867 0.78651 0.0
C402 C 0.90963 0.195 0.80158 0.0
C403 C 0.89572 0.14105 0.80501 0.0
C404 C 0.96237 0.22568 0.79305 0.0
C405 C 0.90212 0.21732 0.82204 0.0
C406 C 0.86901 0.23348 0.81866 0.0
C407 C 0.85449 0.25323 0.8355 0.0
C408 C 0.87165 0.25336 0.85662 0.0
C409 C 0.90184 0.2326 0.86068 0.0
C410 C 0.91914 0.21674 0.843 0.0
H411 H 0.74199 0.83028 0.13253 0.0
H412 H 0.59114 0.72256 0.11784 0.0
H413 H 0.56827 0.72537 0.15627 0.0
H414 H 0.74209 0.7817 0.18778 0.0
H415 H 0.78232 0.84222 0.19848 0.0
H416 H 0.78635 0.82898 0.1702 0.0
H417 H 0.77411 0.90172 0.15912 0.0
H418 H 0.7686 0.91431 0.18732 0.0
H419 H 0.72034 0.90302 0.16833 0.0
H420 H 0.56052 0.74913 0.19484 0.0
H421 H 0.57124 0.77704 0.2333 0.0
H422 H 0.72836 0.86288 0.22353 0.0
C423 C 0.70446 0.80629 0.13762 0.0
C424 C 0.66826 0.77598 0.12244 0.0
C425 C 0.6194 0.74538 0.12944 0.0
C426 C 0.60605 0.7472 0.15112 0.0
C427 C 0.64231 0.77896 0.16555 0.0
C428 C 0.69082 0.80666 0.15928 0.0
C429 C 0.72285 0.83714 0.17804 0.0
C430 C 0.76062 0.82156 0.18398 0.0
C431 C 0.74793 0.89231 0.17288 0.0
C432 C 0.68462 0.82316 0.1957 0.0
C433 C 0.63825 0.79029 0.18807 0.0
C434 C 0.59673 0.77418 0.20111 0.0
C435 C 0.60306 0.79065 0.22279 0.0
C436 C 0.65056 0.82199 0.23118 0.0
C437 C 0.69169 0.83883 0.21741 0.0
H438 H 0.82072 0.69573 0.5182 0.0
H439 H 0.83875 0.83864 0.5321 0.0
H440 H 0.88902 0.87174 0.49903 0.0
H441 H 0.93291 0.73135 0.50737 0.0
H442 H 0.9272 0.69163 0.48496 0.0
H443 H 0.87776 0.67284 0.50403 0.0
H444 H 0.81704 0.66168 0.47313 0.0
H445 H 0.86568 0.67799 0.45363 0.0
H446 H 0.83241 0.71092 0.45408 0.0
H447 H 0.95694 0.89465 0.47357 0.0
H448 H 0.02485 0.90313 0.45066 0.0
H449 H 0.96396 0.74519 0.45169 0.0
C450 C 0.83184 0.73285 0.51316 0.0
C451 C 0.8248 0.76442 0.52725 0.0
C452 C 0.84242 0.81368 0.52108 0.0
C453 C 0.87163 0.83287 0.50246 0.0
C454 C 0.88232 0.80209 0.49012 0.0
C455 C 0.86155 0.75257 0.49466 0.0
C456 C 0.88494 0.72939 0.48091 0.0
C457 C 0.907 0.7049 0.49518 0.0
C458 C 0.8478 0.69283 0.46446 0.0
C459 C 0.92466 0.77427 0.4694 0.0
C460 C 0.92197 0.8156 0.47476 0.0
C461 C 0.95808 0.86228 0.46844 0.0
C462 C 0.99683 0.86674 0.45561 0.0
C463 C 0.99905 0.82477 0.44878 0.0
C464 C 0.96279 0.77792 0.45616 0.0
H465 H 0.16542 0.85484 0.88187 0.0
H466 H 0.01152 0.75009 0.89201 0.0
H467 H 0.99581 0.75404 0.85258 0.0
H468 H 0.15246 0.92787 0.83824 0.0
H469 H 0.2049 0.93403 0.82357 0.0
H470 H 0.20253 0.92861 0.85288 0.0
H471 H 0.21604 0.85386 0.85012 0.0
H472 H 0.2188 0.8593 0.82089 0.0
H473 H 0.17528 0.80212 0.83345 0.0
H474 H 0.99813 0.76724 0.81217 0.0
H475 H 0.01885 0.77709 0.77317 0.0
H476 H 0.17311 0.86818 0.78928 0.0
C477 C 0.12821 0.83355 0.87584 0.0
C478 C 0.08937 0.80283 0.88986 0.0
C479 C 0.04151 0.77408 0.88141 0.0
C480 C 0.03231 0.77647 0.85916 0.0
C481 C 0.07158 0.80722 0.84572 0.0
C482 C 0.11872 0.83461 0.8537 0.0
C483 C 0.15549 0.85983 0.83557 0.0
C484 C 0.1803 0.91592 0.8377 0.0
C485 C 0.19362 0.84272 0.83497 0.0
C486 C 0.12184 0.84151 0.81599 0.0
C487 C 0.07347 0.81241 0.82226 0.0
C488 C 0.03582 0.79007 0.80707 0.0
C489 C 0.04809 0.7961 0.78491 0.0
C490 C 0.09776 0.82331 0.77813 0.0
C491 C 0.13487 0.84734 0.79393 0.0
H492 H 0.25239 0.87236 0.97258 0.0
H493 H 0.15054 0.79771 0.02535 0.0
H494 H 0.18533 0.87578 0.04577 0.0
H495 H 0.35662 0.97304 0.00663 0.0
H496 H 0.36844 0.01701 0.9853 0.0
H497 H 0.34739 0.95377 0.97848 0.0
H498 H 0.27541 0.95115 0.95674 0.0
H499 H 0.29523 0.0136 0.96404 0.0
H500 H 0.23379 0.96611 0.97046 0.0
H501 H 0.21655 0.96291 0.05601 0.0
H502 H 0.24771 0.05167 0.05746 0.0
H503 H 0.32469 0.07033 -0.0037 0.0
C504 C 0.23932 0.87207 0.98896 0.0
C505 C 0.19916 0.82931 -0.00247 0.0
C506 C 0.18197 0.83001 0.01874 0.0
C507 C 0.20128 0.87431 0.03034 0.0
C508 C 0.23787 0.91693 0.02048 0.0
C509 C 0.25751 0.91598 0.00043 0.0
C510 C 0.29053 0.96721 -0.0083 0.0
C511 C 0.34392 0.97842 0.99047 0.0
C512 C 0.27262 0.9749 0.96943 0.0
C513 C 0.28413 0.99711 0.00932 0.0
C514 C 0.25453 0.96754 0.02598 0.0
C515 C 0.24053 0.98647 0.04328 0.0
C516 C 0.2579 0.03699 0.04375 0.0
C517 C 0.28821 0.06797 0.02682 0.0
C518 C 0.30147 0.0476 0.00943 0.0
H519 H 0.24753 0.37648 0.32705 0.0
H520 H 0.11362 0.236 0.32694 0.0
H521 H 0.16193 0.19354 0.32738 0.0
H522 H 0.32094 0.33677 0.29282 0.0
H523 H 0.37554 0.37636 0.30815 0.0
H524 H 0.32888 0.39292 0.30453 0.0
H525 H 0.32625 0.40047 0.34663 0.0
H526 H 0.3702 0.38031 0.35041 0.0
H527 H 0.3111 0.34777 0.36344 0.0
H528 H 0.2253 0.16733 0.33329 0.0
H529 H 0.29884 0.15837 0.33086 0.0
H530 H 0.39056 0.31618 0.32747 0.0
C531 C 0.22854 0.33685 0.32566 0.0
C532 C 0.17704 0.30937 0.32651 0.0
C533 C 0.15318 0.25752 0.32569 0.0
C534 C 0.18031 0.23318 0.32651 0.0
C535 C 0.23117 0.26148 0.32786 0.0
C536 C 0.25511 0.31211 0.32644 0.0
C537 C 0.31 0.33409 0.32828 0.0
C538 C 0.33534 0.36162 0.30719 0.0
C539 C 0.33055 0.36764 0.34839 0.0
C540 C 0.31324 0.288 0.33109 0.0
C541 C 0.26736 0.2465 0.33129 0.0
C542 C 0.26141 0.19957 0.33301 0.0
C543 C 0.30347 0.19482 0.33221 0.0
C544 C 0.35012 0.23667 0.32903 0.0
C545 C 0.35529 0.28378 0.33037 0.0
H546 H 0.87982 0.25106 0.64146 0.0
H547 H 0.80288 0.09359 0.63253 0.0
H548 H 0.88169 0.09644 0.62585 0.0
H549 H 0.98613 0.2812 0.60249 0.0
H550 H 0.02762 0.32905 0.62068 0.0
H551 H 0.96483 0.31501 0.61853 0.0
H552 H 0.95645 0.30258 0.66057 0.0
H553 H 0.01847 0.31452 0.66247 0.0
H554 H 0.969 0.25788 0.67288 0.0
H555 H 0.96966 0.1152 0.62731 0.0
H556 H 0.05975 0.15084 0.62848 0.0
H557 H 0.07798 0.29508 0.63938 0.0
C558 C 0.87945 0.21777 0.63651 0.0
C559 C 0.83558 0.17226 0.6372 0.0
C560 C 0.8361 0.12893 0.63148 0.0
C561 C 0.88086 0.13015 0.62816 0.0
C562 C 0.92411 0.17512 0.63023 0.0
C563 C 0.92367 0.21843 0.6335 0.0
C564 C 0.9748 0.26123 0.63716 0.0
C565 C 0.98921 0.29883 0.61861 0.0
C566 C 0.97988 0.28542 0.6596 0.0
C567 C 0.004 0.23505 0.63629 0.0
C568 C 0.97423 0.18547 0.63217 0.0
C569 C 0.99323 0.15394 0.63047 0.0
C570 C 0.04422 0.17425 0.6316 0.0
C571 C 0.07524 0.22528 0.63474 0.0
C572 C 0.05479 0.25568 0.63787 0.0
H573 H 0.69422 0.89878 0.03014 0.0
H574 H 0.68626 0.80351 0.97701 0.0
H575 H 0.72343 0.87494 0.95225 0.0
H576 H 0.67123 0.98267 -0.00148 0.0
H577 H 0.71457 0.03558 0.01388 0.0
H578 H 0.68304 0.97625 0.02676 0.0
H579 H 0.76656 0.98481 0.03772 0.0
H580 H 0.79838 0.04397 0.02475 0.0
H581 H 0.81158 0.99646 0.01692 0.0
H582 H 0.76423 0.95654 0.93396 0.0
H583 H 0.80595 0.04304 0.92291 0.0
H584 H 0.79272 0.08572 0.9889 0.0
C585 C 0.70024 0.89276 0.01333 0.0
C586 C 0.68789 0.84572 0.00554 0.0
C587 C 0.69549 0.83932 0.9833 0.0
C588 C 0.71662 0.87961 0.96915 0.0
C589 C 0.72984 0.92574 0.9776 0.0
C590 C 0.72187 0.93251 -0.00086 0.0
C591 C 0.74167 0.98613 0.00444 0.0
C592 C 0.70014 0.9957 0.0113 0.0
C593 C 0.78194 0.00387 0.02199 0.0
C594 C 0.76254 0.00863 0.9825 0.0
C595 C 0.75491 0.97308 0.96723 0.0
C596 C 0.77065 0.98475 0.94578 0.0
C597 C 0.79475 0.03414 0.93973 0.0
C598 C 0.80347 0.07129 0.95517 0.0
C599 C 0.78703 0.05821 0.97681 0.0
H600 H 0.6774 0.74913 0.33004 0.0
H601 H 0.68473 0.86322 0.37238 0.0
H602 H 0.74913 0.85973 0.39433 0.0
H603 H 0.70553 0.68053 0.37188 0.0
H604 H 0.74154 0.66847 0.35261 0.0
H605 H 0.68996 0.67362 0.34329 0.0
H606 H 0.74679 0.74113 0.31605 0.0
H607 H 0.79875 0.73717 0.32556 0.0
H608 H 0.80022 0.79524 0.32614 0.0
H609 H 0.8206 0.85166 0.40806 0.0
H610 H 0.88955 0.83652 0.41398 0.0
H611 H 0.83629 0.73009 0.36121 0.0
C612 C 0.69147 0.77236 0.34434 0.0
C613 C 0.6762 0.80634 0.34962 0.0
C614 C 0.6956 0.83647 0.36829 0.0
C615 C 0.73231 0.83488 0.38073 0.0
C616 C 0.74846 0.80266 0.37431 0.0
C617 C 0.72806 0.77143 0.35671 0.0
C618 C 0.75471 0.74372 0.35169 0.0
C619 C 0.72092 0.6883 0.35508 0.0
C620 C 0.7764 0.75502 0.32849 0.0
C621 C 0.79443 0.76526 0.3688 0.0
C622 C 0.79 0.79878 0.38185 0.0
C623 C 0.82402 0.82506 0.39811 0.0
C624 C 0.8633 0.81651 0.4012 0.0
C625 C 0.8684 0.78234 0.38792 0.0
C626 C 0.83334 0.75639 0.37161 0.0
H627 H 0.11914 0.79062 0.65252 0.0
H628 H 0.07302 0.65703 0.68894 0.0
H629 H 0.9925 0.61877 0.67066 0.0
H630 H 0.01981 0.796 0.6595 0.0
H631 H 0.01455 0.8185 0.63318 0.0
H632 H 0.07344 0.83072 0.6428 0.0
H633 H 0.08673 0.7905 0.60873 0.0
H634 H 0.02882 0.78006 0.59817 0.0
H635 H 0.04033 0.72956 0.60077 0.0
H636 H 0.91178 0.60385 0.65641 0.0
H637 H 0.84066 0.6075 0.64125 0.0
H638 H 0.93982 0.75136 0.61468 0.0
C639 C 0.09338 0.75209 0.65524 0.0
C640 C 0.10245 0.72598 0.67145 0.0
C641 C 0.06699 0.67672 0.67592 0.0
C642 C 0.02098 0.65498 0.66582 0.0
C643 C 0.0114 0.68309 0.65123 0.0
C644 C 0.04714 0.7301 0.64537 0.0
C645 C 0.0257 0.75495 0.63174 0.0
C646 C 0.03384 0.80282 0.64247 0.0
C647 C 0.04663 0.76429 0.60847 0.0
C648 C 0.97218 0.71581 0.63197 0.0
C649 C 0.96456 0.67448 0.6431 0.0
C650 C 0.91745 0.63545 0.64707 0.0
C651 C 0.87726 0.63813 0.63872 0.0
C652 C 0.88463 0.67953 0.62659 0.0
C653 C 0.93274 0.71882 0.62345 0.0
H654 H 0.99053 0.12768 0.95872 0.0
H655 H 0.04756 0.28315 0.94836 0.0
H656 H 0.12395 0.30128 0.96803 0.0
H657 H 0.03589 0.14026 0.0134 0.0
H658 H 0.04798 0.09014 0.01079 0.0
H659 H 0.99984 0.09028 -0.00503 0.0
H660 H 0.03952 0.08138 0.95946 0.0
H661 H 0.08788 0.08138 0.97516 0.0
H662 H 0.10262 0.1254 0.95356 0.0
H663 H 0.19617 0.30065 0.98762 0.0
H664 H 0.2522 0.28248 0.00912 0.0
H665 H 0.14247 0.12806 0.00914 0.0
C666 C 0.01929 0.16556 0.96043 0.0
C667 C 0.01374 0.20406 0.95176 0.0
C668 C 0.05145 0.25321 0.95481 0.0
C669 C 0.09489 0.26373 0.96587 0.0
C670 C 0.0993 0.22468 0.97414 0.0
C671 C 0.06198 0.17664 0.97186 0.0
C672 C 0.074 0.14128 0.98324 0.0
C673 C 0.03725 0.1139 0.0017 0.0
C674 C 0.07614 0.10525 0.96687 0.0
C675 C 0.12423 0.17671 -0.00783 0.0
C676 C 0.13874 0.22463 0.98652 0.0
C677 C 0.18484 0.26332 -0.00768 0.0
C678 C 0.21648 0.25271 0.00442 0.0
C679 C 0.20133 0.20401 0.01094 0.0
C680 C 0.15468 0.16574 0.00464 0.0
H681 H 0.83565 0.96614 0.31694 0.0
H682 H 0.7279 0.012 0.30659 0.0
H683 H 0.78882 0.09624 0.31822 0.0
H684 H 0.88643 0.03468 0.36512 0.0
H685 H 0.9482 0.04906 0.35894 0.0
H686 H 0.89712 0.99364 0.34845 0.0
H687 H 0.9299 0.01934 0.30905 0.0
H688 H 0.98133 0.07465 0.31946 0.0
H689 H 0.94227 0.07823 0.29889 0.0
H690 H 0.86289 0.17626 0.33206 0.0
H691 H 0.94185 0.24274 0.34669 0.0
H692 H 0.9975 0.14111 0.34867 0.0
C693 C 0.82486 0.99392 0.31677 0.0
C694 C 0.77698 0.98237 0.31067 0.0
C695 C 0.76441 0.01991 0.31109 0.0
C696 C 0.79877 0.06789 0.31769 0.0
C697 C 0.84547 0.07773 0.32392 0.0
C698 C 0.85839 0.04164 0.32347 0.0
C699 C 0.91005 0.06066 0.33168 0.0
C700 C 0.91044 0.03286 0.35227 0.0
C701 C 0.94281 0.05808 0.31369 0.0
C702 C 0.92431 0.11313 0.3369 0.0
C703 C 0.88692 0.12266 0.33226 0.0
C704 C 0.89237 0.16908 0.33575 0.0
C705 C 0.93729 0.20661 0.3441 0.0
C706 C 0.97594 0.1973 0.34901 0.0
C707 C 0.96882 0.14972 0.34533 0.0
H708 H 0.87708 0.88599 0.62865 0.0
H709 H 0.72467 0.77095 0.63273 0.0
H710 H 0.70538 0.8277 0.65277 0.0
H711 H 0.88497 0.94006 0.68191 0.0
H712 H 0.92406 0.00177 0.67228 0.0
H713 H 0.92604 0.95127 0.65937 0.0
H714 H 0.90781 0.97696 0.62189 0.0
H715 H 0.90616 0.02759 0.63473 0.0
H716 H 0.85449 0.98378 0.61891 0.0
H717 H 0.70248 0.89961 0.67077 0.0
H718 H 0.71584 0.97961 0.6842 0.0
H719 H 0.87044 0.04596 0.6683 0.0
C720 C 0.83961 0.87231 0.63387 0.0
C721 C 0.80241 0.82374 0.62909 0.0
C722 C 0.75389 0.80785 0.6362 0.0
C723 C 0.7426 0.83984 0.64764 0.0
C724 C 0.78023 0.88755 0.65194 0.0
C725 C 0.82777 0.9036 0.64525 0.0
C726 C 0.86135 0.95703 0.65105 0.0
C727 C 0.90147 0.96284 0.66711 0.0
C728 C 0.88374 0.98814 0.63041 0.0
C729 C 0.82524 0.9689 0.66184 0.0
C730 C 0.77866 0.9284 0.66233 0.0
C731 C 0.73893 0.93137 0.67064 0.0
C732 C 0.74691 0.97702 0.67827 0.0
C733 C 0.79427 0.0192 0.67754 0.0
C734 C 0.83389 0.01449 0.66949 0.0
H735 H 0.80094 0.74622 0.02665 0.0
H736 H 0.87202 0.89109 0.05635 0.0
H737 H 0.95171 0.9059 0.04275 0.0
H738 H 0.9026 0.72072 0.03669 0.0
H739 H 0.89366 0.68962 0.01093 0.0
H740 H 0.84231 0.68817 0.02468 0.0
H741 H 0.82336 0.72299 0.99011 0.0
H742 H 0.87487 0.72507 0.97631 0.0
H743 H 0.87045 0.7799 0.97865 0.0
H744 H 0.02204 0.90911 0.02316 0.0
H745 H 0.08077 0.89792 0.00082 0.0
H746 H 0.96623 0.75035 0.98418 0.0
C747 C 0.8334 0.78057 0.03073 0.0
C748 C 0.83001 0.81745 0.04261 0.0
C749 C 0.87343 0.86222 0.04728 0.0
C750 C 0.91901 0.87106 0.03963 0.0
C751 C 0.92089 0.83468 0.02745 0.0
C752 C 0.87948 0.79006 0.02322 0.0
C753 C 0.89178 0.7582 0.0089 0.0
C754 C 0.88201 0.71141 0.02103 0.0
C755 C 0.86343 0.74583 0.98721 0.0
C756 C 0.94627 0.7924 0.0054 0.0
C757 C 0.96214 0.83628 0.01629 0.0
C758 C 0.01026 0.8747 0.01477 0.0
C759 C 0.04328 0.86807 0.0019 0.0
C760 C 0.02821 0.82325 0.99075 0.0
C761 C 0.97899 0.78488 -0.00735 0.0
H762 H 0.04478 0.94402 0.34659 0.0
H763 H 0.09639 0.8392 0.34437 0.0
H764 H 0.15959 0.89176 0.3175 0.0
H765 H 0.07126 0.98521 0.28845 0.0
H766 H 0.09024 0.04762 0.29601 0.0
H767 H 0.04369 0.99747 0.31163 0.0
H768 H 0.09475 0.03413 0.34689 0.0
H769 H 0.14101 0.0842 0.33137 0.0
H770 H 0.15733 0.0469 0.34775 0.0
H771 H 0.22519 0.9623 0.29561 0.0
H772 H 0.28625 0.043 0.28086 0.0
H773 H 0.19117 0.10124 0.29786 0.0
C774 C 0.0684 0.93121 0.34006 0.0
C775 C 0.06545 0.88727 0.34764 0.0
C776 C 0.09755 0.8724 0.33873 0.0
C777 C 0.1336 0.90209 0.32345 0.0
C778 C 0.13667 0.9462 0.31705 0.0
C779 C 0.10447 0.96036 0.32495 0.0
C780 C 0.11828 0.01157 0.31746 0.0
C781 C 0.0785 0.01037 0.30249 0.0
C782 C 0.12847 0.0462 0.33703 0.0
C783 C 0.16465 0.02509 0.30487 0.0
C784 C 0.17429 0.98669 0.30448 0.0
C785 C 0.21743 0.9922 0.29545 0.0
C786 C 0.25199 0.0383 0.28713 0.0
C787 C 0.24347 0.07855 0.288 0.0
C788 C 0.1985 0.07114 0.29649 0.0
H789 H 0.09443 0.90733 0.66443 0.0
H790 H 0.239 0.96656 0.69332 0.0
H791 H 0.26583 0.04509 0.67418 0.0
H792 H 0.13641 0.96525 0.61165 0.0
H793 H 0.08537 0.97561 0.60823 0.0
H794 H 0.07816 0.92417 0.62407 0.0
H795 H 0.04844 0.95401 0.65709 0.0
H796 H 0.05531 0.00533 0.64134 0.0
H797 H 0.08631 0.01562 0.66719 0.0
H798 H 0.27506 0.11954 0.65316 0.0
H799 H 0.26563 0.18146 0.63191 0.0
H800 H 0.11667 0.07021 0.61554 0.0
C801 C 0.13182 0.93664 0.66671 0.0
C802 C 0.16452 0.93064 0.68043 0.0
C803 C 0.21319 0.97014 0.68288 0.0
C804 C 0.22883 0.01493 0.67205 0.0
C805 C 0.19562 0.0195 0.65858 0.0
C806 C 0.14821 0.98121 0.65581 0.0
C807 C 0.11943 0.99525 0.64057 0.0
C808 C 0.10395 0.96317 0.61991 0.0
C809 C 0.07476 0.9924 0.65225 0.0
C810 C 0.15772 0.04774 0.63551 0.0
C811 C 0.20148 0.0613 0.646 0.0
C812 C 0.24112 0.1091 0.64464 0.0
C813 C 0.23551 0.14403 0.6325 0.0
C814 C 0.19069 0.13083 0.62179 0.0
C815 C 0.15184 0.08168 0.62313 0.0
loop_
_geom_bond_atom_site_label_1
_geom_bond_atom_site_label_2
_geom_bond_distance
_geom_bond_site_symmetry_2
_ccdc_geom_bond_type
Mg0 O1 2.028 . S
Mg0 O7 1.986 . S
Mg0 O9 2.114 . S
Mg0 O10 2.251 . S
Mg0 O13 2.010 . S
O1 Mg0 2.028 . S
O1 C4 1.250 . S
O2 Mg3 2.028 . S
O2 C4 1.248 . S
Mg3 O2 2.028 . S
Mg3 O8 2.032 . S
Mg3 O10 2.079 . S
C4 O1 1.250 . S
C4 O2 1.248 . S
C5 O6 1.264 . S
C5 O13 1.249 . S
O6 C5 1.264 . S
O7 Mg0 1.986 . S
O7 C11 1.246 . S
O8 Mg3 2.032 . S
O8 C11 1.259 . S
O9 Mg0 2.114 . S
O9 C12 1.252 . S
O10 Mg0 2.251 . S
O10 Mg3 2.079 . S
O10 C12 1.273 . S
C11 O7 1.246 . S
C11 O8 1.259 . S
C12 O9 1.252 . S
C12 O10 1.273 . S
O13 Mg0 2.010 . S
O13 C5 1.249 . S
Mg14 O15 2.028 . S
Mg14 O21 1.986 . S
Mg14 O23 2.114 . S
Mg14 O24 2.251 . S
Mg14 O27 2.010 . S
O15 Mg14 2.028 . S
O15 C18 1.250 . S
O16 Mg17 2.028 . S
O16 C18 1.248 . S
Mg17 O16 2.028 . S
Mg17 O22 2.032 . S
Mg17 O24 2.079 . S
C18 O15 1.250 . S
C18 O16 1.248 . S
C19 O20 1.264 . S
C19 O27 1.249 . S
O20 C19 1.264 . S
O21 Mg14 1.986 . S
O21 C25 1.246 . S
O22 Mg17 2.032 . S
O22 C25 1.259 . S
O23 Mg14 2.114 . S
O23 C26 1.252 . S
O24 Mg14 2.251 . S
O24 Mg17 2.079 . S
O24 C26 1.273 . S
C25 O21 1.246 . S
C25 O22 1.259 . S
C26 O23 1.252 . S
C26 O24 1.273 . S
O27 Mg14 2.010 . S
O27 C19 1.249 . S
Mg28 O29 2.028 . S
Mg28 O35 1.986 . S
Mg28 O37 2.114 . S
Mg28 O38 2.251 . S
Mg28 O41 2.010 . S
O29 Mg28 2.028 . S
O29 C32 1.250 . S
O30 Mg31 2.028 . S
O30 C32 1.248 . S
Mg31 O30 2.028 . S
Mg31 O36 2.032 . S
Mg31 O38 2.079 . S
C32 O29 1.250 . S
C32 O30 1.248 . S
C33 O34 1.264 . S
C33 O41 1.249 . S
O34 C33 1.264 . S
O35 Mg28 1.986 . S
O35 C39 1.246 . S
O36 Mg31 2.032 . S
O36 C39 1.259 . S
O37 Mg28 2.114 . S
O37 C40 1.252 . S
O38 Mg28 2.251 . S
O38 Mg31 2.079 . S
O38 C40 1.273 . S
C39 O35 1.246 . S
C39 O36 1.259 . S
C40 O37 1.252 . S
C40 O38 1.273 . S
O41 Mg28 2.010 . S
O41 C33 1.249 . S
Mg42 O43 2.028 . S
Mg42 O49 1.986 . S
Mg42 O51 2.114 . S
Mg42 O52 2.251 . S
Mg42 O55 2.010 . S
O43 Mg42 2.028 . S
O43 C46 1.250 . S
O44 Mg45 2.028 . S
O44 C46 1.248 . S
Mg45 O44 2.028 . S
Mg45 O50 2.032 . S
Mg45 O52 2.079 . S
C46 O43 1.250 . S
C46 O44 1.248 . S
C47 O48 1.264 . S
C47 O55 1.249 . S
O48 C47 1.264 . S
O49 Mg42 1.986 . S
O49 C53 1.246 . S
O50 Mg45 2.032 . S
O50 C53 1.259 . S
O51 Mg42 2.114 . S
O51 C54 1.252 . S
O52 Mg42 2.251 . S
O52 Mg45 2.079 . S
O52 C54 1.273 . S
C53 O49 1.246 . S
C53 O50 1.259 . S
C54 O51 1.252 . S
C54 O52 1.273 . S
O55 Mg42 2.010 . S
O55 C47 1.249 . S
Mg56 O57 2.028 . S
Mg56 O63 1.986 . S
Mg56 O65 2.114 . S
Mg56 O66 2.251 . S
Mg56 O69 2.010 . S
O57 Mg56 2.028 . S
O57 C60 1.250 . S
O58 Mg59 2.028 . S
O58 C60 1.248 . S
Mg59 O58 2.028 . S
Mg59 O64 2.032 . S
Mg59 O66 2.079 . S
C60 O57 1.250 . S
C60 O58 1.248 . S
C61 O62 1.264 . S
C61 O69 1.249 . S
O62 C61 1.264 . S
O63 Mg56 1.986 . S
O63 C67 1.246 . S
O64 Mg59 2.032 . S
O64 C67 1.259 . S
O65 Mg56 2.114 . S
O65 C68 1.252 . S
O66 Mg56 2.251 . S
O66 Mg59 2.079 . S
O66 C68 1.273 . S
C67 O63 1.246 . S
C67 O64 1.259 . S
C68 O65 1.252 . S
C68 O66 1.273 . S
O69 Mg56 2.010 . S
O69 C61 1.249 . S
Mg70 O71 2.028 . S
Mg70 O77 1.986 . S
Mg70 O79 2.114 . S
Mg70 O80 2.251 . S
Mg70 O83 2.010 . S
O71 Mg70 2.028 . S
O71 C74 1.250 . S
O72 Mg73 2.028 . S
O72 C74 1.248 . S
Mg73 O72 2.028 . S
Mg73 O78 2.032 . S
Mg73 O80 2.079 . S
C74 O71 1.250 . S
C74 O72 1.248 . S
C75 O76 1.264 . S
C75 O83 1.249 . S
O76 C75 1.264 . S
O77 Mg70 1.986 . S
O77 C81 1.246 . S
O78 Mg73 2.032 . S
O78 C81 1.259 . S
O79 Mg70 2.114 . S
O79 C82 1.252 . S
O80 Mg70 2.251 . S
O80 Mg73 2.079 . S
O80 C82 1.273 . S
C81 O77 1.246 . S
C81 O78 1.259 . S
C82 O79 1.252 . S
C82 O80 1.273 . S
O83 Mg70 2.010 . S
O83 C75 1.249 . S
Mg84 O85 2.028 . S
Mg84 O91 1.986 . S
Mg84 O93 2.114 . S
Mg84 O94 2.251 . S
Mg84 O97 2.010 . S
O85 Mg84 2.028 . S
O85 C88 1.250 . S
O86 Mg87 2.028 . S
O86 C88 1.248 . S
Mg87 O86 2.028 . S
Mg87 O92 2.032 . S
Mg87 O94 2.079 . S
C88 O85 1.250 . S
C88 O86 1.248 . S
C89 O90 1.264 . S
C89 O97 1.249 . S
O90 C89 1.264 . S
O91 Mg84 1.986 . S
O91 C95 1.246 . S
O92 Mg87 2.032 . S
O92 C95 1.259 . S
O93 Mg84 2.114 . S
O93 C96 1.252 . S
O94 Mg84 2.251 . S
O94 Mg87 2.079 . S
O94 C96 1.273 . S
C95 O91 1.246 . S
C95 O92 1.259 . S
C96 O93 1.252 . S
C96 O94 1.273 . S
O97 Mg84 2.010 . S
O97 C89 1.249 . S
Mg98 O99 2.028 . S
Mg98 O105 1.986 . S
Mg98 O107 2.114 . S
Mg98 O108 2.251 . S
Mg98 O111 2.010 . S
O99 Mg98 2.028 . S
O99 C102 1.250 . S
O100 Mg101 2.028 . S
O100 C102 1.248 . S
Mg101 O100 2.028 . S
Mg101 O106 2.032 . S
Mg101 O108 2.079 . S
C102 O99 1.250 . S
C102 O100 1.248 . S
C103 O104 1.264 . S
C103 O111 1.249 . S
O104 C103 1.264 . S
O105 Mg98 1.986 . S
O105 C109 1.246 . S
O106 Mg101 2.032 . S
O106 C109 1.259 . S
O107 Mg98 2.114 . S
O107 C110 1.252 . S
O108 Mg98 2.251 . S
O108 Mg101 2.079 . S
O108 C110 1.273 . S
C109 O105 1.246 . S
C109 O106 1.259 . S
C110 O107 1.252 . S
C110 O108 1.273 . S
O111 Mg98 2.010 . S
O111 C103 1.249 . S
Mg112 O113 2.028 . S
Mg112 O119 1.986 . S
Mg112 O121 2.114 . S
Mg112 O122 2.251 . S
Mg112 O125 2.010 . S
O113 Mg112 2.028 . S
O113 C116 1.250 . S
O114 Mg115 2.028 . S
O114 C116 1.248 . S
Mg115 O114 2.028 . S
Mg115 O120 2.032 . S
Mg115 O122 2.079 . S
C116 O113 1.250 . S
C116 O114 1.248 . S
C117 O118 1.264 . S
C117 O125 1.249 . S
O118 C117 1.264 . S
O119 Mg112 1.986 . S
O119 C123 1.246 . S
O120 Mg115 2.032 . S
O120 C123 1.259 . S
O121 Mg112 2.114 . S
O121 C124 1.252 . S
O122 Mg112 2.251 . S
O122 Mg115 2.079 . S
O122 C124 1.273 . S
C123 O119 1.246 . S
C123 O120 1.259 . S
C124 O121 1.252 . S
C124 O122 1.273 . S
O125 Mg112 2.010 . S
O125 C117 1.249 . S
Mg126 O127 2.028 . S
Mg126 O133 1.986 . S
Mg126 O135 2.114 . S
Mg126 O136 2.251 . S
Mg126 O139 2.010 . S
O127 Mg126 2.028 . S
O127 C130 1.250 . S
O128 Mg129 2.028 . S
O128 C130 1.248 . S
Mg129 O128 2.028 . S
Mg129 O134 2.032 . S
Mg129 O136 2.079 . S
C130 O127 1.250 . S
C130 O128 1.248 . S
C131 O132 1.264 . S
C131 O139 1.249 . S
O132 C131 1.264 . S
O133 Mg126 1.986 . S
O133 C137 1.246 . S
O134 Mg129 2.032 . S
O134 C137 1.259 . S
O135 Mg126 2.114 . S
O135 C138 1.252 . S
O136 Mg126 2.251 . S
O136 Mg129 2.079 . S
O136 C138 1.273 . S
C137 O133 1.246 . S
C137 O134 1.259 . S
C138 O135 1.252 . S
C138 O136 1.273 . S
O139 Mg126 2.010 . S
O139 C131 1.249 . S
Mg140 O141 2.028 . S
Mg140 O147 1.986 . S
Mg140 O149 2.114 . S
Mg140 O150 2.251 . S
Mg140 O153 2.010 . S
O141 Mg140 2.028 . S
O141 C144 1.250 . S
O142 Mg143 2.028 . S
O142 C144 1.248 . S
Mg143 O142 2.028 . S
Mg143 O148 2.032 . S
Mg143 O150 2.079 . S
C144 O141 1.250 . S
C144 O142 1.248 . S
C145 O146 1.264 . S
C145 O153 1.249 . S
O146 C145 1.264 . S
O147 Mg140 1.986 . S
O147 C151 1.246 . S
O148 Mg143 2.032 . S
O148 C151 1.259 . S
O149 Mg140 2.114 . S
O149 C152 1.252 . S
O150 Mg140 2.251 . S
O150 Mg143 2.079 . S
O150 C152 1.273 . S
C151 O147 1.246 . S
C151 O148 1.259 . S
C152 O149 1.252 . S
C152 O150 1.273 . S
O153 Mg140 2.010 . S
O153 C145 1.249 . S
Mg154 O155 2.028 . S
Mg154 O161 1.986 . S
Mg154 O163 2.114 . S
Mg154 O164 2.251 . S
Mg154 O167 2.010 . S
O155 Mg154 2.028 . S
O155 C158 1.250 . S
O156 Mg157 2.028 . S
O156 C158 1.248 . S
Mg157 O156 2.028 . S
Mg157 O162 2.032 . S
Mg157 O164 2.079 . S
C158 O155 1.250 . S
C158 O156 1.248 . S
C159 O160 1.264 . S
C159 O167 1.249 . S
O160 C159 1.264 . S
O161 Mg154 1.986 . S
O161 C165 1.246 . S
O162 Mg157 2.032 . S
O162 C165 1.259 . S
O163 Mg154 2.114 . S
O163 C166 1.252 . S
O164 Mg154 2.251 . S
O164 Mg157 2.079 . S
O164 C166 1.273 . S
C165 O161 1.246 . S
C165 O162 1.259 . S
C166 O163 1.252 . S
C166 O164 1.273 . S
O167 Mg154 2.010 . S
O167 C159 1.249 . S
H168 C180 0.930 . S
H169 C182 0.930 1_556 S
H170 C183 0.930 1_556 S
H171 C187 0.959 . S
H172 C187 0.959 . S
H173 C187 0.961 . S
H174 C188 0.960 . S
H175 C188 0.961 . S
H176 C188 0.959 . S
H177 C191 0.899 1_556 S
H178 C192 0.931 1_556 S
H179 C194 0.930 . S
C180 H168 0.930 . S
C180 C181 1.399 . S
C180 C185 1.399 . S
C181 C180 1.399 . S
C181 C182 1.376 . S
C182 H169 0.930 1_554 S
C182 C181 1.376 . S
C182 C183 1.388 . S
C183 H170 0.930 1_554 S
C183 C182 1.388 . S
C183 C184 1.390 . S
C184 C183 1.390 . S
C184 C185 1.394 . S
C184 C190 1.465 . S
C185 C180 1.399 . S
C185 C184 1.394 . S
C185 C186 1.516 . S
C186 C185 1.516 . S
C186 C187 1.502 . S
C186 C188 1.561 . S
C186 C189 1.526 . S
C187 H171 0.959 . S
C187 H172 0.959 . S
C187 H173 0.961 . S
C187 C186 1.502 . S
C188 H174 0.960 . S
C188 H175 0.961 . S
C188 H176 0.959 . S
C188 C186 1.561 . S
C189 C186 1.526 . S
C189 C190 1.396 . S
C189 C194 1.390 . S
C190 C184 1.465 . S
C190 C189 1.396 . S
C190 C191 1.424 . S
C191 H177 0.899 1_554 S
C191 C190 1.424 . S
C191 C192 1.392 . S
C192 H178 0.931 1_554 S
C192 C191 1.392 . S
C192 C193 1.389 . S
C193 C192 1.389 . S
C193 C194 1.387 . S
C194 H179 0.930 . S
C194 C189 1.390 . S
C194 C193 1.387 . S
H195 C207 0.930 . S
H196 C209 0.930 . S
H197 C210 0.930 . S
H198 C214 0.959 . S
H199 C214 0.959 . S
H200 C214 0.961 . S
H201 C215 0.960 . S
H202 C215 0.961 . S
H203 C215 0.959 . S
H204 C218 0.929 . S
H205 C219 0.931 . S
H206 C221 0.930 . S
C207 H195 0.930 . S
C207 C208 1.399 . S
C207 C212 1.399 . S
C208 C207 1.399 . S
C208 C209 1.376 . S
C209 H196 0.930 . S
C209 C208 1.376 . S
C209 C210 1.388 . S
C210 H197 0.930 . S
C210 C209 1.388 . S
C210 C211 1.390 . S
C211 C210 1.390 . S
C211 C212 1.394 . S
C211 C217 1.465 1_455 S
C212 C207 1.399 . S
C212 C211 1.394 . S
C212 C213 1.516 . S
C213 C212 1.516 . S
C213 C214 1.502 1_455 S
C213 C215 1.561 . S
C213 C216 1.526 1_455 S
C214 H198 0.959 . S
C214 H199 0.959 . S
C214 H200 0.961 . S
C214 C213 1.502 1_655 S
C215 H201 0.960 . S
C215 H202 0.961 . S
C215 H203 0.959 . S
C215 C213 1.561 . S
C216 C213 1.526 1_655 S
C216 C217 1.396 . S
C216 C221 1.390 . S
C217 C211 1.465 1_655 S
C217 C216 1.396 . S
C217 C218 1.399 . S
C218 H204 0.929 . S
C218 C217 1.399 . S
C218 C219 1.385 . S
C219 H205 0.931 . S
C219 C218 1.385 . S
C219 C220 1.389 . S
C220 C219 1.389 . S
C220 C221 1.387 . S
C221 H206 0.930 . S
C221 C216 1.390 . S
C221 C220 1.387 . S
H222 C234 0.930 . S
H223 C236 0.930 . S
H224 C237 0.930 . S
H225 C241 0.959 . S
H226 C241 0.959 . S
H227 C241 0.961 . S
H228 C242 0.960 . S
H229 C242 0.961 . S
H230 C242 0.959 . S
H231 C245 0.929 . S
H232 C246 0.931 . S
H233 C248 0.930 . S
C234 H222 0.930 . S
C234 C235 1.399 . S
C234 C239 1.399 . S
C235 C234 1.399 . S
C235 C236 1.376 . S
C236 H223 0.930 . S
C236 C235 1.376 . S
C236 C237 1.388 . S
C237 H224 0.930 . S
C237 C236 1.388 . S
C237 C238 1.390 . S
C238 C237 1.390 . S
C238 C239 1.394 . S
C238 C244 1.465 1_565 S
C239 C234 1.399 . S
C239 C238 1.394 . S
C239 C240 1.516 . S
C240 C239 1.516 . S
C240 C241 1.502 . S
C240 C242 1.561 1_565 S
C240 C243 1.526 1_565 S
C241 H225 0.959 . S
C241 H226 0.959 . S
C241 H227 0.961 . S
C241 C240 1.502 . S
C242 H228 0.960 . S
C242 H229 0.961 . S
C242 H230 0.959 . S
C242 C240 1.561 1_545 S
C243 C240 1.526 1_545 S
C243 C244 1.396 . S
C243 C248 1.390 . S
C244 C238 1.465 1_545 S
C244 C243 1.396 . S
C244 C245 1.399 . S
C245 H231 0.929 . S
C245 C244 1.399 . S
C245 C246 1.385 . S
C246 H232 0.931 . S
C246 C245 1.385 . S
C246 C247 1.389 . S
C247 C246 1.389 . S
C247 C248 1.387 . S
C248 H233 0.930 . S
C248 C243 1.390 . S
C248 C247 1.387 . S
H249 C261 0.930 . S
H250 C263 0.930 . S
H251 C264 0.930 . S
H252 C268 0.959 . S
H253 C268 0.959 . S
H254 C268 0.961 . S
H255 C269 0.960 . S
H256 C269 0.961 . S
H257 C269 0.959 . S
H258 C272 0.929 . S
H259 C273 0.931 . S
H260 C275 0.930 . S
C261 H249 0.930 . S
C261 C262 1.399 . S
C261 C266 1.399 . S
C262 C261 1.399 . S
C262 C263 1.376 . S
C263 H250 0.930 . S
C263 C262 1.376 . S
C263 C264 1.388 . S
C264 H251 0.930 . S
C264 C263 1.388 . S
C264 C265 1.390 . S
C265 C264 1.390 . S
C265 C266 1.394 . S
C265 C271 1.465 . S
C266 C261 1.399 . S
C266 C265 1.394 . S
C266 C267 1.516 . S
C267 C266 1.516 . S
C267 C268 1.502 . S
C267 C269 1.561 . S
C267 C270 1.526 . S
C268 H252 0.959 . S
C268 H253 0.959 . S
C268 H254 0.961 . S
C268 C267 1.502 . S
C269 H255 0.960 . S
C269 H256 0.961 . S
C269 H257 0.959 . S
C269 C267 1.561 . S
C270 C267 1.526 . S
C270 C271 1.396 . S
C270 C275 1.390 . S
C271 C265 1.465 . S
C271 C270 1.396 . S
C271 C272 1.399 . S
C272 H258 0.929 . S
C272 C271 1.399 . S
C272 C273 1.385 . S
C273 H259 0.931 . S
C273 C272 1.385 . S
C273 C274 1.389 . S
C274 C273 1.389 . S
C274 C275 1.387 . S
C275 H260 0.930 . S
C275 C270 1.390 . S
C275 C274 1.387 . S
H276 C288 0.930 . S
H277 C290 0.930 1_554 S
H278 C291 0.930 1_554 S
H279 C295 0.959 . S
H280 C295 0.959 . S
H281 C295 0.961 . S
H282 C296 0.960 . S
H283 C296 0.961 1_455 S
H284 C296 0.959 . S
H285 C299 0.929 1_654 S
H286 C300 0.931 1_554 S
H287 C302 0.930 . S
C288 H276 0.930 . S
C288 C289 1.399 . S
C288 C293 1.399 . S
C289 C288 1.399 . S
C289 C290 1.376 . S
C290 H277 0.930 1_556 S
C290 C289 1.376 . S
C290 C291 1.388 . S
C291 H278 0.930 1_556 S
C291 C290 1.388 . S
C291 C292 1.390 . S
C292 C291 1.390 . S
C292 C293 1.394 . S
C292 C298 1.465 1_655 S
C293 C288 1.399 . S
C293 C292 1.394 . S
C293 C294 1.516 1_655 S
C294 C293 1.516 1_455 S
C294 C295 1.502 . S
C294 C296 1.561 1_455 S
C294 C297 1.526 . S
C295 H279 0.959 . S
C295 H280 0.959 . S
C295 H281 0.961 . S
C295 C294 1.502 . S
C296 H282 0.960 . S
C296 H283 0.961 1_655 S
C296 H284 0.959 . S
C296 C294 1.561 1_655 S
C297 C294 1.526 . S
C297 C298 1.396 . S
C297 C302 1.390 . S
C298 C292 1.465 1_455 S
C298 C297 1.396 . S
C298 C299 1.399 . S
C299 H285 0.929 1_456 S
C299 C298 1.399 . S
C299 C300 1.385 . S
C300 H286 0.931 1_556 S
C300 C299 1.385 . S
C300 C301 1.389 . S
C301 C300 1.389 . S
C301 C302 1.387 . S
C302 H287 0.930 . S
C302 C297 1.390 . S
C302 C301 1.387 . S
H303 C315 0.930 . S
H304 C317 0.930 . S
H305 C318 0.930 . S
H306 C322 0.959 . S
H307 C322 0.959 . S
H308 C322 0.961 . S
H309 C323 0.960 1_545 S
H310 C323 0.961 . S
H311 C323 0.959 . S
H312 C326 0.929 . S
H313 C327 0.931 . S
H314 C329 0.930 . S
C315 H303 0.930 . S
C315 C316 1.399 . S
C315 C320 1.399 . S
C316 C315 1.399 . S
C316 C317 1.376 . S
C317 H304 0.930 . S
C317 C316 1.376 . S
C317 C318 1.388 1_545 S
C318 H305 0.930 . S
C318 C317 1.388 1_565 S
C318 C319 1.390 . S
C319 C318 1.390 . S
C319 C320 1.394 1_565 S
C319 C325 1.465 . S
C320 C315 1.399 . S
C320 C319 1.394 1_545 S
C320 C321 1.516 . S
C321 C320 1.516 . S
C321 C322 1.502 . S
C321 C323 1.561 1_545 S
C321 C324 1.526 1_545 S
C322 H306 0.959 . S
C322 H307 0.959 . S
C322 H308 0.961 . S
C322 C321 1.502 . S
C323 H309 0.960 1_565 S
C323 H310 0.961 . S
C323 H311 0.959 . S
C323 C321 1.561 1_565 S
C324 C321 1.526 1_565 S
C324 C325 1.396 . S
C324 C329 1.390 . S
C325 C319 1.465 . S
C325 C324 1.396 . S
C325 C326 1.399 . S
C326 H312 0.929 . S
C326 C325 1.399 . S
C326 C327 1.385 . S
C327 H313 0.931 . S
C327 C326 1.385 . S
C327 C328 1.389 . S
C328 C327 1.389 . S
C328 C329 1.387 . S
C329 H314 0.930 . S
C329 C324 1.390 . S
C329 C328 1.387 . S
H330 C342 0.930 . S
H331 C344 0.930 . S
H332 C345 0.930 . S
H333 C349 0.959 . S
H334 C349 0.959 . S
H335 C349 0.961 . S
H336 C350 0.960 . S
H337 C350 0.961 . S
H338 C350 0.959 . S
H339 C353 0.929 . S
H340 C354 0.931 . S
H341 C356 0.930 . S
C342 H330 0.930 . S
C342 C343 1.399 . S
C342 C347 1.399 . S
C343 C342 1.399 . S
C343 C344 1.376 . S
C344 H331 0.930 . S
C344 C343 1.376 . S
C344 C345 1.388 . S
C345 H332 0.930 . S
C345 C344 1.388 . S
C345 C346 1.390 . S
C346 C345 1.390 . S
C346 C347 1.394 . S
C346 C352 1.465 . S
C347 C342 1.399 . S
C347 C346 1.394 . S
C347 C348 1.516 . S
C348 C347 1.516 . S
C348 C349 1.502 . S
C348 C350 1.561 . S
C348 C351 1.526 . S
C349 H333 0.959 . S
C349 H334 0.959 . S
C349 H335 0.961 . S
C349 C348 1.502 . S
C350 H336 0.960 . S
C350 H337 0.961 . S
C350 H338 0.959 . S
C350 C348 1.561 . S
C351 C348 1.526 . S
C351 C352 1.396 . S
C351 C356 1.390 . S
C352 C346 1.465 . S
C352 C351 1.396 . S
C352 C353 1.399 . S
C353 H339 0.929 . S
C353 C352 1.399 . S
C353 C354 1.385 . S
C354 H340 0.931 . S
C354 C353 1.385 . S
C354 C355 1.389 . S
C355 C354 1.389 . S
C355 C356 1.387 . S
C356 H341 0.930 . S
C356 C351 1.390 . S
C356 C355 1.387 . S
H357 C369 0.930 . S
H358 C371 0.930 . S
H359 C372 0.930 . S
H360 C376 0.959 . S
H361 C376 0.959 . S
H362 C376 0.961 . S
H363 C377 0.960 . S
H364 C377 0.961 . S
H365 C377 0.959 . S
H366 C380 0.929 . S
H367 C381 0.931 . S
H368 C383 0.930 . S
C369 H357 0.930 . S
C369 C370 1.399 . S
C369 C374 1.399 . S
C370 C369 1.399 . S
C370 C371 1.376 . S
C371 H358 0.930 . S
C371 C370 1.376 . S
C371 C372 1.388 . S
C372 H359 0.930 . S
C372 C371 1.388 . S
C372 C373 1.390 . S
C373 C372 1.390 . S
C373 C374 1.394 . S
C373 C379 1.465 . S
C374 C369 1.399 . S
C374 C373 1.394 . S
C374 C375 1.516 . S
C375 C374 1.516 . S
C375 C376 1.502 . S
C375 C377 1.561 . S
C375 C378 1.526 . S
C376 H360 0.959 . S
C376 H361 0.959 . S
C376 H362 0.961 . S
C376 C375 1.502 . S
C377 H363 0.960 . S
C377 H364 0.961 . S
C377 H365 0.959 . S
C377 C375 1.561 . S
C378 C375 1.526 . S
C378 C379 1.396 . S
C378 C383 1.390 . S
C379 C373 1.465 . S
C379 C378 1.396 . S
C379 C380 1.399 . S
C380 H366 0.929 . S
C380 C379 1.399 . S
C380 C381 1.385 . S
C381 H367 0.931 . S
C381 C380 1.385 . S
C381 C382 1.389 . S
C382 C381 1.389 . S
C382 C383 1.387 . S
C383 H368 0.930 . S
C383 C378 1.390 . S
C383 C382 1.387 . S
H384 C396 0.930 . S
H385 C398 0.930 . S
H386 C399 0.930 . S
H387 C403 0.959 . S
H388 C403 0.959 . S
H389 C403 0.961 . S
H390 C404 0.960 . S
H391 C404 0.961 . S
H392 C404 0.959 . S
H393 C407 0.929 . S
H394 C408 0.931 . S
H395 C410 0.930 . S
C396 H384 0.930 . S
C396 C397 1.399 . S
C396 C401 1.399 . S
C397 C396 1.399 . S
C397 C398 1.376 . S
C398 H385 0.930 . S
C398 C397 1.376 . S
C398 C399 1.388 . S
C399 H386 0.930 . S
C399 C398 1.388 . S
C399 C400 1.390 . S
C400 C399 1.390 . S
C400 C401 1.394 . S
C400 C406 1.465 . S
C401 C396 1.399 . S
C401 C400 1.394 . S
C401 C402 1.516 . S
C402 C401 1.516 . S
C402 C403 1.502 . S
C402 C404 1.561 . S
C402 C405 1.526 . S
C403 H387 0.959 . S
C403 H388 0.959 . S
C403 H389 0.961 . S
C403 C402 1.502 . S
C404 H390 0.960 . S
C404 H391 0.961 . S
C404 H392 0.959 . S
C404 C402 1.561 . S
C405 C402 1.526 . S
C405 C406 1.396 . S
C405 C410 1.390 . S
C406 C400 1.465 . S
C406 C405 1.396 . S
C406 C407 1.399 . S
C407 H393 0.929 . S
C407 C406 1.399 . S
C407 C408 1.385 . S
C408 H394 0.931 . S
C408 C407 1.385 . S
C408 C409 1.389 . S
C409 C408 1.389 . S
C409 C410 1.387 . S
C410 H395 0.930 . S
C410 C405 1.390 . S
C410 C409 1.387 . S
H411 C423 0.930 . S
H412 C425 0.930 . S
H413 C426 0.930 . S
H414 C430 0.959 . S
H415 C430 0.959 . S
H416 C430 0.961 . S
H417 C431 0.960 . S
H418 C431 0.961 . S
H419 C431 0.959 . S
H420 C434 0.929 . S
H421 C435 0.931 . S
H422 C437 0.930 . S
C423 H411 0.930 . S
C423 C424 1.399 . S
C423 C428 1.399 . S
C424 C423 1.399 . S
C424 C425 1.376 . S
C425 H412 0.930 . S
C425 C424 1.376 . S
C425 C426 1.388 . S
C426 H413 0.930 . S
C426 C425 1.388 . S
C426 C427 1.390 . S
C427 C426 1.390 . S
C427 C428 1.394 . S
C427 C433 1.465 . S
C428 C423 1.399 . S
C428 C427 1.394 . S
C428 C429 1.516 . S
C429 C428 1.516 . S
C429 C430 1.502 . S
C429 C431 1.561 . S
C429 C432 1.526 . S
C430 H414 0.959 . S
C430 H415 0.959 . S
C430 H416 0.961 . S
C430 C429 1.502 . S
C431 H417 0.960 . S
C431 H418 0.961 . S
C431 H419 0.959 . S
C431 C429 1.561 . S
C432 C429 1.526 . S
C432 C433 1.396 . S
C432 C437 1.390 . S
C433 C427 1.465 . S
C433 C432 1.396 . S
C433 C434 1.399 . S
C434 H420 0.929 . S
C434 C433 1.399 . S
C434 C435 1.385 . S
C435 H421 0.931 . S
C435 C434 1.385 . S
C435 C436 1.389 . S
C436 C435 1.389 . S
C436 C437 1.387 . S
C437 H422 0.930 . S
C437 C432 1.390 . S
C437 C436 1.387 . S
H438 C450 0.930 . S
H439 C452 0.930 . S
H440 C453 0.930 . S
H441 C457 0.959 . S
H442 C457 0.959 . S
H443 C457 0.961 . S
H444 C458 0.960 . S
H445 C458 0.961 . S
H446 C458 0.959 . S
H447 C461 0.929 . S
H448 C462 0.931 . S
H449 C464 0.930 . S
C450 H438 0.930 . S
C450 C451 1.399 . S
C450 C455 1.399 . S
C451 C450 1.399 . S
C451 C452 1.376 . S
C452 H439 0.930 . S
C452 C451 1.376 . S
C452 C453 1.388 . S
C453 H440 0.930 . S
C453 C452 1.388 . S
C453 C454 1.390 . S
C454 C453 1.390 . S
C454 C455 1.394 . S
C454 C460 1.465 . S
C455 C450 1.399 . S
C455 C454 1.394 . S
C455 C456 1.516 . S
C456 C455 1.516 . S
C456 C457 1.502 . S
C456 C458 1.561 . S
C456 C459 1.526 . S
C457 H441 0.959 . S
C457 H442 0.959 . S
C457 H443 0.961 . S
C457 C456 1.502 . S
C458 H444 0.960 . S
C458 H445 0.961 . S
C458 H446 0.959 . S
C458 C456 1.561 . S
C459 C456 1.526 . S
C459 C460 1.396 . S
C459 C464 1.390 . S
C460 C454 1.465 . S
C460 C459 1.396 . S
C460 C461 1.399 . S
C461 H447 0.929 . S
C461 C460 1.399 . S
C461 C462 1.385 . S
C462 H448 0.931 . S
C462 C461 1.385 . S
C462 C463 1.389 . S
C463 C462 1.389 . S
C463 C464 1.387 . S
C464 H449 0.930 . S
C464 C459 1.390 . S
C464 C463 1.387 . S
H465 C477 0.930 . S
H466 C479 0.930 . S
H467 C480 0.930 . S
H468 C484 0.959 . S
H469 C484 0.959 . S
H470 C484 0.961 . S
H471 C485 0.960 . S
H472 C485 0.961 . S
H473 C485 0.959 . S
H474 C488 0.929 . S
H475 C489 0.931 . S
H476 C491 0.930 . S
C477 H465 0.930 . S
C477 C478 1.399 . S
C477 C482 1.399 . S
C478 C477 1.399 . S
C478 C479 1.376 . S
C479 H466 0.930 . S
C479 C478 1.376 . S
C479 C480 1.388 . S
C480 H467 0.930 . S
C480 C479 1.388 . S
C480 C481 1.390 . S
C481 C480 1.390 . S
C481 C482 1.394 . S
C481 C487 1.465 . S
C482 C477 1.399 . S
C482 C481 1.394 . S
C482 C483 1.516 . S
C483 C482 1.516 . S
C483 C484 1.502 . S
C483 C485 1.561 . S
C483 C486 1.526 . S
C484 H468 0.959 . S
C484 H469 0.959 . S
C484 H470 0.961 . S
C484 C483 1.502 . S
C485 H471 0.960 . S
C485 H472 0.961 . S
C485 H473 0.959 . S
C485 C483 1.561 . S
C486 C483 1.526 . S
C486 C487 1.396 . S
C486 C491 1.390 . S
C487 C481 1.465 . S
C487 C486 1.396 . S
C487 C488 1.399 . S
C488 H474 0.929 . S
C488 C487 1.399 . S
C488 C489 1.385 . S
C489 H475 0.931 . S
C489 C488 1.385 . S
C489 C490 1.389 . S
C490 C489 1.389 . S
C490 C491 1.387 . S
C491 H476 0.930 . S
C491 C486 1.390 . S
C491 C490 1.387 . S
H492 C504 0.930 . S
H493 C506 0.930 . S
H494 C507 0.930 . S
H495 C511 0.959 . S
H496 C511 0.959 . S
H497 C511 0.961 1_565 S
H498 C512 0.960 1_565 S
H499 C512 0.961 . S
H500 C512 0.959 . S
H501 C515 0.929 . S
H502 C516 0.931 . S
H503 C518 0.930 . S
C504 H492 0.930 . S
C504 C505 1.399 . S
C504 C509 1.399 . S
C505 C504 1.399 . S
C505 C506 1.376 1_556 S
C506 H493 0.930 . S
C506 C505 1.376 1_554 S
C506 C507 1.388 . S
C507 H494 0.930 . S
C507 C506 1.388 . S
C507 C508 1.390 . S
C508 C507 1.390 . S
C508 C509 1.394 1_554 S
C508 C514 1.465 1_565 S
C509 C504 1.399 . S
C509 C508 1.394 1_556 S
C509 C510 1.516 1_565 S
C510 C509 1.516 1_545 S
C510 C511 1.502 . S
C510 C512 1.561 . S
C510 C513 1.526 . S
C511 H495 0.959 . S
C511 H496 0.959 . S
C511 H497 0.961 1_545 S
C511 C510 1.502 . S
C512 H498 0.960 1_545 S
C512 H499 0.961 . S
C512 H500 0.959 . S
C512 C510 1.561 . S
C513 C510 1.526 . S
C513 C514 1.396 1_556 S
C513 C518 1.390 . S
C514 C508 1.465 1_545 S
C514 C513 1.396 1_554 S
C514 C515 1.399 . S
C515 H501 0.929 . S
C515 C514 1.399 . S
C515 C516 1.385 . S
C516 H502 0.931 . S
C516 C515 1.385 . S
C516 C517 1.389 . S
C517 C516 1.389 . S
C517 C518 1.387 1_554 S
C518 H503 0.930 . S
C518 C513 1.390 . S
C518 C517 1.387 1_556 S
H519 C531 0.930 . S
H520 C533 0.930 . S
H521 C534 0.930 . S
H522 C538 0.959 . S
H523 C538 0.959 . S
H524 C538 0.961 . S
H525 C539 0.960 . S
H526 C539 0.961 . S
H527 C539 0.959 . S
H528 C542 0.929 . S
H529 C543 0.931 . S
H530 C545 0.930 . S
C531 H519 0.930 . S
C531 C532 1.399 . S
C531 C536 1.399 . S
C532 C531 1.399 . S
C532 C533 1.376 . S
C533 H520 0.930 . S
C533 C532 1.376 . S
C533 C534 1.388 . S
C534 H521 0.930 . S
C534 C533 1.388 . S
C534 C535 1.390 . S
C535 C534 1.390 . S
C535 C536 1.394 . S
C535 C541 1.465 . S
C536 C531 1.399 . S
C536 C535 1.394 . S
C536 C537 1.516 . S
C537 C536 1.516 . S
C537 C538 1.502 . S
C537 C539 1.561 . S
C537 C540 1.526 . S
C538 H522 0.959 . S
C538 H523 0.959 . S
C538 H524 0.961 . S
C538 C537 1.502 . S
C539 H525 0.960 . S
C539 H526 0.961 . S
C539 H527 0.959 . S
C539 C537 1.561 . S
C540 C537 1.526 . S
C540 C541 1.396 . S
C540 C545 1.390 . S
C541 C535 1.465 . S
C541 C540 1.396 . S
C541 C542 1.399 . S
C542 H528 0.929 . S
C542 C541 1.399 . S
C542 C543 1.385 . S
C543 H529 0.931 . S
C543 C542 1.385 . S
C543 C544 1.389 . S
C544 C543 1.389 . S
C544 C545 1.387 . S
C545 H530 0.930 . S
C545 C540 1.390 . S
C545 C544 1.387 . S
H546 C558 0.930 . S
H547 C560 0.930 . S
H548 C561 0.930 . S
H549 C565 0.959 . S
H550 C565 0.959 . S
H551 C565 0.961 1_655 S
H552 C566 0.960 1_655 S
H553 C566 0.961 . S
H554 C566 0.959 . S
H555 C569 0.929 . S
H556 C570 0.931 . S
H557 C572 0.930 . S
C558 H546 0.930 . S
C558 C559 1.399 . S
C558 C563 1.399 . S
C559 C558 1.399 . S
C559 C560 1.376 . S
C560 H547 0.930 . S
C560 C559 1.376 . S
C560 C561 1.388 . S
C561 H548 0.930 . S
C561 C560 1.388 . S
C561 C562 1.390 . S
C562 C561 1.390 . S
C562 C563 1.394 . S
C562 C568 1.465 1_655 S
C563 C558 1.399 . S
C563 C562 1.394 . S
C563 C564 1.516 1_655 S
C564 C563 1.516 1_455 S
C564 C565 1.502 . S
C564 C566 1.561 . S
C564 C567 1.526 . S
C565 H549 0.959 . S
C565 H550 0.959 . S
C565 H551 0.961 1_455 S
C565 C564 1.502 . S
C566 H552 0.960 1_455 S
C566 H553 0.961 . S
C566 H554 0.959 . S
C566 C564 1.561 . S
C567 C564 1.526 . S
C567 C568 1.396 . S
C567 C572 1.390 . S
C568 C562 1.465 1_455 S
C568 C567 1.396 . S
C568 C569 1.399 . S
C569 H555 0.929 . S
C569 C568 1.399 . S
C569 C570 1.385 . S
C570 H556 0.931 . S
C570 C569 1.385 . S
C570 C571 1.389 . S
C571 C570 1.389 . S
C571 C572 1.387 . S
C572 H557 0.930 . S
C572 C567 1.390 . S
C572 C571 1.387 . S
H573 C585 0.930 . S
H574 C587 0.930 . S
H575 C588 0.930 . S
H576 C592 0.959 . S
H577 C592 0.959 . S
H578 C592 0.961 1_565 S
H579 C593 0.960 1_565 S
H580 C593 0.961 . S
H581 C593 0.959 . S
H582 C596 0.929 . S
H583 C597 0.931 . S
H584 C599 0.930 . S
C585 H573 0.930 . S
C585 C586 1.399 . S
C585 C590 1.399 . S
C586 C585 1.399 . S
C586 C587 1.376 1_554 S
C587 H574 0.930 . S
C587 C586 1.376 1_556 S
C587 C588 1.388 . S
C588 H575 0.930 . S
C588 C587 1.388 . S
C588 C589 1.390 . S
C589 C588 1.390 . S
C589 C590 1.394 1_556 S
C589 C595 1.465 1_565 S
C590 C585 1.399 . S
C590 C589 1.394 1_554 S
C590 C591 1.516 1_565 S
C591 C590 1.516 1_545 S
C591 C592 1.502 . S
C591 C593 1.561 . S
C591 C594 1.526 . S
C592 H576 0.959 . S
C592 H577 0.959 . S
C592 H578 0.961 1_545 S
C592 C591 1.502 . S
C593 H579 0.960 1_545 S
C593 H580 0.961 . S
C593 H581 0.959 . S
C593 C591 1.561 . S
C594 C591 1.526 . S
C594 C595 1.396 1_554 S
C594 C599 1.390 . S
C595 C589 1.465 1_545 S
C595 C594 1.396 1_556 S
C595 C596 1.399 . S
C596 H582 0.929 . S
C596 C595 1.399 . S
C596 C597 1.385 . S
C597 H583 0.931 . S
C597 C596 1.385 . S
C597 C598 1.389 . S
C598 C597 1.389 . S
C598 C599 1.387 1_556 S
C599 H584 0.930 . S
C599 C594 1.390 . S
C599 C598 1.387 1_554 S
H600 C612 0.930 . S
H601 C614 0.930 . S
H602 C615 0.930 . S
H603 C619 0.959 . S
H604 C619 0.959 . S
H605 C619 0.961 . S
H606 C620 0.960 . S
H607 C620 0.961 . S
H608 C620 0.959 . S
H609 C623 0.929 . S
H610 C624 0.931 . S
H611 C626 0.930 . S
C612 H600 0.930 . S
C612 C613 1.399 . S
C612 C617 1.399 . S
C613 C612 1.399 . S
C613 C614 1.376 . S
C614 H601 0.930 . S
C614 C613 1.376 . S
C614 C615 1.388 . S
C615 H602 0.930 . S
C615 C614 1.388 . S
C615 C616 1.390 . S
C616 C615 1.390 . S
C616 C617 1.394 . S
C616 C622 1.465 . S
C617 C612 1.399 . S
C617 C616 1.394 . S
C617 C618 1.516 . S
C618 C617 1.516 . S
C618 C619 1.502 . S
C618 C620 1.561 . S
C618 C621 1.526 . S
C619 H603 0.959 . S
C619 H604 0.959 . S
C619 H605 0.961 . S
C619 C618 1.502 . S
C620 H606 0.960 . S
C620 H607 0.961 . S
C620 H608 0.959 . S
C620 C618 1.561 . S
C621 C618 1.526 . S
C621 C622 1.396 . S
C621 C626 1.390 . S
C622 C616 1.465 . S
C622 C621 1.396 . S
C622 C623 1.399 . S
C623 H609 0.929 . S
C623 C622 1.399 . S
C623 C624 1.385 . S
C624 H610 0.931 . S
C624 C623 1.385 . S
C624 C625 1.389 . S
C625 C624 1.389 . S
C625 C626 1.387 . S
C626 H611 0.930 . S
C626 C621 1.390 . S
C626 C625 1.387 . S
H627 C639 0.930 . S
H628 C641 0.930 . S
H629 C642 0.930 . S
H630 C646 0.959 1_655 S
H631 C646 0.959 1_655 S
H632 C646 0.961 . S
H633 C647 0.960 . S
H634 C647 0.961 1_655 S
H635 C647 0.959 . S
H636 C650 0.929 . S
H637 C651 0.931 . S
H638 C653 0.930 . S
C639 H627 0.930 . S
C639 C640 1.399 . S
C639 C644 1.399 . S
C640 C639 1.399 . S
C640 C641 1.376 . S
C641 H628 0.930 . S
C641 C640 1.376 . S
C641 C642 1.388 . S
C642 H629 0.930 . S
C642 C641 1.388 . S
C642 C643 1.390 . S
C643 C642 1.390 . S
C643 C644 1.394 . S
C643 C649 1.465 1_455 S
C644 C639 1.399 . S
C644 C643 1.394 . S
C644 C645 1.516 . S
C645 C644 1.516 . S
C645 C646 1.502 . S
C645 C647 1.561 . S
C645 C648 1.526 1_455 S
C646 H630 0.959 1_455 S
C646 H631 0.959 1_455 S
C646 H632 0.961 . S
C646 C645 1.502 . S
C647 H633 0.960 . S
C647 H634 0.961 1_455 S
C647 H635 0.959 . S
C647 C645 1.561 . S
C648 C645 1.526 1_655 S
C648 C649 1.396 . S
C648 C653 1.390 . S
C649 C643 1.465 1_655 S
C649 C648 1.396 . S
C649 C650 1.399 . S
C650 H636 0.929 . S
C650 C649 1.399 . S
C650 C651 1.385 . S
C651 H637 0.931 . S
C651 C650 1.385 . S
C651 C652 1.389 . S
C652 C651 1.389 . S
C652 C653 1.387 . S
C653 H638 0.930 . S
C653 C648 1.390 . S
C653 C652 1.387 . S
H654 C666 0.930 1_655 S
H655 C668 0.930 . S
H656 C669 0.930 . S
H657 C673 0.959 . S
H658 C673 0.959 . S
H659 C673 0.961 . S
H660 C674 0.960 . S
H661 C674 0.961 . S
H662 C674 0.959 . S
H663 C677 0.929 1_556 S
H664 C678 0.931 . S
H665 C680 0.930 . S
C666 H654 0.930 1_455 S
C666 C667 1.399 . S
C666 C671 1.399 . S
C667 C666 1.399 . S
C667 C668 1.376 . S
C668 H655 0.930 . S
C668 C667 1.376 . S
C668 C669 1.388 . S
C669 H656 0.930 . S
C669 C668 1.388 . S
C669 C670 1.390 . S
C670 C669 1.390 . S
C670 C671 1.394 . S
C670 C676 1.458 1_556 S
C671 C666 1.399 . S
C671 C670 1.394 . S
C671 C672 1.516 1_556 S
C672 C671 1.516 1_554 S
C672 C673 1.502 . S
C672 C674 1.561 1_554 S
C672 C675 1.526 . S
C673 H657 0.959 . S
C673 H658 0.959 . S
C673 H659 0.961 . S
C673 C672 1.502 . S
C674 H660 0.960 . S
C674 H661 0.961 . S
C674 H662 0.959 . S
C674 C672 1.561 1_556 S
C675 C672 1.526 . S
C675 C676 1.402 . S
C675 C680 1.390 . S
C676 C670 1.458 1_554 S
C676 C675 1.402 . S
C676 C677 1.400 . S
C677 H663 0.929 1_554 S
C677 C676 1.400 . S
C677 C678 1.385 . S
C678 H664 0.931 . S
C678 C677 1.385 . S
C678 C679 1.389 . S
C679 C678 1.389 . S
C679 C680 1.387 . S
C680 H665 0.930 . S
C680 C675 1.390 . S
C680 C679 1.387 . S
H681 C693 0.930 . S
H682 C695 0.930 . S
H683 C696 0.930 . S
H684 C700 0.959 . S
H685 C700 0.959 . S
H686 C700 0.961 . S
H687 C701 0.960 . S
H688 C701 0.961 . S
H689 C701 0.959 . S
H690 C704 0.929 . S
H691 C705 0.931 1_455 S
H692 C707 0.930 . S
C693 H681 0.930 . S
C693 C694 1.399 . S
C693 C698 1.399 . S
C694 C693 1.399 . S
C694 C695 1.376 . S
C695 H682 0.930 . S
C695 C694 1.376 . S
C695 C696 1.388 . S
C696 H683 0.930 . S
C696 C695 1.388 . S
C696 C697 1.390 . S
C697 C696 1.390 . S
C697 C698 1.394 . S
C697 C703 1.465 . S
C698 C693 1.399 . S
C698 C697 1.394 . S
C698 C699 1.516 . S
C699 C698 1.516 . S
C699 C700 1.502 . S
C699 C701 1.561 . S
C699 C702 1.526 . S
C700 H684 0.959 . S
C700 H685 0.959 . S
C700 H686 0.961 . S
C700 C699 1.502 . S
C701 H687 0.960 . S
C701 H688 0.961 . S
C701 H689 0.959 . S
C701 C699 1.561 . S
C702 C699 1.526 . S
C702 C703 1.396 . S
C702 C707 1.390 . S
C703 C697 1.465 . S
C703 C702 1.396 . S
C703 C704 1.399 . S
C704 H690 0.929 . S
C704 C703 1.399 . S
C704 C705 1.385 . S
C705 H691 0.931 1_655 S
C705 C704 1.385 . S
C705 C706 1.389 . S
C706 C705 1.389 . S
C706 C707 1.387 . S
C707 H692 0.930 . S
C707 C702 1.390 . S
C707 C706 1.387 . S
H708 C720 0.930 . S
H709 C722 0.930 . S
H710 C723 0.930 . S
H711 C727 0.959 . S
H712 C727 0.959 . S
H713 C727 0.961 . S
H714 C728 0.960 . S
H715 C728 0.961 . S
H716 C728 0.959 . S
H717 C731 0.929 . S
H718 C732 0.931 1_545 S
H719 C734 0.930 . S
C720 H708 0.930 . S
C720 C721 1.399 . S
C720 C725 1.399 . S
C721 C720 1.399 . S
C721 C722 1.376 . S
C722 H709 0.930 . S
C722 C721 1.376 . S
C722 C723 1.388 . S
C723 H710 0.930 . S
C723 C722 1.388 . S
C723 C724 1.390 . S
C724 C723 1.390 . S
C724 C725 1.394 . S
C724 C730 1.465 . S
C725 C720 1.399 . S
C725 C724 1.394 . S
C725 C726 1.516 . S
C726 C725 1.516 . S
C726 C727 1.502 . S
C726 C728 1.561 . S
C726 C729 1.526 . S
C727 H711 0.959 . S
C727 H712 0.959 . S
C727 H713 0.961 . S
C727 C726 1.502 . S
C728 H714 0.960 . S
C728 H715 0.961 . S
C728 H716 0.959 . S
C728 C726 1.561 . S
C729 C726 1.526 . S
C729 C730 1.396 . S
C729 C734 1.390 . S
C730 C724 1.465 . S
C730 C729 1.396 . S
C730 C731 1.399 . S
C731 H717 0.929 . S
C731 C730 1.399 . S
C731 C732 1.385 . S
C732 H718 0.931 1_565 S
C732 C731 1.385 . S
C732 C733 1.389 . S
C733 C732 1.389 . S
C733 C734 1.387 . S
C734 H719 0.930 . S
C734 C729 1.390 . S
C734 C733 1.387 . S
H735 C747 0.930 . S
H736 C749 0.930 . S
H737 C750 0.930 1_556 S
H738 C754 0.959 . S
H739 C754 0.959 . S
H740 C754 0.961 . S
H741 C755 0.960 . S
H742 C755 0.961 . S
H743 C755 0.959 . S
H744 C758 0.929 . S
H745 C759 0.931 1_455 S
H746 C761 0.930 . S
C747 H735 0.930 . S
C747 C748 1.399 . S
C747 C752 1.399 . S
C748 C747 1.399 . S
C748 C749 1.376 . S
C749 H736 0.930 . S
C749 C748 1.376 . S
C749 C750 1.388 . S
C750 H737 0.930 1_554 S
C750 C749 1.388 . S
C750 C751 1.396 . S
C751 C750 1.396 . S
C751 C752 1.410 . S
C751 C757 1.447 1_554 S
C752 C747 1.399 . S
C752 C751 1.410 . S
C752 C753 1.516 . S
C753 C752 1.516 . S
C753 C754 1.502 . S
C753 C755 1.561 1_554 S
C753 C756 1.526 1_554 S
C754 H738 0.959 . S
C754 H739 0.959 . S
C754 H740 0.961 . S
C754 C753 1.502 . S
C755 H741 0.960 . S
C755 H742 0.961 . S
C755 H743 0.959 . S
C755 C753 1.561 1_556 S
C756 C753 1.526 1_556 S
C756 C757 1.396 . S
C756 C761 1.390 . S
C757 C751 1.447 1_556 S
C757 C756 1.396 . S
C757 C758 1.399 . S
C758 H744 0.929 . S
C758 C757 1.399 . S
C758 C759 1.385 . S
C759 H745 0.931 1_655 S
C759 C758 1.385 . S
C759 C760 1.389 . S
C760 C759 1.389 . S
C760 C761 1.387 . S
C761 H746 0.930 . S
C761 C756 1.390 . S
C761 C760 1.387 . S
H762 C774 0.930 . S
H763 C776 0.930 . S
H764 C777 0.930 . S
H765 C781 0.959 . S
H766 C781 0.959 . S
H767 C781 0.961 . S
H768 C782 0.960 . S
H769 C782 0.961 . S
H770 C782 0.959 . S
H771 C785 0.929 . S
H772 C786 0.931 . S
H773 C788 0.930 1_545 S
C774 H762 0.930 . S
C774 C775 1.399 . S
C774 C779 1.399 . S
C775 C774 1.399 . S
C775 C776 1.376 . S
C776 H763 0.930 . S
C776 C775 1.376 . S
C776 C777 1.388 . S
C777 H764 0.930 . S
C777 C776 1.388 . S
C777 C778 1.390 . S
C778 C777 1.390 . S
C778 C779 1.394 . S
C778 C784 1.465 . S
C779 C774 1.399 . S
C779 C778 1.394 . S
C779 C780 1.516 . S
C780 C779 1.516 . S
C780 C781 1.502 . S
C780 C782 1.561 . S
C780 C783 1.526 . S
C781 H765 0.959 . S
C781 H766 0.959 . S
C781 H767 0.961 . S
C781 C780 1.502 . S
C782 H768 0.960 . S
C782 H769 0.961 . S
C782 H770 0.959 . S
C782 C780 1.561 . S
C783 C780 1.526 . S
C783 C784 1.396 . S
C783 C788 1.390 . S
C784 C778 1.465 . S
C784 C783 1.396 . S
C784 C785 1.399 . S
C785 H771 0.929 . S
C785 C784 1.399 . S
C785 C786 1.385 . S
C786 H772 0.931 . S
C786 C785 1.385 . S
C786 C787 1.389 . S
C787 C786 1.389 . S
C787 C788 1.387 . S
C788 H773 0.930 1_565 S
C788 C783 1.390 . S
C788 C787 1.387 . S
H789 C801 0.930 . S
H790 C803 0.930 . S
H791 C804 0.930 . S
H792 C808 0.959 . S
H793 C808 0.959 . S
H794 C808 0.961 . S
H795 C809 0.960 . S
H796 C809 0.961 . S
H797 C809 0.959 . S
H798 C812 0.929 . S
H799 C813 0.931 . S
H800 C815 0.930 . S
C801 H789 0.930 . S
C801 C802 1.399 . S
C801 C806 1.399 . S
C802 C801 1.399 . S
C802 C803 1.376 . S
C803 H790 0.930 . S
C803 C802 1.376 . S
C803 C804 1.388 . S
C804 H791 0.930 . S
C804 C803 1.388 . S
C804 C805 1.390 . S
C805 C804 1.390 . S
C805 C806 1.394 . S
C805 C811 1.465 . S
C806 C801 1.399 . S
C806 C805 1.394 . S
C806 C807 1.516 . S
C807 C806 1.516 . S
C807 C808 1.502 . S
C807 C809 1.561 . S
C807 C810 1.526 . S
C808 H792 0.959 . S
C808 H793 0.959 . S
C808 H794 0.961 . S
C808 C807 1.502 . S
C809 H795 0.960 . S
C809 H796 0.961 . S
C809 H797 0.959 . S
C809 C807 1.561 . S
C810 C807 1.526 . S
C810 C811 1.396 . S
C810 C815 1.390 . S
C811 C805 1.465 . S
C811 C810 1.396 . S
C811 C812 1.399 . S
C812 H798 0.929 . S
C812 C811 1.399 . S
C812 C813 1.385 . S
C813 H799 0.931 . S
C813 C812 1.385 . S
C813 C814 1.389 . S
C814 C813 1.389 . S
C814 C815 1.387 . S
C815 H800 0.930 . S
C815 C810 1.390 . S
C815 C814 1.387 . S
C181 C47 1.290 . S
C193 C5 1.357 . S
C208 C19 1.315 . S
C220 C61 1.341 . S
C235 C75 1.318 . S
C247 C33 1.265 . S
C262 C89 1.309 . S
C274 C131 1.272 . S
C289 C145 1.288 . S
C301 C103 1.359 . S
C316 C117 1.338 . S
C328 C159 1.253 . S
C343 C123 1.534 . S
C355 C11 1.520 . S
C370 C25 1.503 . S
C382 C137 1.538 . S
C397 C39 1.521 . S
C409 C151 1.533 . S
C424 C53 1.506 . S
C436 C165 1.538 . S
C451 C95 1.518 . S
C463 C67 1.490 . S
C478 C109 1.538 . S
C490 C81 1.509 . S
C505 C110 0.912 . S
C517 C12 0.856 . S
C532 C26 0.855 . S
C544 C124 0.918 . S
C559 C40 0.911 . S
C571 C138 0.856 . S
C586 C54 0.921 . S
C598 C152 0.857 . S
C613 C166 0.903 . S
C625 C68 0.856 . S
C640 C82 0.937 . S
C652 C96 0.974 . S
C667 C144 1.341 1_455 S
C679 C4 1.342 . S
C694 C158 1.286 1_545 S
C706 C18 1.290 1_655 S
C721 C88 1.294 . S
C733 C32 1.298 1_565 S
C748 C46 1.274 . S
C760 C102 1.273 1_655 S
C775 C60 1.345 1_455 S
C787 C116 1.343 1_565 S
C802 C74 1.285 1_545 S
C814 C130 1.289 . S
