# Generated by pormake.
# Topology irl, (4)-cn, num edge types: 1
# Building blocks:
#     Node 0, Type 0, BuildingBlock: NAHDIM_clean_sbu_0, # of connection points: 4
#     Node 1, Type 0, BuildingBlock: NAHDIM_clean_sbu_0, # of connection points: 4
#     Node 2, Type 0, BuildingBlock: NAHDIM_clean_sbu_0, # of connection points: 4
#     Node 3, Type 0, BuildingBlock: NAHDIM_clean_sbu_0, # of connection points: 4
#     Node 4, Type 0, BuildingBlock: NAHDIM_clean_sbu_0, # of connection points: 4
#     Node 5, Type 0, BuildingBlock: NAHDIM_clean_sbu_0, # of connection points: 4
#     Node 6, Type 0, BuildingBlock: NAHDIM_clean_sbu_0, # of connection points: 4
#     Node 7, Type 0, BuildingBlock: NAHDIM_clean_sbu_0, # of connection points: 4
#     Edge 8, Type (0, 0), BuildingBlock: MIFKUJ_clean_linker_0, # of connection points: 2
#     Edge 9, Type (0, 0), BuildingBlock: MIFKUJ_clean_linker_0, # of connection points: 2
#     Edge 10, Type (0, 0), BuildingBlock: MIFKUJ_clean_linker_0, # of connection points: 2
#     Edge 11, Type (0, 0), BuildingBlock: MIFKUJ_clean_linker_0, # of connection points: 2
#     Edge 12, Type (0, 0), BuildingBlock: MIFKUJ_clean_linker_0, # of connection points: 2
#     Edge 13, Type (0, 0), BuildingBlock: MIFKUJ_clean_linker_0, # of connection points: 2
#     Edge 14, Type (0, 0), BuildingBlock: MIFKUJ_clean_linker_0, # of connection points: 2
#     Edge 15, Type (0, 0), BuildingBlock: MIFKUJ_clean_linker_0, # of connection points: 2
#     Edge 16, Type (0, 0), BuildingBlock: MIFKUJ_clean_linker_0, # of connection points: 2
#     Edge 17, Type (0, 0), BuildingBlock: MIFKUJ_clean_linker_0, # of connection points: 2
#     Edge 18, Type (0, 0), BuildingBlock: MIFKUJ_clean_linker_0, # of connection points: 2
#     Edge 19, Type (0, 0), BuildingBlock: MIFKUJ_clean_linker_0, # of connection points: 2
#     Edge 20, Type (0, 0), BuildingBlock: MIFKUJ_clean_linker_0, # of connection points: 2
#     Edge 21, Type (0, 0), BuildingBlock: MIFKUJ_clean_linker_0, # of connection points: 2
#     Edge 22, Type (0, 0), BuildingBlock: MIFKUJ_clean_linker_0, # of connection points: 2
#     Edge 23, Type (0, 0), BuildingBlock: MIFKUJ_clean_linker_0, # of connection points: 2
# Relax obj value: 0.192
# Max RMSD: 0.181
# Mean RMSD: 0.181
data_MOF--net-irl--node1-NAHDIM_clean_sbu_0--edge1-MIFKUJ_clean_linker_0
_symmetry_space_group_name_H-M    P1
_symmetry_Int_Tables_number       1
_symmetry_cell_setting            triclinic
loop_
_symmetry_equiv_pos_as_xyz
'x, y, z'
_cell_length_a     51.508374
_cell_length_b     46.579855
_cell_length_c     34.121637
_cell_angle_alpha  90.035827
_cell_angle_beta   90.110258
_cell_angle_gamma 89.968206
loop_
_atom_site_label
_atom_site_type_symbol
_atom_site_fract_x
_atom_site_fract_y
_atom_site_fract_z
_atom_type_partial_charge
C0 C 0.11032 0.2307 0.02679 0.0
O1 O 0.09502 0.2522 0.03601 0.0
O2 O 0.04198 0.222 0.04856 0.0
Zn3 Zn 0.06198 0.20426 0.00444 0.0
O4 O 0.05301 0.22356 0.95394 0.0
C5 C 0.05012 0.14793 0.03225 0.0
O6 O 0.05526 0.16034 0.06597 0.0
O7 O 0.10043 0.20771 0.0134 0.0
C8 C 0.03037 0.22043 0.93984 0.0
O9 O 0.01326 0.20525 0.9594 0.0
C10 C 0.0351 0.24815 0.05084 0.0
O11 O 0.04132 0.26613 0.02275 0.0
O12 O 0.05209 0.16252 0.00094 0.0
C13 C 0.8878 0.79312 0.03824 0.0
O14 O 0.89912 0.78692 0.07171 0.0
O15 O 0.95266 0.7835 0.06161 0.0
Zn16 Zn 0.94049 0.80138 0.01137 0.0
O17 O 0.95334 0.77856 0.96583 0.0
C18 C 0.95589 0.85721 0.03847 0.0
O19 O 0.95013 0.84579 0.07256 0.0
O20 O 0.9016 0.80055 0.00915 0.0
C21 C 0.97675 0.77958 0.95446 0.0
O22 O 0.99329 0.79619 0.97309 0.0
C23 C 0.9637 0.7592 0.06463 0.0
O24 O 0.96864 0.7441 0.03299 0.0
O25 O 0.95321 0.84219 0.00762 0.0
C26 C 0.10465 0.78044 0.52161 0.0
O27 O 0.09097 0.76265 0.54311 0.0
O28 O 0.03767 0.78336 0.46254 0.0
Zn29 Zn 0.05424 0.80396 0.50778 0.0
O30 O 0.04331 0.787 0.55902 0.0
C31 C 0.04411 0.85986 0.4751 0.0
O32 O 0.05231 0.8474 0.44286 0.0
O33 O 0.09311 0.80059 0.50344 0.0
C34 C 0.02978 0.76449 0.5639 0.0
O35 O 0.02036 0.75083 0.53334 0.0
C36 C 0.04659 0.7599 0.44909 0.0
O37 O 0.06685 0.74801 0.46594 0.0
O38 O 0.04351 0.84548 0.50671 0.0
C39 C 0.88163 0.23284 0.4896 0.0
O40 O 0.89701 0.25502 0.48454 0.0
O41 O 0.94171 0.22263 0.43926 0.0
Zn42 Zn 0.93034 0.20496 0.48993 0.0
O43 O 0.94581 0.22543 0.53584 0.0
C44 C 0.94825 0.14998 0.46095 0.0
O45 O 0.94744 0.16331 0.42706 0.0
O46 O 0.89159 0.20802 0.49314 0.0
C47 C 0.97022 0.2263 0.54093 0.0
O48 O 0.98549 0.2145 0.51465 0.0
C49 C 0.95031 0.24789 0.43395 0.0
O50 O 0.95307 0.26527 0.464 0.0
O51 O 0.94144 0.16337 0.49175 0.0
C52 C 0.61844 0.72695 0.98109 0.0
O53 O 0.60556 0.73683 0.9507 0.0
O54 O 0.55332 0.73413 0.04942 0.0
Zn55 Zn 0.56764 0.70871 0.00726 0.0
O56 O 0.55355 0.72005 0.95462 0.0
C57 C 0.5394 0.65864 0.03618 0.0
O58 O 0.52382 0.67783 0.05171 0.0
O59 O 0.60628 0.71381 0.00802 0.0
C60 C 0.53276 0.7092 0.94114 0.0
O61 O 0.5197 0.69084 0.96262 0.0
C62 C 0.5306 0.74471 0.04994 0.0
O63 O 0.51428 0.73881 0.02144 0.0
O64 O 0.55924 0.66696 0.01719 0.0
C65 C 0.38371 0.28361 -0.00199 0.0
O66 O 0.39924 0.26462 0.98188 0.0
O67 O 0.44736 0.29393 0.05541 0.0
Zn68 Zn 0.43175 0.31256 0.00807 0.0
O69 O 0.4444 0.29526 0.95783 0.0
C70 C 0.46389 0.36231 0.00441 0.0
O71 O 0.48151 0.34256 -0.00262 0.0
O72 O 0.3932 0.30692 0.01106 0.0
C73 C 0.46468 0.28017 0.953 0.0
O74 O 0.48023 0.27529 0.98282 0.0
C75 C 0.44845 0.2671 0.06203 0.0
O76 O 0.44014 0.24893 0.03539 0.0
O77 O 0.44047 0.35465 0.00961 0.0
C78 C 0.6054 0.27344 0.50426 0.0
O79 O 0.59054 0.25293 0.51811 0.0
O80 O 0.53837 0.28553 0.45298 0.0
Zn81 Zn 0.55653 0.30165 0.49993 0.0
O82 O 0.54541 0.28083 0.54816 0.0
C83 C 0.55203 0.36025 0.47621 0.0
O84 O 0.56436 0.3501 0.44549 0.0
O85 O 0.59512 0.29709 0.49401 0.0
C86 C 0.52173 0.27767 0.55737 0.0
O87 O 0.50361 0.28849 0.5346 0.0
C88 C 0.53617 0.25895 0.44526 0.0
O89 O 0.54629 0.23989 0.46916 0.0
O90 O 0.54689 0.3434 0.50442 0.0
C91 C 0.37756 0.72842 0.47573 0.0
O92 O 0.39307 0.74925 0.46461 0.0
O93 O 0.43787 0.72063 0.43257 0.0
Zn94 Zn 0.42589 0.70007 0.481 0.0
O95 O 0.44121 0.71738 0.52937 0.0
C96 C 0.45333 0.64887 0.45601 0.0
O97 O 0.46371 0.66658 0.43052 0.0
O98 O 0.38724 0.70416 0.4845 0.0
C99 C 0.46491 0.71333 0.53802 0.0
O100 O 0.4797 0.69882 0.51371 0.0
C101 C 0.45217 0.74286 0.43225 0.0
O102 O 0.46081 0.75358 0.4654 0.0
O103 O 0.43627 0.65824 0.47967 0.0
H104 H 0.96604 0.88881 0.97257 0.0
H105 H 0.98182 0.93825 0.96914 0.0
H106 H 0.98371 0.94246 0.09544 0.0
H107 H 0.96741 0.89333 0.09912 0.0
H108 H 0.963 0.98984 0.06617 0.0
H109 H 0.03953 0.93354 0.04012 0.0
H110 H 0.06561 0.8971 0.0055 0.0
H111 H 0.05663 0.9436 0.8977 0.0
H112 H 0.03019 0.98013 0.93159 0.0
H113 H 0.04184 0.11191 0.0941 0.0
H114 H 0.02566 0.06268 0.0923 0.0
H115 H 0.02168 0.06629 0.96613 0.0
H116 H 0.0381 0.1156 0.96758 0.0
H117 H 0.04239 0.01564 0.99198 0.0
H118 H 0.96718 0.07279 0.0186 0.0
H119 H 0.94132 0.10935 0.05331 0.0
H120 H 0.94791 0.06122 0.16015 0.0
H121 H 0.97414 0.02455 0.12619 0.0
C122 C 0.96983 0.90025 -0.00038 0.0
C123 C 0.96552 0.8871 0.03613 0.0
C124 C 0.97896 0.92848 -0.0024 0.0
C125 C 0.98425 0.94396 0.03204 0.0
C126 C 0.97977 0.93093 0.06848 0.0
C127 C 0.97051 0.9028 0.07053 0.0
C128 C 0.99419 0.97385 0.03027 0.0
C129 C 0.98054 0.99539 0.05034 0.0
C130 C 0.01667 0.98128 0.00869 0.0
C131 C 0.03266 0.9594 0.98831 0.0
C132 C 0.04295 0.93587 0.00897 0.0
C133 C 0.05783 0.91523 0.98949 0.0
C134 C 0.06272 0.91799 0.94941 0.0
C135 C 0.0528 0.94146 0.92874 0.0
C136 C 0.03788 0.96216 0.94807 0.0
C137 C 0.03761 0.10226 0.06592 0.0
C138 C 0.04115 0.11774 0.03098 0.0
C139 C 0.02826 0.07413 0.06497 0.0
C140 C 0.02215 0.06096 0.02911 0.0
C141 C 0.02621 0.0761 0.99411 0.0
C142 C 0.03553 0.10429 0.99502 0.0
C143 C 0.01138 0.03145 0.02833 0.0
C144 C 0.02482 0.01004 0.00772 0.0
C145 C 0.98871 0.0241 0.04943 0.0
C146 C 0.97283 0.04605 0.06991 0.0
C147 C 0.96329 0.07011 0.04956 0.0
C148 C 0.94853 0.09084 0.06909 0.0
C149 C 0.94303 0.08765 0.10893 0.0
C150 C 0.95221 0.06368 0.1293 0.0
C151 C 0.96701 0.0429 0.10992 0.0
H152 H 0.9316 0.10372 0.124 0.0
H153 H 0.07424 0.90198 0.93438 0.0
H154 H 0.02528 0.89157 0.53632 0.0
H155 H 0.00928 0.94094 0.5348 0.0
H156 H 0.02587 0.9457 0.41111 0.0
H157 H 0.04223 0.89642 0.41243 0.0
H158 H 0.04142 0.99366 0.44878 0.0
H159 H 0.96411 0.93614 0.44329 0.0
H160 H 0.93374 0.89856 0.46521 0.0
H161 H 0.92388 0.94218 0.57507 0.0
H162 H 0.95449 0.97985 0.554 0.0
H163 H 0.9671 0.11675 0.40143 0.0
H164 H 0.98371 0.06773 0.40545 0.0
H165 H 0.96775 0.06628 0.52948 0.0
H166 H 0.9509 0.11535 0.52572 0.0
H167 H 0.95218 0.01692 0.49325 0.0
H168 H 0.02885 0.07491 0.49831 0.0
H169 H 0.05916 0.11254 0.47638 0.0
H170 H 0.07021 0.06809 0.3674 0.0
H171 H 0.03966 0.03037 0.38846 0.0
C172 C 0.02558 0.90311 0.50877 0.0
C173 C 0.03494 0.89 0.47444 0.0
C174 C 0.01632 0.9313 0.50794 0.0
C175 C 0.01608 0.94688 0.47274 0.0
C176 C 0.02583 0.93404 0.43857 0.0
C177 C 0.03511 0.90584 0.43937 0.0
C178 C 0.00565 0.97657 0.47152 0.0
C179 C 0.0218 0.9987 0.45802 0.0
C180 C 0.98026 0.98323 0.48452 0.0
C181 C 0.9618 0.96065 0.49722 0.0
C182 C 0.95563 0.9376 0.47225 0.0
C183 C 0.93834 0.9163 0.48449 0.0
C184 C 0.92694 0.91794 0.52155 0.0
C185 C 0.93276 0.94092 0.5464 0.0
C186 C 0.95005 0.96226 0.53431 0.0
C187 C 0.96706 0.10604 0.42959 0.0
C188 C 0.95775 0.12002 0.46329 0.0
C189 C 0.97667 0.07804 0.43185 0.0
C190 C 0.97724 0.06349 0.46785 0.0
C191 C 0.96754 0.07717 0.50143 0.0
C192 C 0.95798 0.10523 0.49923 0.0
C193 C 0.98791 0.03397 0.47033 0.0
C194 C 0.97182 0.01188 0.48408 0.0
C195 C 0.01335 0.02734 0.45756 0.0
C196 C 0.03177 0.04996 0.44482 0.0
C197 C 0.03757 0.07328 0.46954 0.0
C198 C 0.05483 0.0946 0.45729 0.0
C199 C 0.06655 0.09275 0.42048 0.0
C200 C 0.06109 0.06952 0.39588 0.0
C201 C 0.04382 0.04815 0.40797 0.0
H202 H 0.07991 0.10928 0.41105 0.0
H203 H 0.91356 0.90144 0.53098 0.0
H204 H 0.56941 0.61302 0.01407 0.0
H205 H 0.55674 0.56255 0.01075 0.0
H206 H 0.48089 0.58414 0.05547 0.0
H207 H 0.49368 0.63456 0.05995 0.0
H208 H 0.49706 0.53585 0.08727 0.0
H209 H 0.49165 0.57286 0.95661 0.0
H210 H 0.50743 0.59746 0.89729 0.0
H211 H 0.56747 0.53421 0.88417 0.0
H212 H 0.55227 0.50946 0.94378 0.0
H213 H 0.43334 0.40794 0.02526 0.0
H214 H 0.44636 0.4582 0.03203 0.0
H215 H 0.52439 0.43613 -0.00239 0.0
H216 H 0.51155 0.38588 0.99056 0.0
H217 H 0.50658 0.48459 0.96057 0.0
H218 H 0.51072 0.44764 0.09237 0.0
H219 H 0.49348 0.42343 0.15107 0.0
H220 H 0.43358 0.48719 0.16064 0.0
H221 H 0.45026 0.51156 0.10165 0.0
C222 C 0.5501 0.60701 0.02349 0.0
C223 C 0.53248 0.62783 0.03701 0.0
C224 C 0.54283 0.57816 0.02138 0.0
C225 C 0.51768 0.56963 0.03209 0.0
C226 C 0.50036 0.59023 0.04688 0.0
C227 C 0.5077 0.61906 0.04939 0.0
C228 C 0.50924 0.53937 0.02709 0.0
C229 C 0.49884 0.52477 0.05943 0.0
C230 C 0.51189 0.52474 0.9909 0.0
C231 C 0.52097 0.53946 0.95487 0.0
C232 C 0.50833 0.56431 0.94123 0.0
C233 C 0.51715 0.57827 0.90754 0.0
C234 C 0.53848 0.56745 0.88703 0.0
C235 C 0.55097 0.54259 0.90012 0.0
C236 C 0.54225 0.52858 0.93384 0.0
C237 C 0.45326 0.41378 0.01903 0.0
C238 C 0.47144 0.39288 0.0075 0.0
C239 C 0.46068 0.44249 0.02307 0.0
C240 C 0.4864 0.45081 0.01572 0.0
C241 C 0.50446 0.43012 0.00351 0.0
C242 C 0.49709 0.4014 -0.0004 0.0
C243 C 0.49454 0.48112 0.02076 0.0
C244 C 0.50483 0.49571 0.98838 0.0
C245 C 0.49155 0.4958 0.05679 0.0
C246 C 0.48159 0.48126 0.09238 0.0
C247 C 0.49375 0.45637 0.10682 0.0
C248 C 0.4841 0.44264 0.14017 0.0
C249 C 0.46241 0.45372 0.15951 0.0
C250 C 0.45036 0.47861 0.1456 0.0
C251 C 0.45992 0.4924 0.11223 0.0
H252 H 0.45496 0.44306 0.18532 0.0
H253 H 0.54528 0.57828 0.86095 0.0
H254 H 0.56096 0.40195 0.42159 0.0
H255 H 0.54455 0.45115 0.42129 0.0
H256 H 0.50642 0.43628 0.53186 0.0
H257 H 0.52259 0.38686 0.53227 0.0
H258 H 0.47444 0.46243 0.47961 0.0
H259 H 0.56066 0.47664 0.52832 0.0
H260 H 0.60836 0.47215 0.52867 0.0
H261 H 0.6124 0.51633 0.41844 0.0
H262 H 0.56467 0.52073 0.41716 0.0
H263 H 0.44206 0.60915 0.51258 0.0
H264 H 0.45902 0.56033 0.51837 0.0
H265 H 0.50227 0.57171 0.41132 0.0
H266 H 0.48588 0.62077 0.40584 0.0
H267 H 0.53178 0.54728 0.46519 0.0
H268 H 0.44558 0.53137 0.41506 0.0
H269 H 0.39786 0.53564 0.41429 0.0
H270 H 0.39377 0.4945 0.52669 0.0
H271 H 0.44152 0.49032 0.52836 0.0
C272 C 0.54921 0.40916 0.44599 0.0
C273 C 0.5431 0.39047 0.47698 0.0
C274 C 0.53992 0.43734 0.44583 0.0
C275 C 0.52443 0.44745 0.47671 0.0
C276 C 0.51836 0.42891 0.50776 0.0
C277 C 0.5277 0.40071 0.508 0.0
C278 C 0.51399 0.47714 0.47593 0.0
C279 C 0.48698 0.48104 0.47708 0.0
C280 C 0.53034 0.50134 0.47177 0.0
C281 C 0.55906 0.49878 0.47248 0.0
C282 C 0.5717 0.48519 0.504 0.0
C283 C 0.59875 0.4827 0.5044 0.0
C284 C 0.6134 0.49389 0.47355 0.0
C285 C 0.60103 0.50765 0.44229 0.0
C286 C 0.57398 0.51017 0.44174 0.0
C287 C 0.45505 0.60121 0.49012 0.0
C288 C 0.46255 0.61883 0.45866 0.0
C289 C 0.46468 0.57324 0.49343 0.0
C290 C 0.48172 0.56221 0.46505 0.0
C291 C 0.48917 0.57975 0.43358 0.0
C292 C 0.4797 0.60777 0.43041 0.0
C293 C 0.49219 0.53259 0.46844 0.0
C294 C 0.51922 0.5287 0.46784 0.0
C295 C 0.47585 0.50839 0.47303 0.0
C296 C 0.44713 0.5108 0.47201 0.0
C297 C 0.43451 0.52343 0.43974 0.0
C298 C 0.40746 0.5258 0.43912 0.0
C299 C 0.39279 0.51542 0.47047 0.0
C300 C 0.40515 0.50257 0.50245 0.0
C301 C 0.43221 0.50017 0.50324 0.0
H302 H 0.37185 0.51727 0.46993 0.0
H303 H 0.63434 0.49194 0.47392 0.0
H304 H 0.03312 0.30272 0.0808 0.0
H305 H 0.01389 0.31754 0.14357 0.0
H306 H 0.98711 0.23094 0.16261 0.0
H307 H 0.00644 0.21599 0.10072 0.0
H308 H 0.95019 0.2743 0.18252 0.0
H309 H 0.04266 0.24995 0.20046 0.0
H310 H 0.08926 0.25761 0.1875 0.0
H311 H 0.08269 0.34496 0.2266 0.0
H312 H 0.03594 0.33787 0.2393 0.0
H313 H 0.94508 0.21714 0.36672 0.0
H314 H 0.95465 0.23225 0.30028 0.0
H315 H 0.97845 0.31549 0.34261 0.0
H316 H 0.96906 0.30032 0.41008 0.0
H317 H 0.01288 0.29308 0.29016 0.0
H318 H 0.92296 0.31131 0.29138 0.0
H319 H 0.87671 0.3027 0.30557 0.0
H320 H 0.87743 0.22847 0.23093 0.0
H321 H 0.92378 0.23633 0.21674 0.0
C322 C 0.02277 0.28702 0.09818 0.0
C323 C 0.0214 0.25817 0.08615 0.0
C324 C 0.01186 0.2955 0.13391 0.0
C325 C -0.00086 0.27529 0.15756 0.0
C326 C 0.99675 0.24685 0.14462 0.0
C327 C 0.00794 0.23831 0.10941 0.0
C328 C 0.9901 0.28252 0.19739 0.0
C329 C 0.96376 0.27871 0.20613 0.0
C330 C 0.00775 0.28935 0.22777 0.0
C331 C 0.0358 0.29351 0.22028 0.0
C332 C 0.05113 0.27085 0.20596 0.0
C333 C 0.07756 0.27507 0.19873 0.0
C334 C 0.08891 0.30179 0.20608 0.0
C335 C 0.07386 0.3243 0.22081 0.0
C336 C 0.0474 0.3202 0.22802 0.0
C337 C 0.95223 0.23874 0.36211 0.0
C338 C 0.95625 0.25756 0.39373 0.0
C339 C 0.9575 0.24743 0.32397 0.0
C340 C 0.96673 0.2752 0.31643 0.0
C341 C 0.97106 0.29407 0.34785 0.0
C342 C 0.96572 0.28536 0.38629 0.0
C343 C 0.97311 0.28327 0.27564 0.0
C344 C -0.00103 0.28994 0.26663 0.0
C345 C 0.95495 0.27921 0.24496 0.0
C346 C 0.92692 0.27444 0.25301 0.0
C347 C 0.91331 0.29306 0.27812 0.0
C348 C 0.88706 0.28832 0.28616 0.0
C349 C 0.87414 0.26505 0.26916 0.0
C350 C 0.88745 0.24651 0.24403 0.0
C351 C 0.91371 0.25115 0.2359 0.0
H352 H 0.85382 0.2614 0.27544 0.0
H353 H 0.10937 0.30501 0.20049 0.0
H354 H 0.06562 0.71526 0.40548 0.0
H355 H 0.05047 0.69949 0.3409 0.0
H356 H 0.98822 0.76138 0.34583 0.0
H357 H 0.003 0.77706 0.41026 0.0
H358 H 0.97265 0.71103 0.31151 0.0
H359 H 0.04491 0.77857 0.3032 0.0
H360 H 0.08983 0.79444 0.31593 0.0
H361 H 0.11913 0.719 0.25867 0.0
H362 H 0.07432 0.70252 0.24604 0.0
H363 H 0.94624 0.77848 0.13493 0.0
H364 H 0.95929 0.76246 0.19993 0.0
H365 H 0.01021 0.69934 0.14844 0.0
H366 H 0.99706 0.71527 0.08271 0.0
H367 H 0.03417 0.73388 0.20421 0.0
H368 H 0.95961 0.67506 0.1966 0.0
H369 H 0.91407 0.66269 0.18215 0.0
H370 H 0.88816 0.72372 0.26795 0.0
H371 H 0.93353 0.73681 0.28252 0.0
C372 C 0.04843 0.72515 0.3931 0.0
C373 C 0.0357 0.74769 0.41268 0.0
C374 C 0.03983 0.7161 0.35623 0.0
C375 C 0.01841 0.72949 0.33851 0.0
C376 C 0.00477 0.75075 0.35907 0.0
C377 C 0.01336 0.75983 0.39577 0.0
C378 C 0.01161 0.72386 0.29711 0.0
C379 C 0.98608 0.71581 0.28795 0.0
C380 C 0.02944 0.7293 0.26649 0.0
C381 C 0.05632 0.73913 0.27417 0.0
C382 C 0.06094 0.76525 0.29364 0.0
C383 C 0.08636 0.77438 0.30078 0.0
C384 C 0.10731 0.75769 0.28822 0.0
C385 C 0.10288 0.73186 0.26846 0.0
C386 C 0.07748 0.72261 0.26131 0.0
C387 C 0.96005 0.76101 0.13732 0.0
C388 C 0.97075 0.74822 0.10375 0.0
C389 C 0.96731 0.7517 0.17451 0.0
C390 C 0.98545 0.72948 0.17891 0.0
C391 C 0.996 0.71635 0.14552 0.0
C392 C 0.98849 0.72548 0.10811 0.0
C393 C 0.99487 0.72221 0.21861 0.0
C394 C 0.02093 0.72793 0.22754 0.0
C395 C 0.97744 0.71487 0.24897 0.0
C396 C 0.95004 0.70697 0.24058 0.0
C397 C 0.94421 0.68598 0.21224 0.0
C398 C 0.91841 0.67882 0.20404 0.0
C399 C 0.89823 0.69242 0.2241 0.0
C400 C 0.90382 0.71318 0.25246 0.0
C401 C 0.92958 0.72044 0.26076 0.0
H402 H 0.87827 0.68685 0.2177 0.0
H403 H 0.12697 0.76484 0.29364 0.0
H404 H 0.99617 0.72229 0.58793 0.0
H405 H 0.98774 0.70699 0.65558 0.0
H406 H 0.04538 0.76689 0.69733 0.0
H407 H 0.05396 0.78207 0.63047 0.0
H408 H 0.04705 0.7153 0.7374 0.0
H409 H 0.98215 0.78613 0.69265 0.0
H410 H 0.94667 0.80187 0.64895 0.0
H411 H 0.90225 0.72731 0.68007 0.0
H412 H 0.93764 0.71101 0.72364 0.0
H413 H 0.02097 0.78662 0.91164 0.0
H414 H 0.03052 0.76605 0.84761 0.0
H415 H 0.95993 0.71627 0.85268 0.0
H416 H 0.94987 0.73749 0.91636 0.0
H417 H 0.96092 0.74466 0.78838 0.0
H418 H 0.02091 0.68303 0.84958 0.0
H419 H 0.05605 0.66795 0.89418 0.0
H420 H 0.1096 0.72291 0.83387 0.0
H421 H 0.07472 0.73868 0.78925 0.0
C422 C 0.00721 0.73193 0.61156 0.0
C423 C 0.02544 0.75368 0.60398 0.0
C424 C 0.00243 0.72312 0.65008 0.0
C425 C 0.01591 0.7359 0.68135 0.0
C426 C 0.03488 0.75665 0.67358 0.0
C427 C 0.03955 0.76553 0.63533 0.0
C428 C 0.00876 0.73033 0.72255 0.0
C429 C 0.0282 0.72147 0.74877 0.0
C430 C 0.98385 0.73732 0.73696 0.0
C431 C 0.96262 0.74719 0.71093 0.0
C432 C 0.96488 0.77302 0.68993 0.0
C433 C 0.94479 0.78205 0.66524 0.0
C434 C 0.92225 0.76555 0.66163 0.0
C435 C 0.91974 0.74003 0.68281 0.0
C436 C 0.9398 0.73089 0.7075 0.0
C437 C 0.00775 0.77086 0.8995 0.0
C438 C 0.98452 0.76397 0.91873 0.0
C439 C 0.01334 0.75887 0.863 0.0
C440 C 0.99604 0.73938 0.84541 0.0
C441 C 0.97356 0.73123 0.86567 0.0
C442 C 0.96781 0.74345 0.90199 0.0
C443 C -0.00032 0.73104 0.80386 0.0
C444 C 0.97954 0.7373 0.77742 0.0
C445 C 0.02393 0.72153 0.78938 0.0
C446 C 0.04511 0.71209 0.81607 0.0
C447 C 0.04013 0.69205 0.84595 0.0
C448 C 0.06002 0.68336 0.87123 0.0
C449 C 0.08503 0.69447 0.86687 0.0
C450 C 0.09022 0.71429 0.83718 0.0
C451 C 0.0704 0.72306 0.81182 0.0
H452 H 0.1004 0.68772 0.88648 0.0
H453 H 0.90671 0.77257 0.64251 0.0
H454 H 0.98924 0.20565 0.8937 0.0
H455 H 0.98309 0.21697 0.82439 0.0
H456 H 0.05188 0.26964 0.82613 0.0
H457 H 0.05846 0.25815 0.89554 0.0
H458 H 0.00515 0.29115 0.779 0.0
H459 H 0.06441 0.21142 0.79536 0.0
H460 H 0.07799 0.16526 0.82424 0.0
H461 H 0.01007 0.12451 0.77682 0.0
H462 H 0.99589 0.17058 0.74818 0.0
H463 H 0.02048 0.22371 0.5667 0.0
H464 H 0.03629 0.23412 0.63282 0.0
H465 H 0.95977 0.2627 0.66619 0.0
H466 H 0.94389 0.25268 0.60025 0.0
H467 H 0.01861 0.20549 0.69479 0.0
H468 H 0.96382 0.30896 0.74313 0.0
H469 H 0.9505 0.35542 0.71489 0.0
H470 H 0.01217 0.35006 0.63073 0.0
H471 H 0.02611 0.30378 0.65879 0.0
C472 C 0.0028 0.22008 0.87961 0.0
C473 C 0.02452 0.23072 0.89989 0.0
C474 C -0.00077 0.22655 0.84007 0.0
C475 C 0.01713 0.24398 0.82035 0.0
C476 C 0.03787 0.25621 0.84105 0.0
C477 C 0.04166 0.24946 0.88054 0.0
C478 C 0.01571 0.24647 0.77734 0.0
C479 C 0.00819 0.27258 0.76036 0.0
C480 C 0.02031 0.22231 0.75332 0.0
C481 C 0.029 0.19448 0.76991 0.0
C482 C 0.05228 0.19266 0.79134 0.0
C483 C 0.0601 0.16651 0.80763 0.0
C484 C 0.04487 0.14198 0.80243 0.0
C485 C 0.02184 0.14353 0.78084 0.0
C486 C 0.01391 0.16965 0.76454 0.0
C487 C 0.00716 0.23283 0.58785 0.0
C488 C 0.98085 0.23699 0.57843 0.0
C489 C 0.01623 0.23877 0.62559 0.0
C490 C -0.00078 0.2492 0.65437 0.0
C491 C 0.97333 0.25503 0.64432 0.0
C492 C 0.96424 0.24906 0.60665 0.0
C493 C 0.00736 0.2501 0.69597 0.0
C494 C 0.01601 0.22439 0.71297 0.0
C495 C 0.00395 0.27474 0.71975 0.0
C496 C 0.9959 0.30276 0.70295 0.0
C497 C 0.97464 0.31775 0.71874 0.0
C498 C 0.96695 0.34405 0.70273 0.0
C499 C 0.98044 0.35565 0.67098 0.0
C500 C 0.00168 0.34101 0.65524 0.0
C501 C 0.00946 0.31471 0.67115 0.0
H502 H 0.97445 0.376 0.65862 0.0
H503 H 0.05095 0.12175 0.81508 0.0
H504 H 0.55984 0.77651 0.10015 0.0
H505 H 0.54712 0.79372 0.16505 0.0
H506 H 0.46927 0.76252 0.14537 0.0
H507 H 0.48161 0.7466 0.07973 0.0
H508 H 0.46768 0.808 0.19165 0.0
H509 H 0.51744 0.71957 0.18664 0.0
H510 H 0.55554 0.68994 0.16978 0.0
H511 H 0.60449 0.74509 0.23858 0.0
H512 H 0.56668 0.77526 0.25542 0.0
H513 H 0.42754 0.73652 0.36231 0.0
H514 H 0.44158 0.75416 0.2985 0.0
H515 H 0.50719 0.79599 0.35264 0.0
H516 H 0.49304 0.77859 0.41703 0.0
H517 H 0.51983 0.75746 0.29278 0.0
H518 H 0.46403 0.83745 0.31098 0.0
H519 H 0.42356 0.86259 0.32849 0.0
H520 H 0.3831 0.81865 0.23613 0.0
H521 H 0.42323 0.7929 0.2184 0.0
C522 C 0.53985 0.77404 0.10936 0.0
C523 C 0.52178 0.75982 0.08536 0.0
C524 C 0.53261 0.78385 0.14639 0.0
C525 C 0.50745 0.77867 0.16045 0.0
C526 C 0.48883 0.76663 0.1352 0.0
C527 C 0.49591 0.75743 0.09775 0.0
C528 C 0.50145 0.78191 0.20266 0.0
C529 C 0.47908 0.79705 0.21384 0.0
C530 C 0.51665 0.76806 0.23171 0.0
C531 C 0.53934 0.74985 0.22185 0.0
C532 C 0.53637 0.72546 0.19796 0.0
C533 C 0.5579 0.70857 0.18842 0.0
C534 C 0.58244 0.71569 0.20299 0.0
C535 C 0.58548 0.73966 0.22723 0.0
C536 C 0.56402 0.75666 0.23678 0.0
C537 C 0.44475 0.74983 0.36075 0.0
C538 C 0.45937 0.75596 0.39452 0.0
C539 C 0.45259 0.76014 0.32434 0.0
C540 C 0.47526 0.77658 0.321 0.0
C541 C 0.48949 0.78354 0.3548 0.0
C542 C 0.48143 0.77355 0.39144 0.0
C543 C 0.48567 0.78286 0.28165 0.0
C544 C 0.50886 0.7693 0.27091 0.0
C545 C 0.4709 0.7976 0.25307 0.0
C546 C 0.44668 0.81314 0.26346 0.0
C547 C 0.44647 0.83298 0.29456 0.0
C548 C 0.42359 0.84737 0.3045 0.0
C549 C 0.40077 0.8422 0.28346 0.0
C550 C 0.4008 0.82265 0.25238 0.0
C551 C 0.42363 0.80819 0.24233 0.0
H552 H 0.38307 0.85336 0.29121 0.0
H553 H 0.59908 0.70259 0.19559 0.0
H554 H 0.53589 0.20557 0.41111 0.0
H555 H 0.51692 0.19243 0.34751 0.0
H556 H 0.48848 0.27898 0.33363 0.0
H557 H 0.5071 0.29216 0.39666 0.0
H558 H 0.45274 0.23928 0.30989 0.0
H559 H 0.54564 0.25884 0.29389 0.0
H560 H 0.59204 0.24956 0.30677 0.0
H561 H 0.58329 0.16296 0.26556 0.0
H562 H 0.53672 0.17168 0.25288 0.0
H563 H 0.45728 0.2995 0.12687 0.0
H564 H 0.46842 0.28306 0.1924 0.0
H565 H 0.47015 0.19543 0.15169 0.0
H566 H 0.45852 0.21173 0.08534 0.0
H567 H 0.51481 0.2171 0.20295 0.0
H568 H 0.4231 0.2053 0.20143 0.0
H569 H 0.37802 0.21897 0.18567 0.0
H570 H 0.385 0.29378 0.25847 0.0
H571 H 0.43028 0.28086 0.27414 0.0
C572 C 0.5253 0.22165 0.39466 0.0
C573 C 0.52317 0.24997 0.40868 0.0
C574 C 0.51452 0.21411 0.3584 0.0
C575 C 0.50141 0.23477 0.33589 0.0
C576 C 0.49842 0.26268 0.35064 0.0
C577 C 0.50925 0.27024 0.38657 0.0
C578 C 0.4923 0.22857 0.29566 0.0
C579 C 0.4662 0.23405 0.28653 0.0
C580 C 0.50976 0.22096 0.26539 0.0
C581 C 0.53769 0.21577 0.27298 0.0
C582 C 0.55359 0.23775 0.28789 0.0
C583 C 0.57991 0.23261 0.2951 0.0
C584 C 0.59059 0.20565 0.28713 0.0
C585 C 0.57497 0.1838 0.27183 0.0
C586 C 0.54862 0.18883 0.26463 0.0
C587 C 0.46014 0.27672 0.13158 0.0
C588 C 0.45691 0.25688 0.10094 0.0
C589 C 0.46641 0.26738 0.16911 0.0
C590 C 0.46978 0.23807 0.17675 0.0
C591 C 0.46744 0.21814 0.14617 0.0
C592 C 0.4608 0.22748 0.10845 0.0
C593 C 0.47558 0.22907 0.21722 0.0
C594 C 0.50105 0.22091 0.22643 0.0
C595 C 0.45759 0.23444 0.24757 0.0
C596 C 0.43015 0.2421 0.23889 0.0
C597 C 0.41508 0.22475 0.21392 0.0
C598 C 0.38948 0.23236 0.20501 0.0
C599 C 0.37866 0.25723 0.22105 0.0
C600 C 0.3934 0.2745 0.2461 0.0
C601 C 0.41903 0.26701 0.25507 0.0
H602 H 0.35885 0.2631 0.21408 0.0
H603 H 0.61097 0.20171 0.29271 0.0
H604 H 0.50657 0.24767 0.93055 0.0
H605 H 0.51746 0.23203 0.86397 0.0
H606 H 0.44752 0.27186 0.82028 0.0
H607 H 0.43628 0.28698 0.88632 0.0
H608 H 0.4566 0.22166 0.78325 0.0
H609 H 0.506 0.30736 0.82006 0.0
H610 H 0.53719 0.3341 0.86115 0.0
H611 H 0.59605 0.27132 0.83657 0.0
H612 H 0.56507 0.24405 0.79568 0.0
H613 H 0.47552 0.28044 0.59628 0.0
H614 H 0.46707 0.26545 0.66353 0.0
H615 H 0.54433 0.22997 0.67151 0.0
H616 H 0.55316 0.24567 0.60458 0.0
H617 H 0.53664 0.26511 0.72876 0.0
H618 H 0.48919 0.18654 0.67763 0.0
H619 H 0.45785 0.16116 0.63533 0.0
H620 H 0.39532 0.20998 0.68506 0.0
H621 H 0.4263 0.23598 0.72728 0.0
C622 C 0.4934 0.25281 0.90679 0.0
C623 C 0.47076 0.26891 0.91361 0.0
C624 C 0.49963 0.24382 0.86883 0.0
C625 C 0.4834 0.25103 0.83719 0.0
C626 C 0.46026 0.26598 0.84428 0.0
C627 C 0.454 0.27484 0.88207 0.0
C628 C 0.49132 0.24561 0.7962 0.0
C629 C 0.47412 0.23104 0.77118 0.0
C630 C 0.51458 0.25707 0.78085 0.0
C631 C 0.53317 0.27351 0.80529 0.0
C632 C 0.52555 0.29918 0.82367 0.0
C633 C 0.54319 0.31443 0.84687 0.0
C634 C 0.56856 0.30436 0.85158 0.0
C635 C 0.57638 0.27906 0.83298 0.0
C636 C 0.55879 0.2637 0.8098 0.0
C637 C 0.49051 0.26891 0.61207 0.0
C638 C 0.5151 0.26459 0.59541 0.0
C639 C 0.4856 0.26013 0.65045 0.0
C640 C 0.50504 0.24642 0.67255 0.0
C641 C 0.52908 0.24054 0.65504 0.0
C642 C 0.53409 0.24959 0.61684 0.0
C643 C 0.50145 0.24201 0.7152 0.0
C644 C 0.51948 0.25482 0.74066 0.0
C645 C 0.47892 0.22896 0.73079 0.0
C646 C 0.46013 0.21331 0.70555 0.0
C647 C 0.46878 0.19201 0.67939 0.0
C648 C 0.45107 0.17749 0.65544 0.0
C649 C 0.42462 0.18397 0.65748 0.0
C650 C 0.41582 0.20496 0.68353 0.0
C651 C 0.43344 0.21956 0.70754 0.0
H652 H 0.41094 0.17271 0.63891 0.0
H653 H 0.58219 0.3162 0.86955 0.0
H654 H 0.55636 0.74455 0.88808 0.0
H655 H 0.54462 0.7515 0.81931 0.0
H656 H 0.47876 0.69535 0.83392 0.0
H657 H 0.49049 0.68799 0.90254 0.0
H658 H 0.50725 0.68025 0.77197 0.0
H659 H 0.47026 0.76691 0.82312 0.0
H660 H 0.46999 0.81258 0.85969 0.0
H661 H 0.52875 0.84633 0.78346 0.0
H662 H 0.52963 0.80069 0.74675 0.0
H663 H 0.43906 0.74295 0.59496 0.0
H664 H 0.45229 0.74914 0.66318 0.0
H665 H 0.52578 0.70879 0.63801 0.0
H666 H 0.51264 0.70219 0.56971 0.0
H667 H 0.4928 0.77357 0.70519 0.0
H668 H 0.53627 0.65978 0.71036 0.0
H669 H 0.53309 0.61387 0.67449 0.0
H670 H 0.45478 0.634 0.64091 0.0
H671 H 0.45739 0.67979 0.67705 0.0
C672 C 0.53921 0.73392 0.87678 0.0
C673 C 0.52443 0.71556 0.90067 0.0
C674 C 0.53248 0.73803 0.83753 0.0
C675 C 0.5108 0.72399 0.82163 0.0
C676 C 0.49561 0.70631 0.84569 0.0
C677 C 0.50232 0.70218 0.88489 0.0
C678 C 0.5049 0.72615 0.77933 0.0
C679 C 0.50412 0.70068 0.75743 0.0
C680 C 0.5007 0.75279 0.76044 0.0
C681 C 0.50019 0.78027 0.78243 0.0
C682 C 0.48329 0.78398 0.81436 0.0
C683 C 0.48299 0.80988 0.83507 0.0
C684 C 0.49939 0.83232 0.82397 0.0
C685 C 0.51608 0.82892 0.79206 0.0
C686 C 0.51647 0.80305 0.77127 0.0
C687 C 0.45824 0.73584 0.60373 0.0
C688 C 0.47463 0.72157 0.57715 0.0
C689 C 0.46581 0.73958 0.64267 0.0
C690 C 0.48981 0.72902 0.65562 0.0
C691 C 0.50703 0.71676 0.62853 0.0
C692 C 0.49948 0.71301 0.58956 0.0
C693 C 0.49542 0.72772 0.69804 0.0
C694 C 0.49615 0.75324 0.71986 0.0
C695 C 0.49914 0.70109 0.71714 0.0
C696 C 0.49715 0.67333 0.69603 0.0
C697 C 0.51835 0.65433 0.69545 0.0
C698 C 0.51665 0.62835 0.67506 0.0
C699 C 0.49378 0.62108 0.65531 0.0
C700 C 0.47252 0.63971 0.65609 0.0
C701 C 0.4741 0.66568 0.6765 0.0
H702 H 0.49252 0.60098 0.63949 0.0
H703 H 0.49913 0.85236 0.84004 0.0
H704 H 0.34583 0.31871 0.02738 0.0
H705 H 0.29976 0.30767 0.0353 0.0
H706 H 0.31245 0.22319 0.98701 0.0
H707 H 0.35841 0.23422 0.97829 0.0
H708 H 0.27029 0.24706 0.95624 0.0
H709 H 0.30427 0.23288 0.08533 0.0
H710 H 0.32845 0.24585 0.14523 0.0
H711 H 0.2768 0.31678 0.16481 0.0
H712 H 0.25253 0.3045 0.10469 0.0
H713 H 0.14752 0.19115 0.00782 0.0
H714 H 0.19453 0.19819 0.00671 0.0
H715 H 0.18458 0.28476 0.04911 0.0
H716 H 0.13758 0.27783 0.05083 0.0
H717 H 0.2257 0.25782 0.08422 0.0
H718 H 0.1932 0.27254 0.95281 0.0
H719 H 0.16944 0.25904 0.89275 0.0
H720 H 0.21903 0.1857 0.87806 0.0
H721 H 0.24288 0.19857 0.93836 0.0
C722 C 0.33881 0.29779 0.01841 0.0
C723 C 0.35576 0.27732 0.00226 0.0
C724 C 0.31252 0.29146 0.02317 0.0
C725 C 0.30278 0.26447 0.01225 0.0
C726 C 0.3196 0.24413 -0.00428 0.0
C727 C 0.34586 0.25047 0.99079 0.0
C728 C 0.27494 0.25761 0.01734 0.0
C729 C 0.26064 0.24898 0.98436 0.0
C730 C 0.26229 0.2606 0.05392 0.0
C731 C 0.27672 0.26791 0.0903 0.0
C732 C 0.29818 0.25137 0.10225 0.0
C733 C 0.31189 0.25858 0.13627 0.0
C734 C 0.3042 0.28216 0.15876 0.0
C735 C 0.28275 0.29854 0.14733 0.0
C736 C 0.26899 0.29144 0.11331 0.0
C737 C 0.15533 0.21161 0.01725 0.0
C738 C 0.13881 0.23403 0.02907 0.0
C739 C 0.18218 0.21561 0.0165 0.0
C740 C 0.19295 0.24213 0.02729 0.0
C741 C 0.17661 0.26415 0.04059 0.0
C742 C 0.14976 0.26017 0.04141 0.0
C743 C 0.22113 0.24739 0.0231 0.0
C744 C 0.23545 0.25575 0.0562 0.0
C745 C 0.23388 0.24401 0.98668 0.0
C746 C 0.21964 0.23636 0.9503 0.0
C747 C 0.19891 0.25342 0.93693 0.0
C748 C 0.18545 0.2459 0.90282 0.0
C749 C 0.19268 0.22149 0.88166 0.0
C750 C 0.21343 0.20458 0.89451 0.0
C751 C 0.22694 0.21199 0.92863 0.0
H752 H 0.18223 0.2157 0.85527 0.0
H753 H 0.31484 0.28772 0.18507 0.0
H754 H 0.64963 0.71384 0.04338 0.0
H755 H 0.69537 0.72601 0.05212 0.0
H756 H 0.69648 0.76546 0.93781 0.0
H757 H 0.65067 0.75324 0.92862 0.0
H758 H 0.73964 0.73167 0.95201 0.0
H759 H 0.69224 0.80701 0.01636 0.0
H760 H 0.65986 0.8269 0.06207 0.0
H761 H 0.69971 0.78783 0.15898 0.0
H762 H 0.73214 0.76735 0.11375 0.0
H763 H 0.85825 0.80579 0.97397 0.0
H764 H 0.81221 0.7956 0.96407 0.0
H765 H 0.80754 0.76043 0.0808 0.0
H766 H 0.85349 0.77104 0.09126 0.0
H767 H 0.76589 0.79275 0.06455 0.0
H768 H 0.81264 0.71662 0.00134 0.0
H769 H 0.84486 0.69553 0.95636 0.0
H770 H 0.80627 0.73461 0.8583 0.0
H771 H 0.77401 0.75628 0.90279 0.0
C772 C 0.6596 0.72496 0.01996 0.0
C773 C 0.64648 0.73275 0.98538 0.0
C774 C 0.6857 0.73199 0.0251 0.0
C775 C 0.69913 0.74696 -0.00418 0.0
C776 C 0.68636 0.75399 0.96078 0.0
C777 C 0.6602 0.74705 0.95564 0.0
C778 C 0.72641 0.75564 0.00211 0.0
C779 C 0.74538 0.74536 0.97626 0.0
C780 C 0.73384 0.77294 0.03432 0.0
C781 C 0.71448 0.78543 0.06162 0.0
C782 C 0.69399 0.80247 0.04738 0.0
C783 C 0.67564 0.81389 0.07321 0.0
C784 C 0.67769 0.80857 0.1134 0.0
C785 C 0.69813 0.7919 0.12784 0.0
C786 C 0.71652 0.78041 0.10213 0.0
C787 C 0.8474 0.79608 -0.00234 0.0
C788 C 0.85956 0.78902 0.03331 0.0
C789 C 0.82112 0.79016 0.99188 0.0
C790 C 0.80661 0.7768 0.02145 0.0
C791 C 0.81845 0.77065 0.05755 0.0
C792 C 0.84471 0.77669 0.06344 0.0
C793 C 0.7792 0.76874 0.01449 0.0
C794 C 0.76018 0.77912 0.04022 0.0
C795 C 0.77175 0.75139 0.98227 0.0
C796 C 0.79107 0.73832 0.95544 0.0
C797 C 0.81115 0.72091 0.97022 0.0
C798 C 0.82939 0.70882 0.9448 0.0
C799 C 0.82765 0.7138 0.90451 0.0
C800 C 0.80762 0.73082 0.88953 0.0
C801 C 0.78933 0.74299 0.91482 0.0
H802 H 0.8418 0.70441 0.88488 0.0
H803 H 0.66346 0.81742 0.13335 0.0
H804 H 0.13919 0.81364 0.48092 0.0
H805 H 0.18574 0.80523 0.47258 0.0
H806 H 0.18021 0.72856 0.543 0.0
H807 H 0.13391 0.7371 0.55215 0.0
H808 H 0.22165 0.75878 0.56316 0.0
H809 H 0.18394 0.72517 0.443 0.0
H810 H 0.15758 0.72824 0.38273 0.0
H811 H 0.20521 0.79739 0.34114 0.0
H812 H 0.23162 0.79504 0.40146 0.0
H813 H 0.3411 0.69363 0.50927 0.0
H814 H 0.29463 0.70319 0.51643 0.0
H815 H 0.30385 0.7841 0.45665 0.0
H816 H 0.35032 0.7748 0.44943 0.0
H817 H 0.26093 0.75236 0.43075 0.0
H818 H 0.29877 0.78501 0.55187 0.0
H819 H 0.32528 0.78044 0.61178 0.0
H820 H 0.27716 0.711 0.65112 0.0
H821 H 0.25056 0.71488 0.59112 0.0
C822 C 0.14791 0.79504 0.49471 0.0
C823 C 0.13287 0.77599 0.5171 0.0
C824 C 0.17447 0.79019 0.48976 0.0
C825 C 0.18634 0.76607 0.50678 0.0
C826 C 0.17142 0.74729 0.5296 0.0
C827 C 0.14494 0.75218 0.53471 0.0
C828 C 0.21435 0.76036 0.50098 0.0
C829 C 0.23017 0.75703 0.5342 0.0
C830 C 0.22552 0.75861 0.46318 0.0
C831 C 0.2096 0.76012 0.42694 0.0
C832 C 0.18865 0.74121 0.42117 0.0
C833 C 0.17372 0.74278 0.38697 0.0
C834 C 0.17969 0.76304 0.35818 0.0
C835 C 0.2006 0.78174 0.3635 0.0
C836 C 0.21556 0.78029 0.39768 0.0
C837 C 0.33322 0.71341 0.49751 0.0
C838 C 0.34937 0.73354 0.47894 0.0
C839 C 0.30672 0.71886 0.50174 0.0
C840 C 0.29595 0.74444 0.48733 0.0
C841 C 0.31187 0.76426 0.46799 0.0
C842 C 0.3384 0.75894 0.46404 0.0
C843 C 0.26808 0.75071 0.49289 0.0
C844 C 0.25234 0.75415 0.45966 0.0
C845 C 0.25693 0.75236 0.53065 0.0
C846 C 0.27284 0.75005 0.56681 0.0
C847 C 0.29398 0.7686 0.57313 0.0
C848 C 0.30899 0.76617 0.60714 0.0
C849 C 0.30295 0.74539 0.63519 0.0
C850 C 0.28184 0.72705 0.62934 0.0
C851 C 0.26677 0.72937 0.59535 0.0
H852 H 0.3146 0.74354 0.66151 0.0
H853 H 0.16818 0.76418 0.33168 0.0
H854 H 0.64231 0.31259 0.48269 0.0
H855 H 0.68925 0.30529 0.47935 0.0
H856 H 0.67943 0.21716 0.51528 0.0
H857 H 0.63258 0.22441 0.51946 0.0
H858 H 0.71802 0.24157 0.55468 0.0
H859 H 0.69254 0.2345 0.41988 0.0
H860 H 0.67139 0.25016 0.35862 0.0
H861 H 0.7196 0.32531 0.35592 0.0
H862 H 0.74079 0.3103 0.4175 0.0
H863 H 0.8445 0.19243 0.50499 0.0
H864 H 0.79744 0.19934 0.50685 0.0
H865 H 0.80742 0.28894 0.4788 0.0
H866 H 0.85445 0.28225 0.47669 0.0
H867 H 0.7689 0.26352 0.43506 0.0
H868 H 0.79415 0.27 0.5706 0.0
H869 H 0.81522 0.25356 0.63153 0.0
H870 H 0.76724 0.1782 0.63203 0.0
H871 H 0.74612 0.19401 0.57076 0.0
C872 C 0.65014 0.29163 0.48977 0.0
C873 C 0.63373 0.26907 0.5013 0.0
C874 C 0.67695 0.28746 0.4877 0.0
C875 C 0.68779 0.26059 0.49668 0.0
C876 C 0.67146 0.23807 0.50823 0.0
C877 C 0.64468 0.24224 0.5105 0.0
C878 C 0.71622 0.25605 0.49475 0.0
C879 C 0.72909 0.24599 0.52834 0.0
C880 C 0.73071 0.26238 0.46064 0.0
C881 C 0.71807 0.27141 0.42352 0.0
C882 C 0.69849 0.25448 0.40639 0.0
C883 C 0.68652 0.26322 0.37158 0.0
C884 C 0.6941 0.28875 0.35344 0.0
C885 C 0.71372 0.30556 0.37003 0.0
C886 C 0.72574 0.29694 0.40487 0.0
C887 C 0.83669 0.21361 0.49923 0.0
C888 C 0.8532 0.23682 0.49082 0.0
C889 C 0.80982 0.21753 0.50041 0.0
C890 C 0.79903 0.2447 0.49326 0.0
C891 C 0.81542 0.26781 0.48442 0.0
C892 C 0.84228 0.26395 0.48338 0.0
C893 C 0.77061 0.24905 0.49495 0.0
C894 C 0.75777 0.25908 0.46134 0.0
C895 C 0.75612 0.24255 0.52897 0.0
C896 C 0.76874 0.23305 0.56587 0.0
C897 C 0.78824 0.24981 0.58352 0.0
C898 C 0.80016 0.24062 0.61816 0.0
C899 C 0.79262 0.21481 0.63559 0.0
C900 C 0.77309 0.19817 0.61847 0.0
C901 C 0.76112 0.20724 0.5838 0.0
H902 H 0.80188 0.20774 0.6624 0.0
H903 H 0.68481 0.29548 0.32649 0.0
loop_
_geom_bond_atom_site_label_1
_geom_bond_atom_site_label_2
_geom_bond_distance
_geom_bond_site_symmetry_2
_ccdc_geom_bond_type
C0 O1 1.160 . S
C0 O7 1.185 1_554 S
O1 C0 1.160 . S
O2 Zn3 1.899 . S
O2 C10 1.284 . S
Zn3 O2 1.899 . S
Zn3 O4 2.032 1_554 S
Zn3 O7 2.086 1_554 S
Zn3 O12 1.977 1_554 S
O4 Zn3 2.032 1_556 S
O4 C8 1.278 . S
C5 O6 1.203 . S
C5 O12 1.267 1_554 S
O6 C5 1.203 . S
O7 C0 1.185 1_556 S
O7 Zn3 2.086 1_556 S
C8 O4 1.278 . S
C8 O9 1.211 . S
O9 C8 1.211 . S
C10 O2 1.284 . S
C10 O11 1.273 . S
O11 C10 1.273 . S
O12 Zn3 1.977 1_556 S
O12 C5 1.267 1_556 S
C13 O14 1.160 . S
C13 O20 1.185 1_554 S
O14 C13 1.160 . S
O15 Zn16 1.899 . S
O15 C23 1.284 . S
Zn16 O15 1.899 . S
Zn16 O17 2.032 1_554 S
Zn16 O20 2.086 1_554 S
Zn16 O25 1.977 1_554 S
O17 Zn16 2.032 1_556 S
O17 C21 1.278 . S
C18 O19 1.203 . S
C18 O25 1.267 1_554 S
O19 C18 1.203 . S
O20 C13 1.185 1_556 S
O20 Zn16 2.086 1_556 S
C21 O17 1.278 . S
C21 O22 1.211 . S
O22 C21 1.211 . S
C23 O15 1.284 . S
C23 O24 1.273 . S
O24 C23 1.273 . S
O25 Zn16 1.977 1_556 S
O25 C18 1.267 1_556 S
C26 O27 1.160 . S
C26 O33 1.185 . S
O27 C26 1.160 . S
O28 Zn29 1.899 . S
O28 C36 1.284 . S
Zn29 O28 1.899 . S
Zn29 O30 2.032 . S
Zn29 O33 2.086 . S
Zn29 O38 1.977 . S
O30 Zn29 2.032 . S
O30 C34 1.278 . S
C31 O32 1.203 . S
C31 O38 1.267 . S
O32 C31 1.203 . S
O33 C26 1.185 . S
O33 Zn29 2.086 . S
C34 O30 1.278 . S
C34 O35 1.211 . S
O35 C34 1.211 . S
C36 O28 1.284 . S
C36 O37 1.273 . S
O37 C36 1.273 . S
O38 Zn29 1.977 . S
O38 C31 1.267 . S
C39 O40 1.160 . S
C39 O46 1.185 . S
O40 C39 1.160 . S
O41 Zn42 1.899 . S
O41 C49 1.284 . S
Zn42 O41 1.899 . S
Zn42 O43 2.032 . S
Zn42 O46 2.086 . S
Zn42 O51 1.977 . S
O43 Zn42 2.032 . S
O43 C47 1.278 . S
C44 O45 1.203 . S
C44 O51 1.267 . S
O45 C44 1.203 . S
O46 C39 1.185 . S
O46 Zn42 2.086 . S
C47 O43 1.278 . S
C47 O48 1.211 . S
O48 C47 1.211 . S
C49 O41 1.284 . S
C49 O50 1.273 . S
O50 C49 1.273 . S
O51 Zn42 1.977 . S
O51 C44 1.267 . S
C52 O53 1.160 . S
C52 O59 1.185 1_554 S
O53 C52 1.160 . S
O54 Zn55 1.899 . S
O54 C62 1.284 . S
Zn55 O54 1.899 . S
Zn55 O56 2.032 1_554 S
Zn55 O59 2.086 1_554 S
Zn55 O64 1.977 1_554 S
O56 Zn55 2.032 1_556 S
O56 C60 1.278 . S
C57 O58 1.203 . S
C57 O64 1.267 1_554 S
O58 C57 1.203 . S
O59 C52 1.185 1_556 S
O59 Zn55 2.086 1_556 S
C60 O56 1.278 . S
C60 O61 1.211 . S
O61 C60 1.211 . S
C62 O54 1.284 . S
C62 O63 1.273 . S
O63 C62 1.273 . S
O64 Zn55 1.977 1_556 S
O64 C57 1.267 1_556 S
C65 O66 1.160 . S
C65 O72 1.185 1_554 S
O66 C65 1.160 . S
O67 Zn68 1.899 . S
O67 C75 1.284 . S
Zn68 O67 1.899 . S
Zn68 O69 2.032 1_554 S
Zn68 O72 2.086 1_554 S
Zn68 O77 1.977 1_554 S
O69 Zn68 2.032 1_556 S
O69 C73 1.278 . S
C70 O71 1.203 . S
C70 O77 1.267 1_554 S
O71 C70 1.203 . S
O72 C65 1.185 1_556 S
O72 Zn68 2.086 1_556 S
C73 O69 1.278 . S
C73 O74 1.211 . S
O74 C73 1.211 . S
C75 O67 1.284 . S
C75 O76 1.273 . S
O76 C75 1.273 . S
O77 Zn68 1.977 1_556 S
O77 C70 1.267 1_556 S
C78 O79 1.160 . S
C78 O85 1.185 . S
O79 C78 1.160 . S
O80 Zn81 1.899 . S
O80 C88 1.284 . S
Zn81 O80 1.899 . S
Zn81 O82 2.032 . S
Zn81 O85 2.086 . S
Zn81 O90 1.977 . S
O82 Zn81 2.032 . S
O82 C86 1.278 . S
C83 O84 1.203 . S
C83 O90 1.267 . S
O84 C83 1.203 . S
O85 C78 1.185 . S
O85 Zn81 2.086 . S
C86 O82 1.278 . S
C86 O87 1.211 . S
O87 C86 1.211 . S
C88 O80 1.284 . S
C88 O89 1.273 . S
O89 C88 1.273 . S
O90 Zn81 1.977 . S
O90 C83 1.267 . S
C91 O92 1.160 . S
C91 O98 1.185 . S
O92 C91 1.160 . S
O93 Zn94 1.899 . S
O93 C101 1.284 . S
Zn94 O93 1.899 . S
Zn94 O95 2.032 . S
Zn94 O98 2.086 . S
Zn94 O103 1.977 . S
O95 Zn94 2.032 . S
O95 C99 1.278 . S
C96 O97 1.203 . S
C96 O103 1.267 . S
O97 C96 1.203 . S
O98 C91 1.185 . S
O98 Zn94 2.086 . S
C99 O95 1.278 . S
C99 O100 1.211 . S
O100 C99 1.211 . S
C101 O93 1.284 . S
C101 O102 1.273 . S
O102 C101 1.273 . S
O103 Zn94 1.977 . S
O103 C96 1.267 . S
H104 C122 0.951 . S
H105 C124 0.951 . S
H106 C126 0.950 . S
H107 C127 0.950 . S
H108 C129 0.950 . S
H109 C132 0.950 1_554 S
H110 C133 0.950 . S
H111 C135 0.950 . S
H112 C136 0.950 . S
H113 C137 0.951 . S
H114 C139 0.951 . S
H115 C141 0.950 . S
H116 C142 0.950 . S
H117 C144 0.950 . S
H118 C147 0.950 . S
H119 C148 0.950 . S
H120 C150 0.950 . S
H121 C151 0.950 . S
C122 H104 0.951 . S
C122 C123 1.366 1_556 S
C122 C124 1.388 . S
C123 C122 1.366 1_554 S
C123 C127 1.385 . S
C124 H105 0.951 . S
C124 C122 1.388 . S
C124 C125 1.366 1_556 S
C125 C124 1.366 1_554 S
C125 C126 1.414 . S
C125 C128 1.499 . S
C126 H106 0.950 . S
C126 C125 1.414 . S
C126 C127 1.374 . S
C127 H107 0.950 . S
C127 C123 1.385 . S
C127 C126 1.374 . S
C128 C125 1.499 . S
C128 C129 1.373 . S
C128 C130 1.389 1_654 S
C129 H108 0.950 . S
C129 C128 1.373 . S
C129 C145 1.377 1_565 S
C130 C128 1.389 1_456 S
C130 C131 1.524 . S
C130 C144 1.377 1_565 S
C131 C130 1.524 . S
C131 C132 1.397 . S
C131 C136 1.363 . S
C132 H109 0.950 1_556 S
C132 C131 1.397 . S
C132 C133 1.334 . S
C133 H110 0.950 . S
C133 C132 1.334 . S
C133 C134 1.287 . S
C134 C133 1.287 . S
C134 C135 1.524 . S
C134 H153 0.913 . S
C135 H111 0.950 . S
C135 C134 1.524 . S
C135 C136 1.415 . S
C136 H112 0.950 . S
C136 C131 1.363 . S
C136 C135 1.415 . S
C137 H113 0.951 . S
C137 C138 1.366 . S
C137 C139 1.388 . S
C138 C137 1.366 . S
C138 C142 1.385 1_554 S
C139 H114 0.951 . S
C139 C137 1.388 . S
C139 C140 1.366 . S
C140 C139 1.366 . S
C140 C141 1.414 1_554 S
C140 C143 1.499 . S
C141 H115 0.950 . S
C141 C140 1.414 1_556 S
C141 C142 1.374 . S
C142 H116 0.950 . S
C142 C138 1.385 1_556 S
C142 C141 1.374 . S
C143 C140 1.499 . S
C143 C144 1.373 1_554 S
C143 C145 1.389 1_455 S
C144 H117 0.950 . S
C144 C130 1.377 1_545 S
C144 C143 1.373 1_556 S
C145 C129 1.377 1_545 S
C145 C143 1.389 1_655 S
C145 C146 1.524 . S
C146 C145 1.524 . S
C146 C147 1.397 . S
C146 C151 1.363 . S
C147 H118 0.950 . S
C147 C146 1.397 . S
C147 C148 1.334 . S
C148 H119 0.950 . S
C148 C147 1.334 . S
C148 C149 1.287 . S
C149 C148 1.287 . S
C149 C150 1.524 . S
C149 H152 0.999 . S
C150 H120 0.950 . S
C150 C149 1.524 . S
C150 C151 1.415 . S
C151 H121 0.950 . S
C151 C146 1.363 . S
C151 C150 1.415 . S
H152 C149 0.999 . S
H153 C134 0.913 . S
H154 C172 0.951 . S
H155 C174 0.951 . S
H156 C176 0.950 . S
H157 C177 0.950 . S
H158 C179 0.950 . S
H159 C182 0.950 . S
H160 C183 0.950 . S
H161 C185 0.950 . S
H162 C186 0.950 . S
H163 C187 0.951 . S
H164 C189 0.951 . S
H165 C191 0.950 . S
H166 C192 0.950 . S
H167 C194 0.950 . S
H168 C197 0.950 . S
H169 C198 0.950 . S
H170 C200 0.950 . S
H171 C201 0.950 . S
C172 H154 0.951 . S
C172 C173 1.366 . S
C172 C174 1.388 . S
C173 C172 1.366 . S
C173 C177 1.385 . S
C174 H155 0.951 . S
C174 C172 1.388 . S
C174 C175 1.366 . S
C175 C174 1.366 . S
C175 C176 1.414 . S
C175 C178 1.499 . S
C176 H156 0.950 . S
C176 C175 1.414 . S
C176 C177 1.374 . S
C177 H157 0.950 . S
C177 C173 1.385 . S
C177 C176 1.374 . S
C178 C175 1.499 . S
C178 C179 1.373 . S
C178 C180 1.389 1_455 S
C179 H158 0.950 . S
C179 C178 1.373 . S
C179 C195 1.377 1_565 S
C180 C178 1.389 1_655 S
C180 C181 1.524 . S
C180 C194 1.377 1_565 S
C181 C180 1.524 . S
C181 C182 1.397 . S
C181 C186 1.363 . S
C182 H159 0.950 . S
C182 C181 1.397 . S
C182 C183 1.334 . S
C183 H160 0.950 . S
C183 C182 1.334 . S
C183 C184 1.287 . S
C184 C183 1.287 . S
C184 C185 1.524 . S
C184 H203 0.913 . S
C185 H161 0.950 . S
C185 C184 1.524 . S
C185 C186 1.415 . S
C186 H162 0.950 . S
C186 C181 1.363 . S
C186 C185 1.415 . S
C187 H163 0.951 . S
C187 C188 1.366 . S
C187 C189 1.388 . S
C188 C187 1.366 . S
C188 C192 1.385 . S
C189 H164 0.951 . S
C189 C187 1.388 . S
C189 C190 1.366 . S
C190 C189 1.366 . S
C190 C191 1.414 . S
C190 C193 1.499 . S
C191 H165 0.950 . S
C191 C190 1.414 . S
C191 C192 1.374 . S
C192 H166 0.950 . S
C192 C188 1.385 . S
C192 C191 1.374 . S
C193 C190 1.499 . S
C193 C194 1.373 . S
C193 C195 1.389 1_655 S
C194 H167 0.950 . S
C194 C180 1.377 1_545 S
C194 C193 1.373 . S
C195 C179 1.377 1_545 S
C195 C193 1.389 1_455 S
C195 C196 1.524 . S
C196 C195 1.524 . S
C196 C197 1.397 . S
C196 C201 1.363 . S
C197 H168 0.950 . S
C197 C196 1.397 . S
C197 C198 1.334 . S
C198 H169 0.950 . S
C198 C197 1.334 . S
C198 C199 1.287 . S
C199 C198 1.287 . S
C199 C200 1.524 . S
C199 H202 0.999 . S
C200 H170 0.950 . S
C200 C199 1.524 . S
C200 C201 1.415 . S
C201 H171 0.950 . S
C201 C196 1.363 . S
C201 C200 1.415 . S
H202 C199 0.999 . S
H203 C184 0.913 . S
H204 C222 0.951 . S
H205 C224 0.951 . S
H206 C226 0.950 . S
H207 C227 0.950 . S
H208 C229 0.950 . S
H209 C232 0.950 . S
H210 C233 0.950 . S
H211 C235 0.950 . S
H212 C236 0.950 . S
H213 C237 0.951 . S
H214 C239 0.951 . S
H215 C241 0.950 . S
H216 C242 0.950 . S
H217 C244 0.950 . S
H218 C247 0.950 . S
H219 C248 0.950 . S
H220 C250 0.950 . S
H221 C251 0.950 . S
C222 H204 0.951 . S
C222 C223 1.366 . S
C222 C224 1.388 . S
C223 C222 1.366 . S
C223 C227 1.385 . S
C224 H205 0.951 . S
C224 C222 1.388 . S
C224 C225 1.366 . S
C225 C224 1.366 . S
C225 C226 1.414 . S
C225 C228 1.499 . S
C226 H206 0.950 . S
C226 C225 1.414 . S
C226 C227 1.374 . S
C227 H207 0.950 . S
C227 C223 1.385 . S
C227 C226 1.374 . S
C228 C225 1.499 . S
C228 C229 1.373 . S
C228 C230 1.389 1_554 S
C229 H208 0.950 . S
C229 C228 1.373 . S
C229 C245 1.377 . S
C230 C228 1.389 1_556 S
C230 C231 1.524 . S
C230 C244 1.377 . S
C231 C230 1.524 . S
C231 C232 1.397 . S
C231 C236 1.363 . S
C232 H209 0.950 . S
C232 C231 1.397 . S
C232 C233 1.334 . S
C233 H210 0.950 . S
C233 C232 1.334 . S
C233 C234 1.287 . S
C234 C233 1.287 . S
C234 C235 1.524 . S
C234 H253 0.913 . S
C235 H211 0.950 . S
C235 C234 1.524 . S
C235 C236 1.415 . S
C236 H212 0.950 . S
C236 C231 1.363 . S
C236 C235 1.415 . S
C237 H213 0.951 . S
C237 C238 1.366 . S
C237 C239 1.388 . S
C238 C237 1.366 . S
C238 C242 1.385 . S
C239 H214 0.951 . S
C239 C237 1.388 . S
C239 C240 1.366 . S
C240 C239 1.366 . S
C240 C241 1.414 . S
C240 C243 1.499 . S
C241 H215 0.950 . S
C241 C240 1.414 . S
C241 C242 1.374 . S
C242 H216 0.950 . S
C242 C238 1.385 . S
C242 C241 1.374 . S
C243 C240 1.499 . S
C243 C244 1.373 1_554 S
C243 C245 1.389 . S
C244 H217 0.950 . S
C244 C230 1.377 . S
C244 C243 1.373 1_556 S
C245 C229 1.377 . S
C245 C243 1.389 . S
C245 C246 1.524 . S
C246 C245 1.524 . S
C246 C247 1.397 . S
C246 C251 1.363 . S
C247 H218 0.950 . S
C247 C246 1.397 . S
C247 C248 1.334 . S
C248 H219 0.950 . S
C248 C247 1.334 . S
C248 C249 1.287 . S
C249 C248 1.287 . S
C249 C250 1.524 . S
C249 H252 0.999 . S
C250 H220 0.950 . S
C250 C249 1.524 . S
C250 C251 1.415 . S
C251 H221 0.950 . S
C251 C246 1.363 . S
C251 C250 1.415 . S
H252 C249 0.999 . S
H253 C234 0.913 . S
H254 C272 0.951 . S
H255 C274 0.951 . S
H256 C276 0.950 . S
H257 C277 0.950 . S
H258 C279 0.950 . S
H259 C282 0.950 . S
H260 C283 0.950 . S
H261 C285 0.950 . S
H262 C286 0.950 . S
H263 C287 0.951 . S
H264 C289 0.951 . S
H265 C291 0.950 . S
H266 C292 0.950 . S
H267 C294 0.950 . S
H268 C297 0.950 . S
H269 C298 0.950 . S
H270 C300 0.950 . S
H271 C301 0.950 . S
C272 H254 0.951 . S
C272 C273 1.366 . S
C272 C274 1.388 . S
C273 C272 1.366 . S
C273 C277 1.385 . S
C274 H255 0.951 . S
C274 C272 1.388 . S
C274 C275 1.366 . S
C275 C274 1.366 . S
C275 C276 1.414 . S
C275 C278 1.499 . S
C276 H256 0.950 . S
C276 C275 1.414 . S
C276 C277 1.374 . S
C277 H257 0.950 . S
C277 C273 1.385 . S
C277 C276 1.374 . S
C278 C275 1.499 . S
C278 C279 1.373 . S
C278 C280 1.389 . S
C279 H258 0.950 . S
C279 C278 1.373 . S
C279 C295 1.377 . S
C280 C278 1.389 . S
C280 C281 1.524 . S
C280 C294 1.377 . S
C281 C280 1.524 . S
C281 C282 1.397 . S
C281 C286 1.363 . S
C282 H259 0.950 . S
C282 C281 1.397 . S
C282 C283 1.334 . S
C283 H260 0.950 . S
C283 C282 1.334 . S
C283 C284 1.287 . S
C284 C283 1.287 . S
C284 C285 1.524 . S
C284 H303 0.913 . S
C285 H261 0.950 . S
C285 C284 1.524 . S
C285 C286 1.415 . S
C286 H262 0.950 . S
C286 C281 1.363 . S
C286 C285 1.415 . S
C287 H263 0.951 . S
C287 C288 1.366 . S
C287 C289 1.388 . S
C288 C287 1.366 . S
C288 C292 1.385 . S
C289 H264 0.951 . S
C289 C287 1.388 . S
C289 C290 1.366 . S
C290 C289 1.366 . S
C290 C291 1.414 . S
C290 C293 1.499 . S
C291 H265 0.950 . S
C291 C290 1.414 . S
C291 C292 1.374 . S
C292 H266 0.950 . S
C292 C288 1.385 . S
C292 C291 1.374 . S
C293 C290 1.499 . S
C293 C294 1.373 . S
C293 C295 1.389 . S
C294 H267 0.950 . S
C294 C280 1.377 . S
C294 C293 1.373 . S
C295 C279 1.377 . S
C295 C293 1.389 . S
C295 C296 1.524 . S
C296 C295 1.524 . S
C296 C297 1.397 . S
C296 C301 1.363 . S
C297 H268 0.950 . S
C297 C296 1.397 . S
C297 C298 1.334 . S
C298 H269 0.950 . S
C298 C297 1.334 . S
C298 C299 1.287 . S
C299 C298 1.287 . S
C299 C300 1.524 . S
C299 H302 0.999 . S
C300 H270 0.950 . S
C300 C299 1.524 . S
C300 C301 1.415 . S
C301 H271 0.950 . S
C301 C296 1.363 . S
C301 C300 1.415 . S
H302 C299 0.999 . S
H303 C284 0.913 . S
H304 C322 0.951 . S
H305 C324 0.951 . S
H306 C326 0.950 . S
H307 C327 0.950 . S
H308 C329 0.950 . S
H309 C332 0.950 . S
H310 C333 0.950 . S
H311 C335 0.950 . S
H312 C336 0.950 . S
H313 C337 0.951 . S
H314 C339 0.951 . S
H315 C341 0.950 . S
H316 C342 0.950 . S
H317 C344 0.950 . S
H318 C347 0.950 . S
H319 C348 0.950 . S
H320 C350 0.950 . S
H321 C351 0.950 . S
C322 H304 0.951 . S
C322 C323 1.366 . S
C322 C324 1.388 . S
C323 C322 1.366 . S
C323 C327 1.385 . S
C324 H305 0.951 . S
C324 C322 1.388 . S
C324 C325 1.366 . S
C325 C324 1.366 . S
C325 C326 1.414 . S
C325 C328 1.499 . S
C326 H306 0.950 . S
C326 C325 1.414 . S
C326 C327 1.374 . S
C327 H307 0.950 . S
C327 C323 1.385 . S
C327 C326 1.374 . S
C328 C325 1.499 . S
C328 C329 1.373 1_455 S
C328 C330 1.389 . S
C329 H308 0.950 . S
C329 C328 1.373 1_655 S
C329 C345 1.377 . S
C330 C328 1.389 . S
C330 C331 1.524 . S
C330 C344 1.377 . S
C331 C330 1.524 . S
C331 C332 1.397 . S
C331 C336 1.363 . S
C332 H309 0.950 . S
C332 C331 1.397 . S
C332 C333 1.334 . S
C333 H310 0.950 . S
C333 C332 1.334 . S
C333 C334 1.287 . S
C334 C333 1.287 . S
C334 C335 1.524 . S
C334 H353 0.913 . S
C335 H311 0.950 . S
C335 C334 1.524 . S
C335 C336 1.415 . S
C336 H312 0.950 . S
C336 C331 1.363 . S
C336 C335 1.415 . S
C337 H313 0.951 . S
C337 C338 1.366 . S
C337 C339 1.388 . S
C338 C337 1.366 . S
C338 C342 1.385 . S
C339 H314 0.951 . S
C339 C337 1.388 . S
C339 C340 1.366 . S
C340 C339 1.366 . S
C340 C341 1.414 . S
C340 C343 1.499 . S
C341 H315 0.950 . S
C341 C340 1.414 . S
C341 C342 1.374 . S
C342 H316 0.950 . S
C342 C338 1.385 . S
C342 C341 1.374 . S
C343 C340 1.499 . S
C343 C344 1.373 1_655 S
C343 C345 1.389 . S
C344 H317 0.950 . S
C344 C330 1.377 . S
C344 C343 1.373 1_455 S
C345 C329 1.377 . S
C345 C343 1.389 . S
C345 C346 1.524 . S
C346 C345 1.524 . S
C346 C347 1.397 . S
C346 C351 1.363 . S
C347 H318 0.950 . S
C347 C346 1.397 . S
C347 C348 1.334 . S
C348 H319 0.950 . S
C348 C347 1.334 . S
C348 C349 1.287 . S
C349 C348 1.287 . S
C349 C350 1.524 . S
C349 H352 0.999 . S
C350 H320 0.950 . S
C350 C349 1.524 . S
C350 C351 1.415 . S
C351 H321 0.950 . S
C351 C346 1.363 . S
C351 C350 1.415 . S
H352 C349 0.999 . S
H353 C334 0.913 . S
H354 C372 0.951 . S
H355 C374 0.951 . S
H356 C376 0.950 . S
H357 C377 0.948 1_655 S
H358 C379 0.950 . S
H359 C382 0.950 . S
H360 C383 0.950 . S
H361 C385 0.950 . S
H362 C386 0.950 . S
H363 C387 0.951 . S
H364 C389 0.951 . S
H365 C391 0.950 . S
H366 C392 0.948 1_455 S
H367 C394 0.950 . S
H368 C397 0.950 . S
H369 C398 0.950 . S
H370 C400 0.950 . S
H371 C401 0.950 . S
C372 H354 0.951 . S
C372 C373 1.366 . S
C372 C374 1.388 . S
C373 C372 1.366 . S
C373 C377 1.387 . S
C374 H355 0.951 . S
C374 C372 1.388 . S
C374 C375 1.366 . S
C375 C374 1.366 . S
C375 C376 1.414 1_455 S
C375 C378 1.499 . S
C376 H356 0.950 . S
C376 C375 1.414 1_655 S
C376 C377 1.373 1_655 S
C377 H357 0.948 1_455 S
C377 C373 1.387 . S
C377 C376 1.373 1_455 S
C378 C375 1.499 . S
C378 C379 1.373 1_455 S
C378 C380 1.389 . S
C379 H358 0.950 . S
C379 C378 1.373 1_655 S
C379 C395 1.377 . S
C380 C378 1.389 . S
C380 C381 1.524 . S
C380 C394 1.377 . S
C381 C380 1.524 . S
C381 C382 1.397 . S
C381 C386 1.363 . S
C382 H359 0.950 . S
C382 C381 1.397 . S
C382 C383 1.334 . S
C383 H360 0.950 . S
C383 C382 1.334 . S
C383 C384 1.287 . S
C384 C383 1.287 . S
C384 C385 1.524 . S
C384 H403 0.913 . S
C385 H361 0.950 . S
C385 C384 1.524 . S
C385 C386 1.415 . S
C386 H362 0.950 . S
C386 C381 1.363 . S
C386 C385 1.415 . S
C387 H363 0.951 . S
C387 C388 1.366 . S
C387 C389 1.388 . S
C388 C387 1.366 . S
C388 C392 1.387 . S
C389 H364 0.951 . S
C389 C387 1.388 . S
C389 C390 1.366 . S
C390 C389 1.366 . S
C390 C391 1.414 1_655 S
C390 C393 1.499 . S
C391 H365 0.950 . S
C391 C390 1.414 1_455 S
C391 C392 1.373 1_455 S
C392 H366 0.948 1_655 S
C392 C388 1.387 . S
C392 C391 1.373 1_655 S
C393 C390 1.499 . S
C393 C394 1.373 1_655 S
C393 C395 1.389 . S
C394 H367 0.950 . S
C394 C380 1.377 . S
C394 C393 1.373 1_455 S
C395 C379 1.377 . S
C395 C393 1.389 . S
C395 C396 1.524 . S
C396 C395 1.524 . S
C396 C397 1.397 . S
C396 C401 1.363 . S
C397 H368 0.950 . S
C397 C396 1.397 . S
C397 C398 1.334 . S
C398 H369 0.950 . S
C398 C397 1.334 . S
C398 C399 1.287 . S
C399 C398 1.287 . S
C399 C400 1.524 . S
C399 H402 0.999 . S
C400 H370 0.950 . S
C400 C399 1.524 . S
C400 C401 1.415 . S
C401 H371 0.950 . S
C401 C396 1.363 . S
C401 C400 1.415 . S
H402 C399 0.999 . S
H403 C384 0.913 . S
H404 C422 0.951 . S
H405 C424 0.951 1_655 S
H406 C426 0.950 . S
H407 C427 0.950 . S
H408 C429 0.950 . S
H409 C432 0.950 . S
H410 C433 0.950 . S
H411 C435 0.950 . S
H412 C436 0.950 . S
H413 C437 0.951 . S
H414 C439 0.951 1_455 S
H415 C441 0.950 . S
H416 C442 0.950 . S
H417 C444 0.950 . S
H418 C447 0.950 . S
H419 C448 0.950 . S
H420 C450 0.950 . S
H421 C451 0.950 . S
C422 H404 0.951 . S
C422 C423 1.366 . S
C422 C424 1.388 . S
C423 C422 1.366 . S
C423 C427 1.385 . S
C424 H405 0.951 1_455 S
C424 C422 1.388 . S
C424 C425 1.366 . S
C425 C424 1.366 . S
C425 C426 1.414 . S
C425 C428 1.499 . S
C426 H406 0.950 . S
C426 C425 1.414 . S
C426 C427 1.374 . S
C427 H407 0.950 . S
C427 C423 1.385 . S
C427 C426 1.374 . S
C428 C425 1.499 . S
C428 C429 1.373 . S
C428 C430 1.389 1_455 S
C429 H408 0.950 . S
C429 C428 1.373 . S
C429 C445 1.377 . S
C430 C428 1.389 1_655 S
C430 C431 1.524 . S
C430 C444 1.377 . S
C431 C430 1.524 . S
C431 C432 1.397 . S
C431 C436 1.363 . S
C432 H409 0.950 . S
C432 C431 1.397 . S
C432 C433 1.334 . S
C433 H410 0.950 . S
C433 C432 1.334 . S
C433 C434 1.287 . S
C434 C433 1.287 . S
C434 C435 1.524 . S
C434 H453 0.913 . S
C435 H411 0.950 . S
C435 C434 1.524 . S
C435 C436 1.415 . S
C436 H412 0.950 . S
C436 C431 1.363 . S
C436 C435 1.415 . S
C437 H413 0.951 . S
C437 C438 1.366 . S
C437 C439 1.388 . S
C438 C437 1.366 . S
C438 C442 1.385 . S
C439 H414 0.951 1_655 S
C439 C437 1.388 . S
C439 C440 1.366 . S
C440 C439 1.366 . S
C440 C441 1.414 . S
C440 C443 1.499 . S
C441 H415 0.950 . S
C441 C440 1.414 . S
C441 C442 1.374 . S
C442 H416 0.950 . S
C442 C438 1.385 . S
C442 C441 1.374 . S
C443 C440 1.499 . S
C443 C444 1.373 . S
C443 C445 1.389 1_655 S
C444 H417 0.950 . S
C444 C430 1.377 . S
C444 C443 1.373 . S
C445 C429 1.377 . S
C445 C443 1.389 1_455 S
C445 C446 1.524 . S
C446 C445 1.524 . S
C446 C447 1.397 . S
C446 C451 1.363 . S
C447 H418 0.950 . S
C447 C446 1.397 . S
C447 C448 1.334 . S
C448 H419 0.950 . S
C448 C447 1.334 . S
C448 C449 1.287 . S
C449 C448 1.287 . S
C449 C450 1.524 . S
C449 H452 0.999 . S
C450 H420 0.950 . S
C450 C449 1.524 . S
C450 C451 1.415 . S
C451 H421 0.950 . S
C451 C446 1.363 . S
C451 C450 1.415 . S
H452 C449 0.999 . S
H453 C434 0.913 . S
H454 C472 0.951 . S
H455 C474 0.951 1_655 S
H456 C476 0.950 . S
H457 C477 0.950 . S
H458 C479 0.953 . S
H459 C482 0.950 . S
H460 C483 0.950 . S
H461 C485 0.950 . S
H462 C486 0.950 1_655 S
H463 C487 0.951 . S
H464 C489 0.951 1_455 S
H465 C491 0.950 . S
H466 C492 0.950 . S
H467 C494 0.953 . S
H468 C497 0.950 . S
H469 C498 0.950 . S
H470 C500 0.950 . S
H471 C501 0.950 1_455 S
C472 H454 0.951 . S
C472 C473 1.366 . S
C472 C474 1.388 . S
C473 C472 1.366 . S
C473 C477 1.385 . S
C474 H455 0.951 1_455 S
C474 C472 1.388 . S
C474 C475 1.366 . S
C475 C474 1.366 . S
C475 C476 1.414 . S
C475 C478 1.499 . S
C476 H456 0.950 . S
C476 C475 1.414 . S
C476 C477 1.374 . S
C477 H457 0.950 . S
C477 C473 1.385 . S
C477 C476 1.374 . S
C478 C475 1.499 . S
C478 C479 1.386 . S
C478 C480 1.389 . S
C479 H458 0.953 . S
C479 C478 1.386 . S
C479 C495 1.363 1_455 S
C480 C478 1.389 . S
C480 C481 1.524 . S
C480 C494 1.363 1_455 S
C481 C480 1.524 . S
C481 C482 1.397 . S
C481 C486 1.363 . S
C482 H459 0.950 . S
C482 C481 1.397 . S
C482 C483 1.334 . S
C483 H460 0.950 . S
C483 C482 1.334 . S
C483 C484 1.287 . S
C484 C483 1.287 . S
C484 C485 1.524 . S
C484 H503 0.913 . S
C485 H461 0.950 . S
C485 C484 1.524 . S
C485 C486 1.415 . S
C486 H462 0.950 1_455 S
C486 C481 1.363 . S
C486 C485 1.415 . S
C487 H463 0.951 . S
C487 C488 1.366 . S
C487 C489 1.388 . S
C488 C487 1.366 . S
C488 C492 1.385 . S
C489 H464 0.951 1_655 S
C489 C487 1.388 . S
C489 C490 1.366 . S
C490 C489 1.366 . S
C490 C491 1.414 . S
C490 C493 1.499 . S
C491 H465 0.950 . S
C491 C490 1.414 . S
C491 C492 1.374 . S
C492 H466 0.950 . S
C492 C488 1.385 . S
C492 C491 1.374 . S
C493 C490 1.499 . S
C493 C494 1.386 . S
C493 C495 1.389 . S
C494 H467 0.953 . S
C494 C480 1.363 1_655 S
C494 C493 1.386 . S
C495 C479 1.363 1_655 S
C495 C493 1.389 . S
C495 C496 1.524 . S
C496 C495 1.524 . S
C496 C497 1.397 . S
C496 C501 1.363 . S
C497 H468 0.950 . S
C497 C496 1.397 . S
C497 C498 1.334 . S
C498 H469 0.950 . S
C498 C497 1.334 . S
C498 C499 1.287 . S
C499 C498 1.287 . S
C499 C500 1.524 . S
C499 H502 0.999 . S
C500 H470 0.950 . S
C500 C499 1.524 . S
C500 C501 1.415 . S
C501 H471 0.950 1_655 S
C501 C496 1.363 . S
C501 C500 1.415 . S
H502 C499 0.999 . S
H503 C484 0.913 . S
H504 C522 0.951 . S
H505 C524 0.951 . S
H506 C526 0.950 . S
H507 C527 0.950 . S
H508 C529 0.950 . S
H509 C532 0.950 . S
H510 C533 0.950 . S
H511 C535 0.950 . S
H512 C536 0.950 . S
H513 C537 0.951 . S
H514 C539 0.951 . S
H515 C541 0.950 . S
H516 C542 0.950 . S
H517 C544 0.950 . S
H518 C547 0.950 . S
H519 C548 0.950 . S
H520 C550 0.950 . S
H521 C551 0.950 . S
C522 H504 0.951 . S
C522 C523 1.366 . S
C522 C524 1.388 . S
C523 C522 1.366 . S
C523 C527 1.385 . S
C524 H505 0.951 . S
C524 C522 1.388 . S
C524 C525 1.366 . S
C525 C524 1.366 . S
C525 C526 1.414 . S
C525 C528 1.499 . S
C526 H506 0.950 . S
C526 C525 1.414 . S
C526 C527 1.374 . S
C527 H507 0.950 . S
C527 C523 1.385 . S
C527 C526 1.374 . S
C528 C525 1.499 . S
C528 C529 1.373 . S
C528 C530 1.389 . S
C529 H508 0.950 . S
C529 C528 1.373 . S
C529 C545 1.377 . S
C530 C528 1.389 . S
C530 C531 1.524 . S
C530 C544 1.377 . S
C531 C530 1.524 . S
C531 C532 1.397 . S
C531 C536 1.363 . S
C532 H509 0.950 . S
C532 C531 1.397 . S
C532 C533 1.334 . S
C533 H510 0.950 . S
C533 C532 1.334 . S
C533 C534 1.287 . S
C534 C533 1.287 . S
C534 C535 1.524 . S
C534 H553 0.913 . S
C535 H511 0.950 . S
C535 C534 1.524 . S
C535 C536 1.415 . S
C536 H512 0.950 . S
C536 C531 1.363 . S
C536 C535 1.415 . S
C537 H513 0.951 . S
C537 C538 1.366 . S
C537 C539 1.388 . S
C538 C537 1.366 . S
C538 C542 1.385 . S
C539 H514 0.951 . S
C539 C537 1.388 . S
C539 C540 1.366 . S
C540 C539 1.366 . S
C540 C541 1.414 . S
C540 C543 1.499 . S
C541 H515 0.950 . S
C541 C540 1.414 . S
C541 C542 1.374 . S
C542 H516 0.950 . S
C542 C538 1.385 . S
C542 C541 1.374 . S
C543 C540 1.499 . S
C543 C544 1.373 . S
C543 C545 1.389 . S
C544 H517 0.950 . S
C544 C530 1.377 . S
C544 C543 1.373 . S
C545 C529 1.377 . S
C545 C543 1.389 . S
C545 C546 1.524 . S
C546 C545 1.524 . S
C546 C547 1.397 . S
C546 C551 1.363 . S
C547 H518 0.950 . S
C547 C546 1.397 . S
C547 C548 1.334 . S
C548 H519 0.950 . S
C548 C547 1.334 . S
C548 C549 1.287 . S
C549 C548 1.287 . S
C549 C550 1.524 . S
C549 H552 0.999 . S
C550 H520 0.950 . S
C550 C549 1.524 . S
C550 C551 1.415 . S
C551 H521 0.950 . S
C551 C546 1.363 . S
C551 C550 1.415 . S
H552 C549 0.999 . S
H553 C534 0.913 . S
H554 C572 0.951 . S
H555 C574 0.951 . S
H556 C576 0.950 . S
H557 C577 0.950 . S
H558 C579 0.950 . S
H559 C582 0.950 . S
H560 C583 0.950 . S
H561 C585 0.950 . S
H562 C586 0.950 . S
H563 C587 0.951 . S
H564 C589 0.951 . S
H565 C591 0.950 . S
H566 C592 0.950 . S
H567 C594 0.950 . S
H568 C597 0.950 . S
H569 C598 0.950 . S
H570 C600 0.950 . S
H571 C601 0.950 . S
C572 H554 0.951 . S
C572 C573 1.366 . S
C572 C574 1.388 . S
C573 C572 1.366 . S
C573 C577 1.385 . S
C574 H555 0.951 . S
C574 C572 1.388 . S
C574 C575 1.366 . S
C575 C574 1.366 . S
C575 C576 1.414 . S
C575 C578 1.499 . S
C576 H556 0.950 . S
C576 C575 1.414 . S
C576 C577 1.374 . S
C577 H557 0.950 . S
C577 C573 1.385 . S
C577 C576 1.374 . S
C578 C575 1.499 . S
C578 C579 1.373 . S
C578 C580 1.389 . S
C579 H558 0.950 . S
C579 C578 1.373 . S
C579 C595 1.377 . S
C580 C578 1.389 . S
C580 C581 1.524 . S
C580 C594 1.377 . S
C581 C580 1.524 . S
C581 C582 1.397 . S
C581 C586 1.363 . S
C582 H559 0.950 . S
C582 C581 1.397 . S
C582 C583 1.334 . S
C583 H560 0.950 . S
C583 C582 1.334 . S
C583 C584 1.287 . S
C584 C583 1.287 . S
C584 C585 1.524 . S
C584 H603 0.913 . S
C585 H561 0.950 . S
C585 C584 1.524 . S
C585 C586 1.415 . S
C586 H562 0.950 . S
C586 C581 1.363 . S
C586 C585 1.415 . S
C587 H563 0.951 . S
C587 C588 1.366 . S
C587 C589 1.388 . S
C588 C587 1.366 . S
C588 C592 1.385 . S
C589 H564 0.951 . S
C589 C587 1.388 . S
C589 C590 1.366 . S
C590 C589 1.366 . S
C590 C591 1.414 . S
C590 C593 1.499 . S
C591 H565 0.950 . S
C591 C590 1.414 . S
C591 C592 1.374 . S
C592 H566 0.950 . S
C592 C588 1.385 . S
C592 C591 1.374 . S
C593 C590 1.499 . S
C593 C594 1.373 . S
C593 C595 1.389 . S
C594 H567 0.950 . S
C594 C580 1.377 . S
C594 C593 1.373 . S
C595 C579 1.377 . S
C595 C593 1.389 . S
C595 C596 1.524 . S
C596 C595 1.524 . S
C596 C597 1.397 . S
C596 C601 1.363 . S
C597 H568 0.950 . S
C597 C596 1.397 . S
C597 C598 1.334 . S
C598 H569 0.950 . S
C598 C597 1.334 . S
C598 C599 1.287 . S
C599 C598 1.287 . S
C599 C600 1.524 . S
C599 H602 0.999 . S
C600 H570 0.950 . S
C600 C599 1.524 . S
C600 C601 1.415 . S
C601 H571 0.950 . S
C601 C596 1.363 . S
C601 C600 1.415 . S
H602 C599 0.999 . S
H603 C584 0.913 . S
H604 C622 0.951 . S
H605 C624 0.951 . S
H606 C626 0.950 . S
H607 C627 0.950 . S
H608 C629 0.950 . S
H609 C632 0.950 . S
H610 C633 0.950 . S
H611 C635 0.950 . S
H612 C636 0.950 . S
H613 C637 0.951 . S
H614 C639 0.951 . S
H615 C641 0.950 . S
H616 C642 0.950 . S
H617 C644 0.950 . S
H618 C647 0.950 . S
H619 C648 0.950 . S
H620 C650 0.950 . S
H621 C651 0.950 . S
C622 H604 0.951 . S
C622 C623 1.366 . S
C622 C624 1.388 . S
C623 C622 1.366 . S
C623 C627 1.385 . S
C624 H605 0.951 . S
C624 C622 1.388 . S
C624 C625 1.366 . S
C625 C624 1.366 . S
C625 C626 1.414 . S
C625 C628 1.499 . S
C626 H606 0.950 . S
C626 C625 1.414 . S
C626 C627 1.374 . S
C627 H607 0.950 . S
C627 C623 1.385 . S
C627 C626 1.374 . S
C628 C625 1.499 . S
C628 C629 1.373 . S
C628 C630 1.389 . S
C629 H608 0.950 . S
C629 C628 1.373 . S
C629 C645 1.377 . S
C630 C628 1.389 . S
C630 C631 1.524 . S
C630 C644 1.377 . S
C631 C630 1.524 . S
C631 C632 1.397 . S
C631 C636 1.363 . S
C632 H609 0.950 . S
C632 C631 1.397 . S
C632 C633 1.334 . S
C633 H610 0.950 . S
C633 C632 1.334 . S
C633 C634 1.287 . S
C634 C633 1.287 . S
C634 C635 1.524 . S
C634 H653 0.913 . S
C635 H611 0.950 . S
C635 C634 1.524 . S
C635 C636 1.415 . S
C636 H612 0.950 . S
C636 C631 1.363 . S
C636 C635 1.415 . S
C637 H613 0.951 . S
C637 C638 1.366 . S
C637 C639 1.388 . S
C638 C637 1.366 . S
C638 C642 1.385 . S
C639 H614 0.951 . S
C639 C637 1.388 . S
C639 C640 1.366 . S
C640 C639 1.366 . S
C640 C641 1.414 . S
C640 C643 1.499 . S
C641 H615 0.950 . S
C641 C640 1.414 . S
C641 C642 1.374 . S
C642 H616 0.950 . S
C642 C638 1.385 . S
C642 C641 1.374 . S
C643 C640 1.499 . S
C643 C644 1.373 . S
C643 C645 1.389 . S
C644 H617 0.950 . S
C644 C630 1.377 . S
C644 C643 1.373 . S
C645 C629 1.377 . S
C645 C643 1.389 . S
C645 C646 1.524 . S
C646 C645 1.524 . S
C646 C647 1.397 . S
C646 C651 1.363 . S
C647 H618 0.950 . S
C647 C646 1.397 . S
C647 C648 1.334 . S
C648 H619 0.950 . S
C648 C647 1.334 . S
C648 C649 1.287 . S
C649 C648 1.287 . S
C649 C650 1.524 . S
C649 H652 0.999 . S
C650 H620 0.950 . S
C650 C649 1.524 . S
C650 C651 1.415 . S
C651 H621 0.950 . S
C651 C646 1.363 . S
C651 C650 1.415 . S
H652 C649 0.999 . S
H653 C634 0.913 . S
H654 C672 0.951 . S
H655 C674 0.951 . S
H656 C676 0.950 . S
H657 C677 0.950 . S
H658 C679 0.950 . S
H659 C682 0.950 . S
H660 C683 0.950 . S
H661 C685 0.950 . S
H662 C686 0.950 . S
H663 C687 0.951 . S
H664 C689 0.951 . S
H665 C691 0.950 . S
H666 C692 0.950 . S
H667 C694 0.950 . S
H668 C697 0.950 . S
H669 C698 0.950 . S
H670 C700 0.950 . S
H671 C701 0.950 . S
C672 H654 0.951 . S
C672 C673 1.366 . S
C672 C674 1.388 . S
C673 C672 1.366 . S
C673 C677 1.385 . S
C674 H655 0.951 . S
C674 C672 1.388 . S
C674 C675 1.366 . S
C675 C674 1.366 . S
C675 C676 1.414 . S
C675 C678 1.499 . S
C676 H656 0.950 . S
C676 C675 1.414 . S
C676 C677 1.374 . S
C677 H657 0.950 . S
C677 C673 1.385 . S
C677 C676 1.374 . S
C678 C675 1.499 . S
C678 C679 1.373 . S
C678 C680 1.389 . S
C679 H658 0.950 . S
C679 C678 1.373 . S
C679 C695 1.377 . S
C680 C678 1.389 . S
C680 C681 1.524 . S
C680 C694 1.377 . S
C681 C680 1.524 . S
C681 C682 1.397 . S
C681 C686 1.363 . S
C682 H659 0.950 . S
C682 C681 1.397 . S
C682 C683 1.334 . S
C683 H660 0.950 . S
C683 C682 1.334 . S
C683 C684 1.287 . S
C684 C683 1.287 . S
C684 C685 1.524 . S
C684 H703 0.913 . S
C685 H661 0.950 . S
C685 C684 1.524 . S
C685 C686 1.415 . S
C686 H662 0.950 . S
C686 C681 1.363 . S
C686 C685 1.415 . S
C687 H663 0.951 . S
C687 C688 1.366 . S
C687 C689 1.388 . S
C688 C687 1.366 . S
C688 C692 1.385 . S
C689 H664 0.951 . S
C689 C687 1.388 . S
C689 C690 1.366 . S
C690 C689 1.366 . S
C690 C691 1.414 . S
C690 C693 1.499 . S
C691 H665 0.950 . S
C691 C690 1.414 . S
C691 C692 1.374 . S
C692 H666 0.950 . S
C692 C688 1.385 . S
C692 C691 1.374 . S
C693 C690 1.499 . S
C693 C694 1.373 . S
C693 C695 1.389 . S
C694 H667 0.950 . S
C694 C680 1.377 . S
C694 C693 1.373 . S
C695 C679 1.377 . S
C695 C693 1.389 . S
C695 C696 1.524 . S
C696 C695 1.524 . S
C696 C697 1.397 . S
C696 C701 1.363 . S
C697 H668 0.950 . S
C697 C696 1.397 . S
C697 C698 1.334 . S
C698 H669 0.950 . S
C698 C697 1.334 . S
C698 C699 1.287 . S
C699 C698 1.287 . S
C699 C700 1.524 . S
C699 H702 0.999 . S
C700 H670 0.950 . S
C700 C699 1.524 . S
C700 C701 1.415 . S
C701 H671 0.950 . S
C701 C696 1.363 . S
C701 C700 1.415 . S
H702 C699 0.999 . S
H703 C684 0.913 . S
H704 C722 0.951 . S
H705 C724 0.951 . S
H706 C726 0.950 . S
H707 C727 0.950 . S
H708 C729 0.950 . S
H709 C732 0.950 . S
H710 C733 0.950 . S
H711 C735 0.950 . S
H712 C736 0.950 . S
H713 C737 0.951 . S
H714 C739 0.951 . S
H715 C741 0.950 . S
H716 C742 0.950 . S
H717 C744 0.950 . S
H718 C747 0.950 . S
H719 C748 0.950 . S
H720 C750 0.950 . S
H721 C751 0.950 . S
C722 H704 0.951 . S
C722 C723 1.365 1_554 S
C722 C724 1.388 . S
C723 C722 1.365 1_556 S
C723 C727 1.385 . S
C724 H705 0.951 . S
C724 C722 1.388 . S
C724 C725 1.366 . S
C725 C724 1.366 . S
C725 C726 1.414 1_554 S
C725 C728 1.499 . S
C726 H706 0.950 . S
C726 C725 1.414 1_556 S
C726 C727 1.374 . S
C727 H707 0.950 . S
C727 C723 1.385 . S
C727 C726 1.374 . S
C728 C725 1.499 . S
C728 C729 1.373 1_554 S
C728 C730 1.389 . S
C729 H708 0.950 . S
C729 C728 1.373 1_556 S
C729 C745 1.377 . S
C730 C728 1.389 . S
C730 C731 1.524 . S
C730 C744 1.377 . S
C731 C730 1.524 . S
C731 C732 1.397 . S
C731 C736 1.363 . S
C732 H709 0.950 . S
C732 C731 1.397 . S
C732 C733 1.334 . S
C733 H710 0.950 . S
C733 C732 1.334 . S
C733 C734 1.287 . S
C734 C733 1.287 . S
C734 C735 1.524 . S
C734 H753 0.913 . S
C735 H711 0.950 . S
C735 C734 1.524 . S
C735 C736 1.415 . S
C736 H712 0.950 . S
C736 C731 1.363 . S
C736 C735 1.415 . S
C737 H713 0.951 . S
C737 C738 1.365 . S
C737 C739 1.388 . S
C738 C737 1.365 . S
C738 C742 1.385 1_556 S
C739 H714 0.951 . S
C739 C737 1.388 . S
C739 C740 1.366 . S
C740 C739 1.366 . S
C740 C741 1.414 1_556 S
C740 C743 1.499 . S
C741 H715 0.950 . S
C741 C740 1.414 1_554 S
C741 C742 1.374 . S
C742 H716 0.950 . S
C742 C738 1.385 1_554 S
C742 C741 1.374 . S
C743 C740 1.499 . S
C743 C744 1.373 1_556 S
C743 C745 1.389 . S
C744 H717 0.950 . S
C744 C730 1.377 . S
C744 C743 1.373 1_554 S
C745 C729 1.377 . S
C745 C743 1.389 . S
C745 C746 1.524 . S
C746 C745 1.524 . S
C746 C747 1.397 . S
C746 C751 1.363 . S
C747 H718 0.950 . S
C747 C746 1.397 . S
C747 C748 1.334 . S
C748 H719 0.950 . S
C748 C747 1.334 . S
C748 C749 1.287 . S
C749 C748 1.287 . S
C749 C750 1.524 . S
C749 H752 0.999 . S
C750 H720 0.950 . S
C750 C749 1.524 . S
C750 C751 1.415 . S
C751 H721 0.950 . S
C751 C746 1.363 . S
C751 C750 1.415 . S
H752 C749 0.999 . S
H753 C734 0.913 . S
H754 C772 0.951 . S
H755 C774 0.951 . S
H756 C776 0.950 . S
H757 C777 0.950 . S
H758 C779 0.950 . S
H759 C782 0.950 . S
H760 C783 0.950 . S
H761 C785 0.950 . S
H762 C786 0.950 . S
H763 C787 0.951 . S
H764 C789 0.951 . S
H765 C791 0.950 . S
H766 C792 0.950 . S
H767 C794 0.950 . S
H768 C797 0.950 . S
H769 C798 0.950 . S
H770 C800 0.950 . S
H771 C801 0.950 . S
C772 H754 0.951 . S
C772 C773 1.365 1_554 S
C772 C774 1.388 . S
C773 C772 1.365 1_556 S
C773 C777 1.386 . S
C774 H755 0.951 . S
C774 C772 1.388 . S
C774 C775 1.367 1_554 S
C775 C774 1.367 1_556 S
C775 C776 1.412 . S
C775 C778 1.499 . S
C776 H756 0.950 . S
C776 C775 1.412 . S
C776 C777 1.374 . S
C777 H757 0.950 . S
C777 C773 1.386 . S
C777 C776 1.374 . S
C778 C775 1.499 . S
C778 C779 1.373 . S
C778 C780 1.389 1_556 S
C779 H758 0.950 . S
C779 C778 1.373 . S
C779 C795 1.377 . S
C780 C778 1.389 1_554 S
C780 C781 1.524 . S
C780 C794 1.377 . S
C781 C780 1.524 . S
C781 C782 1.397 . S
C781 C786 1.363 . S
C782 H759 0.950 . S
C782 C781 1.397 . S
C782 C783 1.334 . S
C783 H760 0.950 . S
C783 C782 1.334 . S
C783 C784 1.287 . S
C784 C783 1.287 . S
C784 C785 1.524 . S
C784 H803 0.913 . S
C785 H761 0.950 . S
C785 C784 1.524 . S
C785 C786 1.415 . S
C786 H762 0.950 . S
C786 C781 1.363 . S
C786 C785 1.415 . S
C787 H763 0.951 . S
C787 C788 1.366 . S
C787 C789 1.388 . S
C788 C787 1.366 . S
C788 C792 1.385 1_556 S
C789 H764 0.951 . S
C789 C787 1.388 . S
C789 C790 1.368 . S
C790 C789 1.368 . S
C790 C791 1.412 1_556 S
C790 C793 1.499 1_556 S
C791 H765 0.950 . S
C791 C790 1.412 1_554 S
C791 C792 1.374 . S
C792 H766 0.950 . S
C792 C788 1.385 1_554 S
C792 C791 1.374 . S
C793 C790 1.499 1_554 S
C793 C794 1.373 . S
C793 C795 1.389 1_554 S
C794 H767 0.950 . S
C794 C780 1.377 . S
C794 C793 1.373 . S
C795 C779 1.377 . S
C795 C793 1.389 1_556 S
C795 C796 1.524 . S
C796 C795 1.524 . S
C796 C797 1.397 . S
C796 C801 1.363 . S
C797 H768 0.950 . S
C797 C796 1.397 . S
C797 C798 1.334 . S
C798 H769 0.950 . S
C798 C797 1.334 . S
C798 C799 1.287 . S
C799 C798 1.287 . S
C799 C800 1.524 . S
C799 H802 0.999 . S
C800 H770 0.950 . S
C800 C799 1.524 . S
C800 C801 1.415 . S
C801 H771 0.950 . S
C801 C796 1.363 . S
C801 C800 1.415 . S
H802 C799 0.999 . S
H803 C784 0.913 . S
H804 C822 0.951 . S
H805 C824 0.951 . S
H806 C826 0.950 . S
H807 C827 0.950 . S
H808 C829 0.950 . S
H809 C832 0.950 . S
H810 C833 0.950 . S
H811 C835 0.950 . S
H812 C836 0.950 . S
H813 C837 0.951 . S
H814 C839 0.951 . S
H815 C841 0.950 . S
H816 C842 0.950 . S
H817 C844 0.950 . S
H818 C847 0.950 . S
H819 C848 0.950 . S
H820 C850 0.950 . S
H821 C851 0.950 . S
C822 H804 0.951 . S
C822 C823 1.366 . S
C822 C824 1.388 . S
C823 C822 1.366 . S
C823 C827 1.385 . S
C824 H805 0.951 . S
C824 C822 1.388 . S
C824 C825 1.366 . S
C825 C824 1.366 . S
C825 C826 1.414 . S
C825 C828 1.499 . S
C826 H806 0.950 . S
C826 C825 1.414 . S
C826 C827 1.374 . S
C827 H807 0.950 . S
C827 C823 1.385 . S
C827 C826 1.374 . S
C828 C825 1.499 . S
C828 C829 1.373 . S
C828 C830 1.389 . S
C829 H808 0.950 . S
C829 C828 1.373 . S
C829 C845 1.377 . S
C830 C828 1.389 . S
C830 C831 1.524 . S
C830 C844 1.377 . S
C831 C830 1.524 . S
C831 C832 1.397 . S
C831 C836 1.363 . S
C832 H809 0.950 . S
C832 C831 1.397 . S
C832 C833 1.334 . S
C833 H810 0.950 . S
C833 C832 1.334 . S
C833 C834 1.287 . S
C834 C833 1.287 . S
C834 C835 1.524 . S
C834 H853 0.913 . S
C835 H811 0.950 . S
C835 C834 1.524 . S
C835 C836 1.415 . S
C836 H812 0.950 . S
C836 C831 1.363 . S
C836 C835 1.415 . S
C837 H813 0.951 . S
C837 C838 1.366 . S
C837 C839 1.388 . S
C838 C837 1.366 . S
C838 C842 1.385 . S
C839 H814 0.951 . S
C839 C837 1.388 . S
C839 C840 1.366 . S
C840 C839 1.366 . S
C840 C841 1.414 . S
C840 C843 1.499 . S
C841 H815 0.950 . S
C841 C840 1.414 . S
C841 C842 1.374 . S
C842 H816 0.950 . S
C842 C838 1.385 . S
C842 C841 1.374 . S
C843 C840 1.499 . S
C843 C844 1.373 . S
C843 C845 1.389 . S
C844 H817 0.950 . S
C844 C830 1.377 . S
C844 C843 1.373 . S
C845 C829 1.377 . S
C845 C843 1.389 . S
C845 C846 1.524 . S
C846 C845 1.524 . S
C846 C847 1.397 . S
C846 C851 1.363 . S
C847 H818 0.950 . S
C847 C846 1.397 . S
C847 C848 1.334 . S
C848 H819 0.950 . S
C848 C847 1.334 . S
C848 C849 1.287 . S
C849 C848 1.287 . S
C849 C850 1.524 . S
C849 H852 0.999 . S
C850 H820 0.950 . S
C850 C849 1.524 . S
C850 C851 1.415 . S
C851 H821 0.950 . S
C851 C846 1.363 . S
C851 C850 1.415 . S
H852 C849 0.999 . S
H853 C834 0.913 . S
H854 C872 0.951 . S
H855 C874 0.951 . S
H856 C876 0.950 . S
H857 C877 0.950 . S
H858 C879 0.950 . S
H859 C882 0.950 . S
H860 C883 0.950 . S
H861 C885 0.950 . S
H862 C886 0.950 . S
H863 C887 0.951 . S
H864 C889 0.951 . S
H865 C891 0.950 . S
H866 C892 0.950 . S
H867 C894 0.950 . S
H868 C897 0.950 . S
H869 C898 0.950 . S
H870 C900 0.950 . S
H871 C901 0.950 . S
C872 H854 0.951 . S
C872 C873 1.366 . S
C872 C874 1.388 . S
C873 C872 1.366 . S
C873 C877 1.385 . S
C874 H855 0.951 . S
C874 C872 1.388 . S
C874 C875 1.366 . S
C875 C874 1.366 . S
C875 C876 1.414 . S
C875 C878 1.499 . S
C876 H856 0.950 . S
C876 C875 1.414 . S
C876 C877 1.374 . S
C877 H857 0.950 . S
C877 C873 1.385 . S
C877 C876 1.374 . S
C878 C875 1.499 . S
C878 C879 1.373 . S
C878 C880 1.389 . S
C879 H858 0.950 . S
C879 C878 1.373 . S
C879 C895 1.377 . S
C880 C878 1.389 . S
C880 C881 1.524 . S
C880 C894 1.377 . S
C881 C880 1.524 . S
C881 C882 1.397 . S
C881 C886 1.363 . S
C882 H859 0.950 . S
C882 C881 1.397 . S
C882 C883 1.334 . S
C883 H860 0.950 . S
C883 C882 1.334 . S
C883 C884 1.287 . S
C884 C883 1.287 . S
C884 C885 1.524 . S
C884 H903 0.913 . S
C885 H861 0.950 . S
C885 C884 1.524 . S
C885 C886 1.415 . S
C886 H862 0.950 . S
C886 C881 1.363 . S
C886 C885 1.415 . S
C887 H863 0.951 . S
C887 C888 1.366 . S
C887 C889 1.388 . S
C888 C887 1.366 . S
C888 C892 1.385 . S
C889 H864 0.951 . S
C889 C887 1.388 . S
C889 C890 1.366 . S
C890 C889 1.366 . S
C890 C891 1.414 . S
C890 C893 1.499 . S
C891 H865 0.950 . S
C891 C890 1.414 . S
C891 C892 1.374 . S
C892 H866 0.950 . S
C892 C888 1.385 . S
C892 C891 1.374 . S
C893 C890 1.499 . S
C893 C894 1.373 . S
C893 C895 1.389 . S
C894 H867 0.950 . S
C894 C880 1.377 . S
C894 C893 1.373 . S
C895 C879 1.377 . S
C895 C893 1.389 . S
C895 C896 1.524 . S
C896 C895 1.524 . S
C896 C897 1.397 . S
C896 C901 1.363 . S
C897 H868 0.950 . S
C897 C896 1.397 . S
C897 C898 1.334 . S
C898 H869 0.950 . S
C898 C897 1.334 . S
C898 C899 1.287 . S
C899 C898 1.287 . S
C899 C900 1.524 . S
C899 H902 0.999 . S
C900 H870 0.950 . S
C900 C899 1.524 . S
C900 C901 1.415 . S
C901 H871 0.950 . S
C901 C896 1.363 . S
C901 C900 1.415 . S
H902 C899 0.999 . S
H903 C884 0.913 . S
C123 C18 1.477 . S
C138 C5 1.477 . S
C173 C31 1.477 . S
C188 C44 1.477 . S
C223 C57 1.476 . S
C238 C70 1.476 . S
C273 C83 1.476 . S
C288 C96 1.476 . S
C323 C10 0.995 . S
C338 C49 0.995 . S
C373 C36 0.995 . S
C388 C23 0.994 . S
C423 C34 0.940 . S
C438 C21 0.939 . S
C473 C8 0.940 . S
C488 C47 0.938 . S
C523 C62 0.995 . S
C538 C101 0.995 . S
C573 C88 0.995 . S
C588 C75 0.995 . S
C623 C73 0.939 . S
C638 C86 0.939 . S
C673 C60 0.938 . S
C688 C99 0.940 . S
C723 C65 1.528 1_556 S
C738 C0 1.528 1_556 S
C773 C52 1.528 1_556 S
C788 C13 1.528 1_556 S
C823 C26 1.529 . S
C838 C91 1.528 . S
C873 C78 1.529 . S
C888 C39 1.528 . S
