# Generated by pormake.
# Topology smc, (6)-cn, num edge types: 1
# Building blocks:
#     Node 0, Type 0, BuildingBlock: KUMBUR_clean_sbu_0, # of connection points: 6
#     Node 1, Type 0, BuildingBlock: KUMBUR_clean_sbu_0, # of connection points: 6
#     Node 2, Type 0, BuildingBlock: KUMBUR_clean_sbu_0, # of connection points: 6
#     Node 3, Type 0, BuildingBlock: KUMBUR_clean_sbu_0, # of connection points: 6
#     Node 4, Type 0, BuildingBlock: KUMBUR_clean_sbu_0, # of connection points: 6
#     Node 5, Type 0, BuildingBlock: KUMBUR_clean_sbu_0, # of connection points: 6
#     Node 6, Type 0, BuildingBlock: KUMBUR_clean_sbu_0, # of connection points: 6
#     Node 7, Type 0, BuildingBlock: KUMBUR_clean_sbu_0, # of connection points: 6
#     Node 8, Type 0, BuildingBlock: KUMBUR_clean_sbu_0, # of connection points: 6
#     Edge 9, Type (0, 0), BuildingBlock: CIFDUS_clean_linker_0, # of connection points: 2
#     Edge 10, Type (0, 0), BuildingBlock: CIFDUS_clean_linker_0, # of connection points: 2
#     Edge 11, Type (0, 0), BuildingBlock: CIFDUS_clean_linker_0, # of connection points: 2
#     Edge 12, Type (0, 0), BuildingBlock: CIFDUS_clean_linker_0, # of connection points: 2
#     Edge 13, Type (0, 0), BuildingBlock: CIFDUS_clean_linker_0, # of connection points: 2
#     Edge 14, Type (0, 0), BuildingBlock: CIFDUS_clean_linker_0, # of connection points: 2
#     Edge 15, Type (0, 0), BuildingBlock: CIFDUS_clean_linker_0, # of connection points: 2
#     Edge 16, Type (0, 0), BuildingBlock: CIFDUS_clean_linker_0, # of connection points: 2
#     Edge 17, Type (0, 0), BuildingBlock: CIFDUS_clean_linker_0, # of connection points: 2
#     Edge 18, Type (0, 0), BuildingBlock: CIFDUS_clean_linker_0, # of connection points: 2
#     Edge 19, Type (0, 0), BuildingBlock: CIFDUS_clean_linker_0, # of connection points: 2
#     Edge 20, Type (0, 0), BuildingBlock: CIFDUS_clean_linker_0, # of connection points: 2
#     Edge 21, Type (0, 0), BuildingBlock: CIFDUS_clean_linker_0, # of connection points: 2
#     Edge 22, Type (0, 0), BuildingBlock: CIFDUS_clean_linker_0, # of connection points: 2
#     Edge 23, Type (0, 0), BuildingBlock: CIFDUS_clean_linker_0, # of connection points: 2
#     Edge 24, Type (0, 0), BuildingBlock: CIFDUS_clean_linker_0, # of connection points: 2
#     Edge 25, Type (0, 0), BuildingBlock: CIFDUS_clean_linker_0, # of connection points: 2
#     Edge 26, Type (0, 0), BuildingBlock: CIFDUS_clean_linker_0, # of connection points: 2
#     Edge 27, Type (0, 0), BuildingBlock: CIFDUS_clean_linker_0, # of connection points: 2
#     Edge 28, Type (0, 0), BuildingBlock: CIFDUS_clean_linker_0, # of connection points: 2
#     Edge 29, Type (0, 0), BuildingBlock: CIFDUS_clean_linker_0, # of connection points: 2
#     Edge 30, Type (0, 0), BuildingBlock: CIFDUS_clean_linker_0, # of connection points: 2
#     Edge 31, Type (0, 0), BuildingBlock: CIFDUS_clean_linker_0, # of connection points: 2
#     Edge 32, Type (0, 0), BuildingBlock: CIFDUS_clean_linker_0, # of connection points: 2
#     Edge 33, Type (0, 0), BuildingBlock: CIFDUS_clean_linker_0, # of connection points: 2
#     Edge 34, Type (0, 0), BuildingBlock: CIFDUS_clean_linker_0, # of connection points: 2
#     Edge 35, Type (0, 0), BuildingBlock: CIFDUS_clean_linker_0, # of connection points: 2
# Relax obj value: 0.110
# Max RMSD: 0.294
# Mean RMSD: 0.294
data_MOF--net-smc--node1-KUMBUR_clean_sbu_0--edge1-CIFDUS_clean_linker_0
_symmetry_space_group_name_H-M    P1
_symmetry_Int_Tables_number       1
_symmetry_cell_setting            triclinic
loop_
_symmetry_equiv_pos_as_xyz
'x, y, z'
_cell_length_a     34.112209
_cell_length_b     34.13092
_cell_length_c     35.294646
_cell_angle_alpha  90.096337
_cell_angle_beta   89.873973
_cell_angle_gamma 119.92468
loop_
_atom_site_label
_atom_site_type_symbol
_atom_site_fract_x
_atom_site_fract_y
_atom_site_fract_z
_atom_type_partial_charge
Tb0 Tb 0.06165 0.50079 0.99208 0.0
C1 C 1.02798 0.33041 0.07108 0.0
C2 C 0.04503 0.29086 0.0226 0.0
C3 C 0.05278 0.27708 0.08872 0.0
C4 C 0.03034 0.32157 0.03317 0.0
C5 C 0.03861 0.30766 0.09926 0.0
C6 C 0.05603 0.26873 0.05048 0.0
C7 C 1.01859 0.34503 0.14685 0.0
N8 N 1.01489 0.36075 0.08049 0.0
C9 C 1.00842 0.36667 0.1182 0.0
C10 C 0.03411 0.31565 0.13737 0.0
Tb11 Tb 0.9938 0.39074 0.03062 0.0
N12 N 1.02065 0.34455 0.00671 0.0
C13 C 1.02599 0.33785 0.96897 0.0
C14 C 0.04933 0.28385 0.98428 0.0
C15 C 0.04006 0.30769 0.95742 0.0
H16 H 0.99543 0.38839 0.12695 0.0
H17 H 0.0442 0.30325 0.92758 0.0
H18 H 0.06731 0.24521 0.04273 0.0
H19 H 1.01424 0.35096 0.1763 0.0
H20 H 1.02143 0.3563 0.94661 0.0
H21 H 0.05363 0.59048 0.11547 0.0
H22 H 0.06059 0.26073 0.97514 0.0
H23 H 0.03871 0.51114 0.90066 0.0
H24 H 0.07348 0.54168 0.07963 0.0
H25 H 0.99612 0.53915 0.86533 0.0
H26 H 0.06122 0.2596 0.10996 0.0
H27 H 1.01205 0.62365 0.08444 0.0
H28 H 0.97574 0.63237 0.02595 0.0
H29 H 0.04199 0.29889 0.15968 0.0
H30 H 0.95712 0.61555 0.9585 0.0
N31 N 0.04 0.54242 0.02898 0.0
C32 C 0.05339 0.55347 0.06584 0.0
C33 C 1.01993 0.60122 0.0686 0.0
C34 C 1.00771 0.59137 0.03055 0.0
C35 C 0.04306 0.58231 0.08625 0.0
C36 C 1.01865 0.56177 0.01122 0.0
H37 H 0.96319 0.57964 0.89868 0.0
N38 N 1.02203 0.526 0.95542 0.0
C39 C 0.99806 0.54202 0.8959 0.0
C40 C 1.00789 0.55197 0.9735 0.0
C41 C 1.02086 0.52457 0.91645 0.0
C42 C 0.9798 0.56507 0.91476 0.0
C43 C 0.98634 0.57205 0.95376 0.0
O44 O 0.11026 0.54606 0.95294 0.0
O45 O 0.06214 0.43966 0.00814 0.0
O46 O 0.03144 0.43902 0.07577 0.0
O47 O 0.09491 0.4925 0.04439 0.0
O48 O 0.08541 0.46586 0.95559 0.0
O49 O 0.12164 0.55857 0.01173 0.0
O50 O 0.94524 0.37246 0.0736 0.0
O51 O 1.00252 0.45879 0.02557 0.0
O52 O 1.01929 0.45377 0.94469 0.0
O53 O 0.97682 0.38186 0.97148 0.0
O54 O 0.94269 0.40526 0.00798 0.0
O55 O 0.93313 0.32688 0.02764 0.0
C56 C 0.08524 0.43786 0.98029 0.0
C57 C 0.14686 0.6237 0.97216 0.0
C58 C 0.1974 0.7066 0.97736 0.0
C59 C 0.18924 0.66161 0.98248 0.0
C60 C 0.16243 0.71267 0.96309 0.0
C61 C 0.11487 0.63227 0.95492 0.0
C62 C 0.12183 0.67586 0.95157 0.0
C63 C 0.07502 0.46851 0.07553 0.0
C64 C 0.13555 0.57547 0.97826 0.0
C65 C 0.97405 0.60028 0.97312 0.0
C66 C 0.9849 0.61009 0.01143 0.0
C67 C 0.96353 0.44796 0.0135 0.0
C68 C 0.86839 0.32742 0.05486 0.0
C69 C 0.8297 0.28383 0.05023 0.0
C70 C 0.78578 0.27884 0.04825 0.0
C71 C 0.78126 0.31745 0.05003 0.0
C72 C 0.86151 0.36454 0.05929 0.0
C73 C 0.8188 0.35986 0.05583 0.0
C74 C 0.98897 0.40956 0.94227 0.0
C75 C 0.91559 0.33488 0.05755 0.0
H76 H 0.21572 0.65628 0.99374 0.0
H77 H 0.16755 0.74629 0.95848 0.0
H78 H 0.08467 0.60548 0.94292 0.0
H79 H 0.09606 0.68121 0.93876 0.0
H80 H 0.83358 0.25423 0.04886 0.0
H81 H 0.74814 0.31448 0.04864 0.0
H82 H 0.88923 0.39741 0.06617 0.0
H83 H 0.81467 0.3892 0.05865 0.0
Tb84 Tb 0.54838 0.56386 0.98393 0.0
C85 C 0.71518 0.68382 0.0806 0.0
C86 C 0.74645 0.75735 0.05129 0.0
C87 C 0.7577 0.75163 0.11861 0.0
C88 C 0.72094 0.7098 0.04905 0.0
C89 C 0.73404 0.70427 0.11568 0.0
C90 C 0.76398 0.77816 0.08642 0.0
C91 C 0.70786 0.62978 0.1414 0.0
N92 N 0.69194 0.6382 0.0765 0.0
C93 C 0.68998 0.61109 0.10593 0.0
C94 C 0.72939 0.67654 0.14648 0.0
Tb95 Tb 0.66239 0.61092 0.01735 0.0
N96 N 0.70341 0.68834 0.01573 0.0
C97 C 0.71434 0.71256 0.98283 0.0
C98 C 0.7547 0.78241 0.01799 0.0
C99 C 0.73933 0.75985 0.9835 0.0
H100 H 0.67372 0.57493 0.10255 0.0
H101 H 0.7469 0.77881 0.95735 0.0
H102 H 0.78324 0.81465 0.08881 0.0
H103 H 0.70512 0.60807 0.16479 0.0
H104 H 0.70376 0.69563 0.95587 0.0
H105 H 0.48032 0.48957 0.12208 0.0
H106 H 0.77418 0.81901 0.01843 0.0
H107 H 0.53306 0.51332 0.89825 0.0
H108 H 0.51745 0.55068 0.07712 0.0
H109 H 0.50332 0.43698 0.87357 0.0
H110 H 0.77206 0.76804 0.1454 0.0
H111 H 0.44877 0.41045 0.10134 0.0
H112 H 0.43375 0.35568 0.0489 0.0
H113 H 0.74328 0.6909 0.17396 0.0
H114 H 0.44068 0.34144 0.98169 0.0
N115 N 0.51329 0.5089 0.03016 0.0
C116 C 0.50707 0.51738 0.06703 0.0
C117 C 0.46646 0.43764 0.08115 0.0
C118 C 0.47044 0.42863 0.04321 0.0
C119 C 0.48451 0.4822 0.093 0.0
C120 C 0.49403 0.46532 0.01801 0.0
H121 H 0.46711 0.37134 0.91656 0.0
N122 N 0.52114 0.49327 0.95673 0.0
C123 C 0.5025 0.44216 0.90376 0.0
C124 C 0.49829 0.45728 0.98024 0.0
C125 C 0.52092 0.4859 0.91837 0.0
C126 C 0.48173 0.40523 0.92803 0.0
C127 C 0.47849 0.41239 0.96659 0.0
O128 O 0.5008 0.55946 0.94338 0.0
O129 O 0.61021 0.62595 0.9952 0.0
O130 O 0.62712 0.61879 0.06509 0.0
O131 O 0.56145 0.60896 0.03576 0.0
O132 O 0.57396 0.6233 0.94806 0.0
O133 O 0.48927 0.56411 1.00231 0.0
O134 O 0.69371 0.57122 0.02236 0.0
O135 O 0.60165 0.55101 0.9987 0.0
O136 O 0.59122 0.56616 0.93445 0.0
O137 O 0.66498 0.61339 0.95592 0.0
O138 O 0.6327 0.54412 0.04471 0.0
O139 O 0.72642 0.63385 0.99214 0.0
C140 C 0.60904 0.65012 0.96791 0.0
C141 C 0.42365 0.51885 0.96472 0.0
C142 C 0.34094 0.48599 0.97237 0.0
C143 C 0.38581 0.52343 0.97525 0.0
C144 C 0.33489 0.44433 0.95964 0.0
C145 C 0.41517 0.47712 0.94997 0.0
C146 C 0.37163 0.44015 0.94828 0.0
C147 C 0.59115 0.6234 0.06475 0.0
C148 C 0.47159 0.55693 0.96859 0.0
C149 C 0.45561 0.376 0.99165 0.0
C150 C 0.45161 0.38411 0.02987 0.0
C151 C 0.60001 0.52191 0.02153 0.0
C152 C 0.77314 0.60839 0.02056 0.0
C153 C 0.78881 0.5778 0.01352 0.0
C154 C 0.82989 0.58483 0.02929 0.0
C155 C 0.85493 0.62329 0.05215 0.0
C156 C 0.79866 0.64617 0.04363 0.0
C157 C 0.83933 0.6535 0.05927 0.0
C158 C 0.63609 0.58856 0.92932 0.0
C159 C 0.72972 0.59955 1.00406 0.0
H160 H 0.39115 0.55576 0.98524 0.0
H161 H 0.3013 0.41529 0.95659 0.0
H162 H 0.44191 0.47283 0.93889 0.0
H163 H 0.36625 0.40825 0.93717 0.0
H164 H 0.76862 0.54826 0.99612 0.0
H165 H 0.88708 0.63056 0.06411 0.0
H166 H 0.78725 0.67002 0.04949 0.0
H167 H 0.85902 0.68291 0.07687 0.0
Tb168 Tb 0.49576 0.99433 0.99108 0.0
C169 C 0.35024 0.031 0.06007 0.0
C170 C 0.28787 0.99579 0.01592 0.0
C171 C 0.27361 1.00596 0.08172 0.0
C172 C 0.33452 1.0162 0.02384 0.0
C173 C 0.32007 0.0263 0.08942 0.0
C174 C 0.25754 0.99072 0.04505 0.0
C175 C 0.38405 0.06273 0.1317 0.0
N176 N 0.39517 0.04931 0.06668 0.0
C177 C 0.41266 0.06678 0.10168 0.0
C178 C 0.3375 0.04211 0.12563 0.0
Tb179 Tb 0.43911 0.05558 0.01515 0.0
N180 N 0.36477 0.02079 0.9966 0.0
C181 C 0.35033 1.00678 0.96034 0.0
C182 C 0.27304 0.98082 0.97904 0.0
C183 C 0.30444 0.98646 0.95114 0.0
H184 H 0.44863 0.08268 0.10664 0.0
H185 H 0.29331 0.97506 0.92248 0.0
H186 H 0.22159 0.97503 0.03951 0.0
H187 H 0.39792 0.07552 0.1595 0.0
H188 H 0.37359 1.01031 0.93817 0.0
H189 H 0.56848 1.01529 0.13245 0.0
H190 H 0.23749 0.96491 0.97182 0.0
H191 H 0.54908 0.03357 0.90571 0.0
H192 H 0.50801 0.99422 0.08776 0.0
H193 H 0.6251 0.08172 0.88278 0.0
H194 H 0.24985 1.00184 0.10392 0.0
H195 H 0.64786 0.05469 0.11099 0.0
H196 H 0.70329 0.09058 0.0585 0.0
H197 H 0.31539 0.03888 0.14897 0.0
H198 H 0.71854 0.11167 0.99145 0.0
N199 N 0.55027 1.01915 0.03848 0.0
C200 C 0.54141 1.01034 0.07643 0.0
C201 C 0.62092 0.04478 0.09048 0.0
C202 C 0.63039 0.05514 0.05217 0.0
C203 C 0.57625 0.0227 0.10266 0.0
C204 C 0.59401 0.04173 0.02652 0.0
H205 H 0.68982 0.11033 0.92651 0.0
N206 N 0.56686 0.04093 0.96496 0.0
C207 C 0.61928 0.07515 0.91285 0.0
C208 C 0.60257 0.054 0.98885 0.0
C209 C 0.57528 0.04907 0.92673 0.0
C210 C 0.6557 0.09077 0.93751 0.0
C211 C 0.64779 0.07935 0.97577 0.0
O212 O 0.50353 0.95152 0.95232 0.0
O213 O 0.43091 0.98945 0.99847 0.0
O214 O 0.41674 1.00469 0.05922 0.0
O215 O 0.45214 0.96267 0.04446 0.0
O216 O 0.43838 0.95643 0.95387 0.0
O217 O 0.50022 0.93799 0.01144 0.0
O218 O 0.43006 0.10259 0.98305 0.0
O219 O 0.50365 0.05955 1.00325 0.0
O220 O 0.48865 0.02531 0.93749 0.0
O221 O 0.44921 0.06243 0.9543 0.0
O222 O 0.50006 0.09163 0.05058 0.0
O223 O 0.46341 0.12123 0.037 0.0
C224 C 0.40817 0.96039 0.97284 0.0
C225 C 0.5475 0.91917 0.97393 0.0
C226 C 0.58357 0.87158 0.97693 0.0
C227 C 0.54509 0.87717 0.98245 0.0
C228 C 0.62452 0.90943 0.96552 0.0
C229 C 0.58824 0.95402 0.95918 0.0
C230 C 0.62654 0.94984 0.95623 0.0
C231 C 0.42556 0.97208 0.06696 0.0
C232 C 0.5078 0.9267 0.97811 0.0
C233 C 0.68381 0.09217 1.00107 0.0
C234 C 0.67513 0.07994 0.03916 0.0
C235 C 0.52719 0.08534 0.02967 0.0
C236 C 0.48926 0.17874 0.99107 0.0
C237 C 0.49492 0.22092 1.00286 0.0
C238 C 0.53125 0.26199 0.98876 0.0
C239 C 0.56174 0.25963 0.96312 0.0
C240 C 0.52015 0.17797 0.96533 0.0
C241 C 0.55605 0.21805 0.95149 0.0
C242 C 0.46989 0.0505 0.92914 0.0
C243 C 0.45268 0.13566 0.00689 0.0
H244 H 0.51335 0.84892 0.99195 0.0
H245 H 0.65523 0.90767 0.96287 0.0
H246 H 0.59069 0.98452 0.94892 0.0
H247 H 0.65787 0.97793 0.94585 0.0
H248 H 0.47106 0.22163 0.02276 0.0
H249 H 0.59071 0.29005 0.95245 0.0
H250 H 0.5167 0.14625 0.95613 0.0
H251 H 0.57991 0.21689 0.93189 0.0
Tb252 Tb 0.72564 0.84002 0.31399 0.0
C253 C 0.68274 0.66327 0.39935 0.0
C254 C 0.72716 0.63634 0.36658 0.0
C255 C 0.70642 0.61616 0.43253 0.0
C256 C 0.70429 0.66122 0.36687 0.0
C257 C 0.68305 0.64031 0.43245 0.0
C258 C 0.72855 0.61429 0.39969 0.0
C259 C 0.63527 0.66486 0.46232 0.0
N260 N 0.66108 0.68756 0.39835 0.0
C261 C 0.63573 0.68692 0.42882 0.0
C262 C 0.65946 0.6419 0.46431 0.0
Tb263 Tb 0.66364 0.72183 0.3416 0.0
N264 N 0.70219 0.68296 0.33539 0.0
C265 C 0.72026 0.67879 0.30197 0.0
C266 C 0.74739 0.6338 0.33289 0.0
C267 C 0.74355 0.65477 0.30037 0.0
H268 H 0.61646 0.70407 0.42789 0.0
H269 H 0.75847 0.65242 0.27398 0.0
H270 H 0.74615 0.59522 0.40005 0.0
H271 H 0.61609 0.66546 0.48657 0.0
H272 H 0.7177 0.69438 0.27631 0.0
H273 H 0.69384 0.90067 0.44689 0.0
H274 H 0.76537 0.61513 0.33151 0.0
H275 H 0.70212 0.85513 0.22335 0.0
H276 H 0.71659 0.85681 0.40825 0.0
H277 H 0.66208 0.88818 0.19122 0.0
H278 H 0.70732 0.59858 0.45776 0.0
H279 H 0.66104 0.94323 0.41733 0.0
H280 H 0.63462 0.96408 0.35905 0.0
H281 H 0.65901 0.62484 0.49032 0.0
H282 H 0.62296 0.95791 0.29024 0.0
N283 N 0.69839 0.87365 0.35521 0.0
C284 C 0.70309 0.87494 0.39385 0.0
C285 C 0.67149 0.92405 0.39968 0.0
C286 C 0.66573 0.92214 0.36045 0.0
C287 C 0.68988 0.90002 0.41643 0.0
C288 C 0.6796 0.89635 0.33865 0.0
H289 H 0.63124 0.92825 0.228 0.0
N290 N 0.68709 0.86812 0.27958 0.0
C291 C 0.66397 0.88891 0.22184 0.0
C292 C 0.67279 0.89261 0.29987 0.0
C293 C 0.68541 0.86874 0.24054 0.0
C294 C 0.64698 0.9118 0.24265 0.0
C295 C 0.65239 0.91502 0.28194 0.0
O296 O 0.77565 0.88736 0.27693 0.0
O297 O 0.72952 0.77985 0.32378 0.0
O298 O 0.70618 0.75315 0.38995 0.0
O299 O 0.75181 0.82894 0.37077 0.0
O300 O 0.76607 0.81993 0.2796 0.0
O301 O 0.77934 0.9011 0.33635 0.0
O302 O 0.59232 0.68992 0.34167 0.0
O303 O 0.66185 0.78304 0.32847 0.0
O304 O 0.68013 0.7967 0.26681 0.0
O305 O 0.67046 0.72614 0.2805 0.0
O306 O 0.62268 0.74549 0.3722 0.0
O307 O 0.62546 0.65775 0.31557 0.0
C308 C 0.75928 0.78512 0.29908 0.0
C309 C 0.80694 0.96546 0.29503 0.0
C310 C 0.85452 0.04913 0.29887 0.0
C311 C 0.84717 1.00493 0.30746 0.0
C312 C 0.81951 0.05244 0.28088 0.0
C313 C 0.77626 0.9719 0.27336 0.0
C314 C 0.78136 1.01435 0.26766 0.0
C315 C 0.73947 0.79464 0.39584 0.0
C316 C 0.79664 0.91779 0.30324 0.0
C317 C 0.63875 0.94068 0.30355 0.0
C318 C 0.64557 0.94438 0.34268 0.0
C319 C 0.63373 0.78115 0.35255 0.0
C320 C 0.55159 0.61049 0.34139 0.0
C321 C 0.50579 0.59359 0.33168 0.0
C322 C 0.47125 0.55396 0.34883 0.0
C323 C 0.48333 0.53133 0.37554 0.0
C324 C 0.56269 0.58686 0.36772 0.0
C325 C 0.5287 0.54757 0.38468 0.0
C326 C 0.66559 0.75369 0.25762 0.0
C327 C 0.58673 0.65375 0.325 0.0
H328 H 0.87285 1.00127 0.3224 0.0
H329 H 0.82212 0.08495 0.2758 0.0
H330 H 0.74834 0.94432 0.25997 0.0
H331 H 0.75595 1.01778 0.25204 0.0
H332 H 0.49698 0.61173 0.31137 0.0
H333 H 0.45764 0.50059 0.38892 0.0
H334 H 0.5975 0.59875 0.37529 0.0
H335 H 0.53757 0.52962 0.40506 0.0
Tb336 Tb 0.21286 0.89061 0.32679 0.0
C337 C 0.40221 0.02075 0.39009 0.0
C338 C 0.42792 0.08768 0.35143 0.0
C339 C 0.45685 0.09427 0.41543 0.0
C340 C 0.40086 0.04056 0.35639 0.0
C341 C 0.43057 0.04721 0.41986 0.0
C342 C 0.45547 0.11448 0.38129 0.0
C343 C 0.40597 0.97844 0.45556 0.0
N344 N 0.37547 0.97531 0.39363 0.0
C345 C 0.37836 0.95362 0.42522 0.0
C346 C 0.43183 0.02549 0.45305 0.0
Tb347 Tb 0.33248 0.93788 0.34194 0.0
N348 N 0.37388 1.01348 0.32818 0.0
C349 C 0.37454 0.03137 0.29337 0.0
C350 C 0.42699 0.10632 0.31642 0.0
C351 C 0.4005 0.07796 0.28716 0.0
H352 H 0.35849 0.91727 0.42739 0.0
H353 H 0.40015 0.09194 0.25975 0.0
H354 H 0.4763 0.15078 0.37809 0.0
H355 H 0.40732 0.96126 0.48085 0.0
H356 H 0.35469 1.01016 0.27022 0.0
H357 H 0.18284 0.80601 0.46356 0.0
H358 H 0.44719 0.14238 0.31147 0.0
H359 H 0.17415 0.84803 0.24013 0.0
H360 H 0.22057 0.86914 0.42035 0.0
H361 H 0.12531 0.77409 0.21142 0.0
H362 H 0.47861 0.11527 0.43809 0.0
H363 H 0.12733 0.73034 0.43966 0.0
H364 H 0.08728 0.68036 0.38456 0.0
H365 H 0.45311 0.04462 0.47664 0.0
H366 H 0.07325 0.6713 0.316 0.0
N367 N 0.18575 0.83212 0.37061 0.0
C368 C 0.19568 0.83752 0.4086 0.0
C369 C 0.14328 0.75853 0.42015 0.0
C370 C 0.13388 0.75252 0.38143 0.0
C371 C 0.17455 0.80115 0.4337 0.0
C372 C 0.15574 0.79036 0.35712 0.0
H373 H 0.08802 0.70569 0.25138 0.0
N374 N 0.17001 0.82226 0.29621 0.0
C375 C 0.13188 0.77655 0.24157 0.0
C376 C 0.14792 0.78524 0.31865 0.0
C377 C 0.16072 0.8185 0.25808 0.0
C378 C 0.11065 0.73813 0.26422 0.0
C379 C 0.11796 0.74219 0.30329 0.0
O380 O 0.15449 0.88471 0.29974 0.0
O381 O 0.27705 0.95191 0.33017 0.0
O382 O 0.31064 0.95934 0.39174 0.0
O383 O 0.23264 0.92941 0.38258 0.0
O384 O 0.23358 0.94783 0.28876 0.0
O385 O 0.16973 0.90728 0.35693 0.0
O386 O 0.36626 0.90107 0.35039 0.0
O387 O 0.26785 0.87734 0.3321 0.0
O388 O 0.24402 0.88958 0.27065 0.0
O389 O 0.32225 0.93052 0.28127 0.0
O390 O 0.30779 0.87378 0.37321 0.0
O391 O 0.38764 0.9511 0.30642 0.0
C392 C 0.27128 0.97558 0.3051 0.0
C393 C 0.09184 0.85867 0.34233 0.0
C394 C 1.0083 0.81989 0.33606 0.0
C395 C 0.0524 0.85459 0.32474 0.0
C396 C 1.00553 0.78806 0.36298 0.0
C397 C 0.08616 0.82913 0.37214 0.0
C398 C 0.04381 0.79336 0.38136 0.0
C399 C 0.271 0.95334 0.4027 0.0
C400 C 0.13898 0.89306 0.33052 0.0
C401 C 0.09616 0.70457 0.32733 0.0
C402 C 0.10404 0.70974 0.36634 0.0
C403 C 0.27111 0.8504 0.35442 0.0
C404 C 0.44364 0.93778 0.33485 0.0
C405 C 0.45808 0.90569 0.33924 0.0
C406 C 0.50234 0.91927 0.35174 0.0
C407 C 0.53205 0.96526 0.35921 0.0
C408 C 0.47425 0.98355 0.34221 0.0
C409 C 0.51816 0.9971 0.35422 0.0
C410 C 0.28707 0.90788 0.25895 0.0
C411 C 0.39618 0.92267 0.32423 0.0
H412 H 0.05621 0.87882 0.30325 0.0
H413 H 0.9735 0.75899 0.37065 0.0
H414 H 0.11453 0.8334 0.38858 0.0
H415 H 0.0406 0.76972 0.40324 0.0
H416 H 0.43464 0.87021 0.33393 0.0
H417 H 0.56616 0.97657 0.36892 0.0
H418 H 0.46421 1.00884 0.33896 0.0
H419 H 0.54145 0.03243 0.36001 0.0
Tb420 Tb 0.1597 0.32111 0.32309 0.0
C421 C 0.0408 0.37392 0.40488 0.0
C422 C 0.96693 0.32779 0.37657 0.0
C423 C 0.97297 0.3499 0.44277 0.0
C424 C 1.01452 0.35087 0.37379 0.0
C425 C 1.02028 0.37458 0.43942 0.0
C426 C 0.94635 0.32651 0.41143 0.0
C427 C 0.09449 0.42723 0.46377 0.0
N428 N 0.0865 0.39713 0.4008 0.0
C429 C 0.11334 0.42578 0.42895 0.0
C430 C 0.04784 0.40094 0.46925 0.0
Tb431 Tb 0.11257 0.3914 0.34212 0.0
N432 N 0.03546 0.35322 0.34035 0.0
C433 C 1.01072 0.33694 0.30794 0.0
C434 C 0.94142 0.30794 0.34393 0.0
C435 C 0.96344 0.31323 0.30935 0.0
H436 H 0.14957 0.44575 0.425 0.0
H437 H 0.94402 0.29935 0.28369 0.0
H438 H 0.90985 0.30853 0.41418 0.0
H439 H 0.11595 0.44859 0.48636 0.0
H440 H 1.02712 0.34174 0.28084 0.0
H441 H 0.24994 0.3734 0.45621 0.0
H442 H 0.90479 0.28985 0.34488 0.0
H443 H 0.196 0.3241 0.23429 0.0
H444 H 0.18349 0.34415 0.41532 0.0
H445 H 0.26877 0.35165 0.20154 0.0
H446 H 0.95659 0.34952 0.46922 0.0
H447 H 0.32553 0.39952 0.42834 0.0
H448 H 0.37323 0.41301 0.37042 0.0
H449 H 0.03333 0.4022 0.49626 0.0
H450 H 0.37854 0.40886 0.3012 0.0
N451 N 0.22009 0.35517 0.36376 0.0
C452 C 0.21584 0.35639 0.40226 0.0
C453 C 0.29626 0.38701 0.41002 0.0
C454 C 0.30057 0.3853 0.37075 0.0
C455 C 0.25371 0.37253 0.42581 0.0
C456 C 0.26136 0.36869 0.34811 0.0
H457 H 0.34005 0.38709 0.23805 0.0
N458 N 0.22564 0.3489 0.28862 0.0
C459 C 0.26812 0.35655 0.23179 0.0
C460 C 0.26428 0.36606 0.30924 0.0
C461 C 0.22693 0.34189 0.25045 0.0
C462 C 0.30821 0.37629 0.2525 0.0
C463 C 0.30659 0.38036 0.2918 0.0
O464 O 0.16807 0.26899 0.29767 0.0
O465 O 0.09687 0.32195 0.32605 0.0
O466 O 0.11382 0.35886 0.39503 0.0
O467 O 0.11321 0.29453 0.37338 0.0
O468 O 0.10482 0.28606 0.28287 0.0
O469 O 0.14993 0.2651 0.35568 0.0
O470 O 0.14786 0.46107 0.3545 0.0
O471 O 0.17359 0.38522 0.34628 0.0
O472 O 0.16233 0.36012 0.26981 0.0
O473 O 0.10841 0.38182 0.28165 0.0
O474 O 0.17986 0.4422 0.32246 0.0
O475 O 0.08895 0.43243 0.31815 0.0
C476 C 0.07592 0.29499 0.29861 0.0
C477 C 0.19955 0.23686 0.3401 0.0
C478 C 0.23909 0.19234 0.33506 0.0
C479 C 0.20327 0.20042 0.32401 0.0
C480 C 0.27219 0.22361 0.36001 0.0
C481 C 0.23069 0.26298 0.36824 0.0
C482 C 0.26737 0.25766 0.37698 0.0
C483 C 0.10236 0.31613 0.39916 0.0
C484 C 0.16316 0.24758 0.3293 0.0
C485 C 0.34577 0.39752 0.31412 0.0
C486 C 0.34274 0.3998 0.35353 0.0
C487 C 0.20186 0.42257 0.33139 0.0
C488 C 0.10845 0.50168 0.35099 0.0
C489 C 0.1401 0.5487 0.35033 0.0
C490 C 0.12967 0.57997 0.36726 0.0
C491 C 0.0871 0.56361 0.38437 0.0
C492 C 0.06613 0.4865 0.36805 0.0
C493 C 0.0556 0.51735 0.38454 0.0
C494 C 0.13787 0.37926 0.25906 0.0
C495 C 0.12069 0.46921 0.33444 0.0
H496 H 0.17787 0.17809 0.30403 0.0
H497 H 0.30194 0.22165 0.36725 0.0
H498 H 0.22677 0.28761 0.38404 0.0
H499 H 0.29202 0.27982 0.39755 0.0
H500 H 0.17305 0.56078 0.33748 0.0
H501 H 0.07825 0.58677 0.39772 0.0
H502 H 0.04127 0.45084 0.36878 0.0
H503 H 1.02292 0.50531 0.39779 0.0
Tb504 Tb 0.39724 0.17984 0.65668 0.0
C505 C 0.34685 0.99472 0.72633 0.0
C506 C 0.38423 0.96809 0.68386 0.0
C507 C 0.36887 0.94121 0.74889 0.0
C508 C 0.36445 0.99514 0.69108 0.0
C509 C 0.34821 0.96731 0.75556 0.0
C510 C 0.38681 0.94155 0.71307 0.0
C511 C 0.30599 0.9912 0.7949 0.0
N512 N 0.32735 0.02054 0.73168 0.0
C513 C 0.30524 1.01762 0.76495 0.0
C514 C 0.32806 0.96636 0.79036 0.0
Tb515 Tb 0.32896 0.06378 0.68125 0.0
N516 N 0.36196 0.02184 0.66378 0.0
C517 C 0.37688 0.0211 0.62787 0.0
C518 C 0.40069 0.96842 0.6475 0.0
C519 C 0.39668 0.9948 0.61934 0.0
H520 H 0.28777 0.03636 0.76887 0.0
H521 H 0.40897 0.99502 0.59099 0.0
H522 H 0.40219 0.92084 0.70813 0.0
H523 H 0.28941 0.98992 0.82142 0.0
H524 H 0.37462 0.04122 0.60551 0.0
H525 H 0.43134 0.28018 0.7857 0.0
H526 H 0.41617 0.94819 0.6408 0.0
H527 H 0.31934 0.16041 0.58543 0.0
H528 H 0.43877 0.22896 0.74324 0.0
H529 H 0.27685 0.19457 0.5641 0.0
H530 H 0.37057 0.92018 0.77106 0.0
H531 H 0.38573 0.31479 0.76758 0.0
H532 H 0.338 0.32443 0.71963 0.0
H533 H 0.3285 0.94585 0.81357 0.0
H534 H 0.2983 0.30306 0.65874 0.0
N535 N 0.39047 0.22544 0.70221 0.0
C536 C 0.41474 0.23909 0.73544 0.0
C537 C 0.38696 0.29007 0.74906 0.0
C538 C 0.36453 0.2787 0.71435 0.0
C539 C 0.41228 0.27026 0.75954 0.0
C540 C 0.36676 0.24584 0.69129 0.0
H541 H 0.27571 0.2553 0.60093 0.0
N542 N 0.34502 0.20025 0.63634 0.0
C543 C 0.29567 0.20596 0.59032 0.0
C544 C 0.34384 0.2333 0.65719 0.0
C545 C 0.32063 0.18636 0.60319 0.0
C546 C 0.29523 0.2403 0.61104 0.0
C547 C 0.31892 0.25404 0.64508 0.0
O548 O 0.43319 0.22646 0.61352 0.0
O549 O 0.39835 0.11849 0.66722 0.0
O550 O 0.37534 0.08733 0.72829 0.0
O551 O 0.42052 0.16426 0.71334 0.0
O552 O 0.43342 0.15529 0.62229 0.0
O553 O 0.46081 0.23812 0.66926 0.0
O554 O 0.25951 0.03433 0.69497 0.0
O555 O 0.33022 0.12804 0.67173 0.0
O556 O 0.37278 0.14365 0.60165 0.0
O557 O 0.32468 0.06882 0.62019 0.0
O558 O 0.30299 0.09387 0.72159 0.0
O559 O 0.28097 1.00705 0.6502 0.0
C560 C 0.42855 0.12253 0.64351 0.0
C561 C 0.47328 0.30334 0.63323 0.0
C562 C 0.52314 0.38644 0.63827 0.0
C563 C 0.51572 0.34162 0.64269 0.0
C564 C 0.48704 0.39163 0.62519 0.0
C565 C 0.43936 0.31093 0.61854 0.0
C566 C 0.44579 0.35433 0.61548 0.0
C567 C 0.40785 0.12841 0.73679 0.0
C568 C 0.4645 0.25568 0.63582 0.0
C569 C 0.31748 0.28718 0.66758 0.0
C570 C 0.33999 0.29926 0.70225 0.0
C571 C 0.31081 0.12876 0.70222 0.0
C572 C 0.21232 0.95636 0.68234 0.0
C573 C 0.16546 0.94144 0.67967 0.0
C574 C 0.13264 0.89786 0.69258 0.0
C575 C 0.14775 0.86967 0.70789 0.0
C576 C 0.22593 0.92707 0.69741 0.0
C577 C 0.19387 0.88417 0.71017 0.0
C578 C 0.34338 0.1003 0.59403 0.0
C579 C 0.24652 1.00255 0.6698 0.0
H580 H 0.54285 0.33656 0.65274 0.0
H581 H 0.49119 0.42484 0.62053 0.0
H582 H 0.40789 0.28332 0.60829 0.0
H583 H 0.41897 0.35917 0.60431 0.0
H584 H 0.15466 0.96386 0.66797 0.0
H585 H 0.12379 0.83584 0.71744 0.0
H586 H 0.26134 0.9372 0.69919 0.0
H587 H 0.20483 0.86185 0.72172 0.0
Tb588 Tb 0.89277 0.24474 0.65499 0.0
C589 C 0.05828 0.36528 0.74788 0.0
C590 C 0.09403 0.43849 0.71712 0.0
C591 C 0.10181 0.4337 0.7851 0.0
C592 C 0.0668 0.39096 0.71529 0.0
C593 C 0.07682 0.38636 0.78292 0.0
C594 C 0.11041 0.4597 0.75227 0.0
C595 C 0.04938 0.31241 0.81029 0.0
N596 N 0.03407 0.31957 0.74487 0.0
C597 C 0.03214 0.29304 0.77494 0.0
C598 C 0.07106 0.35925 0.81449 0.0
Tb599 Tb 1.00691 0.29226 0.68523 0.0
N600 N 0.05051 0.36941 0.68162 0.0
C601 C 0.06341 0.39356 0.64846 0.0
C602 C 0.1052 0.46329 0.68344 0.0
C603 C 0.09044 0.44066 0.64897 0.0
H604 H 1.01498 0.25665 0.77199 0.0
H605 H 0.09969 0.4595 0.62269 0.0
H606 H 0.13088 0.49617 0.7542 0.0
H607 H 0.046 0.2912 0.83426 0.0
H608 H 0.05266 0.37751 0.62125 0.0
H609 H 0.82025 0.14959 0.78339 0.0
H610 H 0.1261 0.49979 0.68368 0.0
H611 H 0.87618 0.21052 0.56376 0.0
H612 H 0.86509 0.21769 0.7457 0.0
H613 H 0.8437 0.13894 0.52871 0.0
H614 H 0.11576 0.45048 0.81185 0.0
H615 H 0.78292 0.07453 0.75262 0.0
H616 H 0.76733 0.02859 0.69341 0.0
H617 H 0.0846 0.37421 0.84189 0.0
H618 H 0.77661 0.02557 0.62461 0.0
N619 N 0.85666 0.18263 0.69366 0.0
C620 C 0.85077 0.1856 0.7317 0.0
C621 C 0.80327 0.10455 0.73581 0.0
C622 C 0.80849 0.10155 0.69682 0.0
C623 C 0.8245 0.14679 0.7533 0.0
C624 C 0.83552 0.14171 0.67622 0.0
H625 H 0.80609 0.06633 0.56319 0.0
N626 N 0.86497 0.17972 0.61852 0.0
C627 C 0.84352 0.13867 0.55938 0.0
C628 C 0.84105 0.14007 0.6376 0.0
C629 C 0.86305 0.17932 0.57955 0.0
C630 C 0.82217 0.0978 0.57891 0.0
C631 C 0.81916 0.09812 0.61837 0.0
O632 O 0.84382 0.24727 0.61978 0.0
O633 O 0.95403 0.30842 0.66583 0.0
O634 O 0.96702 0.28786 0.73506 0.0
O635 O 0.90525 0.2877 0.70757 0.0
O636 O 0.91999 0.30191 0.61663 0.0
O637 O 0.83444 0.24232 0.67933 0.0
O638 O 0.03742 0.2549 0.70357 0.0
O639 O 0.93951 0.23136 0.6851 0.0
O640 O 0.937 0.24321 0.60732 0.0
O641 O 1.00795 0.30044 0.62488 0.0
O642 O 0.99252 0.22563 0.66552 0.0
O643 O 0.07224 0.31128 0.6651 0.0
C644 C 0.95116 0.33154 0.63839 0.0
C645 C 0.76704 0.2037 0.64179 0.0
C646 C 0.68394 0.17043 0.64968 0.0
C647 C 0.72915 0.20714 0.65471 0.0
C648 C 0.67786 0.13052 0.63271 0.0
C649 C 0.75813 0.16417 0.62247 0.0
C650 C 0.71453 0.12769 0.61898 0.0
C651 C 0.93344 0.29631 0.73683 0.0
C652 C 0.81551 0.24082 0.64709 0.0
C653 C 0.79327 0.05802 0.63886 0.0
C654 C 0.78776 0.05976 0.67799 0.0
C655 C 0.95039 0.20339 0.67262 0.0
C656 C 0.11734 0.28804 0.70025 0.0
C657 C 0.13239 0.25645 0.69537 0.0
C658 C 0.17434 0.26465 0.71041 0.0
C659 C 0.20068 0.30534 0.73038 0.0
C660 C 0.14427 0.32789 0.72052 0.0
C661 C 0.18564 0.33637 0.73547 0.0
C662 C 0.98105 0.27036 0.60015 0.0
C663 C 0.07379 0.27873 0.68342 0.0
H664 H 0.7347 0.23815 0.66795 0.0
H665 H 0.64428 0.10214 0.62782 0.0
H666 H 0.78464 0.1615 0.6089 0.0
H667 H 0.70901 0.09744 0.60436 0.0
H668 H 0.11118 0.22543 0.68001 0.0
H669 H 0.23352 0.31383 0.74155 0.0
H670 H 0.13354 0.35259 0.72452 0.0
H671 H 0.20646 0.36745 0.75083 0.0
Tb672 Tb 0.8238 0.66589 0.65268 0.0
C673 C 0.69137 0.72068 0.71887 0.0
C674 C 0.63011 0.68993 0.67354 0.0
C675 C 0.61579 0.70229 0.73872 0.0
C676 C 0.67593 0.70609 0.68263 0.0
C677 C 0.66174 0.71976 0.74722 0.0
C678 C 0.60001 0.68747 0.70191 0.0
C679 C 0.72588 0.75742 0.78912 0.0
N680 N 0.73606 0.73777 0.72583 0.0
C681 C 0.754 0.75807 0.75994 0.0
C682 C 0.67944 0.73764 0.78292 0.0
Tb683 Tb 0.77922 0.73699 0.67613 0.0
N684 N 0.70598 0.70848 0.6561 0.0
C685 C 0.69249 0.69721 0.61925 0.0
C686 C 0.61602 0.67711 0.63614 0.0
C687 C 0.64745 0.68112 0.60885 0.0
H688 H 0.78988 0.77385 0.76505 0.0
H689 H 0.637 0.6717 0.57974 0.0
H690 H 0.56463 0.67478 0.69554 0.0
H691 H 0.7401 0.77243 0.81632 0.0
H692 H 0.71585 0.69973 0.59756 0.0
H693 H 0.87421 0.63331 0.79069 0.0
H694 H 0.58114 0.66453 0.628 0.0
H695 H 0.89085 0.7358 0.58009 0.0
H696 H 0.82101 0.62666 0.74318 0.0
H697 H 0.96965 0.77738 0.56494 0.0
H698 H 0.5924 0.70098 0.76018 0.0
H699 H 0.95604 0.67603 0.77774 0.0
H700 H 1.01868 0.72123 0.73286 0.0
H701 H 0.65778 0.73748 0.80549 0.0
H702 H 0.04432 0.75908 0.67145 0.0
N703 N 0.87049 0.67191 0.70296 0.0
C704 C 0.85593 0.6491 0.73681 0.0
C705 C 0.93251 0.67497 0.75662 0.0
C706 C 0.94763 0.69618 0.72164 0.0
C707 C 0.88646 0.65126 0.76415 0.0
C708 C 0.91559 0.69419 0.69506 0.0
H709 H 1.02651 0.78021 0.60935 0.0
N710 N 0.89877 0.71495 0.63601 0.0
C711 C 0.95906 0.76048 0.59206 0.0
C712 C 0.93011 0.71605 0.66058 0.0
C713 C 0.91324 0.73668 0.60166 0.0
C714 C 0.99101 0.76176 0.61702 0.0
C715 C 0.97691 0.73961 0.65172 0.0
O716 O 0.83414 0.62941 0.60962 0.0
O717 O 0.76204 0.66746 0.65976 0.0
O718 O 0.75505 0.69003 0.72301 0.0
O719 O 0.77601 0.63718 0.7041 0.0
O720 O 0.76621 0.63385 0.61453 0.0
O721 O 0.81913 0.60278 0.66572 0.0
O722 O 0.8196 0.80568 0.69124 0.0
O723 O 0.84116 0.73379 0.66733 0.0
O724 O 0.81917 0.69542 0.59811 0.0
O725 O 0.79311 0.74433 0.61573 0.0
O726 O 0.83445 0.76148 0.71696 0.0
O727 O 0.77248 0.7863 0.64537 0.0
C728 C 0.73743 0.63953 0.634 0.0
C729 C 0.87154 0.59012 0.62961 0.0
C730 C 0.90518 0.54091 0.63521 0.0
C731 C 0.86725 0.54753 0.63834 0.0
C732 C 0.94709 0.57759 0.62422 0.0
C733 C 0.91355 0.62468 0.61632 0.0
C734 C 0.95106 0.61889 0.61466 0.0
C735 C 0.75639 0.65262 0.72888 0.0
C736 C 0.83249 0.59854 0.63217 0.0
C737 C 1.00844 0.74094 0.67783 0.0
C738 C 0.99386 0.71945 0.71276 0.0
C739 C 0.86146 0.75334 0.69763 0.0
C740 C 0.79142 0.85464 0.67787 0.0
C741 C 0.82326 0.90066 0.67205 0.0
C742 C 0.81463 0.93475 0.68503 0.0
C743 C 0.77367 0.92208 0.70389 0.0
C744 C 0.75045 0.84292 0.69607 0.0
C745 C 0.74179 0.87649 0.70916 0.0
C746 C 0.80773 0.7266 0.59018 0.0
C747 C 0.80232 0.81978 0.66566 0.0
H748 H 0.83469 0.51972 0.6469 0.0
H749 H 0.97658 0.57371 0.62106 0.0
H750 H 0.9175 0.65618 0.60624 0.0
H751 H 0.98318 0.64627 0.60482 0.0
H752 H 0.85491 0.90992 0.65781 0.0
H753 H 0.76586 0.94748 0.71381 0.0
H754 H 0.72513 0.80798 0.70016 0.0
H755 H 0.71012 0.86711 0.72329 0.0
H756 H 0.26538 0.43058 0.01426 0.0
H757 H 0.32173 0.54773 0.94166 0.0
H758 H 0.24768 0.54258 0.93764 0.0
H759 H 0.16631 0.50102 0.94971 0.0
H760 H 0.11014 0.38758 0.02612 0.0
H761 H 0.1843 0.3943 0.03301 0.0
C762 C 0.26163 0.45557 0.99819 0.0
C763 C 0.29931 0.48957 0.9782 0.0
C764 C 0.21866 0.45212 0.99572 0.0
C765 C 0.29375 0.52167 0.95767 0.0
C766 C 0.25116 0.51828 0.95493 0.0
C767 C 0.16966 0.47728 0.96786 0.0
C768 C 0.13099 0.44194 0.98606 0.0
C769 C 0.21315 0.48287 0.97291 0.0
C770 C 0.13777 0.41336 0.01034 0.0
C771 C 0.18076 0.41781 0.01471 0.0
H772 H 0.62643 0.83839 0.93299 0.0
H773 H 0.53892 0.80403 0.03056 0.0
H774 H 0.54328 0.73488 0.03923 0.0
H775 H 0.57036 0.6833 0.01748 0.0
H776 H 0.65761 0.71908 0.91999 0.0
H777 H 0.65629 0.78961 0.91372 0.0
C778 C 0.60882 0.81642 0.95672 0.0
C779 C 0.58276 0.82722 0.9814 0.0
C780 C 0.61238 0.77743 0.96202 0.0
C781 C 0.55897 0.79686 0.01093 0.0
C782 C 0.56189 0.75747 0.01612 0.0
C783 C 0.5911 0.7075 0.99615 0.0
C784 C 0.61716 0.69718 0.97106 0.0
C785 C 0.58875 0.74752 0.99194 0.0
C786 C 0.63991 0.72734 0.94125 0.0
C787 C 0.63837 0.76733 0.9372 0.0
H788 H 0.38425 0.87832 0.94193 0.0
H789 H 0.3362 0.94001 0.02212 0.0
H790 H 0.26825 0.86689 0.033 0.0
H791 H 0.22095 0.78457 0.01742 0.0
H792 H 0.27546 0.72313 0.94307 0.0
H793 H 0.34359 0.79655 0.93374 0.0
C794 C 0.35918 0.87639 0.96192 0.0
C795 C 0.36517 0.91619 0.98006 0.0
C796 C 0.32169 0.83353 0.96975 0.0
C797 C 0.33217 0.91134 1.00643 0.0
C798 C 0.29346 0.86897 0.01311 0.0
C799 C 0.24835 0.78711 1.0 0.0
C800 C 0.24304 0.74806 0.98106 0.0
C801 C 0.28771 0.82976 0.99473 0.0
C802 C 0.27878 0.75213 0.95845 0.0
C803 C 0.31748 0.79436 0.95263 0.0
H804 H 0.56058 0.33804 0.94551 0.0
H805 H 0.51921 0.28902 0.05951 0.0
H806 H 0.53732 0.36482 0.07988 0.0
H807 H 0.5676 0.44636 0.06568 0.0
H808 H 0.61006 0.49417 0.95174 0.0
H809 H 0.59086 0.41825 0.93149 0.0
C810 C 0.55588 0.3438 0.97497 0.0
C811 C 0.53882 0.30748 1.0009 0.0
C812 C 0.5673 0.38767 0.98668 0.0
C813 C 0.53186 0.31588 0.0387 0.0
C814 C 0.54274 0.35947 0.05052 0.0
C815 C 0.57254 0.43994 0.03645 0.0
C816 C 0.58895 0.47557 0.01 0.0
C817 C 0.56094 0.39579 0.02485 0.0
C818 C 0.59624 0.46714 0.9724 0.0
C819 C 0.58538 0.42369 0.96082 0.0
H820 H 0.5906 0.11915 0.08565 0.0
H821 H 0.57336 0.13012 0.96604 0.0
H822 H 0.65253 0.18915 0.96029 0.0
H823 H 0.72708 0.23917 0.98977 0.0
H824 H 0.74698 0.22198 0.10762 0.0
H825 H 0.66762 0.16225 0.11324 0.0
C826 C 0.60435 0.13442 0.05835 0.0
C827 C 0.57589 0.12047 0.02638 0.0
C828 C 0.65091 0.16635 0.05476 0.0
C829 C 0.59417 0.14063 0.99119 0.0
C830 C 0.63972 0.17404 0.9878 0.0
C831 C 0.71433 0.22122 0.01632 0.0
C832 C 0.7431 0.2344 0.04809 0.0
C833 C 0.66853 0.18707 0.01934 0.0
C834 C 0.72585 0.21167 0.08257 0.0
C835 C 0.68023 0.17812 0.08594 0.0
H836 H 0.90747 0.46159 0.96787 0.0
H837 H 0.95895 0.48242 0.08181 0.0
H838 H 0.91791 0.52205 0.09797 0.0
H839 H 0.87312 0.55668 0.07816 0.0
H840 H 0.82635 0.54128 0.96264 0.0
H841 H 0.85968 0.49399 0.94865 0.0
C842 C 0.90957 0.47491 0.99619 0.0
C843 C 0.93765 0.47091 0.0232 0.0
C844 C 0.88692 0.4989 1.00491 0.0
C845 C 0.93909 0.48693 0.06015 0.0
C846 C 0.9153 0.50918 0.06945 0.0
C847 C 0.87019 0.54311 0.04985 0.0
C848 C 0.84736 0.55305 0.02149 0.0
C849 C 0.89032 0.51668 0.04173 0.0
C850 C 0.84324 0.53409 0.98523 0.0
C851 C 0.86254 0.50712 0.9771 0.0
H852 H 0.83678 0.81435 0.25623 0.0
H853 H 0.77554 0.74862 0.36073 0.0
H854 H 0.84639 0.75541 0.38224 0.0
H855 H 0.92693 0.7859 0.37338 0.0
H856 H 0.98991 0.84624 0.26646 0.0
H857 H 0.9181 0.83812 0.24444 0.0
C858 C 0.83873 0.8007 0.28342 0.0
C859 C 0.80016 0.78082 0.30744 0.0
C860 C 0.8805 0.80516 0.29534 0.0
C861 C 0.80407 0.7639 0.34233 0.0
C862 C 0.84493 0.76816 0.35448 0.0
C863 C 0.92536 0.7961 0.34465 0.0
C864 C 0.9647 0.8161 0.32163 0.0
C865 C 0.88362 0.78961 0.33155 0.0
C866 C 0.961 0.83105 0.28529 0.0
C867 C 0.91957 0.82594 0.27243 0.0
H868 H 0.27723 0.1489 0.37326 0.0
H869 H 0.20929 0.14244 0.2682 0.0
H870 H 0.21735 0.07805 0.24834 0.0
H871 H 0.24223 0.02224 0.26152 0.0
H872 H 0.31498 0.03403 0.36427 0.0
H873 H 0.30927 0.09975 0.38306 0.0
C874 C 0.26524 0.13488 0.34535 0.0
C875 C 0.24301 0.15191 0.32224 0.0
C876 C 0.27154 0.09893 0.33341 0.0
C877 C 0.22608 0.13055 0.28708 0.0
C878 C 0.23119 0.09383 0.27544 0.0
C879 C 0.25768 0.0397 0.28774 0.0
C880 C 0.27856 0.02226 0.31189 0.0
C881 C 0.25382 0.07767 0.2984 0.0
C882 C 0.29833 0.04579 0.34548 0.0
C883 C 0.29477 0.08344 0.35626 0.0
H884 H 0.03431 0.2277 0.35187 0.0
H885 H 1.01457 0.27298 0.24343 0.0
H886 H 0.94585 0.20049 0.23363 0.0
H887 H 0.89546 0.12274 0.25281 0.0
H888 H 0.91247 0.07467 0.36105 0.0
H889 H 0.97942 0.14907 0.37331 0.0
C890 C 1.01383 0.22239 0.32693 0.0
C891 C 1.02846 0.25689 0.29923 0.0
C892 C 0.97495 0.17947 0.32079 0.0
C893 C 1.00306 0.24803 0.26589 0.0
C894 C 0.96418 0.20619 0.25998 0.0
C895 C 0.91304 0.12839 0.27957 0.0
C896 C 0.89804 0.09273 0.30619 0.0
C897 C 0.95043 0.17139 0.28679 0.0
C898 C 0.92297 0.10095 0.33987 0.0
C899 C 0.96102 0.14379 0.34706 0.0
H900 H 0.25272 0.78715 0.40875 0.0
H901 H 0.24338 0.80163 0.2885 0.0
H902 H 0.20283 0.71921 0.2809 0.0
H903 H 0.16366 0.64223 0.30953 0.0
H904 H 0.16888 0.62885 0.43046 0.0
H905 H 0.21664 0.71085 0.43686 0.0
C906 C 0.242 0.77216 0.38088 0.0
C907 C 0.2497 0.80042 0.34942 0.0
C908 C 0.21758 0.72463 0.37692 0.0
C909 C 0.23667 0.7806 0.31333 0.0
C910 C 0.21356 0.7334 0.30898 0.0
C911 C 0.17609 0.65734 0.33712 0.0
C912 C 0.16316 0.62941 0.36948 0.0
C913 C 0.20277 0.70494 0.3407 0.0
C914 C 0.17866 0.64956 0.40515 0.0
C915 C 0.20592 0.69648 0.40883 0.0
H916 H 0.27231 0.45896 0.28203 0.0
H917 H 0.2397 0.4519 0.40059 0.0
H918 H 0.32033 0.49516 0.41645 0.0
H919 H 0.40015 0.52881 0.39691 0.0
H920 H 0.43336 0.53702 0.27824 0.0
H921 H 0.35281 0.49921 0.26198 0.0
C922 C 0.28312 0.46697 0.31128 0.0
C923 C 0.25055 0.45019 0.34039 0.0
C924 C 0.32961 0.49174 0.32009 0.0
C925 C 0.26449 0.46254 0.37801 0.0
C926 C 0.31051 0.48757 0.38699 0.0
C927 C 0.38972 0.52266 0.36747 0.0
C928 C 0.42269 0.53541 0.33882 0.0
C929 C 0.3434 0.50111 0.35838 0.0
C930 C 0.40869 0.52772 0.30078 0.0
C931 C 0.36263 0.50598 0.29149 0.0
H932 H 0.51591 0.86732 0.30006 0.0
H933 H 0.52595 0.89908 0.41903 0.0
H934 H 0.56234 0.854 0.43069 0.0
H935 H 0.59871 0.81215 0.40609 0.0
H936 H 0.5949 0.78597 0.28643 0.0
H937 H 0.54784 0.8206 0.27602 0.0
C938 C 0.52514 0.86337 0.32859 0.0
C939 C 0.518 0.88622 0.35872 0.0
C940 C 0.54748 0.83847 0.3349 0.0
C941 C 0.53094 0.88163 0.39548 0.0
C942 C 0.5518 0.85589 0.40213 0.0
C943 C 0.58724 0.81385 0.37782 0.0
C944 C 0.6018 0.79835 0.34687 0.0
C945 C 0.56141 0.83519 0.37195 0.0
C946 C 0.58553 0.79927 0.31052 0.0
C947 C 0.55843 0.81889 0.3046 0.0
H948 H 0.60377 0.10832 0.68402 0.0
H949 H 0.66858 0.23864 0.62916 0.0
H950 H 0.59565 0.23555 0.6243 0.0
H951 H 0.51354 0.19259 0.6284 0.0
H952 H 0.44714 0.0643 0.68619 0.0
H953 H 0.52046 0.06955 0.69663 0.0
C954 C 0.60211 0.13654 0.6717 0.0
C955 C 0.64209 0.17372 0.65672 0.0
C956 C 0.55957 0.13422 0.66849 0.0
C957 C 0.63898 0.20995 0.64125 0.0
C958 C 0.59699 0.20784 0.63798 0.0
C959 C 0.51435 0.1653 0.64336 0.0
C960 C 0.47328 0.12645 0.6547 0.0
C961 C 0.55697 0.16949 0.65026 0.0
C962 C 0.47686 0.09327 0.67539 0.0
C963 C 0.51929 0.09669 0.68176 0.0
H964 H 0.88829 0.35061 0.60882 0.0
H965 H 1.00408 0.40785 0.68256 0.0
H966 H 0.99813 0.47519 0.69061 0.0
H967 H 0.96138 0.51987 0.67446 0.0
H968 H 0.8429 0.46067 0.60338 0.0
H969 H 0.84731 0.39144 0.59791 0.0
C970 C 0.91264 0.37762 0.6267 0.0
C971 C 0.9481 0.37383 0.6442 0.0
C972 C 0.90769 0.41588 0.63223 0.0
C973 C 0.97775 0.40945 0.66773 0.0
C974 C 0.97385 0.44816 0.6727 0.0
C975 C 0.93607 0.49152 0.65824 0.0
C976 C 0.90186 0.49567 0.63923 0.0
C977 C 0.93916 0.45194 0.65481 0.0
C978 C 0.86922 0.4584 0.61863 0.0
C979 C 0.87214 0.41899 0.61508 0.0
H980 H 0.7207 0.55331 0.62059 0.0
H981 H 0.6562 0.62358 0.66723 0.0
H982 H 0.58679 0.55218 0.67643 0.0
H983 H 0.54245 0.46919 0.66768 0.0
H984 H 0.60701 0.39946 0.61922 0.0
H985 H 0.67853 0.47085 0.61576 0.0
C986 C 0.69167 0.55368 0.63273 0.0
C987 C 0.69438 0.5955 0.64232 0.0
C988 C 0.65161 0.51186 0.63805 0.0
C989 C 0.65593 0.59344 0.65874 0.0
C990 C 0.61588 0.55199 0.66423 0.0
C991 C 0.57213 0.46938 0.65641 0.0
C992 C 0.56867 0.42844 0.64326 0.0
C993 C 0.61307 0.51098 0.65339 0.0
C994 C 0.60818 0.42981 0.62982 0.0
C995 C 0.64913 0.47092 0.62736 0.0
H996 H 0.84652 1.00421 0.73568 0.0
H997 H 0.85513 0.97453 0.61819 0.0
H998 H 0.90118 0.05539 0.6045 0.0
H999 H 0.93334 0.13486 0.62498 0.0
H1000 H 0.92418 0.16448 0.74217 0.0
H1001 H 0.88535 0.08356 0.75735 0.0
C1002 C 0.85895 1.0155 0.70718 0.0
C1003 C 0.84715 0.98345 0.67791 0.0
C1004 C 0.88532 0.06203 0.69954 0.0
C1005 C 0.8639 0.9985 0.64121 0.0
C1006 C 0.89009 0.04473 0.63335 0.0
C1007 C 0.92281 0.12335 0.6538 0.0
C1008 C 0.92908 0.15495 0.68212 0.0
C1009 C 0.9001 0.07682 0.6621 0.0
C1010 C 0.91741 0.14028 0.71968 0.0
C1011 C 0.89563 0.09415 0.72836 0.0
H1012 H 0.92539 0.81338 0.64772 0.0
H1013 H 0.90843 0.76134 0.76127 0.0
H1014 H 0.9903 0.80461 0.77122 0.0
H1015 H 0.06717 0.85162 0.74576 0.0
H1016 H 0.08529 0.90414 0.63215 0.0
H1017 H 1.00306 0.86699 0.6242 0.0
C1018 C 0.93982 0.81144 0.6745 0.0
C1019 C 0.91119 0.78222 0.70307 0.0
C1020 C 0.98721 0.83675 0.68006 0.0
C1021 C 0.92995 0.78226 0.73844 0.0
C1022 C 0.97677 0.80708 0.74414 0.0
C1023 C 0.05321 0.85523 0.71929 0.0
C1024 C 0.08269 0.88039 0.68946 0.0
C1025 C 1.00585 0.83343 0.71482 0.0
C1026 C 0.0637 0.88529 0.65568 0.0
C1027 C 1.01655 0.8638 0.65105 0.0
H1028 H 0.24868 0.135 0.65668 0.0
H1029 H 0.3111 0.17132 0.76668 0.0
H1030 H 0.27139 0.21284 0.78054 0.0
H1031 H 0.22371 0.24383 0.75963 0.0
H1032 H 0.16425 0.21144 0.64802 0.0
H1033 H 0.19712 0.16317 0.6369 0.0
C1034 C 0.25388 0.15251 0.68345 0.0
C1035 C 0.2849 0.15243 0.7098 0.0
C1036 C 0.23109 0.17681 0.69109 0.0
C1037 C 0.28887 0.17251 0.74539 0.0
C1038 C 0.26606 0.19617 0.75334 0.0
C1039 C 0.21804 0.22656 0.73269 0.0
C1040 C 0.19163 0.23209 0.70464 0.0
C1041 C 0.23808 0.19964 0.72601 0.0
C1042 C 0.18388 0.20792 0.67044 0.0
C1043 C 0.20298 0.18036 0.66391 0.0
H1044 H 0.1256 0.44908 0.24164 0.0
H1045 H 0.15585 0.35312 0.18903 0.0
H1046 H 0.14696 0.379 0.12612 0.0
H1047 H 0.11946 0.4215 0.08695 0.0
H1048 H 0.08379 0.51214 0.1418 0.0
H1049 H 0.10604 0.49601 0.20301 0.0
C1050 C 0.13077 0.43392 0.21648 0.0
C1051 C 0.14089 0.39862 0.22031 0.0
C1052 C 0.12449 0.4482 0.18074 0.0
C1053 C 0.14823 0.38028 0.18719 0.0
C1054 C 0.14287 0.39501 0.15117 0.0
C1055 C 0.11847 0.43915 0.11205 0.0
C1056 C 0.10116 0.46913 0.10951 0.0
C1057 C 0.12967 0.42806 0.14763 0.0
C1058 C 0.0981 0.49008 0.14269 0.0
C1059 C 0.11027 0.4803 0.17781 0.0
H1060 H 0.68171 0.78062 0.18161 0.0
H1061 H 0.58593 0.67643 0.25544 0.0
H1062 H 0.54916 0.62706 0.20204 0.0
H1063 H 0.55162 0.60848 0.13478 0.0
H1064 H 0.64158 0.71399 0.05918 0.0
H1065 H 0.6716 0.76754 0.11158 0.0
C1066 C 0.65198 0.74774 0.18586 0.0
C1067 C 0.63785 0.73173 0.22302 0.0
C1068 C 0.62969 0.7193 0.15428 0.0
C1069 C 0.59894 0.689 0.22759 0.0
C1070 C 0.57745 0.66063 0.19683 0.0
C1071 C 0.57613 0.64371 0.1295 0.0
C1072 C 0.59367 0.65714 0.09282 0.0
C1073 C 0.59358 0.6746 0.16008 0.0
C1074 C 0.62655 0.70281 0.08688 0.0
C1075 C 0.64443 0.73347 0.11711 0.0
H1076 H 0.33943 0.94741 0.08677 0.0
H1077 H 0.45293 0.93475 0.12395 0.0
H1078 H 0.41677 0.90898 0.18615 0.0
H1079 H 0.35795 0.90054 0.23228 0.0
H1080 H 0.24497 0.91376 0.1944 0.0
H1081 H 0.27566 0.92826 0.1297 0.0
C1082 C 0.35604 0.93802 0.10797 0.0
C1083 C 0.39952 0.94381 0.10038 0.0
C1084 C 0.3352 0.92382 0.14373 0.0
C1085 C 0.41985 0.93095 0.12855 0.0
C1086 C 0.39919 0.91653 0.16436 0.0
C1087 C 0.33948 0.90571 0.2097 0.0
C1088 C 0.29914 0.90635 0.21839 0.0
C1089 C 0.35769 0.91448 0.17265 0.0
C1090 C 0.27565 0.91273 0.18868 0.0
C1091 C 0.29353 0.92144 0.15173 0.0
H1092 H 0.46159 0.12235 0.90571 0.0
H1093 H 0.47426 1.01099 0.86213 0.0
H1094 H 0.4619 0.02953 0.79767 0.0
H1095 H 0.44004 0.07276 0.75495 0.0
H1096 H 0.42823 0.18435 0.79876 0.0
H1097 H 0.44957 0.17147 0.86186 0.0
C1098 C 0.46279 0.1026 0.88219 0.0
C1099 C 0.46896 0.06509 0.88917 0.0
C1100 C 0.4562 0.11387 0.84517 0.0
C1101 C 0.46994 0.04004 0.85792 0.0
C1102 C 0.46269 0.05061 0.821 0.0
C1103 C 0.44368 0.09535 0.778 0.0
C1104 C 0.43341 0.13027 0.77169 0.0
C1105 C 0.45497 0.08694 0.8144 0.0
C1106 C 0.43727 0.15835 0.80221 0.0
C1107 C 0.44867 0.15034 0.83855 0.0
H1108 H 1.00986 0.44126 0.86739 0.0
H1109 H 0.91885 0.32381 0.93322 0.0
H1110 H 0.89019 0.27944 0.87624 0.0
H1111 H 0.89571 0.27032 0.80741 0.0
H1112 H 0.98158 0.38728 0.74078 0.0
H1113 H 1.00607 0.4347 0.79704 0.0
C1114 C 0.98309 0.40637 0.86936 0.0
C1115 C 0.96772 0.38646 0.90532 0.0
C1116 C 0.96529 0.38029 0.83579 0.0
C1117 C 0.93268 0.3407 0.9065 0.0
C1118 C 0.91578 0.31478 0.87365 0.0
C1119 C 0.91828 0.30651 0.80507 0.0
C1120 C 0.93573 0.32534 0.76935 0.0
C1121 C 0.93245 0.33376 0.8381 0.0
C1122 C 0.96625 0.37209 0.76733 0.0
C1123 C 0.98094 0.39924 0.7999 0.0
H1124 H 0.77385 0.62338 0.79637 0.0
H1125 H 0.66737 0.62339 0.73143 0.0
H1126 H 0.61741 0.59791 0.78588 0.0
H1127 H 0.60716 0.58639 0.85536 0.0
H1128 H 0.71486 0.58892 0.9209 0.0
H1129 H 0.75993 0.60181 0.864 0.0
C1130 C 0.73908 0.61567 0.79368 0.0
C1131 C 0.72412 0.62365 0.75897 0.0
C1132 C 0.71059 0.60249 0.82608 0.0
C1133 C 0.67938 0.61555 0.75694 0.0
C1134 C 0.65082 0.6018 0.78857 0.0
C1135 C 0.63996 0.58865 0.857 0.0
C1136 C 0.65766 0.58747 0.89267 0.0
C1137 C 0.66645 0.59661 0.82377 0.0
C1138 C 0.70052 0.59064 0.89404 0.0
C1139 C 0.72653 0.59795 0.86136 0.0
H1140 H 0.76494 0.73526 0.41935 0.0
H1141 H 0.77036 0.85906 0.45382 0.0
H1142 H 0.79522 0.85041 0.51721 0.0
H1143 H 0.80704 0.80227 0.56413 0.0
H1144 H 0.80394 0.68054 0.52554 0.0
H1145 H 0.78849 0.69524 0.46122 0.0
C1146 C 0.77337 0.76188 0.43959 0.0
C1147 C 0.76616 0.79831 0.43084 0.0
C1148 C 0.7877 0.75664 0.47547 0.0
C1149 C 0.77602 0.83104 0.45904 0.0
C1150 C 0.78984 0.82574 0.4955 0.0
C1151 C 0.80358 0.77919 0.54155 0.0
C1152 C 0.80613 0.73978 0.55002 0.0
C1153 C 0.79447 0.78784 0.50431 0.0
C1154 C 0.80215 0.71085 0.52018 0.0
C1155 C 0.79292 0.71911 0.48337 0.0
H1156 H 0.33844 0.03582 0.42535 0.0
H1157 H 0.20773 0.92807 0.46049 0.0
H1158 H 0.21748 0.96588 0.52205 0.0
H1159 H 0.26637 0.02661 0.56752 0.0
H1160 H 0.39598 0.13496 0.53034 0.0
H1161 H 0.38319 0.09995 0.46753 0.0
C1162 C 0.31166 0.02054 0.44612 0.0
C1163 C 0.27244 0.97858 0.43807 0.0
C1164 C 0.31751 0.04268 0.48116 0.0
C1165 C 0.23811 0.96014 0.46558 0.0
C1166 C 0.24391 0.98174 0.50092 0.0
C1167 C 0.29163 0.04302 0.54552 0.0
C1168 C 0.3324 0.08356 0.55396 0.0
C1169 C 0.2839 0.0226 0.50929 0.0
C1170 C 0.36435 0.10423 0.52485 0.0
C1171 C 0.35712 0.08392 0.48895 0.0
H1172 H 0.95002 0.24989 0.5246 0.0
H1173 H 0.06627 0.28642 0.59549 0.0
H1174 H 0.11349 0.30032 0.5405 0.0
H1175 H 0.12525 0.31147 0.47195 0.0
H1176 H 1.01041 0.26902 0.39889 0.0
H1177 H 0.95992 0.24781 0.45398 0.0
C1178 C 0.98534 0.25983 0.52798 0.0
C1179 C 1.00444 0.26839 0.56466 0.0
C1180 C 1.01314 0.26721 0.49549 0.0
C1181 C 0.05049 0.28095 0.56798 0.0
C1182 C 0.07789 0.28883 0.53635 0.0
C1183 C 0.08899 0.29612 0.46809 0.0
C1184 C 0.07167 0.29166 0.43139 0.0
C1185 C 0.06009 0.28351 0.49995 0.0
C1186 C 1.0246 0.27237 0.4269 0.0
C1187 C 0.99567 0.26055 0.45852 0.0
loop_
_geom_bond_atom_site_label_1
_geom_bond_atom_site_label_2
_geom_bond_distance
_geom_bond_site_symmetry_2
_ccdc_geom_bond_type
Tb0 N31 2.684 1_556 S
Tb0 N38 2.600 . S
Tb0 O44 2.546 . S
Tb0 O45 2.610 1_556 S
Tb0 O47 2.320 1_556 S
Tb0 O48 2.552 . S
Tb0 O49 2.413 1_556 S
Tb0 O51 2.357 1_456 S
Tb0 O52 2.421 . S
Tb0 C64 2.833 . S
C1 C4 1.432 . S
C1 C5 1.414 . S
C1 N8 1.359 1_455 S
C2 C4 1.417 1_556 S
C2 C6 1.432 1_556 S
C2 C14 1.410 . S
C3 C5 1.444 . S
C3 C6 1.317 . S
C3 H26 0.929 . S
C4 C1 1.432 . S
C4 C2 1.417 1_554 S
C4 N12 1.360 1_554 S
C5 C1 1.414 . S
C5 C3 1.444 . S
C5 C10 1.385 . S
C6 C2 1.432 1_554 S
C6 C3 1.317 . S
C6 H18 0.930 . S
C7 C9 1.392 . S
C7 C10 1.370 1_655 S
C7 H19 0.931 . S
N8 C1 1.359 1_655 S
N8 C9 1.327 . S
N8 Tb11 2.600 . S
C9 C7 1.392 . S
C9 N8 1.327 . S
C9 H16 0.930 . S
C10 C5 1.385 . S
C10 C7 1.370 1_455 S
C10 H29 0.930 . S
Tb11 N8 2.600 . S
Tb11 N12 2.660 1_654 S
Tb11 O45 2.362 1_655 S
Tb11 O46 2.421 . S
Tb11 O50 2.546 . S
Tb11 O51 2.615 . S
Tb11 O53 2.320 1_554 S
Tb11 O54 2.552 . S
Tb11 O55 2.413 1_554 S
Tb11 C75 2.833 . S
N12 C4 1.360 1_556 S
N12 Tb11 2.660 1_456 S
N12 C13 1.305 . S
C13 N12 1.305 . S
C13 C15 1.407 . S
C13 H20 0.930 . S
C14 C2 1.410 . S
C14 C15 1.345 . S
C14 H22 0.930 . S
C15 C13 1.407 . S
C15 C14 1.345 . S
C15 H17 0.930 . S
H16 C9 0.930 . S
H17 C15 0.930 . S
H18 C6 0.930 . S
H19 C7 0.931 . S
H20 C13 0.930 . S
H21 C35 0.930 . S
H22 C14 0.930 . S
H23 C41 0.930 . S
H24 C32 0.929 . S
H25 C39 0.931 . S
H26 C3 0.929 . S
H27 C33 0.930 . S
H28 C66 0.930 . S
H29 C10 0.930 . S
H30 C65 0.929 . S
N31 Tb0 2.684 1_554 S
N31 C32 1.299 1_455 S
N31 C36 1.341 1_454 S
C32 H24 0.929 . S
C32 N31 1.299 1_655 S
C32 C35 1.407 . S
C33 H27 0.930 . S
C33 C34 1.410 . S
C33 C35 1.345 . S
C34 C33 1.410 . S
C34 C36 1.417 1_554 S
C34 C66 1.432 1_554 S
C35 H21 0.930 . S
C35 C32 1.407 . S
C35 C33 1.345 . S
C36 N31 1.341 1_656 S
C36 C34 1.417 1_556 S
C36 C40 1.432 . S
H37 C42 0.930 . S
N38 Tb0 2.600 . S
N38 C40 1.359 1_455 S
N38 C41 1.327 . S
C39 H25 0.931 . S
C39 C41 1.392 . S
C39 C42 1.370 1_455 S
C40 C36 1.432 . S
C40 N38 1.359 1_655 S
C40 C43 1.414 . S
C41 H23 0.930 . S
C41 N38 1.327 . S
C41 C39 1.392 . S
C42 H37 0.930 . S
C42 C39 1.370 1_655 S
C42 C43 1.385 . S
C43 C40 1.414 . S
C43 C42 1.385 . S
C43 C65 1.444 . S
O44 Tb0 2.546 . S
O44 C64 1.251 . S
O45 Tb0 2.610 1_554 S
O45 Tb11 2.362 1_455 S
O45 C56 1.283 1_554 S
O46 Tb11 2.421 . S
O46 C63 1.261 1_655 S
O47 Tb0 2.320 1_554 S
O47 C63 1.260 . S
O48 Tb0 2.552 . S
O48 C56 1.243 . S
O49 Tb0 2.413 1_554 S
O49 C64 1.256 1_554 S
O50 Tb11 2.546 . S
O50 C75 1.251 . S
O51 Tb0 2.357 1_654 S
O51 Tb11 2.615 . S
O51 C67 1.288 . S
O52 Tb0 2.421 . S
O52 C74 1.262 1_455 S
O53 Tb11 2.320 1_556 S
O53 C74 1.260 . S
O54 Tb11 2.552 . S
O54 C67 1.243 . S
O55 Tb11 2.413 1_556 S
O55 C75 1.256 1_556 S
C56 O45 1.283 1_556 S
C56 O48 1.243 . S
C57 C59 1.382 1_556 S
C57 C61 1.393 . S
C57 C64 1.500 . S
C58 C59 1.400 . S
C58 C60 1.384 1_554 S
C59 C57 1.382 1_554 S
C59 C58 1.400 . S
C59 H76 0.930 . S
C60 C58 1.384 1_556 S
C60 C62 1.392 . S
C60 H77 0.931 . S
C61 C57 1.393 . S
C61 C62 1.401 . S
C61 H78 0.930 . S
C62 C60 1.392 . S
C62 C61 1.401 . S
C62 H79 0.930 . S
C63 O46 1.261 1_455 S
C63 O47 1.260 . S
C64 Tb0 2.833 . S
C64 O44 1.251 . S
C64 O49 1.256 1_556 S
C64 C57 1.500 . S
C65 H30 0.929 . S
C65 C43 1.444 . S
C65 C66 1.317 . S
C66 H28 0.930 . S
C66 C34 1.432 1_556 S
C66 C65 1.317 . S
C67 O51 1.288 . S
C67 O54 1.243 . S
C68 C69 1.382 1_554 S
C68 C72 1.393 . S
C68 C75 1.500 . S
C69 C68 1.382 1_556 S
C69 C70 1.400 . S
C69 H80 0.930 . S
C70 C69 1.400 . S
C70 C71 1.384 1_556 S
C71 C70 1.384 1_554 S
C71 C73 1.392 . S
C71 H81 0.931 . S
C72 C68 1.393 . S
C72 C73 1.401 . S
C72 H82 0.930 . S
C73 C71 1.392 . S
C73 C72 1.401 . S
C73 H83 0.930 . S
C74 O52 1.262 1_655 S
C74 O53 1.260 . S
C75 Tb11 2.833 . S
C75 O50 1.251 . S
C75 O55 1.256 1_554 S
C75 C68 1.500 . S
H76 C59 0.930 . S
H77 C60 0.931 . S
H78 C61 0.930 . S
H79 C62 0.930 . S
H80 C69 0.930 . S
H81 C71 0.931 . S
H82 C72 0.930 . S
H83 C73 0.930 . S
Tb84 N115 2.660 1_556 S
Tb84 N122 2.600 . S
Tb84 O128 2.546 . S
Tb84 O129 2.610 1_556 S
Tb84 O131 2.320 1_556 S
Tb84 O132 2.552 . S
Tb84 O133 2.413 1_556 S
Tb84 O135 2.357 1_556 S
Tb84 O136 2.421 . S
Tb84 C148 2.833 . S
C85 C88 1.432 . S
C85 C89 1.414 . S
C85 N92 1.359 . S
C86 C88 1.417 1_556 S
C86 C90 1.432 1_556 S
C86 C98 1.410 . S
C87 C89 1.444 . S
C87 C90 1.317 . S
C87 H110 0.929 . S
C88 C85 1.432 . S
C88 C86 1.417 1_554 S
C88 N96 1.360 1_554 S
C89 C85 1.414 . S
C89 C87 1.444 . S
C89 C94 1.385 . S
C90 C86 1.432 1_554 S
C90 C87 1.317 . S
C90 H102 0.930 . S
C91 C93 1.392 . S
C91 C94 1.370 . S
C91 H103 0.931 . S
N92 C85 1.359 . S
N92 C93 1.327 . S
N92 Tb95 2.600 . S
C93 C91 1.392 . S
C93 N92 1.327 . S
C93 H100 0.930 . S
C94 C89 1.385 . S
C94 C91 1.370 . S
C94 H113 0.930 . S
Tb95 N92 2.600 . S
Tb95 N96 2.660 1_554 S
Tb95 O129 2.362 . S
Tb95 O130 2.421 . S
Tb95 O134 2.546 . S
Tb95 O135 2.615 . S
Tb95 O137 2.320 1_554 S
Tb95 O138 2.552 . S
Tb95 O139 2.413 1_554 S
Tb95 C159 2.833 . S
N96 C88 1.360 1_556 S
N96 Tb95 2.660 1_556 S
N96 C97 1.305 . S
C97 N96 1.305 . S
C97 C99 1.407 . S
C97 H104 0.930 . S
C98 C86 1.410 . S
C98 C99 1.345 . S
C98 H106 0.930 . S
C99 C97 1.407 . S
C99 C98 1.345 . S
C99 H101 0.930 . S
H100 C93 0.930 . S
H101 C99 0.930 . S
H102 C90 0.930 . S
H103 C91 0.931 . S
H104 C97 0.930 . S
H105 C119 0.930 . S
H106 C98 0.930 . S
H107 C125 0.930 . S
H108 C116 0.930 . S
H109 C123 0.931 . S
H110 C87 0.929 . S
H111 C117 0.930 . S
H112 C150 0.930 . S
H113 C94 0.930 . S
H114 C149 0.929 . S
N115 Tb84 2.660 1_554 S
N115 C116 1.305 . S
N115 C120 1.360 1_554 S
C116 H108 0.930 . S
C116 N115 1.305 . S
C116 C119 1.407 . S
C117 H111 0.930 . S
C117 C118 1.410 . S
C117 C119 1.345 . S
C118 C117 1.410 . S
C118 C120 1.417 1_554 S
C118 C150 1.432 1_554 S
C119 H105 0.930 . S
C119 C116 1.407 . S
C119 C117 1.345 . S
C120 N115 1.360 1_556 S
C120 C118 1.417 1_556 S
C120 C124 1.432 . S
H121 C126 0.930 . S
N122 Tb84 2.600 . S
N122 C124 1.359 . S
N122 C125 1.327 . S
C123 H109 0.931 . S
C123 C125 1.392 . S
C123 C126 1.370 . S
C124 C120 1.432 . S
C124 N122 1.359 . S
C124 C127 1.414 . S
C125 H107 0.930 . S
C125 N122 1.327 . S
C125 C123 1.392 . S
C126 H121 0.930 . S
C126 C123 1.370 . S
C126 C127 1.385 . S
C127 C124 1.414 . S
C127 C126 1.385 . S
C127 C149 1.444 . S
O128 Tb84 2.546 . S
O128 C148 1.251 . S
O129 Tb84 2.610 1_554 S
O129 Tb95 2.362 . S
O129 C140 1.283 1_554 S
O130 Tb95 2.421 . S
O130 C147 1.262 . S
O131 Tb84 2.320 1_554 S
O131 C147 1.260 . S
O132 Tb84 2.552 . S
O132 C140 1.243 . S
O133 Tb84 2.413 1_554 S
O133 C148 1.256 1_554 S
O134 Tb95 2.546 . S
O134 C159 1.251 . S
O135 Tb84 2.357 1_554 S
O135 Tb95 2.615 . S
O135 C151 1.288 . S
O136 Tb84 2.421 . S
O136 C158 1.262 . S
O137 Tb95 2.320 1_556 S
O137 C158 1.260 . S
O138 Tb95 2.552 . S
O138 C151 1.243 . S
O139 Tb95 2.413 1_556 S
O139 C159 1.256 1_556 S
C140 O129 1.283 1_556 S
C140 O132 1.243 . S
C141 C143 1.382 1_556 S
C141 C145 1.393 . S
C141 C148 1.500 . S
C142 C143 1.400 . S
C142 C144 1.384 1_554 S
C143 C141 1.382 1_554 S
C143 C142 1.400 . S
C143 H160 0.930 . S
C144 C142 1.384 1_556 S
C144 C146 1.392 . S
C144 H161 0.931 . S
C145 C141 1.393 . S
C145 C146 1.401 . S
C145 H162 0.930 . S
C146 C144 1.392 . S
C146 C145 1.401 . S
C146 H163 0.930 . S
C147 O130 1.262 . S
C147 O131 1.260 . S
C148 Tb84 2.833 . S
C148 O128 1.251 . S
C148 O133 1.256 1_556 S
C148 C141 1.500 . S
C149 H114 0.929 . S
C149 C127 1.444 . S
C149 C150 1.317 . S
C150 H112 0.930 . S
C150 C118 1.432 1_556 S
C150 C149 1.317 . S
C151 O135 1.288 . S
C151 O138 1.243 . S
C152 C153 1.382 1_554 S
C152 C156 1.393 . S
C152 C159 1.500 . S
C153 C152 1.382 1_556 S
C153 C154 1.400 . S
C153 H164 0.930 . S
C154 C153 1.400 . S
C154 C155 1.384 1_556 S
C155 C154 1.384 1_554 S
C155 C157 1.392 . S
C155 H165 0.931 . S
C156 C152 1.393 . S
C156 C157 1.401 . S
C156 H166 0.930 . S
C157 C155 1.392 . S
C157 C156 1.401 . S
C157 H167 0.930 . S
C158 O136 1.262 . S
C158 O137 1.260 . S
C159 Tb95 2.833 . S
C159 O134 1.251 . S
C159 O139 1.256 1_554 S
C159 C152 1.500 . S
H160 C143 0.930 . S
H161 C144 0.931 . S
H162 C145 0.930 . S
H163 C146 0.930 . S
H164 C153 0.930 . S
H165 C155 0.931 . S
H166 C156 0.930 . S
H167 C157 0.930 . S
Tb168 N199 2.660 1_566 S
Tb168 N206 2.600 . S
Tb168 O212 2.546 . S
Tb168 O213 2.610 1_556 S
Tb168 O215 2.320 1_556 S
Tb168 O216 2.552 . S
Tb168 O217 2.413 1_556 S
Tb168 O219 2.357 1_566 S
Tb168 O220 2.415 1_565 S
Tb168 C232 2.833 . S
C169 C172 1.432 . S
C169 C173 1.414 . S
C169 N176 1.359 1_565 S
C170 C172 1.417 1_556 S
C170 C174 1.432 1_556 S
C170 C182 1.410 . S
C171 C173 1.444 . S
C171 C174 1.317 . S
C171 H194 0.929 . S
C172 C169 1.432 . S
C172 C170 1.417 1_554 S
C172 N180 1.360 1_564 S
C173 C169 1.414 . S
C173 C171 1.444 . S
C173 C178 1.385 . S
C174 C170 1.432 1_554 S
C174 C171 1.317 . S
C174 H186 0.930 . S
C175 C177 1.392 . S
C175 C178 1.370 1_545 S
C175 H187 0.931 . S
N176 C169 1.359 1_545 S
N176 C177 1.327 . S
N176 Tb179 2.600 . S
C177 C175 1.392 . S
C177 N176 1.327 . S
C177 H184 0.930 . S
C178 C173 1.385 . S
C178 C175 1.370 1_565 S
C178 H197 0.930 . S
Tb179 N176 2.600 . S
Tb179 N180 2.660 1_554 S
Tb179 O213 2.362 1_545 S
Tb179 O214 2.421 . S
Tb179 O218 2.546 . S
Tb179 O219 2.615 . S
Tb179 O221 2.320 1_554 S
Tb179 O222 2.552 . S
Tb179 O223 2.413 1_554 S
Tb179 C243 2.833 . S
N180 C172 1.360 1_546 S
N180 Tb179 2.660 1_556 S
N180 C181 1.305 1_545 S
C181 N180 1.305 1_565 S
C181 C183 1.407 . S
C181 H188 0.933 1_565 S
C182 C170 1.410 . S
C182 C183 1.345 . S
C182 H190 0.930 . S
C183 C181 1.407 . S
C183 C182 1.345 . S
C183 H185 0.930 . S
H184 C177 0.930 . S
H185 C183 0.930 . S
H186 C174 0.930 . S
H187 C175 0.931 . S
H188 C181 0.933 1_545 S
H189 C203 0.930 . S
H190 C182 0.930 . S
H191 C209 0.930 . S
H192 C200 0.930 . S
H193 C207 0.931 . S
H194 C171 0.929 . S
H195 C201 0.930 . S
H196 C234 0.930 . S
H197 C178 0.930 . S
H198 C233 0.929 . S
N199 Tb168 2.660 1_544 S
N199 C200 1.305 . S
N199 C204 1.360 1_554 S
C200 H192 0.930 . S
C200 N199 1.305 . S
C200 C203 1.407 . S
C201 H195 0.930 . S
C201 C202 1.410 . S
C201 C203 1.345 . S
C202 C201 1.410 . S
C202 C204 1.417 1_554 S
C202 C234 1.432 1_554 S
C203 H189 0.930 . S
C203 C200 1.407 . S
C203 C201 1.345 . S
C204 N199 1.360 1_556 S
C204 C202 1.417 1_556 S
C204 C208 1.432 . S
H205 C210 0.930 . S
N206 Tb168 2.600 . S
N206 C208 1.359 1_565 S
N206 C209 1.327 . S
C207 H193 0.931 . S
C207 C209 1.392 . S
C207 C210 1.370 1_565 S
C208 C204 1.432 . S
C208 N206 1.359 1_545 S
C208 C211 1.414 . S
C209 H191 0.930 . S
C209 N206 1.327 . S
C209 C207 1.392 . S
C210 H205 0.930 . S
C210 C207 1.370 1_545 S
C210 C211 1.385 . S
C211 C208 1.414 . S
C211 C210 1.385 . S
C211 C233 1.444 . S
O212 Tb168 2.546 . S
O212 C232 1.251 . S
O213 Tb168 2.610 1_554 S
O213 Tb179 2.362 1_565 S
O213 C224 1.283 1_554 S
O214 Tb179 2.421 . S
O214 C231 1.262 1_545 S
O215 Tb168 2.320 1_554 S
O215 C231 1.260 . S
O216 Tb168 2.552 . S
O216 C224 1.243 . S
O217 Tb168 2.413 1_554 S
O217 C232 1.256 1_554 S
O218 Tb179 2.546 . S
O218 C243 1.251 . S
O219 Tb168 2.357 1_544 S
O219 Tb179 2.615 . S
O219 C235 1.288 . S
O220 Tb168 2.415 1_545 S
O220 C242 1.272 . S
O221 Tb179 2.320 1_556 S
O221 C242 1.260 . S
O222 Tb179 2.552 . S
O222 C235 1.243 . S
O223 Tb179 2.413 1_556 S
O223 C243 1.256 1_556 S
C224 O213 1.283 1_556 S
C224 O216 1.243 . S
C225 C227 1.382 1_556 S
C225 C229 1.393 . S
C225 C232 1.500 . S
C226 C227 1.400 . S
C226 C228 1.384 1_554 S
C227 C225 1.382 1_554 S
C227 C226 1.400 . S
C227 H244 0.930 . S
C228 C226 1.384 1_556 S
C228 C230 1.392 . S
C228 H245 0.931 . S
C229 C225 1.393 . S
C229 C230 1.401 . S
C229 H246 0.930 . S
C230 C228 1.392 . S
C230 C229 1.401 . S
C230 H247 0.930 . S
C231 O214 1.262 1_565 S
C231 O215 1.260 . S
C232 Tb168 2.833 . S
C232 O212 1.251 . S
C232 O217 1.256 1_556 S
C232 C225 1.500 . S
C233 H198 0.929 . S
C233 C211 1.444 . S
C233 C234 1.317 . S
C234 H196 0.930 . S
C234 C202 1.432 1_556 S
C234 C233 1.317 . S
C235 O219 1.288 . S
C235 O222 1.243 . S
C236 C237 1.382 1_554 S
C236 C240 1.393 . S
C236 C243 1.500 . S
C237 C236 1.382 1_556 S
C237 C238 1.400 . S
C237 H248 0.930 . S
C238 C237 1.400 . S
C238 C239 1.384 1_556 S
C239 C238 1.384 1_554 S
C239 C241 1.392 . S
C239 H249 0.931 . S
C240 C236 1.393 . S
C240 C241 1.401 . S
C240 H250 0.930 . S
C241 C239 1.392 . S
C241 C240 1.401 . S
C241 H251 0.930 . S
C242 O220 1.272 . S
C242 O221 1.260 . S
C243 Tb179 2.833 . S
C243 O218 1.251 . S
C243 O223 1.256 1_554 S
C243 C236 1.500 . S
H244 C227 0.930 . S
H245 C228 0.931 . S
H246 C229 0.930 . S
H247 C230 0.930 . S
H248 C237 0.930 . S
H249 C239 0.931 . S
H250 C240 0.930 . S
H251 C241 0.930 . S
Tb252 N283 2.660 . S
Tb252 N290 2.600 . S
Tb252 O296 2.546 . S
Tb252 O297 2.610 . S
Tb252 O299 2.320 . S
Tb252 O300 2.552 . S
Tb252 O301 2.413 . S
Tb252 O303 2.362 . S
Tb252 O304 2.421 . S
Tb252 C316 2.833 . S
C253 C256 1.432 . S
C253 C257 1.414 . S
C253 N260 1.359 . S
C254 C256 1.417 . S
C254 C258 1.432 . S
C254 C266 1.410 . S
C255 C257 1.444 . S
C255 C258 1.317 . S
C255 H278 0.929 . S
C256 C253 1.432 . S
C256 C254 1.417 . S
C256 N264 1.360 . S
C257 C253 1.414 . S
C257 C255 1.444 . S
C257 C262 1.385 . S
C258 C254 1.432 . S
C258 C255 1.317 . S
C258 H270 0.930 . S
C259 C261 1.392 . S
C259 C262 1.370 . S
C259 H271 0.931 . S
N260 C253 1.359 . S
N260 C261 1.327 . S
N260 Tb263 2.600 . S
C261 C259 1.392 . S
C261 N260 1.327 . S
C261 H268 0.930 . S
C262 C257 1.385 . S
C262 C259 1.370 . S
C262 H281 0.930 . S
Tb263 N260 2.600 . S
Tb263 N264 2.660 . S
Tb263 O297 2.362 . S
Tb263 O298 2.421 . S
Tb263 O302 2.546 . S
Tb263 O303 2.610 . S
Tb263 O305 2.320 . S
Tb263 O306 2.552 . S
Tb263 O307 2.413 . S
Tb263 C327 2.833 . S
N264 C256 1.360 . S
N264 Tb263 2.660 . S
N264 C265 1.305 . S
C265 N264 1.305 . S
C265 C267 1.407 . S
C265 H272 0.930 . S
C266 C254 1.410 . S
C266 C267 1.345 . S
C266 H274 0.930 . S
C267 C265 1.407 . S
C267 C266 1.345 . S
C267 H269 0.930 . S
H268 C261 0.930 . S
H269 C267 0.930 . S
H270 C258 0.930 . S
H271 C259 0.931 . S
H272 C265 0.930 . S
H273 C287 0.930 . S
H274 C266 0.930 . S
H275 C293 0.930 . S
H276 C284 0.930 . S
H277 C291 0.931 . S
H278 C255 0.929 . S
H279 C285 0.930 . S
H280 C318 0.930 . S
H281 C262 0.930 . S
H282 C317 0.945 . S
N283 Tb252 2.660 . S
N283 C284 1.305 . S
N283 C288 1.360 . S
C284 H276 0.930 . S
C284 N283 1.305 . S
C284 C287 1.407 . S
C285 H279 0.930 . S
C285 C286 1.410 . S
C285 C287 1.345 . S
C286 C285 1.410 . S
C286 C288 1.417 . S
C286 C318 1.432 . S
C287 H273 0.930 . S
C287 C284 1.407 . S
C287 C285 1.345 . S
C288 N283 1.360 . S
C288 C286 1.417 . S
C288 C292 1.432 . S
H289 C294 0.930 . S
N290 Tb252 2.600 . S
N290 C292 1.359 . S
N290 C293 1.327 . S
C291 H277 0.931 . S
C291 C293 1.392 . S
C291 C294 1.370 . S
C292 C288 1.432 . S
C292 N290 1.359 . S
C292 C295 1.414 . S
C293 H275 0.930 . S
C293 N290 1.327 . S
C293 C291 1.392 . S
C294 H289 0.930 . S
C294 C291 1.370 . S
C294 C295 1.385 . S
C295 C292 1.414 . S
C295 C294 1.385 . S
C295 C317 1.444 . S
O296 Tb252 2.546 . S
O296 C316 1.251 . S
O297 Tb252 2.610 . S
O297 Tb263 2.362 . S
O297 C308 1.283 . S
O298 Tb263 2.421 . S
O298 C315 1.262 . S
O299 Tb252 2.320 . S
O299 C315 1.260 . S
O300 Tb252 2.552 . S
O300 C308 1.243 . S
O301 Tb252 2.413 . S
O301 C316 1.256 . S
O302 Tb263 2.546 . S
O302 C327 1.251 . S
O303 Tb252 2.362 . S
O303 Tb263 2.610 . S
O303 C319 1.283 . S
O304 Tb252 2.421 . S
O304 C326 1.262 . S
O305 Tb263 2.320 . S
O305 C326 1.260 . S
O306 Tb263 2.552 . S
O306 C319 1.243 . S
O307 Tb263 2.413 . S
O307 C327 1.256 . S
C308 O297 1.283 . S
C308 O300 1.243 . S
C309 C311 1.382 1_565 S
C309 C313 1.393 1_565 S
C309 C316 1.500 . S
C310 C311 1.400 . S
C310 C312 1.384 . S
C311 C309 1.382 1_545 S
C311 C310 1.400 . S
C311 H328 0.930 1_545 S
C312 C310 1.384 . S
C312 C314 1.392 . S
C312 H329 0.931 . S
C313 C309 1.393 1_545 S
C313 C314 1.401 . S
C313 H330 0.930 . S
C314 C312 1.392 . S
C314 C313 1.401 . S
C314 H331 0.930 . S
C315 O298 1.262 . S
C315 O299 1.260 . S
C316 Tb252 2.833 . S
C316 O296 1.251 . S
C316 O301 1.256 . S
C316 C309 1.500 . S
C317 H282 0.945 . S
C317 C295 1.444 . S
C317 C318 1.317 . S
C318 H280 0.930 . S
C318 C286 1.432 . S
C318 C317 1.317 . S
C319 O303 1.283 . S
C319 O306 1.243 . S
C320 C321 1.382 . S
C320 C324 1.393 . S
C320 C327 1.500 . S
C321 C320 1.382 . S
C321 C322 1.400 . S
C321 H332 0.930 . S
C322 C321 1.400 . S
C322 C323 1.384 . S
C323 C322 1.384 . S
C323 C325 1.392 . S
C323 H333 0.931 . S
C324 C320 1.393 . S
C324 C325 1.401 . S
C324 H334 0.930 . S
C325 C323 1.392 . S
C325 C324 1.401 . S
C325 H335 0.930 . S
C326 O304 1.262 . S
C326 O305 1.260 . S
C327 Tb263 2.833 . S
C327 O302 1.251 . S
C327 O307 1.256 . S
C327 C320 1.500 . S
H328 C311 0.930 1_565 S
H329 C312 0.931 . S
H330 C313 0.930 . S
H331 C314 0.930 . S
H332 C321 0.930 . S
H333 C323 0.931 . S
H334 C324 0.930 . S
H335 C325 0.930 . S
Tb336 N367 2.660 . S
Tb336 N374 2.600 . S
Tb336 O380 2.546 . S
Tb336 O381 2.610 . S
Tb336 O383 2.320 . S
Tb336 O384 2.552 . S
Tb336 O385 2.413 . S
Tb336 O387 2.362 . S
Tb336 O388 2.421 . S
Tb336 C400 2.833 . S
C337 C340 1.432 . S
C337 C341 1.414 . S
C337 N344 1.359 1_545 S
C338 C340 1.417 . S
C338 C342 1.432 . S
C338 C350 1.410 . S
C339 C341 1.444 . S
C339 C342 1.317 . S
C339 H362 0.929 . S
C340 C337 1.432 . S
C340 C338 1.417 . S
C340 N348 1.360 1_545 S
C341 C337 1.414 . S
C341 C339 1.444 . S
C341 C346 1.385 . S
C342 C338 1.432 . S
C342 C339 1.317 . S
C342 H354 0.930 . S
C343 C345 1.392 . S
C343 C346 1.370 1_565 S
C343 H355 0.931 . S
N344 C337 1.359 1_565 S
N344 C345 1.327 . S
N344 Tb347 2.600 . S
C345 C343 1.392 . S
C345 N344 1.327 . S
C345 H352 0.930 . S
C346 C341 1.385 . S
C346 C343 1.370 1_545 S
C346 H365 0.930 . S
Tb347 N344 2.600 . S
Tb347 N348 2.660 . S
Tb347 O381 2.362 . S
Tb347 O382 2.421 . S
Tb347 O386 2.546 . S
Tb347 O387 2.610 . S
Tb347 O389 2.320 . S
Tb347 O390 2.552 . S
Tb347 O391 2.413 . S
Tb347 C411 2.833 . S
N348 C340 1.360 1_565 S
N348 Tb347 2.660 . S
N348 C349 1.305 . S
C349 N348 1.305 . S
C349 C351 1.407 1_565 S
C349 H356 0.930 . S
C350 C338 1.410 . S
C350 C351 1.345 . S
C350 H358 0.930 . S
C351 C349 1.407 1_545 S
C351 C350 1.345 . S
C351 H353 0.930 . S
H352 C345 0.930 . S
H353 C351 0.930 . S
H354 C342 0.930 . S
H355 C343 0.931 . S
H356 C349 0.930 . S
H357 C371 0.930 . S
H358 C350 0.930 . S
H359 C377 0.930 . S
H360 C368 0.930 . S
H361 C375 0.931 . S
H362 C339 0.929 . S
H363 C369 0.930 . S
H364 C402 0.930 . S
H365 C346 0.930 . S
H366 C401 0.929 . S
N367 Tb336 2.660 . S
N367 C368 1.305 . S
N367 C372 1.360 . S
C368 H360 0.930 . S
C368 N367 1.305 . S
C368 C371 1.407 . S
C369 H363 0.930 . S
C369 C370 1.410 . S
C369 C371 1.345 . S
C370 C369 1.410 . S
C370 C372 1.417 . S
C370 C402 1.432 . S
C371 H357 0.930 . S
C371 C368 1.407 . S
C371 C369 1.345 . S
C372 N367 1.360 . S
C372 C370 1.417 . S
C372 C376 1.432 . S
H373 C378 0.930 . S
N374 Tb336 2.600 . S
N374 C376 1.359 . S
N374 C377 1.327 . S
C375 H361 0.931 . S
C375 C377 1.392 . S
C375 C378 1.370 . S
C376 C372 1.432 . S
C376 N374 1.359 . S
C376 C379 1.414 . S
C377 H359 0.930 . S
C377 N374 1.327 . S
C377 C375 1.392 . S
C378 H373 0.930 . S
C378 C375 1.370 . S
C378 C379 1.385 . S
C379 C376 1.414 . S
C379 C378 1.385 . S
C379 C401 1.444 . S
O380 Tb336 2.546 . S
O380 C400 1.251 . S
O381 Tb336 2.610 . S
O381 Tb347 2.362 . S
O381 C392 1.283 . S
O382 Tb347 2.421 . S
O382 C399 1.262 . S
O383 Tb336 2.320 . S
O383 C399 1.260 . S
O384 Tb336 2.552 . S
O384 C392 1.243 . S
O385 Tb336 2.413 . S
O385 C400 1.256 . S
O386 Tb347 2.546 . S
O386 C411 1.251 . S
O387 Tb336 2.362 . S
O387 Tb347 2.610 . S
O387 C403 1.283 . S
O388 Tb336 2.421 . S
O388 C410 1.262 . S
O389 Tb347 2.320 . S
O389 C410 1.260 . S
O390 Tb347 2.552 . S
O390 C403 1.243 . S
O391 Tb347 2.413 . S
O391 C411 1.256 . S
C392 O381 1.283 . S
C392 O384 1.243 . S
C393 C395 1.382 . S
C393 C397 1.393 1_455 S
C393 C400 1.500 . S
C394 C395 1.400 1_655 S
C394 C396 1.384 . S
C395 C393 1.382 . S
C395 C394 1.400 1_455 S
C395 H412 0.930 . S
C396 C394 1.384 . S
C396 C398 1.392 . S
C396 H413 0.931 . S
C397 C393 1.393 1_655 S
C397 C398 1.401 . S
C397 H414 0.930 1_655 S
C398 C396 1.392 . S
C398 C397 1.401 . S
C398 H415 0.930 . S
C399 O382 1.262 . S
C399 O383 1.260 . S
C400 Tb336 2.833 . S
C400 O380 1.251 . S
C400 O385 1.256 . S
C400 C393 1.500 . S
C401 H366 0.929 . S
C401 C379 1.444 . S
C401 C402 1.317 . S
C402 H364 0.930 . S
C402 C370 1.432 . S
C402 C401 1.317 . S
C403 O387 1.283 . S
C403 O390 1.243 . S
C404 C405 1.382 . S
C404 C408 1.393 . S
C404 C411 1.500 . S
C405 C404 1.382 . S
C405 C406 1.400 . S
C405 H416 0.930 . S
C406 C405 1.400 . S
C406 C407 1.384 . S
C407 C406 1.384 . S
C407 C409 1.392 . S
C407 H417 0.931 . S
C408 C404 1.393 . S
C408 C409 1.401 . S
C408 H418 0.930 . S
C409 C407 1.392 . S
C409 C408 1.401 . S
C409 H419 0.930 . S
C410 O388 1.262 . S
C410 O389 1.260 . S
C411 Tb347 2.833 . S
C411 O386 1.251 . S
C411 O391 1.256 . S
C411 C404 1.500 . S
H412 C395 0.930 . S
H413 C396 0.931 . S
H414 C397 0.930 1_455 S
H415 C398 0.930 . S
H416 C405 0.930 . S
H417 C407 0.931 . S
H418 C408 0.930 . S
H419 C409 0.930 . S
Tb420 N451 2.660 . S
Tb420 N458 2.600 . S
Tb420 O464 2.546 . S
Tb420 O465 2.610 . S
Tb420 O467 2.320 . S
Tb420 O468 2.552 . S
Tb420 O469 2.413 . S
Tb420 O471 2.362 . S
Tb420 O472 2.421 . S
Tb420 C484 2.833 . S
C421 C424 1.432 1_455 S
C421 C425 1.414 1_455 S
C421 N428 1.359 . S
C422 C424 1.417 . S
C422 C426 1.432 . S
C422 C434 1.410 . S
C423 C425 1.444 . S
C423 C426 1.317 . S
C423 H446 0.929 . S
C424 C421 1.432 1_655 S
C424 C422 1.417 . S
C424 N432 1.360 1_655 S
C425 C421 1.414 1_655 S
C425 C423 1.444 . S
C425 C430 1.385 . S
C426 C422 1.432 . S
C426 C423 1.317 . S
C426 H438 0.930 . S
C427 C429 1.392 . S
C427 C430 1.370 1_455 S
C427 H439 0.931 . S
N428 C421 1.359 . S
N428 C429 1.327 . S
N428 Tb431 2.600 . S
C429 C427 1.392 . S
C429 N428 1.327 . S
C429 H436 0.930 . S
C430 C425 1.385 . S
C430 C427 1.370 1_655 S
C430 H449 0.930 . S
Tb431 N428 2.600 . S
Tb431 N432 2.660 . S
Tb431 O465 2.362 . S
Tb431 O466 2.421 . S
Tb431 O470 2.546 . S
Tb431 O471 2.610 . S
Tb431 O473 2.320 . S
Tb431 O474 2.552 . S
Tb431 O475 2.413 . S
Tb431 C495 2.833 . S
N432 C424 1.360 1_455 S
N432 Tb431 2.660 . S
N432 C433 1.305 . S
C433 N432 1.305 . S
C433 C435 1.407 1_455 S
C433 H440 0.930 . S
C434 C422 1.410 . S
C434 C435 1.345 . S
C434 H442 0.930 . S
C435 C433 1.407 1_655 S
C435 C434 1.345 . S
C435 H437 0.930 . S
H436 C429 0.930 . S
H437 C435 0.930 . S
H438 C426 0.930 . S
H439 C427 0.931 . S
H440 C433 0.930 . S
H441 C455 0.930 . S
H442 C434 0.930 . S
H443 C461 0.930 . S
H444 C452 0.930 . S
H445 C459 0.931 . S
H446 C423 0.929 . S
H447 C453 0.930 . S
H448 C486 0.930 . S
H449 C430 0.930 . S
H450 C485 0.929 . S
N451 Tb420 2.660 . S
N451 C452 1.305 . S
N451 C456 1.360 . S
C452 H444 0.930 . S
C452 N451 1.305 . S
C452 C455 1.407 . S
C453 H447 0.930 . S
C453 C454 1.410 . S
C453 C455 1.345 . S
C454 C453 1.410 . S
C454 C456 1.417 . S
C454 C486 1.432 . S
C455 H441 0.930 . S
C455 C452 1.407 . S
C455 C453 1.345 . S
C456 N451 1.360 . S
C456 C454 1.417 . S
C456 C460 1.432 . S
H457 C462 0.930 . S
N458 Tb420 2.600 . S
N458 C460 1.359 . S
N458 C461 1.327 . S
C459 H445 0.931 . S
C459 C461 1.392 . S
C459 C462 1.370 . S
C460 C456 1.432 . S
C460 N458 1.359 . S
C460 C463 1.414 . S
C461 H443 0.930 . S
C461 N458 1.327 . S
C461 C459 1.392 . S
C462 H457 0.930 . S
C462 C459 1.370 . S
C462 C463 1.385 . S
C463 C460 1.414 . S
C463 C462 1.385 . S
C463 C485 1.444 . S
O464 Tb420 2.546 . S
O464 C484 1.251 . S
O465 Tb420 2.610 . S
O465 Tb431 2.362 . S
O465 C476 1.283 . S
O466 Tb431 2.421 . S
O466 C483 1.262 . S
O467 Tb420 2.320 . S
O467 C483 1.260 . S
O468 Tb420 2.552 . S
O468 C476 1.243 . S
O469 Tb420 2.413 . S
O469 C484 1.256 . S
O470 Tb431 2.546 . S
O470 C495 1.251 . S
O471 Tb420 2.362 . S
O471 Tb431 2.610 . S
O471 C487 1.283 . S
O472 Tb420 2.421 . S
O472 C494 1.262 . S
O473 Tb431 2.320 . S
O473 C494 1.260 . S
O474 Tb431 2.552 . S
O474 C487 1.243 . S
O475 Tb431 2.413 . S
O475 C495 1.256 . S
C476 O465 1.283 . S
C476 O468 1.243 . S
C477 C479 1.382 . S
C477 C481 1.393 . S
C477 C484 1.500 . S
C478 C479 1.400 . S
C478 C480 1.384 . S
C479 C477 1.382 . S
C479 C478 1.400 . S
C479 H496 0.930 . S
C480 C478 1.384 . S
C480 C482 1.392 . S
C480 H497 0.931 . S
C481 C477 1.393 . S
C481 C482 1.401 . S
C481 H498 0.930 . S
C482 C480 1.392 . S
C482 C481 1.401 . S
C482 H499 0.930 . S
C483 O466 1.262 . S
C483 O467 1.260 . S
C484 Tb420 2.833 . S
C484 O464 1.251 . S
C484 O469 1.256 . S
C484 C477 1.500 . S
C485 H450 0.929 . S
C485 C463 1.444 . S
C485 C486 1.317 . S
C486 H448 0.930 . S
C486 C454 1.432 . S
C486 C485 1.317 . S
C487 O471 1.283 . S
C487 O474 1.243 . S
C488 C489 1.382 . S
C488 C492 1.393 . S
C488 C495 1.500 . S
C489 C488 1.382 . S
C489 C490 1.400 . S
C489 H500 0.930 . S
C490 C489 1.400 . S
C490 C491 1.384 . S
C491 C490 1.384 . S
C491 C493 1.392 . S
C491 H501 0.931 . S
C492 C488 1.393 . S
C492 C493 1.401 . S
C492 H502 0.930 . S
C493 C491 1.392 . S
C493 C492 1.401 . S
C493 H503 0.930 . S
C494 O472 1.262 . S
C494 O473 1.260 . S
C495 Tb431 2.833 . S
C495 O470 1.251 . S
C495 O475 1.256 . S
C495 C488 1.500 . S
H496 C479 0.930 . S
H497 C480 0.931 . S
H498 C481 0.930 . S
H499 C482 0.930 . S
H500 C489 0.930 . S
H501 C491 0.931 . S
H502 C492 0.930 . S
H503 C493 0.930 . S
Tb504 N535 2.660 . S
Tb504 N542 2.600 . S
Tb504 O548 2.546 . S
Tb504 O549 2.610 . S
Tb504 O551 2.320 . S
Tb504 O552 2.552 . S
Tb504 O553 2.413 . S
Tb504 O555 2.362 . S
Tb504 O556 2.421 . S
Tb504 C568 2.833 . S
C505 C508 1.432 . S
C505 C509 1.414 1_545 S
C505 N512 1.359 . S
C506 C508 1.417 1_565 S
C506 C510 1.432 . S
C506 C518 1.410 . S
C507 C509 1.444 . S
C507 C510 1.317 . S
C507 H530 0.929 . S
C508 C505 1.432 . S
C508 C506 1.417 1_545 S
C508 N516 1.360 . S
C509 C505 1.414 1_565 S
C509 C507 1.444 . S
C509 C514 1.385 . S
C510 C506 1.432 . S
C510 C507 1.317 . S
C510 H522 0.930 . S
C511 C513 1.392 . S
C511 C514 1.370 1_545 S
C511 H523 0.931 . S
N512 C505 1.359 . S
N512 C513 1.327 . S
N512 Tb515 2.600 . S
C513 C511 1.392 . S
C513 N512 1.327 . S
C513 H520 0.930 . S
C514 C509 1.385 . S
C514 C511 1.370 1_565 S
C514 H533 0.930 . S
Tb515 N512 2.600 . S
Tb515 N516 2.660 . S
Tb515 O549 2.362 . S
Tb515 O550 2.421 . S
Tb515 O554 2.546 . S
Tb515 O555 2.610 . S
Tb515 O557 2.320 . S
Tb515 O558 2.552 . S
Tb515 O559 2.413 . S
Tb515 C579 2.833 1_545 S
N516 C508 1.360 . S
N516 Tb515 2.660 . S
N516 C517 1.305 . S
C517 N516 1.305 . S
C517 C519 1.407 . S
C517 H524 0.930 . S
C518 C506 1.410 . S
C518 C519 1.345 1_565 S
C518 H526 0.930 . S
C519 C517 1.407 . S
C519 C518 1.345 1_545 S
C519 H521 0.930 . S
H520 C513 0.930 . S
H521 C519 0.930 . S
H522 C510 0.930 . S
H523 C511 0.931 . S
H524 C517 0.930 . S
H525 C539 0.930 . S
H526 C518 0.930 . S
H527 C545 0.930 . S
H528 C536 0.930 . S
H529 C543 0.931 . S
H530 C507 0.929 . S
H531 C537 0.930 . S
H532 C570 0.930 . S
H533 C514 0.930 . S
H534 C569 0.929 . S
N535 Tb504 2.660 . S
N535 C536 1.305 . S
N535 C540 1.360 . S
C536 H528 0.930 . S
C536 N535 1.305 . S
C536 C539 1.407 . S
C537 H531 0.930 . S
C537 C538 1.410 . S
C537 C539 1.345 . S
C538 C537 1.410 . S
C538 C540 1.417 . S
C538 C570 1.432 . S
C539 H525 0.930 . S
C539 C536 1.407 . S
C539 C537 1.345 . S
C540 N535 1.360 . S
C540 C538 1.417 . S
C540 C544 1.432 . S
H541 C546 0.930 . S
N542 Tb504 2.600 . S
N542 C544 1.359 . S
N542 C545 1.327 . S
C543 H529 0.931 . S
C543 C545 1.392 . S
C543 C546 1.370 . S
C544 C540 1.432 . S
C544 N542 1.359 . S
C544 C547 1.414 . S
C545 H527 0.930 . S
C545 N542 1.327 . S
C545 C543 1.392 . S
C546 H541 0.930 . S
C546 C543 1.370 . S
C546 C547 1.385 . S
C547 C544 1.414 . S
C547 C546 1.385 . S
C547 C569 1.444 . S
O548 Tb504 2.546 . S
O548 C568 1.251 . S
O549 Tb504 2.610 . S
O549 Tb515 2.362 . S
O549 C560 1.283 . S
O550 Tb515 2.421 . S
O550 C567 1.262 . S
O551 Tb504 2.320 . S
O551 C567 1.260 . S
O552 Tb504 2.552 . S
O552 C560 1.243 . S
O553 Tb504 2.413 . S
O553 C568 1.256 . S
O554 Tb515 2.546 . S
O554 C579 1.251 1_545 S
O555 Tb504 2.362 . S
O555 Tb515 2.610 . S
O555 C571 1.283 . S
O556 Tb504 2.421 . S
O556 C578 1.262 . S
O557 Tb515 2.320 . S
O557 C578 1.260 . S
O558 Tb515 2.552 . S
O558 C571 1.243 . S
O559 Tb515 2.413 . S
O559 C579 1.256 1_545 S
C560 O549 1.283 . S
C560 O552 1.243 . S
C561 C563 1.382 . S
C561 C565 1.393 . S
C561 C568 1.500 . S
C562 C563 1.400 . S
C562 C564 1.384 . S
C563 C561 1.382 . S
C563 C562 1.400 . S
C563 H580 0.930 . S
C564 C562 1.384 . S
C564 C566 1.392 . S
C564 H581 0.931 . S
C565 C561 1.393 . S
C565 C566 1.401 . S
C565 H582 0.930 . S
C566 C564 1.392 . S
C566 C565 1.401 . S
C566 H583 0.930 . S
C567 O550 1.262 . S
C567 O551 1.260 . S
C568 Tb504 2.833 . S
C568 O548 1.251 . S
C568 O553 1.256 . S
C568 C561 1.500 . S
C569 H534 0.929 . S
C569 C547 1.444 . S
C569 C570 1.317 . S
C570 H532 0.930 . S
C570 C538 1.432 . S
C570 C569 1.317 . S
C571 O555 1.283 . S
C571 O558 1.243 . S
C572 C573 1.382 . S
C572 C576 1.393 . S
C572 C579 1.500 . S
C573 C572 1.382 . S
C573 C574 1.400 . S
C573 H584 0.930 . S
C574 C573 1.400 . S
C574 C575 1.384 . S
C575 C574 1.384 . S
C575 C577 1.392 . S
C575 H585 0.931 . S
C576 C572 1.393 . S
C576 C577 1.401 . S
C576 H586 0.930 . S
C577 C575 1.392 . S
C577 C576 1.401 . S
C577 H587 0.930 . S
C578 O556 1.262 . S
C578 O557 1.260 . S
C579 Tb515 2.833 1_565 S
C579 O554 1.251 1_565 S
C579 O559 1.256 1_565 S
C579 C572 1.500 . S
H580 C563 0.930 . S
H581 C564 0.931 . S
H582 C565 0.930 . S
H583 C566 0.930 . S
H584 C573 0.930 . S
H585 C575 0.931 . S
H586 C576 0.930 . S
H587 C577 0.930 . S
Tb588 N619 2.660 . S
Tb588 N626 2.600 . S
Tb588 O632 2.546 . S
Tb588 O633 2.610 . S
Tb588 O635 2.320 . S
Tb588 O636 2.552 . S
Tb588 O637 2.413 . S
Tb588 O639 2.362 . S
Tb588 O640 2.421 . S
Tb588 C652 2.833 . S
C589 C592 1.432 1_455 S
C589 C593 1.414 . S
C589 N596 1.359 1_455 S
C590 C592 1.417 1_455 S
C590 C594 1.432 . S
C590 C602 1.410 . S
C591 C593 1.444 . S
C591 C594 1.317 . S
C591 H614 0.929 . S
C592 C589 1.432 1_655 S
C592 C590 1.417 1_655 S
C592 N600 1.360 . S
C593 C589 1.414 . S
C593 C591 1.444 . S
C593 C598 1.385 . S
C594 C590 1.432 . S
C594 C591 1.317 . S
C594 H606 0.930 . S
C595 C597 1.392 1_455 S
C595 C598 1.370 . S
C595 H607 0.931 . S
N596 C589 1.359 1_655 S
N596 C597 1.327 . S
N596 Tb599 2.600 . S
C597 C595 1.392 1_655 S
C597 N596 1.327 . S
C597 H604 0.930 . S
C598 C593 1.385 . S
C598 C595 1.370 . S
C598 H617 0.930 . S
Tb599 N596 2.600 . S
Tb599 N600 2.660 . S
Tb599 O633 2.362 . S
Tb599 O634 2.421 . S
Tb599 O638 2.546 . S
Tb599 O639 2.610 . S
Tb599 O641 2.320 . S
Tb599 O642 2.552 . S
Tb599 O643 2.413 1_655 S
Tb599 C663 2.833 1_655 S
N600 C592 1.360 . S
N600 Tb599 2.660 . S
N600 C601 1.305 . S
C601 N600 1.305 . S
C601 C603 1.407 . S
C601 H608 0.930 . S
C602 C590 1.410 . S
C602 C603 1.345 1_455 S
C602 H610 0.930 . S
C603 C601 1.407 . S
C603 C602 1.345 1_655 S
C603 H605 0.930 . S
H604 C597 0.930 . S
H605 C603 0.930 . S
H606 C594 0.930 . S
H607 C595 0.931 . S
H608 C601 0.930 . S
H609 C623 0.930 . S
H610 C602 0.930 . S
H611 C629 0.930 . S
H612 C620 0.930 . S
H613 C627 0.931 . S
H614 C591 0.929 . S
H615 C621 0.930 1_565 S
H616 C654 0.930 . S
H617 C598 0.930 . S
H618 C653 0.929 . S
N619 Tb588 2.660 . S
N619 C620 1.305 . S
N619 C624 1.360 . S
C620 H612 0.930 . S
C620 N619 1.305 . S
C620 C623 1.407 . S
C621 H615 0.930 1_545 S
C621 C622 1.410 . S
C621 C623 1.345 . S
C622 C621 1.410 . S
C622 C624 1.417 . S
C622 C654 1.432 1_545 S
C623 H609 0.930 . S
C623 C620 1.407 . S
C623 C621 1.345 . S
C624 N619 1.360 . S
C624 C622 1.417 . S
C624 C628 1.432 . S
H625 C630 0.930 . S
N626 Tb588 2.600 . S
N626 C628 1.359 . S
N626 C629 1.327 . S
C627 H613 0.931 . S
C627 C629 1.392 . S
C627 C630 1.370 . S
C628 C624 1.432 . S
C628 N626 1.359 . S
C628 C631 1.414 . S
C629 H611 0.930 . S
C629 N626 1.327 . S
C629 C627 1.392 . S
C630 H625 0.930 . S
C630 C627 1.370 . S
C630 C631 1.385 . S
C631 C628 1.414 . S
C631 C630 1.385 . S
C631 C653 1.444 1_545 S
O632 Tb588 2.546 . S
O632 C652 1.251 . S
O633 Tb588 2.610 . S
O633 Tb599 2.362 . S
O633 C644 1.283 . S
O634 Tb599 2.421 . S
O634 C651 1.262 . S
O635 Tb588 2.320 . S
O635 C651 1.260 . S
O636 Tb588 2.552 . S
O636 C644 1.243 . S
O637 Tb588 2.413 . S
O637 C652 1.256 . S
O638 Tb599 2.546 . S
O638 C663 1.251 1_655 S
O639 Tb588 2.362 . S
O639 Tb599 2.610 . S
O639 C655 1.283 . S
O640 Tb588 2.421 . S
O640 C662 1.262 . S
O641 Tb599 2.320 . S
O641 C662 1.260 . S
O642 Tb599 2.552 . S
O642 C655 1.243 . S
O643 Tb599 2.413 1_455 S
O643 C663 1.256 . S
C644 O633 1.283 . S
C644 O636 1.243 . S
C645 C647 1.382 . S
C645 C649 1.393 . S
C645 C652 1.500 . S
C646 C647 1.400 . S
C646 C648 1.384 . S
C647 C645 1.382 . S
C647 C646 1.400 . S
C647 H664 0.930 . S
C648 C646 1.384 . S
C648 C650 1.392 . S
C648 H665 0.931 . S
C649 C645 1.393 . S
C649 C650 1.401 . S
C649 H666 0.930 . S
C650 C648 1.392 . S
C650 C649 1.401 . S
C650 H667 0.930 . S
C651 O634 1.262 . S
C651 O635 1.260 . S
C652 Tb588 2.833 . S
C652 O632 1.251 . S
C652 O637 1.256 . S
C652 C645 1.500 . S
C653 H618 0.929 . S
C653 C631 1.444 1_565 S
C653 C654 1.317 . S
C654 H616 0.930 . S
C654 C622 1.432 1_565 S
C654 C653 1.317 . S
C655 O639 1.283 . S
C655 O642 1.243 . S
C656 C657 1.382 . S
C656 C660 1.393 . S
C656 C663 1.500 . S
C657 C656 1.382 . S
C657 C658 1.400 . S
C657 H668 0.930 . S
C658 C657 1.400 . S
C658 C659 1.384 . S
C659 C658 1.384 . S
C659 C661 1.392 . S
C659 H669 0.931 . S
C660 C656 1.393 . S
C660 C661 1.401 . S
C660 H670 0.930 . S
C661 C659 1.392 . S
C661 C660 1.401 . S
C661 H671 0.930 . S
C662 O640 1.262 . S
C662 O641 1.260 . S
C663 Tb599 2.833 1_455 S
C663 O638 1.251 1_455 S
C663 O643 1.256 . S
C663 C656 1.500 . S
H664 C647 0.930 . S
H665 C648 0.931 . S
H666 C649 0.930 . S
H667 C650 0.930 . S
H668 C657 0.930 . S
H669 C659 0.931 . S
H670 C660 0.930 . S
H671 C661 0.930 . S
Tb672 N703 2.660 . S
Tb672 N710 2.600 . S
Tb672 O716 2.546 . S
Tb672 O717 2.610 . S
Tb672 O719 2.320 . S
Tb672 O720 2.552 . S
Tb672 O721 2.413 . S
Tb672 O723 2.362 . S
Tb672 O724 2.421 . S
Tb672 C736 2.833 . S
C673 C676 1.432 . S
C673 C677 1.414 . S
C673 N680 1.359 . S
C674 C676 1.417 . S
C674 C678 1.432 . S
C674 C686 1.410 . S
C675 C677 1.444 . S
C675 C678 1.317 . S
C675 H698 0.929 . S
C676 C673 1.432 . S
C676 C674 1.417 . S
C676 N684 1.360 . S
C677 C673 1.414 . S
C677 C675 1.444 . S
C677 C682 1.385 . S
C678 C674 1.432 . S
C678 C675 1.317 . S
C678 H690 0.930 . S
C679 C681 1.392 . S
C679 C682 1.370 . S
C679 H691 0.931 . S
N680 C673 1.359 . S
N680 C681 1.327 . S
N680 Tb683 2.600 . S
C681 C679 1.392 . S
C681 N680 1.327 . S
C681 H688 0.930 . S
C682 C677 1.385 . S
C682 C679 1.370 . S
C682 H701 0.930 . S
Tb683 N680 2.600 . S
Tb683 N684 2.660 . S
Tb683 O717 2.362 . S
Tb683 O718 2.421 . S
Tb683 O722 2.546 . S
Tb683 O723 2.610 . S
Tb683 O725 2.320 . S
Tb683 O726 2.552 . S
Tb683 O727 2.413 . S
Tb683 C747 2.833 . S
N684 C676 1.360 . S
N684 Tb683 2.660 . S
N684 C685 1.305 . S
C685 N684 1.305 . S
C685 C687 1.407 . S
C685 H692 0.930 . S
C686 C674 1.410 . S
C686 C687 1.345 . S
C686 H694 0.930 . S
C687 C685 1.407 . S
C687 C686 1.345 . S
C687 H689 0.930 . S
H688 C681 0.930 . S
H689 C687 0.930 . S
H690 C678 0.930 . S
H691 C679 0.931 . S
H692 C685 0.930 . S
H693 C707 0.930 . S
H694 C686 0.930 . S
H695 C713 0.930 . S
H696 C704 0.930 . S
H697 C711 0.931 . S
H698 C675 0.929 . S
H699 C705 0.907 1_455 S
H700 C738 0.930 . S
H701 C682 0.930 . S
H702 C737 0.929 . S
N703 Tb672 2.660 . S
N703 C704 1.305 . S
N703 C708 1.360 . S
C704 H696 0.930 . S
C704 N703 1.305 . S
C704 C707 1.407 . S
C705 H699 0.907 1_655 S
C705 C706 1.410 . S
C705 C707 1.369 . S
C706 C705 1.410 . S
C706 C708 1.417 . S
C706 C738 1.432 1_655 S
C707 H693 0.930 . S
C707 C704 1.407 . S
C707 C705 1.369 . S
C708 N703 1.360 . S
C708 C706 1.417 . S
C708 C712 1.432 . S
H709 C714 0.930 . S
N710 Tb672 2.600 . S
N710 C712 1.359 . S
N710 C713 1.327 . S
C711 H697 0.931 . S
C711 C713 1.392 . S
C711 C714 1.370 . S
C712 C708 1.432 . S
C712 N710 1.359 . S
C712 C715 1.414 . S
C713 H695 0.930 . S
C713 N710 1.327 . S
C713 C711 1.392 . S
C714 H709 0.930 . S
C714 C711 1.370 . S
C714 C715 1.385 . S
C715 C712 1.414 . S
C715 C714 1.385 . S
C715 C737 1.444 1_655 S
O716 Tb672 2.546 . S
O716 C736 1.251 . S
O717 Tb672 2.610 . S
O717 Tb683 2.362 . S
O717 C728 1.283 . S
O718 Tb683 2.421 . S
O718 C735 1.262 . S
O719 Tb672 2.320 . S
O719 C735 1.260 . S
O720 Tb672 2.552 . S
O720 C728 1.243 . S
O721 Tb672 2.413 . S
O721 C736 1.256 . S
O722 Tb683 2.546 . S
O722 C747 1.251 . S
O723 Tb672 2.362 . S
O723 Tb683 2.610 . S
O723 C739 1.283 . S
O724 Tb672 2.421 . S
O724 C746 1.262 . S
O725 Tb683 2.320 . S
O725 C746 1.260 . S
O726 Tb683 2.552 . S
O726 C739 1.243 . S
O727 Tb683 2.413 . S
O727 C747 1.256 . S
C728 O717 1.283 . S
C728 O720 1.243 . S
C729 C731 1.382 . S
C729 C733 1.393 . S
C729 C736 1.500 . S
C730 C731 1.400 . S
C730 C732 1.384 . S
C731 C729 1.382 . S
C731 C730 1.400 . S
C731 H748 0.930 . S
C732 C730 1.384 . S
C732 C734 1.392 . S
C732 H749 0.931 . S
C733 C729 1.393 . S
C733 C734 1.401 . S
C733 H750 0.930 . S
C734 C732 1.392 . S
C734 C733 1.401 . S
C734 H751 0.930 . S
C735 O718 1.262 . S
C735 O719 1.260 . S
C736 Tb672 2.833 . S
C736 O716 1.251 . S
C736 O721 1.256 . S
C736 C729 1.500 . S
C737 H702 0.929 . S
C737 C715 1.444 1_455 S
C737 C738 1.317 . S
C738 H700 0.930 . S
C738 C706 1.432 1_455 S
C738 C737 1.317 . S
C739 O723 1.283 . S
C739 O726 1.243 . S
C740 C741 1.382 . S
C740 C744 1.393 . S
C740 C747 1.500 . S
C741 C740 1.382 . S
C741 C742 1.400 . S
C741 H752 0.930 . S
C742 C741 1.400 . S
C742 C743 1.384 . S
C743 C742 1.384 . S
C743 C745 1.392 . S
C743 H753 0.931 . S
C744 C740 1.393 . S
C744 C745 1.401 . S
C744 H754 0.930 . S
C745 C743 1.392 . S
C745 C744 1.401 . S
C745 H755 0.930 . S
C746 O724 1.262 . S
C746 O725 1.260 . S
C747 Tb683 2.833 . S
C747 O722 1.251 . S
C747 O727 1.256 . S
C747 C740 1.500 . S
H748 C731 0.930 . S
H749 C732 0.931 . S
H750 C733 0.930 . S
H751 C734 0.930 . S
H752 C741 0.930 . S
H753 C743 0.931 . S
H754 C744 0.930 . S
H755 C745 0.930 . S
H756 C762 0.930 . S
H757 C765 0.930 . S
H758 C766 0.930 . S
H759 C767 0.930 . S
H760 C770 0.930 . S
H761 C771 0.930 . S
C762 H756 0.930 . S
C762 C763 1.355 1_556 S
C762 C764 1.415 . S
C763 C762 1.355 1_554 S
C763 C765 1.419 . S
C764 C762 1.415 . S
C764 C769 1.417 1_556 S
C764 C771 1.417 . S
C765 H757 0.930 . S
C765 C763 1.419 . S
C765 C766 1.362 . S
C766 H758 0.930 . S
C766 C765 1.362 . S
C766 C769 1.409 . S
C767 H759 0.930 . S
C767 C768 1.355 . S
C767 C769 1.415 . S
C768 C767 1.355 . S
C768 C770 1.419 1_554 S
C769 C764 1.417 1_554 S
C769 C766 1.409 . S
C769 C767 1.415 . S
C770 H760 0.930 . S
C770 C768 1.419 1_556 S
C770 C771 1.362 . S
C771 H761 0.930 . S
C771 C764 1.417 . S
C771 C770 1.362 . S
H772 C778 0.919 1_556 S
H773 C781 0.930 . S
H774 C782 0.930 . S
H775 C783 0.930 . S
H776 C786 0.930 . S
H777 C787 0.930 . S
C778 H772 0.919 1_554 S
C778 C779 1.366 . S
C778 C780 1.414 1_554 S
C779 C778 1.366 . S
C779 C781 1.419 . S
C780 C778 1.414 1_556 S
C780 C785 1.418 1_556 S
C780 C787 1.417 . S
C781 H773 0.930 . S
C781 C779 1.419 . S
C781 C782 1.362 . S
C782 H774 0.930 . S
C782 C781 1.362 . S
C782 C785 1.409 . S
C783 H775 0.930 . S
C783 C784 1.353 1_554 S
C783 C785 1.415 . S
C784 C783 1.353 1_556 S
C784 C786 1.421 . S
C785 C780 1.418 1_554 S
C785 C782 1.409 . S
C785 C783 1.415 . S
C786 H776 0.930 . S
C786 C784 1.421 . S
C786 C787 1.362 . S
C787 H777 0.930 . S
C787 C780 1.417 . S
C787 C786 1.362 . S
H788 C794 0.930 . S
H789 C797 0.930 . S
H790 C798 0.930 . S
H791 C799 0.930 . S
H792 C802 0.930 . S
H793 C803 0.930 . S
C794 H788 0.930 . S
C794 C795 1.355 1_556 S
C794 C796 1.415 . S
C795 C794 1.355 1_554 S
C795 C797 1.419 . S
C796 C794 1.415 . S
C796 C801 1.425 1_556 S
C796 C803 1.409 . S
C797 H789 0.930 . S
C797 C795 1.419 . S
C797 C798 1.362 . S
C798 H790 0.930 . S
C798 C797 1.362 . S
C798 C801 1.409 . S
C799 H791 0.930 . S
C799 C800 1.355 . S
C799 C801 1.415 . S
C800 C799 1.355 . S
C800 C802 1.419 1_554 S
C801 C796 1.425 1_554 S
C801 C798 1.409 . S
C801 C799 1.415 . S
C802 H792 0.930 . S
C802 C800 1.419 1_556 S
C802 C803 1.362 . S
C803 H793 0.930 . S
C803 C796 1.409 . S
C803 C802 1.362 . S
H804 C810 0.930 . S
H805 C813 0.930 . S
H806 C814 0.930 . S
H807 C815 0.930 . S
H808 C818 0.930 . S
H809 C819 0.930 . S
C810 H804 0.930 . S
C810 C811 1.355 . S
C810 C812 1.415 . S
C811 C810 1.355 . S
C811 C813 1.419 1_556 S
C812 C810 1.415 . S
C812 C817 1.425 1_556 S
C812 C819 1.409 . S
C813 H805 0.930 . S
C813 C811 1.419 1_554 S
C813 C814 1.362 . S
C814 H806 0.930 . S
C814 C813 1.362 . S
C814 C817 1.409 . S
C815 H807 0.930 . S
C815 C816 1.355 1_554 S
C815 C817 1.415 . S
C816 C815 1.355 1_556 S
C816 C818 1.419 . S
C817 C812 1.425 1_554 S
C817 C814 1.409 . S
C817 C815 1.415 . S
C818 H808 0.930 . S
C818 C816 1.419 . S
C818 C819 1.362 . S
C819 H809 0.930 . S
C819 C812 1.409 . S
C819 C818 1.362 . S
H820 C826 0.930 . S
H821 C829 0.930 . S
H822 C830 0.930 . S
H823 C831 0.930 . S
H824 C834 0.930 . S
H825 C835 0.930 . S
C826 H820 0.930 . S
C826 C827 1.355 . S
C826 C828 1.415 . S
C827 C826 1.355 . S
C827 C829 1.418 1_554 S
C828 C826 1.415 . S
C828 C833 1.425 1_554 S
C828 C835 1.409 . S
C829 H821 0.930 . S
C829 C827 1.418 1_556 S
C829 C830 1.362 . S
C830 H822 0.930 . S
C830 C829 1.362 . S
C830 C833 1.409 . S
C831 H823 0.930 . S
C831 C832 1.355 . S
C831 C833 1.415 . S
C832 C831 1.355 . S
C832 C834 1.419 1_556 S
C833 C828 1.425 1_556 S
C833 C830 1.409 . S
C833 C831 1.415 . S
C834 H824 0.930 . S
C834 C832 1.419 1_554 S
C834 C835 1.362 . S
C835 H825 0.930 . S
C835 C828 1.409 . S
C835 C834 1.362 . S
H836 C842 0.930 . S
H837 C845 0.930 . S
H838 C846 0.930 . S
H839 C847 0.930 1_554 S
H840 C850 0.930 . S
H841 C851 0.930 . S
C842 H836 0.930 . S
C842 C843 1.355 1_556 S
C842 C844 1.415 . S
C843 C842 1.355 1_554 S
C843 C845 1.419 . S
C844 C842 1.415 . S
C844 C849 1.425 . S
C844 C851 1.409 . S
C845 H837 0.930 . S
C845 C843 1.419 . S
C845 C846 1.362 . S
C846 H838 0.930 . S
C846 C845 1.362 . S
C846 C849 1.409 1_554 S
C847 H839 0.930 1_556 S
C847 C848 1.355 . S
C847 C849 1.415 . S
C848 C847 1.355 . S
C848 C850 1.419 . S
C849 C844 1.425 . S
C849 C846 1.409 1_556 S
C849 C847 1.415 . S
C850 H840 0.930 . S
C850 C848 1.419 . S
C850 C851 1.362 . S
C851 H841 0.930 . S
C851 C844 1.409 . S
C851 C850 1.362 . S
H852 C858 0.930 . S
H853 C861 0.930 . S
H854 C862 0.930 . S
H855 C863 0.930 . S
H856 C866 0.930 . S
H857 C867 0.930 . S
C858 H852 0.930 . S
C858 C859 1.355 . S
C858 C860 1.415 . S
C859 C858 1.355 . S
C859 C861 1.419 . S
C860 C858 1.415 . S
C860 C865 1.425 . S
C860 C867 1.409 . S
C861 H853 0.930 . S
C861 C859 1.419 . S
C861 C862 1.362 . S
C862 H854 0.930 . S
C862 C861 1.362 . S
C862 C865 1.409 . S
C863 H855 0.930 . S
C863 C864 1.355 . S
C863 C865 1.415 . S
C864 C863 1.355 . S
C864 C866 1.419 . S
C865 C860 1.425 . S
C865 C862 1.409 . S
C865 C863 1.415 . S
C866 H856 0.930 . S
C866 C864 1.419 . S
C866 C867 1.362 . S
C867 H857 0.930 . S
C867 C860 1.409 . S
C867 C866 1.362 . S
H868 C874 0.930 . S
H869 C877 0.930 . S
H870 C878 0.930 1_565 S
H871 C879 0.930 . S
H872 C882 0.930 . S
H873 C883 0.930 . S
C874 H868 0.930 . S
C874 C875 1.355 . S
C874 C876 1.415 . S
C875 C874 1.355 . S
C875 C877 1.419 . S
C876 C874 1.415 . S
C876 C881 1.425 . S
C876 C883 1.409 . S
C877 H869 0.930 . S
C877 C875 1.419 . S
C877 C878 1.362 . S
C878 H870 0.930 1_545 S
C878 C877 1.362 . S
C878 C881 1.409 . S
C879 H871 0.930 . S
C879 C880 1.355 . S
C879 C881 1.415 1_565 S
C880 C879 1.355 . S
C880 C882 1.419 1_565 S
C881 C876 1.425 . S
C881 C878 1.409 . S
C881 C879 1.415 1_545 S
C882 H872 0.930 . S
C882 C880 1.419 1_545 S
C882 C883 1.362 . S
C883 H873 0.930 . S
C883 C876 1.409 . S
C883 C882 1.362 . S
H884 C890 0.930 1_655 S
H885 C893 0.930 . S
H886 C894 0.930 . S
H887 C895 0.930 . S
H888 C898 0.930 . S
H889 C899 0.930 . S
C890 H884 0.930 1_455 S
C890 C891 1.355 . S
C890 C892 1.415 1_455 S
C891 C890 1.355 . S
C891 C893 1.419 . S
C892 C890 1.415 1_655 S
C892 C897 1.425 . S
C892 C899 1.409 . S
C893 H885 0.930 . S
C893 C891 1.419 . S
C893 C894 1.362 . S
C894 H886 0.930 . S
C894 C893 1.362 . S
C894 C897 1.409 1_455 S
C895 H887 0.930 . S
C895 C896 1.355 . S
C895 C897 1.415 . S
C896 C895 1.355 . S
C896 C898 1.419 . S
C897 C892 1.425 . S
C897 C894 1.409 1_655 S
C897 C895 1.415 . S
C898 H888 0.930 . S
C898 C896 1.419 . S
C898 C899 1.362 . S
C899 H889 0.930 . S
C899 C892 1.409 . S
C899 C898 1.362 . S
H900 C906 0.930 . S
H901 C909 0.930 . S
H902 C910 0.930 . S
H903 C911 0.930 . S
H904 C914 0.930 . S
H905 C915 0.930 . S
C906 H900 0.930 . S
C906 C907 1.355 . S
C906 C908 1.415 . S
C907 C906 1.355 . S
C907 C909 1.419 . S
C908 C906 1.415 . S
C908 C913 1.425 . S
C908 C915 1.409 . S
C909 H901 0.930 . S
C909 C907 1.419 . S
C909 C910 1.362 . S
C910 H902 0.930 . S
C910 C909 1.362 . S
C910 C913 1.409 . S
C911 H903 0.930 . S
C911 C912 1.355 . S
C911 C913 1.415 . S
C912 C911 1.355 . S
C912 C914 1.419 . S
C913 C908 1.425 . S
C913 C910 1.409 . S
C913 C911 1.415 . S
C914 H904 0.930 . S
C914 C912 1.419 . S
C914 C915 1.362 . S
C915 H905 0.930 . S
C915 C908 1.409 . S
C915 C914 1.362 . S
H916 C922 0.930 . S
H917 C925 0.930 . S
H918 C926 0.930 . S
H919 C927 0.930 . S
H920 C930 0.930 . S
H921 C931 0.930 . S
C922 H916 0.930 . S
C922 C923 1.355 . S
C922 C924 1.415 . S
C923 C922 1.355 . S
C923 C925 1.419 . S
C924 C922 1.415 . S
C924 C929 1.425 . S
C924 C931 1.409 . S
C925 H917 0.930 . S
C925 C923 1.419 . S
C925 C926 1.362 . S
C926 H918 0.930 . S
C926 C925 1.362 . S
C926 C929 1.409 . S
C927 H919 0.930 . S
C927 C928 1.355 . S
C927 C929 1.415 . S
C928 C927 1.355 . S
C928 C930 1.419 . S
C929 C924 1.425 . S
C929 C926 1.409 . S
C929 C927 1.415 . S
C930 H920 0.930 . S
C930 C928 1.419 . S
C930 C931 1.362 . S
C931 H921 0.930 . S
C931 C924 1.409 . S
C931 C930 1.362 . S
H932 C938 0.930 . S
H933 C941 0.930 . S
H934 C942 0.930 . S
H935 C943 0.930 . S
H936 C946 0.930 . S
H937 C947 0.930 . S
C938 H932 0.930 . S
C938 C939 1.355 . S
C938 C940 1.415 . S
C939 C938 1.355 . S
C939 C941 1.419 . S
C940 C938 1.415 . S
C940 C945 1.425 . S
C940 C947 1.409 . S
C941 H933 0.930 . S
C941 C939 1.419 . S
C941 C942 1.362 . S
C942 H934 0.930 . S
C942 C941 1.362 . S
C942 C945 1.409 . S
C943 H935 0.930 . S
C943 C944 1.355 . S
C943 C945 1.415 . S
C944 C943 1.355 . S
C944 C946 1.419 . S
C945 C940 1.425 . S
C945 C942 1.409 . S
C945 C943 1.415 . S
C946 H936 0.930 . S
C946 C944 1.419 . S
C946 C947 1.362 . S
C947 H937 0.930 . S
C947 C940 1.409 . S
C947 C946 1.362 . S
H948 C954 0.930 . S
H949 C957 0.930 . S
H950 C958 0.930 . S
H951 C959 0.930 . S
H952 C962 0.930 . S
H953 C963 0.930 . S
C954 H948 0.930 . S
C954 C955 1.355 . S
C954 C956 1.415 . S
C955 C954 1.355 . S
C955 C957 1.419 . S
C956 C954 1.415 . S
C956 C961 1.425 . S
C956 C963 1.409 . S
C957 H949 0.930 . S
C957 C955 1.419 . S
C957 C958 1.362 . S
C958 H950 0.930 . S
C958 C957 1.362 . S
C958 C961 1.409 . S
C959 H951 0.930 . S
C959 C960 1.355 . S
C959 C961 1.415 . S
C960 C959 1.355 . S
C960 C962 1.419 . S
C961 C956 1.425 . S
C961 C958 1.409 . S
C961 C959 1.415 . S
C962 H952 0.930 . S
C962 C960 1.419 . S
C962 C963 1.362 . S
C963 H953 0.930 . S
C963 C956 1.409 . S
C963 C962 1.362 . S
H964 C970 0.930 . S
H965 C973 0.930 . S
H966 C974 0.930 . S
H967 C975 0.930 . S
H968 C978 0.930 . S
H969 C979 0.930 . S
C970 H964 0.930 . S
C970 C971 1.355 . S
C970 C972 1.415 . S
C971 C970 1.355 . S
C971 C973 1.419 . S
C972 C970 1.415 . S
C972 C977 1.425 . S
C972 C979 1.409 . S
C973 H965 0.930 . S
C973 C971 1.419 . S
C973 C974 1.362 . S
C974 H966 0.930 . S
C974 C973 1.362 . S
C974 C977 1.409 . S
C975 H967 0.930 . S
C975 C976 1.355 . S
C975 C977 1.415 . S
C976 C975 1.355 . S
C976 C978 1.419 . S
C977 C972 1.425 . S
C977 C974 1.409 . S
C977 C975 1.415 . S
C978 H968 0.930 . S
C978 C976 1.419 . S
C978 C979 1.362 . S
C979 H969 0.930 . S
C979 C972 1.409 . S
C979 C978 1.362 . S
H980 C986 0.930 . S
H981 C989 0.930 . S
H982 C990 0.930 . S
H983 C991 0.930 . S
H984 C994 0.930 . S
H985 C995 0.930 . S
C986 H980 0.930 . S
C986 C987 1.355 . S
C986 C988 1.415 . S
C987 C986 1.355 . S
C987 C989 1.419 . S
C988 C986 1.415 . S
C988 C993 1.425 . S
C988 C995 1.409 . S
C989 H981 0.930 . S
C989 C987 1.419 . S
C989 C990 1.362 . S
C990 H982 0.930 . S
C990 C989 1.362 . S
C990 C993 1.409 . S
C991 H983 0.930 . S
C991 C992 1.355 . S
C991 C993 1.415 . S
C992 C991 1.355 . S
C992 C994 1.419 . S
C993 C988 1.425 . S
C993 C990 1.409 . S
C993 C991 1.415 . S
C994 H984 0.930 . S
C994 C992 1.419 . S
C994 C995 1.362 . S
C995 H985 0.930 . S
C995 C988 1.409 . S
C995 C994 1.362 . S
H996 C1002 0.930 . S
H997 C1005 0.930 . S
H998 C1006 0.930 . S
H999 C1007 0.930 . S
H1000 C1010 0.930 . S
H1001 C1011 0.930 . S
C1002 H996 0.930 . S
C1002 C1003 1.355 . S
C1002 C1004 1.419 . S
C1003 C1002 1.355 . S
C1003 C1005 1.419 . S
C1004 C1002 1.419 . S
C1004 C1009 1.425 1_565 S
C1004 C1011 1.406 1_565 S
C1005 H997 0.930 . S
C1005 C1003 1.419 . S
C1005 C1006 1.362 1_565 S
C1006 H998 0.930 . S
C1006 C1005 1.362 1_545 S
C1006 C1009 1.409 . S
C1007 H999 0.930 . S
C1007 C1008 1.355 . S
C1007 C1009 1.415 . S
C1008 C1007 1.355 . S
C1008 C1010 1.419 . S
C1009 C1004 1.425 1_545 S
C1009 C1006 1.409 . S
C1009 C1007 1.415 . S
C1010 H1000 0.930 . S
C1010 C1008 1.419 . S
C1010 C1011 1.362 . S
C1011 H1001 0.930 . S
C1011 C1004 1.406 1_545 S
C1011 C1010 1.362 . S
H1012 C1018 0.930 . S
H1013 C1021 0.930 . S
H1014 C1022 0.930 . S
H1015 C1023 0.930 . S
H1016 C1026 0.930 . S
H1017 C1027 0.930 . S
C1018 H1012 0.930 . S
C1018 C1019 1.355 . S
C1018 C1020 1.415 . S
C1019 C1018 1.355 . S
C1019 C1021 1.419 . S
C1020 C1018 1.415 . S
C1020 C1025 1.425 1_655 S
C1020 C1027 1.409 1_655 S
C1021 H1013 0.930 . S
C1021 C1019 1.419 . S
C1021 C1022 1.362 . S
C1022 H1014 0.930 . S
C1022 C1021 1.362 . S
C1022 C1025 1.409 1_655 S
C1023 H1015 0.930 . S
C1023 C1024 1.355 . S
C1023 C1025 1.415 . S
C1024 C1023 1.355 . S
C1024 C1026 1.419 . S
C1025 C1020 1.425 1_455 S
C1025 C1022 1.409 1_455 S
C1025 C1023 1.415 . S
C1026 H1016 0.930 . S
C1026 C1024 1.419 . S
C1026 C1027 1.362 . S
C1027 H1017 0.930 . S
C1027 C1020 1.409 1_455 S
C1027 C1026 1.362 . S
H1028 C1034 0.930 . S
H1029 C1037 0.930 . S
H1030 C1038 0.930 . S
H1031 C1039 0.930 . S
H1032 C1042 0.930 . S
H1033 C1043 0.930 . S
C1034 H1028 0.930 . S
C1034 C1035 1.355 . S
C1034 C1036 1.415 . S
C1035 C1034 1.355 . S
C1035 C1037 1.419 . S
C1036 C1034 1.415 . S
C1036 C1041 1.425 . S
C1036 C1043 1.409 . S
C1037 H1029 0.930 . S
C1037 C1035 1.419 . S
C1037 C1038 1.362 . S
C1038 H1030 0.930 . S
C1038 C1037 1.362 . S
C1038 C1041 1.409 . S
C1039 H1031 0.930 . S
C1039 C1040 1.355 . S
C1039 C1041 1.415 . S
C1040 C1039 1.355 . S
C1040 C1042 1.419 . S
C1041 C1036 1.425 . S
C1041 C1038 1.409 . S
C1041 C1039 1.415 . S
C1042 H1032 0.930 . S
C1042 C1040 1.419 . S
C1042 C1043 1.362 . S
C1043 H1033 0.930 . S
C1043 C1036 1.409 . S
C1043 C1042 1.362 . S
H1044 C1050 0.930 . S
H1045 C1053 0.930 . S
H1046 C1054 0.930 . S
H1047 C1055 0.930 . S
H1048 C1058 0.930 . S
H1049 C1059 0.930 . S
C1050 H1044 0.930 . S
C1050 C1051 1.355 . S
C1050 C1052 1.415 . S
C1051 C1050 1.355 . S
C1051 C1053 1.419 . S
C1052 C1050 1.415 . S
C1052 C1057 1.425 . S
C1052 C1059 1.409 . S
C1053 H1045 0.930 . S
C1053 C1051 1.419 . S
C1053 C1054 1.362 . S
C1054 H1046 0.930 . S
C1054 C1053 1.362 . S
C1054 C1057 1.409 . S
C1055 H1047 0.930 . S
C1055 C1056 1.355 . S
C1055 C1057 1.415 . S
C1056 C1055 1.355 . S
C1056 C1058 1.419 . S
C1057 C1052 1.425 . S
C1057 C1054 1.409 . S
C1057 C1055 1.415 . S
C1058 H1048 0.930 . S
C1058 C1056 1.419 . S
C1058 C1059 1.362 . S
C1059 H1049 0.930 . S
C1059 C1052 1.409 . S
C1059 C1058 1.362 . S
H1060 C1066 0.930 . S
H1061 C1069 0.930 . S
H1062 C1070 0.930 . S
H1063 C1071 0.930 . S
H1064 C1074 0.930 . S
H1065 C1075 0.930 . S
C1066 H1060 0.930 . S
C1066 C1067 1.355 . S
C1066 C1068 1.415 . S
C1067 C1066 1.355 . S
C1067 C1069 1.419 . S
C1068 C1066 1.415 . S
C1068 C1073 1.425 . S
C1068 C1075 1.409 . S
C1069 H1061 0.930 . S
C1069 C1067 1.419 . S
C1069 C1070 1.362 . S
C1070 H1062 0.930 . S
C1070 C1069 1.362 . S
C1070 C1073 1.409 . S
C1071 H1063 0.930 . S
C1071 C1072 1.355 . S
C1071 C1073 1.415 . S
C1072 C1071 1.355 . S
C1072 C1074 1.419 . S
C1073 C1068 1.425 . S
C1073 C1070 1.409 . S
C1073 C1071 1.415 . S
C1074 H1064 0.930 . S
C1074 C1072 1.419 . S
C1074 C1075 1.362 . S
C1075 H1065 0.930 . S
C1075 C1068 1.409 . S
C1075 C1074 1.362 . S
H1076 C1082 0.930 . S
H1077 C1085 0.930 . S
H1078 C1086 0.930 . S
H1079 C1087 0.930 . S
H1080 C1090 0.930 . S
H1081 C1091 0.930 . S
C1082 H1076 0.930 . S
C1082 C1083 1.355 . S
C1082 C1084 1.415 . S
C1083 C1082 1.355 . S
C1083 C1085 1.419 . S
C1084 C1082 1.415 . S
C1084 C1089 1.425 . S
C1084 C1091 1.409 . S
C1085 H1077 0.930 . S
C1085 C1083 1.419 . S
C1085 C1086 1.362 . S
C1086 H1078 0.930 . S
C1086 C1085 1.362 . S
C1086 C1089 1.409 . S
C1087 H1079 0.930 . S
C1087 C1088 1.355 . S
C1087 C1089 1.415 . S
C1088 C1087 1.355 . S
C1088 C1090 1.419 . S
C1089 C1084 1.425 . S
C1089 C1086 1.409 . S
C1089 C1087 1.415 . S
C1090 H1080 0.930 . S
C1090 C1088 1.419 . S
C1090 C1091 1.362 . S
C1091 H1081 0.930 . S
C1091 C1084 1.409 . S
C1091 C1090 1.362 . S
H1092 C1098 0.930 . S
H1093 C1101 0.930 . S
H1094 C1102 0.930 . S
H1095 C1103 0.930 . S
H1096 C1106 0.930 . S
H1097 C1107 0.930 . S
C1098 H1092 0.930 . S
C1098 C1099 1.355 . S
C1098 C1100 1.415 . S
C1099 C1098 1.355 . S
C1099 C1101 1.419 . S
C1100 C1098 1.415 . S
C1100 C1105 1.425 . S
C1100 C1107 1.409 . S
C1101 H1093 0.930 . S
C1101 C1099 1.419 . S
C1101 C1102 1.362 . S
C1102 H1094 0.930 . S
C1102 C1101 1.362 . S
C1102 C1105 1.409 . S
C1103 H1095 0.930 . S
C1103 C1104 1.355 . S
C1103 C1105 1.415 . S
C1104 C1103 1.355 . S
C1104 C1106 1.419 . S
C1105 C1100 1.425 . S
C1105 C1102 1.409 . S
C1105 C1103 1.415 . S
C1106 H1096 0.930 . S
C1106 C1104 1.419 . S
C1106 C1107 1.362 . S
C1107 H1097 0.930 . S
C1107 C1100 1.409 . S
C1107 C1106 1.362 . S
H1108 C1114 0.930 . S
H1109 C1117 0.930 . S
H1110 C1118 0.930 . S
H1111 C1119 0.930 . S
H1112 C1122 0.930 . S
H1113 C1123 0.930 . S
C1114 H1108 0.930 . S
C1114 C1115 1.355 . S
C1114 C1116 1.415 . S
C1115 C1114 1.355 . S
C1115 C1117 1.419 . S
C1116 C1114 1.415 . S
C1116 C1121 1.425 . S
C1116 C1123 1.409 . S
C1117 H1109 0.930 . S
C1117 C1115 1.419 . S
C1117 C1118 1.362 . S
C1118 H1110 0.930 . S
C1118 C1117 1.362 . S
C1118 C1121 1.409 . S
C1119 H1111 0.930 . S
C1119 C1120 1.355 . S
C1119 C1121 1.415 . S
C1120 C1119 1.355 . S
C1120 C1122 1.419 . S
C1121 C1116 1.425 . S
C1121 C1118 1.409 . S
C1121 C1119 1.415 . S
C1122 H1112 0.930 . S
C1122 C1120 1.419 . S
C1122 C1123 1.362 . S
C1123 H1113 0.930 . S
C1123 C1116 1.409 . S
C1123 C1122 1.362 . S
H1124 C1130 0.930 . S
H1125 C1133 0.930 . S
H1126 C1134 0.930 . S
H1127 C1135 0.930 . S
H1128 C1138 0.930 . S
H1129 C1139 0.930 . S
C1130 H1124 0.930 . S
C1130 C1131 1.355 . S
C1130 C1132 1.415 . S
C1131 C1130 1.355 . S
C1131 C1133 1.419 . S
C1132 C1130 1.415 . S
C1132 C1137 1.425 . S
C1132 C1139 1.409 . S
C1133 H1125 0.930 . S
C1133 C1131 1.419 . S
C1133 C1134 1.362 . S
C1134 H1126 0.930 . S
C1134 C1133 1.362 . S
C1134 C1137 1.409 . S
C1135 H1127 0.930 . S
C1135 C1136 1.355 . S
C1135 C1137 1.415 . S
C1136 C1135 1.355 . S
C1136 C1138 1.419 . S
C1137 C1132 1.425 . S
C1137 C1134 1.409 . S
C1137 C1135 1.415 . S
C1138 H1128 0.930 . S
C1138 C1136 1.419 . S
C1138 C1139 1.362 . S
C1139 H1129 0.930 . S
C1139 C1132 1.409 . S
C1139 C1138 1.362 . S
H1140 C1146 0.930 . S
H1141 C1149 0.930 . S
H1142 C1150 0.930 . S
H1143 C1151 0.930 . S
H1144 C1154 0.930 . S
H1145 C1155 0.930 . S
C1146 H1140 0.930 . S
C1146 C1147 1.355 . S
C1146 C1148 1.415 . S
C1147 C1146 1.355 . S
C1147 C1149 1.419 . S
C1148 C1146 1.415 . S
C1148 C1153 1.425 . S
C1148 C1155 1.409 . S
C1149 H1141 0.930 . S
C1149 C1147 1.419 . S
C1149 C1150 1.362 . S
C1150 H1142 0.930 . S
C1150 C1149 1.362 . S
C1150 C1153 1.409 . S
C1151 H1143 0.930 . S
C1151 C1152 1.355 . S
C1151 C1153 1.415 . S
C1152 C1151 1.355 . S
C1152 C1154 1.419 . S
C1153 C1148 1.425 . S
C1153 C1150 1.409 . S
C1153 C1151 1.415 . S
C1154 H1144 0.930 . S
C1154 C1152 1.419 . S
C1154 C1155 1.362 . S
C1155 H1145 0.930 . S
C1155 C1148 1.409 . S
C1155 C1154 1.362 . S
H1156 C1162 0.930 . S
H1157 C1165 0.930 . S
H1158 C1166 0.930 . S
H1159 C1167 0.930 . S
H1160 C1170 0.930 . S
H1161 C1171 0.930 . S
C1162 H1156 0.930 . S
C1162 C1163 1.355 . S
C1162 C1164 1.415 . S
C1163 C1162 1.355 . S
C1163 C1165 1.419 . S
C1164 C1162 1.415 . S
C1164 C1169 1.425 1_565 S
C1164 C1171 1.409 . S
C1165 H1157 0.930 . S
C1165 C1163 1.419 . S
C1165 C1166 1.362 1_565 S
C1166 H1158 0.930 . S
C1166 C1165 1.362 1_545 S
C1166 C1169 1.409 . S
C1167 H1159 0.930 . S
C1167 C1168 1.355 . S
C1167 C1169 1.415 . S
C1168 C1167 1.355 . S
C1168 C1170 1.419 . S
C1169 C1164 1.425 1_545 S
C1169 C1166 1.409 . S
C1169 C1167 1.415 . S
C1170 H1160 0.930 . S
C1170 C1168 1.419 . S
C1170 C1171 1.362 1_545 S
C1171 H1161 0.930 . S
C1171 C1164 1.409 . S
C1171 C1170 1.362 1_565 S
H1172 C1178 0.930 . S
H1173 C1181 0.930 . S
H1174 C1182 0.930 . S
H1175 C1183 0.930 . S
H1176 C1186 0.930 . S
H1177 C1187 0.930 1_655 S
C1178 H1172 0.930 . S
C1178 C1179 1.355 . S
C1178 C1180 1.415 . S
C1179 C1178 1.355 . S
C1179 C1181 1.419 . S
C1180 C1178 1.415 . S
C1180 C1185 1.425 1_655 S
C1180 C1187 1.409 1_655 S
C1181 H1173 0.930 . S
C1181 C1179 1.419 . S
C1181 C1182 1.362 1_655 S
C1182 H1174 0.930 . S
C1182 C1181 1.362 1_455 S
C1182 C1185 1.409 . S
C1183 H1175 0.930 . S
C1183 C1184 1.355 . S
C1183 C1185 1.415 . S
C1184 C1183 1.355 . S
C1184 C1186 1.419 . S
C1185 C1180 1.425 1_455 S
C1185 C1182 1.409 . S
C1185 C1183 1.415 . S
C1186 H1176 0.930 . S
C1186 C1184 1.419 . S
C1186 C1187 1.362 . S
C1187 H1177 0.930 1_455 S
C1187 C1180 1.409 1_455 S
C1187 C1186 1.362 . S
C763 C142 1.244 . S
C768 C56 1.401 1_554 S
C779 C226 1.206 . S
C784 C140 1.315 . S
C795 C224 1.390 1_554 S
C800 C58 1.139 . S
C811 C238 1.135 . S
C816 C151 1.374 1_556 S
C827 C235 1.358 . S
C832 C70 1.162 . S
C843 C67 1.390 . S
C848 C154 1.231 . S
C859 C308 1.403 . S
C864 C394 1.242 . S
C875 C478 1.165 . S
C880 C392 1.401 . S
C891 C476 1.296 . S
C896 C310 1.149 . S
C907 C403 1.391 . S
C912 C490 1.214 . S
C923 C487 1.388 . S
C928 C322 1.241 . S
C939 C406 1.219 . S
C944 C319 1.391 . S
C955 C646 1.255 . S
C960 C560 1.385 . S
C971 C644 1.387 . S
C976 C730 1.134 . S
C987 C728 1.349 . S
C992 C562 1.245 . S
C1003 C742 1.276 . S
C1008 C655 1.376 . S
C1019 C739 1.359 . S
C1024 C574 1.266 . S
C1035 C571 1.363 . S
C1040 C658 1.275 . S
C1051 C494 2.579 . S
C1056 C63 2.602 . S
C1067 C326 2.574 . S
C1072 C147 2.596 . S
C1083 C231 2.633 . S
C1088 C410 2.561 . S
C1099 C242 2.520 . S
C1104 C567 2.632 . S
C1115 C74 2.544 . S
C1120 C651 2.599 . S
C1131 C735 2.600 . S
C1136 C158 2.542 . S
C1147 C315 2.632 . S
C1152 C746 2.520 . S
C1163 C399 2.621 . S
C1168 C578 2.521 . S
C1179 C662 2.560 . S
C1184 C483 2.594 . S
