# Generated by pormake.
# Topology rob, (6)-cn, num edge types: 1
# Building blocks:
#     Node 0, Type 0, BuildingBlock: BETFAJ_clean_sbu_0, # of connection points: 6
#     Node 1, Type 0, BuildingBlock: BETFAJ_clean_sbu_0, # of connection points: 6
#     Node 2, Type 0, BuildingBlock: BETFAJ_clean_sbu_0, # of connection points: 6
#     Node 3, Type 0, BuildingBlock: BETFAJ_clean_sbu_0, # of connection points: 6
#     Edge 4, Type (0, 0), BuildingBlock: UVAHIK_clean_linker_0, # of connection points: 2
#     Edge 5, Type (0, 0), BuildingBlock: UVAHIK_clean_linker_0, # of connection points: 2
#     Edge 6, Type (0, 0), BuildingBlock: UVAHIK_clean_linker_0, # of connection points: 2
#     Edge 7, Type (0, 0), BuildingBlock: UVAHIK_clean_linker_0, # of connection points: 2
#     Edge 8, Type (0, 0), BuildingBlock: UVAHIK_clean_linker_0, # of connection points: 2
#     Edge 9, Type (0, 0), BuildingBlock: UVAHIK_clean_linker_0, # of connection points: 2
#     Edge 10, Type (0, 0), BuildingBlock: UVAHIK_clean_linker_0, # of connection points: 2
#     Edge 11, Type (0, 0), BuildingBlock: UVAHIK_clean_linker_0, # of connection points: 2
#     Edge 12, Type (0, 0), BuildingBlock: UVAHIK_clean_linker_0, # of connection points: 2
#     Edge 13, Type (0, 0), BuildingBlock: UVAHIK_clean_linker_0, # of connection points: 2
#     Edge 14, Type (0, 0), BuildingBlock: UVAHIK_clean_linker_0, # of connection points: 2
#     Edge 15, Type (0, 0), BuildingBlock: UVAHIK_clean_linker_0, # of connection points: 2
# Relax obj value: 0.108
# Max RMSD: 0.172
# Mean RMSD: 0.172
data_MOF--net-rob--node1-BETFAJ_clean_sbu_0--edge1-UVAHIK_clean_linker_0
_symmetry_space_group_name_H-M    P1
_symmetry_Int_Tables_number       1
_symmetry_cell_setting            triclinic
loop_
_symmetry_equiv_pos_as_xyz
'x, y, z'
_cell_length_a     19.502876
_cell_length_b     32.23895
_cell_length_c     46.054326
_cell_angle_alpha  90.125774
_cell_angle_beta   120.91952
_cell_angle_gamma 89.768373
loop_
_atom_site_label
_atom_site_type_symbol
_atom_site_fract_x
_atom_site_fract_y
_atom_site_fract_z
_atom_type_partial_charge
Sm0 Sm 0.16538 0.27237 0.99196 0.0
Sm1 Sm 0.32205 0.24867 -0.00503 0.0
C2 C 0.04494 0.27476 0.00316 0.0
C3 C 0.03805 0.27672 0.03363 0.0
C4 C 0.97758 0.25446 0.03455 0.0
C5 C 0.97278 0.25416 0.06387 0.0
C6 C 0.02867 0.27603 0.09301 0.0
C7 C 0.08906 0.29848 0.09188 0.0
C8 C 0.09363 0.29885 0.06251 0.0
C9 C 0.25493 0.33847 0.99276 0.0
C10 C 0.3312 0.25297 0.06595 0.0
C11 C 0.4417 0.24327 0.98322 0.0
C12 C 0.45111 0.24977 0.95371 0.0
C13 C 0.39406 0.27236 0.92547 0.0
C14 C 0.40063 0.27611 0.89671 0.0
C15 C 0.46495 0.25767 0.89574 0.0
C16 C 0.52288 0.23574 0.92439 0.0
C17 C 0.51575 0.23168 0.95302 0.0
C18 C 0.23234 0.18301 0.99479 0.0
C19 C 0.15819 0.27078 0.92217 0.0
O20 O 0.07422 0.24022 -0.00101 0.0
O21 O 0.07258 0.30771 -0.00396 0.0
O22 O 0.28244 0.30594 0.01033 0.0
O23 O 0.1772 0.33803 0.97525 0.0
O24 O 0.2525 0.25601 0.04781 0.0
O25 O 0.37605 0.25329 0.05213 0.0
O26 O 0.42766 0.27627 -0.004 0.0
O27 O 0.39766 0.21168 0.98118 0.0
O28 O 0.20513 0.21513 0.97669 0.0
O29 O 0.30994 0.18376 0.01274 0.0
O30 O 0.23675 0.27314 0.94101 0.0
O31 O 0.11348 0.26331 0.93537 0.0
H32 H 0.93458 0.23683 0.01269 0.0
H33 H 0.9262 0.23605 0.06392 0.0
H34 H 0.13258 0.31605 0.11364 0.0
H35 H 0.141 0.3162 0.06246 0.0
H36 H 0.34413 0.2869 0.92553 0.0
H37 H 0.35553 0.29366 0.87529 0.0
H38 H 0.57274 0.22085 0.92438 0.0
H39 H 0.56024 0.21394 0.97449 0.0
Sm40 Sm 0.67009 0.77342 -0.00498 0.0
Sm41 Sm 0.82485 0.74737 -0.00272 0.0
C42 C 0.55122 0.78072 0.00709 0.0
C43 C 0.54187 0.77496 0.03666 0.0
C44 C 0.59828 0.75216 0.06493 0.0
C45 C 0.59174 0.74903 0.09372 0.0
C46 C 0.52812 0.76834 0.09471 0.0
C47 C 0.47087 0.79051 0.06605 0.0
C48 C 0.47795 0.79393 0.03737 0.0
C49 C 0.76031 0.83785 0.99375 0.0
C50 C 0.83473 0.75091 0.06764 0.0
C51 C 0.94409 0.74171 0.98541 0.0
C52 C 0.95065 0.74334 0.95487 0.0
C53 C 0.89518 0.76588 0.92617 0.0
C54 C 0.90038 0.76619 0.89697 0.0
C55 C 0.96159 0.74423 0.89592 0.0
C56 C 0.01743 0.72196 0.92486 0.0
C57 C 0.01179 0.72143 0.95399 0.0
C58 C 0.73415 0.68288 -0.00177 0.0
C59 C 0.65913 0.76825 0.92389 0.0
O60 O 0.5639 0.74726 0.99433 0.0
O61 O 0.59634 0.81172 0.00901 0.0
O62 O 0.78759 0.8059 0.0121 0.0
O63 O 0.68266 0.83761 0.97639 0.0
O64 O 0.75594 0.75005 0.0493 0.0
O65 O 0.87902 0.75634 0.05396 0.0
O66 O 0.92387 0.77628 0.99407 0.0
O67 O 0.90773 0.70934 0.98822 0.0
O68 O 0.70727 0.71497 0.98003 0.0
O69 O 0.8119 0.68294 0.01563 0.0
O70 O 0.73779 0.76533 0.94186 0.0
O71 O 0.6147 0.76794 0.93788 0.0
H72 H 0.64768 0.73699 0.06484 0.0
H73 H 0.63628 0.73128 0.11515 0.0
H74 H 0.42159 0.80608 0.06608 0.0
H75 H 0.434 0.81184 0.01589 0.0
H76 H 0.84774 0.78329 0.92627 0.0
H77 H 0.85696 0.78407 0.87535 0.0
H78 H 0.06476 0.70433 0.92482 0.0
H79 H 0.05499 0.7037 0.97579 0.0
Sm80 Sm 0.32575 0.77766 0.49388 0.0
Sm81 Sm 0.15779 0.74993 0.4952 0.0
C82 C 0.44751 0.77584 0.48375 0.0
C83 C 0.45332 0.76965 0.4533 0.0
C84 C 0.52457 0.75534 0.45624 0.0
C85 C 0.53114 0.7513 0.42744 0.0
C86 C 0.46652 0.76167 0.39508 0.0
C87 C 0.39469 0.7753 0.39233 0.0
C88 C 0.38811 0.77907 0.42106 0.0
C89 C 0.23126 0.84403 0.49106 0.0
C90 C 0.15225 0.75659 0.42346 0.0
C91 C 0.03493 0.75278 0.50462 0.0
C92 C 0.02763 0.75028 0.5349 0.0
C93 C 0.9609 0.76741 0.53441 0.0
C94 C 0.95514 0.76656 0.5635 0.0
C95 C 0.01618 0.74856 0.59373 0.0
C96 C 0.083 0.73135 0.59398 0.0
C97 C 0.08872 0.73231 0.56491 0.0
C98 C 0.25199 0.68373 0.49754 0.0
C99 C 0.33312 0.76703 0.56628 0.0
O100 O 0.42645 0.74361 0.49463 0.0
O101 O 0.4121 0.81015 0.48437 0.0
O102 O 0.2209 0.80595 0.49282 0.0
O103 O 0.29641 0.84871 0.49022 0.0
O104 O 0.23139 0.75908 0.43962 0.0
O105 O 0.1093 0.75793 0.43838 0.0
O106 O 0.07029 0.78598 0.50238 0.0
O107 O 0.0575 0.7188 0.49612 0.0
O108 O 0.26176 0.72183 0.49569 0.0
O109 O 0.18727 0.6788 0.49876 0.0
O110 O 0.2547 0.76102 0.55054 0.0
O111 O 0.3748 0.77212 0.55101 0.0
H112 H 0.57541 0.74764 0.48085 0.0
H113 H 0.5869 0.73999 0.43057 0.0
H114 H 0.34391 0.78413 0.36807 0.0
H115 H 0.33236 0.79012 0.41812 0.0
H116 H 0.91356 0.78183 0.5116 0.0
H117 H 0.90346 0.78072 0.56244 0.0
H118 H 0.13073 0.71677 0.61656 0.0
H119 H 0.14105 0.71912 0.56589 0.0
Sm120 Sm 0.83368 0.2831 0.49407 0.0
Sm121 Sm 0.66813 0.25287 0.49636 0.0
C122 C 0.9558 0.28332 0.48411 0.0
C123 C 0.96576 0.27639 0.4548 0.0
C124 C 0.90806 0.25477 0.42612 0.0
C125 C 0.9147 0.25161 0.39731 0.0
C126 C 0.9789 0.2703 0.39647 0.0
C127 C 0.03699 0.29149 0.42554 0.0
C128 C 0.03041 0.29448 0.45434 0.0
C129 C 0.74284 0.34801 0.49669 0.0
C130 C 0.6578 0.26447 0.42361 0.0
C131 C 0.54774 0.25274 0.50736 0.0
C132 C 0.54171 0.26033 0.53763 0.0
C133 C 0.46924 0.27321 0.53426 0.0
C134 C 0.46219 0.2777 0.56293 0.0
C135 C 0.52751 0.26918 0.59558 0.0
C136 C 0.60059 0.25718 0.59875 0.0
C137 C 0.60765 0.25299 0.57016 0.0
C138 C 0.76134 0.18793 0.49565 0.0
C139 C 0.84311 0.27373 0.56646 0.0
O140 O 0.93724 0.25107 0.49602 0.0
O141 O 0.91567 0.31677 0.48247 0.0
O142 O 0.73248 0.30969 0.49678 0.0
O143 O 0.8069 0.35393 0.49517 0.0
O144 O 0.73626 0.27019 0.43909 0.0
O145 O 0.61673 0.2598 0.43918 0.0
O146 O 0.56403 0.28477 0.49443 0.0
O147 O 0.58731 0.21926 0.50845 0.0
O148 O 0.76971 0.2262 0.49392 0.0
O149 O 0.69835 0.18216 0.49798 0.0
O150 O 0.76416 0.27011 0.55076 0.0
O151 O 0.88497 0.27433 0.55104 0.0
H152 H 0.85715 0.24091 0.42578 0.0
H153 H 0.86933 0.23462 0.37566 0.0
H154 H 0.08649 0.30689 0.42575 0.0
H155 H 0.07495 0.3118 0.47604 0.0
H156 H 0.41775 0.27925 0.50943 0.0
H157 H 0.40539 0.28776 0.55943 0.0
H158 H 0.65202 0.24977 0.62324 0.0
H159 H 0.66433 0.24302 0.57345 0.0
C160 C 0.72003 0.61396 0.01948 0.0
C161 C 0.68428 0.64822 -0.00197 0.0
C162 C 0.67352 0.58074 0.01904 0.0
C163 C 0.4659 0.55165 0.99335 0.0
H164 H 0.54452 0.43944 -0.00066 0.0
C165 C 0.26826 0.40794 0.97202 0.0
C166 C 0.30434 0.37356 0.99327 0.0
C167 C 0.31451 0.44136 0.97254 0.0
C168 C 0.52201 0.47057 -0.00196 0.0
H169 H 0.57171 0.6747 0.95939 0.0
H170 H 0.49032 0.61663 0.95844 0.0
H171 H 0.62472 0.49791 0.00048 0.0
H172 H 0.41716 0.34713 0.03174 0.0
H173 H 0.49805 0.40552 0.03288 0.0
H174 H 0.36319 0.5243 0.99092 0.0
C175 C 0.55428 0.61555 0.97589 0.0
C176 C 0.56807 0.50416 -0.0013 0.0
C177 C 0.60091 0.64877 0.97631 0.0
C178 C 0.38772 0.37314 0.01496 0.0
C179 C 0.43406 0.40656 0.01548 0.0
C180 C 0.41984 0.51805 0.99271 0.0
C181 C 0.59003 0.58097 -0.00285 0.0
C182 C 0.5407 0.54518 -0.00362 0.0
C183 C 0.39805 0.4412 0.99433 0.0
C184 C 0.44725 0.47703 -0.00495 0.0
H185 H 0.78413 0.61277 0.03665 0.0
H186 H 0.70303 0.55501 0.03615 0.0
H187 H 0.4434 0.58278 0.99203 0.0
H188 H 0.20414 0.40904 0.95489 0.0
H189 H 0.28478 0.46714 0.95553 0.0
C190 C 0.34707 0.65353 0.48179 0.0
C191 C 0.3038 0.64972 0.49829 0.0
C192 C 0.39487 0.62074 0.48216 0.0
C193 C 0.4226 0.50703 0.49451 0.0
H194 H 0.63229 0.52972 0.50826 0.0
C195 C 0.6463 0.3758 0.5127 0.0
C196 C 0.6912 0.38135 0.49707 0.0
C197 C 0.59882 0.40818 0.51332 0.0
C198 C 0.57351 0.5228 0.50398 0.0
H199 H 0.27405 0.60842 0.52717 0.0
H200 H 0.35769 0.55117 0.52807 0.0
H201 H 0.54977 0.58683 0.50797 0.0
H202 H 0.72308 0.42497 0.47032 0.0
H203 H 0.63961 0.48115 0.47078 0.0
H204 H 0.44607 0.44302 0.49026 0.0
C205 C 0.35507 0.57941 0.51484 0.0
C206 C 0.52618 0.55562 0.50384 0.0
C207 C 0.3075 0.61224 0.51449 0.0
C208 C 0.68875 0.41988 0.48246 0.0
C209 C 0.64125 0.45214 0.48293 0.0
C210 C 0.46986 0.47419 0.49454 0.0
C211 C 0.39955 0.58325 0.49875 0.0
C212 C 0.45004 0.5482 0.49903 0.0
C213 C 0.59573 0.44683 0.49844 0.0
C214 C 0.54587 0.48164 0.49915 0.0
H215 H 0.34177 0.68126 0.46761 0.0
H216 H 0.42672 0.62443 0.4688 0.0
H217 H 0.36382 0.50022 0.49028 0.0
H218 H 0.64987 0.34696 0.52537 0.0
H219 H 0.56596 0.4032 0.52611 0.0
C220 C 0.09993 0.14775 0.9725 0.0
C221 C 0.18319 0.14794 0.9945 0.0
C222 C 0.05408 0.11429 0.97234 0.0
C223 C 0.05951 0.02502 0.02442 0.0
H224 H 0.88579 0.98366 0.93911 0.0
C225 C 0.89294 0.87259 0.01541 0.0
C226 C 0.80961 0.87256 0.9936 0.0
C227 C 0.93888 0.90588 0.01536 0.0
C228 C 0.93354 0.99506 0.96321 0.0
H229 H 0.28376 0.11334 0.03358 0.0
H230 H 0.20425 0.05486 0.03309 0.0
H231 H 0.96407 0.04264 0.93944 0.0
H232 H 0.70904 0.90719 0.95454 0.0
H233 H 0.78875 0.96536 0.95465 0.0
H234 H 0.02899 0.97746 0.04819 0.0
C235 C 0.17394 0.0807 0.01624 0.0
C236 C 0.97843 0.02897 0.96339 0.0
C237 C 0.21965 0.1141 0.01637 0.0
C238 C 0.7732 0.90632 0.97163 0.0
C239 C 0.81902 0.93955 0.97154 0.0
C240 C 0.01464 0.99112 0.02423 0.0
C241 C 0.09052 0.08028 0.99421 0.0
C242 C 0.04206 0.0444 0.994 0.0
C243 C 0.90248 0.93987 0.99346 0.0
C244 C 0.951 0.97568 0.99363 0.0
H245 H 0.07018 0.17344 0.95536 0.0
H246 H 0.98993 0.11529 0.95532 0.0
H247 H 0.10723 0.03643 0.04852 0.0
H248 H 0.92266 0.84697 0.03262 0.0
H249 H 0.00306 0.9048 0.03229 0.0
C250 C 0.81725 0.11667 0.51202 0.0
C251 C 0.81389 0.15444 0.49626 0.0
C252 C 0.86331 0.0837 0.51151 0.0
C253 C 0.02745 0.05744 0.49591 0.0
H254 H 0.94337 0.94608 0.4858 0.0
C255 C 0.1744 0.91493 0.47259 0.0
C256 C 0.18039 0.87848 0.49038 0.0
C257 C 0.12932 0.94865 0.47284 0.0
C258 C 0.96807 0.97693 0.48896 0.0
H259 H 0.8531 0.18692 0.46639 0.0
H260 H 0.93411 0.12934 0.46536 0.0
H261 H 0.86608 1.00499 0.48684 0.0
H262 H 0.14968 0.84988 0.52453 0.0
H263 H 0.06833 0.90811 0.52417 0.0
H264 H 0.12917 0.02919 0.49768 0.0
C265 C 0.90305 0.1255 0.47904 0.0
C266 C 0.92382 1.01079 0.48962 0.0
C267 C 0.85718 0.15865 0.47978 0.0
C268 C 0.14186 0.87658 0.50897 0.0
C269 C 0.0964 0.91023 0.50914 0.0
C270 C 0.07154 0.02355 0.49506 0.0
C271 C 0.9063 0.08745 0.49474 0.0
C272 C 0.95306 0.05152 0.49331 0.0
C273 C 0.0897 0.94674 0.49111 0.0
C274 C 0.04252 0.98286 0.49171 0.0
H275 H 0.78423 0.11261 0.52486 0.0
H276 H 0.86536 0.05526 0.5244 0.0
H277 H 0.05245 0.08822 0.49925 0.0
H278 H 0.20445 0.91731 0.45837 0.0
H279 H 0.12503 0.97612 0.45849 0.0
C280 C 0.64454 0.28542 0.36933 0.0
C281 C 0.61584 0.26213 0.38653 0.0
C282 C 0.61272 0.28009 0.33478 0.0
C283 C 0.44061 0.23687 0.25734 0.0
H284 H 0.58668 0.24865 0.22424 0.0
C285 C 0.32616 0.26613 0.11781 0.0
C286 C 0.3679 0.25015 0.10289 0.0
C287 C 0.35724 0.26252 0.15241 0.0
C288 C 0.5452 0.24448 0.23301 0.0
H289 H 0.5305 0.21559 0.38131 0.0
H290 H 0.47559 0.20525 0.32061 0.0
H291 H 0.63805 0.25067 0.28465 0.0
H292 H 0.47498 0.21781 0.11235 0.0
H293 H 0.5292 0.21038 0.17328 0.0
H294 H 0.34817 0.22918 0.20576 0.0
C295 C 0.52179 0.22827 0.33375 0.0
C296 C 0.57445 0.24639 0.26768 0.0
C297 C 0.55295 0.23418 0.36842 0.0
C298 C 0.44196 0.23063 0.12333 0.0
C299 C 0.47282 0.22644 0.15816 0.0
C300 C 0.41154 0.23425 0.22269 0.0
C301 C 0.55241 0.2507 0.31668 0.0
C302 C 0.52216 0.24394 0.28018 0.0
C303 C 0.4305 0.24225 0.17304 0.0
C304 C 0.46311 0.23935 0.21003 0.0
H305 H 0.69256 0.30752 0.38272 0.0
H306 H 0.63592 0.29893 0.32233 0.0
H307 H 0.39859 0.23483 0.26601 0.0
H308 H 0.26947 0.28189 0.10276 0.0
H309 H 0.32406 0.27626 0.16299 0.0
C310 C 0.44823 0.7588 0.12317 0.0
C311 C 0.52216 0.76589 0.12567 0.0
C312 C 0.44258 0.75691 0.15225 0.0
C313 C 0.56608 0.74375 0.24605 0.0
H314 H 0.37854 0.78945 0.24322 0.0
C315 C 0.54637 0.77014 0.36629 0.0
C316 C 0.47429 0.75938 0.36443 0.0
C317 C 0.55267 0.76951 0.33734 0.0
C318 C 0.43097 0.77618 0.24434 0.0
H319 H 0.64802 0.77713 0.1608 0.0
H320 H 0.63815 0.77463 0.2114 0.0
H321 H 0.38872 0.79166 0.19269 0.0
H322 H 0.35297 0.73828 0.33035 0.0
H323 H 0.36372 0.73801 0.27991 0.0
H324 H 0.60879 0.72908 0.29802 0.0
C325 C 0.58462 0.76949 0.18705 0.0
C326 C 0.43679 0.77732 0.2153 0.0
C327 C 0.59033 0.77104 0.15799 0.0
C328 C 0.40899 0.74757 0.33279 0.0
C329 C 0.41513 0.7473 0.30381 0.0
C330 C 0.56051 0.74293 0.27518 0.0
C331 C 0.51064 0.76242 0.18464 0.0
C332 C 0.50439 0.76107 0.21568 0.0
C333 C 0.48693 0.75844 0.30569 0.0
C334 C 0.49283 0.75908 0.27467 0.0
H335 H 0.39474 0.75414 0.0987 0.0
H336 H 0.38483 0.75062 0.14929 0.0
H337 H 0.61844 0.73025 0.24728 0.0
H338 H 0.59757 0.7801 0.38998 0.0
H339 H 0.60857 0.77872 0.3396 0.0
C340 C 0.54941 0.79239 0.867 0.0
C341 C 0.62217 0.77153 0.887 0.0
C342 C 0.51882 0.79749 0.83229 0.0
C343 C 0.57977 0.79043 0.76773 0.0
H344 H 0.35245 0.77772 0.70531 0.0
C345 C 0.43818 0.79597 0.62204 0.0
C346 C 0.3746 0.76858 0.60337 0.0
C347 C 0.46949 0.8008 0.65683 0.0
C348 C 0.41624 0.78102 0.72241 0.0
H349 H 0.71845 0.73819 0.8865 0.0
H350 H 0.66419 0.7456 0.82633 0.0
H351 H 0.40377 0.77763 0.76576 0.0
H352 H 0.29691 0.723 0.60629 0.0
H353 H 0.35337 0.72995 0.66678 0.0
H354 H 0.59274 0.79107 0.7244 0.0
C355 C 0.63195 0.75961 0.83723 0.0
C356 C 0.44551 0.78168 0.75711 0.0
C357 C 0.66278 0.75503 0.87175 0.0
C358 C 0.34527 0.74479 0.62009 0.0
C359 C 0.3771 0.74912 0.65471 0.0
C360 C 0.55062 0.78913 0.73303 0.0
C361 C 0.56012 0.78131 0.81709 0.0
C362 C 0.52784 0.78543 0.78021 0.0
C363 C 0.43822 0.77789 0.6734 0.0
C364 C 0.46872 0.78342 0.71002 0.0
H365 H 0.5174 0.80564 0.8783 0.0
H366 H 0.46357 0.81462 0.81753 0.0
H367 H 0.6434 0.79441 0.78482 0.0
H368 H 0.46125 0.81487 0.60956 0.0
H369 H 0.51641 0.82333 0.67048 0.0
C370 C 0.58337 0.28452 0.65762 0.0
C371 C 0.51918 0.27144 0.62611 0.0
C372 C 0.57705 0.28446 0.68656 0.0
C373 C 0.43156 0.28537 0.71517 0.0
H374 H 0.60616 0.23883 0.79797 0.0
C375 C 0.40302 0.25512 0.83246 0.0
C376 C 0.4709 0.26075 0.8648 0.0
C377 C 0.40874 0.25727 0.80341 0.0
C378 C 0.55726 0.25257 0.77529 0.0
H379 H 0.39756 0.24819 0.60079 0.0
H380 H 0.38616 0.24909 0.65107 0.0
H381 H 0.61633 0.24208 0.74747 0.0
H382 H 0.59776 0.27397 0.8918 0.0
H383 H 0.60762 0.27863 0.84125 0.0
H384 H 0.37281 0.29649 0.74295 0.0
C385 C 0.44134 0.25951 0.65325 0.0
C386 C 0.56309 0.2543 0.74625 0.0
C387 C 0.44788 0.25917 0.62434 0.0
C388 C 0.54452 0.26893 0.86732 0.0
C389 C 0.55014 0.27146 0.83825 0.0
C390 C 0.42599 0.28402 0.7443 0.0
C391 C 0.50612 0.27175 0.68478 0.0
C392 C 0.50023 0.27059 0.7158 0.0
C393 C 0.4824 0.26547 0.80584 0.0
C394 C 0.48866 0.26746 0.77479 0.0
H395 H 0.6387 0.295 0.65999 0.0
H396 H 0.62766 0.29468 0.71036 0.0
H397 H 0.38245 0.29857 0.69223 0.0
H398 H 0.34559 0.24819 0.82963 0.0
H399 H 0.35546 0.2517 0.77907 0.0
C400 C 0.83455 0.72118 0.11716 0.0
C401 C 0.87215 0.74587 0.10435 0.0
C402 C 0.86419 0.71954 0.15183 0.0
C403 C 0.96582 0.78132 0.22699 0.0
H404 H 0.01482 0.67762 0.27654 0.0
C405 C 0.03506 0.76795 0.36512 0.0
C406 C 0.11129 0.75108 0.38662 0.0
C407 C 0.0006 0.76547 0.33 0.0
C408 C 0.00066 0.70669 0.26283 0.0
H409 H 0.97077 0.78747 0.11732 0.0
H410 H 0.02224 0.78517 0.17845 0.0
H411 H 0.9695 0.67676 0.21605 0.0
H412 H 0.20982 0.71684 0.38868 0.0
H413 H 0.1486 0.71165 0.32751 0.0
H414 H 0.99639 0.81122 0.27373 0.0
C415 C 0.97009 0.76702 0.16149 0.0
C416 C 0.97506 0.7062 0.22845 0.0
C417 C 0.94121 0.76806 0.12675 0.0
C418 C 0.1511 0.73034 0.37262 0.0
C419 C 0.11608 0.72714 0.33771 0.0
C420 C 0.98997 0.78175 0.26123 0.0
C421 C 0.93116 0.74306 0.17414 0.0
C422 C 0.95842 0.74354 0.21043 0.0
C423 C 0.04126 0.74522 0.31618 0.0
C424 C 0.00832 0.74446 0.27942 0.0
H425 H 0.78153 0.70351 0.10032 0.0
H426 H 0.83328 0.70094 0.16111 0.0
H427 H 0.95236 0.81041 0.21335 0.0
H428 H 0.00352 0.78423 0.37539 0.0
H429 H 0.94265 0.77957 0.31365 0.0
C430 C 0.05873 0.26499 0.36742 0.0
C431 C 0.98425 0.26877 0.36523 0.0
C432 C 0.06396 0.26501 0.33821 0.0
C433 C 0.94457 0.24812 0.24541 0.0
H434 H 0.11383 0.31061 0.24524 0.0
C435 C 0.94997 0.27689 0.12258 0.0
C436 C 0.02422 0.27516 0.12443 0.0
C437 C 0.94563 0.27573 0.15198 0.0
C438 C 0.06676 0.29255 0.24493 0.0
H439 H 0.85677 0.27576 0.33013 0.0
H440 H 0.86593 0.27535 0.27932 0.0
H441 H 0.10529 0.30876 0.29622 0.0
H442 H 0.15226 0.27025 0.15897 0.0
H443 H 0.14472 0.2682 0.21019 0.0
H444 H 0.90608 0.23183 0.19417 0.0
C445 C 0.92031 0.27193 0.30369 0.0
C446 C 0.06184 0.29151 0.27422 0.0
C447 C 0.91507 0.27207 0.33291 0.0
C448 C 0.09409 0.27232 0.15655 0.0
C449 C 0.08975 0.27113 0.18597 0.0
C450 C 0.94957 0.24909 0.21615 0.0
C451 C 0.99487 0.26863 0.30595 0.0
C452 C 0.00059 0.26935 0.27483 0.0
C453 C 0.01543 0.27276 0.18411 0.0
C454 C 0.01062 0.27141 0.21546 0.0
H455 H 0.11321 0.26166 0.39176 0.0
H456 H 0.12226 0.26173 0.34091 0.0
H457 H 0.89734 0.23021 0.2451 0.0
H458 H 0.89499 0.27977 0.09836 0.0
H459 H 0.88744 0.2778 0.14952 0.0
C460 C 0.96153 0.26184 0.62443 0.0
C461 C 0.88493 0.27855 0.60339 0.0
C462 C -0.0034 0.26342 0.65962 0.0
C463 C 0.99621 0.31953 0.72796 0.0
H464 H 0.04681 0.21452 0.77581 0.0
C465 C 0.15884 0.30241 0.87333 0.0
C466 C 0.12174 0.27633 0.88554 0.0
C467 C 0.13043 0.30472 0.83879 0.0
C468 C 0.03276 0.24397 0.76264 0.0
H469 H 0.78638 0.31167 0.60222 0.0
H470 H 0.84858 0.31532 0.66349 0.0
H471 H 0.00328 0.2156 0.71548 0.0
H472 H 0.02527 0.23287 0.87158 0.0
H473 H 0.97587 0.23643 0.81066 0.0
H474 H 0.02598 0.34794 0.77511 0.0
C475 C 0.88098 0.30064 0.6529 0.0
C476 C 0.0089 0.24462 0.72842 0.0
C477 C 0.84538 0.29831 0.61793 0.0
C478 C 0.0544 0.25336 0.86264 0.0
C479 C 0.02676 0.25511 0.82801 0.0
C480 C 0.02147 0.31895 0.7623 0.0
C481 C 0.95616 0.28265 0.67398 0.0
C482 C 0.98957 0.28237 0.7108 0.0
C483 C 0.06518 0.28052 0.81596 0.0
C484 C 0.03887 0.28113 0.77974 0.0
H485 H 0.99286 0.2463 0.61372 0.0
H486 H 0.05482 0.2494 0.67561 0.0
H487 H 0.98129 0.34894 0.7147 0.0
H488 H 0.21052 0.3207 0.89055 0.0
H489 H 0.16095 0.32444 0.83 0.0
C490 C 0.07873 0.75408 0.65708 0.0
C491 C 0.01046 0.74796 0.62488 0.0
C492 C 0.07339 0.75347 0.68626 0.0
C493 C 0.92981 0.76611 0.71551 0.0
H494 H 0.09239 0.7093 0.79588 0.0
C495 C 0.89789 0.74126 0.83252 0.0
C496 C 0.96707 0.74454 0.86478 0.0
C497 C 0.90304 0.7415 0.8033 0.0
C498 C 0.04696 0.7258 0.77384 0.0
H499 H 0.88303 0.73578 0.59849 0.0
H500 H 0.8737 0.73518 0.64928 0.0
H501 H 0.10186 0.71032 0.74513 0.0
H502 H 0.09585 0.75141 0.89143 0.0
H503 H 0.10486 0.75228 0.84058 0.0
H504 H 0.87523 0.78197 0.74422 0.0
C505 C 0.93128 0.74091 0.65189 0.0
C506 C 0.05237 0.72631 0.74468 0.0
C507 C 0.93667 0.74132 0.62272 0.0
C508 C 0.04149 0.74818 0.86704 0.0
C509 C 0.04663 0.74861 0.83781 0.0
C510 C 0.92457 0.76578 0.74472 0.0
C511 C -0.00043 0.74694 0.68404 0.0
C512 C 0.99384 0.74644 0.71512 0.0
C513 C 0.9775 0.74522 0.80551 0.0
C514 C 0.98305 0.74559 0.77431 0.0
H515 H 0.13635 0.76002 0.65978 0.0
H516 H 0.12699 0.75883 0.71055 0.0
H517 H 0.88429 0.78242 0.69337 0.0
H518 H 0.83968 0.73782 0.82985 0.0
H519 H 0.84861 0.73811 0.77897 0.0
loop_
_geom_bond_atom_site_label_1
_geom_bond_atom_site_label_2
_geom_bond_distance
_geom_bond_site_symmetry_2
_ccdc_geom_bond_type
Sm0 C2 2.846 . S
Sm0 O20 2.543 . S
Sm0 O21 2.450 . S
Sm0 O22 2.681 1_554 S
Sm0 O23 2.464 . S
Sm0 O24 2.396 . S
Sm0 O28 2.386 . S
Sm0 O31 2.408 1_554 S
Sm1 C11 2.846 . S
Sm1 O22 2.386 . S
Sm1 O25 2.408 1_556 S
Sm1 O26 2.543 . S
Sm1 O27 2.450 . S
Sm1 O28 2.681 1_556 S
Sm1 O29 2.464 . S
Sm1 O30 2.396 . S
C2 Sm0 2.846 . S
C2 C3 1.506 . S
C2 O20 1.261 . S
C2 O21 1.242 . S
C3 C2 1.506 . S
C3 C4 1.358 . S
C3 C8 1.382 . S
C4 C3 1.358 . S
C4 C5 1.385 . S
C4 H32 0.930 . S
C5 C4 1.385 . S
C5 C6 1.395 . S
C5 H33 0.929 . S
C6 C5 1.395 . S
C6 C7 1.335 . S
C7 C6 1.335 . S
C7 C8 1.398 . S
C7 H34 0.930 . S
C8 C3 1.382 . S
C8 C7 1.398 . S
C8 H35 0.929 . S
C9 O22 1.271 1_554 S
C9 O23 1.251 . S
C10 O24 1.252 . S
C10 O25 1.272 . S
C11 Sm1 2.846 . S
C11 C12 1.506 . S
C11 O26 1.261 . S
C11 O27 1.242 . S
C12 C11 1.506 . S
C12 C13 1.358 . S
C12 C17 1.382 . S
C13 C12 1.358 . S
C13 C14 1.385 . S
C13 H36 0.930 . S
C14 C13 1.385 . S
C14 C15 1.395 . S
C14 H37 0.929 . S
C15 C14 1.395 . S
C15 C16 1.335 . S
C16 C15 1.335 . S
C16 C17 1.398 . S
C16 H38 0.930 . S
C17 C12 1.382 . S
C17 C16 1.398 . S
C17 H39 0.929 . S
C18 O28 1.271 1_556 S
C18 O29 1.251 . S
C19 O30 1.252 . S
C19 O31 1.272 . S
O20 Sm0 2.543 . S
O20 C2 1.261 . S
O21 Sm0 2.450 . S
O21 C2 1.242 . S
O22 Sm0 2.681 1_556 S
O22 Sm1 2.386 . S
O22 C9 1.271 1_556 S
O23 Sm0 2.464 . S
O23 C9 1.251 . S
O24 Sm0 2.396 . S
O24 C10 1.252 . S
O25 Sm1 2.408 1_554 S
O25 C10 1.272 . S
O26 Sm1 2.543 . S
O26 C11 1.261 . S
O27 Sm1 2.450 . S
O27 C11 1.242 . S
O28 Sm0 2.386 . S
O28 Sm1 2.681 1_554 S
O28 C18 1.271 1_554 S
O29 Sm1 2.464 . S
O29 C18 1.251 . S
O30 Sm1 2.396 . S
O30 C19 1.252 . S
O31 Sm0 2.408 1_556 S
O31 C19 1.272 . S
H32 C4 0.930 . S
H33 C5 0.929 . S
H34 C7 0.930 . S
H35 C8 0.929 . S
H36 C13 0.930 . S
H37 C14 0.929 . S
H38 C16 0.930 . S
H39 C17 0.929 . S
Sm40 C42 2.846 . S
Sm40 O60 2.543 . S
Sm40 O61 2.450 . S
Sm40 O62 2.681 1_554 S
Sm40 O63 2.464 . S
Sm40 O64 2.396 . S
Sm40 O68 2.386 . S
Sm40 O71 2.408 1_554 S
Sm41 C51 2.846 . S
Sm41 O62 2.386 . S
Sm41 O65 2.408 1_556 S
Sm41 O66 2.543 . S
Sm41 O67 2.450 . S
Sm41 O68 2.681 1_556 S
Sm41 O69 2.464 . S
Sm41 O70 2.396 . S
C42 Sm40 2.846 . S
C42 C43 1.506 . S
C42 O60 1.261 . S
C42 O61 1.242 . S
C43 C42 1.506 . S
C43 C44 1.358 . S
C43 C48 1.382 . S
C44 C43 1.358 . S
C44 C45 1.385 . S
C44 H72 0.930 . S
C45 C44 1.385 . S
C45 C46 1.395 . S
C45 H73 0.929 . S
C46 C45 1.395 . S
C46 C47 1.335 . S
C47 C46 1.335 . S
C47 C48 1.398 . S
C47 H74 0.930 . S
C48 C43 1.382 . S
C48 C47 1.398 . S
C48 H75 0.929 . S
C49 O62 1.271 1_554 S
C49 O63 1.251 . S
C50 O64 1.252 . S
C50 O65 1.272 . S
C51 Sm41 2.846 . S
C51 C52 1.506 . S
C51 O66 1.261 . S
C51 O67 1.242 . S
C52 C51 1.506 . S
C52 C53 1.358 . S
C52 C57 1.382 . S
C53 C52 1.358 . S
C53 C54 1.385 . S
C53 H76 0.930 . S
C54 C53 1.385 . S
C54 C55 1.395 . S
C54 H77 0.929 . S
C55 C54 1.395 . S
C55 C56 1.335 . S
C56 C55 1.335 . S
C56 C57 1.398 . S
C56 H78 0.930 . S
C57 C52 1.382 . S
C57 C56 1.398 . S
C57 H79 0.929 . S
C58 O68 1.271 1_556 S
C58 O69 1.251 . S
C59 O70 1.252 . S
C59 O71 1.272 . S
O60 Sm40 2.543 . S
O60 C42 1.261 . S
O61 Sm40 2.450 . S
O61 C42 1.242 . S
O62 Sm40 2.681 1_556 S
O62 Sm41 2.386 . S
O62 C49 1.271 1_556 S
O63 Sm40 2.464 . S
O63 C49 1.251 . S
O64 Sm40 2.396 . S
O64 C50 1.252 . S
O65 Sm41 2.408 1_554 S
O65 C50 1.272 . S
O66 Sm41 2.543 . S
O66 C51 1.261 . S
O67 Sm41 2.450 . S
O67 C51 1.242 . S
O68 Sm40 2.386 . S
O68 Sm41 2.681 1_554 S
O68 C58 1.271 1_554 S
O69 Sm41 2.464 . S
O69 C58 1.251 . S
O70 Sm41 2.396 . S
O70 C59 1.252 . S
O71 Sm40 2.408 1_556 S
O71 C59 1.272 . S
H72 C44 0.930 . S
H73 C45 0.929 . S
H74 C47 0.930 . S
H75 C48 0.929 . S
H76 C53 0.930 . S
H77 C54 0.929 . S
H78 C56 0.930 . S
H79 C57 0.929 . S
Sm80 C82 2.846 . S
Sm80 O100 2.543 . S
Sm80 O101 2.450 . S
Sm80 O102 2.681 . S
Sm80 O103 2.464 . S
Sm80 O104 2.396 . S
Sm80 O108 2.386 . S
Sm80 O111 2.408 . S
Sm81 C91 2.846 . S
Sm81 O102 2.386 . S
Sm81 O105 2.408 . S
Sm81 O106 2.543 . S
Sm81 O107 2.450 . S
Sm81 O108 2.681 . S
Sm81 O109 2.464 . S
Sm81 O110 2.396 . S
C82 Sm80 2.846 . S
C82 C83 1.506 . S
C82 O100 1.261 . S
C82 O101 1.242 . S
C83 C82 1.506 . S
C83 C84 1.358 . S
C83 C88 1.382 . S
C84 C83 1.358 . S
C84 C85 1.385 . S
C84 H112 0.930 . S
C85 C84 1.385 . S
C85 C86 1.395 . S
C85 H113 0.929 . S
C86 C85 1.395 . S
C86 C87 1.335 . S
C87 C86 1.335 . S
C87 C88 1.398 . S
C87 H114 0.930 . S
C88 C83 1.382 . S
C88 C87 1.398 . S
C88 H115 0.929 . S
C89 O102 1.271 . S
C89 O103 1.251 . S
C90 O104 1.252 . S
C90 O105 1.272 . S
C91 Sm81 2.846 . S
C91 C92 1.506 . S
C91 O106 1.261 . S
C91 O107 1.242 . S
C92 C91 1.506 . S
C92 C93 1.358 . S
C92 C97 1.382 . S
C93 C92 1.358 . S
C93 C94 1.385 . S
C93 H116 0.930 . S
C94 C93 1.385 . S
C94 C95 1.395 . S
C94 H117 0.929 . S
C95 C94 1.395 . S
C95 C96 1.335 . S
C96 C95 1.335 . S
C96 C97 1.398 . S
C96 H118 0.930 . S
C97 C92 1.382 . S
C97 C96 1.398 . S
C97 H119 0.929 . S
C98 O108 1.271 . S
C98 O109 1.251 . S
C99 O110 1.252 . S
C99 O111 1.272 . S
O100 Sm80 2.543 . S
O100 C82 1.261 . S
O101 Sm80 2.450 . S
O101 C82 1.242 . S
O102 Sm80 2.681 . S
O102 Sm81 2.386 . S
O102 C89 1.271 . S
O103 Sm80 2.464 . S
O103 C89 1.251 . S
O104 Sm80 2.396 . S
O104 C90 1.252 . S
O105 Sm81 2.408 . S
O105 C90 1.272 . S
O106 Sm81 2.543 . S
O106 C91 1.261 . S
O107 Sm81 2.450 . S
O107 C91 1.242 . S
O108 Sm80 2.386 . S
O108 Sm81 2.681 . S
O108 C98 1.271 . S
O109 Sm81 2.464 . S
O109 C98 1.251 . S
O110 Sm81 2.396 . S
O110 C99 1.252 . S
O111 Sm80 2.408 . S
O111 C99 1.272 . S
H112 C84 0.930 . S
H113 C85 0.929 . S
H114 C87 0.930 . S
H115 C88 0.929 . S
H116 C93 0.930 . S
H117 C94 0.929 . S
H118 C96 0.930 . S
H119 C97 0.929 . S
Sm120 C122 2.846 . S
Sm120 O140 2.543 . S
Sm120 O141 2.450 . S
Sm120 O142 2.681 . S
Sm120 O143 2.464 . S
Sm120 O144 2.396 . S
Sm120 O148 2.386 . S
Sm120 O151 2.408 . S
Sm121 C131 2.846 . S
Sm121 O142 2.386 . S
Sm121 O145 2.408 . S
Sm121 O146 2.543 . S
Sm121 O147 2.450 . S
Sm121 O148 2.681 . S
Sm121 O149 2.464 . S
Sm121 O150 2.396 . S
C122 Sm120 2.846 . S
C122 C123 1.506 . S
C122 O140 1.261 . S
C122 O141 1.242 . S
C123 C122 1.506 . S
C123 C124 1.358 . S
C123 C128 1.382 . S
C124 C123 1.358 . S
C124 C125 1.385 . S
C124 H152 0.930 . S
C125 C124 1.385 . S
C125 C126 1.395 . S
C125 H153 0.929 . S
C126 C125 1.395 . S
C126 C127 1.335 . S
C127 C126 1.335 . S
C127 C128 1.398 . S
C127 H154 0.930 . S
C128 C123 1.382 . S
C128 C127 1.398 . S
C128 H155 0.929 . S
C129 O142 1.271 . S
C129 O143 1.251 . S
C130 O144 1.252 . S
C130 O145 1.272 . S
C131 Sm121 2.846 . S
C131 C132 1.506 . S
C131 O146 1.261 . S
C131 O147 1.242 . S
C132 C131 1.506 . S
C132 C133 1.358 . S
C132 C137 1.382 . S
C133 C132 1.358 . S
C133 C134 1.385 . S
C133 H156 0.930 . S
C134 C133 1.385 . S
C134 C135 1.395 . S
C134 H157 0.929 . S
C135 C134 1.395 . S
C135 C136 1.335 . S
C136 C135 1.335 . S
C136 C137 1.398 . S
C136 H158 0.930 . S
C137 C132 1.382 . S
C137 C136 1.398 . S
C137 H159 0.929 . S
C138 O148 1.271 . S
C138 O149 1.251 . S
C139 O150 1.252 . S
C139 O151 1.272 . S
O140 Sm120 2.543 . S
O140 C122 1.261 . S
O141 Sm120 2.450 . S
O141 C122 1.242 . S
O142 Sm120 2.681 . S
O142 Sm121 2.386 . S
O142 C129 1.271 . S
O143 Sm120 2.464 . S
O143 C129 1.251 . S
O144 Sm120 2.396 . S
O144 C130 1.252 . S
O145 Sm121 2.408 . S
O145 C130 1.272 . S
O146 Sm121 2.543 . S
O146 C131 1.261 . S
O147 Sm121 2.450 . S
O147 C131 1.242 . S
O148 Sm120 2.386 . S
O148 Sm121 2.681 . S
O148 C138 1.271 . S
O149 Sm121 2.464 . S
O149 C138 1.251 . S
O150 Sm121 2.396 . S
O150 C139 1.252 . S
O151 Sm120 2.408 . S
O151 C139 1.272 . S
H152 C124 0.930 . S
H153 C125 0.929 . S
H154 C127 0.930 . S
H155 C128 0.929 . S
H156 C133 0.930 . S
H157 C134 0.929 . S
H158 C136 0.930 . S
H159 C137 0.929 . S
C160 C161 1.349 1_554 S
C160 C162 1.327 . S
C160 H185 0.950 . S
C161 C160 1.349 1_556 S
C161 C177 1.349 . S
C162 C160 1.327 . S
C162 C181 1.429 1_554 S
C162 H186 0.950 . S
C163 C180 1.574 . S
C163 C182 1.363 . S
C163 H187 0.949 . S
H164 C168 0.949 . S
C165 C166 1.349 1_556 S
C165 C167 1.327 . S
C165 H188 0.950 . S
C166 C165 1.349 1_554 S
C166 C178 1.349 . S
C167 C165 1.327 . S
C167 C183 1.429 1_556 S
C167 H189 0.950 . S
C168 H164 0.949 . S
C168 C176 1.574 . S
C168 C184 1.357 . S
H169 C177 0.950 . S
H170 C175 0.950 . S
H171 C176 0.949 . S
H172 C178 0.950 . S
H173 C179 0.950 . S
H174 C180 0.949 . S
C175 H170 0.950 . S
C175 C177 1.327 . S
C175 C181 1.429 . S
C176 C168 1.574 . S
C176 H171 0.949 . S
C176 C182 1.369 1_554 S
C177 C161 1.349 . S
C177 H169 0.950 . S
C177 C175 1.327 . S
C178 C166 1.349 . S
C178 H172 0.950 . S
C178 C179 1.327 . S
C179 H173 0.950 . S
C179 C178 1.327 . S
C179 C183 1.429 . S
C180 C163 1.574 . S
C180 H174 0.949 . S
C180 C184 1.371 1_556 S
C181 C162 1.429 1_556 S
C181 C175 1.429 . S
C181 C182 1.529 . S
C182 C163 1.363 . S
C182 C176 1.369 1_556 S
C182 C181 1.529 . S
C183 C167 1.429 1_554 S
C183 C179 1.429 . S
C183 C184 1.537 . S
C184 C168 1.357 . S
C184 C180 1.371 1_554 S
C184 C183 1.537 . S
H185 C160 0.950 . S
H186 C162 0.950 . S
H187 C163 0.949 . S
H188 C165 0.950 . S
H189 C167 0.950 . S
C190 C191 1.349 . S
C190 C192 1.327 . S
C190 H215 0.950 . S
C191 C190 1.349 . S
C191 C207 1.349 . S
C192 C190 1.327 . S
C192 C211 1.429 . S
C192 H216 0.950 . S
C193 C210 1.574 . S
C193 C212 1.368 . S
C193 H217 0.949 . S
H194 C198 0.949 . S
C195 C196 1.349 . S
C195 C197 1.327 . S
C195 H218 0.950 . S
C196 C195 1.349 . S
C196 C208 1.349 . S
C197 C195 1.327 . S
C197 C213 1.429 . S
C197 H219 0.950 . S
C198 H194 0.949 . S
C198 C206 1.574 . S
C198 C214 1.368 . S
H199 C207 0.950 . S
H200 C205 0.950 . S
H201 C206 0.949 . S
H202 C208 0.950 . S
H203 C209 0.950 . S
H204 C210 0.949 . S
C205 H200 0.950 . S
C205 C207 1.327 . S
C205 C211 1.429 . S
C206 C198 1.574 . S
C206 H201 0.949 . S
C206 C212 1.368 . S
C207 C191 1.349 . S
C207 H199 0.950 . S
C207 C205 1.327 . S
C208 C196 1.349 . S
C208 H202 0.950 . S
C208 C209 1.327 . S
C209 H203 0.950 . S
C209 C208 1.327 . S
C209 C213 1.429 . S
C210 C193 1.574 . S
C210 H204 0.949 . S
C210 C214 1.368 . S
C211 C192 1.429 . S
C211 C205 1.429 . S
C211 C212 1.523 . S
C212 C193 1.368 . S
C212 C206 1.368 . S
C212 C211 1.523 . S
C213 C197 1.429 . S
C213 C209 1.429 . S
C213 C214 1.523 . S
C214 C198 1.368 . S
C214 C210 1.368 . S
C214 C213 1.523 . S
H215 C190 0.950 . S
H216 C192 0.950 . S
H217 C193 0.949 . S
H218 C195 0.950 . S
H219 C197 0.950 . S
C220 C221 1.349 1_554 S
C220 C222 1.327 . S
C220 H245 0.950 . S
C221 C220 1.349 1_556 S
C221 C237 1.349 . S
C222 C220 1.327 . S
C222 C241 1.429 1_554 S
C222 H246 0.950 . S
C223 C240 1.595 . S
C223 C242 1.357 1_565 S
C223 H247 0.949 . S
H224 C228 0.949 . S
C225 C226 1.349 1_556 S
C225 C227 1.327 . S
C225 H248 0.950 . S
C226 C225 1.349 1_554 S
C226 C238 1.349 . S
C227 C225 1.327 . S
C227 C243 1.429 1_556 S
C227 H249 0.950 . S
C228 H224 0.949 . S
C228 C236 1.595 . S
C228 C244 1.369 1_545 S
H229 C237 0.950 . S
H230 C235 0.950 . S
H231 C236 0.949 . S
H232 C238 0.950 . S
H233 C239 0.950 . S
H234 C240 0.949 . S
C235 H230 0.950 . S
C235 C237 1.327 . S
C235 C241 1.429 . S
C236 C228 1.595 . S
C236 H231 0.949 . S
C236 C242 1.354 1_654 S
C237 C221 1.349 . S
C237 H229 0.950 . S
C237 C235 1.327 . S
C238 C226 1.349 . S
C238 H232 0.950 . S
C238 C239 1.327 . S
C239 H233 0.950 . S
C239 C238 1.327 . S
C239 C243 1.429 . S
C240 C223 1.595 . S
C240 H234 0.949 . S
C240 C244 1.337 1_456 S
C241 C222 1.429 1_556 S
C241 C235 1.429 . S
C241 C242 1.529 . S
C242 C223 1.357 1_545 S
C242 C236 1.354 1_456 S
C242 C241 1.529 . S
C243 C227 1.429 1_554 S
C243 C239 1.429 . S
C243 C244 1.537 . S
C244 C228 1.369 1_565 S
C244 C240 1.337 1_654 S
C244 C243 1.537 . S
H245 C220 0.950 . S
H246 C222 0.950 . S
H247 C223 0.949 . S
H248 C225 0.950 . S
H249 C227 0.950 . S
C250 C251 1.349 . S
C250 C252 1.327 . S
C250 H275 0.950 . S
C251 C250 1.349 . S
C251 C267 1.349 . S
C252 C250 1.327 . S
C252 C271 1.429 . S
C252 H276 0.950 . S
C253 C270 1.574 1_645 S
C253 C272 1.368 . S
C253 H277 0.949 . S
H254 C258 0.949 . S
C255 C256 1.349 . S
C255 C257 1.327 . S
C255 H278 0.950 . S
C256 C255 1.349 . S
C256 C268 1.349 . S
C257 C255 1.327 . S
C257 C273 1.429 . S
C257 H279 0.950 . S
C258 H254 0.949 . S
C258 C266 1.574 1_465 S
C258 C274 1.368 . S
H259 C267 0.950 . S
H260 C265 0.950 . S
H261 C266 0.949 . S
H262 C268 0.950 . S
H263 C269 0.950 . S
H264 C270 0.949 . S
C265 H260 0.950 . S
C265 C267 1.327 . S
C265 C271 1.429 . S
C266 C258 1.574 1_645 S
C266 H261 0.949 . S
C266 C272 1.368 . S
C267 C251 1.349 . S
C267 H259 0.950 . S
C267 C265 1.327 . S
C268 C256 1.349 . S
C268 H262 0.950 . S
C268 C269 1.327 . S
C269 H263 0.950 . S
C269 C268 1.327 . S
C269 C273 1.429 . S
C270 C253 1.574 1_465 S
C270 H264 0.949 . S
C270 C274 1.368 . S
C271 C252 1.429 . S
C271 C265 1.429 . S
C271 C272 1.523 . S
C272 C253 1.368 . S
C272 C266 1.368 . S
C272 C271 1.523 . S
C273 C257 1.429 . S
C273 C269 1.429 . S
C273 C274 1.523 . S
C274 C258 1.368 . S
C274 C270 1.368 . S
C274 C273 1.523 . S
H275 C250 0.950 . S
H276 C252 0.950 . S
H277 C253 0.949 . S
H278 C255 0.950 . S
H279 C257 0.950 . S
C280 C281 1.349 . S
C280 C282 1.327 . S
C280 H305 0.950 . S
C281 C280 1.349 . S
C281 C297 1.349 . S
C282 C280 1.327 . S
C282 C301 1.429 . S
C282 H306 0.950 . S
C283 C300 1.574 . S
C283 C302 1.368 . S
C283 H307 0.949 . S
H284 C288 0.949 . S
C285 C286 1.349 . S
C285 C287 1.327 . S
C285 H308 0.950 . S
C286 C285 1.349 . S
C286 C298 1.349 . S
C287 C285 1.327 . S
C287 C303 1.429 . S
C287 H309 0.950 . S
C288 H284 0.949 . S
C288 C296 1.574 . S
C288 C304 1.368 . S
H289 C297 0.950 . S
H290 C295 0.950 . S
H291 C296 0.949 . S
H292 C298 0.950 . S
H293 C299 0.950 . S
H294 C300 0.949 . S
C295 H290 0.950 . S
C295 C297 1.327 . S
C295 C301 1.429 . S
C296 C288 1.574 . S
C296 H291 0.949 . S
C296 C302 1.368 . S
C297 C281 1.349 . S
C297 H289 0.950 . S
C297 C295 1.327 . S
C298 C286 1.349 . S
C298 H292 0.950 . S
C298 C299 1.327 . S
C299 H293 0.950 . S
C299 C298 1.327 . S
C299 C303 1.429 . S
C300 C283 1.574 . S
C300 H294 0.949 . S
C300 C304 1.368 . S
C301 C282 1.429 . S
C301 C295 1.429 . S
C301 C302 1.523 . S
C302 C283 1.368 . S
C302 C296 1.368 . S
C302 C301 1.523 . S
C303 C287 1.429 . S
C303 C299 1.429 . S
C303 C304 1.523 . S
C304 C288 1.368 . S
C304 C300 1.368 . S
C304 C303 1.523 . S
H305 C280 0.950 . S
H306 C282 0.950 . S
H307 C283 0.949 . S
H308 C285 0.950 . S
H309 C287 0.950 . S
C310 C311 1.349 . S
C310 C312 1.327 . S
C310 H335 0.950 . S
C311 C310 1.349 . S
C311 C327 1.349 . S
C312 C310 1.327 . S
C312 C331 1.429 . S
C312 H336 0.950 . S
C313 C330 1.574 . S
C313 C332 1.368 . S
C313 H337 0.949 . S
H314 C318 0.949 . S
C315 C316 1.349 . S
C315 C317 1.327 . S
C315 H338 0.950 . S
C316 C315 1.349 . S
C316 C328 1.349 . S
C317 C315 1.327 . S
C317 C333 1.429 . S
C317 H339 0.950 . S
C318 H314 0.949 . S
C318 C326 1.574 . S
C318 C334 1.368 . S
H319 C327 0.950 . S
H320 C325 0.950 . S
H321 C326 0.949 . S
H322 C328 0.950 . S
H323 C329 0.950 . S
H324 C330 0.949 . S
C325 H320 0.950 . S
C325 C327 1.327 . S
C325 C331 1.429 . S
C326 C318 1.574 . S
C326 H321 0.949 . S
C326 C332 1.368 . S
C327 C311 1.349 . S
C327 H319 0.950 . S
C327 C325 1.327 . S
C328 C316 1.349 . S
C328 H322 0.950 . S
C328 C329 1.327 . S
C329 H323 0.950 . S
C329 C328 1.327 . S
C329 C333 1.429 . S
C330 C313 1.574 . S
C330 H324 0.949 . S
C330 C334 1.368 . S
C331 C312 1.429 . S
C331 C325 1.429 . S
C331 C332 1.523 . S
C332 C313 1.368 . S
C332 C326 1.368 . S
C332 C331 1.523 . S
C333 C317 1.429 . S
C333 C329 1.429 . S
C333 C334 1.523 . S
C334 C318 1.368 . S
C334 C330 1.368 . S
C334 C333 1.523 . S
H335 C310 0.950 . S
H336 C312 0.950 . S
H337 C313 0.949 . S
H338 C315 0.950 . S
H339 C317 0.950 . S
C340 C341 1.349 . S
C340 C342 1.327 . S
C340 H365 0.950 . S
C341 C340 1.349 . S
C341 C357 1.349 . S
C342 C340 1.327 . S
C342 C361 1.429 . S
C342 H366 0.950 . S
C343 C360 1.574 . S
C343 C362 1.368 . S
C343 H367 0.949 . S
H344 C348 0.949 . S
C345 C346 1.349 . S
C345 C347 1.327 . S
C345 H368 0.950 . S
C346 C345 1.349 . S
C346 C358 1.349 . S
C347 C345 1.327 . S
C347 C363 1.429 . S
C347 H369 0.950 . S
C348 H344 0.949 . S
C348 C356 1.574 . S
C348 C364 1.368 . S
H349 C357 0.950 . S
H350 C355 0.950 . S
H351 C356 0.949 . S
H352 C358 0.950 . S
H353 C359 0.950 . S
H354 C360 0.949 . S
C355 H350 0.950 . S
C355 C357 1.327 . S
C355 C361 1.429 . S
C356 C348 1.574 . S
C356 H351 0.949 . S
C356 C362 1.368 . S
C357 C341 1.349 . S
C357 H349 0.950 . S
C357 C355 1.327 . S
C358 C346 1.349 . S
C358 H352 0.950 . S
C358 C359 1.327 . S
C359 H353 0.950 . S
C359 C358 1.327 . S
C359 C363 1.429 . S
C360 C343 1.574 . S
C360 H354 0.949 . S
C360 C364 1.368 . S
C361 C342 1.429 . S
C361 C355 1.429 . S
C361 C362 1.523 . S
C362 C343 1.368 . S
C362 C356 1.368 . S
C362 C361 1.523 . S
C363 C347 1.429 . S
C363 C359 1.429 . S
C363 C364 1.523 . S
C364 C348 1.368 . S
C364 C360 1.368 . S
C364 C363 1.523 . S
H365 C340 0.950 . S
H366 C342 0.950 . S
H367 C343 0.949 . S
H368 C345 0.950 . S
H369 C347 0.950 . S
C370 C371 1.349 . S
C370 C372 1.327 . S
C370 H395 0.950 . S
C371 C370 1.349 . S
C371 C387 1.349 . S
C372 C370 1.327 . S
C372 C391 1.429 . S
C372 H396 0.950 . S
C373 C390 1.574 . S
C373 C392 1.368 . S
C373 H397 0.949 . S
H374 C378 0.949 . S
C375 C376 1.349 . S
C375 C377 1.327 . S
C375 H398 0.950 . S
C376 C375 1.349 . S
C376 C388 1.349 . S
C377 C375 1.327 . S
C377 C393 1.429 . S
C377 H399 0.950 . S
C378 H374 0.949 . S
C378 C386 1.574 . S
C378 C394 1.368 . S
H379 C387 0.950 . S
H380 C385 0.950 . S
H381 C386 0.949 . S
H382 C388 0.950 . S
H383 C389 0.950 . S
H384 C390 0.949 . S
C385 H380 0.950 . S
C385 C387 1.327 . S
C385 C391 1.429 . S
C386 C378 1.574 . S
C386 H381 0.949 . S
C386 C392 1.368 . S
C387 C371 1.349 . S
C387 H379 0.950 . S
C387 C385 1.327 . S
C388 C376 1.349 . S
C388 H382 0.950 . S
C388 C389 1.327 . S
C389 H383 0.950 . S
C389 C388 1.327 . S
C389 C393 1.429 . S
C390 C373 1.574 . S
C390 H384 0.949 . S
C390 C394 1.368 . S
C391 C372 1.429 . S
C391 C385 1.429 . S
C391 C392 1.523 . S
C392 C373 1.368 . S
C392 C386 1.368 . S
C392 C391 1.523 . S
C393 C377 1.429 . S
C393 C389 1.429 . S
C393 C394 1.523 . S
C394 C378 1.368 . S
C394 C390 1.368 . S
C394 C393 1.523 . S
H395 C370 0.950 . S
H396 C372 0.950 . S
H397 C373 0.949 . S
H398 C375 0.950 . S
H399 C377 0.950 . S
C400 C401 1.349 . S
C400 C402 1.327 . S
C400 H425 0.950 . S
C401 C400 1.349 . S
C401 C417 1.349 . S
C402 C400 1.327 . S
C402 C421 1.429 . S
C402 H426 0.950 . S
C403 C420 1.574 . S
C403 C422 1.368 . S
C403 H427 0.949 . S
H404 C408 0.949 . S
C405 C406 1.349 . S
C405 C407 1.327 . S
C405 H428 0.950 . S
C406 C405 1.349 . S
C406 C418 1.349 . S
C407 C405 1.327 . S
C407 C423 1.429 . S
C407 H429 0.950 . S
C408 H404 0.949 . S
C408 C416 1.574 . S
C408 C424 1.368 . S
H409 C417 0.950 . S
H410 C415 0.950 . S
H411 C416 0.949 . S
H412 C418 0.950 . S
H413 C419 0.950 . S
H414 C420 0.949 . S
C415 H410 0.950 . S
C415 C417 1.327 . S
C415 C421 1.429 . S
C416 C408 1.574 . S
C416 H411 0.949 . S
C416 C422 1.368 1_455 S
C417 C401 1.349 . S
C417 H409 0.950 . S
C417 C415 1.327 . S
C418 C406 1.349 . S
C418 H412 0.950 . S
C418 C419 1.327 . S
C419 H413 0.950 . S
C419 C418 1.327 . S
C419 C423 1.429 . S
C420 C403 1.574 . S
C420 H414 0.949 . S
C420 C424 1.368 1_655 S
C421 C402 1.429 . S
C421 C415 1.429 . S
C421 C422 1.523 . S
C422 C403 1.368 . S
C422 C416 1.368 1_655 S
C422 C421 1.523 . S
C423 C407 1.429 . S
C423 C419 1.429 . S
C423 C424 1.523 . S
C424 C408 1.368 . S
C424 C420 1.368 1_455 S
C424 C423 1.523 . S
H425 C400 0.950 . S
H426 C402 0.950 . S
H427 C403 0.949 . S
H428 C405 0.950 . S
H429 C407 0.950 . S
C430 C431 1.349 . S
C430 C432 1.327 1_655 S
C430 H455 0.950 1_655 S
C431 C430 1.349 . S
C431 C447 1.349 . S
C432 C430 1.327 1_455 S
C432 C451 1.429 1_455 S
C432 H456 0.950 . S
C433 C450 1.574 . S
C433 C452 1.368 . S
C433 H457 0.949 . S
H434 C438 0.949 . S
C435 C436 1.349 . S
C435 C437 1.327 1_455 S
C435 H458 0.950 1_455 S
C436 C435 1.349 . S
C436 C448 1.349 . S
C437 C435 1.327 1_655 S
C437 C453 1.429 1_655 S
C437 H459 0.950 . S
C438 H434 0.949 . S
C438 C446 1.574 . S
C438 C454 1.368 . S
H439 C447 0.950 . S
H440 C445 0.950 . S
H441 C446 0.949 . S
H442 C448 0.950 . S
H443 C449 0.950 . S
H444 C450 0.949 . S
C445 H440 0.950 . S
C445 C447 1.327 . S
C445 C451 1.429 . S
C446 C438 1.574 . S
C446 H441 0.949 . S
C446 C452 1.368 1_455 S
C447 C431 1.349 . S
C447 H439 0.950 . S
C447 C445 1.327 . S
C448 C436 1.349 . S
C448 H442 0.950 . S
C448 C449 1.327 . S
C449 H443 0.950 . S
C449 C448 1.327 . S
C449 C453 1.429 . S
C450 C433 1.574 . S
C450 H444 0.949 . S
C450 C454 1.368 1_655 S
C451 C432 1.429 1_655 S
C451 C445 1.429 . S
C451 C452 1.523 . S
C452 C433 1.368 . S
C452 C446 1.368 1_655 S
C452 C451 1.523 . S
C453 C437 1.429 1_455 S
C453 C449 1.429 . S
C453 C454 1.523 . S
C454 C438 1.368 . S
C454 C450 1.368 1_455 S
C454 C453 1.523 . S
H455 C430 0.950 1_455 S
H456 C432 0.950 . S
H457 C433 0.949 . S
H458 C435 0.950 1_655 S
H459 C437 0.950 . S
C460 C461 1.349 . S
C460 C462 1.327 . S
C460 H485 0.950 . S
C461 C460 1.349 . S
C461 C477 1.349 . S
C462 C460 1.327 . S
C462 C481 1.429 . S
C462 H486 0.950 . S
C463 C480 1.574 . S
C463 C482 1.368 . S
C463 H487 0.949 . S
H464 C468 0.949 . S
C465 C466 1.349 . S
C465 C467 1.327 . S
C465 H488 0.950 . S
C466 C465 1.349 . S
C466 C478 1.349 . S
C467 C465 1.327 . S
C467 C483 1.429 . S
C467 H489 0.950 . S
C468 H464 0.949 . S
C468 C476 1.574 . S
C468 C484 1.368 . S
H469 C477 0.950 . S
H470 C475 0.950 . S
H471 C476 0.949 . S
H472 C478 0.950 . S
H473 C479 0.950 . S
H474 C480 0.949 . S
C475 H470 0.950 . S
C475 C477 1.327 . S
C475 C481 1.429 . S
C476 C468 1.574 . S
C476 H471 0.949 . S
C476 C482 1.368 1_455 S
C477 C461 1.349 . S
C477 H469 0.950 . S
C477 C475 1.327 . S
C478 C466 1.349 . S
C478 H472 0.950 . S
C478 C479 1.327 . S
C479 H473 0.950 . S
C479 C478 1.327 . S
C479 C483 1.429 . S
C480 C463 1.574 . S
C480 H474 0.949 . S
C480 C484 1.368 1_655 S
C481 C462 1.429 . S
C481 C475 1.429 . S
C481 C482 1.523 . S
C482 C463 1.368 . S
C482 C476 1.368 1_655 S
C482 C481 1.523 . S
C483 C467 1.429 . S
C483 C479 1.429 . S
C483 C484 1.523 . S
C484 C468 1.368 . S
C484 C480 1.368 1_455 S
C484 C483 1.523 . S
H485 C460 0.950 . S
H486 C462 0.950 . S
H487 C463 0.949 . S
H488 C465 0.950 . S
H489 C467 0.950 . S
C490 C491 1.349 . S
C490 C492 1.327 . S
C490 H515 0.950 . S
C491 C490 1.349 . S
C491 C507 1.349 . S
C492 C490 1.327 . S
C492 C511 1.429 . S
C492 H516 0.950 . S
C493 C510 1.574 . S
C493 C512 1.368 1_655 S
C493 H517 0.949 . S
H494 C498 0.949 . S
C495 C496 1.349 . S
C495 C497 1.327 . S
C495 H518 0.950 . S
C496 C495 1.349 . S
C496 C508 1.349 . S
C497 C495 1.327 . S
C497 C513 1.429 . S
C497 H519 0.950 . S
C498 H494 0.949 . S
C498 C506 1.574 . S
C498 C514 1.368 1_455 S
H499 C507 0.950 1_655 S
H500 C505 0.950 . S
H501 C506 0.949 . S
H502 C508 0.950 1_455 S
H503 C509 0.950 . S
H504 C510 0.949 . S
C505 H500 0.950 . S
C505 C507 1.327 1_655 S
C505 C511 1.429 1_655 S
C506 C498 1.574 . S
C506 H501 0.949 . S
C506 C512 1.368 . S
C507 C491 1.349 . S
C507 H499 0.950 1_455 S
C507 C505 1.327 1_455 S
C508 C496 1.349 . S
C508 H502 0.950 1_655 S
C508 C509 1.327 1_655 S
C509 H503 0.950 . S
C509 C508 1.327 1_455 S
C509 C513 1.429 1_455 S
C510 C493 1.574 . S
C510 H504 0.949 . S
C510 C514 1.368 . S
C511 C492 1.429 . S
C511 C505 1.429 1_455 S
C511 C512 1.523 . S
C512 C493 1.368 1_455 S
C512 C506 1.368 . S
C512 C511 1.523 . S
C513 C497 1.429 . S
C513 C509 1.429 1_655 S
C513 C514 1.523 . S
C514 C498 1.368 1_655 S
C514 C510 1.368 . S
C514 C513 1.523 . S
H515 C490 0.950 . S
H516 C492 0.950 . S
H517 C493 0.949 . S
H518 C495 0.950 . S
H519 C497 0.950 . S
C161 C58 1.535 . S
C166 C9 1.535 . S
C191 C98 1.535 . S
C196 C129 1.535 . S
C221 C18 1.535 . S
C226 C49 1.535 . S
C251 C138 1.535 . S
C256 C89 1.535 . S
C281 C130 1.564 . S
C286 C10 1.564 . S
C311 C46 0.884 . S
C316 C86 0.884 . S
C341 C59 1.565 . S
C346 C99 1.565 . S
C371 C135 0.884 . S
C376 C15 0.884 . S
C401 C50 1.564 . S
C406 C90 1.564 . S
C431 C126 0.884 . S
C436 C6 0.884 . S
C461 C139 1.565 . S
C466 C19 1.565 . S
C491 C95 0.884 . S
C496 C55 0.884 . S
