# Generated by pormake.
# Topology ecn, (8)-cn, num edge types: 1
# Building blocks:
#     Node 0, Type 0, BuildingBlock: EBIMEJ_clean_sbu_0, # of connection points: 8
#     Node 1, Type 0, BuildingBlock: EBIMEJ_clean_sbu_0, # of connection points: 8
#     Node 2, Type 0, BuildingBlock: EBIMEJ_clean_sbu_0, # of connection points: 8
#     Node 3, Type 0, BuildingBlock: EBIMEJ_clean_sbu_0, # of connection points: 8
#     Node 4, Type 0, BuildingBlock: EBIMEJ_clean_sbu_0, # of connection points: 8
#     Node 5, Type 0, BuildingBlock: EBIMEJ_clean_sbu_0, # of connection points: 8
#     Node 6, Type 0, BuildingBlock: EBIMEJ_clean_sbu_0, # of connection points: 8
#     Node 7, Type 0, BuildingBlock: EBIMEJ_clean_sbu_0, # of connection points: 8
#     Node 8, Type 0, BuildingBlock: EBIMEJ_clean_sbu_0, # of connection points: 8
#     Edge 9, Type (0, 0), BuildingBlock: UVAHIK_clean_linker_0, # of connection points: 2
#     Edge 10, Type (0, 0), BuildingBlock: UVAHIK_clean_linker_0, # of connection points: 2
#     Edge 11, Type (0, 0), BuildingBlock: UVAHIK_clean_linker_0, # of connection points: 2
#     Edge 12, Type (0, 0), BuildingBlock: UVAHIK_clean_linker_0, # of connection points: 2
#     Edge 13, Type (0, 0), BuildingBlock: UVAHIK_clean_linker_0, # of connection points: 2
#     Edge 14, Type (0, 0), BuildingBlock: UVAHIK_clean_linker_0, # of connection points: 2
#     Edge 15, Type (0, 0), BuildingBlock: UVAHIK_clean_linker_0, # of connection points: 2
#     Edge 16, Type (0, 0), BuildingBlock: UVAHIK_clean_linker_0, # of connection points: 2
#     Edge 17, Type (0, 0), BuildingBlock: UVAHIK_clean_linker_0, # of connection points: 2
#     Edge 18, Type (0, 0), BuildingBlock: UVAHIK_clean_linker_0, # of connection points: 2
#     Edge 19, Type (0, 0), BuildingBlock: UVAHIK_clean_linker_0, # of connection points: 2
#     Edge 20, Type (0, 0), BuildingBlock: UVAHIK_clean_linker_0, # of connection points: 2
#     Edge 21, Type (0, 0), BuildingBlock: UVAHIK_clean_linker_0, # of connection points: 2
#     Edge 22, Type (0, 0), BuildingBlock: UVAHIK_clean_linker_0, # of connection points: 2
#     Edge 23, Type (0, 0), BuildingBlock: UVAHIK_clean_linker_0, # of connection points: 2
#     Edge 24, Type (0, 0), BuildingBlock: UVAHIK_clean_linker_0, # of connection points: 2
#     Edge 25, Type (0, 0), BuildingBlock: UVAHIK_clean_linker_0, # of connection points: 2
#     Edge 26, Type (0, 0), BuildingBlock: UVAHIK_clean_linker_0, # of connection points: 2
#     Edge 27, Type (0, 0), BuildingBlock: UVAHIK_clean_linker_0, # of connection points: 2
#     Edge 28, Type (0, 0), BuildingBlock: UVAHIK_clean_linker_0, # of connection points: 2
#     Edge 29, Type (0, 0), BuildingBlock: UVAHIK_clean_linker_0, # of connection points: 2
#     Edge 30, Type (0, 0), BuildingBlock: UVAHIK_clean_linker_0, # of connection points: 2
#     Edge 31, Type (0, 0), BuildingBlock: UVAHIK_clean_linker_0, # of connection points: 2
#     Edge 32, Type (0, 0), BuildingBlock: UVAHIK_clean_linker_0, # of connection points: 2
#     Edge 33, Type (0, 0), BuildingBlock: UVAHIK_clean_linker_0, # of connection points: 2
#     Edge 34, Type (0, 0), BuildingBlock: UVAHIK_clean_linker_0, # of connection points: 2
#     Edge 35, Type (0, 0), BuildingBlock: UVAHIK_clean_linker_0, # of connection points: 2
#     Edge 36, Type (0, 0), BuildingBlock: UVAHIK_clean_linker_0, # of connection points: 2
#     Edge 37, Type (0, 0), BuildingBlock: UVAHIK_clean_linker_0, # of connection points: 2
#     Edge 38, Type (0, 0), BuildingBlock: UVAHIK_clean_linker_0, # of connection points: 2
#     Edge 39, Type (0, 0), BuildingBlock: UVAHIK_clean_linker_0, # of connection points: 2
#     Edge 40, Type (0, 0), BuildingBlock: UVAHIK_clean_linker_0, # of connection points: 2
#     Edge 41, Type (0, 0), BuildingBlock: UVAHIK_clean_linker_0, # of connection points: 2
#     Edge 42, Type (0, 0), BuildingBlock: UVAHIK_clean_linker_0, # of connection points: 2
#     Edge 43, Type (0, 0), BuildingBlock: UVAHIK_clean_linker_0, # of connection points: 2
#     Edge 44, Type (0, 0), BuildingBlock: UVAHIK_clean_linker_0, # of connection points: 2
# Relax obj value: 0.177
# Max RMSD: 0.240
# Mean RMSD: 0.240
data_MOF--net-ecn--node1-EBIMEJ_clean_sbu_0--edge1-UVAHIK_clean_linker_0
_symmetry_space_group_name_H-M    P1
_symmetry_Int_Tables_number       1
_symmetry_cell_setting            triclinic
loop_
_symmetry_equiv_pos_as_xyz
'x, y, z'
_cell_length_a     66.591862
_cell_length_b     66.638152
_cell_length_c     19.860734
_cell_angle_alpha  90.081417
_cell_angle_beta   89.943464
_cell_angle_gamma 119.98414
loop_
_atom_site_label
_atom_site_type_symbol
_atom_site_fract_x
_atom_site_fract_y
_atom_site_fract_z
_atom_type_partial_charge
Co0 Co 0.17126 0.28823 0.96795 0.0
Co1 Co 0.14155 0.23507 0.01652 0.0
Co2 Co 0.1163 0.26117 -0.00615 0.0
H3 H 0.14369 0.27149 -0.00359 0.0
O4 O 0.14725 0.26657 0.03197 0.0
H5 H 0.11462 0.22429 0.00936 0.0
O6 O 0.11098 0.22986 0.97568 0.0
Co7 Co 0.08696 0.2049 0.03093 0.0
O8 O 0.09793 0.18139 0.02365 0.0
O9 O 0.13558 0.20327 -0.00025 0.0
O10 O 0.06672 0.21947 0.04057 0.0
O11 O 0.08304 0.25192 0.97783 0.0
O12 O 0.19392 0.32307 0.9521 0.0
O13 O 0.2034 0.29871 0.92682 0.0
O14 O 0.09604 0.21945 0.12141 0.0
O15 O 0.13284 0.22822 0.11451 0.0
C16 C 0.14105 0.31138 0.9751 0.0
C17 C 0.19227 0.26217 0.04152 0.0
C18 C 0.05052 0.16749 0.01715 0.0
C19 C 0.13791 0.26344 0.86127 0.0
C20 C 0.11751 0.18358 0.00822 0.0
C21 C 0.06595 0.23616 0.01146 0.0
C22 C 0.20949 0.31983 0.92779 0.0
C23 C 0.11523 0.22487 0.14894 0.0
O24 O 0.15919 0.31092 0.95576 0.0
O25 O 0.12385 0.29396 0.0031 0.0
O26 O 0.17296 0.24338 0.04511 0.0
O27 O 0.19437 0.28068 0.01514 0.0
O28 O 0.05558 0.18005 0.06861 0.0
O29 O 0.0662 0.17618 0.97331 0.0
O30 O 0.15688 0.26747 0.88803 0.0
O31 O 0.12267 0.26561 0.8945 0.0
Co32 Co 0.7452 0.88927 0.96695 0.0
Co33 Co 0.79872 0.91258 0.01215 0.0
Co34 Co 0.77199 0.86113 -0.00724 0.0
H35 H 0.76195 0.87841 -0.00486 0.0
O36 O 0.76719 0.88721 0.03002 0.0
H37 H 0.80905 0.89609 0.00726 0.0
O38 O 0.80349 0.88663 0.97407 0.0
Co39 Co 0.82795 0.88768 0.03211 0.0
O40 O 0.85169 0.92231 0.02844 0.0
O41 O 0.83056 0.93777 -0.00669 0.0
O42 O 0.81347 0.85284 0.03946 0.0
O43 O 0.78082 0.83682 0.97719 0.0
O44 O 0.71096 0.87596 0.93897 0.0
O45 O 0.73351 0.91147 0.93996 0.0
O46 O 0.80981 0.88064 0.11737 0.0
O47 O 0.80587 0.91164 0.11032 0.0
C48 C 0.72174 0.836 0.97439 0.0
C49 C 0.77232 0.93703 0.0362 0.0
C50 C 0.86576 0.88923 0.02073 0.0
C51 C 0.77013 0.88067 0.86088 0.0
C52 C 0.84999 0.93949 0.0076 0.0
C53 C 0.79668 0.83546 0.01023 0.0
C54 C 0.71321 0.89555 0.92835 0.0
C55 C 0.80589 0.8955 0.14479 0.0
O56 O 0.72232 0.85458 0.95443 0.0
O57 O 0.73909 0.83624 0.00289 0.0
O58 O 0.79108 0.9364 0.03792 0.0
O59 O 0.75327 0.92021 0.01358 0.0
O60 O 0.85237 0.88049 0.07007 0.0
O61 O 0.8577 0.89718 0.9779 0.0
O62 O 0.76679 0.89592 0.88878 0.0
O63 O 0.76727 0.86289 0.89336 0.0
Co64 Co 0.14391 0.86245 0.96333 0.0
Co65 Co 0.12085 0.89238 0.01219 0.0
Co66 Co 0.1723 0.91712 -0.0076 0.0
H67 H 0.15495 0.88983 -0.00656 0.0
O68 O 0.14621 0.8861 0.02849 0.0
H69 H 0.13737 0.91919 0.00798 0.0
O70 O 0.14679 0.9232 0.97468 0.0
Co71 Co 0.14592 0.94643 0.03399 0.0
O72 O 0.11126 0.93549 0.03306 0.0
O73 O 0.09567 0.89921 -0.00506 0.0
O74 O 0.18077 0.96669 0.04216 0.0
O75 O 0.19668 0.95032 0.97817 0.0
O76 O 0.12549 0.8331 0.90562 0.0
O77 O 0.1538 0.83761 0.96143 0.0
O78 O 0.1534 0.93498 0.11764 0.0
O79 O 0.12208 0.90028 0.11062 0.0
C80 C 0.19721 0.89187 0.97225 0.0
C81 C 0.09638 0.84141 0.03367 0.0
C82 C 0.14432 0.98264 0.02266 0.0
C83 C 0.15245 0.89664 0.86035 0.0
C84 C 0.09401 0.9168 0.01133 0.0
C85 C 0.19812 0.96739 0.01236 0.0
C86 C 0.13797 0.82464 0.92142 0.0
C87 C 0.13845 0.91627 0.14499 0.0
O88 O 0.17859 0.87408 0.9515 0.0
O89 O 0.19711 0.90897 0.00144 0.0
O90 O 0.09713 0.86083 0.03761 0.0
O91 O 0.11294 0.83922 0.00858 0.0
O92 O 0.14994 0.97645 0.07569 0.0
O93 O 0.13944 0.96816 0.97606 0.0
O94 O 0.13702 0.87811 0.88785 0.0
O95 O 0.17053 0.91108 0.89277 0.0
Co96 Co 0.83787 0.62127 0.2941 0.0
Co97 Co 0.80789 0.56815 0.34154 0.0
Co98 Co 0.78311 0.59489 0.3235 0.0
H99 H 0.81044 0.60483 0.32398 0.0
O100 O 0.81422 0.59974 0.35871 0.0
H101 H 0.78106 0.55783 0.33709 0.0
O102 O 0.77707 0.56339 0.30416 0.0
Co103 Co 0.75383 0.539 0.36284 0.0
O104 O 0.76471 0.51524 0.36043 0.0
O105 O 0.80112 0.5362 0.32367 0.0
O106 O 0.73345 0.55342 0.37217 0.0
O107 O 0.74985 0.58608 0.31012 0.0
O108 O 0.86869 0.63176 0.24438 0.0
O109 O 0.8616 0.65618 0.28581 0.0
O110 O 0.7655 0.55898 0.44469 0.0
O111 O 0.79987 0.56153 0.43992 0.0
C112 C 0.80834 0.64505 0.30527 0.0
C113 C 0.85887 0.59444 0.36267 0.0
C114 C 0.71768 0.50098 0.35314 0.0
C115 C 0.80361 0.59698 0.18956 0.0
C116 C 0.78353 0.51686 0.33909 0.0
C117 C 0.73276 0.57025 0.34368 0.0
C118 C 0.87592 0.65295 0.25323 0.0
C119 C 0.78409 0.56278 0.47302 0.0
O120 O 0.82612 0.64428 0.28395 0.0
O121 O 0.79127 0.62779 0.33425 0.0
O122 O 0.83941 0.57584 0.36666 0.0
O123 O 0.86106 0.6133 0.33879 0.0
O124 O 0.72325 0.51378 0.40421 0.0
O125 O 0.73275 0.50971 0.30766 0.0
O126 O 0.82231 0.6 0.21573 0.0
O127 O 0.78895 0.59975 0.22393 0.0
Co128 Co 0.41227 0.22294 0.29745 0.0
Co129 Co 0.46539 0.246 0.34537 0.0
Co130 Co 0.43857 0.19451 0.32673 0.0
H131 H 0.42867 0.21192 0.32729 0.0
O132 O 0.43374 0.22075 0.36212 0.0
H133 H 0.4757 0.22948 0.3405 0.0
O134 O 0.47009 0.21995 0.30748 0.0
Co135 Co 0.49457 0.22102 0.36551 0.0
O136 O 0.51813 0.25576 0.36704 0.0
O137 O 0.49741 0.27118 0.32813 0.0
O138 O 0.48003 0.18625 0.37547 0.0
O139 O 0.44736 0.17003 0.31329 0.0
O140 O 0.40169 0.24259 0.24462 0.0
O141 O 0.37744 0.21251 0.29286 0.0
O142 O 0.4751 0.21299 0.44842 0.0
O143 O 0.47192 0.24447 0.44367 0.0
C144 C 0.38839 0.16964 0.3082 0.0
C145 C 0.43917 0.27079 0.36625 0.0
C146 C 0.53233 0.22273 0.34907 0.0
C147 C 0.43656 0.2129 0.19291 0.0
C148 C 0.51663 0.27302 0.34556 0.0
C149 C 0.46315 0.16873 0.34696 0.0
C150 C 0.38058 0.22936 0.25702 0.0
C151 C 0.47103 0.22763 0.4767 0.0
O152 O 0.38922 0.18821 0.28701 0.0
O153 O 0.40562 0.16979 0.33727 0.0
O154 O 0.45772 0.26982 0.37092 0.0
O155 O 0.42036 0.25421 0.34172 0.0
O156 O 0.51702 0.20928 0.38949 0.0
O157 O 0.5262 0.23517 0.31804 0.0
O158 O 0.43359 0.22862 0.21918 0.0
O159 O 0.43371 0.19546 0.22717 0.0
Co160 Co 0.811 0.19498 0.30413 0.0
Co161 Co 0.78727 0.22489 0.35144 0.0
Co162 Co 0.83864 0.25009 0.32882 0.0
H163 H 0.82164 0.22267 0.33159 0.0
O164 O 0.81309 0.21919 0.36703 0.0
H165 H 0.80339 0.25186 0.34422 0.0
O166 O 0.81263 0.25539 0.3106 0.0
Co167 Co 0.81148 0.27959 0.36466 0.0
O168 O 0.77722 0.26888 0.35196 0.0
O169 O 0.76136 0.23077 0.33538 0.0
O170 O 0.84628 0.29943 0.37609 0.0
O171 O 0.86253 0.28332 0.3127 0.0
O172 O 0.8243 0.1746 0.27016 0.0
O173 O 0.7889 0.16042 0.28406 0.0
O174 O 0.81444 0.27109 0.45848 0.0
O175 O 0.78908 0.23339 0.44951 0.0
C176 C 0.86432 0.22544 0.31071 0.0
C177 C 0.76343 0.17422 0.37569 0.0
C178 C 0.81118 0.31633 0.35009 0.0
C179 C 0.81975 0.22799 0.19594 0.0
C180 C 0.75981 0.249 0.33981 0.0
C181 C 0.8638 0.30029 0.34688 0.0
C182 C 0.80476 0.15662 0.26614 0.0
C183 C 0.80165 0.25143 0.48486 0.0
O184 O 0.84578 0.20718 0.29183 0.0
O185 O 0.86398 0.24266 0.33821 0.0
O186 O 0.76409 0.19357 0.37935 0.0
O187 O 0.78004 0.17205 0.35076 0.0
O188 O 0.81871 0.3113 0.40147 0.0
O189 O 0.80386 0.30049 0.30667 0.0
O190 O 0.80502 0.20891 0.22257 0.0
O191 O 0.83676 0.24364 0.22946 0.0
Co192 Co 0.5048 0.95486 0.63585 0.0
Co193 Co 0.47434 0.90111 0.68023 0.0
Co194 Co 0.44974 0.92799 0.66051 0.0
H195 H 0.47708 0.93799 0.66327 0.0
O196 O 0.48052 0.93267 0.69816 0.0
H197 H 0.4475 0.89083 0.67479 0.0
O198 O 0.44374 0.89649 0.64159 0.0
Co199 Co 0.42006 0.87185 0.69874 0.0
O200 O 0.43104 0.84824 0.69599 0.0
O201 O 0.46769 0.86923 0.66124 0.0
O202 O 0.39959 0.88626 0.70455 0.0
O203 O 0.41668 0.91931 0.64433 0.0
O204 O 0.52552 0.9887 0.6041 0.0
O205 O 0.53924 0.96698 0.61487 0.0
O206 O 0.43051 0.88857 0.78604 0.0
O207 O 0.4661 0.89398 0.77851 0.0
C208 C 0.47495 0.9783 0.64298 0.0
C209 C 0.52509 0.9274 0.70528 0.0
C210 C 0.38376 0.83402 0.68929 0.0
C211 C 0.4717 0.9309 0.52766 0.0
C212 C 0.44994 0.84986 0.67553 0.0
C213 C 0.39924 0.90326 0.67609 0.0
C214 C 0.54331 0.98685 0.59879 0.0
C215 C 0.44935 0.89266 0.81333 0.0
O216 O 0.49303 0.97777 0.62343 0.0
O217 O 0.45774 0.96089 0.67091 0.0
O218 O 0.50571 0.90866 0.70651 0.0
O219 O 0.52738 0.94647 0.68275 0.0
O220 O 0.39246 0.84408 0.74397 0.0
O221 O 0.39579 0.8454 0.63973 0.0
O222 O 0.49061 0.93479 0.55455 0.0
O223 O 0.45627 0.93268 0.56117 0.0
Co224 Co 0.07839 0.5562 0.63047 0.0
Co225 Co 0.1314 0.57925 0.68015 0.0
Co226 Co 0.10468 0.52778 0.66008 0.0
H227 H 0.09474 0.54517 0.66066 0.0
O228 O 0.09969 0.55389 0.69575 0.0
H229 H 0.14175 0.56278 0.67435 0.0
O230 O 0.13618 0.55336 0.64105 0.0
Co231 Co 0.16056 0.55419 0.69908 0.0
O232 O 0.18438 0.58875 0.69741 0.0
O233 O 0.16346 0.6046 0.6637 0.0
O234 O 0.14622 0.51945 0.70817 0.0
O235 O 0.1135 0.50332 0.64628 0.0
O236 O 0.04441 0.54304 0.59992 0.0
O237 O 0.06702 0.57853 0.60169 0.0
O238 O 0.14073 0.5456 0.78134 0.0
O239 O 0.13785 0.57724 0.77813 0.0
C240 C 0.05451 0.50283 0.64155 0.0
C241 C 0.10495 0.60359 0.70313 0.0
C242 C 0.19849 0.55588 0.68779 0.0
C243 C 0.10271 0.54614 0.5262 0.0
C244 C 0.18281 0.60614 0.67797 0.0
C245 C 0.12935 0.50199 0.67952 0.0
C246 C 0.04679 0.56266 0.58889 0.0
C247 C 0.13681 0.5602 0.81041 0.0
O248 O 0.05531 0.5214 0.62041 0.0
O249 O 0.07177 0.50299 0.67049 0.0
O250 O 0.12359 0.60281 0.70768 0.0
O251 O 0.08641 0.58727 0.67635 0.0
O252 O 0.18524 0.54742 0.73752 0.0
O253 O 0.19027 0.56353 0.64457 0.0
O254 O 0.09969 0.56185 0.55216 0.0
O255 O 0.09982 0.52873 0.56063 0.0
Co256 Co 0.47694 0.52868 0.63184 0.0
Co257 Co 0.45376 0.55876 0.67908 0.0
Co258 Co 0.50526 0.58352 0.65962 0.0
H259 H 0.48791 0.55619 0.66111 0.0
O260 O 0.47915 0.55256 0.69609 0.0
H261 H 0.47026 0.5856 0.67486 0.0
O262 O 0.47973 0.5896 0.64167 0.0
Co263 Co 0.47869 0.61281 0.70101 0.0
O264 O 0.44394 0.60172 0.69799 0.0
O265 O 0.42848 0.56536 0.66093 0.0
O266 O 0.5136 0.63333 0.70705 0.0
O267 O 0.52967 0.61667 0.64492 0.0
O268 O 0.4902 0.50764 0.60437 0.0
O269 O 0.45476 0.49513 0.60151 0.0
O270 O 0.48635 0.60127 0.78423 0.0
O271 O 0.45481 0.56675 0.77739 0.0
C272 C 0.53027 0.55831 0.64005 0.0
C273 C 0.42934 0.50788 0.70219 0.0
C274 C 0.47625 0.64873 0.6954 0.0
C275 C 0.48554 0.56263 0.52753 0.0
C276 C 0.42672 0.58294 0.67651 0.0
C277 C 0.53103 0.63389 0.67805 0.0
C278 C 0.47064 0.49057 0.59128 0.0
C279 C 0.47131 0.58262 0.81171 0.0
O280 O 0.51166 0.54041 0.6197 0.0
O281 O 0.53011 0.57541 0.66896 0.0
O282 O 0.43002 0.52728 0.7047 0.0
O283 O 0.44602 0.50566 0.67814 0.0
O284 O 0.46367 0.63165 0.73209 0.0
O285 O 0.49017 0.64537 0.66121 0.0
O286 O 0.47022 0.54403 0.55505 0.0
O287 O 0.50347 0.5773 0.56006 0.0
C288 C 0.23564 0.27886 0.05064 0.0
C289 C 0.21294 0.2616 0.06713 0.0
C290 C 0.25467 0.2766 0.07038 0.0
C291 C 0.26879 0.23152 0.12102 0.0
H292 H 0.32574 0.28292 0.19029 0.0
C293 C 0.33864 0.21776 0.24903 0.0
C294 C 0.36192 0.23363 0.23422 0.0
C295 C 0.32103 0.22187 0.2275 0.0
C296 C 0.31004 0.26844 0.17032 0.0
H297 H 0.19262 0.22893 0.11996 0.0
H298 H 0.22546 0.22529 0.15458 0.0
H299 H 0.29429 0.28934 0.15429 0.0
H300 H 0.38509 0.26632 0.18566 0.0
H301 H 0.35434 0.27342 0.14751 0.0
H302 H 0.28436 0.21058 0.13716 0.0
C303 C 0.22867 0.24028 0.12514 0.0
C304 C 0.29204 0.27214 0.14964 0.0
C305 C 0.2098 0.2425 0.10554 0.0
C306 C 0.36728 0.25376 0.19775 0.0
C307 C 0.34967 0.2579 0.1763 0.0
C308 C 0.28673 0.22783 0.14167 0.0
C309 C 0.25132 0.25705 0.1069 0.0
C310 C 0.27109 0.25366 0.12547 0.0
C311 C 0.32631 0.24198 0.19073 0.0
C312 C 0.3075 0.24618 0.16718 0.0
H313 H 0.23868 0.29374 0.02089 0.0
H314 H 0.27192 0.28981 0.05537 0.0
H315 H 0.25309 0.21698 0.1013 0.0
H316 H 0.33402 0.20215 0.27731 0.0
H317 H 0.30326 0.2094 0.24033 0.0
C318 C 0.81908 0.13098 0.22033 0.0
C319 C 0.80068 0.13377 0.24322 0.0
C320 C 0.81497 0.10938 0.19737 0.0
C321 C 0.77151 0.04642 0.20231 0.0
H322 H 0.80592 0.04421 0.04771 0.0
C323 C 0.75361 0.96042 0.07157 0.0
C324 C 0.77358 0.95889 0.05883 0.0
C325 C 0.75559 0.98145 0.09295 0.0
C326 C 0.79622 0.04454 0.09109 0.0
H327 H 0.76361 0.11616 0.26095 0.0
H328 H 0.75636 0.0786 0.22013 0.0
H329 H 0.81234 0.08147 0.08825 0.0
H330 H 0.8113 0.97852 0.05754 0.0
H331 H 0.81456 0.01469 0.09395 0.0
H332 H 0.75536 1.00935 0.20464 0.0
C333 C 0.77401 0.09294 0.22047 0.0
C334 C 0.79999 0.06593 0.1146 0.0
C335 C 0.77814 0.11452 0.24342 0.0
C336 C 0.79547 0.97888 0.06722 0.0
C337 C 0.7974 0.99977 0.08763 0.0
C338 C 0.76763 0.02498 0.17846 0.0
C339 C 0.79235 0.09009 0.19679 0.0
C340 C 0.78788 0.06719 0.17097 0.0
C341 C 0.77755 1.00136 0.10077 0.0
C342 C 0.78015 0.02384 0.12307 0.0
H343 H 0.83665 0.14551 0.21987 0.0
H344 H 0.82957 0.10776 0.18055 0.0
H345 H 0.76206 0.04672 0.24634 0.0
H346 H 0.73652 0.9454 0.06544 0.0
H347 H 0.73998 0.98222 0.10251 0.0
C348 C 0.07073 0.7981 0.04904 0.0
C349 C 0.07493 0.8208 0.05863 0.0
C350 C 0.04984 0.77903 0.07098 0.0
C351 C 1.00073 0.76358 0.18823 0.0
H352 H 0.96709 0.7098 0.07345 0.0
C353 C 0.90543 0.69497 0.24048 0.0
C354 C 0.89885 0.67162 0.23047 0.0
C355 C 0.92728 0.71259 0.21978 0.0
C356 C 0.97639 0.72457 0.1065 0.0
H357 H 0.06026 0.84106 0.0991 0.0
H358 H 0.02431 0.80819 0.13614 0.0
H359 H 1.00501 0.74118 0.03801 0.0
H360 H 0.90991 0.64834 0.19106 0.0
H361 H 0.94814 0.67906 0.1556 0.0
H362 H 0.97216 0.74717 0.25648 0.0
C363 C 0.03715 0.80499 0.11276 0.0
C364 C 0.99816 0.74254 0.0862 0.0
C365 C 0.05783 0.82391 0.09093 0.0
C366 C 0.91448 0.66621 0.19914 0.0
C367 C 0.93635 0.68382 0.17852 0.0
C368 C 0.97903 0.74566 0.20848 0.0
C369 C 0.03284 0.78231 0.10325 0.0
C370 C 1.01047 0.76238 0.12651 0.0
C371 C 0.94306 0.70724 0.18874 0.0
C372 C 0.96646 0.72602 0.16763 0.0
H373 H 0.08343 0.79505 0.02408 0.0
H374 H 0.04707 0.76174 0.06318 0.0
H375 H 1.0099 0.77843 0.22109 0.0
H376 H 0.89369 0.69964 0.26428 0.0
H377 H 0.93172 0.73043 0.22755 0.0
C378 C 0.77411 0.79332 0.04207 0.0
C379 C 0.79512 0.81282 0.02286 0.0
C380 C 0.77404 0.77416 0.07193 0.0
C381 C 0.81406 0.76104 0.16753 0.0
H382 H 0.76675 0.69679 0.14301 0.0
C383 C 0.82558 0.6855 0.2604 0.0
C384 C 0.80628 0.66556 0.28645 0.0
C385 C 0.82314 0.70339 0.23232 0.0
C386 C 0.77994 0.71469 0.15111 0.0
H387 H 0.83223 0.82687 0.01509 0.0
H388 H 0.83204 0.79338 0.06402 0.0
H389 H 0.76417 0.72708 0.08075 0.0
H390 H 0.76928 0.64922 0.30497 0.0
H391 H 0.76509 0.68065 0.25648 0.0
H392 H 0.82996 0.74876 0.23719 0.0
C393 C 0.81567 0.793 0.05849 0.0
C394 C 0.77848 0.73206 0.11526 0.0
C395 C 0.81575 0.81209 0.02945 0.0
C396 C 0.78457 0.66439 0.28589 0.0
C397 C 0.7821 0.68227 0.25731 0.0
C398 C 0.81554 0.74374 0.20306 0.0
C399 C 0.79498 0.77416 0.08271 0.0
C400 C 0.79573 0.75546 0.12223 0.0
C401 C 0.8013 0.70184 0.22923 0.0
C402 C 0.79868 0.72031 0.19478 0.0
H403 H 0.758 0.79357 0.03865 0.0
H404 H 0.75777 0.75998 0.08999 0.0
H405 H 0.82734 0.7789 0.17587 0.0
H406 H 0.84256 0.68702 0.25961 0.0
H407 H 0.83828 0.71806 0.21064 0.0
C408 C 0.24069 0.98717 0.04024 0.0
C409 C 0.2208 0.9885 0.02477 0.0
C410 C 0.26035 1.00643 0.06771 0.0
C411 C 0.28791 0.07021 0.09246 0.0
H412 H 0.31473 0.05995 0.25276 0.0
C413 C 0.34795 0.14645 0.26291 0.0
C414 C 0.36797 0.14711 0.28842 0.0
C415 C 0.33041 0.1264 0.23245 0.0
C416 C 0.30765 0.06314 0.20764 0.0
H417 H 0.20628 1.01125 0.0229 0.0
H418 H 0.24037 0.04464 0.06908 0.0
H419 H 0.28499 0.02681 0.18998 0.0
H420 H 0.38466 0.12666 0.30431 0.0
H421 H 0.35411 0.09171 0.25073 0.0
H422 H 0.31036 0.10641 0.10972 0.0
C423 C 0.24102 0.02893 0.06026 0.0
C424 C 0.29063 0.04411 0.17148 0.0
C425 C 0.22143 1.00974 0.0337 0.0
C426 C 0.36941 0.12676 0.28575 0.0
C427 C 0.35187 0.10668 0.25482 0.0
C428 C 0.30491 0.08917 0.12834 0.0
C429 C 0.26055 0.02742 0.07922 0.0
C430 C 0.28031 0.04742 0.11393 0.0
C431 C 0.33243 0.10643 0.22607 0.0
C432 C 0.31479 0.08595 0.18707 0.0
H433 H 0.24055 0.97092 0.03501 0.0
H434 H 0.27519 1.00476 0.08133 0.0
H435 H 0.28061 0.07342 0.04783 0.0
H436 H 0.34613 0.16172 0.26439 0.0
H437 H 0.31543 0.12672 0.21265 0.0
C438 C 0.02363 0.21712 0.03341 0.0
C439 C 0.04488 0.23773 0.02489 0.0
C440 C 1.00471 0.21736 0.06282 0.0
C441 C 0.98072 0.25468 0.11664 0.0
H442 H 0.94708 0.20455 0.24343 0.0
C443 C 0.90723 0.24953 0.28784 0.0
C444 C 0.88695 0.22768 0.29106 0.0
C445 C 0.92756 0.25198 0.25878 0.0
C446 C 0.95614 0.21859 0.20792 0.0
H447 H 0.0626 0.27497 0.03755 0.0
H448 H 0.02937 0.27548 0.08942 0.0
H449 H 0.9797 0.20687 0.18173 0.0
H450 H 0.8726 0.19116 0.26838 0.0
H451 H 0.90782 0.1954 0.21849 0.0
H452 H 0.95696 0.26632 0.14331 0.0
C453 C 0.02732 0.25909 0.07268 0.0
C454 C 0.97486 0.21989 0.1722 0.0
C455 C 0.04633 0.25885 0.04253 0.0
C456 C 0.88783 0.20825 0.26706 0.0
C457 C 0.90813 0.21068 0.23848 0.0
C458 C 0.96194 0.25339 0.15265 0.0
C459 C 1.00653 0.23822 0.0854 0.0
C460 C 0.98719 0.23772 0.12518 0.0
C461 C 0.92816 0.23261 0.23283 0.0
C462 C 0.94921 0.23512 0.19808 0.0
H463 H 0.02195 0.20056 0.02022 0.0
H464 H 0.98883 0.20102 0.06983 0.0
H465 H 0.98973 0.2686 0.0808 0.0
H466 H 0.90718 0.26491 0.30528 0.0
H467 H 0.94274 0.26908 0.25599 0.0
C468 C 0.87744 0.57135 0.39578 0.0
C469 C 0.87955 0.5932 0.38468 0.0
C470 C 0.89644 0.56941 0.41569 0.0
C471 C 0.95286 0.60029 0.49934 0.0
H472 H 0.96207 0.55276 0.41624 0.0
C473 C 0.03208 0.58947 0.55939 0.0
C474 C 0.02813 0.56677 0.56514 0.0
C475 C 1.01453 0.59351 0.53674 0.0
C476 C 0.95961 0.56594 0.44054 0.0
H477 H 0.90356 0.63022 0.38601 0.0
H478 H 0.93703 0.62678 0.42194 0.0
H479 H 0.93103 0.55901 0.37651 0.0
H480 H 1.0027 0.53046 0.55218 0.0
H481 H 0.97197 0.53743 0.51285 0.0
H482 H 0.98124 0.60695 0.56416 0.0
C483 C 0.92043 0.61118 0.415 0.0
C484 C 0.94187 0.56959 0.41756 0.0
C485 C 0.90132 0.61315 0.39423 0.0
C486 C 1.00625 0.54815 0.54804 0.0
C487 C 0.98871 0.55217 0.52514 0.0
C488 C 0.9706 0.59658 0.52255 0.0
C489 C 0.91817 0.58924 0.4255 0.0
C490 C 0.93814 0.58665 0.44707 0.0
C491 C 0.99264 0.57492 0.51903 0.0
C492 C 0.97407 0.57923 0.49376 0.0
H493 H 0.86103 0.55552 0.38865 0.0
H494 H 0.89401 0.55228 0.4242 0.0
H495 H 0.95022 0.61335 0.52367 0.0
H496 H 0.04878 0.60418 0.57225 0.0
H497 H 1.01826 0.61123 0.53201 0.0
C498 C 0.44387 0.44919 0.56003 0.0
C499 C 0.46659 0.46777 0.56788 0.0
C500 C 0.43989 0.42763 0.53733 0.0
C501 C 0.46826 0.40013 0.44528 0.0
H502 H 0.41916 0.34331 0.52316 0.0
C503 C 0.46225 0.31223 0.40179 0.0
C504 C 0.44043 0.29272 0.3883 0.0
C505 C 0.4642 0.3332 0.42149 0.0
C506 C 0.43271 0.35902 0.50029 0.0
H507 H 0.50298 0.47835 0.55889 0.0
H508 H 0.4961 0.44065 0.51976 0.0
H509 H 0.42545 0.38069 0.56353 0.0
H510 H 0.40348 0.28016 0.38522 0.0
H511 H 0.40693 0.3171 0.42073 0.0
H512 H 0.47577 0.3785 0.38287 0.0
C513 C 0.48131 0.44278 0.53023 0.0
C514 C 0.43636 0.38045 0.52343 0.0
C515 C 0.48528 0.46435 0.55306 0.0
C516 C 0.42052 0.2948 0.39533 0.0
C517 C 0.4225 0.3159 0.41585 0.0
C518 C 0.46467 0.37875 0.42239 0.0
C519 C 0.45855 0.42416 0.52184 0.0
C520 C 0.45431 0.40129 0.49656 0.0
C521 C 0.44442 0.33536 0.4287 0.0
C522 C 0.44701 0.35794 0.45003 0.0
H523 H 0.42912 0.45132 0.57126 0.0
H524 H 0.42216 0.41379 0.53086 0.0
H525 H 0.48192 0.41577 0.4224 0.0
H526 H 0.47806 0.31146 0.39669 0.0
H527 H 0.4813 0.34772 0.43186 0.0
C528 C 0.56931 0.02699 0.55531 0.0
C529 C 0.56626 1.00556 0.57653 0.0
C530 C 0.59101 0.04443 0.53293 0.0
C531 C 0.6538 0.06324 0.53712 0.0
H532 H 0.65642 0.10088 0.38508 0.0
C533 C 0.74004 0.13191 0.40856 0.0
C534 C 0.74163 0.15353 0.39809 0.0
C535 C 0.71898 0.11275 0.42914 0.0
C536 C 0.65596 0.09054 0.42771 0.0
H537 H 0.58349 0.98563 0.59196 0.0
H538 H 0.62123 0.01589 0.55216 0.0
H539 H 0.61899 0.06998 0.42442 0.0
H540 H 0.7221 0.17173 0.40009 0.0
H541 H 0.68591 0.13863 0.43505 0.0
H542 H 0.69092 0.08394 0.53993 0.0
C543 C 0.60701 0.0194 0.55334 0.0
C544 C 0.6345 0.07291 0.45055 0.0
C545 C 0.58534 1.00198 0.5757 0.0
C546 C 0.72171 0.15545 0.40805 0.0
C547 C 0.70079 0.13639 0.4276 0.0
C548 C 0.67532 0.08082 0.51393 0.0
C549 C 0.61012 0.04081 0.53129 0.0
C550 C 0.6331 0.05919 0.50605 0.0
C551 C 0.69912 0.11482 0.43833 0.0
C552 C 0.67659 0.09484 0.45952 0.0
H553 H 0.55491 0.03024 0.55569 0.0
H554 H 0.59283 0.06083 0.51737 0.0
H555 H 0.65338 0.0532 0.58048 0.0
H556 H 0.75501 0.12983 0.40116 0.0
H557 H 0.71813 0.09626 0.43691 0.0
C558 C 0.4822 0.14544 0.36909 0.0
C559 C 0.46159 0.14609 0.36014 0.0
C560 C 0.4818 0.1259 0.39592 0.0
C561 C 0.44712 0.07608 0.50667 0.0
H562 H 0.49018 0.05676 0.44567 0.0
C563 C 0.45089 0.99707 0.61942 0.0
C564 C 0.47275 0.99866 0.623 0.0
C565 C 0.44836 0.01464 0.5887 0.0
C566 C 0.47824 0.06209 0.46406 0.0
H567 H 0.42425 0.12639 0.37062 0.0
H568 H 0.42346 0.09182 0.41721 0.0
H569 H 0.48704 0.08658 0.38411 0.0
H570 H 0.50931 0.02081 0.60081 0.0
H571 H 0.50502 0.05151 0.54927 0.0
H572 H 0.43858 0.05172 0.5873 0.0
C573 C 0.43998 0.10663 0.40355 0.0
C574 C 0.47635 0.07914 0.4284 0.0
C575 C 0.44038 0.12625 0.37591 0.0
C576 C 0.49217 0.01884 0.59855 0.0
C577 C 0.48966 0.0364 0.56824 0.0
C578 C 0.44905 0.05898 0.54257 0.0
C579 C 0.46076 0.1064 0.41502 0.0
C580 C 0.46099 0.08661 0.44961 0.0
C581 C 0.46765 0.03426 0.56102 0.0
C582 C 0.4649 0.05199 0.52227 0.0
H583 H 0.49886 0.16051 0.35793 0.0
H584 H 0.49817 0.12655 0.40468 0.0
H585 H 0.43533 0.08161 0.52499 0.0
H586 H 0.4355 0.98172 0.6372 0.0
H587 H 0.43113 1.01232 0.58396 0.0
C588 C 0.03568 0.46002 0.61822 0.0
C589 C 0.03409 0.48028 0.62191 0.0
C590 C 1.01808 0.43992 0.58748 0.0
C591 C 0.97034 0.42224 0.46346 0.0
H592 H 0.95139 0.3599 0.52318 0.0
C593 C 0.88684 0.34256 0.37017 0.0
C594 C 0.88639 0.32145 0.35998 0.0
C595 C 0.90642 0.36176 0.39669 0.0
C596 C 0.95675 0.3772 0.50521 0.0
H597 H 1.01192 0.49467 0.59997 0.0
H598 H 0.98113 0.45966 0.54859 0.0
H599 H 0.98128 0.39308 0.58549 0.0
H600 H 0.90649 0.30416 0.36796 0.0
H601 H 0.94112 0.33804 0.41419 0.0
H602 H 0.94562 0.40646 0.38397 0.0
C603 C 0.99628 0.45942 0.56738 0.0
C604 C 0.97386 0.39625 0.5411 0.0
C605 C 1.01388 0.4795 0.59762 0.0
C606 C 0.90646 0.32029 0.37424 0.0
C607 C 0.92612 0.33958 0.40164 0.0
C608 C 0.95325 0.40326 0.42786 0.0
C609 C 0.99842 0.43956 0.55997 0.0
C610 C 0.98066 0.41906 0.52124 0.0
C611 C 0.92615 0.36042 0.4143 0.0
C612 C 0.94599 0.38048 0.44865 0.0
H613 H 0.05107 0.46001 0.63581 0.0
H614 H 0.02044 0.42505 0.58257 0.0
H615 H 0.97551 0.43948 0.44535 0.0
H616 H 0.87158 0.34396 0.36023 0.0
H617 H 0.90564 0.37735 0.40641 0.0
C618 C 0.5536 0.54109 0.59525 0.0
C619 C 0.55282 0.56049 0.61991 0.0
C620 C 0.57368 0.5436 0.56485 0.0
C621 C 0.63688 0.58428 0.539 0.0
H622 H 0.62661 0.54615 0.38084 0.0
C623 C 0.71284 0.59293 0.37178 0.0
C624 C 0.71161 0.57172 0.35685 0.0
C625 C 0.69358 0.59332 0.39937 0.0
C626 C 0.62983 0.55689 0.42502 0.0
H627 H 0.5731 0.59771 0.63431 0.0
H628 H 0.60808 0.60209 0.5808 0.0
H629 H 0.59359 0.543 0.44243 0.0
H630 H 0.68899 0.53444 0.35617 0.0
H631 H 0.65562 0.53512 0.40268 0.0
H632 H 0.67324 0.59808 0.5212 0.0
C633 C 0.59319 0.58487 0.58552 0.0
C634 C 0.61085 0.55498 0.46072 0.0
C635 C 0.57309 0.58234 0.6164 0.0
C636 C 0.69044 0.55109 0.36658 0.0
C637 C 0.67126 0.55148 0.3933 0.0
C638 C 0.65593 0.58623 0.50302 0.0
C639 C 0.59355 0.5656 0.55769 0.0
C640 C 0.61405 0.56837 0.51886 0.0
C641 C 0.67267 0.57253 0.41156 0.0
C642 C 0.65263 0.57231 0.44609 0.0
H643 H 0.53843 0.52396 0.59747 0.0
H644 H 0.57344 0.52825 0.54578 0.0
H645 H 0.64006 0.59478 0.58367 0.0
H646 H 0.72903 0.60907 0.3659 0.0
H647 H 0.69517 0.60984 0.41243 0.0
C648 C 0.54344 0.90428 0.74036 0.0
C649 C 0.54566 0.92613 0.7282 0.0
C650 C 0.56244 0.90232 0.76014 0.0
C651 C 0.6192 0.93331 0.8415 0.0
H652 H 0.62785 0.88535 0.75898 0.0
C653 C 0.69836 0.92232 0.90023 0.0
C654 C 0.69441 0.89961 0.90577 0.0
C655 C 0.68077 0.92635 0.878 0.0
C656 C 0.62555 0.89864 0.78314 0.0
H657 H 0.56987 0.96311 0.72777 0.0
H658 H 0.6033 0.95964 0.76348 0.0
H659 H 0.59674 0.8916 0.71996 0.0
H660 H 0.66895 0.8633 0.89326 0.0
H661 H 0.6381 0.87026 0.85498 0.0
H662 H 0.64778 0.94008 0.90554 0.0
C663 C 0.58663 0.94406 0.75745 0.0
C664 C 0.60777 0.9023 0.76054 0.0
C665 C 0.56752 0.94605 0.73685 0.0
C666 C 0.67248 0.88098 0.88922 0.0
C667 C 0.65488 0.88501 0.86688 0.0
C668 C 0.63696 0.92959 0.86437 0.0
C669 C 0.58427 0.92212 0.76876 0.0
C670 C 0.60425 0.91952 0.78986 0.0
C671 C 0.65884 0.90776 0.86072 0.0
C672 C 0.64023 0.91207 0.83581 0.0
H673 H 0.52697 0.88846 0.73404 0.0
H674 H 0.55995 0.8852 0.76934 0.0
H675 H 0.61674 0.94651 0.86561 0.0
H676 H 0.7151 0.93703 0.91285 0.0
H677 H 0.68452 0.94408 0.87325 0.0
C678 C 0.12449 0.64061 0.76849 0.0
C679 C 0.10561 0.62489 0.72876 0.0
C680 C 0.12641 0.66142 0.78994 0.0
C681 C 0.10822 0.70375 0.7497 0.0
H682 H 0.12983 0.72564 0.93089 0.0
C683 C 0.11471 0.78779 0.85694 0.0
C684 C 0.13382 0.80179 0.89817 0.0
C685 C 0.11043 0.76593 0.83611 0.0
C686 C 0.12404 0.71995 0.87987 0.0
H687 H 0.0738 0.61886 0.68102 0.0
H688 H 0.07717 0.65549 0.71887 0.0
H689 H 0.12304 0.68772 0.89596 0.0
H690 H 0.1636 0.80405 0.94933 0.0
H691 H 0.15638 0.76606 0.91231 0.0
H692 H 0.10956 0.73617 0.73334 0.0
C693 C 0.09053 0.65154 0.73297 0.0
C694 C 0.12006 0.69814 0.85991 0.0
C695 C 0.0885 0.63049 0.71171 0.0
C696 C 0.14868 0.79359 0.91776 0.0
C697 C 0.14443 0.77175 0.89686 0.0
C698 C 0.11228 0.72565 0.76963 0.0
C699 C 0.10955 0.66724 0.7723 0.0
C700 C 0.11228 0.68984 0.79443 0.0
C701 C 0.12518 0.75757 0.85601 0.0
C702 C 0.12041 0.7341 0.83486 0.0
H703 H 0.13806 0.63698 0.78273 0.0
H704 H 0.14146 0.67322 0.81925 0.0
H705 H 0.10254 0.69801 0.69864 0.0
H706 H 0.10291 0.79363 0.84124 0.0
H707 H 0.0953 0.75541 0.80541 0.0
C708 C 0.24934 0.33324 0.88312 0.0
C709 C 0.23236 0.33847 0.90454 0.0
C710 C 0.27095 0.35078 0.86052 0.0
C711 C 0.30011 0.41039 0.79244 0.0
H712 H 0.35665 0.41084 0.8423 0.0
C713 C 0.3895 0.49027 0.75118 0.0
C714 C 0.40767 0.4873 0.72627 0.0
C715 C 0.36853 0.47133 0.77117 0.0
C716 C 0.341 0.41077 0.82719 0.0
H717 H 0.2247 0.36614 0.91987 0.0
H718 H 0.26246 0.39684 0.88086 0.0
H719 H 0.31924 0.37958 0.88187 0.0
H720 H 0.4179 0.4618 0.70393 0.0
H721 H 0.38096 0.42844 0.73949 0.0
H722 H 0.32178 0.44163 0.73834 0.0
C723 C 0.25902 0.37915 0.88064 0.0
C724 C 0.31955 0.39288 0.84992 0.0
C725 C 0.23744 0.3616 0.90339 0.0
C726 C 0.40434 0.46474 0.72298 0.0
C727 C 0.38321 0.44565 0.74345 0.0
C728 C 0.3215 0.42823 0.76984 0.0
C729 C 0.27603 0.37395 0.85867 0.0
C730 C 0.29885 0.39261 0.83334 0.0
C731 C 0.36499 0.44877 0.76708 0.0
C732 C 0.34223 0.42881 0.78755 0.0
H733 H 0.24593 0.31554 0.88364 0.0
H734 H 0.28353 0.34612 0.8434 0.0
H735 H 0.28452 0.41048 0.77747 0.0
H736 H 0.39129 0.50731 0.75487 0.0
H737 H 0.35508 0.47443 0.79031 0.0
C738 C 0.1171 0.33045 0.95401 0.0
C739 C 0.13888 0.33179 0.95556 0.0
C740 C 0.11461 0.34832 0.92534 0.0
C741 C 0.14802 0.41002 0.87282 0.0
H742 H 0.09696 0.39355 0.74943 0.0
C743 C 0.14845 0.47869 0.69989 0.0
C744 C 0.1278 0.47937 0.69268 0.0
C745 C 0.14836 0.4596 0.72901 0.0
C746 C 0.11118 0.39848 0.78425 0.0
H747 H 0.17525 0.35353 0.93015 0.0
H748 H 0.17094 0.38453 0.88098 0.0
H749 H 0.09952 0.36314 0.81111 0.0
H750 H 0.09064 0.46 0.70755 0.0
H751 H 0.09039 0.42638 0.75893 0.0
H752 H 0.15974 0.44524 0.84649 0.0
C753 C 0.15575 0.36974 0.90201 0.0
C754 C 0.11263 0.38104 0.81977 0.0
C755 C 0.15821 0.35187 0.93019 0.0
C756 C 0.10677 0.45981 0.71145 0.0
C757 C 0.10669 0.44063 0.74133 0.0
C758 C 0.14655 0.4274 0.83761 0.0
C759 C 0.13387 0.36806 0.89809 0.0
C760 C 0.13126 0.38658 0.86384 0.0
C761 C 0.12763 0.44067 0.75264 0.0
C762 C 0.12833 0.42189 0.79193 0.0
H763 H 0.10178 0.3152 0.97255 0.0
H764 H 0.09755 0.34658 0.92389 0.0
H765 H 0.16235 0.415 0.90728 0.0
H766 H 0.16495 0.49351 0.68587 0.0
H767 H 0.16474 0.46004 0.73492 0.0
C768 C 0.70281 0.79307 0.95258 0.0
C769 C 0.70134 0.81342 0.95482 0.0
C770 C 0.68495 0.77271 0.9237 0.0
C771 C 0.62313 0.74422 0.87198 0.0
H772 H 0.63968 0.71014 0.74664 0.0
C773 C 0.55438 0.6763 0.69828 0.0
C774 C 0.55369 0.65499 0.69078 0.0
C775 C 0.57353 0.69528 0.72738 0.0
C776 C 0.63474 0.7193 0.78199 0.0
H777 H 0.67939 0.82789 0.93057 0.0
H778 H 0.64841 0.7926 0.88107 0.0
H779 H 0.6701 0.74305 0.80871 0.0
H780 H 0.57312 0.63723 0.70489 0.0
H781 H 0.60685 0.67058 0.75615 0.0
H782 H 0.58788 0.72066 0.84576 0.0
C783 C 0.6633 0.79227 0.90166 0.0
C784 C 0.65218 0.73815 0.81773 0.0
C785 C 0.68116 0.81259 0.93001 0.0
C786 C 0.57331 0.65354 0.70906 0.0
C787 C 0.59255 0.67262 0.73888 0.0
C788 C 0.60576 0.72542 0.83652 0.0
C789 C 0.66511 0.77216 0.89699 0.0
C790 C 0.6466 0.75105 0.86251 0.0
C791 C 0.5925 0.69348 0.75064 0.0
C792 C 0.6113 0.71291 0.79015 0.0
H793 H 0.71815 0.79307 0.97064 0.0
H794 H 0.68679 0.75747 0.92165 0.0
H795 H 0.61813 0.75343 0.907 0.0
H796 H 0.53954 0.67799 0.68458 0.0
H797 H 0.5731 0.71121 0.73367 0.0
C798 C 0.35674 0.88432 0.69439 0.0
C799 C 0.37817 0.9049 0.68846 0.0
C800 C 0.33771 0.88441 0.72344 0.0
C801 C 0.31403 0.92159 0.78124 0.0
H802 H 0.27908 0.86998 0.90245 0.0
C803 C 0.24029 0.91551 0.95253 0.0
C804 C 0.21972 0.89387 0.95286 0.0
C805 C 0.26063 0.91794 0.92374 0.0
C806 C 0.28853 0.88443 0.86851 0.0
H807 H 0.39613 0.94195 0.70529 0.0
H808 H 0.36271 0.9422 0.75656 0.0
H809 H 0.31187 0.8726 0.8409 0.0
H810 H 0.20479 0.85765 0.92534 0.0
H811 H 0.2401 0.86185 0.87596 0.0
H812 H 0.29052 0.93337 0.8094 0.0
C813 C 0.3606 0.92596 0.73803 0.0
C814 C 0.30733 0.88591 0.83286 0.0
C815 C 0.37972 0.92588 0.70821 0.0
C816 C 0.22029 0.87457 0.9263 0.0
C817 C 0.2406 0.87698 0.89801 0.0
C818 C 0.29519 0.92014 0.81719 0.0
C819 C 0.3396 0.90506 0.74824 0.0
C820 C 0.32013 0.90429 0.78785 0.0
C821 C 0.26094 0.89876 0.8952 0.0
C822 C 0.28201 0.90135 0.86061 0.0
H823 H 0.35502 0.86786 0.6796 0.0
H824 H 0.32167 0.86808 0.72854 0.0
H825 H 0.32341 0.93594 0.74694 0.0
H826 H 0.24048 0.9308 0.97203 0.0
H827 H 0.27606 0.93491 0.92314 0.0
C828 C 0.13414 1.00837 0.9576 0.0
C829 C 0.14193 1.00338 0.01753 0.0
C830 C 0.13128 0.02773 0.95359 0.0
C831 C 0.14956 0.08404 0.03558 0.0
H832 H 0.09633 0.07996 0.94332 0.0
C833 C 0.14139 0.16464 0.98965 0.0
C834 C 0.11964 0.16258 0.00199 0.0
C835 C 0.1438 0.14503 0.98766 0.0
C836 C 0.1112 0.08132 0.96959 0.0
H837 H 0.1527 0.01448 0.1203 0.0
H838 H 0.14748 0.0481 0.11369 0.0
H839 H 0.10101 0.04593 0.94922 0.0
H840 H 0.0832 0.13814 0.01988 0.0
H841 H 0.08753 0.1039 0.01716 0.0
H842 H 0.15944 0.11917 0.05765 0.0
C843 C 0.14393 0.03734 0.0694 0.0
C844 C 0.11403 0.06191 0.97231 0.0
C845 C 0.14682 0.01803 0.07333 0.0
C846 C 0.10023 0.14037 0.01053 0.0
C847 C 0.10267 0.12072 0.00855 0.0
C848 C 0.14672 0.10338 0.03296 0.0
C849 C 0.13615 0.04243 0.00948 0.0
C850 C 0.13322 0.06306 0.00551 0.0
C851 C 0.12455 0.12288 -0.00199 0.0
C852 C 0.12752 0.10226 -5e-05 0.0
H853 H 0.1302 0.99729 0.91386 0.0
H854 H 0.12551 0.03132 0.90649 0.0
H855 H 0.16467 0.08558 0.06088 0.0
H856 H 0.15671 0.18144 0.98247 0.0
H857 H 0.16082 0.14725 0.97823 0.0
C858 C 1.01376 0.13569 0.06486 0.0
C859 C 0.02972 0.14441 0.01163 0.0
C860 C 0.99453 0.11344 0.06129 0.0
C861 C 0.97223 0.05725 0.97439 0.0
H862 H 0.91326 0.04661 0.04385 0.0
C863 C 0.89314 0.96559 0.01626 0.0
C864 C 0.87113 0.96251 0.00138 0.0
C865 C 0.91281 0.98765 0.01369 0.0
C866 C 0.92954 0.0493 0.0236 0.0
H867 H 0.03819 0.1369 0.91281 0.0
H868 H 1.00426 0.09809 0.90586 0.0
H869 H 0.94662 0.08554 0.04522 0.0
H870 H 0.8527 0.98016 0.96996 0.0
H871 H 0.88692 0.01835 0.96465 0.0
H872 H 0.95489 0.02098 0.95153 0.0
C873 C 1.00678 0.10831 0.95079 0.0
C874 C 0.94874 0.07159 0.02519 0.0
C875 C 0.02607 0.13058 0.95448 0.0
C876 C 0.86933 0.98186 0.98218 0.0
C877 C 0.88895 1.00383 0.97955 0.0
C878 C 0.95295 0.03492 0.97263 0.0
C879 C 0.99081 0.09948 0.00425 0.0
C880 C 0.97033 0.07582 0.00089 0.0
C881 C 0.91086 1.00705 -0.00381 0.0
C882 C 0.9314 0.03071 -0.00271 0.0
H883 H 1.01626 0.14595 0.10971 0.0
H884 H 0.98278 0.10705 0.10379 0.0
H885 H 0.98868 0.0599 0.95589 0.0
H886 H 0.89515 0.95104 0.03093 0.0
H887 H 0.92945 0.9896 0.02721 0.0
C888 C 0.89671 0.8826 0.06714 0.0
C889 C 0.88896 0.89173 0.01643 0.0
C890 C 0.91902 0.8857 0.06453 0.0
C891 C 0.97671 0.9225 0.98831 0.0
H892 H 0.98622 0.87183 0.04055 0.0
C893 C 0.06778 0.93339 0.02767 0.0
C894 C 0.07102 0.91506 0.00652 0.0
C895 C 0.04572 0.93107 0.02622 0.0
C896 C 0.98385 0.88609 0.02516 0.0
H897 H 0.89828 0.91121 0.92318 0.0
H898 H 0.9372 0.9163 0.91789 0.0
H899 H 0.9473 0.86636 0.04178 0.0
H900 H 0.05369 0.88019 0.96509 0.0
H901 H 1.01552 0.87638 0.96155 0.0
H902 H 1.01327 0.94204 0.97018 0.0
C903 C 0.92617 0.90701 0.96015 0.0
C904 C 0.96157 0.88305 0.02673 0.0
C905 C 0.90384 0.90392 0.96283 0.0
C906 C 0.05184 0.89462 0.9823 0.0
C907 C 0.02988 0.89235 0.98065 0.0
C908 C 0.99903 0.92553 0.98654 0.0
C909 C 0.93402 0.89796 0.01105 0.0
C910 C 0.95773 0.90122 0.00849 0.0
C911 C 0.02649 0.9104 0.00343 0.0
C912 C 1.00284 0.90734 0.00493 0.0
H913 H 0.8856 0.87323 0.10921 0.0
H914 H 0.92465 0.8788 0.10504 0.0
H915 H 0.97436 0.93693 0.97466 0.0
H916 H 0.08218 0.9494 0.04644 0.0
H917 H 0.04365 0.94524 0.04458 0.0
C918 C 0.79868 0.34077 0.28766 0.0
C919 C 0.80908 0.33724 0.34441 0.0
C920 C 0.79571 0.36007 0.28407 0.0
C921 C 0.81721 0.41825 0.35787 0.0
H922 H 0.76015 0.41187 0.28605 0.0
C923 C 0.80658 0.49745 0.31417 0.0
C924 C 0.78546 0.49572 0.33363 0.0
C925 C 0.80898 0.47785 0.31203 0.0
C926 C 0.77611 0.41387 0.30665 0.0
H927 H 0.82453 0.35095 0.44183 0.0
H928 H 0.81912 0.38445 0.4361 0.0
H929 H 0.76538 0.37814 0.29027 0.0
H930 H 0.75006 0.47181 0.36433 0.0
H931 H 0.7544 0.43754 0.36144 0.0
H932 H 0.82769 0.45374 0.37615 0.0
C933 C 0.81358 0.37259 0.39381 0.0
C934 C 0.77923 0.39463 0.30831 0.0
C935 C 0.81659 0.35336 0.39727 0.0
C936 C 0.7666 0.47378 0.34941 0.0
C937 C 0.76904 0.45412 0.34732 0.0
C938 C 0.81407 0.43742 0.35638 0.0
C939 C 0.80307 0.37617 0.33724 0.0
C940 C 0.79981 0.39661 0.3341 0.0
C941 C 0.79036 0.45601 0.32943 0.0
C942 C 0.79351 0.43548 0.3307 0.0
H943 H 0.79266 0.32852 0.24627 0.0
H944 H 0.7878 0.36247 0.23947 0.0
H945 H 0.83337 0.42044 0.37735 0.0
H946 H 0.82146 0.51403 0.3013 0.0
H947 H 0.82551 0.47984 0.29683 0.0
C948 C 0.68146 0.46915 0.40359 0.0
C949 C 0.69702 0.47774 0.34937 0.0
C950 C 0.66223 0.44686 0.40111 0.0
C951 C 0.63926 0.3904 0.31529 0.0
H952 H 0.58053 0.38027 0.3853 0.0
C953 C 0.55971 0.29904 0.3572 0.0
C954 C 0.53782 0.29607 0.34116 0.0
C955 C 0.57947 0.32105 0.35528 0.0
C956 C 0.59675 0.38283 0.36499 0.0
H957 H 0.70482 0.4699 0.25006 0.0
H958 H 0.67094 0.43102 0.24516 0.0
H959 H 0.61413 0.4191 0.38644 0.0
H960 H 0.51969 0.31394 0.30899 0.0
H961 H 0.55407 0.35209 0.30512 0.0
H962 H 0.62165 0.3541 0.2927 0.0
C963 C 0.67375 0.44138 0.28995 0.0
C964 C 0.61608 0.40504 0.36642 0.0
C965 C 0.69302 0.46369 0.29249 0.0
C966 C 0.53623 0.31554 0.32199 0.0
C967 C 0.55593 0.33748 0.32016 0.0
C968 C 0.61987 0.36813 0.31382 0.0
C969 C 0.65813 0.43272 0.34426 0.0
C970 C 0.63757 0.40909 0.34176 0.0
C971 C 0.57773 0.34055 0.33748 0.0
C972 C 0.5984 0.36412 0.33865 0.0
H973 H 0.68424 0.47958 0.44823 0.0
H974 H 0.65073 0.44059 0.4442 0.0
H975 H 0.65563 0.39292 0.29649 0.0
H976 H 0.56158 0.28442 0.37202 0.0
H977 H 0.59601 0.32288 0.36935 0.0
C978 C 0.57333 0.24441 0.30984 0.0
C979 C 0.55543 0.22511 0.34281 0.0
C980 C 0.59557 0.2473 0.30641 0.0
C981 C 0.62693 0.21564 0.30959 0.0
H982 H 0.67966 0.27382 0.36679 0.0
C983 C 0.71676 0.22515 0.34702 0.0
C984 C 0.73662 0.24661 0.33376 0.0
C985 C 0.6948 0.22287 0.34495 0.0
C986 C 0.66523 0.25761 0.34937 0.0
H987 H 0.54647 0.19357 0.39729 0.0
H988 H 0.58535 0.19838 0.38998 0.0
H989 H 0.64093 0.26914 0.36858 0.0
H990 H 0.74905 0.28238 0.30616 0.0
H991 H 0.71055 0.27819 0.29952 0.0
H992 H 0.651 0.20417 0.28857 0.0
C993 C 0.58216 0.21128 0.36714 0.0
C994 C 0.64304 0.25492 0.35084 0.0
C995 C 0.56 0.20857 0.37147 0.0
C996 C 0.73404 0.26566 0.31704 0.0
C997 C 0.71197 0.26327 0.31373 0.0
C998 C 0.64913 0.21844 0.30701 0.0
C999 C 0.60015 0.23075 0.33497 0.0
C1000 C 0.6237 0.23384 0.33158 0.0
C1001 C 0.69206 0.24187 0.32827 0.0
C1002 C 0.66857 0.23937 0.32761 0.0
H1003 H 0.57026 0.25746 0.28755 0.0
H1004 H 0.60914 0.26237 0.281 0.0
H1005 H 0.61228 0.19932 0.2937 0.0
H1006 H 0.7182 0.2102 0.36088 0.0
H1007 H 0.68002 0.20627 0.358 0.0
C1008 C 0.47186 0.82971 0.64411 0.0
C1009 C 0.45173 0.82865 0.67051 0.0
C1010 C 0.47416 0.81001 0.64295 0.0
C1011 C 0.45418 0.75523 0.73057 0.0
H1012 H 0.47735 0.73806 0.57451 0.0
C1013 C 0.45508 0.66967 0.72215 0.0
C1014 C 0.47383 0.66945 0.69064 0.0
C1015 C 0.45233 0.68902 0.71726 0.0
C1016 C 0.47116 0.7428 0.61884 0.0
H1017 H 0.418 0.80587 0.71479 0.0
H1018 H 0.42216 0.77153 0.71304 0.0
H1019 H 0.47237 0.77193 0.56927 0.0
H1020 H 0.50456 0.68924 0.62979 0.0
H1021 H 0.5003 0.72355 0.62313 0.0
H1022 H 0.45346 0.72662 0.78096 0.0
C1023 C 0.43617 0.78769 0.69369 0.0
C1024 C 0.46822 0.76212 0.61566 0.0
C1025 C 0.43376 0.80733 0.69437 0.0
C1026 C 0.48991 0.68899 0.65436 0.0
C1027 C 0.48734 0.70854 0.65019 0.0
C1028 C 0.45734 0.7361 0.73402 0.0
C1029 C 0.45648 0.7889 0.66859 0.0
C1030 C 0.45956 0.76841 0.67139 0.0
C1031 C 0.46851 0.70878 0.68167 0.0
C1032 C 0.46572 0.72953 0.67808 0.0
H1033 H 0.48603 0.84583 0.62518 0.0
H1034 H 0.49007 0.81146 0.62377 0.0
H1035 H 0.44788 0.75996 0.7747 0.0
H1036 H 0.44237 0.6548 0.75028 0.0
H1037 H 0.43736 0.68837 0.74095 0.0
C1038 C 0.22607 0.63154 0.68442 0.0
C1039 C 0.20411 0.62909 0.67297 0.0
C1040 C 0.24601 0.65339 0.68202 0.0
C1041 C 0.2682 0.71336 0.62072 0.0
H1042 H 0.31481 0.72889 0.75887 0.0
C1043 C 0.35512 0.80001 0.62182 0.0
C1044 C 0.3631 0.8108 0.68459 0.0
C1045 C 0.33604 0.7776 0.61793 0.0
C1046 C 0.30188 0.72487 0.7202 0.0
H1047 H 0.18601 0.64773 0.6491 0.0
H1048 H 0.22067 0.68571 0.6459 0.0
H1049 H 0.28089 0.69021 0.75607 0.0
H1050 H 0.3574 0.80684 0.7924 0.0
H1051 H 0.32391 0.76792 0.78567 0.0
H1052 H 0.28884 0.74827 0.58623 0.0
C1053 C 0.22253 0.67074 0.65578 0.0
C1054 C 0.28259 0.7026 0.71804 0.0
C1055 C 0.20262 0.64893 0.65804 0.0
C1056 C 0.3516 0.79891 0.74332 0.0
C1057 C 0.33254 0.77655 0.73947 0.0
C1058 C 0.28747 0.73565 0.62296 0.0
C1059 C 0.24444 0.67326 0.66818 0.0
C1060 C 0.26545 0.69663 0.66854 0.0
C1061 C 0.3246 0.76558 0.67677 0.0
C1062 C 0.30445 0.74171 0.67303 0.0
H1063 H 0.22788 0.61662 0.69558 0.0
H1064 H 0.26268 0.65472 0.69087 0.0
H1065 H 0.25542 0.70924 0.5815 0.0
H1066 H 0.36377 0.80878 0.57577 0.0
H1067 H 0.3305 0.76955 0.56892 0.0
C1068 C 0.40041 0.59952 0.69119 0.0
C1069 C 0.40364 0.58105 0.67161 0.0
C1070 C 0.37834 0.59715 0.68985 0.0
C1071 C 0.31643 0.55225 0.69225 0.0
H1072 H 0.30693 0.60273 0.6376 0.0
C1073 C 0.22963 0.5496 0.7347 0.0
C1074 C 0.22169 0.55833 0.68337 0.0
C1075 C 0.25189 0.55256 0.73178 0.0
C1076 C 0.30926 0.58839 0.65244 0.0
H1077 H 0.38618 0.54576 0.63337 0.0
H1078 H 0.34792 0.54182 0.63007 0.0
H1079 H 0.34573 0.60762 0.63265 0.0
H1080 H 0.23066 0.57699 0.58872 0.0
H1081 H 0.26947 0.58183 0.58291 0.0
H1082 H 0.27994 0.53283 0.71062 0.0
C1083 C 0.36235 0.558 0.64773 0.0
C1084 C 0.33154 0.5913 0.65037 0.0
C1085 C 0.38437 0.56034 0.6492 0.0
C1086 C 0.23635 0.57002 0.62889 0.0
C1087 C 0.25863 0.57296 0.62589 0.0
C1088 C 0.29418 0.54933 0.69414 0.0
C1089 C 0.35902 0.57626 0.66879 0.0
C1090 C 0.33537 0.57325 0.67029 0.0
C1091 C 0.26666 0.56428 0.67736 0.0
C1092 C 0.29033 0.56738 0.67444 0.0
H1093 H 0.41484 0.6157 0.70865 0.0
H1094 H 0.37633 0.61149 0.70697 0.0
H1095 H 0.31881 0.5381 0.70882 0.0
H1096 H 0.2187 0.54063 0.77747 0.0
H1097 H 0.25765 0.54596 0.77275 0.0
C1098 C 0.15247 0.25999 0.74849 0.0
C1099 C 0.13383 0.25648 0.78972 0.0
C1100 C 0.14888 0.25353 0.68086 0.0
C1101 C 0.10807 0.24204 0.542 0.0
H1102 H 0.14402 0.21836 0.45373 0.0
C1103 C 0.09615 0.21791 0.26152 0.0
C1104 C 0.11653 0.22591 0.22327 0.0
C1105 C 0.09708 0.21884 0.3316 0.0
C1106 C 0.13397 0.22508 0.47768 0.0
H1107 H 0.0967 0.24292 0.79285 0.0
H1108 H 0.09033 0.23123 0.6746 0.0
H1109 H 0.14715 0.22445 0.57537 0.0
H1110 H 0.15383 0.24071 0.2288 0.0
H1111 H 0.15549 0.24277 0.35168 0.0
H1112 H 0.09505 0.24287 0.4444 0.0
C1113 C 0.10781 0.23942 0.69438 0.0
C1114 C 0.13574 0.22857 0.54729 0.0
C1115 C 0.11144 0.24609 0.76208 0.0
C1116 C 0.13784 0.23449 0.25682 0.0
C1117 C 0.13877 0.2355 0.32716 0.0
C1118 C 0.10623 0.23847 0.47254 0.0
C1119 C 0.12653 0.24321 0.65291 0.0
C1120 C 0.1231 0.23746 0.58007 0.0
C1121 C 0.1184 0.22789 0.36519 0.0
C1122 C 0.11941 0.23028 0.43949 0.0
H1123 H 0.16997 0.26808 0.76814 0.0
H1124 H 0.16375 0.25713 0.65012 0.0
H1125 H 0.09832 0.24918 0.56543 0.0
H1126 H 0.07938 0.21084 0.23741 0.0
H1127 H 0.08105 0.21246 0.35953 0.0
C1128 C 0.80223 0.91302 0.25279 0.0
C1129 C 0.80315 0.89499 0.21879 0.0
C1130 C 0.80034 0.91269 0.32295 0.0
C1131 C 0.80886 0.88583 0.47557 0.0
H1132 H 0.76689 0.90326 0.55734 0.0
C1133 C 0.77849 0.8662 0.75342 0.0
C1134 C 0.77664 0.88349 0.78879 0.0
C1135 C 0.78358 0.86869 0.68452 0.0
C1136 C 0.7789 0.8986 0.53535 0.0
H1137 H 0.80255 0.86234 0.23184 0.0
H1138 H 0.79883 0.86159 0.35361 0.0
H1139 H 0.77211 0.90579 0.43572 0.0
H1140 H 0.77963 0.91738 0.77994 0.0
H1141 H 0.78858 0.92167 0.66047 0.0
H1142 H 0.81534 0.87832 0.57546 0.0
C1143 C 0.80004 0.87622 0.32635 0.0
C1144 C 0.78192 0.90009 0.46565 0.0
C1145 C 0.802 0.87658 0.2564 0.0
C1146 C 0.78063 0.90357 0.75422 0.0
C1147 C 0.78569 0.90603 0.6856 0.0
C1148 C 0.80578 0.88427 0.54537 0.0
C1149 C 0.79925 0.89428 0.36049 0.0
C1150 C 0.79682 0.89359 0.43489 0.0
C1151 C 0.78689 0.88849 0.64977 0.0
C1152 C 0.79069 0.89056 0.57593 0.0
H1153 H 0.80321 0.92753 0.22537 0.0
H1154 H 0.80002 0.927 0.34784 0.0
H1155 H 0.82076 0.88105 0.4535 0.0
H1156 H 0.77559 0.85056 0.77859 0.0
H1157 H 0.78427 0.85482 0.65809 0.0
C1158 C 0.1674 0.91921 0.75295 0.0
C1159 C 0.14954 0.90073 0.78881 0.0
C1160 C 0.16488 0.92192 0.68419 0.0
C1161 C 0.13334 0.8875 0.53677 0.0
H1162 H 0.15438 0.94708 0.45183 0.0
C1163 C 0.12029 0.89592 0.25323 0.0
C1164 C 0.13896 0.91412 0.2189 0.0
C1165 C 0.12048 0.89469 0.32344 0.0
C1166 C 0.14862 0.93034 0.4748 0.0
H1167 H 0.11456 0.87134 0.78137 0.0
H1168 H 0.11023 0.87619 0.66208 0.0
H1169 H 0.15679 0.94488 0.57408 0.0
H1170 H 0.17262 0.94506 0.23127 0.0
H1171 H 0.17313 0.94258 0.35322 0.0
H1172 H 0.12555 0.87295 0.43781 0.0
C1173 C 0.12632 0.88829 0.68667 0.0
C1174 C 0.14998 0.9291 0.54473 0.0
C1175 C 0.12882 0.88557 0.75512 0.0
C1176 C 0.1579 0.93087 0.25616 0.0
C1177 C 0.15812 0.92957 0.32617 0.0
C1178 C 0.13207 0.88874 0.46696 0.0
C1179 C 0.14447 0.9062 0.65019 0.0
C1180 C 0.14244 0.90767 0.57634 0.0
C1181 C 0.13938 0.91155 0.36066 0.0
C1182 C 0.13983 0.91018 0.43512 0.0
H1183 H 0.18353 0.93123 0.7775 0.0
H1184 H 0.17921 0.93583 0.6572 0.0
H1185 H 0.12773 0.87077 0.55965 0.0
H1186 H 0.10537 0.88282 0.22603 0.0
H1187 H 0.10566 0.8807 0.34861 0.0
C1188 C 0.76996 0.5702 0.58153 0.0
C1189 C 0.78636 0.56674 0.54653 0.0
C1190 C 0.77126 0.57294 0.65125 0.0
C1191 C 0.79426 0.55995 0.80239 0.0
H1192 H 0.78445 0.60712 0.88523 0.0
C1193 C 0.81474 0.58632 0.08076 0.0
C1194 C 0.79954 0.5912 0.11711 0.0
C1195 C 0.81179 0.58195 0.01178 0.0
C1196 C 0.78688 0.59364 0.86292 0.0
H1197 H 0.81718 0.56376 0.55729 0.0
H1198 H 0.81947 0.56863 0.67957 0.0
H1199 H 0.7829 0.6031 0.763 0.0
H1200 H 0.76894 0.59471 0.10967 0.0
H1201 H 0.76376 0.587 0.98874 0.0
H1202 H 0.79832 0.55054 0.90232 0.0
C1203 C 0.8055 0.569 0.65279 0.0
C1204 C 0.78607 0.59139 0.79295 0.0
C1205 C 0.80428 0.56638 0.58279 0.0
C1206 C 0.781 0.59111 0.08309 0.0
C1207 C 0.7781 0.58681 0.01383 0.0
C1208 C 0.79504 0.56217 0.87239 0.0
C1209 C 0.78893 0.57221 0.68769 0.0
C1210 C 0.78987 0.5746 0.76195 0.0
C1211 C 0.79361 0.5824 0.97739 0.0
C1212 C 0.79149 0.57914 0.90337 0.0
H1213 H 0.75594 0.57062 0.55515 0.0
H1214 H 0.75813 0.57517 0.6768 0.0
H1215 H 0.79684 0.54658 0.77994 0.0
H1216 H 0.82917 0.58616 0.10536 0.0
H1217 H 0.82417 0.57885 0.98504 0.0
C1218 C 0.44781 0.23487 0.08461 0.0
C1219 C 0.44236 0.21459 0.1205 0.0
C1220 C 0.45218 0.23629 0.01563 0.0
C1221 C 0.43949 0.19972 0.86604 0.0
H1222 H 0.48773 0.25614 0.7839 0.0
C1223 C 0.46311 0.20591 0.58485 0.0
C1224 C 0.46703 0.22593 0.55016 0.0
C1225 C 0.4603 0.20446 0.65454 0.0
C1226 C 0.47404 0.24037 0.80613 0.0
H1227 H 0.43781 0.18009 0.11226 0.0
H1228 H 0.44551 0.18262 0.99133 0.0
H1229 H 0.48371 0.25363 0.90628 0.0
H1230 H 0.47081 0.26005 0.56137 0.0
H1231 H 0.46586 0.25746 0.68361 0.0
H1232 H 0.42977 0.18649 0.7659 0.0
C1233 C 0.44616 0.19732 0.01678 0.0
C1234 C 0.47177 0.2389 0.87612 0.0
C1235 C 0.44188 0.19593 0.08605 0.0
C1236 C 0.46781 0.24439 0.58664 0.0
C1237 C 0.46515 0.24298 0.65661 0.0
C1238 C 0.44177 0.20118 0.79609 0.0
C1239 C 0.45115 0.21745 0.9808 0.0
C1240 C 0.45439 0.2186 0.90678 0.0
C1241 C 0.46145 0.22302 0.69121 0.0
C1242 C 0.459 0.22155 0.76543 0.0
H1243 H 0.44844 0.24964 0.10959 0.0
H1244 H 0.45574 0.25194 0.98924 0.0
H1245 H 0.42568 0.184 0.88812 0.0
H1246 H 0.46235 0.19134 0.55823 0.0
H1247 H 0.45767 0.18894 0.6799 0.0
C1248 C 0.79035 0.22805 0.59137 0.0
C1249 C 0.80093 0.2497 0.55912 0.0
C1250 C 0.79047 0.22671 0.6616 0.0
C1251 C 0.82382 0.26057 0.80792 0.0
H1252 H 0.77139 0.21446 0.90998 0.0
C1253 C 0.82718 0.25422 0.09725 0.0
C1254 C 0.817 0.23176 0.12412 0.0
C1255 C 0.82383 0.25754 0.02958 0.0
C1256 C 0.78625 0.22732 0.88212 0.0
H1257 H 0.81895 0.28693 0.57547 0.0
H1258 H 0.81895 0.28452 0.69755 0.0
H1259 H 0.76754 0.21782 0.78897 0.0
H1260 H 0.79568 0.19516 0.1011 0.0
H1261 H 0.7905 0.20089 0.98305 0.0
H1262 H 0.84275 0.26974 0.90034 0.0
C1263 C 0.81104 0.26861 0.66861 0.0
C1264 C 0.78401 0.22925 0.81286 0.0
C1265 C 0.811 0.26995 0.5986 0.0
C1266 C 0.80358 0.21271 0.08201 0.0
C1267 C 0.80045 0.21601 0.01439 0.0
C1268 C 0.8261 0.25858 0.87704 0.0
C1269 C 0.8011 0.247 0.70085 0.0
C1270 C 0.80286 0.24572 0.77493 0.0
C1271 C 0.81045 0.23844 0.98734 0.0
C1272 C 0.80745 0.24172 0.91483 0.0
H1273 H 0.78238 0.21213 0.5624 0.0
H1274 H 0.78284 0.20981 0.68506 0.0
H1275 H 0.83875 0.27327 0.77992 0.0
H1276 H 0.83741 0.26923 0.12874 0.0
H1277 H 0.83153 0.27507 0.01055 0.0
C1278 C 0.44581 0.9149 0.4266 0.0
C1279 C 0.46799 0.92468 0.45547 0.0
C1280 C 0.44255 0.90892 0.35833 0.0
C1281 C 0.47075 0.89823 0.2118 0.0
H1282 H 0.43117 0.91379 0.10805 0.0
C1283 C 0.47234 0.90232 0.92059 0.0
C1284 C 0.451 0.89423 0.88758 0.0
C1285 C 0.47358 0.90397 0.99088 0.0
C1286 C 0.44205 0.90905 0.1364 0.0
H1287 H 0.50416 0.93596 0.43529 0.0
H1288 H 0.49857 0.92612 0.31645 0.0
H1289 H 0.43429 0.92001 0.22915 0.0
H1290 H 0.41411 0.88066 0.90261 0.0
H1291 H 0.41629 0.88326 0.02454 0.0
H1292 H 0.47877 0.88761 0.11853 0.0
C1293 C 0.48358 0.9225 0.34663 0.0
C1294 C 0.44381 0.91258 0.20591 0.0
C1295 C 0.4868 0.92831 0.41477 0.0
C1296 C 0.43091 0.88735 0.9263 0.0
C1297 C 0.43213 0.88886 -0.00371 0.0
C1298 C 0.46903 0.89474 0.14217 0.0
C1299 C 0.46144 0.91275 0.31753 0.0
C1300 C 0.45837 0.90745 0.24435 0.0
C1301 C 0.45349 0.89745 0.02939 0.0
C1302 C 0.45481 0.90031 0.10364 0.0
H1303 H 0.43094 0.91167 0.45683 0.0
H1304 H 0.42522 0.90115 0.33762 0.0
H1305 H 0.48182 0.89372 0.24015 0.0
H1306 H 0.48811 0.90772 0.89216 0.0
H1307 H 0.49034 0.91086 0.01494 0.0
C1308 C 0.11364 0.56775 0.41728 0.0
C1309 C 0.10865 0.54775 0.45393 0.0
C1310 C 0.11819 0.56905 0.34844 0.0
C1311 C 0.10669 0.53215 0.20032 0.0
H1312 H 0.15384 0.58898 0.11714 0.0
C1313 C 0.12978 0.53858 0.91848 0.0
C1314 C 0.13301 0.55838 0.88394 0.0
C1315 C 0.12724 0.53711 0.98826 0.0
C1316 C 0.14046 0.57308 0.13968 0.0
H1317 H 0.10518 0.51364 0.44727 0.0
H1318 H 0.11321 0.51597 0.32663 0.0
H1319 H 0.14989 0.5867 0.23953 0.0
H1320 H 0.13578 0.59207 0.89551 0.0
H1321 H 0.13125 0.58944 0.01779 0.0
H1322 H 0.09719 0.51857 0.10045 0.0
C1323 C 0.11333 0.53053 0.35133 0.0
C1324 C 0.13824 0.57175 0.20965 0.0
C1325 C 0.10885 0.52925 0.42043 0.0
C1326 C 0.13333 0.57658 0.92065 0.0
C1327 C 0.13092 0.57516 0.99065 0.0
C1328 C 0.10894 0.53347 0.13036 0.0
C1329 C 0.11783 0.55036 0.31457 0.0
C1330 C 0.1212 0.55133 0.24066 0.0
C1331 C 0.12795 0.55545 0.02511 0.0
C1332 C 0.12573 0.554 0.09934 0.0
H1333 H 0.11374 0.58237 0.44152 0.0
H1334 H 0.12136 0.58446 0.32138 0.0
H1335 H 0.09316 0.51631 0.22269 0.0
H1336 H 0.1294 0.52422 0.89169 0.0
H1337 H 0.12516 0.52179 0.01353 0.0
C1338 C 0.50046 0.58514 0.41996 0.0
C1339 C 0.48266 0.5666 0.4558 0.0
C1340 C 0.49796 0.58781 0.35115 0.0
C1341 C 0.46646 0.55342 0.2033 0.0
H1342 H 0.48746 0.61309 0.11903 0.0
C1343 C 0.45321 0.56219 0.91996 0.0
C1344 C 0.47185 0.58043 0.88564 0.0
C1345 C 0.45346 0.56086 0.99016 0.0
C1346 C 0.48171 0.59632 0.1418 0.0
H1347 H 0.44781 0.537 0.44813 0.0
H1348 H 0.4435 0.54179 0.32876 0.0
H1349 H 0.4899 0.61075 0.2412 0.0
H1350 H 0.50552 0.61135 0.89806 0.0
H1351 H 0.50612 0.60873 0.01997 0.0
H1352 H 0.45861 0.53898 0.10419 0.0
C1353 C 0.45955 0.55397 0.35342 0.0
C1354 C 0.48309 0.595 0.2117 0.0
C1355 C 0.46203 0.55129 0.42193 0.0
C1356 C 0.49081 0.59713 0.92292 0.0
C1357 C 0.49109 0.59575 -0.00708 0.0
C1358 C 0.46515 0.55474 0.1335 0.0
C1359 C 0.47762 0.57199 0.317 0.0
C1360 C 0.47558 0.57354 0.24312 0.0
C1361 C 0.47239 0.57767 0.02741 0.0
C1362 C 0.4729 0.57621 0.10188 0.0
H1363 H 0.51652 0.59727 0.4446 0.0
H1364 H 0.51224 0.60181 0.32425 0.0
H1365 H 0.46086 0.53666 0.22597 0.0
H1366 H 0.43828 0.54912 0.89276 0.0
H1367 H 0.43867 0.54684 0.01531 0.0
loop_
_geom_bond_atom_site_label_1
_geom_bond_atom_site_label_2
_geom_bond_distance
_geom_bond_site_symmetry_2
_ccdc_geom_bond_type
Co0 H3 2.400 1_556 S
Co0 O4 2.009 1_556 S
Co0 O12 2.115 . S
Co0 O13 2.315 1_556 S
Co0 O24 2.053 . S
Co0 O27 2.094 . S
Co0 O30 2.122 . S
Co1 O4 2.126 . S
Co1 H5 2.388 1_554 S
Co1 O6 2.053 1_554 S
Co1 O9 2.047 . S
Co1 O15 2.113 . S
Co1 O26 2.063 . S
Co2 H3 2.388 1_556 S
Co2 O4 2.053 1_556 S
Co2 O6 2.126 . S
Co2 O11 2.063 . S
Co2 O25 2.047 . S
Co2 O31 2.113 . S
H3 Co0 2.400 1_554 S
H3 Co2 2.388 1_554 S
H3 O4 0.760 . S
O4 Co0 2.009 1_554 S
O4 Co1 2.126 . S
O4 Co2 2.053 1_554 S
O4 H3 0.760 . S
H5 Co1 2.388 1_556 S
H5 O6 0.760 . S
H5 Co7 2.400 1_556 S
O6 Co1 2.053 1_556 S
O6 Co2 2.126 . S
O6 H5 0.760 . S
O6 Co7 2.009 1_556 S
Co7 H5 2.400 1_554 S
Co7 O6 2.009 1_554 S
Co7 O8 2.053 . S
Co7 O10 2.094 . S
Co7 O14 2.122 . S
Co7 O28 2.115 . S
Co7 O29 2.315 . S
O8 Co7 2.053 . S
O8 C20 1.259 . S
O9 Co1 2.047 . S
O9 C20 1.257 . S
O10 Co7 2.094 . S
O10 C21 1.253 . S
O11 Co2 2.063 . S
O11 C21 1.268 1_556 S
O12 Co0 2.115 . S
O12 C22 1.281 . S
O13 Co0 2.315 1_554 S
O13 C22 1.252 1_554 S
O14 Co7 2.122 . S
O14 C23 1.272 . S
O15 Co1 2.113 . S
O15 C23 1.245 . S
C16 O24 1.259 . S
C16 O25 1.257 . S
C17 O26 1.268 1_556 S
C17 O27 1.253 . S
C18 O28 1.281 . S
C18 O29 1.252 . S
C19 O30 1.272 . S
C19 O31 1.245 . S
C20 O8 1.259 . S
C20 O9 1.257 . S
C21 O10 1.253 . S
C21 O11 1.268 1_554 S
C22 O12 1.281 . S
C22 O13 1.252 1_556 S
C23 O14 1.272 . S
C23 O15 1.245 . S
O24 Co0 2.053 . S
O24 C16 1.259 . S
O25 Co2 2.047 . S
O25 C16 1.257 . S
O26 Co1 2.063 . S
O26 C17 1.268 1_554 S
O27 Co0 2.094 . S
O27 C17 1.253 . S
O28 Co7 2.115 . S
O28 C18 1.281 . S
O29 Co7 2.315 . S
O29 C18 1.252 . S
O30 Co0 2.122 . S
O30 C19 1.272 . S
O31 Co2 2.113 . S
O31 C19 1.245 . S
Co32 H35 2.400 1_556 S
Co32 O36 2.009 1_556 S
Co32 O44 2.115 . S
Co32 O45 2.315 1_556 S
Co32 O56 2.053 . S
Co32 O59 2.094 . S
Co32 O62 2.122 . S
Co33 O36 2.126 . S
Co33 H37 2.388 1_554 S
Co33 O38 2.053 1_554 S
Co33 O41 2.047 . S
Co33 O47 2.113 . S
Co33 O58 2.063 . S
Co34 H35 2.388 1_556 S
Co34 O36 2.053 1_556 S
Co34 O38 2.126 . S
Co34 O43 2.063 . S
Co34 O57 2.047 . S
Co34 O63 2.113 . S
H35 Co32 2.400 1_554 S
H35 Co34 2.388 1_554 S
H35 O36 0.760 . S
O36 Co32 2.009 1_554 S
O36 Co33 2.126 . S
O36 Co34 2.053 1_554 S
O36 H35 0.760 . S
H37 Co33 2.388 1_556 S
H37 O38 0.760 . S
H37 Co39 2.400 1_556 S
O38 Co33 2.053 1_556 S
O38 Co34 2.126 . S
O38 H37 0.760 . S
O38 Co39 2.009 1_556 S
Co39 H37 2.400 1_554 S
Co39 O38 2.009 1_554 S
Co39 O40 2.053 . S
Co39 O42 2.094 . S
Co39 O46 2.122 . S
Co39 O60 2.115 . S
Co39 O61 2.315 . S
O40 Co39 2.053 . S
O40 C52 1.259 . S
O41 Co33 2.047 . S
O41 C52 1.257 . S
O42 Co39 2.094 . S
O42 C53 1.253 . S
O43 Co34 2.063 . S
O43 C53 1.268 1_556 S
O44 Co32 2.115 . S
O44 C54 1.281 . S
O45 Co32 2.315 1_554 S
O45 C54 1.252 1_554 S
O46 Co39 2.122 . S
O46 C55 1.272 . S
O47 Co33 2.113 . S
O47 C55 1.245 . S
C48 O56 1.259 . S
C48 O57 1.257 . S
C49 O58 1.268 1_556 S
C49 O59 1.253 . S
C50 O60 1.281 . S
C50 O61 1.252 . S
C51 O62 1.272 . S
C51 O63 1.245 . S
C52 O40 1.259 . S
C52 O41 1.257 . S
C53 O42 1.253 . S
C53 O43 1.268 1_554 S
C54 O44 1.281 . S
C54 O45 1.252 1_556 S
C55 O46 1.272 . S
C55 O47 1.245 . S
O56 Co32 2.053 . S
O56 C48 1.259 . S
O57 Co34 2.047 . S
O57 C48 1.257 . S
O58 Co33 2.063 . S
O58 C49 1.268 1_554 S
O59 Co32 2.094 . S
O59 C49 1.253 . S
O60 Co39 2.115 . S
O60 C50 1.281 . S
O61 Co39 2.315 . S
O61 C50 1.252 . S
O62 Co32 2.122 . S
O62 C51 1.272 . S
O63 Co34 2.113 . S
O63 C51 1.245 . S
Co64 H67 2.400 1_556 S
Co64 O68 2.009 1_556 S
Co64 O76 2.115 . S
Co64 O77 2.315 1_556 S
Co64 O88 2.053 . S
Co64 O91 2.094 . S
Co64 O94 2.122 . S
Co65 O68 2.126 . S
Co65 H69 2.388 1_554 S
Co65 O70 2.053 1_554 S
Co65 O73 2.047 . S
Co65 O79 2.113 . S
Co65 O90 2.063 . S
Co66 H67 2.388 1_556 S
Co66 O68 2.053 1_556 S
Co66 O70 2.126 . S
Co66 O75 2.063 . S
Co66 O89 2.047 . S
Co66 O95 2.113 . S
H67 Co64 2.400 1_554 S
H67 Co66 2.388 1_554 S
H67 O68 0.760 . S
O68 Co64 2.009 1_554 S
O68 Co65 2.126 . S
O68 Co66 2.053 1_554 S
O68 H67 0.760 . S
H69 Co65 2.388 1_556 S
H69 O70 0.761 . S
H69 Co71 2.400 1_556 S
O70 Co65 2.053 1_556 S
O70 Co66 2.126 . S
O70 H69 0.761 . S
O70 Co71 2.008 1_556 S
Co71 H69 2.400 1_554 S
Co71 O70 2.008 1_554 S
Co71 O72 2.053 . S
Co71 O74 2.094 . S
Co71 O78 2.122 . S
Co71 O92 2.115 . S
Co71 O93 2.315 . S
O72 Co71 2.053 . S
O72 C84 1.259 . S
O73 Co65 2.047 . S
O73 C84 1.257 . S
O74 Co71 2.094 . S
O74 C85 1.253 . S
O75 Co66 2.063 . S
O75 C85 1.268 1_556 S
O76 Co64 2.115 . S
O76 C86 1.281 . S
O77 Co64 2.315 1_554 S
O77 C86 1.252 1_554 S
O78 Co71 2.122 . S
O78 C87 1.272 . S
O79 Co65 2.113 . S
O79 C87 1.245 . S
C80 O88 1.259 . S
C80 O89 1.257 . S
C81 O90 1.268 1_556 S
C81 O91 1.253 . S
C82 O92 1.281 . S
C82 O93 1.252 . S
C83 O94 1.272 . S
C83 O95 1.245 . S
C84 O72 1.259 . S
C84 O73 1.257 . S
C85 O74 1.253 . S
C85 O75 1.268 1_554 S
C86 O76 1.281 . S
C86 O77 1.252 1_556 S
C87 O78 1.272 . S
C87 O79 1.245 . S
O88 Co64 2.053 . S
O88 C80 1.259 . S
O89 Co66 2.047 . S
O89 C80 1.257 . S
O90 Co65 2.063 . S
O90 C81 1.268 1_554 S
O91 Co64 2.094 . S
O91 C81 1.253 . S
O92 Co71 2.115 . S
O92 C82 1.281 . S
O93 Co71 2.315 . S
O93 C82 1.252 . S
O94 Co64 2.122 . S
O94 C83 1.272 . S
O95 Co66 2.113 . S
O95 C83 1.245 . S
Co96 H99 2.400 . S
Co96 O100 2.009 . S
Co96 O108 2.115 . S
Co96 O109 2.315 . S
Co96 O120 2.053 . S
Co96 O123 2.094 . S
Co96 O126 2.122 . S
Co97 O100 2.126 . S
Co97 H101 2.388 . S
Co97 O102 2.053 . S
Co97 O105 2.047 . S
Co97 O111 2.113 . S
Co97 O122 2.063 . S
Co98 H99 2.388 . S
Co98 O100 2.053 . S
Co98 O102 2.126 . S
Co98 O107 2.063 . S
Co98 O121 2.047 . S
Co98 O127 2.113 . S
H99 Co96 2.400 . S
H99 Co98 2.388 . S
H99 O100 0.760 . S
O100 Co96 2.009 . S
O100 Co97 2.126 . S
O100 Co98 2.053 . S
O100 H99 0.760 . S
H101 Co97 2.388 . S
H101 O102 0.760 . S
H101 Co103 2.400 . S
O102 Co97 2.053 . S
O102 Co98 2.126 . S
O102 H101 0.760 . S
O102 Co103 2.009 . S
Co103 H101 2.400 . S
Co103 O102 2.009 . S
Co103 O104 2.053 . S
Co103 O106 2.094 . S
Co103 O110 2.122 . S
Co103 O124 2.115 . S
Co103 O125 2.315 . S
O104 Co103 2.053 . S
O104 C116 1.259 . S
O105 Co97 2.047 . S
O105 C116 1.257 . S
O106 Co103 2.094 . S
O106 C117 1.253 . S
O107 Co98 2.063 . S
O107 C117 1.268 . S
O108 Co96 2.115 . S
O108 C118 1.281 . S
O109 Co96 2.315 . S
O109 C118 1.252 . S
O110 Co103 2.122 . S
O110 C119 1.272 . S
O111 Co97 2.113 . S
O111 C119 1.245 . S
C112 O120 1.259 . S
C112 O121 1.257 . S
C113 O122 1.268 . S
C113 O123 1.253 . S
C114 O124 1.281 . S
C114 O125 1.252 . S
C115 O126 1.272 . S
C115 O127 1.245 . S
C116 O104 1.259 . S
C116 O105 1.257 . S
C117 O106 1.253 . S
C117 O107 1.268 . S
C118 O108 1.281 . S
C118 O109 1.252 . S
C119 O110 1.272 . S
C119 O111 1.245 . S
O120 Co96 2.053 . S
O120 C112 1.259 . S
O121 Co98 2.047 . S
O121 C112 1.257 . S
O122 Co97 2.063 . S
O122 C113 1.268 . S
O123 Co96 2.094 . S
O123 C113 1.253 . S
O124 Co103 2.115 . S
O124 C114 1.281 . S
O125 Co103 2.315 . S
O125 C114 1.252 . S
O126 Co96 2.122 . S
O126 C115 1.272 . S
O127 Co98 2.113 . S
O127 C115 1.245 . S
Co128 H131 2.400 . S
Co128 O132 2.009 . S
Co128 O140 2.115 . S
Co128 O141 2.315 . S
Co128 O152 2.053 . S
Co128 O155 2.094 . S
Co128 O158 2.122 . S
Co129 O132 2.126 . S
Co129 H133 2.388 . S
Co129 O134 2.053 . S
Co129 O137 2.047 . S
Co129 O143 2.113 . S
Co129 O154 2.063 . S
Co130 H131 2.388 . S
Co130 O132 2.053 . S
Co130 O134 2.126 . S
Co130 O139 2.063 . S
Co130 O153 2.047 . S
Co130 O159 2.113 . S
H131 Co128 2.400 . S
H131 Co130 2.388 . S
H131 O132 0.760 . S
O132 Co128 2.009 . S
O132 Co129 2.126 . S
O132 Co130 2.053 . S
O132 H131 0.760 . S
H133 Co129 2.388 . S
H133 O134 0.760 . S
H133 Co135 2.400 . S
O134 Co129 2.053 . S
O134 Co130 2.126 . S
O134 H133 0.760 . S
O134 Co135 2.009 . S
Co135 H133 2.400 . S
Co135 O134 2.009 . S
Co135 O136 2.053 . S
Co135 O138 2.094 . S
Co135 O142 2.122 . S
Co135 O156 2.115 . S
Co135 O157 2.315 . S
O136 Co135 2.053 . S
O136 C148 1.259 . S
O137 Co129 2.047 . S
O137 C148 1.257 . S
O138 Co135 2.094 . S
O138 C149 1.253 . S
O139 Co130 2.063 . S
O139 C149 1.268 . S
O140 Co128 2.115 . S
O140 C150 1.281 . S
O141 Co128 2.315 . S
O141 C150 1.252 . S
O142 Co135 2.122 . S
O142 C151 1.272 . S
O143 Co129 2.113 . S
O143 C151 1.245 . S
C144 O152 1.259 . S
C144 O153 1.257 . S
C145 O154 1.268 . S
C145 O155 1.253 . S
C146 O156 1.281 . S
C146 O157 1.252 . S
C147 O158 1.272 . S
C147 O159 1.245 . S
C148 O136 1.259 . S
C148 O137 1.257 . S
C149 O138 1.253 . S
C149 O139 1.268 . S
C150 O140 1.281 . S
C150 O141 1.252 . S
C151 O142 1.272 . S
C151 O143 1.245 . S
O152 Co128 2.053 . S
O152 C144 1.259 . S
O153 Co130 2.047 . S
O153 C144 1.257 . S
O154 Co129 2.063 . S
O154 C145 1.268 . S
O155 Co128 2.094 . S
O155 C145 1.253 . S
O156 Co135 2.115 . S
O156 C146 1.281 . S
O157 Co135 2.315 . S
O157 C146 1.252 . S
O158 Co128 2.122 . S
O158 C147 1.272 . S
O159 Co130 2.113 . S
O159 C147 1.245 . S
Co160 H163 2.400 . S
Co160 O164 2.009 . S
Co160 O172 2.115 . S
Co160 O173 2.315 . S
Co160 O184 2.053 . S
Co160 O187 2.094 . S
Co160 O190 2.122 . S
Co161 O164 2.126 . S
Co161 H165 2.388 . S
Co161 O166 2.053 . S
Co161 O169 2.047 . S
Co161 O175 2.113 . S
Co161 O186 2.063 . S
Co162 H163 2.388 . S
Co162 O164 2.053 . S
Co162 O166 2.126 . S
Co162 O171 2.063 . S
Co162 O185 2.047 . S
Co162 O191 2.113 . S
H163 Co160 2.400 . S
H163 Co162 2.388 . S
H163 O164 0.760 . S
O164 Co160 2.009 . S
O164 Co161 2.126 . S
O164 Co162 2.053 . S
O164 H163 0.760 . S
H165 Co161 2.388 . S
H165 O166 0.760 . S
H165 Co167 2.400 . S
O166 Co161 2.053 . S
O166 Co162 2.126 . S
O166 H165 0.760 . S
O166 Co167 2.009 . S
Co167 H165 2.400 . S
Co167 O166 2.009 . S
Co167 O168 2.053 . S
Co167 O170 2.094 . S
Co167 O174 2.122 . S
Co167 O188 2.115 . S
Co167 O189 2.315 . S
O168 Co167 2.053 . S
O168 C180 1.259 . S
O169 Co161 2.047 . S
O169 C180 1.257 . S
O170 Co167 2.094 . S
O170 C181 1.253 . S
O171 Co162 2.063 . S
O171 C181 1.268 . S
O172 Co160 2.115 . S
O172 C182 1.281 . S
O173 Co160 2.315 . S
O173 C182 1.252 . S
O174 Co167 2.122 . S
O174 C183 1.272 . S
O175 Co161 2.113 . S
O175 C183 1.245 . S
C176 O184 1.259 . S
C176 O185 1.257 . S
C177 O186 1.268 . S
C177 O187 1.253 . S
C178 O188 1.281 . S
C178 O189 1.252 . S
C179 O190 1.272 . S
C179 O191 1.245 . S
C180 O168 1.259 . S
C180 O169 1.257 . S
C181 O170 1.253 . S
C181 O171 1.268 . S
C182 O172 1.281 . S
C182 O173 1.252 . S
C183 O174 1.272 . S
C183 O175 1.245 . S
O184 Co160 2.053 . S
O184 C176 1.259 . S
O185 Co162 2.047 . S
O185 C176 1.257 . S
O186 Co161 2.063 . S
O186 C177 1.268 . S
O187 Co160 2.094 . S
O187 C177 1.253 . S
O188 Co167 2.115 . S
O188 C178 1.281 . S
O189 Co167 2.315 . S
O189 C178 1.252 . S
O190 Co160 2.122 . S
O190 C179 1.272 . S
O191 Co162 2.113 . S
O191 C179 1.245 . S
Co192 H195 2.400 . S
Co192 O196 2.009 . S
Co192 O204 2.115 . S
Co192 O205 2.315 . S
Co192 O216 2.053 . S
Co192 O219 2.094 . S
Co192 O222 2.122 . S
Co193 O196 2.126 . S
Co193 H197 2.388 . S
Co193 O198 2.053 . S
Co193 O201 2.047 . S
Co193 O207 2.113 . S
Co193 O218 2.063 . S
Co194 H195 2.388 . S
Co194 O196 2.053 . S
Co194 O198 2.126 . S
Co194 O203 2.063 . S
Co194 O217 2.047 . S
Co194 O223 2.113 . S
H195 Co192 2.400 . S
H195 Co194 2.388 . S
H195 O196 0.760 . S
O196 Co192 2.009 . S
O196 Co193 2.126 . S
O196 Co194 2.053 . S
O196 H195 0.760 . S
H197 Co193 2.388 . S
H197 O198 0.760 . S
H197 Co199 2.400 . S
O198 Co193 2.053 . S
O198 Co194 2.126 . S
O198 H197 0.760 . S
O198 Co199 2.009 . S
Co199 H197 2.400 . S
Co199 O198 2.009 . S
Co199 O200 2.053 . S
Co199 O202 2.094 . S
Co199 O206 2.122 . S
Co199 O220 2.115 . S
Co199 O221 2.315 . S
O200 Co199 2.053 . S
O200 C212 1.259 . S
O201 Co193 2.047 . S
O201 C212 1.257 . S
O202 Co199 2.094 . S
O202 C213 1.253 . S
O203 Co194 2.063 . S
O203 C213 1.268 . S
O204 Co192 2.115 . S
O204 C214 1.281 . S
O205 Co192 2.315 . S
O205 C214 1.252 . S
O206 Co199 2.122 . S
O206 C215 1.272 . S
O207 Co193 2.113 . S
O207 C215 1.245 . S
C208 O216 1.259 . S
C208 O217 1.257 . S
C209 O218 1.268 . S
C209 O219 1.253 . S
C210 O220 1.281 . S
C210 O221 1.252 . S
C211 O222 1.272 . S
C211 O223 1.245 . S
C212 O200 1.259 . S
C212 O201 1.257 . S
C213 O202 1.253 . S
C213 O203 1.268 . S
C214 O204 1.281 . S
C214 O205 1.252 . S
C215 O206 1.272 . S
C215 O207 1.245 . S
O216 Co192 2.053 . S
O216 C208 1.259 . S
O217 Co194 2.047 . S
O217 C208 1.257 . S
O218 Co193 2.063 . S
O218 C209 1.268 . S
O219 Co192 2.094 . S
O219 C209 1.253 . S
O220 Co199 2.115 . S
O220 C210 1.281 . S
O221 Co199 2.315 . S
O221 C210 1.252 . S
O222 Co192 2.122 . S
O222 C211 1.272 . S
O223 Co194 2.113 . S
O223 C211 1.245 . S
Co224 H227 2.400 . S
Co224 O228 2.009 . S
Co224 O236 2.115 . S
Co224 O237 2.315 . S
Co224 O248 2.053 . S
Co224 O251 2.094 . S
Co224 O254 2.122 . S
Co225 O228 2.126 . S
Co225 H229 2.388 . S
Co225 O230 2.053 . S
Co225 O233 2.047 . S
Co225 O239 2.113 . S
Co225 O250 2.063 . S
Co226 H227 2.388 . S
Co226 O228 2.053 . S
Co226 O230 2.126 . S
Co226 O235 2.063 . S
Co226 O249 2.047 . S
Co226 O255 2.113 . S
H227 Co224 2.400 . S
H227 Co226 2.388 . S
H227 O228 0.760 . S
O228 Co224 2.009 . S
O228 Co225 2.126 . S
O228 Co226 2.053 . S
O228 H227 0.760 . S
H229 Co225 2.388 . S
H229 O230 0.760 . S
H229 Co231 2.400 . S
O230 Co225 2.053 . S
O230 Co226 2.126 . S
O230 H229 0.760 . S
O230 Co231 2.009 . S
Co231 H229 2.400 . S
Co231 O230 2.009 . S
Co231 O232 2.053 . S
Co231 O234 2.094 . S
Co231 O238 2.122 . S
Co231 O252 2.115 . S
Co231 O253 2.315 . S
O232 Co231 2.053 . S
O232 C244 1.259 . S
O233 Co225 2.047 . S
O233 C244 1.257 . S
O234 Co231 2.094 . S
O234 C245 1.253 . S
O235 Co226 2.063 . S
O235 C245 1.268 . S
O236 Co224 2.115 . S
O236 C246 1.281 . S
O237 Co224 2.315 . S
O237 C246 1.252 . S
O238 Co231 2.122 . S
O238 C247 1.272 . S
O239 Co225 2.113 . S
O239 C247 1.245 . S
C240 O248 1.259 . S
C240 O249 1.257 . S
C241 O250 1.268 . S
C241 O251 1.253 . S
C242 O252 1.281 . S
C242 O253 1.252 . S
C243 O254 1.272 . S
C243 O255 1.245 . S
C244 O232 1.259 . S
C244 O233 1.257 . S
C245 O234 1.253 . S
C245 O235 1.268 . S
C246 O236 1.281 . S
C246 O237 1.252 . S
C247 O238 1.272 . S
C247 O239 1.245 . S
O248 Co224 2.053 . S
O248 C240 1.259 . S
O249 Co226 2.047 . S
O249 C240 1.257 . S
O250 Co225 2.063 . S
O250 C241 1.268 . S
O251 Co224 2.094 . S
O251 C241 1.253 . S
O252 Co231 2.115 . S
O252 C242 1.281 . S
O253 Co231 2.315 . S
O253 C242 1.252 . S
O254 Co224 2.122 . S
O254 C243 1.272 . S
O255 Co226 2.113 . S
O255 C243 1.245 . S
Co256 H259 2.400 . S
Co256 O260 2.009 . S
Co256 O268 2.115 . S
Co256 O269 2.315 . S
Co256 O280 2.053 . S
Co256 O283 2.094 . S
Co256 O286 2.122 . S
Co257 O260 2.126 . S
Co257 H261 2.388 . S
Co257 O262 2.053 . S
Co257 O265 2.047 . S
Co257 O271 2.113 . S
Co257 O282 2.063 . S
Co258 H259 2.388 . S
Co258 O260 2.053 . S
Co258 O262 2.126 . S
Co258 O267 2.063 . S
Co258 O281 2.047 . S
Co258 O287 2.113 . S
H259 Co256 2.400 . S
H259 Co258 2.388 . S
H259 O260 0.760 . S
O260 Co256 2.009 . S
O260 Co257 2.126 . S
O260 Co258 2.053 . S
O260 H259 0.760 . S
H261 Co257 2.388 . S
H261 O262 0.760 . S
H261 Co263 2.400 . S
O262 Co257 2.053 . S
O262 Co258 2.126 . S
O262 H261 0.760 . S
O262 Co263 2.009 . S
Co263 H261 2.400 . S
Co263 O262 2.009 . S
Co263 O264 2.053 . S
Co263 O266 2.094 . S
Co263 O270 2.122 . S
Co263 O284 2.115 . S
Co263 O285 2.315 . S
O264 Co263 2.053 . S
O264 C276 1.259 . S
O265 Co257 2.047 . S
O265 C276 1.257 . S
O266 Co263 2.094 . S
O266 C277 1.253 . S
O267 Co258 2.063 . S
O267 C277 1.268 . S
O268 Co256 2.115 . S
O268 C278 1.281 . S
O269 Co256 2.315 . S
O269 C278 1.252 . S
O270 Co263 2.122 . S
O270 C279 1.272 . S
O271 Co257 2.113 . S
O271 C279 1.245 . S
C272 O280 1.259 . S
C272 O281 1.257 . S
C273 O282 1.268 . S
C273 O283 1.253 . S
C274 O284 1.281 . S
C274 O285 1.252 . S
C275 O286 1.272 . S
C275 O287 1.245 . S
C276 O264 1.259 . S
C276 O265 1.257 . S
C277 O266 1.253 . S
C277 O267 1.268 . S
C278 O268 1.281 . S
C278 O269 1.252 . S
C279 O270 1.272 . S
C279 O271 1.245 . S
O280 Co256 2.053 . S
O280 C272 1.259 . S
O281 Co258 2.047 . S
O281 C272 1.257 . S
O282 Co257 2.063 . S
O282 C273 1.268 . S
O283 Co256 2.094 . S
O283 C273 1.253 . S
O284 Co263 2.115 . S
O284 C274 1.281 . S
O285 Co263 2.315 . S
O285 C274 1.252 . S
O286 Co256 2.122 . S
O286 C275 1.272 . S
O287 Co258 2.113 . S
O287 C275 1.245 . S
C288 C289 1.349 . S
C288 C290 1.327 . S
C288 H313 0.950 1_554 S
C289 C288 1.349 . S
C289 C305 1.349 . S
C290 C288 1.327 . S
C290 C309 1.429 . S
C290 H314 0.950 . S
C291 C308 1.574 . S
C291 C310 1.368 . S
C291 H315 0.949 . S
H292 C296 0.949 . S
C293 C294 1.349 . S
C293 C295 1.327 . S
C293 H316 0.950 . S
C294 C293 1.349 . S
C294 C306 1.349 . S
C295 C293 1.327 . S
C295 C311 1.429 . S
C295 H317 0.950 . S
C296 H292 0.949 . S
C296 C304 1.574 . S
C296 C312 1.368 . S
H297 C305 0.950 . S
H298 C303 0.950 . S
H299 C304 0.949 . S
H300 C306 0.950 . S
H301 C307 0.950 . S
H302 C308 0.949 . S
C303 H298 0.950 . S
C303 C305 1.327 . S
C303 C309 1.429 . S
C304 C296 1.574 . S
C304 H299 0.949 . S
C304 C310 1.368 . S
C305 C289 1.349 . S
C305 H297 0.950 . S
C305 C303 1.327 . S
C306 C294 1.349 . S
C306 H300 0.950 . S
C306 C307 1.327 . S
C307 H301 0.950 . S
C307 C306 1.327 . S
C307 C311 1.429 . S
C308 C291 1.574 . S
C308 H302 0.949 . S
C308 C312 1.368 . S
C309 C290 1.429 . S
C309 C303 1.429 . S
C309 C310 1.523 . S
C310 C291 1.368 . S
C310 C304 1.368 . S
C310 C309 1.523 . S
C311 C295 1.429 . S
C311 C307 1.429 . S
C311 C312 1.523 . S
C312 C296 1.368 . S
C312 C308 1.368 . S
C312 C311 1.523 . S
H313 C288 0.950 1_556 S
H314 C290 0.950 . S
H315 C291 0.949 . S
H316 C293 0.950 . S
H317 C295 0.950 . S
C318 C319 1.349 . S
C318 C320 1.327 . S
C318 H343 0.950 . S
C319 C318 1.349 . S
C319 C335 1.349 . S
C320 C318 1.327 . S
C320 C339 1.429 . S
C320 H344 0.950 . S
C321 C338 1.574 . S
C321 C340 1.368 . S
C321 H345 0.949 . S
H322 C326 0.949 . S
C323 C324 1.349 . S
C323 C325 1.327 . S
C323 H346 0.950 . S
C324 C323 1.349 . S
C324 C336 1.349 1_554 S
C325 C323 1.327 . S
C325 C341 1.429 . S
C325 H347 0.950 . S
C326 H322 0.949 . S
C326 C334 1.574 . S
C326 C342 1.368 . S
H327 C335 0.950 . S
H328 C333 0.950 . S
H329 C334 0.949 . S
H330 C336 0.950 . S
H331 C337 0.953 1_546 S
H332 C338 0.949 1_565 S
C333 H328 0.950 . S
C333 C335 1.327 . S
C333 C339 1.429 . S
C334 C326 1.574 . S
C334 H329 0.949 . S
C334 C340 1.368 . S
C335 C319 1.349 . S
C335 H327 0.950 . S
C335 C333 1.327 . S
C336 C324 1.349 1_556 S
C336 H330 0.950 . S
C336 C337 1.322 1_556 S
C337 H331 0.953 1_564 S
C337 C336 1.322 1_554 S
C337 C341 1.430 . S
C338 C321 1.574 . S
C338 H332 0.949 1_545 S
C338 C342 1.368 . S
C339 C320 1.429 . S
C339 C333 1.429 . S
C339 C340 1.523 . S
C340 C321 1.368 . S
C340 C334 1.368 . S
C340 C339 1.523 . S
C341 C325 1.429 . S
C341 C337 1.430 . S
C341 C342 1.523 1_565 S
C342 C326 1.368 . S
C342 C338 1.368 . S
C342 C341 1.523 1_545 S
H343 C318 0.950 . S
H344 C320 0.950 . S
H345 C321 0.949 . S
H346 C323 0.950 . S
H347 C325 0.950 . S
C348 C349 1.349 1_556 S
C348 C350 1.327 1_556 S
C348 H373 0.950 . S
C349 C348 1.349 1_554 S
C349 C365 1.349 . S
C350 C348 1.327 1_554 S
C350 C369 1.429 . S
C350 H374 0.950 . S
C351 C368 1.574 . S
C351 C370 1.368 . S
C351 H375 0.949 . S
H352 C356 0.949 . S
C353 C354 1.349 . S
C353 C355 1.327 . S
C353 H376 0.950 . S
C354 C353 1.349 . S
C354 C366 1.349 . S
C355 C353 1.327 . S
C355 C371 1.429 . S
C355 H377 0.950 . S
C356 H352 0.949 . S
C356 C364 1.574 . S
C356 C372 1.368 . S
H357 C365 0.950 . S
H358 C363 0.950 . S
H359 C364 0.949 . S
H360 C366 0.950 . S
H361 C367 0.950 . S
H362 C368 0.949 . S
C363 H358 0.950 . S
C363 C365 1.327 . S
C363 C369 1.429 . S
C364 C356 1.574 . S
C364 H359 0.949 . S
C364 C370 1.368 . S
C365 C349 1.349 . S
C365 H357 0.950 . S
C365 C363 1.327 . S
C366 C354 1.349 . S
C366 H360 0.950 . S
C366 C367 1.327 . S
C367 H361 0.950 . S
C367 C366 1.327 . S
C367 C371 1.429 . S
C368 C351 1.574 . S
C368 H362 0.949 . S
C368 C372 1.368 . S
C369 C350 1.429 . S
C369 C363 1.429 . S
C369 C370 1.523 1_455 S
C370 C351 1.368 . S
C370 C364 1.368 . S
C370 C369 1.523 1_655 S
C371 C355 1.429 . S
C371 C367 1.429 . S
C371 C372 1.523 . S
C372 C356 1.368 . S
C372 C368 1.368 . S
C372 C371 1.523 . S
H373 C348 0.950 . S
H374 C350 0.950 . S
H375 C351 0.949 . S
H376 C353 0.950 . S
H377 C355 0.950 . S
C378 C379 1.349 . S
C378 C380 1.327 . S
C378 H403 0.950 . S
C379 C378 1.349 . S
C379 C395 1.349 . S
C380 C378 1.327 . S
C380 C399 1.429 . S
C380 H404 0.950 . S
C381 C398 1.574 . S
C381 C400 1.368 . S
C381 H405 0.949 . S
H382 C386 0.949 . S
C383 C384 1.349 . S
C383 C385 1.327 . S
C383 H406 0.950 . S
C384 C383 1.349 . S
C384 C396 1.349 . S
C385 C383 1.327 . S
C385 C401 1.429 . S
C385 H407 0.950 . S
C386 H382 0.949 . S
C386 C394 1.574 . S
C386 C402 1.368 . S
H387 C395 0.950 . S
H388 C393 0.950 . S
H389 C394 0.949 . S
H390 C396 0.950 . S
H391 C397 0.950 . S
H392 C398 0.949 . S
C393 H388 0.950 . S
C393 C395 1.327 . S
C393 C399 1.429 . S
C394 C386 1.574 . S
C394 H389 0.949 . S
C394 C400 1.368 . S
C395 C379 1.349 . S
C395 H387 0.950 . S
C395 C393 1.327 . S
C396 C384 1.349 . S
C396 H390 0.950 . S
C396 C397 1.327 . S
C397 H391 0.950 . S
C397 C396 1.327 . S
C397 C401 1.429 . S
C398 C381 1.574 . S
C398 H392 0.949 . S
C398 C402 1.368 . S
C399 C380 1.429 . S
C399 C393 1.429 . S
C399 C400 1.523 . S
C400 C381 1.368 . S
C400 C394 1.368 . S
C400 C399 1.523 . S
C401 C385 1.429 . S
C401 C397 1.429 . S
C401 C402 1.523 . S
C402 C386 1.368 . S
C402 C398 1.368 . S
C402 C401 1.523 . S
H403 C378 0.950 . S
H404 C380 0.950 . S
H405 C381 0.949 . S
H406 C383 0.950 . S
H407 C385 0.950 . S
C408 C409 1.349 . S
C408 C410 1.327 . S
C408 H433 0.950 . S
C409 C408 1.349 . S
C409 C425 1.349 1_565 S
C410 C408 1.327 . S
C410 C429 1.429 1_565 S
C410 H434 0.950 . S
C411 C428 1.574 . S
C411 C430 1.368 . S
C411 H435 0.949 . S
H412 C416 0.949 . S
C413 C414 1.349 . S
C413 C415 1.327 . S
C413 H436 0.950 . S
C414 C413 1.349 . S
C414 C426 1.349 . S
C415 C413 1.327 . S
C415 C431 1.429 . S
C415 H437 0.950 . S
C416 H412 0.949 . S
C416 C424 1.574 . S
C416 C432 1.368 . S
H417 C425 0.950 1_556 S
H418 C423 0.950 . S
H419 C424 0.949 . S
H420 C426 0.950 . S
H421 C427 0.950 . S
H422 C428 0.949 . S
C423 H418 0.950 . S
C423 C425 1.327 . S
C423 C429 1.429 . S
C424 C416 1.574 . S
C424 H419 0.949 . S
C424 C430 1.368 . S
C425 C409 1.349 1_545 S
C425 H417 0.950 1_554 S
C425 C423 1.327 . S
C426 C414 1.349 . S
C426 H420 0.950 . S
C426 C427 1.327 . S
C427 H421 0.950 . S
C427 C426 1.327 . S
C427 C431 1.429 . S
C428 C411 1.574 . S
C428 H422 0.949 . S
C428 C432 1.368 . S
C429 C410 1.429 1_545 S
C429 C423 1.429 . S
C429 C430 1.523 . S
C430 C411 1.368 . S
C430 C424 1.368 . S
C430 C429 1.523 . S
C431 C415 1.429 . S
C431 C427 1.429 . S
C431 C432 1.523 . S
C432 C416 1.368 . S
C432 C428 1.368 . S
C432 C431 1.523 . S
H433 C408 0.950 . S
H434 C410 0.950 . S
H435 C411 0.949 . S
H436 C413 0.950 . S
H437 C415 0.950 . S
C438 C439 1.349 . S
C438 C440 1.327 1_455 S
C438 H463 0.950 . S
C439 C438 1.349 . S
C439 C455 1.349 . S
C440 C438 1.327 1_655 S
C440 C459 1.429 . S
C440 H464 0.950 . S
C441 C458 1.574 . S
C441 C460 1.368 . S
C441 H465 0.949 . S
H442 C446 0.949 . S
C443 C444 1.349 . S
C443 C445 1.327 . S
C443 H466 0.950 . S
C444 C443 1.349 . S
C444 C456 1.349 . S
C445 C443 1.327 . S
C445 C461 1.429 . S
C445 H467 0.950 . S
C446 H442 0.949 . S
C446 C454 1.574 . S
C446 C462 1.368 . S
H447 C455 0.950 1_556 S
H448 C453 0.950 . S
H449 C454 0.949 . S
H450 C456 0.950 . S
H451 C457 0.950 . S
H452 C458 0.949 . S
C453 H448 0.950 . S
C453 C455 1.327 1_655 S
C453 C459 1.429 . S
C454 C446 1.574 . S
C454 H449 0.949 . S
C454 C460 1.368 . S
C455 C439 1.349 . S
C455 H447 0.950 1_554 S
C455 C453 1.327 1_455 S
C456 C444 1.349 . S
C456 H450 0.950 . S
C456 C457 1.327 . S
C457 H451 0.950 . S
C457 C456 1.327 . S
C457 C461 1.429 . S
C458 C441 1.574 . S
C458 H452 0.949 . S
C458 C462 1.368 . S
C459 C440 1.429 . S
C459 C453 1.429 . S
C459 C460 1.523 . S
C460 C441 1.368 . S
C460 C454 1.368 . S
C460 C459 1.523 . S
C461 C445 1.429 . S
C461 C457 1.429 . S
C461 C462 1.523 . S
C462 C446 1.368 . S
C462 C458 1.368 . S
C462 C461 1.523 . S
H463 C438 0.950 . S
H464 C440 0.950 . S
H465 C441 0.949 . S
H466 C443 0.950 . S
H467 C445 0.950 . S
C468 C469 1.349 . S
C468 C470 1.327 . S
C468 H493 0.950 . S
C469 C468 1.349 . S
C469 C485 1.349 . S
C470 C468 1.327 . S
C470 C489 1.429 . S
C470 H494 0.950 . S
C471 C488 1.574 . S
C471 C490 1.368 . S
C471 H495 0.949 . S
H472 C476 0.949 . S
C473 C474 1.349 . S
C473 C475 1.327 1_455 S
C473 H496 0.950 . S
C474 C473 1.349 . S
C474 C486 1.349 . S
C475 C473 1.327 1_655 S
C475 C491 1.429 . S
C475 H497 0.950 . S
C476 H472 0.949 . S
C476 C484 1.574 . S
C476 C492 1.368 . S
H477 C485 0.950 . S
H478 C483 0.950 . S
H479 C484 0.949 . S
H480 C486 0.950 . S
H481 C487 0.950 . S
H482 C488 0.949 . S
C483 H478 0.950 . S
C483 C485 1.327 . S
C483 C489 1.429 . S
C484 C476 1.574 . S
C484 H479 0.949 . S
C484 C490 1.368 . S
C485 C469 1.349 . S
C485 H477 0.950 . S
C485 C483 1.327 . S
C486 C474 1.349 . S
C486 H480 0.950 . S
C486 C487 1.327 1_455 S
C487 H481 0.950 . S
C487 C486 1.327 1_655 S
C487 C491 1.429 . S
C488 C471 1.574 . S
C488 H482 0.949 . S
C488 C492 1.368 . S
C489 C470 1.429 . S
C489 C483 1.429 . S
C489 C490 1.523 . S
C490 C471 1.368 . S
C490 C484 1.368 . S
C490 C489 1.523 . S
C491 C475 1.429 . S
C491 C487 1.429 . S
C491 C492 1.523 . S
C492 C476 1.368 . S
C492 C488 1.368 . S
C492 C491 1.523 . S
H493 C468 0.950 . S
H494 C470 0.950 . S
H495 C471 0.949 . S
H496 C473 0.950 . S
H497 C475 0.950 . S
C498 C499 1.349 . S
C498 C500 1.327 . S
C498 H523 0.950 . S
C499 C498 1.349 . S
C499 C515 1.349 . S
C500 C498 1.327 . S
C500 C519 1.429 . S
C500 H524 0.950 . S
C501 C518 1.574 . S
C501 C520 1.368 . S
C501 H525 0.949 . S
H502 C506 0.949 . S
C503 C504 1.349 . S
C503 C505 1.327 . S
C503 H526 0.950 . S
C504 C503 1.349 . S
C504 C516 1.349 . S
C505 C503 1.327 . S
C505 C521 1.429 . S
C505 H527 0.950 . S
C506 H502 0.949 . S
C506 C514 1.574 . S
C506 C522 1.368 . S
H507 C515 0.950 . S
H508 C513 0.950 . S
H509 C514 0.949 . S
H510 C516 0.950 . S
H511 C517 0.950 . S
H512 C518 0.949 . S
C513 H508 0.950 . S
C513 C515 1.327 . S
C513 C519 1.429 . S
C514 C506 1.574 . S
C514 H509 0.949 . S
C514 C520 1.368 . S
C515 C499 1.349 . S
C515 H507 0.950 . S
C515 C513 1.327 . S
C516 C504 1.349 . S
C516 H510 0.950 . S
C516 C517 1.327 . S
C517 H511 0.950 . S
C517 C516 1.327 . S
C517 C521 1.429 . S
C518 C501 1.574 . S
C518 H512 0.949 . S
C518 C522 1.368 . S
C519 C500 1.429 . S
C519 C513 1.429 . S
C519 C520 1.523 . S
C520 C501 1.368 . S
C520 C514 1.368 . S
C520 C519 1.523 . S
C521 C505 1.429 . S
C521 C517 1.429 . S
C521 C522 1.523 . S
C522 C506 1.368 . S
C522 C518 1.368 . S
C522 C521 1.523 . S
H523 C498 0.950 . S
H524 C500 0.950 . S
H525 C501 0.949 . S
H526 C503 0.950 . S
H527 C505 0.950 . S
C528 C529 1.349 . S
C528 C530 1.327 1_565 S
C528 H553 0.950 . S
C529 C528 1.349 . S
C529 C545 1.349 . S
C530 C528 1.327 1_545 S
C530 C549 1.429 . S
C530 H554 0.950 . S
C531 C548 1.574 . S
C531 C550 1.368 . S
C531 H555 0.949 . S
H532 C536 0.949 . S
C533 C534 1.349 . S
C533 C535 1.327 . S
C533 H556 0.950 . S
C534 C533 1.349 . S
C534 C546 1.349 . S
C535 C533 1.327 . S
C535 C551 1.429 . S
C535 H557 0.950 . S
C536 H532 0.949 . S
C536 C544 1.574 . S
C536 C552 1.368 . S
H537 C545 0.950 . S
H538 C543 0.950 . S
H539 C544 0.949 . S
H540 C546 0.950 . S
H541 C547 0.950 . S
H542 C548 0.949 . S
C543 H538 0.950 . S
C543 C545 1.327 1_545 S
C543 C549 1.429 . S
C544 C536 1.574 . S
C544 H539 0.949 . S
C544 C550 1.368 . S
C545 C529 1.349 . S
C545 H537 0.950 . S
C545 C543 1.327 1_565 S
C546 C534 1.349 . S
C546 H540 0.950 . S
C546 C547 1.327 . S
C547 H541 0.950 . S
C547 C546 1.327 . S
C547 C551 1.429 . S
C548 C531 1.574 . S
C548 H542 0.949 . S
C548 C552 1.368 . S
C549 C530 1.429 . S
C549 C543 1.429 . S
C549 C550 1.523 . S
C550 C531 1.368 . S
C550 C544 1.368 . S
C550 C549 1.523 . S
C551 C535 1.429 . S
C551 C547 1.429 . S
C551 C552 1.523 . S
C552 C536 1.368 . S
C552 C548 1.368 . S
C552 C551 1.523 . S
H553 C528 0.950 . S
H554 C530 0.950 . S
H555 C531 0.949 . S
H556 C533 0.950 . S
H557 C535 0.950 . S
C558 C559 1.349 . S
C558 C560 1.327 . S
C558 H583 0.950 . S
C559 C558 1.349 . S
C559 C575 1.349 . S
C560 C558 1.327 . S
C560 C579 1.429 . S
C560 H584 0.950 . S
C561 C578 1.574 . S
C561 C580 1.368 . S
C561 H585 0.949 . S
H562 C566 0.949 . S
C563 C564 1.349 . S
C563 C565 1.327 1_565 S
C563 H586 0.950 . S
C564 C563 1.349 . S
C564 C576 1.349 . S
C565 C563 1.327 1_545 S
C565 C581 1.429 . S
C565 H587 0.950 . S
C566 H562 0.949 . S
C566 C574 1.574 . S
C566 C582 1.368 . S
H567 C575 0.950 . S
H568 C573 0.950 . S
H569 C574 0.949 . S
H570 C576 0.950 . S
H571 C577 0.950 . S
H572 C578 0.949 . S
C573 H568 0.950 . S
C573 C575 1.327 . S
C573 C579 1.429 . S
C574 C566 1.574 . S
C574 H569 0.949 . S
C574 C580 1.368 . S
C575 C559 1.349 . S
C575 H567 0.950 . S
C575 C573 1.327 . S
C576 C564 1.349 . S
C576 H570 0.950 . S
C576 C577 1.327 1_565 S
C577 H571 0.950 . S
C577 C576 1.327 1_545 S
C577 C581 1.429 . S
C578 C561 1.574 . S
C578 H572 0.949 . S
C578 C582 1.368 . S
C579 C560 1.429 . S
C579 C573 1.429 . S
C579 C580 1.523 . S
C580 C561 1.368 . S
C580 C574 1.368 . S
C580 C579 1.523 . S
C581 C565 1.429 . S
C581 C577 1.429 . S
C581 C582 1.523 . S
C582 C566 1.368 . S
C582 C578 1.368 . S
C582 C581 1.523 . S
H583 C558 0.950 . S
H584 C560 0.950 . S
H585 C561 0.949 . S
H586 C563 0.950 . S
H587 C565 0.950 . S
C588 C589 1.349 . S
C588 C590 1.327 1_455 S
C588 H613 0.950 . S
C589 C588 1.349 . S
C589 C605 1.349 1_455 S
C590 C588 1.327 1_655 S
C590 C609 1.429 . S
C590 H614 0.950 . S
C591 C608 1.574 . S
C591 C610 1.368 . S
C591 H615 0.949 . S
H592 C596 0.949 . S
C593 C594 1.349 . S
C593 C595 1.327 . S
C593 H616 0.950 . S
C594 C593 1.349 . S
C594 C606 1.349 . S
C595 C593 1.327 . S
C595 C611 1.429 . S
C595 H617 0.950 . S
C596 H592 0.949 . S
C596 C604 1.574 . S
C596 C612 1.368 . S
H597 C605 0.935 . S
H598 C603 0.950 . S
H599 C604 0.949 . S
H600 C606 0.950 . S
H601 C607 0.950 . S
H602 C608 0.949 . S
C603 H598 0.950 . S
C603 C605 1.327 . S
C603 C609 1.429 . S
C604 C596 1.574 . S
C604 H599 0.949 . S
C604 C610 1.368 . S
C605 C589 1.349 1_655 S
C605 H597 0.935 . S
C605 C603 1.327 . S
C606 C594 1.349 . S
C606 H600 0.950 . S
C606 C607 1.327 . S
C607 H601 0.950 . S
C607 C606 1.327 . S
C607 C611 1.429 . S
C608 C591 1.574 . S
C608 H602 0.949 . S
C608 C612 1.368 . S
C609 C590 1.429 . S
C609 C603 1.429 . S
C609 C610 1.523 . S
C610 C591 1.368 . S
C610 C604 1.368 . S
C610 C609 1.523 . S
C611 C595 1.429 . S
C611 C607 1.429 . S
C611 C612 1.523 . S
C612 C596 1.368 . S
C612 C608 1.368 . S
C612 C611 1.523 . S
H613 C588 0.950 . S
H614 C590 0.950 . S
H615 C591 0.949 . S
H616 C593 0.950 . S
H617 C595 0.950 . S
C618 C619 1.349 . S
C618 C620 1.327 . S
C618 H643 0.950 . S
C619 C618 1.349 . S
C619 C635 1.349 . S
C620 C618 1.327 . S
C620 C639 1.429 . S
C620 H644 0.950 . S
C621 C638 1.574 . S
C621 C640 1.368 . S
C621 H645 0.949 . S
H622 C626 0.949 . S
C623 C624 1.349 . S
C623 C625 1.327 . S
C623 H646 0.950 . S
C624 C623 1.349 . S
C624 C636 1.349 . S
C625 C623 1.327 . S
C625 C641 1.429 . S
C625 H647 0.950 . S
C626 H622 0.949 . S
C626 C634 1.574 . S
C626 C642 1.368 . S
H627 C635 0.950 . S
H628 C633 0.950 . S
H629 C634 0.949 . S
H630 C636 0.950 . S
H631 C637 0.950 . S
H632 C638 0.949 . S
C633 H628 0.950 . S
C633 C635 1.327 . S
C633 C639 1.429 . S
C634 C626 1.574 . S
C634 H629 0.949 . S
C634 C640 1.368 . S
C635 C619 1.349 . S
C635 H627 0.950 . S
C635 C633 1.327 . S
C636 C624 1.349 . S
C636 H630 0.950 . S
C636 C637 1.327 . S
C637 H631 0.950 . S
C637 C636 1.327 . S
C637 C641 1.429 . S
C638 C621 1.574 . S
C638 H632 0.949 . S
C638 C642 1.368 . S
C639 C620 1.429 . S
C639 C633 1.429 . S
C639 C640 1.523 . S
C640 C621 1.368 . S
C640 C634 1.368 . S
C640 C639 1.523 . S
C641 C625 1.429 . S
C641 C637 1.429 . S
C641 C642 1.523 . S
C642 C626 1.368 . S
C642 C638 1.368 . S
C642 C641 1.523 . S
H643 C618 0.950 . S
H644 C620 0.950 . S
H645 C621 0.949 . S
H646 C623 0.950 . S
H647 C625 0.950 . S
C648 C649 1.349 . S
C648 C650 1.327 . S
C648 H673 0.950 . S
C649 C648 1.349 . S
C649 C665 1.349 . S
C650 C648 1.327 . S
C650 C669 1.429 . S
C650 H674 0.950 . S
C651 C668 1.574 . S
C651 C670 1.368 . S
C651 H675 0.949 . S
H652 C656 0.949 . S
C653 C654 1.349 . S
C653 C655 1.327 . S
C653 H676 0.950 . S
C654 C653 1.349 . S
C654 C666 1.349 . S
C655 C653 1.327 . S
C655 C671 1.429 . S
C655 H677 0.950 . S
C656 H652 0.949 . S
C656 C664 1.574 . S
C656 C672 1.368 . S
H657 C665 0.950 . S
H658 C663 0.950 . S
H659 C664 0.949 . S
H660 C666 0.950 . S
H661 C667 0.950 . S
H662 C668 0.949 . S
C663 H658 0.950 . S
C663 C665 1.327 . S
C663 C669 1.429 . S
C664 C656 1.574 . S
C664 H659 0.949 . S
C664 C670 1.368 . S
C665 C649 1.349 . S
C665 H657 0.950 . S
C665 C663 1.327 . S
C666 C654 1.349 . S
C666 H660 0.950 . S
C666 C667 1.327 . S
C667 H661 0.950 . S
C667 C666 1.327 . S
C667 C671 1.429 . S
C668 C651 1.574 . S
C668 H662 0.949 . S
C668 C672 1.368 . S
C669 C650 1.429 . S
C669 C663 1.429 . S
C669 C670 1.523 . S
C670 C651 1.368 . S
C670 C664 1.368 . S
C670 C669 1.523 . S
C671 C655 1.429 . S
C671 C667 1.429 . S
C671 C672 1.523 . S
C672 C656 1.368 . S
C672 C668 1.368 . S
C672 C671 1.523 . S
H673 C648 0.950 . S
H674 C650 0.950 . S
H675 C651 0.949 . S
H676 C653 0.950 . S
H677 C655 0.950 . S
C678 C679 1.349 . S
C678 C680 1.327 . S
C678 H703 0.950 . S
C679 C678 1.349 . S
C679 C695 1.349 . S
C680 C678 1.327 . S
C680 C699 1.429 . S
C680 H704 0.950 . S
C681 C698 1.574 . S
C681 C700 1.368 . S
C681 H705 0.949 . S
H682 C686 0.949 . S
C683 C684 1.349 . S
C683 C685 1.327 . S
C683 H706 0.950 . S
C684 C683 1.349 . S
C684 C696 1.349 . S
C685 C683 1.327 . S
C685 C701 1.429 . S
C685 H707 0.950 . S
C686 H682 0.949 . S
C686 C694 1.574 . S
C686 C702 1.368 . S
H687 C695 0.950 . S
H688 C693 0.950 . S
H689 C694 0.949 . S
H690 C696 0.950 1_554 S
H691 C697 0.950 . S
H692 C698 0.949 . S
C693 H688 0.950 . S
C693 C695 1.327 . S
C693 C699 1.429 . S
C694 C686 1.574 . S
C694 H689 0.949 . S
C694 C700 1.368 . S
C695 C679 1.349 . S
C695 H687 0.950 . S
C695 C693 1.327 . S
C696 C684 1.349 . S
C696 H690 0.950 1_556 S
C696 C697 1.327 . S
C697 H691 0.950 . S
C697 C696 1.327 . S
C697 C701 1.429 . S
C698 C681 1.574 . S
C698 H692 0.949 . S
C698 C702 1.368 . S
C699 C680 1.429 . S
C699 C693 1.429 . S
C699 C700 1.523 . S
C700 C681 1.368 . S
C700 C694 1.368 . S
C700 C699 1.523 . S
C701 C685 1.429 . S
C701 C697 1.429 . S
C701 C702 1.523 . S
C702 C686 1.368 . S
C702 C698 1.368 . S
C702 C701 1.523 . S
H703 C678 0.950 . S
H704 C680 0.950 . S
H705 C681 0.949 . S
H706 C683 0.950 . S
H707 C685 0.950 . S
C708 C709 1.349 . S
C708 C710 1.327 . S
C708 H733 0.950 . S
C709 C708 1.349 . S
C709 C725 1.349 . S
C710 C708 1.327 . S
C710 C729 1.429 . S
C710 H734 0.950 . S
C711 C728 1.574 . S
C711 C730 1.368 . S
C711 H735 0.949 . S
H712 C716 0.949 . S
C713 C714 1.349 . S
C713 C715 1.327 . S
C713 H736 0.950 . S
C714 C713 1.349 . S
C714 C726 1.349 . S
C715 C713 1.327 . S
C715 C731 1.429 . S
C715 H737 0.950 . S
C716 H712 0.949 . S
C716 C724 1.574 . S
C716 C732 1.368 . S
H717 C725 0.950 . S
H718 C723 0.950 . S
H719 C724 0.949 . S
H720 C726 0.950 . S
H721 C727 0.950 . S
H722 C728 0.949 . S
C723 H718 0.950 . S
C723 C725 1.327 . S
C723 C729 1.429 . S
C724 C716 1.574 . S
C724 H719 0.949 . S
C724 C730 1.368 . S
C725 C709 1.349 . S
C725 H717 0.950 . S
C725 C723 1.327 . S
C726 C714 1.349 . S
C726 H720 0.950 . S
C726 C727 1.327 . S
C727 H721 0.950 . S
C727 C726 1.327 . S
C727 C731 1.429 . S
C728 C711 1.574 . S
C728 H722 0.949 . S
C728 C732 1.368 . S
C729 C710 1.429 . S
C729 C723 1.429 . S
C729 C730 1.523 . S
C730 C711 1.368 . S
C730 C724 1.368 . S
C730 C729 1.523 . S
C731 C715 1.429 . S
C731 C727 1.429 . S
C731 C732 1.523 . S
C732 C716 1.368 . S
C732 C728 1.368 . S
C732 C731 1.523 . S
H733 C708 0.950 . S
H734 C710 0.950 . S
H735 C711 0.949 . S
H736 C713 0.950 . S
H737 C715 0.950 . S
C738 C739 1.349 . S
C738 C740 1.327 . S
C738 H763 0.950 . S
C739 C738 1.349 . S
C739 C755 1.349 . S
C740 C738 1.327 . S
C740 C759 1.429 . S
C740 H764 0.950 . S
C741 C758 1.574 . S
C741 C760 1.368 . S
C741 H765 0.949 . S
H742 C746 0.949 . S
C743 C744 1.349 . S
C743 C745 1.327 . S
C743 H766 0.950 . S
C744 C743 1.349 . S
C744 C756 1.349 . S
C745 C743 1.327 . S
C745 C761 1.429 . S
C745 H767 0.950 . S
C746 H742 0.949 . S
C746 C754 1.574 . S
C746 C762 1.368 . S
H747 C755 0.950 . S
H748 C753 0.950 . S
H749 C754 0.949 . S
H750 C756 0.950 . S
H751 C757 0.950 . S
H752 C758 0.949 . S
C753 H748 0.950 . S
C753 C755 1.327 . S
C753 C759 1.429 . S
C754 C746 1.574 . S
C754 H749 0.949 . S
C754 C760 1.368 . S
C755 C739 1.349 . S
C755 H747 0.950 . S
C755 C753 1.327 . S
C756 C744 1.349 . S
C756 H750 0.950 . S
C756 C757 1.327 . S
C757 H751 0.950 . S
C757 C756 1.327 . S
C757 C761 1.429 . S
C758 C741 1.574 . S
C758 H752 0.949 . S
C758 C762 1.368 . S
C759 C740 1.429 . S
C759 C753 1.429 . S
C759 C760 1.523 . S
C760 C741 1.368 . S
C760 C754 1.368 . S
C760 C759 1.523 . S
C761 C745 1.429 . S
C761 C757 1.429 . S
C761 C762 1.523 . S
C762 C746 1.368 . S
C762 C758 1.368 . S
C762 C761 1.523 . S
H763 C738 0.950 . S
H764 C740 0.950 . S
H765 C741 0.949 . S
H766 C743 0.950 . S
H767 C745 0.950 . S
C768 C769 1.349 . S
C768 C770 1.327 . S
C768 H793 0.950 . S
C769 C768 1.349 . S
C769 C785 1.349 . S
C770 C768 1.327 . S
C770 C789 1.429 . S
C770 H794 0.950 . S
C771 C788 1.574 . S
C771 C790 1.368 . S
C771 H795 0.949 . S
H772 C776 0.949 . S
C773 C774 1.349 . S
C773 C775 1.327 . S
C773 H796 0.950 . S
C774 C773 1.349 . S
C774 C786 1.349 . S
C775 C773 1.327 . S
C775 C791 1.429 . S
C775 H797 0.950 . S
C776 H772 0.949 . S
C776 C784 1.574 . S
C776 C792 1.368 . S
H777 C785 0.950 . S
H778 C783 0.950 . S
H779 C784 0.949 . S
H780 C786 0.950 . S
H781 C787 0.950 . S
H782 C788 0.949 . S
C783 H778 0.950 . S
C783 C785 1.327 . S
C783 C789 1.429 . S
C784 C776 1.574 . S
C784 H779 0.949 . S
C784 C790 1.368 . S
C785 C769 1.349 . S
C785 H777 0.950 . S
C785 C783 1.327 . S
C786 C774 1.349 . S
C786 H780 0.950 . S
C786 C787 1.327 . S
C787 H781 0.950 . S
C787 C786 1.327 . S
C787 C791 1.429 . S
C788 C771 1.574 . S
C788 H782 0.949 . S
C788 C792 1.368 . S
C789 C770 1.429 . S
C789 C783 1.429 . S
C789 C790 1.523 . S
C790 C771 1.368 . S
C790 C784 1.368 . S
C790 C789 1.523 . S
C791 C775 1.429 . S
C791 C787 1.429 . S
C791 C792 1.523 . S
C792 C776 1.368 . S
C792 C788 1.368 . S
C792 C791 1.523 . S
H793 C768 0.950 . S
H794 C770 0.950 . S
H795 C771 0.949 . S
H796 C773 0.950 . S
H797 C775 0.950 . S
C798 C799 1.349 . S
C798 C800 1.327 . S
C798 H823 0.950 . S
C799 C798 1.349 . S
C799 C815 1.349 . S
C800 C798 1.327 . S
C800 C819 1.429 . S
C800 H824 0.950 . S
C801 C818 1.574 . S
C801 C820 1.368 . S
C801 H825 0.949 . S
H802 C806 0.949 . S
C803 C804 1.349 . S
C803 C805 1.327 . S
C803 H826 0.950 . S
C804 C803 1.349 . S
C804 C816 1.349 . S
C805 C803 1.327 . S
C805 C821 1.429 . S
C805 H827 0.950 . S
C806 H802 0.949 . S
C806 C814 1.574 . S
C806 C822 1.368 . S
H807 C815 0.950 . S
H808 C813 0.950 . S
H809 C814 0.949 . S
H810 C816 0.950 . S
H811 C817 0.950 . S
H812 C818 0.949 . S
C813 H808 0.950 . S
C813 C815 1.327 . S
C813 C819 1.429 . S
C814 C806 1.574 . S
C814 H809 0.949 . S
C814 C820 1.368 . S
C815 C799 1.349 . S
C815 H807 0.950 . S
C815 C813 1.327 . S
C816 C804 1.349 . S
C816 H810 0.950 . S
C816 C817 1.327 . S
C817 H811 0.950 . S
C817 C816 1.327 . S
C817 C821 1.429 . S
C818 C801 1.574 . S
C818 H812 0.949 . S
C818 C822 1.368 . S
C819 C800 1.429 . S
C819 C813 1.429 . S
C819 C820 1.523 . S
C820 C801 1.368 . S
C820 C814 1.368 . S
C820 C819 1.523 . S
C821 C805 1.429 . S
C821 C817 1.429 . S
C821 C822 1.523 . S
C822 C806 1.368 . S
C822 C818 1.368 . S
C822 C821 1.523 . S
H823 C798 0.950 . S
H824 C800 0.950 . S
H825 C801 0.949 . S
H826 C803 0.950 . S
H827 C805 0.950 . S
C828 C829 1.349 . S
C828 C830 1.327 1_565 S
C828 H853 0.950 1_554 S
C829 C828 1.349 . S
C829 C845 1.349 1_565 S
C830 C828 1.327 1_545 S
C830 C849 1.429 . S
C830 H854 0.950 1_554 S
C831 C848 1.574 . S
C831 C850 1.368 . S
C831 H855 0.949 . S
H832 C836 0.949 1_556 S
C833 C834 1.349 . S
C833 C835 1.327 . S
C833 H856 0.950 . S
C834 C833 1.349 . S
C834 C846 1.349 . S
C835 C833 1.327 . S
C835 C851 1.429 . S
C835 H857 0.950 . S
C836 H832 0.949 1_554 S
C836 C844 1.574 . S
C836 C852 1.368 . S
H837 C845 0.921 1_565 S
H838 C843 0.950 . S
H839 C844 0.949 1_556 S
H840 C846 0.950 1_556 S
H841 C847 0.950 1_556 S
H842 C848 0.949 . S
C843 H838 0.950 . S
C843 C845 1.327 . S
C843 C849 1.429 . S
C844 C836 1.574 . S
C844 H839 0.949 1_554 S
C844 C850 1.368 . S
C845 C829 1.349 1_545 S
C845 H837 0.921 1_545 S
C845 C843 1.327 . S
C846 C834 1.349 . S
C846 H840 0.950 1_554 S
C846 C847 1.327 . S
C847 H841 0.950 1_554 S
C847 C846 1.327 . S
C847 C851 1.429 . S
C848 C831 1.574 . S
C848 H842 0.949 . S
C848 C852 1.368 . S
C849 C830 1.429 . S
C849 C843 1.429 . S
C849 C850 1.523 . S
C850 C831 1.368 . S
C850 C844 1.368 . S
C850 C849 1.523 . S
C851 C835 1.429 . S
C851 C847 1.429 . S
C851 C852 1.523 . S
C852 C836 1.368 . S
C852 C848 1.368 . S
C852 C851 1.523 . S
H853 C828 0.950 1_556 S
H854 C830 0.950 1_556 S
H855 C831 0.949 . S
H856 C833 0.950 . S
H857 C835 0.950 . S
C858 C859 1.349 1_655 S
C858 C860 1.327 . S
C858 H883 0.962 1_655 S
C859 C858 1.349 1_455 S
C859 C875 1.349 . S
C860 C858 1.327 . S
C860 C879 1.429 . S
C860 H884 0.950 . S
C861 C878 1.574 . S
C861 C880 1.368 . S
C861 H885 0.949 1_554 S
H862 C866 0.949 . S
C863 C864 1.349 . S
C863 C865 1.327 . S
C863 H886 0.950 1_554 S
C864 C863 1.349 . S
C864 C876 1.349 . S
C865 C863 1.327 . S
C865 C881 1.429 1_565 S
C865 H887 0.950 1_554 S
C866 H862 0.949 . S
C866 C874 1.574 . S
C866 C882 1.368 . S
H867 C875 0.950 1_556 S
H868 C873 0.950 1_556 S
H869 C874 0.949 . S
H870 C876 0.950 . S
H871 C877 0.929 1_545 S
H872 C878 0.949 1_556 S
C873 H868 0.950 1_554 S
C873 C875 1.327 1_655 S
C873 C879 1.429 . S
C874 C866 1.574 . S
C874 H869 0.949 . S
C874 C880 1.368 . S
C875 C859 1.349 . S
C875 H867 0.950 1_554 S
C875 C873 1.327 1_455 S
C876 C864 1.349 . S
C876 H870 0.950 . S
C876 C877 1.344 . S
C877 H871 0.929 1_565 S
C877 C876 1.344 . S
C877 C881 1.433 1_565 S
C878 C861 1.574 . S
C878 H872 0.949 1_554 S
C878 C882 1.368 . S
C879 C860 1.429 . S
C879 C873 1.429 . S
C879 C880 1.523 . S
C880 C861 1.368 . S
C880 C874 1.368 . S
C880 C879 1.523 . S
C881 C865 1.429 1_545 S
C881 C877 1.433 1_545 S
C881 C882 1.523 . S
C882 C866 1.368 . S
C882 C878 1.368 . S
C882 C881 1.523 . S
H883 C858 0.962 1_455 S
H884 C860 0.950 . S
H885 C861 0.949 1_556 S
H886 C863 0.950 1_556 S
H887 C865 0.950 1_556 S
C888 C889 1.349 . S
C888 C890 1.327 . S
C888 H913 0.950 . S
C889 C888 1.349 . S
C889 C905 1.349 . S
C890 C888 1.327 . S
C890 C909 1.429 . S
C890 H914 0.950 . S
C891 C908 1.574 . S
C891 C910 1.368 . S
C891 H915 0.949 . S
H892 C896 0.949 . S
C893 C894 1.349 . S
C893 C895 1.327 . S
C893 H916 0.950 . S
C894 C893 1.349 . S
C894 C906 1.349 . S
C895 C893 1.327 . S
C895 C911 1.429 1_455 S
C895 H917 0.950 . S
C896 H892 0.949 . S
C896 C904 1.574 . S
C896 C912 1.368 . S
H897 C905 0.950 . S
H898 C903 0.950 . S
H899 C904 0.949 . S
H900 C906 0.950 . S
H901 C907 0.950 . S
H902 C908 0.949 . S
C903 H898 0.950 . S
C903 C905 1.327 . S
C903 C909 1.429 . S
C904 C896 1.574 . S
C904 H899 0.949 . S
C904 C910 1.368 . S
C905 C889 1.349 . S
C905 H897 0.950 . S
C905 C903 1.327 . S
C906 C894 1.349 . S
C906 H900 0.950 . S
C906 C907 1.327 1_455 S
C907 H901 0.950 . S
C907 C906 1.327 1_655 S
C907 C911 1.429 . S
C908 C891 1.574 . S
C908 H902 0.949 . S
C908 C912 1.368 . S
C909 C890 1.429 . S
C909 C903 1.429 . S
C909 C910 1.523 . S
C910 C891 1.368 . S
C910 C904 1.368 . S
C910 C909 1.523 . S
C911 C895 1.429 1_655 S
C911 C907 1.429 . S
C911 C912 1.523 . S
C912 C896 1.368 . S
C912 C908 1.368 . S
C912 C911 1.523 . S
H913 C888 0.950 . S
H914 C890 0.950 . S
H915 C891 0.949 . S
H916 C893 0.950 . S
H917 C895 0.950 . S
C918 C919 1.349 . S
C918 C920 1.327 . S
C918 H943 0.950 . S
C919 C918 1.349 . S
C919 C935 1.349 . S
C920 C918 1.327 . S
C920 C939 1.429 . S
C920 H944 0.950 . S
C921 C938 1.574 . S
C921 C940 1.368 . S
C921 H945 0.949 . S
H922 C926 0.949 . S
C923 C924 1.349 . S
C923 C925 1.327 . S
C923 H946 0.950 . S
C924 C923 1.349 . S
C924 C936 1.349 . S
C925 C923 1.327 . S
C925 C941 1.429 . S
C925 H947 0.950 . S
C926 H922 0.949 . S
C926 C934 1.574 . S
C926 C942 1.368 . S
H927 C935 0.950 . S
H928 C933 0.950 . S
H929 C934 0.949 . S
H930 C936 0.950 . S
H931 C937 0.950 . S
H932 C938 0.949 . S
C933 H928 0.950 . S
C933 C935 1.327 . S
C933 C939 1.429 . S
C934 C926 1.574 . S
C934 H929 0.949 . S
C934 C940 1.368 . S
C935 C919 1.349 . S
C935 H927 0.950 . S
C935 C933 1.327 . S
C936 C924 1.349 . S
C936 H930 0.950 . S
C936 C937 1.327 . S
C937 H931 0.950 . S
C937 C936 1.327 . S
C937 C941 1.429 . S
C938 C921 1.574 . S
C938 H932 0.949 . S
C938 C942 1.368 . S
C939 C920 1.429 . S
C939 C933 1.429 . S
C939 C940 1.523 . S
C940 C921 1.368 . S
C940 C934 1.368 . S
C940 C939 1.523 . S
C941 C925 1.429 . S
C941 C937 1.429 . S
C941 C942 1.523 . S
C942 C926 1.368 . S
C942 C938 1.368 . S
C942 C941 1.523 . S
H943 C918 0.950 . S
H944 C920 0.950 . S
H945 C921 0.949 . S
H946 C923 0.950 . S
H947 C925 0.950 . S
C948 C949 1.349 . S
C948 C950 1.327 . S
C948 H973 0.950 . S
C949 C948 1.349 . S
C949 C965 1.349 . S
C950 C948 1.327 . S
C950 C969 1.429 . S
C950 H974 0.950 . S
C951 C968 1.574 . S
C951 C970 1.368 . S
C951 H975 0.949 . S
H952 C956 0.949 . S
C953 C954 1.349 . S
C953 C955 1.327 . S
C953 H976 0.950 . S
C954 C953 1.349 . S
C954 C966 1.349 . S
C955 C953 1.327 . S
C955 C971 1.429 . S
C955 H977 0.950 . S
C956 H952 0.949 . S
C956 C964 1.574 . S
C956 C972 1.368 . S
H957 C965 0.950 . S
H958 C963 0.950 . S
H959 C964 0.949 . S
H960 C966 0.950 . S
H961 C967 0.950 . S
H962 C968 0.949 . S
C963 H958 0.950 . S
C963 C965 1.327 . S
C963 C969 1.429 . S
C964 C956 1.574 . S
C964 H959 0.949 . S
C964 C970 1.368 . S
C965 C949 1.349 . S
C965 H957 0.950 . S
C965 C963 1.327 . S
C966 C954 1.349 . S
C966 H960 0.950 . S
C966 C967 1.327 . S
C967 H961 0.950 . S
C967 C966 1.327 . S
C967 C971 1.429 . S
C968 C951 1.574 . S
C968 H962 0.949 . S
C968 C972 1.368 . S
C969 C950 1.429 . S
C969 C963 1.429 . S
C969 C970 1.523 . S
C970 C951 1.368 . S
C970 C964 1.368 . S
C970 C969 1.523 . S
C971 C955 1.429 . S
C971 C967 1.429 . S
C971 C972 1.523 . S
C972 C956 1.368 . S
C972 C968 1.368 . S
C972 C971 1.523 . S
H973 C948 0.950 . S
H974 C950 0.950 . S
H975 C951 0.949 . S
H976 C953 0.950 . S
H977 C955 0.950 . S
C978 C979 1.349 . S
C978 C980 1.327 . S
C978 H1003 0.950 . S
C979 C978 1.349 . S
C979 C995 1.349 . S
C980 C978 1.327 . S
C980 C999 1.429 . S
C980 H1004 0.950 . S
C981 C998 1.574 . S
C981 C1000 1.368 . S
C981 H1005 0.949 . S
H982 C986 0.949 . S
C983 C984 1.349 . S
C983 C985 1.327 . S
C983 H1006 0.950 . S
C984 C983 1.349 . S
C984 C996 1.349 . S
C985 C983 1.327 . S
C985 C1001 1.429 . S
C985 H1007 0.950 . S
C986 H982 0.949 . S
C986 C994 1.574 . S
C986 C1002 1.368 . S
H987 C995 0.950 . S
H988 C993 0.950 . S
H989 C994 0.949 . S
H990 C996 0.950 . S
H991 C997 0.950 . S
H992 C998 0.949 . S
C993 H988 0.950 . S
C993 C995 1.327 . S
C993 C999 1.429 . S
C994 C986 1.574 . S
C994 H989 0.949 . S
C994 C1000 1.368 . S
C995 C979 1.349 . S
C995 H987 0.950 . S
C995 C993 1.327 . S
C996 C984 1.349 . S
C996 H990 0.950 . S
C996 C997 1.327 . S
C997 H991 0.950 . S
C997 C996 1.327 . S
C997 C1001 1.429 . S
C998 C981 1.574 . S
C998 H992 0.949 . S
C998 C1002 1.368 . S
C999 C980 1.429 . S
C999 C993 1.429 . S
C999 C1000 1.523 . S
C1000 C981 1.368 . S
C1000 C994 1.368 . S
C1000 C999 1.523 . S
C1001 C985 1.429 . S
C1001 C997 1.429 . S
C1001 C1002 1.523 . S
C1002 C986 1.368 . S
C1002 C998 1.368 . S
C1002 C1001 1.523 . S
H1003 C978 0.950 . S
H1004 C980 0.950 . S
H1005 C981 0.949 . S
H1006 C983 0.950 . S
H1007 C985 0.950 . S
C1008 C1009 1.349 . S
C1008 C1010 1.327 . S
C1008 H1033 0.950 . S
C1009 C1008 1.349 . S
C1009 C1025 1.349 . S
C1010 C1008 1.327 . S
C1010 C1029 1.429 . S
C1010 H1034 0.950 . S
C1011 C1028 1.574 . S
C1011 C1030 1.368 . S
C1011 H1035 0.949 . S
H1012 C1016 0.949 . S
C1013 C1014 1.349 . S
C1013 C1015 1.327 . S
C1013 H1036 0.950 . S
C1014 C1013 1.349 . S
C1014 C1026 1.349 . S
C1015 C1013 1.327 . S
C1015 C1031 1.429 . S
C1015 H1037 0.950 . S
C1016 H1012 0.949 . S
C1016 C1024 1.574 . S
C1016 C1032 1.368 . S
H1017 C1025 0.950 . S
H1018 C1023 0.950 . S
H1019 C1024 0.949 . S
H1020 C1026 0.950 . S
H1021 C1027 0.950 . S
H1022 C1028 0.949 . S
C1023 H1018 0.950 . S
C1023 C1025 1.327 . S
C1023 C1029 1.429 . S
C1024 C1016 1.574 . S
C1024 H1019 0.949 . S
C1024 C1030 1.368 . S
C1025 C1009 1.349 . S
C1025 H1017 0.950 . S
C1025 C1023 1.327 . S
C1026 C1014 1.349 . S
C1026 H1020 0.950 . S
C1026 C1027 1.327 . S
C1027 H1021 0.950 . S
C1027 C1026 1.327 . S
C1027 C1031 1.429 . S
C1028 C1011 1.574 . S
C1028 H1022 0.949 . S
C1028 C1032 1.368 . S
C1029 C1010 1.429 . S
C1029 C1023 1.429 . S
C1029 C1030 1.523 . S
C1030 C1011 1.368 . S
C1030 C1024 1.368 . S
C1030 C1029 1.523 . S
C1031 C1015 1.429 . S
C1031 C1027 1.429 . S
C1031 C1032 1.523 . S
C1032 C1016 1.368 . S
C1032 C1028 1.368 . S
C1032 C1031 1.523 . S
H1033 C1008 0.950 . S
H1034 C1010 0.950 . S
H1035 C1011 0.949 . S
H1036 C1013 0.950 . S
H1037 C1015 0.950 . S
C1038 C1039 1.349 . S
C1038 C1040 1.327 . S
C1038 H1063 0.950 . S
C1039 C1038 1.349 . S
C1039 C1055 1.349 . S
C1040 C1038 1.327 . S
C1040 C1059 1.429 . S
C1040 H1064 0.950 . S
C1041 C1058 1.574 . S
C1041 C1060 1.368 . S
C1041 H1065 0.949 . S
H1042 C1046 0.949 . S
C1043 C1044 1.349 . S
C1043 C1045 1.327 . S
C1043 H1066 0.950 . S
C1044 C1043 1.349 . S
C1044 C1056 1.349 . S
C1045 C1043 1.327 . S
C1045 C1061 1.429 . S
C1045 H1067 0.950 . S
C1046 H1042 0.949 . S
C1046 C1054 1.574 . S
C1046 C1062 1.368 . S
H1047 C1055 0.950 . S
H1048 C1053 0.950 . S
H1049 C1054 0.949 . S
H1050 C1056 0.950 . S
H1051 C1057 0.950 . S
H1052 C1058 0.949 . S
C1053 H1048 0.950 . S
C1053 C1055 1.327 . S
C1053 C1059 1.429 . S
C1054 C1046 1.574 . S
C1054 H1049 0.949 . S
C1054 C1060 1.368 . S
C1055 C1039 1.349 . S
C1055 H1047 0.950 . S
C1055 C1053 1.327 . S
C1056 C1044 1.349 . S
C1056 H1050 0.950 . S
C1056 C1057 1.327 . S
C1057 H1051 0.950 . S
C1057 C1056 1.327 . S
C1057 C1061 1.429 . S
C1058 C1041 1.574 . S
C1058 H1052 0.949 . S
C1058 C1062 1.368 . S
C1059 C1040 1.429 . S
C1059 C1053 1.429 . S
C1059 C1060 1.523 . S
C1060 C1041 1.368 . S
C1060 C1054 1.368 . S
C1060 C1059 1.523 . S
C1061 C1045 1.429 . S
C1061 C1057 1.429 . S
C1061 C1062 1.523 . S
C1062 C1046 1.368 . S
C1062 C1058 1.368 . S
C1062 C1061 1.523 . S
H1063 C1038 0.950 . S
H1064 C1040 0.950 . S
H1065 C1041 0.949 . S
H1066 C1043 0.950 . S
H1067 C1045 0.950 . S
C1068 C1069 1.349 . S
C1068 C1070 1.327 . S
C1068 H1093 0.950 . S
C1069 C1068 1.349 . S
C1069 C1085 1.349 . S
C1070 C1068 1.327 . S
C1070 C1089 1.429 . S
C1070 H1094 0.950 . S
C1071 C1088 1.574 . S
C1071 C1090 1.368 . S
C1071 H1095 0.949 . S
H1072 C1076 0.949 . S
C1073 C1074 1.349 . S
C1073 C1075 1.327 . S
C1073 H1096 0.950 . S
C1074 C1073 1.349 . S
C1074 C1086 1.349 . S
C1075 C1073 1.327 . S
C1075 C1091 1.429 . S
C1075 H1097 0.950 . S
C1076 H1072 0.949 . S
C1076 C1084 1.574 . S
C1076 C1092 1.368 . S
H1077 C1085 0.950 . S
H1078 C1083 0.950 . S
H1079 C1084 0.949 . S
H1080 C1086 0.950 . S
H1081 C1087 0.950 . S
H1082 C1088 0.949 . S
C1083 H1078 0.950 . S
C1083 C1085 1.327 . S
C1083 C1089 1.429 . S
C1084 C1076 1.574 . S
C1084 H1079 0.949 . S
C1084 C1090 1.368 . S
C1085 C1069 1.349 . S
C1085 H1077 0.950 . S
C1085 C1083 1.327 . S
C1086 C1074 1.349 . S
C1086 H1080 0.950 . S
C1086 C1087 1.327 . S
C1087 H1081 0.950 . S
C1087 C1086 1.327 . S
C1087 C1091 1.429 . S
C1088 C1071 1.574 . S
C1088 H1082 0.949 . S
C1088 C1092 1.368 . S
C1089 C1070 1.429 . S
C1089 C1083 1.429 . S
C1089 C1090 1.523 . S
C1090 C1071 1.368 . S
C1090 C1084 1.368 . S
C1090 C1089 1.523 . S
C1091 C1075 1.429 . S
C1091 C1087 1.429 . S
C1091 C1092 1.523 . S
C1092 C1076 1.368 . S
C1092 C1088 1.368 . S
C1092 C1091 1.523 . S
H1093 C1068 0.950 . S
H1094 C1070 0.950 . S
H1095 C1071 0.949 . S
H1096 C1073 0.950 . S
H1097 C1075 0.950 . S
C1098 C1099 1.349 . S
C1098 C1100 1.327 . S
C1098 H1123 0.950 . S
C1099 C1098 1.349 . S
C1099 C1115 1.349 . S
C1100 C1098 1.327 . S
C1100 C1119 1.429 . S
C1100 H1124 0.950 . S
C1101 C1118 1.574 . S
C1101 C1120 1.368 . S
C1101 H1125 0.949 . S
H1102 C1106 0.949 . S
C1103 C1104 1.349 . S
C1103 C1105 1.327 . S
C1103 H1126 0.950 . S
C1104 C1103 1.349 . S
C1104 C1116 1.349 . S
C1105 C1103 1.327 . S
C1105 C1121 1.429 . S
C1105 H1127 0.950 . S
C1106 H1102 0.949 . S
C1106 C1114 1.574 . S
C1106 C1122 1.368 . S
H1107 C1115 0.950 . S
H1108 C1113 0.950 . S
H1109 C1114 0.949 . S
H1110 C1116 0.950 . S
H1111 C1117 0.950 . S
H1112 C1118 0.949 . S
C1113 H1108 0.950 . S
C1113 C1115 1.327 . S
C1113 C1119 1.429 . S
C1114 C1106 1.574 . S
C1114 H1109 0.949 . S
C1114 C1120 1.368 . S
C1115 C1099 1.349 . S
C1115 H1107 0.950 . S
C1115 C1113 1.327 . S
C1116 C1104 1.349 . S
C1116 H1110 0.950 . S
C1116 C1117 1.327 . S
C1117 H1111 0.950 . S
C1117 C1116 1.327 . S
C1117 C1121 1.429 . S
C1118 C1101 1.574 . S
C1118 H1112 0.949 . S
C1118 C1122 1.368 . S
C1119 C1100 1.429 . S
C1119 C1113 1.429 . S
C1119 C1120 1.523 . S
C1120 C1101 1.368 . S
C1120 C1114 1.368 . S
C1120 C1119 1.523 . S
C1121 C1105 1.429 . S
C1121 C1117 1.429 . S
C1121 C1122 1.523 . S
C1122 C1106 1.368 . S
C1122 C1118 1.368 . S
C1122 C1121 1.523 . S
H1123 C1098 0.950 . S
H1124 C1100 0.950 . S
H1125 C1101 0.949 . S
H1126 C1103 0.950 . S
H1127 C1105 0.950 . S
C1128 C1129 1.349 . S
C1128 C1130 1.327 . S
C1128 H1153 0.950 . S
C1129 C1128 1.349 . S
C1129 C1145 1.349 . S
C1130 C1128 1.327 . S
C1130 C1149 1.429 . S
C1130 H1154 0.950 . S
C1131 C1148 1.574 . S
C1131 C1150 1.368 . S
C1131 H1155 0.949 . S
H1132 C1136 0.949 . S
C1133 C1134 1.349 . S
C1133 C1135 1.327 . S
C1133 H1156 0.950 . S
C1134 C1133 1.349 . S
C1134 C1146 1.349 . S
C1135 C1133 1.327 . S
C1135 C1151 1.429 . S
C1135 H1157 0.950 . S
C1136 H1132 0.949 . S
C1136 C1144 1.574 . S
C1136 C1152 1.368 . S
H1137 C1145 0.950 . S
H1138 C1143 0.950 . S
H1139 C1144 0.949 . S
H1140 C1146 0.950 . S
H1141 C1147 0.950 . S
H1142 C1148 0.949 . S
C1143 H1138 0.950 . S
C1143 C1145 1.327 . S
C1143 C1149 1.429 . S
C1144 C1136 1.574 . S
C1144 H1139 0.949 . S
C1144 C1150 1.368 . S
C1145 C1129 1.349 . S
C1145 H1137 0.950 . S
C1145 C1143 1.327 . S
C1146 C1134 1.349 . S
C1146 H1140 0.950 . S
C1146 C1147 1.327 . S
C1147 H1141 0.950 . S
C1147 C1146 1.327 . S
C1147 C1151 1.429 . S
C1148 C1131 1.574 . S
C1148 H1142 0.949 . S
C1148 C1152 1.368 . S
C1149 C1130 1.429 . S
C1149 C1143 1.429 . S
C1149 C1150 1.523 . S
C1150 C1131 1.368 . S
C1150 C1144 1.368 . S
C1150 C1149 1.523 . S
C1151 C1135 1.429 . S
C1151 C1147 1.429 . S
C1151 C1152 1.523 . S
C1152 C1136 1.368 . S
C1152 C1148 1.368 . S
C1152 C1151 1.523 . S
H1153 C1128 0.950 . S
H1154 C1130 0.950 . S
H1155 C1131 0.949 . S
H1156 C1133 0.950 . S
H1157 C1135 0.950 . S
C1158 C1159 1.349 . S
C1158 C1160 1.327 . S
C1158 H1183 0.950 . S
C1159 C1158 1.349 . S
C1159 C1175 1.349 . S
C1160 C1158 1.327 . S
C1160 C1179 1.429 . S
C1160 H1184 0.950 . S
C1161 C1178 1.574 . S
C1161 C1180 1.368 . S
C1161 H1185 0.949 . S
H1162 C1166 0.949 . S
C1163 C1164 1.349 . S
C1163 C1165 1.327 . S
C1163 H1186 0.950 . S
C1164 C1163 1.349 . S
C1164 C1176 1.349 . S
C1165 C1163 1.327 . S
C1165 C1181 1.429 . S
C1165 H1187 0.950 . S
C1166 H1162 0.949 . S
C1166 C1174 1.574 . S
C1166 C1182 1.368 . S
H1167 C1175 0.950 . S
H1168 C1173 0.950 . S
H1169 C1174 0.949 . S
H1170 C1176 0.950 . S
H1171 C1177 0.950 . S
H1172 C1178 0.949 . S
C1173 H1168 0.950 . S
C1173 C1175 1.327 . S
C1173 C1179 1.429 . S
C1174 C1166 1.574 . S
C1174 H1169 0.949 . S
C1174 C1180 1.368 . S
C1175 C1159 1.349 . S
C1175 H1167 0.950 . S
C1175 C1173 1.327 . S
C1176 C1164 1.349 . S
C1176 H1170 0.950 . S
C1176 C1177 1.327 . S
C1177 H1171 0.950 . S
C1177 C1176 1.327 . S
C1177 C1181 1.429 . S
C1178 C1161 1.574 . S
C1178 H1172 0.949 . S
C1178 C1182 1.368 . S
C1179 C1160 1.429 . S
C1179 C1173 1.429 . S
C1179 C1180 1.523 . S
C1180 C1161 1.368 . S
C1180 C1174 1.368 . S
C1180 C1179 1.523 . S
C1181 C1165 1.429 . S
C1181 C1177 1.429 . S
C1181 C1182 1.523 . S
C1182 C1166 1.368 . S
C1182 C1178 1.368 . S
C1182 C1181 1.523 . S
H1183 C1158 0.950 . S
H1184 C1160 0.950 . S
H1185 C1161 0.949 . S
H1186 C1163 0.950 . S
H1187 C1165 0.950 . S
C1188 C1189 1.349 . S
C1188 C1190 1.327 . S
C1188 H1213 0.950 . S
C1189 C1188 1.349 . S
C1189 C1205 1.349 . S
C1190 C1188 1.327 . S
C1190 C1209 1.429 . S
C1190 H1214 0.950 . S
C1191 C1208 1.574 . S
C1191 C1210 1.368 . S
C1191 H1215 0.949 . S
H1192 C1196 0.949 . S
C1193 C1194 1.349 . S
C1193 C1195 1.327 . S
C1193 H1216 0.950 . S
C1194 C1193 1.349 . S
C1194 C1206 1.349 . S
C1195 C1193 1.327 . S
C1195 C1211 1.429 1_554 S
C1195 H1217 0.950 . S
C1196 H1192 0.949 . S
C1196 C1204 1.574 . S
C1196 C1212 1.368 . S
H1197 C1205 0.950 . S
H1198 C1203 0.950 . S
H1199 C1204 0.949 . S
H1200 C1206 0.950 . S
H1201 C1207 0.950 1_556 S
H1202 C1208 0.949 . S
C1203 H1198 0.950 . S
C1203 C1205 1.327 . S
C1203 C1209 1.429 . S
C1204 C1196 1.574 . S
C1204 H1199 0.949 . S
C1204 C1210 1.368 . S
C1205 C1189 1.349 . S
C1205 H1197 0.950 . S
C1205 C1203 1.327 . S
C1206 C1194 1.349 . S
C1206 H1200 0.950 . S
C1206 C1207 1.327 . S
C1207 H1201 0.950 1_554 S
C1207 C1206 1.327 . S
C1207 C1211 1.429 1_554 S
C1208 C1191 1.574 . S
C1208 H1202 0.949 . S
C1208 C1212 1.368 . S
C1209 C1190 1.429 . S
C1209 C1203 1.429 . S
C1209 C1210 1.523 . S
C1210 C1191 1.368 . S
C1210 C1204 1.368 . S
C1210 C1209 1.523 . S
C1211 C1195 1.429 1_556 S
C1211 C1207 1.429 1_556 S
C1211 C1212 1.523 . S
C1212 C1196 1.368 . S
C1212 C1208 1.368 . S
C1212 C1211 1.523 . S
H1213 C1188 0.950 . S
H1214 C1190 0.950 . S
H1215 C1191 0.949 . S
H1216 C1193 0.950 . S
H1217 C1195 0.950 . S
C1218 C1219 1.349 . S
C1218 C1220 1.327 . S
C1218 H1243 0.950 . S
C1219 C1218 1.349 . S
C1219 C1235 1.349 . S
C1220 C1218 1.327 . S
C1220 C1239 1.429 1_554 S
C1220 H1244 0.950 . S
C1221 C1238 1.574 . S
C1221 C1240 1.368 . S
C1221 H1245 0.949 . S
H1222 C1226 0.949 . S
C1223 C1224 1.349 . S
C1223 C1225 1.327 . S
C1223 H1246 0.950 . S
C1224 C1223 1.349 . S
C1224 C1236 1.349 . S
C1225 C1223 1.327 . S
C1225 C1241 1.429 . S
C1225 H1247 0.950 . S
C1226 H1222 0.949 . S
C1226 C1234 1.574 . S
C1226 C1242 1.368 . S
H1227 C1235 0.950 . S
H1228 C1233 0.950 1_556 S
H1229 C1234 0.949 . S
H1230 C1236 0.950 . S
H1231 C1237 0.950 . S
H1232 C1238 0.949 . S
C1233 H1228 0.950 1_554 S
C1233 C1235 1.327 . S
C1233 C1239 1.429 1_554 S
C1234 C1226 1.574 . S
C1234 H1229 0.949 . S
C1234 C1240 1.368 . S
C1235 C1219 1.349 . S
C1235 H1227 0.950 . S
C1235 C1233 1.327 . S
C1236 C1224 1.349 . S
C1236 H1230 0.950 . S
C1236 C1237 1.327 . S
C1237 H1231 0.950 . S
C1237 C1236 1.327 . S
C1237 C1241 1.429 . S
C1238 C1221 1.574 . S
C1238 H1232 0.949 . S
C1238 C1242 1.368 . S
C1239 C1220 1.429 1_556 S
C1239 C1233 1.429 1_556 S
C1239 C1240 1.523 . S
C1240 C1221 1.368 . S
C1240 C1234 1.368 . S
C1240 C1239 1.523 . S
C1241 C1225 1.429 . S
C1241 C1237 1.429 . S
C1241 C1242 1.523 . S
C1242 C1226 1.368 . S
C1242 C1238 1.368 . S
C1242 C1241 1.523 . S
H1243 C1218 0.950 . S
H1244 C1220 0.950 . S
H1245 C1221 0.949 . S
H1246 C1223 0.950 . S
H1247 C1225 0.950 . S
C1248 C1249 1.349 . S
C1248 C1250 1.327 . S
C1248 H1273 0.950 . S
C1249 C1248 1.349 . S
C1249 C1265 1.349 . S
C1250 C1248 1.327 . S
C1250 C1269 1.429 . S
C1250 H1274 0.950 . S
C1251 C1268 1.574 . S
C1251 C1270 1.368 . S
C1251 H1275 0.949 . S
H1252 C1256 0.949 . S
C1253 C1254 1.349 . S
C1253 C1255 1.327 . S
C1253 H1276 0.950 . S
C1254 C1253 1.349 . S
C1254 C1266 1.349 . S
C1255 C1253 1.327 . S
C1255 C1271 1.429 1_554 S
C1255 H1277 0.950 . S
C1256 H1252 0.949 . S
C1256 C1264 1.574 . S
C1256 C1272 1.368 . S
H1257 C1265 0.950 . S
H1258 C1263 0.950 . S
H1259 C1264 0.949 . S
H1260 C1266 0.950 . S
H1261 C1267 0.950 1_556 S
H1262 C1268 0.949 . S
C1263 H1258 0.950 . S
C1263 C1265 1.327 . S
C1263 C1269 1.429 . S
C1264 C1256 1.574 . S
C1264 H1259 0.949 . S
C1264 C1270 1.368 . S
C1265 C1249 1.349 . S
C1265 H1257 0.950 . S
C1265 C1263 1.327 . S
C1266 C1254 1.349 . S
C1266 H1260 0.950 . S
C1266 C1267 1.327 . S
C1267 H1261 0.950 1_554 S
C1267 C1266 1.327 . S
C1267 C1271 1.429 1_554 S
C1268 C1251 1.574 . S
C1268 H1262 0.949 . S
C1268 C1272 1.368 . S
C1269 C1250 1.429 . S
C1269 C1263 1.429 . S
C1269 C1270 1.523 . S
C1270 C1251 1.368 . S
C1270 C1264 1.368 . S
C1270 C1269 1.523 . S
C1271 C1255 1.429 1_556 S
C1271 C1267 1.429 1_556 S
C1271 C1272 1.523 . S
C1272 C1256 1.368 . S
C1272 C1268 1.368 . S
C1272 C1271 1.523 . S
H1273 C1248 0.950 . S
H1274 C1250 0.950 . S
H1275 C1251 0.949 . S
H1276 C1253 0.950 . S
H1277 C1255 0.950 . S
C1278 C1279 1.349 . S
C1278 C1280 1.327 . S
C1278 H1303 0.950 . S
C1279 C1278 1.349 . S
C1279 C1295 1.349 . S
C1280 C1278 1.327 . S
C1280 C1299 1.429 . S
C1280 H1304 0.950 . S
C1281 C1298 1.574 . S
C1281 C1300 1.368 . S
C1281 H1305 0.949 . S
H1282 C1286 0.949 . S
C1283 C1284 1.349 . S
C1283 C1285 1.327 . S
C1283 H1306 0.950 . S
C1284 C1283 1.349 . S
C1284 C1296 1.349 . S
C1285 C1283 1.327 . S
C1285 C1301 1.429 1_556 S
C1285 H1307 0.950 1_556 S
C1286 H1282 0.949 . S
C1286 C1294 1.574 . S
C1286 C1302 1.368 . S
H1287 C1295 0.950 . S
H1288 C1293 0.950 . S
H1289 C1294 0.949 . S
H1290 C1296 0.950 . S
H1291 C1297 0.950 1_554 S
H1292 C1298 0.949 . S
C1293 H1288 0.950 . S
C1293 C1295 1.327 . S
C1293 C1299 1.429 . S
C1294 C1286 1.574 . S
C1294 H1289 0.949 . S
C1294 C1300 1.368 . S
C1295 C1279 1.349 . S
C1295 H1287 0.950 . S
C1295 C1293 1.327 . S
C1296 C1284 1.349 . S
C1296 H1290 0.950 . S
C1296 C1297 1.327 . S
C1297 H1291 0.950 1_556 S
C1297 C1296 1.327 . S
C1297 C1301 1.429 1_556 S
C1298 C1281 1.574 . S
C1298 H1292 0.949 . S
C1298 C1302 1.368 . S
C1299 C1280 1.429 . S
C1299 C1293 1.429 . S
C1299 C1300 1.523 . S
C1300 C1281 1.368 . S
C1300 C1294 1.368 . S
C1300 C1299 1.523 . S
C1301 C1285 1.429 1_554 S
C1301 C1297 1.429 1_554 S
C1301 C1302 1.523 . S
C1302 C1286 1.368 . S
C1302 C1298 1.368 . S
C1302 C1301 1.523 . S
H1303 C1278 0.950 . S
H1304 C1280 0.950 . S
H1305 C1281 0.949 . S
H1306 C1283 0.950 . S
H1307 C1285 0.950 1_554 S
C1308 C1309 1.349 . S
C1308 C1310 1.327 . S
C1308 H1333 0.950 . S
C1309 C1308 1.349 . S
C1309 C1325 1.349 . S
C1310 C1308 1.327 . S
C1310 C1329 1.429 . S
C1310 H1334 0.950 . S
C1311 C1328 1.574 . S
C1311 C1330 1.368 . S
C1311 H1335 0.949 . S
H1312 C1316 0.949 . S
C1313 C1314 1.349 . S
C1313 C1315 1.327 . S
C1313 H1336 0.950 . S
C1314 C1313 1.349 . S
C1314 C1326 1.349 . S
C1315 C1313 1.327 . S
C1315 C1331 1.429 1_556 S
C1315 H1337 0.950 . S
C1316 H1312 0.949 . S
C1316 C1324 1.574 . S
C1316 C1332 1.368 . S
H1317 C1325 0.950 . S
H1318 C1323 0.950 . S
H1319 C1324 0.949 . S
H1320 C1326 0.950 . S
H1321 C1327 0.950 1_554 S
H1322 C1328 0.949 . S
C1323 H1318 0.950 . S
C1323 C1325 1.327 . S
C1323 C1329 1.429 . S
C1324 C1316 1.574 . S
C1324 H1319 0.949 . S
C1324 C1330 1.368 . S
C1325 C1309 1.349 . S
C1325 H1317 0.950 . S
C1325 C1323 1.327 . S
C1326 C1314 1.349 . S
C1326 H1320 0.950 . S
C1326 C1327 1.327 . S
C1327 H1321 0.950 1_556 S
C1327 C1326 1.327 . S
C1327 C1331 1.429 1_556 S
C1328 C1311 1.574 . S
C1328 H1322 0.949 . S
C1328 C1332 1.368 . S
C1329 C1310 1.429 . S
C1329 C1323 1.429 . S
C1329 C1330 1.523 . S
C1330 C1311 1.368 . S
C1330 C1324 1.368 . S
C1330 C1329 1.523 . S
C1331 C1315 1.429 1_554 S
C1331 C1327 1.429 1_554 S
C1331 C1332 1.523 . S
C1332 C1316 1.368 . S
C1332 C1328 1.368 . S
C1332 C1331 1.523 . S
H1333 C1308 0.950 . S
H1334 C1310 0.950 . S
H1335 C1311 0.949 . S
H1336 C1313 0.950 . S
H1337 C1315 0.950 . S
C1338 C1339 1.349 . S
C1338 C1340 1.327 . S
C1338 H1363 0.950 . S
C1339 C1338 1.349 . S
C1339 C1355 1.349 . S
C1340 C1338 1.327 . S
C1340 C1359 1.429 . S
C1340 H1364 0.950 . S
C1341 C1358 1.574 . S
C1341 C1360 1.368 . S
C1341 H1365 0.949 . S
H1342 C1346 0.949 . S
C1343 C1344 1.349 . S
C1343 C1345 1.327 . S
C1343 H1366 0.950 . S
C1344 C1343 1.349 . S
C1344 C1356 1.349 . S
C1345 C1343 1.327 . S
C1345 C1361 1.429 1_556 S
C1345 H1367 0.950 1_556 S
C1346 H1342 0.949 . S
C1346 C1354 1.574 . S
C1346 C1362 1.368 . S
H1347 C1355 0.950 . S
H1348 C1353 0.950 . S
H1349 C1354 0.949 . S
H1350 C1356 0.950 . S
H1351 C1357 0.950 1_554 S
H1352 C1358 0.949 . S
C1353 H1348 0.950 . S
C1353 C1355 1.327 . S
C1353 C1359 1.429 . S
C1354 C1346 1.574 . S
C1354 H1349 0.949 . S
C1354 C1360 1.368 . S
C1355 C1339 1.349 . S
C1355 H1347 0.950 . S
C1355 C1353 1.327 . S
C1356 C1344 1.349 . S
C1356 H1350 0.950 . S
C1356 C1357 1.327 . S
C1357 H1351 0.950 1_556 S
C1357 C1356 1.327 . S
C1357 C1361 1.429 1_556 S
C1358 C1341 1.574 . S
C1358 H1352 0.949 . S
C1358 C1362 1.368 . S
C1359 C1340 1.429 . S
C1359 C1353 1.429 . S
C1359 C1360 1.523 . S
C1360 C1341 1.368 . S
C1360 C1354 1.368 . S
C1360 C1359 1.523 . S
C1361 C1345 1.429 1_554 S
C1361 C1357 1.429 1_554 S
C1361 C1362 1.523 . S
C1362 C1346 1.368 . S
C1362 C1358 1.368 . S
C1362 C1361 1.523 . S
H1363 C1338 0.950 . S
H1364 C1340 0.950 . S
H1365 C1341 0.949 . S
H1366 C1343 0.950 . S
H1367 C1345 0.950 1_554 S
C289 C17 1.582 1_554 S
C294 C150 1.555 . S
C319 C182 1.555 . S
C324 C49 1.582 1_554 S
C349 C81 1.582 1_554 S
C354 C118 1.555 . S
C379 C53 2.441 . S
C384 C112 2.490 . S
C409 C85 2.441 . S
C414 C144 2.490 . S
C439 C21 2.441 . S
C444 C176 2.490 . S
C469 C113 1.582 . S
C474 C246 1.555 . S
C499 C278 1.555 . S
C504 C145 1.582 . S
C529 C214 1.555 . S
C534 C177 1.582 . S
C559 C149 2.441 . S
C564 C208 2.490 . S
C589 C240 2.490 . S
C594 C181 2.441 . S
C619 C272 2.490 . S
C624 C117 2.441 . S
C649 C209 1.582 . S
C654 C54 1.555 . S
C679 C241 1.582 . S
C684 C86 1.555 . S
C709 C22 1.555 . S
C714 C273 1.582 . S
C739 C16 2.490 . S
C744 C245 2.441 . S
C769 C48 2.490 . S
C774 C277 2.441 . S
C799 C213 2.441 . S
C804 C80 2.490 . S
C829 C82 1.394 . S
C834 C20 1.399 . S
C859 C18 1.394 . S
C864 C52 1.399 . S
C889 C50 1.394 . S
C894 C84 1.399 . S
C919 C178 1.394 . S
C924 C116 1.399 . S
C949 C114 1.394 . S
C954 C148 1.399 . S
C979 C146 1.394 . S
C984 C180 1.399 . S
C1009 C212 1.399 . S
C1014 C274 1.394 . S
C1039 C244 1.399 . S
C1044 C210 1.394 . S
C1069 C276 1.399 . S
C1074 C242 1.394 . S
C1099 C19 0.959 . S
C1104 C23 0.959 . S
C1129 C55 0.959 . S
C1134 C51 0.959 . S
C1159 C83 0.959 . S
C1164 C87 0.959 . S
C1189 C119 0.959 . S
C1194 C115 0.959 . S
C1219 C147 0.959 . S
C1224 C151 0.959 . S
C1249 C183 0.959 . S
C1254 C179 0.959 . S
C1279 C211 0.959 . S
C1284 C215 0.959 . S
C1309 C243 0.959 . S
C1314 C247 0.959 . S
C1339 C275 0.959 . S
C1344 C279 0.959 . S
