# Generated by pormake.
# Topology lhb, (8)-cn, num edge types: 1
# Building blocks:
#     Node 0, Type 0, BuildingBlock: EBIMEJ_clean_sbu_0, # of connection points: 8
#     Node 1, Type 0, BuildingBlock: EBIMEJ_clean_sbu_0, # of connection points: 8
#     Node 2, Type 0, BuildingBlock: EBIMEJ_clean_sbu_0, # of connection points: 8
#     Node 3, Type 0, BuildingBlock: EBIMEJ_clean_sbu_0, # of connection points: 8
#     Node 4, Type 0, BuildingBlock: EBIMEJ_clean_sbu_0, # of connection points: 8
#     Node 5, Type 0, BuildingBlock: EBIMEJ_clean_sbu_0, # of connection points: 8
#     Node 6, Type 0, BuildingBlock: EBIMEJ_clean_sbu_0, # of connection points: 8
#     Node 7, Type 0, BuildingBlock: EBIMEJ_clean_sbu_0, # of connection points: 8
#     Edge 8, Type (0, 0), BuildingBlock: CIFDUS_clean_linker_0, # of connection points: 2
#     Edge 9, Type (0, 0), BuildingBlock: CIFDUS_clean_linker_0, # of connection points: 2
#     Edge 10, Type (0, 0), BuildingBlock: CIFDUS_clean_linker_0, # of connection points: 2
#     Edge 11, Type (0, 0), BuildingBlock: CIFDUS_clean_linker_0, # of connection points: 2
#     Edge 12, Type (0, 0), BuildingBlock: CIFDUS_clean_linker_0, # of connection points: 2
#     Edge 13, Type (0, 0), BuildingBlock: CIFDUS_clean_linker_0, # of connection points: 2
#     Edge 14, Type (0, 0), BuildingBlock: CIFDUS_clean_linker_0, # of connection points: 2
#     Edge 15, Type (0, 0), BuildingBlock: CIFDUS_clean_linker_0, # of connection points: 2
#     Edge 16, Type (0, 0), BuildingBlock: CIFDUS_clean_linker_0, # of connection points: 2
#     Edge 17, Type (0, 0), BuildingBlock: CIFDUS_clean_linker_0, # of connection points: 2
#     Edge 18, Type (0, 0), BuildingBlock: CIFDUS_clean_linker_0, # of connection points: 2
#     Edge 19, Type (0, 0), BuildingBlock: CIFDUS_clean_linker_0, # of connection points: 2
#     Edge 20, Type (0, 0), BuildingBlock: CIFDUS_clean_linker_0, # of connection points: 2
#     Edge 21, Type (0, 0), BuildingBlock: CIFDUS_clean_linker_0, # of connection points: 2
#     Edge 22, Type (0, 0), BuildingBlock: CIFDUS_clean_linker_0, # of connection points: 2
#     Edge 23, Type (0, 0), BuildingBlock: CIFDUS_clean_linker_0, # of connection points: 2
#     Edge 24, Type (0, 0), BuildingBlock: CIFDUS_clean_linker_0, # of connection points: 2
#     Edge 25, Type (0, 0), BuildingBlock: CIFDUS_clean_linker_0, # of connection points: 2
#     Edge 26, Type (0, 0), BuildingBlock: CIFDUS_clean_linker_0, # of connection points: 2
#     Edge 27, Type (0, 0), BuildingBlock: CIFDUS_clean_linker_0, # of connection points: 2
#     Edge 28, Type (0, 0), BuildingBlock: CIFDUS_clean_linker_0, # of connection points: 2
#     Edge 29, Type (0, 0), BuildingBlock: CIFDUS_clean_linker_0, # of connection points: 2
#     Edge 30, Type (0, 0), BuildingBlock: CIFDUS_clean_linker_0, # of connection points: 2
#     Edge 31, Type (0, 0), BuildingBlock: CIFDUS_clean_linker_0, # of connection points: 2
#     Edge 32, Type (0, 0), BuildingBlock: CIFDUS_clean_linker_0, # of connection points: 2
#     Edge 33, Type (0, 0), BuildingBlock: CIFDUS_clean_linker_0, # of connection points: 2
#     Edge 34, Type (0, 0), BuildingBlock: CIFDUS_clean_linker_0, # of connection points: 2
#     Edge 35, Type (0, 0), BuildingBlock: CIFDUS_clean_linker_0, # of connection points: 2
#     Edge 36, Type (0, 0), BuildingBlock: CIFDUS_clean_linker_0, # of connection points: 2
#     Edge 37, Type (0, 0), BuildingBlock: CIFDUS_clean_linker_0, # of connection points: 2
#     Edge 38, Type (0, 0), BuildingBlock: CIFDUS_clean_linker_0, # of connection points: 2
#     Edge 39, Type (0, 0), BuildingBlock: CIFDUS_clean_linker_0, # of connection points: 2
# Relax obj value: 0.070
# Max RMSD: 0.172
# Mean RMSD: 0.172
data_MOF--net-lhb--node1-EBIMEJ_clean_sbu_0--edge1-CIFDUS_clean_linker_0
_symmetry_space_group_name_H-M    P1
_symmetry_Int_Tables_number       1
_symmetry_cell_setting            triclinic
loop_
_symmetry_equiv_pos_as_xyz
'x, y, z'
_cell_length_a     28.10634
_cell_length_b     13.95438
_cell_length_c     60.338684
_cell_angle_alpha  81.805802
_cell_angle_beta   90.074163
_cell_angle_gamma 90.11398
loop_
_atom_site_label
_atom_site_type_symbol
_atom_site_fract_x
_atom_site_fract_y
_atom_site_fract_z
_atom_type_partial_charge
Co0 Co 0.98027 0.92062 0.98782 0.0
Co1 Co 0.07301 0.00548 1.01446 0.0
Co2 Co 0.98653 0.92361 0.04035 0.0
H3 H 0.99095 0.94612 1.01411 0.0
O4 O 1.00321 0.00203 1.00973 0.0
H5 H 0.06529 -0.00521 0.04101 0.0
O6 O 0.05524 0.93722 0.04579 0.0
Co7 Co 0.06866 0.03122 0.0668 0.0
O8 O 0.13406 0.07354 0.05494 0.0
O9 O 0.14201 0.02076 1.02153 0.0
O10 O 0.02649 0.95261 0.09022 0.0
O11 O 0.97433 0.86856 0.07214 0.0
O12 O 0.91857 0.93605 0.96831 0.0
O13 O 0.98212 -0.0048 0.95586 0.0
O14 O 0.02396 0.12691 0.04994 0.0
O15 O 0.06328 0.14617 1.01774 0.0
C16 C 0.89854 0.86166 1.01935 0.0
C17 C 0.07757 -0.02331 0.96735 0.0
C18 C 0.10246 0.06881 0.10327 0.0
C19 C 0.01683 0.7531 1.01717 0.0
C20 C 0.15884 0.0597 0.03795 0.0
C21 C 0.99241 0.89191 0.0901 0.0
C22 C 0.93928 -0.01777 0.95167 0.0
C23 C 0.03631 0.17932 0.03194 0.0
O24 O 0.91997 0.85253 1.00108 0.0
O25 O 0.91747 0.90646 0.03421 0.0
O26 O 0.08797 0.03615 0.98122 0.0
O27 O 0.04236 0.91802 0.97069 0.0
O28 O 0.10728 -0.00987 0.09566 0.0
O29 O 0.07825 0.12736 0.09008 0.0
O30 O 0.0177 0.80119 0.99772 0.0
O31 O 1.00048 0.78777 0.03415 0.0
Co32 Co 0.20888 0.29249 0.31505 0.0
Co33 Co 0.29339 0.17876 0.29113 0.0
Co34 Co 0.20983 0.25918 0.26338 0.0
H35 H 0.21491 0.25127 0.28995 0.0
O36 O 0.22444 0.1941 0.29533 0.0
H37 H 0.29105 0.2001 0.26468 0.0
O38 O 0.2796 0.25644 0.26009 0.0
Co39 Co 0.30242 0.17428 0.23845 0.0
O40 O 0.3616 0.1072 0.25261 0.0
O41 O 0.36262 0.15873 0.28611 0.0
O42 O 0.24068 0.16338 0.22154 0.0
O43 O 0.19769 0.28814 0.22995 0.0
O44 O 0.14846 0.30705 0.33381 0.0
O45 O 0.21347 0.34914 0.3452 0.0
O46 O 0.26483 0.05466 0.24825 0.0
O47 O 0.27902 0.04268 0.28502 0.0
C48 C 0.12222 0.31866 0.28318 0.0
C49 C 0.28615 0.15995 0.3406 0.0
C50 C 0.34349 0.23829 0.20246 0.0
C51 C 0.24544 0.43383 0.28053 0.0
C52 C 0.38202 0.11491 0.27122 0.0
C53 C 0.20611 0.22272 0.2174 0.0
C54 C 0.16964 0.34231 0.34913 0.0
C55 C 0.26398 0.00748 0.26781 0.0
O56 O 0.14532 0.3387 0.30031 0.0
O57 O 0.14065 0.27064 0.2688 0.0
O58 O 0.30263 0.1267 0.32341 0.0
O59 O 0.25328 0.22422 0.3393 0.0
O60 O 0.36306 0.18439 0.21831 0.0
O61 O 0.30177 0.25764 0.20737 0.0
O62 O 0.25723 0.38075 0.2985 0.0
O63 O 0.21837 0.40086 0.26629 0.0
Co64 Co 0.70855 0.7796 0.3154 0.0
Co65 Co 0.79488 0.68714 0.28806 0.0
Co66 Co 0.70429 0.7429 0.2634 0.0
H67 H 0.71331 0.74038 0.28984 0.0
O68 O 0.72661 0.68628 0.29486 0.0
H69 H 0.788 0.70133 0.26202 0.0
O70 O 0.77313 0.75378 0.25716 0.0
Co71 Co 0.79851 0.66888 0.23652 0.0
O72 O 0.86036 0.61128 0.24986 0.0
O73 O 0.86403 0.6811 0.28084 0.0
O74 O 0.73638 0.65567 0.22008 0.0
O75 O 0.68657 0.76645 0.23061 0.0
O76 O 0.66125 0.74326 0.34139 0.0
O77 O 0.70532 0.86195 0.34163 0.0
O78 O 0.77418 0.53764 0.24846 0.0
O79 O 0.78585 0.54739 0.28461 0.0
C80 C 0.61831 0.79298 0.2858 0.0
C81 C 0.7936 0.65983 0.33769 0.0
C82 C 0.83874 0.72869 0.20029 0.0
C83 C 0.72869 0.93267 0.27821 0.0
C84 C 0.88281 0.63066 0.26708 0.0
C85 C 0.69943 0.70924 0.21677 0.0
C86 C 0.67286 0.81161 0.3518 0.0
C87 C 0.775 0.49944 0.26882 0.0
O88 O 0.64311 0.81854 0.30185 0.0
O89 O 0.63582 0.74313 0.27152 0.0
O90 O 0.8109 0.64125 0.31929 0.0
O91 O 0.75647 0.71249 0.33877 0.0
O92 O 0.86048 0.69572 0.2179 0.0
O93 O 0.79485 0.72984 0.20346 0.0
O94 O 0.74109 0.89305 0.29763 0.0
O95 O 0.70729 0.8858 0.26444 0.0
Co96 Co 0.97216 0.42705 0.48746 0.0
Co97 Co 0.06637 0.50244 0.5138 0.0
Co98 Co 0.97645 0.44413 0.53867 0.0
H99 H 0.9831 0.4596 0.5128 0.0
O100 O 0.99767 0.51235 0.50781 0.0
H101 H 0.05738 0.50188 0.54026 0.0
O102 O 0.04461 0.44744 0.54548 0.0
Co103 Co 0.06154 0.54297 0.56574 0.0
O104 O 0.12733 0.57997 0.55213 0.0
O105 O 0.13472 0.50363 0.52191 0.0
O106 O 0.01425 0.47328 0.58922 0.0
O107 O 0.96109 0.3972 0.56988 0.0
O108 O 0.91904 0.52066 0.47441 0.0
O109 O 0.95431 0.43473 0.4543 0.0
O110 O 0.02818 0.65326 0.54718 0.0
O111 O 0.06371 0.64547 0.51447 0.0
C112 C 0.89012 0.37688 0.51802 0.0
C113 C 0.06862 0.47593 0.46554 0.0
C114 C 0.09777 0.58368 0.60148 0.0
C115 C 1.0007 0.25993 0.51918 0.0
C116 C 0.15218 0.55381 0.53618 0.0
C117 C 0.97797 0.41766 0.58823 0.0
C118 C 0.92263 0.49732 0.45515 0.0
C119 C 0.04172 0.69267 0.52792 0.0
O120 O 0.91331 0.35791 0.50103 0.0
O121 O 0.90737 0.43196 0.53127 0.0
O122 O 0.08386 0.52487 0.48075 0.0
O123 O 0.03013 0.42651 0.4677 0.0
O124 O 0.05931 0.61851 0.59334 0.0
O125 O 0.11485 0.52571 0.58948 0.0
O126 O 1.00134 0.29932 0.49889 0.0
O127 O 0.98793 0.30568 0.53504 0.0
Co128 Co 0.21555 0.78656 0.81645 0.0
Co129 Co 0.29525 0.66876 0.79005 0.0
Co130 Co 0.20848 0.75536 0.7645 0.0
H131 H 0.21734 0.74661 0.79095 0.0
O132 O 0.22687 0.68902 0.79605 0.0
H133 H 0.28909 0.69123 0.76386 0.0
O134 O 0.27797 0.74812 0.7595 0.0
Co135 Co 0.29547 0.66488 0.73738 0.0
O136 O 0.35864 0.60705 0.74782 0.0
O137 O 0.36389 0.64065 0.78303 0.0
O138 O 0.23131 0.6546 0.72297 0.0
O139 O 0.19284 0.78494 0.7311 0.0
O140 O 0.15845 0.78784 0.83791 0.0
O141 O 0.22072 0.85552 0.8451 0.0
O142 O 0.2553 0.55028 0.74846 0.0
O143 O 0.27762 0.53463 0.78431 0.0
C144 C 0.12367 0.81348 0.7882 0.0
C145 C 0.29311 0.64866 0.83969 0.0
C146 C 0.33633 0.71612 0.70084 0.0
C147 C 0.24818 0.92829 0.78088 0.0
C148 C 0.38158 0.60734 0.76603 0.0
C149 C 0.20049 0.72106 0.71796 0.0
C150 C 0.17882 0.83532 0.85137 0.0
C151 C 0.25834 0.50136 0.76777 0.0
O152 O 0.14922 0.82714 0.80504 0.0
O153 O 0.13975 0.7738 0.77178 0.0
O154 O 0.30773 0.61583 0.82209 0.0
O155 O 0.2613 0.71454 0.83923 0.0
O156 O 0.3023 0.65775 0.70376 0.0
O157 O 0.34788 0.74554 0.71884 0.0
O158 O 0.26194 0.8751 0.79851 0.0
O159 O 0.21964 0.89563 0.76723 0.0
Co160 Co 0.71169 0.28281 0.81589 0.0
Co161 Co 0.79774 0.18193 0.78947 0.0
Co162 Co 0.707 0.2473 0.7641 0.0
H163 H 0.71625 0.24385 0.79037 0.0
O164 O 0.72886 0.18926 0.79573 0.0
H165 H 0.79059 0.20062 0.76351 0.0
O166 O 0.77643 0.25413 0.75875 0.0
Co167 Co 0.79969 0.17219 0.73753 0.0
O168 O 0.8607 0.10891 0.74889 0.0
O169 O 0.86718 0.16311 0.78199 0.0
O170 O 0.7405 0.16449 0.71906 0.0
O171 O 0.69006 0.27119 0.73094 0.0
O172 O 0.67533 0.23501 0.84483 0.0
O173 O 0.70404 0.37341 0.84022 0.0
O174 O 0.76795 0.04653 0.74878 0.0
O175 O 0.78355 0.04628 0.78508 0.0
C176 C 0.62021 0.29666 0.78771 0.0
C177 C 0.79185 0.14935 0.83913 0.0
C178 C 0.84858 0.24686 0.70531 0.0
C179 C 0.72857 0.43959 0.77877 0.0
C180 C 0.88453 0.12066 0.76624 0.0
C181 C 0.7037 0.21831 0.71622 0.0
C182 C 0.68048 0.31216 0.85306 0.0
C183 C 0.76851 0.00486 0.76891 0.0
O184 O 0.6452 0.31717 0.80411 0.0
O185 O 0.63756 0.2548 0.77184 0.0
O186 O 0.81282 0.13226 0.82129 0.0
O187 O 0.75493 0.20294 0.83896 0.0
O188 O 0.85112 0.27066 0.72457 0.0
O189 O 0.81831 0.18131 0.70442 0.0
O190 O 0.73867 0.40356 0.79875 0.0
O191 O 0.71133 0.38965 0.76458 0.0
Co192 Co 0.47284 0.91126 0.4889 0.0
Co193 Co 0.56703 -0.00704 0.51366 0.0
Co194 Co 0.47927 0.93254 0.54083 0.0
H195 H 0.48384 0.94488 0.51447 0.0
O196 O 0.49747 -0.00166 0.50916 0.0
H197 H 0.5604 -0.00754 0.54006 0.0
O198 O 0.54838 0.93803 0.54592 0.0
Co199 Co 0.56667 0.03736 0.56485 0.0
O200 O 0.63079 0.07677 0.55026 0.0
O201 O 0.63641 -0.00061 0.52017 0.0
O202 O 0.52243 0.97165 0.58951 0.0
O203 O 0.46651 0.88961 0.57318 0.0
O204 O 0.46612 0.89932 0.45541 0.0
O205 O 0.42247 -0.00634 0.4695 0.0
O206 O 0.52708 0.13901 0.54683 0.0
O207 O 0.5628 0.13579 0.51413 0.0
C208 C 0.39048 0.87061 0.5209 0.0
C209 C 0.56892 0.95545 0.46695 0.0
C210 C 0.60493 0.08557 0.59932 0.0
C211 C 0.50105 0.74643 0.52184 0.0
C212 C 0.65458 0.05118 0.53398 0.0
C213 C 0.48603 0.91571 0.59055 0.0
C214 C 0.43319 0.96 0.45191 0.0
C215 C 0.5398 0.18061 0.52768 0.0
O216 O 0.41198 0.85382 0.50324 0.0
O217 O 0.40969 0.91975 0.5349 0.0
O218 O 0.58147 0.01512 0.48035 0.0
O219 O 0.53259 0.90057 0.47082 0.0
O220 O 0.56175 0.09838 0.5944 0.0
O221 O 0.6259 0.04503 0.58481 0.0
O222 O 0.50113 0.78484 0.5015 0.0
O223 O 0.48953 0.79302 0.53775 0.0
Co224 Co 0.48188 0.40781 0.98701 0.0
Co225 Co 0.57174 0.48793 1.01364 0.0
Co226 Co 0.48185 0.42623 0.03928 0.0
H227 H 0.48901 0.43979 1.01299 0.0
O228 O 0.50261 0.49385 1.00814 0.0
H229 H 0.56366 0.48446 0.03982 0.0
O230 O 0.55086 0.43035 0.0454 0.0
Co231 Co 0.56971 0.52739 0.0647 0.0
O232 O 0.63437 0.5709 0.05077 0.0
O233 O 0.64081 0.49268 1.02094 0.0
O234 O 0.52831 0.44725 0.08863 0.0
O235 O 0.46712 0.38267 0.07147 0.0
O236 O 0.48038 0.40357 0.953 0.0
O237 O 0.43042 0.48458 0.96745 0.0
O238 O 0.53131 0.63278 0.04727 0.0
O239 O 0.56729 0.62996 1.01464 0.0
C240 C 0.3936 0.37681 1.01555 0.0
C241 C 0.57901 0.4505 0.96797 0.0
C242 C 0.60584 0.57559 0.09938 0.0
C243 C 0.50406 0.24023 1.02036 0.0
C244 C 0.65869 0.54514 0.03464 0.0
C245 C 0.4898 0.39749 0.08911 0.0
C246 C 0.4449 0.45797 0.9496 0.0
C247 C 0.54376 0.67426 0.02807 0.0
O248 O 0.41659 0.36555 0.99794 0.0
O249 O 0.41242 0.41214 0.03204 0.0
O250 O 0.58797 0.51419 0.9808 0.0
O251 O 0.54482 0.39039 0.97208 0.0
O252 O 0.56311 0.59036 0.09382 0.0
O253 O 0.62748 0.53327 0.08538 0.0
O254 O 0.50668 0.27877 1.00006 0.0
O255 O 0.49194 0.28733 0.03607 0.0
H256 H 0.09717 0.23432 0.12396 0.0
H257 H 0.15071 0.94139 0.13272 0.0
H258 H 0.18354 0.96264 0.16894 0.0
H259 H 0.1993 0.06258 0.19763 0.0
H260 H 0.14954 0.3575 0.19052 0.0
H261 H 0.11212 0.33667 0.15449 0.0
C262 C 0.11601 0.17535 0.13385 0.0
C263 C 0.1216 0.08627 0.12544 0.0
C264 C 0.13524 0.18812 0.15502 0.0
C265 C 0.14596 0.01064 0.13857 0.0
C266 C 0.16474 0.02261 0.15938 0.0
C267 C 0.18031 0.12302 0.18832 0.0
C268 C 0.17781 0.21205 0.19682 0.0
C269 C 0.15988 0.11089 0.16768 0.0
C270 C 0.15209 0.28816 0.18453 0.0
C271 C 0.13099 0.27628 0.16382 0.0
H272 H 0.90003 0.84469 0.09933 0.0
H273 H 0.03825 0.85285 0.13013 0.0
H274 H 1.0034 0.80028 0.16698 0.0
H275 H 0.93294 0.75748 0.19072 0.0
H276 H 0.79414 0.76198 0.16 0.0
H277 H 0.82967 0.80419 0.12303 0.0
C278 C 0.92255 0.83355 0.11408 0.0
C279 C 0.97167 0.85157 0.11199 0.0
C280 C 0.90204 0.80654 0.13531 0.0
C281 C 1.00032 0.83898 0.13131 0.0
C282 C 0.98041 0.80923 0.1524 0.0
C283 C 0.91059 0.76772 0.17591 0.0
C284 C 0.86104 0.75652 0.1781 0.0
C285 C 0.93122 0.79387 0.15465 0.0
C286 C 0.8324 0.77042 0.15879 0.0
C287 C 0.85269 0.79433 0.1376 0.0
H288 H 0.0333 0.4322 0.42653 0.0
H289 H 0.16528 0.5041 0.45682 0.0
H290 H 0.20874 0.47073 0.42334 0.0
H291 H 0.20902 0.4116 0.38591 0.0
H292 H 0.07512 0.33776 0.35746 0.0
H293 H 0.03292 0.38008 0.38988 0.0
C294 C 0.07162 0.44136 0.42592 0.0
C295 C 0.09584 0.47049 0.44439 0.0
C296 C 0.09617 0.42044 0.40692 0.0
C297 C 0.1455 0.48268 0.44291 0.0
C298 C 0.17039 0.46266 0.42379 0.0
C299 C 0.1706 0.40528 0.38681 0.0
C300 C 0.14534 0.37108 0.36917 0.0
C301 C 0.14615 0.42996 0.40578 0.0
C302 C 0.09557 0.36333 0.37069 0.0
C303 C 0.07131 0.38778 0.38925 0.0
H304 H 0.78004 0.69558 0.38108 0.0
H305 H 0.86666 0.53145 0.34075 0.0
H306 H 0.91352 0.46892 0.3732 0.0
H307 H 0.93155 0.46077 0.41278 0.0
H308 H 0.84716 0.62231 0.45415 0.0
H309 H 0.79808 0.68539 0.42168 0.0
C310 C 0.80893 0.64567 0.37945 0.0
C311 C 0.81954 0.61888 0.35835 0.0
C312 C 0.83643 0.60941 0.39837 0.0
C313 C 0.85739 0.55411 0.35663 0.0
C314 C 0.88447 0.51794 0.37523 0.0
C315 C 0.90236 0.50968 0.41473 0.0
C316 C 0.89296 0.53687 0.43577 0.0
C317 C 0.87452 0.54535 0.39611 0.0
C318 C 0.85514 0.60055 0.43804 0.0
C319 C 0.82704 0.63645 0.41949 0.0
H320 H 0.06783 0.706 0.63164 0.0
H321 H 0.18067 0.51154 0.61869 0.0
H322 H 0.22137 0.54103 0.6525 0.0
H323 H 0.2251 0.61583 0.68566 0.0
H324 H 0.11591 0.81267 0.70116 0.0
H325 H 0.07368 0.78852 0.66641 0.0
C326 C 0.10135 0.67038 0.63627 0.0
C327 C 0.12098 0.60603 0.62249 0.0
C328 C 0.12523 0.68798 0.65614 0.0
C329 C 0.16449 0.56083 0.6288 0.0
C330 C 0.18795 0.57776 0.64821 0.0
C331 C 0.1923 0.65504 0.68168 0.0
C332 C 0.17415 0.71662 0.69634 0.0
C333 C 0.16864 0.64056 0.66198 0.0
C334 C 0.13122 0.76537 0.69034 0.0
C335 C 0.10696 0.75103 0.67045 0.0
H336 H 0.84192 0.20859 0.66297 0.0
H337 H 0.92172 0.37811 0.70453 0.0
H338 H 0.97058 0.44465 0.67225 0.0
H339 H 0.98964 0.45574 0.63168 0.0
H340 H 0.90762 0.2828 0.59128 0.0
H341 H 0.86111 0.21718 0.62354 0.0
C342 C 0.87005 0.26002 0.665 0.0
C343 C 0.87816 0.2885 0.68605 0.0
C344 C 0.89779 0.29759 0.6465 0.0
C345 C 0.91468 0.35536 0.68842 0.0
C346 C 0.94267 0.39323 0.66998 0.0
C347 C 0.96186 0.40322 0.63 0.0
C348 C 0.95243 0.37499 0.60891 0.0
C349 C 0.93451 0.36498 0.64885 0.0
C350 C 0.91598 0.30679 0.60714 0.0
C351 C 0.88908 0.26877 0.62564 0.0
H352 H 0.21614 0.93061 0.88525 0.0
H353 H 0.08724 0.80344 0.86329 0.0
H354 H 0.04528 0.84336 0.89585 0.0
H355 H 0.0447 0.90659 0.93089 0.0
H356 H 0.17099 0.03298 0.95538 0.0
H357 H 0.21415 0.00227 0.92147 0.0
C358 C 0.17886 0.91206 0.88762 0.0
C359 C 0.15503 0.86354 0.87167 0.0
C360 C 0.15439 0.93516 0.90681 0.0
C361 C 0.10669 0.84025 0.8751 0.0
C362 C 0.0825 0.86319 0.89379 0.0
C363 C 0.08162 0.92877 0.92897 0.0
C364 C 0.10431 0.97234 0.94593 0.0
C365 C 0.10598 0.90973 0.90978 0.0
C366 C 0.15224 0.00019 0.94267 0.0
C367 C 0.17702 -0.01822 0.92331 0.0
H368 H 0.88479 0.11474 0.8502 0.0
H369 H 0.74327 0.09564 0.87801 0.0
H370 H 0.77566 0.03852 0.91518 0.0
H371 H 0.84487 -0.00144 0.94024 0.0
H372 H 0.98635 0.03237 0.91259 0.0
H373 H 0.95359 0.07877 0.8752 0.0
C374 C 0.86105 0.09698 0.86436 0.0
C375 C 0.81169 0.10855 0.86128 0.0
C376 C 0.88003 0.06736 0.88586 0.0
C377 C 0.78144 0.0871 0.87991 0.0
C378 C 0.79994 0.05458 0.9012 0.0
C379 C 0.86839 0.01601 0.926 0.0
C380 C 0.91796 0.01165 0.92923 0.0
C381 C 0.84925 0.04528 0.90446 0.0
C382 C 0.94805 0.0352 0.91062 0.0
C383 C 0.92936 0.06166 0.88917 0.0
H384 H 0.73901 0.16393 0.67847 0.0
H385 H 0.60853 0.26004 0.70566 0.0
H386 H 0.56588 0.22924 0.67163 0.0
H387 H 0.56571 0.16557 0.63465 0.0
H388 H 0.69819 0.0668 0.6097 0.0
H389 H 0.73969 0.10658 0.64257 0.0
C390 C 0.70119 0.1788 0.67712 0.0
C391 C 0.67711 0.2139 0.69485 0.0
C392 C 0.6771 0.15919 0.65789 0.0
C393 C 0.62819 0.23364 0.69234 0.0
C394 C 0.60375 0.21515 0.67292 0.0
C395 C 0.60368 0.15327 0.63642 0.0
C396 C 0.62875 0.11291 0.61962 0.0
C397 C 0.62775 0.17642 0.65567 0.0
C398 C 0.67791 0.09735 0.62225 0.0
C399 C 0.70179 0.12032 0.64107 0.0
H400 H 0.40495 0.80884 0.6003 0.0
H401 H 0.51908 0.94847 0.63161 0.0
H402 H 0.48314 0.90017 0.66825 0.0
H403 H 0.41852 0.81962 0.69171 0.0
H404 H 0.30506 0.67939 0.6603 0.0
H405 H 0.34131 0.7269 0.62363 0.0
C406 C 0.4222 0.82843 0.61511 0.0
C407 C 0.46482 0.88239 0.613 0.0
C408 C 0.40127 0.80061 0.63626 0.0
C409 C 0.48631 0.9071 0.63254 0.0
C410 C 0.46572 0.87958 0.6536 0.0
C411 C 0.4018 0.79959 0.67682 0.0
C412 C 0.35916 0.74603 0.67877 0.0
C413 C 0.42307 0.82669 0.65569 0.0
C414 C 0.33799 0.72029 0.65931 0.0
C415 C 0.35869 0.74748 0.6383 0.0
H416 H 0.58561 0.29248 0.94763 0.0
H417 H 0.63636 0.58675 0.94239 0.0
H418 H 0.67386 0.57004 0.90623 0.0
H419 H 0.68758 0.47249 0.87496 0.0
H420 H 0.63302 0.18013 0.88171 0.0
H421 H 0.60097 0.19628 0.91833 0.0
C422 C 0.60491 0.35351 0.93871 0.0
C423 C 0.60764 0.44126 0.94765 0.0
C424 C 0.62524 0.34385 0.91802 0.0
C425 C 0.63369 0.51839 0.93594 0.0
C426 C 0.65479 0.50894 0.91519 0.0
C427 C 0.66876 0.41252 0.88454 0.0
C428 C 0.66244 0.32531 0.8755 0.0
C429 C 0.65004 0.42231 0.90585 0.0
C430 C 0.6382 0.24806 0.88813 0.0
C431 C 0.6199 0.25709 0.90914 0.0
H432 H 0.36162 0.55356 0.9403 0.0
H433 H 0.47773 0.42219 0.90905 0.0
H434 H 0.4405 0.46549 0.8723 0.0
H435 H 0.37519 0.54343 0.84887 0.0
H436 H 0.25938 0.67433 0.88075 0.0
H437 H 0.29599 0.62787 0.91718 0.0
C438 C 0.37878 0.53454 0.92543 0.0
C439 C 0.42238 0.48503 0.92739 0.0
C440 C 0.35707 0.55921 0.90438 0.0
C441 C 0.44408 0.46035 0.90799 0.0
C442 C 0.4228 0.48502 0.88696 0.0
C443 C 0.35774 0.56094 0.86379 0.0
C444 C 0.31453 0.61255 0.86189 0.0
C445 C 0.37923 0.53457 0.88492 0.0
C446 C 0.29271 0.6351 0.88152 0.0
C447 C 0.31364 0.60865 0.90248 0.0
H448 H 0.56561 0.6624 0.1334 0.0
H449 H 0.69758 0.54855 0.11145 0.0
H450 H 0.73727 0.58533 0.14498 0.0
H451 H 0.73476 0.64206 0.18059 0.0
H452 H 0.60571 0.75883 0.20459 0.0
H453 H 0.56456 0.72909 0.17005 0.0
C454 C 0.60307 0.64615 0.136 0.0
C455 C 0.62853 0.60217 0.11991 0.0
C456 C 0.62613 0.66784 0.15559 0.0
C457 C 0.67704 0.58176 0.12349 0.0
C458 C 0.69986 0.60288 0.14269 0.0
C459 C 0.6977 0.66247 0.17844 0.0
C460 C 0.67352 0.70283 0.19537 0.0
C461 C 0.67473 0.64497 0.15885 0.0
C462 C 0.62542 0.72826 0.19187 0.0
C463 C 0.60187 0.71063 0.17216 0.0
H464 H 0.43752 0.24275 0.1902 0.0
H465 H 0.29603 0.30212 0.16412 0.0
H466 H 0.32818 0.34981 0.12661 0.0
H467 H 0.39658 0.37786 0.10108 0.0
H468 H 0.53867 0.33262 0.12741 0.0
H469 H 0.5065 0.27596 0.16468 0.0
C470 C 0.41386 0.26616 0.17628 0.0
C471 C 0.36447 0.26878 0.17998 0.0
C472 C 0.43273 0.2958 0.1547 0.0
C473 C 0.33422 0.29988 0.16179 0.0
C474 C 0.35255 0.3269 0.14027 0.0
C475 C 0.42045 0.35468 0.11494 0.0
C476 C 0.46994 0.3585 0.11141 0.0
C477 C 0.40174 0.32537 0.1365 0.0
C478 C 0.50043 0.33011 0.12966 0.0
C479 C 0.48205 0.29782 0.151 0.0
H480 H 0.55605 0.8169 0.44047 0.0
H481 H 0.64351 0.0669 0.44616 0.0
H482 H 0.68406 0.04489 0.41104 0.0
H483 H 0.69311 0.95427 0.37809 0.0
H484 H 0.60325 0.70567 0.37431 0.0
H485 H 0.56513 0.72832 0.40931 0.0
C486 C 0.58386 0.86757 0.43421 0.0
C487 C 0.59619 0.94433 0.4461 0.0
C488 C 0.60661 0.8546 0.41419 0.0
C489 C 0.63298 0.00739 0.43749 0.0
C490 C 0.65612 -0.00523 0.41735 0.0
C491 C 0.6652 0.90521 0.38499 0.0
C492 C 0.65102 0.82829 0.37343 0.0
C493 C 0.64303 0.91871 0.40543 0.0
C494 C 0.61489 0.76535 0.38268 0.0
C495 C 0.593 0.77824 0.40275 0.0
H496 H 0.3564 0.07771 0.44154 0.0
H497 H 0.45915 0.90407 0.41224 0.0
H498 H 0.42251 0.94782 0.37545 0.0
H499 H 0.36158 0.0368 0.35135 0.0
H500 H 0.25852 0.20978 0.38092 0.0
H501 H 0.29472 0.16463 0.41755 0.0
C502 C 0.37071 0.04947 0.4271 0.0
C503 C 0.41044 -0.01231 0.42968 0.0
C504 C 0.34928 0.07458 0.40592 0.0
C505 C 0.42852 0.95161 0.41077 0.0
C506 C 0.40757 -0.02341 0.38968 0.0
C507 C 0.34675 0.06414 0.3658 0.0
C508 C 0.30714 0.12667 0.36315 0.0
C509 C 0.36788 0.03804 0.38702 0.0
C510 C 0.28884 0.16151 0.38223 0.0
C511 C 0.30961 0.13585 0.4033 0.0
H512 H 0.97213 0.60302 0.04176 0.0
H513 H 0.08827 0.6735 0.99572 0.0
H514 H 0.10336 0.50121 0.99505 0.0
H515 H 0.08256 0.33021 1.00727 0.0
H516 H 0.96415 0.26159 0.05228 0.0
H517 H 0.95023 0.43315 0.05322 0.0
C518 C 1.00124 0.58033 0.03192 0.0
C519 C 0.02956 0.65011 1.01911 0.0
C520 C 1.00862 0.48158 0.03103 0.0
C521 C 0.06635 0.62042 1.00589 0.0
C522 C 0.07474 0.52216 1.00537 0.0
C523 C 0.05327 0.35296 1.01698 0.0
C524 C 0.02442 0.28327 0.02964 0.0
C525 C 0.04571 0.45203 1.01767 0.0
C526 C 0.98695 0.31385 0.04239 0.0
C527 C 0.97909 0.41193 0.04306 0.0
H528 H 0.19882 0.58545 0.25632 0.0
H529 H 0.31695 0.51571 0.3015 0.0
H530 H 0.33017 0.68693 0.30331 0.0
H531 H 0.30804 0.85689 0.2924 0.0
H532 H 0.19253 0.9288 0.24602 0.0
H533 H 0.17764 0.75673 0.24473 0.0
C534 C 0.22789 0.60794 0.26625 0.0
C535 C 0.2569 0.53799 0.27869 0.0
C536 C 0.23508 0.70684 0.26743 0.0
C537 C 0.29407 0.56819 0.29175 0.0
C538 C 0.30152 0.66606 0.29293 0.0
C539 C 0.27905 0.83451 0.28239 0.0
C540 C 0.25085 0.90463 0.26966 0.0
C541 C 0.2719 0.73594 0.28108 0.0
C542 C 0.21428 0.87541 0.25617 0.0
C543 C 0.20605 0.77729 0.25528 0.0
H544 H 0.74953 0.05935 0.30669 0.0
H545 H 0.72327 0.04207 0.23682 0.0
H546 H 0.7343 0.21727 0.22783 0.0
H547 H 0.75211 0.37392 0.2399 0.0
H548 H 0.77739 0.38933 0.31 0.0
H549 H 0.76563 0.21513 0.3188 0.0
C550 C 0.74654 0.09354 0.28944 0.0
C551 C 0.73611 0.03774 0.2724 0.0
C552 C 0.75246 0.19368 0.28446 0.0
C553 C 0.73149 0.08353 0.25022 0.0
C554 C 0.73774 0.18353 0.24508 0.0
C555 C 0.75494 0.33937 0.25712 0.0
C556 C 0.76578 0.39467 0.27425 0.0
C557 C 0.74828 0.23917 0.26209 0.0
C558 C 0.76915 0.34862 0.29648 0.0
C559 C 0.76254 0.24897 0.30154 0.0
H560 H 0.02353 0.81958 0.55649 0.0
H561 H 0.04793 0.80216 0.48654 0.0
H562 H 0.0394 -0.02191 0.4777 0.0
H563 H 0.02341 0.13535 0.48998 0.0
H564 H 1.00009 0.14973 0.56026 0.0
H565 H 0.01034 -0.02459 0.56883 0.0
C566 C 0.02662 0.85391 0.53925 0.0
C567 C 0.03567 0.79797 0.52214 0.0
C568 C 0.02223 0.95428 0.53439 0.0
C569 C 0.04063 0.84384 0.49998 0.0
C570 C 0.03585 0.94423 0.49494 0.0
C571 C 0.02085 0.10053 0.50719 0.0
C572 C 0.01075 0.15557 0.52442 0.0
C573 C 0.02651 3e-05 0.51204 0.0
C574 C 1.00771 0.10923 0.54664 0.0
C575 C 0.01341 0.00947 0.55158 0.0
H576 H 0.19927 0.07613 0.75686 0.0
H577 H 0.31904 0.01434 0.80148 0.0
H578 H 0.32969 0.18649 0.80307 0.0
H579 H 0.30478 0.35424 0.79215 0.0
H580 H 0.18731 0.41828 0.74645 0.0
H581 H 0.17516 0.24525 0.74533 0.0
C582 C 0.22815 0.10051 0.76663 0.0
C583 C 0.25839 0.0327 0.77897 0.0
C584 C 0.23377 0.19965 0.76771 0.0
C585 C 0.29529 0.06525 0.79181 0.0
C586 C 0.30124 0.16356 0.79287 0.0
C587 C 0.27594 0.33002 0.78232 0.0
C588 C 0.24644 0.39808 0.76972 0.0
C589 C 0.27033 0.2312 0.78114 0.0
C590 C 0.21005 0.36647 0.75649 0.0
C591 C 0.20339 0.26788 0.75569 0.0
H592 H 0.72784 0.57222 0.80682 0.0
H593 H 0.73847 0.54165 0.73681 0.0
H594 H 0.74811 0.7172 0.72723 0.0
H595 H 0.75808 0.87702 0.73927 0.0
H596 H 0.74754 0.90403 0.80958 0.0
H597 H 0.7327 0.73108 0.81852 0.0
C598 C 0.73259 0.60381 0.78946 0.0
C599 C 0.73354 0.54451 0.77257 0.0
C600 C 0.73786 0.70368 0.78416 0.0
C601 C 0.73819 0.58634 0.7501 0.0
C602 C 0.74363 0.68637 0.74463 0.0
C603 C 0.75201 0.84517 0.75651 0.0
C604 C 0.75451 0.90274 0.77377 0.0
C605 C 0.74411 0.74548 0.76159 0.0
C606 C 0.74645 0.86081 0.79603 0.0
C607 C 0.73799 0.76205 0.80117 0.0
H608 H 0.52305 0.62451 0.4922 0.0
H609 H 0.50009 0.63348 0.56273 0.0
H610 H 0.50929 0.45825 0.57046 0.0
H611 H 0.52147 0.30362 0.55715 0.0
H612 H 0.54519 0.29342 0.48681 0.0
H613 H 0.53749 0.46963 0.479 0.0
C614 C 0.52027 0.58843 0.50931 0.0
C615 C 0.51061 0.64196 0.52686 0.0
C616 C 0.52514 0.48791 0.51361 0.0
C617 C 0.50739 0.59399 0.54891 0.0
C618 C 0.51244 0.49384 0.55334 0.0
C619 C 0.52449 0.33966 0.54005 0.0
C620 C 0.5332 0.28576 0.52251 0.0
C621 C 0.52069 0.44024 0.53578 0.0
C622 C 0.53812 0.33361 0.50054 0.0
C623 C 0.53388 0.4341 0.4961 0.0
H624 H 0.51806 0.79727 0.05656 0.0
H625 H 0.55395 0.78612 0.98736 0.0
H626 H 0.54638 0.96197 0.97907 0.0
H627 H 0.53 0.11734 0.9916 0.0
H628 H 0.49512 0.12752 0.06101 0.0
H629 H 0.50262 0.95218 0.06914 0.0
C630 C 0.52378 0.833 0.03959 0.0
C631 C 0.53616 0.77895 1.02254 0.0
C632 C 0.5201 0.93352 0.03505 0.0
C633 C 0.54417 0.8264 1.00074 0.0
C634 C 0.54002 0.92674 0.99601 0.0
C635 C 0.52419 0.08144 1.00854 0.0
C636 C 0.51193 0.13538 1.02566 0.0
C637 C 0.52822 -0.01914 1.01308 0.0
C638 C 0.50468 0.0877 0.04752 0.0
C639 C 0.50873 -0.01253 0.05218 0.0
H640 H 0.35229 0.27231 0.05195 0.0
H641 H 0.32815 0.38257 0.98242 0.0
H642 H 0.25558 0.28591 0.98244 0.0
H643 H 0.19987 0.16622 1.00195 0.0
H644 H 0.2231 0.05737 0.07159 0.0
H645 H 0.29565 0.15448 0.07168 0.0
C646 C 0.3304 0.27691 0.03701 0.0
C647 C 0.34509 0.33552 1.01732 0.0
C648 C 0.28939 0.21879 0.03695 0.0
C649 C 0.31717 0.33878 0.99786 0.0
C650 C 0.276 0.28266 0.99778 0.0
C651 C 0.22152 0.16216 1.01695 0.0
C652 C 0.20686 0.10319 0.03658 0.0
C653 C 0.26224 0.22092 1.0171 0.0
C654 C 0.23427 0.10103 0.05616 0.0
C655 C 0.27539 0.15742 0.0563 0.0
H656 H 0.85583 0.72389 0.99787 0.0
H657 H 0.83651 0.88668 0.05292 0.0
H658 H 0.76291 0.79903 0.06327 0.0
H659 H 0.70356 0.67732 0.05673 0.0
H660 H 0.72206 0.51384 1.00174 0.0
H661 H 0.79664 0.59937 0.99169 0.0
C662 C 0.83532 0.74096 1.012 0.0
C663 C 0.85178 0.81278 1.02443 0.0
C664 C 0.79304 0.6892 1.0181 0.0
C665 C 0.82485 0.83246 0.04292 0.0
C666 C 0.78272 0.78196 0.04894 0.0
C667 C 0.72398 0.65942 0.04264 0.0
C668 C 0.70687 0.58871 0.03006 0.0
C669 C 0.76654 0.70999 0.03671 0.0
C670 C 0.73414 0.56741 1.01183 0.0
C671 C 0.77677 0.61685 1.00596 0.0
H672 H 0.07788 0.45135 0.30518 0.0
H673 H 0.05954 0.28755 0.25015 0.0
H674 H 0.98534 0.37282 0.23986 0.0
H675 H 0.92657 0.49568 0.24586 0.0
H676 H 0.94428 0.65933 0.30092 0.0
H677 H 0.01826 0.57306 0.31153 0.0
C678 C 0.05751 0.4334 0.29106 0.0
C679 C 0.0745 0.36273 0.2785 0.0
C680 C 0.01509 0.48375 0.28499 0.0
C681 C 0.0475 0.34127 0.26017 0.0
C682 C 1.00511 0.39043 0.25418 0.0
C683 C 0.94674 0.51341 0.26007 0.0
C684 C 0.92991 0.58481 0.27242 0.0
C685 C 0.98887 0.46254 0.2663 0.0
C686 C 0.95644 0.60548 0.29096 0.0
C687 C 0.99866 0.55571 0.29714 0.0
H688 H 0.34813 0.73282 0.49993 0.0
H689 H 0.32889 0.89676 0.55481 0.0
H690 H 0.25545 0.80781 0.56536 0.0
H691 H 0.1964 0.68501 0.55877 0.0
H692 H 0.21624 0.52111 0.50388 0.0
H693 H 0.2904 0.60755 0.49394 0.0
C694 C 0.32776 0.75001 0.5141 0.0
C695 C 0.34393 0.82243 0.52639 0.0
C696 C 0.286 0.6976 0.52029 0.0
C697 C 0.31721 0.84219 0.5449 0.0
C698 C 0.27531 0.79091 0.55103 0.0
C699 C 0.21712 0.66713 0.54477 0.0
C700 C 0.20048 0.59629 0.53212 0.0
C701 C 0.25945 0.71829 0.53888 0.0
C702 C 0.22801 0.57482 0.514 0.0
C703 C 0.27035 0.62478 0.50819 0.0
H704 H 0.84864 0.23843 0.49675 0.0
H705 H 0.82895 0.39838 0.5523 0.0
H706 H 0.75659 0.3063 0.56299 0.0
H707 H 0.69875 0.18216 0.55645 0.0
H708 H 0.7176 0.02295 0.5007 0.0
H709 H 0.79123 0.11194 0.49057 0.0
C710 C 0.82841 0.25391 0.51111 0.0
C711 C 0.84419 0.32618 0.52356 0.0
C712 C 0.78705 0.19993 0.51733 0.0
C713 C 0.8176 0.34402 0.54227 0.0
C714 C 0.7763 0.29093 0.54848 0.0
C715 C 0.71904 0.16586 0.54218 0.0
C716 C 0.70239 0.0955 0.52937 0.0
C717 C 0.76079 0.21862 0.53617 0.0
C718 C 0.72944 0.0762 0.51093 0.0
C719 C 0.77143 0.12762 0.50502 0.0
H720 H 0.92872 0.02135 0.80296 0.0
H721 H 0.94758 0.11997 0.73249 0.0
H722 H 0.02082 0.02642 0.73241 0.0
H723 H 0.07914 0.9133 0.75209 0.0
H724 H 0.06149 0.81561 0.82261 0.0
H725 H 0.98812 0.90939 0.82288 0.0
C726 C 0.94949 0.02383 0.78775 0.0
C727 C 0.93297 0.07831 0.76783 0.0
C728 C 0.99125 0.96771 0.78767 0.0
C729 C 0.95971 0.07906 0.74809 0.0
C730 C 1.00141 0.02486 0.74796 0.0
C731 C 0.05863 0.91099 0.76738 0.0
C732 C 0.07531 0.85627 0.78721 0.0
C733 C 0.01715 0.96753 0.76755 0.0
C734 C 0.04909 0.85636 0.80706 0.0
C735 C 1.00733 0.9107 0.80727 0.0
H736 H 0.57534 0.39453 0.75138 0.0
H737 H 0.55671 0.29316 0.82168 0.0
H738 H 0.48281 0.38542 0.82188 0.0
H739 H 0.42435 0.50028 0.80226 0.0
H740 H 0.44453 0.6042 0.73209 0.0
H741 H 0.51697 0.50834 0.73179 0.0
C742 C 0.55437 0.3907 0.76657 0.0
C743 C 0.57097 0.33537 0.78636 0.0
C744 C 0.51271 0.44695 0.76676 0.0
C745 C 0.54423 0.33386 0.80612 0.0
C746 C 0.50224 0.38759 0.80631 0.0
C747 C 0.4451 0.50316 0.78703 0.0
C748 C 0.42918 0.5603 0.7673 0.0
C749 C 0.48651 0.44597 0.78683 0.0
C750 C 0.45604 0.56138 0.74757 0.0
C751 C 0.49735 0.5059 0.74732 0.0
H752 H 0.57455 0.92269 0.30868 0.0
H753 H 0.55408 0.76292 0.25311 0.0
H754 H 0.48016 0.85068 0.24334 0.0
H755 H 0.42282 -0.02319 0.24971 0.0
H756 H 0.4438 0.13641 0.30525 0.0
H757 H 0.51649 0.04546 0.31559 0.0
C758 C 0.55378 0.90596 0.29456 0.0
C759 C 0.57014 0.83595 0.28168 0.0
C760 C 0.51174 0.95791 0.28876 0.0
C761 C 0.54251 0.81601 0.26341 0.0
C762 C 0.50032 0.86673 0.25769 0.0
C763 C 0.44347 -0.00754 0.26397 0.0
C764 C 0.42796 0.06429 0.27653 0.0
C765 C 0.48499 0.9389 0.27004 0.0
C766 C 0.45491 0.08215 0.29517 0.0
C767 C 0.49643 0.0298 0.30118 0.0
loop_
_geom_bond_atom_site_label_1
_geom_bond_atom_site_label_2
_geom_bond_distance
_geom_bond_site_symmetry_2
_ccdc_geom_bond_type
Co0 H3 2.400 1_565 S
Co0 O4 2.009 1_565 S
Co0 O12 2.115 . S
Co0 O13 2.315 1_565 S
Co0 O24 2.053 . S
Co0 O27 2.094 1_655 S
Co0 O30 2.122 . S
Co1 O4 2.126 1_455 S
Co1 H5 2.388 1_546 S
Co1 O6 2.053 1_546 S
Co1 O9 2.047 . S
Co1 O15 2.113 . S
Co1 O26 2.063 . S
Co2 H3 2.388 1_564 S
Co2 O4 2.053 1_564 S
Co2 O6 2.126 1_655 S
Co2 O11 2.063 . S
Co2 O25 2.047 . S
Co2 O31 2.113 . S
H3 Co0 2.400 1_545 S
H3 Co2 2.388 1_546 S
H3 O4 0.760 . S
O4 Co0 2.009 1_545 S
O4 Co1 2.126 1_655 S
O4 Co2 2.053 1_546 S
O4 H3 0.760 . S
H5 Co1 2.388 1_564 S
H5 O6 0.760 . S
H5 Co7 2.400 1_565 S
O6 Co1 2.053 1_564 S
O6 Co2 2.126 1_455 S
O6 H5 0.760 . S
O6 Co7 2.009 1_565 S
Co7 H5 2.400 1_545 S
Co7 O6 2.009 1_545 S
Co7 O8 2.053 . S
Co7 O10 2.094 1_455 S
Co7 O14 2.122 . S
Co7 O28 2.115 . S
Co7 O29 2.315 1_545 S
O8 Co7 2.053 . S
O8 C20 1.259 . S
O9 Co1 2.047 . S
O9 C20 1.257 1_556 S
O10 Co7 2.094 1_655 S
O10 C21 1.253 1_545 S
O11 Co2 2.063 . S
O11 C21 1.268 . S
O12 Co0 2.115 . S
O12 C22 1.281 . S
O13 Co0 2.315 1_545 S
O13 C22 1.252 1_545 S
O14 Co7 2.122 . S
O14 C23 1.272 . S
O15 Co1 2.113 . S
O15 C23 1.245 1_556 S
C16 O24 1.259 . S
C16 O25 1.257 1_556 S
C17 O26 1.268 . S
C17 O27 1.253 1_545 S
C18 O28 1.281 . S
C18 O29 1.252 1_545 S
C19 O30 1.272 . S
C19 O31 1.245 1_556 S
C20 O8 1.259 . S
C20 O9 1.257 1_554 S
C21 O10 1.253 1_565 S
C21 O11 1.268 . S
C22 O12 1.281 . S
C22 O13 1.252 1_565 S
C23 O14 1.272 . S
C23 O15 1.245 1_554 S
O24 Co0 2.053 . S
O24 C16 1.259 . S
O25 Co2 2.047 . S
O25 C16 1.257 1_554 S
O26 Co1 2.063 . S
O26 C17 1.268 . S
O27 Co0 2.094 1_455 S
O27 C17 1.253 1_565 S
O28 Co7 2.115 . S
O28 C18 1.281 . S
O29 Co7 2.315 1_565 S
O29 C18 1.252 1_565 S
O30 Co0 2.122 . S
O30 C19 1.272 . S
O31 Co2 2.113 . S
O31 C19 1.245 1_554 S
Co32 H35 2.400 . S
Co32 O36 2.009 . S
Co32 O44 2.115 . S
Co32 O45 2.315 . S
Co32 O56 2.053 . S
Co32 O59 2.094 . S
Co32 O62 2.122 . S
Co33 O36 2.126 . S
Co33 H37 2.388 . S
Co33 O38 2.053 . S
Co33 O41 2.047 . S
Co33 O47 2.113 . S
Co33 O58 2.063 . S
Co34 H35 2.388 . S
Co34 O36 2.053 . S
Co34 O38 2.126 . S
Co34 O43 2.063 . S
Co34 O57 2.047 . S
Co34 O63 2.113 . S
H35 Co32 2.400 . S
H35 Co34 2.388 . S
H35 O36 0.760 . S
O36 Co32 2.009 . S
O36 Co33 2.126 . S
O36 Co34 2.053 . S
O36 H35 0.760 . S
H37 Co33 2.388 . S
H37 O38 0.760 . S
H37 Co39 2.400 . S
O38 Co33 2.053 . S
O38 Co34 2.126 . S
O38 H37 0.760 . S
O38 Co39 2.009 . S
Co39 H37 2.400 . S
Co39 O38 2.009 . S
Co39 O40 2.053 . S
Co39 O42 2.094 . S
Co39 O46 2.122 . S
Co39 O60 2.115 . S
Co39 O61 2.315 . S
O40 Co39 2.053 . S
O40 C52 1.259 . S
O41 Co33 2.047 . S
O41 C52 1.257 . S
O42 Co39 2.094 . S
O42 C53 1.253 . S
O43 Co34 2.063 . S
O43 C53 1.268 . S
O44 Co32 2.115 . S
O44 C54 1.281 . S
O45 Co32 2.315 . S
O45 C54 1.252 . S
O46 Co39 2.122 . S
O46 C55 1.272 . S
O47 Co33 2.113 . S
O47 C55 1.245 . S
C48 O56 1.259 . S
C48 O57 1.257 . S
C49 O58 1.268 . S
C49 O59 1.253 . S
C50 O60 1.281 . S
C50 O61 1.252 . S
C51 O62 1.272 . S
C51 O63 1.245 . S
C52 O40 1.259 . S
C52 O41 1.257 . S
C53 O42 1.253 . S
C53 O43 1.268 . S
C54 O44 1.281 . S
C54 O45 1.252 . S
C55 O46 1.272 . S
C55 O47 1.245 . S
O56 Co32 2.053 . S
O56 C48 1.259 . S
O57 Co34 2.047 . S
O57 C48 1.257 . S
O58 Co33 2.063 . S
O58 C49 1.268 . S
O59 Co32 2.094 . S
O59 C49 1.253 . S
O60 Co39 2.115 . S
O60 C50 1.281 . S
O61 Co39 2.315 . S
O61 C50 1.252 . S
O62 Co32 2.122 . S
O62 C51 1.272 . S
O63 Co34 2.113 . S
O63 C51 1.245 . S
Co64 H67 2.400 . S
Co64 O68 2.009 . S
Co64 O76 2.115 . S
Co64 O77 2.315 . S
Co64 O88 2.053 . S
Co64 O91 2.094 . S
Co64 O94 2.122 . S
Co65 O68 2.126 . S
Co65 H69 2.388 . S
Co65 O70 2.053 . S
Co65 O73 2.047 . S
Co65 O79 2.113 . S
Co65 O90 2.063 . S
Co66 H67 2.388 . S
Co66 O68 2.053 . S
Co66 O70 2.126 . S
Co66 O75 2.063 . S
Co66 O89 2.047 . S
Co66 O95 2.113 . S
H67 Co64 2.400 . S
H67 Co66 2.388 . S
H67 O68 0.760 . S
O68 Co64 2.009 . S
O68 Co65 2.126 . S
O68 Co66 2.053 . S
O68 H67 0.760 . S
H69 Co65 2.388 . S
H69 O70 0.760 . S
H69 Co71 2.400 . S
O70 Co65 2.053 . S
O70 Co66 2.126 . S
O70 H69 0.760 . S
O70 Co71 2.009 . S
Co71 H69 2.400 . S
Co71 O70 2.009 . S
Co71 O72 2.053 . S
Co71 O74 2.094 . S
Co71 O78 2.122 . S
Co71 O92 2.115 . S
Co71 O93 2.315 . S
O72 Co71 2.053 . S
O72 C84 1.259 . S
O73 Co65 2.047 . S
O73 C84 1.257 . S
O74 Co71 2.094 . S
O74 C85 1.253 . S
O75 Co66 2.063 . S
O75 C85 1.268 . S
O76 Co64 2.115 . S
O76 C86 1.281 . S
O77 Co64 2.315 . S
O77 C86 1.252 . S
O78 Co71 2.122 . S
O78 C87 1.272 . S
O79 Co65 2.113 . S
O79 C87 1.245 . S
C80 O88 1.259 . S
C80 O89 1.257 . S
C81 O90 1.268 . S
C81 O91 1.253 . S
C82 O92 1.281 . S
C82 O93 1.252 . S
C83 O94 1.272 . S
C83 O95 1.245 . S
C84 O72 1.259 . S
C84 O73 1.257 . S
C85 O74 1.253 . S
C85 O75 1.268 . S
C86 O76 1.281 . S
C86 O77 1.252 . S
C87 O78 1.272 . S
C87 O79 1.245 . S
O88 Co64 2.053 . S
O88 C80 1.259 . S
O89 Co66 2.047 . S
O89 C80 1.257 . S
O90 Co65 2.063 . S
O90 C81 1.268 . S
O91 Co64 2.094 . S
O91 C81 1.253 . S
O92 Co71 2.115 . S
O92 C82 1.281 . S
O93 Co71 2.315 . S
O93 C82 1.252 . S
O94 Co64 2.122 . S
O94 C83 1.272 . S
O95 Co66 2.113 . S
O95 C83 1.245 . S
Co96 H99 2.400 . S
Co96 O100 2.009 . S
Co96 O108 2.115 . S
Co96 O109 2.315 . S
Co96 O120 2.053 . S
Co96 O123 2.094 1_655 S
Co96 O126 2.122 . S
Co97 O100 2.126 1_455 S
Co97 H101 2.388 . S
Co97 O102 2.053 . S
Co97 O105 2.047 . S
Co97 O111 2.113 . S
Co97 O122 2.063 . S
Co98 H99 2.388 . S
Co98 O100 2.053 . S
Co98 O102 2.126 1_655 S
Co98 O107 2.063 . S
Co98 O121 2.047 . S
Co98 O127 2.113 . S
H99 Co96 2.400 . S
H99 Co98 2.388 . S
H99 O100 0.760 . S
O100 Co96 2.009 . S
O100 Co97 2.126 1_655 S
O100 Co98 2.053 . S
O100 H99 0.760 . S
H101 Co97 2.388 . S
H101 O102 0.760 . S
H101 Co103 2.400 . S
O102 Co97 2.053 . S
O102 Co98 2.126 1_455 S
O102 H101 0.760 . S
O102 Co103 2.009 . S
Co103 H101 2.400 . S
Co103 O102 2.009 . S
Co103 O104 2.053 . S
Co103 O106 2.094 1_455 S
Co103 O110 2.122 . S
Co103 O124 2.115 . S
Co103 O125 2.315 . S
O104 Co103 2.053 . S
O104 C116 1.259 . S
O105 Co97 2.047 . S
O105 C116 1.257 . S
O106 Co103 2.094 1_655 S
O106 C117 1.253 . S
O107 Co98 2.063 . S
O107 C117 1.268 . S
O108 Co96 2.115 . S
O108 C118 1.281 . S
O109 Co96 2.315 . S
O109 C118 1.252 . S
O110 Co103 2.122 . S
O110 C119 1.272 . S
O111 Co97 2.113 . S
O111 C119 1.245 . S
C112 O120 1.259 . S
C112 O121 1.257 . S
C113 O122 1.268 . S
C113 O123 1.253 . S
C114 O124 1.281 . S
C114 O125 1.252 . S
C115 O126 1.272 . S
C115 O127 1.245 . S
C116 O104 1.259 . S
C116 O105 1.257 . S
C117 O106 1.253 . S
C117 O107 1.268 . S
C118 O108 1.281 . S
C118 O109 1.252 . S
C119 O110 1.272 . S
C119 O111 1.245 . S
O120 Co96 2.053 . S
O120 C112 1.259 . S
O121 Co98 2.047 . S
O121 C112 1.257 . S
O122 Co97 2.063 . S
O122 C113 1.268 . S
O123 Co96 2.094 1_455 S
O123 C113 1.253 . S
O124 Co103 2.115 . S
O124 C114 1.281 . S
O125 Co103 2.315 . S
O125 C114 1.252 . S
O126 Co96 2.122 . S
O126 C115 1.272 . S
O127 Co98 2.113 . S
O127 C115 1.245 . S
Co128 H131 2.400 . S
Co128 O132 2.009 . S
Co128 O140 2.115 . S
Co128 O141 2.315 . S
Co128 O152 2.053 . S
Co128 O155 2.094 . S
Co128 O158 2.122 . S
Co129 O132 2.126 . S
Co129 H133 2.388 . S
Co129 O134 2.053 . S
Co129 O137 2.047 . S
Co129 O143 2.113 . S
Co129 O154 2.063 . S
Co130 H131 2.388 . S
Co130 O132 2.053 . S
Co130 O134 2.126 . S
Co130 O139 2.063 . S
Co130 O153 2.047 . S
Co130 O159 2.113 . S
H131 Co128 2.400 . S
H131 Co130 2.388 . S
H131 O132 0.760 . S
O132 Co128 2.009 . S
O132 Co129 2.126 . S
O132 Co130 2.053 . S
O132 H131 0.760 . S
H133 Co129 2.388 . S
H133 O134 0.760 . S
H133 Co135 2.400 . S
O134 Co129 2.053 . S
O134 Co130 2.126 . S
O134 H133 0.760 . S
O134 Co135 2.009 . S
Co135 H133 2.400 . S
Co135 O134 2.009 . S
Co135 O136 2.053 . S
Co135 O138 2.094 . S
Co135 O142 2.122 . S
Co135 O156 2.115 . S
Co135 O157 2.315 . S
O136 Co135 2.053 . S
O136 C148 1.259 . S
O137 Co129 2.047 . S
O137 C148 1.257 . S
O138 Co135 2.094 . S
O138 C149 1.253 . S
O139 Co130 2.063 . S
O139 C149 1.268 . S
O140 Co128 2.115 . S
O140 C150 1.281 . S
O141 Co128 2.315 . S
O141 C150 1.252 . S
O142 Co135 2.122 . S
O142 C151 1.272 . S
O143 Co129 2.113 . S
O143 C151 1.245 . S
C144 O152 1.259 . S
C144 O153 1.257 . S
C145 O154 1.268 . S
C145 O155 1.253 . S
C146 O156 1.281 . S
C146 O157 1.252 . S
C147 O158 1.272 . S
C147 O159 1.245 . S
C148 O136 1.259 . S
C148 O137 1.257 . S
C149 O138 1.253 . S
C149 O139 1.268 . S
C150 O140 1.281 . S
C150 O141 1.252 . S
C151 O142 1.272 . S
C151 O143 1.245 . S
O152 Co128 2.053 . S
O152 C144 1.259 . S
O153 Co130 2.047 . S
O153 C144 1.257 . S
O154 Co129 2.063 . S
O154 C145 1.268 . S
O155 Co128 2.094 . S
O155 C145 1.253 . S
O156 Co135 2.115 . S
O156 C146 1.281 . S
O157 Co135 2.315 . S
O157 C146 1.252 . S
O158 Co128 2.122 . S
O158 C147 1.272 . S
O159 Co130 2.113 . S
O159 C147 1.245 . S
Co160 H163 2.400 . S
Co160 O164 2.009 . S
Co160 O172 2.115 . S
Co160 O173 2.315 . S
Co160 O184 2.053 . S
Co160 O187 2.094 . S
Co160 O190 2.122 . S
Co161 O164 2.126 . S
Co161 H165 2.388 . S
Co161 O166 2.053 . S
Co161 O169 2.047 . S
Co161 O175 2.113 . S
Co161 O186 2.063 . S
Co162 H163 2.388 . S
Co162 O164 2.053 . S
Co162 O166 2.126 . S
Co162 O171 2.063 . S
Co162 O185 2.047 . S
Co162 O191 2.113 . S
H163 Co160 2.400 . S
H163 Co162 2.388 . S
H163 O164 0.760 . S
O164 Co160 2.009 . S
O164 Co161 2.126 . S
O164 Co162 2.053 . S
O164 H163 0.760 . S
H165 Co161 2.388 . S
H165 O166 0.760 . S
H165 Co167 2.400 . S
O166 Co161 2.053 . S
O166 Co162 2.126 . S
O166 H165 0.760 . S
O166 Co167 2.009 . S
Co167 H165 2.400 . S
Co167 O166 2.009 . S
Co167 O168 2.053 . S
Co167 O170 2.094 . S
Co167 O174 2.122 . S
Co167 O188 2.115 . S
Co167 O189 2.315 . S
O168 Co167 2.053 . S
O168 C180 1.259 . S
O169 Co161 2.047 . S
O169 C180 1.257 . S
O170 Co167 2.094 . S
O170 C181 1.253 . S
O171 Co162 2.063 . S
O171 C181 1.268 . S
O172 Co160 2.115 . S
O172 C182 1.281 . S
O173 Co160 2.315 . S
O173 C182 1.252 . S
O174 Co167 2.122 . S
O174 C183 1.272 . S
O175 Co161 2.113 . S
O175 C183 1.245 . S
C176 O184 1.259 . S
C176 O185 1.257 . S
C177 O186 1.268 . S
C177 O187 1.253 . S
C178 O188 1.281 . S
C178 O189 1.252 . S
C179 O190 1.272 . S
C179 O191 1.245 . S
C180 O168 1.259 . S
C180 O169 1.257 . S
C181 O170 1.253 . S
C181 O171 1.268 . S
C182 O172 1.281 . S
C182 O173 1.252 . S
C183 O174 1.272 . S
C183 O175 1.245 . S
O184 Co160 2.053 . S
O184 C176 1.259 . S
O185 Co162 2.047 . S
O185 C176 1.257 . S
O186 Co161 2.063 . S
O186 C177 1.268 . S
O187 Co160 2.094 . S
O187 C177 1.253 . S
O188 Co167 2.115 . S
O188 C178 1.281 . S
O189 Co167 2.315 . S
O189 C178 1.252 . S
O190 Co160 2.122 . S
O190 C179 1.272 . S
O191 Co162 2.113 . S
O191 C179 1.245 . S
Co192 H195 2.400 1_565 S
Co192 O196 2.009 1_565 S
Co192 O204 2.115 . S
Co192 O205 2.315 1_565 S
Co192 O216 2.053 . S
Co192 O219 2.094 . S
Co192 O222 2.122 . S
Co193 O196 2.126 . S
Co193 H197 2.388 1_545 S
Co193 O198 2.053 1_545 S
Co193 O201 2.047 . S
Co193 O207 2.113 . S
Co193 O218 2.063 . S
Co194 H195 2.388 1_565 S
Co194 O196 2.053 1_565 S
Co194 O198 2.126 . S
Co194 O203 2.063 . S
Co194 O217 2.047 . S
Co194 O223 2.113 . S
H195 Co192 2.400 1_545 S
H195 Co194 2.388 1_545 S
H195 O196 0.760 . S
O196 Co192 2.009 1_545 S
O196 Co193 2.126 . S
O196 Co194 2.053 1_545 S
O196 H195 0.760 . S
H197 Co193 2.388 1_565 S
H197 O198 0.760 . S
H197 Co199 2.400 1_565 S
O198 Co193 2.053 1_565 S
O198 Co194 2.126 . S
O198 H197 0.760 . S
O198 Co199 2.009 1_565 S
Co199 H197 2.400 1_545 S
Co199 O198 2.009 1_545 S
Co199 O200 2.053 . S
Co199 O202 2.094 . S
Co199 O206 2.122 . S
Co199 O220 2.115 . S
Co199 O221 2.315 1_545 S
O200 Co199 2.053 . S
O200 C212 1.259 . S
O201 Co193 2.047 . S
O201 C212 1.257 . S
O202 Co199 2.094 . S
O202 C213 1.253 1_545 S
O203 Co194 2.063 . S
O203 C213 1.268 . S
O204 Co192 2.115 . S
O204 C214 1.281 . S
O205 Co192 2.315 1_545 S
O205 C214 1.252 1_545 S
O206 Co199 2.122 . S
O206 C215 1.272 . S
O207 Co193 2.113 . S
O207 C215 1.245 . S
C208 O216 1.259 . S
C208 O217 1.257 . S
C209 O218 1.268 . S
C209 O219 1.253 1_545 S
C210 O220 1.281 . S
C210 O221 1.252 1_545 S
C211 O222 1.272 . S
C211 O223 1.245 . S
C212 O200 1.259 . S
C212 O201 1.257 . S
C213 O202 1.253 1_565 S
C213 O203 1.268 . S
C214 O204 1.281 . S
C214 O205 1.252 1_565 S
C215 O206 1.272 . S
C215 O207 1.245 . S
O216 Co192 2.053 . S
O216 C208 1.259 . S
O217 Co194 2.047 . S
O217 C208 1.257 . S
O218 Co193 2.063 . S
O218 C209 1.268 . S
O219 Co192 2.094 . S
O219 C209 1.253 1_565 S
O220 Co199 2.115 . S
O220 C210 1.281 . S
O221 Co199 2.315 1_565 S
O221 C210 1.252 1_565 S
O222 Co192 2.122 . S
O222 C211 1.272 . S
O223 Co194 2.113 . S
O223 C211 1.245 . S
Co224 H227 2.400 . S
Co224 O228 2.009 . S
Co224 O236 2.115 . S
Co224 O237 2.315 . S
Co224 O248 2.053 . S
Co224 O251 2.094 . S
Co224 O254 2.122 . S
Co225 O228 2.126 . S
Co225 H229 2.388 1_556 S
Co225 O230 2.053 1_556 S
Co225 O233 2.047 . S
Co225 O239 2.113 . S
Co225 O250 2.063 . S
Co226 H227 2.388 1_554 S
Co226 O228 2.053 1_554 S
Co226 O230 2.126 . S
Co226 O235 2.063 . S
Co226 O249 2.047 . S
Co226 O255 2.113 . S
H227 Co224 2.400 . S
H227 Co226 2.388 1_556 S
H227 O228 0.760 . S
O228 Co224 2.009 . S
O228 Co225 2.126 . S
O228 Co226 2.053 1_556 S
O228 H227 0.760 . S
H229 Co225 2.388 1_554 S
H229 O230 0.760 . S
H229 Co231 2.400 . S
O230 Co225 2.053 1_554 S
O230 Co226 2.126 . S
O230 H229 0.760 . S
O230 Co231 2.009 . S
Co231 H229 2.400 . S
Co231 O230 2.009 . S
Co231 O232 2.053 . S
Co231 O234 2.094 . S
Co231 O238 2.122 . S
Co231 O252 2.115 . S
Co231 O253 2.315 . S
O232 Co231 2.053 . S
O232 C244 1.259 . S
O233 Co225 2.047 . S
O233 C244 1.257 1_556 S
O234 Co231 2.094 . S
O234 C245 1.253 . S
O235 Co226 2.063 . S
O235 C245 1.268 . S
O236 Co224 2.115 . S
O236 C246 1.281 . S
O237 Co224 2.315 . S
O237 C246 1.252 . S
O238 Co231 2.122 . S
O238 C247 1.272 . S
O239 Co225 2.113 . S
O239 C247 1.245 1_556 S
C240 O248 1.259 . S
C240 O249 1.257 1_556 S
C241 O250 1.268 . S
C241 O251 1.253 . S
C242 O252 1.281 . S
C242 O253 1.252 . S
C243 O254 1.272 . S
C243 O255 1.245 1_556 S
C244 O232 1.259 . S
C244 O233 1.257 1_554 S
C245 O234 1.253 . S
C245 O235 1.268 . S
C246 O236 1.281 . S
C246 O237 1.252 . S
C247 O238 1.272 . S
C247 O239 1.245 1_554 S
O248 Co224 2.053 . S
O248 C240 1.259 . S
O249 Co226 2.047 . S
O249 C240 1.257 1_554 S
O250 Co225 2.063 . S
O250 C241 1.268 . S
O251 Co224 2.094 . S
O251 C241 1.253 . S
O252 Co231 2.115 . S
O252 C242 1.281 . S
O253 Co231 2.315 . S
O253 C242 1.252 . S
O254 Co224 2.122 . S
O254 C243 1.272 . S
O255 Co226 2.113 . S
O255 C243 1.245 1_554 S
H256 C262 0.930 . S
H257 C265 0.930 . S
H258 C266 0.930 . S
H259 C267 0.930 . S
H260 C270 0.930 . S
H261 C271 0.930 . S
C262 H256 0.930 . S
C262 C263 1.355 . S
C262 C264 1.415 . S
C263 C262 1.355 . S
C263 C265 1.419 . S
C264 C262 1.415 . S
C264 C269 1.425 . S
C264 C271 1.409 . S
C265 H257 0.930 . S
C265 C263 1.419 . S
C265 C266 1.362 . S
C266 H258 0.930 . S
C266 C265 1.362 . S
C266 C269 1.409 . S
C267 H259 0.930 . S
C267 C268 1.355 . S
C267 C269 1.415 . S
C268 C267 1.355 . S
C268 C270 1.419 . S
C269 C264 1.425 . S
C269 C266 1.409 . S
C269 C267 1.415 . S
C270 H260 0.930 . S
C270 C268 1.419 . S
C270 C271 1.362 . S
C271 H261 0.930 . S
C271 C264 1.409 . S
C271 C270 1.362 . S
H272 C278 0.930 . S
H273 C281 0.930 1_455 S
H274 C282 0.930 . S
H275 C283 0.930 . S
H276 C286 0.930 . S
H277 C287 0.930 . S
C278 H272 0.930 . S
C278 C279 1.355 . S
C278 C280 1.415 . S
C279 C278 1.355 . S
C279 C281 1.419 . S
C280 C278 1.415 . S
C280 C285 1.425 . S
C280 C287 1.409 . S
C281 H273 0.930 1_655 S
C281 C279 1.419 . S
C281 C282 1.362 . S
C282 H274 0.930 . S
C282 C281 1.362 . S
C282 C285 1.409 . S
C283 H275 0.930 . S
C283 C284 1.355 . S
C283 C285 1.415 . S
C284 C283 1.355 . S
C284 C286 1.419 . S
C285 C280 1.425 . S
C285 C282 1.409 . S
C285 C283 1.415 . S
C286 H276 0.930 . S
C286 C284 1.419 . S
C286 C287 1.362 . S
C287 H277 0.930 . S
C287 C280 1.409 . S
C287 C286 1.362 . S
H288 C294 0.930 . S
H289 C297 0.930 . S
H290 C298 0.930 . S
H291 C299 0.930 . S
H292 C302 0.930 . S
H293 C303 0.930 . S
C294 H288 0.930 . S
C294 C295 1.355 . S
C294 C296 1.415 . S
C295 C294 1.355 . S
C295 C297 1.419 . S
C296 C294 1.415 . S
C296 C301 1.425 . S
C296 C303 1.409 . S
C297 H289 0.930 . S
C297 C295 1.419 . S
C297 C298 1.362 . S
C298 H290 0.930 . S
C298 C297 1.362 . S
C298 C301 1.409 . S
C299 H291 0.930 . S
C299 C300 1.355 . S
C299 C301 1.415 . S
C300 C299 1.355 . S
C300 C302 1.419 . S
C301 C296 1.425 . S
C301 C298 1.409 . S
C301 C299 1.415 . S
C302 H292 0.930 . S
C302 C300 1.419 . S
C302 C303 1.362 . S
C303 H293 0.930 . S
C303 C296 1.409 . S
C303 C302 1.362 . S
H304 C310 0.930 . S
H305 C313 0.930 . S
H306 C314 0.930 . S
H307 C315 0.930 . S
H308 C318 0.930 . S
H309 C319 0.930 . S
C310 H304 0.930 . S
C310 C311 1.355 . S
C310 C312 1.415 . S
C311 C310 1.355 . S
C311 C313 1.419 . S
C312 C310 1.415 . S
C312 C317 1.425 . S
C312 C319 1.409 . S
C313 H305 0.930 . S
C313 C311 1.419 . S
C313 C314 1.362 . S
C314 H306 0.930 . S
C314 C313 1.362 . S
C314 C317 1.409 . S
C315 H307 0.930 . S
C315 C316 1.355 . S
C315 C317 1.415 . S
C316 C315 1.355 . S
C316 C318 1.419 . S
C317 C312 1.425 . S
C317 C314 1.409 . S
C317 C315 1.415 . S
C318 H308 0.930 . S
C318 C316 1.419 . S
C318 C319 1.362 . S
C319 H309 0.930 . S
C319 C312 1.409 . S
C319 C318 1.362 . S
H320 C326 0.930 . S
H321 C329 0.930 . S
H322 C330 0.930 . S
H323 C331 0.930 . S
H324 C334 0.930 . S
H325 C335 0.930 . S
C326 H320 0.930 . S
C326 C327 1.355 . S
C326 C328 1.415 . S
C327 C326 1.355 . S
C327 C329 1.419 . S
C328 C326 1.415 . S
C328 C333 1.425 . S
C328 C335 1.409 . S
C329 H321 0.930 . S
C329 C327 1.419 . S
C329 C330 1.362 . S
C330 H322 0.930 . S
C330 C329 1.362 . S
C330 C333 1.409 . S
C331 H323 0.930 . S
C331 C332 1.355 . S
C331 C333 1.415 . S
C332 C331 1.355 . S
C332 C334 1.419 . S
C333 C328 1.425 . S
C333 C330 1.409 . S
C333 C331 1.415 . S
C334 H324 0.930 . S
C334 C332 1.419 . S
C334 C335 1.362 . S
C335 H325 0.930 . S
C335 C328 1.409 . S
C335 C334 1.362 . S
H336 C342 0.930 . S
H337 C345 0.930 . S
H338 C346 0.930 . S
H339 C347 0.930 . S
H340 C350 0.930 . S
H341 C351 0.930 . S
C342 H336 0.930 . S
C342 C343 1.355 . S
C342 C344 1.415 . S
C343 C342 1.355 . S
C343 C345 1.419 . S
C344 C342 1.415 . S
C344 C349 1.425 . S
C344 C351 1.409 . S
C345 H337 0.930 . S
C345 C343 1.419 . S
C345 C346 1.362 . S
C346 H338 0.930 . S
C346 C345 1.362 . S
C346 C349 1.409 . S
C347 H339 0.930 . S
C347 C348 1.355 . S
C347 C349 1.415 . S
C348 C347 1.355 . S
C348 C350 1.419 . S
C349 C344 1.425 . S
C349 C346 1.409 . S
C349 C347 1.415 . S
C350 H340 0.930 . S
C350 C348 1.419 . S
C350 C351 1.362 . S
C351 H341 0.930 . S
C351 C344 1.409 . S
C351 C350 1.362 . S
H352 C358 0.930 . S
H353 C361 0.930 . S
H354 C362 0.930 . S
H355 C363 0.930 . S
H356 C366 0.930 . S
H357 C367 0.930 . S
C358 H352 0.930 . S
C358 C359 1.355 . S
C358 C360 1.415 . S
C359 C358 1.355 . S
C359 C361 1.419 . S
C360 C358 1.415 . S
C360 C365 1.425 . S
C360 C367 1.409 . S
C361 H353 0.930 . S
C361 C359 1.419 . S
C361 C362 1.362 1_565 S
C362 H354 0.930 . S
C362 C361 1.362 1_545 S
C362 C365 1.409 1_545 S
C363 H355 0.930 . S
C363 C364 1.355 1_545 S
C363 C365 1.415 1_545 S
C364 C363 1.355 1_565 S
C364 C366 1.419 . S
C365 C360 1.425 . S
C365 C362 1.409 1_565 S
C365 C363 1.415 1_565 S
C366 H356 0.930 . S
C366 C364 1.419 . S
C366 C367 1.362 . S
C367 H357 0.930 . S
C367 C360 1.409 . S
C367 C366 1.362 . S
H368 C374 0.930 . S
H369 C377 0.930 . S
H370 C378 0.930 1_565 S
H371 C379 0.930 . S
H372 C382 0.930 . S
H373 C383 0.930 . S
C374 H368 0.930 . S
C374 C375 1.355 . S
C374 C376 1.415 . S
C375 C374 1.355 . S
C375 C377 1.419 . S
C376 C374 1.415 . S
C376 C381 1.425 . S
C376 C383 1.409 . S
C377 H369 0.930 . S
C377 C375 1.419 . S
C377 C378 1.362 . S
C378 H370 0.930 1_545 S
C378 C377 1.362 . S
C378 C381 1.409 . S
C379 H371 0.930 . S
C379 C380 1.355 . S
C379 C381 1.415 1_565 S
C380 C379 1.355 . S
C380 C382 1.419 1_565 S
C381 C376 1.425 . S
C381 C378 1.409 . S
C381 C379 1.415 1_545 S
C382 H372 0.930 . S
C382 C380 1.419 1_545 S
C382 C383 1.362 . S
C383 H373 0.930 . S
C383 C376 1.409 . S
C383 C382 1.362 . S
H384 C390 0.930 . S
H385 C393 0.930 . S
H386 C394 0.930 . S
H387 C395 0.930 . S
H388 C398 0.930 . S
H389 C399 0.930 . S
C390 H384 0.930 . S
C390 C391 1.355 . S
C390 C392 1.415 . S
C391 C390 1.355 . S
C391 C393 1.419 . S
C392 C390 1.415 . S
C392 C397 1.425 . S
C392 C399 1.409 . S
C393 H385 0.930 . S
C393 C391 1.419 . S
C393 C394 1.362 . S
C394 H386 0.930 . S
C394 C393 1.362 . S
C394 C397 1.409 . S
C395 H387 0.930 . S
C395 C396 1.355 . S
C395 C397 1.415 . S
C396 C395 1.355 . S
C396 C398 1.419 . S
C397 C392 1.425 . S
C397 C394 1.409 . S
C397 C395 1.415 . S
C398 H388 0.930 . S
C398 C396 1.419 . S
C398 C399 1.362 . S
C399 H389 0.930 . S
C399 C392 1.409 . S
C399 C398 1.362 . S
H400 C406 0.930 . S
H401 C409 0.930 . S
H402 C410 0.930 . S
H403 C411 0.930 . S
H404 C414 0.930 . S
H405 C415 0.930 . S
C406 H400 0.930 . S
C406 C407 1.355 . S
C406 C408 1.415 . S
C407 C406 1.355 . S
C407 C409 1.419 . S
C408 C406 1.415 . S
C408 C413 1.425 . S
C408 C415 1.409 . S
C409 H401 0.930 . S
C409 C407 1.419 . S
C409 C410 1.362 . S
C410 H402 0.930 . S
C410 C409 1.362 . S
C410 C413 1.409 . S
C411 H403 0.930 . S
C411 C412 1.355 . S
C411 C413 1.415 . S
C412 C411 1.355 . S
C412 C414 1.419 . S
C413 C408 1.425 . S
C413 C410 1.409 . S
C413 C411 1.415 . S
C414 H404 0.930 . S
C414 C412 1.419 . S
C414 C415 1.362 . S
C415 H405 0.930 . S
C415 C408 1.409 . S
C415 C414 1.362 . S
H416 C422 0.930 . S
H417 C425 0.930 . S
H418 C426 0.930 . S
H419 C427 0.930 . S
H420 C430 0.930 . S
H421 C431 0.930 . S
C422 H416 0.930 . S
C422 C423 1.355 . S
C422 C424 1.415 . S
C423 C422 1.355 . S
C423 C425 1.419 . S
C424 C422 1.415 . S
C424 C429 1.425 . S
C424 C431 1.409 . S
C425 H417 0.930 . S
C425 C423 1.419 . S
C425 C426 1.362 . S
C426 H418 0.930 . S
C426 C425 1.362 . S
C426 C429 1.409 . S
C427 H419 0.930 . S
C427 C428 1.355 . S
C427 C429 1.415 . S
C428 C427 1.355 . S
C428 C430 1.419 . S
C429 C424 1.425 . S
C429 C426 1.409 . S
C429 C427 1.415 . S
C430 H420 0.930 . S
C430 C428 1.419 . S
C430 C431 1.362 . S
C431 H421 0.930 . S
C431 C424 1.409 . S
C431 C430 1.362 . S
H432 C438 0.930 . S
H433 C441 0.930 . S
H434 C442 0.930 . S
H435 C443 0.930 . S
H436 C446 0.930 . S
H437 C447 0.930 . S
C438 H432 0.930 . S
C438 C439 1.355 . S
C438 C440 1.415 . S
C439 C438 1.355 . S
C439 C441 1.419 . S
C440 C438 1.415 . S
C440 C445 1.425 . S
C440 C447 1.409 . S
C441 H433 0.930 . S
C441 C439 1.419 . S
C441 C442 1.362 . S
C442 H434 0.930 . S
C442 C441 1.362 . S
C442 C445 1.409 . S
C443 H435 0.930 . S
C443 C444 1.355 . S
C443 C445 1.415 . S
C444 C443 1.355 . S
C444 C446 1.419 . S
C445 C440 1.425 . S
C445 C442 1.409 . S
C445 C443 1.415 . S
C446 H436 0.930 . S
C446 C444 1.419 . S
C446 C447 1.362 . S
C447 H437 0.930 . S
C447 C440 1.409 . S
C447 C446 1.362 . S
H448 C454 0.930 . S
H449 C457 0.930 . S
H450 C458 0.930 . S
H451 C459 0.930 . S
H452 C462 0.930 . S
H453 C463 0.930 . S
C454 H448 0.930 . S
C454 C455 1.355 . S
C454 C456 1.415 . S
C455 C454 1.355 . S
C455 C457 1.419 . S
C456 C454 1.415 . S
C456 C461 1.425 . S
C456 C463 1.409 . S
C457 H449 0.930 . S
C457 C455 1.419 . S
C457 C458 1.362 . S
C458 H450 0.930 . S
C458 C457 1.362 . S
C458 C461 1.409 . S
C459 H451 0.930 . S
C459 C460 1.355 . S
C459 C461 1.415 . S
C460 C459 1.355 . S
C460 C462 1.419 . S
C461 C456 1.425 . S
C461 C458 1.409 . S
C461 C459 1.415 . S
C462 H452 0.930 . S
C462 C460 1.419 . S
C462 C463 1.362 . S
C463 H453 0.930 . S
C463 C456 1.409 . S
C463 C462 1.362 . S
H464 C470 0.930 . S
H465 C473 0.930 . S
H466 C474 0.930 . S
H467 C475 0.930 . S
H468 C478 0.930 . S
H469 C479 0.930 . S
C470 H464 0.930 . S
C470 C471 1.355 . S
C470 C472 1.415 . S
C471 C470 1.355 . S
C471 C473 1.419 . S
C472 C470 1.415 . S
C472 C477 1.425 . S
C472 C479 1.409 . S
C473 H465 0.930 . S
C473 C471 1.419 . S
C473 C474 1.362 . S
C474 H466 0.930 . S
C474 C473 1.362 . S
C474 C477 1.409 . S
C475 H467 0.930 . S
C475 C476 1.355 . S
C475 C477 1.415 . S
C476 C475 1.355 . S
C476 C478 1.419 . S
C477 C472 1.425 . S
C477 C474 1.409 . S
C477 C475 1.415 . S
C478 H468 0.930 . S
C478 C476 1.419 . S
C478 C479 1.362 . S
C479 H469 0.930 . S
C479 C472 1.409 . S
C479 C478 1.362 . S
H480 C486 0.930 . S
H481 C489 0.930 1_545 S
H482 C490 0.930 . S
H483 C491 0.930 . S
H484 C494 0.930 . S
H485 C495 0.930 . S
C486 H480 0.930 . S
C486 C487 1.353 1_565 S
C486 C488 1.415 . S
C487 C486 1.353 1_545 S
C487 C489 1.418 1_545 S
C488 C486 1.415 . S
C488 C493 1.425 . S
C488 C495 1.409 . S
C489 H481 0.930 1_565 S
C489 C487 1.418 1_565 S
C489 C490 1.362 . S
C490 H482 0.930 . S
C490 C489 1.362 . S
C490 C493 1.409 . S
C491 H483 0.930 . S
C491 C492 1.355 . S
C491 C493 1.415 . S
C492 C491 1.355 . S
C492 C494 1.419 . S
C493 C488 1.425 . S
C493 C490 1.409 . S
C493 C491 1.415 . S
C494 H484 0.930 . S
C494 C492 1.419 . S
C494 C495 1.362 . S
C495 H485 0.930 . S
C495 C488 1.409 . S
C495 C494 1.362 . S
H496 C502 0.930 . S
H497 C505 0.930 . S
H498 C506 0.930 . S
H499 C507 0.930 . S
H500 C510 0.930 . S
H501 C511 0.930 . S
C502 H496 0.930 . S
C502 C503 1.355 1_545 S
C502 C504 1.415 . S
C503 C502 1.355 1_565 S
C503 C505 1.419 . S
C504 C502 1.415 . S
C504 C509 1.425 . S
C504 C511 1.409 . S
C505 H497 0.930 . S
C505 C503 1.419 . S
C505 C506 1.362 . S
C506 H498 0.930 . S
C506 C505 1.362 . S
C506 C509 1.409 1_565 S
C507 H499 0.930 . S
C507 C508 1.355 . S
C507 C509 1.415 . S
C508 C507 1.355 . S
C508 C510 1.419 . S
C509 C504 1.425 . S
C509 C506 1.409 1_545 S
C509 C507 1.415 . S
C510 H500 0.930 . S
C510 C508 1.419 . S
C510 C511 1.362 . S
C511 H501 0.930 . S
C511 C504 1.409 . S
C511 C510 1.362 . S
H512 C518 0.930 . S
H513 C521 0.930 . S
H514 C522 0.930 . S
H515 C523 0.930 . S
H516 C526 0.930 . S
H517 C527 0.930 . S
C518 H512 0.930 . S
C518 C519 1.355 1_655 S
C518 C520 1.415 . S
C519 C518 1.355 1_455 S
C519 C521 1.419 1_554 S
C520 C518 1.415 . S
C520 C525 1.425 1_654 S
C520 C527 1.409 . S
C521 H513 0.930 . S
C521 C519 1.419 1_556 S
C521 C522 1.362 . S
C522 H514 0.930 . S
C522 C521 1.362 . S
C522 C525 1.409 . S
C523 H515 0.930 . S
C523 C524 1.356 . S
C523 C525 1.415 . S
C524 C523 1.356 . S
C524 C526 1.417 1_456 S
C525 C520 1.425 1_456 S
C525 C522 1.409 . S
C525 C523 1.415 . S
C526 H516 0.930 . S
C526 C524 1.417 1_654 S
C526 C527 1.362 . S
C527 H517 0.930 . S
C527 C520 1.409 . S
C527 C526 1.362 . S
H528 C534 0.930 . S
H529 C537 0.930 . S
H530 C538 0.930 . S
H531 C539 0.930 . S
H532 C542 0.930 . S
H533 C543 0.930 . S
C534 H528 0.930 . S
C534 C535 1.355 . S
C534 C536 1.415 . S
C535 C534 1.355 . S
C535 C537 1.419 . S
C536 C534 1.415 . S
C536 C541 1.425 . S
C536 C543 1.409 . S
C537 H529 0.930 . S
C537 C535 1.419 . S
C537 C538 1.362 . S
C538 H530 0.930 . S
C538 C537 1.362 . S
C538 C541 1.409 . S
C539 H531 0.930 . S
C539 C540 1.355 . S
C539 C541 1.415 . S
C540 C539 1.355 . S
C540 C542 1.419 . S
C541 C536 1.425 . S
C541 C538 1.409 . S
C541 C539 1.415 . S
C542 H532 0.930 . S
C542 C540 1.419 . S
C542 C543 1.362 . S
C543 H533 0.930 . S
C543 C536 1.409 . S
C543 C542 1.362 . S
H544 C550 0.930 . S
H545 C553 0.930 . S
H546 C554 0.930 . S
H547 C555 0.930 . S
H548 C558 0.930 . S
H549 C559 0.930 . S
C550 H544 0.930 . S
C550 C551 1.355 . S
C550 C552 1.415 . S
C551 C550 1.355 . S
C551 C553 1.419 . S
C552 C550 1.415 . S
C552 C557 1.425 . S
C552 C559 1.409 . S
C553 H545 0.930 . S
C553 C551 1.419 . S
C553 C554 1.362 . S
C554 H546 0.930 . S
C554 C553 1.362 . S
C554 C557 1.409 . S
C555 H547 0.930 . S
C555 C556 1.355 . S
C555 C557 1.415 . S
C556 C555 1.355 . S
C556 C558 1.419 . S
C557 C552 1.425 . S
C557 C554 1.409 . S
C557 C555 1.415 . S
C558 H548 0.930 . S
C558 C556 1.419 . S
C558 C559 1.362 . S
C559 H549 0.930 . S
C559 C552 1.409 . S
C559 C558 1.362 . S
H560 C566 0.930 . S
H561 C569 0.930 . S
H562 C570 0.930 1_545 S
H563 C571 0.930 . S
H564 C574 0.930 . S
H565 C575 0.930 1_565 S
C566 H560 0.930 . S
C566 C567 1.355 1_655 S
C566 C568 1.415 . S
C567 C566 1.355 1_455 S
C567 C569 1.419 . S
C568 C566 1.415 . S
C568 C573 1.425 1_665 S
C568 C575 1.409 1_565 S
C569 H561 0.930 . S
C569 C567 1.419 . S
C569 C570 1.362 . S
C570 H562 0.930 1_565 S
C570 C569 1.362 . S
C570 C573 1.409 1_565 S
C571 H563 0.930 . S
C571 C572 1.355 1_455 S
C571 C573 1.415 . S
C572 C571 1.355 1_655 S
C572 C574 1.419 . S
C573 C568 1.425 1_445 S
C573 C570 1.409 1_545 S
C573 C571 1.415 . S
C574 H564 0.930 . S
C574 C572 1.419 . S
C574 C575 1.362 . S
C575 H565 0.930 1_545 S
C575 C568 1.409 1_545 S
C575 C574 1.362 . S
H576 C582 0.930 . S
H577 C585 0.930 . S
H578 C586 0.930 . S
H579 C587 0.930 . S
H580 C590 0.930 . S
H581 C591 0.930 . S
C582 H576 0.930 . S
C582 C583 1.355 . S
C582 C584 1.415 . S
C583 C582 1.355 . S
C583 C585 1.419 . S
C584 C582 1.415 . S
C584 C589 1.425 . S
C584 C591 1.409 . S
C585 H577 0.930 . S
C585 C583 1.419 . S
C585 C586 1.362 . S
C586 H578 0.930 . S
C586 C585 1.362 . S
C586 C589 1.409 . S
C587 H579 0.930 . S
C587 C588 1.355 . S
C587 C589 1.415 . S
C588 C587 1.355 . S
C588 C590 1.419 . S
C589 C584 1.425 . S
C589 C586 1.409 . S
C589 C587 1.415 . S
C590 H580 0.930 . S
C590 C588 1.419 . S
C590 C591 1.362 . S
C591 H581 0.930 . S
C591 C584 1.409 . S
C591 C590 1.362 . S
H592 C598 0.930 . S
H593 C601 0.930 . S
H594 C602 0.930 . S
H595 C603 0.930 . S
H596 C606 0.930 . S
H597 C607 0.930 . S
C598 H592 0.930 . S
C598 C599 1.355 . S
C598 C600 1.415 . S
C599 C598 1.355 . S
C599 C601 1.419 . S
C600 C598 1.415 . S
C600 C605 1.425 . S
C600 C607 1.409 . S
C601 H593 0.930 . S
C601 C599 1.419 . S
C601 C602 1.362 . S
C602 H594 0.930 . S
C602 C601 1.362 . S
C602 C605 1.409 . S
C603 H595 0.930 . S
C603 C604 1.355 . S
C603 C605 1.415 . S
C604 C603 1.355 . S
C604 C606 1.419 . S
C605 C600 1.425 . S
C605 C602 1.409 . S
C605 C603 1.415 . S
C606 H596 0.930 . S
C606 C604 1.419 . S
C606 C607 1.362 . S
C607 H597 0.930 . S
C607 C600 1.409 . S
C607 C606 1.362 . S
H608 C614 0.930 . S
H609 C617 0.930 . S
H610 C618 0.930 . S
H611 C619 0.930 . S
H612 C622 0.930 . S
H613 C623 0.930 . S
C614 H608 0.930 . S
C614 C615 1.355 . S
C614 C616 1.415 . S
C615 C614 1.355 . S
C615 C617 1.419 . S
C616 C614 1.415 . S
C616 C621 1.425 . S
C616 C623 1.409 . S
C617 H609 0.930 . S
C617 C615 1.419 . S
C617 C618 1.362 . S
C618 H610 0.930 . S
C618 C617 1.362 . S
C618 C621 1.409 . S
C619 H611 0.930 . S
C619 C620 1.355 . S
C619 C621 1.415 . S
C620 C619 1.355 . S
C620 C622 1.419 . S
C621 C616 1.425 . S
C621 C618 1.409 . S
C621 C619 1.415 . S
C622 H612 0.930 . S
C622 C620 1.419 . S
C622 C623 1.362 . S
C623 H613 0.930 . S
C623 C616 1.409 . S
C623 C622 1.362 . S
H624 C630 0.930 . S
H625 C633 0.930 . S
H626 C634 0.930 . S
H627 C635 0.930 . S
H628 C638 0.930 . S
H629 C639 0.930 . S
C630 H624 0.930 . S
C630 C631 1.355 . S
C630 C632 1.415 . S
C631 C630 1.355 . S
C631 C633 1.419 1_556 S
C632 C630 1.415 . S
C632 C637 1.425 1_566 S
C632 C639 1.409 1_565 S
C633 H625 0.930 . S
C633 C631 1.419 1_554 S
C633 C634 1.362 . S
C634 H626 0.930 . S
C634 C633 1.362 . S
C634 C637 1.409 1_565 S
C635 H627 0.930 . S
C635 C636 1.355 . S
C635 C637 1.415 . S
C636 C635 1.355 . S
C636 C638 1.419 1_554 S
C637 C632 1.425 1_544 S
C637 C634 1.409 1_545 S
C637 C635 1.415 . S
C638 H628 0.930 . S
C638 C636 1.419 1_556 S
C638 C639 1.362 . S
C639 H629 0.930 . S
C639 C632 1.409 1_545 S
C639 C638 1.362 . S
H640 C646 0.930 . S
H641 C649 0.930 . S
H642 C650 0.930 . S
H643 C651 0.930 . S
H644 C654 0.930 . S
H645 C655 0.930 . S
C646 H640 0.930 . S
C646 C647 1.355 1_554 S
C646 C648 1.415 . S
C647 C646 1.355 1_556 S
C647 C649 1.419 . S
C648 C646 1.415 . S
C648 C653 1.425 1_554 S
C648 C655 1.409 . S
C649 H641 0.930 . S
C649 C647 1.419 . S
C649 C650 1.362 . S
C650 H642 0.930 . S
C650 C649 1.362 . S
C650 C653 1.409 . S
C651 H643 0.930 . S
C651 C652 1.355 1_556 S
C651 C653 1.415 . S
C652 C651 1.355 1_554 S
C652 C654 1.419 . S
C653 C648 1.425 1_556 S
C653 C650 1.409 . S
C653 C651 1.415 . S
C654 H644 0.930 . S
C654 C652 1.419 . S
C654 C655 1.362 . S
C655 H645 0.930 . S
C655 C648 1.409 . S
C655 C654 1.362 . S
H656 C662 0.934 1_554 S
H657 C665 0.930 . S
H658 C666 0.930 . S
H659 C667 0.930 . S
H660 C670 0.930 . S
H661 C671 0.930 . S
C662 H656 0.934 1_556 S
C662 C663 1.357 . S
C662 C664 1.413 1_556 S
C663 C662 1.357 . S
C663 C665 1.419 . S
C664 C662 1.413 1_554 S
C664 C669 1.425 1_554 S
C664 C671 1.409 . S
C665 H657 0.930 . S
C665 C663 1.419 . S
C665 C666 1.362 . S
C666 H658 0.930 . S
C666 C665 1.362 . S
C666 C669 1.413 . S
C667 H659 0.930 . S
C667 C668 1.355 . S
C667 C669 1.412 1_554 S
C668 C667 1.355 . S
C668 C670 1.419 . S
C669 C664 1.425 1_556 S
C669 C666 1.413 . S
C669 C667 1.412 1_556 S
C670 H660 0.930 . S
C670 C668 1.419 . S
C670 C671 1.362 . S
C671 H661 0.930 . S
C671 C664 1.409 . S
C671 C670 1.362 . S
H672 C678 0.930 . S
H673 C681 0.930 . S
H674 C682 0.930 . S
H675 C683 0.930 . S
H676 C686 0.930 . S
H677 C687 0.930 . S
C678 H672 0.930 . S
C678 C679 1.355 . S
C678 C680 1.415 . S
C679 C678 1.355 . S
C679 C681 1.419 . S
C680 C678 1.415 . S
C680 C685 1.425 1_455 S
C680 C687 1.409 . S
C681 H673 0.930 . S
C681 C679 1.419 . S
C681 C682 1.362 1_455 S
C682 H674 0.930 . S
C682 C681 1.362 1_655 S
C682 C685 1.409 . S
C683 H675 0.930 . S
C683 C684 1.355 . S
C683 C685 1.415 . S
C684 C683 1.355 . S
C684 C686 1.419 . S
C685 C680 1.425 1_655 S
C685 C682 1.409 . S
C685 C683 1.415 . S
C686 H676 0.930 . S
C686 C684 1.419 . S
C686 C687 1.362 1_655 S
C687 H677 0.930 . S
C687 C680 1.409 . S
C687 C686 1.362 1_455 S
H688 C694 0.930 . S
H689 C697 0.930 . S
H690 C698 0.930 . S
H691 C699 0.930 . S
H692 C702 0.930 . S
H693 C703 0.930 . S
C694 H688 0.930 . S
C694 C695 1.355 . S
C694 C696 1.415 . S
C695 C694 1.355 . S
C695 C697 1.419 . S
C696 C694 1.415 . S
C696 C701 1.425 . S
C696 C703 1.409 . S
C697 H689 0.930 . S
C697 C695 1.419 . S
C697 C698 1.362 . S
C698 H690 0.930 . S
C698 C697 1.362 . S
C698 C701 1.409 . S
C699 H691 0.930 . S
C699 C700 1.355 . S
C699 C701 1.415 . S
C700 C699 1.355 . S
C700 C702 1.419 . S
C701 C696 1.425 . S
C701 C698 1.409 . S
C701 C699 1.415 . S
C702 H692 0.930 . S
C702 C700 1.419 . S
C702 C703 1.362 . S
C703 H693 0.930 . S
C703 C696 1.409 . S
C703 C702 1.362 . S
H704 C710 0.930 . S
H705 C713 0.930 . S
H706 C714 0.930 . S
H707 C715 0.930 . S
H708 C718 0.930 . S
H709 C719 0.930 . S
C710 H704 0.930 . S
C710 C711 1.355 . S
C710 C712 1.415 . S
C711 C710 1.355 . S
C711 C713 1.419 . S
C712 C710 1.415 . S
C712 C717 1.425 . S
C712 C719 1.409 . S
C713 H705 0.930 . S
C713 C711 1.419 . S
C713 C714 1.362 . S
C714 H706 0.930 . S
C714 C713 1.362 . S
C714 C717 1.409 . S
C715 H707 0.930 . S
C715 C716 1.355 . S
C715 C717 1.415 . S
C716 C715 1.355 . S
C716 C718 1.419 . S
C717 C712 1.425 . S
C717 C714 1.409 . S
C717 C715 1.415 . S
C718 H708 0.930 . S
C718 C716 1.419 . S
C718 C719 1.362 . S
C719 H709 0.930 . S
C719 C712 1.409 . S
C719 C718 1.362 . S
H720 C726 0.930 . S
H721 C729 0.930 . S
H722 C730 0.930 1_455 S
H723 C731 0.930 . S
H724 C734 0.930 . S
H725 C735 0.930 1_655 S
C726 H720 0.930 . S
C726 C727 1.355 . S
C726 C728 1.415 1_545 S
C727 C726 1.355 . S
C727 C729 1.419 . S
C728 C726 1.415 1_565 S
C728 C733 1.425 1_665 S
C728 C735 1.409 1_655 S
C729 H721 0.930 . S
C729 C727 1.419 . S
C729 C730 1.362 . S
C730 H722 0.930 1_655 S
C730 C729 1.362 . S
C730 C733 1.409 1_655 S
C731 H723 0.930 . S
C731 C732 1.355 . S
C731 C733 1.415 1_565 S
C732 C731 1.355 . S
C732 C734 1.419 . S
C733 C728 1.425 1_445 S
C733 C730 1.409 1_455 S
C733 C731 1.415 1_545 S
C734 H724 0.930 . S
C734 C732 1.419 . S
C734 C735 1.362 . S
C735 H725 0.930 1_455 S
C735 C728 1.409 1_455 S
C735 C734 1.362 . S
H736 C742 0.930 . S
H737 C745 0.930 . S
H738 C746 0.930 . S
H739 C747 0.930 . S
H740 C750 0.930 . S
H741 C751 0.930 . S
C742 H736 0.930 . S
C742 C743 1.355 . S
C742 C744 1.415 . S
C743 C742 1.355 . S
C743 C745 1.419 . S
C744 C742 1.415 . S
C744 C749 1.425 . S
C744 C751 1.409 . S
C745 H737 0.930 . S
C745 C743 1.419 . S
C745 C746 1.362 . S
C746 H738 0.930 . S
C746 C745 1.362 . S
C746 C749 1.409 . S
C747 H739 0.930 . S
C747 C748 1.355 . S
C747 C749 1.415 . S
C748 C747 1.355 . S
C748 C750 1.419 . S
C749 C744 1.425 . S
C749 C746 1.409 . S
C749 C747 1.415 . S
C750 H740 0.930 . S
C750 C748 1.419 . S
C750 C751 1.362 . S
C751 H741 0.930 . S
C751 C744 1.409 . S
C751 C750 1.362 . S
H752 C758 0.930 . S
H753 C761 0.930 . S
H754 C762 0.930 . S
H755 C763 0.930 . S
H756 C766 0.930 . S
H757 C767 0.930 . S
C758 H752 0.930 . S
C758 C759 1.355 1_545 S
C758 C760 1.415 . S
C759 C758 1.355 1_565 S
C759 C761 1.419 . S
C760 C758 1.415 . S
C760 C765 1.425 1_545 S
C760 C767 1.409 . S
C761 H753 0.930 . S
C761 C759 1.419 . S
C761 C762 1.362 . S
C762 H754 0.930 . S
C762 C761 1.362 . S
C762 C765 1.409 . S
C763 H755 0.930 . S
C763 C764 1.355 1_565 S
C763 C765 1.415 . S
C764 C763 1.355 1_545 S
C764 C766 1.419 . S
C765 C760 1.425 1_565 S
C765 C762 1.409 . S
C765 C763 1.415 . S
C766 H756 0.930 . S
C766 C764 1.419 . S
C766 C767 1.362 . S
C767 H757 0.930 . S
C767 C760 1.409 . S
C767 C766 1.362 . S
C263 C18 2.118 . S
C268 C53 2.078 . S
C279 C21 1.851 . S
C284 C82 1.818 . S
C295 C113 2.056 . S
C300 C54 2.100 . S
C311 C81 1.849 . S
C316 C118 1.801 . S
C327 C114 2.128 . S
C332 C149 2.104 . S
C343 C178 1.798 . S
C348 C117 1.847 . S
C359 C150 2.078 . S
C364 C17 2.046 1_565 S
C375 C177 1.838 . S
C380 C22 1.794 . S
C391 C181 2.097 . S
C396 C210 2.115 . S
C407 C213 1.852 . S
C412 C146 1.819 . S
C423 C241 2.072 . S
C428 C182 2.114 . S
C439 C246 1.824 . S
C444 C145 1.860 . S
C455 C242 2.100 . S
C460 C85 2.082 . S
C471 C50 1.802 . S
C476 C245 1.842 . S
C487 C209 2.086 . S
C492 C86 2.123 . S
C503 C214 1.800 . S
C508 C49 1.849 . S
C519 C19 1.010 1_454 S
C524 C23 1.009 1_556 S
C535 C51 1.036 . S
C540 C55 1.036 1_565 S
C551 C83 1.060 1_545 S
C556 C87 1.060 . S
C567 C119 1.065 . S
C572 C115 1.065 . S
C583 C147 0.995 1_545 S
C588 C151 0.995 . S
C599 C179 1.054 . S
C604 C183 1.054 1_565 S
C615 C211 1.065 . S
C620 C215 1.065 . S
C631 C247 1.013 1_556 S
C636 C243 1.013 1_554 S
C647 C240 1.397 . S
C652 C20 1.397 . S
C663 C16 1.398 . S
C668 C244 1.398 . S
C679 C48 1.398 . S
C684 C84 1.398 . S
C695 C208 1.389 . S
C700 C116 1.389 . S
C711 C112 1.399 . S
C716 C212 1.398 . S
C727 C180 1.396 . S
C732 C144 1.396 . S
C743 C176 1.395 . S
C748 C148 1.395 . S
C759 C80 1.398 . S
C764 C52 1.398 . S
