# Generated by pormake.
# Topology yfc, (5)-cn, num edge types: 1
# Building blocks:
#     Node 0, Type 0, BuildingBlock: XOMCOT_clean_sbu_1, # of connection points: 5
#     Node 1, Type 0, BuildingBlock: XOMCOT_clean_sbu_1, # of connection points: 5
#     Node 2, Type 0, BuildingBlock: XOMCOT_clean_sbu_1, # of connection points: 5
#     Node 3, Type 0, BuildingBlock: XOMCOT_clean_sbu_1, # of connection points: 5
#     Node 4, Type 0, BuildingBlock: XOMCOT_clean_sbu_1, # of connection points: 5
#     Node 5, Type 0, BuildingBlock: XOMCOT_clean_sbu_1, # of connection points: 5
#     Node 6, Type 0, BuildingBlock: XOMCOT_clean_sbu_1, # of connection points: 5
#     Node 7, Type 0, BuildingBlock: XOMCOT_clean_sbu_1, # of connection points: 5
#     Node 8, Type 0, BuildingBlock: XOMCOT_clean_sbu_1, # of connection points: 5
#     Node 9, Type 0, BuildingBlock: XOMCOT_clean_sbu_1, # of connection points: 5
#     Node 10, Type 0, BuildingBlock: XOMCOT_clean_sbu_1, # of connection points: 5
#     Node 11, Type 0, BuildingBlock: XOMCOT_clean_sbu_1, # of connection points: 5
#     Node 12, Type 0, BuildingBlock: XOMCOT_clean_sbu_1, # of connection points: 5
#     Node 13, Type 0, BuildingBlock: XOMCOT_clean_sbu_1, # of connection points: 5
#     Node 14, Type 0, BuildingBlock: XOMCOT_clean_sbu_1, # of connection points: 5
#     Node 15, Type 0, BuildingBlock: XOMCOT_clean_sbu_1, # of connection points: 5
#     Edge 16, Type (0, 0), BuildingBlock: UVAHIK_clean_linker_0, # of connection points: 2
#     Edge 17, Type (0, 0), BuildingBlock: UVAHIK_clean_linker_0, # of connection points: 2
#     Edge 18, Type (0, 0), BuildingBlock: UVAHIK_clean_linker_0, # of connection points: 2
#     Edge 19, Type (0, 0), BuildingBlock: UVAHIK_clean_linker_0, # of connection points: 2
#     Edge 20, Type (0, 0), BuildingBlock: UVAHIK_clean_linker_0, # of connection points: 2
#     Edge 21, Type (0, 0), BuildingBlock: UVAHIK_clean_linker_0, # of connection points: 2
#     Edge 22, Type (0, 0), BuildingBlock: UVAHIK_clean_linker_0, # of connection points: 2
#     Edge 23, Type (0, 0), BuildingBlock: UVAHIK_clean_linker_0, # of connection points: 2
#     Edge 24, Type (0, 0), BuildingBlock: UVAHIK_clean_linker_0, # of connection points: 2
#     Edge 25, Type (0, 0), BuildingBlock: UVAHIK_clean_linker_0, # of connection points: 2
#     Edge 26, Type (0, 0), BuildingBlock: UVAHIK_clean_linker_0, # of connection points: 2
#     Edge 27, Type (0, 0), BuildingBlock: UVAHIK_clean_linker_0, # of connection points: 2
#     Edge 28, Type (0, 0), BuildingBlock: UVAHIK_clean_linker_0, # of connection points: 2
#     Edge 29, Type (0, 0), BuildingBlock: UVAHIK_clean_linker_0, # of connection points: 2
#     Edge 30, Type (0, 0), BuildingBlock: UVAHIK_clean_linker_0, # of connection points: 2
#     Edge 31, Type (0, 0), BuildingBlock: UVAHIK_clean_linker_0, # of connection points: 2
#     Edge 32, Type (0, 0), BuildingBlock: UVAHIK_clean_linker_0, # of connection points: 2
#     Edge 33, Type (0, 0), BuildingBlock: UVAHIK_clean_linker_0, # of connection points: 2
#     Edge 34, Type (0, 0), BuildingBlock: UVAHIK_clean_linker_0, # of connection points: 2
#     Edge 35, Type (0, 0), BuildingBlock: UVAHIK_clean_linker_0, # of connection points: 2
#     Edge 36, Type (0, 0), BuildingBlock: UVAHIK_clean_linker_0, # of connection points: 2
#     Edge 37, Type (0, 0), BuildingBlock: UVAHIK_clean_linker_0, # of connection points: 2
#     Edge 38, Type (0, 0), BuildingBlock: UVAHIK_clean_linker_0, # of connection points: 2
#     Edge 39, Type (0, 0), BuildingBlock: UVAHIK_clean_linker_0, # of connection points: 2
#     Edge 40, Type (0, 0), BuildingBlock: UVAHIK_clean_linker_0, # of connection points: 2
#     Edge 41, Type (0, 0), BuildingBlock: UVAHIK_clean_linker_0, # of connection points: 2
#     Edge 42, Type (0, 0), BuildingBlock: UVAHIK_clean_linker_0, # of connection points: 2
#     Edge 43, Type (0, 0), BuildingBlock: UVAHIK_clean_linker_0, # of connection points: 2
#     Edge 44, Type (0, 0), BuildingBlock: UVAHIK_clean_linker_0, # of connection points: 2
#     Edge 45, Type (0, 0), BuildingBlock: UVAHIK_clean_linker_0, # of connection points: 2
#     Edge 46, Type (0, 0), BuildingBlock: UVAHIK_clean_linker_0, # of connection points: 2
#     Edge 47, Type (0, 0), BuildingBlock: UVAHIK_clean_linker_0, # of connection points: 2
#     Edge 48, Type (0, 0), BuildingBlock: UVAHIK_clean_linker_0, # of connection points: 2
#     Edge 49, Type (0, 0), BuildingBlock: UVAHIK_clean_linker_0, # of connection points: 2
#     Edge 50, Type (0, 0), BuildingBlock: UVAHIK_clean_linker_0, # of connection points: 2
#     Edge 51, Type (0, 0), BuildingBlock: UVAHIK_clean_linker_0, # of connection points: 2
#     Edge 52, Type (0, 0), BuildingBlock: UVAHIK_clean_linker_0, # of connection points: 2
#     Edge 53, Type (0, 0), BuildingBlock: UVAHIK_clean_linker_0, # of connection points: 2
#     Edge 54, Type (0, 0), BuildingBlock: UVAHIK_clean_linker_0, # of connection points: 2
#     Edge 55, Type (0, 0), BuildingBlock: UVAHIK_clean_linker_0, # of connection points: 2
# Relax obj value: 0.644
# Max RMSD: 0.269
# Mean RMSD: 0.269
data_MOF--net-yfc--node1-XOMCOT_clean_sbu_1--edge1-UVAHIK_clean_linker_0
_symmetry_space_group_name_H-M    P1
_symmetry_Int_Tables_number       1
_symmetry_cell_setting            triclinic
loop_
_symmetry_equiv_pos_as_xyz
'x, y, z'
_cell_length_a     50.622613
_cell_length_b     50.631683
_cell_length_c     59.808767
_cell_angle_alpha  89.979297
_cell_angle_beta   89.968375
_cell_angle_gamma 90.01665
loop_
_atom_site_label
_atom_site_type_symbol
_atom_site_fract_x
_atom_site_fract_y
_atom_site_fract_z
_atom_type_partial_charge
C0 C 0.72887 0.97942 0.15426 0.0
C1 C 0.71298 0.95894 0.16124 0.0
N2 N 0.69388 0.96884 0.17454 0.0
N3 N 0.71991 0.00217 0.1631 0.0
C4 C 0.69834 0.99515 0.1751 0.0
H5 H 0.74668 0.97765 0.14439 0.0
Co6 Co 0.73834 0.034 0.16233 0.0
C7 C 0.70261 0.07327 0.18247 0.0
O8 O 0.72271 0.08293 0.19374 0.0
N9 N 0.75753 0.06641 0.16097 0.0
C10 C 0.78781 0.09819 0.16381 0.0
C11 C 0.78233 0.07202 0.16785 0.0
C12 C 0.74893 0.08941 0.15186 0.0
N13 N 0.76664 0.10927 0.15394 0.0
O14 O 0.73075 0.03762 0.13129 0.0
H15 H 0.7959 0.05831 0.17543 0.0
H16 H 0.72969 0.09164 0.14424 0.0
O17 O 0.70595 0.05333 0.16967 0.0
C18 C 0.75083 0.03179 0.11944 0.0
O19 O 0.77244 0.02392 0.12964 0.0
N20 N 0.74765 0.02856 0.1925 0.0
C21 C 0.76971 0.02113 0.23473 0.0
C22 C 0.74282 0.02734 0.23239 0.0
C23 C 0.73204 0.03059 0.21108 0.0
C24 C 0.77252 0.01863 0.19443 0.0
C25 C 0.78425 0.01546 0.21534 0.0
H26 H 0.71132 0.03511 0.20981 0.0
H27 H 0.78384 0.01444 0.1795 0.0
H28 H 0.68717 0.00875 0.18534 0.0
H29 H 0.71592 0.93823 0.1575 0.0
H30 H 0.80574 0.1084 0.16851 0.0
H31 H 0.73038 0.03048 0.24689 0.0
H32 H 0.80493 0.01011 0.21608 0.0
C33 C 0.51699 0.71027 0.64735 0.0
C34 C 0.53545 0.69272 0.65544 0.0
N35 N 0.52594 0.68196 0.6744 0.0
N36 N 0.49578 0.7104 0.66102 0.0
C37 C 0.50185 0.69285 0.6773 0.0
H38 H 0.51935 0.72272 0.63281 0.0
Co39 Co 0.46602 0.73222 0.65927 0.0
C40 C 0.42098 0.69792 0.67387 0.0
O41 O 0.4083 0.71769 0.68322 0.0
N42 N 0.43603 0.75452 0.6572 0.0
C43 C 0.40684 0.7868 0.66241 0.0
C44 C 0.43209 0.77827 0.66691 0.0
C45 C 0.41323 0.74975 0.64601 0.0
N46 N 0.39478 0.76864 0.64952 0.0
O47 O 0.4629 0.72525 0.62809 0.0
H48 H 0.4462 0.78853 0.67726 0.0
H49 H 0.40978 0.73195 0.63644 0.0
O50 O 0.44383 0.70144 0.66528 0.0
C51 C 0.47226 0.74394 0.61626 0.0
O52 O 0.4834 0.76406 0.62646 0.0
N53 N 0.47069 0.74104 0.68946 0.0
C54 C 0.47779 0.76642 0.73029 0.0
C55 C 0.46255 0.74328 0.72888 0.0
C56 C 0.45955 0.7306 0.70829 0.0
C57 C 0.48803 0.76152 0.69107 0.0
C58 C 0.49186 0.77457 0.71131 0.0
H59 H 0.44792 0.71287 0.70771 0.0
H60 H 0.49762 0.76884 0.67613 0.0
H61 H 0.48902 0.68844 0.69128 0.0
H62 H 0.55486 0.68907 0.64849 0.0
H63 H 0.39765 0.80435 0.66921 0.0
H64 H 0.45169 0.7359 0.74317 0.0
H65 H 0.50451 0.79181 0.71175 0.0
C66 C 0.78498 0.51689 0.1531 0.0
C67 C 0.80179 0.53674 0.1598 0.0
N68 N 0.81776 0.52727 0.176 0.0
N69 N 0.79032 0.49486 0.16485 0.0
C70 C 0.81051 0.5017 0.17848 0.0
H71 H 0.76927 0.51867 0.14095 0.0
Co72 Co 0.77055 0.46383 0.16405 0.0
C73 C 0.80658 0.42141 0.17915 0.0
O74 O 0.7875 0.41066 0.19097 0.0
N75 N 0.74996 0.43236 0.16271 0.0
C76 C 0.71886 0.40172 0.16739 0.0
C77 C 0.72599 0.42741 0.17174 0.0
C78 C 0.75627 0.40955 0.15205 0.0
N79 N 0.7381 0.39031 0.15521 0.0
O80 O 0.77608 0.4613 0.13259 0.0
H81 H 0.71428 0.44122 0.1812 0.0
H82 H 0.77442 0.40689 0.14275 0.0
O83 O 0.80269 0.44315 0.16879 0.0
C84 C 0.75576 0.46691 0.12098 0.0
O85 O 0.73401 0.47401 0.13137 0.0
N86 N 0.76338 0.46801 0.1947 0.0
C87 C 0.74225 0.47421 0.23744 0.0
C88 C 0.76797 0.46436 0.2345 0.0
C89 C 0.77833 0.46166 0.21294 0.0
C90 C 0.74004 0.48091 0.19745 0.0
C91 C 0.7288 0.48371 0.21856 0.0
H92 H 0.79815 0.45426 0.2112 0.0
H93 H 0.7292 0.48747 0.18288 0.0
H94 H 0.81892 0.48845 0.19068 0.0
H95 H 0.80171 0.55674 0.15345 0.0
H96 H 0.70132 0.39194 0.1736 0.0
H97 H 0.77969 0.45798 0.24865 0.0
H98 H 0.709 0.49164 0.21973 0.0
C99 C 0.98318 0.78261 0.65568 0.0
C100 C 0.96237 0.79793 0.66278 0.0
N101 N 0.97194 0.81757 0.67567 0.0
N102 N 0.00586 0.79249 0.66395 0.0
C103 C 0.99842 0.81403 0.6758 0.0
H104 H 0.98167 0.76459 0.64609 0.0
Co105 Co 0.0382 0.77495 0.66257 0.0
C106 C 0.07803 0.81331 0.67784 0.0
O107 O 0.08923 0.79478 0.68997 0.0
N108 N 0.07096 0.75639 0.66053 0.0
C109 C 0.10292 0.72627 0.66311 0.0
C110 C 0.07698 0.7319 0.66793 0.0
C111 C 0.09345 0.76456 0.65023 0.0
N112 N 0.11345 0.74697 0.65215 0.0
O113 O 0.0396 0.78036 0.63109 0.0
H114 H 0.0637 0.71858 0.67633 0.0
H115 H 0.09524 0.78339 0.6418 0.0
O116 O 0.05693 0.80835 0.66691 0.0
C117 C 0.03231 0.76025 0.61992 0.0
O118 O 0.02448 0.7391 0.63082 0.0
N119 N 0.03526 0.76792 0.69341 0.0
C120 C 0.03179 0.74856 0.73713 0.0
C121 C 0.03676 0.7755 0.73301 0.0
C122 C 0.03842 0.78479 0.71103 0.0
C123 C 0.02608 0.74309 0.69713 0.0
C124 C 0.02511 0.73267 0.71866 0.0
H125 H 0.04251 0.80544 0.70844 0.0
H126 H 0.02086 0.73073 0.68305 0.0
H127 H 0.01191 0.82591 0.68552 0.0
H128 H 0.94171 0.79426 0.65936 0.0
H129 H 0.11337 0.70855 0.66801 0.0
H130 H 0.04011 0.78933 0.74648 0.0
H131 H 0.02056 0.71192 0.72029 0.0
C132 C 0.72191 0.52303 0.84604 0.0
C133 C 0.70436 0.54195 0.83868 0.0
N134 N 0.68777 0.53057 0.82394 0.0
N135 N 0.7163 0.49981 0.83611 0.0
C136 C 0.69521 0.505 0.82296 0.0
H137 H 0.73847 0.52628 0.85712 0.0
Co138 Co 0.73675 0.46924 0.83778 0.0
C139 C 0.70254 0.42613 0.8213 0.0
O140 O 0.72246 0.41671 0.80964 0.0
N141 N 0.75785 0.43813 0.84004 0.0
C142 C 0.78862 0.40699 0.83629 0.0
C143 C 0.78216 0.43286 0.83185 0.0
C144 C 0.75073 0.41541 0.85045 0.0
N145 N 0.7686 0.39583 0.84772 0.0
O146 O 0.73031 0.46709 0.86912 0.0
H147 H 0.79451 0.44646 0.82275 0.0
H148 H 0.7321 0.41297 0.85908 0.0
O149 O 0.70529 0.44756 0.83239 0.0
C150 C 0.75023 0.47421 0.88063 0.0
O151 O 0.77141 0.48261 0.87008 0.0
N152 N 0.74481 0.47314 0.8072 0.0
C153 C 0.7659 0.47848 0.76434 0.0
C154 C 0.73961 0.47034 0.76741 0.0
C155 C 0.72936 0.46795 0.789 0.0
C156 C 0.76879 0.48483 0.80436 0.0
C157 C 0.78007 0.48703 0.78318 0.0
H158 H 0.7092 0.46152 0.79078 0.0
H159 H 0.77997 0.49094 0.81887 0.0
H160 H 0.68586 0.49053 0.81232 0.0
H161 H 0.7048 0.56277 0.84279 0.0
H162 H 0.80618 0.39689 0.8305 0.0
H163 H 0.7273 0.46496 0.75333 0.0
H164 H 0.80028 0.49383 0.78191 0.0
C165 C 0.98278 0.7221 0.34297 0.0
C166 C 0.96402 0.70462 0.3353 0.0
N167 N 0.97588 0.68735 0.3214 0.0
N168 N 0.00644 0.71583 0.33411 0.0
C169 C 1.00162 0.69443 0.32119 0.0
H170 H 0.97912 0.73907 0.35348 0.0
Co171 Co 0.03709 0.73611 0.33656 0.0
C172 C 0.0806 0.70153 0.32131 0.0
O173 O 0.09094 0.72127 0.31 0.0
N174 N 0.06815 0.7571 0.33961 0.0
C175 C 0.09929 0.788 0.33658 0.0
C176 C 0.07358 0.78146 0.33161 0.0
C177 C 0.0906 0.75004 0.35047 0.0
N178 N 0.11021 0.768 0.34818 0.0
O179 O 0.03829 0.72956 0.36787 0.0
H180 H 0.0602 0.79379 0.32228 0.0
H181 H 0.09282 0.73139 0.3591 0.0
O182 O 0.0587 0.70455 0.33165 0.0
C183 C 0.02892 0.74846 0.37944 0.0
O184 O 0.01907 0.76905 0.36898 0.0
N185 N 0.03427 0.7442 0.30592 0.0
C186 C 0.03031 0.76519 0.26294 0.0
C187 C 0.03856 0.73898 0.26623 0.0
C188 C 0.04017 0.72874 0.28788 0.0
C189 C 0.02259 0.76811 0.30278 0.0
C190 C 0.02103 0.77933 0.28154 0.0
H191 H 0.04649 0.70858 0.28986 0.0
H192 H 0.0159 0.77928 0.31713 0.0
H193 H 0.01653 0.68464 0.31128 0.0
H194 H 0.94303 0.70555 0.33865 0.0
H195 H 0.10946 0.80561 0.331 0.0
H196 H 0.04455 0.72673 0.25228 0.0
H197 H 0.01412 0.79948 0.28006 0.0
C198 C 0.78149 0.98703 0.84543 0.0
C199 C 0.79743 0.96672 0.83823 0.0
N200 N 0.8151 0.97655 0.82354 0.0
N201 N 0.78903 0.00961 0.83538 0.0
C202 C 0.8098 0.00268 0.82239 0.0
H203 H 0.76454 0.98518 0.85633 0.0
Co204 Co 0.76965 0.04081 0.83611 0.0
C205 C 0.80519 0.08253 0.81936 0.0
O206 O 0.78572 0.09211 0.80728 0.0
N207 N 0.74937 0.07248 0.8374 0.0
C208 C 0.71861 0.10353 0.83315 0.0
C209 C 0.72517 0.07765 0.82895 0.0
C210 C 0.75643 0.09537 0.84758 0.0
N211 N 0.73848 0.11482 0.84464 0.0
O212 O 0.77564 0.0437 0.86746 0.0
H213 H 0.71289 0.06386 0.82 0.0
H214 H 0.77491 0.09793 0.85641 0.0
O215 O 0.8018 0.06137 0.83067 0.0
C216 C 0.75539 0.03796 0.87913 0.0
O217 O 0.7337 0.03058 0.86879 0.0
N218 N 0.76201 0.03613 0.80559 0.0
C219 C 0.74116 0.02843 0.76295 0.0
C220 C 0.76722 0.03737 0.76572 0.0
C221 C 0.77745 0.04075 0.78724 0.0
C222 C 0.73817 0.02409 0.80313 0.0
C223 C 0.72707 0.02059 0.78205 0.0
H224 H 0.79759 0.04731 0.78888 0.0
H225 H 0.727 0.01855 0.81784 0.0
H226 H 0.81968 0.01613 0.81112 0.0
H227 H 0.79542 0.94613 0.84278 0.0
H228 H 0.70101 0.11351 0.82732 0.0
H229 H 0.77936 0.04246 0.75144 0.0
H230 H 0.70699 0.01336 0.781 0.0
C231 C 0.51926 0.78017 0.3423 0.0
C232 C 0.53989 0.79571 0.33517 0.0
N233 N 0.5305 0.81354 0.32044 0.0
N234 N 0.49684 0.78813 0.33224 0.0
C235 C 0.50425 0.80875 0.31923 0.0
H236 H 0.52081 0.76326 0.35324 0.0
Co237 Co 0.46514 0.76937 0.33332 0.0
C238 C 0.42371 0.80612 0.31789 0.0
O239 O 0.41295 0.78707 0.30605 0.0
N240 N 0.43315 0.74965 0.33503 0.0
C241 C 0.40191 0.71892 0.33153 0.0
C242 C 0.42768 0.72542 0.32677 0.0
C243 C 0.41055 0.75678 0.34568 0.0
N244 N 0.39098 0.73881 0.34324 0.0
O245 O 0.46289 0.77504 0.36473 0.0
H246 H 0.44122 0.713 0.31769 0.0
H247 H 0.40832 0.77524 0.3546 0.0
O248 O 0.44524 0.80205 0.32851 0.0
C249 C 0.47015 0.75511 0.37615 0.0
O250 O 0.47872 0.73406 0.36552 0.0
N251 N 0.46893 0.76204 0.30264 0.0
C252 C 0.47424 0.74182 0.25952 0.0
C253 C 0.46621 0.76807 0.26293 0.0
C254 C 0.46395 0.77794 0.28467 0.0
C255 C 0.4803 0.73798 0.29949 0.0
C256 C 0.48255 0.72717 0.27816 0.0
H257 H 0.45795 0.79818 0.28676 0.0
H258 H 0.4862 0.72641 0.31386 0.0
H259 H 0.49102 0.81898 0.30801 0.0
H260 H 0.56039 0.79338 0.3399 0.0
H261 H 0.39179 0.70125 0.32602 0.0
H262 H 0.46091 0.78065 0.24899 0.0
H263 H 0.48921 0.70695 0.27659 0.0
C264 C 0.28222 0.01744 0.84568 0.0
C265 C 0.29949 0.03685 0.83873 0.0
N266 N 0.31545 0.02652 0.82297 0.0
N267 N 0.28738 0.99494 0.83447 0.0
C268 C 0.30792 1.00105 0.82094 0.0
H269 H 0.26617 0.0199 0.85743 0.0
Co270 Co 0.26705 0.9642 0.83544 0.0
C271 C 0.30143 0.92183 0.81797 0.0
O272 O 0.28162 0.91265 0.80606 0.0
N273 N 0.24605 0.93294 0.83695 0.0
C274 C 0.21484 0.90231 0.83267 0.0
C275 C 0.22162 0.92822 0.82878 0.0
C276 C 0.25299 0.90975 0.84672 0.0
N277 N 0.23478 0.89052 0.84371 0.0
O278 O 0.27366 0.96102 0.86669 0.0
H279 H 0.20935 0.94231 0.82015 0.0
H280 H 0.27162 0.90681 0.85522 0.0
O281 O 0.29855 0.94292 0.82947 0.0
C282 C 0.25382 0.96721 0.87869 0.0
O283 O 0.2321 0.97517 0.8687 0.0
N284 N 0.25883 0.96918 0.805 0.0
C285 C 0.23761 0.97718 0.76249 0.0
C286 C 0.26366 0.96814 0.7651 0.0
C287 C 0.274 0.96444 0.78652 0.0
C288 C 0.23506 0.98142 0.80272 0.0
C289 C 0.22372 0.98499 0.78171 0.0
H290 H 0.29404 0.95755 0.78795 0.0
H291 H 0.22411 0.98706 0.81751 0.0
H292 H 0.31685 0.98734 0.80937 0.0
H293 H 0.29932 0.05733 0.84393 0.0
H294 H 0.19704 0.89267 0.82686 0.0
H295 H 0.27574 0.96319 0.75076 0.0
H296 H 0.20369 0.99235 0.7808 0.0
C297 C 0.48138 0.28859 0.34806 0.0
C298 C 0.46186 0.30509 0.3402 0.0
N299 N 0.4716 0.31892 0.3228 0.0
N300 N 0.50337 0.29198 0.33567 0.0
C301 C 0.49685 0.31072 0.32051 0.0
H302 H 0.47919 0.27413 0.36122 0.0
Co303 Co 0.5337 0.27111 0.33632 0.0
C304 C 0.57652 0.30629 0.31868 0.0
O305 O 0.58909 0.2867 0.30894 0.0
N306 N 0.5643 0.24974 0.33718 0.0
C307 C 0.59394 0.21809 0.33116 0.0
C308 C 0.56828 0.226 0.32749 0.0
C309 C 0.58755 0.25526 0.34739 0.0
N310 N 0.6062 0.23671 0.34346 0.0
O311 O 0.53848 0.27857 0.36729 0.0
H312 H 0.55379 0.21536 0.31777 0.0
H313 H 0.59104 0.27325 0.35671 0.0
O314 O 0.55476 0.30228 0.32895 0.0
C315 C 0.53005 0.25944 0.37914 0.0
O316 O 0.51911 0.2392 0.36894 0.0
N317 N 0.52713 0.26149 0.30651 0.0
C318 C 0.5185 0.23252 0.26739 0.0
C319 C 0.53465 0.25527 0.26735 0.0
C320 C 0.53802 0.26995 0.28693 0.0
C321 C 0.50874 0.24189 0.30627 0.0
C322 C 0.50362 0.22761 0.28685 0.0
H323 H 0.54997 0.28742 0.28614 0.0
H324 H 0.49902 0.23633 0.32168 0.0
H325 H 0.5098 0.31692 0.30709 0.0
H326 H 0.44178 0.30617 0.34637 0.0
H327 H 0.60316 0.20059 0.3243 0.0
H328 H 0.54598 0.26118 0.25289 0.0
H329 H 0.4892 0.21193 0.28778 0.0
C330 C 0.22706 0.47975 0.84285 0.0
C331 C 0.21077 0.45955 0.83609 0.0
N332 N 0.19145 0.46979 0.82324 0.0
N333 N 0.21812 0.50272 0.83439 0.0
C334 C 0.19614 0.49609 0.82278 0.0
H335 H 0.24514 0.47758 0.85227 0.0
Co336 Co 0.2374 0.53408 0.83524 0.0
C337 C 0.20409 0.57411 0.8138 0.0
O338 O 0.22478 0.58128 0.80194 0.0
N339 N 0.25741 0.56604 0.83678 0.0
C340 C 0.28781 0.59774 0.83395 0.0
C341 C 0.28239 0.57148 0.83023 0.0
C342 C 0.2487 0.58924 0.84543 0.0
N343 N 0.26643 0.60906 0.8433 0.0
O344 O 0.22917 0.53825 0.86608 0.0
H345 H 0.2961 0.55765 0.82299 0.0
H346 H 0.22928 0.59166 0.85272 0.0
O347 O 0.20588 0.55464 0.82736 0.0
C348 C 0.24795 0.53007 0.87842 0.0
O349 O 0.26905 0.52011 0.86876 0.0
N350 N 0.24725 0.52805 0.80525 0.0
C351 C 0.26971 0.52076 0.76316 0.0
C352 C 0.2426 0.52607 0.76537 0.0
C353 C 0.23163 0.52921 0.78663 0.0
C354 C 0.2723 0.51855 0.80349 0.0
C355 C 0.28425 0.51552 0.78264 0.0
H356 H 0.21081 0.53338 0.78786 0.0
H357 H 0.28357 0.51463 0.81848 0.0
H358 H 0.18481 0.50992 0.81291 0.0
H359 H 0.2136 0.43878 0.83962 0.0
H360 H 0.30585 0.60783 0.82932 0.0
H361 H 0.23018 0.52878 0.75082 0.0
H362 H 0.30506 0.51072 0.78202 0.0
C363 C 0.01727 0.22317 0.34249 0.0
C364 C 0.03795 0.2078 0.33519 0.0
N365 N 0.02839 0.18934 0.32113 0.0
N366 N 0.99468 0.21449 0.33314 0.0
C367 C 0.00204 0.19362 0.32044 0.0
H368 H 0.01886 0.24051 0.35294 0.0
Co369 Co 0.96261 0.23257 0.33402 0.0
C370 C 0.92215 0.19414 0.31934 0.0
O371 O 0.91034 0.21247 0.30741 0.0
N372 N 0.93018 0.25155 0.3354 0.0
C373 C 0.89818 0.2813 0.33096 0.0
C374 C 0.92418 0.27537 0.32657 0.0
C375 C 0.90766 0.24412 0.34602 0.0
N376 N 0.88762 0.26145 0.34298 0.0
O377 O 0.96049 0.22746 0.36547 0.0
H378 H 0.93749 0.28781 0.31724 0.0
H379 H 0.90579 0.22583 0.35524 0.0
O380 O 0.94361 0.19934 0.32969 0.0
C381 C 0.96765 0.24767 0.37657 0.0
O382 O 0.97602 0.26858 0.36562 0.0
N383 N 0.96626 0.23941 0.30328 0.0
C384 C 0.97228 0.25894 0.25998 0.0
C385 C 0.96396 0.23282 0.26361 0.0
C386 C 0.96136 0.22329 0.28544 0.0
C387 C 0.97764 0.26345 0.29996 0.0
C388 C 0.9803 0.27389 0.27853 0.0
H389 H 0.95532 0.20308 0.28769 0.0
H390 H 0.98332 0.27524 0.31426 0.0
H391 H 0.98867 0.18292 0.30965 0.0
H392 H 0.05858 0.21072 0.33923 0.0
H393 H 0.88764 0.29845 0.32489 0.0
H394 H 0.95879 0.22007 0.24976 0.0
H395 H 0.98707 0.29406 0.27678 0.0
C396 C 0.27788 0.4856 0.1539 0.0
C397 C 0.29347 0.46507 0.16111 0.0
N398 N 0.31238 0.4749 0.1746 0.0
N399 N 0.28685 0.50836 0.16274 0.0
C400 C 0.30814 0.50126 0.17506 0.0
H401 H 0.26021 0.48382 0.14388 0.0
Co402 Co 0.26833 0.54012 0.16153 0.0
C403 C 0.30545 0.58148 0.17643 0.0
O404 O 0.28656 0.59235 0.18839 0.0
N405 N 0.2488 0.57221 0.15971 0.0
C406 C 0.21875 0.60401 0.16363 0.0
C407 C 0.22485 0.57815 0.16833 0.0
C408 C 0.2561 0.59461 0.14886 0.0
N409 N 0.2386 0.61455 0.15158 0.0
O410 O 0.27374 0.54196 0.13008 0.0
H411 H 0.21242 0.56491 0.17773 0.0
H412 H 0.27444 0.59646 0.13971 0.0
O413 O 0.30119 0.55992 0.16591 0.0
C414 C 0.25386 0.53456 0.11867 0.0
O415 O 0.23276 0.52607 0.12929 0.0
N416 N 0.26136 0.53673 0.1923 0.0
C417 C 0.24195 0.53224 0.23575 0.0
C418 C 0.26827 0.53973 0.23189 0.0
C419 C 0.27774 0.54152 0.20999 0.0
C420 C 0.23717 0.52579 0.1959 0.0
C421 C 0.22676 0.52396 0.21742 0.0
H422 H 0.29807 0.54707 0.20753 0.0
H423 H 0.22521 0.51993 0.18176 0.0
H424 H 0.31922 0.51482 0.18539 0.0
H425 H 0.29046 0.44437 0.15739 0.0
H426 H 0.20146 0.61449 0.16951 0.0
H427 H 0.28121 0.54498 0.2456 0.0
H428 H 0.20646 0.51767 0.21937 0.0
C429 C 0.0191 0.28803 0.6495 0.0
C430 C 0.03877 0.30407 0.65772 0.0
N431 N 0.02872 0.3186 0.67457 0.0
N432 N 0.99667 0.29242 0.66106 0.0
C433 C 0.00309 0.31134 0.6761 0.0
H434 H 0.02145 0.27316 0.63671 0.0
Co435 Co 0.96606 0.272 0.65954 0.0
C436 C 0.92281 0.30671 0.67613 0.0
O437 O 0.91102 0.28683 0.68617 0.0
N438 N 0.93516 0.25086 0.65764 0.0
C439 C 0.90499 0.21941 0.66258 0.0
C440 C 0.93065 0.22688 0.66675 0.0
C441 C 0.9122 0.2569 0.64713 0.0
N442 N 0.8932 0.23851 0.65048 0.0
O443 O 0.96263 0.27964 0.6285 0.0
H444 H 0.94469 0.21566 0.67643 0.0
H445 H 0.90912 0.27517 0.6381 0.0
O446 O 0.94497 0.30334 0.66631 0.0
C447 C 0.97129 0.26072 0.61656 0.0
O448 O 0.98156 0.24006 0.62665 0.0
N449 N 0.97122 0.26247 0.6895 0.0
C450 C 0.97919 0.23635 0.72989 0.0
C451 C 0.96557 0.26053 0.72924 0.0
C452 C 0.96227 0.27364 0.70884 0.0
C453 C 0.98724 0.2409 0.69028 0.0
C454 C 0.99151 0.22751 0.71028 0.0
H455 H 0.95216 0.29231 0.70884 0.0
H456 H 0.99545 0.23314 0.67493 0.0
H457 H 0.98975 0.31831 0.68894 0.0
H458 H 0.05915 0.30428 0.65225 0.0
H459 H 0.89541 0.20188 0.66903 0.0
H460 H 0.95622 0.26857 0.74403 0.0
H461 H 0.00314 0.20956 0.71008 0.0
C462 C 0.22449 0.02307 0.1535 0.0
C463 C 0.20845 0.04336 0.16054 0.0
N464 N 0.19029 0.03345 0.17475 0.0
N465 N 0.21652 1.00039 0.16314 0.0
C466 C 0.19542 0.00727 0.17578 0.0
H467 H 0.24168 0.02494 0.14288 0.0
Co468 Co 0.23558 0.969 0.16197 0.0
C469 C 0.19926 0.92716 0.17744 0.0
O470 O 0.21847 0.91664 0.18926 0.0
N471 N 0.25565 0.93718 0.16019 0.0
C472 C 0.28679 0.90635 0.16352 0.0
C473 C 0.28004 0.93204 0.16826 0.0
C474 C 0.24867 0.91448 0.14965 0.0
N475 N 0.26689 0.89514 0.15201 0.0
O476 O 0.22995 0.96696 0.13051 0.0
H477 H 0.29243 0.94575 0.17717 0.0
H478 H 0.23015 0.912 0.14087 0.0
O479 O 0.20309 0.94869 0.16674 0.0
C480 C 0.25033 0.97291 0.11907 0.0
O481 O 0.27184 0.98024 0.12969 0.0
N482 N 0.24284 0.97267 0.19268 0.0
C483 C 0.26302 0.97726 0.23586 0.0
C484 C 0.23671 0.96946 0.23236 0.0
C485 C 0.22686 0.96759 0.21059 0.0
C486 C 0.2669 0.984 0.19597 0.0
C487 C 0.27771 0.98588 0.21732 0.0
H488 H 0.20659 0.9617 0.20842 0.0
H489 H 0.2785 0.99011 0.18166 0.0
H490 H 0.18502 0.99368 0.1866 0.0
H491 H 0.2106 0.06396 0.15608 0.0
H492 H 0.30463 0.89646 0.16892 0.0
H493 H 0.22409 0.96399 0.24623 0.0
H494 H 0.29796 0.99243 0.21898 0.0
C495 C 0.4849 0.21342 0.64971 0.0
C496 C 0.46576 0.19649 0.65774 0.0
N497 N 0.47516 0.18464 0.67626 0.0
N498 N 0.50638 0.21206 0.663 0.0
C499 C 0.49981 0.19428 0.67896 0.0
H500 H 0.4829 0.2264 0.63547 0.0
Co501 Co 0.53732 0.2322 0.66131 0.0
C502 C 0.57888 0.1967 0.67981 0.0
O503 O 0.59066 0.21627 0.69028 0.0
N504 N 0.56871 0.25257 0.65935 0.0
C505 C 0.59968 0.28342 0.66343 0.0
C506 C 0.57369 0.27694 0.66747 0.0
C507 C 0.59177 0.24521 0.64963 0.0
N508 N 0.6112 0.26327 0.65243 0.0
O509 O 0.54097 0.22396 0.63036 0.0
H510 H 0.55971 0.28919 0.67628 0.0
H511 H 0.59447 0.2264 0.64136 0.0
O512 O 0.55772 0.20073 0.66872 0.0
C513 C 0.53255 0.24308 0.6185 0.0
O514 O 0.52224 0.26361 0.62874 0.0
N515 N 0.53202 0.24265 0.69112 0.0
C516 C 0.52536 0.27078 0.73071 0.0
C517 C 0.53746 0.2458 0.73084 0.0
C518 C 0.54006 0.23171 0.71086 0.0
C519 C 0.51712 0.26502 0.69124 0.0
C520 C 0.51354 0.27945 0.71082 0.0
H521 H 0.54894 0.21244 0.7115 0.0
H522 H 0.50945 0.27263 0.67564 0.0
H523 H 0.51276 0.18869 0.69253 0.0
H524 H 0.44607 0.19395 0.65102 0.0
H525 H 0.60956 0.30113 0.66914 0.0
H526 H 0.54625 0.23781 0.74588 0.0
H527 H 0.50294 0.298 0.71005 0.0
C528 C 0.68224 0.92874 0.19605 0.0
C529 C 0.6756 0.95411 0.18831 0.0
C530 C 0.66545 0.91508 0.21057 0.0
C531 C 0.59687 0.90979 0.23028 0.0
H532 H 0.62905 0.87579 0.28157 0.0
C533 C 0.53499 0.85452 0.29789 0.0
C534 C 0.5459 0.83109 0.30651 0.0
C535 C 0.54999 0.87113 0.28402 0.0
C536 C 0.6197 0.88486 0.26721 0.0
H537 H 0.64568 0.98467 0.18933 0.0
H538 H 0.61611 0.9606 0.21465 0.0
H539 H 0.65636 0.9012 0.2559 0.0
H540 H 0.58093 0.80643 0.30661 0.0
H541 H 0.60673 0.8349 0.28245 0.0
H542 H 0.56027 0.8929 0.24131 0.0
C543 C 0.63443 0.9514 0.20947 0.0
C544 C 0.6354 0.89951 0.25252 0.0
C545 C 0.65142 0.96524 0.1951 0.0
C546 C 0.57205 0.8246 0.30078 0.0
C547 C 0.58691 0.84103 0.28686 0.0
C548 C 0.58113 0.89489 0.24491 0.0
C549 C 0.64146 0.9263 0.21761 0.0
C550 C 0.62426 0.91189 0.23373 0.0
C551 C 0.5762 0.8646 0.27833 0.0
C552 C 0.59242 0.88192 0.26343 0.0
H553 H 0.7008 0.91967 0.19143 0.0
H554 H 0.6713 0.89566 0.21633 0.0
H555 H 0.58773 0.919 0.21588 0.0
H556 H 0.51497 0.86016 0.30207 0.0
H557 H 0.54112 0.88923 0.27797 0.0
C558 C 0.65478 0.56582 0.81736 0.0
C559 C 0.66904 0.54382 0.80964 0.0
C560 C 0.6377 0.57953 0.80304 0.0
C561 C 0.62778 0.59482 0.74395 0.0
H562 H 0.55641 0.6137 0.76113 0.0
C563 C 0.55757 0.6457 0.68135 0.0
C564 C 0.53987 0.66471 0.68955 0.0
C565 C 0.57208 0.62983 0.69605 0.0
C566 C 0.57641 0.60898 0.75613 0.0
H567 H 0.67667 0.51906 0.78079 0.0
H568 H 0.64712 0.54314 0.75575 0.0
H569 H 0.58409 0.58866 0.78697 0.0
H570 H 0.5236 0.68214 0.7196 0.0
H571 H 0.54943 0.65519 0.74529 0.0
H572 H 0.62076 0.61577 0.71354 0.0
C573 C 0.64899 0.54965 0.77293 0.0
C574 C 0.59221 0.5945 0.77095 0.0
C575 C 0.66571 0.53571 0.78733 0.0
C576 C 0.53681 0.66737 0.71279 0.0
C577 C 0.55163 0.65181 0.72752 0.0
C578 C 0.61218 0.60963 0.72929 0.0
C579 C 0.63492 0.57179 0.78058 0.0
C580 C 0.61803 0.58718 0.76497 0.0
C581 C 0.56963 0.63288 0.71938 0.0
C582 C 0.58619 0.61687 0.73509 0.0
H583 H 0.65693 0.57244 0.83447 0.0
H584 H 0.6272 0.5966 0.80936 0.0
H585 H 0.64775 0.58979 0.73902 0.0
H586 H 0.56008 0.64303 0.66352 0.0
H587 H 0.58518 0.61511 0.68904 0.0
C588 C 0.97299 0.66217 0.28596 0.0
C589 C 0.96297 0.66808 0.30733 0.0
C590 C 0.95928 0.64519 0.2716 0.0
C591 C 0.90778 0.5933 0.26985 0.0
H592 H 0.89871 0.61622 0.20845 0.0
C593 C 0.85518 0.52895 0.20296 0.0
C594 C 0.83645 0.54201 0.18949 0.0
C595 C 0.8722 0.54322 0.21692 0.0
C596 C 0.90104 0.60955 0.22554 0.0
H597 H 0.93118 0.65999 0.33059 0.0
H598 H 0.90723 0.63035 0.30554 0.0
H599 H 0.9254 0.64264 0.23402 0.0
H600 H 0.82147 0.58079 0.18036 0.0
H601 H 0.85129 0.60539 0.20425 0.0
H602 H 0.88301 0.56041 0.26143 0.0
C603 C 0.92571 0.63884 0.2999 0.0
C604 C 0.91655 0.62456 0.24014 0.0
C605 C 0.93931 0.656 0.3142 0.0
C606 C 0.83571 0.56983 0.1901 0.0
C607 C 0.85286 0.58406 0.2039 0.0
C608 C 0.89244 0.57815 0.25518 0.0
C609 C 0.93533 0.63353 0.2783 0.0
C610 C 0.91991 0.61676 0.26254 0.0
C611 C 0.87117 0.57095 0.21762 0.0
C612 C 0.88866 0.58625 0.23291 0.0
H613 H 0.99099 0.67134 0.28002 0.0
H614 H 0.96736 0.64133 0.25515 0.0
H615 H 0.91014 0.58664 0.28694 0.0
H616 H 0.8568 0.50766 0.20279 0.0
H617 H 0.88633 0.53254 0.22708 0.0
C618 C 0.93138 0.82876 0.69673 0.0
C619 C 0.9568 0.83569 0.68926 0.0
C620 C 0.91698 0.84567 0.71056 0.0
C621 C 0.92415 0.90234 0.74949 0.0
H622 H 0.84804 0.90556 0.74272 0.0
C623 C 0.85581 0.97317 0.80057 0.0
C624 C 0.83263 0.9617 0.8092 0.0
C625 C 0.872 0.9591 0.78572 0.0
C626 C 0.86927 0.90476 0.74492 0.0
H627 H 0.98683 0.86615 0.69039 0.0
H628 H 0.96147 0.89601 0.71435 0.0
H629 H 0.87409 0.87944 0.71664 0.0
H630 H 0.80833 0.92641 0.80882 0.0
H631 H 0.83645 0.90199 0.78313 0.0
H632 H 0.91908 0.92797 0.77777 0.0
C633 C 0.95286 0.8772 0.70975 0.0
C634 C 0.88424 0.88971 0.72999 0.0
C635 C 0.96739 0.86013 0.69596 0.0
C636 C 0.82617 0.93577 0.80278 0.0
C637 C 0.84214 0.92186 0.78781 0.0
C638 C 0.90913 0.91761 0.76436 0.0
C639 C 0.92744 0.87016 0.71726 0.0
C640 C 0.91185 0.88788 0.73227 0.0
C641 C 0.86513 0.9334 0.77895 0.0
C642 C 0.88146 0.91862 0.76245 0.0
H643 H 0.92279 0.80988 0.6924 0.0
H644 H 0.89778 0.8392 0.7164 0.0
H645 H 0.94531 0.90123 0.75194 0.0
H646 H 0.8614 0.99304 0.80528 0.0
H647 H 0.88955 0.96855 0.77913 0.0
C648 C 0.33635 0.03438 0.78619 0.0
C649 C 0.33383 0.04071 0.80896 0.0
C650 C 0.35286 0.0492 0.77221 0.0
C651 C 0.38771 0.11424 0.76919 0.0
H652 H 0.42252 0.08159 0.71847 0.0
C653 C 0.46508 0.16864 0.71442 0.0
C654 C 0.46095 0.16732 0.6912 0.0
C655 C 0.45046 0.1527 0.72902 0.0
C656 C 0.41281 0.09098 0.73252 0.0
H657 H 0.34722 0.06701 0.83508 0.0
H658 H 0.37687 0.09231 0.81102 0.0
H659 H 0.39632 0.05449 0.74389 0.0
H660 H 0.43872 0.14784 0.66506 0.0
H661 H 0.41346 0.11954 0.69057 0.0
H662 H 0.4049 0.15063 0.75797 0.0
C663 C 0.36548 0.07644 0.80366 0.0
C664 C 0.39765 0.07549 0.74708 0.0
C665 C 0.34862 0.06185 0.81755 0.0
C666 C 0.44221 0.14936 0.68287 0.0
C667 C 0.4279 0.13307 0.69745 0.0
C668 C 0.40322 0.12962 0.75482 0.0
C669 C 0.36763 0.07056 0.78069 0.0
C670 C 0.38466 0.0869 0.76556 0.0
C671 C 0.43169 0.13475 0.7207 0.0
C672 C 0.41579 0.11821 0.73625 0.0
H673 H 0.32485 0.01849 0.77898 0.0
H674 H 0.35343 0.04427 0.75461 0.0
H675 H 0.37767 0.12399 0.78287 0.0
H676 H 0.47917 0.18248 0.72135 0.0
H677 H 0.4539 0.15433 0.74684 0.0
C678 C 0.43028 0.33104 0.30335 0.0
C679 C 0.45708 0.33596 0.30786 0.0
C680 C 0.41637 0.34679 0.2882 0.0
C681 C 0.4141 0.41204 0.26211 0.0
H682 H 0.37207 0.37675 0.21693 0.0
C683 C 0.35504 0.47027 0.19466 0.0
C684 C 0.33036 0.45992 0.18841 0.0
C685 C 0.37218 0.45567 0.20835 0.0
C686 C 0.38338 0.38702 0.22959 0.0
H687 H 0.49015 0.3616 0.30033 0.0
H688 H 0.46559 0.38957 0.27399 0.0
H689 H 0.39835 0.3507 0.24287 0.0
H690 H 0.30397 0.42653 0.19235 0.0
H691 H 0.33322 0.40152 0.21643 0.0
H692 H 0.39846 0.44836 0.24937 0.0
C693 C 0.45548 0.37335 0.28215 0.0
C694 C 0.39856 0.37202 0.2444 0.0
C695 C 0.46955 0.35729 0.29709 0.0
C696 C 0.32308 0.43483 0.19636 0.0
C697 C 0.33999 0.42042 0.2102 0.0
C698 C 0.39859 0.4271 0.24745 0.0
C699 C 0.4288 0.36806 0.27738 0.0
C700 C 0.41387 0.38431 0.26097 0.0
C701 C 0.36487 0.4305 0.21632 0.0
C702 C 0.38273 0.41477 0.23115 0.0
H703 H 0.42017 0.3146 0.31115 0.0
H704 H 0.39578 0.34236 0.28498 0.0
H705 H 0.42562 0.42204 0.2748 0.0
H706 H 0.36122 0.4895 0.18871 0.0
H707 H 0.39125 0.46402 0.21246 0.0
C708 C 0.0312 0.35703 0.70021 0.0
C709 C 0.04326 0.33519 0.68987 0.0
C710 C 0.04531 0.37265 0.71546 0.0
C711 C 0.10119 0.3695 0.75442 0.0
H712 H 0.1042 0.44576 0.74908 0.0
C713 C 0.17905 0.42988 0.8019 0.0
C714 C 0.17271 0.45523 0.80982 0.0
C715 C 0.1615 0.41597 0.78828 0.0
C716 C 0.10324 0.42453 0.7511 0.0
H717 H 0.07944 0.31244 0.68772 0.0
H718 H 0.10388 0.33944 0.71433 0.0
H719 H 0.07645 0.42028 0.72349 0.0
H720 H 0.14277 0.48575 0.80972 0.0
H721 H 0.11167 0.46118 0.78627 0.0
H722 H 0.12756 0.37346 0.78208 0.0
C723 C 0.08359 0.34461 0.71058 0.0
C724 C 0.08738 0.40995 0.73636 0.0
C725 C 0.06966 0.32929 0.69515 0.0
C726 C 0.14826 0.46631 0.8038 0.0
C727 C 0.13051 0.45224 0.79028 0.0
C728 C 0.11674 0.38403 0.76929 0.0
C729 C 0.07159 0.36641 0.72097 0.0
C730 C 0.08661 0.38224 0.73761 0.0
C731 C 0.13691 0.42684 0.78232 0.0
C732 C 0.11847 0.41172 0.76757 0.0
H733 H 0.01092 0.36209 0.69639 0.0
H734 H 0.03554 0.3893 0.72327 0.0
H735 H 0.10062 0.3482 0.75605 0.0
H736 H 0.19794 0.42098 0.80571 0.0
H737 H 0.16755 0.39683 0.78205 0.0
C738 C 0.06892 0.17926 0.29965 0.0
C739 C 0.04351 0.17193 0.30689 0.0
C740 C 0.0831 0.16327 0.28488 0.0
C741 C 0.09002 0.09555 0.26377 0.0
H742 H 0.1248 0.12992 0.21384 0.0
C743 C 0.14847 0.0367 0.19631 0.0
C744 C 0.17195 0.04826 0.18839 0.0
C745 C 0.13113 0.05103 0.21002 0.0
C746 C 0.11551 0.11997 0.22782 0.0
H747 H 0.01339 0.14166 0.30462 0.0
H748 H 0.0384 0.11345 0.27884 0.0
H749 H 0.09813 0.15593 0.23954 0.0
H750 H 0.19587 0.08378 0.18929 0.0
H751 H 0.16613 0.10846 0.21322 0.0
H752 H 0.10797 0.05965 0.25238 0.0
C753 C 0.04721 0.1317 0.28463 0.0
C754 C 0.10013 0.13492 0.24252 0.0
C755 C 0.03284 0.14791 0.29926 0.0
C756 C 0.17771 0.07441 0.1946 0.0
C757 C 0.16055 0.08862 0.20838 0.0
C758 C 0.10565 0.08056 0.24914 0.0
C759 C 0.07238 0.13939 0.27707 0.0
C760 C 0.08747 0.12298 0.26083 0.0
C761 C 0.13697 0.07722 0.21626 0.0
C762 C 0.11891 0.09265 0.23111 0.0
H763 H 0.07764 0.19775 0.30492 0.0
H764 H 0.10255 0.16962 0.27957 0.0
H765 H 0.08062 0.0858 0.2778 0.0
H766 H 0.14337 0.01666 0.19172 0.0
H767 H 0.11304 0.04165 0.21553 0.0
C768 C 0.65504 0.07905 0.17133 0.0
C769 C 0.6761 0.08462 0.18595 0.0
C770 C 0.63007 0.09024 0.17501 0.0
C771 C 0.58924 0.11581 0.21997 0.0
H772 H 0.55768 0.16481 0.17792 0.0
C773 C 0.53291 0.21788 0.22857 0.0
C774 C 0.52048 0.21214 0.24914 0.0
C775 C 0.54267 0.19757 0.21503 0.0
C776 C 0.56607 0.15099 0.18976 0.0
H777 H 0.68754 0.10613 0.21581 0.0
H778 H 0.6442 0.12508 0.22234 0.0
H779 H 0.59517 0.13737 0.16625 0.0
H780 H 0.50405 0.17941 0.26861 0.0
H781 H 0.51883 0.14507 0.24429 0.0
H782 H 0.56219 0.13037 0.24407 0.0
C783 C 0.64692 0.11219 0.20806 0.0
C784 C 0.58733 0.13515 0.183 0.0
C785 C 0.67177 0.10143 0.20423 0.0
C786 C 0.51399 0.18548 0.2535 0.0
C787 C 0.52288 0.16532 0.23954 0.0
C788 C 0.56817 0.13151 0.22672 0.0
C789 C 0.62584 0.10665 0.19359 0.0
C790 C 0.59976 0.11835 0.19842 0.0
C791 C 0.53934 0.17101 0.22129 0.0
C792 C 0.55698 0.15015 0.21203 0.0
H793 H 0.6579 0.06624 0.15703 0.0
H794 H 0.61404 0.0858 0.16363 0.0
H795 H 0.59845 0.10284 0.2321 0.0
H796 H 0.53691 0.23796 0.22347 0.0
H797 H 0.55475 0.20287 0.20078 0.0
C798 C 0.27598 0.54556 0.72743 0.0
C799 C 0.2835 0.52454 0.74141 0.0
C800 C 0.29249 0.554 0.71022 0.0
C801 C 0.36283 0.55941 0.70231 0.0
H802 H 0.33968 0.60277 0.65262 0.0
C803 C 0.42363 0.64856 0.67121 0.0
C804 C 0.40844 0.67169 0.67311 0.0
C805 C 0.41139 0.62375 0.67163 0.0
C806 C 0.34661 0.59042 0.6662 0.0
H807 H 0.31269 0.49365 0.74621 0.0
H808 H 0.34187 0.50883 0.71629 0.0
H809 H 0.31101 0.56762 0.66655 0.0
H810 H 0.36864 0.68719 0.6757 0.0
H811 H 0.34737 0.64414 0.67626 0.0
H812 H 0.39768 0.58331 0.70284 0.0
C813 C 0.32331 0.51899 0.71898 0.0
C814 C 0.33022 0.57033 0.67419 0.0
C815 C 0.30664 0.5104 0.73618 0.0
C816 C 0.38085 0.66968 0.67446 0.0
C817 C 0.36865 0.64503 0.67446 0.0
C818 C 0.3793 0.57936 0.69419 0.0
C819 C 0.31702 0.54172 0.70658 0.0
C820 C 0.33741 0.55581 0.69328 0.0
C821 C 0.38378 0.62181 0.67342 0.0
C822 C 0.37059 0.59607 0.67699 0.0
H823 H 0.2585 0.55716 0.73094 0.0
H824 H 0.28704 0.57173 0.70121 0.0
H825 H 0.36901 0.54869 0.71708 0.0
H826 H 0.44497 0.64961 0.67009 0.0
H827 H 0.42348 0.60612 0.67094 0.0
C828 C 0.98582 0.2926 0.23105 0.0
C829 C 0.9691 0.27182 0.23778 0.0
C830 C 0.97848 0.30935 0.21351 0.0
C831 C 0.92551 0.32092 0.17086 0.0
H832 H 0.92198 0.39002 0.19864 0.0
C833 C 0.83197 0.37955 0.17895 0.0
C834 C 0.8317 0.4071 0.17655 0.0
C835 C 0.85548 0.36554 0.1769 0.0
C836 C 0.92335 0.37116 0.19017 0.0
H837 H 0.93304 0.2507 0.22956 0.0
H838 H 0.92055 0.27936 0.19924 0.0
H839 H 0.95459 0.35825 0.21146 0.0
H840 H 0.85562 0.44169 0.16968 0.0
H841 H 0.8974 0.41701 0.16714 0.0
H842 H 0.89235 0.33314 0.15118 0.0
C843 C 0.93935 0.2829 0.20733 0.0
C844 C 0.94212 0.35289 0.19747 0.0
C845 C 0.94656 0.26633 0.22489 0.0
C846 C 0.85538 0.42042 0.17164 0.0
C847 C 0.87916 0.40636 0.1701 0.0
C848 C 0.90661 0.33912 0.1637 0.0
C849 C 0.95442 0.30546 0.20227 0.0
C850 C 0.94215 0.32697 0.18896 0.0
C851 C 0.87936 0.37879 0.17279 0.0
C852 C 0.90431 0.36374 0.17433 0.0
H853 H 0.00376 0.29693 0.2402 0.0
H854 H 0.99075 0.3263 0.20972 0.0
H855 H 0.92547 0.30132 0.16361 0.0
H856 H 0.81399 0.36875 0.18255 0.0
H857 H 0.85512 0.34436 0.17951 0.0
C858 C 0.20268 0.99196 0.73503 0.0
C859 C 0.22376 0.97502 0.74059 0.0
C860 C 0.1855 0.98561 0.71751 0.0
C861 C 0.17373 0.93601 0.67217 0.0
H862 H 0.10546 0.9284 0.70091 0.0
C863 C 0.11879 0.84038 0.67786 0.0
C864 C 0.09126 0.83905 0.67556 0.0
C865 C 0.1318 0.86451 0.67635 0.0
C866 C 0.12405 0.93099 0.69218 0.0
H867 H 0.24471 0.93956 0.73035 0.0
H868 H 0.21545 0.92893 0.70001 0.0
H869 H 0.13672 0.96086 0.71496 0.0
H870 H 0.05565 0.86169 0.66946 0.0
H871 H 0.07859 0.90458 0.66798 0.0
H872 H 0.16192 0.90404 0.65097 0.0
C873 C 0.21201 0.94714 0.70905 0.0
C874 C 0.14202 0.94966 0.7002 0.0
C875 C 0.22893 0.95329 0.72663 0.0
C876 C 0.07694 0.86229 0.67129 0.0
C877 C 0.08998 0.8867 0.67035 0.0
C878 C 0.15584 0.91721 0.66429 0.0
C879 C 0.18931 0.96241 0.70503 0.0
C880 C 0.16773 0.95098 0.6913 0.0
C881 C 0.11755 0.88794 0.67296 0.0
C882 C 0.13159 0.91338 0.67524 0.0
H883 H 0.19853 0.00933 0.74498 0.0
H884 H 0.16838 0.99796 0.71459 0.0
H885 H 0.19317 0.93701 0.66465 0.0
H886 H 0.13033 0.82275 0.68101 0.0
H887 H 0.153 0.86495 0.67888 0.0
C888 C 0.53435 0.31594 0.74566 0.0
C889 C 0.52863 0.28922 0.74989 0.0
C890 C 0.54314 0.33241 0.76273 0.0
C891 C 0.56181 0.36589 0.8007 0.0
H892 H 0.62018 0.32975 0.82928 0.0
C893 C 0.65426 0.42241 0.8307 0.0
C894 C 0.67753 0.41118 0.82207 0.0
C895 C 0.63058 0.40807 0.83053 0.0
C896 C 0.60381 0.34016 0.82164 0.0
H897 H 0.52497 0.2597 0.77601 0.0
H898 H 0.54065 0.28859 0.80595 0.0
H899 H 0.58464 0.30414 0.81287 0.0
H900 H 0.69453 0.37581 0.80749 0.0
H901 H 0.65359 0.35122 0.80684 0.0
H902 H 0.58253 0.40182 0.80747 0.0
C903 C 0.53866 0.2966 0.78924 0.0
C904 C 0.58317 0.32547 0.81247 0.0
C905 C 0.52977 0.28002 0.77207 0.0
C906 C 0.6769 0.38516 0.81403 0.0
C907 C 0.65343 0.37087 0.814 0.0
C908 C 0.58264 0.38058 0.80966 0.0
C909 C 0.54657 0.32267 0.78453 0.0
C910 C 0.5628 0.3381 0.80061 0.0
C911 C 0.6299 0.3822 0.82198 0.0
C912 C 0.60465 0.36773 0.81893 0.0
H913 H 0.53418 0.32377 0.72882 0.0
H914 H 0.54941 0.35217 0.75826 0.0
H915 H 0.54601 0.37625 0.79221 0.0
H916 H 0.65422 0.44241 0.83712 0.0
H917 H 0.61276 0.41731 0.8368 0.0
C918 C 0.20807 0.52068 0.26513 0.0
C919 C 0.22922 0.5366 0.25787 0.0
C920 C 0.19174 0.529 0.28265 0.0
C921 C 0.18246 0.58305 0.32471 0.0
H922 H 0.11226 0.58681 0.29899 0.0
C923 C 0.12283 0.67671 0.32008 0.0
C924 C 0.09535 0.67655 0.32309 0.0
C925 C 0.13718 0.65331 0.32119 0.0
C926 C 0.13147 0.58541 0.30687 0.0
H927 H 0.2513 0.57241 0.26503 0.0
H928 H 0.22334 0.58659 0.29532 0.0
H929 H 0.14334 0.554 0.28531 0.0
H930 H 0.06128 0.65197 0.33012 0.0
H931 H 0.08651 0.61047 0.33109 0.0
H932 H 0.17119 0.61624 0.34474 0.0
C933 C 0.21922 0.56765 0.28767 0.0
C934 C 0.14935 0.56653 0.29908 0.0
C935 C 0.23538 0.55946 0.27014 0.0
C936 C 0.08248 0.65256 0.32769 0.0
C937 C 0.09685 0.62892 0.32833 0.0
C938 C 0.16465 0.60205 0.33236 0.0
C939 C 0.19641 0.55327 0.29334 0.0
C940 C 0.17556 0.56628 0.3069 0.0
C941 C 0.12434 0.62913 0.32496 0.0
C942 C 0.13957 0.60438 0.32252 0.0
H943 H 0.20319 0.50256 0.25645 0.0
H944 H 0.17458 0.51726 0.28691 0.0
H945 H 0.20233 0.58294 0.33143 0.0
H946 H 0.13332 0.69494 0.3167 0.0
H947 H 0.15827 0.65403 0.31811 0.0
C948 C 0.9727 0.19151 0.74635 0.0
C949 C 0.97707 0.21865 0.74967 0.0
C950 C 0.9648 0.1754 0.76397 0.0
C951 C 0.92436 0.18325 0.81345 0.0
H952 H 0.92601 0.10685 0.80939 0.0
C953 C 0.85308 0.08615 0.83017 0.0
C954 C 0.83027 0.09732 0.82067 0.0
C955 C 0.87676 0.1005 0.83078 0.0
C956 C 0.92562 0.12811 0.81135 0.0
H957 H 0.9795 0.24945 0.77478 0.0
H958 H 0.96549 0.22118 0.80574 0.0
H959 H 0.96263 0.13259 0.79449 0.0
H960 H 0.81406 0.13257 0.80524 0.0
H961 H 0.85497 0.15714 0.80592 0.0
H962 H 0.887 0.1788 0.82967 0.0
C963 C 0.96776 0.21253 0.7893 0.0
C964 C 0.94651 0.14291 0.80259 0.0
C965 C 0.97569 0.22875 0.77155 0.0
C966 C 0.83133 0.12325 0.81247 0.0
C967 C 0.85476 0.13755 0.8132 0.0
C968 C 0.9037 0.16846 0.82248 0.0
C969 C 0.96096 0.18595 0.78547 0.0
C970 C 0.94508 0.17068 0.80197 0.0
C971 C 0.87785 0.12633 0.82215 0.0
C972 C 0.90318 0.14087 0.81996 0.0
H973 H 0.97317 0.18296 0.72976 0.0
H974 H 0.95941 0.15521 0.76014 0.0
H975 H 0.92255 0.20456 0.81352 0.0
H976 H 0.85277 0.06621 0.83675 0.0
H977 H 0.89424 0.09132 0.83774 0.0
C978 C 0.29763 0.98872 0.26466 0.0
C979 C 0.27628 0.97284 0.25776 0.0
C980 C 0.31437 0.98033 0.28186 0.0
C981 C 0.3244 0.9264 0.32388 0.0
H982 H 0.3938 0.9217 0.29668 0.0
C983 C 0.38212 0.83194 0.31734 0.0
C984 C 0.40963 0.83143 0.32008 0.0
C985 C 0.36831 0.85562 0.31886 0.0
C986 C 0.37485 0.92337 0.30498 0.0
H987 H 0.25435 0.93703 0.26531 0.0
H988 H 0.28295 0.92281 0.29511 0.0
H989 H 0.36273 0.95489 0.2836 0.0
H990 H 0.44434 0.85511 0.327 0.0
H991 H 0.42004 0.89719 0.32865 0.0
H992 H 0.33582 0.89308 0.34371 0.0
C993 C 0.28693 0.94175 0.28738 0.0
C994 C 0.35698 0.94247 0.29752 0.0
C995 C 0.27039 0.94998 0.27014 0.0
C996 C 0.4231 0.85506 0.3248 0.0
C997 C 0.40927 0.87901 0.32582 0.0
C998 C 0.34219 0.90719 0.3312 0.0
C999 C 0.30989 0.95607 0.29265 0.0
C1000 C 0.33099 0.94301 0.30588 0.0
C1001 C 0.38174 0.87944 0.32278 0.0
C1002 C 0.36694 0.90452 0.32082 0.0
H1003 H 0.30233 0.00686 0.25592 0.0
H1004 H 0.33167 0.99202 0.28581 0.0
H1005 H 0.30472 0.92673 0.33099 0.0
H1006 H 0.37119 0.81401 0.31387 0.0
H1007 H 0.34717 0.85542 0.31602 0.0
C1008 C 0.47252 0.77385 0.77175 0.0
C1009 C 0.47545 0.78408 0.75003 0.0
C1010 C 0.4639 0.79012 0.78922 0.0
C1011 C 0.41958 0.81972 0.81154 0.0
H1012 H 0.42242 0.89615 0.80844 0.0
C1013 C 0.32723 0.88117 0.80988 0.0
C1014 C 0.32636 0.90675 0.81886 0.0
C1015 C 0.35049 0.86659 0.8104 0.0
C1016 C 0.42165 0.87486 0.81009 0.0
H1017 H 0.47384 0.81995 0.73016 0.0
H1018 H 0.45872 0.84783 0.76005 0.0
H1019 H 0.4594 0.87018 0.79449 0.0
H1020 H 0.34907 0.93694 0.83596 0.0
H1021 H 0.39019 0.91133 0.8366 0.0
H1022 H 0.38156 0.82438 0.82656 0.0
C1023 C 0.4634 0.82749 0.764 0.0
C1024 C 0.44276 0.85993 0.80187 0.0
C1025 C 0.47208 0.81134 0.74667 0.0
C1026 C 0.34922 0.91729 0.8288 0.0
C1027 C 0.37271 0.90266 0.82919 0.0
C1028 C 0.3987 0.83462 0.82001 0.0
C1029 C 0.45785 0.81685 0.78521 0.0
C1030 C 0.44107 0.83219 0.80099 0.0
C1031 C 0.37358 0.87716 0.8199 0.0
C1032 C 0.3987 0.86226 0.81787 0.0
H1033 H 0.47552 0.75302 0.77499 0.0
H1034 H 0.46041 0.78139 0.80548 0.0
H1035 H 0.41749 0.79844 0.81135 0.0
H1036 H 0.30993 0.87236 0.80227 0.0
H1037 H 0.35056 0.84728 0.8026 0.0
C1038 C 0.73157 0.44782 0.27168 0.0
C1039 C 0.72795 0.47098 0.25905 0.0
C1040 C 0.71325 0.44059 0.28799 0.0
C1041 C 0.67034 0.42781 0.32163 0.0
H1042 H 0.60667 0.42332 0.28579 0.0
C1043 C 0.58553 0.35086 0.33507 0.0
C1044 C 0.58748 0.3331 0.31708 0.0
C1045 C 0.5983 0.37539 0.33408 0.0
C1046 C 0.62396 0.42502 0.29637 0.0
H1047 H 0.70445 0.50671 0.25624 0.0
H1048 H 0.67183 0.49342 0.28415 0.0
H1049 H 0.6406 0.45545 0.27608 0.0
H1050 H 0.60299 0.32724 0.28369 0.0
H1051 H 0.6244 0.37037 0.28164 0.0
H1052 H 0.65432 0.39572 0.34075 0.0
C1053 C 0.68879 0.48083 0.28122 0.0
C1054 C 0.64337 0.44349 0.29092 0.0
C1055 C 0.70735 0.48828 0.26508 0.0
C1056 C 0.60131 0.34058 0.29779 0.0
C1057 C 0.61337 0.36524 0.29657 0.0
C1058 C 0.65071 0.40954 0.32726 0.0
C1059 C 0.69078 0.4562 0.29188 0.0
C1060 C 0.66743 0.44394 0.30265 0.0
C1061 C 0.61235 0.38264 0.3148 0.0
C1062 C 0.62812 0.40707 0.31385 0.0
H1063 H 0.74704 0.43388 0.26759 0.0
H1064 H 0.71529 0.42139 0.29581 0.0
H1065 H 0.68866 0.42784 0.33099 0.0
H1066 H 0.57507 0.34535 0.35018 0.0
H1067 H 0.59752 0.38851 0.34837 0.0
C1068 C 0.05535 0.74793 0.77438 0.0
C1069 C 0.03708 0.73633 0.75955 0.0
C1070 C 0.06662 0.73316 0.79161 0.0
C1071 C 0.10738 0.69409 0.80415 0.0
H1072 H 0.08545 0.62367 0.82161 0.0
C1073 C 0.17743 0.60903 0.79557 0.0
C1074 C 0.18014 0.59064 0.81295 0.0
C1075 C 0.15701 0.62735 0.79585 0.0
C1076 C 0.09179 0.64344 0.81723 0.0
H1077 H 0.01217 0.70166 0.75503 0.0
H1078 H 0.03409 0.67519 0.78277 0.0
H1079 H 0.05206 0.6575 0.81434 0.0
H1080 H 0.16284 0.57613 0.84379 0.0
H1081 H 0.12665 0.60854 0.8442 0.0
H1082 H 0.14695 0.68004 0.8069 0.0
C1083 C 0.0398 0.69571 0.78134 0.0
C1084 C 0.07269 0.66281 0.81281 0.0
C1085 C 0.0276 0.71088 0.76479 0.0
C1086 C 0.16117 0.59011 0.83015 0.0
C1087 C 0.14056 0.60863 0.83044 0.0
C1088 C 0.12627 0.67497 0.80884 0.0
C1089 C 0.06096 0.70608 0.79381 0.0
C1090 C 0.08023 0.688 0.80496 0.0
C1091 C 0.13882 0.62788 0.81358 0.0
C1092 C 0.11869 0.64908 0.81412 0.0
H1093 H 0.06295 0.76763 0.77176 0.0
H1094 H 0.08161 0.74245 0.80183 0.0
H1095 H 0.11443 0.71295 0.79809 0.0
H1096 H 0.19149 0.60973 0.78191 0.0
H1097 H 0.1557 0.64144 0.78226 0.0
C1098 C 0.88221 0.16581 0.31934 0.0
C1099 C 0.90969 0.16801 0.32153 0.0
C1100 C 0.86999 0.14125 0.32067 0.0
C1101 C 0.88041 0.075 0.30449 0.0
H1102 H 0.81158 0.06565 0.3319 0.0
C1103 C 0.80583 0.00903 0.26195 0.0
C1104 C 0.78338 0.02419 0.2566 0.0
C1105 C 0.82256 0.01671 0.2794 0.0
C1106 C 0.83095 0.06765 0.32436 0.0
H1107 H 0.94604 0.14645 0.32732 0.0
H1108 H 0.92454 0.10286 0.32856 0.0
H1109 H 0.84099 0.1004 0.34537 0.0
H1110 H 0.75959 0.05769 0.26706 0.0
H1111 H 0.78824 0.07075 0.29716 0.0
H1112 H 0.86947 0.04426 0.28193 0.0
C1113 C 0.91254 0.12038 0.32636 0.0
C1114 C 0.84778 0.08746 0.33213 0.0
C1115 C 0.92478 0.14519 0.32557 0.0
C1116 C 0.77652 0.04535 0.27066 0.0
C1117 C 0.79309 0.05288 0.2881 0.0
C1118 C 0.86347 0.05535 0.29656 0.0
C1119 C 0.88503 0.11825 0.3238 0.0
C1120 C 0.87191 0.09234 0.3213 0.0
C1121 C 0.81703 0.03955 0.29191 0.0
C1122 C 0.83783 0.05271 0.30542 0.0
H1123 H 0.87009 0.1831 0.31638 0.0
H1124 H 0.84881 0.14013 0.3182 0.0
H1125 H 0.89891 0.07839 0.29584 0.0
H1126 H 0.81132 0.99215 0.25186 0.0
H1127 H 0.84063 0.00575 0.28219 0.0
C1128 C 0.44787 0.73435 0.22476 0.0
C1129 C 0.47046 0.72859 0.23753 0.0
C1130 C 0.44022 0.71781 0.20732 0.0
C1131 C 0.44158 0.64785 0.19717 0.0
H1132 H 0.39313 0.6688 0.15025 0.0
C1133 C 0.3544 0.58181 0.1695 0.0
C1134 C 0.33081 0.59544 0.17404 0.0
C1135 C 0.37843 0.59554 0.16845 0.0
C1136 C 0.40701 0.66248 0.16295 0.0
H1137 H 0.50462 0.70281 0.2399 0.0
H1138 H 0.49077 0.67346 0.20968 0.0
H1139 H 0.4265 0.69998 0.16338 0.0
H1140 H 0.31352 0.63401 0.17984 0.0
H1141 H 0.35505 0.65783 0.17762 0.0
H1142 H 0.4208 0.61103 0.19782 0.0
C1143 C 0.47885 0.69066 0.21346 0.0
C1144 C 0.42605 0.68031 0.17051 0.0
C1145 C 0.48667 0.7074 0.23086 0.0
C1146 C 0.33143 0.62297 0.17651 0.0
C1147 C 0.35518 0.63666 0.17494 0.0
C1148 C 0.42265 0.62994 0.18948 0.0
C1149 C 0.45485 0.69499 0.20225 0.0
C1150 C 0.44225 0.67382 0.18878 0.0
C1151 C 0.37897 0.6231 0.17127 0.0
C1152 C 0.4041 0.63779 0.17338 0.0
H1153 H 0.43469 0.75026 0.2294 0.0
H1154 H 0.42146 0.72167 0.19926 0.0
H1155 H 0.4537 0.64217 0.21129 0.0
H1156 H 0.35437 0.56055 0.16751 0.0
H1157 H 0.39658 0.58465 0.16581 0.0
C1158 C 0.77357 0.45221 0.72952 0.0
C1159 C 0.7796 0.47453 0.74254 0.0
C1160 C 0.79015 0.44443 0.71216 0.0
C1161 C 0.86005 0.4438 0.70258 0.0
H1162 H 0.8382 0.39803 0.65404 0.0
C1163 C 0.92387 0.35608 0.67237 0.0
C1164 C 0.90952 0.33256 0.67531 0.0
C1165 C 0.91082 0.38049 0.67244 0.0
C1166 C 0.84478 0.41112 0.66725 0.0
H1167 H 0.80617 0.50806 0.74545 0.0
H1168 H 0.83573 0.49381 0.71549 0.0
H1169 H 0.80799 0.4319 0.66784 0.0
H1170 H 0.87036 0.3159 0.67955 0.0
H1171 H 0.84772 0.35818 0.67942 0.0
H1172 H 0.89609 0.42171 0.70304 0.0
C1173 C 0.81817 0.48229 0.71898 0.0
C1174 C 0.82751 0.43047 0.67515 0.0
C1175 C 0.80132 0.4903 0.73625 0.0
C1176 C 0.88195 0.33372 0.67746 0.0
C1177 C 0.86894 0.35792 0.67707 0.0
C1178 C 0.87739 0.42454 0.69457 0.0
C1179 C 0.81336 0.4586 0.70744 0.0
C1180 C 0.83429 0.44575 0.6939 0.0
C1181 C 0.88323 0.38157 0.67487 0.0
C1182 C 0.86917 0.40693 0.67784 0.0
H1183 H 0.7573 0.43929 0.73383 0.0
H1184 H 0.78597 0.42589 0.70384 0.0
H1185 H 0.8659 0.45519 0.71708 0.0
H1186 H 0.94517 0.35565 0.67064 0.0
H1187 H 0.92225 0.39848 0.67091 0.0
C1188 C 0.05763 0.77335 0.22876 0.0
C1189 C 0.0347 0.77885 0.24119 0.0
C1190 C 0.06552 0.78997 0.21145 0.0
C1191 C 0.06395 0.8598 0.20071 0.0
H1192 H 0.11209 0.83861 0.1536 0.0
C1193 C 0.15018 0.92625 0.17127 0.0
C1194 C 0.174 0.91292 0.17558 0.0
C1195 C 0.12627 0.91228 0.17078 0.0
C1196 C 0.09831 0.84499 0.16637 0.0
H1197 H 1.00036 0.80446 0.24315 0.0
H1198 H 0.01468 0.83402 0.21319 0.0
H1199 H 0.07909 0.80736 0.1673 0.0
H1200 H 0.19178 0.87462 0.18157 0.0
H1201 H 0.15045 0.85037 0.1803 0.0
H1202 H 0.08448 0.89677 0.20085 0.0
C1203 C 0.02662 0.81689 0.21713 0.0
C1204 C 0.07948 0.82711 0.17424 0.0
C1205 C 0.01854 0.80003 0.23438 0.0
C1206 C 0.1737 0.88543 0.17839 0.0
C1207 C 0.15006 0.87149 0.17738 0.0
C1208 C 0.08269 0.87774 0.19272 0.0
C1209 C 0.0508 0.81266 0.20616 0.0
C1210 C 0.06336 0.83374 0.19254 0.0
C1211 C 0.12606 0.88476 0.17393 0.0
C1212 C 0.10112 0.86984 0.17652 0.0
H1213 H 0.07082 0.75749 0.23353 0.0
H1214 H 0.08443 0.78624 0.20359 0.0
H1215 H 0.05188 0.86556 0.21485 0.0
H1216 H 0.14996 0.94748 0.16904 0.0
H1217 H 0.10796 0.92295 0.16829 0.0
C1218 C 0.70635 0.01385 0.73549 0.0
C1219 C 0.72731 0.0309 0.7411 0.0
C1220 C 0.68814 0.02102 0.71901 0.0
C1221 C 0.64372 0.0589 0.70839 0.0
H1222 H 0.65589 0.10564 0.65805 0.0
C1223 C 0.60357 0.1624 0.70078 0.0
C1224 C 0.58998 0.16995 0.68141 0.0
C1225 C 0.61536 0.13761 0.70212 0.0
C1226 C 0.65193 0.09212 0.67168 0.0
H1227 H 0.74753 0.06701 0.73146 0.0
H1228 H 0.71633 0.07909 0.70272 0.0
H1229 H 0.68936 0.07277 0.66808 0.0
H1230 H 0.57782 0.15773 0.64823 0.0
H1231 H 0.59974 0.11436 0.65027 0.0
H1232 H 0.60756 0.08005 0.71334 0.0
C1233 C 0.71372 0.0603 0.7111 0.0
C1234 C 0.67107 0.07341 0.67747 0.0
C1235 C 0.73172 0.05332 0.72772 0.0
C1236 C 0.5881 0.15219 0.66341 0.0
C1237 C 0.60057 0.12753 0.66453 0.0
C1238 C 0.6248 0.07777 0.70277 0.0
C1239 C 0.69083 0.04515 0.70763 0.0
C1240 C 0.66777 0.05767 0.69665 0.0
C1241 C 0.61426 0.12015 0.68392 0.0
C1242 C 0.62944 0.09538 0.68512 0.0
H1243 H 0.70285 0.99595 0.74496 0.0
H1244 H 0.67088 0.00876 0.7164 0.0
H1245 H 0.64063 0.04725 0.72336 0.0
H1246 H 0.6052 0.17572 0.71489 0.0
H1247 H 0.62613 0.13239 0.71714 0.0
C1248 C 0.7652 0.35045 0.14741 0.0
C1249 C 0.74031 0.36252 0.14982 0.0
C1250 C 0.76733 0.32303 0.14476 0.0
C1251 C 0.73055 0.26167 0.15702 0.0
H1252 H 0.78296 0.22877 0.11885 0.0
C1253 C 0.73735 0.14817 0.14905 0.0
C1254 C 0.76282 0.13706 0.14922 0.0
C1255 C 0.73386 0.17547 0.1466 0.0
C1256 C 0.76835 0.23762 0.12974 0.0
H1257 H 0.69811 0.35515 0.1499 0.0
H1258 H 0.70182 0.30751 0.14525 0.0
H1259 H 0.77845 0.27679 0.11906 0.0
H1260 H 0.80452 0.14609 0.1459 0.0
H1261 H 0.79852 0.19356 0.14216 0.0
H1262 H 0.72075 0.22271 0.16808 0.0
C1263 C 0.71974 0.31917 0.14592 0.0
C1264 C 0.76576 0.26519 0.12984 0.0
C1265 C 0.71761 0.34655 0.14856 0.0
C1266 C 0.78463 0.15392 0.14614 0.0
C1267 C 0.78116 0.1812 0.14373 0.0
C1268 C 0.73319 0.23417 0.15698 0.0
C1269 C 0.74463 0.30697 0.14443 0.0
C1270 C 0.74689 0.27758 0.14356 0.0
C1271 C 0.75575 0.19242 0.14428 0.0
C1272 C 0.75221 0.22173 0.14343 0.0
H1273 H 0.78313 0.36199 0.14848 0.0
H1274 H 0.78684 0.31433 0.14385 0.0
H1275 H 0.71614 0.27052 0.16811 0.0
H1276 H 0.72006 0.13594 0.15155 0.0
H1277 H 0.71396 0.18331 0.14676 0.0
C1278 C 0.35381 0.74316 0.64201 0.0
C1279 C 0.36687 0.76755 0.64431 0.0
C1280 C 0.32631 0.74208 0.6395 0.0
C1281 C 0.26624 0.78119 0.65164 0.0
H1282 H 0.23164 0.72886 0.61451 0.0
C1283 C 0.15227 0.77588 0.6452 0.0
C1284 C 0.14102 0.7505 0.64639 0.0
C1285 C 0.17955 0.77909 0.64215 0.0
C1286 C 0.24097 0.74349 0.62509 0.0
H1287 H 0.36118 0.80997 0.64459 0.0
H1288 H 0.31334 0.80812 0.6401 0.0
H1289 H 0.27974 0.73224 0.61425 0.0
H1290 H 0.1497 0.70866 0.64398 0.0
H1291 H 0.19705 0.71419 0.63905 0.0
H1292 H 0.2276 0.79215 0.6628 0.0
C1293 C 0.3243 0.78977 0.6407 0.0
C1294 C 0.26859 0.74542 0.62494 0.0
C1295 C 0.35178 0.79084 0.64322 0.0
C1296 C 0.15764 0.72849 0.6435 0.0
C1297 C 0.18486 0.73168 0.64041 0.0
C1298 C 0.23865 0.77924 0.65181 0.0
C1299 C 0.31112 0.76536 0.63921 0.0
C1300 C 0.28163 0.76415 0.63837 0.0
C1301 C 0.19629 0.75701 0.6401 0.0
C1302 C 0.22562 0.7602 0.6387 0.0
H1303 H 0.36464 0.72478 0.6431 0.0
H1304 H 0.31687 0.72291 0.63868 0.0
H1305 H 0.27555 0.79556 0.66248 0.0
H1306 H 0.1402 0.7933 0.6474 0.0
H1307 H 0.18756 0.79892 0.64166 0.0
C1308 C 0.71893 0.15877 0.85217 0.0
C1309 C 0.74133 0.1426 0.84973 0.0
C1310 C 0.72153 0.1861 0.85482 0.0
C1311 C 0.76911 0.23936 0.86914 0.0
H1312 H 0.72192 0.28291 0.83385 0.0
C1313 C 0.78717 0.35112 0.85406 0.0
C1314 C 0.76517 0.36798 0.85235 0.0
C1315 C 0.78388 0.32377 0.85611 0.0
C1316 C 0.73501 0.27115 0.84413 0.0
H1317 H 0.78417 0.1427 0.84859 0.0
H1318 H 0.78871 0.19032 0.85332 0.0
H1319 H 0.71697 0.23514 0.83329 0.0
H1320 H 0.7223 0.36898 0.85205 0.0
H1321 H 0.71658 0.32157 0.85627 0.0
H1322 H 0.78726 0.27544 0.87986 0.0
C1323 C 0.76908 0.18179 0.85342 0.0
C1324 C 0.73218 0.24367 0.84378 0.0
C1325 C 0.76648 0.15442 0.85075 0.0
C1326 C 0.73976 0.35679 0.85354 0.0
C1327 C 0.73646 0.32945 0.85564 0.0
C1328 C 0.7719 0.2669 0.86955 0.0
C1329 C 0.74662 0.19804 0.85511 0.0
C1330 C 0.74925 0.22738 0.8562 0.0
C1331 C 0.75847 0.31249 0.85655 0.0
C1332 C 0.75495 0.28318 0.85696 0.0
H1333 H 0.6993 0.15032 0.85182 0.0
H1334 H 0.70382 0.19793 0.85651 0.0
H1335 H 0.78241 0.22745 0.87911 0.0
H1336 H 0.80702 0.35902 0.85342 0.0
H1337 H 0.80132 0.3114 0.85659 0.0
C1338 C 0.3473 0.71908 0.35165 0.0
C1339 C 0.36336 0.74155 0.34906 0.0
C1340 C 0.32003 0.72156 0.35481 0.0
C1341 C 0.26672 0.76904 0.36977 0.0
H1342 H 0.22289 0.72127 0.33528 0.0
C1343 C 0.15487 0.78671 0.35469 0.0
C1344 C 0.13798 0.76469 0.35327 0.0
C1345 C 0.18222 0.78347 0.35689 0.0
C1346 C 0.23475 0.73452 0.34535 0.0
H1347 H 0.36317 0.78437 0.34853 0.0
H1348 H 0.31564 0.78872 0.35396 0.0
H1349 H 0.27066 0.71653 0.33428 0.0
H1350 H 0.13696 0.72183 0.35401 0.0
H1351 H 0.18437 0.71622 0.35832 0.0
H1352 H 0.23069 0.78722 0.38061 0.0
C1353 C 0.32419 0.76912 0.35375 0.0
C1354 C 0.26224 0.73181 0.34475 0.0
C1355 C 0.35153 0.76663 0.35062 0.0
C1356 C 0.14915 0.73932 0.35511 0.0
C1357 C 0.1765 0.73607 0.3573 0.0
C1358 C 0.23917 0.77174 0.37039 0.0
C1359 C 0.308 0.74659 0.35545 0.0
C1360 C 0.27864 0.74909 0.35686 0.0
C1361 C 0.19348 0.75809 0.35778 0.0
C1362 C 0.2228 0.75459 0.35808 0.0
H1363 H 0.35576 0.69947 0.35098 0.0
H1364 H 0.3083 0.70378 0.35655 0.0
H1365 H 0.2787 0.7825 0.37953 0.0
H1366 H 0.14703 0.80655 0.35365 0.0
H1367 H 0.1946 0.80091 0.35708 0.0
C1368 C 0.23687 0.64793 0.84745 0.0
C1369 C 0.26243 0.63696 0.84745 0.0
C1370 C 0.23319 0.67523 0.84963 0.0
C1371 C 0.26753 0.73771 0.86609 0.0
H1372 H 0.21386 0.7703 0.82903 0.0
C1373 C 0.26263 0.85064 0.84918 0.0
C1374 C 0.23752 0.86254 0.84814 0.0
C1375 C 0.26516 0.82318 0.85127 0.0
C1376 C 0.22871 0.76152 0.83972 0.0
H1377 H 0.30405 0.64637 0.8506 0.0
H1378 H 0.29772 0.69381 0.85378 0.0
H1379 H 0.21901 0.72252 0.82872 0.0
H1380 H 0.19544 0.85472 0.84952 0.0
H1381 H 0.19985 0.80696 0.85305 0.0
H1382 H 0.27755 0.77692 0.87667 0.0
C1383 C 0.28044 0.68133 0.85236 0.0
C1384 C 0.23166 0.73403 0.83959 0.0
C1385 C 0.28411 0.65404 0.85026 0.0
C1386 C 0.21506 0.84628 0.8499 0.0
C1387 C 0.21759 0.81885 0.8519 0.0
C1388 C 0.26467 0.76524 0.86612 0.0
C1389 C 0.25494 0.69239 0.85181 0.0
C1390 C 0.25118 0.72169 0.85269 0.0
C1391 C 0.24266 0.80689 0.85229 0.0
C1392 C 0.24528 0.77752 0.85287 0.0
H1393 H 0.21966 0.63557 0.84509 0.0
H1394 H 0.21322 0.6829 0.84945 0.0
H1395 H 0.28249 0.72897 0.87669 0.0
H1396 H 0.28039 0.86237 0.84752 0.0
H1397 H 0.28477 0.81464 0.85126 0.0
C1398 C 0.84891 0.23254 0.35023 0.0
C1399 C 0.85995 0.25796 0.34836 0.0
C1400 C 0.8216 0.22921 0.35287 0.0
C1401 C 0.75949 0.26467 0.36784 0.0
H1402 H 0.72633 0.21095 0.3312 0.0
C1403 C 0.64691 0.26286 0.35019 0.0
C1404 C 0.63419 0.23825 0.34822 0.0
C1405 C 0.67438 0.26438 0.35272 0.0
C1406 C 0.73523 0.22579 0.34184 0.0
H1407 H 0.85087 0.29979 0.34904 0.0
H1408 H 0.8034 0.29402 0.35337 0.0
H1409 H 0.77424 0.215 0.33148 0.0
H1410 H 0.64048 0.19592 0.34837 0.0
H1411 H 0.68828 0.19852 0.35295 0.0
H1412 H 0.7204 0.27568 0.37796 0.0
C1413 C 0.8158 0.27661 0.35284 0.0
C1414 C 0.76279 0.22811 0.342 0.0
C1415 C 0.84307 0.27993 0.35013 0.0
C1416 C 0.64962 0.2152 0.34951 0.0
C1417 C 0.67708 0.21671 0.35208 0.0
C1418 C 0.73191 0.26234 0.36769 0.0
C1419 C 0.80461 0.2512 0.35384 0.0
C1420 C 0.77531 0.24774 0.35484 0.0
C1421 C 0.6899 0.24133 0.35339 0.0
C1422 C 0.71936 0.24301 0.35453 0.0
H1423 H 0.86119 0.21515 0.34885 0.0
H1424 H 0.81375 0.20934 0.35389 0.0
H1425 H 0.76844 0.27977 0.37819 0.0
H1426 H 0.6358 0.28106 0.3489 0.0
H1427 H 0.68352 0.2837 0.35336 0.0
C1428 C 0.26735 0.65315 0.14351 0.0
C1429 C 0.24197 0.64217 0.14598 0.0
C1430 C 0.27068 0.68042 0.1407 0.0
C1431 C 0.23489 0.74276 0.12682 0.0
H1432 H 0.29054 0.77526 0.16178 0.0
C1433 C 0.23939 0.85535 0.14514 0.0
C1434 C 0.26438 0.86746 0.14638 0.0
C1435 C 0.23714 0.82797 0.14229 0.0
C1436 C 0.27515 0.76655 0.15161 0.0
H1437 H 0.20014 0.65139 0.14608 0.0
H1438 H 0.20591 0.6988 0.14158 0.0
H1439 H 0.28599 0.72745 0.16158 0.0
H1440 H 0.30651 0.86029 0.14414 0.0
H1441 H 0.3026 0.81273 0.13902 0.0
H1442 H 0.22381 0.78202 0.11719 0.0
C1443 C 0.2233 0.68635 0.14174 0.0
C1444 C 0.27254 0.73904 0.15149 0.0
C1445 C 0.21999 0.65911 0.14458 0.0
C1446 C 0.28698 0.85162 0.14371 0.0
C1447 C 0.28473 0.82429 0.14082 0.0
C1448 C 0.23749 0.77033 0.12697 0.0
C1449 C 0.24871 0.69746 0.1402 0.0
C1450 C 0.25227 0.72674 0.13922 0.0
C1451 C 0.2598 0.812 0.14053 0.0
C1452 C 0.25756 0.7826 0.13948 0.0
H1453 H 0.28478 0.64087 0.14455 0.0
H1454 H 0.29053 0.68819 0.13921 0.0
H1455 H 0.21926 0.734 0.11694 0.0
H1456 H 0.22156 0.86683 0.1473 0.0
H1457 H 0.21761 0.81922 0.14235 0.0
C1458 C 0.65561 0.28248 0.64567 0.0
C1459 C 0.63911 0.26023 0.64773 0.0
C1460 C 0.68298 0.27962 0.64319 0.0
C1461 C 0.73687 0.23187 0.65438 0.0
H1462 H 0.77851 0.27941 0.61772 0.0
C1463 C 0.84941 0.21784 0.64433 0.0
C1464 C 0.86523 0.24062 0.64573 0.0
C1465 C 0.82193 0.21981 0.64224 0.0
C1466 C 0.76721 0.26609 0.62818 0.0
H1467 H 0.6388 0.21738 0.64832 0.0
H1468 H 0.68627 0.2124 0.64346 0.0
H1469 H 0.73045 0.28343 0.61816 0.0
H1470 H 0.86431 0.28345 0.64543 0.0
H1471 H 0.8165 0.2869 0.64178 0.0
H1472 H 0.77354 0.21468 0.66458 0.0
C1473 C 0.67808 0.23214 0.64409 0.0
C1474 C 0.7396 0.2684 0.62843 0.0
C1475 C 0.65071 0.235 0.64658 0.0
C1476 C 0.85288 0.26546 0.64414 0.0
C1477 C 0.82537 0.26744 0.64207 0.0
C1478 C 0.76442 0.22954 0.65409 0.0
C1479 C 0.69466 0.25441 0.6427 0.0
C1480 C 0.72404 0.25139 0.64163 0.0
C1481 C 0.80947 0.24463 0.64149 0.0
C1482 C 0.78001 0.24668 0.64107 0.0
H1483 H 0.64742 0.3022 0.64625 0.0
H1484 H 0.69505 0.29725 0.64235 0.0
H1485 H 0.72567 0.21874 0.66509 0.0
H1486 H 0.85823 0.1984 0.64511 0.0
H1487 H 0.81042 0.20181 0.64137 0.0
C1488 C 0.77936 0.0424 0.91568 0.0
C1489 C 0.75559 0.03994 0.90377 0.0
C1490 C 0.77916 0.04329 0.93908 0.0
C1491 C 0.73664 0.05752 0.98758 0.0
H1492 H 0.78389 0.01054 0.01944 0.0
C1493 C 0.72724 0.038 0.08282 0.0
C1494 C 0.7508 0.03461 0.09486 0.0
C1495 C 0.72777 0.03985 0.05944 0.0
C1496 C 0.77083 0.0241 0.01087 0.0
H1497 H 0.71295 0.03721 0.90695 0.0
H1498 H 0.71266 0.03896 0.94761 0.0
H1499 H 0.7858 0.01268 0.97882 0.0
H1500 H 0.79343 0.03145 0.09196 0.0
H1501 H 0.7944 0.0354 0.0516 0.0
H1502 H 0.7218 0.06917 0.01961 0.0
C1503 C 0.73142 0.04018 0.93894 0.0
C1504 C 0.77194 0.02528 0.98757 0.0
C1505 C 0.73163 0.03898 0.91564 0.0
C1506 C 0.77486 0.03369 0.08317 0.0
C1507 C 0.77542 0.03581 0.05995 0.0
C1508 C 0.73569 0.05655 0.01093 0.0
C1509 C 0.75516 0.04209 0.95091 0.0
C1510 C 0.75479 0.0419 0.97568 0.0
C1511 C 0.7519 0.03859 0.04773 0.0
C1512 C 0.75273 0.03976 0.02287 0.0
H1513 H 0.79811 0.04322 0.90697 0.0
H1514 H 0.79775 0.04494 0.94792 0.0
H1515 H 0.72332 0.07067 0.97881 0.0
H1516 H 0.70841 0.03875 0.09139 0.0
H1517 H 0.70924 0.04173 0.05055 0.0
C1518 C 0.45383 0.77407 0.41242 0.0
C1519 C 0.46831 0.7548 0.4008 0.0
C1520 C 0.45148 0.7728 0.43572 0.0
C1521 C 0.45987 0.72644 0.48361 0.0
H1522 H 0.46431 0.79082 0.5184 0.0
C1523 C 0.45311 0.72651 0.58043 0.0
C1524 C 0.47017 0.74392 0.59163 0.0
C1525 C 0.45042 0.7278 0.55715 0.0
C1526 C 0.4632 0.77261 0.50895 0.0
H1527 H 0.49207 0.71941 0.40447 0.0
H1528 H 0.48867 0.71765 0.4449 0.0
H1529 H 0.46467 0.79329 0.4778 0.0
H1530 H 0.49827 0.77587 0.58722 0.0
H1531 H 0.49423 0.7776 0.54684 0.0
H1532 H 0.4597 0.70569 0.51476 0.0
C1533 C 0.47845 0.73332 0.43613 0.0
C1534 C 0.46303 0.77407 0.48562 0.0
C1535 C 0.4806 0.73447 0.41291 0.0
C1536 C 0.48478 0.76231 0.57911 0.0
C1537 C 0.48228 0.76346 0.55593 0.0
C1538 C 0.46025 0.72497 0.50694 0.0
C1539 C 0.46372 0.75234 0.44785 0.0
C1540 C 0.46179 0.75098 0.47265 0.0
C1541 C 0.46489 0.74643 0.54464 0.0
C1542 C 0.46237 0.74801 0.51989 0.0
H1543 H 0.44398 0.78987 0.40349 0.0
H1544 H 0.43978 0.78765 0.44419 0.0
H1545 H 0.45838 0.70827 0.47415 0.0
H1546 H 0.44146 0.71225 0.58968 0.0
H1547 H 0.43669 0.71452 0.54901 0.0
C1548 C 0.77989 0.46365 0.0844 0.0
C1549 C 0.75604 0.46518 0.09633 0.0
C1550 C 0.77975 0.46306 0.061 0.0
C1551 C 0.73793 0.44773 0.01243 0.0
H1552 H 0.783 0.49716 0.98086 0.0
C1553 C 0.72725 0.46738 0.91745 0.0
C1554 C 0.75052 0.47195 0.90526 0.0
C1555 C 0.72801 0.46559 0.94081 0.0
C1556 C 0.77057 0.48292 0.98934 0.0
H1557 H 0.71334 0.46653 0.09318 0.0
H1558 H 0.71315 0.46523 0.05249 0.0
H1559 H 0.78509 0.4946 0.02148 0.0
H1560 H 0.79292 0.4775 0.90791 0.0
H1561 H 0.79436 0.47364 0.94829 0.0
H1562 H 0.72359 0.43577 0.98034 0.0
C1563 C 0.73192 0.46455 0.06116 0.0
C1564 C 0.77178 0.48151 0.01263 0.0
C1565 C 0.73207 0.46549 0.08447 0.0
C1566 C 0.77456 0.47429 0.91682 0.0
C1567 C 0.77537 0.47222 0.94005 0.0
C1568 C 0.73691 0.44893 0.98909 0.0
C1569 C 0.75574 0.46358 0.04918 0.0
C1570 C 0.75538 0.46402 0.02441 0.0
C1571 C 0.75211 0.46808 0.9524 0.0
C1572 C 0.75314 0.46662 0.97724 0.0
H1573 H 0.79865 0.46337 0.0931 0.0
H1574 H 0.79839 0.46215 0.05213 0.0
H1575 H 0.72521 0.43391 0.02111 0.0
H1576 H 0.70843 0.46554 0.90898 0.0
H1577 H 0.70966 0.46271 0.94978 0.0
C1578 C 0.04674 0.73078 0.41566 0.0
C1579 C 0.03015 0.74834 0.40412 0.0
C1580 C 0.04884 0.73208 0.43898 0.0
C1581 C 0.03552 0.77723 0.48682 0.0
H1582 H 0.04074 0.71312 0.52191 0.0
C1583 C 0.04712 0.77927 0.58319 0.0
C1584 C 0.03322 0.75991 0.59523 0.0
C1585 C 0.04863 0.77795 0.55983 0.0
C1586 C 0.0391 0.73123 0.51238 0.0
H1587 H 0.0022 0.78049 0.40795 0.0
H1588 H 0.00519 0.78221 0.44842 0.0
H1589 H 0.03906 0.71027 0.48135 0.0
H1590 H 0.00953 0.72437 0.59226 0.0
H1591 H 0.01146 0.72254 0.55175 0.0
H1592 H 0.03433 0.79811 0.51787 0.0
C1593 C 0.01724 0.76796 0.43957 0.0
C1594 C 0.03851 0.72961 0.48907 0.0
C1595 C 0.01534 0.76682 0.41634 0.0
C1596 C 0.02059 0.73948 0.58348 0.0
C1597 C 0.02189 0.7383 0.56022 0.0
C1598 C 0.03589 0.77884 0.51014 0.0
C1599 C 0.03423 0.75084 0.45121 0.0
C1600 C 0.03638 0.75257 0.47599 0.0
C1601 C 0.03609 0.75737 0.54807 0.0
C1602 C 0.03735 0.75584 0.52323 0.0
H1603 H 0.05854 0.71645 0.40665 0.0
H1604 H 0.0623 0.71874 0.44735 0.0
H1605 H 0.03439 0.79538 0.47728 0.0
H1606 H 0.0572 0.79515 0.59181 0.0
H1607 H 0.05997 0.79283 0.55104 0.0
C1608 C 0.22723 0.96713 0.08222 0.0
C1609 C 0.25064 0.9706 0.09444 0.0
C1610 C 0.22798 0.96532 0.05886 0.0
C1611 C 0.2713 0.9808 0.01034 0.0
H1612 H 0.22355 0.93418 0.97858 0.0
C1613 C 0.27848 0.96252 0.91491 0.0
C1614 C 0.2545 0.96516 0.90332 0.0
C1615 C 0.27872 0.96161 0.93831 0.0
C1616 C 0.23695 0.94733 0.98726 0.0
H1617 H 0.29326 0.97418 0.09185 0.0
H1618 H 0.29464 0.97031 0.05144 0.0
H1619 H 0.22228 0.93576 0.01935 0.0
H1620 H 0.21195 0.96819 0.90708 0.0
H1621 H 0.21242 0.96634 0.94774 0.0
H1622 H 0.2861 0.99213 0.97817 0.0
C1623 C 0.27559 0.96975 0.05968 0.0
C1624 C 0.23614 0.94837 0.0106 0.0
C1625 C 0.2748 0.97183 0.08291 0.0
C1626 C 0.23079 0.96627 0.91552 0.0
C1627 C 0.231 0.96502 0.93881 0.0
C1628 C 0.27229 0.97955 0.98703 0.0
C1629 C 0.2522 0.9667 0.0473 0.0
C1630 C 0.2532 0.96524 0.02245 0.0
C1631 C 0.25495 0.96291 0.95046 0.0
C1632 C 0.25499 0.96297 0.97525 0.0
H1633 H 0.20831 0.96616 0.09065 0.0
H1634 H 0.20953 0.96331 0.04987 0.0
H1635 H 0.28441 0.9944 0.01883 0.0
H1636 H 0.29705 0.9616 0.90594 0.0
H1637 H 0.29746 0.95982 0.94691 0.0
C1638 C 0.52165 0.26281 0.58156 0.0
C1639 C 0.53498 0.24333 0.59388 0.0
C1640 C 0.52459 0.26442 0.55844 0.0
C1641 C 0.54427 0.22597 0.50891 0.0
H1642 H 0.54387 0.29518 0.48103 0.0
C1643 C 0.51997 0.23935 0.41615 0.0
C1644 C 0.53318 0.25883 0.4037 0.0
C1645 C 0.52343 0.23754 0.4392 0.0
C1646 C 0.54441 0.2757 0.4885 0.0
H1647 H 0.56182 0.2101 0.59163 0.0
H1648 H 0.56726 0.21306 0.55099 0.0
H1649 H 0.54498 0.29162 0.52159 0.0
H1650 H 0.56042 0.29177 0.40567 0.0
H1651 H 0.56677 0.28844 0.44617 0.0
H1652 H 0.54407 0.21005 0.47581 0.0
C1653 C 0.55427 0.22694 0.55928 0.0
C1654 C 0.54468 0.27364 0.51179 0.0
C1655 C 0.55118 0.22523 0.58253 0.0
C1656 C 0.54984 0.27666 0.41486 0.0
C1657 C 0.55345 0.27474 0.43804 0.0
C1658 C 0.54417 0.22802 0.48561 0.0
C1659 C 0.54113 0.24672 0.547 0.0
C1660 C 0.54391 0.24876 0.52229 0.0
C1661 C 0.54037 0.25502 0.45046 0.0
C1662 C 0.54355 0.25292 0.47512 0.0
H1663 H 0.50883 0.27694 0.58976 0.0
H1664 H 0.51362 0.27945 0.54951 0.0
H1665 H 0.54361 0.2065 0.5164 0.0
H1666 H 0.50681 0.22542 0.4081 0.0
H1667 H 0.5125 0.22255 0.44824 0.0
C1668 C 0.27294 0.55084 0.08244 0.0
C1669 C 0.25372 0.53621 0.09401 0.0
C1670 C 0.27193 0.55294 0.05912 0.0
C1671 C 0.27426 0.54093 0.00942 0.0
H1672 H 0.20645 0.54239 0.97928 0.0
C1673 C 0.26541 0.51823 0.91597 0.0
C1674 C 0.24704 0.53228 0.90302 0.0
C1675 C 0.26578 0.52085 0.93915 0.0
C1676 C 0.22557 0.54236 0.98739 0.0
H1677 H 0.21865 0.51198 0.09025 0.0
H1678 H 0.21738 0.5149 0.04976 0.0
H1679 H 0.20813 0.54423 0.01992 0.0
H1680 H 0.21451 0.56005 0.90419 0.0
H1681 H 0.21544 0.56509 0.9449 0.0
H1682 H 0.29174 0.53973 0.97692 0.0
C1683 C 0.2328 0.52544 0.05859 0.0
C1684 C 0.22653 0.54303 0.01074 0.0
C1685 C 0.23367 0.52356 0.08184 0.0
C1686 C 0.22879 0.54886 0.91379 0.0
C1687 C 0.22932 0.55169 0.93709 0.0
C1688 C 0.27331 0.5405 0.98609 0.0
C1689 C 0.25181 0.54026 0.0469 0.0
C1690 C 0.25088 0.5418 0.02206 0.0
C1691 C 0.24799 0.53784 0.95003 0.0
C1692 C 0.24893 0.54064 0.97478 0.0
H1693 H 0.28851 0.56099 0.09141 0.0
H1694 H 0.28673 0.56476 0.05071 0.0
H1695 H 0.29336 0.5398 0.01752 0.0
H1696 H 0.27957 0.50508 0.9082 0.0
H1697 H 0.27996 0.50933 0.94856 0.0
C1698 C 0.95142 0.22939 0.41312 0.0
C1699 C 0.96592 0.24842 0.40121 0.0
C1700 C 0.9492 0.23104 0.43641 0.0
C1701 C 0.95833 0.27795 0.48383 0.0
H1702 H 0.96248 0.21388 0.51908 0.0
C1703 C 0.95235 0.27857 0.58078 0.0
C1704 C 0.96924 0.26095 0.59194 0.0
C1705 C 0.94956 0.27729 0.5575 0.0
C1706 C 0.96146 0.232 0.5095 0.0
H1707 H 0.9898 0.28381 0.40436 0.0
H1708 H 0.98666 0.2862 0.44479 0.0
H1709 H 0.96248 0.211 0.47852 0.0
H1710 H 0.99702 0.22876 0.58748 0.0
H1711 H 0.99282 0.22706 0.54713 0.0
H1712 H 0.95863 0.29901 0.51484 0.0
C1713 C 0.97632 0.27044 0.43624 0.0
C1714 C 0.96107 0.23031 0.4862 0.0
C1715 C 0.97833 0.26893 0.41303 0.0
C1716 C 0.98364 0.24246 0.5794 0.0
C1717 C 0.98105 0.24132 0.55623 0.0
C1718 C 0.95894 0.27965 0.50715 0.0
C1719 C 0.96161 0.25163 0.44825 0.0
C1720 C 0.95993 0.25329 0.47305 0.0
C1721 C 0.96375 0.25847 0.54498 0.0
C1722 C 0.96097 0.25671 0.52026 0.0
H1723 H 0.94147 0.21348 0.40442 0.0
H1724 H 0.93749 0.21636 0.44509 0.0
H1725 H 0.95691 0.29604 0.47425 0.0
H1726 H 0.94088 0.29292 0.59006 0.0
H1727 H 0.93593 0.29068 0.54939 0.0
loop_
_geom_bond_atom_site_label_1
_geom_bond_atom_site_label_2
_geom_bond_distance
_geom_bond_site_symmetry_2
_ccdc_geom_bond_type
C0 C1 1.351 . S
C0 N3 1.368 1_565 S
C0 H5 0.931 . S
C1 C0 1.351 . S
C1 N2 1.373 . S
C1 H29 0.930 . S
N2 C1 1.373 . S
N2 C4 1.308 1_565 S
N3 C0 1.368 1_545 S
N3 C4 1.335 . S
N3 Co6 2.135 . S
C4 N2 1.308 1_545 S
C4 N3 1.335 . S
C4 H28 0.947 . S
H5 C0 0.931 . S
Co6 N3 2.135 . S
Co6 N9 2.121 . S
Co6 O14 2.055 . S
Co6 O17 2.039 . S
Co6 N20 2.140 . S
C7 O8 1.227 . S
C7 O17 1.265 . S
O8 C7 1.227 . S
N9 Co6 2.121 . S
N9 C11 1.375 . S
N9 C12 1.313 . S
C10 C11 1.338 . S
C10 N13 1.377 . S
C10 H30 0.930 . S
C11 N9 1.375 . S
C11 C10 1.338 . S
C11 H15 0.931 . S
C12 N9 1.313 . S
C12 N13 1.344 . S
C12 H16 0.930 . S
N13 C10 1.377 . S
N13 C12 1.344 . S
O14 Co6 2.055 . S
O14 C18 1.253 . S
H15 C11 0.931 . S
H16 C12 0.930 . S
O17 Co6 2.039 . S
O17 C7 1.265 . S
C18 O14 1.253 . S
C18 O19 1.227 . S
O19 C18 1.227 . S
N20 Co6 2.140 . S
N20 C23 1.346 . S
N20 C24 1.345 . S
C21 C22 1.387 . S
C21 C25 1.391 . S
C22 C21 1.387 . S
C22 C23 1.369 . S
C22 H31 0.929 . S
C23 N20 1.346 . S
C23 C22 1.369 . S
C23 H26 0.928 . S
C24 N20 1.345 . S
C24 C25 1.371 . S
C24 H27 0.931 . S
C25 C21 1.391 . S
C25 C24 1.371 . S
C25 H32 0.930 . S
H26 C23 0.928 . S
H27 C24 0.931 . S
H28 C4 0.947 . S
H29 C1 0.930 . S
H30 C10 0.930 . S
H31 C22 0.929 . S
H32 C25 0.930 . S
C33 C34 1.351 . S
C33 N36 1.368 . S
C33 H38 0.931 . S
C34 C33 1.351 . S
C34 N35 1.373 . S
C34 H62 0.930 . S
N35 C34 1.373 . S
N35 C37 1.340 . S
N36 C33 1.368 . S
N36 C37 1.321 . S
N36 Co39 2.135 . S
C37 N35 1.340 . S
C37 N36 1.321 . S
C37 H61 0.930 . S
H38 C33 0.931 . S
Co39 N36 2.135 . S
Co39 N42 2.121 . S
Co39 O47 2.055 . S
Co39 O50 2.039 . S
Co39 N53 2.140 . S
C40 O41 1.227 . S
C40 O50 1.265 . S
O41 C40 1.227 . S
N42 Co39 2.121 . S
N42 C44 1.375 . S
N42 C45 1.313 . S
C43 C44 1.338 . S
C43 N46 1.377 . S
C43 H63 0.930 . S
C44 N42 1.375 . S
C44 C43 1.338 . S
C44 H48 0.931 . S
C45 N42 1.313 . S
C45 N46 1.344 . S
C45 H49 0.930 . S
N46 C43 1.377 . S
N46 C45 1.344 . S
O47 Co39 2.055 . S
O47 C51 1.253 . S
H48 C44 0.931 . S
H49 C45 0.930 . S
O50 Co39 2.039 . S
O50 C40 1.265 . S
C51 O47 1.253 . S
C51 O52 1.227 . S
O52 C51 1.227 . S
N53 Co39 2.140 . S
N53 C56 1.346 . S
N53 C57 1.345 . S
C54 C55 1.387 . S
C54 C58 1.391 . S
C55 C54 1.387 . S
C55 C56 1.369 . S
C55 H64 0.929 . S
C56 N53 1.346 . S
C56 C55 1.369 . S
C56 H59 0.928 . S
C57 N53 1.345 . S
C57 C58 1.371 . S
C57 H60 0.931 . S
C58 C54 1.391 . S
C58 C57 1.371 . S
C58 H65 0.930 . S
H59 C56 0.928 . S
H60 C57 0.931 . S
H61 C37 0.930 . S
H62 C34 0.930 . S
H63 C43 0.930 . S
H64 C55 0.929 . S
H65 C58 0.930 . S
C66 C67 1.351 . S
C66 N69 1.368 . S
C66 H71 0.931 . S
C67 C66 1.351 . S
C67 N68 1.373 . S
C67 H95 0.930 . S
N68 C67 1.373 . S
N68 C70 1.340 . S
N69 C66 1.368 . S
N69 C70 1.321 . S
N69 Co72 2.135 . S
C70 N68 1.340 . S
C70 N69 1.321 . S
C70 H94 0.930 . S
H71 C66 0.931 . S
Co72 N69 2.135 . S
Co72 N75 2.121 . S
Co72 O80 2.055 . S
Co72 O83 2.039 . S
Co72 N86 2.140 . S
C73 O74 1.227 . S
C73 O83 1.265 . S
O74 C73 1.227 . S
N75 Co72 2.121 . S
N75 C77 1.375 . S
N75 C78 1.313 . S
C76 C77 1.338 . S
C76 N79 1.377 . S
C76 H96 0.930 . S
C77 N75 1.375 . S
C77 C76 1.338 . S
C77 H81 0.931 . S
C78 N75 1.313 . S
C78 N79 1.344 . S
C78 H82 0.930 . S
N79 C76 1.377 . S
N79 C78 1.344 . S
O80 Co72 2.055 . S
O80 C84 1.253 . S
H81 C77 0.931 . S
H82 C78 0.930 . S
O83 Co72 2.039 . S
O83 C73 1.265 . S
C84 O80 1.253 . S
C84 O85 1.227 . S
O85 C84 1.227 . S
N86 Co72 2.140 . S
N86 C89 1.346 . S
N86 C90 1.345 . S
C87 C88 1.387 . S
C87 C91 1.391 . S
C88 C87 1.387 . S
C88 C89 1.369 . S
C88 H97 0.929 . S
C89 N86 1.346 . S
C89 C88 1.369 . S
C89 H92 0.928 . S
C90 N86 1.345 . S
C90 C91 1.371 . S
C90 H93 0.931 . S
C91 C87 1.391 . S
C91 C90 1.371 . S
C91 H98 0.930 . S
H92 C89 0.928 . S
H93 C90 0.931 . S
H94 C70 0.930 . S
H95 C67 0.930 . S
H96 C76 0.930 . S
H97 C88 0.929 . S
H98 C91 0.930 . S
C99 C100 1.351 . S
C99 N102 1.368 1_655 S
C99 H104 0.931 . S
C100 C99 1.351 . S
C100 N101 1.373 . S
C100 H128 0.930 . S
N101 C100 1.373 . S
N101 C103 1.308 1_655 S
N102 C99 1.368 1_455 S
N102 C103 1.335 . S
N102 Co105 2.135 . S
C103 N101 1.308 1_455 S
C103 N102 1.335 . S
C103 H127 0.947 . S
H104 C99 0.931 . S
Co105 N102 2.135 . S
Co105 N108 2.121 . S
Co105 O113 2.055 . S
Co105 O116 2.039 . S
Co105 N119 2.140 . S
C106 O107 1.227 . S
C106 O116 1.265 . S
O107 C106 1.227 . S
N108 Co105 2.121 . S
N108 C110 1.375 . S
N108 C111 1.313 . S
C109 C110 1.338 . S
C109 N112 1.377 . S
C109 H129 0.930 . S
C110 N108 1.375 . S
C110 C109 1.338 . S
C110 H114 0.931 . S
C111 N108 1.313 . S
C111 N112 1.344 . S
C111 H115 0.930 . S
N112 C109 1.377 . S
N112 C111 1.344 . S
O113 Co105 2.055 . S
O113 C117 1.253 . S
H114 C110 0.931 . S
H115 C111 0.930 . S
O116 Co105 2.039 . S
O116 C106 1.265 . S
C117 O113 1.253 . S
C117 O118 1.227 . S
O118 C117 1.227 . S
N119 Co105 2.140 . S
N119 C122 1.346 . S
N119 C123 1.345 . S
C120 C121 1.387 . S
C120 C124 1.391 . S
C121 C120 1.387 . S
C121 C122 1.369 . S
C121 H130 0.929 . S
C122 N119 1.346 . S
C122 C121 1.369 . S
C122 H125 0.928 . S
C123 N119 1.345 . S
C123 C124 1.371 . S
C123 H126 0.931 . S
C124 C120 1.391 . S
C124 C123 1.371 . S
C124 H131 0.930 . S
H125 C122 0.928 . S
H126 C123 0.931 . S
H127 C103 0.947 . S
H128 C100 0.930 . S
H129 C109 0.930 . S
H130 C121 0.929 . S
H131 C124 0.930 . S
C132 C133 1.351 . S
C132 N135 1.368 . S
C132 H137 0.931 . S
C133 C132 1.351 . S
C133 N134 1.373 . S
C133 H161 0.930 . S
N134 C133 1.373 . S
N134 C136 1.340 . S
N135 C132 1.368 . S
N135 C136 1.321 . S
N135 Co138 2.135 . S
C136 N134 1.340 . S
C136 N135 1.321 . S
C136 H160 0.930 . S
H137 C132 0.931 . S
Co138 N135 2.135 . S
Co138 N141 2.121 . S
Co138 O146 2.055 . S
Co138 O149 2.039 . S
Co138 N152 2.140 . S
C139 O140 1.227 . S
C139 O149 1.265 . S
O140 C139 1.227 . S
N141 Co138 2.121 . S
N141 C143 1.375 . S
N141 C144 1.313 . S
C142 C143 1.338 . S
C142 N145 1.377 . S
C142 H162 0.930 . S
C143 N141 1.375 . S
C143 C142 1.338 . S
C143 H147 0.931 . S
C144 N141 1.313 . S
C144 N145 1.344 . S
C144 H148 0.930 . S
N145 C142 1.377 . S
N145 C144 1.344 . S
O146 Co138 2.055 . S
O146 C150 1.253 . S
H147 C143 0.931 . S
H148 C144 0.930 . S
O149 Co138 2.039 . S
O149 C139 1.265 . S
C150 O146 1.253 . S
C150 O151 1.227 . S
O151 C150 1.227 . S
N152 Co138 2.140 . S
N152 C155 1.346 . S
N152 C156 1.345 . S
C153 C154 1.387 . S
C153 C157 1.391 . S
C154 C153 1.387 . S
C154 C155 1.369 . S
C154 H163 0.929 . S
C155 N152 1.346 . S
C155 C154 1.369 . S
C155 H158 0.928 . S
C156 N152 1.345 . S
C156 C157 1.371 . S
C156 H159 0.931 . S
C157 C153 1.391 . S
C157 C156 1.371 . S
C157 H164 0.930 . S
H158 C155 0.928 . S
H159 C156 0.931 . S
H160 C136 0.930 . S
H161 C133 0.930 . S
H162 C142 0.930 . S
H163 C154 0.929 . S
H164 C157 0.930 . S
C165 C166 1.351 . S
C165 N168 1.368 1_655 S
C165 H170 0.931 . S
C166 C165 1.351 . S
C166 N167 1.373 . S
C166 H194 0.930 . S
N167 C166 1.373 . S
N167 C169 1.308 1_655 S
N168 C165 1.368 1_455 S
N168 C169 1.335 . S
N168 Co171 2.135 . S
C169 N167 1.308 1_455 S
C169 N168 1.335 . S
C169 H193 0.947 . S
H170 C165 0.931 . S
Co171 N168 2.135 . S
Co171 N174 2.121 . S
Co171 O179 2.055 . S
Co171 O182 2.039 . S
Co171 N185 2.140 . S
C172 O173 1.227 . S
C172 O182 1.265 . S
O173 C172 1.227 . S
N174 Co171 2.121 . S
N174 C176 1.375 . S
N174 C177 1.313 . S
C175 C176 1.338 . S
C175 N178 1.377 . S
C175 H195 0.930 . S
C176 N174 1.375 . S
C176 C175 1.338 . S
C176 H180 0.931 . S
C177 N174 1.313 . S
C177 N178 1.344 . S
C177 H181 0.930 . S
N178 C175 1.377 . S
N178 C177 1.344 . S
O179 Co171 2.055 . S
O179 C183 1.253 . S
H180 C176 0.931 . S
H181 C177 0.930 . S
O182 Co171 2.039 . S
O182 C172 1.265 . S
C183 O179 1.253 . S
C183 O184 1.227 . S
O184 C183 1.227 . S
N185 Co171 2.140 . S
N185 C188 1.346 . S
N185 C189 1.345 . S
C186 C187 1.387 . S
C186 C190 1.391 . S
C187 C186 1.387 . S
C187 C188 1.369 . S
C187 H196 0.929 . S
C188 N185 1.346 . S
C188 C187 1.369 . S
C188 H191 0.928 . S
C189 N185 1.345 . S
C189 C190 1.371 . S
C189 H192 0.931 . S
C190 C186 1.391 . S
C190 C189 1.371 . S
C190 H197 0.930 . S
H191 C188 0.928 . S
H192 C189 0.931 . S
H193 C169 0.947 . S
H194 C166 0.930 . S
H195 C175 0.930 . S
H196 C187 0.929 . S
H197 C190 0.930 . S
C198 C199 1.351 . S
C198 N201 1.368 1_565 S
C198 H203 0.931 . S
C199 C198 1.351 . S
C199 N200 1.373 . S
C199 H227 0.930 . S
N200 C199 1.373 . S
N200 C202 1.308 1_565 S
N201 C198 1.368 1_545 S
N201 C202 1.335 . S
N201 Co204 2.135 . S
C202 N200 1.308 1_545 S
C202 N201 1.335 . S
C202 H226 0.947 . S
H203 C198 0.931 . S
Co204 N201 2.135 . S
Co204 N207 2.121 . S
Co204 O212 2.055 . S
Co204 O215 2.039 . S
Co204 N218 2.140 . S
C205 O206 1.227 . S
C205 O215 1.265 . S
O206 C205 1.227 . S
N207 Co204 2.121 . S
N207 C209 1.375 . S
N207 C210 1.313 . S
C208 C209 1.338 . S
C208 N211 1.377 . S
C208 H228 0.930 . S
C209 N207 1.375 . S
C209 C208 1.338 . S
C209 H213 0.931 . S
C210 N207 1.313 . S
C210 N211 1.344 . S
C210 H214 0.930 . S
N211 C208 1.377 . S
N211 C210 1.344 . S
O212 Co204 2.055 . S
O212 C216 1.253 . S
H213 C209 0.931 . S
H214 C210 0.930 . S
O215 Co204 2.039 . S
O215 C205 1.265 . S
C216 O212 1.253 . S
C216 O217 1.227 . S
O217 C216 1.227 . S
N218 Co204 2.140 . S
N218 C221 1.346 . S
N218 C222 1.345 . S
C219 C220 1.387 . S
C219 C223 1.391 . S
C220 C219 1.387 . S
C220 C221 1.369 . S
C220 H229 0.929 . S
C221 N218 1.346 . S
C221 C220 1.369 . S
C221 H224 0.928 . S
C222 N218 1.345 . S
C222 C223 1.371 . S
C222 H225 0.931 . S
C223 C219 1.391 . S
C223 C222 1.371 . S
C223 H230 0.930 . S
H224 C221 0.928 . S
H225 C222 0.931 . S
H226 C202 0.947 . S
H227 C199 0.930 . S
H228 C208 0.930 . S
H229 C220 0.929 . S
H230 C223 0.930 . S
C231 C232 1.351 . S
C231 N234 1.368 . S
C231 H236 0.931 . S
C232 C231 1.351 . S
C232 N233 1.373 . S
C232 H260 0.930 . S
N233 C232 1.373 . S
N233 C235 1.340 . S
N234 C231 1.368 . S
N234 C235 1.321 . S
N234 Co237 2.135 . S
C235 N233 1.340 . S
C235 N234 1.321 . S
C235 H259 0.930 . S
H236 C231 0.931 . S
Co237 N234 2.135 . S
Co237 N240 2.121 . S
Co237 O245 2.055 . S
Co237 O248 2.039 . S
Co237 N251 2.140 . S
C238 O239 1.227 . S
C238 O248 1.265 . S
O239 C238 1.227 . S
N240 Co237 2.121 . S
N240 C242 1.375 . S
N240 C243 1.313 . S
C241 C242 1.338 . S
C241 N244 1.377 . S
C241 H261 0.930 . S
C242 N240 1.375 . S
C242 C241 1.338 . S
C242 H246 0.931 . S
C243 N240 1.313 . S
C243 N244 1.344 . S
C243 H247 0.930 . S
N244 C241 1.377 . S
N244 C243 1.344 . S
O245 Co237 2.055 . S
O245 C249 1.253 . S
H246 C242 0.931 . S
H247 C243 0.930 . S
O248 Co237 2.039 . S
O248 C238 1.265 . S
C249 O245 1.253 . S
C249 O250 1.227 . S
O250 C249 1.227 . S
N251 Co237 2.140 . S
N251 C254 1.346 . S
N251 C255 1.345 . S
C252 C253 1.387 . S
C252 C256 1.391 . S
C253 C252 1.387 . S
C253 C254 1.369 . S
C253 H262 0.929 . S
C254 N251 1.346 . S
C254 C253 1.369 . S
C254 H257 0.928 . S
C255 N251 1.345 . S
C255 C256 1.371 . S
C255 H258 0.931 . S
C256 C252 1.391 . S
C256 C255 1.371 . S
C256 H263 0.930 . S
H257 C254 0.928 . S
H258 C255 0.931 . S
H259 C235 0.930 . S
H260 C232 0.930 . S
H261 C241 0.930 . S
H262 C253 0.929 . S
H263 C256 0.930 . S
C264 C265 1.351 . S
C264 N267 1.368 1_545 S
C264 H269 0.931 . S
C265 C264 1.351 . S
C265 N266 1.373 . S
C265 H293 0.930 . S
N266 C265 1.373 . S
N266 C268 1.308 1_545 S
N267 C264 1.368 1_565 S
N267 C268 1.335 . S
N267 Co270 2.135 . S
C268 N266 1.308 1_565 S
C268 N267 1.335 . S
C268 H292 0.947 . S
H269 C264 0.931 . S
Co270 N267 2.135 . S
Co270 N273 2.121 . S
Co270 O278 2.055 . S
Co270 O281 2.039 . S
Co270 N284 2.140 . S
C271 O272 1.227 . S
C271 O281 1.265 . S
O272 C271 1.227 . S
N273 Co270 2.121 . S
N273 C275 1.375 . S
N273 C276 1.313 . S
C274 C275 1.338 . S
C274 N277 1.377 . S
C274 H294 0.930 . S
C275 N273 1.375 . S
C275 C274 1.338 . S
C275 H279 0.931 . S
C276 N273 1.313 . S
C276 N277 1.344 . S
C276 H280 0.930 . S
N277 C274 1.377 . S
N277 C276 1.344 . S
O278 Co270 2.055 . S
O278 C282 1.253 . S
H279 C275 0.931 . S
H280 C276 0.930 . S
O281 Co270 2.039 . S
O281 C271 1.265 . S
C282 O278 1.253 . S
C282 O283 1.227 . S
O283 C282 1.227 . S
N284 Co270 2.140 . S
N284 C287 1.346 . S
N284 C288 1.345 . S
C285 C286 1.387 . S
C285 C289 1.391 . S
C286 C285 1.387 . S
C286 C287 1.369 . S
C286 H295 0.929 . S
C287 N284 1.346 . S
C287 C286 1.369 . S
C287 H290 0.928 . S
C288 N284 1.345 . S
C288 C289 1.371 . S
C288 H291 0.931 . S
C289 C285 1.391 . S
C289 C288 1.371 . S
C289 H296 0.930 . S
H290 C287 0.928 . S
H291 C288 0.931 . S
H292 C268 0.947 . S
H293 C265 0.930 . S
H294 C274 0.930 . S
H295 C286 0.929 . S
H296 C289 0.930 . S
C297 C298 1.351 . S
C297 N300 1.368 . S
C297 H302 0.931 . S
C298 C297 1.351 . S
C298 N299 1.373 . S
C298 H326 0.930 . S
N299 C298 1.373 . S
N299 C301 1.340 . S
N300 C297 1.368 . S
N300 C301 1.321 . S
N300 Co303 2.135 . S
C301 N299 1.340 . S
C301 N300 1.321 . S
C301 H325 0.930 . S
H302 C297 0.931 . S
Co303 N300 2.135 . S
Co303 N306 2.121 . S
Co303 O311 2.055 . S
Co303 O314 2.039 . S
Co303 N317 2.140 . S
C304 O305 1.227 . S
C304 O314 1.265 . S
O305 C304 1.227 . S
N306 Co303 2.121 . S
N306 C308 1.375 . S
N306 C309 1.313 . S
C307 C308 1.338 . S
C307 N310 1.377 . S
C307 H327 0.930 . S
C308 N306 1.375 . S
C308 C307 1.338 . S
C308 H312 0.931 . S
C309 N306 1.313 . S
C309 N310 1.344 . S
C309 H313 0.930 . S
N310 C307 1.377 . S
N310 C309 1.344 . S
O311 Co303 2.055 . S
O311 C315 1.253 . S
H312 C308 0.931 . S
H313 C309 0.930 . S
O314 Co303 2.039 . S
O314 C304 1.265 . S
C315 O311 1.253 . S
C315 O316 1.227 . S
O316 C315 1.227 . S
N317 Co303 2.140 . S
N317 C320 1.346 . S
N317 C321 1.345 . S
C318 C319 1.387 . S
C318 C322 1.391 . S
C319 C318 1.387 . S
C319 C320 1.369 . S
C319 H328 0.929 . S
C320 N317 1.346 . S
C320 C319 1.369 . S
C320 H323 0.928 . S
C321 N317 1.345 . S
C321 C322 1.371 . S
C321 H324 0.931 . S
C322 C318 1.391 . S
C322 C321 1.371 . S
C322 H329 0.930 . S
H323 C320 0.928 . S
H324 C321 0.931 . S
H325 C301 0.930 . S
H326 C298 0.930 . S
H327 C307 0.930 . S
H328 C319 0.929 . S
H329 C322 0.930 . S
C330 C331 1.351 . S
C330 N333 1.368 . S
C330 H335 0.931 . S
C331 C330 1.351 . S
C331 N332 1.373 . S
C331 H359 0.930 . S
N332 C331 1.373 . S
N332 C334 1.340 . S
N333 C330 1.368 . S
N333 C334 1.321 . S
N333 Co336 2.135 . S
C334 N332 1.340 . S
C334 N333 1.321 . S
C334 H358 0.930 . S
H335 C330 0.931 . S
Co336 N333 2.135 . S
Co336 N339 2.121 . S
Co336 O344 2.055 . S
Co336 O347 2.039 . S
Co336 N350 2.140 . S
C337 O338 1.227 . S
C337 O347 1.265 . S
O338 C337 1.227 . S
N339 Co336 2.121 . S
N339 C341 1.375 . S
N339 C342 1.313 . S
C340 C341 1.338 . S
C340 N343 1.377 . S
C340 H360 0.930 . S
C341 N339 1.375 . S
C341 C340 1.338 . S
C341 H345 0.931 . S
C342 N339 1.313 . S
C342 N343 1.344 . S
C342 H346 0.930 . S
N343 C340 1.377 . S
N343 C342 1.344 . S
O344 Co336 2.055 . S
O344 C348 1.253 . S
H345 C341 0.931 . S
H346 C342 0.930 . S
O347 Co336 2.039 . S
O347 C337 1.265 . S
C348 O344 1.253 . S
C348 O349 1.227 . S
O349 C348 1.227 . S
N350 Co336 2.140 . S
N350 C353 1.346 . S
N350 C354 1.345 . S
C351 C352 1.387 . S
C351 C355 1.391 . S
C352 C351 1.387 . S
C352 C353 1.369 . S
C352 H361 0.929 . S
C353 N350 1.346 . S
C353 C352 1.369 . S
C353 H356 0.928 . S
C354 N350 1.345 . S
C354 C355 1.371 . S
C354 H357 0.931 . S
C355 C351 1.391 . S
C355 C354 1.371 . S
C355 H362 0.930 . S
H356 C353 0.928 . S
H357 C354 0.931 . S
H358 C334 0.930 . S
H359 C331 0.930 . S
H360 C340 0.930 . S
H361 C352 0.929 . S
H362 C355 0.930 . S
C363 C364 1.351 . S
C363 N366 1.368 1_455 S
C363 H368 0.931 . S
C364 C363 1.351 . S
C364 N365 1.373 . S
C364 H392 0.930 . S
N365 C364 1.373 . S
N365 C367 1.308 1_455 S
N366 C363 1.368 1_655 S
N366 C367 1.335 . S
N366 Co369 2.135 . S
C367 N365 1.308 1_655 S
C367 N366 1.335 . S
C367 H391 0.947 . S
H368 C363 0.931 . S
Co369 N366 2.135 . S
Co369 N372 2.121 . S
Co369 O377 2.055 . S
Co369 O380 2.039 . S
Co369 N383 2.140 . S
C370 O371 1.227 . S
C370 O380 1.265 . S
O371 C370 1.227 . S
N372 Co369 2.121 . S
N372 C374 1.375 . S
N372 C375 1.313 . S
C373 C374 1.338 . S
C373 N376 1.377 . S
C373 H393 0.930 . S
C374 N372 1.375 . S
C374 C373 1.338 . S
C374 H378 0.931 . S
C375 N372 1.313 . S
C375 N376 1.344 . S
C375 H379 0.930 . S
N376 C373 1.377 . S
N376 C375 1.344 . S
O377 Co369 2.055 . S
O377 C381 1.253 . S
H378 C374 0.931 . S
H379 C375 0.930 . S
O380 Co369 2.039 . S
O380 C370 1.265 . S
C381 O377 1.253 . S
C381 O382 1.227 . S
O382 C381 1.227 . S
N383 Co369 2.140 . S
N383 C386 1.346 . S
N383 C387 1.345 . S
C384 C385 1.387 . S
C384 C388 1.391 . S
C385 C384 1.387 . S
C385 C386 1.369 . S
C385 H394 0.929 . S
C386 N383 1.346 . S
C386 C385 1.369 . S
C386 H389 0.928 . S
C387 N383 1.345 . S
C387 C388 1.371 . S
C387 H390 0.931 . S
C388 C384 1.391 . S
C388 C387 1.371 . S
C388 H395 0.930 . S
H389 C386 0.928 . S
H390 C387 0.931 . S
H391 C367 0.947 . S
H392 C364 0.930 . S
H393 C373 0.930 . S
H394 C385 0.929 . S
H395 C388 0.930 . S
C396 C397 1.351 . S
C396 N399 1.368 . S
C396 H401 0.931 . S
C397 C396 1.351 . S
C397 N398 1.373 . S
C397 H425 0.930 . S
N398 C397 1.373 . S
N398 C400 1.340 . S
N399 C396 1.368 . S
N399 C400 1.321 . S
N399 Co402 2.135 . S
C400 N398 1.340 . S
C400 N399 1.321 . S
C400 H424 0.930 . S
H401 C396 0.931 . S
Co402 N399 2.135 . S
Co402 N405 2.121 . S
Co402 O410 2.055 . S
Co402 O413 2.039 . S
Co402 N416 2.140 . S
C403 O404 1.227 . S
C403 O413 1.265 . S
O404 C403 1.227 . S
N405 Co402 2.121 . S
N405 C407 1.375 . S
N405 C408 1.313 . S
C406 C407 1.338 . S
C406 N409 1.377 . S
C406 H426 0.930 . S
C407 N405 1.375 . S
C407 C406 1.338 . S
C407 H411 0.931 . S
C408 N405 1.313 . S
C408 N409 1.344 . S
C408 H412 0.930 . S
N409 C406 1.377 . S
N409 C408 1.344 . S
O410 Co402 2.055 . S
O410 C414 1.253 . S
H411 C407 0.931 . S
H412 C408 0.930 . S
O413 Co402 2.039 . S
O413 C403 1.265 . S
C414 O410 1.253 . S
C414 O415 1.227 . S
O415 C414 1.227 . S
N416 Co402 2.140 . S
N416 C419 1.346 . S
N416 C420 1.345 . S
C417 C418 1.387 . S
C417 C421 1.391 . S
C418 C417 1.387 . S
C418 C419 1.369 . S
C418 H427 0.929 . S
C419 N416 1.346 . S
C419 C418 1.369 . S
C419 H422 0.928 . S
C420 N416 1.345 . S
C420 C421 1.371 . S
C420 H423 0.931 . S
C421 C417 1.391 . S
C421 C420 1.371 . S
C421 H428 0.930 . S
H422 C419 0.928 . S
H423 C420 0.931 . S
H424 C400 0.930 . S
H425 C397 0.930 . S
H426 C406 0.930 . S
H427 C418 0.929 . S
H428 C421 0.930 . S
C429 C430 1.351 . S
C429 N432 1.368 1_455 S
C429 H434 0.931 . S
C430 C429 1.351 . S
C430 N431 1.373 . S
C430 H458 0.930 . S
N431 C430 1.373 . S
N431 C433 1.308 1_455 S
N432 C429 1.368 1_655 S
N432 C433 1.335 . S
N432 Co435 2.135 . S
C433 N431 1.308 1_655 S
C433 N432 1.335 . S
C433 H457 0.947 . S
H434 C429 0.931 . S
Co435 N432 2.135 . S
Co435 N438 2.121 . S
Co435 O443 2.055 . S
Co435 O446 2.039 . S
Co435 N449 2.140 . S
C436 O437 1.227 . S
C436 O446 1.265 . S
O437 C436 1.227 . S
N438 Co435 2.121 . S
N438 C440 1.375 . S
N438 C441 1.313 . S
C439 C440 1.338 . S
C439 N442 1.377 . S
C439 H459 0.930 . S
C440 N438 1.375 . S
C440 C439 1.338 . S
C440 H444 0.931 . S
C441 N438 1.313 . S
C441 N442 1.344 . S
C441 H445 0.930 . S
N442 C439 1.377 . S
N442 C441 1.344 . S
O443 Co435 2.055 . S
O443 C447 1.253 . S
H444 C440 0.931 . S
H445 C441 0.930 . S
O446 Co435 2.039 . S
O446 C436 1.265 . S
C447 O443 1.253 . S
C447 O448 1.227 . S
O448 C447 1.227 . S
N449 Co435 2.140 . S
N449 C452 1.346 . S
N449 C453 1.345 . S
C450 C451 1.387 . S
C450 C454 1.391 . S
C451 C450 1.387 . S
C451 C452 1.369 . S
C451 H460 0.929 . S
C452 N449 1.346 . S
C452 C451 1.369 . S
C452 H455 0.928 . S
C453 N449 1.345 . S
C453 C454 1.371 . S
C453 H456 0.931 . S
C454 C450 1.391 . S
C454 C453 1.371 . S
C454 H461 0.930 . S
H455 C452 0.928 . S
H456 C453 0.931 . S
H457 C433 0.947 . S
H458 C430 0.930 . S
H459 C439 0.930 . S
H460 C451 0.929 . S
H461 C454 0.930 . S
C462 C463 1.351 . S
C462 N465 1.368 1_545 S
C462 H467 0.931 . S
C463 C462 1.351 . S
C463 N464 1.373 . S
C463 H491 0.930 . S
N464 C463 1.373 . S
N464 C466 1.308 1_545 S
N465 C462 1.368 1_565 S
N465 C466 1.335 . S
N465 Co468 2.135 . S
C466 N464 1.308 1_565 S
C466 N465 1.335 . S
C466 H490 0.947 . S
H467 C462 0.931 . S
Co468 N465 2.135 . S
Co468 N471 2.121 . S
Co468 O476 2.055 . S
Co468 O479 2.039 . S
Co468 N482 2.140 . S
C469 O470 1.227 . S
C469 O479 1.265 . S
O470 C469 1.227 . S
N471 Co468 2.121 . S
N471 C473 1.375 . S
N471 C474 1.313 . S
C472 C473 1.338 . S
C472 N475 1.377 . S
C472 H492 0.930 . S
C473 N471 1.375 . S
C473 C472 1.338 . S
C473 H477 0.931 . S
C474 N471 1.313 . S
C474 N475 1.344 . S
C474 H478 0.930 . S
N475 C472 1.377 . S
N475 C474 1.344 . S
O476 Co468 2.055 . S
O476 C480 1.253 . S
H477 C473 0.931 . S
H478 C474 0.930 . S
O479 Co468 2.039 . S
O479 C469 1.265 . S
C480 O476 1.253 . S
C480 O481 1.227 . S
O481 C480 1.227 . S
N482 Co468 2.140 . S
N482 C485 1.346 . S
N482 C486 1.345 . S
C483 C484 1.387 . S
C483 C487 1.391 . S
C484 C483 1.387 . S
C484 C485 1.369 . S
C484 H493 0.929 . S
C485 N482 1.346 . S
C485 C484 1.369 . S
C485 H488 0.928 . S
C486 N482 1.345 . S
C486 C487 1.371 . S
C486 H489 0.931 . S
C487 C483 1.391 . S
C487 C486 1.371 . S
C487 H494 0.930 . S
H488 C485 0.928 . S
H489 C486 0.931 . S
H490 C466 0.947 . S
H491 C463 0.930 . S
H492 C472 0.930 . S
H493 C484 0.929 . S
H494 C487 0.930 . S
C495 C496 1.351 . S
C495 N498 1.368 . S
C495 H500 0.931 . S
C496 C495 1.351 . S
C496 N497 1.373 . S
C496 H524 0.930 . S
N497 C496 1.373 . S
N497 C499 1.340 . S
N498 C495 1.368 . S
N498 C499 1.321 . S
N498 Co501 2.135 . S
C499 N497 1.340 . S
C499 N498 1.321 . S
C499 H523 0.930 . S
H500 C495 0.931 . S
Co501 N498 2.135 . S
Co501 N504 2.121 . S
Co501 O509 2.055 . S
Co501 O512 2.039 . S
Co501 N515 2.140 . S
C502 O503 1.227 . S
C502 O512 1.265 . S
O503 C502 1.227 . S
N504 Co501 2.121 . S
N504 C506 1.375 . S
N504 C507 1.313 . S
C505 C506 1.338 . S
C505 N508 1.377 . S
C505 H525 0.930 . S
C506 N504 1.375 . S
C506 C505 1.338 . S
C506 H510 0.931 . S
C507 N504 1.313 . S
C507 N508 1.344 . S
C507 H511 0.930 . S
N508 C505 1.377 . S
N508 C507 1.344 . S
O509 Co501 2.055 . S
O509 C513 1.253 . S
H510 C506 0.931 . S
H511 C507 0.930 . S
O512 Co501 2.039 . S
O512 C502 1.265 . S
C513 O509 1.253 . S
C513 O514 1.227 . S
O514 C513 1.227 . S
N515 Co501 2.140 . S
N515 C518 1.346 . S
N515 C519 1.345 . S
C516 C517 1.387 . S
C516 C520 1.391 . S
C517 C516 1.387 . S
C517 C518 1.369 . S
C517 H526 0.929 . S
C518 N515 1.346 . S
C518 C517 1.369 . S
C518 H521 0.928 . S
C519 N515 1.345 . S
C519 C520 1.371 . S
C519 H522 0.931 . S
C520 C516 1.391 . S
C520 C519 1.371 . S
C520 H527 0.930 . S
H521 C518 0.928 . S
H522 C519 0.931 . S
H523 C499 0.930 . S
H524 C496 0.930 . S
H525 C505 0.930 . S
H526 C517 0.929 . S
H527 C520 0.930 . S
C528 C529 1.349 . S
C528 C530 1.327 . S
C528 H553 0.950 . S
C529 C528 1.349 . S
C529 C545 1.349 . S
C530 C528 1.327 . S
C530 C549 1.429 . S
C530 H554 0.950 . S
C531 C548 1.574 . S
C531 C550 1.368 . S
C531 H555 0.949 . S
H532 C536 0.949 . S
C533 C534 1.349 . S
C533 C535 1.327 . S
C533 H556 0.950 . S
C534 C533 1.349 . S
C534 C546 1.349 . S
C535 C533 1.327 . S
C535 C551 1.429 . S
C535 H557 0.950 . S
C536 H532 0.949 . S
C536 C544 1.574 . S
C536 C552 1.368 . S
H537 C545 0.950 . S
H538 C543 0.950 . S
H539 C544 0.949 . S
H540 C546 0.950 . S
H541 C547 0.950 . S
H542 C548 0.949 . S
C543 H538 0.950 . S
C543 C545 1.327 . S
C543 C549 1.429 . S
C544 C536 1.574 . S
C544 H539 0.949 . S
C544 C550 1.368 . S
C545 C529 1.349 . S
C545 H537 0.950 . S
C545 C543 1.327 . S
C546 C534 1.349 . S
C546 H540 0.950 . S
C546 C547 1.327 . S
C547 H541 0.950 . S
C547 C546 1.327 . S
C547 C551 1.429 . S
C548 C531 1.574 . S
C548 H542 0.949 . S
C548 C552 1.368 . S
C549 C530 1.429 . S
C549 C543 1.429 . S
C549 C550 1.523 . S
C550 C531 1.368 . S
C550 C544 1.368 . S
C550 C549 1.523 . S
C551 C535 1.429 . S
C551 C547 1.429 . S
C551 C552 1.523 . S
C552 C536 1.368 . S
C552 C548 1.368 . S
C552 C551 1.523 . S
H553 C528 0.950 . S
H554 C530 0.950 . S
H555 C531 0.949 . S
H556 C533 0.950 . S
H557 C535 0.950 . S
C558 C559 1.349 . S
C558 C560 1.327 . S
C558 H583 0.950 . S
C559 C558 1.349 . S
C559 C575 1.349 . S
C560 C558 1.327 . S
C560 C579 1.429 . S
C560 H584 0.950 . S
C561 C578 1.574 . S
C561 C580 1.368 . S
C561 H585 0.949 . S
H562 C566 0.949 . S
C563 C564 1.349 . S
C563 C565 1.327 . S
C563 H586 0.950 . S
C564 C563 1.349 . S
C564 C576 1.349 . S
C565 C563 1.327 . S
C565 C581 1.429 . S
C565 H587 0.950 . S
C566 H562 0.949 . S
C566 C574 1.574 . S
C566 C582 1.368 . S
H567 C575 0.950 . S
H568 C573 0.950 . S
H569 C574 0.949 . S
H570 C576 0.950 . S
H571 C577 0.950 . S
H572 C578 0.949 . S
C573 H568 0.950 . S
C573 C575 1.327 . S
C573 C579 1.429 . S
C574 C566 1.574 . S
C574 H569 0.949 . S
C574 C580 1.368 . S
C575 C559 1.349 . S
C575 H567 0.950 . S
C575 C573 1.327 . S
C576 C564 1.349 . S
C576 H570 0.950 . S
C576 C577 1.327 . S
C577 H571 0.950 . S
C577 C576 1.327 . S
C577 C581 1.429 . S
C578 C561 1.574 . S
C578 H572 0.949 . S
C578 C582 1.368 . S
C579 C560 1.429 . S
C579 C573 1.429 . S
C579 C580 1.523 . S
C580 C561 1.368 . S
C580 C574 1.368 . S
C580 C579 1.523 . S
C581 C565 1.429 . S
C581 C577 1.429 . S
C581 C582 1.523 . S
C582 C566 1.368 . S
C582 C578 1.368 . S
C582 C581 1.523 . S
H583 C558 0.950 . S
H584 C560 0.950 . S
H585 C561 0.949 . S
H586 C563 0.950 . S
H587 C565 0.950 . S
C588 C589 1.349 . S
C588 C590 1.327 . S
C588 H613 0.950 . S
C589 C588 1.349 . S
C589 C605 1.349 . S
C590 C588 1.327 . S
C590 C609 1.429 . S
C590 H614 0.950 . S
C591 C608 1.574 . S
C591 C610 1.368 . S
C591 H615 0.949 . S
H592 C596 0.949 . S
C593 C594 1.349 . S
C593 C595 1.327 . S
C593 H616 0.950 . S
C594 C593 1.349 . S
C594 C606 1.349 . S
C595 C593 1.327 . S
C595 C611 1.429 . S
C595 H617 0.950 . S
C596 H592 0.949 . S
C596 C604 1.574 . S
C596 C612 1.368 . S
H597 C605 0.950 . S
H598 C603 0.950 . S
H599 C604 0.949 . S
H600 C606 0.950 . S
H601 C607 0.950 . S
H602 C608 0.949 . S
C603 H598 0.950 . S
C603 C605 1.327 . S
C603 C609 1.429 . S
C604 C596 1.574 . S
C604 H599 0.949 . S
C604 C610 1.368 . S
C605 C589 1.349 . S
C605 H597 0.950 . S
C605 C603 1.327 . S
C606 C594 1.349 . S
C606 H600 0.950 . S
C606 C607 1.327 . S
C607 H601 0.950 . S
C607 C606 1.327 . S
C607 C611 1.429 . S
C608 C591 1.574 . S
C608 H602 0.949 . S
C608 C612 1.368 . S
C609 C590 1.429 . S
C609 C603 1.429 . S
C609 C610 1.523 . S
C610 C591 1.368 . S
C610 C604 1.368 . S
C610 C609 1.523 . S
C611 C595 1.429 . S
C611 C607 1.429 . S
C611 C612 1.523 . S
C612 C596 1.368 . S
C612 C608 1.368 . S
C612 C611 1.523 . S
H613 C588 0.950 . S
H614 C590 0.950 . S
H615 C591 0.949 . S
H616 C593 0.950 . S
H617 C595 0.950 . S
C618 C619 1.349 . S
C618 C620 1.327 . S
C618 H643 0.950 . S
C619 C618 1.349 . S
C619 C635 1.349 . S
C620 C618 1.327 . S
C620 C639 1.429 . S
C620 H644 0.950 . S
C621 C638 1.574 . S
C621 C640 1.368 . S
C621 H645 0.949 . S
H622 C626 0.949 . S
C623 C624 1.349 . S
C623 C625 1.327 . S
C623 H646 0.950 . S
C624 C623 1.349 . S
C624 C636 1.349 . S
C625 C623 1.327 . S
C625 C641 1.429 . S
C625 H647 0.950 . S
C626 H622 0.949 . S
C626 C634 1.574 . S
C626 C642 1.368 . S
H627 C635 0.950 . S
H628 C633 0.950 . S
H629 C634 0.949 . S
H630 C636 0.950 . S
H631 C637 0.950 . S
H632 C638 0.949 . S
C633 H628 0.950 . S
C633 C635 1.327 . S
C633 C639 1.429 . S
C634 C626 1.574 . S
C634 H629 0.949 . S
C634 C640 1.368 . S
C635 C619 1.349 . S
C635 H627 0.950 . S
C635 C633 1.327 . S
C636 C624 1.349 . S
C636 H630 0.950 . S
C636 C637 1.327 . S
C637 H631 0.950 . S
C637 C636 1.327 . S
C637 C641 1.429 . S
C638 C621 1.574 . S
C638 H632 0.949 . S
C638 C642 1.368 . S
C639 C620 1.429 . S
C639 C633 1.429 . S
C639 C640 1.523 . S
C640 C621 1.368 . S
C640 C634 1.368 . S
C640 C639 1.523 . S
C641 C625 1.429 . S
C641 C637 1.429 . S
C641 C642 1.523 . S
C642 C626 1.368 . S
C642 C638 1.368 . S
C642 C641 1.523 . S
H643 C618 0.950 . S
H644 C620 0.950 . S
H645 C621 0.949 . S
H646 C623 0.950 . S
H647 C625 0.950 . S
C648 C649 1.349 . S
C648 C650 1.327 . S
C648 H673 0.950 . S
C649 C648 1.349 . S
C649 C665 1.349 . S
C650 C648 1.327 . S
C650 C669 1.429 . S
C650 H674 0.950 . S
C651 C668 1.574 . S
C651 C670 1.368 . S
C651 H675 0.949 . S
H652 C656 0.949 . S
C653 C654 1.349 . S
C653 C655 1.327 . S
C653 H676 0.950 . S
C654 C653 1.349 . S
C654 C666 1.349 . S
C655 C653 1.327 . S
C655 C671 1.429 . S
C655 H677 0.950 . S
C656 H652 0.949 . S
C656 C664 1.574 . S
C656 C672 1.368 . S
H657 C665 0.950 . S
H658 C663 0.950 . S
H659 C664 0.949 . S
H660 C666 0.950 . S
H661 C667 0.950 . S
H662 C668 0.949 . S
C663 H658 0.950 . S
C663 C665 1.327 . S
C663 C669 1.429 . S
C664 C656 1.574 . S
C664 H659 0.949 . S
C664 C670 1.368 . S
C665 C649 1.349 . S
C665 H657 0.950 . S
C665 C663 1.327 . S
C666 C654 1.349 . S
C666 H660 0.950 . S
C666 C667 1.327 . S
C667 H661 0.950 . S
C667 C666 1.327 . S
C667 C671 1.429 . S
C668 C651 1.574 . S
C668 H662 0.949 . S
C668 C672 1.368 . S
C669 C650 1.429 . S
C669 C663 1.429 . S
C669 C670 1.523 . S
C670 C651 1.368 . S
C670 C664 1.368 . S
C670 C669 1.523 . S
C671 C655 1.429 . S
C671 C667 1.429 . S
C671 C672 1.523 . S
C672 C656 1.368 . S
C672 C668 1.368 . S
C672 C671 1.523 . S
H673 C648 0.950 . S
H674 C650 0.950 . S
H675 C651 0.949 . S
H676 C653 0.950 . S
H677 C655 0.950 . S
C678 C679 1.349 . S
C678 C680 1.327 . S
C678 H703 0.950 . S
C679 C678 1.349 . S
C679 C695 1.349 . S
C680 C678 1.327 . S
C680 C699 1.429 . S
C680 H704 0.950 . S
C681 C698 1.574 . S
C681 C700 1.368 . S
C681 H705 0.949 . S
H682 C686 0.949 . S
C683 C684 1.349 . S
C683 C685 1.327 . S
C683 H706 0.950 . S
C684 C683 1.349 . S
C684 C696 1.349 . S
C685 C683 1.327 . S
C685 C701 1.429 . S
C685 H707 0.950 . S
C686 H682 0.949 . S
C686 C694 1.574 . S
C686 C702 1.368 . S
H687 C695 0.950 . S
H688 C693 0.950 . S
H689 C694 0.949 . S
H690 C696 0.950 . S
H691 C697 0.950 . S
H692 C698 0.949 . S
C693 H688 0.950 . S
C693 C695 1.327 . S
C693 C699 1.429 . S
C694 C686 1.574 . S
C694 H689 0.949 . S
C694 C700 1.368 . S
C695 C679 1.349 . S
C695 H687 0.950 . S
C695 C693 1.327 . S
C696 C684 1.349 . S
C696 H690 0.950 . S
C696 C697 1.327 . S
C697 H691 0.950 . S
C697 C696 1.327 . S
C697 C701 1.429 . S
C698 C681 1.574 . S
C698 H692 0.949 . S
C698 C702 1.368 . S
C699 C680 1.429 . S
C699 C693 1.429 . S
C699 C700 1.523 . S
C700 C681 1.368 . S
C700 C694 1.368 . S
C700 C699 1.523 . S
C701 C685 1.429 . S
C701 C697 1.429 . S
C701 C702 1.523 . S
C702 C686 1.368 . S
C702 C698 1.368 . S
C702 C701 1.523 . S
H703 C678 0.950 . S
H704 C680 0.950 . S
H705 C681 0.949 . S
H706 C683 0.950 . S
H707 C685 0.950 . S
C708 C709 1.349 . S
C708 C710 1.327 . S
C708 H733 0.950 . S
C709 C708 1.349 . S
C709 C725 1.349 . S
C710 C708 1.327 . S
C710 C729 1.429 . S
C710 H734 0.950 . S
C711 C728 1.574 . S
C711 C730 1.368 . S
C711 H735 0.949 . S
H712 C716 0.949 . S
C713 C714 1.349 . S
C713 C715 1.327 . S
C713 H736 0.950 . S
C714 C713 1.349 . S
C714 C726 1.349 . S
C715 C713 1.327 . S
C715 C731 1.429 . S
C715 H737 0.950 . S
C716 H712 0.949 . S
C716 C724 1.574 . S
C716 C732 1.368 . S
H717 C725 0.950 . S
H718 C723 0.950 . S
H719 C724 0.949 . S
H720 C726 0.950 . S
H721 C727 0.950 . S
H722 C728 0.949 . S
C723 H718 0.950 . S
C723 C725 1.327 . S
C723 C729 1.429 . S
C724 C716 1.574 . S
C724 H719 0.949 . S
C724 C730 1.368 . S
C725 C709 1.349 . S
C725 H717 0.950 . S
C725 C723 1.327 . S
C726 C714 1.349 . S
C726 H720 0.950 . S
C726 C727 1.327 . S
C727 H721 0.950 . S
C727 C726 1.327 . S
C727 C731 1.429 . S
C728 C711 1.574 . S
C728 H722 0.949 . S
C728 C732 1.368 . S
C729 C710 1.429 . S
C729 C723 1.429 . S
C729 C730 1.523 . S
C730 C711 1.368 . S
C730 C724 1.368 . S
C730 C729 1.523 . S
C731 C715 1.429 . S
C731 C727 1.429 . S
C731 C732 1.523 . S
C732 C716 1.368 . S
C732 C728 1.368 . S
C732 C731 1.523 . S
H733 C708 0.950 . S
H734 C710 0.950 . S
H735 C711 0.949 . S
H736 C713 0.950 . S
H737 C715 0.950 . S
C738 C739 1.349 . S
C738 C740 1.327 . S
C738 H763 0.950 . S
C739 C738 1.349 . S
C739 C755 1.349 . S
C740 C738 1.327 . S
C740 C759 1.429 . S
C740 H764 0.950 . S
C741 C758 1.574 . S
C741 C760 1.368 . S
C741 H765 0.949 . S
H742 C746 0.949 . S
C743 C744 1.349 . S
C743 C745 1.327 . S
C743 H766 0.950 . S
C744 C743 1.349 . S
C744 C756 1.349 . S
C745 C743 1.327 . S
C745 C761 1.429 . S
C745 H767 0.950 . S
C746 H742 0.949 . S
C746 C754 1.574 . S
C746 C762 1.368 . S
H747 C755 0.950 . S
H748 C753 0.950 . S
H749 C754 0.949 . S
H750 C756 0.950 . S
H751 C757 0.950 . S
H752 C758 0.949 . S
C753 H748 0.950 . S
C753 C755 1.327 . S
C753 C759 1.429 . S
C754 C746 1.574 . S
C754 H749 0.949 . S
C754 C760 1.368 . S
C755 C739 1.349 . S
C755 H747 0.950 . S
C755 C753 1.327 . S
C756 C744 1.349 . S
C756 H750 0.950 . S
C756 C757 1.327 . S
C757 H751 0.950 . S
C757 C756 1.327 . S
C757 C761 1.429 . S
C758 C741 1.574 . S
C758 H752 0.949 . S
C758 C762 1.368 . S
C759 C740 1.429 . S
C759 C753 1.429 . S
C759 C760 1.523 . S
C760 C741 1.368 . S
C760 C754 1.368 . S
C760 C759 1.523 . S
C761 C745 1.429 . S
C761 C757 1.429 . S
C761 C762 1.523 . S
C762 C746 1.368 . S
C762 C758 1.368 . S
C762 C761 1.523 . S
H763 C738 0.950 . S
H764 C740 0.950 . S
H765 C741 0.949 . S
H766 C743 0.950 . S
H767 C745 0.950 . S
C768 C769 1.349 . S
C768 C770 1.327 . S
C768 H793 0.950 . S
C769 C768 1.349 . S
C769 C785 1.349 . S
C770 C768 1.327 . S
C770 C789 1.429 . S
C770 H794 0.950 . S
C771 C788 1.574 . S
C771 C790 1.368 . S
C771 H795 0.949 . S
H772 C776 0.949 . S
C773 C774 1.349 . S
C773 C775 1.327 . S
C773 H796 0.950 . S
C774 C773 1.349 . S
C774 C786 1.349 . S
C775 C773 1.327 . S
C775 C791 1.429 . S
C775 H797 0.950 . S
C776 H772 0.949 . S
C776 C784 1.574 . S
C776 C792 1.368 . S
H777 C785 0.950 . S
H778 C783 0.950 . S
H779 C784 0.949 . S
H780 C786 0.950 . S
H781 C787 0.950 . S
H782 C788 0.949 . S
C783 H778 0.950 . S
C783 C785 1.327 . S
C783 C789 1.429 . S
C784 C776 1.574 . S
C784 H779 0.949 . S
C784 C790 1.368 . S
C785 C769 1.349 . S
C785 H777 0.950 . S
C785 C783 1.327 . S
C786 C774 1.349 . S
C786 H780 0.950 . S
C786 C787 1.327 . S
C787 H781 0.950 . S
C787 C786 1.327 . S
C787 C791 1.429 . S
C788 C771 1.574 . S
C788 H782 0.949 . S
C788 C792 1.368 . S
C789 C770 1.429 . S
C789 C783 1.429 . S
C789 C790 1.523 . S
C790 C771 1.368 . S
C790 C784 1.368 . S
C790 C789 1.523 . S
C791 C775 1.429 . S
C791 C787 1.429 . S
C791 C792 1.523 . S
C792 C776 1.368 . S
C792 C788 1.368 . S
C792 C791 1.523 . S
H793 C768 0.950 . S
H794 C770 0.950 . S
H795 C771 0.949 . S
H796 C773 0.950 . S
H797 C775 0.950 . S
C798 C799 1.349 . S
C798 C800 1.327 . S
C798 H823 0.950 . S
C799 C798 1.349 . S
C799 C815 1.349 . S
C800 C798 1.327 . S
C800 C819 1.429 . S
C800 H824 0.950 . S
C801 C818 1.574 . S
C801 C820 1.368 . S
C801 H825 0.949 . S
H802 C806 0.949 . S
C803 C804 1.349 . S
C803 C805 1.327 . S
C803 H826 0.950 . S
C804 C803 1.349 . S
C804 C816 1.349 . S
C805 C803 1.327 . S
C805 C821 1.429 . S
C805 H827 0.950 . S
C806 H802 0.949 . S
C806 C814 1.574 . S
C806 C822 1.368 . S
H807 C815 0.950 . S
H808 C813 0.950 . S
H809 C814 0.949 . S
H810 C816 0.950 . S
H811 C817 0.950 . S
H812 C818 0.949 . S
C813 H808 0.950 . S
C813 C815 1.327 . S
C813 C819 1.429 . S
C814 C806 1.574 . S
C814 H809 0.949 . S
C814 C820 1.368 . S
C815 C799 1.349 . S
C815 H807 0.950 . S
C815 C813 1.327 . S
C816 C804 1.349 . S
C816 H810 0.950 . S
C816 C817 1.327 . S
C817 H811 0.950 . S
C817 C816 1.327 . S
C817 C821 1.429 . S
C818 C801 1.574 . S
C818 H812 0.949 . S
C818 C822 1.368 . S
C819 C800 1.429 . S
C819 C813 1.429 . S
C819 C820 1.523 . S
C820 C801 1.368 . S
C820 C814 1.368 . S
C820 C819 1.523 . S
C821 C805 1.429 . S
C821 C817 1.429 . S
C821 C822 1.523 . S
C822 C806 1.368 . S
C822 C818 1.368 . S
C822 C821 1.523 . S
H823 C798 0.950 . S
H824 C800 0.950 . S
H825 C801 0.949 . S
H826 C803 0.950 . S
H827 C805 0.950 . S
C828 C829 1.349 . S
C828 C830 1.327 . S
C828 H853 0.950 . S
C829 C828 1.349 . S
C829 C845 1.349 . S
C830 C828 1.327 . S
C830 C849 1.429 . S
C830 H854 0.950 . S
C831 C848 1.574 . S
C831 C850 1.368 . S
C831 H855 0.949 . S
H832 C836 0.949 . S
C833 C834 1.349 . S
C833 C835 1.327 . S
C833 H856 0.950 . S
C834 C833 1.349 . S
C834 C846 1.349 . S
C835 C833 1.327 . S
C835 C851 1.429 . S
C835 H857 0.950 . S
C836 H832 0.949 . S
C836 C844 1.574 . S
C836 C852 1.368 . S
H837 C845 0.950 . S
H838 C843 0.950 . S
H839 C844 0.949 . S
H840 C846 0.950 . S
H841 C847 0.950 . S
H842 C848 0.949 . S
C843 H838 0.950 . S
C843 C845 1.327 . S
C843 C849 1.429 . S
C844 C836 1.574 . S
C844 H839 0.949 . S
C844 C850 1.368 . S
C845 C829 1.349 . S
C845 H837 0.950 . S
C845 C843 1.327 . S
C846 C834 1.349 . S
C846 H840 0.950 . S
C846 C847 1.327 . S
C847 H841 0.950 . S
C847 C846 1.327 . S
C847 C851 1.429 . S
C848 C831 1.574 . S
C848 H842 0.949 . S
C848 C852 1.368 . S
C849 C830 1.429 . S
C849 C843 1.429 . S
C849 C850 1.523 . S
C850 C831 1.368 . S
C850 C844 1.368 . S
C850 C849 1.523 . S
C851 C835 1.429 . S
C851 C847 1.429 . S
C851 C852 1.523 . S
C852 C836 1.368 . S
C852 C848 1.368 . S
C852 C851 1.523 . S
H853 C828 0.950 . S
H854 C830 0.950 . S
H855 C831 0.949 . S
H856 C833 0.950 . S
H857 C835 0.950 . S
C858 C859 1.349 . S
C858 C860 1.327 . S
C858 H883 0.950 . S
C859 C858 1.349 . S
C859 C875 1.349 . S
C860 C858 1.327 . S
C860 C879 1.429 . S
C860 H884 0.950 . S
C861 C878 1.574 . S
C861 C880 1.368 . S
C861 H885 0.949 . S
H862 C866 0.949 . S
C863 C864 1.349 . S
C863 C865 1.327 . S
C863 H886 0.950 . S
C864 C863 1.349 . S
C864 C876 1.349 . S
C865 C863 1.327 . S
C865 C881 1.429 . S
C865 H887 0.950 . S
C866 H862 0.949 . S
C866 C874 1.574 . S
C866 C882 1.368 . S
H867 C875 0.950 . S
H868 C873 0.950 . S
H869 C874 0.949 . S
H870 C876 0.950 . S
H871 C877 0.950 . S
H872 C878 0.949 . S
C873 H868 0.950 . S
C873 C875 1.327 . S
C873 C879 1.429 . S
C874 C866 1.574 . S
C874 H869 0.949 . S
C874 C880 1.368 . S
C875 C859 1.349 . S
C875 H867 0.950 . S
C875 C873 1.327 . S
C876 C864 1.349 . S
C876 H870 0.950 . S
C876 C877 1.327 . S
C877 H871 0.950 . S
C877 C876 1.327 . S
C877 C881 1.429 . S
C878 C861 1.574 . S
C878 H872 0.949 . S
C878 C882 1.368 . S
C879 C860 1.429 . S
C879 C873 1.429 . S
C879 C880 1.523 . S
C880 C861 1.368 . S
C880 C874 1.368 . S
C880 C879 1.523 . S
C881 C865 1.429 . S
C881 C877 1.429 . S
C881 C882 1.523 . S
C882 C866 1.368 . S
C882 C878 1.368 . S
C882 C881 1.523 . S
H883 C858 0.950 . S
H884 C860 0.950 . S
H885 C861 0.949 . S
H886 C863 0.950 . S
H887 C865 0.950 . S
C888 C889 1.349 . S
C888 C890 1.327 . S
C888 H913 0.950 . S
C889 C888 1.349 . S
C889 C905 1.349 . S
C890 C888 1.327 . S
C890 C909 1.429 . S
C890 H914 0.950 . S
C891 C908 1.574 . S
C891 C910 1.368 . S
C891 H915 0.949 . S
H892 C896 0.949 . S
C893 C894 1.349 . S
C893 C895 1.327 . S
C893 H916 0.950 . S
C894 C893 1.349 . S
C894 C906 1.349 . S
C895 C893 1.327 . S
C895 C911 1.429 . S
C895 H917 0.950 . S
C896 H892 0.949 . S
C896 C904 1.574 . S
C896 C912 1.368 . S
H897 C905 0.950 . S
H898 C903 0.950 . S
H899 C904 0.949 . S
H900 C906 0.950 . S
H901 C907 0.950 . S
H902 C908 0.949 . S
C903 H898 0.950 . S
C903 C905 1.327 . S
C903 C909 1.429 . S
C904 C896 1.574 . S
C904 H899 0.949 . S
C904 C910 1.368 . S
C905 C889 1.349 . S
C905 H897 0.950 . S
C905 C903 1.327 . S
C906 C894 1.349 . S
C906 H900 0.950 . S
C906 C907 1.327 . S
C907 H901 0.950 . S
C907 C906 1.327 . S
C907 C911 1.429 . S
C908 C891 1.574 . S
C908 H902 0.949 . S
C908 C912 1.368 . S
C909 C890 1.429 . S
C909 C903 1.429 . S
C909 C910 1.523 . S
C910 C891 1.368 . S
C910 C904 1.368 . S
C910 C909 1.523 . S
C911 C895 1.429 . S
C911 C907 1.429 . S
C911 C912 1.523 . S
C912 C896 1.368 . S
C912 C908 1.368 . S
C912 C911 1.523 . S
H913 C888 0.950 . S
H914 C890 0.950 . S
H915 C891 0.949 . S
H916 C893 0.950 . S
H917 C895 0.950 . S
C918 C919 1.349 . S
C918 C920 1.327 . S
C918 H943 0.950 . S
C919 C918 1.349 . S
C919 C935 1.349 . S
C920 C918 1.327 . S
C920 C939 1.429 . S
C920 H944 0.950 . S
C921 C938 1.574 . S
C921 C940 1.368 . S
C921 H945 0.949 . S
H922 C926 0.949 . S
C923 C924 1.349 . S
C923 C925 1.327 . S
C923 H946 0.950 . S
C924 C923 1.349 . S
C924 C936 1.349 . S
C925 C923 1.327 . S
C925 C941 1.429 . S
C925 H947 0.950 . S
C926 H922 0.949 . S
C926 C934 1.574 . S
C926 C942 1.368 . S
H927 C935 0.950 . S
H928 C933 0.950 . S
H929 C934 0.949 . S
H930 C936 0.950 . S
H931 C937 0.950 . S
H932 C938 0.949 . S
C933 H928 0.950 . S
C933 C935 1.327 . S
C933 C939 1.429 . S
C934 C926 1.574 . S
C934 H929 0.949 . S
C934 C940 1.368 . S
C935 C919 1.349 . S
C935 H927 0.950 . S
C935 C933 1.327 . S
C936 C924 1.349 . S
C936 H930 0.950 . S
C936 C937 1.327 . S
C937 H931 0.950 . S
C937 C936 1.327 . S
C937 C941 1.429 . S
C938 C921 1.574 . S
C938 H932 0.949 . S
C938 C942 1.368 . S
C939 C920 1.429 . S
C939 C933 1.429 . S
C939 C940 1.523 . S
C940 C921 1.368 . S
C940 C934 1.368 . S
C940 C939 1.523 . S
C941 C925 1.429 . S
C941 C937 1.429 . S
C941 C942 1.523 . S
C942 C926 1.368 . S
C942 C938 1.368 . S
C942 C941 1.523 . S
H943 C918 0.950 . S
H944 C920 0.950 . S
H945 C921 0.949 . S
H946 C923 0.950 . S
H947 C925 0.950 . S
C948 C949 1.349 . S
C948 C950 1.327 . S
C948 H973 0.950 . S
C949 C948 1.349 . S
C949 C965 1.349 . S
C950 C948 1.327 . S
C950 C969 1.429 . S
C950 H974 0.950 . S
C951 C968 1.574 . S
C951 C970 1.368 . S
C951 H975 0.949 . S
H952 C956 0.949 . S
C953 C954 1.349 . S
C953 C955 1.327 . S
C953 H976 0.950 . S
C954 C953 1.349 . S
C954 C966 1.349 . S
C955 C953 1.327 . S
C955 C971 1.429 . S
C955 H977 0.950 . S
C956 H952 0.949 . S
C956 C964 1.574 . S
C956 C972 1.368 . S
H957 C965 0.950 . S
H958 C963 0.950 . S
H959 C964 0.949 . S
H960 C966 0.950 . S
H961 C967 0.950 . S
H962 C968 0.949 . S
C963 H958 0.950 . S
C963 C965 1.327 . S
C963 C969 1.429 . S
C964 C956 1.574 . S
C964 H959 0.949 . S
C964 C970 1.368 . S
C965 C949 1.349 . S
C965 H957 0.950 . S
C965 C963 1.327 . S
C966 C954 1.349 . S
C966 H960 0.950 . S
C966 C967 1.327 . S
C967 H961 0.950 . S
C967 C966 1.327 . S
C967 C971 1.429 . S
C968 C951 1.574 . S
C968 H962 0.949 . S
C968 C972 1.368 . S
C969 C950 1.429 . S
C969 C963 1.429 . S
C969 C970 1.523 . S
C970 C951 1.368 . S
C970 C964 1.368 . S
C970 C969 1.523 . S
C971 C955 1.429 . S
C971 C967 1.429 . S
C971 C972 1.523 . S
C972 C956 1.368 . S
C972 C968 1.368 . S
C972 C971 1.523 . S
H973 C948 0.950 . S
H974 C950 0.950 . S
H975 C951 0.949 . S
H976 C953 0.950 . S
H977 C955 0.950 . S
C978 C979 1.349 . S
C978 C980 1.327 . S
C978 H1003 0.950 . S
C979 C978 1.349 . S
C979 C995 1.349 . S
C980 C978 1.327 . S
C980 C999 1.429 . S
C980 H1004 0.950 . S
C981 C998 1.574 . S
C981 C1000 1.368 . S
C981 H1005 0.949 . S
H982 C986 0.949 . S
C983 C984 1.349 . S
C983 C985 1.327 . S
C983 H1006 0.950 . S
C984 C983 1.349 . S
C984 C996 1.349 . S
C985 C983 1.327 . S
C985 C1001 1.429 . S
C985 H1007 0.950 . S
C986 H982 0.949 . S
C986 C994 1.574 . S
C986 C1002 1.368 . S
H987 C995 0.950 . S
H988 C993 0.950 . S
H989 C994 0.949 . S
H990 C996 0.950 . S
H991 C997 0.950 . S
H992 C998 0.949 . S
C993 H988 0.950 . S
C993 C995 1.327 . S
C993 C999 1.429 . S
C994 C986 1.574 . S
C994 H989 0.949 . S
C994 C1000 1.368 . S
C995 C979 1.349 . S
C995 H987 0.950 . S
C995 C993 1.327 . S
C996 C984 1.349 . S
C996 H990 0.950 . S
C996 C997 1.327 . S
C997 H991 0.950 . S
C997 C996 1.327 . S
C997 C1001 1.429 . S
C998 C981 1.574 . S
C998 H992 0.949 . S
C998 C1002 1.368 . S
C999 C980 1.429 . S
C999 C993 1.429 . S
C999 C1000 1.523 . S
C1000 C981 1.368 . S
C1000 C994 1.368 . S
C1000 C999 1.523 . S
C1001 C985 1.429 . S
C1001 C997 1.429 . S
C1001 C1002 1.523 . S
C1002 C986 1.368 . S
C1002 C998 1.368 . S
C1002 C1001 1.523 . S
H1003 C978 0.950 . S
H1004 C980 0.950 . S
H1005 C981 0.949 . S
H1006 C983 0.950 . S
H1007 C985 0.950 . S
C1008 C1009 1.349 . S
C1008 C1010 1.327 . S
C1008 H1033 0.950 . S
C1009 C1008 1.349 . S
C1009 C1025 1.349 . S
C1010 C1008 1.327 . S
C1010 C1029 1.429 . S
C1010 H1034 0.950 . S
C1011 C1028 1.574 . S
C1011 C1030 1.368 . S
C1011 H1035 0.949 . S
H1012 C1016 0.949 . S
C1013 C1014 1.349 . S
C1013 C1015 1.327 . S
C1013 H1036 0.950 . S
C1014 C1013 1.349 . S
C1014 C1026 1.349 . S
C1015 C1013 1.327 . S
C1015 C1031 1.429 . S
C1015 H1037 0.950 . S
C1016 H1012 0.949 . S
C1016 C1024 1.574 . S
C1016 C1032 1.368 . S
H1017 C1025 0.950 . S
H1018 C1023 0.950 . S
H1019 C1024 0.949 . S
H1020 C1026 0.950 . S
H1021 C1027 0.950 . S
H1022 C1028 0.949 . S
C1023 H1018 0.950 . S
C1023 C1025 1.327 . S
C1023 C1029 1.429 . S
C1024 C1016 1.574 . S
C1024 H1019 0.949 . S
C1024 C1030 1.368 . S
C1025 C1009 1.349 . S
C1025 H1017 0.950 . S
C1025 C1023 1.327 . S
C1026 C1014 1.349 . S
C1026 H1020 0.950 . S
C1026 C1027 1.327 . S
C1027 H1021 0.950 . S
C1027 C1026 1.327 . S
C1027 C1031 1.429 . S
C1028 C1011 1.574 . S
C1028 H1022 0.949 . S
C1028 C1032 1.368 . S
C1029 C1010 1.429 . S
C1029 C1023 1.429 . S
C1029 C1030 1.523 . S
C1030 C1011 1.368 . S
C1030 C1024 1.368 . S
C1030 C1029 1.523 . S
C1031 C1015 1.429 . S
C1031 C1027 1.429 . S
C1031 C1032 1.523 . S
C1032 C1016 1.368 . S
C1032 C1028 1.368 . S
C1032 C1031 1.523 . S
H1033 C1008 0.950 . S
H1034 C1010 0.950 . S
H1035 C1011 0.949 . S
H1036 C1013 0.950 . S
H1037 C1015 0.950 . S
C1038 C1039 1.349 . S
C1038 C1040 1.327 . S
C1038 H1063 0.950 . S
C1039 C1038 1.349 . S
C1039 C1055 1.349 . S
C1040 C1038 1.327 . S
C1040 C1059 1.429 . S
C1040 H1064 0.950 . S
C1041 C1058 1.574 . S
C1041 C1060 1.368 . S
C1041 H1065 0.949 . S
H1042 C1046 0.949 . S
C1043 C1044 1.349 . S
C1043 C1045 1.327 . S
C1043 H1066 0.950 . S
C1044 C1043 1.349 . S
C1044 C1056 1.349 . S
C1045 C1043 1.327 . S
C1045 C1061 1.429 . S
C1045 H1067 0.950 . S
C1046 H1042 0.949 . S
C1046 C1054 1.574 . S
C1046 C1062 1.368 . S
H1047 C1055 0.950 . S
H1048 C1053 0.950 . S
H1049 C1054 0.949 . S
H1050 C1056 0.950 . S
H1051 C1057 0.950 . S
H1052 C1058 0.949 . S
C1053 H1048 0.950 . S
C1053 C1055 1.327 . S
C1053 C1059 1.429 . S
C1054 C1046 1.574 . S
C1054 H1049 0.949 . S
C1054 C1060 1.368 . S
C1055 C1039 1.349 . S
C1055 H1047 0.950 . S
C1055 C1053 1.327 . S
C1056 C1044 1.349 . S
C1056 H1050 0.950 . S
C1056 C1057 1.327 . S
C1057 H1051 0.950 . S
C1057 C1056 1.327 . S
C1057 C1061 1.429 . S
C1058 C1041 1.574 . S
C1058 H1052 0.949 . S
C1058 C1062 1.368 . S
C1059 C1040 1.429 . S
C1059 C1053 1.429 . S
C1059 C1060 1.523 . S
C1060 C1041 1.368 . S
C1060 C1054 1.368 . S
C1060 C1059 1.523 . S
C1061 C1045 1.429 . S
C1061 C1057 1.429 . S
C1061 C1062 1.523 . S
C1062 C1046 1.368 . S
C1062 C1058 1.368 . S
C1062 C1061 1.523 . S
H1063 C1038 0.950 . S
H1064 C1040 0.950 . S
H1065 C1041 0.949 . S
H1066 C1043 0.950 . S
H1067 C1045 0.950 . S
C1068 C1069 1.349 . S
C1068 C1070 1.327 . S
C1068 H1093 0.950 . S
C1069 C1068 1.349 . S
C1069 C1085 1.349 . S
C1070 C1068 1.327 . S
C1070 C1089 1.429 . S
C1070 H1094 0.950 . S
C1071 C1088 1.574 . S
C1071 C1090 1.368 . S
C1071 H1095 0.949 . S
H1072 C1076 0.949 . S
C1073 C1074 1.349 . S
C1073 C1075 1.327 . S
C1073 H1096 0.950 . S
C1074 C1073 1.349 . S
C1074 C1086 1.349 . S
C1075 C1073 1.327 . S
C1075 C1091 1.429 . S
C1075 H1097 0.950 . S
C1076 H1072 0.949 . S
C1076 C1084 1.574 . S
C1076 C1092 1.368 . S
H1077 C1085 0.950 . S
H1078 C1083 0.950 . S
H1079 C1084 0.949 . S
H1080 C1086 0.950 . S
H1081 C1087 0.950 . S
H1082 C1088 0.949 . S
C1083 H1078 0.950 . S
C1083 C1085 1.327 . S
C1083 C1089 1.429 . S
C1084 C1076 1.574 . S
C1084 H1079 0.949 . S
C1084 C1090 1.368 . S
C1085 C1069 1.349 . S
C1085 H1077 0.950 . S
C1085 C1083 1.327 . S
C1086 C1074 1.349 . S
C1086 H1080 0.950 . S
C1086 C1087 1.327 . S
C1087 H1081 0.950 . S
C1087 C1086 1.327 . S
C1087 C1091 1.429 . S
C1088 C1071 1.574 . S
C1088 H1082 0.949 . S
C1088 C1092 1.368 . S
C1089 C1070 1.429 . S
C1089 C1083 1.429 . S
C1089 C1090 1.523 . S
C1090 C1071 1.368 . S
C1090 C1084 1.368 . S
C1090 C1089 1.523 . S
C1091 C1075 1.429 . S
C1091 C1087 1.429 . S
C1091 C1092 1.523 . S
C1092 C1076 1.368 . S
C1092 C1088 1.368 . S
C1092 C1091 1.523 . S
H1093 C1068 0.950 . S
H1094 C1070 0.950 . S
H1095 C1071 0.949 . S
H1096 C1073 0.950 . S
H1097 C1075 0.950 . S
C1098 C1099 1.349 . S
C1098 C1100 1.327 . S
C1098 H1123 0.950 . S
C1099 C1098 1.349 . S
C1099 C1115 1.349 . S
C1100 C1098 1.327 . S
C1100 C1119 1.429 . S
C1100 H1124 0.950 . S
C1101 C1118 1.574 . S
C1101 C1120 1.368 . S
C1101 H1125 0.949 . S
H1102 C1106 0.949 . S
C1103 C1104 1.349 . S
C1103 C1105 1.327 . S
C1103 H1126 0.950 . S
C1104 C1103 1.349 . S
C1104 C1116 1.349 . S
C1105 C1103 1.327 . S
C1105 C1121 1.429 . S
C1105 H1127 0.950 . S
C1106 H1102 0.949 . S
C1106 C1114 1.574 . S
C1106 C1122 1.368 . S
H1107 C1115 0.950 . S
H1108 C1113 0.950 . S
H1109 C1114 0.949 . S
H1110 C1116 0.950 . S
H1111 C1117 0.950 . S
H1112 C1118 0.949 . S
C1113 H1108 0.950 . S
C1113 C1115 1.327 . S
C1113 C1119 1.429 . S
C1114 C1106 1.574 . S
C1114 H1109 0.949 . S
C1114 C1120 1.368 . S
C1115 C1099 1.349 . S
C1115 H1107 0.950 . S
C1115 C1113 1.327 . S
C1116 C1104 1.349 . S
C1116 H1110 0.950 . S
C1116 C1117 1.327 . S
C1117 H1111 0.950 . S
C1117 C1116 1.327 . S
C1117 C1121 1.429 . S
C1118 C1101 1.574 . S
C1118 H1112 0.949 . S
C1118 C1122 1.368 . S
C1119 C1100 1.429 . S
C1119 C1113 1.429 . S
C1119 C1120 1.523 . S
C1120 C1101 1.368 . S
C1120 C1114 1.368 . S
C1120 C1119 1.523 . S
C1121 C1105 1.429 . S
C1121 C1117 1.429 . S
C1121 C1122 1.523 . S
C1122 C1106 1.368 . S
C1122 C1118 1.368 . S
C1122 C1121 1.523 . S
H1123 C1098 0.950 . S
H1124 C1100 0.950 . S
H1125 C1101 0.949 . S
H1126 C1103 0.950 . S
H1127 C1105 0.950 . S
C1128 C1129 1.349 . S
C1128 C1130 1.327 . S
C1128 H1153 0.950 . S
C1129 C1128 1.349 . S
C1129 C1145 1.349 . S
C1130 C1128 1.327 . S
C1130 C1149 1.429 . S
C1130 H1154 0.950 . S
C1131 C1148 1.574 . S
C1131 C1150 1.368 . S
C1131 H1155 0.949 . S
H1132 C1136 0.949 . S
C1133 C1134 1.349 . S
C1133 C1135 1.327 . S
C1133 H1156 0.950 . S
C1134 C1133 1.349 . S
C1134 C1146 1.349 . S
C1135 C1133 1.327 . S
C1135 C1151 1.429 . S
C1135 H1157 0.950 . S
C1136 H1132 0.949 . S
C1136 C1144 1.574 . S
C1136 C1152 1.368 . S
H1137 C1145 0.950 . S
H1138 C1143 0.950 . S
H1139 C1144 0.949 . S
H1140 C1146 0.950 . S
H1141 C1147 0.950 . S
H1142 C1148 0.949 . S
C1143 H1138 0.950 . S
C1143 C1145 1.327 . S
C1143 C1149 1.429 . S
C1144 C1136 1.574 . S
C1144 H1139 0.949 . S
C1144 C1150 1.368 . S
C1145 C1129 1.349 . S
C1145 H1137 0.950 . S
C1145 C1143 1.327 . S
C1146 C1134 1.349 . S
C1146 H1140 0.950 . S
C1146 C1147 1.327 . S
C1147 H1141 0.950 . S
C1147 C1146 1.327 . S
C1147 C1151 1.429 . S
C1148 C1131 1.574 . S
C1148 H1142 0.949 . S
C1148 C1152 1.368 . S
C1149 C1130 1.429 . S
C1149 C1143 1.429 . S
C1149 C1150 1.523 . S
C1150 C1131 1.368 . S
C1150 C1144 1.368 . S
C1150 C1149 1.523 . S
C1151 C1135 1.429 . S
C1151 C1147 1.429 . S
C1151 C1152 1.523 . S
C1152 C1136 1.368 . S
C1152 C1148 1.368 . S
C1152 C1151 1.523 . S
H1153 C1128 0.950 . S
H1154 C1130 0.950 . S
H1155 C1131 0.949 . S
H1156 C1133 0.950 . S
H1157 C1135 0.950 . S
C1158 C1159 1.349 . S
C1158 C1160 1.327 . S
C1158 H1183 0.950 . S
C1159 C1158 1.349 . S
C1159 C1175 1.349 . S
C1160 C1158 1.327 . S
C1160 C1179 1.429 . S
C1160 H1184 0.950 . S
C1161 C1178 1.574 . S
C1161 C1180 1.368 . S
C1161 H1185 0.949 . S
H1162 C1166 0.949 . S
C1163 C1164 1.349 . S
C1163 C1165 1.327 . S
C1163 H1186 0.950 . S
C1164 C1163 1.349 . S
C1164 C1176 1.349 . S
C1165 C1163 1.327 . S
C1165 C1181 1.429 . S
C1165 H1187 0.950 . S
C1166 H1162 0.949 . S
C1166 C1174 1.574 . S
C1166 C1182 1.368 . S
H1167 C1175 0.950 . S
H1168 C1173 0.950 . S
H1169 C1174 0.949 . S
H1170 C1176 0.950 . S
H1171 C1177 0.950 . S
H1172 C1178 0.949 . S
C1173 H1168 0.950 . S
C1173 C1175 1.327 . S
C1173 C1179 1.429 . S
C1174 C1166 1.574 . S
C1174 H1169 0.949 . S
C1174 C1180 1.368 . S
C1175 C1159 1.349 . S
C1175 H1167 0.950 . S
C1175 C1173 1.327 . S
C1176 C1164 1.349 . S
C1176 H1170 0.950 . S
C1176 C1177 1.327 . S
C1177 H1171 0.950 . S
C1177 C1176 1.327 . S
C1177 C1181 1.429 . S
C1178 C1161 1.574 . S
C1178 H1172 0.949 . S
C1178 C1182 1.368 . S
C1179 C1160 1.429 . S
C1179 C1173 1.429 . S
C1179 C1180 1.523 . S
C1180 C1161 1.368 . S
C1180 C1174 1.368 . S
C1180 C1179 1.523 . S
C1181 C1165 1.429 . S
C1181 C1177 1.429 . S
C1181 C1182 1.523 . S
C1182 C1166 1.368 . S
C1182 C1178 1.368 . S
C1182 C1181 1.523 . S
H1183 C1158 0.950 . S
H1184 C1160 0.950 . S
H1185 C1161 0.949 . S
H1186 C1163 0.950 . S
H1187 C1165 0.950 . S
C1188 C1189 1.349 . S
C1188 C1190 1.327 . S
C1188 H1213 0.950 . S
C1189 C1188 1.349 . S
C1189 C1205 1.349 . S
C1190 C1188 1.327 . S
C1190 C1209 1.429 . S
C1190 H1214 0.950 . S
C1191 C1208 1.574 . S
C1191 C1210 1.368 . S
C1191 H1215 0.949 . S
H1192 C1196 0.949 . S
C1193 C1194 1.349 . S
C1193 C1195 1.327 . S
C1193 H1216 0.950 . S
C1194 C1193 1.349 . S
C1194 C1206 1.349 . S
C1195 C1193 1.327 . S
C1195 C1211 1.429 . S
C1195 H1217 0.950 . S
C1196 H1192 0.949 . S
C1196 C1204 1.574 . S
C1196 C1212 1.368 . S
H1197 C1205 0.950 . S
H1198 C1203 0.950 . S
H1199 C1204 0.949 . S
H1200 C1206 0.950 . S
H1201 C1207 0.950 . S
H1202 C1208 0.949 . S
C1203 H1198 0.950 . S
C1203 C1205 1.327 . S
C1203 C1209 1.429 . S
C1204 C1196 1.574 . S
C1204 H1199 0.949 . S
C1204 C1210 1.368 . S
C1205 C1189 1.349 . S
C1205 H1197 0.950 . S
C1205 C1203 1.327 . S
C1206 C1194 1.349 . S
C1206 H1200 0.950 . S
C1206 C1207 1.327 . S
C1207 H1201 0.950 . S
C1207 C1206 1.327 . S
C1207 C1211 1.429 . S
C1208 C1191 1.574 . S
C1208 H1202 0.949 . S
C1208 C1212 1.368 . S
C1209 C1190 1.429 . S
C1209 C1203 1.429 . S
C1209 C1210 1.523 . S
C1210 C1191 1.368 . S
C1210 C1204 1.368 . S
C1210 C1209 1.523 . S
C1211 C1195 1.429 . S
C1211 C1207 1.429 . S
C1211 C1212 1.523 . S
C1212 C1196 1.368 . S
C1212 C1208 1.368 . S
C1212 C1211 1.523 . S
H1213 C1188 0.950 . S
H1214 C1190 0.950 . S
H1215 C1191 0.949 . S
H1216 C1193 0.950 . S
H1217 C1195 0.950 . S
C1218 C1219 1.349 . S
C1218 C1220 1.327 . S
C1218 H1243 0.950 . S
C1219 C1218 1.349 . S
C1219 C1235 1.349 . S
C1220 C1218 1.327 . S
C1220 C1239 1.429 . S
C1220 H1244 0.950 . S
C1221 C1238 1.574 . S
C1221 C1240 1.368 . S
C1221 H1245 0.949 . S
H1222 C1226 0.949 . S
C1223 C1224 1.349 . S
C1223 C1225 1.327 . S
C1223 H1246 0.950 . S
C1224 C1223 1.349 . S
C1224 C1236 1.349 . S
C1225 C1223 1.327 . S
C1225 C1241 1.429 . S
C1225 H1247 0.950 . S
C1226 H1222 0.949 . S
C1226 C1234 1.574 . S
C1226 C1242 1.368 . S
H1227 C1235 0.950 . S
H1228 C1233 0.950 . S
H1229 C1234 0.949 . S
H1230 C1236 0.950 . S
H1231 C1237 0.950 . S
H1232 C1238 0.949 . S
C1233 H1228 0.950 . S
C1233 C1235 1.327 . S
C1233 C1239 1.429 . S
C1234 C1226 1.574 . S
C1234 H1229 0.949 . S
C1234 C1240 1.368 . S
C1235 C1219 1.349 . S
C1235 H1227 0.950 . S
C1235 C1233 1.327 . S
C1236 C1224 1.349 . S
C1236 H1230 0.950 . S
C1236 C1237 1.327 . S
C1237 H1231 0.950 . S
C1237 C1236 1.327 . S
C1237 C1241 1.429 . S
C1238 C1221 1.574 . S
C1238 H1232 0.949 . S
C1238 C1242 1.368 . S
C1239 C1220 1.429 . S
C1239 C1233 1.429 . S
C1239 C1240 1.523 . S
C1240 C1221 1.368 . S
C1240 C1234 1.368 . S
C1240 C1239 1.523 . S
C1241 C1225 1.429 . S
C1241 C1237 1.429 . S
C1241 C1242 1.523 . S
C1242 C1226 1.368 . S
C1242 C1238 1.368 . S
C1242 C1241 1.523 . S
H1243 C1218 0.950 . S
H1244 C1220 0.950 . S
H1245 C1221 0.949 . S
H1246 C1223 0.950 . S
H1247 C1225 0.950 . S
C1248 C1249 1.349 . S
C1248 C1250 1.327 . S
C1248 H1273 0.950 . S
C1249 C1248 1.349 . S
C1249 C1265 1.349 . S
C1250 C1248 1.327 . S
C1250 C1269 1.429 . S
C1250 H1274 0.950 . S
C1251 C1268 1.574 . S
C1251 C1270 1.368 . S
C1251 H1275 0.949 . S
H1252 C1256 0.949 . S
C1253 C1254 1.349 . S
C1253 C1255 1.327 . S
C1253 H1276 0.950 . S
C1254 C1253 1.349 . S
C1254 C1266 1.349 . S
C1255 C1253 1.327 . S
C1255 C1271 1.429 . S
C1255 H1277 0.950 . S
C1256 H1252 0.949 . S
C1256 C1264 1.574 . S
C1256 C1272 1.368 . S
H1257 C1265 0.950 . S
H1258 C1263 0.950 . S
H1259 C1264 0.949 . S
H1260 C1266 0.950 . S
H1261 C1267 0.950 . S
H1262 C1268 0.949 . S
C1263 H1258 0.950 . S
C1263 C1265 1.327 . S
C1263 C1269 1.429 . S
C1264 C1256 1.574 . S
C1264 H1259 0.949 . S
C1264 C1270 1.368 . S
C1265 C1249 1.349 . S
C1265 H1257 0.950 . S
C1265 C1263 1.327 . S
C1266 C1254 1.349 . S
C1266 H1260 0.950 . S
C1266 C1267 1.327 . S
C1267 H1261 0.950 . S
C1267 C1266 1.327 . S
C1267 C1271 1.429 . S
C1268 C1251 1.574 . S
C1268 H1262 0.949 . S
C1268 C1272 1.368 . S
C1269 C1250 1.429 . S
C1269 C1263 1.429 . S
C1269 C1270 1.523 . S
C1270 C1251 1.368 . S
C1270 C1264 1.368 . S
C1270 C1269 1.523 . S
C1271 C1255 1.429 . S
C1271 C1267 1.429 . S
C1271 C1272 1.523 . S
C1272 C1256 1.368 . S
C1272 C1268 1.368 . S
C1272 C1271 1.523 . S
H1273 C1248 0.950 . S
H1274 C1250 0.950 . S
H1275 C1251 0.949 . S
H1276 C1253 0.950 . S
H1277 C1255 0.950 . S
C1278 C1279 1.349 . S
C1278 C1280 1.327 . S
C1278 H1303 0.950 . S
C1279 C1278 1.349 . S
C1279 C1295 1.349 . S
C1280 C1278 1.327 . S
C1280 C1299 1.429 . S
C1280 H1304 0.950 . S
C1281 C1298 1.574 . S
C1281 C1300 1.368 . S
C1281 H1305 0.949 . S
H1282 C1286 0.949 . S
C1283 C1284 1.349 . S
C1283 C1285 1.327 . S
C1283 H1306 0.950 . S
C1284 C1283 1.349 . S
C1284 C1296 1.349 . S
C1285 C1283 1.327 . S
C1285 C1301 1.429 . S
C1285 H1307 0.950 . S
C1286 H1282 0.949 . S
C1286 C1294 1.574 . S
C1286 C1302 1.368 . S
H1287 C1295 0.950 . S
H1288 C1293 0.950 . S
H1289 C1294 0.949 . S
H1290 C1296 0.950 . S
H1291 C1297 0.950 . S
H1292 C1298 0.949 . S
C1293 H1288 0.950 . S
C1293 C1295 1.327 . S
C1293 C1299 1.429 . S
C1294 C1286 1.574 . S
C1294 H1289 0.949 . S
C1294 C1300 1.368 . S
C1295 C1279 1.349 . S
C1295 H1287 0.950 . S
C1295 C1293 1.327 . S
C1296 C1284 1.349 . S
C1296 H1290 0.950 . S
C1296 C1297 1.327 . S
C1297 H1291 0.950 . S
C1297 C1296 1.327 . S
C1297 C1301 1.429 . S
C1298 C1281 1.574 . S
C1298 H1292 0.949 . S
C1298 C1302 1.368 . S
C1299 C1280 1.429 . S
C1299 C1293 1.429 . S
C1299 C1300 1.523 . S
C1300 C1281 1.368 . S
C1300 C1294 1.368 . S
C1300 C1299 1.523 . S
C1301 C1285 1.429 . S
C1301 C1297 1.429 . S
C1301 C1302 1.523 . S
C1302 C1286 1.368 . S
C1302 C1298 1.368 . S
C1302 C1301 1.523 . S
H1303 C1278 0.950 . S
H1304 C1280 0.950 . S
H1305 C1281 0.949 . S
H1306 C1283 0.950 . S
H1307 C1285 0.950 . S
C1308 C1309 1.349 . S
C1308 C1310 1.327 . S
C1308 H1333 0.950 . S
C1309 C1308 1.349 . S
C1309 C1325 1.349 . S
C1310 C1308 1.327 . S
C1310 C1329 1.429 . S
C1310 H1334 0.950 . S
C1311 C1328 1.574 . S
C1311 C1330 1.368 . S
C1311 H1335 0.949 . S
H1312 C1316 0.949 . S
C1313 C1314 1.349 . S
C1313 C1315 1.327 . S
C1313 H1336 0.950 . S
C1314 C1313 1.349 . S
C1314 C1326 1.349 . S
C1315 C1313 1.327 . S
C1315 C1331 1.429 . S
C1315 H1337 0.950 . S
C1316 H1312 0.949 . S
C1316 C1324 1.574 . S
C1316 C1332 1.368 . S
H1317 C1325 0.950 . S
H1318 C1323 0.950 . S
H1319 C1324 0.949 . S
H1320 C1326 0.950 . S
H1321 C1327 0.950 . S
H1322 C1328 0.949 . S
C1323 H1318 0.950 . S
C1323 C1325 1.327 . S
C1323 C1329 1.429 . S
C1324 C1316 1.574 . S
C1324 H1319 0.949 . S
C1324 C1330 1.368 . S
C1325 C1309 1.349 . S
C1325 H1317 0.950 . S
C1325 C1323 1.327 . S
C1326 C1314 1.349 . S
C1326 H1320 0.950 . S
C1326 C1327 1.327 . S
C1327 H1321 0.950 . S
C1327 C1326 1.327 . S
C1327 C1331 1.429 . S
C1328 C1311 1.574 . S
C1328 H1322 0.949 . S
C1328 C1332 1.368 . S
C1329 C1310 1.429 . S
C1329 C1323 1.429 . S
C1329 C1330 1.523 . S
C1330 C1311 1.368 . S
C1330 C1324 1.368 . S
C1330 C1329 1.523 . S
C1331 C1315 1.429 . S
C1331 C1327 1.429 . S
C1331 C1332 1.523 . S
C1332 C1316 1.368 . S
C1332 C1328 1.368 . S
C1332 C1331 1.523 . S
H1333 C1308 0.950 . S
H1334 C1310 0.950 . S
H1335 C1311 0.949 . S
H1336 C1313 0.950 . S
H1337 C1315 0.950 . S
C1338 C1339 1.349 . S
C1338 C1340 1.327 . S
C1338 H1363 0.950 . S
C1339 C1338 1.349 . S
C1339 C1355 1.349 . S
C1340 C1338 1.327 . S
C1340 C1359 1.429 . S
C1340 H1364 0.950 . S
C1341 C1358 1.574 . S
C1341 C1360 1.368 . S
C1341 H1365 0.949 . S
H1342 C1346 0.949 . S
C1343 C1344 1.349 . S
C1343 C1345 1.327 . S
C1343 H1366 0.950 . S
C1344 C1343 1.349 . S
C1344 C1356 1.349 . S
C1345 C1343 1.327 . S
C1345 C1361 1.429 . S
C1345 H1367 0.950 . S
C1346 H1342 0.949 . S
C1346 C1354 1.574 . S
C1346 C1362 1.368 . S
H1347 C1355 0.950 . S
H1348 C1353 0.950 . S
H1349 C1354 0.949 . S
H1350 C1356 0.950 . S
H1351 C1357 0.950 . S
H1352 C1358 0.949 . S
C1353 H1348 0.950 . S
C1353 C1355 1.327 . S
C1353 C1359 1.429 . S
C1354 C1346 1.574 . S
C1354 H1349 0.949 . S
C1354 C1360 1.368 . S
C1355 C1339 1.349 . S
C1355 H1347 0.950 . S
C1355 C1353 1.327 . S
C1356 C1344 1.349 . S
C1356 H1350 0.950 . S
C1356 C1357 1.327 . S
C1357 H1351 0.950 . S
C1357 C1356 1.327 . S
C1357 C1361 1.429 . S
C1358 C1341 1.574 . S
C1358 H1352 0.949 . S
C1358 C1362 1.368 . S
C1359 C1340 1.429 . S
C1359 C1353 1.429 . S
C1359 C1360 1.523 . S
C1360 C1341 1.368 . S
C1360 C1354 1.368 . S
C1360 C1359 1.523 . S
C1361 C1345 1.429 . S
C1361 C1357 1.429 . S
C1361 C1362 1.523 . S
C1362 C1346 1.368 . S
C1362 C1358 1.368 . S
C1362 C1361 1.523 . S
H1363 C1338 0.950 . S
H1364 C1340 0.950 . S
H1365 C1341 0.949 . S
H1366 C1343 0.950 . S
H1367 C1345 0.950 . S
C1368 C1369 1.349 . S
C1368 C1370 1.327 . S
C1368 H1393 0.950 . S
C1369 C1368 1.349 . S
C1369 C1385 1.349 . S
C1370 C1368 1.327 . S
C1370 C1389 1.429 . S
C1370 H1394 0.950 . S
C1371 C1388 1.574 . S
C1371 C1390 1.368 . S
C1371 H1395 0.949 . S
H1372 C1376 0.949 . S
C1373 C1374 1.349 . S
C1373 C1375 1.327 . S
C1373 H1396 0.950 . S
C1374 C1373 1.349 . S
C1374 C1386 1.349 . S
C1375 C1373 1.327 . S
C1375 C1391 1.429 . S
C1375 H1397 0.950 . S
C1376 H1372 0.949 . S
C1376 C1384 1.574 . S
C1376 C1392 1.368 . S
H1377 C1385 0.950 . S
H1378 C1383 0.950 . S
H1379 C1384 0.949 . S
H1380 C1386 0.950 . S
H1381 C1387 0.950 . S
H1382 C1388 0.949 . S
C1383 H1378 0.950 . S
C1383 C1385 1.327 . S
C1383 C1389 1.429 . S
C1384 C1376 1.574 . S
C1384 H1379 0.949 . S
C1384 C1390 1.368 . S
C1385 C1369 1.349 . S
C1385 H1377 0.950 . S
C1385 C1383 1.327 . S
C1386 C1374 1.349 . S
C1386 H1380 0.950 . S
C1386 C1387 1.327 . S
C1387 H1381 0.950 . S
C1387 C1386 1.327 . S
C1387 C1391 1.429 . S
C1388 C1371 1.574 . S
C1388 H1382 0.949 . S
C1388 C1392 1.368 . S
C1389 C1370 1.429 . S
C1389 C1383 1.429 . S
C1389 C1390 1.523 . S
C1390 C1371 1.368 . S
C1390 C1384 1.368 . S
C1390 C1389 1.523 . S
C1391 C1375 1.429 . S
C1391 C1387 1.429 . S
C1391 C1392 1.523 . S
C1392 C1376 1.368 . S
C1392 C1388 1.368 . S
C1392 C1391 1.523 . S
H1393 C1368 0.950 . S
H1394 C1370 0.950 . S
H1395 C1371 0.949 . S
H1396 C1373 0.950 . S
H1397 C1375 0.950 . S
C1398 C1399 1.349 . S
C1398 C1400 1.327 . S
C1398 H1423 0.950 . S
C1399 C1398 1.349 . S
C1399 C1415 1.349 . S
C1400 C1398 1.327 . S
C1400 C1419 1.429 . S
C1400 H1424 0.950 . S
C1401 C1418 1.574 . S
C1401 C1420 1.368 . S
C1401 H1425 0.949 . S
H1402 C1406 0.949 . S
C1403 C1404 1.349 . S
C1403 C1405 1.327 . S
C1403 H1426 0.950 . S
C1404 C1403 1.349 . S
C1404 C1416 1.349 . S
C1405 C1403 1.327 . S
C1405 C1421 1.429 . S
C1405 H1427 0.950 . S
C1406 H1402 0.949 . S
C1406 C1414 1.574 . S
C1406 C1422 1.368 . S
H1407 C1415 0.950 . S
H1408 C1413 0.950 . S
H1409 C1414 0.949 . S
H1410 C1416 0.950 . S
H1411 C1417 0.950 . S
H1412 C1418 0.949 . S
C1413 H1408 0.950 . S
C1413 C1415 1.327 . S
C1413 C1419 1.429 . S
C1414 C1406 1.574 . S
C1414 H1409 0.949 . S
C1414 C1420 1.368 . S
C1415 C1399 1.349 . S
C1415 H1407 0.950 . S
C1415 C1413 1.327 . S
C1416 C1404 1.349 . S
C1416 H1410 0.950 . S
C1416 C1417 1.327 . S
C1417 H1411 0.950 . S
C1417 C1416 1.327 . S
C1417 C1421 1.429 . S
C1418 C1401 1.574 . S
C1418 H1412 0.949 . S
C1418 C1422 1.368 . S
C1419 C1400 1.429 . S
C1419 C1413 1.429 . S
C1419 C1420 1.523 . S
C1420 C1401 1.368 . S
C1420 C1414 1.368 . S
C1420 C1419 1.523 . S
C1421 C1405 1.429 . S
C1421 C1417 1.429 . S
C1421 C1422 1.523 . S
C1422 C1406 1.368 . S
C1422 C1418 1.368 . S
C1422 C1421 1.523 . S
H1423 C1398 0.950 . S
H1424 C1400 0.950 . S
H1425 C1401 0.949 . S
H1426 C1403 0.950 . S
H1427 C1405 0.950 . S
C1428 C1429 1.349 . S
C1428 C1430 1.327 . S
C1428 H1453 0.950 . S
C1429 C1428 1.349 . S
C1429 C1445 1.349 . S
C1430 C1428 1.327 . S
C1430 C1449 1.429 . S
C1430 H1454 0.950 . S
C1431 C1448 1.574 . S
C1431 C1450 1.368 . S
C1431 H1455 0.949 . S
H1432 C1436 0.949 . S
C1433 C1434 1.349 . S
C1433 C1435 1.327 . S
C1433 H1456 0.950 . S
C1434 C1433 1.349 . S
C1434 C1446 1.349 . S
C1435 C1433 1.327 . S
C1435 C1451 1.429 . S
C1435 H1457 0.950 . S
C1436 H1432 0.949 . S
C1436 C1444 1.574 . S
C1436 C1452 1.368 . S
H1437 C1445 0.950 . S
H1438 C1443 0.950 . S
H1439 C1444 0.949 . S
H1440 C1446 0.950 . S
H1441 C1447 0.950 . S
H1442 C1448 0.949 . S
C1443 H1438 0.950 . S
C1443 C1445 1.327 . S
C1443 C1449 1.429 . S
C1444 C1436 1.574 . S
C1444 H1439 0.949 . S
C1444 C1450 1.368 . S
C1445 C1429 1.349 . S
C1445 H1437 0.950 . S
C1445 C1443 1.327 . S
C1446 C1434 1.349 . S
C1446 H1440 0.950 . S
C1446 C1447 1.327 . S
C1447 H1441 0.950 . S
C1447 C1446 1.327 . S
C1447 C1451 1.429 . S
C1448 C1431 1.574 . S
C1448 H1442 0.949 . S
C1448 C1452 1.368 . S
C1449 C1430 1.429 . S
C1449 C1443 1.429 . S
C1449 C1450 1.523 . S
C1450 C1431 1.368 . S
C1450 C1444 1.368 . S
C1450 C1449 1.523 . S
C1451 C1435 1.429 . S
C1451 C1447 1.429 . S
C1451 C1452 1.523 . S
C1452 C1436 1.368 . S
C1452 C1448 1.368 . S
C1452 C1451 1.523 . S
H1453 C1428 0.950 . S
H1454 C1430 0.950 . S
H1455 C1431 0.949 . S
H1456 C1433 0.950 . S
H1457 C1435 0.950 . S
C1458 C1459 1.349 . S
C1458 C1460 1.327 . S
C1458 H1483 0.950 . S
C1459 C1458 1.349 . S
C1459 C1475 1.349 . S
C1460 C1458 1.327 . S
C1460 C1479 1.429 . S
C1460 H1484 0.950 . S
C1461 C1478 1.574 . S
C1461 C1480 1.368 . S
C1461 H1485 0.949 . S
H1462 C1466 0.949 . S
C1463 C1464 1.349 . S
C1463 C1465 1.327 . S
C1463 H1486 0.950 . S
C1464 C1463 1.349 . S
C1464 C1476 1.349 . S
C1465 C1463 1.327 . S
C1465 C1481 1.429 . S
C1465 H1487 0.950 . S
C1466 H1462 0.949 . S
C1466 C1474 1.574 . S
C1466 C1482 1.368 . S
H1467 C1475 0.950 . S
H1468 C1473 0.950 . S
H1469 C1474 0.949 . S
H1470 C1476 0.950 . S
H1471 C1477 0.950 . S
H1472 C1478 0.949 . S
C1473 H1468 0.950 . S
C1473 C1475 1.327 . S
C1473 C1479 1.429 . S
C1474 C1466 1.574 . S
C1474 H1469 0.949 . S
C1474 C1480 1.368 . S
C1475 C1459 1.349 . S
C1475 H1467 0.950 . S
C1475 C1473 1.327 . S
C1476 C1464 1.349 . S
C1476 H1470 0.950 . S
C1476 C1477 1.327 . S
C1477 H1471 0.950 . S
C1477 C1476 1.327 . S
C1477 C1481 1.429 . S
C1478 C1461 1.574 . S
C1478 H1472 0.949 . S
C1478 C1482 1.368 . S
C1479 C1460 1.429 . S
C1479 C1473 1.429 . S
C1479 C1480 1.523 . S
C1480 C1461 1.368 . S
C1480 C1474 1.368 . S
C1480 C1479 1.523 . S
C1481 C1465 1.429 . S
C1481 C1477 1.429 . S
C1481 C1482 1.523 . S
C1482 C1466 1.368 . S
C1482 C1478 1.368 . S
C1482 C1481 1.523 . S
H1483 C1458 0.950 . S
H1484 C1460 0.950 . S
H1485 C1461 0.949 . S
H1486 C1463 0.950 . S
H1487 C1465 0.950 . S
C1488 C1489 1.349 . S
C1488 C1490 1.327 . S
C1488 H1513 0.950 . S
C1489 C1488 1.349 . S
C1489 C1505 1.349 . S
C1490 C1488 1.327 . S
C1490 C1509 1.429 . S
C1490 H1514 0.950 . S
C1491 C1508 1.574 1_556 S
C1491 C1510 1.368 . S
C1491 H1515 0.949 . S
H1492 C1496 0.949 . S
C1493 C1494 1.349 . S
C1493 C1495 1.327 . S
C1493 H1516 0.950 . S
C1494 C1493 1.349 . S
C1494 C1506 1.349 . S
C1495 C1493 1.327 . S
C1495 C1511 1.429 . S
C1495 H1517 0.950 . S
C1496 H1492 0.949 . S
C1496 C1504 1.574 1_554 S
C1496 C1512 1.368 . S
H1497 C1505 0.950 . S
H1498 C1503 0.950 . S
H1499 C1504 0.949 . S
H1500 C1506 0.950 . S
H1501 C1507 0.950 . S
H1502 C1508 0.949 . S
C1503 H1498 0.950 . S
C1503 C1505 1.327 . S
C1503 C1509 1.429 . S
C1504 C1496 1.574 1_556 S
C1504 H1499 0.949 . S
C1504 C1510 1.368 . S
C1505 C1489 1.349 . S
C1505 H1497 0.950 . S
C1505 C1503 1.327 . S
C1506 C1494 1.349 . S
C1506 H1500 0.950 . S
C1506 C1507 1.327 . S
C1507 H1501 0.950 . S
C1507 C1506 1.327 . S
C1507 C1511 1.429 . S
C1508 C1491 1.574 1_554 S
C1508 H1502 0.949 . S
C1508 C1512 1.368 . S
C1509 C1490 1.429 . S
C1509 C1503 1.429 . S
C1509 C1510 1.523 . S
C1510 C1491 1.368 . S
C1510 C1504 1.368 . S
C1510 C1509 1.523 . S
C1511 C1495 1.429 . S
C1511 C1507 1.429 . S
C1511 C1512 1.523 . S
C1512 C1496 1.368 . S
C1512 C1508 1.368 . S
C1512 C1511 1.523 . S
H1513 C1488 0.950 . S
H1514 C1490 0.950 . S
H1515 C1491 0.949 . S
H1516 C1493 0.950 . S
H1517 C1495 0.950 . S
C1518 C1519 1.349 . S
C1518 C1520 1.327 . S
C1518 H1543 0.950 . S
C1519 C1518 1.349 . S
C1519 C1535 1.349 . S
C1520 C1518 1.327 . S
C1520 C1539 1.429 . S
C1520 H1544 0.950 . S
C1521 C1538 1.574 . S
C1521 C1540 1.368 . S
C1521 H1545 0.949 . S
H1522 C1526 0.949 . S
C1523 C1524 1.349 . S
C1523 C1525 1.327 . S
C1523 H1546 0.950 . S
C1524 C1523 1.349 . S
C1524 C1536 1.349 . S
C1525 C1523 1.327 . S
C1525 C1541 1.429 . S
C1525 H1547 0.950 . S
C1526 H1522 0.949 . S
C1526 C1534 1.574 . S
C1526 C1542 1.368 . S
H1527 C1535 0.950 . S
H1528 C1533 0.950 . S
H1529 C1534 0.949 . S
H1530 C1536 0.950 . S
H1531 C1537 0.950 . S
H1532 C1538 0.949 . S
C1533 H1528 0.950 . S
C1533 C1535 1.327 . S
C1533 C1539 1.429 . S
C1534 C1526 1.574 . S
C1534 H1529 0.949 . S
C1534 C1540 1.368 . S
C1535 C1519 1.349 . S
C1535 H1527 0.950 . S
C1535 C1533 1.327 . S
C1536 C1524 1.349 . S
C1536 H1530 0.950 . S
C1536 C1537 1.327 . S
C1537 H1531 0.950 . S
C1537 C1536 1.327 . S
C1537 C1541 1.429 . S
C1538 C1521 1.574 . S
C1538 H1532 0.949 . S
C1538 C1542 1.368 . S
C1539 C1520 1.429 . S
C1539 C1533 1.429 . S
C1539 C1540 1.523 . S
C1540 C1521 1.368 . S
C1540 C1534 1.368 . S
C1540 C1539 1.523 . S
C1541 C1525 1.429 . S
C1541 C1537 1.429 . S
C1541 C1542 1.523 . S
C1542 C1526 1.368 . S
C1542 C1538 1.368 . S
C1542 C1541 1.523 . S
H1543 C1518 0.950 . S
H1544 C1520 0.950 . S
H1545 C1521 0.949 . S
H1546 C1523 0.950 . S
H1547 C1525 0.950 . S
C1548 C1549 1.349 . S
C1548 C1550 1.327 . S
C1548 H1573 0.950 . S
C1549 C1548 1.349 . S
C1549 C1565 1.349 . S
C1550 C1548 1.327 . S
C1550 C1569 1.429 . S
C1550 H1574 0.950 . S
C1551 C1568 1.574 1_554 S
C1551 C1570 1.368 . S
C1551 H1575 0.949 . S
H1552 C1556 0.949 . S
C1553 C1554 1.349 . S
C1553 C1555 1.327 . S
C1553 H1576 0.950 . S
C1554 C1553 1.349 . S
C1554 C1566 1.349 . S
C1555 C1553 1.327 . S
C1555 C1571 1.429 . S
C1555 H1577 0.950 . S
C1556 H1552 0.949 . S
C1556 C1564 1.574 1_556 S
C1556 C1572 1.368 . S
H1557 C1565 0.950 . S
H1558 C1563 0.950 . S
H1559 C1564 0.949 . S
H1560 C1566 0.950 . S
H1561 C1567 0.950 . S
H1562 C1568 0.949 . S
C1563 H1558 0.950 . S
C1563 C1565 1.327 . S
C1563 C1569 1.429 . S
C1564 C1556 1.574 1_554 S
C1564 H1559 0.949 . S
C1564 C1570 1.368 . S
C1565 C1549 1.349 . S
C1565 H1557 0.950 . S
C1565 C1563 1.327 . S
C1566 C1554 1.349 . S
C1566 H1560 0.950 . S
C1566 C1567 1.327 . S
C1567 H1561 0.950 . S
C1567 C1566 1.327 . S
C1567 C1571 1.429 . S
C1568 C1551 1.574 1_556 S
C1568 H1562 0.949 . S
C1568 C1572 1.368 . S
C1569 C1550 1.429 . S
C1569 C1563 1.429 . S
C1569 C1570 1.523 . S
C1570 C1551 1.368 . S
C1570 C1564 1.368 . S
C1570 C1569 1.523 . S
C1571 C1555 1.429 . S
C1571 C1567 1.429 . S
C1571 C1572 1.523 . S
C1572 C1556 1.368 . S
C1572 C1568 1.368 . S
C1572 C1571 1.523 . S
H1573 C1548 0.950 . S
H1574 C1550 0.950 . S
H1575 C1551 0.949 . S
H1576 C1553 0.950 . S
H1577 C1555 0.950 . S
C1578 C1579 1.349 . S
C1578 C1580 1.327 . S
C1578 H1603 0.950 . S
C1579 C1578 1.349 . S
C1579 C1595 1.349 . S
C1580 C1578 1.327 . S
C1580 C1599 1.429 . S
C1580 H1604 0.950 . S
C1581 C1598 1.574 . S
C1581 C1600 1.368 . S
C1581 H1605 0.949 . S
H1582 C1586 0.949 . S
C1583 C1584 1.349 . S
C1583 C1585 1.327 . S
C1583 H1606 0.950 . S
C1584 C1583 1.349 . S
C1584 C1596 1.349 . S
C1585 C1583 1.327 . S
C1585 C1601 1.429 . S
C1585 H1607 0.950 . S
C1586 H1582 0.949 . S
C1586 C1594 1.574 . S
C1586 C1602 1.368 . S
H1587 C1595 0.950 . S
H1588 C1593 0.950 . S
H1589 C1594 0.949 . S
H1590 C1596 0.950 . S
H1591 C1597 0.950 . S
H1592 C1598 0.949 . S
C1593 H1588 0.950 . S
C1593 C1595 1.327 . S
C1593 C1599 1.429 . S
C1594 C1586 1.574 . S
C1594 H1589 0.949 . S
C1594 C1600 1.368 . S
C1595 C1579 1.349 . S
C1595 H1587 0.950 . S
C1595 C1593 1.327 . S
C1596 C1584 1.349 . S
C1596 H1590 0.950 . S
C1596 C1597 1.327 . S
C1597 H1591 0.950 . S
C1597 C1596 1.327 . S
C1597 C1601 1.429 . S
C1598 C1581 1.574 . S
C1598 H1592 0.949 . S
C1598 C1602 1.368 . S
C1599 C1580 1.429 . S
C1599 C1593 1.429 . S
C1599 C1600 1.523 . S
C1600 C1581 1.368 . S
C1600 C1594 1.368 . S
C1600 C1599 1.523 . S
C1601 C1585 1.429 . S
C1601 C1597 1.429 . S
C1601 C1602 1.523 . S
C1602 C1586 1.368 . S
C1602 C1598 1.368 . S
C1602 C1601 1.523 . S
H1603 C1578 0.950 . S
H1604 C1580 0.950 . S
H1605 C1581 0.949 . S
H1606 C1583 0.950 . S
H1607 C1585 0.950 . S
C1608 C1609 1.349 . S
C1608 C1610 1.327 . S
C1608 H1633 0.950 . S
C1609 C1608 1.349 . S
C1609 C1625 1.349 . S
C1610 C1608 1.327 . S
C1610 C1629 1.429 . S
C1610 H1634 0.950 . S
C1611 C1628 1.574 1_554 S
C1611 C1630 1.368 . S
C1611 H1635 0.949 . S
H1612 C1616 0.949 . S
C1613 C1614 1.349 . S
C1613 C1615 1.327 . S
C1613 H1636 0.950 . S
C1614 C1613 1.349 . S
C1614 C1626 1.349 . S
C1615 C1613 1.327 . S
C1615 C1631 1.429 . S
C1615 H1637 0.950 . S
C1616 H1612 0.949 . S
C1616 C1624 1.574 1_556 S
C1616 C1632 1.368 . S
H1617 C1625 0.950 . S
H1618 C1623 0.950 . S
H1619 C1624 0.949 . S
H1620 C1626 0.950 . S
H1621 C1627 0.950 . S
H1622 C1628 0.949 . S
C1623 H1618 0.950 . S
C1623 C1625 1.327 . S
C1623 C1629 1.429 . S
C1624 C1616 1.574 1_554 S
C1624 H1619 0.949 . S
C1624 C1630 1.368 . S
C1625 C1609 1.349 . S
C1625 H1617 0.950 . S
C1625 C1623 1.327 . S
C1626 C1614 1.349 . S
C1626 H1620 0.950 . S
C1626 C1627 1.327 . S
C1627 H1621 0.950 . S
C1627 C1626 1.327 . S
C1627 C1631 1.429 . S
C1628 C1611 1.574 1_556 S
C1628 H1622 0.949 . S
C1628 C1632 1.368 . S
C1629 C1610 1.429 . S
C1629 C1623 1.429 . S
C1629 C1630 1.523 . S
C1630 C1611 1.368 . S
C1630 C1624 1.368 . S
C1630 C1629 1.523 . S
C1631 C1615 1.429 . S
C1631 C1627 1.429 . S
C1631 C1632 1.523 . S
C1632 C1616 1.368 . S
C1632 C1628 1.368 . S
C1632 C1631 1.523 . S
H1633 C1608 0.950 . S
H1634 C1610 0.950 . S
H1635 C1611 0.949 . S
H1636 C1613 0.950 . S
H1637 C1615 0.950 . S
C1638 C1639 1.349 . S
C1638 C1640 1.327 . S
C1638 H1663 0.950 . S
C1639 C1638 1.349 . S
C1639 C1655 1.349 . S
C1640 C1638 1.327 . S
C1640 C1659 1.429 . S
C1640 H1664 0.950 . S
C1641 C1658 1.574 . S
C1641 C1660 1.368 . S
C1641 H1665 0.949 . S
H1642 C1646 0.949 . S
C1643 C1644 1.349 . S
C1643 C1645 1.327 . S
C1643 H1666 0.950 . S
C1644 C1643 1.349 . S
C1644 C1656 1.349 . S
C1645 C1643 1.327 . S
C1645 C1661 1.429 . S
C1645 H1667 0.950 . S
C1646 H1642 0.949 . S
C1646 C1654 1.574 . S
C1646 C1662 1.368 . S
H1647 C1655 0.950 . S
H1648 C1653 0.950 . S
H1649 C1654 0.949 . S
H1650 C1656 0.950 . S
H1651 C1657 0.950 . S
H1652 C1658 0.949 . S
C1653 H1648 0.950 . S
C1653 C1655 1.327 . S
C1653 C1659 1.429 . S
C1654 C1646 1.574 . S
C1654 H1649 0.949 . S
C1654 C1660 1.368 . S
C1655 C1639 1.349 . S
C1655 H1647 0.950 . S
C1655 C1653 1.327 . S
C1656 C1644 1.349 . S
C1656 H1650 0.950 . S
C1656 C1657 1.327 . S
C1657 H1651 0.950 . S
C1657 C1656 1.327 . S
C1657 C1661 1.429 . S
C1658 C1641 1.574 . S
C1658 H1652 0.949 . S
C1658 C1662 1.368 . S
C1659 C1640 1.429 . S
C1659 C1653 1.429 . S
C1659 C1660 1.523 . S
C1660 C1641 1.368 . S
C1660 C1654 1.368 . S
C1660 C1659 1.523 . S
C1661 C1645 1.429 . S
C1661 C1657 1.429 . S
C1661 C1662 1.523 . S
C1662 C1646 1.368 . S
C1662 C1658 1.368 . S
C1662 C1661 1.523 . S
H1663 C1638 0.950 . S
H1664 C1640 0.950 . S
H1665 C1641 0.949 . S
H1666 C1643 0.950 . S
H1667 C1645 0.950 . S
C1668 C1669 1.349 . S
C1668 C1670 1.327 . S
C1668 H1693 0.950 . S
C1669 C1668 1.349 . S
C1669 C1685 1.349 . S
C1670 C1668 1.327 . S
C1670 C1689 1.429 . S
C1670 H1694 0.950 . S
C1671 C1688 1.574 1_554 S
C1671 C1690 1.368 . S
C1671 H1695 0.949 . S
H1672 C1676 0.949 . S
C1673 C1674 1.349 . S
C1673 C1675 1.327 . S
C1673 H1696 0.950 . S
C1674 C1673 1.349 . S
C1674 C1686 1.349 . S
C1675 C1673 1.327 . S
C1675 C1691 1.429 . S
C1675 H1697 0.950 . S
C1676 H1672 0.949 . S
C1676 C1684 1.574 1_556 S
C1676 C1692 1.368 . S
H1677 C1685 0.950 . S
H1678 C1683 0.950 . S
H1679 C1684 0.949 . S
H1680 C1686 0.950 . S
H1681 C1687 0.950 . S
H1682 C1688 0.949 . S
C1683 H1678 0.950 . S
C1683 C1685 1.327 . S
C1683 C1689 1.429 . S
C1684 C1676 1.574 1_554 S
C1684 H1679 0.949 . S
C1684 C1690 1.368 . S
C1685 C1669 1.349 . S
C1685 H1677 0.950 . S
C1685 C1683 1.327 . S
C1686 C1674 1.349 . S
C1686 H1680 0.950 . S
C1686 C1687 1.327 . S
C1687 H1681 0.950 . S
C1687 C1686 1.327 . S
C1687 C1691 1.429 . S
C1688 C1671 1.574 1_556 S
C1688 H1682 0.949 . S
C1688 C1692 1.368 . S
C1689 C1670 1.429 . S
C1689 C1683 1.429 . S
C1689 C1690 1.523 . S
C1690 C1671 1.368 . S
C1690 C1684 1.368 . S
C1690 C1689 1.523 . S
C1691 C1675 1.429 . S
C1691 C1687 1.429 . S
C1691 C1692 1.523 . S
C1692 C1676 1.368 . S
C1692 C1688 1.368 . S
C1692 C1691 1.523 . S
H1693 C1668 0.950 . S
H1694 C1670 0.950 . S
H1695 C1671 0.949 . S
H1696 C1673 0.950 . S
H1697 C1675 0.950 . S
C1698 C1699 1.349 . S
C1698 C1700 1.327 . S
C1698 H1723 0.950 . S
C1699 C1698 1.349 . S
C1699 C1715 1.349 . S
C1700 C1698 1.327 . S
C1700 C1719 1.429 . S
C1700 H1724 0.950 . S
C1701 C1718 1.574 . S
C1701 C1720 1.368 . S
C1701 H1725 0.949 . S
H1702 C1706 0.949 . S
C1703 C1704 1.349 . S
C1703 C1705 1.327 . S
C1703 H1726 0.950 . S
C1704 C1703 1.349 . S
C1704 C1716 1.349 . S
C1705 C1703 1.327 . S
C1705 C1721 1.429 . S
C1705 H1727 0.950 . S
C1706 H1702 0.949 . S
C1706 C1714 1.574 . S
C1706 C1722 1.368 . S
H1707 C1715 0.950 . S
H1708 C1713 0.950 . S
H1709 C1714 0.949 . S
H1710 C1716 0.950 . S
H1711 C1717 0.950 . S
H1712 C1718 0.949 . S
C1713 H1708 0.950 . S
C1713 C1715 1.327 . S
C1713 C1719 1.429 . S
C1714 C1706 1.574 . S
C1714 H1709 0.949 . S
C1714 C1720 1.368 . S
C1715 C1699 1.349 . S
C1715 H1707 0.950 . S
C1715 C1713 1.327 . S
C1716 C1704 1.349 . S
C1716 H1710 0.950 . S
C1716 C1717 1.327 . S
C1717 H1711 0.950 . S
C1717 C1716 1.327 . S
C1717 C1721 1.429 . S
C1718 C1701 1.574 . S
C1718 H1712 0.949 . S
C1718 C1722 1.368 . S
C1719 C1700 1.429 . S
C1719 C1713 1.429 . S
C1719 C1720 1.523 . S
C1720 C1701 1.368 . S
C1720 C1714 1.368 . S
C1720 C1719 1.523 . S
C1721 C1705 1.429 . S
C1721 C1717 1.429 . S
C1721 C1722 1.523 . S
C1722 C1706 1.368 . S
C1722 C1718 1.368 . S
C1722 C1721 1.523 . S
H1723 C1698 0.950 . S
H1724 C1700 0.950 . S
H1725 C1701 0.949 . S
H1726 C1703 0.950 . S
H1727 C1705 0.950 . S
C529 N2 2.041 . S
C534 N233 2.041 . S
C559 N134 2.041 . S
C564 N35 2.041 . S
C589 N167 2.041 . S
C594 N68 2.041 . S
C619 N101 2.041 . S
C624 N200 2.041 . S
C649 N266 2.041 . S
C654 N497 2.041 . S
C679 N299 2.041 . S
C684 N398 2.041 . S
C709 N431 2.041 . S
C714 N332 2.041 . S
C739 N365 2.041 . S
C744 N464 2.041 . S
C769 C7 0.421 . S
C774 C318 0.572 . S
C799 C351 0.572 . S
C804 C40 0.421 . S
C829 C384 0.572 . S
C834 C73 0.421 . S
C859 C285 0.572 . S
C864 C106 0.421 . S
C889 C516 0.572 . S
C894 C139 0.421 . S
C919 C417 0.572 . S
C924 C172 0.421 . S
C949 C450 0.572 . S
C954 C205 0.421 . S
C979 C483 0.572 . S
C984 C238 0.421 . S
C1009 C54 0.572 . S
C1014 C271 0.421 . S
C1039 C87 0.572 . S
C1044 C304 0.421 . S
C1069 C120 0.572 . S
C1074 C337 0.421 . S
C1099 C370 0.421 . S
C1104 C21 0.572 . S
C1129 C252 0.572 . S
C1134 C403 0.421 . S
C1159 C153 0.572 . S
C1164 C436 0.421 . S
C1189 C186 0.572 . S
C1194 C469 0.421 . S
C1219 C219 0.572 . S
C1224 C502 0.421 . S
C1249 N79 0.807 . S
C1254 N13 0.807 . S
C1279 N46 0.807 . S
C1284 N112 0.807 . S
C1309 N211 0.807 . S
C1314 N145 0.807 . S
C1339 N244 0.807 . S
C1344 N178 0.807 . S
C1369 N343 0.807 . S
C1374 N277 0.807 . S
C1399 N376 0.807 . S
C1404 N310 0.807 . S
C1429 N409 0.807 . S
C1434 N475 0.807 . S
C1459 N508 0.807 . S
C1464 N442 0.807 . S
C1489 C216 1.197 . S
C1494 C18 1.197 . S
C1519 C249 1.197 . S
C1524 C51 1.197 . S
C1549 C84 1.197 . S
C1554 C150 1.197 . S
C1579 C183 1.197 . S
C1584 C117 1.197 . S
C1609 C480 1.197 . S
C1614 C282 1.197 . S
C1639 C513 1.197 . S
C1644 C315 1.197 . S
C1669 C414 1.197 . S
C1674 C348 1.197 . S
C1699 C381 1.197 . S
C1704 C447 1.197 . S
