# Generated by pormake.
# Topology wme, (6)-cn, num edge types: 1
# Building blocks:
#     Node 0, Type 0, BuildingBlock: UKALOJ_clean_sbu_0, # of connection points: 6
#     Node 1, Type 0, BuildingBlock: UKALOJ_clean_sbu_0, # of connection points: 6
#     Node 2, Type 0, BuildingBlock: UKALOJ_clean_sbu_0, # of connection points: 6
#     Node 3, Type 0, BuildingBlock: UKALOJ_clean_sbu_0, # of connection points: 6
#     Node 4, Type 0, BuildingBlock: UKALOJ_clean_sbu_0, # of connection points: 6
#     Node 5, Type 0, BuildingBlock: UKALOJ_clean_sbu_0, # of connection points: 6
#     Node 6, Type 0, BuildingBlock: UKALOJ_clean_sbu_0, # of connection points: 6
#     Node 7, Type 0, BuildingBlock: UKALOJ_clean_sbu_0, # of connection points: 6
#     Node 8, Type 0, BuildingBlock: UKALOJ_clean_sbu_0, # of connection points: 6
#     Node 9, Type 0, BuildingBlock: UKALOJ_clean_sbu_0, # of connection points: 6
#     Node 10, Type 0, BuildingBlock: UKALOJ_clean_sbu_0, # of connection points: 6
#     Node 11, Type 0, BuildingBlock: UKALOJ_clean_sbu_0, # of connection points: 6
#     Edge 12, Type (0, 0), None
#     Edge 13, Type (0, 0), None
#     Edge 14, Type (0, 0), None
#     Edge 15, Type (0, 0), None
#     Edge 16, Type (0, 0), None
#     Edge 17, Type (0, 0), None
#     Edge 18, Type (0, 0), None
#     Edge 19, Type (0, 0), None
#     Edge 20, Type (0, 0), None
#     Edge 21, Type (0, 0), None
#     Edge 22, Type (0, 0), None
#     Edge 23, Type (0, 0), None
#     Edge 24, Type (0, 0), None
#     Edge 25, Type (0, 0), None
#     Edge 26, Type (0, 0), None
#     Edge 27, Type (0, 0), None
#     Edge 28, Type (0, 0), None
#     Edge 29, Type (0, 0), None
#     Edge 30, Type (0, 0), None
#     Edge 31, Type (0, 0), None
#     Edge 32, Type (0, 0), None
#     Edge 33, Type (0, 0), None
#     Edge 34, Type (0, 0), None
#     Edge 35, Type (0, 0), None
#     Edge 36, Type (0, 0), None
#     Edge 37, Type (0, 0), None
#     Edge 38, Type (0, 0), None
#     Edge 39, Type (0, 0), None
#     Edge 40, Type (0, 0), None
#     Edge 41, Type (0, 0), None
#     Edge 42, Type (0, 0), None
#     Edge 43, Type (0, 0), None
#     Edge 44, Type (0, 0), None
#     Edge 45, Type (0, 0), None
#     Edge 46, Type (0, 0), None
#     Edge 47, Type (0, 0), None
# Relax obj value: 0.072
# Max RMSD: 0.171
# Mean RMSD: 0.170
data_MOF--net-wme--node1-UKALOJ_clean_sbu_0--edge1-none
_symmetry_space_group_name_H-M    P1
_symmetry_Int_Tables_number       1
_symmetry_cell_setting            triclinic
loop_
_symmetry_equiv_pos_as_xyz
'x, y, z'
_cell_length_a     13.577532
_cell_length_b     13.577443
_cell_length_c     46.73603
_cell_angle_alpha  89.99888
_cell_angle_beta   90.000556
_cell_angle_gamma 119.99954
loop_
_atom_site_label
_atom_site_type_symbol
_atom_site_fract_x
_atom_site_fract_y
_atom_site_fract_z
_atom_type_partial_charge
Zn0 Zn 0.11707 0.29334 0.17753 0.0
O1 O 0.07269 0.42132 0.17497 0.0
C2 C 0.33911 0.4654 0.15109 0.0
Zn3 Zn 0.11754 0.28968 0.12948 0.0
C4 C 0.05524 0.45595 0.15119 0.0
O5 O 0.06712 0.41497 0.12769 0.0
C6 C 0.16708 0.1197 0.15652 0.0
O7 O -0.05621 0.16054 0.13226 0.0
O8 O -0.05643 0.16826 0.17949 0.0
N9 N 0.12572 0.27754 0.08492 0.0
C10 C 0.13309 0.19887 0.06854 0.0
C11 C 0.19393 0.34817 0.04309 0.0
N12 N 0.1631 0.36991 0.06879 0.0
N13 N 0.17495 0.24103 0.04256 0.0
C14 C 0.07783 0.30929 0.24371 0.0
C15 C 0.22814 0.31559 0.25992 0.0
N16 N 0.13752 0.30624 0.22103 0.0
N17 N 0.23069 0.31052 0.23123 0.0
N18 N 0.13318 0.31485 0.26837 0.0
H19 H 0.89927 0.22924 0.25237 0.0
H20 H -0.02762 0.38221 0.25183 0.0
H21 H -0.05835 0.30428 0.21866 0.0
C22 C -0.03375 0.30602 0.24133 0.0
C23 C 0.10493 0.08237 0.0776 0.0
H24 H 0.07042 0.02326 0.05914 0.0
H25 H 0.18384 0.08401 0.08456 0.0
H26 H 0.04185 0.05158 0.09511 0.0
O27 O 0.16536 0.16543 0.13313 0.0
O28 O 0.15586 0.16099 0.17972 0.0
C29 C 0.89102 0.12708 0.15607 0.0
O30 O 0.28997 0.42223 0.17465 0.0
O31 O 0.28821 0.42207 0.12779 0.0
Zn32 Zn 0.78653 0.13815 0.62948 0.0
O33 O 0.74192 -0.0356 0.63226 0.0
C34 C 0.00605 0.18768 0.65652 0.0
Zn35 Zn 0.7824 0.13767 0.67753 0.0
C36 C 0.72262 0.91162 0.65607 0.0
O37 O 0.73398 -0.03583 0.6795 0.0
C38 C 0.83238 0.35972 0.65109 0.0
O39 O 0.61005 0.09329 0.67497 0.0
O40 O 0.61082 0.08772 0.62769 0.0
N41 N 0.78995 0.15812 0.72103 0.0
C42 C 0.72721 0.09843 0.74371 0.0
C43 C 0.87122 0.24874 0.75992 0.0
N44 N 0.87884 0.2513 0.73123 0.0
N45 N 0.777 0.15378 0.76837 0.0
C46 C 0.8929 0.1537 0.56854 0.0
C47 C 0.80443 0.21453 0.54309 0.0
N48 N 0.80686 0.14633 0.58492 0.0
N49 N 0.75186 0.1837 0.56879 0.0
N50 N 0.8926 0.19555 0.54256 0.0
H51 H 0.00583 0.09103 0.55914 0.0
H52 H 0.05851 0.20445 0.58456 0.0
H53 H -0.05105 0.06246 0.59511 0.0
C54 C -0.01877 0.12553 0.5776 0.0
C55 C 0.61891 -0.01315 0.74134 0.0
H56 H 0.62871 0.91988 0.75237 0.0
H57 H 0.54885 -0.00701 0.75184 0.0
H58 H 0.59604 -0.03775 0.71867 0.0
O59 O 0.82641 0.31057 0.67465 0.0
O60 O 0.82482 0.30881 0.62779 0.0
C61 C 0.55796 0.07584 0.65119 0.0
O62 O -0.0414 0.18596 0.63313 0.0
O63 O -0.04646 0.17646 0.67972 0.0
Zn64 Zn 0.6034 0.803 0.17753 0.0
O65 O 0.47543 0.63064 0.17497 0.0
C66 C 0.43134 0.85297 0.15109 0.0
Zn67 Zn 0.60706 0.80713 0.12948 0.0
C68 C 0.44081 0.57856 0.15119 0.0
O69 O 0.48178 0.63141 0.12769 0.0
C70 C 0.77703 0.02664 0.15652 0.0
O71 O 0.7362 0.76252 0.13226 0.0
O72 O 0.72848 0.75457 0.1795 0.0
N73 N 0.61921 0.82746 0.08492 0.0
C74 C 0.69788 0.9135 0.06854 0.0
C75 C 0.54858 0.82504 0.04309 0.0
N76 N 0.52684 0.77246 0.06879 0.0
N77 N 0.65572 0.9132 0.04256 0.0
C78 C 0.58746 0.74781 0.24371 0.0
C79 C 0.58114 0.89181 0.25992 0.0
N80 N 0.5905 0.81054 0.22103 0.0
N81 N 0.5862 0.89943 0.23123 0.0
N82 N 0.5819 0.7976 0.26837 0.0
H83 H 0.66754 0.64933 0.25237 0.0
H84 H 0.51457 0.56945 0.25184 0.0
H85 H 0.59248 0.61664 0.21867 0.0
C86 C 0.59075 0.63951 0.24134 0.0
C87 C 0.81438 0.00183 0.0776 0.0
H88 H 0.87349 0.02643 0.05914 0.0
H89 H 0.81274 0.07911 0.08455 0.0
H90 H 0.84517 -0.03046 0.09511 0.0
O91 O 0.73131 -0.0208 0.13313 0.0
O92 O 0.73575 -0.02587 0.17973 0.0
C93 C 0.76967 0.74321 0.15607 0.0
O94 O 0.47451 0.84699 0.17465 0.0
O95 O 0.47468 0.84541 0.12779 0.0
Zn96 Zn 0.75861 0.62767 0.62948 0.0
O97 O 0.93236 0.75681 0.63226 0.0
C98 C 0.70907 0.79764 0.65652 0.0
Zn99 Zn 0.75908 0.624 0.67753 0.0
C100 C -0.01487 0.79027 0.65607 0.0
O101 O 0.93258 0.74909 0.6795 0.0
C102 C 0.53704 0.45194 0.65109 0.0
O103 O 0.80347 0.49603 0.67497 0.0
O104 O 0.80904 0.50238 0.62769 0.0
N105 N 0.73863 0.6111 0.72103 0.0
C106 C 0.79833 0.60806 0.74371 0.0
C107 C 0.648 0.60173 0.75993 0.0
N108 N 0.64545 0.6068 0.73123 0.0
N109 N 0.74297 0.6025 0.76837 0.0
C110 C 0.74306 0.71849 0.56854 0.0
C111 C 0.68223 0.56919 0.54309 0.0
N112 N 0.75043 0.63982 0.58492 0.0
N113 N 0.71306 0.54744 0.56879 0.0
N114 N 0.70121 0.67633 0.54256 0.0
H115 H 0.80574 0.8941 0.55914 0.0
H116 H 0.69231 0.83335 0.58455 0.0
H117 H 0.8343 0.86578 0.59511 0.0
C118 C 0.77123 0.83499 0.5776 0.0
C119 C 0.90992 0.61136 0.74134 0.0
H120 H -0.02312 0.68815 0.75237 0.0
H121 H 0.9038 0.53518 0.75184 0.0
H122 H 0.93451 0.61309 0.71867 0.0
O123 O 0.58619 0.49511 0.67465 0.0
O124 O 0.58795 0.49528 0.62779 0.0
C125 C 0.82092 0.46142 0.65119 0.0
O126 O 0.71079 0.75192 0.63313 0.0
O127 O 0.72029 0.75635 0.67973 0.0
Zn128 Zn 0.08961 0.7792 0.12948 0.0
O129 O 0.13423 0.95295 0.13226 0.0
C130 C 0.87011 0.72967 0.15652 0.0
Zn131 Zn 0.09375 0.77967 0.17753 0.0
C132 C 0.15354 0.00571 0.15607 0.0
O133 O 0.14217 0.95317 0.1795 0.0
C134 C 0.04376 0.55764 0.15109 0.0
O135 O 0.2661 0.82405 0.17497 0.0
O136 O 0.26533 0.82962 0.12769 0.0
N137 N 0.0862 0.75922 0.22103 0.0
C138 C 0.14894 0.81892 0.24371 0.0
C139 C 0.00495 0.6686 0.25993 0.0
N140 N -0.00268 0.66604 0.23123 0.0
N141 N 0.09915 0.76357 0.26837 0.0
C142 C -0.01676 0.76365 0.06854 0.0
C143 C 0.07171 0.70282 0.04309 0.0
N144 N 0.06929 0.77103 0.08492 0.0
N145 N 0.12429 0.73365 0.06879 0.0
N146 N -0.01645 0.7218 0.04256 0.0
H147 H 0.87031 0.82633 0.05914 0.0
H148 H 0.81764 0.7129 0.08456 0.0
H149 H 0.9272 0.8549 0.09511 0.0
C150 C 0.89492 0.79182 0.0776 0.0
C151 C 0.25724 0.93051 0.24134 0.0
H152 H 0.24742 -0.00252 0.25237 0.0
H153 H 0.3273 0.92439 0.25184 0.0
H154 H 0.2801 0.9551 0.21866 0.0
O155 O 0.04975 0.60677 0.17465 0.0
O156 O 0.05133 0.60853 0.12778 0.0
C157 C 0.31818 0.84151 0.15119 0.0
O158 O 0.91755 0.73139 0.13313 0.0
O159 O 0.92261 0.74088 0.17973 0.0
Zn160 Zn 0.27275 0.11435 0.67753 0.0
O161 O 0.40072 0.28671 0.67497 0.0
C162 C 0.4448 0.06437 0.65109 0.0
Zn163 Zn 0.26909 0.11022 0.62948 0.0
C164 C 0.43535 0.33878 0.65119 0.0
O165 O 0.39438 0.28594 0.62769 0.0
C166 C 0.09912 0.89071 0.65652 0.0
O167 O 0.13995 0.15484 0.63226 0.0
O168 O 0.14767 0.16278 0.6795 0.0
N169 N 0.25694 0.0899 0.58492 0.0
C170 C 0.17827 0.00385 0.56854 0.0
C171 C 0.32757 0.09232 0.54309 0.0
N172 N 0.34932 0.14489 0.56879 0.0
N173 N 0.22043 0.00416 0.54256 0.0
C174 C 0.2887 0.16955 0.74371 0.0
C175 C 0.29501 0.02555 0.75993 0.0
N176 N 0.28565 0.1068 0.72103 0.0
N177 N 0.28995 0.01792 0.73124 0.0
N178 N 0.29426 0.11976 0.76837 0.0
H179 H 0.20862 0.26803 0.75237 0.0
H180 H 0.36159 0.3479 0.75184 0.0
H181 H 0.28368 0.30071 0.71866 0.0
C182 C 0.28541 0.27784 0.74134 0.0
C183 C 0.06178 0.91552 0.5776 0.0
H184 H 0.00267 0.89092 0.55914 0.0
H185 H 0.06341 0.83825 0.58456 0.0
H186 H 0.03098 0.94781 0.59511 0.0
O187 O 0.14484 0.93815 0.63313 0.0
O188 O 0.1404 0.94321 0.67973 0.0
C189 C 0.1065 0.17414 0.65607 0.0
O190 O 0.40164 0.07035 0.67465 0.0
O191 O 0.40147 0.07193 0.62779 0.0
Zn192 Zn 0.60707 0.77921 0.43586 0.0
O193 O 0.73622 0.95296 0.43305 0.0
C194 C 0.77704 0.72966 0.40879 0.0
Zn195 Zn 0.6034 0.77967 0.3878 0.0
C196 C 0.76967 0.00573 0.40925 0.0
O197 O 0.72847 0.95318 0.38582 0.0
C198 C 0.43134 0.55764 0.41426 0.0
O199 O 0.47543 0.82405 0.39038 0.0
O200 O 0.4818 0.82965 0.43766 0.0
N201 N 0.59044 0.7592 0.3443 0.0
C202 C 0.58747 0.81893 0.32162 0.0
C203 C 0.58104 0.66856 0.30541 0.0
N204 N 0.58606 0.66598 0.3341 0.0
N205 N 0.58193 0.76359 0.29696 0.0
C206 C 0.69805 0.76351 0.49675 0.0
C207 C 0.54881 0.70252 0.52224 0.0
N208 N 0.61934 0.77102 0.48042 0.0
N209 N 0.52702 0.73357 0.49657 0.0
N210 N 0.65589 0.7213 0.5227 0.0
H211 H 0.87371 0.82649 0.50612 0.0
H212 H 0.81308 0.71302 0.48072 0.0
H213 H 0.84523 0.85494 0.47015 0.0
C214 C 0.81458 0.79188 0.48766 0.0
C215 C 0.5908 0.93054 0.32399 0.0
H216 H 0.66764 -0.0025 0.31298 0.0
H217 H 0.51467 0.92447 0.31348 0.0
H218 H 0.59248 0.95511 0.34666 0.0
O219 O 0.47451 0.60677 0.3907 0.0
O220 O 0.47468 0.60855 0.43756 0.0
C221 C 0.44081 0.84152 0.41416 0.0
O222 O 0.73129 0.73135 0.43218 0.0
O223 O 0.73576 0.7409 0.38559 0.0
Zn224 Zn 0.78241 0.62401 0.8878 0.0
O225 O 0.61005 0.49603 0.89038 0.0
C226 C 0.83238 0.45194 0.91425 0.0
Zn227 Zn 0.78654 0.62767 0.93586 0.0
C228 C 0.55797 0.46141 0.91416 0.0
O229 O 0.61082 0.5024 0.93766 0.0
C230 C 0.00606 0.79765 0.90879 0.0
O231 O 0.74194 0.75683 0.93305 0.0
O232 O 0.73397 0.74907 0.88582 0.0
N233 N 0.807 0.63994 0.98042 0.0
C234 C 0.89322 0.71865 0.99675 0.0
C235 C 0.80498 0.56941 1.02224 0.0
N236 N 0.75213 0.54762 0.99657 0.0
N237 N 0.89326 0.67648 1.0227 0.0
C238 C 0.72722 0.60807 0.82162 0.0
C239 C 0.87116 0.60165 0.80541 0.0
N240 N 0.78992 0.61105 0.8443 0.0
N241 N 0.87877 0.60668 0.8341 0.0
N242 N 0.77702 0.60254 0.79696 0.0
H243 H 0.6288 0.68824 0.81298 0.0
H244 H 0.54888 0.53527 0.81348 0.0
H245 H 0.59605 0.61308 0.84667 0.0
C246 C 0.61894 0.61141 0.82399 0.0
C247 C -0.01863 0.83518 0.98766 0.0
H248 H 0.0059 0.89431 1.00612 0.0
H249 H 0.05873 0.83368 0.98072 0.0
H250 H -0.05103 0.86584 0.97015 0.0
O251 O -0.04138 0.7519 0.93218 0.0
O252 O -0.04646 0.75637 0.88559 0.0
C253 C 0.72262 0.79027 0.90925 0.0
O254 O 0.82642 0.49512 0.8907 0.0
O255 O 0.8248 0.49528 0.93756 0.0
Zn256 Zn 0.11709 0.80302 0.3878 0.0
O257 O 0.07271 0.63067 0.39038 0.0
C258 C 0.33912 0.853 0.41425 0.0
Zn259 Zn 0.11755 0.80715 0.43586 0.0
C260 C 0.05525 0.57858 0.41416 0.0
O261 O 0.06711 0.63143 0.43766 0.0
C262 C 0.16709 0.02667 0.40879 0.0
O263 O -0.0562 0.76254 0.43306 0.0
O264 O -0.05641 0.75458 0.38582 0.0
N265 N 0.12574 0.8276 0.48042 0.0
C266 C 0.13325 0.91382 0.49675 0.0
C267 C 0.19425 0.82558 0.52224 0.0
N268 N 0.1632 0.77274 0.49657 0.0
N269 N 0.17547 0.91387 0.5227 0.0
C270 C 0.07783 0.74782 0.32162 0.0
C271 C 0.22819 0.89177 0.30541 0.0
N272 N 0.13756 0.81053 0.3443 0.0
N273 N 0.23077 0.89938 0.3341 0.0
N274 N 0.13317 0.79762 0.29696 0.0
H275 H 0.89926 0.6494 0.31298 0.0
H276 H -0.02769 0.56948 0.31348 0.0
H277 H -0.05834 0.61665 0.34667 0.0
C278 C -0.03377 0.63954 0.324 0.0
C279 C 0.10488 0.00198 0.48766 0.0
H280 H 0.07027 0.02651 0.50612 0.0
H281 H 0.18373 0.07934 0.48072 0.0
H282 H 0.04182 -0.03042 0.47015 0.0
O283 O 0.1654 -0.02078 0.43217 0.0
O284 O 0.15586 -0.02585 0.38559 0.0
C285 C 0.89104 0.74322 0.40925 0.0
O286 O 0.28999 0.84703 0.3907 0.0
O287 O 0.28821 0.84541 0.43756 0.0
Zn288 Zn 0.26908 0.13816 0.93586 0.0
O289 O 0.13993 -0.0356 0.93306 0.0
C290 C 0.0991 0.1877 0.90879 0.0
Zn291 Zn 0.27275 0.1377 0.8878 0.0
C292 C 0.1065 0.91164 0.90925 0.0
O293 O 0.14769 -0.03581 0.88582 0.0
C294 C 0.4448 0.35972 0.91425 0.0
O295 O 0.40073 0.09332 0.89038 0.0
O296 O 0.39436 0.08772 0.93766 0.0
N297 N 0.28572 0.15817 0.8443 0.0
C298 C 0.28869 0.09843 0.82162 0.0
C299 C 0.29511 0.2488 0.80541 0.0
N300 N 0.29008 0.25138 0.8341 0.0
N301 N 0.29422 0.15377 0.79696 0.0
C302 C 0.1781 0.15385 0.99675 0.0
C303 C 0.32734 0.21485 1.02225 0.0
N304 N 0.25681 0.14635 0.98042 0.0
N305 N 0.34913 0.1838 0.99657 0.0
N306 N 0.22027 0.19606 1.0227 0.0
H307 H 0.00244 0.09088 1.00612 0.0
H308 H 0.06307 0.20434 0.98072 0.0
H309 H 0.03092 0.06243 0.97015 0.0
C310 C 0.06158 0.12548 0.98766 0.0
C311 C 0.28536 -0.01317 0.824 0.0
H312 H 0.20852 0.91986 0.81298 0.0
H313 H 0.36149 -0.0071 0.81348 0.0
H314 H 0.28369 -0.03774 0.84667 0.0
O315 O 0.40164 0.3106 0.8907 0.0
O316 O 0.40147 0.30881 0.93756 0.0
C317 C 0.43535 0.07585 0.91416 0.0
O318 O 0.14485 0.18601 0.93217 0.0
O319 O 0.14039 0.17647 0.88559 0.0
Zn320 Zn 0.09374 0.29336 0.3878 0.0
O321 O 0.2661 0.42134 0.39037 0.0
C322 C 0.04377 0.46541 0.41425 0.0
Zn323 Zn 0.08961 0.28969 0.43586 0.0
C324 C 0.31817 0.45594 0.41416 0.0
O325 O 0.26533 0.41497 0.43766 0.0
C326 C 0.8701 0.11973 0.40879 0.0
O327 O 0.13421 0.16054 0.43306 0.0
O328 O 0.14218 0.1683 0.38582 0.0
N329 N 0.06915 0.27742 0.48042 0.0
C330 C -0.01707 0.1987 0.49675 0.0
C331 C 0.07117 0.34794 0.52225 0.0
N332 N 0.12402 0.36974 0.49657 0.0
N333 N -0.01712 0.24087 0.5227 0.0
C334 C 0.14893 0.30929 0.32162 0.0
C335 C 0.005 0.31574 0.3054 0.0
N336 N 0.08624 0.30633 0.3443 0.0
N337 N -0.0026 0.31071 0.3341 0.0
N338 N 0.09914 0.31483 0.29696 0.0
H339 H 0.24732 0.2291 0.31298 0.0
H340 H 0.32727 0.38207 0.31348 0.0
H341 H 0.2801 0.30428 0.34667 0.0
C342 C 0.2572 0.30594 0.324 0.0
C343 C 0.89477 0.08218 0.48767 0.0
H344 H 0.87024 0.02305 0.50612 0.0
H345 H 0.81742 0.08368 0.48072 0.0
H346 H 0.92718 0.05152 0.47015 0.0
O347 O 0.91753 0.16546 0.43218 0.0
O348 O 0.92261 0.161 0.38559 0.0
C349 C 0.15354 0.12711 0.40925 0.0
O350 O 0.04973 0.42225 0.3907 0.0
O351 O 0.05135 0.42208 0.43756 0.0
Zn352 Zn 0.75906 0.11435 0.8878 0.0
O353 O 0.80344 0.2867 0.89037 0.0
C354 C 0.53704 0.06438 0.91426 0.0
Zn355 Zn 0.7586 0.11021 0.93586 0.0
C356 C 0.82091 0.33878 0.91416 0.0
O357 O 0.80904 0.28593 0.93766 0.0
C358 C 0.70905 0.89071 0.90879 0.0
O359 O 0.93235 0.15481 0.93306 0.0
O360 O 0.93256 0.16278 0.88582 0.0
N361 N 0.75041 0.08976 0.98042 0.0
C362 C 0.74291 0.00354 0.99675 0.0
C363 C 0.6819 0.09177 1.02224 0.0
N364 N 0.71295 0.14462 0.99657 0.0
N365 N 0.70069 0.00348 1.0227 0.0
C366 C 0.79833 0.16954 0.82162 0.0
C367 C 0.64795 0.02561 0.80541 0.0
N368 N 0.73859 0.10685 0.8443 0.0
N369 N 0.64537 0.018 0.8341 0.0
N370 N 0.74298 0.11974 0.79696 0.0
H371 H -0.0231 0.26793 0.81298 0.0
H372 H 0.90388 0.34787 0.81348 0.0
H373 H 0.9345 0.30071 0.84666 0.0
C374 C 0.90994 0.27781 0.82399 0.0
C375 C 0.77128 0.91538 0.98767 0.0
H376 H 0.80588 0.89085 1.00612 0.0
H377 H 0.69242 0.83802 0.98072 0.0
H378 H 0.83433 0.94778 0.97015 0.0
O379 O 0.71074 0.93814 0.93218 0.0
O380 O 0.72029 0.94322 0.88559 0.0
C381 C -0.01489 0.17414 0.90925 0.0
O382 O 0.58616 0.07034 0.8907 0.0
O383 O 0.58794 0.07195 0.93756 0.0
loop_
_geom_bond_atom_site_label_1
_geom_bond_atom_site_label_2
_geom_bond_distance
_geom_bond_site_symmetry_2
_ccdc_geom_bond_type
Zn0 O1 2.055 . S
Zn0 O8 2.046 1_455 S
Zn0 N16 2.036 . S
Zn0 O28 2.053 . S
Zn0 O30 2.066 . S
O1 Zn0 2.055 . S
O1 C4 1.259 . S
C2 O30 1.256 . S
C2 O31 1.244 . S
Zn3 O5 2.046 . S
Zn3 O7 2.055 1_455 S
Zn3 N9 2.036 . S
Zn3 O27 2.066 . S
Zn3 O31 2.053 . S
C4 O1 1.259 . S
C4 O5 1.254 . S
O5 Zn3 2.046 . S
O5 C4 1.254 . S
C6 O27 1.256 . S
C6 O28 1.244 . S
O7 Zn3 2.055 1_655 S
O7 C29 1.259 . S
O8 Zn0 2.046 1_655 S
O8 C29 1.254 . S
N9 Zn3 2.036 . S
N9 C10 1.298 . S
N9 N12 1.398 . S
C10 N9 1.298 . S
C10 N13 1.367 . S
C10 C23 1.481 . S
C11 N12 1.299 . S
C11 N13 1.379 . S
N12 N9 1.398 . S
N12 C11 1.299 . S
N13 C10 1.367 . S
N13 C11 1.379 . S
C14 N16 1.298 . S
C14 N18 1.367 . S
C14 C22 1.481 . S
C15 N17 1.299 . S
C15 N18 1.379 . S
N16 Zn0 2.036 . S
N16 C14 1.298 . S
N16 N17 1.398 . S
N17 C15 1.299 . S
N17 N16 1.398 . S
N18 C14 1.367 . S
N18 C15 1.379 . S
H19 C22 0.980 . S
H20 C22 0.981 . S
H21 C22 0.981 . S
C22 C14 1.481 . S
C22 H19 0.980 . S
C22 H20 0.981 . S
C22 H21 0.981 . S
C23 C10 1.481 . S
C23 H24 0.980 1_455 S
C23 H25 0.981 1_455 S
C23 H26 0.981 . S
H24 C23 0.980 1_655 S
H25 C23 0.981 1_655 S
H26 C23 0.981 . S
O27 Zn3 2.066 . S
O27 C6 1.256 . S
O28 Zn0 2.053 . S
O28 C6 1.244 . S
C29 O7 1.259 . S
C29 O8 1.254 . S
O30 Zn0 2.066 . S
O30 C2 1.256 . S
O31 C2 1.244 . S
O31 Zn3 2.053 . S
Zn32 O33 2.055 1_545 S
Zn32 O40 2.046 . S
Zn32 N48 2.036 . S
Zn32 O60 2.053 . S
Zn32 O62 2.066 1_655 S
O33 Zn32 2.055 1_565 S
O33 C36 1.259 . S
C34 O62 1.256 . S
C34 O63 1.244 1_455 S
Zn35 O37 2.046 1_545 S
Zn35 O39 2.055 . S
Zn35 N41 2.036 . S
Zn35 O59 2.066 . S
Zn35 O63 2.053 . S
C36 O33 1.259 . S
C36 O37 1.254 . S
O37 Zn35 2.046 1_565 S
O37 C36 1.254 . S
C38 O59 1.256 . S
C38 O60 1.244 . S
O39 Zn35 2.055 . S
O39 C61 1.259 . S
O40 Zn32 2.046 . S
O40 C61 1.254 . S
N41 Zn35 2.036 . S
N41 C42 1.298 . S
N41 N44 1.398 . S
C42 N41 1.298 . S
C42 N45 1.367 . S
C42 C55 1.481 . S
C43 N44 1.299 . S
C43 N45 1.379 . S
N44 N41 1.398 . S
N44 C43 1.299 . S
N45 C42 1.367 . S
N45 C43 1.379 . S
C46 N48 1.298 . S
C46 N50 1.367 . S
C46 C54 1.481 . S
C47 N49 1.299 . S
C47 N50 1.379 . S
N48 Zn32 2.036 . S
N48 C46 1.298 . S
N48 N49 1.398 . S
N49 C47 1.299 . S
N49 N48 1.398 . S
N50 C46 1.367 . S
N50 C47 1.379 . S
H51 C54 0.980 1_565 S
H52 C54 0.981 1_565 S
H53 C54 0.981 1_455 S
C54 C46 1.481 . S
C54 H51 0.980 1_545 S
C54 H52 0.981 1_545 S
C54 H53 0.981 1_655 S
C55 C42 1.481 . S
C55 H56 0.980 . S
C55 H57 0.981 . S
C55 H58 0.981 . S
H56 C55 0.980 . S
H57 C55 0.981 . S
H58 C55 0.981 . S
O59 Zn35 2.066 . S
O59 C38 1.256 . S
O60 Zn32 2.053 . S
O60 C38 1.244 . S
C61 O39 1.259 . S
C61 O40 1.254 . S
O62 Zn32 2.066 1_455 S
O62 C34 1.256 . S
O63 C34 1.244 1_655 S
O63 Zn35 2.053 . S
Zn64 O65 2.055 . S
Zn64 O72 2.046 . S
Zn64 N80 2.036 . S
Zn64 O92 2.053 . S
Zn64 O94 2.066 . S
O65 Zn64 2.055 . S
O65 C68 1.259 . S
C66 O94 1.256 . S
C66 O95 1.244 . S
Zn67 O69 2.046 . S
Zn67 O71 2.055 . S
Zn67 N73 2.036 . S
Zn67 O91 2.066 1_565 S
Zn67 O95 2.053 . S
C68 O65 1.259 . S
C68 O69 1.254 . S
O69 Zn67 2.046 . S
O69 C68 1.254 . S
C70 O91 1.256 . S
C70 O92 1.244 1_545 S
O71 Zn67 2.055 . S
O71 C93 1.259 . S
O72 Zn64 2.046 . S
O72 C93 1.254 . S
N73 Zn67 2.036 . S
N73 C74 1.298 . S
N73 N76 1.398 . S
C74 N73 1.298 . S
C74 N77 1.367 . S
C74 C87 1.481 . S
C75 N76 1.299 . S
C75 N77 1.379 . S
N76 N73 1.398 . S
N76 C75 1.299 . S
N77 C74 1.367 . S
N77 C75 1.379 . S
C78 N80 1.298 . S
C78 N82 1.367 . S
C78 C86 1.481 . S
C79 N81 1.299 . S
C79 N82 1.379 . S
N80 Zn64 2.036 . S
N80 C78 1.298 . S
N80 N81 1.398 . S
N81 C79 1.299 . S
N81 N80 1.398 . S
N82 C78 1.367 . S
N82 C79 1.379 . S
H83 C86 0.980 . S
H84 C86 0.981 . S
H85 C86 0.981 . S
C86 C78 1.481 . S
C86 H83 0.980 . S
C86 H84 0.981 . S
C86 H85 0.981 . S
C87 C74 1.481 . S
C87 H88 0.980 . S
C87 H89 0.981 . S
C87 H90 0.981 1_565 S
H88 C87 0.980 . S
H89 C87 0.981 . S
H90 C87 0.981 1_545 S
O91 Zn67 2.066 1_545 S
O91 C70 1.256 . S
O92 Zn64 2.053 . S
O92 C70 1.244 1_565 S
C93 O71 1.259 . S
C93 O72 1.254 . S
O94 Zn64 2.066 . S
O94 C66 1.256 . S
O95 C66 1.244 . S
O95 Zn67 2.053 . S
Zn96 O97 2.055 1_655 S
Zn96 O104 2.046 . S
Zn96 N112 2.036 . S
Zn96 O124 2.053 . S
Zn96 O126 2.066 . S
O97 Zn96 2.055 1_455 S
O97 C100 1.259 . S
C98 O126 1.256 . S
C98 O127 1.244 . S
Zn99 O101 2.046 1_655 S
Zn99 O103 2.055 . S
Zn99 N105 2.036 . S
Zn99 O123 2.066 . S
Zn99 O127 2.053 . S
C100 O97 1.259 . S
C100 O101 1.254 . S
O101 Zn99 2.046 1_455 S
O101 C100 1.254 . S
C102 O123 1.256 . S
C102 O124 1.244 . S
O103 Zn99 2.055 . S
O103 C125 1.259 . S
O104 Zn96 2.046 . S
O104 C125 1.254 . S
N105 Zn99 2.036 . S
N105 C106 1.298 . S
N105 N108 1.398 . S
C106 N105 1.298 . S
C106 N109 1.367 . S
C106 C119 1.481 . S
C107 N108 1.299 . S
C107 N109 1.379 . S
N108 N105 1.398 . S
N108 C107 1.299 . S
N109 C106 1.367 . S
N109 C107 1.379 . S
C110 N112 1.298 . S
C110 N114 1.367 . S
C110 C118 1.481 . S
C111 N113 1.299 . S
C111 N114 1.379 . S
N112 Zn96 2.036 . S
N112 C110 1.298 . S
N112 N113 1.398 . S
N113 C111 1.299 . S
N113 N112 1.398 . S
N114 C110 1.367 . S
N114 C111 1.379 . S
H115 C118 0.980 1_455 S
H116 C118 0.981 1_455 S
H117 C118 0.981 . S
C118 C110 1.481 . S
C118 H115 0.980 1_655 S
C118 H116 0.981 1_655 S
C118 H117 0.981 . S
C119 C106 1.481 . S
C119 H120 0.980 . S
C119 H121 0.981 . S
C119 H122 0.981 . S
H120 C119 0.980 . S
H121 C119 0.981 . S
H122 C119 0.981 . S
O123 Zn99 2.066 . S
O123 C102 1.256 . S
O124 Zn96 2.053 . S
O124 C102 1.244 . S
C125 O103 1.259 . S
C125 O104 1.254 . S
O126 Zn96 2.066 . S
O126 C98 1.256 . S
O127 C98 1.244 . S
O127 Zn99 2.053 . S
Zn128 O129 2.055 1_565 S
Zn128 O136 2.046 . S
Zn128 N144 2.036 . S
Zn128 O156 2.053 . S
Zn128 O158 2.066 1_455 S
O129 Zn128 2.055 1_545 S
O129 C132 1.259 . S
C130 O158 1.256 . S
C130 O159 1.244 1_655 S
Zn131 O133 2.046 1_565 S
Zn131 O135 2.055 . S
Zn131 N137 2.036 . S
Zn131 O155 2.066 . S
Zn131 O159 2.053 . S
C132 O129 1.259 . S
C132 O133 1.254 . S
O133 Zn131 2.046 1_545 S
O133 C132 1.254 . S
C134 O155 1.256 . S
C134 O156 1.244 . S
O135 Zn131 2.055 . S
O135 C157 1.259 . S
O136 Zn128 2.046 . S
O136 C157 1.254 . S
N137 Zn131 2.036 . S
N137 C138 1.298 . S
N137 N140 1.398 . S
C138 N137 1.298 . S
C138 N141 1.367 . S
C138 C151 1.481 . S
C139 N140 1.299 . S
C139 N141 1.379 . S
N140 N137 1.398 . S
N140 C139 1.299 . S
N141 C138 1.367 . S
N141 C139 1.379 . S
C142 N144 1.298 . S
C142 N146 1.367 . S
C142 C150 1.481 . S
C143 N145 1.299 . S
C143 N146 1.379 . S
N144 Zn128 2.036 . S
N144 C142 1.298 . S
N144 N145 1.398 . S
N145 C143 1.299 . S
N145 N144 1.398 . S
N146 C142 1.367 . S
N146 C143 1.379 . S
H147 C150 0.980 1_545 S
H148 C150 0.981 1_545 S
H149 C150 0.981 1_655 S
C150 C142 1.481 . S
C150 H147 0.980 1_565 S
C150 H148 0.981 1_565 S
C150 H149 0.981 1_455 S
C151 C138 1.481 . S
C151 H152 0.980 . S
C151 H153 0.981 . S
C151 H154 0.981 . S
H152 C151 0.980 . S
H153 C151 0.981 . S
H154 C151 0.981 . S
O155 Zn131 2.066 . S
O155 C134 1.256 . S
O156 Zn128 2.053 . S
O156 C134 1.244 . S
C157 O135 1.259 . S
C157 O136 1.254 . S
O158 Zn128 2.066 1_655 S
O158 C130 1.256 . S
O159 C130 1.244 1_455 S
O159 Zn131 2.053 . S
Zn160 O161 2.055 . S
Zn160 O168 2.046 . S
Zn160 N176 2.036 . S
Zn160 O188 2.053 . S
Zn160 O190 2.066 . S
O161 Zn160 2.055 . S
O161 C164 1.259 . S
C162 O190 1.256 . S
C162 O191 1.244 . S
Zn163 O165 2.046 . S
Zn163 O167 2.055 . S
Zn163 N169 2.036 . S
Zn163 O187 2.066 1_545 S
Zn163 O191 2.053 . S
C164 O161 1.259 . S
C164 O165 1.254 . S
O165 Zn163 2.046 . S
O165 C164 1.254 . S
C166 O187 1.256 . S
C166 O188 1.244 1_565 S
O167 Zn163 2.055 . S
O167 C189 1.259 . S
O168 Zn160 2.046 . S
O168 C189 1.254 . S
N169 Zn163 2.036 . S
N169 C170 1.298 . S
N169 N172 1.398 . S
C170 N169 1.298 . S
C170 N173 1.367 . S
C170 C183 1.481 . S
C171 N172 1.299 . S
C171 N173 1.379 . S
N172 N169 1.398 . S
N172 C171 1.299 . S
N173 C170 1.367 . S
N173 C171 1.379 . S
C174 N176 1.298 . S
C174 N178 1.367 . S
C174 C182 1.481 . S
C175 N177 1.299 . S
C175 N178 1.379 . S
N176 Zn160 2.036 . S
N176 C174 1.298 . S
N176 N177 1.398 . S
N177 C175 1.299 . S
N177 N176 1.398 . S
N178 C174 1.367 . S
N178 C175 1.379 . S
H179 C182 0.980 . S
H180 C182 0.981 . S
H181 C182 0.981 . S
C182 C174 1.481 . S
C182 H179 0.980 . S
C182 H180 0.981 . S
C182 H181 0.981 . S
C183 C170 1.481 . S
C183 H184 0.980 . S
C183 H185 0.981 . S
C183 H186 0.981 1_545 S
H184 C183 0.980 . S
H185 C183 0.981 . S
H186 C183 0.981 1_565 S
O187 Zn163 2.066 1_565 S
O187 C166 1.256 . S
O188 Zn160 2.053 . S
O188 C166 1.244 1_545 S
C189 O167 1.259 . S
C189 O168 1.254 . S
O190 Zn160 2.066 . S
O190 C162 1.256 . S
O191 C162 1.244 . S
O191 Zn163 2.053 . S
Zn192 O193 2.055 1_565 S
Zn192 O200 2.046 . S
Zn192 N208 2.036 . S
Zn192 O220 2.053 . S
Zn192 O222 2.066 . S
O193 Zn192 2.055 1_545 S
O193 C196 1.259 . S
C194 O222 1.256 . S
C194 O223 1.244 . S
Zn195 O197 2.046 1_565 S
Zn195 O199 2.055 . S
Zn195 N201 2.036 . S
Zn195 O219 2.066 . S
Zn195 O223 2.053 . S
C196 O193 1.259 . S
C196 O197 1.254 . S
O197 Zn195 2.046 1_545 S
O197 C196 1.254 . S
C198 O219 1.256 . S
C198 O220 1.244 . S
O199 Zn195 2.055 . S
O199 C221 1.259 . S
O200 Zn192 2.046 . S
O200 C221 1.254 . S
N201 Zn195 2.036 . S
N201 C202 1.298 . S
N201 N204 1.398 . S
C202 N201 1.298 . S
C202 N205 1.367 . S
C202 C215 1.481 . S
C203 N204 1.299 . S
C203 N205 1.379 . S
N204 N201 1.398 . S
N204 C203 1.299 . S
N205 C202 1.367 . S
N205 C203 1.379 . S
C206 N208 1.298 . S
C206 N210 1.367 . S
C206 C214 1.481 . S
C207 N209 1.299 . S
C207 N210 1.379 . S
N208 Zn192 2.036 . S
N208 C206 1.298 . S
N208 N209 1.398 . S
N209 C207 1.299 . S
N209 N208 1.398 . S
N210 C206 1.367 . S
N210 C207 1.379 . S
H211 C214 0.980 1_545 S
H212 C214 0.981 1_545 S
H213 C214 0.981 . S
C214 C206 1.481 . S
C214 H211 0.980 1_565 S
C214 H212 0.981 1_565 S
C214 H213 0.981 . S
C215 C202 1.481 . S
C215 H216 0.980 . S
C215 H217 0.981 . S
C215 H218 0.981 . S
H216 C215 0.980 . S
H217 C215 0.981 . S
H218 C215 0.981 . S
O219 Zn195 2.066 . S
O219 C198 1.256 . S
O220 Zn192 2.053 . S
O220 C198 1.244 . S
C221 O199 1.259 . S
C221 O200 1.254 . S
O222 Zn192 2.066 . S
O222 C194 1.256 . S
O223 C194 1.244 . S
O223 Zn195 2.053 . S
Zn224 O225 2.055 . S
Zn224 O232 2.046 . S
Zn224 N240 2.036 . S
Zn224 O252 2.053 . S
Zn224 O254 2.066 . S
O225 Zn224 2.055 . S
O225 C228 1.259 . S
C226 O254 1.256 . S
C226 O255 1.244 . S
Zn227 O229 2.046 . S
Zn227 O231 2.055 . S
Zn227 N233 2.036 . S
Zn227 O251 2.066 1_655 S
Zn227 O255 2.053 . S
C228 O225 1.259 . S
C228 O229 1.254 . S
O229 Zn227 2.046 . S
O229 C228 1.254 . S
C230 O251 1.256 . S
C230 O252 1.244 1_455 S
O231 Zn227 2.055 . S
O231 C253 1.259 . S
O232 Zn224 2.046 . S
O232 C253 1.254 . S
N233 Zn227 2.036 . S
N233 C234 1.298 . S
N233 N236 1.398 . S
C234 N233 1.298 . S
C234 N237 1.367 . S
C234 C247 1.481 . S
C235 N236 1.299 . S
C235 N237 1.379 . S
N236 N233 1.398 . S
N236 C235 1.299 . S
N237 C234 1.367 . S
N237 C235 1.379 . S
C238 N240 1.298 . S
C238 N242 1.367 . S
C238 C246 1.481 . S
C239 N241 1.299 . S
C239 N242 1.379 . S
N240 Zn224 2.036 . S
N240 C238 1.298 . S
N240 N241 1.398 . S
N241 C239 1.299 . S
N241 N240 1.398 . S
N242 C238 1.367 . S
N242 C239 1.379 . S
H243 C246 0.980 . S
H244 C246 0.981 . S
H245 C246 0.981 . S
C246 C238 1.481 . S
C246 H243 0.980 . S
C246 H244 0.981 . S
C246 H245 0.981 . S
C247 C234 1.481 . S
C247 H248 0.980 . S
C247 H249 0.981 . S
C247 H250 0.981 1_655 S
H248 C247 0.980 . S
H249 C247 0.981 . S
H250 C247 0.981 1_455 S
O251 Zn227 2.066 1_455 S
O251 C230 1.256 . S
O252 Zn224 2.053 . S
O252 C230 1.244 1_655 S
C253 O231 1.259 . S
C253 O232 1.254 . S
O254 Zn224 2.066 . S
O254 C226 1.256 . S
O255 C226 1.244 . S
O255 Zn227 2.053 . S
Zn256 O257 2.055 . S
Zn256 O264 2.046 1_455 S
Zn256 N272 2.036 . S
Zn256 O284 2.053 . S
Zn256 O286 2.066 . S
O257 Zn256 2.055 . S
O257 C260 1.259 . S
C258 O286 1.256 . S
C258 O287 1.244 . S
Zn259 O261 2.046 . S
Zn259 O263 2.055 1_455 S
Zn259 N265 2.036 . S
Zn259 O283 2.066 1_565 S
Zn259 O287 2.053 . S
C260 O257 1.259 . S
C260 O261 1.254 . S
O261 Zn259 2.046 . S
O261 C260 1.254 . S
C262 O283 1.256 . S
C262 O284 1.244 1_545 S
O263 Zn259 2.055 1_655 S
O263 C285 1.259 . S
O264 Zn256 2.046 1_655 S
O264 C285 1.254 . S
N265 Zn259 2.036 . S
N265 C266 1.298 . S
N265 N268 1.398 . S
C266 N265 1.298 . S
C266 N269 1.367 . S
C266 C279 1.481 . S
C267 N268 1.299 . S
C267 N269 1.379 . S
N268 N265 1.398 . S
N268 C267 1.299 . S
N269 C266 1.367 . S
N269 C267 1.379 . S
C270 N272 1.298 . S
C270 N274 1.367 . S
C270 C278 1.481 . S
C271 N273 1.299 . S
C271 N274 1.379 . S
N272 Zn256 2.036 . S
N272 C270 1.298 . S
N272 N273 1.398 . S
N273 C271 1.299 . S
N273 N272 1.398 . S
N274 C270 1.367 . S
N274 C271 1.379 . S
H275 C278 0.980 . S
H276 C278 0.981 . S
H277 C278 0.981 . S
C278 C270 1.481 . S
C278 H275 0.980 . S
C278 H276 0.981 . S
C278 H277 0.981 . S
C279 C266 1.481 . S
C279 H280 0.980 1_455 S
C279 H281 0.981 1_455 S
C279 H282 0.981 1_565 S
H280 C279 0.980 1_655 S
H281 C279 0.981 1_655 S
H282 C279 0.981 1_545 S
O283 Zn259 2.066 1_545 S
O283 C262 1.256 . S
O284 Zn256 2.053 . S
O284 C262 1.244 1_565 S
C285 O263 1.259 . S
C285 O264 1.254 . S
O286 Zn256 2.066 . S
O286 C258 1.256 . S
O287 C258 1.244 . S
O287 Zn259 2.053 . S
Zn288 O289 2.055 1_545 S
Zn288 O296 2.046 . S
Zn288 N304 2.036 . S
Zn288 O316 2.053 . S
Zn288 O318 2.066 . S
O289 Zn288 2.055 1_565 S
O289 C292 1.259 . S
C290 O318 1.256 . S
C290 O319 1.244 . S
Zn291 O293 2.046 1_545 S
Zn291 O295 2.055 . S
Zn291 N297 2.036 . S
Zn291 O315 2.066 . S
Zn291 O319 2.053 . S
C292 O289 1.259 . S
C292 O293 1.254 . S
O293 Zn291 2.046 1_565 S
O293 C292 1.254 . S
C294 O315 1.256 . S
C294 O316 1.244 . S
O295 Zn291 2.055 . S
O295 C317 1.259 . S
O296 Zn288 2.046 . S
O296 C317 1.254 . S
N297 Zn291 2.036 . S
N297 C298 1.298 . S
N297 N300 1.398 . S
C298 N297 1.298 . S
C298 N301 1.367 . S
C298 C311 1.481 . S
C299 N300 1.299 . S
C299 N301 1.379 . S
N300 N297 1.398 . S
N300 C299 1.299 . S
N301 C298 1.367 . S
N301 C299 1.379 . S
C302 N304 1.298 . S
C302 N306 1.367 . S
C302 C310 1.481 . S
C303 N305 1.299 . S
C303 N306 1.379 . S
N304 Zn288 2.036 . S
N304 C302 1.298 . S
N304 N305 1.398 . S
N305 C303 1.299 . S
N305 N304 1.398 . S
N306 C302 1.367 . S
N306 C303 1.379 . S
H307 C310 0.980 1_565 S
H308 C310 0.981 1_565 S
H309 C310 0.981 . S
C310 C302 1.481 . S
C310 H307 0.980 1_545 S
C310 H308 0.981 1_545 S
C310 H309 0.981 . S
C311 C298 1.481 . S
C311 H312 0.980 . S
C311 H313 0.981 . S
C311 H314 0.981 . S
H312 C311 0.980 . S
H313 C311 0.981 . S
H314 C311 0.981 . S
O315 Zn291 2.066 . S
O315 C294 1.256 . S
O316 Zn288 2.053 . S
O316 C294 1.244 . S
C317 O295 1.259 . S
C317 O296 1.254 . S
O318 Zn288 2.066 . S
O318 C290 1.256 . S
O319 C290 1.244 . S
O319 Zn291 2.053 . S
Zn320 O321 2.055 . S
Zn320 O328 2.046 . S
Zn320 N336 2.036 . S
Zn320 O348 2.053 . S
Zn320 O350 2.066 . S
O321 Zn320 2.055 . S
O321 C324 1.259 . S
C322 O350 1.256 . S
C322 O351 1.244 . S
Zn323 O325 2.046 . S
Zn323 O327 2.055 . S
Zn323 N329 2.036 . S
Zn323 O347 2.066 1_455 S
Zn323 O351 2.053 . S
C324 O321 1.259 . S
C324 O325 1.254 . S
O325 Zn323 2.046 . S
O325 C324 1.254 . S
C326 O347 1.256 . S
C326 O348 1.244 1_655 S
O327 Zn323 2.055 . S
O327 C349 1.259 . S
O328 Zn320 2.046 . S
O328 C349 1.254 . S
N329 Zn323 2.036 . S
N329 C330 1.298 . S
N329 N332 1.398 . S
C330 N329 1.298 . S
C330 N333 1.367 . S
C330 C343 1.481 . S
C331 N332 1.299 . S
C331 N333 1.379 . S
N332 N329 1.398 . S
N332 C331 1.299 . S
N333 C330 1.367 . S
N333 C331 1.379 . S
C334 N336 1.298 . S
C334 N338 1.367 . S
C334 C342 1.481 . S
C335 N337 1.299 . S
C335 N338 1.379 . S
N336 Zn320 2.036 . S
N336 C334 1.298 . S
N336 N337 1.398 . S
N337 C335 1.299 . S
N337 N336 1.398 . S
N338 C334 1.367 . S
N338 C335 1.379 . S
H339 C342 0.980 . S
H340 C342 0.981 . S
H341 C342 0.981 . S
C342 C334 1.481 . S
C342 H339 0.980 . S
C342 H340 0.981 . S
C342 H341 0.981 . S
C343 C330 1.481 . S
C343 H344 0.980 . S
C343 H345 0.981 . S
C343 H346 0.981 1_455 S
H344 C343 0.980 . S
H345 C343 0.981 . S
H346 C343 0.981 1_655 S
O347 Zn323 2.066 1_655 S
O347 C326 1.256 . S
O348 Zn320 2.053 . S
O348 C326 1.244 1_455 S
C349 O327 1.259 . S
C349 O328 1.254 . S
O350 Zn320 2.066 . S
O350 C322 1.256 . S
O351 C322 1.244 . S
O351 Zn323 2.053 . S
Zn352 O353 2.055 . S
Zn352 O360 2.046 1_655 S
Zn352 N368 2.036 . S
Zn352 O380 2.053 . S
Zn352 O382 2.066 . S
O353 Zn352 2.055 . S
O353 C356 1.259 . S
C354 O382 1.256 . S
C354 O383 1.244 . S
Zn355 O357 2.046 . S
Zn355 O359 2.055 1_655 S
Zn355 N361 2.036 . S
Zn355 O379 2.066 1_545 S
Zn355 O383 2.053 . S
C356 O353 1.259 . S
C356 O357 1.254 . S
O357 Zn355 2.046 . S
O357 C356 1.254 . S
C358 O379 1.256 . S
C358 O380 1.244 1_565 S
O359 Zn355 2.055 1_455 S
O359 C381 1.259 . S
O360 Zn352 2.046 1_455 S
O360 C381 1.254 . S
N361 Zn355 2.036 . S
N361 C362 1.298 . S
N361 N364 1.398 . S
C362 N361 1.298 . S
C362 N365 1.367 . S
C362 C375 1.481 . S
C363 N364 1.299 . S
C363 N365 1.379 . S
N364 N361 1.398 . S
N364 C363 1.299 . S
N365 C362 1.367 . S
N365 C363 1.379 . S
C366 N368 1.298 . S
C366 N370 1.367 . S
C366 C374 1.481 . S
C367 N369 1.299 . S
C367 N370 1.379 . S
N368 Zn352 2.036 . S
N368 C366 1.298 . S
N368 N369 1.398 . S
N369 C367 1.299 . S
N369 N368 1.398 . S
N370 C366 1.367 . S
N370 C367 1.379 . S
H371 C374 0.980 . S
H372 C374 0.981 . S
H373 C374 0.981 . S
C374 C366 1.481 . S
C374 H371 0.980 . S
C374 H372 0.981 . S
C374 H373 0.981 . S
C375 C362 1.481 . S
C375 H376 0.980 1_655 S
C375 H377 0.981 1_655 S
C375 H378 0.981 1_545 S
H376 C375 0.980 1_455 S
H377 C375 0.981 1_455 S
H378 C375 0.981 1_565 S
O379 Zn355 2.066 1_565 S
O379 C358 1.256 . S
O380 Zn352 2.053 . S
O380 C358 1.244 1_545 S
C381 O359 1.259 . S
C381 O360 1.254 . S
O382 Zn352 2.066 . S
O382 C354 1.256 . S
O383 C354 1.244 . S
O383 Zn355 2.053 . S
C132 C6 1.217 . S
C189 C34 1.217 . S
C70 C29 1.217 . S
C98 C36 1.217 . S
C130 C93 1.217 . S
C100 C166 1.217 . S
C285 C194 1.217 . S
C230 C292 1.217 . S
C349 C262 1.217 . S
C290 C381 1.217 . S
C326 C196 1.217 . S
C253 C358 1.217 . S
C134 C4 1.351 . S
C61 C162 1.350 . S
C68 C2 1.348 . S
C125 C38 1.351 . S
C66 C157 1.350 . S
C102 C164 1.348 . S
C258 C221 1.351 . S
C228 C294 1.348 . S
C260 C322 1.350 . S
C354 C317 1.351 . S
C324 C198 1.348 . S
C226 C356 1.350 . S
N338 N18 1.400 . S
N45 N370 1.400 . S
N82 N205 1.400 . S
N109 N242 1.400 . S
N141 N274 1.400 . S
N301 N178 1.400 . S
N306 N13 1.929 1_556 S
N333 N50 1.928 1_455 S
N77 N365 1.928 1_564 S
N114 N210 1.929 . S
N237 N146 1.928 1_656 S
N269 N173 1.928 1_565 S
