# Generated by pormake.
# Topology lon, (4)-cn, num edge types: 1
# Building blocks:
#     Node 0, Type 0, BuildingBlock: TATPOV_clean_sbu_0, # of connection points: 4
#     Node 1, Type 0, BuildingBlock: TATPOV_clean_sbu_0, # of connection points: 4
#     Node 2, Type 0, BuildingBlock: TATPOV_clean_sbu_0, # of connection points: 4
#     Node 3, Type 0, BuildingBlock: TATPOV_clean_sbu_0, # of connection points: 4
#     Edge 4, Type (0, 0), BuildingBlock: MIFKUJ_clean_linker_0, # of connection points: 2
#     Edge 5, Type (0, 0), BuildingBlock: MIFKUJ_clean_linker_0, # of connection points: 2
#     Edge 6, Type (0, 0), BuildingBlock: MIFKUJ_clean_linker_0, # of connection points: 2
#     Edge 7, Type (0, 0), BuildingBlock: MIFKUJ_clean_linker_0, # of connection points: 2
#     Edge 8, Type (0, 0), BuildingBlock: MIFKUJ_clean_linker_0, # of connection points: 2
#     Edge 9, Type (0, 0), BuildingBlock: MIFKUJ_clean_linker_0, # of connection points: 2
#     Edge 10, Type (0, 0), BuildingBlock: MIFKUJ_clean_linker_0, # of connection points: 2
#     Edge 11, Type (0, 0), BuildingBlock: MIFKUJ_clean_linker_0, # of connection points: 2
# Relax obj value: 0.031
# Max RMSD: 0.081
# Mean RMSD: 0.077
data_MOF--net-lon--node1-TATPOV_clean_sbu_0--edge1-MIFKUJ_clean_linker_0
_symmetry_space_group_name_H-M    P1
_symmetry_Int_Tables_number       1
_symmetry_cell_setting            triclinic
loop_
_symmetry_equiv_pos_as_xyz
'x, y, z'
_cell_length_a     31.466729
_cell_length_b     32.114887
_cell_length_c     54.227779
_cell_angle_alpha  89.88053
_cell_angle_beta   89.9995
_cell_angle_gamma 119.53298
loop_
_atom_site_label
_atom_site_type_symbol
_atom_site_fract_x
_atom_site_fract_y
_atom_site_fract_z
_atom_type_partial_charge
Zn0 Zn 0.4554 0.71375 0.08541 0.0
Zn1 Zn 0.36158 0.66352 0.07144 0.0
O2 O 0.39232 0.62433 0.05717 0.0
O3 O 0.46947 0.66626 0.06834 0.0
O4 O 0.29097 0.62754 0.06039 0.0
O5 O 0.43338 0.70483 0.12096 0.0
O6 O 0.35661 0.66173 0.1094 0.0
C7 C 0.43562 0.6305 0.05739 0.0
C8 C 0.42722 0.76908 0.05543 0.0
O9 O 0.38592 0.73074 0.05595 0.0
O10 O 0.46351 0.77088 0.06646 0.0
C11 C 0.28008 0.61121 0.03858 0.0
O12 O 0.31527 0.61715 0.02345 0.0
C13 C 0.38849 0.68044 0.12641 0.0
Zn14 Zn 0.63961 0.32373 0.52081 0.0
Zn15 Zn 0.64065 0.33122 0.5669 0.0
O16 O 0.61235 0.37358 0.55493 0.0
O17 O 0.63157 0.38067 0.51558 0.0
O18 O 0.64098 0.33543 0.60398 0.0
O19 O 0.58118 0.25894 0.521 0.0
O20 O 0.59637 0.25897 0.56055 0.0
C21 C 0.61517 0.3926 0.5339 0.0
C22 C 0.73219 0.35089 0.53854 0.0
O23 O 0.71302 0.35738 0.55782 0.0
O24 O 0.70604 0.33089 0.51987 0.0
C25 C 0.64809 0.37236 0.61592 0.0
O26 O 0.65602 0.41101 0.6038 0.0
C27 C 0.57308 0.23688 0.54128 0.0
Zn28 Zn 0.30498 0.66713 0.48303 0.0
Zn29 Zn 0.31 0.67245 0.43689 0.0
O30 O 0.23684 0.6467 0.44373 0.0
O31 O 0.23959 0.66251 0.48329 0.0
O32 O 0.31569 0.6765 0.39988 0.0
O33 O 0.3644 0.73037 0.48756 0.0
O34 O 0.35477 0.74195 0.44847 0.0
C35 C 0.21587 0.64897 0.46336 0.0
C36 C 0.32867 0.60072 0.46516 0.0
O37 O 0.33446 0.62545 0.44576 0.0
O38 O 0.31044 0.6081 0.48428 0.0
C39 C 0.2864 0.64173 0.38644 0.0
O40 O 0.25147 0.60311 0.39698 0.0
C41 C 0.37564 0.75802 0.46917 0.0
Zn42 Zn 0.72879 0.27384 0.9074 0.0
Zn43 Zn 0.68843 0.3208 0.92904 0.0
O44 O 0.75964 0.35571 0.94228 0.0
O45 O 0.79347 0.31913 0.92296 0.0
O46 O 0.65749 0.35663 0.94491 0.0
O47 O 0.71151 0.28849 0.87408 0.0
O48 O 0.6818 0.33044 0.89171 0.0
C49 C 0.79697 0.35119 0.9377 0.0
C50 C 0.64781 0.21244 0.93798 0.0
O51 O 0.64595 0.25083 0.94129 0.0
O52 O 0.68103 0.21303 0.92457 0.0
C53 C 0.61218 0.33651 0.9501 0.0
O54 O 0.58424 0.2908 0.94528 0.0
C55 C 0.69182 0.31452 0.87232 0.0
H56 H 0.30237 0.61213 0.14702 0.0
H57 H 0.2803 0.60116 0.19083 0.0
H58 H 0.41852 0.72516 0.20854 0.0
H59 H 0.44142 0.73498 0.16514 0.0
H60 H 0.40262 0.65857 0.23934 0.0
H61 H 0.30463 0.72433 0.20778 0.0
H62 H 0.24353 0.72758 0.18055 0.0
H63 H 0.13403 0.5897 0.2068 0.0
H64 H 0.19465 0.58538 0.23398 0.0
H65 H 0.3593 0.71297 0.35931 0.0
H66 H 0.37158 0.71529 0.31475 0.0
H67 H 0.24072 0.5784 0.30752 0.0
H68 H 0.22794 0.57577 0.35217 0.0
H69 H 0.24837 0.64403 0.27164 0.0
H70 H 0.34739 0.58218 0.30525 0.0
H71 H 0.40924 0.58173 0.33302 0.0
H72 H 0.51823 0.71624 0.303 0.0
H73 H 0.45686 0.71783 0.27529 0.0
C74 C 0.3279 0.63708 0.16029 0.0
C75 C 0.37367 0.67433 0.15265 0.0
C76 C 0.31518 0.63094 0.18532 0.0
C77 C 0.34754 0.66263 0.20304 0.0
C78 C 0.39299 0.70008 0.19529 0.0
C79 C 0.40601 0.70572 0.17043 0.0
C80 C 0.33512 0.65653 0.22975 0.0
C81 C 0.3691 0.65596 0.24635 0.0
C82 C 0.29076 0.65169 0.23898 0.0
C83 C 0.25429 0.65431 0.22271 0.0
C84 C 0.2676 0.69456 0.20761 0.0
C85 C 0.23305 0.69662 0.19221 0.0
C86 C 0.18496 0.65881 0.19189 0.0
C87 C 0.1713 0.61892 0.20704 0.0
C88 C 0.20573 0.61666 0.22245 0.0
C89 C 0.33297 0.68339 0.34827 0.0
C90 C 0.29277 0.64404 0.35932 0.0
C91 C 0.34014 0.68473 0.32281 0.0
C92 C 0.30735 0.64675 0.30789 0.0
C93 C 0.26649 0.60799 0.31874 0.0
C94 C 0.25937 0.60652 0.34426 0.0
C95 C 0.31642 0.64732 0.28104 0.0
C96 C 0.28176 0.64653 0.2645 0.0
C97 C 0.36034 0.65137 0.27182 0.0
C98 C 0.39742 0.65029 0.28834 0.0
C99 C 0.38447 0.61183 0.3047 0.0
C100 C 0.41945 0.61134 0.3204 0.0
C101 C 0.46761 0.64898 0.31981 0.0
C102 C 0.48091 0.68713 0.30345 0.0
C103 C 0.44605 0.68781 0.28772 0.0
H104 H 0.49464 0.64855 0.33199 0.0
H105 H 0.15827 0.66047 0.17996 0.0
H106 H 0.65772 0.44309 0.64758 0.0
H107 H 0.65728 0.44111 0.69275 0.0
H108 H 0.63776 0.2984 0.69105 0.0
H109 H 0.63723 0.29971 0.64613 0.0
H110 H 0.57924 0.30395 0.72448 0.0
H111 H 0.75022 0.3988 0.70188 0.0
H112 H 0.82124 0.46675 0.68214 0.0
H113 H 0.79703 0.56539 0.72505 0.0
H114 H 0.72545 0.49795 0.74483 0.0
H115 H 0.68141 0.26523 0.8301 0.0
H116 H 0.66498 0.28341 0.78874 0.0
H117 H 0.66054 0.40697 0.81644 0.0
H118 H 0.67636 0.38847 0.85841 0.0
H119 H 0.722 0.42223 0.77255 0.0
H120 H 0.55883 0.32365 0.80048 0.0
H121 H 0.49078 0.25378 0.8207 0.0
H122 H 0.50238 0.16035 0.76795 0.0
H123 H 0.57104 0.2296 0.74762 0.0
C124 C 0.65325 0.41126 0.65684 0.0
C125 C 0.64764 0.3716 0.64324 0.0
C126 C 0.65313 0.41025 0.68266 0.0
C127 C 0.64782 0.36973 0.6953 0.0
C128 C 0.64173 0.33 0.68171 0.0
C129 C 0.64164 0.33089 0.656 0.0
C130 C 0.64921 0.3683 0.72264 0.0
C131 C 0.61049 0.32981 0.73497 0.0
C132 C 0.68922 0.40292 0.73648 0.0
C133 C 0.73215 0.4434 0.72458 0.0
C134 C 0.75981 0.43499 0.70694 0.0
C135 C 0.8002 0.4734 0.69578 0.0
C136 C 0.81353 0.52036 0.70227 0.0
C137 C 0.78658 0.529 0.72 0.0
C138 C 0.74611 0.49071 0.73119 0.0
C139 C 0.67678 0.29622 0.82751 0.0
C140 C 0.68026 0.32548 0.84753 0.0
C141 C 0.6672 0.30643 0.80386 0.0
C142 C 0.66131 0.34634 0.79961 0.0
C143 C 0.66485 0.3759 0.81944 0.0
C144 C 0.6737 0.36521 0.84334 0.0
C145 C 0.65287 0.35703 0.7741 0.0
C146 C 0.69021 0.39713 0.76212 0.0
C147 C 0.61178 0.32372 0.76052 0.0
C148 C 0.57031 0.28187 0.7726 0.0
C149 C 0.54714 0.28818 0.79329 0.0
C150 C 0.5084 0.24868 0.80476 0.0
C151 C 0.49231 0.20265 0.79563 0.0
C152 C 0.51488 0.19604 0.77499 0.0
C153 C 0.55367 0.23542 0.76347 0.0
H154 H 0.46231 0.17211 0.80454 0.0
H155 H 0.84483 0.55005 0.69362 0.0
H156 H 0.52393 0.6492 0.03961 0.0
H157 H 0.54543 0.5939 0.0198 0.0
H158 H 0.39667 0.47979 0.02719 0.0
H159 H 0.37433 0.5356 0.04662 0.0
H160 H 0.47759 0.46126 0.04443 0.0
H161 H 0.4225 0.51216 0.97436 0.0
H162 H 0.41729 0.57077 0.94693 0.0
H163 H 0.57095 0.63627 0.93188 0.0
H164 H 0.57725 0.57849 0.95957 0.0
H165 H 0.52098 0.30224 0.96986 0.0
H166 H 0.48527 0.34822 0.98736 0.0
H167 H 0.61874 0.47948 0.97241 0.0
H168 H 0.65485 0.43378 0.95494 0.0
H169 H 0.53698 0.48385 0.958 0.0
H170 H 0.59441 0.43869 0.02945 0.0
H171 H 0.60289 0.38329 0.05792 0.0
H172 H 0.4483 0.30986 0.07135 0.0
H173 H 0.43879 0.36445 0.04264 0.0
C174 C 0.49564 0.61239 0.03696 0.0
C175 C 0.44742 0.59669 0.04471 0.0
C176 C 0.50801 0.5809 0.02559 0.0
C177 C 0.47265 0.53288 0.02205 0.0
C178 C 0.42442 0.51682 0.02979 0.0
C179 C 0.41171 0.54869 0.04076 0.0
C180 C 0.48704 0.49989 0.01055 0.0
C181 C 0.48953 0.46533 0.02537 0.0
C182 C 0.50397 0.50642 0.98593 0.0
C183 C 0.50042 0.54126 0.96924 0.0
C184 C 0.45528 0.53936 0.9654 0.0
C185 C 0.45211 0.57237 0.94976 0.0
C186 C 0.49379 0.6073 0.93771 0.0
C187 C 0.53871 0.60922 0.94125 0.0
C188 C 0.54209 0.57631 0.9569 0.0
C189 C 0.5428 0.3409 0.97031 0.0
C190 C 0.59081 0.36435 0.96103 0.0
C191 C 0.52235 0.3671 0.98039 0.0
C192 C 0.54941 0.41725 0.98128 0.0
C193 C 0.59721 0.44079 0.97188 0.0
C194 C 0.61786 0.4146 0.962 0.0
C195 C 0.52785 0.44525 0.9919 0.0
C196 C 0.52431 0.47912 0.97694 0.0
C197 C 0.51027 0.43828 0.01646 0.0
C198 C 0.5158 0.40525 0.03364 0.0
C199 C 0.56214 0.41041 0.03827 0.0
C200 C 0.56716 0.37923 0.05449 0.0
C201 C 0.52613 0.34297 0.06636 0.0
C202 C 0.48002 0.3379 0.06208 0.0
C203 C 0.4748 0.36896 0.04584 0.0
H204 H 0.5301 0.31889 0.07894 0.0
H205 H 0.49125 0.63281 0.9256 0.0
H206 H 0.16515 0.67365 0.49478 0.0
H207 H 0.07939 0.62362 0.50596 0.0
H208 H 0.0612 0.5264 0.44691 0.0
H209 H 0.14704 0.57692 0.4353 0.0
H210 H 0.97637 0.53201 0.45698 0.0
H211 H 0.09574 0.50691 0.49998 0.0
H212 H 0.17145 0.53274 0.52373 0.0
H213 H 0.11533 0.58226 0.58207 0.0
H214 H 0.03958 0.55746 0.55843 0.0
H215 H 0.78211 0.32715 0.50591 0.0
H216 H 0.86689 0.37782 0.49329 0.0
H217 H 0.88715 0.47697 0.55168 0.0
H218 H 0.80226 0.42608 0.56465 0.0
H219 H 0.9709 0.46963 0.54158 0.0
H220 H 0.85119 0.4944 0.49812 0.0
H221 H 0.77561 0.46793 0.47414 0.0
H222 H 0.83248 0.4178 0.41646 0.0
H223 H 0.90812 0.44328 0.44031 0.0
C224 C 0.14239 0.64255 0.48362 0.0
C225 C 0.16268 0.62847 0.46452 0.0
C226 C 0.09355 0.61401 0.49006 0.0
C227 C 0.06473 0.57077 0.4777 0.0
C228 C 0.08325 0.55953 0.45676 0.0
C229 C 0.13217 0.58845 0.45012 0.0
C230 C 0.01838 0.53447 0.4888 0.0
C231 C 0.97514 0.51798 0.47534 0.0
C232 C 0.01708 0.51663 0.51288 0.0
C233 C 0.0622 0.53075 0.52733 0.0
C234 C 0.09968 0.5236 0.5178 0.0
C235 C 0.14259 0.53803 0.53124 0.0
C236 C 0.14824 0.55922 0.55437 0.0
C237 C 0.11093 0.56589 0.56413 0.0
C238 C 0.06799 0.55164 0.55072 0.0
C239 C 0.80503 0.35901 0.51653 0.0
C240 C 0.78548 0.37332 0.53592 0.0
C241 C 0.85334 0.3879 0.50927 0.0
C242 C 0.8825 0.43161 0.52114 0.0
C243 C 0.8648 0.44345 0.54219 0.0
C244 C 0.81641 0.41433 0.5496 0.0
C245 C 0.92884 0.46734 0.5098 0.0
C246 C 0.97212 0.48367 0.52321 0.0
C247 C 0.93017 0.48489 0.48565 0.0
C248 C 0.8851 0.47034 0.47109 0.0
C249 C 0.84744 0.47745 0.48039 0.0
C250 C 0.8046 0.46265 0.46682 0.0
C251 C 0.7992 0.4411 0.44381 0.0
C252 C 0.83669 0.43445 0.4343 0.0
C253 C 0.87956 0.44908 0.44782 0.0
H254 H 0.766 0.42965 0.43333 0.0
H255 H 0.1815 0.57039 0.56476 0.0
H256 H 0.56717 0.19419 0.9659 0.0
H257 H 0.5074 0.11748 0.98437 0.0
H258 H 0.58632 0.05108 0.95425 0.0
H259 H 0.64509 0.12655 0.93556 0.0
H260 H 0.49113 0.99333 0.94881 0.0
H261 H 0.60052 0.09081 0.01503 0.0
H262 H 0.63833 0.16181 0.04198 0.0
H263 H 0.49644 0.13156 0.06704 0.0
H264 H 0.45781 0.06062 0.04001 0.0
H265 H 0.51227 0.84217 0.03822 0.0
H266 H 0.52542 0.9148 0.01731 0.0
H267 H 0.37147 0.86752 0.02183 0.0
H268 H 0.35751 0.79326 0.04236 0.0
H269 H 0.4765 0.97996 0.03992 0.0
H270 H 0.36848 0.8731 0.97577 0.0
H271 H 0.33717 0.80087 0.94986 0.0
H272 H 0.48158 0.84878 0.9217 0.0
H273 H 0.5138 0.92093 0.94779 0.0
C274 C 0.57163 0.16316 0.96319 0.0
C275 C 0.61111 0.16663 0.94936 0.0
C276 C 0.53743 0.11936 0.97373 0.0
C277 C 0.54242 0.0785 0.97074 0.0
C278 C 0.58141 0.08194 0.95666 0.0
C279 C 0.61529 0.12536 0.94611 0.0
C280 C 0.50909 0.03235 0.98307 0.0
C281 C 0.48725 0.99055 0.96872 0.0
C282 C 0.5031 0.02851 0.009 0.0
C283 C 0.52631 0.07088 0.02531 0.0
C284 C 0.57742 0.09953 0.02618 0.0
C285 C 0.59898 0.1397 0.04148 0.0
C286 C 0.56979 0.15128 0.05615 0.0
C287 C 0.51899 0.12261 0.05562 0.0
C288 C 0.49725 0.08242 0.04033 0.0
C289 C 0.48104 0.84693 0.03471 0.0
C290 C 0.43383 0.81197 0.04195 0.0
C291 C 0.48866 0.88847 0.02277 0.0
C292 C 0.44944 0.89633 0.01804 0.0
C293 C 0.40211 0.86177 0.0252 0.0
C294 C 0.39423 0.81948 0.03686 0.0
C295 C 0.45971 0.94136 0.00566 0.0
C296 C 0.47808 0.983 0.01997 0.0
C297 C 0.4627 0.94512 0.97972 0.0
C298 C 0.44356 0.90206 0.96391 0.0
C299 C 0.3936 0.86794 0.96425 0.0
C300 C 0.37568 0.82709 0.94949 0.0
C301 C 0.40739 0.82017 0.93419 0.0
C302 C 0.45707 0.85415 0.93359 0.0
C303 C 0.47516 0.89504 0.94834 0.0
H304 H 0.39346 0.78854 0.92277 0.0
H305 H 0.58655 0.18241 0.06798 0.0
H306 H 0.54697 0.39983 0.56192 0.0
H307 H 0.4987 0.43713 0.54929 0.0
H308 H 0.58615 0.49141 0.48343 0.0
H309 H 0.63452 0.45453 0.49589 0.0
H310 H 0.55892 0.55463 0.50336 0.0
H311 H 0.48648 0.38875 0.47985 0.0
H312 H 0.45523 0.30283 0.48767 0.0
H313 H 0.3478 0.30013 0.53748 0.0
H314 H 0.37897 0.3863 0.53024 0.0
H315 H 0.39531 0.59627 0.43447 0.0
H316 H 0.44342 0.55711 0.44363 0.0
H317 H 0.35779 0.49486 0.50935 0.0
H318 H 0.30928 0.53311 0.50022 0.0
H319 H 0.38509 0.43516 0.48781 0.0
H320 H 0.45904 0.601 0.51275 0.0
H321 H 0.49045 0.68717 0.50563 0.0
H322 H 0.59503 0.69015 0.45375 0.0
H323 H 0.56369 0.60376 0.46031 0.0
C324 C 0.55675 0.42087 0.54513 0.0
C325 C 0.59385 0.42368 0.52966 0.0
C326 C 0.52904 0.44187 0.53788 0.0
C327 C 0.53842 0.46602 0.51521 0.0
C328 C 0.57826 0.47257 0.50089 0.0
C329 C 0.60569 0.45136 0.50801 0.0
C330 C 0.50397 0.48021 0.50514 0.0
C331 C 0.52105 0.52854 0.49971 0.0
C332 C 0.45459 0.44598 0.50057 0.0
C333 C 0.43537 0.39405 0.5047 0.0
C334 C 0.45643 0.36991 0.49261 0.0
C335 C 0.4387 0.32116 0.49692 0.0
C336 C 0.39963 0.29606 0.51311 0.0
C337 C 0.37811 0.31964 0.52497 0.0
C338 C 0.39577 0.36842 0.52076 0.0
C339 C 0.38579 0.57304 0.45044 0.0
C340 C 0.34929 0.56849 0.46692 0.0
C341 C 0.41342 0.55095 0.4557 0.0
C342 C 0.40476 0.52418 0.47747 0.0
C343 C 0.36521 0.51574 0.49258 0.0
C344 C 0.3377 0.5378 0.48738 0.0
C345 C 0.43992 0.50967 0.48616 0.0
C346 C 0.42301 0.46125 0.49133 0.0
C347 C 0.48945 0.54385 0.49056 0.0
C348 C 0.50868 0.59586 0.48681 0.0
C349 C 0.48851 0.61997 0.4997 0.0
C350 C 0.50631 0.66885 0.49578 0.0
C351 C 0.54462 0.69409 0.4792 0.0
C352 C 0.5653 0.67053 0.46655 0.0
C353 C 0.54754 0.62162 0.47037 0.0
H354 H 0.55836 0.73193 0.47619 0.0
H355 H 0.38596 0.25832 0.51642 0.0
H356 H 0.24385 0.56293 0.99545 0.0
H357 H 0.15982 0.52467 0.98069 0.0
H358 H 0.11575 0.56715 0.04704 0.0
H359 H 0.19987 0.60453 0.06229 0.0
H360 H 0.04993 0.47886 0.03554 0.0
H361 H 0.12872 0.6262 0.99178 0.0
H362 H 0.19253 0.69051 0.96648 0.0
H363 H 0.16087 0.59207 0.90669 0.0
H364 H 0.09732 0.52696 0.93176 0.0
H365 H 0.81683 0.41012 0.97797 0.0
H366 H 0.89675 0.4604 0.99741 0.0
H367 H 0.96484 0.41473 0.94291 0.0
H368 H 0.88579 0.3645 0.92363 0.0
H369 H 0.01531 0.51365 0.95102 0.0
H370 H 0.94182 0.36516 0.99803 0.0
H371 H 0.87749 0.30264 0.02394 0.0
H372 H 0.8982 0.40795 0.07836 0.0
H373 H 0.96226 0.47122 0.05259 0.0
C374 C 0.21636 0.56417 0.00695 0.0
C375 C 0.22868 0.58706 0.02999 0.0
C376 C 0.16828 0.54247 0.99841 0.0
C377 C 0.13151 0.54383 0.01251 0.0
C378 C 0.14348 0.56584 0.03576 0.0
C379 C 0.19161 0.58725 0.04444 0.0
C380 C 0.08069 0.52185 0.0029 0.0
C381 C 0.04228 0.4872 0.01724 0.0
C382 C 0.07049 0.53247 0.97898 0.0
C383 C 0.10846 0.5716 0.96373 0.0
C384 C 0.13557 0.61818 0.97329 0.0
C385 C 0.17167 0.65479 0.95898 0.0
C386 C 0.1808 0.64536 0.93501 0.0
C387 C 0.15376 0.59932 0.92527 0.0
C388 C 0.11765 0.56255 0.93951 0.0
C389 C 0.8489 0.411 0.9701 0.0
C390 C 0.84489 0.38314 0.94931 0.0
C391 C 0.89445 0.4396 0.98125 0.0
C392 C 0.93666 0.44113 0.97162 0.0
C393 C 0.93277 0.41413 0.95061 0.0
C394 C 0.88743 0.38525 0.93968 0.0
C395 C 0.98512 0.46999 0.98341 0.0
C396 C 0.02302 0.50598 0.96946 0.0
C397 C -0.00532 0.461 0.00776 0.0
C398 C 0.95636 0.42297 0.02326 0.0
C399 C 0.93234 0.37503 0.01542 0.0
C400 C 0.896 0.33946 0.0301 0.0
C401 C 0.88365 0.35134 0.05274 0.0
C402 C 0.90773 0.39881 0.06079 0.0
C403 C 0.94407 0.43454 0.04617 0.0
H404 H 0.85551 0.32375 0.06408 0.0
H405 H 0.20878 0.67376 0.92396 0.0
H406 H 0.49842 0.18457 0.5101 0.0
H407 H 0.46164 0.09909 0.5024 0.0
H408 H 0.5415 0.08556 0.56372 0.0
H409 H 0.57882 0.17172 0.57149 0.0
H410 H 0.56017 0.05463 0.52058 0.0
H411 H 0.41908 0.02697 0.5654 0.0
H412 H 0.3511 0.03942 0.57836 0.0
H413 H 0.29157 0.00677 0.50519 0.0
H414 H 0.3596 0.9948 0.49167 0.0
H415 H 0.44459 0.80047 0.50462 0.0
H416 H 0.48084 0.88337 0.51829 0.0
H417 H 0.41238 0.9146 0.45754 0.0
H418 H 0.37592 0.83143 0.44367 0.0
H419 H 0.38759 0.93387 0.50395 0.0
H420 H 0.5321 0.96647 0.45892 0.0
H421 H 0.6003 0.95404 0.44632 0.0
H422 H 0.65309 0.97689 0.52083 0.0
H423 H 0.58477 0.9888 0.53397 0.0
C424 C 0.507 0.16313 0.52242 0.0
C425 C 0.54181 0.18464 0.5412 0.0
C426 C 0.4858 0.11426 0.51807 0.0
C427 C 0.49906 0.08616 0.53244 0.0
C428 C 0.53094 0.10685 0.55245 0.0
C429 C 0.55193 0.15588 0.55696 0.0
C430 C 0.48495 0.03732 0.52418 0.0
C431 C 0.52236 0.02772 0.51747 0.0
C432 C 0.43574 0.00306 0.51946 0.0
C433 C 0.39471 0.01031 0.52748 0.0
C434 C 0.39174 0.02284 0.55201 0.0
C435 C 0.35313 0.02973 0.55947 0.0
C436 C 0.31708 0.02398 0.5426 0.0
C437 C 0.31953 0.01123 0.51824 0.0
C438 C 0.35808 0.00432 0.51067 0.0
C439 C 0.43842 0.82536 0.49376 0.0
C440 C 0.40711 0.80959 0.47325 0.0
C441 C 0.45919 0.87265 0.50157 0.0
C442 C 0.44883 0.90474 0.48901 0.0
C443 C 0.42051 0.89005 0.46747 0.0
C444 C 0.40008 0.84276 0.45947 0.0
C445 C 0.46283 0.95165 0.50002 0.0
C446 C 0.42535 0.9607 0.50726 0.0
C447 C 0.51193 0.98531 0.50531 0.0
C448 C 0.55299 0.97802 0.49748 0.0
C449 C 0.55796 0.96838 0.47268 0.0
C450 C 0.59671 0.96154 0.46542 0.0
C451 C 0.63092 0.96454 0.48278 0.0
C452 C 0.62652 0.97451 0.50742 0.0
C453 C 0.58781 0.98135 0.51477 0.0
H454 H 0.66091 0.95925 0.47712 0.0
H455 H 0.28721 0.02931 0.54842 0.0
loop_
_geom_bond_atom_site_label_1
_geom_bond_atom_site_label_2
_geom_bond_distance
_geom_bond_site_symmetry_2
_ccdc_geom_bond_type
Zn0 O3 2.031 . S
Zn0 O5 2.049 . S
Zn0 O10 2.067 . S
Zn1 O2 1.962 . S
Zn1 O4 1.986 . S
Zn1 O6 1.996 . S
Zn1 O9 1.943 . S
O2 Zn1 1.962 . S
O2 C7 1.254 . S
O3 Zn0 2.031 . S
O3 C7 1.269 . S
O4 Zn1 1.986 . S
O4 C11 1.262 . S
O5 Zn0 2.049 . S
O5 C13 1.260 . S
O6 Zn1 1.996 . S
O6 C13 1.257 . S
C7 O2 1.254 . S
C7 O3 1.269 . S
C8 O9 1.249 . S
C8 O10 1.270 . S
O9 Zn1 1.943 . S
O9 C8 1.249 . S
O10 Zn0 2.067 . S
O10 C8 1.270 . S
C11 O4 1.262 . S
C11 O12 1.232 . S
O12 C11 1.232 . S
C13 O5 1.260 . S
C13 O6 1.257 . S
Zn14 O17 2.031 . S
Zn14 O19 2.049 . S
Zn14 O24 2.067 . S
Zn15 O16 1.962 . S
Zn15 O18 1.986 . S
Zn15 O20 1.996 . S
Zn15 O23 1.943 . S
O16 Zn15 1.962 . S
O16 C21 1.254 . S
O17 Zn14 2.031 . S
O17 C21 1.269 . S
O18 Zn15 1.986 . S
O18 C25 1.262 . S
O19 Zn14 2.049 . S
O19 C27 1.260 . S
O20 Zn15 1.996 . S
O20 C27 1.257 . S
C21 O16 1.254 . S
C21 O17 1.269 . S
C22 O23 1.249 . S
C22 O24 1.270 . S
O23 Zn15 1.943 . S
O23 C22 1.249 . S
O24 Zn14 2.067 . S
O24 C22 1.270 . S
C25 O18 1.262 . S
C25 O26 1.232 . S
O26 C25 1.232 . S
C27 O19 1.260 . S
C27 O20 1.257 . S
Zn28 O31 2.031 . S
Zn28 O33 2.049 . S
Zn28 O38 2.067 . S
Zn29 O30 1.962 . S
Zn29 O32 1.986 . S
Zn29 O34 1.996 . S
Zn29 O37 1.943 . S
O30 Zn29 1.962 . S
O30 C35 1.254 . S
O31 Zn28 2.031 . S
O31 C35 1.269 . S
O32 Zn29 1.986 . S
O32 C39 1.262 . S
O33 Zn28 2.049 . S
O33 C41 1.260 . S
O34 Zn29 1.996 . S
O34 C41 1.257 . S
C35 O30 1.254 . S
C35 O31 1.269 . S
C36 O37 1.249 . S
C36 O38 1.270 . S
O37 Zn29 1.943 . S
O37 C36 1.249 . S
O38 Zn28 2.067 . S
O38 C36 1.270 . S
C39 O32 1.262 . S
C39 O40 1.232 . S
O40 C39 1.232 . S
C41 O33 1.260 . S
C41 O34 1.257 . S
Zn42 O45 2.031 . S
Zn42 O47 2.049 . S
Zn42 O52 2.067 . S
Zn43 O44 1.962 . S
Zn43 O46 1.986 . S
Zn43 O48 1.996 . S
Zn43 O51 1.943 . S
O44 Zn43 1.962 . S
O44 C49 1.254 . S
O45 Zn42 2.031 . S
O45 C49 1.269 . S
O46 Zn43 1.986 . S
O46 C53 1.262 . S
O47 Zn42 2.049 . S
O47 C55 1.260 . S
O48 Zn43 1.996 . S
O48 C55 1.257 . S
C49 O44 1.254 . S
C49 O45 1.269 . S
C50 O51 1.249 . S
C50 O52 1.270 . S
O51 Zn43 1.943 . S
O51 C50 1.249 . S
O52 Zn42 2.067 . S
O52 C50 1.270 . S
C53 O46 1.262 . S
C53 O54 1.232 . S
O54 C53 1.232 . S
C55 O47 1.260 . S
C55 O48 1.257 . S
H56 C74 0.951 . S
H57 C76 0.951 . S
H58 C78 0.950 . S
H59 C79 0.950 . S
H60 C81 0.950 . S
H61 C84 0.950 . S
H62 C85 0.950 . S
H63 C87 0.950 . S
H64 C88 0.950 . S
H65 C89 0.951 . S
H66 C91 0.951 . S
H67 C93 0.950 . S
H68 C94 0.950 . S
H69 C96 0.950 . S
H70 C99 0.950 . S
H71 C100 0.950 . S
H72 C102 0.950 . S
H73 C103 0.950 . S
C74 H56 0.951 . S
C74 C75 1.366 . S
C74 C76 1.388 . S
C75 C74 1.366 . S
C75 C79 1.385 . S
C76 H57 0.951 . S
C76 C74 1.388 . S
C76 C77 1.366 . S
C77 C76 1.366 . S
C77 C78 1.414 . S
C77 C80 1.499 . S
C78 H58 0.950 . S
C78 C77 1.414 . S
C78 C79 1.374 . S
C79 H59 0.950 . S
C79 C75 1.385 . S
C79 C78 1.374 . S
C80 C77 1.499 . S
C80 C81 1.373 . S
C80 C82 1.389 . S
C81 H60 0.950 . S
C81 C80 1.373 . S
C81 C97 1.377 . S
C82 C80 1.389 . S
C82 C83 1.524 . S
C82 C96 1.377 . S
C83 C82 1.524 . S
C83 C84 1.397 . S
C83 C88 1.363 . S
C84 H61 0.950 . S
C84 C83 1.397 . S
C84 C85 1.334 . S
C85 H62 0.950 . S
C85 C84 1.334 . S
C85 C86 1.287 . S
C86 C85 1.287 . S
C86 C87 1.524 . S
C86 H105 0.913 . S
C87 H63 0.950 . S
C87 C86 1.524 . S
C87 C88 1.415 . S
C88 H64 0.950 . S
C88 C83 1.363 . S
C88 C87 1.415 . S
C89 H65 0.951 . S
C89 C90 1.366 . S
C89 C91 1.388 . S
C90 C89 1.366 . S
C90 C94 1.385 . S
C91 H66 0.951 . S
C91 C89 1.388 . S
C91 C92 1.366 . S
C92 C91 1.366 . S
C92 C93 1.414 . S
C92 C95 1.499 . S
C93 H67 0.950 . S
C93 C92 1.414 . S
C93 C94 1.374 . S
C94 H68 0.950 . S
C94 C90 1.385 . S
C94 C93 1.374 . S
C95 C92 1.499 . S
C95 C96 1.373 . S
C95 C97 1.389 . S
C96 H69 0.950 . S
C96 C82 1.377 . S
C96 C95 1.373 . S
C97 C81 1.377 . S
C97 C95 1.389 . S
C97 C98 1.524 . S
C98 C97 1.524 . S
C98 C99 1.397 . S
C98 C103 1.363 . S
C99 H70 0.950 . S
C99 C98 1.397 . S
C99 C100 1.334 . S
C100 H71 0.950 . S
C100 C99 1.334 . S
C100 C101 1.287 . S
C101 C100 1.287 . S
C101 C102 1.524 . S
C101 H104 0.999 . S
C102 H72 0.950 . S
C102 C101 1.524 . S
C102 C103 1.415 . S
C103 H73 0.950 . S
C103 C98 1.363 . S
C103 C102 1.415 . S
H104 C101 0.999 . S
H105 C86 0.913 . S
H106 C124 0.951 . S
H107 C126 0.951 . S
H108 C128 0.950 . S
H109 C129 0.950 . S
H110 C131 0.950 . S
H111 C134 0.950 . S
H112 C135 0.950 . S
H113 C137 0.950 . S
H114 C138 0.950 . S
H115 C139 0.951 . S
H116 C141 0.951 . S
H117 C143 0.950 . S
H118 C144 0.950 . S
H119 C146 0.950 . S
H120 C149 0.950 . S
H121 C150 0.950 . S
H122 C152 0.950 . S
H123 C153 0.950 . S
C124 H106 0.951 . S
C124 C125 1.366 . S
C124 C126 1.388 . S
C125 C124 1.366 . S
C125 C129 1.385 . S
C126 H107 0.951 . S
C126 C124 1.388 . S
C126 C127 1.366 . S
C127 C126 1.366 . S
C127 C128 1.414 . S
C127 C130 1.499 . S
C128 H108 0.950 . S
C128 C127 1.414 . S
C128 C129 1.374 . S
C129 H109 0.950 . S
C129 C125 1.385 . S
C129 C128 1.374 . S
C130 C127 1.499 . S
C130 C131 1.373 . S
C130 C132 1.389 . S
C131 H110 0.950 . S
C131 C130 1.373 . S
C131 C147 1.377 . S
C132 C130 1.389 . S
C132 C133 1.524 . S
C132 C146 1.377 . S
C133 C132 1.524 . S
C133 C134 1.397 . S
C133 C138 1.363 . S
C134 H111 0.950 . S
C134 C133 1.397 . S
C134 C135 1.334 . S
C135 H112 0.950 . S
C135 C134 1.334 . S
C135 C136 1.287 . S
C136 C135 1.287 . S
C136 C137 1.524 . S
C136 H155 0.913 . S
C137 H113 0.950 . S
C137 C136 1.524 . S
C137 C138 1.415 . S
C138 H114 0.950 . S
C138 C133 1.363 . S
C138 C137 1.415 . S
C139 H115 0.951 . S
C139 C140 1.366 . S
C139 C141 1.388 . S
C140 C139 1.366 . S
C140 C144 1.385 . S
C141 H116 0.951 . S
C141 C139 1.388 . S
C141 C142 1.366 . S
C142 C141 1.366 . S
C142 C143 1.414 . S
C142 C145 1.499 . S
C143 H117 0.950 . S
C143 C142 1.414 . S
C143 C144 1.374 . S
C144 H118 0.950 . S
C144 C140 1.385 . S
C144 C143 1.374 . S
C145 C142 1.499 . S
C145 C146 1.373 . S
C145 C147 1.389 . S
C146 H119 0.950 . S
C146 C132 1.377 . S
C146 C145 1.373 . S
C147 C131 1.377 . S
C147 C145 1.389 . S
C147 C148 1.524 . S
C148 C147 1.524 . S
C148 C149 1.397 . S
C148 C153 1.363 . S
C149 H120 0.950 . S
C149 C148 1.397 . S
C149 C150 1.334 . S
C150 H121 0.950 . S
C150 C149 1.334 . S
C150 C151 1.287 . S
C151 C150 1.287 . S
C151 C152 1.524 . S
C151 H154 0.999 . S
C152 H122 0.950 . S
C152 C151 1.524 . S
C152 C153 1.415 . S
C153 H123 0.950 . S
C153 C148 1.363 . S
C153 C152 1.415 . S
H154 C151 0.999 . S
H155 C136 0.913 . S
H156 C174 0.951 . S
H157 C176 0.951 1_556 S
H158 C178 0.950 . S
H159 C179 0.950 . S
H160 C181 0.950 . S
H161 C184 0.950 . S
H162 C185 0.950 . S
H163 C187 0.950 . S
H164 C188 0.950 . S
H165 C189 0.951 . S
H166 C191 0.951 1_554 S
H167 C193 0.950 . S
H168 C194 0.950 . S
H169 C196 0.950 . S
H170 C199 0.950 . S
H171 C200 0.950 . S
H172 C202 0.950 . S
H173 C203 0.950 . S
C174 H156 0.951 . S
C174 C175 1.366 . S
C174 C176 1.388 . S
C175 C174 1.366 . S
C175 C179 1.385 . S
C176 H157 0.951 1_554 S
C176 C174 1.388 . S
C176 C177 1.366 . S
C177 C176 1.366 . S
C177 C178 1.414 . S
C177 C180 1.499 . S
C178 H158 0.950 . S
C178 C177 1.414 . S
C178 C179 1.374 . S
C179 H159 0.950 . S
C179 C175 1.385 . S
C179 C178 1.374 . S
C180 C177 1.499 . S
C180 C181 1.373 . S
C180 C182 1.389 1_554 S
C181 H160 0.950 . S
C181 C180 1.373 . S
C181 C197 1.377 . S
C182 C180 1.389 1_556 S
C182 C183 1.524 . S
C182 C196 1.377 . S
C183 C182 1.524 . S
C183 C184 1.397 . S
C183 C188 1.363 . S
C184 H161 0.950 . S
C184 C183 1.397 . S
C184 C185 1.334 . S
C185 H162 0.950 . S
C185 C184 1.334 . S
C185 C186 1.287 . S
C186 C185 1.287 . S
C186 C187 1.524 . S
C186 H205 0.913 . S
C187 H163 0.950 . S
C187 C186 1.524 . S
C187 C188 1.415 . S
C188 H164 0.950 . S
C188 C183 1.363 . S
C188 C187 1.415 . S
C189 H165 0.951 . S
C189 C190 1.366 . S
C189 C191 1.388 . S
C190 C189 1.366 . S
C190 C194 1.385 . S
C191 H166 0.951 1_556 S
C191 C189 1.388 . S
C191 C192 1.366 . S
C192 C191 1.366 . S
C192 C193 1.414 . S
C192 C195 1.499 . S
C193 H167 0.950 . S
C193 C192 1.414 . S
C193 C194 1.374 . S
C194 H168 0.950 . S
C194 C190 1.385 . S
C194 C193 1.374 . S
C195 C192 1.499 . S
C195 C196 1.373 . S
C195 C197 1.389 1_556 S
C196 H169 0.950 . S
C196 C182 1.377 . S
C196 C195 1.373 . S
C197 C181 1.377 . S
C197 C195 1.389 1_554 S
C197 C198 1.524 . S
C198 C197 1.524 . S
C198 C199 1.397 . S
C198 C203 1.363 . S
C199 H170 0.950 . S
C199 C198 1.397 . S
C199 C200 1.334 . S
C200 H171 0.950 . S
C200 C199 1.334 . S
C200 C201 1.287 . S
C201 C200 1.287 . S
C201 C202 1.524 . S
C201 H204 0.999 . S
C202 H172 0.950 . S
C202 C201 1.524 . S
C202 C203 1.415 . S
C203 H173 0.950 . S
C203 C198 1.363 . S
C203 C202 1.415 . S
H204 C201 0.999 . S
H205 C186 0.913 . S
H206 C224 0.951 . S
H207 C226 0.951 . S
H208 C228 0.950 . S
H209 C229 0.950 . S
H210 C231 0.950 . S
H211 C234 0.950 . S
H212 C235 0.950 . S
H213 C237 0.950 . S
H214 C238 0.950 . S
H215 C239 0.951 . S
H216 C241 0.951 . S
H217 C243 0.950 . S
H218 C244 0.950 . S
H219 C246 0.950 . S
H220 C249 0.950 . S
H221 C250 0.950 . S
H222 C252 0.950 . S
H223 C253 0.950 . S
C224 H206 0.951 . S
C224 C225 1.366 . S
C224 C226 1.388 . S
C225 C224 1.366 . S
C225 C229 1.385 . S
C226 H207 0.951 . S
C226 C224 1.388 . S
C226 C227 1.366 . S
C227 C226 1.366 . S
C227 C228 1.414 . S
C227 C230 1.499 . S
C228 H208 0.950 . S
C228 C227 1.414 . S
C228 C229 1.374 . S
C229 H209 0.950 . S
C229 C225 1.385 . S
C229 C228 1.374 . S
C230 C227 1.499 . S
C230 C231 1.373 . S
C230 C232 1.389 . S
C231 H210 0.950 . S
C231 C230 1.373 . S
C231 C247 1.377 1_455 S
C232 C230 1.389 . S
C232 C233 1.524 . S
C232 C246 1.377 1_455 S
C233 C232 1.524 . S
C233 C234 1.397 . S
C233 C238 1.363 . S
C234 H211 0.950 . S
C234 C233 1.397 . S
C234 C235 1.334 . S
C235 H212 0.950 . S
C235 C234 1.334 . S
C235 C236 1.287 . S
C236 C235 1.287 . S
C236 C237 1.524 . S
C236 H255 0.913 . S
C237 H213 0.950 . S
C237 C236 1.524 . S
C237 C238 1.415 . S
C238 H214 0.950 . S
C238 C233 1.363 . S
C238 C237 1.415 . S
C239 H215 0.951 . S
C239 C240 1.366 . S
C239 C241 1.388 . S
C240 C239 1.366 . S
C240 C244 1.385 . S
C241 H216 0.951 . S
C241 C239 1.388 . S
C241 C242 1.366 . S
C242 C241 1.366 . S
C242 C243 1.414 . S
C242 C245 1.499 . S
C243 H217 0.950 . S
C243 C242 1.414 . S
C243 C244 1.374 . S
C244 H218 0.950 . S
C244 C240 1.385 . S
C244 C243 1.374 . S
C245 C242 1.499 . S
C245 C246 1.373 . S
C245 C247 1.389 . S
C246 H219 0.950 . S
C246 C232 1.377 1_655 S
C246 C245 1.373 . S
C247 C231 1.377 1_655 S
C247 C245 1.389 . S
C247 C248 1.524 . S
C248 C247 1.524 . S
C248 C249 1.397 . S
C248 C253 1.363 . S
C249 H220 0.950 . S
C249 C248 1.397 . S
C249 C250 1.334 . S
C250 H221 0.950 . S
C250 C249 1.334 . S
C250 C251 1.287 . S
C251 C250 1.287 . S
C251 C252 1.524 . S
C251 H254 0.999 . S
C252 H222 0.950 . S
C252 C251 1.524 . S
C252 C253 1.415 . S
C253 H223 0.950 . S
C253 C248 1.363 . S
C253 C252 1.415 . S
H254 C251 0.999 . S
H255 C236 0.913 . S
H256 C274 0.951 . S
H257 C276 0.951 1_554 S
H258 C278 0.950 . S
H259 C279 0.950 . S
H260 C281 0.950 . S
H261 C284 0.950 . S
H262 C285 0.950 . S
H263 C287 0.950 . S
H264 C288 0.950 . S
H265 C289 0.951 . S
H266 C291 0.951 1_556 S
H267 C293 0.950 . S
H268 C294 0.950 . S
H269 C296 0.950 . S
H270 C299 0.950 . S
H271 C300 0.950 . S
H272 C302 0.950 . S
H273 C303 0.950 . S
C274 H256 0.951 . S
C274 C275 1.366 . S
C274 C276 1.388 . S
C275 C274 1.366 . S
C275 C279 1.385 . S
C276 H257 0.951 1_556 S
C276 C274 1.388 . S
C276 C277 1.366 . S
C277 C276 1.366 . S
C277 C278 1.414 . S
C277 C280 1.499 . S
C278 H258 0.950 . S
C278 C277 1.414 . S
C278 C279 1.374 . S
C279 H259 0.950 . S
C279 C275 1.385 . S
C279 C278 1.374 . S
C280 C277 1.499 . S
C280 C281 1.373 . S
C280 C282 1.389 1_556 S
C281 H260 0.950 . S
C281 C280 1.373 . S
C281 C297 1.377 1_545 S
C282 C280 1.389 1_554 S
C282 C283 1.524 . S
C282 C296 1.377 1_545 S
C283 C282 1.524 . S
C283 C284 1.397 . S
C283 C288 1.363 . S
C284 H261 0.950 . S
C284 C283 1.397 . S
C284 C285 1.334 . S
C285 H262 0.950 . S
C285 C284 1.334 . S
C285 C286 1.287 . S
C286 C285 1.287 . S
C286 C287 1.524 . S
C286 H305 0.913 . S
C287 H263 0.950 . S
C287 C286 1.524 . S
C287 C288 1.415 . S
C288 H264 0.950 . S
C288 C283 1.363 . S
C288 C287 1.415 . S
C289 H265 0.951 . S
C289 C290 1.366 . S
C289 C291 1.388 . S
C290 C289 1.366 . S
C290 C294 1.385 . S
C291 H266 0.951 1_554 S
C291 C289 1.388 . S
C291 C292 1.366 . S
C292 C291 1.366 . S
C292 C293 1.414 . S
C292 C295 1.499 . S
C293 H267 0.950 . S
C293 C292 1.414 . S
C293 C294 1.374 . S
C294 H268 0.950 . S
C294 C290 1.385 . S
C294 C293 1.374 . S
C295 C292 1.499 . S
C295 C296 1.373 . S
C295 C297 1.389 1_554 S
C296 H269 0.950 . S
C296 C282 1.377 1_565 S
C296 C295 1.373 . S
C297 C281 1.377 1_565 S
C297 C295 1.389 1_556 S
C297 C298 1.524 . S
C298 C297 1.524 . S
C298 C299 1.397 . S
C298 C303 1.363 . S
C299 H270 0.950 . S
C299 C298 1.397 . S
C299 C300 1.334 . S
C300 H271 0.950 . S
C300 C299 1.334 . S
C300 C301 1.287 . S
C301 C300 1.287 . S
C301 C302 1.524 . S
C301 H304 0.999 . S
C302 H272 0.950 . S
C302 C301 1.524 . S
C302 C303 1.415 . S
C303 H273 0.950 . S
C303 C298 1.363 . S
C303 C302 1.415 . S
H304 C301 0.999 . S
H305 C286 0.913 . S
H306 C324 0.951 . S
H307 C326 0.951 . S
H308 C328 0.950 . S
H309 C329 0.950 . S
H310 C331 0.950 . S
H311 C334 0.950 . S
H312 C335 0.950 . S
H313 C337 0.950 . S
H314 C338 0.950 . S
H315 C339 0.951 . S
H316 C341 0.951 . S
H317 C343 0.950 . S
H318 C344 0.950 . S
H319 C346 0.950 . S
H320 C349 0.950 . S
H321 C350 0.950 . S
H322 C352 0.950 . S
H323 C353 0.950 . S
C324 H306 0.951 . S
C324 C325 1.366 . S
C324 C326 1.388 . S
C325 C324 1.366 . S
C325 C329 1.385 . S
C326 H307 0.951 . S
C326 C324 1.388 . S
C326 C327 1.366 . S
C327 C326 1.366 . S
C327 C328 1.414 . S
C327 C330 1.499 . S
C328 H308 0.950 . S
C328 C327 1.414 . S
C328 C329 1.374 . S
C329 H309 0.950 . S
C329 C325 1.385 . S
C329 C328 1.374 . S
C330 C327 1.499 . S
C330 C331 1.373 . S
C330 C332 1.389 . S
C331 H310 0.950 . S
C331 C330 1.373 . S
C331 C347 1.377 . S
C332 C330 1.389 . S
C332 C333 1.524 . S
C332 C346 1.377 . S
C333 C332 1.524 . S
C333 C334 1.397 . S
C333 C338 1.363 . S
C334 H311 0.950 . S
C334 C333 1.397 . S
C334 C335 1.334 . S
C335 H312 0.950 . S
C335 C334 1.334 . S
C335 C336 1.287 . S
C336 C335 1.287 . S
C336 C337 1.524 . S
C336 H355 0.913 . S
C337 H313 0.950 . S
C337 C336 1.524 . S
C337 C338 1.415 . S
C338 H314 0.950 . S
C338 C333 1.363 . S
C338 C337 1.415 . S
C339 H315 0.951 . S
C339 C340 1.366 . S
C339 C341 1.388 . S
C340 C339 1.366 . S
C340 C344 1.385 . S
C341 H316 0.951 . S
C341 C339 1.388 . S
C341 C342 1.366 . S
C342 C341 1.366 . S
C342 C343 1.414 . S
C342 C345 1.499 . S
C343 H317 0.950 . S
C343 C342 1.414 . S
C343 C344 1.374 . S
C344 H318 0.950 . S
C344 C340 1.385 . S
C344 C343 1.374 . S
C345 C342 1.499 . S
C345 C346 1.373 . S
C345 C347 1.389 . S
C346 H319 0.950 . S
C346 C332 1.377 . S
C346 C345 1.373 . S
C347 C331 1.377 . S
C347 C345 1.389 . S
C347 C348 1.524 . S
C348 C347 1.524 . S
C348 C349 1.397 . S
C348 C353 1.363 . S
C349 H320 0.950 . S
C349 C348 1.397 . S
C349 C350 1.334 . S
C350 H321 0.950 . S
C350 C349 1.334 . S
C350 C351 1.287 . S
C351 C350 1.287 . S
C351 C352 1.524 . S
C351 H354 0.999 . S
C352 H322 0.950 . S
C352 C351 1.524 . S
C352 C353 1.415 . S
C353 H323 0.950 . S
C353 C348 1.363 . S
C353 C352 1.415 . S
H354 C351 0.999 . S
H355 C336 0.913 . S
H356 C374 0.951 . S
H357 C376 0.951 1_556 S
H358 C378 0.950 . S
H359 C379 0.950 . S
H360 C381 0.950 . S
H361 C384 0.950 . S
H362 C385 0.950 . S
H363 C387 0.950 . S
H364 C388 0.950 . S
H365 C389 0.951 . S
H366 C391 0.951 1_554 S
H367 C393 0.950 . S
H368 C394 0.950 . S
H369 C396 0.950 . S
H370 C399 0.950 . S
H371 C400 0.950 . S
H372 C402 0.950 . S
H373 C403 0.950 . S
C374 H356 0.951 . S
C374 C375 1.366 . S
C374 C376 1.388 . S
C375 C374 1.366 . S
C375 C379 1.385 . S
C376 H357 0.951 1_554 S
C376 C374 1.388 . S
C376 C377 1.366 . S
C377 C376 1.366 . S
C377 C378 1.414 . S
C377 C380 1.499 . S
C378 H358 0.950 . S
C378 C377 1.414 . S
C378 C379 1.374 . S
C379 H359 0.950 . S
C379 C375 1.385 . S
C379 C378 1.374 . S
C380 C377 1.499 . S
C380 C381 1.373 . S
C380 C382 1.389 1_554 S
C381 H360 0.950 . S
C381 C380 1.373 . S
C381 C397 1.377 1_455 S
C382 C380 1.389 1_556 S
C382 C383 1.524 . S
C382 C396 1.377 1_455 S
C383 C382 1.524 . S
C383 C384 1.397 . S
C383 C388 1.363 . S
C384 H361 0.950 . S
C384 C383 1.397 . S
C384 C385 1.334 . S
C385 H362 0.950 . S
C385 C384 1.334 . S
C385 C386 1.287 . S
C386 C385 1.287 . S
C386 C387 1.524 . S
C386 H405 0.913 . S
C387 H363 0.950 . S
C387 C386 1.524 . S
C387 C388 1.415 . S
C388 H364 0.950 . S
C388 C383 1.363 . S
C388 C387 1.415 . S
C389 H365 0.951 . S
C389 C390 1.366 . S
C389 C391 1.388 . S
C390 C389 1.366 . S
C390 C394 1.385 . S
C391 H366 0.951 1_556 S
C391 C389 1.388 . S
C391 C392 1.366 . S
C392 C391 1.366 . S
C392 C393 1.414 . S
C392 C395 1.499 . S
C393 H367 0.950 . S
C393 C392 1.414 . S
C393 C394 1.374 . S
C394 H368 0.950 . S
C394 C390 1.385 . S
C394 C393 1.374 . S
C395 C392 1.499 . S
C395 C396 1.373 . S
C395 C397 1.389 1_556 S
C396 H369 0.950 . S
C396 C382 1.377 1_655 S
C396 C395 1.373 . S
C397 C381 1.377 1_655 S
C397 C395 1.389 1_554 S
C397 C398 1.524 . S
C398 C397 1.524 . S
C398 C399 1.397 . S
C398 C403 1.363 . S
C399 H370 0.950 . S
C399 C398 1.397 . S
C399 C400 1.334 . S
C400 H371 0.950 . S
C400 C399 1.334 . S
C400 C401 1.287 . S
C401 C400 1.287 . S
C401 C402 1.524 . S
C401 H404 0.999 . S
C402 H372 0.950 . S
C402 C401 1.524 . S
C402 C403 1.415 . S
C403 H373 0.950 . S
C403 C398 1.363 . S
C403 C402 1.415 . S
H404 C401 0.999 . S
H405 C386 0.913 . S
H406 C424 0.951 . S
H407 C426 0.951 . S
H408 C428 0.950 . S
H409 C429 0.950 . S
H410 C431 0.950 . S
H411 C434 0.950 . S
H412 C435 0.950 . S
H413 C437 0.950 . S
H414 C438 0.950 . S
H415 C439 0.951 . S
H416 C441 0.951 . S
H417 C443 0.950 . S
H418 C444 0.950 . S
H419 C446 0.950 . S
H420 C449 0.950 . S
H421 C450 0.950 . S
H422 C452 0.950 . S
H423 C453 0.950 . S
C424 H406 0.951 . S
C424 C425 1.366 . S
C424 C426 1.388 . S
C425 C424 1.366 . S
C425 C429 1.385 . S
C426 H407 0.951 . S
C426 C424 1.388 . S
C426 C427 1.366 . S
C427 C426 1.366 . S
C427 C428 1.414 . S
C427 C430 1.499 . S
C428 H408 0.950 . S
C428 C427 1.414 . S
C428 C429 1.374 . S
C429 H409 0.950 . S
C429 C425 1.385 . S
C429 C428 1.374 . S
C430 C427 1.499 . S
C430 C431 1.373 . S
C430 C432 1.389 . S
C431 H410 0.950 . S
C431 C430 1.373 . S
C431 C447 1.377 1_545 S
C432 C430 1.389 . S
C432 C433 1.524 . S
C432 C446 1.377 1_545 S
C433 C432 1.524 . S
C433 C434 1.397 . S
C433 C438 1.363 1_545 S
C434 H411 0.950 . S
C434 C433 1.397 . S
C434 C435 1.334 . S
C435 H412 0.950 . S
C435 C434 1.334 . S
C435 C436 1.287 . S
C436 C435 1.287 . S
C436 C437 1.524 1_545 S
C436 H455 0.913 . S
C437 H413 0.950 . S
C437 C436 1.524 1_565 S
C437 C438 1.415 . S
C438 H414 0.950 . S
C438 C433 1.363 1_565 S
C438 C437 1.415 . S
C439 H415 0.951 . S
C439 C440 1.366 . S
C439 C441 1.388 . S
C440 C439 1.366 . S
C440 C444 1.385 . S
C441 H416 0.951 . S
C441 C439 1.388 . S
C441 C442 1.366 . S
C442 C441 1.366 . S
C442 C443 1.414 . S
C442 C445 1.499 . S
C443 H417 0.950 . S
C443 C442 1.414 . S
C443 C444 1.374 . S
C444 H418 0.950 . S
C444 C440 1.385 . S
C444 C443 1.374 . S
C445 C442 1.499 . S
C445 C446 1.373 . S
C445 C447 1.389 . S
C446 H419 0.950 . S
C446 C432 1.377 1_565 S
C446 C445 1.373 . S
C447 C431 1.377 1_565 S
C447 C445 1.389 . S
C447 C448 1.524 . S
C448 C447 1.524 . S
C448 C449 1.397 . S
C448 C453 1.363 1_565 S
C449 H420 0.950 . S
C449 C448 1.397 . S
C449 C450 1.334 . S
C450 H421 0.950 . S
C450 C449 1.334 . S
C450 C451 1.287 . S
C451 C450 1.287 . S
C451 C452 1.524 1_565 S
C451 H454 0.999 . S
C452 H422 0.950 . S
C452 C451 1.524 1_545 S
C452 C453 1.415 . S
C453 H423 0.950 . S
C453 C448 1.363 1_545 S
C453 C452 1.415 . S
H454 C451 0.999 . S
H455 C436 0.913 . S
C75 C13 1.407 . S
C90 C39 1.498 . S
C125 C25 1.498 . S
C140 C55 1.407 . S
C175 C7 1.298 . S
C190 C53 1.297 . S
C225 C35 1.707 . S
C240 C22 1.686 . S
C275 C50 1.679 . S
C290 C8 1.679 . S
C325 C21 1.708 . S
C340 C36 1.687 . S
C375 C11 1.297 . S
C390 C49 1.298 . S
C425 C27 1.216 . S
C440 C41 1.216 . S
