# Generated by pormake.
# Topology ske, (6)-cn, num edge types: 1
# Building blocks:
#     Node 0, Type 0, BuildingBlock: JUFBIX_clean_sbu_0, # of connection points: 6
#     Node 1, Type 0, BuildingBlock: JUFBIX_clean_sbu_0, # of connection points: 6
#     Node 2, Type 0, BuildingBlock: JUFBIX_clean_sbu_0, # of connection points: 6
#     Node 3, Type 0, BuildingBlock: JUFBIX_clean_sbu_0, # of connection points: 6
#     Node 4, Type 0, BuildingBlock: JUFBIX_clean_sbu_0, # of connection points: 6
#     Node 5, Type 0, BuildingBlock: JUFBIX_clean_sbu_0, # of connection points: 6
#     Node 6, Type 0, BuildingBlock: JUFBIX_clean_sbu_0, # of connection points: 6
#     Node 7, Type 0, BuildingBlock: JUFBIX_clean_sbu_0, # of connection points: 6
#     Edge 8, Type (0, 0), BuildingBlock: OJICUG_clean_linker_0, # of connection points: 2
#     Edge 9, Type (0, 0), BuildingBlock: OJICUG_clean_linker_0, # of connection points: 2
#     Edge 10, Type (0, 0), BuildingBlock: OJICUG_clean_linker_0, # of connection points: 2
#     Edge 11, Type (0, 0), BuildingBlock: OJICUG_clean_linker_0, # of connection points: 2
#     Edge 12, Type (0, 0), BuildingBlock: OJICUG_clean_linker_0, # of connection points: 2
#     Edge 13, Type (0, 0), BuildingBlock: OJICUG_clean_linker_0, # of connection points: 2
#     Edge 14, Type (0, 0), BuildingBlock: OJICUG_clean_linker_0, # of connection points: 2
#     Edge 15, Type (0, 0), BuildingBlock: OJICUG_clean_linker_0, # of connection points: 2
#     Edge 16, Type (0, 0), BuildingBlock: OJICUG_clean_linker_0, # of connection points: 2
#     Edge 17, Type (0, 0), BuildingBlock: OJICUG_clean_linker_0, # of connection points: 2
#     Edge 18, Type (0, 0), BuildingBlock: OJICUG_clean_linker_0, # of connection points: 2
#     Edge 19, Type (0, 0), BuildingBlock: OJICUG_clean_linker_0, # of connection points: 2
#     Edge 20, Type (0, 0), BuildingBlock: OJICUG_clean_linker_0, # of connection points: 2
#     Edge 21, Type (0, 0), BuildingBlock: OJICUG_clean_linker_0, # of connection points: 2
#     Edge 22, Type (0, 0), BuildingBlock: OJICUG_clean_linker_0, # of connection points: 2
#     Edge 23, Type (0, 0), BuildingBlock: OJICUG_clean_linker_0, # of connection points: 2
#     Edge 24, Type (0, 0), BuildingBlock: OJICUG_clean_linker_0, # of connection points: 2
#     Edge 25, Type (0, 0), BuildingBlock: OJICUG_clean_linker_0, # of connection points: 2
#     Edge 26, Type (0, 0), BuildingBlock: OJICUG_clean_linker_0, # of connection points: 2
#     Edge 27, Type (0, 0), BuildingBlock: OJICUG_clean_linker_0, # of connection points: 2
#     Edge 28, Type (0, 0), BuildingBlock: OJICUG_clean_linker_0, # of connection points: 2
#     Edge 29, Type (0, 0), BuildingBlock: OJICUG_clean_linker_0, # of connection points: 2
#     Edge 30, Type (0, 0), BuildingBlock: OJICUG_clean_linker_0, # of connection points: 2
#     Edge 31, Type (0, 0), BuildingBlock: OJICUG_clean_linker_0, # of connection points: 2
# Relax obj value: 0.394
# Max RMSD: 0.161
# Mean RMSD: 0.149
data_MOF--net-ske--node1-JUFBIX_clean_sbu_0--edge1-OJICUG_clean_linker_0
_symmetry_space_group_name_H-M    P1
_symmetry_Int_Tables_number       1
_symmetry_cell_setting            triclinic
loop_
_symmetry_equiv_pos_as_xyz
'x, y, z'
_cell_length_a     50.585621
_cell_length_b     21.341601
_cell_length_c     11.311029
_cell_angle_alpha  90.555036
_cell_angle_beta   92.157504
_cell_angle_gamma 92.701002
loop_
_atom_site_label
_atom_site_type_symbol
_atom_site_fract_x
_atom_site_fract_y
_atom_site_fract_z
_atom_type_partial_charge
Co0 Co 0.17857 0.25236 0.82338 0.0
C1 C 0.18651 0.37102 0.72957 0.0
Co2 Co 0.19229 0.25263 0.64026 0.0
C3 C 0.17546 0.20243 1.04074 0.0
C4 C 0.13904 0.24351 0.99698 0.0
N5 N 0.16526 0.24836 0.97565 0.0
N6 N 0.15662 0.16229 1.08123 0.0
C7 C 0.1336 0.18962 1.06005 0.0
H8 H 0.19608 0.19153 1.03852 0.0
H9 H 0.12418 0.27101 0.95361 0.0
C10 C 0.18106 0.1328 0.72639 0.0
N11 N 0.20532 0.24596 0.48728 0.0
C12 C 0.19091 0.20523 0.41668 0.0
C13 C 0.23067 0.23172 0.46724 0.0
N14 N 0.20543 0.15959 0.37349 0.0
C15 C 0.23075 0.17767 0.39911 0.0
C16 C 0.23418 0.25223 0.81404 0.0
O17 O 0.17694 0.1621 0.82057 0.0
O18 O 0.18867 0.16372 0.6388 0.0
O19 O 0.22781 0.24894 0.70474 0.0
O20 O 0.21564 0.25598 0.88685 0.0
O21 O 0.19521 0.34111 0.64194 0.0
H22 H 0.248 0.25286 0.51352 0.0
H23 H 0.16955 0.2022 0.4139 0.0
O24 O 0.17886 0.34142 0.8208 0.0
O25 O 0.1433 0.24957 0.76019 0.0
O26 O 0.15565 0.25731 0.57855 0.0
C27 C 0.13708 0.25342 0.65145 0.0
H28 H 0.11422 0.1695 1.07945 0.0
H29 H 0.24777 0.15107 0.37924 0.0
Co30 Co 0.94551 0.28442 0.54589 0.0
C31 C 0.91835 0.39677 0.5431 0.0
Co32 Co 0.90156 0.27394 0.54206 0.0
C33 C 1.00409 0.26852 0.57806 0.0
C34 C 0.9928 0.34241 0.46327 0.0
N35 N 0.98257 0.29808 0.53509 0.0
N36 N 1.02709 0.29269 0.53435 0.0
C37 C 1.01979 0.33933 0.46275 0.0
H38 H 1.00285 0.22906 0.63731 0.0
H39 H 0.98125 0.37448 0.4117 0.0
C40 C 0.92649 0.16124 0.54337 0.0
N41 N 0.86501 0.26228 0.55341 0.0
C42 C 0.85136 0.28666 0.642 0.0
C43 C 0.84822 0.21836 0.50208 0.0
N44 N 0.82716 0.25814 0.65216 0.0
C45 C 0.82495 0.21573 0.56246 0.0
C46 C 0.92122 0.27802 0.30873 0.0
O47 O 0.94826 0.19414 0.54458 0.0
O48 O 0.90467 0.18789 0.54208 0.0
O49 O 0.89949 0.27314 0.36424 0.0
O50 O 0.94276 0.28289 0.37155 0.0
O51 O 0.89806 0.35992 0.54277 0.0
H52 H 0.85337 0.18662 0.43237 0.0
H53 H 0.85987 0.32206 0.703 0.0
O54 O 0.94129 0.37444 0.54518 0.0
O55 O 0.94775 0.28564 0.72361 0.0
O56 O 0.9046 0.27449 0.71664 0.0
C57 C 0.9261 0.27998 0.77935 0.0
H58 H 1.03307 0.36966 0.41374 0.0
H59 H 0.80864 0.18165 0.54704 0.0
Co60 Co 0.18354 0.7549 0.66992 0.0
C61 C 0.15876 0.86795 0.67115 0.0
Co62 Co 0.13951 0.74514 0.66662 0.0
C63 C 0.23373 0.74347 0.56739 0.0
C64 C 0.23691 0.81063 0.70919 0.0
N65 N 0.22018 0.76671 0.65756 0.0
N66 N 0.25778 0.77277 0.55659 0.0
C67 C 0.26 0.81444 0.64754 0.0
H68 H 0.22521 0.70844 0.50569 0.0
H69 H 0.23179 0.84177 0.77993 0.0
C70 C 0.16659 0.63232 0.6686 0.0
N71 N 0.10238 0.73162 0.67766 0.0
C72 C 0.08082 0.76147 0.63577 0.0
C73 C 0.09218 0.68688 0.7487 0.0
N74 N 0.05784 0.73705 0.67937 0.0
C75 C 0.0652 0.68997 0.74977 0.0
C76 C 0.15885 0.7497 0.43291 0.0
O77 O 0.18697 0.66892 0.66866 0.0
O78 O 0.1437 0.65501 0.66654 0.0
O79 O 0.1372 0.74439 0.48875 0.0
O80 O 0.18037 0.75467 0.49551 0.0
O81 O 0.13687 0.83546 0.66937 0.0
H82 H 0.10376 0.65451 0.79942 0.0
H83 H 0.08202 0.80132 0.57744 0.0
O84 O 0.18045 0.84081 0.67091 0.0
O85 O 0.18567 0.75545 0.84792 0.0
O86 O 0.14237 0.74624 0.84079 0.0
C87 C 0.16392 0.75087 0.9035 0.0
H88 H 0.27616 0.84892 0.6631 0.0
H89 H 0.05197 0.65933 0.79844 0.0
Co90 Co 0.89212 0.77666 0.58491 0.0
C91 C 0.90311 0.89628 0.49923 0.0
Co92 Co 0.90534 0.77861 0.40094 0.0
C93 C 0.89067 0.72475 0.80246 0.0
C94 C 0.85429 0.7677 0.76664 0.0
N95 N 0.8802 0.77121 0.73948 0.0
N96 N 0.87208 0.68607 0.84888 0.0
C97 C 0.84916 0.71465 0.83258 0.0
H98 H 0.91109 0.71286 0.79647 0.0
H99 H 0.83924 0.79599 0.7269 0.0
C100 C 0.89782 0.65803 0.49195 0.0
N101 N 0.91712 0.77255 0.24552 0.0
C102 C 0.90331 0.72793 0.1812 0.0
C103 C 0.94266 0.76135 0.22284 0.0
N104 N 0.91869 0.6829 0.14185 0.0
C105 C 0.94369 0.70529 0.16164 0.0
C106 C 0.94763 0.77782 0.56735 0.0
O107 O 0.88945 0.68733 0.57884 0.0
O108 O 0.90525 0.68896 0.40408 0.0
O109 O 0.94107 0.78116 0.45881 0.0
O110 O 0.92929 0.77453 0.64157 0.0
O111 O 0.90699 0.86746 0.40227 0.0
H112 H 0.95973 0.78658 0.26336 0.0
H113 H 0.88202 0.7222 0.18113 0.0
O114 O 0.89533 0.86554 0.58907 0.0
O115 O 0.856 0.77885 0.52748 0.0
O116 O 0.86759 0.7769 0.34449 0.0
C117 C 0.84919 0.7772 0.41868 0.0
H118 H 0.82995 0.69611 0.85806 0.0
H119 H 0.96127 0.68075 0.14194 0.0
Co120 Co 0.6793 0.75844 0.30009 0.0
C121 C 0.68602 0.87877 0.20713 0.0
Co122 Co 0.69221 0.76017 0.1156 0.0
C123 C 0.68081 0.81083 0.51837 0.0
C124 C 0.6421 0.77175 0.4807 0.0
N125 N 0.66781 0.76435 0.4557 0.0
N126 N 0.66446 0.85327 0.55983 0.0
C127 C 0.63994 0.82727 0.54249 0.0
H128 H 0.70193 0.81984 0.51508 0.0
H129 H 0.6255 0.74424 0.44144 0.0
C130 C 0.68231 0.64081 0.20253 0.0
N131 N 0.7038 0.76568 0.9603 0.0
C132 C 0.69255 0.81112 0.89732 0.0
C133 C 0.7297 0.7719 0.93346 0.0
N134 N 0.71052 0.85195 0.85234 0.0
C135 C 0.73396 0.82575 0.86874 0.0
C136 C 0.73541 0.7616 0.28091 0.0
O137 O 0.67825 0.66952 0.29942 0.0
O138 O 0.68971 0.67166 0.11232 0.0
O139 O 0.72849 0.7595 0.17219 0.0
O140 O 0.71709 0.76162 0.35551 0.0
O141 O 0.69431 0.84923 0.12047 0.0
H142 H 0.74524 0.74497 0.97288 0.0
H143 H 0.67187 0.82083 0.9027 0.0
O144 O 0.67883 0.84818 0.29581 0.0
O145 O 0.64349 0.75444 0.24394 0.0
O146 O 0.65476 0.76049 1.06044 0.0
C147 C 0.63661 0.75673 0.13566 0.0
H148 H 0.62182 0.84898 0.56442 0.0
H149 H 0.7529 0.84642 0.84431 0.0
Co150 Co 0.44365 0.78218 1.04834 0.0
C151 C 0.41792 0.89747 1.06137 0.0
Co152 Co 0.39957 0.77639 1.04477 0.0
C153 C 0.50274 0.76488 1.07545 0.0
C154 C 0.49076 0.84029 0.96602 0.0
N155 N 0.48091 0.79464 1.03607 0.0
N156 N 0.52549 0.79024 1.03097 0.0
C157 C 0.51772 0.83779 0.9628 0.0
H158 H 0.5019 0.72463 0.13288 0.0
H159 H 0.47895 0.87316 0.91772 0.0
C160 C 0.4228 0.66077 1.02979 0.0
N161 N 0.3629 0.76627 1.05771 0.0
C162 C 0.34968 0.78913 0.14927 0.0
C163 C 0.34569 0.72399 1.00429 0.0
N164 N 0.32533 0.76115 0.15909 0.0
C165 C 0.32263 0.72075 1.06618 0.0
C166 C 0.41897 0.78225 0.81134 0.0
O167 O 0.44525 0.69115 1.03578 0.0
O168 O 0.40176 0.6903 1.03581 0.0
O169 O 0.3972 0.77912 0.8669 0.0
O170 O 0.44052 0.785 0.87417 0.0
O171 O 0.39702 0.86264 1.05414 0.0
H172 H 0.35041 0.69352 0.93185 0.0
H173 H 0.35863 0.82288 0.21239 0.0
O174 O 0.44039 0.87279 1.05877 0.0
O175 O 0.44618 0.77904 0.22604 0.0
O176 O 0.40294 0.77324 0.21908 0.0
C177 C 0.42447 0.77582 0.2818 0.0
H178 H 0.53066 0.86931 0.91456 0.0
H179 H 0.30611 0.68747 1.049 0.0
Co180 Co 0.68423 0.26244 0.1538 0.0
C181 C 0.65996 0.37583 0.15326 0.0
Co182 Co 0.64028 0.25334 0.14988 0.0
C183 C 0.73437 0.24833 1.05387 0.0
C184 C 0.73781 0.31619 0.19451 0.0
N185 N 0.72082 0.27288 0.14264 0.0
N186 N 0.7587 0.2762 1.04412 0.0
C187 C 0.76109 0.31833 0.13428 0.0
H188 H 0.72569 0.21333 0.99248 0.0
H189 H 0.7328 0.34792 0.2645 0.0
C190 C 0.66665 0.14018 0.15274 0.0
N191 N 0.60323 0.24116 0.16018 0.0
C192 C 0.58201 0.27094 0.11484 0.0
C193 C 0.59266 0.19849 0.23442 0.0
N194 N 0.55889 0.24868 0.15993 0.0
C195 C 0.56573 0.20301 0.23458 0.0
C196 C 0.65973 0.25723 0.91647 0.0
O197 O 0.68716 0.17633 0.15284 0.0
O198 O 0.64386 0.16327 0.15065 0.0
O199 O 0.63807 0.25221 0.97219 0.0
O200 O 0.68124 0.2621 0.9792 0.0
O201 O 0.63805 0.34352 0.15153 0.0
H202 H 0.60394 0.16677 0.28801 0.0
H203 H 0.58354 0.30935 1.05331 0.0
O204 O 0.68164 0.3486 0.1542 0.0
O205 O 0.68631 0.26305 0.33159 0.0
O206 O 0.64302 0.2548 0.3243 0.0
C207 C 0.66456 0.25892 0.38711 0.0
H208 H 0.77756 0.35195 0.15018 0.0
H209 H 0.55216 0.17454 0.28569 0.0
Co210 Co 0.39378 0.28393 1.08609 0.0
C211 C 0.40168 0.39527 0.95834 0.0
Co212 Co 0.40437 0.27145 0.90093 0.0
C213 C 0.36093 0.26944 0.27064 0.0
C214 C 0.3802 0.3602 0.28292 0.0
N215 N 0.38247 0.30251 0.23521 0.0
N216 N 0.34415 0.30438 0.32992 0.0
C217 C 0.3567 0.36157 0.34043 0.0
H218 H 0.35609 0.22167 0.24178 0.0
H219 H 0.39321 0.40063 0.26665 0.0
C220 C 0.39995 0.16096 1.03621 0.0
N221 N 0.41201 0.25257 0.74376 0.0
C222 C 0.39393 0.27592 0.66884 0.0
C223 C 0.41341 0.19227 0.70699 0.0
N224 N 0.37929 0.23012 0.61158 0.0
C225 C 0.39242 0.17756 0.62912 0.0
C226 C 0.4486 0.28566 1.05272 0.0
O227 O 0.39322 0.19593 0.12 0.0
O228 O 0.40436 0.18498 0.93686 0.0
O229 O 0.44085 0.27843 0.94473 0.0
O230 O 0.43129 0.28955 0.13229 0.0
O231 O 0.40596 0.36075 0.86965 0.0
H232 H 0.42514 0.15785 0.75148 0.0
H233 H 0.38752 0.32317 0.67819 0.0
O234 O 0.39525 0.36968 1.05381 0.0
O235 O 0.35667 0.27875 1.0396 0.0
O236 O 0.36561 0.26264 0.85784 0.0
C237 C 0.3483 0.26783 0.9352 0.0
H238 H 0.34941 0.40159 0.38644 0.0
H239 H 0.38559 0.13083 0.60067 0.0
C240 C 0.28123 0.22425 0.77882 0.0
C241 C 0.26304 0.25255 0.85177 0.0
H242 H 0.32163 0.20272 0.75214 0.0
C243 C 0.27313 0.2834 0.95558 0.0
H244 H 0.27428 0.19893 0.6993 0.0
C245 C 0.30067 0.28811 0.98245 0.0
C246 C 0.31892 0.26152 0.90708 0.0
H247 H 0.25985 0.30563 1.01413 0.0
H248 H 0.30772 0.31355 1.0617 0.0
C249 C 0.30859 0.22755 0.80746 0.0
C250 C 0.80276 0.29231 0.95649 0.0
C251 C 0.77613 0.27039 0.94601 0.0
H252 H 0.83966 0.3059 0.87353 0.0
C253 C 0.7666 0.24495 0.83607 0.0
H254 H 0.811 0.31153 1.03949 0.0
C255 C 0.78313 0.24177 0.73984 0.0
C256 C 0.80974 0.26376 0.75031 0.0
H257 H 0.74622 0.22824 0.82274 0.0
H258 H 0.7749 0.22254 0.65681 0.0
C259 C 0.81928 0.28917 0.86025 0.0
C260 C 0.31767 0.79096 0.3685 0.0
C261 C 0.30813 0.76532 0.25867 0.0
H262 H 0.30967 0.812 0.5487 0.0
C263 C 0.28171 0.74157 0.24984 0.0
H264 H 0.33785 0.80924 0.38082 0.0
C265 C 0.26546 0.74303 0.34735 0.0
C266 C 0.275 0.76866 0.45712 0.0
H267 H 0.27339 0.72213 0.16719 0.0
H268 H 0.24528 0.72476 0.33517 0.0
C269 C 0.3014 0.7925 0.46599 0.0
C270 C 0.77327 0.77022 0.43646 0.0
C271 C 0.76451 0.76528 0.31708 0.0
H272 H 0.80624 0.77791 0.56141 0.0
C273 C 0.78408 0.76489 0.23087 0.0
H274 H 0.75905 0.77095 0.50563 0.0
C275 C 0.81136 0.7691 0.26276 0.0
C276 C 0.82011 0.77398 0.38216 0.0
H277 H 0.77836 0.76134 0.13782 0.0
H278 H 0.82558 0.76829 0.19362 0.0
C279 C 0.80054 0.77443 0.46834 0.0
C280 C 0.17917 0.96781 0.60471 0.0
C281 C 0.16053 0.93683 0.6753 0.0
H282 H 0.20072 0.0534 0.56791 0.0
C283 C 0.14852 0.97059 0.76398 0.0
H284 H 0.18908 0.94236 0.53723 0.0
C285 C 0.15564 0.03434 0.78332 0.0
C286 C 0.17463 0.06492 0.71328 0.0
H287 H 0.13467 0.94713 0.82158 0.0
H288 H 0.14629 0.05969 0.85258 0.0
C289 C 0.18607 0.03111 0.62317 0.0
C290 C 0.92983 0.50249 0.46113 0.0
C291 C 0.91444 0.46446 0.53499 0.0
H292 H 0.93583 0.59364 0.3857 0.0
C293 C 0.89307 0.48995 0.59163 0.0
H294 H 0.94609 0.48346 0.41501 0.0
C295 C 0.88733 0.55268 0.57589 0.0
C296 C 0.90243 0.59061 0.50071 0.0
H297 H 0.88079 0.46125 0.64836 0.0
H298 H 0.87107 0.57151 0.62236 0.0
C299 C 0.92365 0.56499 0.4429 0.0
C300 C 0.9275 0.99448 0.43355 0.0
C301 C 0.91024 0.96408 0.51207 0.0
H302 H 0.94728 0.08145 0.38491 0.0
C303 C 0.90125 0.99814 0.60812 0.0
H304 H 0.93512 0.96911 0.35978 0.0
C305 C 0.90837 0.06173 0.6225 0.0
C306 C 0.92507 0.09241 0.5428 0.0
H307 H 0.88819 0.97605 0.67078 0.0
H308 H 0.90006 0.08767 0.69397 0.0
C309 C 0.93497 0.05823 0.44921 0.0
C310 C 0.19231 0.53871 0.6271 0.0
C311 C 0.17034 0.56455 0.67843 0.0
H312 H 0.21464 0.457 0.60304 0.0
C313 C 0.15407 0.52674 0.7491 0.0
H314 H 0.20526 0.56716 0.57285 0.0
C315 C 0.16002 0.4643 0.76982 0.0
C316 C 0.18195 0.43843 0.71786 0.0
H317 H 0.13727 0.54593 0.79102 0.0
H318 H 0.14714 0.43587 0.82439 0.0
C319 C 0.19783 0.476 0.64519 0.0
C320 C 0.6578 0.54218 0.26443 0.0
C321 C 0.67578 0.57289 0.18961 0.0
H322 H 0.63762 0.45491 0.30829 0.0
C323 C 0.68596 0.53914 1.09594 0.0
H324 H 0.64927 0.5674 0.33612 0.0
C325 C 0.67917 0.47555 1.08006 0.0
C326 C 0.66164 0.44459 0.15577 0.0
H327 H 0.69962 0.56158 1.03617 0.0
H328 H 0.68827 0.44991 1.01034 0.0
C329 C 0.65064 0.47839 0.24711 0.0
C330 C 0.39393 0.99075 0.12594 0.0
C331 C 0.4154 0.96594 1.06817 0.0
H332 H 0.37246 0.07282 0.16381 0.0
C333 C 0.4326 1.00643 1.00762 0.0
H334 H 0.3804 0.96025 0.17353 0.0
C335 C 0.42756 0.07007 0.9993 0.0
C336 C 0.40568 0.0946 1.05407 0.0
H337 H 0.44915 0.98843 0.96195 0.0
H338 H 0.44067 0.10014 0.94873 0.0
C339 C 0.38935 0.05488 0.12056 0.0
C340 C 0.42889 0.49387 0.91339 0.0
C341 C 0.40624 0.46412 0.96068 0.0
H342 H 0.45275 0.58009 0.90132 0.0
C343 C 0.39033 0.49897 1.03292 0.0
H344 H 0.44189 0.46743 0.86007 0.0
C345 C 0.39676 0.56175 1.05831 0.0
C346 C 0.41941 0.59196 1.01276 0.0
H347 H 0.37305 0.47711 1.07239 0.0
H348 H 0.38378 0.58691 0.1141 0.0
C349 C 0.4355 0.55759 0.93961 0.0
C350 C 0.69125 0.04608 0.10444 0.0
C351 C 0.67014 0.07242 0.16144 0.0
H352 H 0.71282 0.96385 1.0745 0.0
C353 C 0.65471 0.0352 0.23654 0.0
H354 H 0.70356 0.07417 1.04681 0.0
C355 C 0.66062 0.97261 0.25566 0.0
C356 C 0.68161 0.94618 0.19754 0.0
H357 H 0.63865 0.05496 0.28299 0.0
H358 H 0.64844 0.94455 0.31383 0.0
C359 C 0.69672 0.98332 0.12115 0.0
C360 C 0.1676 0.0866 0.33757 0.0
C361 C 0.19463 0.10213 0.32009 0.0
H362 H 0.12965 0.09803 0.25358 0.0
C363 C 0.20454 0.084 0.21168 0.0
H364 H 0.15957 0.09206 0.42427 0.0
C365 C 0.18666 0.07872 0.11444 0.0
C366 C 0.1613 0.10168 0.13027 0.0
H367 H 0.22553 0.08881 0.19629 0.0
H368 H 0.19472 0.07825 1.02705 0.0
C369 C 0.15017 0.08895 0.23927 0.0
C370 C 0.94664 0.28659 0.11561 0.0
C371 C 0.92223 0.27845 0.17291 0.0
H372 H 0.96729 0.29365 0.95182 0.0
C373 C 0.8993 0.27078 1.09796 0.0
H374 H 0.96494 0.29275 0.16814 0.0
C375 C 0.90075 0.27114 0.97251 0.0
C376 C 0.92514 0.27948 0.91519 0.0
H377 H 0.88008 0.26425 0.13618 0.0
H378 H 0.8825 0.26455 0.91996 0.0
C379 C 0.94807 0.28713 0.99012 0.0
C380 C 0.18424 0.75859 0.23989 0.0
C381 C 0.15984 0.75022 0.29705 0.0
H382 H 0.205 0.76525 1.07639 0.0
C383 C 0.13695 0.74236 0.22196 0.0
H384 H 0.20246 0.76543 0.29258 0.0
C385 C 0.13844 0.74265 1.09648 0.0
C386 C 0.16288 0.7507 1.03934 0.0
H387 H 0.11771 0.73584 0.26011 0.0
H388 H 0.12016 0.73633 1.04383 0.0
C389 C 0.18576 0.75867 0.11446 0.0
C390 C 0.90229 0.6029 0.88737 0.0
C391 C 0.87694 0.6264 0.90157 0.0
H392 H 0.94061 0.60796 0.9741 0.0
C393 C 0.86516 0.61331 1.0093 0.0
H394 H 0.91089 0.60306 0.80116 0.0
C395 C 0.88208 0.6068 0.10854 0.0
C396 C 0.90915 0.62294 1.09419 0.0
H397 H 0.84471 0.62348 1.02244 0.0
H398 H 0.87373 0.61073 0.19497 0.0
C399 C 0.91949 0.60449 0.98695 0.0
C400 C 0.69948 0.9332 0.59554 0.0
C401 C 0.67267 0.91398 0.60848 0.0
H402 H 0.73708 0.91911 0.68178 0.0
C403 C 0.66184 0.93038 0.71592 0.0
H404 H 0.70796 0.93139 0.50911 0.0
C405 C 0.67889 0.93238 0.81607 0.0
C406 C 0.70468 0.91155 0.80167 0.0
H407 H 0.64072 0.92486 0.72781 0.0
H408 H 0.6701 0.93038 0.90186 0.0
C409 C 0.7164 0.92708 0.69489 0.0
C410 C 0.44466 0.78598 0.61847 0.0
C411 C 0.4201 0.78113 0.67543 0.0
H412 H 0.46559 0.78816 0.45506 0.0
C413 C 0.39722 0.77385 0.60011 0.0
H414 H 0.46294 0.79148 0.67123 0.0
C415 C 0.39884 0.7716 0.47472 0.0
C416 C 0.42338 0.77669 0.41773 0.0
H417 H 0.37788 0.76954 0.638 0.0
H418 H 0.3806 0.76567 0.42194 0.0
C419 C 0.44627 0.78389 0.49303 0.0
C420 C 0.63913 0.25138 0.58029 0.0
C421 C 0.66357 0.25854 0.52293 0.0
H422 H 0.61848 0.24517 0.74414 0.0
C423 C 0.68654 0.2653 0.59781 0.0
H424 H 0.6208 0.24594 0.52781 0.0
C425 C 0.68511 0.26501 0.72327 0.0
C426 C 0.66069 0.25767 0.78064 0.0
H427 H 0.70579 0.27105 0.55953 0.0
H428 H 0.70339 0.27083 0.77577 0.0
C429 C 0.63772 0.25091 0.70578 0.0
C430 C 0.32023 0.3095 0.50537 0.0
C431 C 0.32196 0.2797 0.39568 0.0
H432 H 0.34411 0.32233 0.66432 0.0
C433 C 0.32123 0.21389 0.40638 0.0
H434 H 0.31296 0.35629 0.511 0.0
C435 C 0.34032 0.19168 0.48701 0.0
C436 C 0.35236 0.23533 0.56927 0.0
H437 H 0.3148 0.18435 0.33139 0.0
H438 H 0.34784 0.1456 0.47408 0.0
C439 C 0.33876 0.29085 0.59101 0.0
C440 C 0.08877 0.24268 0.69701 0.0
C441 C 0.1085 0.2564 0.61477 0.0
H442 H 0.04755 0.24298 0.73608 0.0
C443 C 0.10053 0.27664 0.50185 0.0
H444 H 0.09408 0.2262 0.78458 0.0
C445 C 0.07372 0.28612 0.47426 0.0
C446 C 0.05413 0.27528 0.55855 0.0
H447 H 0.11507 0.28722 0.43612 0.0
H448 H 0.06838 0.30306 0.38714 0.0
C449 C 0.06197 0.25177 0.66917 0.0
C450 C 0.99592 0.78885 0.52036 0.0
C451 C 0.97629 0.77445 0.60273 0.0
H452 H 1.03709 0.78882 0.47996 0.0
C453 C 0.98442 0.75288 0.71453 0.0
H454 H 0.9905 0.80626 0.43367 0.0
C455 C 1.01126 0.74302 0.7409 0.0
C456 C 1.03075 0.7547 0.65649 0.0
H457 H 0.96997 0.74152 0.78026 0.0
H458 H 1.01667 0.72513 0.8272 0.0
C459 C 1.02276 0.77936 0.54699 0.0
C460 C 0.58857 0.74243 0.18579 0.0
C461 C 0.60776 0.75793 1.10191 0.0
H462 H 0.54751 0.73984 0.22911 0.0
C463 C 0.59895 0.77839 0.99031 0.0
H464 H 0.5945 0.72575 0.27239 0.0
C465 C 0.57187 0.78628 0.9657 0.0
C466 C 0.5528 0.77367 1.05169 0.0
H467 H 0.61303 0.7905 0.92341 0.0
H468 H 0.56592 0.80356 0.87958 0.0
C469 C 0.56149 0.74993 0.16091 0.0
C470 C 0.49631 0.2905 0.99496 0.0
C471 C 0.47751 0.28495 1.08389 0.0
H472 H 0.53706 0.28431 0.94977 0.0
C473 C 0.48658 0.27369 0.20023 0.0
H474 H 0.49007 0.29951 0.9043 0.0
C475 C 0.51347 0.26462 0.22562 0.0
C476 C 0.53207 0.26728 0.13578 0.0
H477 H 0.47278 0.26922 0.2709 0.0
H478 H 0.51967 0.25396 0.31555 0.0
C479 C 0.5233 0.28222 1.02079 0.0
loop_
_geom_bond_atom_site_label_1
_geom_bond_atom_site_label_2
_geom_bond_distance
_geom_bond_site_symmetry_2
_ccdc_geom_bond_type
Co0 N5 2.057 . S
Co0 O17 2.021 . S
Co0 O20 2.062 . S
Co0 O24 2.117 . S
Co0 O25 2.020 . S
C1 O21 1.259 . S
C1 O24 1.258 . S
Co2 N11 2.057 . S
Co2 O18 2.117 . S
Co2 O19 2.020 . S
Co2 O21 2.021 . S
Co2 O26 2.062 . S
C3 N5 1.316 . S
C3 N6 1.347 . S
C3 H8 0.931 . S
C4 N5 1.375 . S
C4 C7 1.350 . S
C4 H9 0.930 . S
N5 Co0 2.057 . S
N5 C3 1.316 . S
N5 C4 1.375 . S
N6 C3 1.347 . S
N6 C7 1.373 . S
C7 C4 1.350 . S
C7 N6 1.373 . S
C7 H28 0.931 1_556 S
H8 C3 0.931 . S
H9 C4 0.930 . S
C10 O17 1.259 . S
C10 O18 1.258 . S
N11 Co2 2.057 . S
N11 C12 1.316 . S
N11 C13 1.375 . S
C12 N11 1.316 . S
C12 N14 1.347 . S
C12 H23 0.931 . S
C13 N11 1.375 . S
C13 C15 1.350 . S
C13 H22 0.930 . S
N14 C12 1.347 . S
N14 C15 1.373 . S
C15 C13 1.350 . S
C15 N14 1.373 . S
C15 H29 0.931 . S
C16 O19 1.256 . S
C16 O20 1.255 . S
O17 Co0 2.021 . S
O17 C10 1.259 . S
O18 Co2 2.117 . S
O18 C10 1.258 . S
O19 Co2 2.020 . S
O19 C16 1.256 . S
O20 Co0 2.062 . S
O20 C16 1.255 . S
O21 C1 1.259 . S
O21 Co2 2.021 . S
H22 C13 0.930 . S
H23 C12 0.931 . S
O24 Co0 2.117 . S
O24 C1 1.258 . S
O25 Co0 2.020 . S
O25 C27 1.256 . S
O26 Co2 2.062 . S
O26 C27 1.255 . S
C27 O25 1.256 . S
C27 O26 1.255 . S
H28 C7 0.931 1_554 S
H29 C15 0.931 . S
Co30 N35 2.057 . S
Co30 O47 2.021 . S
Co30 O50 2.062 . S
Co30 O54 2.117 . S
Co30 O55 2.020 . S
C31 O51 1.259 . S
C31 O54 1.258 . S
Co32 N41 2.057 . S
Co32 O48 2.117 . S
Co32 O49 2.020 . S
Co32 O51 2.021 . S
Co32 O56 2.062 . S
C33 N35 1.316 . S
C33 N36 1.347 . S
C33 H38 0.931 . S
C34 N35 1.375 . S
C34 C37 1.350 . S
C34 H39 0.930 . S
N35 Co30 2.057 . S
N35 C33 1.316 . S
N35 C34 1.375 . S
N36 C33 1.347 . S
N36 C37 1.373 . S
C37 C34 1.350 . S
C37 N36 1.373 . S
C37 H58 0.931 . S
H38 C33 0.931 . S
H39 C34 0.930 . S
C40 O47 1.259 . S
C40 O48 1.258 . S
N41 Co32 2.057 . S
N41 C42 1.316 . S
N41 C43 1.375 . S
C42 N41 1.316 . S
C42 N44 1.347 . S
C42 H53 0.931 . S
C43 N41 1.375 . S
C43 C45 1.350 . S
C43 H52 0.930 . S
N44 C42 1.347 . S
N44 C45 1.373 . S
C45 C43 1.350 . S
C45 N44 1.373 . S
C45 H59 0.931 . S
C46 O49 1.256 . S
C46 O50 1.255 . S
O47 Co30 2.021 . S
O47 C40 1.259 . S
O48 Co32 2.117 . S
O48 C40 1.258 . S
O49 Co32 2.020 . S
O49 C46 1.256 . S
O50 Co30 2.062 . S
O50 C46 1.255 . S
O51 C31 1.259 . S
O51 Co32 2.021 . S
H52 C43 0.930 . S
H53 C42 0.931 . S
O54 Co30 2.117 . S
O54 C31 1.258 . S
O55 Co30 2.020 . S
O55 C57 1.256 . S
O56 Co32 2.062 . S
O56 C57 1.255 . S
C57 O55 1.256 . S
C57 O56 1.255 . S
H58 C37 0.931 . S
H59 C45 0.931 . S
Co60 N65 2.057 . S
Co60 O77 2.021 . S
Co60 O80 2.062 . S
Co60 O84 2.117 . S
Co60 O85 2.020 . S
C61 O81 1.259 . S
C61 O84 1.258 . S
Co62 N71 2.057 . S
Co62 O78 2.117 . S
Co62 O79 2.020 . S
Co62 O81 2.021 . S
Co62 O86 2.062 . S
C63 N65 1.316 . S
C63 N66 1.347 . S
C63 H68 0.931 . S
C64 N65 1.375 . S
C64 C67 1.350 . S
C64 H69 0.930 . S
N65 Co60 2.057 . S
N65 C63 1.316 . S
N65 C64 1.375 . S
N66 C63 1.347 . S
N66 C67 1.373 . S
C67 C64 1.350 . S
C67 N66 1.373 . S
C67 H88 0.931 . S
H68 C63 0.931 . S
H69 C64 0.930 . S
C70 O77 1.259 . S
C70 O78 1.258 . S
N71 Co62 2.057 . S
N71 C72 1.316 . S
N71 C73 1.375 . S
C72 N71 1.316 . S
C72 N74 1.347 . S
C72 H83 0.931 . S
C73 N71 1.375 . S
C73 C75 1.350 . S
C73 H82 0.930 . S
N74 C72 1.347 . S
N74 C75 1.373 . S
C75 C73 1.350 . S
C75 N74 1.373 . S
C75 H89 0.931 . S
C76 O79 1.256 . S
C76 O80 1.255 . S
O77 Co60 2.021 . S
O77 C70 1.259 . S
O78 Co62 2.117 . S
O78 C70 1.258 . S
O79 Co62 2.020 . S
O79 C76 1.256 . S
O80 Co60 2.062 . S
O80 C76 1.255 . S
O81 C61 1.259 . S
O81 Co62 2.021 . S
H82 C73 0.930 . S
H83 C72 0.931 . S
O84 Co60 2.117 . S
O84 C61 1.258 . S
O85 Co60 2.020 . S
O85 C87 1.256 . S
O86 Co62 2.062 . S
O86 C87 1.255 . S
C87 O85 1.256 . S
C87 O86 1.255 . S
H88 C67 0.931 . S
H89 C75 0.931 . S
Co90 N95 2.057 . S
Co90 O107 2.021 . S
Co90 O110 2.062 . S
Co90 O114 2.117 . S
Co90 O115 2.020 . S
C91 O111 1.259 . S
C91 O114 1.258 . S
Co92 N101 2.057 . S
Co92 O108 2.117 . S
Co92 O109 2.020 . S
Co92 O111 2.021 . S
Co92 O116 2.062 . S
C93 N95 1.316 . S
C93 N96 1.347 . S
C93 H98 0.931 . S
C94 N95 1.375 . S
C94 C97 1.350 . S
C94 H99 0.930 . S
N95 Co90 2.057 . S
N95 C93 1.316 . S
N95 C94 1.375 . S
N96 C93 1.347 . S
N96 C97 1.373 . S
C97 C94 1.350 . S
C97 N96 1.373 . S
C97 H118 0.931 . S
H98 C93 0.931 . S
H99 C94 0.930 . S
C100 O107 1.259 . S
C100 O108 1.258 . S
N101 Co92 2.057 . S
N101 C102 1.316 . S
N101 C103 1.375 . S
C102 N101 1.316 . S
C102 N104 1.347 . S
C102 H113 0.931 . S
C103 N101 1.375 . S
C103 C105 1.350 . S
C103 H112 0.930 . S
N104 C102 1.347 . S
N104 C105 1.373 . S
C105 C103 1.350 . S
C105 N104 1.373 . S
C105 H119 0.931 1_554 S
C106 O109 1.256 . S
C106 O110 1.255 . S
O107 Co90 2.021 . S
O107 C100 1.259 . S
O108 Co92 2.117 . S
O108 C100 1.258 . S
O109 Co92 2.020 . S
O109 C106 1.256 . S
O110 Co90 2.062 . S
O110 C106 1.255 . S
O111 C91 1.259 . S
O111 Co92 2.021 . S
H112 C103 0.930 . S
H113 C102 0.931 . S
O114 Co90 2.117 . S
O114 C91 1.258 . S
O115 Co90 2.020 . S
O115 C117 1.256 . S
O116 Co92 2.062 . S
O116 C117 1.255 . S
C117 O115 1.256 . S
C117 O116 1.255 . S
H118 C97 0.931 . S
H119 C105 0.931 1_556 S
Co120 N125 2.057 . S
Co120 O137 2.021 . S
Co120 O140 2.062 . S
Co120 O144 2.117 . S
Co120 O145 2.020 . S
C121 O141 1.259 1_554 S
C121 O144 1.258 . S
Co122 N131 2.057 . S
Co122 O138 2.117 1_556 S
Co122 O139 2.020 1_556 S
Co122 O141 2.021 . S
Co122 O146 2.062 . S
C123 N125 1.316 . S
C123 N126 1.347 . S
C123 H128 0.931 . S
C124 N125 1.375 . S
C124 C127 1.350 . S
C124 H129 0.930 . S
N125 Co120 2.057 . S
N125 C123 1.316 . S
N125 C124 1.375 . S
N126 C123 1.347 . S
N126 C127 1.373 . S
C127 C124 1.350 . S
C127 N126 1.373 . S
C127 H148 0.931 . S
H128 C123 0.931 . S
H129 C124 0.930 . S
C130 O137 1.259 . S
C130 O138 1.258 . S
N131 Co122 2.057 . S
N131 C132 1.316 . S
N131 C133 1.375 . S
C132 N131 1.316 . S
C132 N134 1.347 . S
C132 H143 0.931 . S
C133 N131 1.375 . S
C133 C135 1.350 . S
C133 H142 0.930 . S
N134 C132 1.347 . S
N134 C135 1.373 . S
C135 C133 1.350 . S
C135 N134 1.373 . S
C135 H149 0.931 . S
C136 O139 1.256 . S
C136 O140 1.255 . S
O137 Co120 2.021 . S
O137 C130 1.259 . S
O138 Co122 2.117 1_554 S
O138 C130 1.258 . S
O139 Co122 2.020 1_554 S
O139 C136 1.256 . S
O140 Co120 2.062 . S
O140 C136 1.255 . S
O141 C121 1.259 1_556 S
O141 Co122 2.021 . S
H142 C133 0.930 . S
H143 C132 0.931 . S
O144 Co120 2.117 . S
O144 C121 1.258 . S
O145 Co120 2.020 . S
O145 C147 1.256 . S
O146 Co122 2.062 . S
O146 C147 1.255 1_556 S
C147 O145 1.256 . S
C147 O146 1.255 1_554 S
H148 C127 0.931 . S
H149 C135 0.931 . S
Co150 N155 2.057 . S
Co150 O167 2.021 . S
Co150 O170 2.062 1_554 S
Co150 O174 2.117 . S
Co150 O175 2.020 . S
C151 O171 1.259 . S
C151 O174 1.258 . S
Co152 N161 2.057 . S
Co152 O168 2.117 . S
Co152 O169 2.020 1_554 S
Co152 O171 2.021 . S
Co152 O176 2.062 . S
C153 N155 1.316 . S
C153 N156 1.347 1_554 S
C153 H158 0.931 . S
C154 N155 1.375 . S
C154 C157 1.350 . S
C154 H159 0.930 . S
N155 Co150 2.057 . S
N155 C153 1.316 . S
N155 C154 1.375 . S
N156 C153 1.347 1_556 S
N156 C157 1.373 1_556 S
C157 C154 1.350 . S
C157 N156 1.373 1_554 S
C157 H178 0.931 . S
H158 C153 0.931 . S
H159 C154 0.930 . S
C160 O167 1.259 . S
C160 O168 1.258 . S
N161 Co152 2.057 . S
N161 C162 1.316 . S
N161 C163 1.375 . S
C162 N161 1.316 . S
C162 N164 1.347 . S
C162 H173 0.931 . S
C163 N161 1.375 . S
C163 C165 1.350 . S
C163 H172 0.930 . S
N164 C162 1.347 . S
N164 C165 1.373 . S
C165 C163 1.350 . S
C165 N164 1.373 . S
C165 H179 0.931 . S
C166 O169 1.256 . S
C166 O170 1.255 . S
O167 Co150 2.021 . S
O167 C160 1.259 . S
O168 Co152 2.117 . S
O168 C160 1.258 . S
O169 Co152 2.020 1_556 S
O169 C166 1.256 . S
O170 Co150 2.062 1_556 S
O170 C166 1.255 . S
O171 C151 1.259 . S
O171 Co152 2.021 . S
H172 C163 0.930 . S
H173 C162 0.931 . S
O174 Co150 2.117 . S
O174 C151 1.258 . S
O175 Co150 2.020 . S
O175 C177 1.256 . S
O176 Co152 2.062 . S
O176 C177 1.255 . S
C177 O175 1.256 . S
C177 O176 1.255 . S
H178 C157 0.931 . S
H179 C165 0.931 . S
Co180 N185 2.057 . S
Co180 O197 2.021 . S
Co180 O200 2.062 . S
Co180 O204 2.117 . S
Co180 O205 2.020 1_556 S
C181 O201 1.259 . S
C181 O204 1.258 . S
Co182 N191 2.057 . S
Co182 O198 2.117 . S
Co182 O199 2.020 . S
Co182 O201 2.021 . S
Co182 O206 2.062 1_556 S
C183 N185 1.316 . S
C183 N186 1.347 . S
C183 H188 0.931 . S
C184 N185 1.375 . S
C184 C187 1.350 . S
C184 H189 0.930 . S
N185 Co180 2.057 . S
N185 C183 1.316 . S
N185 C184 1.375 . S
N186 C183 1.347 . S
N186 C187 1.373 . S
C187 C184 1.350 . S
C187 N186 1.373 . S
C187 H208 0.931 . S
H188 C183 0.931 . S
H189 C184 0.930 . S
C190 O197 1.259 . S
C190 O198 1.258 . S
N191 Co182 2.057 . S
N191 C192 1.316 . S
N191 C193 1.375 . S
C192 N191 1.316 . S
C192 N194 1.347 1_556 S
C192 H203 0.931 . S
C193 N191 1.375 . S
C193 C195 1.350 . S
C193 H202 0.930 . S
N194 C192 1.347 1_554 S
N194 C195 1.373 1_554 S
C195 C193 1.350 . S
C195 N194 1.373 1_556 S
C195 H209 0.931 . S
C196 O199 1.256 . S
C196 O200 1.255 . S
O197 Co180 2.021 . S
O197 C190 1.259 . S
O198 Co182 2.117 . S
O198 C190 1.258 . S
O199 Co182 2.020 . S
O199 C196 1.256 . S
O200 Co180 2.062 . S
O200 C196 1.255 . S
O201 C181 1.259 . S
O201 Co182 2.021 . S
H202 C193 0.930 . S
H203 C192 0.931 . S
O204 Co180 2.117 . S
O204 C181 1.258 . S
O205 Co180 2.020 1_554 S
O205 C207 1.256 . S
O206 Co182 2.062 1_554 S
O206 C207 1.255 . S
C207 O205 1.256 . S
C207 O206 1.255 . S
H208 C187 0.931 . S
H209 C195 0.931 . S
Co210 N215 2.057 . S
Co210 O227 2.021 . S
Co210 O230 2.062 . S
Co210 O234 2.117 1_554 S
Co210 O235 2.020 1_554 S
C211 O231 1.259 . S
C211 O234 1.258 . S
Co212 N221 2.057 . S
Co212 O228 2.117 . S
Co212 O229 2.020 . S
Co212 O231 2.021 . S
Co212 O236 2.062 . S
C213 N215 1.316 . S
C213 N216 1.347 . S
C213 H218 0.931 . S
C214 N215 1.375 . S
C214 C217 1.350 . S
C214 H219 0.930 . S
N215 Co210 2.057 . S
N215 C213 1.316 . S
N215 C214 1.375 . S
N216 C213 1.347 . S
N216 C217 1.373 . S
C217 C214 1.350 . S
C217 N216 1.373 . S
C217 H238 0.931 . S
H218 C213 0.931 . S
H219 C214 0.930 . S
C220 O227 1.259 1_556 S
C220 O228 1.258 . S
N221 Co212 2.057 . S
N221 C222 1.316 . S
N221 C223 1.375 . S
C222 N221 1.316 . S
C222 N224 1.347 . S
C222 H233 0.931 . S
C223 N221 1.375 . S
C223 C225 1.350 . S
C223 H232 0.930 . S
N224 C222 1.347 . S
N224 C225 1.373 . S
C225 C223 1.350 . S
C225 N224 1.373 . S
C225 H239 0.931 . S
C226 O229 1.256 . S
C226 O230 1.255 1_556 S
O227 Co210 2.021 . S
O227 C220 1.259 1_554 S
O228 Co212 2.117 . S
O228 C220 1.258 . S
O229 Co212 2.020 . S
O229 C226 1.256 . S
O230 Co210 2.062 . S
O230 C226 1.255 1_554 S
O231 C211 1.259 . S
O231 Co212 2.021 . S
H232 C223 0.930 . S
H233 C222 0.931 . S
O234 Co210 2.117 1_556 S
O234 C211 1.258 . S
O235 Co210 2.020 1_556 S
O235 C237 1.256 . S
O236 Co212 2.062 . S
O236 C237 1.255 . S
C237 O235 1.256 . S
C237 O236 1.255 . S
H238 C217 0.931 . S
H239 C225 0.931 . S
C240 C241 1.387 . S
C240 H244 0.950 . S
C240 C249 1.390 . S
C241 C240 1.387 . S
C241 C243 1.387 . S
H242 C249 0.950 . S
C243 C241 1.387 . S
C243 C245 1.390 . S
C243 H247 0.950 . S
H244 C240 0.950 . S
C245 C243 1.390 . S
C245 C246 1.387 . S
C245 H248 0.950 . S
C246 C245 1.387 . S
C246 C249 1.387 . S
H247 C243 0.950 . S
H248 C245 0.950 . S
C249 C240 1.390 . S
C249 H242 0.950 . S
C249 C246 1.387 . S
C250 C251 1.387 . S
C250 H254 0.950 . S
C250 C259 1.390 . S
C251 C250 1.387 . S
C251 C253 1.387 . S
H252 C259 0.950 . S
C253 C251 1.387 . S
C253 C255 1.390 . S
C253 H257 0.950 . S
H254 C250 0.950 . S
C255 C253 1.390 . S
C255 C256 1.387 . S
C255 H258 0.950 . S
C256 C255 1.387 . S
C256 C259 1.387 . S
H257 C253 0.950 . S
H258 C255 0.950 . S
C259 C250 1.390 . S
C259 H252 0.950 . S
C259 C256 1.387 . S
C260 C261 1.387 . S
C260 H264 0.950 . S
C260 C269 1.390 . S
C261 C260 1.387 . S
C261 C263 1.387 . S
H262 C269 0.950 . S
C263 C261 1.387 . S
C263 C265 1.390 . S
C263 H267 0.950 . S
H264 C260 0.950 . S
C265 C263 1.390 . S
C265 C266 1.387 . S
C265 H268 0.950 . S
C266 C265 1.387 . S
C266 C269 1.387 . S
H267 C263 0.950 . S
H268 C265 0.950 . S
C269 C260 1.390 . S
C269 H262 0.950 . S
C269 C266 1.387 . S
C270 C271 1.387 . S
C270 H274 0.950 . S
C270 C279 1.390 . S
C271 C270 1.387 . S
C271 C273 1.387 . S
H272 C279 0.950 . S
C273 C271 1.387 . S
C273 C275 1.390 . S
C273 H277 0.950 . S
H274 C270 0.950 . S
C275 C273 1.390 . S
C275 C276 1.387 . S
C275 H278 0.950 . S
C276 C275 1.387 . S
C276 C279 1.387 . S
H277 C273 0.950 . S
H278 C275 0.950 . S
C279 C270 1.390 . S
C279 H272 0.950 . S
C279 C276 1.387 . S
C280 C281 1.387 . S
C280 H284 0.950 . S
C280 C289 1.390 1_565 S
C281 C280 1.387 . S
C281 C283 1.387 . S
H282 C289 0.950 . S
C283 C281 1.387 . S
C283 C285 1.390 1_565 S
C283 H287 0.950 . S
H284 C280 0.950 . S
C285 C283 1.390 1_545 S
C285 C286 1.387 . S
C285 H288 0.950 . S
C286 C285 1.387 . S
C286 C289 1.387 . S
H287 C283 0.950 . S
H288 C285 0.950 . S
C289 C280 1.390 1_545 S
C289 H282 0.950 . S
C289 C286 1.387 . S
C290 C291 1.387 . S
C290 H294 0.950 . S
C290 C299 1.390 . S
C291 C290 1.387 . S
C291 C293 1.387 . S
H292 C299 0.950 . S
C293 C291 1.387 . S
C293 C295 1.390 . S
C293 H297 0.950 . S
H294 C290 0.950 . S
C295 C293 1.390 . S
C295 C296 1.387 . S
C295 H298 0.950 . S
C296 C295 1.387 . S
C296 C299 1.387 . S
H297 C293 0.950 . S
H298 C295 0.950 . S
C299 C290 1.390 . S
C299 H292 0.950 . S
C299 C296 1.387 . S
C300 C301 1.387 . S
C300 H304 0.950 . S
C300 C309 1.390 1_565 S
C301 C300 1.387 . S
C301 C303 1.387 . S
H302 C309 0.950 . S
C303 C301 1.387 . S
C303 C305 1.390 1_565 S
C303 H307 0.950 . S
H304 C300 0.950 . S
C305 C303 1.390 1_545 S
C305 C306 1.387 . S
C305 H308 0.950 . S
C306 C305 1.387 . S
C306 C309 1.387 . S
H307 C303 0.950 . S
H308 C305 0.950 . S
C309 C300 1.390 1_545 S
C309 H302 0.950 . S
C309 C306 1.387 . S
C310 C311 1.387 . S
C310 H314 0.950 . S
C310 C319 1.390 . S
C311 C310 1.387 . S
C311 C313 1.387 . S
H312 C319 0.950 . S
C313 C311 1.387 . S
C313 C315 1.390 . S
C313 H317 0.950 . S
H314 C310 0.950 . S
C315 C313 1.390 . S
C315 C316 1.387 . S
C315 H318 0.950 . S
C316 C315 1.387 . S
C316 C319 1.387 . S
H317 C313 0.950 . S
H318 C315 0.950 . S
C319 C310 1.390 . S
C319 H312 0.950 . S
C319 C316 1.387 . S
C320 C321 1.387 . S
C320 H324 0.950 . S
C320 C329 1.390 . S
C321 C320 1.387 . S
C321 C323 1.387 1_554 S
H322 C329 0.950 . S
C323 C321 1.387 1_556 S
C323 C325 1.390 . S
C323 H327 0.950 . S
H324 C320 0.950 . S
C325 C323 1.390 . S
C325 C326 1.387 . S
C325 H328 0.950 . S
C326 C325 1.387 . S
C326 C329 1.387 1_556 S
H327 C323 0.950 . S
H328 C325 0.950 . S
C329 C320 1.390 . S
C329 H322 0.950 . S
C329 C326 1.387 1_554 S
C330 C331 1.387 . S
C330 H334 0.950 . S
C330 C339 1.390 1_565 S
C331 C330 1.387 . S
C331 C333 1.387 1_554 S
H332 C339 0.950 . S
C333 C331 1.387 1_556 S
C333 C335 1.376 1_565 S
C333 H337 0.950 . S
H334 C330 0.950 . S
C335 C333 1.376 1_545 S
C335 C336 1.401 . S
C335 H338 0.951 . S
C336 C335 1.401 . S
C336 C339 1.387 1_556 S
H337 C333 0.950 . S
H338 C335 0.951 . S
C339 C330 1.390 1_545 S
C339 H332 0.950 . S
C339 C336 1.387 1_554 S
C340 C341 1.387 . S
C340 H344 0.950 . S
C340 C349 1.390 . S
C341 C340 1.387 . S
C341 C343 1.387 1_556 S
H342 C349 0.950 . S
C343 C341 1.387 1_554 S
C343 C345 1.390 . S
C343 H347 0.950 . S
H344 C340 0.950 . S
C345 C343 1.390 . S
C345 C346 1.387 . S
C345 H348 0.950 . S
C346 C345 1.387 . S
C346 C349 1.387 1_554 S
H347 C343 0.950 . S
H348 C345 0.950 . S
C349 C340 1.390 . S
C349 H342 0.950 . S
C349 C346 1.387 1_556 S
C350 C351 1.387 . S
C350 H354 0.950 . S
C350 C359 1.390 1_545 S
C351 C350 1.387 . S
C351 C353 1.387 1_556 S
H352 C359 0.950 . S
C353 C351 1.387 1_554 S
C353 C355 1.390 1_545 S
C353 H357 0.950 . S
H354 C350 0.950 . S
C355 C353 1.390 1_565 S
C355 C356 1.387 . S
C355 H358 0.950 . S
C356 C355 1.387 . S
C356 C359 1.387 1_554 S
H357 C353 0.950 . S
H358 C355 0.950 . S
C359 C350 1.390 1_565 S
C359 H352 0.950 . S
C359 C356 1.387 1_556 S
C360 C361 1.387 . S
C360 H364 0.950 . S
C360 C369 1.390 . S
C361 C360 1.387 . S
C361 C363 1.387 . S
H362 C369 0.950 . S
C363 C361 1.387 . S
C363 C365 1.390 . S
C363 H367 0.950 . S
H364 C360 0.950 . S
C365 C363 1.390 . S
C365 C366 1.387 1_554 S
C365 H368 0.950 1_554 S
C366 C365 1.387 1_556 S
C366 C369 1.387 1_556 S
H367 C363 0.950 . S
H368 C365 0.950 1_556 S
C369 C360 1.390 . S
C369 H362 0.950 . S
C369 C366 1.387 1_554 S
C370 C371 1.387 . S
C370 H374 0.950 . S
C370 C379 1.390 1_554 S
C371 C370 1.387 . S
C371 C373 1.387 . S
H372 C379 0.950 . S
C373 C371 1.387 . S
C373 C375 1.390 1_554 S
C373 H377 0.950 . S
H374 C370 0.950 . S
C375 C373 1.390 1_556 S
C375 C376 1.387 . S
C375 H378 0.950 . S
C376 C375 1.387 . S
C376 C379 1.387 . S
H377 C373 0.950 . S
H378 C375 0.950 . S
C379 C370 1.390 1_556 S
C379 H372 0.950 . S
C379 C376 1.387 . S
C380 C381 1.387 . S
C380 H384 0.950 . S
C380 C389 1.390 1_554 S
C381 C380 1.387 . S
C381 C383 1.387 . S
H382 C389 0.950 . S
C383 C381 1.387 . S
C383 C385 1.390 1_554 S
C383 H387 0.950 . S
H384 C380 0.950 . S
C385 C383 1.390 1_556 S
C385 C386 1.387 . S
C385 H388 0.950 . S
C386 C385 1.387 . S
C386 C389 1.387 . S
H387 C383 0.950 . S
H388 C385 0.950 . S
C389 C380 1.390 1_556 S
C389 H382 0.950 . S
C389 C386 1.387 . S
C390 C391 1.387 . S
C390 H394 0.950 . S
C390 C399 1.390 . S
C391 C390 1.387 . S
C391 C393 1.387 . S
H392 C399 0.950 1_554 S
C393 C391 1.387 . S
C393 C395 1.390 . S
C393 H397 0.950 . S
H394 C390 0.950 . S
C395 C393 1.390 . S
C395 C396 1.387 1_556 S
C395 H398 0.950 1_556 S
C396 C395 1.387 1_554 S
C396 C399 1.387 1_554 S
H397 C393 0.950 . S
H398 C395 0.950 1_554 S
C399 C390 1.390 . S
C399 H392 0.950 1_556 S
C399 C396 1.387 1_556 S
C400 C401 1.387 . S
C400 H404 0.950 . S
C400 C409 1.390 . S
C401 C400 1.387 . S
C401 C403 1.387 . S
H402 C409 0.950 . S
C403 C401 1.387 . S
C403 C405 1.390 . S
C403 H407 0.950 . S
H404 C400 0.950 . S
C405 C403 1.390 . S
C405 C406 1.387 . S
C405 H408 0.950 . S
C406 C405 1.387 . S
C406 C409 1.387 . S
H407 C403 0.950 . S
H408 C405 0.950 . S
C409 C400 1.390 . S
C409 H402 0.950 . S
C409 C406 1.387 . S
C410 C411 1.387 . S
C410 H414 0.950 . S
C410 C419 1.390 . S
C411 C410 1.387 . S
C411 C413 1.387 . S
H412 C419 0.950 . S
C413 C411 1.387 . S
C413 C415 1.390 . S
C413 H417 0.950 . S
H414 C410 0.950 . S
C415 C413 1.390 . S
C415 C416 1.387 . S
C415 H418 0.950 . S
C416 C415 1.387 . S
C416 C419 1.387 . S
H417 C413 0.950 . S
H418 C415 0.950 . S
C419 C410 1.390 . S
C419 H412 0.950 . S
C419 C416 1.387 . S
C420 C421 1.387 . S
C420 H424 0.950 . S
C420 C429 1.390 . S
C421 C420 1.387 . S
C421 C423 1.387 . S
H422 C429 0.950 . S
C423 C421 1.387 . S
C423 C425 1.390 . S
C423 H427 0.950 . S
H424 C420 0.950 . S
C425 C423 1.390 . S
C425 C426 1.387 . S
C425 H428 0.950 . S
C426 C425 1.387 . S
C426 C429 1.387 . S
H427 C423 0.950 . S
H428 C425 0.950 . S
C429 C420 1.390 . S
C429 H422 0.950 . S
C429 C426 1.387 . S
C430 C431 1.387 . S
C430 H434 0.950 . S
C430 C439 1.390 . S
C431 C430 1.387 . S
C431 C433 1.387 . S
H432 C439 0.950 . S
C433 C431 1.387 . S
C433 C435 1.390 . S
C433 H437 0.950 . S
H434 C430 0.950 . S
C435 C433 1.390 . S
C435 C436 1.387 . S
C435 H438 0.950 . S
C436 C435 1.387 . S
C436 C439 1.387 . S
H437 C433 0.950 . S
H438 C435 0.950 . S
C439 C430 1.390 . S
C439 H432 0.950 . S
C439 C436 1.387 . S
C440 C441 1.387 . S
C440 H444 0.950 . S
C440 C449 1.390 . S
C441 C440 1.387 . S
C441 C443 1.387 . S
H442 C449 0.950 . S
C443 C441 1.387 . S
C443 C445 1.390 . S
C443 H447 0.950 . S
H444 C440 0.950 . S
C445 C443 1.390 . S
C445 C446 1.387 . S
C445 H448 0.950 . S
C446 C445 1.387 . S
C446 C449 1.387 . S
H447 C443 0.950 . S
H448 C445 0.950 . S
C449 C440 1.390 . S
C449 H442 0.950 . S
C449 C446 1.387 . S
C450 C451 1.387 . S
C450 H454 0.950 . S
C450 C459 1.390 . S
C451 C450 1.387 . S
C451 C453 1.387 . S
H452 C459 0.950 . S
C453 C451 1.387 . S
C453 C455 1.390 . S
C453 H457 0.950 . S
H454 C450 0.950 . S
C455 C453 1.390 . S
C455 C456 1.387 . S
C455 H458 0.950 . S
C456 C455 1.387 . S
C456 C459 1.387 . S
H457 C453 0.950 . S
H458 C455 0.950 . S
C459 C450 1.390 . S
C459 H452 0.950 . S
C459 C456 1.387 . S
C460 C461 1.387 . S
C460 H464 0.950 . S
C460 C469 1.390 1_554 S
C461 C460 1.387 . S
C461 C463 1.387 . S
H462 C469 0.950 . S
C463 C461 1.387 . S
C463 C465 1.390 1_554 S
C463 H467 0.950 . S
H464 C460 0.950 . S
C465 C463 1.390 1_556 S
C465 C466 1.388 . S
C465 H468 0.950 . S
C466 C465 1.388 . S
C466 C469 1.387 . S
H467 C463 0.950 . S
H468 C465 0.950 . S
C469 C460 1.390 1_556 S
C469 H462 0.950 . S
C469 C466 1.387 . S
C470 C471 1.387 1_554 S
C470 H474 0.950 . S
C470 C479 1.390 . S
C471 C470 1.387 1_556 S
C471 C473 1.387 . S
H472 C479 0.950 . S
C473 C471 1.387 . S
C473 C475 1.390 . S
C473 H477 0.950 . S
H474 C470 0.950 . S
C475 C473 1.390 . S
C475 C476 1.387 1_556 S
C475 H478 0.950 . S
C476 C475 1.387 1_554 S
C476 C479 1.387 . S
H477 C473 0.950 . S
H478 C475 0.950 . S
C479 C470 1.390 . S
C479 H472 0.950 . S
C479 C476 1.387 . S
C241 C16 2.367 . S
C246 C237 2.367 . S
C251 N186 1.600 . S
C256 N44 1.600 . S
C261 N164 1.600 . S
C266 N66 1.600 . S
C271 C136 2.369 . S
C276 C117 2.369 . S
C281 C61 1.682 . S
C286 C10 1.658 . S
C291 C31 1.667 . S
C296 C100 1.694 . S
C301 C91 1.659 . S
C306 C40 1.681 . S
C311 C70 1.668 . S
C316 C1 1.695 . S
C321 C130 1.660 . S
C326 C181 1.682 . S
C331 C151 1.666 . S
C336 C220 1.694 . S
C341 C211 1.658 . S
C346 C160 1.682 . S
C351 C190 1.667 . S
C356 C121 1.695 . S
C361 N14 0.499 . S
C366 N6 0.499 . S
C371 C46 2.862 . S
C376 C57 2.862 . S
C381 C76 2.862 . S
C386 C87 2.862 . S
C391 N96 0.500 . S
C396 N104 0.500 . S
C401 N126 0.499 . S
C406 N134 0.499 . S
C411 C166 2.862 . S
C416 C177 2.862 . S
C421 C207 2.862 . S
C426 C196 2.862 . S
C431 N216 0.506 . S
C436 N224 0.506 . S
C441 C27 1.634 . S
C446 N36 1.549 1_455 S
C451 C106 1.634 . S
C456 N74 1.552 1_655 S
C461 C147 1.634 . S
C466 N156 1.550 . S
C471 C226 1.634 . S
C476 N194 1.552 . S
