# Generated by pormake.
# Topology uoc, (4)-cn, num edge types: 1
# Building blocks:
#     Node 0, Type 0, BuildingBlock: KUFVIS_clean_sbu_0, # of connection points: 4
#     Node 1, Type 0, BuildingBlock: KUFVIS_clean_sbu_0, # of connection points: 4
#     Node 2, Type 0, BuildingBlock: KUFVIS_clean_sbu_0, # of connection points: 4
#     Node 3, Type 0, BuildingBlock: KUFVIS_clean_sbu_0, # of connection points: 4
#     Node 4, Type 0, BuildingBlock: KUFVIS_clean_sbu_0, # of connection points: 4
#     Node 5, Type 0, BuildingBlock: KUFVIS_clean_sbu_0, # of connection points: 4
#     Node 6, Type 0, BuildingBlock: KUFVIS_clean_sbu_0, # of connection points: 4
#     Node 7, Type 0, BuildingBlock: KUFVIS_clean_sbu_0, # of connection points: 4
#     Edge 8, Type (0, 0), None
#     Edge 9, Type (0, 0), None
#     Edge 10, Type (0, 0), None
#     Edge 11, Type (0, 0), None
#     Edge 12, Type (0, 0), None
#     Edge 13, Type (0, 0), None
#     Edge 14, Type (0, 0), None
#     Edge 15, Type (0, 0), None
#     Edge 16, Type (0, 0), None
#     Edge 17, Type (0, 0), None
#     Edge 18, Type (0, 0), None
#     Edge 19, Type (0, 0), None
#     Edge 20, Type (0, 0), None
#     Edge 21, Type (0, 0), None
#     Edge 22, Type (0, 0), None
#     Edge 23, Type (0, 0), None
# Relax obj value: 0.115
# Max RMSD: 0.127
# Mean RMSD: 0.123
data_MOF--net-uoc--node1-KUFVIS_clean_sbu_0--edge1-none
_symmetry_space_group_name_H-M    P1
_symmetry_Int_Tables_number       1
_symmetry_cell_setting            triclinic
loop_
_symmetry_equiv_pos_as_xyz
'x, y, z'
_cell_length_a     12.960834
_cell_length_b     12.960895
_cell_length_c     23.702484
_cell_angle_alpha  91.685168
_cell_angle_beta   91.685193
_cell_angle_gamma 93.910244
loop_
_atom_site_label
_atom_site_type_symbol
_atom_site_fract_x
_atom_site_fract_y
_atom_site_fract_z
_atom_type_partial_charge
Mn0 Mn 0.08345 0.28551 0.11748 0.0
Mn1 Mn 0.26201 0.10869 0.13829 0.0
C2 C 0.16078 0.26767 0.21152 0.0
C3 C 0.00135 0.44886 0.10062 0.0
C4 C 0.0348 0.0486 0.12139 0.0
O5 O 0.13856 0.26728 0.03442 0.0
O6 O 0.25427 0.15581 0.05827 0.0
C7 C 0.45259 0.12084 0.09467 0.0
N8 N 0.4122 0.12146 0.16138 0.0
C9 C 0.64746 0.08392 0.19146 0.0
C10 C 0.66541 0.08678 0.12531 0.0
C11 C 0.57313 0.10191 0.08022 0.0
C12 C 0.51002 0.09823 0.22059 0.0
H13 H 0.40511 0.10694 0.05802 0.0
C14 C 0.21436 0.21223 0.02135 0.0
O15 O 0.95753 0.35781 0.09096 0.0
O16 O 0.09772 0.44799 0.11751 0.0
N17 N 0.27641 0.06742 0.20339 0.0
C18 C 0.20647 -0.0092 0.24865 0.0
C19 C 0.26349 0.92548 0.31286 0.0
C20 C 0.48958 0.97395 0.32516 0.0
C21 C 0.53556 0.06591 0.26588 0.0
C22 C 0.40912 0.11079 0.19443 0.0
H23 H 0.12597 0.97034 0.23775 0.0
O24 O 0.06722 0.29355 0.20111 0.0
O25 O 0.21108 0.24587 0.16574 0.0
O26 O 0.00193 0.13772 0.11411 0.0
O27 O 0.1289 0.03746 0.12922 0.0
C28 C 0.65177 0.0687 0.27998 0.0
C29 C 0.715 0.07602 0.23431 0.0
H30 H 0.74185 0.07655 0.11004 0.0
H31 H 0.59118 0.08766 0.0366 0.0
H32 H 0.21784 0.86109 0.32992 0.0
H33 H 0.54608 0.94277 0.35409 0.0
H34 H 0.66881 0.05269 0.32222 0.0
H35 H 0.79774 0.071 0.23217 0.0
Mn36 Mn 0.7032 0.58479 0.37346 0.0
Mn37 Mn 0.89715 0.77585 0.387 0.0
C38 C 0.72698 0.66997 0.46183 0.0
C39 C 0.53181 0.50803 0.35722 0.0
C40 C 0.93724 0.54391 0.37818 0.0
O41 O 0.72335 0.62356 0.29109 0.0
O42 O 0.84687 0.75667 0.3021 0.0
C43 C 0.82984 0.00078 0.34572 0.0
N44 N 0.87537 0.92551 0.39155 0.0
C45 C 0.93809 0.15668 0.4695 0.0
C46 C 0.87983 0.21748 0.41289 0.0
C47 C 0.82862 0.14209 0.35367 0.0
C48 C 0.93058 0.96042 0.45 0.0
H49 H 0.8069 0.9629 0.3059 0.0
C50 C 0.78351 0.69406 0.27035 0.0
O51 O 0.61474 0.45967 0.35051 0.0
O52 O 0.54664 0.60624 0.36972 0.0
N53 N 0.94334 0.7909 0.46615 0.0
C54 C 0.03041 0.75402 0.48812 0.0
C55 C 0.07095 0.79585 0.5403 0.0
C56 C 0.00825 0.85315 0.57563 0.0
C57 C 0.91982 0.89584 0.55431 0.0
C58 C 0.91762 0.87945 0.49074 0.0
H59 H 0.07497 0.70325 0.46314 0.0
O60 O 0.6926 0.5742 0.45478 0.0
O61 O 0.75643 0.71836 0.41526 0.0
O62 O 0.8431 0.50791 0.3748 0.0
O63 O 0.95846 0.64056 0.38255 0.0
C64 C 0.90106 0.00068 0.58593 0.0
C65 C 0.92098 0.17734 0.53689 0.0
H66 H 0.86681 0.29888 0.41627 0.0
H67 H 0.80183 0.18722 0.31945 0.0
H68 H 0.14906 0.78165 0.55375 0.0
H69 H 0.04264 0.88752 0.6145 0.0
H70 H 0.88974 0.98359 0.63072 0.0
H71 H 0.91176 0.25694 0.55163 0.0
Mn72 Mn 0.39471 0.2763 0.60265 0.0
Mn73 Mn 0.20366 0.08235 0.58911 0.0
C74 C 0.30954 0.25252 0.51428 0.0
C75 C 0.47148 0.44769 0.61889 0.0
C76 C 0.4356 0.04227 0.59793 0.0
O77 O 0.35595 0.25615 0.68502 0.0
O78 O 0.22284 0.13263 0.67401 0.0
C79 C 0.97873 0.14965 0.6304 0.0
N80 N 0.054 0.10413 0.58457 0.0
C81 C 0.82283 0.04141 0.50662 0.0
C82 C 0.76203 0.09967 0.56323 0.0
C83 C 0.83742 0.15087 0.62245 0.0
C84 C 0.01908 0.04893 0.52612 0.0
H85 H 0.01661 0.1726 0.67022 0.0
C86 C 0.28545 0.19599 0.70576 0.0
O87 O 0.51984 0.36476 0.6256 0.0
O88 O 0.37327 0.43286 0.60639 0.0
N89 N 0.1886 0.03616 0.50996 0.0
C90 C 0.22548 0.9491 0.48799 0.0
C91 C 0.18365 0.90856 0.43581 0.0
C92 C 0.12636 0.97126 0.40048 0.0
C93 C 0.08366 0.05969 0.4218 0.0
C94 C 0.10005 0.06189 0.48538 0.0
H95 H 0.27625 0.90454 0.51297 0.0
O96 O 0.4053 0.2869 0.52133 0.0
O97 O 0.26115 0.22308 0.56085 0.0
O98 O 0.4716 0.13641 0.60131 0.0
O99 O 0.33895 0.02104 0.59356 0.0
C100 C 0.97881 0.07845 0.39019 0.0
C101 C 0.80216 0.05852 0.43923 0.0
H102 H 0.68062 0.11268 0.55985 0.0
H103 H 0.79229 0.17766 0.65668 0.0
H104 H 0.19785 0.83045 0.42236 0.0
H105 H 0.09198 0.93688 0.36161 0.0
H106 H -0.0041 0.08978 0.3454 0.0
H107 H 0.72256 0.06774 0.42449 0.0
Mn108 Mn 0.694 0.89606 0.85863 0.0
Mn109 Mn 0.87082 0.7175 0.83782 0.0
C110 C 0.71184 0.81872 0.76459 0.0
C111 C 0.53065 0.97816 0.8755 0.0
C112 C 0.93091 0.94471 0.85472 0.0
O113 O 0.71223 0.84095 0.94169 0.0
O114 O 0.8237 0.72523 0.91784 0.0
C115 C 0.85867 0.52692 0.88144 0.0
N116 N 0.85806 0.5673 0.81474 0.0
C117 C 0.8956 0.33204 0.78465 0.0
C118 C 0.89274 0.3141 0.85081 0.0
C119 C 0.87761 0.40638 0.8959 0.0
C120 C 0.88128 0.46949 0.75552 0.0
H121 H 0.87258 0.5744 0.91809 0.0
C122 C 0.76728 0.76514 0.95476 0.0
O123 O 0.6217 0.02198 0.88515 0.0
O124 O 0.53152 0.88179 0.8586 0.0
N125 N 0.9121 0.7031 0.77273 0.0
C126 C 0.98871 0.77303 0.72746 0.0
C127 C 0.05404 0.71601 0.66325 0.0
C128 C 0.00556 0.48992 0.65095 0.0
C129 C 0.9136 0.44394 0.71023 0.0
C130 C 0.86873 0.57038 0.78168 0.0
H131 H 0.00917 0.85353 0.73836 0.0
O132 O 0.68596 0.91229 0.775 0.0
O133 O 0.73364 0.76843 0.81038 0.0
O134 O 0.8418 0.97757 0.862 0.0
O135 O 0.94206 0.85061 0.84689 0.0
C136 C 0.91081 0.32774 0.69613 0.0
C137 C 0.90349 0.2645 0.7418 0.0
H138 H 0.90297 0.23766 0.86608 0.0
H139 H 0.89186 0.38833 0.93951 0.0
H140 H 0.11842 0.76165 0.64619 0.0
H141 H 0.03673 0.43342 0.62202 0.0
H142 H 0.92682 0.31069 0.65389 0.0
H143 H 0.90851 0.18177 0.74395 0.0
Mn144 Mn 0.58345 0.78552 0.61748 0.0
Mn145 Mn 0.76206 0.6087 0.63827 0.0
C146 C 0.66082 0.76776 0.71147 0.0
C147 C 0.50134 0.94886 0.60062 0.0
C148 C 0.53483 0.54861 0.62138 0.0
O149 O 0.63852 0.76724 0.53441 0.0
O150 O 0.75438 0.65585 0.55825 0.0
C151 C 0.95264 0.62082 0.59466 0.0
N152 N 0.91225 0.62146 0.66136 0.0
C153 C 0.14751 0.58394 0.69147 0.0
C154 C 0.16547 0.58679 0.62531 0.0
C155 C 0.07319 0.6019 0.58021 0.0
C156 C 0.01005 0.59825 0.72058 0.0
H157 H 0.90517 0.60685 0.55801 0.0
C158 C 0.71439 0.71227 0.52136 0.0
O159 O 0.45752 0.85781 0.59097 0.0
O160 O 0.59773 0.94799 0.61748 0.0
N161 N 0.77644 0.56742 0.70336 0.0
C162 C 0.7065 0.4908 0.74863 0.0
C163 C 0.76351 0.42551 0.81285 0.0
C164 C -0.0104 0.474 0.82516 0.0
C165 C 0.03559 0.56595 0.76588 0.0
C166 C 0.90916 0.61079 0.69442 0.0
H167 H 0.626 0.47034 0.73772 0.0
O168 O 0.56722 0.79361 0.70111 0.0
O169 O 0.71114 0.74589 0.6657 0.0
O170 O 0.50195 0.63773 0.61415 0.0
O171 O 0.62895 0.53747 0.62917 0.0
C172 C 0.15179 0.56874 0.77999 0.0
C173 C 0.21503 0.57606 0.73432 0.0
H174 H 0.24191 0.57657 0.61005 0.0
H175 H 0.09125 0.58765 0.5366 0.0
H176 H 0.71787 0.36112 0.82992 0.0
H177 H 0.04609 0.44284 0.8541 0.0
H178 H 0.16883 0.55274 0.82223 0.0
H179 H 0.29777 0.57104 0.73218 0.0
Mn180 Mn 0.20322 0.08481 0.87345 0.0
Mn181 Mn 0.39717 0.27584 0.88699 0.0
C182 C 0.22699 0.16995 0.96182 0.0
C183 C 0.03183 0.00805 0.85723 0.0
C184 C 0.43725 0.04391 0.87817 0.0
O185 O 0.22335 0.12359 0.79108 0.0
O186 O 0.3469 0.25667 0.80209 0.0
C187 C 0.32987 0.50079 0.84571 0.0
N188 N 0.37539 0.42551 0.89154 0.0
C189 C 0.43811 0.65667 0.96949 0.0
C190 C 0.37986 0.71748 0.91288 0.0
C191 C 0.32866 0.6421 0.85366 0.0
C192 C 0.43059 0.46042 0.94999 0.0
H193 H 0.30692 0.46291 0.80589 0.0
C194 C 0.28353 0.19408 0.77034 0.0
O195 O 0.11476 0.95969 0.85049 0.0
O196 O 0.04666 0.10626 0.86973 0.0
N197 N 0.44336 0.2909 0.96615 0.0
C198 C 0.53042 0.25403 -0.01188 0.0
C199 C 0.57095 0.29585 0.0403 0.0
C200 C 0.50824 0.35314 0.07563 0.0
C201 C 0.41981 0.39584 0.05431 0.0
C202 C 0.41762 0.37945 -0.00927 0.0
H203 H 0.57499 0.20326 0.96314 0.0
O204 O 0.19265 0.07418 0.95477 0.0
O205 O 0.25645 0.21836 0.91526 0.0
O206 O 0.34311 0.00791 0.87477 0.0
O207 O 0.45848 0.14056 0.88255 0.0
C208 C 0.40105 0.50068 0.08592 0.0
C209 C 0.42099 0.67733 0.03688 0.0
H210 H 0.36685 0.79888 0.91626 0.0
H211 H 0.30189 0.68723 0.81944 0.0
H212 H 0.64905 0.28165 0.05376 0.0
H213 H 0.54261 0.38751 0.1145 0.0
H214 H 0.38972 0.48358 0.13071 0.0
H215 H 0.41176 0.75693 0.05162 0.0
Mn216 Mn 0.8947 0.77629 0.10266 0.0
Mn217 Mn 0.70366 0.58234 0.08912 0.0
C218 C 0.80955 0.75251 0.01429 0.0
C219 C 0.97145 0.94768 0.11888 0.0
C220 C 0.93559 0.54226 0.09795 0.0
O221 O 0.85591 0.75616 0.18503 0.0
O222 O 0.72283 0.63261 0.17402 0.0
C223 C 0.47872 0.64965 0.13039 0.0
N224 N 0.554 0.60412 0.08457 0.0
C225 C 0.32283 0.54141 0.00661 0.0
C226 C 0.26202 0.59967 0.06322 0.0
C227 C 0.33741 0.65087 0.12244 0.0
C228 C 0.51909 0.54892 0.02612 0.0
H229 H 0.51659 0.6726 0.17022 0.0
C230 C 0.78542 0.69599 0.20577 0.0
O231 O 0.01982 0.86476 0.12562 0.0
O232 O 0.87324 0.93285 0.10639 0.0
N233 N 0.68861 0.53615 0.00997 0.0
C234 C 0.72549 0.44908 0.988 0.0
C235 C 0.68367 0.40855 0.93581 0.0
C236 C 0.62638 0.47125 0.90049 0.0
C237 C 0.58368 0.55968 0.9218 0.0
C238 C 0.60006 0.56188 0.98538 0.0
H239 H 0.77626 0.40452 0.01298 0.0
O240 O 0.90533 0.78686 0.02135 0.0
O241 O 0.76115 0.72306 0.06085 0.0
O242 O 0.97159 0.6364 0.10134 0.0
O243 O 0.83895 0.52103 0.09356 0.0
C244 C 0.47884 0.57844 0.89019 0.0
C245 C 0.30218 0.55852 0.93922 0.0
H246 H 0.18062 0.61268 0.05983 0.0
H247 H 0.29227 0.67765 0.15666 0.0
H248 H 0.69787 0.33044 0.92236 0.0
H249 H 0.59201 0.43687 0.86162 0.0
H250 H 0.49594 0.58977 0.84539 0.0
H251 H 0.22259 0.56775 0.92448 0.0
Mn252 Mn 0.19399 0.39606 0.35863 0.0
Mn253 Mn 0.3708 0.21745 0.33784 0.0
C254 C 0.21175 0.31869 0.26464 0.0
C255 C 0.03064 0.47817 0.37549 0.0
C256 C 0.43089 0.44467 0.35473 0.0
O257 O 0.21227 0.34099 0.4417 0.0
O258 O 0.32365 0.22512 0.41786 0.0
C259 C 0.35868 0.02686 0.38145 0.0
N260 N 0.35805 0.06726 0.31475 0.0
C261 C 0.39556 0.83201 0.28464 0.0
C262 C 0.39271 0.81404 0.3508 0.0
C263 C 0.3776 0.90632 0.3959 0.0
C264 C 0.38125 0.96946 0.25553 0.0
H265 H 0.37265 0.07434 0.4181 0.0
C266 C 0.26724 0.26512 0.45475 0.0
O267 O 0.1217 0.52199 0.38514 0.0
O268 O 0.03151 0.38178 0.35863 0.0
N269 N 0.41209 0.20307 0.27275 0.0
C270 C 0.4887 0.27301 0.22749 0.0
C271 C 0.554 0.21601 0.16326 0.0
C272 C 0.5055 0.98992 0.15095 0.0
C273 C 0.41355 0.94393 0.21023 0.0
C274 C 0.36871 0.07036 0.28169 0.0
H275 H 0.50916 0.35351 0.23839 0.0
O276 O 0.18589 0.41229 0.275 0.0
O277 O 0.23361 0.26837 0.31041 0.0
O278 O 0.34178 0.47756 0.36197 0.0
O279 O 0.44204 0.35056 0.34694 0.0
C280 C 0.41076 0.82773 0.19612 0.0
C281 C 0.40344 0.76448 0.24178 0.0
H282 H 0.40293 0.7376 0.36606 0.0
H283 H 0.39185 0.88825 0.43951 0.0
H284 H 0.61838 0.26165 0.1462 0.0
H285 H 0.53666 0.93342 0.12201 0.0
H286 H 0.42677 0.81068 0.15388 0.0
H287 H 0.40845 0.68174 0.24392 0.0
loop_
_geom_bond_atom_site_label_1
_geom_bond_atom_site_label_2
_geom_bond_distance
_geom_bond_site_symmetry_2
_ccdc_geom_bond_type
Mn0 O5 2.095 . S
Mn0 O15 2.162 1_455 S
Mn0 O16 2.297 . S
Mn0 O24 2.385 . S
Mn0 O25 2.209 . S
Mn0 O26 2.094 . S
Mn1 O6 2.121 . S
Mn1 N8 2.257 . S
Mn1 N17 2.282 . S
Mn1 O25 2.215 . S
Mn1 O27 2.117 . S
C2 O24 1.234 . S
C2 O25 1.283 . S
C3 O15 1.281 1_455 S
C3 O16 1.236 . S
C4 O26 1.240 . S
C4 O27 1.264 . S
O5 Mn0 2.095 . S
O5 C14 1.250 . S
O6 Mn1 2.121 . S
O6 C14 1.258 . S
C7 N8 1.326 . S
C7 C11 1.460 . S
C7 H13 0.929 . S
N8 Mn1 2.257 . S
N8 C7 1.326 . S
N8 C12 1.362 . S
C9 C10 1.258 . S
C9 C12 1.431 . S
C9 C29 1.449 . S
C10 C9 1.258 . S
C10 C11 1.477 . S
C10 H30 0.931 . S
C11 C7 1.460 . S
C11 C10 1.477 . S
C11 H31 0.930 . S
C12 N8 1.362 . S
C12 C9 1.431 . S
C12 C22 1.476 . S
H13 C7 0.929 . S
C14 O5 1.250 . S
C14 O6 1.258 . S
O15 Mn0 2.162 1_655 S
O15 C3 1.281 1_655 S
O16 Mn0 2.297 . S
O16 C3 1.236 . S
N17 Mn1 2.282 . S
N17 C18 1.328 1_545 S
N17 C22 1.318 . S
C18 N17 1.328 1_565 S
C18 C19 1.456 . S
C18 H23 0.929 . S
C19 C18 1.456 . S
C19 C20 1.291 . S
C19 H32 0.931 . S
C20 C19 1.291 . S
C20 C21 1.373 1_565 S
C20 H33 0.929 . S
C21 C20 1.373 1_545 S
C21 C22 1.396 . S
C21 C28 1.403 . S
C22 C12 1.476 . S
C22 N17 1.318 . S
C22 C21 1.396 . S
H23 C18 0.929 . S
O24 Mn0 2.385 . S
O24 C2 1.234 . S
O25 Mn0 2.209 . S
O25 Mn1 2.215 . S
O25 C2 1.283 . S
O26 Mn0 2.094 . S
O26 C4 1.240 . S
O27 Mn1 2.117 . S
O27 C4 1.264 . S
C28 C21 1.403 . S
C28 C29 1.399 . S
C28 H34 0.929 . S
C29 C9 1.449 . S
C29 C28 1.399 . S
C29 H35 0.930 . S
H30 C10 0.931 . S
H31 C11 0.930 . S
H32 C19 0.931 . S
H33 C20 0.929 . S
H34 C28 0.929 . S
H35 C29 0.930 . S
Mn36 O41 2.095 . S
Mn36 O51 2.162 . S
Mn36 O52 2.297 . S
Mn36 O60 2.385 . S
Mn36 O61 2.209 . S
Mn36 O62 2.094 . S
Mn37 O42 2.121 . S
Mn37 N44 2.257 . S
Mn37 N53 2.282 . S
Mn37 O61 2.215 . S
Mn37 O63 2.117 . S
C38 O60 1.234 . S
C38 O61 1.283 . S
C39 O51 1.281 . S
C39 O52 1.236 . S
C40 O62 1.240 . S
C40 O63 1.264 . S
O41 Mn36 2.095 . S
O41 C50 1.250 . S
O42 Mn37 2.121 . S
O42 C50 1.258 . S
C43 N44 1.326 1_545 S
C43 C47 1.460 . S
C43 H49 0.929 . S
N44 Mn37 2.257 . S
N44 C43 1.326 1_565 S
N44 C48 1.362 1_565 S
C45 C46 1.258 . S
C45 C48 1.431 . S
C45 C65 1.449 . S
C46 C45 1.258 . S
C46 C47 1.477 . S
C46 H66 0.931 . S
C47 C43 1.460 . S
C47 C46 1.477 . S
C47 H67 0.930 . S
C48 N44 1.362 1_545 S
C48 C45 1.431 . S
C48 C58 1.476 1_545 S
H49 C43 0.929 . S
C50 O41 1.250 . S
C50 O42 1.258 . S
O51 Mn36 2.162 . S
O51 C39 1.281 . S
O52 Mn36 2.297 . S
O52 C39 1.236 . S
N53 Mn37 2.282 . S
N53 C54 1.328 1_655 S
N53 C58 1.318 . S
C54 N53 1.328 1_455 S
C54 C55 1.457 . S
C54 H59 0.929 . S
C55 C54 1.457 . S
C55 C56 1.291 . S
C55 H68 0.931 . S
C56 C55 1.291 . S
C56 C57 1.373 1_455 S
C56 H69 0.929 . S
C57 C56 1.373 1_655 S
C57 C58 1.396 . S
C57 C64 1.403 1_565 S
C58 C48 1.476 1_565 S
C58 N53 1.318 . S
C58 C57 1.396 . S
H59 C54 0.929 . S
O60 Mn36 2.385 . S
O60 C38 1.234 . S
O61 Mn36 2.209 . S
O61 Mn37 2.215 . S
O61 C38 1.283 . S
O62 Mn36 2.094 . S
O62 C40 1.240 . S
O63 Mn37 2.117 . S
O63 C40 1.264 . S
C64 C57 1.403 1_545 S
C64 C65 1.399 . S
C64 H70 0.929 1_655 S
C65 C45 1.449 . S
C65 C64 1.399 . S
C65 H71 0.930 . S
H66 C46 0.931 . S
H67 C47 0.930 . S
H68 C55 0.931 . S
H69 C56 0.929 . S
H70 C64 0.929 1_455 S
H71 C65 0.930 . S
Mn72 O77 2.095 . S
Mn72 O87 2.162 . S
Mn72 O88 2.297 . S
Mn72 O96 2.385 . S
Mn72 O97 2.209 . S
Mn72 O98 2.094 . S
Mn73 O78 2.121 . S
Mn73 N80 2.257 . S
Mn73 N89 2.282 . S
Mn73 O97 2.215 . S
Mn73 O99 2.117 . S
C74 O96 1.234 . S
C74 O97 1.283 . S
C75 O87 1.281 . S
C75 O88 1.236 . S
C76 O98 1.240 . S
C76 O99 1.264 . S
O77 Mn72 2.095 . S
O77 C86 1.250 . S
O78 Mn73 2.121 . S
O78 C86 1.258 . S
C79 N80 1.326 1_655 S
C79 C83 1.460 . S
C79 H85 0.929 . S
N80 Mn73 2.257 . S
N80 C79 1.326 1_455 S
N80 C84 1.362 1_455 S
C81 C82 1.258 . S
C81 C84 1.431 . S
C81 C101 1.449 . S
C82 C81 1.258 . S
C82 C83 1.477 . S
C82 H102 0.931 . S
C83 C79 1.460 . S
C83 C82 1.477 . S
C83 H103 0.930 . S
C84 N80 1.362 1_655 S
C84 C81 1.431 . S
C84 C94 1.476 1_655 S
H85 C79 0.929 . S
C86 O77 1.250 . S
C86 O78 1.258 . S
O87 Mn72 2.162 . S
O87 C75 1.281 . S
O88 Mn72 2.297 . S
O88 C75 1.236 . S
N89 Mn73 2.282 . S
N89 C90 1.328 1_545 S
N89 C94 1.318 . S
C90 N89 1.328 1_565 S
C90 C91 1.457 . S
C90 H95 0.929 . S
C91 C90 1.457 . S
C91 C92 1.291 . S
C91 H104 0.931 . S
C92 C91 1.291 . S
C92 C93 1.373 1_565 S
C92 H105 0.929 . S
C93 C92 1.373 1_545 S
C93 C94 1.396 . S
C93 C100 1.403 1_455 S
C94 C84 1.476 1_455 S
C94 N89 1.318 . S
C94 C93 1.396 . S
H95 C90 0.929 . S
O96 Mn72 2.385 . S
O96 C74 1.234 . S
O97 Mn72 2.209 . S
O97 Mn73 2.215 . S
O97 C74 1.283 . S
O98 Mn72 2.094 . S
O98 C76 1.240 . S
O99 Mn73 2.117 . S
O99 C76 1.264 . S
C100 C93 1.403 1_655 S
C100 C101 1.399 . S
C100 H106 0.929 1_545 S
C101 C81 1.449 . S
C101 C100 1.399 . S
C101 H107 0.930 . S
H102 C82 0.931 . S
H103 C83 0.930 . S
H104 C91 0.931 . S
H105 C92 0.929 . S
H106 C100 0.929 1_565 S
H107 C101 0.930 . S
Mn108 O113 2.095 . S
Mn108 O123 2.162 1_565 S
Mn108 O124 2.297 . S
Mn108 O132 2.385 . S
Mn108 O133 2.209 . S
Mn108 O134 2.094 . S
Mn109 O114 2.121 . S
Mn109 N116 2.257 . S
Mn109 N125 2.282 . S
Mn109 O133 2.215 . S
Mn109 O135 2.117 . S
C110 O132 1.234 . S
C110 O133 1.283 . S
C111 O123 1.281 1_565 S
C111 O124 1.236 . S
C112 O134 1.240 . S
C112 O135 1.264 . S
O113 Mn108 2.095 . S
O113 C122 1.250 . S
O114 Mn109 2.121 . S
O114 C122 1.258 . S
C115 N116 1.326 . S
C115 C119 1.460 . S
C115 H121 0.929 . S
N116 Mn109 2.257 . S
N116 C115 1.326 . S
N116 C120 1.362 . S
C117 C118 1.258 . S
C117 C120 1.431 . S
C117 C137 1.449 . S
C118 C117 1.258 . S
C118 C119 1.477 . S
C118 H138 0.931 . S
C119 C115 1.460 . S
C119 C118 1.477 . S
C119 H139 0.930 . S
C120 N116 1.362 . S
C120 C117 1.431 . S
C120 C130 1.476 . S
H121 C115 0.929 . S
C122 O113 1.250 . S
C122 O114 1.258 . S
O123 Mn108 2.162 1_545 S
O123 C111 1.281 1_545 S
O124 Mn108 2.297 . S
O124 C111 1.236 . S
N125 Mn109 2.282 . S
N125 C126 1.328 1_655 S
N125 C130 1.318 . S
C126 N125 1.328 1_455 S
C126 C127 1.456 . S
C126 H131 0.929 . S
C127 C126 1.456 . S
C127 C128 1.291 . S
C127 H140 0.931 . S
C128 C127 1.291 . S
C128 C129 1.373 1_455 S
C128 H141 0.929 . S
C129 C128 1.373 1_655 S
C129 C130 1.396 . S
C129 C136 1.403 . S
C130 C120 1.476 . S
C130 N125 1.318 . S
C130 C129 1.396 . S
H131 C126 0.929 . S
O132 Mn108 2.385 . S
O132 C110 1.234 . S
O133 Mn108 2.209 . S
O133 Mn109 2.215 . S
O133 C110 1.283 . S
O134 Mn108 2.094 . S
O134 C112 1.240 . S
O135 Mn109 2.117 . S
O135 C112 1.264 . S
C136 C129 1.403 . S
C136 C137 1.399 . S
C136 H142 0.929 . S
C137 C117 1.449 . S
C137 C136 1.399 . S
C137 H143 0.930 . S
H138 C118 0.931 . S
H139 C119 0.930 . S
H140 C127 0.931 . S
H141 C128 0.929 . S
H142 C136 0.929 . S
H143 C137 0.930 . S
Mn144 O149 2.095 . S
Mn144 O159 2.162 . S
Mn144 O160 2.297 . S
Mn144 O168 2.385 . S
Mn144 O169 2.209 . S
Mn144 O170 2.094 . S
Mn145 O150 2.121 . S
Mn145 N152 2.257 . S
Mn145 N161 2.282 . S
Mn145 O169 2.215 . S
Mn145 O171 2.117 . S
C146 O168 1.234 . S
C146 O169 1.283 . S
C147 O159 1.281 . S
C147 O160 1.236 . S
C148 O170 1.240 . S
C148 O171 1.264 . S
O149 Mn144 2.095 . S
O149 C158 1.250 . S
O150 Mn145 2.121 . S
O150 C158 1.258 . S
C151 N152 1.326 1_455 S
C151 C155 1.460 . S
C151 H157 0.929 . S
N152 Mn145 2.257 . S
N152 C151 1.326 1_655 S
N152 C156 1.362 1_655 S
C153 C154 1.258 . S
C153 C156 1.431 . S
C153 C173 1.449 . S
C154 C153 1.258 . S
C154 C155 1.477 . S
C154 H174 0.931 . S
C155 C151 1.460 . S
C155 C154 1.477 . S
C155 H175 0.930 . S
C156 N152 1.362 1_455 S
C156 C153 1.431 . S
C156 C166 1.476 1_455 S
H157 C151 0.929 . S
C158 O149 1.250 . S
C158 O150 1.258 . S
O159 Mn144 2.162 . S
O159 C147 1.281 . S
O160 Mn144 2.297 . S
O160 C147 1.236 . S
N161 Mn145 2.282 . S
N161 C162 1.328 . S
N161 C166 1.318 . S
C162 N161 1.328 . S
C162 C163 1.457 . S
C162 H167 0.929 . S
C163 C162 1.457 . S
C163 C164 1.291 . S
C163 H176 0.931 . S
C164 C163 1.291 . S
C164 C165 1.373 . S
C164 H177 0.929 . S
C165 C164 1.373 . S
C165 C166 1.396 . S
C165 C172 1.403 1_655 S
C166 C156 1.476 1_655 S
C166 N161 1.318 . S
C166 C165 1.396 . S
H167 C162 0.929 . S
O168 Mn144 2.385 . S
O168 C146 1.234 . S
O169 Mn144 2.209 . S
O169 Mn145 2.215 . S
O169 C146 1.283 . S
O170 Mn144 2.094 . S
O170 C148 1.240 . S
O171 Mn145 2.117 . S
O171 C148 1.264 . S
C172 C165 1.403 1_455 S
C172 C173 1.399 . S
C172 H178 0.929 . S
C173 C153 1.449 . S
C173 C172 1.399 . S
C173 H179 0.930 . S
H174 C154 0.931 . S
H175 C155 0.930 . S
H176 C163 0.931 . S
H177 C164 0.929 . S
H178 C172 0.929 . S
H179 C173 0.930 . S
Mn180 O185 2.095 . S
Mn180 O195 2.162 1_545 S
Mn180 O196 2.297 . S
Mn180 O204 2.385 . S
Mn180 O205 2.209 . S
Mn180 O206 2.094 . S
Mn181 O186 2.121 . S
Mn181 N188 2.257 . S
Mn181 N197 2.282 . S
Mn181 O205 2.215 . S
Mn181 O207 2.117 . S
C182 O204 1.234 . S
C182 O205 1.283 . S
C183 O195 1.281 1_545 S
C183 O196 1.236 . S
C184 O206 1.240 . S
C184 O207 1.264 . S
O185 Mn180 2.095 . S
O185 C194 1.250 . S
O186 Mn181 2.121 . S
O186 C194 1.258 . S
C187 N188 1.326 . S
C187 C191 1.460 . S
C187 H193 0.929 . S
N188 Mn181 2.257 . S
N188 C187 1.326 . S
N188 C192 1.362 . S
C189 C190 1.258 . S
C189 C192 1.431 . S
C189 C209 1.449 1_556 S
C190 C189 1.258 . S
C190 C191 1.477 . S
C190 H210 0.931 . S
C191 C187 1.460 . S
C191 C190 1.477 . S
C191 H211 0.930 . S
C192 N188 1.362 . S
C192 C189 1.431 . S
C192 C202 1.476 1_556 S
H193 C187 0.929 . S
C194 O185 1.250 . S
C194 O186 1.258 . S
O195 Mn180 2.162 1_565 S
O195 C183 1.281 1_565 S
O196 Mn180 2.297 . S
O196 C183 1.236 . S
N197 Mn181 2.282 . S
N197 C198 1.328 1_556 S
N197 C202 1.318 1_556 S
C198 N197 1.328 1_554 S
C198 C199 1.457 . S
C198 H203 0.929 . S
C199 C198 1.457 . S
C199 C200 1.291 . S
C199 H212 0.931 . S
C200 C199 1.291 . S
C200 C201 1.373 . S
C200 H213 0.929 . S
C201 C200 1.373 . S
C201 C202 1.396 . S
C201 C208 1.403 . S
C202 C192 1.476 1_554 S
C202 N197 1.318 1_554 S
C202 C201 1.396 . S
H203 C198 0.929 . S
O204 Mn180 2.385 . S
O204 C182 1.234 . S
O205 Mn180 2.209 . S
O205 Mn181 2.215 . S
O205 C182 1.283 . S
O206 Mn180 2.094 . S
O206 C184 1.240 . S
O207 Mn181 2.117 . S
O207 C184 1.264 . S
C208 C201 1.403 . S
C208 C209 1.399 . S
C208 H214 0.929 . S
C209 C189 1.449 1_554 S
C209 C208 1.399 . S
C209 H215 0.930 . S
H210 C190 0.931 . S
H211 C191 0.930 . S
H212 C199 0.931 . S
H213 C200 0.929 . S
H214 C208 0.929 . S
H215 C209 0.930 . S
Mn216 O221 2.095 . S
Mn216 O231 2.162 1_655 S
Mn216 O232 2.297 . S
Mn216 O240 2.385 . S
Mn216 O241 2.209 . S
Mn216 O242 2.094 . S
Mn217 O222 2.121 . S
Mn217 N224 2.257 . S
Mn217 N233 2.282 . S
Mn217 O241 2.215 . S
Mn217 O243 2.117 . S
C218 O240 1.234 . S
C218 O241 1.283 . S
C219 O231 1.281 1_655 S
C219 O232 1.236 . S
C220 O242 1.240 . S
C220 O243 1.264 . S
O221 Mn216 2.095 . S
O221 C230 1.250 . S
O222 Mn217 2.121 . S
O222 C230 1.258 . S
C223 N224 1.326 . S
C223 C227 1.460 . S
C223 H229 0.929 . S
N224 Mn217 2.257 . S
N224 C223 1.326 . S
N224 C228 1.362 . S
C225 C226 1.258 . S
C225 C228 1.431 . S
C225 C245 1.449 1_554 S
C226 C225 1.258 . S
C226 C227 1.477 . S
C226 H246 0.931 . S
C227 C223 1.460 . S
C227 C226 1.477 . S
C227 H247 0.930 . S
C228 N224 1.362 . S
C228 C225 1.431 . S
C228 C238 1.476 1_554 S
H229 C223 0.929 . S
C230 O221 1.250 . S
C230 O222 1.258 . S
O231 Mn216 2.162 1_455 S
O231 C219 1.281 1_455 S
O232 Mn216 2.297 . S
O232 C219 1.236 . S
N233 Mn217 2.282 . S
N233 C234 1.328 1_554 S
N233 C238 1.318 1_554 S
C234 N233 1.328 1_556 S
C234 C235 1.457 . S
C234 H239 0.929 . S
C235 C234 1.457 . S
C235 C236 1.291 . S
C235 H248 0.931 . S
C236 C235 1.291 . S
C236 C237 1.373 . S
C236 H249 0.929 . S
C237 C236 1.373 . S
C237 C238 1.396 . S
C237 C244 1.403 . S
C238 C228 1.476 1_556 S
C238 N233 1.318 1_556 S
C238 C237 1.396 . S
H239 C234 0.929 . S
O240 Mn216 2.385 . S
O240 C218 1.234 . S
O241 Mn216 2.209 . S
O241 Mn217 2.215 . S
O241 C218 1.283 . S
O242 Mn216 2.094 . S
O242 C220 1.240 . S
O243 Mn217 2.117 . S
O243 C220 1.264 . S
C244 C237 1.403 . S
C244 C245 1.399 . S
C244 H250 0.929 . S
C245 C225 1.449 1_556 S
C245 C244 1.399 . S
C245 H251 0.930 . S
H246 C226 0.931 . S
H247 C227 0.930 . S
H248 C235 0.931 . S
H249 C236 0.929 . S
H250 C244 0.929 . S
H251 C245 0.930 . S
Mn252 O257 2.095 . S
Mn252 O267 2.162 . S
Mn252 O268 2.297 . S
Mn252 O276 2.385 . S
Mn252 O277 2.209 . S
Mn252 O278 2.094 . S
Mn253 O258 2.121 . S
Mn253 N260 2.257 . S
Mn253 N269 2.282 . S
Mn253 O277 2.215 . S
Mn253 O279 2.117 . S
C254 O276 1.234 . S
C254 O277 1.283 . S
C255 O267 1.281 . S
C255 O268 1.236 . S
C256 O278 1.240 . S
C256 O279 1.264 . S
O257 Mn252 2.095 . S
O257 C266 1.250 . S
O258 Mn253 2.121 . S
O258 C266 1.258 . S
C259 N260 1.326 1_565 S
C259 C263 1.460 . S
C259 H265 0.929 . S
N260 Mn253 2.257 . S
N260 C259 1.326 1_545 S
N260 C264 1.362 1_545 S
C261 C262 1.258 . S
C261 C264 1.431 . S
C261 C281 1.449 . S
C262 C261 1.258 . S
C262 C263 1.477 . S
C262 H282 0.931 . S
C263 C259 1.460 . S
C263 C262 1.477 . S
C263 H283 0.930 . S
C264 N260 1.362 1_565 S
C264 C261 1.431 . S
C264 C274 1.476 1_565 S
H265 C259 0.929 . S
C266 O257 1.250 . S
C266 O258 1.258 . S
O267 Mn252 2.162 . S
O267 C255 1.281 . S
O268 Mn252 2.297 . S
O268 C255 1.236 . S
N269 Mn253 2.282 . S
N269 C270 1.328 . S
N269 C274 1.318 . S
C270 N269 1.328 . S
C270 C271 1.457 . S
C270 H275 0.929 . S
C271 C270 1.457 . S
C271 C272 1.291 . S
C271 H284 0.931 . S
C272 C271 1.291 . S
C272 C273 1.373 . S
C272 H285 0.929 . S
C273 C272 1.373 . S
C273 C274 1.396 . S
C273 C280 1.403 1_545 S
C274 C264 1.476 1_545 S
C274 N269 1.318 . S
C274 C273 1.396 . S
H275 C270 0.929 . S
O276 Mn252 2.385 . S
O276 C254 1.234 . S
O277 Mn252 2.209 . S
O277 Mn253 2.215 . S
O277 C254 1.283 . S
O278 Mn252 2.094 . S
O278 C256 1.240 . S
O279 Mn253 2.117 . S
O279 C256 1.264 . S
C280 C273 1.403 1_565 S
C280 C281 1.399 . S
C280 H286 0.929 . S
C281 C261 1.449 . S
C281 C280 1.399 . S
C281 H287 0.930 . S
H282 C262 0.931 . S
H283 C263 0.930 . S
H284 C271 0.931 . S
H285 C272 0.929 . S
H286 C280 0.929 . S
H287 C281 0.930 . S
C14 C182 1.427 1_554 S
C50 C230 1.654 . S
C74 C266 1.427 . S
C110 C146 1.299 . S
C254 C2 1.299 . S
C158 C38 1.427 . S
C86 C194 1.654 . S
C218 C122 1.427 1_554 S
C4 C219 1.682 1_445 S
C255 C40 1.687 1_455 S
C75 C148 1.682 . S
C111 C184 1.687 1_565 S
C220 C3 1.687 1_655 S
C256 C39 1.682 . S
C76 C147 1.687 1_545 S
C112 C183 1.682 1_665 S
