# Generated by pormake.
# Topology vcj, (7)-cn, num edge types: 1
# Building blocks:
#     Node 0, Type 0, BuildingBlock: HICVOG_clean_sbu_0, # of connection points: 7
#     Node 1, Type 0, BuildingBlock: HICVOG_clean_sbu_0, # of connection points: 7
#     Node 2, Type 0, BuildingBlock: HICVOG_clean_sbu_0, # of connection points: 7
#     Node 3, Type 0, BuildingBlock: HICVOG_clean_sbu_0, # of connection points: 7
#     Node 4, Type 0, BuildingBlock: HICVOG_clean_sbu_0, # of connection points: 7
#     Node 5, Type 0, BuildingBlock: HICVOG_clean_sbu_0, # of connection points: 7
#     Node 6, Type 0, BuildingBlock: HICVOG_clean_sbu_0, # of connection points: 7
#     Node 7, Type 0, BuildingBlock: HICVOG_clean_sbu_0, # of connection points: 7
#     Edge 8, Type (0, 0), BuildingBlock: XUDNAN_clean_linker_2, # of connection points: 2
#     Edge 9, Type (0, 0), BuildingBlock: XUDNAN_clean_linker_2, # of connection points: 2
#     Edge 10, Type (0, 0), BuildingBlock: XUDNAN_clean_linker_2, # of connection points: 2
#     Edge 11, Type (0, 0), BuildingBlock: XUDNAN_clean_linker_2, # of connection points: 2
#     Edge 12, Type (0, 0), BuildingBlock: XUDNAN_clean_linker_2, # of connection points: 2
#     Edge 13, Type (0, 0), BuildingBlock: XUDNAN_clean_linker_2, # of connection points: 2
#     Edge 14, Type (0, 0), BuildingBlock: XUDNAN_clean_linker_2, # of connection points: 2
#     Edge 15, Type (0, 0), BuildingBlock: XUDNAN_clean_linker_2, # of connection points: 2
#     Edge 16, Type (0, 0), BuildingBlock: XUDNAN_clean_linker_2, # of connection points: 2
#     Edge 17, Type (0, 0), BuildingBlock: XUDNAN_clean_linker_2, # of connection points: 2
#     Edge 18, Type (0, 0), BuildingBlock: XUDNAN_clean_linker_2, # of connection points: 2
#     Edge 19, Type (0, 0), BuildingBlock: XUDNAN_clean_linker_2, # of connection points: 2
#     Edge 20, Type (0, 0), BuildingBlock: XUDNAN_clean_linker_2, # of connection points: 2
#     Edge 21, Type (0, 0), BuildingBlock: XUDNAN_clean_linker_2, # of connection points: 2
#     Edge 22, Type (0, 0), BuildingBlock: XUDNAN_clean_linker_2, # of connection points: 2
#     Edge 23, Type (0, 0), BuildingBlock: XUDNAN_clean_linker_2, # of connection points: 2
#     Edge 24, Type (0, 0), BuildingBlock: XUDNAN_clean_linker_2, # of connection points: 2
#     Edge 25, Type (0, 0), BuildingBlock: XUDNAN_clean_linker_2, # of connection points: 2
#     Edge 26, Type (0, 0), BuildingBlock: XUDNAN_clean_linker_2, # of connection points: 2
#     Edge 27, Type (0, 0), BuildingBlock: XUDNAN_clean_linker_2, # of connection points: 2
#     Edge 28, Type (0, 0), BuildingBlock: XUDNAN_clean_linker_2, # of connection points: 2
#     Edge 29, Type (0, 0), BuildingBlock: XUDNAN_clean_linker_2, # of connection points: 2
#     Edge 30, Type (0, 0), BuildingBlock: XUDNAN_clean_linker_2, # of connection points: 2
#     Edge 31, Type (0, 0), BuildingBlock: XUDNAN_clean_linker_2, # of connection points: 2
#     Edge 32, Type (0, 0), BuildingBlock: XUDNAN_clean_linker_2, # of connection points: 2
#     Edge 33, Type (0, 0), BuildingBlock: XUDNAN_clean_linker_2, # of connection points: 2
#     Edge 34, Type (0, 0), BuildingBlock: XUDNAN_clean_linker_2, # of connection points: 2
#     Edge 35, Type (0, 0), BuildingBlock: XUDNAN_clean_linker_2, # of connection points: 2
# Relax obj value: 0.121
# Max RMSD: 0.193
# Mean RMSD: 0.193
data_MOF--net-vcj--node1-HICVOG_clean_sbu_0--edge1-XUDNAN_clean_linker_2
_symmetry_space_group_name_H-M    P1
_symmetry_Int_Tables_number       1
_symmetry_cell_setting            triclinic
loop_
_symmetry_equiv_pos_as_xyz
'x, y, z'
_cell_length_a     35.474313
_cell_length_b     45.071368
_cell_length_c     22.065678
_cell_angle_alpha  90.040987
_cell_angle_beta   89.978444
_cell_angle_gamma 90.040883
loop_
_atom_site_label
_atom_site_type_symbol
_atom_site_fract_x
_atom_site_fract_y
_atom_site_fract_z
_atom_type_partial_charge
Zn0 Zn 0.34504 0.42688 0.25076 0.0
C1 C 0.40916 0.46479 0.12189 0.0
N2 N 0.38222 0.48555 0.12559 0.0
C3 C 0.35623 0.47275 0.16119 0.0
N4 N 0.36662 0.44521 0.1784 0.0
N5 N 0.39976 0.43985 0.15259 0.0
C6 C 0.49252 0.41546 0.18671 0.0
O7 O 0.46894 0.41971 0.23166 0.0
O8 O 0.2875 0.42905 0.24919 0.0
Zn9 Zn 0.42238 0.40077 0.14153 0.0
N10 N 0.36231 0.45189 0.31715 0.0
C11 C 0.41554 0.47492 0.36308 0.0
C12 C 0.40014 0.45633 0.31917 0.0
C13 C 0.33899 0.46536 0.35786 0.0
N14 N 0.3924 0.48848 0.40341 0.0
C15 C 0.35442 0.48417 0.40247 0.0
O16 O 0.41264 0.37297 0.21224 0.0
C17 C 0.39063 0.36757 0.2566 0.0
O18 O 0.36378 0.38505 0.27111 0.0
H19 H 0.41803 0.4458 0.28618 0.0
H20 H 0.30887 0.46223 0.35451 0.0
C21 C 0.41095 0.35563 0.04524 0.0
C22 C 0.39027 0.34303 0.99675 0.0
C23 C 0.35046 0.38534 0.99606 0.0
C24 C 0.37067 0.39757 0.04398 0.0
N25 N 0.40035 0.38259 0.06825 0.0
N26 N 0.36051 0.35843 0.97397 0.0
H27 H 0.43424 0.34377 0.06561 0.0
C28 C 0.26659 0.41913 0.29163 0.0
O29 O 0.28227 0.40506 0.33725 0.0
O30 O 0.47948 0.40594 0.13661 0.0
H31 H 0.36201 0.41867 0.06239 0.0
H32 H 0.44563 0.47874 0.36481 0.0
H33 H 0.32664 0.39702 0.97695 0.0
Zn34 Zn 0.16559 0.60223 0.75687 0.0
C35 C 0.0973 0.57159 0.62905 0.0
N36 N 0.12609 0.55313 0.61805 0.0
C37 C 0.15428 0.56501 0.65025 0.0
N38 N 0.14306 0.5896 0.68054 0.0
N39 N 0.10729 0.59431 0.66589 0.0
C40 C 0.01788 0.62795 0.72533 0.0
O41 O 0.0439 0.62443 0.76705 0.0
O42 O 0.22229 0.60258 0.74906 0.0
Zn43 Zn 0.0856 0.63432 0.66219 0.0
N44 N 0.15151 0.57271 0.81799 0.0
C45 C 0.11022 0.53364 0.84807 0.0
C46 C 0.12006 0.55616 0.80773 0.0
C47 C 0.17302 0.56796 0.86826 0.0
N48 N 0.13203 0.5286 0.89753 0.0
C49 C 0.16312 0.54532 0.90925 0.0
O50 O 0.10271 0.66192 0.73114 0.0
C51 C 0.12587 0.66361 0.77528 0.0
O52 O 0.14909 0.64277 0.78657 0.0
H53 H 0.1029 0.56015 0.76817 0.0
H54 H 0.19809 0.58103 0.87555 0.0
C55 C 0.09248 0.68021 0.56484 0.0
C56 C 0.11033 0.69222 0.51285 0.0
C57 C 0.14629 0.64817 0.50303 0.0
C58 C 0.12907 0.63655 0.55432 0.0
N59 N 0.10264 0.65257 0.58493 0.0
N60 N 0.13677 0.67565 0.48384 0.0
H61 H 0.07193 0.69301 0.58995 0.0
C62 C 0.24492 0.61374 0.78751 0.0
O63 O 0.23166 0.62658 0.83652 0.0
O64 O 0.02821 0.63181 0.67059 0.0
H65 H 0.13773 0.61505 0.57001 0.0
H66 H 0.0855 0.52014 0.83996 0.0
H67 H 0.16752 0.63558 0.47898 0.0
Zn68 Zn 0.922 0.13147 0.88625 0.0
C69 C 0.84954 0.06364 0.87116 0.0
N70 N 0.87664 0.04869 0.90076 0.0
C71 C 0.90598 0.06744 0.90052 0.0
N72 N 0.89709 0.0934 0.87336 0.0
N73 N 0.86211 0.0905 0.85296 0.0
C74 C 0.76217 0.1176 0.74199 0.0
O75 O 0.77802 0.12911 0.69357 0.0
O76 O 0.97872 0.12485 0.88832 0.0
Zn77 Zn 0.84041 0.11093 0.7831 0.0
N78 N 0.90232 0.14918 0.9617 0.0
C79 C 0.85594 0.14525 0.03955 0.0
C80 C 0.87459 0.13342 0.98963 0.0
C81 C 0.91251 0.17659 0.98289 0.0
N82 N 0.86553 0.1726 0.05989 0.0
C83 C 0.89338 0.1888 0.03339 0.0
O84 O 0.85958 0.15297 0.76651 0.0
C85 C 0.88885 0.16848 0.77805 0.0
O86 O 0.91271 0.1608 0.81828 0.0
H87 H 0.86628 0.11199 0.97263 0.0
H88 H 0.9342 0.18908 0.95964 0.0
C89 C 0.83411 0.07187 0.67666 0.0
C90 C 0.84969 0.05623 0.62739 0.0
C91 C 0.91027 0.07441 0.65347 0.0
C92 C 0.89462 0.09038 0.7013 0.0
N93 N 0.8571 0.08847 0.71275 0.0
N94 N 0.88753 0.05771 0.61771 0.0
H95 H 0.80428 0.07055 0.6864 0.0
C96 C 0.99026 0.11134 0.84119 0.0
O97 O 0.96527 0.10297 0.80088 0.0
O98 O 0.78299 0.10942 0.786 0.0
H99 H 0.91208 0.10435 0.72926 0.0
H100 H 0.83365 0.13292 0.0616 0.0
H101 H 0.94022 0.0755 0.64447 0.0
Zn102 Zn 0.66517 0.93109 0.27399 0.0
C103 C 0.59767 0.96221 0.40234 0.0
N104 N 0.62569 0.98163 0.4114 0.0
C105 C 0.65395 0.9704 0.37836 0.0
N106 N 0.64333 0.94531 0.34919 0.0
N107 N 0.60819 0.93955 0.36573 0.0
C108 C 0.51434 0.8981 0.32703 0.0
O109 O 0.5329 0.89313 0.27651 0.0
O110 O 0.72141 0.93585 0.27716 0.0
Zn111 Zn 0.58954 0.89879 0.37298 0.0
N112 N 0.6439 0.9546 0.20844 0.0
C113 C 0.58856 0.96661 0.15258 0.0
C114 C 0.60585 0.95303 0.20205 0.0
C115 C 0.66539 0.96976 0.16769 0.0
N116 N 0.61006 0.98093 0.11091 0.0
C117 C 0.64816 0.98304 0.11695 0.0
O118 O 0.60445 0.87067 0.30369 0.0
C119 C 0.6292 0.86808 0.26203 0.0
O120 O 0.65304 0.88859 0.25151 0.0
H121 H 0.5892 0.94072 0.23454 0.0
H122 H 0.6956 0.97048 0.17341 0.0
C123 C 0.60078 0.85512 0.47194 0.0
C124 C 0.62105 0.84341 0.52173 0.0
C125 C 0.66025 0.88605 0.52146 0.0
C126 C 0.64047 0.89741 0.47234 0.0
N127 N 0.61128 0.88186 0.44784 0.0
N128 N 0.65029 0.85939 0.54465 0.0
H129 H 0.5779 0.84276 0.45152 0.0
C130 C 0.7447 0.9301 0.23502 0.0
O131 O 0.73241 0.92033 0.18251 0.0
O132 O 0.53262 0.90064 0.3764 0.0
H133 H 0.64912 0.9183 0.45343 0.0
H134 H 0.55833 0.96528 0.14671 0.0
H135 H 0.68367 0.89822 0.5407 0.0
Zn136 Zn 0.58383 0.62583 0.87831 0.0
C137 C 0.66971 0.56756 0.89104 0.0
N138 N 0.64611 0.55335 0.92876 0.0
C139 C 0.61425 0.5691 0.92358 0.0
N140 N 0.61844 0.59231 0.88517 0.0
N141 N 0.65323 0.59083 0.86316 0.0
C142 C 0.74458 0.62522 0.80978 0.0
O143 O 0.72554 0.6421 0.84751 0.0
O144 O 0.53198 0.6122 0.85392 0.0
Zn145 Zn 0.66929 0.60585 0.78398 0.0
N146 N 0.5773 0.64407 0.95854 0.0
C147 C 0.54694 0.63851 0.05404 0.0
C148 C 0.55498 0.628 0.99628 0.0
C149 C 0.59151 0.67096 0.97625 0.0
N150 N 0.56095 0.66511 0.07174 0.0
C151 C 0.583 0.68206 0.03491 0.0
O152 O 0.64926 0.64689 0.76134 0.0
C153 C 0.62196 0.66396 0.77545 0.0
O154 O 0.59847 0.65715 0.81685 0.0
H155 H 0.54292 0.60729 0.98112 0.0
H156 H 0.6082 0.68365 0.9445 0.0
C157 C 0.67041 0.56661 0.67787 0.0
C158 C 0.65398 0.5456 0.63834 0.0
C159 C 0.59668 0.54914 0.69367 0.0
C160 C 0.61308 0.56972 0.73262 0.0
N161 N 0.64952 0.57803 0.7243 0.0
N162 N 0.61747 0.53749 0.64789 0.0
H163 H 0.69958 0.57321 0.67297 0.0
C164 C 0.52074 0.61246 0.79926 0.0
O165 O 0.54437 0.6201 0.75616 0.0
O166 O 0.72657 0.60681 0.77712 0.0
H167 H 0.597 0.57883 0.76977 0.0
H168 H 0.52929 0.62579 0.08445 0.0
H169 H 0.56773 0.54227 0.70005 0.0
Zn170 Zn 0.92127 0.40814 0.38624 0.0
C171 C 0.84718 0.47487 0.37405 0.0
N172 N 0.87218 0.48892 0.40943 0.0
C173 C 0.90196 0.47074 0.40943 0.0
N174 N 0.8956 0.44606 0.37612 0.0
N175 N 0.86142 0.44907 0.35243 0.0
C176 C 0.76862 0.42115 0.2276 0.0
O177 O 0.78493 0.40402 0.18717 0.0
O178 O 0.97822 0.41531 0.38936 0.0
Zn179 Zn 0.84594 0.43293 0.27413 0.0
N180 N 0.90073 0.38972 0.46054 0.0
C181 C 0.85255 0.39274 0.5358 0.0
C182 C 0.87169 0.4048 0.48672 0.0
C183 C 0.91149 0.36264 0.48261 0.0
N184 N 0.86277 0.36578 0.557 0.0
C185 C 0.89171 0.35016 0.53218 0.0
O186 O 0.86561 0.39148 0.25378 0.0
C187 C 0.89186 0.37391 0.2703 0.0
O188 O 0.91278 0.37945 0.31596 0.0
H189 H 0.86256 0.42586 0.46913 0.0
H190 H 0.93411 0.35061 0.46072 0.0
C191 C 0.84771 0.46564 0.16061 0.0
C192 C 0.86186 0.48715 0.12036 0.0
C193 C 0.91318 0.49569 0.18686 0.0
C194 C 0.8989 0.47455 0.22685 0.0
N195 N 0.86631 0.46006 0.2134 0.0
N196 N 0.89418 0.50174 0.13498 0.0
H197 H 0.82149 0.45431 0.15112 0.0
C198 C 0.99073 0.42649 0.3403 0.0
O199 O 0.96657 0.43219 0.29675 0.0
O200 O 0.78878 0.43423 0.26723 0.0
H201 H 0.91339 0.4702 0.26884 0.0
H202 H 0.82933 0.40457 0.55646 0.0
H203 H 0.93889 0.50753 0.19743 0.0
Zn204 Zn 0.16222 0.92974 0.24958 0.0
C205 C 0.11046 0.9635 0.10376 0.0
N206 N 0.14217 0.9795 0.09911 0.0
C207 C 0.16507 0.96643 0.13953 0.0
N208 N 0.14822 0.94366 0.16867 0.0
N209 N 0.11412 0.94123 0.14452 0.0
C210 C 0.01881 0.92947 0.22985 0.0
O211 O 0.04354 0.92579 0.27349 0.0
O212 O 0.21854 0.92903 0.26132 0.0
Zn213 Zn 0.07899 0.90828 0.15339 0.0
N214 N 0.145 0.95945 0.30777 0.0
C215 C 0.105 1.0002 0.33173 0.0
C216 C 0.11523 0.977 0.29322 0.0
C217 C 0.16461 0.9639 0.36017 0.0
N218 N 0.12503 1.00506 0.38326 0.0
C219 C 0.15457 0.98743 0.39907 0.0
O220 O 0.09139 0.87788 0.21823 0.0
C221 C 0.11396 0.87207 0.26154 0.0
O222 O 0.14102 0.88946 0.27533 0.0
H223 H 0.10002 0.97337 0.25148 0.0
H224 H 0.18862 0.94995 0.37027 0.0
C225 C 0.08636 0.86179 0.05785 0.0
C226 C 0.07766 0.84997 0.99982 0.0
C227 C 0.04117 0.8931 0.97915 0.0
C228 C 0.0494 0.9043 0.03628 0.0
N229 N 0.07204 0.8888 0.07445 0.0
N230 N 0.05531 0.8664 0.96252 0.0
H231 H 0.10334 0.8496 0.08996 0.0
C232 C 0.24396 0.91415 0.23453 0.0
O233 O 0.23477 0.89647 0.18954 0.0
O234 O 0.02832 0.92404 0.17554 0.0
H235 H 0.03727 0.92511 0.05058 0.0
H236 H 0.08158 1.01451 0.32033 0.0
H237 H 0.0233 0.90537 0.94838 0.0
Zn238 Zn 0.41809 0.12457 0.64022 0.0
C239 C 0.34545 0.05641 0.65649 0.0
N240 N 0.3688 0.04322 0.61718 0.0
C241 C 0.39786 0.06215 0.61419 0.0
N242 N 0.39239 0.08646 0.64916 0.0
N243 N 0.35947 0.08251 0.67659 0.0
C244 C 0.26588 0.1115 0.79453 0.0
O245 O 0.28182 0.12803 0.83637 0.0
O246 O 0.47497 0.1177 0.63975 0.0
Zn247 Zn 0.34332 0.09948 0.75322 0.0
N248 N 0.39855 0.14337 0.56569 0.0
C249 C 0.35098 0.14111 0.48939 0.0
C250 C 0.36968 0.12856 0.53839 0.0
C251 C 0.40956 0.17065 0.54492 0.0
N252 N 0.36144 0.16829 0.46948 0.0
C253 C 0.39022 0.18365 0.49549 0.0
O254 O 0.36274 0.14099 0.77358 0.0
C255 C 0.38855 0.1588 0.75628 0.0
O256 O 0.40908 0.15332 0.71016 0.0
H257 H 0.36028 0.10739 0.5552 0.0
H258 H 0.43198 0.18248 0.56782 0.0
C259 C 0.34291 0.06744 0.86808 0.0
C260 C 0.3565 0.04619 0.90945 0.0
C261 C 0.40831 0.03684 0.84427 0.0
C262 C 0.39466 0.05777 0.80333 0.0
N263 N 0.36212 0.07254 0.81559 0.0
N264 N 0.3888 0.03133 0.89596 0.0
H265 H 0.31675 0.07898 0.87656 0.0
C266 C 0.48648 0.10769 0.69046 0.0
O267 O 0.46136 0.10239 0.73285 0.0
O268 O 0.28641 0.09849 0.75544 0.0
H269 H 0.40963 0.06181 0.76155 0.0
H270 H 0.32787 0.12952 0.46785 0.0
H271 H 0.43398 0.02478 0.83467 0.0
H272 H 0.29577 0.44574 0.11193 0.0
H273 H 0.3325 0.5267 0.19888 0.0
H274 H 0.27863 0.55348 0.15421 0.0
H275 H 0.28012 0.47534 0.97974 0.0
H276 H 0.23899 0.45465 0.95695 0.0
H277 H 0.27127 0.43898 1.01076 0.0
H278 H 0.21792 0.43237 0.09057 0.0
H279 H 0.18528 0.44612 0.03457 0.0
H280 H 0.18777 0.46344 0.10797 0.0
H281 H 0.23333 0.57385 0.07907 0.0
H282 H 0.19343 0.58499 0.99004 0.0
H283 H 0.18539 0.49101 0.95025 0.0
C284 C 0.29065 0.46853 0.12517 0.0
C285 C 0.31738 0.48402 0.16045 0.0
C286 C 0.3115 0.51433 0.17369 0.0
C287 C 0.28116 0.52975 0.14791 0.0
C288 C 0.25696 0.51446 0.10906 0.0
C289 C 0.26071 0.48428 0.09894 0.0
C290 C 0.23504 0.4741 0.04793 0.0
C291 C 0.25773 0.45995 0.99581 0.0
C292 C 0.20471 0.45273 0.07171 0.0
C293 C 0.21786 0.50342 0.02893 0.0
C294 C 0.23061 0.5264 0.06505 0.0
C295 C 0.22221 0.55594 0.05172 0.0
C296 C 0.19992 0.5621 1.00068 0.0
C297 C 0.18617 0.53884 0.96365 0.0
C298 C 0.19491 0.50916 0.97861 0.0
H299 H 0.17955 0.51 0.62351 0.0
H300 H 0.21422 0.60196 0.63316 0.0
H301 H 0.27327 0.58945 0.57963 0.0
H302 H 0.27493 0.47365 0.62663 0.0
H303 H 0.26092 0.44702 0.56995 0.0
H304 H 0.22656 0.46152 0.62237 0.0
H305 H 0.18516 0.4779 0.53176 0.0
H306 H 0.21969 0.46423 0.47903 0.0
H307 H 0.2047 0.50238 0.4753 0.0
H308 H 0.32525 0.56819 0.5166 0.0
H309 H 0.36417 0.54061 0.4428 0.0
H310 H 0.29151 0.46378 0.46337 0.0
C311 C 0.20065 0.52714 0.61746 0.0
C312 C 0.1935 0.55663 0.63615 0.0
C313 C 0.22041 0.57891 0.62353 0.0
C314 C 0.25373 0.57205 0.59214 0.0
C315 C 0.25941 0.54292 0.57291 0.0
C316 C 0.23349 0.5208 0.58485 0.0
C317 C 0.24303 0.49252 0.55077 0.0
C318 C 0.2519 0.46718 0.59508 0.0
C319 C 0.21127 0.48377 0.50662 0.0
C320 C 0.27802 0.50237 0.51698 0.0
C321 C 0.2874 0.53131 0.53138 0.0
C322 C 0.31827 0.54548 0.50521 0.0
C323 C 0.34015 0.52966 0.46331 0.0
C324 C 0.33063 0.5002 0.44691 0.0
C325 C 0.29917 0.48641 0.47435 0.0
H326 H 0.82431 0.06926 0.9838 0.0
H327 H 0.78867 0.04343 0.8038 0.0
H328 H 0.72831 0.02442 0.84685 0.0
H329 H 0.79572 1.0054 0.05229 0.0
H330 H 0.78217 0.02219 0.12314 0.0
H331 H 0.81778 0.03935 0.07701 0.0
H332 H 0.77959 0.08837 0.07443 0.0
H333 H 0.74404 0.07158 0.12166 0.0
H334 H 0.73111 0.0878 0.04998 0.0
H335 H 0.67495 1.00355 0.91355 0.0
H336 H 0.63577 0.98141 0.99474 0.0
H337 H 0.71099 0.0182 0.13025 0.0
C338 C 0.80308 0.06075 0.95307 0.0
C339 C 0.81036 0.05853 0.89042 0.0
C340 C 0.78293 0.04601 0.85173 0.0
C341 C 0.74882 0.03505 0.87598 0.0
C342 C 0.74317 0.03662 0.93877 0.0
C343 C 0.76975 0.04925 0.97659 0.0
C344 C 0.76006 0.04495 0.04275 0.0
C345 C 0.79074 0.02691 0.07568 0.0
C346 C 0.75328 0.07497 0.07404 0.0
C347 C 0.72398 0.02745 0.03688 0.0
C348 C 0.71419 0.02326 0.97673 0.0
C349 C 0.68234 1.00692 0.96063 0.0
C350 C 0.66027 0.99444 1.00706 0.0
C351 C 0.67058 0.9978 0.06878 0.0
C352 C 0.70264 1.01485 0.08354 0.0
H353 H 0.67725 0.02576 0.40549 0.0
H354 H 0.71537 0.93475 0.39443 0.0
H355 H 0.7735 0.94835 0.44955 0.0
H356 H 0.77059 0.06481 0.4067 0.0
H357 H 0.75459 0.0904 0.46402 0.0
H358 H 0.72161 0.07534 0.41001 0.0
H359 H 0.68017 0.05699 0.49889 0.0
H360 H 0.71356 0.07076 0.55344 0.0
H361 H 0.70003 0.03224 0.55449 0.0
H362 H 0.82466 0.971 0.51423 0.0
H363 H 0.8623 0.99988 0.58823 0.0
H364 H 0.7852 0.07386 0.56961 0.0
C365 C 0.69892 1.00909 0.41155 0.0
C366 C 0.69294 0.97956 0.39217 0.0
C367 C 0.7206 0.95787 0.40482 0.0
C368 C 0.75339 0.96534 0.43718 0.0
C369 C 0.75771 0.99446 0.4575 0.0
C370 C 0.73105 1.01598 0.44539 0.0
C371 C 0.73881 0.04417 0.48082 0.0
C372 C 0.7469 0.07022 0.43781 0.0
C373 C 0.7062 0.05144 0.52445 0.0
C374 C 0.77382 0.03508 0.5152 0.0
C375 C 0.78473 1.00655 0.50022 0.0
C376 C 0.81633 0.99334 0.52626 0.0
C377 C 0.83741 1.0098 0.56834 0.0
C378 C 0.82618 0.03878 0.58516 0.0
C379 C 0.79394 0.05151 0.55828 0.0
H380 H 0.73144 0.59385 0.93713 0.0
H381 H 0.69289 0.51658 0.83929 0.0
H382 H 0.74855 0.48865 0.87389 0.0
H383 H 0.8393 0.5767 0.92522 0.0
H384 H 0.84689 0.58933 1.00184 0.0
H385 H 0.81207 0.60715 0.95507 0.0
H386 H 0.76056 0.59803 0.03394 0.0
H387 H 0.794 0.58046 0.08303 0.0
H388 H 0.7519 0.56085 0.06079 0.0
H389 H 0.79338 0.46528 0.94501 0.0
H390 H 0.83178 0.45052 0.03364 0.0
H391 H 0.84405 0.54288 0.08412 0.0
C392 C 0.73658 0.57187 0.91908 0.0
C393 C 0.70876 0.55755 0.88409 0.0
C394 C 0.7147 0.52811 0.86438 0.0
C395 C 0.74609 0.51202 0.88438 0.0
C396 C 0.77145 0.52588 0.92353 0.0
C397 C 0.76784 0.55555 0.93906 0.0
C398 C 0.79498 0.56378 0.9895 0.0
C399 C 0.82513 0.5855 0.96646 0.0
C400 C 0.77409 0.5765 0.04504 0.0
C401 C 0.81199 0.53373 1.00326 0.0
C402 C 0.79845 0.5122 0.96426 0.0
C403 C 0.80542 0.48209 0.97422 0.0
C404 C 0.82683 0.47385 0.025 0.0
C405 C 0.84116 0.49565 0.06494 0.0
C406 C 0.83424 0.52591 0.05312 0.0
H407 H 0.81635 0.52873 0.39216 0.0
H408 H 0.78949 0.43506 0.38805 0.0
H409 H 0.73062 0.44499 0.44401 0.0
H410 H 0.79735 0.53627 0.5388 0.0
H411 H 0.77855 0.5734 0.53707 0.0
H412 H 0.8112 0.56163 0.47967 0.0
H413 H 0.76356 0.57482 0.39504 0.0
H414 H 0.73099 0.58767 0.45203 0.0
H415 H 0.71641 0.55993 0.39798 0.0
H416 H 0.68157 0.46358 0.51678 0.0
H417 H 0.64631 0.48881 0.59825 0.0
H418 H 0.70949 0.56963 0.56469 0.0
C419 C 0.79682 0.51061 0.39972 0.0
C420 C 0.80674 0.48129 0.38338 0.0
C421 C 0.78165 0.45784 0.39721 0.0
C422 C 0.74838 0.46329 0.43003 0.0
C423 C 0.74087 0.49222 0.44925 0.0
C424 C 0.76432 0.51558 0.43415 0.0
C425 C 0.75409 0.54345 0.46917 0.0
C426 C 0.78726 0.5543 0.50847 0.0
C427 C 0.74043 0.56792 0.42598 0.0
C428 C 0.72212 0.53191 0.50801 0.0
C429 C 0.71433 0.50253 0.4948 0.0
C430 C 0.68711 0.48668 0.52678 0.0
C431 C 0.66732 0.50121 0.57318 0.0
C432 C 0.6753 0.53114 0.58834 0.0
C433 C 0.70297 0.54666 0.55483 0.0
H434 H 0.34112 0.9909 0.95177 0.0
H435 H 0.32351 0.08399 0.99134 0.0
H436 H 0.28475 0.07037 0.08025 0.0
H437 H 0.25091 0.97038 0.97319 0.0
H438 H 0.26047 0.9344 1.00539 0.0
H439 H 0.29444 0.95143 0.95638 0.0
H440 H 0.34505 0.94633 0.04108 0.0
H441 H 0.31037 0.92962 0.09017 0.0
H442 H 0.33605 0.96193 0.11494 0.0
H443 H 0.2402 0.04755 0.15271 0.0
H444 H 0.18527 0.0189 0.18812 0.0
H445 H 0.22875 0.94051 0.0999 0.0
C446 C 0.33009 1.00834 0.98052 0.0
C447 C 0.33551 0.03845 0.96526 0.0
C448 C 0.31965 0.06078 1.0024 0.0
C449 C 0.29808 0.05321 0.05345 0.0
C450 C 0.29257 0.02323 0.06676 0.0
C451 C 0.30787 1.0011 0.03091 0.0
C452 C 0.29202 0.97094 0.0476 0.0
C453 C 0.27333 0.95595 0.9924 0.0
C454 C 0.32272 0.95105 0.07508 0.0
C455 C 0.26336 0.97977 0.0953 0.0
C456 C 0.26549 1.00984 0.10785 0.0
C457 C 0.23893 0.02389 0.14458 0.0
C458 C 0.20798 1.00739 0.16517 0.0
C459 C 0.20361 0.97735 0.14825 0.0
C460 C 0.23263 0.96301 0.11599 0.0
H461 H 0.28762 0.08552 0.60466 0.0
H462 H 0.31694 1.00493 0.69939 0.0
H463 H 0.26234 0.97951 0.65354 0.0
H464 H 0.17871 0.07152 0.59793 0.0
H465 H 0.17768 0.08753 0.52314 0.0
H466 H 0.21038 0.1014 0.57901 0.0
H467 H 0.26475 0.09208 0.50288 0.0
H468 H 0.23269 0.07681 0.44821 0.0
H469 H 0.27225 0.05513 0.47389 0.0
H470 H 0.21814 0.95941 0.57597 0.0
H471 H 0.1803 0.94818 0.48464 0.0
H472 H 0.17821 0.0417 0.43933 0.0
C473 C 0.28061 0.06326 0.61938 0.0
C474 C 0.3056 0.04742 0.65719 0.0
C475 C 0.29726 0.01769 0.67238 0.0
C476 C 0.26654 1.00298 0.6458 0.0
C477 C 0.24427 0.01843 0.60437 0.0
C478 C 0.25016 0.04825 0.59258 0.0
C479 C 0.22604 0.05854 0.53976 0.0
C480 C 0.19644 0.08109 0.56124 0.0
C481 C 0.2504 0.07138 0.48819 0.0
C482 C 0.20769 0.02951 0.52115 0.0
C483 C 0.21825 1.0067 0.55938 0.0
C484 C 0.20869 0.97726 0.54694 0.0
C485 C 0.18758 0.97101 0.49457 0.0
C486 C 0.17611 0.99409 0.45521 0.0
C487 C 0.18591 0.02371 0.46938 0.0
H488 H 0.48121 0.48016 0.15209 0.0
H489 H 0.40695 0.46393 1.0001 0.0
H490 H 0.4511 0.49035 0.93228 0.0
H491 H 0.50589 0.55107 0.11602 0.0
H492 H 0.55487 0.54924 0.13733 0.0
H493 H 0.52114 0.52502 0.17296 0.0
H494 H 0.5598 0.47928 0.14126 0.0
H495 H 0.5944 0.50283 0.1061 0.0
H496 H 0.57211 0.47373 0.06288 0.0
H497 H 0.4985 0.52482 0.88435 0.0
H498 H 0.55271 0.55628 0.8551 0.0
H499 H 0.59705 0.54979 0.03737 0.0
C500 C 0.47551 0.48062 0.10388 0.0
C501 C 0.44138 0.46908 0.08071 0.0
C502 C 0.43363 0.47168 0.01807 0.0
C503 C 0.45828 0.48704 0.97945 0.0
C504 C 0.49078 0.49953 1.00415 0.0
C505 C 0.50015 0.49567 0.06451 0.0
C506 C 0.53606 0.51242 0.07998 0.0
C507 C 0.52903 0.53582 0.12951 0.0
C508 C 0.56747 0.49078 0.09857 0.0
C509 C 0.54468 0.52697 0.01954 0.0
C510 C 0.51806 0.51944 0.97651 0.0
C511 C 0.51957 0.53076 0.91768 0.0
C512 C 0.54994 0.54922 0.90177 0.0
C513 C 0.57815 0.55643 0.94458 0.0
C514 C 0.57528 0.54523 1.00424 0.0
H515 H 0.97428 0.48771 0.38597 0.0
H516 H 0.89506 0.46949 0.5305 0.0
H517 H 0.93417 0.49837 0.60177 0.0
H518 H 0.06103 0.48518 0.48544 0.0
H519 H 0.08334 0.51423 0.44227 0.0
H520 H 0.05127 0.48896 0.40568 0.0
H521 H 0.01248 0.53378 0.36773 0.0
H522 H 0.04323 0.55934 0.40638 0.0
H523 H 0.99332 0.55974 0.4218 0.0
H524 H 0.97721 0.53502 0.65355 0.0
H525 H 0.03095 0.56539 0.68968 0.0
H526 H 0.08226 0.5594 0.51202 0.0
C527 C 0.96652 0.4883 0.43343 0.0
C528 C 0.93234 0.47568 0.45336 0.0
C529 C 0.92185 0.47824 0.51507 0.0
C530 C 0.94351 0.49507 0.55556 0.0
C531 C 0.97582 0.50893 0.53367 0.0
C532 C 0.98815 0.50477 0.47472 0.0
C533 C 0.02371 0.5224 0.46262 0.0
C534 C 0.05679 0.50146 0.4482 0.0
C535 C 0.01779 0.54516 0.4116 0.0
C536 C 0.02878 0.53766 0.52338 0.0
C537 C 1.00061 0.52991 0.56355 0.0
C538 C 0.99956 0.54113 0.62259 0.0
C539 C 0.02964 0.55901 0.64239 0.0
C540 C 0.06004 0.56535 0.60313 0.0
C541 C 0.05874 0.5555 0.54235 0.0
H542 H 0.09184 0.97879 0.98765 0.0
H543 H 0.05092 0.98022 0.17245 0.0
H544 H 0.9969 1.0111 0.141 0.0
H545 H 0.06842 0.0538 0.9507 0.0
H546 H 0.0544 0.0453 0.87417 0.0
H547 H 0.08882 0.02252 0.91169 0.0
H548 H 0.04722 0.97602 0.89035 0.0
H549 H 0.0132 0.99925 0.85282 0.0
H550 H 0.99876 0.97588 0.91493 0.0
H551 H 0.94991 0.04459 0.09086 0.0
H552 H 0.90596 0.07048 0.02217 0.0
H553 H 0.97591 0.04696 0.86868 0.0
C554 C 0.0708 0.98494 0.02095 0.0
C555 C 0.07448 0.976 0.08206 0.0
C556 C 0.04737 0.98537 0.12494 0.0
C557 C 0.01712 1.00355 0.10766 0.0
C558 C 0.01468 1.0125 0.04731 0.0
C559 C 0.04028 1.003 1.00427 0.0
C560 C 0.03067 1.0154 0.94219 0.0
C561 C 0.06249 0.03545 0.91836 0.0
C562 C 0.02192 0.99014 0.89743 0.0
C563 C 0.99566 0.03337 0.95705 0.0
C564 C 0.98745 0.03183 0.01826 0.0
C565 C 0.95619 0.04611 0.04297 0.0
C566 C 0.93168 0.06117 1.00377 0.0
C567 C 0.93838 0.06174 0.94058 0.0
C568 C 0.97111 0.04805 0.9171 0.0
H569 H 0.47121 0.04838 0.63778 0.0
H570 H 0.39001 0.05958 0.49328 0.0
H571 H 0.43043 0.03036 0.42442 0.0
H572 H 0.55722 0.05127 0.53701 0.0
H573 H 0.58129 0.02414 0.58277 0.0
H574 H 0.54801 0.04913 0.61722 0.0
H575 H 0.51182 1.00407 0.66035 0.0
H576 H 0.54383 0.97868 0.62404 0.0
H577 H 0.49395 0.97612 0.60936 0.0
H578 H 0.47561 0.99424 0.3756 0.0
H579 H 0.53075 0.96474 0.34206 0.0
H580 H 0.5824 0.97721 0.51803 0.0
C581 C 0.4632 0.04622 0.59063 0.0
C582 C 0.42815 0.05697 0.5701 0.0
C583 C 0.4174 0.05226 0.50906 0.0
C584 C 0.43984 0.03525 0.47 0.0
C585 C 0.47313 0.02328 0.49264 0.0
C586 C 0.48552 0.02945 0.55082 0.0
C587 C 0.52208 1.0134 0.56422 0.0
C588 C 0.55404 0.03581 0.57594 0.0
C589 C 0.51761 0.99179 0.61767 0.0
C590 C 0.52776 0.9968 0.50509 0.0
C591 C 0.49902 1.00249 0.46459 0.0
C592 C 0.49841 0.98975 0.40682 0.0
C593 C 0.52935 0.97241 0.38854 0.0
C594 C 0.5602 0.96809 0.42801 0.0
C595 C 0.5586 0.97952 0.48763 0.0
H596 H 0.33881 0.19249 0.82341 0.0
H597 H 0.45648 0.18639 0.77156 0.0
H598 H 0.47092 0.23044 0.83428 0.0
H599 H 0.33455 0.27193 0.81537 0.0
H600 H 0.30244 0.27553 0.87827 0.0
H601 H 0.3021 0.24234 0.83285 0.0
H602 H 0.31264 0.21072 0.92937 0.0
H603 H 0.31335 0.24387 0.97504 0.0
H604 H 0.35251 0.21844 0.97751 0.0
H605 H 0.47262 0.27535 0.90462 0.0
H606 H 0.4598 0.32082 0.96456 0.0
H607 H 0.34058 0.29968 0.96407 0.0
C608 C 0.36764 0.20035 0.82558 0.0
C609 C 0.39657 0.18585 0.79284 0.0
C610 C 0.43383 0.19714 0.79609 0.0
C611 C 0.44236 0.22205 0.83197 0.0
C612 C 0.41325 0.23581 0.86383 0.0
C613 C 0.37652 0.22563 0.86012 0.0
C614 C 0.34999 0.24566 0.89526 0.0
C615 C 0.32054 0.2597 0.8529 0.0
C616 C 0.33101 0.22865 0.94739 0.0
C617 C 0.37746 0.2687 0.91914 0.0
C618 C 0.41395 0.26236 0.90157 0.0
C619 C 0.44412 0.28052 0.91854 0.0
C620 C 0.43666 0.30618 0.95302 0.0
C621 C 0.39926 0.31372 0.96923 0.0
C622 C 0.36949 0.29445 0.95247 0.0
H623 H 0.16425 0.83762 0.32606 0.0
H624 H 0.04528 0.84748 0.28572 0.0
H625 H 0.03056 0.80565 0.35409 0.0
H626 H 0.16295 0.75802 0.32562 0.0
H627 H 0.1973 0.75454 0.38537 0.0
H628 H 0.1979 0.78658 0.33673 0.0
H629 H 0.19342 0.82072 0.43099 0.0
H630 H 0.19229 0.78872 0.47988 0.0
H631 H 0.15508 0.81587 0.48374 0.0
H632 H 0.02871 0.76242 0.4284 0.0
H633 H 0.04104 0.71721 0.48943 0.0
H634 H 0.16112 0.73359 0.47562 0.0
C635 C 0.13511 0.83103 0.33186 0.0
C636 C 0.10592 0.84594 0.30067 0.0
C637 C 0.06817 0.83633 0.30884 0.0
C638 C 0.05947 0.81273 0.34804 0.0
C639 C 0.08884 0.79857 0.37838 0.0
C640 C 0.12598 0.80704 0.36986 0.0
C641 C 0.1525 0.78673 0.40419 0.0
C642 C 0.17922 0.77051 0.36036 0.0
C643 C 0.17462 0.80405 0.45257 0.0
C644 C 0.12455 0.7655 0.43305 0.0
C645 C 0.0879 0.77301 0.41871 0.0
C646 C 0.05733 0.75638 0.43995 0.0
C647 C 0.06451 0.73089 0.47507 0.0
C648 C 0.10196 0.72206 0.48766 0.0
C649 C 0.13217 0.73996 0.46709 0.0
H650 H 0.8431 0.23114 0.06863 0.0
H651 H 0.96289 0.21289 0.05912 0.0
H652 H 0.97579 0.25901 0.11696 0.0
H653 H 0.85166 0.31259 0.05235 0.0
H654 H 0.81285 0.31952 0.10315 0.0
H655 H 0.8137 0.28613 0.0582 0.0
H656 H 0.80671 0.25473 0.15583 0.0
H657 H 0.80633 0.28796 0.20113 0.0
H658 H 0.8404 0.25926 0.2163 0.0
H659 H 0.9745 0.30408 0.18679 0.0
H660 H 0.96026 0.34794 0.25021 0.0
H661 H 0.84152 0.33896 0.20721 0.0
C662 C 0.87211 0.23718 0.07773 0.0
C663 C 0.90206 0.21853 0.05913 0.0
C664 C 0.9396 0.22706 0.07212 0.0
C665 C 0.94712 0.2531 0.10535 0.0
C666 C 0.91682 0.27064 0.12424 0.0
C667 C 0.8801 0.26336 0.10963 0.0
C668 C 0.85253 0.28584 0.13534 0.0
C669 C 0.83145 0.30198 0.08421 0.0
C670 C 0.82487 0.27106 0.17978 0.0
C671 C 0.87932 0.3066 0.16808 0.0
C672 C 0.91627 0.29729 0.16164 0.0
C673 C 0.94575 0.31181 0.19115 0.0
C674 C 0.93735 0.3366 0.22744 0.0
C675 C 0.89983 0.34702 0.23334 0.0
C676 C 0.87053 0.33178 0.20292 0.0
H677 H 0.67269 0.69772 0.70997 0.0
H678 H 0.55409 0.69082 0.75612 0.0
H679 H 0.54003 0.73342 0.68968 0.0
H680 H 0.67514 0.77762 0.71081 0.0
H681 H 0.70826 0.78012 0.64905 0.0
H682 H 0.7085 0.74813 0.69785 0.0
H683 H 0.7004 0.71401 0.60418 0.0
H684 H 0.69966 0.74596 0.55515 0.0
H685 H 0.66117 0.71984 0.55367 0.0
H686 H 0.53857 0.77658 0.61573 0.0
H687 H 0.55141 0.82085 0.55227 0.0
H688 H 0.67101 0.80149 0.5595 0.0
C689 C 0.64378 0.70519 0.70605 0.0
C690 C 0.61451 0.69083 0.73824 0.0
C691 C 0.57708 0.70152 0.7323 0.0
C692 C 0.56872 0.72558 0.69421 0.0
C693 C 0.59813 0.7391 0.66273 0.0
C694 C 0.635 0.72961 0.66908 0.0
C695 C 0.66167 0.74913 0.6331 0.0
C696 C 0.69006 0.76467 0.67522 0.0
C697 C 0.68191 0.73115 0.58359 0.0
C698 C 0.63409 0.77107 0.60575 0.0
C699 C 0.59747 0.76461 0.6224 0.0
C700 C 0.56717 0.78185 0.60246 0.0
C701 C 0.57464 0.8068 0.56599 0.0
C702 C 0.61213 0.81451 0.55071 0.0
C703 C 0.64203 0.79608 0.57033 0.0
H704 H 0.55197 0.71461 0.12711 0.0
H705 H 0.64452 0.71644 0.99807 0.0
H706 H 0.66607 0.76389 0.04195 0.0
H707 H 0.53317 0.79317 0.12793 0.0
H708 H 0.52266 0.79417 0.20783 0.0
H709 H 0.51405 0.76084 0.16494 0.0
H710 H 0.55584 0.73112 0.2396 0.0
H711 H 0.56473 0.76439 0.28256 0.0
H712 H 0.60362 0.74301 0.25332 0.0
H713 H 0.67833 0.81121 0.10236 0.0
H714 H 0.67928 0.85433 0.17125 0.0
H715 H 0.57916 0.82093 0.26175 0.0
C716 C 0.57679 0.72486 0.10768 0.0
C717 C 0.59618 0.71153 0.05839 0.0
C718 C 0.62849 0.7261 0.03479 0.0
C719 C 0.6412 0.75309 0.05987 0.0
C720 C 0.62144 0.76534 0.10861 0.0
C721 C 0.58983 0.75168 0.13208 0.0
C722 C 0.57365 0.76919 0.18483 0.0
C723 C 0.53351 0.77998 0.1705 0.0
C724 C 0.57453 0.75083 0.24354 0.0
C725 C 0.60118 0.79488 0.18772 0.0
C726 C 0.62855 0.79227 0.1434 0.0
C727 C 0.65698 0.81341 0.13713 0.0
C728 C 0.65728 0.83787 0.1767 0.0
C729 C 0.62935 0.84119 0.22235 0.0
C730 C 0.60107 0.81915 0.22775 0.0
H731 H 0.84148 0.3082 0.56828 0.0
H732 H 0.96135 0.32636 0.55889 0.0
H733 H 0.97393 0.28096 0.61912 0.0
H734 H 0.83846 0.28306 0.71745 0.0
H735 H 0.80415 0.25423 0.7045 0.0
H736 H 0.80484 0.28653 0.65662 0.0
H737 H 0.81166 0.25326 0.56146 0.0
H738 H 0.81041 0.22078 0.60899 0.0
H739 H 0.84936 0.22652 0.55783 0.0
H740 H 0.97223 0.23672 0.69083 0.0
H741 H 0.95761 0.19389 0.75657 0.0
H742 H 0.83877 0.20331 0.71428 0.0
C743 C 0.87046 0.30228 0.57784 0.0
C744 C 0.9005 0.32069 0.55865 0.0
C745 C 0.938 0.31233 0.57229 0.0
C746 C 0.94532 0.28672 0.60689 0.0
C747 C 0.91488 0.26952 0.62656 0.0
C748 C 0.87823 0.27665 0.61135 0.0
C749 C 0.8504 0.25486 0.63867 0.0
C750 C 0.82285 0.27062 0.68187 0.0
C751 C 0.82922 0.23784 0.58876 0.0
C752 C 0.87697 0.23466 0.67302 0.0
C753 C 0.91402 0.24358 0.66581 0.0
C754 C 0.94337 0.22932 0.69595 0.0
C755 C 0.93472 0.20512 0.73362 0.0
C756 C 0.89702 0.19512 0.74051 0.0
C757 C 0.86787 0.21019 0.70957 0.0
H758 H 0.0757 0.7105 0.77483 0.0
H759 H 0.17433 0.67683 0.86873 0.0
H760 H 0.17262 0.71995 0.93771 0.0
H761 H 0.10036 0.78784 0.7833 0.0
H762 H 0.05251 0.79994 0.79521 0.0
H763 H 0.06169 0.7664 0.75336 0.0
H764 H 0.01871 0.73702 0.827 0.0
H765 H 0.00949 0.77047 0.86917 0.0
H766 H 0.02808 0.73829 0.90725 0.0
H767 H 0.16016 0.76773 0.99691 0.0
H768 H 0.1386 0.81552 0.0391 0.0
H769 H 0.04744 0.81699 0.90756 0.0
C770 C 0.09708 0.71218 0.8097 0.0
C771 C 0.12521 0.69012 0.81596 0.0
C772 C 0.15244 0.6933 0.86268 0.0
C773 C 0.15172 0.71777 0.90227 0.0
C774 C 0.12352 0.739 0.89497 0.0
C775 C 0.09671 0.73641 0.84977 0.0
C776 C 0.06934 0.7622 0.85155 0.0
C777 C 0.0711 0.78016 0.79234 0.0
C778 C 0.02902 0.75134 0.86452 0.0
C779 C 0.08503 0.77979 0.90451 0.0
C780 C 0.11622 0.76609 0.92915 0.0
C781 C 0.13558 0.77854 0.97811 0.0
C782 C 0.12286 0.80573 1.0022 0.0
C783 C 0.09093 0.82032 0.97743 0.0
C784 C 0.07195 0.80677 0.92796 0.0
H785 H 0.33985 0.33329 0.32037 0.0
H786 H 0.45884 0.34182 0.27864 0.0
H787 H 0.47268 0.29842 0.3433 0.0
H788 H 0.34938 0.30797 0.47621 0.0
H789 H 0.31121 0.2817 0.47042 0.0
H790 H 0.31091 0.31483 0.42475 0.0
H791 H 0.30458 0.28297 0.32746 0.0
H792 H 0.30451 0.24982 0.37286 0.0
H793 H 0.33852 0.25409 0.31278 0.0
H794 H 0.47355 0.25353 0.41319 0.0
H795 H 0.46016 0.20741 0.47066 0.0
H796 H 0.34053 0.22636 0.46088 0.0
C797 C 0.36883 0.32614 0.32527 0.0
C798 C 0.39829 0.34107 0.29472 0.0
C799 C 0.43578 0.33069 0.30145 0.0
C800 C 0.44397 0.30618 0.33848 0.0
C801 C 0.41433 0.29192 0.36802 0.0
C802 C 0.37743 0.30126 0.36104 0.0
C803 C 0.35045 0.2807 0.39386 0.0
C804 C 0.32924 0.2973 0.4443 0.0
C805 C 0.3229 0.26603 0.34907 0.0
C806 C 0.37787 0.25829 0.42002 0.0
C807 C 0.41467 0.26542 0.40571 0.0
C808 C 0.44481 0.24776 0.42471 0.0
C809 C 0.43702 0.22173 0.45775 0.0
C810 C 0.39938 0.21339 0.47049 0.0
C811 C 0.36963 0.23224 0.45198 0.0
H812 H 0.71616 0.39714 0.14884 0.0
H813 H 0.72705 0.45608 0.30358 0.0
H814 H 0.65831 0.46278 0.3056 0.0
H815 H 0.63851 0.43868 0.07687 0.0
H816 H 0.61534 0.40562 0.04991 0.0
H817 H 0.66587 0.40619 0.05856 0.0
H818 H 0.66218 0.36006 0.12841 0.0
H819 H 0.61171 0.35934 0.11993 0.0
H820 H 0.63231 0.36108 0.19452 0.0
H821 H 0.58883 0.46072 0.29582 0.0
H822 H 0.52206 0.45106 0.27346 0.0
H823 H 0.55435 0.39514 0.12178 0.0
C824 C 0.7041 0.41158 0.18293 0.0
C825 C 0.72716 0.42575 0.22672 0.0
C826 C 0.71015 0.4446 0.27025 0.0
C827 C 0.67105 0.44873 0.27149 0.0
C828 C 0.64917 0.43422 0.22827 0.0
C829 C 0.66496 0.41624 0.18441 0.0
C830 C 0.63466 0.40292 0.14396 0.0
C831 C 0.63886 0.41402 0.07843 0.0
C832 C 0.63526 0.36883 0.14691 0.0
C833 C 0.59938 0.41547 0.17331 0.0
C834 C 0.60862 0.43363 0.2216 0.0
C835 C 0.58122 0.44678 0.2578 0.0
C836 C 0.54333 0.44102 0.24481 0.0
C837 C 0.53295 0.42235 0.19584 0.0
C838 C 0.56143 0.40975 0.15906 0.0
H839 H 0.95314 0.60718 0.66825 0.0
H840 H 0.99306 0.65476 0.82679 0.0
H841 H 0.92792 0.65911 0.86427 0.0
H842 H 0.86495 0.64729 0.64886 0.0
H843 H 0.838 0.61486 0.62854 0.0
H844 H 0.88772 0.61638 0.61208 0.0
H845 H 0.89777 0.56749 0.67149 0.0
H846 H 0.84807 0.56592 0.68814 0.0
H847 H 0.88194 0.56499 0.74898 0.0
H848 H 0.8595 0.65953 0.88441 0.0
H849 H 0.7906 0.65386 0.88905 0.0
H850 H 0.79292 0.603 0.72182 0.0
C851 C 0.94792 0.61875 0.71045 0.0
C852 C 0.97807 0.63087 0.74449 0.0
C853 C 0.97038 0.64532 0.80011 0.0
C854 C 0.93347 0.64796 0.82174 0.0
C855 C 0.90439 0.63561 0.78776 0.0
C856 C 0.91099 0.62107 0.73358 0.0
C857 C 0.87435 0.60884 0.70777 0.0
C858 C 0.86575 0.62268 0.64562 0.0
C859 C 0.87562 0.57479 0.70388 0.0
C860 C 0.84632 0.61918 0.75559 0.0
C861 C 0.86446 0.63472 0.80098 0.0
C862 C 0.84492 0.64727 0.84933 0.0
C863 C 0.80571 0.64396 0.85149 0.0
C864 C 0.78626 0.62784 0.80612 0.0
C865 C 0.807 0.61518 0.75758 0.0
H866 H 0.21343 0.13205 0.8767 0.0
H867 H 0.22458 0.08061 0.71109 0.0
H868 H 0.15592 0.07275 0.70938 0.0
H869 H 0.13749 0.08707 0.94235 0.0
H870 H 0.11377 0.11859 0.97505 0.0
H871 H 0.16422 0.1192 0.96535 0.0
H872 H 0.1589 0.16783 0.90321 0.0
H873 H 0.10851 0.16739 0.91288 0.0
H874 H 0.12847 0.16888 0.83781 0.0
H875 H 0.08654 0.07209 0.72245 0.0
H876 H 0.01982 0.07924 0.74839 0.0
H877 H 0.05223 0.13083 0.90644 0.0
C878 C 0.20145 0.11907 0.84015 0.0
C879 C 0.22449 0.107 0.79391 0.0
C880 C 0.20764 0.09011 0.74697 0.0
C881 C 0.16862 0.08544 0.74567 0.0
C882 C 0.14677 0.09764 0.79179 0.0
C883 C 0.16245 0.11406 0.83826 0.0
C884 C 0.13225 0.12526 0.88136 0.0
C885 C 0.13725 0.11172 0.94479 0.0
C886 C 0.13202 0.15936 0.88393 0.0
C887 C 0.0971 0.1133 0.85075 0.0
C888 C 0.10632 0.09716 0.79957 0.0
C889 C 0.07895 0.08455 0.76257 0.0
C890 C 0.04106 0.08884 0.77773 0.0
C891 C 0.03071 0.10568 0.82944 0.0
C892 C 0.05923 0.11774 0.86684 0.0
H893 H 0.46587 0.88296 0.23562 0.0
H894 H 0.46955 0.92343 0.41411 0.0
H895 H 0.40111 0.93328 0.40817 0.0
H896 H 0.39722 0.93199 0.16917 0.0
H897 H 0.37449 0.9028 0.12688 0.0
H898 H 0.42379 0.89997 0.14521 0.0
H899 H 0.41101 0.84903 0.19633 0.0
H900 H 0.36164 0.8522 0.17851 0.0
H901 H 0.37631 0.84655 0.25584 0.0
H902 H 0.33278 0.93984 0.38152 0.0
H903 H 0.26829 0.9392 0.34023 0.0
H904 H 0.3084 0.89234 0.18072 0.0
C905 C 0.45228 0.89388 0.27351 0.0
C906 C 0.47306 0.90257 0.32525 0.0
C907 C 0.45419 0.91655 0.37409 0.0
C908 C 0.41537 0.92234 0.371 0.0
C909 C 0.3958 0.91368 0.3191 0.0
C910 C 0.41351 0.89946 0.27152 0.0
C911 C 0.3858 0.89165 0.22168 0.0
C912 C 0.39594 0.90757 0.16224 0.0
C913 C 0.38356 0.85785 0.21259 0.0
C914 C 0.34967 0.90376 0.2486 0.0
C915 C 0.35618 0.91664 0.30454 0.0
C916 C 0.32733 0.92969 0.33792 0.0
C917 C 0.29077 0.92927 0.31391 0.0
C918 C 0.28321 0.9156 0.25726 0.0
C919 C 0.31321 0.90283 0.22419 0.0
H920 H 0.46211 0.60743 0.87962 0.0
H921 H 0.48818 0.60773 0.68731 0.0
H922 H 0.42021 0.60551 0.66374 0.0
H923 H 0.379 0.55816 0.87071 0.0
H924 H 0.35403 0.57858 0.92837 0.0
H925 H 0.40478 0.57685 0.9299 0.0
H926 H 0.40777 0.63429 0.93079 0.0
H927 H 0.35713 0.63624 0.92848 0.0
H928 H 0.38471 0.65489 0.8714 0.0
H929 H 0.34977 0.6075 0.66089 0.0
H930 H 0.2814 0.61245 0.67929 0.0
H931 H 0.3009 0.61123 0.87305 0.0
C932 C 0.45359 0.60643 0.83253 0.0
C933 C 0.48046 0.6077 0.78524 0.0
C934 C 0.46811 0.60675 0.72426 0.0
C935 C 0.42957 0.60546 0.71041 0.0
C936 C 0.40381 0.60509 0.75808 0.0
C937 C 0.41526 0.60535 0.81792 0.0
C938 C 0.3818 0.60654 0.86058 0.0
C939 C 0.37978 0.57835 0.89969 0.0
C940 C 0.38294 0.63467 0.90012 0.0
C941 C 0.34977 0.60768 0.81531 0.0
C942 C 0.36309 0.60646 0.75646 0.0
C943 C 0.33898 0.60798 0.70677 0.0
C944 C 0.30021 0.61057 0.71755 0.0
C945 C 0.28593 0.61164 0.77734 0.0
C946 C 0.3111 0.61039 0.82681 0.0
H947 H 0.21351 0.40132 0.37571 0.0
H948 H 0.22627 0.45113 0.20861 0.0
H949 H 0.15799 0.46157 0.20854 0.0
H950 H 0.12667 0.36707 0.34018 0.0
H951 H 0.10725 0.3698 0.41549 0.0
H952 H 0.15752 0.3679 0.40509 0.0
H953 H 0.16554 0.417 0.46527 0.0
H954 H 0.11519 0.41894 0.47582 0.0
H955 H 0.13999 0.44955 0.44159 0.0
H956 H 0.08856 0.4644 0.22266 0.0
H957 H 0.02157 0.45852 0.24858 0.0
H958 H 0.05228 0.40693 0.40718 0.0
C959 C 0.20199 0.41449 0.33913 0.0
C960 C 0.22537 0.42521 0.29179 0.0
C961 C 0.20906 0.44244 0.245 0.0
C962 C 0.1703 0.44862 0.24472 0.0
C963 C 0.1481 0.43757 0.29169 0.0
C964 C 0.16325 0.42093 0.33816 0.0
C965 C 0.13271 0.41096 0.38206 0.0
C966 C 0.13094 0.37691 0.3859 0.0
C967 C 0.13873 0.42494 0.44491 0.0
C968 C 0.09785 0.42361 0.35159 0.0
C969 C 0.10762 0.4393 0.30009 0.0
C970 C 0.08058 0.45231 0.26304 0.0
C971 C 0.04251 0.44874 0.27816 0.0
C972 C 0.03151 0.43213 0.32979 0.0
C973 C 0.05973 0.41988 0.36763 0.0
H974 H 0.80101 0.93862 0.15117 0.0
H975 H 0.78039 0.92876 0.34366 0.0
H976 H 0.84804 0.93527 0.36438 0.0
H977 H 0.88304 0.89608 0.14782 0.0
H978 H 0.90729 0.91839 0.09233 0.0
H979 H 0.85662 0.91741 0.09333 0.0
H980 H 0.85504 0.97471 0.10269 0.0
H981 H 0.90585 0.97589 0.10238 0.0
H982 H 0.87995 0.99258 0.16383 0.0
H983 H 0.9179 0.93794 0.36388 0.0
H984 H 0.98583 0.93352 0.34168 0.0
H985 H 0.96195 0.94044 0.14917 0.0
C986 C 0.81078 0.93822 0.19765 0.0
C987 C 0.78538 0.93403 0.24615 0.0
C988 C 0.79919 0.93317 0.30626 0.0
C989 C 0.83762 0.93666 0.31838 0.0
C990 C 0.86196 0.94091 0.26973 0.0
C991 C 0.8492 0.94163 0.21051 0.0
C992 C 0.88174 0.94392 0.16631 0.0
C993 C 0.88219 0.91737 0.1224 0.0
C994 C 0.88057 0.97354 0.13177 0.0
C995 C 0.9147 0.94296 0.2099 0.0
C996 C 0.90265 0.94189 0.26937 0.0
C997 C 0.92779 0.93914 0.31754 0.0
C998 C 0.96632 0.93663 0.3045 0.0
C999 C 0.97914 0.93653 0.24377 0.0
C1000 C 0.953 0.94053 0.19611 0.0
H1001 H 0.54877 0.12307 0.62093 0.0
H1002 H 0.5163 0.08303 0.79216 0.0
H1003 H 0.58294 0.07961 0.82169 0.0
H1004 H 0.63634 0.0789 0.60111 0.0
H1005 H 0.66138 0.10976 0.56812 0.0
H1006 H 0.61109 0.10666 0.55872 0.0
H1007 H 0.60358 0.15955 0.60385 0.0
H1008 H 0.65378 0.16224 0.61457 0.0
H1009 H 0.62244 0.16742 0.67803 0.0
H1010 H 0.65233 0.08401 0.8371 0.0
H1011 H 0.72071 0.09371 0.83463 0.0
H1012 H 0.70975 0.12981 0.65304 0.0
C1013 C 0.55575 0.11321 0.66422 0.0
C1014 C 0.52713 0.10347 0.70427 0.0
C1015 C 0.53753 0.0908 0.76066 0.0
C1016 C 0.57541 0.08869 0.77795 0.0
C1017 C 0.60285 0.0991 0.73825 0.0
C1018 C 0.59367 0.11082 0.68227 0.0
C1019 C 0.62883 0.12113 0.64914 0.0
C1020 C 0.63477 0.10302 0.59083 0.0
C1021 C 0.62703 0.15457 0.63563 0.0
C1022 C 0.65893 0.11416 0.69602 0.0
C1023 C 0.64326 0.10129 0.74691 0.0
C1024 C 0.66502 0.09377 0.7972 0.0
C1025 C 0.7039 0.09941 0.79541 0.0
C1026 C 0.72079 0.11241 0.74364 0.0
C1027 C 0.69781 0.11981 0.69332 0.0
loop_
_geom_bond_atom_site_label_1
_geom_bond_atom_site_label_2
_geom_bond_distance
_geom_bond_site_symmetry_2
_ccdc_geom_bond_type
Zn0 N4 2.020 . S
Zn0 O8 2.019 . S
Zn0 N10 2.119 . S
Zn0 O18 1.975 . S
C1 N2 1.334 . S
C1 N5 1.336 . S
N2 C1 1.334 . S
N2 C3 1.334 . S
C3 N2 1.334 . S
C3 N4 1.336 . S
N4 Zn0 2.020 . S
N4 C3 1.336 . S
N4 N5 1.354 . S
N5 C1 1.336 . S
N5 N4 1.354 . S
N5 Zn9 2.020 . S
C6 O7 1.244 . S
C6 O30 1.257 . S
O7 C6 1.244 . S
O8 Zn0 2.019 . S
O8 C28 1.257 . S
Zn9 N5 2.020 . S
Zn9 O16 1.975 . S
Zn9 N25 2.119 . S
Zn9 O30 2.019 . S
N10 Zn0 2.119 . S
N10 C12 1.334 . S
N10 C13 1.328 . S
C11 C12 1.391 . S
C11 N14 1.329 . S
C11 H32 0.930 . S
C12 N10 1.334 . S
C12 C11 1.391 . S
C12 H19 0.930 . S
C13 N10 1.328 . S
C13 C15 1.392 . S
C13 H20 0.930 . S
N14 C11 1.329 . S
N14 C15 1.331 . S
C15 C13 1.392 . S
C15 N14 1.331 . S
O16 Zn9 1.975 . S
O16 C17 1.252 . S
C17 O16 1.252 . S
C17 O18 1.252 . S
O18 Zn0 1.975 . S
O18 C17 1.252 . S
H19 C12 0.930 . S
H20 C13 0.930 . S
C21 C22 1.392 . S
C21 N25 1.328 . S
C21 H27 0.930 . S
C22 C21 1.392 . S
C22 N26 1.331 . S
C23 C24 1.391 . S
C23 N26 1.329 . S
C23 H33 0.930 . S
C24 C23 1.391 . S
C24 N25 1.334 . S
C24 H31 0.930 . S
N25 Zn9 2.119 . S
N25 C21 1.328 . S
N25 C24 1.334 . S
N26 C22 1.331 . S
N26 C23 1.329 . S
H27 C21 0.930 . S
C28 O8 1.257 . S
C28 O29 1.244 . S
O29 C28 1.244 . S
O30 C6 1.257 . S
O30 Zn9 2.019 . S
H31 C24 0.930 . S
H32 C11 0.930 . S
H33 C23 0.930 . S
Zn34 N38 2.020 . S
Zn34 O42 2.019 . S
Zn34 N44 2.119 . S
Zn34 O52 1.975 . S
C35 N36 1.334 . S
C35 N39 1.336 . S
N36 C35 1.334 . S
N36 C37 1.334 . S
C37 N36 1.334 . S
C37 N38 1.336 . S
N38 Zn34 2.020 . S
N38 C37 1.336 . S
N38 N39 1.354 . S
N39 C35 1.336 . S
N39 N38 1.354 . S
N39 Zn43 2.020 . S
C40 O41 1.244 1_655 S
C40 O64 1.257 1_655 S
O41 C40 1.244 1_455 S
O42 Zn34 2.019 . S
O42 C62 1.257 . S
Zn43 N39 2.020 . S
Zn43 O50 1.975 . S
Zn43 N59 2.119 . S
Zn43 O64 2.019 . S
N44 Zn34 2.119 . S
N44 C46 1.334 . S
N44 C47 1.328 . S
C45 C46 1.391 . S
C45 N48 1.329 . S
C45 H66 0.930 . S
C46 N44 1.334 . S
C46 C45 1.391 . S
C46 H53 0.930 . S
C47 N44 1.328 . S
C47 C49 1.392 . S
C47 H54 0.930 . S
N48 C45 1.329 . S
N48 C49 1.331 . S
C49 C47 1.392 . S
C49 N48 1.331 . S
O50 Zn43 1.975 . S
O50 C51 1.252 . S
C51 O50 1.252 . S
C51 O52 1.252 . S
O52 Zn34 1.975 . S
O52 C51 1.252 . S
H53 C46 0.930 . S
H54 C47 0.930 . S
C55 C56 1.392 . S
C55 N59 1.328 . S
C55 H61 0.930 . S
C56 C55 1.392 . S
C56 N60 1.331 . S
C57 C58 1.391 . S
C57 N60 1.329 . S
C57 H67 0.930 . S
C58 C57 1.391 . S
C58 N59 1.334 . S
C58 H65 0.930 . S
N59 Zn43 2.119 . S
N59 C55 1.328 . S
N59 C58 1.334 . S
N60 C56 1.331 . S
N60 C57 1.329 . S
H61 C55 0.930 . S
C62 O42 1.257 . S
C62 O63 1.244 . S
O63 C62 1.244 . S
O64 C40 1.257 1_455 S
O64 Zn43 2.019 . S
H65 C58 0.930 . S
H66 C45 0.930 . S
H67 C57 0.930 . S
Zn68 N72 2.020 . S
Zn68 O76 2.019 . S
Zn68 N78 2.119 . S
Zn68 O86 1.975 . S
C69 N70 1.334 . S
C69 N73 1.336 . S
N70 C69 1.334 . S
N70 C71 1.334 . S
C71 N70 1.334 . S
C71 N72 1.336 . S
N72 Zn68 2.020 . S
N72 C71 1.336 . S
N72 N73 1.354 . S
N73 C69 1.336 . S
N73 N72 1.354 . S
N73 Zn77 2.020 . S
C74 O75 1.244 . S
C74 O98 1.257 . S
O75 C74 1.244 . S
O76 Zn68 2.019 . S
O76 C96 1.257 1_655 S
Zn77 N73 2.020 . S
Zn77 O84 1.975 . S
Zn77 N93 2.119 . S
Zn77 O98 2.019 . S
N78 Zn68 2.119 . S
N78 C80 1.334 . S
N78 C81 1.328 . S
C79 C80 1.391 . S
C79 N82 1.329 . S
C79 H100 0.930 . S
C80 N78 1.334 . S
C80 C79 1.391 . S
C80 H87 0.930 . S
C81 N78 1.328 . S
C81 C83 1.392 . S
C81 H88 0.930 . S
N82 C79 1.329 . S
N82 C83 1.331 . S
C83 C81 1.392 . S
C83 N82 1.331 . S
O84 Zn77 1.975 . S
O84 C85 1.252 . S
C85 O84 1.252 . S
C85 O86 1.252 . S
O86 Zn68 1.975 . S
O86 C85 1.252 . S
H87 C80 0.930 . S
H88 C81 0.930 . S
C89 C90 1.392 . S
C89 N93 1.328 . S
C89 H95 0.930 . S
C90 C89 1.392 . S
C90 N94 1.331 . S
C91 C92 1.391 . S
C91 N94 1.329 . S
C91 H101 0.930 . S
C92 C91 1.391 . S
C92 N93 1.334 . S
C92 H99 0.930 . S
N93 Zn77 2.119 . S
N93 C89 1.328 . S
N93 C92 1.334 . S
N94 C90 1.331 . S
N94 C91 1.329 . S
H95 C89 0.930 . S
C96 O76 1.257 1_455 S
C96 O97 1.244 1_455 S
O97 C96 1.244 1_655 S
O98 C74 1.257 . S
O98 Zn77 2.019 . S
H99 C92 0.930 . S
H100 C79 0.930 . S
H101 C91 0.930 . S
Zn102 N106 2.020 . S
Zn102 O110 2.019 . S
Zn102 N112 2.119 . S
Zn102 O120 1.975 . S
C103 N104 1.334 . S
C103 N107 1.336 . S
N104 C103 1.334 . S
N104 C105 1.334 . S
C105 N104 1.334 . S
C105 N106 1.336 . S
N106 Zn102 2.020 . S
N106 C105 1.336 . S
N106 N107 1.354 . S
N107 C103 1.336 . S
N107 N106 1.354 . S
N107 Zn111 2.020 . S
C108 O109 1.244 . S
C108 O132 1.257 . S
O109 C108 1.244 . S
O110 Zn102 2.019 . S
O110 C130 1.257 . S
Zn111 N107 2.020 . S
Zn111 O118 1.975 . S
Zn111 N127 2.119 . S
Zn111 O132 2.019 . S
N112 Zn102 2.119 . S
N112 C114 1.334 . S
N112 C115 1.328 . S
C113 C114 1.391 . S
C113 N116 1.329 . S
C113 H134 0.930 . S
C114 N112 1.334 . S
C114 C113 1.391 . S
C114 H121 0.930 . S
C115 N112 1.328 . S
C115 C117 1.392 . S
C115 H122 0.930 . S
N116 C113 1.329 . S
N116 C117 1.331 . S
C117 C115 1.392 . S
C117 N116 1.331 . S
O118 Zn111 1.975 . S
O118 C119 1.252 . S
C119 O118 1.252 . S
C119 O120 1.252 . S
O120 Zn102 1.975 . S
O120 C119 1.252 . S
H121 C114 0.930 . S
H122 C115 0.930 . S
C123 C124 1.392 . S
C123 N127 1.328 . S
C123 H129 0.930 . S
C124 C123 1.392 . S
C124 N128 1.331 . S
C125 C126 1.391 . S
C125 N128 1.329 . S
C125 H135 0.930 . S
C126 C125 1.391 . S
C126 N127 1.334 . S
C126 H133 0.930 . S
N127 Zn111 2.119 . S
N127 C123 1.328 . S
N127 C126 1.334 . S
N128 C124 1.331 . S
N128 C125 1.329 . S
H129 C123 0.930 . S
C130 O110 1.257 . S
C130 O131 1.244 . S
O131 C130 1.244 . S
O132 C108 1.257 . S
O132 Zn111 2.019 . S
H133 C126 0.930 . S
H134 C113 0.930 . S
H135 C125 0.930 . S
Zn136 N140 2.020 . S
Zn136 O144 2.019 . S
Zn136 N146 2.119 . S
Zn136 O154 1.975 . S
C137 N138 1.334 . S
C137 N141 1.336 . S
N138 C137 1.334 . S
N138 C139 1.334 . S
C139 N138 1.334 . S
C139 N140 1.336 . S
N140 Zn136 2.020 . S
N140 C139 1.336 . S
N140 N141 1.354 . S
N141 C137 1.336 . S
N141 N140 1.354 . S
N141 Zn145 2.020 . S
C142 O143 1.244 . S
C142 O166 1.257 . S
O143 C142 1.244 . S
O144 Zn136 2.019 . S
O144 C164 1.257 . S
Zn145 N141 2.020 . S
Zn145 O152 1.975 . S
Zn145 N161 2.119 . S
Zn145 O166 2.019 . S
N146 Zn136 2.119 . S
N146 C148 1.334 . S
N146 C149 1.328 . S
C147 C148 1.391 . S
C147 N150 1.329 . S
C147 H168 0.930 . S
C148 N146 1.334 . S
C148 C147 1.391 . S
C148 H155 0.930 . S
C149 N146 1.328 . S
C149 C151 1.392 . S
C149 H156 0.930 . S
N150 C147 1.329 . S
N150 C151 1.331 . S
C151 C149 1.392 . S
C151 N150 1.331 . S
O152 Zn145 1.975 . S
O152 C153 1.252 . S
C153 O152 1.252 . S
C153 O154 1.252 . S
O154 Zn136 1.975 . S
O154 C153 1.252 . S
H155 C148 0.930 . S
H156 C149 0.930 . S
C157 C158 1.392 . S
C157 N161 1.328 . S
C157 H163 0.930 . S
C158 C157 1.392 . S
C158 N162 1.331 . S
C159 C160 1.391 . S
C159 N162 1.329 . S
C159 H169 0.930 . S
C160 C159 1.391 . S
C160 N161 1.334 . S
C160 H167 0.930 . S
N161 Zn145 2.119 . S
N161 C157 1.328 . S
N161 C160 1.334 . S
N162 C158 1.331 . S
N162 C159 1.329 . S
H163 C157 0.930 . S
C164 O144 1.257 . S
C164 O165 1.244 . S
O165 C164 1.244 . S
O166 C142 1.257 . S
O166 Zn145 2.019 . S
H167 C160 0.930 . S
H168 C147 0.930 . S
H169 C159 0.930 . S
Zn170 N174 2.020 . S
Zn170 O178 2.019 . S
Zn170 N180 2.119 . S
Zn170 O188 1.975 . S
C171 N172 1.334 . S
C171 N175 1.336 . S
N172 C171 1.334 . S
N172 C173 1.334 . S
C173 N172 1.334 . S
C173 N174 1.336 . S
N174 Zn170 2.020 . S
N174 C173 1.336 . S
N174 N175 1.354 . S
N175 C171 1.336 . S
N175 N174 1.354 . S
N175 Zn179 2.020 . S
C176 O177 1.244 . S
C176 O200 1.257 . S
O177 C176 1.244 . S
O178 Zn170 2.019 . S
O178 C198 1.257 1_655 S
Zn179 N175 2.020 . S
Zn179 O186 1.975 . S
Zn179 N195 2.119 . S
Zn179 O200 2.019 . S
N180 Zn170 2.119 . S
N180 C182 1.334 . S
N180 C183 1.328 . S
C181 C182 1.391 . S
C181 N184 1.329 . S
C181 H202 0.930 . S
C182 N180 1.334 . S
C182 C181 1.391 . S
C182 H189 0.930 . S
C183 N180 1.328 . S
C183 C185 1.392 . S
C183 H190 0.930 . S
N184 C181 1.329 . S
N184 C185 1.331 . S
C185 C183 1.392 . S
C185 N184 1.331 . S
O186 Zn179 1.975 . S
O186 C187 1.252 . S
C187 O186 1.252 . S
C187 O188 1.252 . S
O188 Zn170 1.975 . S
O188 C187 1.252 . S
H189 C182 0.930 . S
H190 C183 0.930 . S
C191 C192 1.392 . S
C191 N195 1.328 . S
C191 H197 0.930 . S
C192 C191 1.392 . S
C192 N196 1.331 . S
C193 C194 1.391 . S
C193 N196 1.329 . S
C193 H203 0.930 . S
C194 C193 1.391 . S
C194 N195 1.334 . S
C194 H201 0.930 . S
N195 Zn179 2.119 . S
N195 C191 1.328 . S
N195 C194 1.334 . S
N196 C192 1.331 . S
N196 C193 1.329 . S
H197 C191 0.930 . S
C198 O178 1.257 1_455 S
C198 O199 1.244 1_455 S
O199 C198 1.244 1_655 S
O200 C176 1.257 . S
O200 Zn179 2.019 . S
H201 C194 0.930 . S
H202 C181 0.930 . S
H203 C193 0.930 . S
Zn204 N208 2.020 . S
Zn204 O212 2.019 . S
Zn204 N214 2.119 . S
Zn204 O222 1.975 . S
C205 N206 1.334 . S
C205 N209 1.336 . S
N206 C205 1.334 . S
N206 C207 1.334 . S
C207 N206 1.334 . S
C207 N208 1.336 . S
N208 Zn204 2.020 . S
N208 C207 1.336 . S
N208 N209 1.354 . S
N209 C205 1.336 . S
N209 N208 1.354 . S
N209 Zn213 2.020 . S
C210 O211 1.244 1_655 S
C210 O234 1.257 1_655 S
O211 C210 1.244 1_455 S
O212 Zn204 2.019 . S
O212 C232 1.257 . S
Zn213 N209 2.020 . S
Zn213 O220 1.975 . S
Zn213 N229 2.119 . S
Zn213 O234 2.019 . S
N214 Zn204 2.119 . S
N214 C216 1.334 . S
N214 C217 1.328 . S
C215 C216 1.391 . S
C215 N218 1.329 . S
C215 H236 0.930 . S
C216 N214 1.334 . S
C216 C215 1.391 . S
C216 H223 0.930 . S
C217 N214 1.328 . S
C217 C219 1.392 . S
C217 H224 0.930 . S
N218 C215 1.329 . S
N218 C219 1.331 . S
C219 C217 1.392 . S
C219 N218 1.331 . S
O220 Zn213 1.975 . S
O220 C221 1.252 . S
C221 O220 1.252 . S
C221 O222 1.252 . S
O222 Zn204 1.975 . S
O222 C221 1.252 . S
H223 C216 0.930 . S
H224 C217 0.930 . S
C225 C226 1.392 . S
C225 N229 1.328 . S
C225 H231 0.930 . S
C226 C225 1.392 . S
C226 N230 1.331 . S
C227 C228 1.391 . S
C227 N230 1.329 . S
C227 H237 0.930 . S
C228 C227 1.391 . S
C228 N229 1.334 . S
C228 H235 0.930 . S
N229 Zn213 2.119 . S
N229 C225 1.328 . S
N229 C228 1.334 . S
N230 C226 1.331 . S
N230 C227 1.329 . S
H231 C225 0.930 . S
C232 O212 1.257 . S
C232 O233 1.244 . S
O233 C232 1.244 . S
O234 C210 1.257 1_455 S
O234 Zn213 2.019 . S
H235 C228 0.930 . S
H236 C215 0.930 . S
H237 C227 0.930 . S
Zn238 N242 2.020 . S
Zn238 O246 2.019 . S
Zn238 N248 2.119 . S
Zn238 O256 1.975 . S
C239 N240 1.334 . S
C239 N243 1.336 . S
N240 C239 1.334 . S
N240 C241 1.334 . S
C241 N240 1.334 . S
C241 N242 1.336 . S
N242 Zn238 2.020 . S
N242 C241 1.336 . S
N242 N243 1.354 . S
N243 C239 1.336 . S
N243 N242 1.354 . S
N243 Zn247 2.020 . S
C244 O245 1.244 . S
C244 O268 1.257 . S
O245 C244 1.244 . S
O246 Zn238 2.019 . S
O246 C266 1.257 . S
Zn247 N243 2.020 . S
Zn247 O254 1.975 . S
Zn247 N263 2.119 . S
Zn247 O268 2.019 . S
N248 Zn238 2.119 . S
N248 C250 1.334 . S
N248 C251 1.328 . S
C249 C250 1.391 . S
C249 N252 1.329 . S
C249 H270 0.930 . S
C250 N248 1.334 . S
C250 C249 1.391 . S
C250 H257 0.930 . S
C251 N248 1.328 . S
C251 C253 1.392 . S
C251 H258 0.930 . S
N252 C249 1.329 . S
N252 C253 1.331 . S
C253 C251 1.392 . S
C253 N252 1.331 . S
O254 Zn247 1.975 . S
O254 C255 1.252 . S
C255 O254 1.252 . S
C255 O256 1.252 . S
O256 Zn238 1.975 . S
O256 C255 1.252 . S
H257 C250 0.930 . S
H258 C251 0.930 . S
C259 C260 1.392 . S
C259 N263 1.328 . S
C259 H265 0.930 . S
C260 C259 1.392 . S
C260 N264 1.331 . S
C261 C262 1.391 . S
C261 N264 1.329 . S
C261 H271 0.930 . S
C262 C261 1.391 . S
C262 N263 1.334 . S
C262 H269 0.930 . S
N263 Zn247 2.119 . S
N263 C259 1.328 . S
N263 C262 1.334 . S
N264 C260 1.331 . S
N264 C261 1.329 . S
H265 C259 0.930 . S
C266 O246 1.257 . S
C266 O267 1.244 . S
O267 C266 1.244 . S
O268 C244 1.257 . S
O268 Zn247 2.019 . S
H269 C262 0.930 . S
H270 C249 0.930 . S
H271 C261 0.930 . S
H272 C284 0.930 . S
H273 C286 0.930 . S
H274 C287 0.930 . S
H275 C291 0.959 . S
H276 C291 0.959 . S
H277 C291 0.961 . S
H278 C292 0.960 . S
H279 C292 0.961 . S
H280 C292 0.959 . S
H281 C295 0.929 . S
H282 C296 0.931 . S
H283 C298 0.930 . S
C284 H272 0.930 . S
C284 C285 1.399 . S
C284 C289 1.399 . S
C285 C284 1.399 . S
C285 C286 1.376 . S
C286 H273 0.930 . S
C286 C285 1.376 . S
C286 C287 1.388 . S
C287 H274 0.930 . S
C287 C286 1.388 . S
C287 C288 1.390 . S
C288 C287 1.390 . S
C288 C289 1.394 . S
C288 C294 1.465 . S
C289 C284 1.399 . S
C289 C288 1.394 . S
C289 C290 1.516 . S
C290 C289 1.516 . S
C290 C291 1.502 1_554 S
C290 C292 1.561 . S
C290 C293 1.526 1_554 S
C291 H275 0.959 . S
C291 H276 0.959 . S
C291 H277 0.961 . S
C291 C290 1.502 1_556 S
C292 H278 0.960 . S
C292 H279 0.961 . S
C292 H280 0.959 . S
C292 C290 1.561 . S
C293 C290 1.526 1_556 S
C293 C294 1.396 1_556 S
C293 C298 1.390 . S
C294 C288 1.465 . S
C294 C293 1.396 1_554 S
C294 C295 1.399 . S
C295 H281 0.929 . S
C295 C294 1.399 . S
C295 C296 1.385 1_554 S
C296 H282 0.931 . S
C296 C295 1.385 1_556 S
C296 C297 1.389 . S
C297 C296 1.389 . S
C297 C298 1.387 . S
C298 H283 0.930 . S
C298 C293 1.390 . S
C298 C297 1.387 . S
H299 C311 0.930 . S
H300 C313 0.930 . S
H301 C314 0.930 . S
H302 C318 0.959 . S
H303 C318 0.959 . S
H304 C318 0.961 . S
H305 C319 0.960 . S
H306 C319 0.961 . S
H307 C319 0.959 . S
H308 C322 0.929 . S
H309 C323 0.931 . S
H310 C325 0.930 . S
C311 H299 0.930 . S
C311 C312 1.399 . S
C311 C316 1.399 . S
C312 C311 1.399 . S
C312 C313 1.376 . S
C313 H300 0.930 . S
C313 C312 1.376 . S
C313 C314 1.388 . S
C314 H301 0.930 . S
C314 C313 1.388 . S
C314 C315 1.390 . S
C315 C314 1.390 . S
C315 C316 1.394 . S
C315 C321 1.465 . S
C316 C311 1.399 . S
C316 C315 1.394 . S
C316 C317 1.516 . S
C317 C316 1.516 . S
C317 C318 1.502 . S
C317 C319 1.561 . S
C317 C320 1.526 . S
C318 H302 0.959 . S
C318 H303 0.959 . S
C318 H304 0.961 . S
C318 C317 1.502 . S
C319 H305 0.960 . S
C319 H306 0.961 . S
C319 H307 0.959 . S
C319 C317 1.561 . S
C320 C317 1.526 . S
C320 C321 1.396 . S
C320 C325 1.390 . S
C321 C315 1.465 . S
C321 C320 1.396 . S
C321 C322 1.399 . S
C322 H308 0.929 . S
C322 C321 1.399 . S
C322 C323 1.385 . S
C323 H309 0.931 . S
C323 C322 1.385 . S
C323 C324 1.389 . S
C324 C323 1.389 . S
C324 C325 1.387 . S
C325 H310 0.930 . S
C325 C320 1.390 . S
C325 C324 1.387 . S
H326 C338 0.930 . S
H327 C340 0.930 . S
H328 C341 0.930 . S
H329 C345 0.959 . S
H330 C345 0.959 . S
H331 C345 0.961 . S
H332 C346 0.960 . S
H333 C346 0.961 . S
H334 C346 0.959 . S
H335 C349 0.929 1_545 S
H336 C350 0.929 1_556 S
H337 C352 0.930 . S
C338 H326 0.930 . S
C338 C339 1.399 . S
C338 C343 1.399 . S
C339 C338 1.399 . S
C339 C340 1.376 . S
C340 H327 0.930 . S
C340 C339 1.376 . S
C340 C341 1.388 . S
C341 H328 0.930 . S
C341 C340 1.388 . S
C341 C342 1.390 . S
C342 C341 1.390 . S
C342 C343 1.394 . S
C342 C348 1.465 . S
C343 C338 1.399 . S
C343 C342 1.394 . S
C343 C344 1.516 1_556 S
C344 C343 1.516 1_554 S
C344 C345 1.502 1_545 S
C344 C346 1.561 . S
C344 C347 1.533 . S
C345 H329 0.959 . S
C345 H330 0.959 . S
C345 H331 0.961 . S
C345 C344 1.502 1_565 S
C346 H332 0.960 . S
C346 H333 0.961 . S
C346 H334 0.959 . S
C346 C344 1.561 . S
C347 C344 1.533 . S
C347 C348 1.400 1_554 S
C347 C352 1.380 1_545 S
C348 C342 1.465 . S
C348 C347 1.400 1_556 S
C348 C349 1.399 1_545 S
C349 H335 0.929 1_565 S
C349 C348 1.399 1_565 S
C349 C350 1.385 1_556 S
C350 H336 0.929 1_554 S
C350 C349 1.385 1_554 S
C350 C351 1.389 . S
C351 C350 1.389 . S
C351 C352 1.387 . S
C352 H337 0.930 . S
C352 C347 1.380 1_565 S
C352 C351 1.387 . S
H353 C365 0.930 . S
H354 C367 0.930 . S
H355 C368 0.930 . S
H356 C372 0.959 . S
H357 C372 0.959 . S
H358 C372 0.961 . S
H359 C373 0.960 . S
H360 C373 0.961 . S
H361 C373 0.959 . S
H362 C376 0.929 . S
H363 C377 0.931 . S
H364 C379 0.930 . S
C365 H353 0.930 . S
C365 C366 1.399 . S
C365 C370 1.399 . S
C366 C365 1.399 . S
C366 C367 1.376 . S
C367 H354 0.930 . S
C367 C366 1.376 . S
C367 C368 1.388 . S
C368 H355 0.930 . S
C368 C367 1.388 . S
C368 C369 1.390 . S
C369 C368 1.390 . S
C369 C370 1.394 . S
C369 C375 1.465 . S
C370 C365 1.399 . S
C370 C369 1.394 . S
C370 C371 1.516 1_565 S
C371 C370 1.516 1_545 S
C371 C372 1.502 . S
C371 C373 1.561 . S
C371 C374 1.526 . S
C372 H356 0.959 . S
C372 H357 0.959 . S
C372 H358 0.961 . S
C372 C371 1.502 . S
C373 H359 0.960 . S
C373 H360 0.961 . S
C373 H361 0.959 . S
C373 C371 1.561 . S
C374 C371 1.526 . S
C374 C375 1.396 1_545 S
C374 C379 1.390 . S
C375 C369 1.465 . S
C375 C374 1.396 1_565 S
C375 C376 1.399 . S
C376 H362 0.929 . S
C376 C375 1.399 . S
C376 C377 1.385 . S
C377 H363 0.931 . S
C377 C376 1.385 . S
C377 C378 1.389 1_565 S
C378 C377 1.389 1_545 S
C378 C379 1.387 . S
C379 H364 0.930 . S
C379 C374 1.390 . S
C379 C378 1.387 . S
H380 C392 0.930 . S
H381 C394 0.930 . S
H382 C395 0.930 . S
H383 C399 0.959 . S
H384 C399 0.959 . S
H385 C399 0.961 . S
H386 C400 0.960 . S
H387 C400 0.961 . S
H388 C400 0.959 . S
H389 C403 0.929 1_556 S
H390 C404 0.931 . S
H391 C406 0.930 . S
C392 H380 0.930 . S
C392 C393 1.399 . S
C392 C397 1.399 . S
C393 C392 1.399 . S
C393 C394 1.376 . S
C394 H381 0.930 . S
C394 C393 1.376 . S
C394 C395 1.388 . S
C395 H382 0.930 . S
C395 C394 1.388 . S
C395 C396 1.390 . S
C396 C395 1.390 . S
C396 C397 1.394 . S
C396 C402 1.465 . S
C397 C392 1.399 . S
C397 C396 1.394 . S
C397 C398 1.516 . S
C398 C397 1.516 . S
C398 C399 1.502 . S
C398 C400 1.561 1_556 S
C398 C401 1.526 1_556 S
C399 H383 0.959 . S
C399 H384 0.959 . S
C399 H385 0.961 . S
C399 C398 1.502 . S
C400 H386 0.960 . S
C400 H387 0.961 . S
C400 H388 0.959 . S
C400 C398 1.561 1_554 S
C401 C398 1.526 1_554 S
C401 C402 1.396 1_554 S
C401 C406 1.390 . S
C402 C396 1.465 . S
C402 C401 1.396 1_556 S
C402 C403 1.399 1_556 S
C403 H389 0.929 1_554 S
C403 C402 1.399 1_554 S
C403 C404 1.385 . S
C404 H390 0.931 . S
C404 C403 1.385 . S
C404 C405 1.389 . S
C405 C404 1.389 . S
C405 C406 1.387 . S
C406 H391 0.930 . S
C406 C401 1.390 . S
C406 C405 1.387 . S
H407 C419 0.930 . S
H408 C421 0.930 . S
H409 C422 0.930 . S
H410 C426 0.959 . S
H411 C426 0.959 . S
H412 C426 0.961 . S
H413 C427 0.960 . S
H414 C427 0.961 . S
H415 C427 0.959 . S
H416 C430 0.929 . S
H417 C431 0.931 . S
H418 C433 0.930 . S
C419 H407 0.930 . S
C419 C420 1.399 . S
C419 C424 1.399 . S
C420 C419 1.399 . S
C420 C421 1.376 . S
C421 H408 0.930 . S
C421 C420 1.376 . S
C421 C422 1.388 . S
C422 H409 0.930 . S
C422 C421 1.388 . S
C422 C423 1.390 . S
C423 C422 1.390 . S
C423 C424 1.394 . S
C423 C429 1.465 . S
C424 C419 1.399 . S
C424 C423 1.394 . S
C424 C425 1.516 . S
C425 C424 1.516 . S
C425 C426 1.502 . S
C425 C427 1.561 . S
C425 C428 1.526 . S
C426 H410 0.959 . S
C426 H411 0.959 . S
C426 H412 0.961 . S
C426 C425 1.502 . S
C427 H413 0.960 . S
C427 H414 0.961 . S
C427 H415 0.959 . S
C427 C425 1.561 . S
C428 C425 1.526 . S
C428 C429 1.396 . S
C428 C433 1.390 . S
C429 C423 1.465 . S
C429 C428 1.396 . S
C429 C430 1.399 . S
C430 H416 0.929 . S
C430 C429 1.399 . S
C430 C431 1.385 . S
C431 H417 0.931 . S
C431 C430 1.385 . S
C431 C432 1.389 . S
C432 C431 1.389 . S
C432 C433 1.387 . S
C433 H418 0.930 . S
C433 C428 1.390 . S
C433 C432 1.387 . S
H434 C446 0.930 . S
H435 C448 0.930 . S
H436 C449 0.930 . S
H437 C453 0.959 . S
H438 C453 0.959 . S
H439 C453 0.961 . S
H440 C454 0.960 1_556 S
H441 C454 0.961 . S
H442 C454 0.959 . S
H443 C457 0.929 . S
H444 C458 0.931 . S
H445 C460 0.930 . S
C446 H434 0.930 . S
C446 C447 1.399 1_565 S
C446 C451 1.399 . S
C447 C446 1.399 1_545 S
C447 C448 1.376 . S
C448 H435 0.930 . S
C448 C447 1.376 . S
C448 C449 1.388 1_556 S
C449 H436 0.930 . S
C449 C448 1.388 1_554 S
C449 C450 1.390 . S
C450 C449 1.390 . S
C450 C451 1.394 1_544 S
C450 C456 1.465 1_545 S
C451 C446 1.399 . S
C451 C450 1.394 1_566 S
C451 C452 1.516 . S
C452 C451 1.516 . S
C452 C453 1.502 . S
C452 C454 1.561 1_556 S
C452 C455 1.526 1_556 S
C453 H437 0.959 . S
C453 H438 0.959 . S
C453 H439 0.961 . S
C453 C452 1.502 . S
C454 H440 0.960 1_554 S
C454 H441 0.961 . S
C454 H442 0.959 . S
C454 C452 1.561 1_554 S
C455 C452 1.526 1_554 S
C455 C456 1.396 . S
C455 C460 1.390 . S
C456 C450 1.465 1_565 S
C456 C455 1.396 . S
C456 C457 1.399 1_565 S
C457 H443 0.929 . S
C457 C456 1.399 1_545 S
C457 C458 1.385 1_545 S
C458 H444 0.931 . S
C458 C457 1.385 1_565 S
C458 C459 1.389 . S
C459 C458 1.389 . S
C459 C460 1.387 . S
C460 H445 0.930 . S
C460 C455 1.390 . S
C460 C459 1.387 . S
H461 C473 0.930 . S
H462 C475 0.930 . S
H463 C476 0.930 . S
H464 C480 0.959 . S
H465 C480 0.959 . S
H466 C480 0.961 . S
H467 C481 0.960 . S
H468 C481 0.961 . S
H469 C481 0.959 . S
H470 C484 0.929 . S
H471 C485 0.931 . S
H472 C487 0.930 . S
C473 H461 0.930 . S
C473 C474 1.399 . S
C473 C478 1.399 . S
C474 C473 1.399 . S
C474 C475 1.376 . S
C475 H462 0.930 . S
C475 C474 1.376 . S
C475 C476 1.388 . S
C476 H463 0.930 . S
C476 C475 1.388 . S
C476 C477 1.390 . S
C477 C476 1.390 . S
C477 C478 1.394 . S
C477 C483 1.479 . S
C478 C473 1.399 . S
C478 C477 1.394 . S
C478 C479 1.516 . S
C479 C478 1.516 . S
C479 C480 1.502 . S
C479 C481 1.561 1_545 S
C479 C482 1.526 1_545 S
C480 H464 0.959 . S
C480 H465 0.959 . S
C480 H466 0.961 . S
C480 C479 1.502 . S
C481 H467 0.960 . S
C481 H468 0.961 . S
C481 H469 0.959 . S
C481 C479 1.561 1_565 S
C482 C479 1.526 1_565 S
C482 C483 1.392 1_565 S
C482 C487 1.390 . S
C483 C477 1.479 . S
C483 C482 1.392 1_545 S
C483 C484 1.390 1_545 S
C484 H470 0.929 . S
C484 C483 1.390 1_565 S
C484 C485 1.385 . S
C485 H471 0.931 . S
C485 C484 1.385 . S
C485 C486 1.389 . S
C486 C485 1.389 . S
C486 C487 1.387 . S
C487 H472 0.930 . S
C487 C482 1.390 . S
C487 C486 1.387 . S
H488 C500 0.930 . S
H489 C502 0.930 . S
H490 C503 0.930 . S
H491 C507 0.959 . S
H492 C507 0.959 . S
H493 C507 0.961 . S
H494 C508 0.960 . S
H495 C508 0.961 . S
H496 C508 0.959 . S
H497 C511 0.929 . S
H498 C512 0.931 . S
H499 C514 0.930 1_554 S
C500 H488 0.930 . S
C500 C501 1.399 . S
C500 C505 1.399 . S
C501 C500 1.399 . S
C501 C502 1.376 . S
C502 H489 0.930 . S
C502 C501 1.376 . S
C502 C503 1.388 1_554 S
C503 H490 0.930 . S
C503 C502 1.388 1_556 S
C503 C504 1.390 . S
C504 C503 1.390 . S
C504 C505 1.394 1_556 S
C504 C510 1.465 . S
C505 C500 1.399 . S
C505 C504 1.394 1_554 S
C505 C506 1.516 . S
C506 C505 1.516 . S
C506 C507 1.502 . S
C506 C508 1.561 . S
C506 C509 1.526 1_554 S
C507 H491 0.959 . S
C507 H492 0.959 . S
C507 H493 0.961 . S
C507 C506 1.502 . S
C508 H494 0.960 . S
C508 H495 0.961 . S
C508 H496 0.959 . S
C508 C506 1.561 . S
C509 C506 1.526 1_556 S
C509 C510 1.396 . S
C509 C514 1.390 . S
C510 C504 1.465 . S
C510 C509 1.396 . S
C510 C511 1.399 . S
C511 H497 0.929 . S
C511 C510 1.399 . S
C511 C512 1.385 . S
C512 H498 0.931 . S
C512 C511 1.385 . S
C512 C513 1.389 . S
C513 C512 1.389 . S
C513 C514 1.387 . S
C514 H499 0.930 1_556 S
C514 C509 1.390 . S
C514 C513 1.387 . S
H515 C527 0.930 . S
H516 C529 0.930 . S
H517 C530 0.930 . S
H518 C534 0.959 . S
H519 C534 0.959 . S
H520 C534 0.961 . S
H521 C535 0.960 . S
H522 C535 0.961 . S
H523 C535 0.959 . S
H524 C538 0.929 . S
H525 C539 0.931 . S
H526 C541 0.930 . S
C527 H515 0.930 . S
C527 C528 1.399 . S
C527 C532 1.399 . S
C528 C527 1.399 . S
C528 C529 1.376 . S
C529 H516 0.930 . S
C529 C528 1.376 . S
C529 C530 1.388 . S
C530 H517 0.930 . S
C530 C529 1.388 . S
C530 C531 1.390 . S
C531 C530 1.390 . S
C531 C532 1.394 . S
C531 C537 1.465 1_655 S
C532 C527 1.399 . S
C532 C531 1.394 . S
C532 C533 1.516 1_655 S
C533 C532 1.516 1_455 S
C533 C534 1.502 . S
C533 C535 1.561 1_455 S
C533 C536 1.526 . S
C534 H518 0.959 . S
C534 H519 0.959 . S
C534 H520 0.961 . S
C534 C533 1.502 . S
C535 H521 0.960 . S
C535 H522 0.961 . S
C535 H523 0.959 . S
C535 C533 1.561 1_655 S
C536 C533 1.526 . S
C536 C537 1.396 . S
C536 C541 1.390 . S
C537 C531 1.465 1_455 S
C537 C536 1.396 . S
C537 C538 1.399 . S
C538 H524 0.929 . S
C538 C537 1.399 . S
C538 C539 1.385 . S
C539 H525 0.931 . S
C539 C538 1.385 . S
C539 C540 1.389 . S
C540 C539 1.389 . S
C540 C541 1.387 . S
C541 H526 0.930 . S
C541 C536 1.390 . S
C541 C540 1.387 . S
H542 C554 0.930 . S
H543 C556 0.930 . S
H544 C557 0.930 . S
H545 C561 0.959 . S
H546 C561 0.959 . S
H547 C561 0.961 . S
H548 C562 0.960 . S
H549 C562 0.961 . S
H550 C562 0.959 . S
H551 C565 0.929 . S
H552 C566 0.931 . S
H553 C568 0.930 . S
C554 H542 0.930 . S
C554 C555 1.399 . S
C554 C559 1.399 . S
C555 C554 1.399 . S
C555 C556 1.376 . S
C556 H543 0.930 . S
C556 C555 1.376 . S
C556 C557 1.388 1_565 S
C557 H544 0.930 . S
C557 C556 1.388 1_545 S
C557 C558 1.390 1_545 S
C558 C557 1.390 1_565 S
C558 C559 1.401 . S
C558 C564 1.459 1_564 S
C559 C554 1.399 . S
C559 C558 1.401 . S
C559 C560 1.516 1_454 S
C560 C559 1.516 1_656 S
C560 C561 1.502 . S
C560 C562 1.561 1_556 S
C560 C563 1.526 1_565 S
C561 H545 0.959 . S
C561 H546 0.959 . S
C561 H547 0.961 . S
C561 C560 1.502 . S
C562 H548 0.960 . S
C562 H549 0.961 . S
C562 H550 0.959 . S
C562 C560 1.561 1_554 S
C563 C560 1.526 1_545 S
C563 C564 1.396 1_655 S
C563 C568 1.390 . S
C564 C558 1.459 1_546 S
C564 C563 1.396 1_455 S
C564 C565 1.399 . S
C565 H551 0.929 . S
C565 C564 1.399 . S
C565 C566 1.385 1_455 S
C566 H552 0.931 . S
C566 C565 1.385 1_655 S
C566 C567 1.389 . S
C567 C566 1.389 . S
C567 C568 1.387 . S
C568 H553 0.930 . S
C568 C563 1.390 . S
C568 C567 1.387 . S
H569 C581 0.930 . S
H570 C583 0.930 . S
H571 C584 0.930 . S
H572 C588 0.976 . S
H573 C588 0.941 1_565 S
H574 C588 0.973 . S
H575 C589 0.960 . S
H576 C589 0.961 . S
H577 C589 0.959 . S
H578 C592 0.929 . S
H579 C593 0.931 . S
H580 C595 0.930 . S
C581 H569 0.930 . S
C581 C582 1.399 . S
C581 C586 1.399 . S
C582 C581 1.399 . S
C582 C583 1.376 . S
C583 H570 0.930 . S
C583 C582 1.376 . S
C583 C584 1.388 . S
C584 H571 0.930 . S
C584 C583 1.388 . S
C584 C585 1.390 . S
C585 C584 1.390 . S
C585 C586 1.394 . S
C585 C591 1.465 1_545 S
C586 C581 1.399 . S
C586 C585 1.394 . S
C586 C587 1.516 1_545 S
C587 C586 1.516 1_565 S
C587 C588 1.494 1_565 S
C587 C589 1.561 . S
C587 C590 1.526 . S
C588 H572 0.976 . S
C588 H573 0.941 1_545 S
C588 H574 0.973 . S
C588 C587 1.494 1_545 S
C589 H575 0.960 . S
C589 H576 0.961 . S
C589 H577 0.959 . S
C589 C587 1.561 . S
C590 C587 1.526 . S
C590 C591 1.396 . S
C590 C595 1.390 . S
C591 C585 1.465 1_565 S
C591 C590 1.396 . S
C591 C592 1.399 . S
C592 H578 0.929 . S
C592 C591 1.399 . S
C592 C593 1.385 . S
C593 H579 0.931 . S
C593 C592 1.385 . S
C593 C594 1.389 . S
C594 C593 1.389 . S
C594 C595 1.387 . S
C595 H580 0.930 . S
C595 C590 1.390 . S
C595 C594 1.387 . S
H596 C608 0.930 . S
H597 C610 0.930 . S
H598 C611 0.930 . S
H599 C615 0.959 1_554 S
H600 C615 0.959 . S
H601 C615 0.961 . S
H602 C616 0.960 . S
H603 C616 0.961 . S
H604 C616 0.959 . S
H605 C619 0.929 . S
H606 C620 0.931 . S
H607 C622 0.930 . S
C608 H596 0.930 . S
C608 C609 1.399 . S
C608 C613 1.399 . S
C609 C608 1.399 . S
C609 C610 1.376 . S
C610 H597 0.930 . S
C610 C609 1.376 . S
C610 C611 1.388 . S
C611 H598 0.930 . S
C611 C610 1.388 . S
C611 C612 1.390 . S
C612 C611 1.390 . S
C612 C613 1.394 . S
C612 C618 1.465 . S
C613 C608 1.399 . S
C613 C612 1.394 . S
C613 C614 1.516 . S
C614 C613 1.516 . S
C614 C615 1.502 . S
C614 C616 1.561 . S
C614 C617 1.526 . S
C615 H599 0.959 1_556 S
C615 H600 0.959 . S
C615 H601 0.961 . S
C615 C614 1.502 . S
C616 H602 0.960 . S
C616 H603 0.961 . S
C616 H604 0.959 . S
C616 C614 1.561 . S
C617 C614 1.526 . S
C617 C618 1.396 . S
C617 C622 1.390 1_556 S
C618 C612 1.465 . S
C618 C617 1.396 . S
C618 C619 1.399 . S
C619 H605 0.929 . S
C619 C618 1.399 . S
C619 C620 1.385 1_556 S
C620 H606 0.931 . S
C620 C619 1.385 1_554 S
C620 C621 1.389 . S
C621 C620 1.389 . S
C621 C622 1.387 . S
C622 H607 0.930 . S
C622 C617 1.390 1_554 S
C622 C621 1.387 . S
H623 C635 0.930 . S
H624 C637 0.930 . S
H625 C638 0.930 . S
H626 C642 0.959 . S
H627 C642 0.959 . S
H628 C642 0.961 . S
H629 C643 0.960 . S
H630 C643 0.961 . S
H631 C643 0.959 . S
H632 C646 0.929 . S
H633 C647 0.931 . S
H634 C649 0.930 . S
C635 H623 0.930 . S
C635 C636 1.399 . S
C635 C640 1.399 . S
C636 C635 1.399 . S
C636 C637 1.376 . S
C637 H624 0.930 . S
C637 C636 1.376 . S
C637 C638 1.388 . S
C638 H625 0.930 . S
C638 C637 1.388 . S
C638 C639 1.390 . S
C639 C638 1.390 . S
C639 C640 1.394 . S
C639 C645 1.465 . S
C640 C635 1.399 . S
C640 C639 1.394 . S
C640 C641 1.516 . S
C641 C640 1.516 . S
C641 C642 1.502 . S
C641 C643 1.561 . S
C641 C644 1.526 . S
C642 H626 0.959 . S
C642 H627 0.959 . S
C642 H628 0.961 . S
C642 C641 1.502 . S
C643 H629 0.960 . S
C643 H630 0.961 . S
C643 H631 0.959 . S
C643 C641 1.561 . S
C644 C641 1.526 . S
C644 C645 1.396 . S
C644 C649 1.390 . S
C645 C639 1.465 . S
C645 C644 1.396 . S
C645 C646 1.399 . S
C646 H632 0.929 . S
C646 C645 1.399 . S
C646 C647 1.385 . S
C647 H633 0.931 . S
C647 C646 1.385 . S
C647 C648 1.389 . S
C648 C647 1.389 . S
C648 C649 1.387 . S
C649 H634 0.930 . S
C649 C644 1.390 . S
C649 C648 1.387 . S
H650 C662 0.930 . S
H651 C664 0.930 . S
H652 C665 0.930 . S
H653 C669 0.959 . S
H654 C669 0.959 . S
H655 C669 0.961 1_556 S
H656 C670 0.960 . S
H657 C670 0.961 . S
H658 C670 0.959 . S
H659 C673 0.929 . S
H660 C674 0.931 . S
H661 C676 0.930 . S
C662 H650 0.930 . S
C662 C663 1.399 . S
C662 C667 1.399 1_556 S
C663 C662 1.399 . S
C663 C664 1.376 1_556 S
C664 H651 0.930 . S
C664 C663 1.376 1_554 S
C664 C665 1.388 . S
C665 H652 0.930 . S
C665 C664 1.388 . S
C665 C666 1.390 . S
C666 C665 1.390 . S
C666 C667 1.394 . S
C666 C672 1.465 . S
C667 C662 1.399 1_554 S
C667 C666 1.394 . S
C667 C668 1.516 . S
C668 C667 1.516 . S
C668 C669 1.502 . S
C668 C670 1.561 1_554 S
C668 C671 1.526 . S
C669 H653 0.959 . S
C669 H654 0.959 . S
C669 H655 0.961 1_554 S
C669 C668 1.502 . S
C670 H656 0.960 . S
C670 H657 0.961 . S
C670 H658 0.959 . S
C670 C668 1.561 1_556 S
C671 C668 1.526 . S
C671 C672 1.396 . S
C671 C676 1.390 . S
C672 C666 1.465 . S
C672 C671 1.396 . S
C672 C673 1.399 . S
C673 H659 0.929 . S
C673 C672 1.399 . S
C673 C674 1.385 . S
C674 H660 0.931 . S
C674 C673 1.385 . S
C674 C675 1.389 . S
C675 C674 1.389 . S
C675 C676 1.387 . S
C676 H661 0.930 . S
C676 C671 1.390 . S
C676 C675 1.387 . S
H677 C689 0.930 . S
H678 C691 0.930 . S
H679 C692 0.930 . S
H680 C696 0.959 . S
H681 C696 0.959 . S
H682 C696 0.961 . S
H683 C697 0.960 . S
H684 C697 0.961 . S
H685 C697 0.959 . S
H686 C700 0.929 . S
H687 C701 0.931 . S
H688 C703 0.930 . S
C689 H677 0.930 . S
C689 C690 1.399 . S
C689 C694 1.399 . S
C690 C689 1.399 . S
C690 C691 1.376 . S
C691 H678 0.930 . S
C691 C690 1.376 . S
C691 C692 1.388 . S
C692 H679 0.930 . S
C692 C691 1.388 . S
C692 C693 1.390 . S
C693 C692 1.390 . S
C693 C694 1.394 . S
C693 C699 1.465 . S
C694 C689 1.399 . S
C694 C693 1.394 . S
C694 C695 1.516 . S
C695 C694 1.516 . S
C695 C696 1.502 . S
C695 C697 1.561 . S
C695 C698 1.526 . S
C696 H680 0.959 . S
C696 H681 0.959 . S
C696 H682 0.961 . S
C696 C695 1.502 . S
C697 H683 0.960 . S
C697 H684 0.961 . S
C697 H685 0.959 . S
C697 C695 1.561 . S
C698 C695 1.526 . S
C698 C699 1.396 . S
C698 C703 1.390 . S
C699 C693 1.465 . S
C699 C698 1.396 . S
C699 C700 1.399 . S
C700 H686 0.929 . S
C700 C699 1.399 . S
C700 C701 1.385 . S
C701 H687 0.931 . S
C701 C700 1.385 . S
C701 C702 1.389 . S
C702 C701 1.389 . S
C702 C703 1.387 . S
C703 H688 0.930 . S
C703 C698 1.390 . S
C703 C702 1.387 . S
H704 C716 0.930 . S
H705 C718 0.930 . S
H706 C719 0.930 . S
H707 C723 0.959 . S
H708 C723 0.959 . S
H709 C723 0.961 . S
H710 C724 0.960 . S
H711 C724 0.961 . S
H712 C724 0.959 . S
H713 C727 0.929 . S
H714 C728 0.931 . S
H715 C730 0.930 . S
C716 H704 0.930 . S
C716 C717 1.399 1_554 S
C716 C721 1.399 . S
C717 C716 1.399 1_556 S
C717 C718 1.376 . S
C718 H705 0.930 . S
C718 C717 1.376 . S
C718 C719 1.388 . S
C719 H706 0.930 . S
C719 C718 1.388 . S
C719 C720 1.390 1_556 S
C720 C719 1.390 1_554 S
C720 C721 1.394 . S
C720 C726 1.465 . S
C721 C716 1.399 . S
C721 C720 1.394 . S
C721 C722 1.516 . S
C722 C721 1.516 . S
C722 C723 1.502 . S
C722 C724 1.561 . S
C722 C725 1.526 . S
C723 H707 0.959 . S
C723 H708 0.959 . S
C723 H709 0.961 . S
C723 C722 1.502 . S
C724 H710 0.960 . S
C724 H711 0.961 . S
C724 H712 0.959 . S
C724 C722 1.561 . S
C725 C722 1.526 . S
C725 C726 1.396 . S
C725 C730 1.390 . S
C726 C720 1.465 . S
C726 C725 1.396 . S
C726 C727 1.399 . S
C727 H713 0.929 . S
C727 C726 1.399 . S
C727 C728 1.385 . S
C728 H714 0.931 . S
C728 C727 1.385 . S
C728 C729 1.389 . S
C729 C728 1.389 . S
C729 C730 1.387 . S
C730 H715 0.930 . S
C730 C725 1.390 . S
C730 C729 1.387 . S
H731 C743 0.930 . S
H732 C745 0.930 . S
H733 C746 0.930 . S
H734 C750 0.959 . S
H735 C750 0.959 . S
H736 C750 0.960 . S
H737 C751 0.960 1_455 S
H738 C751 0.950 1_455 S
H739 C751 0.959 . S
H740 C754 0.929 . S
H741 C755 0.931 . S
H742 C757 0.930 . S
C743 H731 0.930 . S
C743 C744 1.399 . S
C743 C748 1.399 . S
C744 C743 1.399 . S
C744 C745 1.376 . S
C745 H732 0.930 . S
C745 C744 1.376 . S
C745 C746 1.388 . S
C746 H733 0.930 . S
C746 C745 1.388 . S
C746 C747 1.390 . S
C747 C746 1.390 . S
C747 C748 1.394 . S
C747 C753 1.465 . S
C748 C743 1.399 . S
C748 C747 1.394 . S
C748 C749 1.516 . S
C749 C748 1.516 . S
C749 C750 1.502 . S
C749 C751 1.561 . S
C749 C752 1.526 . S
C750 H734 0.959 . S
C750 H735 0.959 . S
C750 H736 0.960 . S
C750 C749 1.502 . S
C751 H737 0.960 1_655 S
C751 H738 0.950 1_655 S
C751 H739 0.959 . S
C751 C749 1.561 . S
C752 C749 1.526 . S
C752 C753 1.396 . S
C752 C757 1.390 . S
C753 C747 1.465 . S
C753 C752 1.396 . S
C753 C754 1.399 . S
C754 H740 0.929 . S
C754 C753 1.399 . S
C754 C755 1.385 . S
C755 H741 0.931 . S
C755 C754 1.385 . S
C755 C756 1.389 . S
C756 C755 1.389 . S
C756 C757 1.387 . S
C757 H742 0.930 . S
C757 C752 1.390 . S
C757 C756 1.387 . S
H758 C770 0.930 . S
H759 C772 0.930 . S
H760 C773 0.930 . S
H761 C777 0.959 . S
H762 C777 0.959 . S
H763 C777 0.961 . S
H764 C778 0.960 . S
H765 C778 0.961 . S
H766 C778 0.959 . S
H767 C781 0.929 . S
H768 C782 0.931 . S
H769 C784 0.930 . S
C770 H758 0.930 . S
C770 C771 1.399 . S
C770 C775 1.399 . S
C771 C770 1.399 . S
C771 C772 1.376 . S
C772 H759 0.930 . S
C772 C771 1.376 . S
C772 C773 1.388 . S
C773 H760 0.930 . S
C773 C772 1.388 . S
C773 C774 1.390 . S
C774 C773 1.390 . S
C774 C775 1.394 . S
C774 C780 1.465 . S
C775 C770 1.399 . S
C775 C774 1.394 . S
C775 C776 1.516 . S
C776 C775 1.516 . S
C776 C777 1.502 . S
C776 C778 1.561 . S
C776 C779 1.526 . S
C777 H761 0.959 . S
C777 H762 0.959 . S
C777 H763 0.961 . S
C777 C776 1.502 . S
C778 H764 0.960 . S
C778 H765 0.961 . S
C778 H766 0.959 . S
C778 C776 1.561 . S
C779 C776 1.526 . S
C779 C780 1.396 . S
C779 C784 1.390 . S
C780 C774 1.465 . S
C780 C779 1.396 . S
C780 C781 1.399 1_556 S
C781 H767 0.929 . S
C781 C780 1.399 1_554 S
C781 C782 1.385 . S
C782 H768 0.931 . S
C782 C781 1.385 . S
C782 C783 1.389 . S
C783 C782 1.389 . S
C783 C784 1.387 1_554 S
C784 H769 0.930 . S
C784 C779 1.390 . S
C784 C783 1.387 1_556 S
H785 C797 0.930 . S
H786 C799 0.930 . S
H787 C800 0.930 . S
H788 C804 0.959 . S
H789 C804 0.959 . S
H790 C804 0.961 . S
H791 C805 0.960 . S
H792 C805 0.961 . S
H793 C805 0.959 . S
H794 C808 0.929 . S
H795 C809 0.931 . S
H796 C811 0.930 . S
C797 H785 0.930 . S
C797 C798 1.399 . S
C797 C802 1.399 . S
C798 C797 1.399 . S
C798 C799 1.376 . S
C799 H786 0.930 . S
C799 C798 1.376 . S
C799 C800 1.388 . S
C800 H787 0.930 . S
C800 C799 1.388 . S
C800 C801 1.390 . S
C801 C800 1.390 . S
C801 C802 1.394 . S
C801 C807 1.465 . S
C802 C797 1.399 . S
C802 C801 1.394 . S
C802 C803 1.516 . S
C803 C802 1.516 . S
C803 C804 1.502 . S
C803 C805 1.561 . S
C803 C806 1.526 . S
C804 H788 0.959 . S
C804 H789 0.959 . S
C804 H790 0.961 . S
C804 C803 1.502 . S
C805 H791 0.960 . S
C805 H792 0.961 . S
C805 H793 0.959 . S
C805 C803 1.561 . S
C806 C803 1.526 . S
C806 C807 1.396 . S
C806 C811 1.390 . S
C807 C801 1.465 . S
C807 C806 1.396 . S
C807 C808 1.399 . S
C808 H794 0.929 . S
C808 C807 1.399 . S
C808 C809 1.385 . S
C809 H795 0.931 . S
C809 C808 1.385 . S
C809 C810 1.389 . S
C810 C809 1.389 . S
C810 C811 1.387 . S
C811 H796 0.930 . S
C811 C806 1.390 . S
C811 C810 1.387 . S
H812 C824 0.930 . S
H813 C826 0.930 . S
H814 C827 0.930 . S
H815 C831 0.959 . S
H816 C831 0.959 . S
H817 C831 0.961 . S
H818 C832 0.960 . S
H819 C832 0.961 . S
H820 C832 0.959 . S
H821 C835 0.929 . S
H822 C836 0.931 . S
H823 C838 0.930 . S
C824 H812 0.930 . S
C824 C825 1.399 . S
C824 C829 1.399 . S
C825 C824 1.399 . S
C825 C826 1.376 . S
C826 H813 0.930 . S
C826 C825 1.376 . S
C826 C827 1.388 . S
C827 H814 0.930 . S
C827 C826 1.388 . S
C827 C828 1.390 . S
C828 C827 1.390 . S
C828 C829 1.394 . S
C828 C834 1.465 . S
C829 C824 1.399 . S
C829 C828 1.394 . S
C829 C830 1.516 . S
C830 C829 1.516 . S
C830 C831 1.502 . S
C830 C832 1.561 . S
C830 C833 1.526 . S
C831 H815 0.959 . S
C831 H816 0.959 . S
C831 H817 0.961 . S
C831 C830 1.502 . S
C832 H818 0.960 . S
C832 H819 0.961 . S
C832 H820 0.959 . S
C832 C830 1.561 . S
C833 C830 1.526 . S
C833 C834 1.396 . S
C833 C838 1.390 . S
C834 C828 1.465 . S
C834 C833 1.396 . S
C834 C835 1.399 . S
C835 H821 0.929 . S
C835 C834 1.399 . S
C835 C836 1.385 . S
C836 H822 0.931 . S
C836 C835 1.385 . S
C836 C837 1.389 . S
C837 C836 1.389 . S
C837 C838 1.387 . S
C838 H823 0.930 . S
C838 C833 1.390 . S
C838 C837 1.387 . S
H839 C851 0.930 . S
H840 C853 0.930 . S
H841 C854 0.930 . S
H842 C858 0.959 . S
H843 C858 0.959 . S
H844 C858 0.961 . S
H845 C859 0.960 . S
H846 C859 0.961 . S
H847 C859 0.959 . S
H848 C862 0.929 . S
H849 C863 0.931 . S
H850 C865 0.930 . S
C851 H839 0.930 . S
C851 C852 1.399 . S
C851 C856 1.399 . S
C852 C851 1.399 . S
C852 C853 1.376 . S
C853 H840 0.930 . S
C853 C852 1.376 . S
C853 C854 1.388 . S
C854 H841 0.930 . S
C854 C853 1.388 . S
C854 C855 1.390 . S
C855 C854 1.390 . S
C855 C856 1.394 . S
C855 C861 1.465 . S
C856 C851 1.399 . S
C856 C855 1.394 . S
C856 C857 1.516 . S
C857 C856 1.516 . S
C857 C858 1.502 . S
C857 C859 1.561 . S
C857 C860 1.526 . S
C858 H842 0.959 . S
C858 H843 0.959 . S
C858 H844 0.961 . S
C858 C857 1.502 . S
C859 H845 0.960 . S
C859 H846 0.961 . S
C859 H847 0.959 . S
C859 C857 1.561 . S
C860 C857 1.526 . S
C860 C861 1.396 . S
C860 C865 1.390 . S
C861 C855 1.465 . S
C861 C860 1.396 . S
C861 C862 1.399 . S
C862 H848 0.929 . S
C862 C861 1.399 . S
C862 C863 1.385 . S
C863 H849 0.931 . S
C863 C862 1.385 . S
C863 C864 1.389 . S
C864 C863 1.389 . S
C864 C865 1.387 . S
C865 H850 0.930 . S
C865 C860 1.390 . S
C865 C864 1.387 . S
H866 C878 0.930 . S
H867 C880 0.930 . S
H868 C881 0.930 . S
H869 C885 0.959 . S
H870 C885 0.959 . S
H871 C885 0.961 . S
H872 C886 0.960 . S
H873 C886 0.961 . S
H874 C886 0.959 . S
H875 C889 0.929 . S
H876 C890 0.931 . S
H877 C892 0.930 . S
C878 H866 0.930 . S
C878 C879 1.399 . S
C878 C883 1.399 . S
C879 C878 1.399 . S
C879 C880 1.376 . S
C880 H867 0.930 . S
C880 C879 1.376 . S
C880 C881 1.388 . S
C881 H868 0.930 . S
C881 C880 1.388 . S
C881 C882 1.390 . S
C882 C881 1.390 . S
C882 C883 1.394 . S
C882 C888 1.465 . S
C883 C878 1.399 . S
C883 C882 1.394 . S
C883 C884 1.516 . S
C884 C883 1.516 . S
C884 C885 1.502 . S
C884 C886 1.561 . S
C884 C887 1.526 . S
C885 H869 0.959 . S
C885 H870 0.959 . S
C885 H871 0.961 . S
C885 C884 1.502 . S
C886 H872 0.960 . S
C886 H873 0.961 . S
C886 H874 0.959 . S
C886 C884 1.561 . S
C887 C884 1.526 . S
C887 C888 1.396 . S
C887 C892 1.390 . S
C888 C882 1.465 . S
C888 C887 1.396 . S
C888 C889 1.399 . S
C889 H875 0.929 . S
C889 C888 1.399 . S
C889 C890 1.385 . S
C890 H876 0.931 . S
C890 C889 1.385 . S
C890 C891 1.389 . S
C891 C890 1.389 . S
C891 C892 1.387 . S
C892 H877 0.930 . S
C892 C887 1.390 . S
C892 C891 1.387 . S
H893 C905 0.930 . S
H894 C907 0.930 . S
H895 C908 0.930 . S
H896 C912 0.959 . S
H897 C912 0.959 . S
H898 C912 0.961 . S
H899 C913 0.960 . S
H900 C913 0.961 . S
H901 C913 0.959 . S
H902 C916 0.929 . S
H903 C917 0.931 . S
H904 C919 0.930 . S
C905 H893 0.930 . S
C905 C906 1.399 . S
C905 C910 1.399 . S
C906 C905 1.399 . S
C906 C907 1.376 . S
C907 H894 0.930 . S
C907 C906 1.376 . S
C907 C908 1.388 . S
C908 H895 0.930 . S
C908 C907 1.388 . S
C908 C909 1.390 . S
C909 C908 1.390 . S
C909 C910 1.394 . S
C909 C915 1.465 . S
C910 C905 1.399 . S
C910 C909 1.394 . S
C910 C911 1.516 . S
C911 C910 1.516 . S
C911 C912 1.502 . S
C911 C913 1.561 . S
C911 C914 1.526 . S
C912 H896 0.959 . S
C912 H897 0.959 . S
C912 H898 0.961 . S
C912 C911 1.502 . S
C913 H899 0.960 . S
C913 H900 0.961 . S
C913 H901 0.959 . S
C913 C911 1.561 . S
C914 C911 1.526 . S
C914 C915 1.396 . S
C914 C919 1.390 . S
C915 C909 1.465 . S
C915 C914 1.396 . S
C915 C916 1.399 . S
C916 H902 0.929 . S
C916 C915 1.399 . S
C916 C917 1.385 . S
C917 H903 0.931 . S
C917 C916 1.385 . S
C917 C918 1.389 . S
C918 C917 1.389 . S
C918 C919 1.387 . S
C919 H904 0.930 . S
C919 C914 1.390 . S
C919 C918 1.387 . S
H920 C932 0.930 . S
H921 C934 0.930 . S
H922 C935 0.930 . S
H923 C939 0.959 . S
H924 C939 0.959 . S
H925 C939 0.961 . S
H926 C940 0.960 . S
H927 C940 0.961 . S
H928 C940 0.959 . S
H929 C943 0.929 . S
H930 C944 0.931 . S
H931 C946 0.930 . S
C932 H920 0.930 . S
C932 C933 1.399 . S
C932 C937 1.399 . S
C933 C932 1.399 . S
C933 C934 1.376 . S
C934 H921 0.930 . S
C934 C933 1.376 . S
C934 C935 1.388 . S
C935 H922 0.930 . S
C935 C934 1.388 . S
C935 C936 1.390 . S
C936 C935 1.390 . S
C936 C937 1.394 . S
C936 C942 1.465 . S
C937 C932 1.399 . S
C937 C936 1.394 . S
C937 C938 1.516 . S
C938 C937 1.516 . S
C938 C939 1.502 . S
C938 C940 1.561 . S
C938 C941 1.526 . S
C939 H923 0.959 . S
C939 H924 0.959 . S
C939 H925 0.961 . S
C939 C938 1.502 . S
C940 H926 0.960 . S
C940 H927 0.961 . S
C940 H928 0.959 . S
C940 C938 1.561 . S
C941 C938 1.526 . S
C941 C942 1.396 . S
C941 C946 1.390 . S
C942 C936 1.465 . S
C942 C941 1.396 . S
C942 C943 1.399 . S
C943 H929 0.929 . S
C943 C942 1.399 . S
C943 C944 1.385 . S
C944 H930 0.931 . S
C944 C943 1.385 . S
C944 C945 1.389 . S
C945 C944 1.389 . S
C945 C946 1.387 . S
C946 H931 0.930 . S
C946 C941 1.390 . S
C946 C945 1.387 . S
H947 C959 0.930 . S
H948 C961 0.930 . S
H949 C962 0.930 . S
H950 C966 0.959 . S
H951 C966 0.959 . S
H952 C966 0.961 . S
H953 C967 0.960 . S
H954 C967 0.961 . S
H955 C967 0.959 . S
H956 C970 0.929 . S
H957 C971 0.931 . S
H958 C973 0.930 . S
C959 H947 0.930 . S
C959 C960 1.399 . S
C959 C964 1.399 . S
C960 C959 1.399 . S
C960 C961 1.376 . S
C961 H948 0.930 . S
C961 C960 1.376 . S
C961 C962 1.388 . S
C962 H949 0.930 . S
C962 C961 1.388 . S
C962 C963 1.390 . S
C963 C962 1.390 . S
C963 C964 1.394 . S
C963 C969 1.465 . S
C964 C959 1.399 . S
C964 C963 1.394 . S
C964 C965 1.516 . S
C965 C964 1.516 . S
C965 C966 1.502 . S
C965 C967 1.561 . S
C965 C968 1.526 . S
C966 H950 0.959 . S
C966 H951 0.959 . S
C966 H952 0.961 . S
C966 C965 1.502 . S
C967 H953 0.960 . S
C967 H954 0.961 . S
C967 H955 0.959 . S
C967 C965 1.561 . S
C968 C965 1.526 . S
C968 C969 1.396 . S
C968 C973 1.390 . S
C969 C963 1.465 . S
C969 C968 1.396 . S
C969 C970 1.399 . S
C970 H956 0.929 . S
C970 C969 1.399 . S
C970 C971 1.385 . S
C971 H957 0.931 . S
C971 C970 1.385 . S
C971 C972 1.389 . S
C972 C971 1.389 . S
C972 C973 1.387 . S
C973 H958 0.930 . S
C973 C968 1.390 . S
C973 C972 1.387 . S
H974 C986 0.930 . S
H975 C988 0.930 . S
H976 C989 0.930 . S
H977 C993 0.959 . S
H978 C993 0.959 . S
H979 C993 0.961 . S
H980 C994 0.960 . S
H981 C994 0.961 . S
H982 C994 0.959 . S
H983 C997 0.929 . S
H984 C998 0.931 . S
H985 C1000 0.930 . S
C986 H974 0.930 . S
C986 C987 1.399 . S
C986 C991 1.399 . S
C987 C986 1.399 . S
C987 C988 1.376 . S
C988 H975 0.930 . S
C988 C987 1.376 . S
C988 C989 1.388 . S
C989 H976 0.930 . S
C989 C988 1.388 . S
C989 C990 1.390 . S
C990 C989 1.390 . S
C990 C991 1.394 . S
C990 C996 1.465 . S
C991 C986 1.399 . S
C991 C990 1.394 . S
C991 C992 1.516 . S
C992 C991 1.516 . S
C992 C993 1.502 . S
C992 C994 1.561 . S
C992 C995 1.526 . S
C993 H977 0.959 . S
C993 H978 0.959 . S
C993 H979 0.961 . S
C993 C992 1.502 . S
C994 H980 0.960 . S
C994 H981 0.961 . S
C994 H982 0.959 . S
C994 C992 1.561 . S
C995 C992 1.526 . S
C995 C996 1.396 . S
C995 C1000 1.390 . S
C996 C990 1.465 . S
C996 C995 1.396 . S
C996 C997 1.399 . S
C997 H983 0.929 . S
C997 C996 1.399 . S
C997 C998 1.385 . S
C998 H984 0.931 . S
C998 C997 1.385 . S
C998 C999 1.389 . S
C999 C998 1.389 . S
C999 C1000 1.387 . S
C1000 H985 0.930 . S
C1000 C995 1.390 . S
C1000 C999 1.387 . S
H1001 C1013 0.930 . S
H1002 C1015 0.930 . S
H1003 C1016 0.930 . S
H1004 C1020 0.959 . S
H1005 C1020 0.959 . S
H1006 C1020 0.961 . S
H1007 C1021 0.960 . S
H1008 C1021 0.961 . S
H1009 C1021 0.959 . S
H1010 C1024 0.929 . S
H1011 C1025 0.931 . S
H1012 C1027 0.930 . S
C1013 H1001 0.930 . S
C1013 C1014 1.399 . S
C1013 C1018 1.399 . S
C1014 C1013 1.399 . S
C1014 C1015 1.376 . S
C1015 H1002 0.930 . S
C1015 C1014 1.376 . S
C1015 C1016 1.388 . S
C1016 H1003 0.930 . S
C1016 C1015 1.388 . S
C1016 C1017 1.390 . S
C1017 C1016 1.390 . S
C1017 C1018 1.394 . S
C1017 C1023 1.465 . S
C1018 C1013 1.399 . S
C1018 C1017 1.394 . S
C1018 C1019 1.516 . S
C1019 C1018 1.516 . S
C1019 C1020 1.502 . S
C1019 C1021 1.561 . S
C1019 C1022 1.526 . S
C1020 H1004 0.959 . S
C1020 H1005 0.959 . S
C1020 H1006 0.961 . S
C1020 C1019 1.502 . S
C1021 H1007 0.960 . S
C1021 H1008 0.961 . S
C1021 H1009 0.959 . S
C1021 C1019 1.561 . S
C1022 C1019 1.526 . S
C1022 C1023 1.396 . S
C1022 C1027 1.390 . S
C1023 C1017 1.465 . S
C1023 C1022 1.396 . S
C1023 C1024 1.399 . S
C1024 H1010 0.929 . S
C1024 C1023 1.399 . S
C1024 C1025 1.385 . S
C1025 H1011 0.931 . S
C1025 C1024 1.385 . S
C1025 C1026 1.389 . S
C1026 C1025 1.389 . S
C1026 C1027 1.387 . S
C1027 H1012 0.930 . S
C1027 C1022 1.390 . S
C1027 C1026 1.387 . S
C285 C3 1.522 . S
C297 C49 1.582 . S
C312 C37 1.496 . S
C324 C15 1.580 . S
C339 C69 1.522 . S
C351 C117 1.576 . S
C366 C105 1.445 . S
C378 C90 1.592 . S
C393 C137 1.469 . S
C405 C192 1.589 . S
C420 C171 1.516 . S
C432 C158 1.582 . S
C447 C260 1.576 . S
C459 C207 1.524 . S
C474 C239 1.534 . S
C486 C219 1.575 . S
C501 C1 2.012 . S
C513 C139 1.960 . S
C528 C173 1.979 . S
C540 C35 1.969 . S
C555 C205 1.941 . S
C567 C71 2.022 . S
C582 C241 1.958 . S
C594 C103 1.990 . S
C609 C255 1.931 . S
C621 C22 1.614 . S
C636 C221 1.905 . S
C648 C56 1.704 . S
C663 C83 1.620 . S
C675 C187 1.928 . S
C690 C153 1.910 . S
C702 C124 1.679 . S
C717 C151 1.629 . S
C729 C119 1.932 . S
C744 C185 1.624 . S
C756 C85 1.935 . S
C771 C51 1.910 . S
C783 C226 1.706 . S
C798 C17 1.932 . S
C810 C253 1.634 . S
C825 C176 1.241 . S
C837 C6 1.245 . S
C852 C40 1.252 . S
C864 C142 1.253 . S
C879 C244 1.243 . S
C891 C96 1.246 . S
C906 C108 1.238 . S
C918 C232 1.233 . S
C933 C164 1.247 . S
C945 C62 1.238 . S
C960 C28 1.233 . S
C972 C198 1.239 . S
C987 C130 1.233 . S
C999 C210 1.242 . S
C1014 C266 1.245 . S
C1026 C74 1.236 . S
