# Generated by pormake.
# Topology kag, (6)-cn, num edge types: 1
# Building blocks:
#     Node 0, Type 0, BuildingBlock: PAMTUU_clean_sbu_0, # of connection points: 6
#     Node 1, Type 0, BuildingBlock: PAMTUU_clean_sbu_0, # of connection points: 6
#     Node 2, Type 0, BuildingBlock: PAMTUU_clean_sbu_0, # of connection points: 6
#     Edge 3, Type (0, 0), BuildingBlock: XIVTED_clean_linker_0, # of connection points: 2
#     Edge 4, Type (0, 0), BuildingBlock: XIVTED_clean_linker_0, # of connection points: 2
#     Edge 5, Type (0, 0), BuildingBlock: XIVTED_clean_linker_0, # of connection points: 2
#     Edge 6, Type (0, 0), BuildingBlock: XIVTED_clean_linker_0, # of connection points: 2
#     Edge 7, Type (0, 0), BuildingBlock: XIVTED_clean_linker_0, # of connection points: 2
#     Edge 8, Type (0, 0), BuildingBlock: XIVTED_clean_linker_0, # of connection points: 2
#     Edge 9, Type (0, 0), BuildingBlock: XIVTED_clean_linker_0, # of connection points: 2
#     Edge 10, Type (0, 0), BuildingBlock: XIVTED_clean_linker_0, # of connection points: 2
#     Edge 11, Type (0, 0), BuildingBlock: XIVTED_clean_linker_0, # of connection points: 2
# Relax obj value: 0.092
# Max RMSD: 0.162
# Mean RMSD: 0.117
data_MOF--net-kag--node1-PAMTUU_clean_sbu_0--edge1-XIVTED_clean_linker_0
_symmetry_space_group_name_H-M    P1
_symmetry_Int_Tables_number       1
_symmetry_cell_setting            triclinic
loop_
_symmetry_equiv_pos_as_xyz
'x, y, z'
_cell_length_a     49.653649
_cell_length_b     30.978879
_cell_length_c     15.257006
_cell_angle_alpha  88.810313
_cell_angle_beta   98.349872
_cell_angle_gamma 122.47287
loop_
_atom_site_label
_atom_site_type_symbol
_atom_site_fract_x
_atom_site_fract_y
_atom_site_fract_z
_atom_type_partial_charge
Tb0 Tb 1.02688 0.59465 0.00618 0.0
Tb1 Tb 0.03993 0.50028 0.01668 0.0
C2 C 1.02931 0.54313 0.83817 0.0
C3 C 0.98271 0.66011 0.98691 0.0
C4 C 0.9238 0.65572 0.96541 0.0
C5 C 0.95136 0.69748 0.93681 0.0
C6 C 0.98055 0.69962 0.94756 0.0
C7 C 0.95517 0.61796 0.01407 0.0
C8 C 0.92606 0.61583 0.00366 0.0
C9 C 1.0136 0.66293 -0.00028 0.0
O10 O 0.98035 0.52677 0.01961 0.0
O11 O 0.98726 0.46094 0.98732 0.0
O12 O 1.02513 0.50536 0.14028 0.0
O13 O 0.04472 0.5911 0.14359 0.0
O14 O 0.03629 0.43665 0.95602 0.0
O15 O 0.06033 0.46415 0.09125 0.0
O16 O 0.08694 0.57138 0.0526 0.0
O17 O 0.07707 0.63037 -0.01189 0.0
O18 O 1.01242 0.557 0.87406 0.0
O19 O 0.04768 0.53056 0.88719 0.0
C20 C 0.96884 0.47804 0.00116 0.0
O21 O 1.02006 0.64567 0.07303 0.0
O22 O 1.0199 0.64698 0.93189 0.0
C23 C 0.03501 0.54852 0.18409 0.0
C24 C 0.08335 0.43468 0.00433 0.0
C25 C 0.14135 0.44365 0.97919 0.0
C26 C 0.12773 0.42347 0.05624 0.0
C27 C 0.09897 0.41886 0.06846 0.0
C28 C 0.0966 0.45411 0.92645 0.0
C29 C 0.12523 0.45818 0.91373 0.0
C30 C 0.05486 0.43417 0.02327 0.0
C31 C 0.09716 0.61669 0.02144 0.0
H32 H 0.95038 0.72849 0.90587 0.0
H33 H 1.00148 0.73226 0.92555 0.0
H34 H 0.95625 0.58695 0.04459 0.0
H35 H 0.90557 0.58346 0.02768 0.0
H36 H 0.13943 0.41144 0.10737 0.0
H37 H 0.08926 0.40396 0.12912 0.0
H38 H 0.08528 0.46718 0.87626 0.0
H39 H 0.13531 0.47423 0.85404 0.0
Tb40 Tb 0.49032 1.01247 0.95939 0.0
Tb41 Tb 0.57056 0.07387 -0.01108 0.0
C42 C 0.52866 1.0422 0.80357 0.0
C43 C 0.39759 0.92392 0.94643 0.0
C44 C 0.33284 0.85062 0.9673 0.0
C45 C 0.3412 0.86469 0.88243 0.0
C46 C 0.37315 0.90087 0.87223 0.0
C47 C 0.38969 0.90824 0.03122 0.0
C48 C 0.35761 0.8717 0.04147 0.0
C49 C 0.42945 0.96889 0.93364 0.0
O50 O 0.49968 0.95178 0.94603 0.0
O51 O 0.55318 0.99419 0.01229 0.0
O52 O 0.55701 0.08123 0.11508 0.0
O53 O 0.50693 1.00614 0.09635 0.0
O54 O 0.61269 0.11844 0.93257 0.0
O55 O 0.61479 0.08959 0.06271 0.0
O56 O 0.5613 0.13501 0.96644 0.0
O57 O 0.50813 0.09257 -0.01071 0.0
O58 O 0.50748 0.04691 0.83713 0.0
O59 O 0.54985 1.03674 0.85564 0.0
C60 C 0.52568 0.9519 0.98021 0.0
O61 O 0.44858 0.99989 0.00255 0.0
O62 O 0.44535 0.96343 0.87846 0.0
C63 C 0.53216 1.04381 0.1478 0.0
C64 C 0.66525 0.15588 0.01963 0.0
C65 C 0.73232 0.23074 0.03227 0.0
C66 C 0.72094 0.1785 0.04039 0.0
C67 C 0.68792 0.14176 0.03463 0.0
C68 C 0.67619 0.20792 0.01363 0.0
C69 C 0.70945 0.24506 0.02056 0.0
C70 C 0.63078 0.11444 -0.00094 0.0
C71 C 0.53544 0.13481 0.97823 0.0
H72 H 0.32284 0.84858 0.82379 0.0
H73 H 0.37854 0.9125 0.80624 0.0
H74 H 0.40798 0.9256 0.08981 0.0
H75 H 0.35197 0.86183 0.10778 0.0
H76 H 0.73733 0.16531 0.04745 0.0
H77 H 0.67997 0.10171 0.03802 0.0
H78 H 0.65906 0.21965 0.00141 0.0
H79 H 0.71713 0.28486 0.01548 0.0
Tb80 Tb 0.57334 0.58265 0.00993 0.0
Tb81 Tb 0.49322 0.509 0.97794 0.0
C82 C 0.53446 0.54631 0.16521 0.0
C83 C 0.66247 0.63825 0.02128 0.0
C84 C 0.71775 0.63986 -0.00851 0.0
C85 C 0.72015 0.67423 0.05569 0.0
C86 C 0.69279 0.67343 0.07024 0.0
C87 C 0.65966 0.60336 0.95775 0.0
C88 C 0.68712 0.60418 0.94291 0.0
C89 C 0.63436 0.63904 0.038 0.0
O90 O 0.56191 0.50445 0.02353 0.0
O91 O 0.50867 0.45704 0.9545 0.0
O92 O 0.50821 0.53966 0.85207 0.0
O93 O 0.55844 0.55128 0.87365 0.0
O94 O 0.45112 0.46686 0.03511 0.0
O95 O 0.44824 0.46896 0.89322 0.0
O96 O 0.50425 0.58581 0.00815 0.0
O97 O 0.55627 0.63364 0.97682 0.0
O98 O 0.55691 0.58661 0.13161 0.0
O99 O 0.51186 0.5059 0.11407 0.0
C100 C 0.53595 0.46089 -0.0122 0.0
O101 O 0.61626 0.64091 0.96888 0.0
O102 O 0.6172 0.60697 0.09362 0.0
C103 C 0.53311 0.54512 0.82095 0.0
C104 C 0.40484 0.46236 0.95598 0.0
C105 C 0.35037 0.47023 0.9505 0.0
C106 C 0.36256 0.47128 0.87222 0.0
C107 C 0.38947 0.46729 0.8749 0.0
C108 C 0.39265 0.46143 0.03408 0.0
C109 C 0.36587 0.46546 0.03141 0.0
C110 C 0.43203 0.45478 0.95938 0.0
C111 C 0.52959 0.62966 -0.00818 0.0
H112 H 0.74316 0.70146 0.09565 0.0
H113 H 0.69533 0.70038 0.11999 0.0
H114 H 0.63632 0.57579 0.91949 0.0
H115 H 0.68443 0.57741 0.89261 0.0
H116 H 0.35132 0.47521 0.80884 0.0
H117 H 0.398 0.46751 0.81336 0.0
H118 H 0.40348 0.45671 0.09748 0.0
H119 H 0.35679 0.46342 0.09275 0.0
H120 H 1.00997 0.59244 0.71873 0.0
H121 H 0.03433 0.4783 0.29579 0.0
H122 H 0.04793 0.4951 0.73698 0.0
H123 H 0.035 0.61824 0.2922 0.0
H124 H 0.0323 0.47674 0.45477 0.0
H125 H 1.01172 0.59494 0.55869 0.0
C126 C 1.01846 0.57136 0.68903 0.0
C127 C 1.02883 0.54352 0.74115 0.0
C128 C 0.033 0.50788 0.41928 0.0
C129 C 0.03076 0.54612 0.55883 0.0
C130 C 0.03407 0.50875 0.3285 0.0
C131 C 0.0349 0.54855 0.2808 0.0
C132 C 0.03224 0.54663 0.46261 0.0
C133 C 0.03461 0.58706 0.3267 0.0
C134 C 1.01964 0.5731 0.59798 0.0
C135 C 0.03981 0.51719 0.69939 0.0
N136 N 0.03306 0.58497 0.41514 0.0
N137 N 0.04034 0.51894 0.61064 0.0
H138 H 0.50908 0.96124 0.24864 0.0
H139 H 0.51483 0.09798 0.68549 0.0
H140 H 0.5553 0.12558 0.26688 0.0
H141 H 0.54272 0.9877 0.70177 0.0
H142 H 0.5168 0.09984 0.52492 0.0
H143 H 0.50859 0.96104 0.40956 0.0
C144 C 0.51906 0.99722 0.28659 0.0
C145 C 0.53241 1.04355 0.24482 0.0
C146 C 0.52243 0.07528 0.56399 0.0
C147 C 0.53105 1.0433 0.42747 0.0
C148 C 0.52112 0.07393 0.65509 0.0
C149 C 0.52867 1.04268 0.70665 0.0
C150 C 0.5303 1.04391 0.52405 0.0
C151 C 0.53689 1.01249 0.6643 0.0
C152 C 0.51884 0.99705 0.37808 0.0
C153 C 0.54506 0.08915 0.29691 0.0
N154 N 0.5371 1.01334 0.57518 0.0
N155 N 0.5437 0.08786 0.38556 0.0
H156 H 0.48088 0.50825 0.68895 0.0
H157 H 0.58483 0.60868 0.29552 0.0
H158 H 0.58463 0.58155 0.73258 0.0
H159 H 0.4845 0.48432 0.25496 0.0
H160 H 0.58453 0.60835 0.4558 0.0
H161 H 0.48106 0.50821 0.52853 0.0
C162 C 0.50369 0.52445 0.6648 0.0
C163 C 0.53278 0.54489 0.72409 0.0
C164 C 0.56263 0.58109 0.41171 0.0
C165 C 0.53313 0.54528 0.54118 0.0
C166 C 0.56273 0.58138 0.32034 0.0
C167 C 0.53466 0.54639 0.26199 0.0
C168 C 0.53411 0.54617 0.44476 0.0
C169 C 0.50673 0.51174 0.29771 0.0
C170 C 0.50373 0.52418 0.57339 0.0
C171 C 0.56162 0.56517 0.6892 0.0
N172 N 0.50709 0.51271 0.38689 0.0
N173 N 0.5611 0.56515 0.59994 0.0
H174 H 0.15811 0.41923 0.83266 0.0
H175 H 0.33889 0.52144 0.06943 0.0
H176 H 0.19624 0.48518 0.10222 0.0
H177 H 0.29478 0.42381 0.82687 0.0
H178 H 0.28887 0.51826 0.0724 0.0
H179 H 0.2101 0.43013 0.81968 0.0
C180 C 0.17749 0.43626 0.88887 0.0
C181 C 0.1728 0.45094 0.96889 0.0
C182 C 0.29014 0.49764 0.01835 0.0
C183 C 0.23222 0.46368 0.95446 0.0
C184 C 0.31869 0.49929 0.01673 0.0
C185 C 0.32101 0.47234 0.94836 0.0
C186 C 0.26359 0.46899 0.95094 0.0
C187 C 0.29423 0.44541 0.88065 0.0
C188 C 0.20706 0.44227 0.88155 0.0
C189 C 0.19865 0.47259 0.03979 0.0
N190 N 0.26658 0.44419 0.88391 0.0
N191 N 0.2272 0.47832 0.03089 0.0
H192 H 0.78492 0.23155 0.12402 0.0
H193 H 0.92033 0.49601 0.96324 0.0
H194 H 0.76102 0.31803 0.93901 0.0
H195 H 0.93727 0.37647 0.03798 0.0
H196 H 0.86288 0.43683 0.9715 0.0
H197 H 0.84185 0.29001 0.11171 0.0
C198 C 0.79141 0.26256 0.08047 0.0
C199 C 0.76763 0.26908 0.03171 0.0
C200 C 0.87914 0.42349 0.98564 0.0
C201 C 0.8334 0.3373 0.01953 0.0
C202 C 0.91196 0.45725 0.9812 0.0
C203 C 0.93368 0.44116 -5e-05 0.0
C204 C 0.86796 0.37349 0.01085 0.0
C205 C 0.92137 0.39039 0.0224 0.0
C206 C 0.82408 0.29608 0.07388 0.0
C207 C 0.77817 0.31139 0.97885 0.0
N208 N 0.88939 0.35851 0.02813 0.0
N209 N 0.8102 0.34384 0.97436 0.0
H210 H 0.47257 0.85247 0.94747 0.0
H211 H 0.57991 0.72921 -0.0087 0.0
H212 H 0.57656 0.9395 0.01754 0.0
H213 H 0.47673 0.63774 -0.01097 0.0
H214 H 0.5781 0.80626 -0.01143 0.0
H215 H 0.47257 0.7731 0.95079 0.0
C216 C 0.49536 0.85499 0.96351 0.0
C217 C 0.5246 0.90293 0.98234 0.0
C218 C 0.55581 0.76939 -0.01119 0.0
C219 C 0.52475 0.81228 0.98562 0.0
C220 C 0.5568 0.7252 -0.0099 0.0
C221 C 0.52843 0.67669 -0.00952 0.0
C222 C 0.52619 0.76543 0.98705 0.0
C223 C 0.49925 0.67428 -0.01086 0.0
C224 C 0.49532 0.80965 0.96562 0.0
C225 C 0.55337 0.90364 0.00287 0.0
N226 N 0.49886 0.71798 0.98713 0.0
N227 N 0.5527 0.85921 0.00355 0.0
H228 H 0.91626 0.73581 -0.00829 0.0
H229 H 0.7242 0.5589 0.96018 0.0
H230 H 0.86125 0.57262 0.92421 0.0
H231 H 0.77857 0.72435 -0.01162 0.0
H232 H 0.77374 0.56278 0.94407 0.0
H233 H 0.86585 0.73222 -0.01192 0.0
C234 C 0.89361 0.69928 0.97504 0.0
C235 C 0.89314 0.65443 0.95851 0.0
C236 C 0.77478 0.59823 0.95335 0.0
C237 C 0.8351 0.6499 0.95595 0.0
C238 C 0.74644 0.59606 0.96209 0.0
C239 C 0.74719 0.64136 0.97643 0.0
C240 C 0.80413 0.64603 0.95925 0.0
C241 C 0.77689 0.68837 0.97932 0.0
C242 C 0.86477 0.69721 0.97356 0.0
C243 C 0.8629 0.60807 0.93893 0.0
N244 N 0.80412 0.68945 0.97134 0.0
N245 N 0.83514 0.60698 0.93866 0.0
H246 H 0.14711 0.60608 0.09503 0.0
H247 H 0.28144 0.85407 0.88426 0.0
H248 H 0.12776 0.70877 0.94467 0.0
H249 H 0.3052 0.77037 0.07565 0.0
H250 H 0.22468 0.79852 0.90102 0.0
H251 H 0.20459 0.66336 0.08539 0.0
C252 C 0.15489 0.64078 0.06041 0.0
C253 C 0.1324 0.65252 0.02064 0.0
C254 C 0.24225 0.79223 0.93951 0.0
C255 C 0.19834 0.71812 0.00875 0.0
C256 C 0.27469 0.82373 0.92945 0.0
C257 C 0.29818 0.81668 0.97808 0.0
C258 C 0.23293 0.75291 -0.0017 0.0
C259 C 0.28797 0.77734 0.03705 0.0
C260 C 0.18778 0.67348 0.05498 0.0
C261 C 0.14408 0.69806 0.97658 0.0
N262 N 0.2561 0.74675 0.04512 0.0
N263 N 0.17613 0.72894 0.97146 0.0
H264 H 0.58928 0.45326 0.02391 0.0
H265 H 0.48443 0.14652 0.97041 0.0
H266 H 0.48562 0.36128 0.94607 0.0
H267 H 0.58829 0.23475 0.98721 0.0
H268 H 0.48532 0.2257 0.97188 0.0
H269 H 0.59023 0.37491 0.02052 0.0
C270 C 0.56672 0.41671 0.00617 0.0
C271 C 0.53729 0.41405 0.98534 0.0
C272 C 0.50797 0.22794 0.9751 0.0
C273 C 0.53828 0.32418 0.98178 0.0
C274 C 0.50753 0.18256 0.97459 0.0
C275 C 0.53637 0.18368 0.9788 0.0
C276 C 0.53748 0.27535 0.9806 0.0
C277 C 0.56545 0.23189 0.98365 0.0
C278 C 0.56733 0.37201 0.00401 0.0
C279 C 0.5089 0.36549 0.96249 0.0
N280 N 0.56529 0.27581 0.9848 0.0
N281 N 0.51012 0.32268 0.96174 0.0
loop_
_geom_bond_atom_site_label_1
_geom_bond_atom_site_label_2
_geom_bond_distance
_geom_bond_site_symmetry_2
_ccdc_geom_bond_type
Tb0 C9 2.764 . S
Tb0 O10 2.325 . S
Tb0 O13 2.290 1_656 S
Tb0 O17 2.322 1_655 S
Tb0 O18 2.349 . S
Tb0 O21 2.415 1_556 S
Tb0 O22 2.399 . S
Tb1 O11 2.322 1_455 S
Tb1 O12 2.349 . S
Tb1 O14 2.415 1_554 S
Tb1 O15 2.399 . S
Tb1 O16 2.325 . S
Tb1 O19 2.303 1_554 S
Tb1 C30 2.764 . S
C2 O18 1.261 . S
C2 O19 1.257 1_655 S
C3 C6 1.358 . S
C3 C7 1.332 1_556 S
C3 C9 1.504 . S
C4 C5 1.373 1_554 S
C4 C8 1.308 . S
C5 C4 1.373 1_556 S
C5 C6 1.429 . S
C5 H32 0.932 . S
C6 C3 1.358 . S
C6 C5 1.429 . S
C6 H33 0.930 . S
C7 C3 1.332 1_554 S
C7 C8 1.394 . S
C7 H34 0.932 . S
C8 C4 1.308 . S
C8 C7 1.394 . S
C8 H35 0.929 . S
C9 Tb0 2.764 . S
C9 C3 1.504 . S
C9 O21 1.239 1_556 S
C9 O22 1.263 . S
O10 Tb0 2.325 . S
O10 C20 1.236 . S
O11 Tb1 2.322 1_655 S
O11 C20 1.257 1_554 S
O12 Tb1 2.349 . S
O12 C23 1.261 . S
O13 Tb0 2.290 1_454 S
O13 C23 1.268 . S
O14 Tb1 2.415 1_556 S
O14 C30 1.239 1_556 S
O15 Tb1 2.399 . S
O15 C30 1.263 . S
O16 Tb1 2.325 . S
O16 C31 1.236 . S
O17 Tb0 2.322 1_455 S
O17 C31 1.257 1_556 S
O18 Tb0 2.349 . S
O18 C2 1.261 . S
O19 Tb1 2.303 1_556 S
O19 C2 1.257 1_455 S
C20 O10 1.236 . S
C20 O11 1.257 1_556 S
O21 Tb0 2.415 1_554 S
O21 C9 1.239 1_554 S
O22 Tb0 2.399 . S
O22 C9 1.263 . S
C23 O12 1.261 . S
C23 O13 1.268 . S
C24 C27 1.358 . S
C24 C28 1.332 1_554 S
C24 C30 1.504 . S
C25 C26 1.373 1_556 S
C25 C29 1.308 . S
C26 C25 1.373 1_554 S
C26 C27 1.429 . S
C26 H36 0.932 . S
C27 C24 1.358 . S
C27 C26 1.429 . S
C27 H37 0.930 . S
C28 C24 1.332 1_556 S
C28 C29 1.394 . S
C28 H38 0.932 . S
C29 C25 1.308 . S
C29 C28 1.394 . S
C29 H39 0.929 . S
C30 Tb1 2.764 . S
C30 O14 1.239 1_554 S
C30 O15 1.263 . S
C30 C24 1.504 . S
C31 O16 1.236 . S
C31 O17 1.257 1_554 S
H32 C5 0.932 . S
H33 C6 0.930 . S
H34 C7 0.932 . S
H35 C8 0.929 . S
H36 C26 0.932 . S
H37 C27 0.930 . S
H38 C28 0.932 . S
H39 C29 0.929 . S
Tb40 C49 2.764 . S
Tb40 O50 2.325 . S
Tb40 O53 2.303 1_556 S
Tb40 O57 2.322 1_565 S
Tb40 O58 2.349 . S
Tb40 O61 2.415 1_556 S
Tb40 O62 2.399 . S
Tb41 O51 2.322 1_545 S
Tb41 O52 2.349 . S
Tb41 O54 2.415 1_554 S
Tb41 O55 2.399 . S
Tb41 O56 2.325 . S
Tb41 O59 2.303 1_554 S
Tb41 C70 2.764 . S
C42 O58 1.261 . S
C42 O59 1.257 1_565 S
C43 C46 1.358 . S
C43 C47 1.332 1_556 S
C43 C49 1.504 . S
C44 C45 1.373 . S
C44 C48 1.308 1_556 S
C45 C44 1.373 . S
C45 C46 1.429 . S
C45 H72 0.932 . S
C46 C43 1.358 . S
C46 C45 1.429 . S
C46 H73 0.930 . S
C47 C43 1.332 1_554 S
C47 C48 1.394 . S
C47 H74 0.932 . S
C48 C44 1.308 1_554 S
C48 C47 1.394 . S
C48 H75 0.929 . S
C49 Tb40 2.764 . S
C49 C43 1.504 . S
C49 O61 1.239 1_556 S
C49 O62 1.263 . S
O50 Tb40 2.325 . S
O50 C60 1.236 1_556 S
O51 Tb41 2.322 1_565 S
O51 C60 1.257 . S
O52 Tb41 2.349 . S
O52 C63 1.261 . S
O53 Tb40 2.303 1_554 S
O53 C63 1.257 1_565 S
O54 Tb41 2.415 1_556 S
O54 C70 1.239 1_556 S
O55 Tb41 2.399 . S
O55 C70 1.263 . S
O56 Tb41 2.325 . S
O56 C71 1.236 1_554 S
O57 Tb40 2.322 1_545 S
O57 C71 1.257 . S
O58 Tb40 2.349 . S
O58 C42 1.261 . S
O59 Tb41 2.303 1_556 S
O59 C42 1.257 1_545 S
C60 O50 1.236 1_554 S
C60 O51 1.257 . S
O61 Tb40 2.415 1_554 S
O61 C49 1.239 1_554 S
O62 Tb40 2.399 . S
O62 C49 1.263 . S
C63 O52 1.261 . S
C63 O53 1.257 1_545 S
C64 C67 1.358 . S
C64 C68 1.332 1_554 S
C64 C70 1.504 . S
C65 C66 1.373 . S
C65 C69 1.308 1_554 S
C66 C65 1.373 . S
C66 C67 1.429 . S
C66 H76 0.932 . S
C67 C64 1.358 . S
C67 C66 1.429 . S
C67 H77 0.930 . S
C68 C64 1.332 1_556 S
C68 C69 1.394 . S
C68 H78 0.932 . S
C69 C65 1.308 1_556 S
C69 C68 1.394 . S
C69 H79 0.929 . S
C70 Tb41 2.764 . S
C70 O54 1.239 1_554 S
C70 O55 1.263 . S
C70 C64 1.504 . S
C71 O56 1.236 1_556 S
C71 O57 1.257 . S
H72 C45 0.932 . S
H73 C46 0.930 . S
H74 C47 0.932 . S
H75 C48 0.929 . S
H76 C66 0.932 . S
H77 C67 0.930 . S
H78 C68 0.932 . S
H79 C69 0.929 . S
Tb80 C89 2.764 . S
Tb80 O90 2.325 . S
Tb80 O93 2.303 1_554 S
Tb80 O97 2.322 . S
Tb80 O98 2.349 . S
Tb80 O101 2.415 1_554 S
Tb80 O102 2.399 . S
Tb81 O91 2.322 . S
Tb81 O92 2.349 . S
Tb81 O94 2.415 1_556 S
Tb81 O95 2.399 . S
Tb81 O96 2.325 . S
Tb81 O99 2.303 1_556 S
Tb81 C110 2.764 . S
C82 O98 1.261 . S
C82 O99 1.257 . S
C83 C86 1.358 . S
C83 C87 1.332 1_554 S
C83 C89 1.504 . S
C84 C85 1.373 . S
C84 C88 1.308 1_554 S
C85 C84 1.373 . S
C85 C86 1.429 . S
C85 H112 0.932 . S
C86 C83 1.358 . S
C86 C85 1.429 . S
C86 H113 0.930 . S
C87 C83 1.332 1_556 S
C87 C88 1.394 . S
C87 H114 0.932 . S
C88 C84 1.308 1_556 S
C88 C87 1.394 . S
C88 H115 0.929 . S
C89 Tb80 2.764 . S
C89 C83 1.504 . S
C89 O101 1.239 1_554 S
C89 O102 1.263 . S
O90 Tb80 2.325 . S
O90 C100 1.236 1_554 S
O91 Tb81 2.322 . S
O91 C100 1.257 . S
O92 Tb81 2.349 . S
O92 C103 1.261 . S
O93 Tb80 2.303 1_556 S
O93 C103 1.257 . S
O94 Tb81 2.415 1_554 S
O94 C110 1.239 1_554 S
O95 Tb81 2.399 . S
O95 C110 1.263 . S
O96 Tb81 2.325 . S
O96 C111 1.236 1_556 S
O97 Tb80 2.322 . S
O97 C111 1.257 . S
O98 Tb80 2.349 . S
O98 C82 1.261 . S
O99 Tb81 2.303 1_554 S
O99 C82 1.257 . S
C100 O90 1.236 1_556 S
C100 O91 1.257 . S
O101 Tb80 2.415 1_556 S
O101 C89 1.239 1_556 S
O102 Tb80 2.399 . S
O102 C89 1.263 . S
C103 O92 1.261 . S
C103 O93 1.257 . S
C104 C107 1.358 . S
C104 C108 1.332 1_556 S
C104 C110 1.504 . S
C105 C106 1.373 . S
C105 C109 1.308 1_556 S
C106 C105 1.373 . S
C106 C107 1.429 . S
C106 H116 0.932 . S
C107 C104 1.358 . S
C107 C106 1.429 . S
C107 H117 0.930 . S
C108 C104 1.332 1_554 S
C108 C109 1.394 . S
C108 H118 0.932 . S
C109 C105 1.308 1_554 S
C109 C108 1.394 . S
C109 H119 0.929 . S
C110 Tb81 2.764 . S
C110 O94 1.239 1_556 S
C110 O95 1.263 . S
C110 C104 1.504 . S
C111 O96 1.236 1_554 S
C111 O97 1.257 . S
H112 C85 0.932 . S
H113 C86 0.930 . S
H114 C87 0.932 . S
H115 C88 0.929 . S
H116 C106 0.932 . S
H117 C107 0.930 . S
H118 C108 0.932 . S
H119 C109 0.929 . S
H120 C126 0.930 . S
H121 C130 0.930 . S
H122 C135 0.929 . S
H123 C133 0.929 . S
H124 C128 0.929 . S
H125 C134 0.929 . S
C126 H120 0.930 . S
C126 C127 1.367 1_655 S
C126 C134 1.378 . S
C127 C126 1.367 1_455 S
C127 C135 1.433 . S
C128 H124 0.929 . S
C128 C130 1.378 . S
C128 C132 1.350 . S
C129 C132 1.463 . S
C129 C134 1.350 1_455 S
C129 N137 1.427 . S
C130 H121 0.930 . S
C130 C128 1.378 . S
C130 C131 1.367 . S
C131 C130 1.367 . S
C131 C133 1.433 1_455 S
C132 C128 1.350 . S
C132 C129 1.463 . S
C132 N136 1.427 1_455 S
C133 H123 0.929 . S
C133 C131 1.433 1_655 S
C133 N136 1.384 . S
C134 H125 0.929 . S
C134 C126 1.378 . S
C134 C129 1.350 1_655 S
C135 H122 0.929 . S
C135 C127 1.433 . S
C135 N137 1.384 . S
N136 C132 1.427 1_655 S
N136 C133 1.384 . S
N137 C129 1.427 . S
N137 C135 1.384 . S
H138 C144 0.930 . S
H139 C148 0.930 . S
H140 C153 0.929 . S
H141 C151 0.929 . S
H142 C146 0.929 . S
H143 C152 0.929 . S
C144 H138 0.930 . S
C144 C145 1.367 . S
C144 C152 1.378 . S
C145 C144 1.367 . S
C145 C153 1.433 1_565 S
C146 H142 0.929 . S
C146 C148 1.378 . S
C146 C150 1.350 . S
C147 C150 1.463 1_565 S
C147 C152 1.350 . S
C147 N155 1.427 1_565 S
C148 H139 0.930 . S
C148 C146 1.378 . S
C148 C149 1.367 . S
C149 C148 1.367 . S
C149 C151 1.433 1_545 S
C150 C146 1.350 . S
C150 C147 1.463 1_545 S
C150 N154 1.427 1_545 S
C151 H141 0.929 . S
C151 C149 1.433 1_565 S
C151 N154 1.384 . S
C152 H143 0.929 . S
C152 C144 1.378 . S
C152 C147 1.350 . S
C153 H140 0.929 . S
C153 C145 1.433 1_545 S
C153 N155 1.384 . S
N154 C150 1.427 1_565 S
N154 C151 1.384 . S
N155 C147 1.427 1_545 S
N155 C153 1.384 . S
H156 C162 0.930 . S
H157 C166 0.930 . S
H158 C171 0.929 . S
H159 C169 0.929 . S
H160 C164 0.929 . S
H161 C170 0.929 . S
C162 H156 0.930 . S
C162 C163 1.367 . S
C162 C170 1.378 . S
C163 C162 1.367 . S
C163 C171 1.433 . S
C164 H160 0.929 . S
C164 C166 1.378 . S
C164 C168 1.350 . S
C165 C168 1.463 . S
C165 C170 1.350 . S
C165 N173 1.427 . S
C166 H157 0.930 . S
C166 C164 1.378 . S
C166 C167 1.367 . S
C167 C166 1.367 . S
C167 C169 1.433 . S
C168 C164 1.350 . S
C168 C165 1.463 . S
C168 N172 1.427 . S
C169 H159 0.929 . S
C169 C167 1.433 . S
C169 N172 1.384 . S
C170 H161 0.929 . S
C170 C162 1.378 . S
C170 C165 1.350 . S
C171 H158 0.929 . S
C171 C163 1.433 . S
C171 N173 1.384 . S
N172 C168 1.427 . S
N172 C169 1.384 . S
N173 C165 1.427 . S
N173 C171 1.384 . S
H174 C180 0.930 . S
H175 C184 0.930 . S
H176 C189 0.929 . S
H177 C187 0.929 . S
H178 C182 0.929 . S
H179 C188 0.929 . S
C180 H174 0.930 . S
C180 C181 1.367 . S
C180 C188 1.378 . S
C181 C180 1.367 . S
C181 C189 1.433 1_556 S
C182 H178 0.929 . S
C182 C184 1.378 . S
C182 C186 1.350 1_554 S
C183 C186 1.463 . S
C183 C188 1.350 . S
C183 N191 1.427 1_556 S
C184 H175 0.930 . S
C184 C182 1.378 . S
C184 C185 1.367 1_554 S
C185 C184 1.367 1_556 S
C185 C187 1.433 . S
C186 C182 1.350 1_556 S
C186 C183 1.463 . S
C186 N190 1.427 . S
C187 H177 0.929 . S
C187 C185 1.433 . S
C187 N190 1.384 . S
C188 H179 0.929 . S
C188 C180 1.378 . S
C188 C183 1.350 . S
C189 H176 0.929 . S
C189 C181 1.433 1_554 S
C189 N191 1.384 . S
N190 C186 1.427 . S
N190 C187 1.384 . S
N191 C183 1.427 1_554 S
N191 C189 1.384 . S
H192 C198 0.930 . S
H193 C202 0.930 . S
H194 C207 0.929 . S
H195 C205 0.929 . S
H196 C200 0.929 . S
H197 C206 0.929 . S
C198 H192 0.930 . S
C198 C199 1.367 . S
C198 C206 1.378 . S
C199 C198 1.367 . S
C199 C207 1.433 1_554 S
C200 H196 0.929 . S
C200 C202 1.378 . S
C200 C204 1.350 . S
C201 C204 1.463 1_554 S
C201 C206 1.350 . S
C201 N209 1.427 1_554 S
C202 H193 0.930 . S
C202 C200 1.378 . S
C202 C203 1.367 . S
C203 C202 1.367 . S
C203 C205 1.433 1_556 S
C204 C200 1.350 . S
C204 C201 1.463 1_556 S
C204 N208 1.427 1_556 S
C205 H195 0.929 . S
C205 C203 1.433 1_554 S
C205 N208 1.384 . S
C206 H197 0.929 . S
C206 C198 1.378 . S
C206 C201 1.350 . S
C207 H194 0.929 . S
C207 C199 1.433 1_556 S
C207 N209 1.384 . S
N208 C204 1.427 1_554 S
N208 C205 1.384 . S
N209 C201 1.427 1_556 S
N209 C207 1.384 . S
H210 C216 0.930 . S
H211 C220 0.930 . S
H212 C225 0.929 . S
H213 C223 0.929 . S
H214 C218 0.929 . S
H215 C224 0.929 . S
C216 H210 0.930 . S
C216 C217 1.367 . S
C216 C224 1.378 . S
C217 C216 1.367 . S
C217 C225 1.433 1_554 S
C218 H214 0.929 . S
C218 C220 1.378 . S
C218 C222 1.350 1_556 S
C219 C222 1.463 . S
C219 C224 1.350 . S
C219 N227 1.427 1_554 S
C220 H211 0.930 . S
C220 C218 1.378 . S
C220 C221 1.367 1_556 S
C221 C220 1.367 1_554 S
C221 C223 1.433 . S
C222 C218 1.350 1_554 S
C222 C219 1.463 . S
C222 N226 1.427 . S
C223 H213 0.929 . S
C223 C221 1.433 . S
C223 N226 1.384 . S
C224 H215 0.929 . S
C224 C216 1.378 . S
C224 C219 1.350 . S
C225 H212 0.929 . S
C225 C217 1.433 1_556 S
C225 N227 1.384 . S
N226 C222 1.427 . S
N226 C223 1.384 . S
N227 C219 1.427 1_556 S
N227 C225 1.384 . S
H228 C234 0.930 . S
H229 C238 0.930 . S
H230 C243 0.929 . S
H231 C241 0.929 . S
H232 C236 0.929 . S
H233 C242 0.929 . S
C234 H228 0.930 . S
C234 C235 1.367 . S
C234 C242 1.378 . S
C235 C234 1.367 . S
C235 C243 1.433 1_554 S
C236 H232 0.929 . S
C236 C238 1.378 . S
C236 C240 1.350 1_556 S
C237 C240 1.463 . S
C237 C242 1.350 . S
C237 N245 1.427 1_554 S
C238 H229 0.930 . S
C238 C236 1.378 . S
C238 C239 1.367 1_556 S
C239 C238 1.367 1_554 S
C239 C241 1.433 . S
C240 C236 1.350 1_554 S
C240 C237 1.463 . S
C240 N244 1.427 . S
C241 H231 0.929 . S
C241 C239 1.433 . S
C241 N244 1.384 . S
C242 H233 0.929 . S
C242 C234 1.378 . S
C242 C237 1.350 . S
C243 H230 0.929 . S
C243 C235 1.433 1_556 S
C243 N245 1.384 . S
N244 C240 1.427 . S
N244 C241 1.384 . S
N245 C237 1.427 1_556 S
N245 C243 1.384 . S
H246 C252 0.930 . S
H247 C256 0.930 . S
H248 C261 0.929 . S
H249 C259 0.929 . S
H250 C254 0.929 . S
H251 C260 0.929 . S
C252 H246 0.930 . S
C252 C253 1.367 . S
C252 C260 1.378 . S
C253 C252 1.367 . S
C253 C261 1.433 1_554 S
C254 H250 0.929 . S
C254 C256 1.378 . S
C254 C258 1.350 . S
C255 C258 1.463 1_554 S
C255 C260 1.350 . S
C255 N263 1.427 1_554 S
C256 H247 0.930 . S
C256 C254 1.378 . S
C256 C257 1.367 . S
C257 C256 1.367 . S
C257 C259 1.433 1_556 S
C258 C254 1.350 . S
C258 C255 1.463 1_556 S
C258 N262 1.427 1_556 S
C259 H249 0.929 . S
C259 C257 1.433 1_554 S
C259 N262 1.384 . S
C260 H251 0.929 . S
C260 C252 1.378 . S
C260 C255 1.350 . S
C261 H248 0.929 . S
C261 C253 1.433 1_556 S
C261 N263 1.384 . S
N262 C258 1.427 1_554 S
N262 C259 1.384 . S
N263 C255 1.427 1_556 S
N263 C261 1.384 . S
H264 C270 0.930 . S
H265 C274 0.930 . S
H266 C279 0.929 . S
H267 C277 0.929 . S
H268 C272 0.929 . S
H269 C278 0.929 . S
C270 H264 0.930 . S
C270 C271 1.367 . S
C270 C278 1.378 . S
C271 C270 1.367 . S
C271 C279 1.433 1_556 S
C272 H268 0.929 . S
C272 C274 1.378 . S
C272 C276 1.350 1_554 S
C273 C276 1.463 . S
C273 C278 1.350 . S
C273 N281 1.427 1_556 S
C274 H265 0.930 . S
C274 C272 1.378 . S
C274 C275 1.367 1_554 S
C275 C274 1.367 1_556 S
C275 C277 1.433 . S
C276 C272 1.350 1_556 S
C276 C273 1.463 . S
C276 N280 1.427 . S
C277 H267 0.929 . S
C277 C275 1.433 . S
C277 N280 1.384 . S
C278 H269 0.929 . S
C278 C270 1.378 . S
C278 C273 1.350 . S
C279 H266 0.929 . S
C279 C271 1.433 1_554 S
C279 N281 1.384 . S
N280 C276 1.427 . S
N280 C277 1.384 . S
N281 C273 1.427 1_554 S
N281 C279 1.384 . S
C127 C2 1.460 1_455 S
C131 C23 1.460 . S
C145 C63 1.476 1_565 S
C149 C42 1.476 1_545 S
C163 C103 1.466 . S
C167 C82 1.466 . S
C181 C25 0.763 . S
C185 C105 0.757 . S
C199 C65 1.809 . S
C203 C20 1.808 . S
C217 C60 2.509 . S
C221 C111 2.529 . S
C235 C4 0.765 . S
C239 C84 0.758 . S
C253 C31 1.807 . S
C257 C44 1.808 . S
C271 C100 2.531 . S
C275 C71 2.505 . S
