# Generated by pormake.
# Topology wfs, (7)-cn, num edge types: 1
# Building blocks:
#     Node 0, Type 0, BuildingBlock: NUHQUE_clean_sbu_2, # of connection points: 7
#     Node 1, Type 0, BuildingBlock: NUHQUE_clean_sbu_2, # of connection points: 7
#     Node 2, Type 0, BuildingBlock: NUHQUE_clean_sbu_2, # of connection points: 7
#     Node 3, Type 0, BuildingBlock: NUHQUE_clean_sbu_2, # of connection points: 7
#     Node 4, Type 0, BuildingBlock: NUHQUE_clean_sbu_2, # of connection points: 7
#     Node 5, Type 0, BuildingBlock: NUHQUE_clean_sbu_2, # of connection points: 7
#     Node 6, Type 0, BuildingBlock: NUHQUE_clean_sbu_2, # of connection points: 7
#     Node 7, Type 0, BuildingBlock: NUHQUE_clean_sbu_2, # of connection points: 7
#     Edge 8, Type (0, 0), BuildingBlock: ZUJKAS_clean_linker_0, # of connection points: 2
#     Edge 9, Type (0, 0), BuildingBlock: ZUJKAS_clean_linker_0, # of connection points: 2
#     Edge 10, Type (0, 0), BuildingBlock: ZUJKAS_clean_linker_0, # of connection points: 2
#     Edge 11, Type (0, 0), BuildingBlock: ZUJKAS_clean_linker_0, # of connection points: 2
#     Edge 12, Type (0, 0), BuildingBlock: ZUJKAS_clean_linker_0, # of connection points: 2
#     Edge 13, Type (0, 0), BuildingBlock: ZUJKAS_clean_linker_0, # of connection points: 2
#     Edge 14, Type (0, 0), BuildingBlock: ZUJKAS_clean_linker_0, # of connection points: 2
#     Edge 15, Type (0, 0), BuildingBlock: ZUJKAS_clean_linker_0, # of connection points: 2
#     Edge 16, Type (0, 0), BuildingBlock: ZUJKAS_clean_linker_0, # of connection points: 2
#     Edge 17, Type (0, 0), BuildingBlock: ZUJKAS_clean_linker_0, # of connection points: 2
#     Edge 18, Type (0, 0), BuildingBlock: ZUJKAS_clean_linker_0, # of connection points: 2
#     Edge 19, Type (0, 0), BuildingBlock: ZUJKAS_clean_linker_0, # of connection points: 2
#     Edge 20, Type (0, 0), BuildingBlock: ZUJKAS_clean_linker_0, # of connection points: 2
#     Edge 21, Type (0, 0), BuildingBlock: ZUJKAS_clean_linker_0, # of connection points: 2
#     Edge 22, Type (0, 0), BuildingBlock: ZUJKAS_clean_linker_0, # of connection points: 2
#     Edge 23, Type (0, 0), BuildingBlock: ZUJKAS_clean_linker_0, # of connection points: 2
#     Edge 24, Type (0, 0), BuildingBlock: ZUJKAS_clean_linker_0, # of connection points: 2
#     Edge 25, Type (0, 0), BuildingBlock: ZUJKAS_clean_linker_0, # of connection points: 2
#     Edge 26, Type (0, 0), BuildingBlock: ZUJKAS_clean_linker_0, # of connection points: 2
#     Edge 27, Type (0, 0), BuildingBlock: ZUJKAS_clean_linker_0, # of connection points: 2
#     Edge 28, Type (0, 0), BuildingBlock: ZUJKAS_clean_linker_0, # of connection points: 2
#     Edge 29, Type (0, 0), BuildingBlock: ZUJKAS_clean_linker_0, # of connection points: 2
#     Edge 30, Type (0, 0), BuildingBlock: ZUJKAS_clean_linker_0, # of connection points: 2
#     Edge 31, Type (0, 0), BuildingBlock: ZUJKAS_clean_linker_0, # of connection points: 2
#     Edge 32, Type (0, 0), BuildingBlock: ZUJKAS_clean_linker_0, # of connection points: 2
#     Edge 33, Type (0, 0), BuildingBlock: ZUJKAS_clean_linker_0, # of connection points: 2
#     Edge 34, Type (0, 0), BuildingBlock: ZUJKAS_clean_linker_0, # of connection points: 2
#     Edge 35, Type (0, 0), BuildingBlock: ZUJKAS_clean_linker_0, # of connection points: 2
# Relax obj value: 0.216
# Max RMSD: 0.189
# Mean RMSD: 0.189
data_MOF--net-wfs--node1-NUHQUE_clean_sbu_2--edge1-ZUJKAS_clean_linker_0
_symmetry_space_group_name_H-M    P1
_symmetry_Int_Tables_number       1
_symmetry_cell_setting            triclinic
loop_
_symmetry_equiv_pos_as_xyz
'x, y, z'
_cell_length_a     39.542867
_cell_length_b     45.890984
_cell_length_c     38.019822
_cell_angle_alpha  89.500395
_cell_angle_beta   90.515267
_cell_angle_gamma 89.971804
loop_
_atom_site_label
_atom_site_type_symbol
_atom_site_fract_x
_atom_site_fract_y
_atom_site_fract_z
_atom_type_partial_charge
O0 O 0.19427 0.10498 0.18207 0.0
Tb1 Tb 0.18356 0.14248 0.148 0.0
Eu2 Eu 0.20756 0.2162 0.09914 0.0
C3 C 0.22538 0.09694 0.19019 0.0
O4 O 0.25073 0.11334 0.17992 0.0
C5 C 0.22577 0.15287 0.08403 0.0
O6 O 0.19373 0.2551 0.0656 0.0
C7 C 0.26296 0.22739 0.13425 0.0
C8 C 0.16391 0.26074 0.05128 0.0
O9 O 0.15974 0.28597 0.03524 0.0
C10 C 0.15496 0.20364 0.16272 0.0
C11 C 0.28187 0.25251 0.14828 0.0
C12 C 0.31641 0.24925 0.15706 0.0
C13 C 0.3355 0.27323 0.1688 0.0
C14 C 0.31967 0.30053 0.17076 0.0
C15 C 0.28538 0.30418 0.162 0.0
C16 C 0.26638 0.27999 0.1511 0.0
O17 O 0.22815 0.15393 0.11841 0.0
O18 O 0.21292 0.17559 0.06781 0.0
O19 O 0.12891 0.14298 0.13785 0.0
O20 O 0.16117 0.12517 0.0996 0.0
C21 C 0.13002 0.13103 0.10705 0.0
O22 O 0.15948 0.21443 0.13077 0.0
O23 O 0.17457 0.18292 0.17609 0.0
O24 O 0.26138 0.22584 0.09985 0.0
O25 O 0.23424 0.22057 0.14941 0.0
H26 H 0.32828 0.22805 0.15493 0.0
H27 H 0.3342 0.31928 0.17921 0.0
H28 H 0.23993 0.28265 0.14404 0.0
O29 O 0.18325 0.92556 0.80448 0.0
Tb30 Tb 0.16587 0.89104 0.84007 0.0
Eu31 Eu 0.18589 0.81828 0.88542 0.0
C32 C 0.21504 0.93379 0.80133 0.0
O33 O 0.23901 0.91841 0.81677 0.0
C34 C 0.21033 0.88082 0.90372 0.0
O35 O 0.18275 0.77849 0.92021 0.0
C36 C 0.23259 0.80794 0.83929 0.0
C37 C 0.15583 0.76862 0.93664 0.0
O38 O 0.15814 0.74325 0.95277 0.0
C39 C 0.12735 0.83293 0.83018 0.0
C40 C 0.2543 0.78272 0.83077 0.0
C41 C 0.28859 0.78732 0.82242 0.0
C42 C 0.31016 0.76348 0.81699 0.0
C43 C 0.29727 0.73518 0.81949 0.0
C44 C 0.26315 0.73015 0.82692 0.0
C45 C 0.24161 0.75399 0.83252 0.0
O46 O 0.2122 0.88261 0.86932 0.0
O47 O 0.19558 0.858 0.91779 0.0
O48 O 0.1213 0.91875 0.84469 0.0
O49 O 0.14164 0.89935 0.89094 0.0
C50 C 0.11816 0.91645 0.87854 0.0
O51 O 0.13355 0.82589 0.86328 0.0
O52 O 0.14535 0.85291 0.8136 0.0
O53 O 0.23877 0.82027 0.86966 0.0
O54 O 0.20011 0.80544 0.83248 0.0
H55 H 0.29856 0.80929 0.82081 0.0
H56 H 0.31386 0.71684 0.81453 0.0
H57 H 0.21529 0.75012 0.83879 0.0
O58 O 0.82946 0.93094 0.20934 0.0
Tb59 Tb 0.8519 0.90844 0.16533 0.0
Eu60 Eu 0.83005 0.81137 0.14751 0.0
C61 C 0.79723 0.938 0.20829 0.0
O62 O 0.77827 0.92797 0.18256 0.0
C63 C 0.82119 0.87054 0.10856 0.0
O64 O 0.86293 0.77123 0.14799 0.0
C65 C 0.76882 0.7977 0.16634 0.0
C66 C 0.88601 0.76227 0.12574 0.0
O67 O 0.89928 0.73639 0.13155 0.0
C68 C 0.88311 0.85296 0.18955 0.0
C69 C 0.74866 0.77232 0.17765 0.0
C70 C 0.7148 0.77626 0.18806 0.0
C71 C 0.69469 0.7521 0.19734 0.0
C72 C 0.70916 0.72419 0.19652 0.0
C73 C 0.74275 0.71992 0.18618 0.0
C74 C 0.76259 0.74414 0.17705 0.0
O75 O 0.81714 0.87754 0.14163 0.0
O76 O 0.82748 0.84301 0.1012 0.0
O77 O 0.85642 0.95223 0.14269 0.0
O78 O 0.88741 0.91853 0.12297 0.0
C79 C 0.87981 0.94599 0.1202 0.0
O80 O 0.85145 0.84604 0.18295 0.0
O81 O 0.89003 0.88095 0.19009 0.0
O82 O 0.77905 0.7977 0.13351 0.0
O83 O 0.79211 0.80692 0.18847 0.0
H84 H 0.704 0.79797 0.18823 0.0
H85 H 0.69429 0.70552 0.20471 0.0
H86 H 0.78854 0.74106 0.16888 0.0
O87 O 0.8217 0.09798 0.81 0.0
Tb88 Tb 0.8353 0.1339 0.84507 0.0
Eu89 Eu 0.80825 0.19923 0.89988 0.0
C90 C 0.79029 0.08946 0.80415 0.0
O91 O 0.76526 0.10495 0.81664 0.0
C92 C 0.79141 0.13311 0.90916 0.0
O93 O 0.81973 0.23386 0.93992 0.0
C94 C 0.75455 0.21551 0.86453 0.0
C95 C 0.84872 0.23996 0.95564 0.0
O96 O 0.84969 0.26269 0.97637 0.0
C97 C 0.86325 0.19649 0.83731 0.0
C98 C 0.73722 0.24099 0.84833 0.0
C99 C 0.70219 0.23882 0.8417 0.0
C100 C 0.68422 0.26222 0.82652 0.0
C101 C 0.70151 0.28796 0.81833 0.0
C102 C 0.73614 0.29092 0.82534 0.0
C103 C 0.75421 0.26734 0.84044 0.0
O104 O 0.78911 0.13566 0.87488 0.0
O105 O 0.80225 0.15571 0.92687 0.0
O106 O 0.88571 0.11451 0.84828 0.0
O107 O 0.8622 0.12778 0.89535 0.0
C108 C 0.88904 0.11595 0.88223 0.0
O109 O 0.85718 0.20386 0.87018 0.0
O110 O 0.8459 0.176 0.82088 0.0
O111 O 0.75627 0.21483 0.899 0.0
O112 O 0.78196 0.20545 0.8495 0.0
H113 H 0.68893 0.21883 0.84818 0.0
H114 H 0.68766 0.30635 0.80726 0.0
H115 H 0.78099 0.26949 0.84609 0.0
O116 O 0.69371 0.59762 0.6993 0.0
Tb117 Tb 0.67093 0.63153 0.66604 0.0
Eu118 Eu 0.68666 0.70436 0.61931 0.0
C119 C 0.70052 0.57263 0.68396 0.0
O120 O 0.6941 0.57045 0.65012 0.0
C121 C 0.71259 0.64116 0.60064 0.0
O122 O 0.68459 0.7423 0.58159 0.0
C123 C 0.73018 0.71916 0.66775 0.0
C124 C 0.65735 0.75191 0.56514 0.0
O125 O 0.65952 0.7763 0.54696 0.0
C126 C 0.62935 0.68785 0.67356 0.0
C127 C 0.75322 0.74414 0.67478 0.0
C128 C 0.78812 0.73868 0.67872 0.0
C129 C 0.81085 0.76164 0.68465 0.0
C130 C 0.79852 0.79014 0.68698 0.0
C131 C 0.76393 0.79621 0.68419 0.0
C132 C 0.74113 0.77311 0.6782 0.0
O133 O 0.71594 0.63879 0.63491 0.0
O134 O 0.69737 0.66423 0.58732 0.0
O135 O 0.62524 0.60522 0.66654 0.0
O136 O 0.64416 0.61973 0.61728 0.0
C137 C 0.62046 0.60486 0.63273 0.0
O138 O 0.63473 0.69506 0.64047 0.0
O139 O 0.65041 0.6704 0.69089 0.0
O140 O 0.7379 0.70222 0.64129 0.0
O141 O 0.69756 0.72393 0.67015 0.0
H142 H 0.79761 0.71657 0.6771 0.0
H143 H 0.81596 0.80776 0.69272 0.0
H144 H 0.71432 0.77776 0.67604 0.0
O145 O 0.71337 0.4202 0.2856 0.0
Tb146 Tb 0.69589 0.38538 0.31996 0.0
Eu147 Eu 0.70427 0.31947 0.36389 0.0
C148 C 0.74523 0.42847 0.28563 0.0
O149 O 0.76737 0.414 0.30492 0.0
C150 C 0.72609 0.3805 0.3911 0.0
O151 O 0.66639 0.29205 0.39325 0.0
C152 C 0.76305 0.29479 0.35946 0.0
C153 C 0.63441 0.29301 0.38338 0.0
O154 O 0.62511 0.31061 0.35769 0.0
C155 C 0.66995 0.3279 0.28443 0.0
C156 C 0.78026 0.27047 0.34171 0.0
C157 C 0.81238 0.27528 0.32702 0.0
C158 C 0.82991 0.25238 0.31108 0.0
C159 C 0.81558 0.2245 0.31082 0.0
C160 C 0.78404 0.21911 0.32602 0.0
C161 C 0.766 0.24229 0.3408 0.0
O162 O 0.73631 0.38301 0.35857 0.0
O163 O 0.70525 0.35916 0.39839 0.0
O164 O 0.66045 0.41913 0.33564 0.0
O165 O 0.65133 0.3754 0.35184 0.0
C166 C 0.64045 0.40212 0.35335 0.0
O167 O 0.67446 0.31275 0.3137 0.0
O168 O 0.68241 0.35428 0.27942 0.0
O169 O 0.7407 0.28788 0.3836 0.0
O170 O 0.75407 0.31732 0.33977 0.0
H171 H 0.82366 0.2968 0.32791 0.0
H172 H 0.82941 0.20666 0.29912 0.0
H173 H 0.74153 0.23816 0.35245 0.0
O174 O 0.31491 0.42827 0.73038 0.0
Tb175 Tb 0.32933 0.39191 0.69744 0.0
Eu176 Eu 0.31064 0.3311 0.64494 0.0
C177 C 0.28314 0.43449 0.73713 0.0
O178 O 0.25919 0.41672 0.72649 0.0
C179 C 0.29298 0.39752 0.62787 0.0
O180 O 0.34219 0.30569 0.60719 0.0
C181 C 0.25352 0.30541 0.65715 0.0
C182 C 0.37488 0.31071 0.60714 0.0
O183 O 0.38719 0.33075 0.62811 0.0
C184 C 0.35199 0.33006 0.71976 0.0
C185 C 0.23754 0.27988 0.67422 0.0
C186 C 0.2037 0.28263 0.6847 0.0
C187 C 0.18593 0.25847 0.69769 0.0
C188 C 0.20247 0.23163 0.70108 0.0
C189 C 0.2363 0.22841 0.69137 0.0
C190 C 0.25403 0.25261 0.67777 0.0
O191 O 0.28699 0.39844 0.66172 0.0
O192 O 0.3066 0.37384 0.6149 0.0
O193 O 0.37687 0.4159 0.69559 0.0
O194 O 0.3637 0.38868 0.65273 0.0
C195 C 0.38611 0.40677 0.66486 0.0
O196 O 0.34955 0.32099 0.68709 0.0
O197 O 0.33594 0.35347 0.73056 0.0
O198 O 0.27173 0.30055 0.62901 0.0
O199 O 0.2658 0.32604 0.67754 0.0
H200 H 0.19078 0.30336 0.68152 0.0
H201 H 0.18888 0.21294 0.71147 0.0
H202 H 0.28003 0.25014 0.66954 0.0
O203 O 0.31921 0.58839 0.3023 0.0
Tb204 Tb 0.34375 0.6111 0.34532 0.0
Eu205 Eu 0.33086 0.71086 0.36482 0.0
C206 C 0.28868 0.57769 0.30668 0.0
O207 O 0.27236 0.58397 0.3356 0.0
C208 C 0.32184 0.6516 0.40453 0.0
O209 O 0.36777 0.74782 0.35855 0.0
C210 C 0.27058 0.73 0.3489 0.0
C211 C 0.39232 0.75608 0.37976 0.0
O212 O 0.40863 0.78012 0.37162 0.0
C213 C 0.37686 0.66612 0.31917 0.0
C214 C 0.25154 0.75456 0.33276 0.0
C215 C 0.21907 0.74891 0.31881 0.0
C216 C 0.19958 0.7714 0.30351 0.0
C217 C 0.21272 0.79978 0.30316 0.0
C218 C 0.24504 0.80589 0.31651 0.0
C219 C 0.26474 0.78314 0.3311 0.0
O220 O 0.31525 0.6449 0.37167 0.0
O221 O 0.32885 0.67915 0.41156 0.0
O222 O 0.34431 0.57123 0.37757 0.0
O223 O 0.38867 0.59706 0.3745 0.0
C224 C 0.37561 0.57356 0.38796 0.0
O225 O 0.34649 0.67543 0.32748 0.0
O226 O 0.38089 0.6377 0.31799 0.0
O227 O 0.28522 0.73423 0.37967 0.0
O228 O 0.28862 0.71385 0.32774 0.0
H229 H 0.20919 0.72688 0.31951 0.0
H230 H 0.19766 0.81752 0.2923 0.0
H231 H 0.28981 0.78768 0.3414 0.0
H232 H 0.28623 0.07446 0.21277 0.0
H233 H 0.29731 0.02609 0.2382 0.0
H234 H 0.19083 1.00642 0.23332 0.0
H235 H 0.17946 0.05466 0.20789 0.0
H236 H 0.27036 0.99777 0.30072 0.0
H237 H 0.23711 0.93987 0.17757 0.0
H238 H 0.24599 0.97846 0.17854 0.0
H239 H 0.20553 0.96501 0.19238 0.0
C240 C 0.2651 0.05994 0.2173 0.0
C241 C 0.23193 0.06847 0.20808 0.0
C242 C 0.27151 0.03229 0.23188 0.0
C243 C 0.24498 0.01248 0.23723 0.0
C244 C 0.21177 0.02119 0.22896 0.0
H245 H 0.22135 0.85257 0.35179 0.0
H246 H 0.22768 0.90382 0.33481 0.0
C247 C 0.2053 0.04887 0.21456 0.0
C248 C 0.25197 0.98248 0.25072 0.0
H249 H 0.24475 0.91067 0.22889 0.0
C250 C 0.265 0.97871 0.28496 0.0
C251 C 0.24554 0.95761 0.22996 0.0
C252 C 0.23306 0.9603 0.19245 0.0
C253 C 0.27051 0.95071 0.29942 0.0
C254 C 0.26262 0.92582 0.27917 0.0
C255 C 0.25077 0.92968 0.24449 0.0
C256 C 0.26413 0.89563 0.29393 0.0
C257 C 0.28467 0.948 0.33626 0.0
C258 C 0.28307 0.87386 0.27723 0.0
C259 C 0.27966 0.84449 0.2872 0.0
C260 C 0.25703 0.83642 0.31381 0.0
C261 C 0.23956 0.85834 0.33178 0.0
C262 C 0.24312 0.88764 0.322 0.0
H263 H 0.29875 0.96792 0.344 0.0
H264 H 0.26353 0.945 0.35494 0.0
H265 H 0.30181 0.92891 0.33882 0.0
H266 H 0.29922 0.87944 0.25532 0.0
H267 H 0.29272 0.82794 0.27237 0.0
H268 H 0.0867 0.78962 0.85555 0.0
H269 H 0.03748 0.7678 0.82709 0.0
H270 H 0.05228 0.82286 0.73601 0.0
H271 H 0.10206 0.84455 0.76404 0.0
H272 H 0.9805 0.79625 0.80757 0.0
H273 H 0.03659 0.74409 0.69091 0.0
H274 H 0.06184 0.75634 0.72774 0.0
H275 H 0.04747 0.7819 0.69469 0.0
C276 C 0.0798 0.79693 0.82928 0.0
C277 C 0.09837 0.8189 0.81207 0.0
C278 C 0.05165 0.78434 0.81303 0.0
C279 C 0.04151 0.79333 0.77919 0.0
C280 C 0.06015 0.81504 0.76176 0.0
H281 H 0.86387 0.78919 0.65372 0.0
H282 H 0.92215 0.79079 0.67568 0.0
C283 C 0.08844 0.82761 0.77797 0.0
C284 C 0.00976 0.78183 0.76354 0.0
H285 H 0.97627 0.75015 0.69005 0.0
C286 C 0.97964 0.78574 0.78213 0.0
C287 C 0.00872 0.76816 0.73032 0.0
C288 C 0.04043 0.76209 0.70989 0.0
C289 C 0.94831 0.7775 0.76782 0.0
C290 C 0.94713 0.7645 0.73421 0.0
C291 C 0.97731 0.75993 0.71591 0.0
C292 C 0.91442 0.75841 0.71649 0.0
C293 C 0.91657 0.78408 0.78809 0.0
C294 C 0.89132 0.73846 0.73093 0.0
C295 C 0.85794 0.73753 0.71841 0.0
C296 C 0.84735 0.75654 0.69131 0.0
C297 C 0.87138 0.77449 0.67483 0.0
C298 C 0.90466 0.77538 0.6873 0.0
H299 H 0.92149 0.79889 0.81053 0.0
H300 H 0.89714 0.79424 0.77063 0.0
H301 H 0.90598 0.76346 0.79873 0.0
H302 H 0.89857 0.72489 0.7532 0.0
H303 H 0.83988 0.72358 0.73163 0.0
H304 H 0.72381 0.19837 0.30029 0.0
H305 H 0.70899 0.14691 0.29092 0.0
H306 H 0.80198 0.12066 0.34235 0.0
H307 H 0.81636 0.17158 0.35213 0.0
H308 H 0.74728 0.11276 0.25 0.0
H309 H 0.73847 0.05998 0.38033 0.0
H310 H 0.7358 0.09903 0.37452 0.0
H311 H 0.77638 0.08121 0.37747 0.0
C312 C 0.74036 0.18148 0.31064 0.0
C313 C 0.77124 0.1888 0.32678 0.0
C314 C 0.73199 0.15216 0.3052 0.0
C315 C 0.75418 0.12985 0.31629 0.0
C316 C 0.78402 0.13731 0.33432 0.0
H317 H 0.83174 0.96806 0.25906 0.0
H318 H 0.81357 0.01254 0.28831 0.0
C319 C 0.79239 0.16645 0.3396 0.0
C320 C 0.74945 0.09938 0.30438 0.0
H321 H 0.75682 0.02868 0.3324 0.0
C322 C 0.74836 0.09433 0.26803 0.0
C323 C 0.75101 0.07533 0.32791 0.0
C324 C 0.75012 0.07919 0.36724 0.0
C325 C 0.75139 0.0661 0.25452 0.0
C326 C 0.75507 0.04221 0.27805 0.0
C327 C 0.75418 0.04704 0.31443 0.0
C328 C 0.7634 0.0127 0.26513 0.0
C329 C 0.75292 0.06228 0.21515 0.0
C330 C 0.74071 0.99738 0.24359 0.0
C331 C 0.75105 0.97196 0.22671 0.0
C332 C 0.78426 0.9614 0.23119 0.0
C333 C 0.80607 0.97566 0.25484 0.0
C334 C 0.79571 1.00108 0.27166 0.0
H335 H 0.75521 0.08342 0.20092 0.0
H336 H 0.77471 0.0483 0.20806 0.0
H337 H 0.72949 0.05139 0.20586 0.0
H338 H 0.71549 1.00577 0.23865 0.0
H339 H 0.7335 0.96138 0.20891 0.0
H340 H 0.89342 0.17955 0.7762 0.0
H341 H 0.9456 0.19865 0.75089 0.0
H342 H 0.95141 0.26321 0.83247 0.0
H343 H 0.89971 0.24391 0.85845 0.0
H344 H 0.9647 0.25269 0.72559 0.0
H345 H 0.04137 0.22159 0.8434 0.0
H346 H 0.99848 0.20928 0.83698 0.0
H347 H 0.00668 0.24562 0.85211 0.0
C348 C 0.90559 0.19799 0.7886 0.0
C349 C 0.89258 0.20999 0.81958 0.0
C350 C 0.93542 0.20888 0.77409 0.0
C351 C 0.95272 0.23197 0.79021 0.0
C352 C 0.9389 0.24493 0.82011 0.0
H353 H 0.15595 0.29751 0.74158 0.0
H354 H 0.09728 0.29642 0.76262 0.0
C355 C 0.90924 0.23393 0.8348 0.0
C356 C 0.98584 0.24161 0.77639 0.0
H357 H 0.06989 0.24541 0.79726 0.0
C358 C 0.98767 0.2513 0.74132 0.0
C359 C 0.01579 0.23977 0.797 0.0
C360 C 0.01569 0.22827 0.83434 0.0
C361 C 0.01875 0.25875 0.72614 0.0
C362 C 0.04869 0.25626 0.74651 0.0
C363 C 0.04678 0.24751 0.78186 0.0
C364 C 0.08257 0.25958 0.73082 0.0
C365 C 0.01943 0.26888 0.68831 0.0
C366 C 0.09346 0.23939 0.70588 0.0
C367 C 0.12675 0.23986 0.69413 0.0
C368 C 0.14978 0.26054 0.7071 0.0
C369 C 0.13856 0.2815 0.73104 0.0
C370 C 0.10521 0.28084 0.7431 0.0
H371 H 0.99437 0.27729 0.67948 0.0
H372 H 0.03867 0.28621 0.68446 0.0
H373 H 0.02614 0.25024 0.67134 0.0
H374 H 0.07655 0.22252 0.69653 0.0
H375 H 0.13479 0.22354 0.67554 0.0
H376 H 0.17151 0.97157 0.76784 0.0
H377 H 0.18381 0.02021 0.74459 0.0
H378 H 0.28887 0.00958 0.77311 0.0
H379 H 0.27689 0.96069 0.79604 0.0
H380 H 0.20819 0.06596 0.78283 0.0
H381 H 0.29537 0.04224 0.67313 0.0
H382 H 0.2694 0.01454 0.69338 0.0
H383 H 0.30768 0.02639 0.71468 0.0
C384 C 0.19737 0.97932 0.76869 0.0
C385 C 0.22319 0.96208 0.78382 0.0
C386 C 0.20435 1.00722 0.75542 0.0
C387 C 0.23734 0.01857 0.75675 0.0
C388 C 0.26335 1.00118 0.77109 0.0
H389 H 0.27172 0.20686 0.7474 0.0
H390 H 0.27795 0.15503 0.76287 0.0
C391 C 0.25639 0.97321 0.78437 0.0
C392 C 0.24377 0.04931 0.74551 0.0
H393 H 0.28852 0.09205 0.68815 0.0
C394 C 0.22581 0.07162 0.76217 0.0
C395 C 0.26663 0.05677 0.71839 0.0
C396 C 0.28569 0.03376 0.69858 0.0
C397 C 0.22996 0.10103 0.75252 0.0
C398 C 0.2532 0.10858 0.72581 0.0
C399 C 0.27113 0.08631 0.70898 0.0
C400 C 0.25717 0.13936 0.71369 0.0
C401 C 0.20862 0.12374 0.77036 0.0
C402 C 0.24559 0.14775 0.68007 0.0
C403 C 0.24249 0.17732 0.67109 0.0
C404 C 0.25128 0.19898 0.69541 0.0
C405 C 0.26552 0.19058 0.72791 0.0
C406 C 0.26863 0.16099 0.73691 0.0
H407 H 0.1871 0.11386 0.78478 0.0
H408 H 0.22449 0.13576 0.78958 0.0
H409 H 0.19843 0.13972 0.75088 0.0
H410 H 0.23658 0.13151 0.66174 0.0
H411 H 0.23067 0.18328 0.64623 0.0
H412 H 0.17347 0.794 0.24245 0.0
H413 H 0.11521 0.79223 0.22156 0.0
H414 H 0.09001 0.73337 0.30644 0.0
H415 H 0.14827 0.73651 0.3289 0.0
H416 H 0.07238 0.75188 0.1989 0.0
H417 H 0.02422 0.79787 0.32402 0.0
H418 H 0.06875 0.79552 0.31489 0.0
H419 H 0.04566 0.7635 0.32789 0.0
C420 C 0.15556 0.78074 0.25686 0.0
C421 C 0.16539 0.76605 0.28795 0.0
C422 C 0.12224 0.77949 0.24463 0.0
C423 C 0.09787 0.76326 0.26287 0.0
C424 C 0.10808 0.74674 0.29245 0.0
H425 H 0.88114 0.79879 0.22039 0.0
H426 H 0.93024 0.76802 0.23604 0.0
C427 C 0.14153 0.74825 0.30502 0.0
C428 C 0.06173 0.76565 0.25173 0.0
H429 H 0.98588 0.79391 0.27731 0.0
C430 C 0.05331 0.76053 0.21629 0.0
C431 C 0.03665 0.77694 0.27433 0.0
C432 C 0.04416 0.78402 0.31232 0.0
C433 C 0.02139 0.76806 0.20242 0.0
C434 C 0.99715 0.78086 0.22455 0.0
C435 C 1.00453 0.78393 0.26048 0.0
C436 C 0.96671 0.79586 0.21019 0.0
C437 C 0.01449 0.76371 0.16377 0.0
C438 C 0.97095 0.8213 0.19002 0.0
C439 C 0.94328 0.83903 0.1818 0.0
C440 C 0.9107 0.83143 0.19307 0.0
C441 C 0.90601 0.80498 0.21125 0.0
C442 C 0.93397 0.78748 0.22021 0.0
H443 H 0.02974 0.74544 0.15329 0.0
H444 H 0.98728 0.75937 0.15854 0.0
H445 H 0.02173 0.78383 0.14932 0.0
H446 H 0.99599 0.82836 0.18234 0.0
H447 H 0.94756 0.85924 0.16759 0.0
H448 H 0.83605 0.04868 0.78197 0.0
H449 H 0.82441 1.00012 0.75862 0.0
H450 H 0.7173 0.01614 0.76592 0.0
H451 H 0.72867 0.06481 0.78898 0.0
H452 H 0.78965 0.95499 0.79171 0.0
H453 H 0.72636 0.98524 0.66566 0.0
H454 H 0.75083 0.0109 0.69107 0.0
H455 H 0.70855 1.00168 0.70401 0.0
C456 C 0.80999 0.04209 0.77817 0.0
C457 C 0.78333 0.06084 0.78723 0.0
C458 C 0.80336 0.01421 0.76492 0.0
C459 C 0.76996 1.00447 0.76011 0.0
C460 C 0.74328 0.02326 0.76873 0.0
H461 H 0.72354 0.81763 0.73611 0.0
H462 H 0.71972 0.86882 0.75447 0.0
C463 C 0.74987 0.05112 0.78207 0.0
C464 C 0.7632 0.97423 0.7476 0.0
H465 H 0.72677 0.93509 0.68102 0.0
C466 C 0.77578 0.95066 0.76758 0.0
C467 C 0.74525 0.96851 0.71599 0.0
C468 C 0.73218 0.99287 0.6927 0.0
C469 C 0.77112 0.92165 0.7568 0.0
C470 C 0.75291 0.91588 0.72536 0.0
C471 C 0.74026 0.93945 0.70538 0.0
C472 C 0.74955 0.88569 0.71138 0.0
C473 C 0.78676 0.89743 0.7786 0.0
C474 C 0.76575 0.87834 0.67998 0.0
C475 C 0.76764 0.84926 0.66937 0.0
C476 C 0.75308 0.82688 0.68972 0.0
C477 C 0.73457 0.83445 0.71967 0.0
C478 C 0.73281 0.86364 0.73042 0.0
H479 H 0.8055 0.90578 0.79799 0.0
H480 H 0.76661 0.88589 0.79329 0.0
H481 H 0.7995 0.88136 0.76153 0.0
H482 H 0.77873 0.89489 0.66474 0.0
H483 H 0.78233 0.844 0.64635 0.0
H484 H 0.88715 0.27321 0.34294 0.0
H485 H 0.94514 0.27017 0.32058 0.0
H486 H 0.90676 0.23682 0.22227 0.0
H487 H 0.84912 0.23921 0.24484 0.0
H488 H 0.95467 0.2018 0.25111 0.0
H489 H 1.0002 0.31625 0.24933 0.0
H490 H 0.98342 0.30424 0.29074 0.0
H491 H 0.95598 0.307 0.25292 0.0
C492 C 0.89116 0.26606 0.31622 0.0
C493 C 0.8638 0.25645 0.29555 0.0
C494 C 0.92425 0.26432 0.30346 0.0
C495 C 0.93031 0.25335 0.26967 0.0
C496 C 0.90272 0.24528 0.24842 0.0
H497 H 0.1079 0.2441 0.14216 0.0
H498 H 0.05525 0.25659 0.17124 0.0
C499 C 0.86983 0.24675 0.26124 0.0
C500 C 0.96523 0.24751 0.25746 0.0
H501 H 0.04083 0.27952 0.23787 0.0
C502 C 0.97352 0.21881 0.24827 0.0
C503 C 0.98975 0.26972 0.25366 0.0
C504 C 0.98192 0.30109 0.26187 0.0
C505 C 1.00543 0.21174 0.23497 0.0
C506 C 0.0301 0.23386 0.23153 0.0
C507 C 0.02198 0.26255 0.24095 0.0
C508 C 0.0636 0.22787 0.21588 0.0
C509 C 0.01204 0.18084 0.22354 0.0
C510 C 0.08621 0.20799 0.23171 0.0
C511 C 0.11641 0.2006 0.21502 0.0
C512 C 0.12461 0.21311 0.18228 0.0
C513 C 0.10244 0.23388 0.16726 0.0
C514 C 0.0723 0.24118 0.1839 0.0
H515 H 0.98827 0.16815 0.2207 0.0
H516 H 0.02557 0.18053 0.19807 0.0
H517 H 0.02818 0.16972 0.24356 0.0
H518 H 0.08019 0.19781 0.25668 0.0
H519 H 0.13294 0.18465 0.22743 0.0
H520 H 0.71964 0.52049 0.65689 0.0
H521 H 0.736 0.47615 0.68829 0.0
H522 H 0.7269 0.52066 0.78716 0.0
H523 H 0.70978 0.56542 0.75568 0.0
H524 H 0.7888 0.46299 0.73396 0.0
H525 H 0.66496 0.45042 0.80068 0.0
H526 H 0.67118 0.47594 0.76496 0.0
H527 H 0.68662 0.48421 0.80832 0.0
C528 C 0.72116 0.52103 0.68534 0.0
C529 C 0.71303 0.54656 0.70376 0.0
C530 C 0.73068 0.49557 0.70328 0.0
C531 C 0.73225 0.4948 0.74015 0.0
C532 C 0.72527 0.5205 0.75872 0.0
H533 H 0.74662 0.33595 0.87006 0.0
H534 H 0.7526 0.38745 0.85305 0.0
C535 C 0.71569 0.54615 0.7407 0.0
C536 C 0.74018 0.46671 0.7586 0.0
H537 H 0.70544 0.4139 0.81097 0.0
C538 C 0.7707 0.45239 0.7511 0.0
C539 C 0.71664 0.45278 0.78101 0.0
C540 C 0.68288 0.46642 0.78911 0.0
C541 C 0.778 0.42444 0.76477 0.0
C542 C 0.75394 0.41011 0.78616 0.0
C543 C 0.72399 0.42486 0.79471 0.0
C544 C 0.75767 0.37899 0.79743 0.0
C545 C 0.81135 0.41044 0.75598 0.0
C546 C 0.75971 0.35693 0.77209 0.0
C547 C 0.75663 0.32756 0.78188 0.0
C548 C 0.75155 0.3196 0.81719 0.0
C549 C 0.75158 0.34146 0.84282 0.0
C550 C 0.75456 0.3709 0.83303 0.0
H551 H 0.83088 0.4271 0.7499 0.0
H552 H 0.8207 0.39642 0.77794 0.0
H553 H 0.80801 0.39669 0.73234 0.0
H554 H 0.76123 0.36248 0.74441 0.0
H555 H 0.75553 0.3112 0.76152 0.0
H556 H 0.36755 0.29748 0.22525 0.0
H557 H 0.42801 0.29973 0.23746 0.0
H558 H 0.4471 0.2444 0.14868 0.0
H559 H 0.38624 0.24328 0.13517 0.0
H560 H 0.47457 0.26076 0.25389 0.0
H561 H 0.5078 0.31238 0.12609 0.0
H562 H 0.46464 0.30806 0.14011 0.0
H563 H 0.48738 0.27758 0.12261 0.0
C564 C 0.38455 0.28587 0.20813 0.0
C565 C 0.37201 0.27068 0.17878 0.0
C566 C 0.41921 0.28702 0.21531 0.0
C567 C 0.44237 0.27284 0.19353 0.0
C568 C 0.42989 0.25622 0.16532 0.0
H569 H 0.65153 0.27118 0.27387 0.0
H570 H 0.59904 0.2542 0.24642 0.0
C571 C 0.39502 0.25523 0.15792 0.0
C572 C 0.47936 0.27622 0.20057 0.0
H573 H 0.55261 0.3034 0.16599 0.0
C574 C 0.49169 0.26983 0.23454 0.0
C575 C 0.50169 0.28847 0.1755 0.0
C576 C 0.48976 0.2973 0.13913 0.0
C577 C 0.52522 0.27605 0.24447 0.0
C578 C 0.54766 0.28809 0.21933 0.0
C579 C 0.53559 0.29386 0.18511 0.0
C580 C 0.58275 0.29704 0.2291 0.0
C581 C 0.53565 0.27112 0.28239 0.0
C582 C 0.59259 0.32637 0.22579 0.0
C583 C 0.6231 0.33604 0.24065 0.0
C584 C 0.6442 0.31657 0.25939 0.0
C585 C 0.63573 0.28678 0.25985 0.0
C586 C 0.6055 0.27708 0.24453 0.0
H587 H 0.51344 0.26883 0.2999 0.0
H588 H 0.55064 0.25073 0.28457 0.0
H589 H 0.55149 0.28938 0.29214 0.0
H590 H 0.57565 0.34218 0.21372 0.0
H591 H 0.62866 0.35914 0.23998 0.0
H592 H 0.28778 0.6848 0.86565 0.0
H593 H 0.27858 0.63296 0.85466 0.0
H594 H 0.20281 0.65459 0.77641 0.0
H595 H 0.21219 0.70673 0.78725 0.0
H596 H 0.22129 0.59307 0.85175 0.0
H597 H 0.28149 0.6148 0.72219 0.0
H598 H 0.28254 0.64093 0.75736 0.0
H599 H 0.24442 0.63575 0.73219 0.0
C600 C 0.26843 0.67844 0.84688 0.0
C601 C 0.25085 0.69967 0.82709 0.0
C602 C 0.26318 0.64885 0.84063 0.0
C603 C 0.24043 0.63998 0.81435 0.0
C604 C 0.22073 0.66105 0.7966 0.0
H605 H 0.22014 0.45611 0.75195 0.0
H606 H 0.20609 0.50523 0.77211 0.0
C607 C 0.22587 0.69077 0.80298 0.0
C608 C 0.24096 0.60922 0.80272 0.0
H609 H 0.26985 0.56614 0.73662 0.0
C610 C 0.23139 0.58711 0.82638 0.0
C611 C 0.25472 0.60158 0.76981 0.0
C612 C 0.26665 0.6244 0.7439 0.0
C613 C 0.23576 0.55751 0.81817 0.0
C614 C 0.25001 0.54997 0.78552 0.0
C615 C 0.25885 0.57206 0.7616 0.0
C616 C 0.2581 0.51943 0.77632 0.0
C617 C 0.22645 0.53451 0.84494 0.0
C618 C 0.29197 0.51114 0.77218 0.0
C619 C 0.30009 0.48318 0.76072 0.0
C620 C 0.27445 0.46297 0.75287 0.0
C621 C 0.24051 0.4711 0.75787 0.0
C622 C 0.23241 0.49913 0.76948 0.0
H623 H 0.22032 0.54405 0.87088 0.0
H624 H 0.20401 0.5223 0.83537 0.0
H625 H 0.24749 0.51869 0.84849 0.0
H626 H 0.31217 0.52654 0.77725 0.0
H627 H 0.32648 0.47772 0.75714 0.0
H628 H 0.37798 0.72313 0.29578 0.0
H629 H 0.42821 0.75192 0.28001 0.0
H630 H 0.49229 0.68004 0.31167 0.0
H631 H 0.44276 0.65215 0.32895 0.0
H632 H 0.52089 0.73006 0.32958 0.0
H633 H 0.4776 0.7374 0.1901 0.0
H634 H 0.45044 0.75412 0.22168 0.0
H635 H 0.45608 0.71523 0.2222 0.0
C636 C 0.40288 0.7139 0.30023 0.0
C637 C 0.40642 0.68542 0.31361 0.0
C638 C 0.43156 0.73017 0.29071 0.0
C639 C 0.46415 0.71795 0.29382 0.0
C640 C 0.46756 0.69002 0.30879 0.0
H641 H 0.64128 0.71889 0.17622 0.0
H642 H 0.58456 0.71755 0.20046 0.0
C643 C 0.43912 0.67398 0.31851 0.0
C644 C 0.49486 0.73278 0.27972 0.0
H645 H 0.53223 0.75383 0.2028 0.0
C646 C 0.52325 0.73571 0.30194 0.0
C647 C 0.49805 0.74003 0.24358 0.0
C648 C 0.46908 0.73638 0.21785 0.0
C649 C 0.55507 0.74388 0.28879 0.0
C650 C 0.55849 0.75023 0.25244 0.0
C651 C 0.52962 0.74906 0.23064 0.0
C652 C 0.59226 0.75383 0.23565 0.0
C653 C 0.58512 0.74361 0.31356 0.0
C654 C 0.61546 0.77536 0.24631 0.0
C655 C 0.6484 0.77592 0.23268 0.0
C656 C 0.6586 0.75506 0.20801 0.0
C657 C 0.63454 0.73488 0.19575 0.0
C658 C 0.60192 0.73422 0.20945 0.0
H659 H 0.5793 0.73274 0.33902 0.0
H660 H 0.60692 0.73226 0.30157 0.0
H661 H 0.59281 0.76636 0.31915 0.0
H662 H 0.60841 0.79126 0.2658 0.0
H663 H 0.66626 0.79181 0.24258 0.0
H664 H 0.80632 0.45646 0.28873 0.0
H665 H 0.82021 0.50456 0.26447 0.0
H666 H 0.72067 0.51057 0.21781 0.0
H667 H 0.70649 0.46256 0.24186 0.0
H668 H 0.77918 0.53077 0.17376 0.0
H669 H 0.77343 0.57848 0.30799 0.0
H670 H 0.79977 0.54698 0.30183 0.0
H671 H 0.75471 0.54363 0.29796 0.0
C672 C 0.78753 0.46781 0.27288 0.0
C673 C 0.75516 0.45579 0.26749 0.0
C674 C 0.79552 0.4953 0.25912 0.0
C675 C 0.77134 0.51114 0.23968 0.0
C676 C 0.73965 0.49863 0.23279 0.0
H677 H 0.71369 0.67242 0.15646 0.0
H678 H 0.72942 0.62158 0.1655 0.0
C679 C 0.73157 0.47123 0.24665 0.0
C680 C 0.77784 0.54161 0.2287 0.0
H681 H 0.77983 0.6108 0.26065 0.0
C682 C 0.77985 0.5483 0.19271 0.0
C683 C 0.77902 0.56433 0.25356 0.0
C684 C 0.77647 0.55823 0.29253 0.0
C685 C 0.78179 0.57732 0.18084 0.0
C686 C 0.78082 0.60016 0.2056 0.0
C687 C 0.78066 0.59331 0.24167 0.0
C688 C 0.7752 0.63099 0.19496 0.0
C689 C 0.78425 0.5832 0.14186 0.0
C690 C 0.79576 0.65338 0.20833 0.0
C691 C 0.78653 0.68264 0.20348 0.0
C692 C 0.75639 0.68983 0.18558 0.0
C693 C 0.73696 0.66745 0.17056 0.0
C694 C 0.74615 0.63836 0.17536 0.0
H695 H 0.7976 0.56517 0.12845 0.0
H696 H 0.7584 0.58465 0.13038 0.0
H697 H 0.79772 0.60394 0.1363 0.0
H698 H 0.81814 0.64817 0.22379 0.0
H699 H 0.80183 0.69947 0.21551 0.0
H700 H 0.38742 0.28026 0.70719 0.0
H701 H 0.43864 0.26358 0.7368 0.0
H702 H 0.42841 0.33162 0.81352 0.0
H703 H 0.37728 0.34914 0.78325 0.0
H704 H 0.48868 0.33331 0.78433 0.0
H705 H 0.46484 0.21932 0.8239 0.0
H706 H 0.45431 0.22484 0.7784 0.0
H707 H 0.43104 0.24396 0.81161 0.0
C708 C 0.39546 0.29134 0.73088 0.0
C709 C 0.37826 0.31626 0.74262 0.0
C710 C 0.42475 0.28153 0.74804 0.0
C711 C 0.43736 0.29609 0.77767 0.0
C712 C 0.41911 0.31991 0.79079 0.0
H713 H 0.63431 0.24622 0.87247 0.0
H714 H 0.57298 0.25289 0.86417 0.0
C715 C 0.38976 0.32985 0.77351 0.0
C716 C 0.47179 0.28902 0.79148 0.0
H717 H 0.52381 0.23231 0.81472 0.0
C718 C 0.49612 0.3113 0.79163 0.0
C719 C 0.48167 0.26039 0.80136 0.0
C720 C 0.45644 0.23587 0.80418 0.0
C721 C 0.5302 0.30549 0.79947 0.0
C722 C 0.54051 0.27649 0.80664 0.0
C723 C 0.51599 0.25444 0.80854 0.0
C724 C 0.57685 0.2688 0.81061 0.0
C725 C 0.55499 0.3305 0.7995 0.0
C726 C 0.59911 0.27423 0.78278 0.0
C727 C 0.63389 0.27049 0.78745 0.0
C728 C 0.64716 0.26091 0.81996 0.0
C729 C 0.62472 0.25352 0.8471 0.0
C730 C 0.58976 0.25745 0.84245 0.0
H731 H 0.5421 0.35165 0.80399 0.0
H732 H 0.57482 0.32739 0.82006 0.0
H733 H 0.56751 0.33179 0.77353 0.0
H734 H 0.58963 0.28231 0.75771 0.0
H735 H 0.65058 0.27601 0.76595 0.0
H736 H 0.22861 0.54834 0.31104 0.0
H737 H 0.21201 0.50467 0.27874 0.0
H738 H 0.30289 0.51063 0.21733 0.0
H739 H 0.31959 0.55446 0.24918 0.0
H740 H 0.24237 0.49227 0.17861 0.0
H741 H 0.26567 0.4291 0.30233 0.0
H742 H 0.23608 0.45875 0.30461 0.0
H743 H 0.27996 0.46616 0.29677 0.0
C744 C 0.24478 0.54073 0.2902 0.0
C745 C 0.2757 0.55466 0.28304 0.0
C746 C 0.23526 0.51571 0.27184 0.0
C747 C 0.25652 0.50417 0.24611 0.0
C748 C 0.28619 0.51916 0.2372 0.0
H749 H 0.30916 0.35506 0.13494 0.0
H750 H 0.29278 0.4042 0.15156 0.0
C751 C 0.29573 0.54419 0.2555 0.0
C752 C 0.24985 0.47506 0.23097 0.0
H753 H 0.25288 0.40263 0.25176 0.0
C754 C 0.24418 0.47264 0.19462 0.0
C755 C 0.25203 0.44951 0.25197 0.0
C756 C 0.25898 0.45078 0.29105 0.0
C757 C 0.24165 0.44525 0.17854 0.0
C758 C 0.24566 0.41969 0.19929 0.0
C759 C 0.24964 0.42219 0.23587 0.0
C760 C 0.25055 0.39048 0.18359 0.0
C761 C 0.23526 0.44398 0.13943 0.0
C762 C 0.23206 0.36625 0.19563 0.0
C763 C 0.24167 0.33796 0.18635 0.0
C764 C 0.27016 0.33355 0.16524 0.0
C765 C 0.28717 0.35789 0.15137 0.0
C766 C 0.27758 0.38603 0.16058 0.0
H767 H 0.2203 0.46312 0.13019 0.0
H768 H 0.25982 0.44449 0.12555 0.0
H769 H 0.22161 0.42378 0.13198 0.0
H770 H 0.21128 0.36915 0.21365 0.0
H771 H 0.22831 0.31956 0.19759 0.0
H772 H 0.33642 0.78565 0.75634 0.0
H773 H 0.39432 0.77815 0.73507 0.0
H774 H 0.42241 0.74005 0.83523 0.0
H775 H 0.36453 0.74691 0.85611 0.0
H776 H 0.46145 0.7923 0.75764 0.0
H777 H 0.43617 0.67341 0.76568 0.0
H778 H 0.40318 0.70031 0.76974 0.0
H779 H 0.43076 0.69226 0.80642 0.0
C780 C 0.35534 0.77661 0.7741 0.0
C781 C 0.34622 0.76691 0.80783 0.0
C782 C 0.38829 0.77215 0.7619 0.0
C783 C 0.41244 0.75792 0.78331 0.0
C784 C 0.40401 0.75052 0.81804 0.0
H785 H 0.60939 0.68005 0.7421 0.0
H786 H 0.55813 0.69883 0.76977 0.0
C787 C 0.3711 0.75472 0.83008 0.0
C788 C 0.44526 0.7484 0.76848 0.0
H789 H 0.49147 0.68753 0.75005 0.0
C790 C 0.46805 0.76942 0.75596 0.0
C791 C 0.45376 0.71848 0.76612 0.0
C792 C 0.4296 0.69476 0.77738 0.0
C793 C 0.49938 0.76132 0.74169 0.0
C794 C 0.50785 0.7314 0.73943 0.0
C795 C 0.48507 0.71045 0.75203 0.0
C796 C 0.53969 0.72119 0.72306 0.0
C797 C 0.52334 0.78487 0.72964 0.0
C798 C 0.54614 0.72721 0.68751 0.0
C799 C 0.57534 0.71653 0.67165 0.0
C800 C 0.59867 0.69937 0.69093 0.0
C801 C 0.59206 0.69324 0.72651 0.0
C802 C 0.56279 0.70398 0.74238 0.0
H803 H 0.51745 0.80616 0.74185 0.0
H804 H 0.54996 0.77901 0.73603 0.0
H805 H 0.52101 0.78757 0.70069 0.0
H806 H 0.52828 0.73977 0.67181 0.0
H807 H 0.57936 0.72152 0.6441 0.0
H808 H 0.12972 0.10326 0.04396 0.0
H809 H 0.08173 0.07781 0.01693 0.0
H810 H 0.01651 0.1105 0.0981 0.0
H811 H 0.06396 0.13627 0.12442 0.0
H812 H 0.0541 0.03512 0.0505 0.0
H813 H 0.95038 0.11082 0.01937 0.0
H814 H 0.99389 0.12262 0.02256 0.0
H815 H 0.96794 0.12007 0.06127 0.0
C816 C 0.10483 0.10571 0.05524 0.0
C817 C 0.10048 0.12124 0.08656 0.0
C818 C 0.07743 0.09131 0.03969 0.0
C819 C 0.04534 0.09236 0.05521 0.0
C820 C 0.04066 0.10988 0.08494 0.0
H821 H 0.88594 1.00356 0.13288 0.0
H822 H 0.92395 0.03792 0.10434 0.0
C823 C 0.06796 0.12433 0.10035 0.0
C824 C 0.01892 0.07075 0.04582 0.0
H825 H 0.9333 0.06345 0.04554 0.0
C826 C 0.02765 0.04115 0.04812 0.0
C827 C 0.98455 0.07859 0.04201 0.0
C828 C 0.97376 0.10977 0.03573 0.0
C829 C 1.0029 0.01945 0.05165 0.0
C830 C 0.96828 0.02766 0.05208 0.0
C831 C 0.95968 0.05701 0.04573 0.0
C832 C 0.9415 1.00754 0.06509 0.0
C833 C 0.01455 0.98854 0.05851 0.0
C834 C 0.93737 0.97922 0.05182 0.0
C835 C 0.91665 0.95909 0.06926 0.0
C836 C 0.89841 0.96751 0.09902 0.0
C837 C 0.89995 0.99651 0.11012 0.0
C838 C 0.92159 0.01621 0.09362 0.0
H839 H 0.04217 0.98721 0.06393 0.0
H840 H 1.00114 0.97886 0.08131 0.0
H841 H 0.00923 0.97514 0.03497 0.0
H842 H 0.95108 0.97231 0.02885 0.0
H843 H 0.91517 0.93693 0.05977 0.0
H844 H 0.94997 0.09851 0.8583 0.0
H845 H 0.99082 0.06711 0.88869 0.0
H846 H 0.92951 0.06846 0.98184 0.0
H847 H 0.88881 0.10055 0.95172 0.0
H848 H 0.02934 0.06921 0.95249 0.0
H849 H 0.9305 0.98241 0.95617 0.0
H850 H 0.92337 0.01558 0.93137 0.0
H851 H 0.92367 0.01618 0.97854 0.0
C852 C 0.94569 0.09272 0.88559 0.0
C853 C 0.91624 0.10168 0.90263 0.0
C854 C 0.96907 0.07487 0.90301 0.0
C855 C 0.96322 0.06531 0.93762 0.0
C856 C 0.93467 0.0756 0.95534 0.0
H857 H 0.12049 0.9285 0.9492 0.0
H858 H 0.08331 0.96238 0.98096 0.0
C859 C 0.91145 0.09392 0.93806 0.0
C860 C 0.98512 0.04189 0.95235 0.0
H861 H 0.98689 0.9676 0.95426 0.0
C862 C 0.0201 0.047 0.95429 0.0
C863 C 0.97294 0.01299 0.95563 0.0
C864 C 0.93561 1.0062 0.95531 0.0
C865 C 0.04324 0.02378 0.95418 0.0
C866 C 0.0309 0.99496 0.95197 0.0
C867 C 0.99613 0.98982 0.95541 0.0
C868 C 0.05158 0.97195 0.93564 0.0
C869 C 0.08055 0.03022 0.9521 0.0
C870 C 0.04558 0.96583 0.90005 0.0
C871 C 0.06664 0.94691 0.88203 0.0
C872 C 0.094 0.93346 0.89932 0.0
C873 C 0.09933 0.93852 0.93541 0.0
C874 C 0.07829 0.95787 0.95349 0.0
H875 H 0.0862 0.05363 0.95644 0.0
H876 H 0.0945 0.01704 0.97206 0.0
H877 H 0.09007 0.02404 0.9258 0.0
H878 H 0.0252 0.97661 0.88577 0.0
H879 H 0.06199 0.94338 0.85426 0.0
H880 H 0.56211 0.58671 0.66116 0.0
H881 H 0.52293 0.55069 0.63769 0.0
H882 H 0.58097 0.546 0.54235 0.0
H883 H 0.62052 0.58273 0.5659 0.0
H884 H 0.48394 0.54615 0.56967 0.0
H885 H 0.58452 0.46246 0.59157 0.0
H886 H 0.58828 0.49765 0.61204 0.0
H887 H 0.59244 0.4946 0.56529 0.0
C888 C 0.56611 0.57852 0.63487 0.0
C889 C 0.5943 0.58724 0.61538 0.0
C890 C 0.54366 0.55805 0.62142 0.0
C891 C 0.54919 0.54563 0.5884 0.0
C892 C 0.57636 0.5554 0.5679 0.0
H893 H 0.3943 0.40725 0.59351 0.0
H894 H 0.43584 0.43621 0.56024 0.0
C895 C 0.59877 0.57635 0.58128 0.0
C896 C 0.52847 0.52011 0.57867 0.0
H897 H 0.52801 0.44713 0.59629 0.0
C898 C 0.49358 0.52425 0.57387 0.0
C899 C 0.54127 0.49161 0.58394 0.0
C900 C 0.57867 0.48603 0.58848 0.0
C901 C 0.47084 0.5011 0.57849 0.0
C902 C 0.4835 0.47337 0.5883 0.0
C903 C 0.5185 0.46852 0.58888 0.0
C904 C 0.4616 0.45219 0.60664 0.0
C905 C 0.43336 0.50697 0.57639 0.0
C906 C 0.46306 0.45113 0.6435 0.0
C907 C 0.4394 0.43503 0.66238 0.0
C908 C 0.41414 0.4194 0.64468 0.0
C909 C 0.41381 0.419 0.60768 0.0
C910 C 0.43734 0.43554 0.58869 0.0
H911 H 0.42765 0.52968 0.5679 0.0
H912 H 0.42143 0.49177 0.55744 0.0
H913 H 0.42172 0.50303 0.60247 0.0
H914 H 0.48154 0.46399 0.65776 0.0
H915 H 0.44012 0.43569 0.69085 0.0
H916 H 0.59119 0.36881 0.38416 0.0
H917 H 0.53886 0.38638 0.41158 0.0
H918 H 0.5699 0.47513 0.39227 0.0
H919 H 0.62172 0.45785 0.36494 0.0
H920 H 0.53902 0.46132 0.46326 0.0
H921 H 0.46412 0.42567 0.34614 0.0
H922 H 0.4918 0.40027 0.36853 0.0
H923 H 0.50942 0.42988 0.34368 0.0
C924 C 0.58686 0.39204 0.38614 0.0
C925 C 0.61017 0.41203 0.37209 0.0
C926 C 0.55711 0.40201 0.40183 0.0
C927 C 0.5506 0.43203 0.40383 0.0
C928 C 0.57458 0.45189 0.3911 0.0
H929 H 0.44055 0.57716 0.41047 0.0
H930 H 0.47724 0.537 0.42807 0.0
C931 C 0.60403 0.44199 0.37527 0.0
C932 C 0.5177 0.44341 0.4158 0.0
H933 H 0.44007 0.46074 0.38224 0.0
C934 C 0.51693 0.46057 0.44616 0.0
C935 C 0.48876 0.44196 0.39383 0.0
C936 C 0.48825 0.42353 0.36115 0.0
C937 C 0.48895 0.47832 0.45342 0.0
C938 C 0.46169 0.47955 0.42908 0.0
C939 C 0.46105 0.46004 0.4008 0.0
C940 C 0.43759 0.50438 0.42788 0.0
C941 C 0.48958 0.49652 0.48623 0.0
C942 C 0.40279 0.49974 0.42245 0.0
C943 C 0.38176 0.52281 0.4118 0.0
C944 C 0.39535 0.55073 0.40626 0.0
C945 C 0.42949 0.55579 0.4144 0.0
C946 C 0.45043 0.53283 0.42496 0.0
H947 H 0.50254 0.48458 0.50802 0.0
H948 H 0.50417 0.51677 0.48123 0.0
H949 H 0.4637 0.5025 0.49469 0.0
H950 H 0.39234 0.47798 0.42436 0.0
H951 H 0.35541 0.51843 0.40589 0.0
H952 H 0.20172 0.13999 0.01832 0.0
H953 H 0.19947 0.09211 0.99068 0.0
H954 H 0.24866 0.05375 0.0816 0.0
H955 H 0.25117 0.10158 0.10944 0.0
H956 H 0.27611 0.03744 0.01543 0.0
H957 H 0.1369 0.02351 0.02157 0.0
H958 H 0.14993 0.05689 1.00068 0.0
H959 H 0.15926 0.05078 0.04651 0.0
C960 C 0.21227 0.12141 0.03236 0.0
C961 C 0.22651 0.12448 0.06615 0.0
C962 C 0.21067 0.09408 0.01666 0.0
C963 C 0.22343 0.06947 0.03441 0.0
C964 C 0.23845 0.07254 0.06769 0.0
H965 H 0.19142 0.88964 0.97182 0.0
H966 H 0.19561 0.93481 0.00524 0.0
C967 C 0.23987 0.09983 0.08352 0.0
C968 C 0.22186 0.0406 0.01779 0.0
H969 H 0.167 0.98963 0.98609 0.0
C970 C 0.25231 0.02685 0.00918 0.0
C971 C 0.1907 0.02682 0.01019 0.0
C972 C 0.15732 0.0401 0.02048 0.0
C973 C 0.25245 0.99988 0.99221 0.0
C974 C 0.22131 0.98665 0.98331 0.0
C975 C 0.19083 1.00002 0.99277 0.0
C976 C 0.21984 0.95916 0.96355 0.0
C977 C 0.2859 0.98573 0.98403 0.0
C978 C 0.23209 0.95806 0.9291 0.0
C979 C 0.22982 0.93233 0.90998 0.0
C980 C 0.21507 0.90733 0.92491 0.0
C981 C 0.20312 0.90846 0.95962 0.0
C982 C 0.20533 0.93425 0.9787 0.0
H983 H 0.30678 0.99474 1.00038 0.0
H984 H 0.28472 0.96179 0.98837 0.0
H985 H 0.29204 0.98981 0.956 0.0
H986 H 0.24292 0.97724 0.91681 0.0
H987 H 0.23928 0.93218 0.88339 0.0
H988 H 0.09355 0.74686 0.92527 0.0
H989 H 0.04029 0.76702 0.94556 0.0
H990 H 0.0915 0.84591 0.97627 0.0
H991 H 0.14534 0.8255 0.95558 0.0
H992 H 0.05863 0.81959 0.03091 0.0
H993 H 0.96961 0.82702 0.91924 0.0
H994 H 0.99101 0.79261 0.91877 0.0
H995 H 0.01489 0.82578 0.91328 0.0
C996 C 0.09322 0.769 0.93497 0.0
C997 C 0.12349 0.78469 0.93864 0.0
C998 C 0.06266 0.78061 0.94647 0.0
C999 C 0.06161 0.80815 0.96227 0.0
C1000 C 0.09154 0.82474 0.96389 0.0
H1001 H 0.89949 0.82141 0.12108 0.0
H1002 H 0.93801 0.84425 0.07829 0.0
C1003 C 0.12226 0.81318 0.95183 0.0
C1004 C 0.03079 0.81656 0.9822 0.0
H1005 H 0.94459 0.81342 0.97625 0.0
C1006 C 0.03366 0.81936 0.01888 0.0
C1007 C 0.99816 0.81643 0.9666 0.0
C1008 C 0.99328 0.81561 0.92724 0.0
C1009 C 1.00499 0.81865 0.04056 0.0
C1010 C 0.97245 0.81552 0.02511 0.0
C1011 C 0.96945 0.81567 0.98822 0.0
C1012 C 0.94304 0.80559 0.04641 0.0
C1013 C 0.01001 0.81831 0.07997 0.0
C1014 C 0.93124 0.7771 0.04147 0.0
C1015 C 0.90961 0.7642 0.0658 0.0
C1016 C 0.89891 0.77949 0.09556 0.0
C1017 C 0.90761 0.80906 0.09861 0.0
C1018 C 0.92978 0.82202 0.07426 0.0
H1019 H 0.03716 0.81778 0.08773 0.0
H1020 H 0.99845 0.83812 0.09133 0.0
H1021 H 0.99729 0.79904 0.09172 0.0
H1022 H 0.94085 0.76396 0.02022 0.0
H1023 H 0.90315 0.74142 0.06259 0.0
H1024 H 0.78718 0.11893 0.97874 0.0
H1025 H 0.79626 0.07112 0.00617 0.0
H1026 H 0.81346 0.03375 0.90412 0.0
H1027 H 0.80287 0.08113 0.87659 0.0
H1028 H 0.7766 0.99805 0.94281 0.0
H1029 H 0.88547 0.03382 0.02366 0.0
H1030 H 0.84868 0.05506 0.03253 0.0
H1031 H 0.86736 0.05658 0.98948 0.0
C1032 C 0.79266 0.10046 0.96217 0.0
C1033 C 0.79437 0.10383 0.9255 0.0
C1034 C 0.79823 0.07321 0.97787 0.0
C1035 C 0.80657 0.04898 0.95729 0.0
C1036 C 0.80735 0.05214 0.92059 0.0
H1037 H 0.8506 0.87103 0.0426 0.0
H1038 H 0.85101 0.91227 1.0003 0.0
C1039 C 0.80114 0.07926 0.90484 0.0
C1040 C 0.81407 0.02034 0.9741 0.0
H1041 H 0.85945 0.98865 0.04077 0.0
C1042 C 0.79531 0.99581 0.96369 0.0
C1043 C 0.83873 0.01728 1.00112 0.0
C1044 C 0.86144 0.04206 0.01206 0.0
C1045 C 0.79909 0.96885 0.98113 0.0
C1046 C 0.82221 0.96644 0.00949 0.0
C1047 C 0.84205 0.9905 0.01876 0.0
C1048 C 0.82212 0.94095 0.0335 0.0
C1049 C 0.77698 0.94355 0.97069 0.0
C1050 C 0.80577 0.94362 0.06574 0.0
C1051 C 0.80545 0.92045 0.0895 0.0
C1052 C 0.82178 0.89409 0.08181 0.0
C1053 C 0.83789 0.89113 0.04921 0.0
C1054 C 0.83816 0.91458 0.02515 0.0
H1055 H 0.7605 0.94881 0.94768 0.0
H1056 H 0.793 0.92451 0.96419 0.0
H1057 H 0.76077 0.93711 0.99316 0.0
H1058 H 0.79319 0.96376 0.07257 0.0
H1059 H 0.79235 0.92329 0.1141 0.0
H1060 H 0.10087 0.27273 0.07295 0.0
H1061 H 0.04935 0.24642 0.05786 0.0
H1062 H 0.10882 0.17754 0.01285 0.0
H1063 H 0.16091 0.20417 0.02833 0.0
H1064 H 0.06367 0.20028 0.96553 0.0
H1065 H 0.99569 0.17518 0.08689 0.0
H1066 H 0.00812 0.21269 0.08842 0.0
H1067 H 0.04004 0.18463 0.08733 0.0
C1068 C 0.10303 0.25138 0.0612 0.0
C1069 C 0.13488 0.24038 0.05213 0.0
C1070 C 0.07349 0.23625 0.05259 0.0
C1071 C 0.07497 0.20984 0.03426 0.0
C1072 C 0.10694 0.19778 0.02715 0.0
H1073 H 0.86213 0.18367 0.9762 0.0
H1074 H 0.91891 0.16431 0.98985 0.0
C1075 C 0.13672 0.21285 0.03631 0.0
C1076 C 0.04328 0.19818 0.01789 0.0
H1077 H 0.95933 0.19014 0.03588 0.0
C1078 C 0.04103 0.19714 0.98099 0.0
C1079 C 0.01366 0.19319 0.0377 0.0
C1080 C 0.01467 0.19116 0.0773 0.0
C1081 C 0.00957 0.19476 0.96357 0.0
C1082 C 0.97946 0.19402 0.98348 0.0
C1083 C 0.98213 0.19146 0.02032 0.0
C1084 C 0.94567 0.20116 0.96753 0.0
C1085 C 0.0089 0.19453 0.92392 0.0
C1086 C 0.94161 0.2276 0.94902 0.0
C1087 C 0.90938 0.23846 0.94111 0.0
C1088 C 0.88032 0.22317 0.95136 0.0
C1089 C 0.88413 0.19556 0.96723 0.0
C1090 C 0.91659 0.18468 0.97542 0.0
H1091 H 0.03127 0.18283 0.91361 0.0
H1092 H 0.9856 0.1841 0.91346 0.0
H1093 H 0.01009 0.21729 0.91391 0.0
H1094 H 0.96326 0.24123 0.94332 0.0
H1095 H 0.90717 0.26007 0.92961 0.0
H1096 H 0.68224 0.39582 0.44286 0.0
H1097 H 0.68265 0.4401 0.47794 0.0
H1098 H 0.77577 0.46683 0.42892 0.0
H1099 H 0.77437 0.42319 0.39223 0.0
H1100 H 0.72165 0.46144 0.52551 0.0
H1101 H 0.72258 0.53875 0.41301 0.0
H1102 H 0.71674 0.50016 0.40726 0.0
H1103 H 0.75859 0.51506 0.41285 0.0
C1104 C 0.70292 0.41105 0.43963 0.0
C1105 C 0.72827 0.40603 0.41468 0.0
C1106 C 0.7031 0.43646 0.45972 0.0
C1107 C 0.72885 0.45731 0.4557 0.0
C1108 C 0.75498 0.45169 0.43179 0.0
H1109 H 0.75632 0.59578 0.61186 0.0
H1110 H 0.762 0.55146 0.57692 0.0
C1111 C 0.7544 0.42656 0.41109 0.0
C1112 C 0.7281 0.48475 0.47659 0.0
H1113 H 0.73152 0.55902 0.46961 0.0
C1114 C 0.72371 0.48277 0.51321 0.0
C1115 C 0.73012 0.51274 0.46066 0.0
C1116 C 0.73189 0.51687 0.42127 0.0
C1117 C 0.72135 0.50778 0.53421 0.0
C1118 C 0.72493 0.53571 0.51847 0.0
C1119 C 0.72925 0.53769 0.48186 0.0
C1120 C 0.72288 0.5632 0.5391 0.0
C1121 C 0.71379 0.5039 0.57284 0.0
C1122 C 0.70024 0.58534 0.52869 0.0
C1123 C 0.69772 0.61104 0.54803 0.0
C1124 C 0.71749 0.61506 0.57852 0.0
C1125 C 0.74059 0.59319 0.58862 0.0
C1126 C 0.74357 0.56769 0.56886 0.0
H1127 H 0.70143 0.4826 0.57824 0.0
H1128 H 0.73781 0.50441 0.58812 0.0
H1129 H 0.69706 0.52149 0.58249 0.0
H1130 H 0.68401 0.58255 0.50586 0.0
H1131 H 0.67948 0.62737 0.53968 0.0
H1132 H 0.44349 0.31005 0.6093 0.0
H1133 H 0.4817 0.28846 0.56687 0.0
H1134 H 0.39659 0.25414 0.50893 0.0
H1135 H 0.3578 0.27579 0.55156 0.0
H1136 H 0.48833 0.22735 0.5376 0.0
H1137 H 0.44752 0.31437 0.44279 0.0
H1138 H 0.43954 0.31741 0.48926 0.0
H1139 H 0.41595 0.29188 0.46339 0.0
C1140 C 0.43282 0.29763 0.5878 0.0
C1141 C 0.39764 0.29498 0.5834 0.0
C1142 C 0.45471 0.28509 0.56379 0.0
C1143 C 0.44187 0.26984 0.53487 0.0
C1144 C 0.40685 0.26588 0.53119 0.0
H1145 H 0.57601 0.27136 0.35675 0.0
H1146 H 0.52735 0.25387 0.38995 0.0
C1147 C 0.38481 0.27831 0.55545 0.0
C1148 C 0.46532 0.26169 0.50671 0.0
H1149 H 0.49682 0.28901 0.43032 0.0
C1150 C 0.48984 0.24024 0.51361 0.0
C1151 C 0.46694 0.27846 0.47547 0.0
C1152 C 0.44124 0.30192 0.46706 0.0
C1153 C 0.51719 0.23625 0.49086 0.0
C1154 C 0.52042 0.25482 0.46118 0.0
C1155 C 0.49446 0.27476 0.45307 0.0
C1156 C 0.55211 0.25715 0.44081 0.0
C1157 C 0.54271 0.21277 0.49942 0.0
C1158 C 0.58275 0.26355 0.45818 0.0
C1159 C 0.6108 0.27299 0.43913 0.0
C1160 C 0.60823 0.27693 0.40261 0.0
C1161 C 0.57841 0.26872 0.38502 0.0
C1162 C 0.55067 0.25865 0.40393 0.0
H1163 H 0.53033 0.19381 0.51233 0.0
H1164 H 0.55588 0.20515 0.47552 0.0
H1165 H 0.56178 0.22142 0.51819 0.0
H1166 H 0.58431 0.26341 0.48662 0.0
H1167 H 0.63349 0.27941 0.45324 0.0
H1168 H 0.27498 0.45256 0.64876 0.0
H1169 H 0.28177 0.49843 0.61622 0.0
H1170 H 0.32083 0.45142 0.52771 0.0
H1171 H 0.31444 0.40551 0.56009 0.0
H1172 H 0.35964 0.50072 0.54507 0.0
H1173 H 0.22312 0.5284 0.53436 0.0
H1174 H 0.23846 0.52156 0.57828 0.0
H1175 H 0.23775 0.4925 0.54691 0.0
C1176 C 0.28459 0.45188 0.62219 0.0
C1177 C 0.29381 0.42518 0.60698 0.0
C1178 C 0.2885 0.4782 0.6036 0.0
C1179 C 0.30156 0.47844 0.56934 0.0
C1180 C 0.31067 0.45184 0.55408 0.0
H1181 H 0.28485 0.60246 0.40265 0.0
H1182 H 0.28274 0.56267 0.44514 0.0
C1183 C 0.30673 0.42553 0.57258 0.0
C1184 C 0.30581 0.5063 0.54926 0.0
H1185 H 0.26162 0.56281 0.51195 0.0
C1186 C 0.33826 0.5144 0.53794 0.0
C1187 C 0.2779 0.52416 0.53992 0.0
C1188 C 0.24228 0.51621 0.55019 0.0
C1189 C 0.34348 0.53952 0.51706 0.0
C1190 C 0.31547 0.55722 0.50739 0.0
C1191 C 0.28316 0.5494 0.51943 0.0
C1192 C 0.31813 0.58203 0.48181 0.0
C1193 C 0.37883 0.54633 0.50489 0.0
C1194 C 0.33872 0.60657 0.48806 0.0
C1195 C 0.34018 0.62958 0.46328 0.0
C1196 C 0.32123 0.62823 0.43184 0.0
C1197 C 0.30031 0.60394 0.42621 0.0
C1198 C 0.29889 0.58117 0.45068 0.0
H1199 H 0.39506 0.52655 0.50488 0.0
H1200 H 0.37874 0.55604 0.47813 0.0
H1201 H 0.39042 0.56234 0.52308 0.0
H1202 H 0.35344 0.60801 0.51213 0.0
H1203 H 0.35628 0.64816 0.46852 0.0
H1204 H 0.59549 0.77519 0.57394 0.0
H1205 H 0.54149 0.75329 0.55807 0.0
H1206 H 0.59154 0.67162 0.53793 0.0
H1207 H 0.64608 0.69381 0.55404 0.0
H1208 H 0.55801 0.69311 0.48062 0.0
H1209 H 0.47092 0.69638 0.59227 0.0
H1210 H 0.49299 0.73036 0.58903 0.0
H1211 H 0.51634 0.69734 0.59812 0.0
C1212 C 0.59479 0.75223 0.56751 0.0
C1213 C 0.62485 0.73614 0.56534 0.0
C1214 C 0.56383 0.73961 0.55867 0.0
C1215 C 0.56224 0.71065 0.5471 0.0
C1216 C 0.59205 0.69388 0.54717 0.0
H1217 H 0.39962 0.69665 0.38835 0.0
H1218 H 0.43474 0.67268 0.43401 0.0
C1219 C 0.62316 0.7065 0.55655 0.0
C1220 C 0.53106 0.70072 0.52859 0.0
H1221 H 0.44531 0.70749 0.53382 0.0
C1222 C 0.53326 0.69503 0.49245 0.0
C1223 C 0.49877 0.70293 0.54403 0.0
C1224 C 0.49467 0.70677 0.58311 0.0
C1225 C 0.50437 0.69541 0.47062 0.0
C1226 C 0.47236 0.70116 0.48553 0.0
C1227 C 0.46981 0.70331 0.52229 0.0
C1228 C 0.4439 0.71225 0.46331 0.0
C1229 C 0.50888 0.6929 0.43135 0.0
C1230 C 0.43542 0.74181 0.46599 0.0
C1231 C 0.41555 0.75532 0.4402 0.0
C1232 C 0.40339 0.73955 0.41128 0.0
C1233 C 0.40871 0.70928 0.41039 0.0
C1234 C 0.42899 0.69566 0.4363 0.0
H1235 H 0.53585 0.69054 0.42393 0.0
H1236 H 0.49492 0.67357 0.42162 0.0
H1237 H 0.49841 0.71246 0.41772 0.0
H1238 H 0.44646 0.75509 0.48654 0.0
H1239 H 0.4117 0.77866 0.44159 0.0
loop_
_geom_bond_atom_site_label_1
_geom_bond_atom_site_label_2
_geom_bond_distance
_geom_bond_site_symmetry_2
_ccdc_geom_bond_type
O0 Tb1 2.292 . S
O0 C3 1.255 . S
Tb1 O0 2.292 . S
Tb1 O17 2.326 . S
Tb1 O19 2.500 . S
Tb1 O20 2.473 . S
Tb1 O23 2.324 . S
Eu2 O6 2.292 . S
Eu2 C7 2.852 . S
Eu2 O18 2.324 . S
Eu2 O22 2.326 . S
Eu2 O24 2.500 . S
Eu2 O25 2.473 . S
C3 O0 1.255 . S
C3 O4 1.247 . S
O4 C3 1.247 . S
C5 O17 1.242 . S
C5 O18 1.258 . S
O6 Eu2 2.292 . S
O6 C8 1.255 . S
C7 Eu2 2.852 . S
C7 C11 1.503 . S
C7 O24 1.273 . S
C7 O25 1.257 . S
C8 O6 1.255 . S
C8 O9 1.247 . S
O9 C8 1.247 . S
C10 O22 1.242 . S
C10 O23 1.258 . S
C11 C7 1.503 . S
C11 C12 1.379 . S
C11 C16 1.392 . S
C12 C11 1.379 . S
C12 C13 1.404 . S
C12 H26 0.929 . S
C13 C12 1.404 . S
C13 C14 1.389 . S
C14 C13 1.389 . S
C14 C15 1.399 . S
C14 H27 0.931 . S
C15 C14 1.399 . S
C15 C16 1.390 . S
C16 C11 1.392 . S
C16 C15 1.390 . S
C16 H28 0.929 . S
O17 Tb1 2.326 . S
O17 C5 1.242 . S
O18 Eu2 2.324 . S
O18 C5 1.258 . S
O19 Tb1 2.500 . S
O19 C21 1.273 . S
O20 Tb1 2.473 . S
O20 C21 1.257 . S
C21 O19 1.273 . S
C21 O20 1.257 . S
O22 Eu2 2.326 . S
O22 C10 1.242 . S
O23 Tb1 2.324 . S
O23 C10 1.258 . S
O24 Eu2 2.500 . S
O24 C7 1.273 . S
O25 Eu2 2.473 . S
O25 C7 1.257 . S
H26 C12 0.929 . S
H27 C14 0.931 . S
H28 C16 0.929 . S
O29 Tb30 2.292 . S
O29 C32 1.255 . S
Tb30 O29 2.292 . S
Tb30 O46 2.326 . S
Tb30 O48 2.500 . S
Tb30 O49 2.473 . S
Tb30 O52 2.324 . S
Eu31 O35 2.292 . S
Eu31 C36 2.852 . S
Eu31 O47 2.324 . S
Eu31 O51 2.326 . S
Eu31 O53 2.500 . S
Eu31 O54 2.473 . S
C32 O29 1.255 . S
C32 O33 1.247 . S
O33 C32 1.247 . S
C34 O46 1.242 . S
C34 O47 1.258 . S
O35 Eu31 2.292 . S
O35 C37 1.255 . S
C36 Eu31 2.852 . S
C36 C40 1.503 . S
C36 O53 1.273 . S
C36 O54 1.257 . S
C37 O35 1.255 . S
C37 O38 1.247 . S
O38 C37 1.247 . S
C39 O51 1.242 . S
C39 O52 1.258 . S
C40 C36 1.503 . S
C40 C41 1.379 . S
C40 C45 1.392 . S
C41 C40 1.379 . S
C41 C42 1.404 . S
C41 H55 0.929 . S
C42 C41 1.404 . S
C42 C43 1.389 . S
C43 C42 1.389 . S
C43 C44 1.399 . S
C43 H56 0.931 . S
C44 C43 1.399 . S
C44 C45 1.390 . S
C45 C40 1.392 . S
C45 C44 1.390 . S
C45 H57 0.929 . S
O46 Tb30 2.326 . S
O46 C34 1.242 . S
O47 Eu31 2.324 . S
O47 C34 1.258 . S
O48 Tb30 2.500 . S
O48 C50 1.273 . S
O49 Tb30 2.473 . S
O49 C50 1.257 . S
C50 O48 1.273 . S
C50 O49 1.257 . S
O51 Eu31 2.326 . S
O51 C39 1.242 . S
O52 Tb30 2.324 . S
O52 C39 1.258 . S
O53 Eu31 2.500 . S
O53 C36 1.273 . S
O54 Eu31 2.473 . S
O54 C36 1.257 . S
H55 C41 0.929 . S
H56 C43 0.931 . S
H57 C45 0.929 . S
O58 Tb59 2.292 . S
O58 C61 1.255 . S
Tb59 O58 2.292 . S
Tb59 O75 2.326 . S
Tb59 O77 2.500 . S
Tb59 O78 2.473 . S
Tb59 O81 2.324 . S
Eu60 O64 2.292 . S
Eu60 C65 2.852 . S
Eu60 O76 2.324 . S
Eu60 O80 2.326 . S
Eu60 O82 2.500 . S
Eu60 O83 2.473 . S
C61 O58 1.255 . S
C61 O62 1.247 . S
O62 C61 1.247 . S
C63 O75 1.242 . S
C63 O76 1.258 . S
O64 Eu60 2.292 . S
O64 C66 1.255 . S
C65 Eu60 2.852 . S
C65 C69 1.503 . S
C65 O82 1.273 . S
C65 O83 1.257 . S
C66 O64 1.255 . S
C66 O67 1.247 . S
O67 C66 1.247 . S
C68 O80 1.242 . S
C68 O81 1.258 . S
C69 C65 1.503 . S
C69 C70 1.379 . S
C69 C74 1.392 . S
C70 C69 1.379 . S
C70 C71 1.404 . S
C70 H84 0.929 . S
C71 C70 1.404 . S
C71 C72 1.389 . S
C72 C71 1.389 . S
C72 C73 1.399 . S
C72 H85 0.931 . S
C73 C72 1.399 . S
C73 C74 1.390 . S
C74 C69 1.392 . S
C74 C73 1.390 . S
C74 H86 0.929 . S
O75 Tb59 2.326 . S
O75 C63 1.242 . S
O76 Eu60 2.324 . S
O76 C63 1.258 . S
O77 Tb59 2.500 . S
O77 C79 1.273 . S
O78 Tb59 2.473 . S
O78 C79 1.257 . S
C79 O77 1.273 . S
C79 O78 1.257 . S
O80 Eu60 2.326 . S
O80 C68 1.242 . S
O81 Tb59 2.324 . S
O81 C68 1.258 . S
O82 Eu60 2.500 . S
O82 C65 1.273 . S
O83 Eu60 2.473 . S
O83 C65 1.257 . S
H84 C70 0.929 . S
H85 C72 0.931 . S
H86 C74 0.929 . S
O87 Tb88 2.292 . S
O87 C90 1.255 . S
Tb88 O87 2.292 . S
Tb88 O104 2.326 . S
Tb88 O106 2.500 . S
Tb88 O107 2.473 . S
Tb88 O110 2.324 . S
Eu89 O93 2.292 . S
Eu89 C94 2.852 . S
Eu89 O105 2.324 . S
Eu89 O109 2.326 . S
Eu89 O111 2.500 . S
Eu89 O112 2.473 . S
C90 O87 1.255 . S
C90 O91 1.247 . S
O91 C90 1.247 . S
C92 O104 1.242 . S
C92 O105 1.258 . S
O93 Eu89 2.292 . S
O93 C95 1.255 . S
C94 Eu89 2.852 . S
C94 C98 1.503 . S
C94 O111 1.273 . S
C94 O112 1.257 . S
C95 O93 1.255 . S
C95 O96 1.247 . S
O96 C95 1.247 . S
C97 O109 1.242 . S
C97 O110 1.258 . S
C98 C94 1.503 . S
C98 C99 1.379 . S
C98 C103 1.392 . S
C99 C98 1.379 . S
C99 C100 1.404 . S
C99 H113 0.929 . S
C100 C99 1.404 . S
C100 C101 1.389 . S
C101 C100 1.389 . S
C101 C102 1.399 . S
C101 H114 0.931 . S
C102 C101 1.399 . S
C102 C103 1.390 . S
C103 C98 1.392 . S
C103 C102 1.390 . S
C103 H115 0.929 . S
O104 Tb88 2.326 . S
O104 C92 1.242 . S
O105 Eu89 2.324 . S
O105 C92 1.258 . S
O106 Tb88 2.500 . S
O106 C108 1.273 . S
O107 Tb88 2.473 . S
O107 C108 1.257 . S
C108 O106 1.273 . S
C108 O107 1.257 . S
O109 Eu89 2.326 . S
O109 C97 1.242 . S
O110 Tb88 2.324 . S
O110 C97 1.258 . S
O111 Eu89 2.500 . S
O111 C94 1.273 . S
O112 Eu89 2.473 . S
O112 C94 1.257 . S
H113 C99 0.929 . S
H114 C101 0.931 . S
H115 C103 0.929 . S
O116 Tb117 2.292 . S
O116 C119 1.255 . S
Tb117 O116 2.292 . S
Tb117 O133 2.326 . S
Tb117 O135 2.500 . S
Tb117 O136 2.473 . S
Tb117 O139 2.324 . S
Eu118 O122 2.292 . S
Eu118 C123 2.852 . S
Eu118 O134 2.324 . S
Eu118 O138 2.326 . S
Eu118 O140 2.500 . S
Eu118 O141 2.473 . S
C119 O116 1.255 . S
C119 O120 1.247 . S
O120 C119 1.247 . S
C121 O133 1.242 . S
C121 O134 1.258 . S
O122 Eu118 2.292 . S
O122 C124 1.255 . S
C123 Eu118 2.852 . S
C123 C127 1.503 . S
C123 O140 1.273 . S
C123 O141 1.257 . S
C124 O122 1.255 . S
C124 O125 1.247 . S
O125 C124 1.247 . S
C126 O138 1.242 . S
C126 O139 1.258 . S
C127 C123 1.503 . S
C127 C128 1.379 . S
C127 C132 1.392 . S
C128 C127 1.379 . S
C128 C129 1.404 . S
C128 H142 0.929 . S
C129 C128 1.404 . S
C129 C130 1.389 . S
C130 C129 1.389 . S
C130 C131 1.399 . S
C130 H143 0.931 . S
C131 C130 1.399 . S
C131 C132 1.390 . S
C132 C127 1.392 . S
C132 C131 1.390 . S
C132 H144 0.929 . S
O133 Tb117 2.326 . S
O133 C121 1.242 . S
O134 Eu118 2.324 . S
O134 C121 1.258 . S
O135 Tb117 2.500 . S
O135 C137 1.273 . S
O136 Tb117 2.473 . S
O136 C137 1.257 . S
C137 O135 1.273 . S
C137 O136 1.257 . S
O138 Eu118 2.326 . S
O138 C126 1.242 . S
O139 Tb117 2.324 . S
O139 C126 1.258 . S
O140 Eu118 2.500 . S
O140 C123 1.273 . S
O141 Eu118 2.473 . S
O141 C123 1.257 . S
H142 C128 0.929 . S
H143 C130 0.931 . S
H144 C132 0.929 . S
O145 Tb146 2.292 . S
O145 C148 1.255 . S
Tb146 O145 2.292 . S
Tb146 O162 2.326 . S
Tb146 O164 2.500 . S
Tb146 O165 2.473 . S
Tb146 O168 2.324 . S
Eu147 O151 2.292 . S
Eu147 C152 2.852 . S
Eu147 O163 2.324 . S
Eu147 O167 2.326 . S
Eu147 O169 2.500 . S
Eu147 O170 2.473 . S
C148 O145 1.255 . S
C148 O149 1.247 . S
O149 C148 1.247 . S
C150 O162 1.242 . S
C150 O163 1.258 . S
O151 Eu147 2.292 . S
O151 C153 1.255 . S
C152 Eu147 2.852 . S
C152 C156 1.503 . S
C152 O169 1.273 . S
C152 O170 1.257 . S
C153 O151 1.255 . S
C153 O154 1.247 . S
O154 C153 1.247 . S
C155 O167 1.242 . S
C155 O168 1.258 . S
C156 C152 1.503 . S
C156 C157 1.379 . S
C156 C161 1.392 . S
C157 C156 1.379 . S
C157 C158 1.404 . S
C157 H171 0.929 . S
C158 C157 1.404 . S
C158 C159 1.389 . S
C159 C158 1.389 . S
C159 C160 1.399 . S
C159 H172 0.931 . S
C160 C159 1.399 . S
C160 C161 1.390 . S
C161 C156 1.392 . S
C161 C160 1.390 . S
C161 H173 0.929 . S
O162 Tb146 2.326 . S
O162 C150 1.242 . S
O163 Eu147 2.324 . S
O163 C150 1.258 . S
O164 Tb146 2.500 . S
O164 C166 1.273 . S
O165 Tb146 2.473 . S
O165 C166 1.257 . S
C166 O164 1.273 . S
C166 O165 1.257 . S
O167 Eu147 2.326 . S
O167 C155 1.242 . S
O168 Tb146 2.324 . S
O168 C155 1.258 . S
O169 Eu147 2.500 . S
O169 C152 1.273 . S
O170 Eu147 2.473 . S
O170 C152 1.257 . S
H171 C157 0.929 . S
H172 C159 0.931 . S
H173 C161 0.929 . S
O174 Tb175 2.292 . S
O174 C177 1.255 . S
Tb175 O174 2.292 . S
Tb175 O191 2.326 . S
Tb175 O193 2.500 . S
Tb175 O194 2.473 . S
Tb175 O197 2.324 . S
Eu176 O180 2.292 . S
Eu176 C181 2.852 . S
Eu176 O192 2.324 . S
Eu176 O196 2.326 . S
Eu176 O198 2.500 . S
Eu176 O199 2.473 . S
C177 O174 1.255 . S
C177 O178 1.247 . S
O178 C177 1.247 . S
C179 O191 1.242 . S
C179 O192 1.258 . S
O180 Eu176 2.292 . S
O180 C182 1.255 . S
C181 Eu176 2.852 . S
C181 C185 1.503 . S
C181 O198 1.273 . S
C181 O199 1.257 . S
C182 O180 1.255 . S
C182 O183 1.247 . S
O183 C182 1.247 . S
C184 O196 1.242 . S
C184 O197 1.258 . S
C185 C181 1.503 . S
C185 C186 1.379 . S
C185 C190 1.392 . S
C186 C185 1.379 . S
C186 C187 1.404 . S
C186 H200 0.929 . S
C187 C186 1.404 . S
C187 C188 1.389 . S
C188 C187 1.389 . S
C188 C189 1.399 . S
C188 H201 0.931 . S
C189 C188 1.399 . S
C189 C190 1.390 . S
C190 C185 1.392 . S
C190 C189 1.390 . S
C190 H202 0.929 . S
O191 Tb175 2.326 . S
O191 C179 1.242 . S
O192 Eu176 2.324 . S
O192 C179 1.258 . S
O193 Tb175 2.500 . S
O193 C195 1.273 . S
O194 Tb175 2.473 . S
O194 C195 1.257 . S
C195 O193 1.273 . S
C195 O194 1.257 . S
O196 Eu176 2.326 . S
O196 C184 1.242 . S
O197 Tb175 2.324 . S
O197 C184 1.258 . S
O198 Eu176 2.500 . S
O198 C181 1.273 . S
O199 Eu176 2.473 . S
O199 C181 1.257 . S
H200 C186 0.929 . S
H201 C188 0.931 . S
H202 C190 0.929 . S
O203 Tb204 2.292 . S
O203 C206 1.255 . S
Tb204 O203 2.292 . S
Tb204 O220 2.326 . S
Tb204 O222 2.500 . S
Tb204 O223 2.473 . S
Tb204 O226 2.324 . S
Eu205 O209 2.292 . S
Eu205 C210 2.852 . S
Eu205 O221 2.324 . S
Eu205 O225 2.326 . S
Eu205 O227 2.500 . S
Eu205 O228 2.473 . S
C206 O203 1.255 . S
C206 O207 1.247 . S
O207 C206 1.247 . S
C208 O220 1.242 . S
C208 O221 1.258 . S
O209 Eu205 2.292 . S
O209 C211 1.255 . S
C210 Eu205 2.852 . S
C210 C214 1.503 . S
C210 O227 1.273 . S
C210 O228 1.257 . S
C211 O209 1.255 . S
C211 O212 1.247 . S
O212 C211 1.247 . S
C213 O225 1.242 . S
C213 O226 1.258 . S
C214 C210 1.503 . S
C214 C215 1.379 . S
C214 C219 1.392 . S
C215 C214 1.379 . S
C215 C216 1.404 . S
C215 H229 0.929 . S
C216 C215 1.404 . S
C216 C217 1.389 . S
C217 C216 1.389 . S
C217 C218 1.399 . S
C217 H230 0.931 . S
C218 C217 1.399 . S
C218 C219 1.390 . S
C219 C214 1.392 . S
C219 C218 1.390 . S
C219 H231 0.929 . S
O220 Tb204 2.326 . S
O220 C208 1.242 . S
O221 Eu205 2.324 . S
O221 C208 1.258 . S
O222 Tb204 2.500 . S
O222 C224 1.273 . S
O223 Tb204 2.473 . S
O223 C224 1.257 . S
C224 O222 1.273 . S
C224 O223 1.257 . S
O225 Eu205 2.326 . S
O225 C213 1.242 . S
O226 Tb204 2.324 . S
O226 C213 1.258 . S
O227 Eu205 2.500 . S
O227 C210 1.273 . S
O228 Eu205 2.473 . S
O228 C210 1.257 . S
H229 C215 0.929 . S
H230 C217 0.931 . S
H231 C219 0.929 . S
H232 C240 0.929 . S
H233 C242 0.930 . S
H234 C244 0.930 1_565 S
H235 C247 0.929 . S
H236 C250 0.930 . S
H237 C252 0.960 . S
H238 C252 0.960 . S
H239 C252 0.960 . S
C240 H232 0.929 . S
C240 C241 1.377 . S
C240 C242 1.384 . S
C241 C240 1.377 . S
C241 C247 1.390 . S
C242 H233 0.930 . S
C242 C240 1.384 . S
C242 C243 1.372 1_545 S
C243 C242 1.372 1_565 S
C243 C244 1.400 1_565 S
C243 C248 1.490 . S
C244 H234 0.930 1_545 S
C244 C243 1.400 1_545 S
C244 C247 1.386 . S
H245 C261 0.930 . S
H246 C262 0.931 . S
C247 H235 0.929 . S
C247 C241 1.390 . S
C247 C244 1.386 . S
C248 C243 1.490 . S
C248 C250 1.395 . S
C248 C251 1.403 . S
H249 C255 0.930 . S
C250 H236 0.930 . S
C250 C248 1.395 . S
C250 C253 1.403 . S
C251 C248 1.403 . S
C251 C252 1.524 . S
C251 C255 1.400 . S
C252 H237 0.960 . S
C252 H238 0.960 . S
C252 H239 0.960 . S
C252 C251 1.524 . S
C253 C250 1.403 . S
C253 C254 1.392 . S
C253 C257 1.495 . S
C254 C253 1.392 . S
C254 C255 1.385 . S
C254 C256 1.478 . S
C255 H249 0.930 . S
C255 C251 1.400 . S
C255 C254 1.385 . S
C256 C254 1.478 . S
C256 C258 1.381 . S
C256 C262 1.383 . S
C257 C253 1.495 . S
C257 H263 0.959 . S
C257 H264 0.961 . S
C257 H265 0.960 . S
C258 C256 1.381 . S
C258 C259 1.394 . S
C258 H266 0.930 . S
C259 C258 1.394 . S
C259 C260 1.383 . S
C259 H267 0.929 . S
C260 C259 1.383 . S
C260 C261 1.377 . S
C261 H245 0.930 . S
C261 C260 1.377 . S
C261 C262 1.379 . S
C262 H246 0.931 . S
C262 C256 1.383 . S
C262 C261 1.379 . S
H263 C257 0.959 . S
H264 C257 0.961 . S
H265 C257 0.960 . S
H266 C258 0.930 . S
H267 C259 0.929 . S
H268 C276 0.929 . S
H269 C278 0.930 . S
H270 C280 0.930 . S
H271 C283 0.929 . S
H272 C286 0.930 . S
H273 C288 0.960 . S
H274 C288 0.960 1_455 S
H275 C288 0.960 . S
C276 H268 0.929 . S
C276 C277 1.377 . S
C276 C278 1.384 . S
C277 C276 1.377 . S
C277 C283 1.390 . S
C278 H269 0.930 . S
C278 C276 1.384 . S
C278 C279 1.372 . S
C279 C278 1.372 . S
C279 C280 1.400 . S
C279 C284 1.490 1_455 S
C280 H270 0.930 . S
C280 C279 1.400 . S
C280 C283 1.386 . S
H281 C297 0.930 . S
H282 C298 0.931 . S
C283 H271 0.929 . S
C283 C277 1.390 . S
C283 C280 1.386 . S
C284 C279 1.490 1_655 S
C284 C286 1.395 . S
C284 C287 1.403 . S
H285 C291 0.930 . S
C286 H272 0.930 . S
C286 C284 1.395 . S
C286 C289 1.403 . S
C287 C284 1.403 . S
C287 C288 1.524 . S
C287 C291 1.400 . S
C288 H273 0.960 . S
C288 H274 0.960 1_655 S
C288 H275 0.960 . S
C288 C287 1.524 . S
C289 C286 1.403 . S
C289 C290 1.392 . S
C289 C293 1.495 . S
C290 C289 1.392 . S
C290 C291 1.385 . S
C290 C292 1.478 . S
C291 H285 0.930 . S
C291 C287 1.400 . S
C291 C290 1.385 . S
C292 C290 1.478 . S
C292 C294 1.381 . S
C292 C298 1.383 . S
C293 C289 1.495 . S
C293 H299 0.959 . S
C293 H300 0.961 . S
C293 H301 0.960 . S
C294 C292 1.381 . S
C294 C295 1.394 . S
C294 H302 0.930 . S
C295 C294 1.394 . S
C295 C296 1.383 . S
C295 H303 0.929 . S
C296 C295 1.383 . S
C296 C297 1.377 . S
C297 H281 0.930 . S
C297 C296 1.377 . S
C297 C298 1.379 . S
C298 H282 0.931 . S
C298 C292 1.383 . S
C298 C297 1.379 . S
H299 C293 0.959 . S
H300 C293 0.961 . S
H301 C293 0.960 . S
H302 C294 0.930 . S
H303 C295 0.929 . S
H304 C312 0.929 . S
H305 C314 0.930 . S
H306 C316 0.930 . S
H307 C319 0.929 . S
H308 C322 0.930 . S
H309 C324 0.960 . S
H310 C324 0.960 . S
H311 C324 0.960 . S
C312 H304 0.929 . S
C312 C313 1.377 . S
C312 C314 1.384 . S
C313 C312 1.377 . S
C313 C319 1.390 . S
C314 H305 0.930 . S
C314 C312 1.384 . S
C314 C315 1.372 . S
C315 C314 1.372 . S
C315 C316 1.400 . S
C315 C320 1.490 . S
C316 H306 0.930 . S
C316 C315 1.400 . S
C316 C319 1.386 . S
H317 C333 0.930 . S
H318 C334 0.905 1_545 S
C319 H307 0.929 . S
C319 C313 1.390 . S
C319 C316 1.386 . S
C320 C315 1.490 . S
C320 C322 1.395 . S
C320 C323 1.403 . S
H321 C327 0.930 . S
C322 H308 0.930 . S
C322 C320 1.395 . S
C322 C325 1.403 . S
C323 C320 1.403 . S
C323 C324 1.524 . S
C323 C327 1.400 . S
C324 H309 0.960 . S
C324 H310 0.960 . S
C324 H311 0.960 . S
C324 C323 1.524 . S
C325 C322 1.403 . S
C325 C326 1.392 . S
C325 C329 1.495 . S
C326 C325 1.392 . S
C326 C327 1.385 . S
C326 C328 1.478 . S
C327 H321 0.930 . S
C327 C323 1.400 . S
C327 C326 1.385 . S
C328 C326 1.478 . S
C328 C330 1.381 1_545 S
C328 C334 1.375 1_545 S
C329 C325 1.495 . S
C329 H335 0.959 . S
C329 H336 0.961 . S
C329 H337 0.960 . S
C330 C328 1.381 1_565 S
C330 C331 1.394 . S
C330 H338 0.930 . S
C331 C330 1.394 . S
C331 C332 1.383 . S
C331 H339 0.929 . S
C332 C331 1.383 . S
C332 C333 1.377 . S
C333 H317 0.930 . S
C333 C332 1.377 . S
C333 C334 1.413 . S
C334 H318 0.905 1_565 S
C334 C328 1.375 1_565 S
C334 C333 1.413 . S
H335 C329 0.959 . S
H336 C329 0.961 . S
H337 C329 0.960 . S
H338 C330 0.930 . S
H339 C331 0.929 . S
H340 C348 0.929 . S
H341 C350 0.930 . S
H342 C352 0.930 . S
H343 C355 0.929 . S
H344 C358 0.930 . S
H345 C360 0.960 . S
H346 C360 0.960 . S
H347 C360 0.960 . S
C348 H340 0.929 . S
C348 C349 1.377 . S
C348 C350 1.384 . S
C349 C348 1.377 . S
C349 C355 1.390 . S
C350 H341 0.930 . S
C350 C348 1.384 . S
C350 C351 1.372 . S
C351 C350 1.372 . S
C351 C352 1.400 . S
C351 C356 1.490 1_655 S
C352 H342 0.930 . S
C352 C351 1.400 . S
C352 C355 1.386 . S
H353 C369 0.930 . S
H354 C370 0.931 . S
C355 H343 0.929 . S
C355 C349 1.390 . S
C355 C352 1.386 . S
C356 C351 1.490 1_455 S
C356 C358 1.395 . S
C356 C359 1.403 . S
H357 C363 0.930 . S
C358 H344 0.930 . S
C358 C356 1.395 . S
C358 C361 1.403 . S
C359 C356 1.403 . S
C359 C360 1.524 . S
C359 C363 1.400 . S
C360 H345 0.960 . S
C360 H346 0.960 . S
C360 H347 0.960 . S
C360 C359 1.524 . S
C361 C358 1.403 . S
C361 C362 1.392 . S
C361 C365 1.495 . S
C362 C361 1.392 . S
C362 C363 1.385 . S
C362 C364 1.478 . S
C363 H357 0.930 . S
C363 C359 1.400 . S
C363 C362 1.385 . S
C364 C362 1.478 . S
C364 C366 1.381 . S
C364 C370 1.383 . S
C365 C361 1.495 . S
C365 H371 0.959 . S
C365 H372 0.961 . S
C365 H373 0.960 . S
C366 C364 1.381 . S
C366 C367 1.394 . S
C366 H374 0.930 . S
C367 C366 1.394 . S
C367 C368 1.383 . S
C367 H375 0.929 . S
C368 C367 1.383 . S
C368 C369 1.377 . S
C369 H353 0.930 . S
C369 C368 1.377 . S
C369 C370 1.379 . S
C370 H354 0.931 . S
C370 C364 1.383 . S
C370 C369 1.379 . S
H371 C365 0.959 . S
H372 C365 0.961 . S
H373 C365 0.960 . S
H374 C366 0.930 . S
H375 C367 0.929 . S
H376 C384 0.929 . S
H377 C386 0.930 . S
H378 C388 0.930 1_545 S
H379 C391 0.929 . S
H380 C394 0.930 . S
H381 C396 0.960 . S
H382 C396 0.960 . S
H383 C396 0.960 . S
C384 H376 0.929 . S
C384 C385 1.377 . S
C384 C386 1.384 . S
C385 C384 1.377 . S
C385 C391 1.390 . S
C386 H377 0.930 . S
C386 C384 1.384 . S
C386 C387 1.372 1_565 S
C387 C386 1.372 1_545 S
C387 C388 1.400 1_545 S
C387 C392 1.490 . S
C388 H378 0.930 1_565 S
C388 C387 1.400 1_565 S
C388 C391 1.386 . S
H389 C405 0.930 . S
H390 C406 0.931 . S
C391 H379 0.929 . S
C391 C385 1.390 . S
C391 C388 1.386 . S
C392 C387 1.490 . S
C392 C394 1.395 . S
C392 C395 1.403 . S
H393 C399 0.930 . S
C394 H380 0.930 . S
C394 C392 1.395 . S
C394 C397 1.403 . S
C395 C392 1.403 . S
C395 C396 1.524 . S
C395 C399 1.400 . S
C396 H381 0.960 . S
C396 H382 0.960 . S
C396 H383 0.960 . S
C396 C395 1.524 . S
C397 C394 1.403 . S
C397 C398 1.392 . S
C397 C401 1.495 . S
C398 C397 1.392 . S
C398 C399 1.385 . S
C398 C400 1.478 . S
C399 H393 0.930 . S
C399 C395 1.400 . S
C399 C398 1.385 . S
C400 C398 1.478 . S
C400 C402 1.381 . S
C400 C406 1.383 . S
C401 C397 1.495 . S
C401 H407 0.959 . S
C401 H408 0.961 . S
C401 H409 0.960 . S
C402 C400 1.381 . S
C402 C403 1.394 . S
C402 H410 0.930 . S
C403 C402 1.394 . S
C403 C404 1.383 . S
C403 H411 0.929 . S
C404 C403 1.383 . S
C404 C405 1.377 . S
C405 H389 0.930 . S
C405 C404 1.377 . S
C405 C406 1.379 . S
C406 H390 0.931 . S
C406 C400 1.383 . S
C406 C405 1.379 . S
H407 C401 0.959 . S
H408 C401 0.961 . S
H409 C401 0.960 . S
H410 C402 0.930 . S
H411 C403 0.929 . S
H412 C420 0.929 . S
H413 C422 0.930 . S
H414 C424 0.930 . S
H415 C427 0.929 . S
H416 C430 0.930 . S
H417 C432 0.960 . S
H418 C432 0.960 . S
H419 C432 0.960 . S
C420 H412 0.929 . S
C420 C421 1.377 . S
C420 C422 1.384 . S
C421 C420 1.377 . S
C421 C427 1.390 . S
C422 H413 0.930 . S
C422 C420 1.384 . S
C422 C423 1.372 . S
C423 C422 1.372 . S
C423 C424 1.400 . S
C423 C428 1.490 . S
C424 H414 0.930 . S
C424 C423 1.400 . S
C424 C427 1.386 . S
H425 C441 0.930 . S
H426 C442 0.931 . S
C427 H415 0.929 . S
C427 C421 1.390 . S
C427 C424 1.386 . S
C428 C423 1.490 . S
C428 C430 1.395 . S
C428 C431 1.403 . S
H429 C435 0.930 . S
C430 H416 0.930 . S
C430 C428 1.395 . S
C430 C433 1.403 . S
C431 C428 1.403 . S
C431 C432 1.524 . S
C431 C435 1.400 . S
C432 H417 0.960 . S
C432 H418 0.960 . S
C432 H419 0.960 . S
C432 C431 1.524 . S
C433 C430 1.403 . S
C433 C434 1.392 . S
C433 C437 1.495 . S
C434 C433 1.392 . S
C434 C435 1.385 . S
C434 C436 1.478 1_455 S
C435 H429 0.930 . S
C435 C431 1.400 . S
C435 C434 1.385 . S
C436 C434 1.478 1_655 S
C436 C438 1.381 . S
C436 C442 1.383 . S
C437 C433 1.495 . S
C437 H443 0.959 . S
C437 H444 0.961 . S
C437 H445 0.960 . S
C438 C436 1.381 . S
C438 C439 1.394 . S
C438 H446 0.930 . S
C439 C438 1.394 . S
C439 C440 1.383 . S
C439 H447 0.929 . S
C440 C439 1.383 . S
C440 C441 1.377 . S
C441 H425 0.930 . S
C441 C440 1.377 . S
C441 C442 1.379 . S
C442 H426 0.931 . S
C442 C436 1.383 . S
C442 C441 1.379 . S
H443 C437 0.959 . S
H444 C437 0.961 . S
H445 C437 0.960 . S
H446 C438 0.930 . S
H447 C439 0.929 . S
H448 C456 0.929 . S
H449 C458 0.930 1_565 S
H450 C460 0.930 . S
H451 C463 0.929 . S
H452 C466 0.930 . S
H453 C468 0.960 . S
H454 C468 0.960 . S
H455 C468 0.960 . S
C456 H448 0.929 . S
C456 C457 1.377 . S
C456 C458 1.384 . S
C457 C456 1.377 . S
C457 C463 1.390 . S
C458 H449 0.930 1_545 S
C458 C456 1.384 . S
C458 C459 1.372 1_545 S
C459 C458 1.372 1_565 S
C459 C460 1.400 1_565 S
C459 C464 1.490 . S
C460 H450 0.930 . S
C460 C459 1.400 1_545 S
C460 C463 1.386 . S
H461 C477 0.930 . S
H462 C478 0.931 . S
C463 H451 0.929 . S
C463 C457 1.390 . S
C463 C460 1.386 . S
C464 C459 1.490 . S
C464 C466 1.395 . S
C464 C467 1.403 . S
H465 C471 0.930 . S
C466 H452 0.930 . S
C466 C464 1.395 . S
C466 C469 1.403 . S
C467 C464 1.403 . S
C467 C468 1.524 . S
C467 C471 1.400 . S
C468 H453 0.960 . S
C468 H454 0.960 . S
C468 H455 0.960 . S
C468 C467 1.524 . S
C469 C466 1.403 . S
C469 C470 1.392 . S
C469 C473 1.495 . S
C470 C469 1.392 . S
C470 C471 1.385 . S
C470 C472 1.478 . S
C471 H465 0.930 . S
C471 C467 1.400 . S
C471 C470 1.385 . S
C472 C470 1.478 . S
C472 C474 1.381 . S
C472 C478 1.383 . S
C473 C469 1.495 . S
C473 H479 0.959 . S
C473 H480 0.961 . S
C473 H481 0.960 . S
C474 C472 1.381 . S
C474 C475 1.394 . S
C474 H482 0.930 . S
C475 C474 1.394 . S
C475 C476 1.383 . S
C475 H483 0.929 . S
C476 C475 1.383 . S
C476 C477 1.377 . S
C477 H461 0.930 . S
C477 C476 1.377 . S
C477 C478 1.379 . S
C478 H462 0.931 . S
C478 C472 1.383 . S
C478 C477 1.379 . S
H479 C473 0.959 . S
H480 C473 0.961 . S
H481 C473 0.960 . S
H482 C474 0.930 . S
H483 C475 0.929 . S
H484 C492 0.929 . S
H485 C494 0.930 . S
H486 C496 0.930 . S
H487 C499 0.929 . S
H488 C502 0.930 . S
H489 C504 0.960 . S
H490 C504 0.960 . S
H491 C504 0.960 . S
C492 H484 0.929 . S
C492 C493 1.377 . S
C492 C494 1.384 . S
C493 C492 1.377 . S
C493 C499 1.390 . S
C494 H485 0.930 . S
C494 C492 1.384 . S
C494 C495 1.372 . S
C495 C494 1.372 . S
C495 C496 1.400 . S
C495 C500 1.490 . S
C496 H486 0.930 . S
C496 C495 1.400 . S
C496 C499 1.386 . S
H497 C513 0.930 . S
H498 C514 0.924 1_655 S
C499 H487 0.929 . S
C499 C493 1.390 . S
C499 C496 1.386 . S
C500 C495 1.490 . S
C500 C502 1.395 . S
C500 C503 1.403 . S
H501 C507 0.930 . S
C502 H488 0.930 . S
C502 C500 1.395 . S
C502 C505 1.403 . S
C503 C500 1.403 . S
C503 C504 1.524 . S
C503 C507 1.400 . S
C504 H489 0.960 . S
C504 H490 0.960 . S
C504 H491 0.960 . S
C504 C503 1.524 . S
C505 C502 1.403 . S
C505 C506 1.392 . S
C505 C509 1.495 . S
C506 C505 1.392 . S
C506 C507 1.385 . S
C506 C508 1.478 1_655 S
C507 H501 0.930 . S
C507 C503 1.400 . S
C507 C506 1.385 . S
C508 C506 1.478 1_455 S
C508 C510 1.381 . S
C508 C514 1.383 . S
C509 C505 1.495 . S
C509 H515 0.959 . S
C509 H516 0.961 . S
C509 H517 0.960 . S
C510 C508 1.381 . S
C510 C511 1.394 . S
C510 H518 0.930 . S
C511 C510 1.394 . S
C511 C512 1.383 . S
C511 H519 0.929 . S
C512 C511 1.383 . S
C512 C513 1.377 . S
C513 H497 0.930 . S
C513 C512 1.377 . S
C513 C514 1.379 . S
C514 H498 0.924 1_455 S
C514 C508 1.383 . S
C514 C513 1.379 . S
H515 C509 0.959 . S
H516 C509 0.961 . S
H517 C509 0.960 . S
H518 C510 0.930 . S
H519 C511 0.929 . S
H520 C528 0.929 . S
H521 C530 0.930 . S
H522 C532 0.930 . S
H523 C535 0.929 . S
H524 C538 0.930 . S
H525 C540 0.960 . S
H526 C540 0.960 . S
H527 C540 0.960 . S
C528 H520 0.929 . S
C528 C529 1.377 . S
C528 C530 1.384 . S
C529 C528 1.377 . S
C529 C535 1.390 . S
C530 H521 0.930 . S
C530 C528 1.384 . S
C530 C531 1.372 . S
C531 C530 1.372 . S
C531 C532 1.400 . S
C531 C536 1.490 . S
C532 H522 0.930 . S
C532 C531 1.400 . S
C532 C535 1.386 . S
H533 C549 0.930 . S
H534 C550 0.931 . S
C535 H523 0.929 . S
C535 C529 1.390 . S
C535 C532 1.386 . S
C536 C531 1.490 . S
C536 C538 1.395 . S
C536 C539 1.403 . S
H537 C543 0.930 . S
C538 H524 0.930 . S
C538 C536 1.395 . S
C538 C541 1.403 . S
C539 C536 1.403 . S
C539 C540 1.524 . S
C539 C543 1.400 . S
C540 H525 0.960 . S
C540 H526 0.960 . S
C540 H527 0.960 . S
C540 C539 1.524 . S
C541 C538 1.403 . S
C541 C542 1.392 . S
C541 C545 1.495 . S
C542 C541 1.392 . S
C542 C543 1.385 . S
C542 C544 1.478 . S
C543 H537 0.930 . S
C543 C539 1.400 . S
C543 C542 1.385 . S
C544 C542 1.478 . S
C544 C546 1.381 . S
C544 C550 1.383 . S
C545 C541 1.495 . S
C545 H551 0.959 . S
C545 H552 0.961 . S
C545 H553 0.960 . S
C546 C544 1.381 . S
C546 C547 1.394 . S
C546 H554 0.930 . S
C547 C546 1.394 . S
C547 C548 1.383 . S
C547 H555 0.929 . S
C548 C547 1.383 . S
C548 C549 1.377 . S
C549 H533 0.930 . S
C549 C548 1.377 . S
C549 C550 1.379 . S
C550 H534 0.931 . S
C550 C544 1.383 . S
C550 C549 1.379 . S
H551 C545 0.959 . S
H552 C545 0.961 . S
H553 C545 0.960 . S
H554 C546 0.930 . S
H555 C547 0.929 . S
H556 C564 0.929 . S
H557 C566 0.930 . S
H558 C568 0.930 . S
H559 C571 0.929 . S
H560 C574 0.930 . S
H561 C576 0.960 . S
H562 C576 0.960 . S
H563 C576 0.960 . S
C564 H556 0.929 . S
C564 C565 1.377 . S
C564 C566 1.384 . S
C565 C564 1.377 . S
C565 C571 1.390 . S
C566 H557 0.930 . S
C566 C564 1.384 . S
C566 C567 1.372 . S
C567 C566 1.372 . S
C567 C568 1.400 . S
C567 C572 1.490 . S
C568 H558 0.930 . S
C568 C567 1.400 . S
C568 C571 1.386 . S
H569 C585 0.930 . S
H570 C586 0.931 . S
C571 H559 0.929 . S
C571 C565 1.390 . S
C571 C568 1.386 . S
C572 C567 1.490 . S
C572 C574 1.395 . S
C572 C575 1.403 . S
H573 C579 0.930 . S
C574 H560 0.930 . S
C574 C572 1.395 . S
C574 C577 1.403 . S
C575 C572 1.403 . S
C575 C576 1.524 . S
C575 C579 1.400 . S
C576 H561 0.960 . S
C576 H562 0.960 . S
C576 H563 0.960 . S
C576 C575 1.524 . S
C577 C574 1.403 . S
C577 C578 1.392 . S
C577 C581 1.495 . S
C578 C577 1.392 . S
C578 C579 1.385 . S
C578 C580 1.478 . S
C579 H573 0.930 . S
C579 C575 1.400 . S
C579 C578 1.385 . S
C580 C578 1.478 . S
C580 C582 1.381 . S
C580 C586 1.383 . S
C581 C577 1.495 . S
C581 H587 0.959 . S
C581 H588 0.961 . S
C581 H589 0.960 . S
C582 C580 1.381 . S
C582 C583 1.394 . S
C582 H590 0.930 . S
C583 C582 1.394 . S
C583 C584 1.383 . S
C583 H591 0.929 . S
C584 C583 1.383 . S
C584 C585 1.377 . S
C585 H569 0.930 . S
C585 C584 1.377 . S
C585 C586 1.379 . S
C586 H570 0.931 . S
C586 C580 1.383 . S
C586 C585 1.379 . S
H587 C581 0.959 . S
H588 C581 0.961 . S
H589 C581 0.960 . S
H590 C582 0.930 . S
H591 C583 0.929 . S
H592 C600 0.929 . S
H593 C602 0.930 . S
H594 C604 0.930 . S
H595 C607 0.929 . S
H596 C610 0.930 . S
H597 C612 0.960 . S
H598 C612 0.960 . S
H599 C612 0.960 . S
C600 H592 0.929 . S
C600 C601 1.377 . S
C600 C602 1.384 . S
C601 C600 1.377 . S
C601 C607 1.390 . S
C602 H593 0.930 . S
C602 C600 1.384 . S
C602 C603 1.372 . S
C603 C602 1.372 . S
C603 C604 1.400 . S
C603 C608 1.490 . S
C604 H594 0.930 . S
C604 C603 1.400 . S
C604 C607 1.386 . S
H605 C621 0.930 . S
H606 C622 0.931 . S
C607 H595 0.929 . S
C607 C601 1.390 . S
C607 C604 1.386 . S
C608 C603 1.490 . S
C608 C610 1.395 . S
C608 C611 1.403 . S
H609 C615 0.930 . S
C610 H596 0.930 . S
C610 C608 1.395 . S
C610 C613 1.403 . S
C611 C608 1.403 . S
C611 C612 1.524 . S
C611 C615 1.400 . S
C612 H597 0.960 . S
C612 H598 0.960 . S
C612 H599 0.960 . S
C612 C611 1.524 . S
C613 C610 1.403 . S
C613 C614 1.392 . S
C613 C617 1.495 . S
C614 C613 1.392 . S
C614 C615 1.385 . S
C614 C616 1.478 . S
C615 H609 0.930 . S
C615 C611 1.400 . S
C615 C614 1.385 . S
C616 C614 1.478 . S
C616 C618 1.381 . S
C616 C622 1.383 . S
C617 C613 1.495 . S
C617 H623 0.959 . S
C617 H624 0.961 . S
C617 H625 0.960 . S
C618 C616 1.381 . S
C618 C619 1.394 . S
C618 H626 0.930 . S
C619 C618 1.394 . S
C619 C620 1.383 . S
C619 H627 0.929 . S
C620 C619 1.383 . S
C620 C621 1.377 . S
C621 H605 0.930 . S
C621 C620 1.377 . S
C621 C622 1.379 . S
C622 H606 0.931 . S
C622 C616 1.383 . S
C622 C621 1.379 . S
H623 C617 0.959 . S
H624 C617 0.961 . S
H625 C617 0.960 . S
H626 C618 0.930 . S
H627 C619 0.929 . S
H628 C636 0.929 . S
H629 C638 0.930 . S
H630 C640 0.930 . S
H631 C643 0.929 . S
H632 C646 0.930 . S
H633 C648 0.960 . S
H634 C648 0.960 . S
H635 C648 0.960 . S
C636 H628 0.929 . S
C636 C637 1.377 . S
C636 C638 1.384 . S
C637 C636 1.377 . S
C637 C643 1.390 . S
C638 H629 0.930 . S
C638 C636 1.384 . S
C638 C639 1.372 . S
C639 C638 1.372 . S
C639 C640 1.400 . S
C639 C644 1.490 . S
C640 H630 0.930 . S
C640 C639 1.400 . S
C640 C643 1.386 . S
H641 C657 0.930 . S
H642 C658 0.931 . S
C643 H631 0.929 . S
C643 C637 1.390 . S
C643 C640 1.386 . S
C644 C639 1.490 . S
C644 C646 1.395 . S
C644 C647 1.403 . S
H645 C651 0.930 . S
C646 H632 0.930 . S
C646 C644 1.395 . S
C646 C649 1.403 . S
C647 C644 1.403 . S
C647 C648 1.524 . S
C647 C651 1.400 . S
C648 H633 0.960 . S
C648 H634 0.960 . S
C648 H635 0.960 . S
C648 C647 1.524 . S
C649 C646 1.403 . S
C649 C650 1.392 . S
C649 C653 1.495 . S
C650 C649 1.392 . S
C650 C651 1.385 . S
C650 C652 1.478 . S
C651 H645 0.930 . S
C651 C647 1.400 . S
C651 C650 1.385 . S
C652 C650 1.478 . S
C652 C654 1.381 . S
C652 C658 1.383 . S
C653 C649 1.495 . S
C653 H659 0.959 . S
C653 H660 0.961 . S
C653 H661 0.960 . S
C654 C652 1.381 . S
C654 C655 1.394 . S
C654 H662 0.930 . S
C655 C654 1.394 . S
C655 C656 1.383 . S
C655 H663 0.929 . S
C656 C655 1.383 . S
C656 C657 1.377 . S
C657 H641 0.930 . S
C657 C656 1.377 . S
C657 C658 1.379 . S
C658 H642 0.931 . S
C658 C652 1.383 . S
C658 C657 1.379 . S
H659 C653 0.959 . S
H660 C653 0.961 . S
H661 C653 0.960 . S
H662 C654 0.930 . S
H663 C655 0.929 . S
H664 C672 0.929 . S
H665 C674 0.930 . S
H666 C676 0.930 . S
H667 C679 0.929 . S
H668 C682 0.930 . S
H669 C684 0.960 . S
H670 C684 0.960 . S
H671 C684 0.960 . S
C672 H664 0.929 . S
C672 C673 1.377 . S
C672 C674 1.384 . S
C673 C672 1.377 . S
C673 C679 1.390 . S
C674 H665 0.930 . S
C674 C672 1.384 . S
C674 C675 1.372 . S
C675 C674 1.372 . S
C675 C676 1.400 . S
C675 C680 1.490 . S
C676 H666 0.930 . S
C676 C675 1.400 . S
C676 C679 1.386 . S
H677 C693 0.930 . S
H678 C694 0.931 . S
C679 H667 0.929 . S
C679 C673 1.390 . S
C679 C676 1.386 . S
C680 C675 1.490 . S
C680 C682 1.395 . S
C680 C683 1.403 . S
H681 C687 0.930 . S
C682 H668 0.930 . S
C682 C680 1.395 . S
C682 C685 1.403 . S
C683 C680 1.403 . S
C683 C684 1.524 . S
C683 C687 1.400 . S
C684 H669 0.960 . S
C684 H670 0.960 . S
C684 H671 0.960 . S
C684 C683 1.524 . S
C685 C682 1.403 . S
C685 C686 1.392 . S
C685 C689 1.495 . S
C686 C685 1.392 . S
C686 C687 1.385 . S
C686 C688 1.478 . S
C687 H681 0.930 . S
C687 C683 1.400 . S
C687 C686 1.385 . S
C688 C686 1.478 . S
C688 C690 1.381 . S
C688 C694 1.383 . S
C689 C685 1.495 . S
C689 H695 0.959 . S
C689 H696 0.961 . S
C689 H697 0.960 . S
C690 C688 1.381 . S
C690 C691 1.394 . S
C690 H698 0.930 . S
C691 C690 1.394 . S
C691 C692 1.383 . S
C691 H699 0.929 . S
C692 C691 1.383 . S
C692 C693 1.377 . S
C693 H677 0.930 . S
C693 C692 1.377 . S
C693 C694 1.379 . S
C694 H678 0.931 . S
C694 C688 1.383 . S
C694 C693 1.379 . S
H695 C689 0.959 . S
H696 C689 0.961 . S
H697 C689 0.960 . S
H698 C690 0.930 . S
H699 C691 0.929 . S
H700 C708 0.929 . S
H701 C710 0.930 . S
H702 C712 0.930 . S
H703 C715 0.929 . S
H704 C718 0.930 . S
H705 C720 0.960 . S
H706 C720 0.960 . S
H707 C720 0.960 . S
C708 H700 0.929 . S
C708 C709 1.377 . S
C708 C710 1.384 . S
C709 C708 1.377 . S
C709 C715 1.390 . S
C710 H701 0.930 . S
C710 C708 1.384 . S
C710 C711 1.372 . S
C711 C710 1.372 . S
C711 C712 1.400 . S
C711 C716 1.490 . S
C712 H702 0.930 . S
C712 C711 1.400 . S
C712 C715 1.386 . S
H713 C729 0.930 . S
H714 C730 0.931 . S
C715 H703 0.929 . S
C715 C709 1.390 . S
C715 C712 1.386 . S
C716 C711 1.490 . S
C716 C718 1.395 . S
C716 C719 1.403 . S
H717 C723 0.930 . S
C718 H704 0.930 . S
C718 C716 1.395 . S
C718 C721 1.403 . S
C719 C716 1.403 . S
C719 C720 1.524 . S
C719 C723 1.400 . S
C720 H705 0.960 . S
C720 H706 0.960 . S
C720 H707 0.960 . S
C720 C719 1.524 . S
C721 C718 1.403 . S
C721 C722 1.392 . S
C721 C725 1.495 . S
C722 C721 1.392 . S
C722 C723 1.385 . S
C722 C724 1.478 . S
C723 H717 0.930 . S
C723 C719 1.400 . S
C723 C722 1.385 . S
C724 C722 1.478 . S
C724 C726 1.381 . S
C724 C730 1.383 . S
C725 C721 1.495 . S
C725 H731 0.959 . S
C725 H732 0.961 . S
C725 H733 0.960 . S
C726 C724 1.381 . S
C726 C727 1.394 . S
C726 H734 0.930 . S
C727 C726 1.394 . S
C727 C728 1.383 . S
C727 H735 0.929 . S
C728 C727 1.383 . S
C728 C729 1.377 . S
C729 H713 0.930 . S
C729 C728 1.377 . S
C729 C730 1.379 . S
C730 H714 0.931 . S
C730 C724 1.383 . S
C730 C729 1.379 . S
H731 C725 0.959 . S
H732 C725 0.961 . S
H733 C725 0.960 . S
H734 C726 0.930 . S
H735 C727 0.929 . S
H736 C744 0.929 . S
H737 C746 0.930 . S
H738 C748 0.930 . S
H739 C751 0.929 . S
H740 C754 0.930 . S
H741 C756 0.960 . S
H742 C756 0.960 . S
H743 C756 0.960 . S
C744 H736 0.929 . S
C744 C745 1.377 . S
C744 C746 1.384 . S
C745 C744 1.377 . S
C745 C751 1.390 . S
C746 H737 0.930 . S
C746 C744 1.384 . S
C746 C747 1.372 . S
C747 C746 1.372 . S
C747 C748 1.400 . S
C747 C752 1.490 . S
C748 H738 0.930 . S
C748 C747 1.400 . S
C748 C751 1.386 . S
H749 C765 0.930 . S
H750 C766 0.931 . S
C751 H739 0.929 . S
C751 C745 1.390 . S
C751 C748 1.386 . S
C752 C747 1.490 . S
C752 C754 1.395 . S
C752 C755 1.403 . S
H753 C759 0.930 . S
C754 H740 0.930 . S
C754 C752 1.395 . S
C754 C757 1.403 . S
C755 C752 1.403 . S
C755 C756 1.524 . S
C755 C759 1.400 . S
C756 H741 0.960 . S
C756 H742 0.960 . S
C756 H743 0.960 . S
C756 C755 1.524 . S
C757 C754 1.403 . S
C757 C758 1.392 . S
C757 C761 1.495 . S
C758 C757 1.392 . S
C758 C759 1.385 . S
C758 C760 1.478 . S
C759 H753 0.930 . S
C759 C755 1.400 . S
C759 C758 1.385 . S
C760 C758 1.478 . S
C760 C762 1.381 . S
C760 C766 1.383 . S
C761 C757 1.495 . S
C761 H767 0.959 . S
C761 H768 0.961 . S
C761 H769 0.960 . S
C762 C760 1.381 . S
C762 C763 1.394 . S
C762 H770 0.930 . S
C763 C762 1.394 . S
C763 C764 1.383 . S
C763 H771 0.929 . S
C764 C763 1.383 . S
C764 C765 1.377 . S
C765 H749 0.930 . S
C765 C764 1.377 . S
C765 C766 1.379 . S
C766 H750 0.931 . S
C766 C760 1.383 . S
C766 C765 1.379 . S
H767 C761 0.959 . S
H768 C761 0.961 . S
H769 C761 0.960 . S
H770 C762 0.930 . S
H771 C763 0.929 . S
H772 C780 0.929 . S
H773 C782 0.930 . S
H774 C784 0.930 . S
H775 C787 0.929 . S
H776 C790 0.930 . S
H777 C792 0.960 . S
H778 C792 0.960 . S
H779 C792 0.960 . S
C780 H772 0.929 . S
C780 C781 1.377 . S
C780 C782 1.384 . S
C781 C780 1.377 . S
C781 C787 1.390 . S
C782 H773 0.930 . S
C782 C780 1.384 . S
C782 C783 1.372 . S
C783 C782 1.372 . S
C783 C784 1.400 . S
C783 C788 1.490 . S
C784 H774 0.930 . S
C784 C783 1.400 . S
C784 C787 1.386 . S
H785 C801 0.930 . S
H786 C802 0.931 . S
C787 H775 0.929 . S
C787 C781 1.390 . S
C787 C784 1.386 . S
C788 C783 1.490 . S
C788 C790 1.395 . S
C788 C791 1.403 . S
H789 C795 0.930 . S
C790 H776 0.930 . S
C790 C788 1.395 . S
C790 C793 1.403 . S
C791 C788 1.403 . S
C791 C792 1.524 . S
C791 C795 1.400 . S
C792 H777 0.960 . S
C792 H778 0.960 . S
C792 H779 0.960 . S
C792 C791 1.524 . S
C793 C790 1.403 . S
C793 C794 1.392 . S
C793 C797 1.495 . S
C794 C793 1.392 . S
C794 C795 1.385 . S
C794 C796 1.478 . S
C795 H789 0.930 . S
C795 C791 1.400 . S
C795 C794 1.385 . S
C796 C794 1.478 . S
C796 C798 1.381 . S
C796 C802 1.383 . S
C797 C793 1.495 . S
C797 H803 0.959 . S
C797 H804 0.961 . S
C797 H805 0.960 . S
C798 C796 1.381 . S
C798 C799 1.394 . S
C798 H806 0.930 . S
C799 C798 1.394 . S
C799 C800 1.383 . S
C799 H807 0.929 . S
C800 C799 1.383 . S
C800 C801 1.377 . S
C801 H785 0.930 . S
C801 C800 1.377 . S
C801 C802 1.379 . S
C802 H786 0.931 . S
C802 C796 1.383 . S
C802 C801 1.379 . S
H803 C797 0.959 . S
H804 C797 0.961 . S
H805 C797 0.960 . S
H806 C798 0.930 . S
H807 C799 0.929 . S
H808 C816 0.929 . S
H809 C818 0.930 . S
H810 C820 0.930 . S
H811 C823 0.929 . S
H812 C826 0.930 . S
H813 C828 0.960 . S
H814 C828 0.960 . S
H815 C828 0.960 . S
C816 H808 0.929 . S
C816 C817 1.377 . S
C816 C818 1.384 . S
C817 C816 1.377 . S
C817 C823 1.390 . S
C818 H809 0.930 . S
C818 C816 1.384 . S
C818 C819 1.372 . S
C819 C818 1.372 . S
C819 C820 1.400 . S
C819 C824 1.490 . S
C820 H810 0.930 . S
C820 C819 1.400 . S
C820 C823 1.386 . S
H821 C837 0.930 . S
H822 C838 0.931 . S
C823 H811 0.929 . S
C823 C817 1.390 . S
C823 C820 1.386 . S
C824 C819 1.490 . S
C824 C826 1.395 1_545 S
C824 C827 1.403 1_455 S
H825 C831 0.930 . S
C826 H812 0.930 . S
C826 C824 1.395 1_565 S
C826 C829 1.403 . S
C827 C824 1.403 1_655 S
C827 C828 1.524 . S
C827 C831 1.400 . S
C828 H813 0.960 . S
C828 H814 0.960 . S
C828 H815 0.960 . S
C828 C827 1.524 . S
C829 C826 1.403 . S
C829 C830 1.392 1_455 S
C829 C833 1.495 . S
C830 C829 1.392 1_655 S
C830 C831 1.385 1_565 S
C830 C832 1.478 . S
C831 H825 0.930 . S
C831 C827 1.400 . S
C831 C830 1.385 1_545 S
C832 C830 1.478 . S
C832 C834 1.381 . S
C832 C838 1.383 . S
C833 C829 1.495 . S
C833 H839 0.959 . S
C833 H840 0.961 . S
C833 H841 0.960 . S
C834 C832 1.381 . S
C834 C835 1.394 . S
C834 H842 0.930 . S
C835 C834 1.394 . S
C835 C836 1.383 . S
C835 H843 0.929 . S
C836 C835 1.383 . S
C836 C837 1.377 . S
C837 H821 0.930 . S
C837 C836 1.377 . S
C837 C838 1.379 . S
C838 H822 0.931 . S
C838 C832 1.383 . S
C838 C837 1.379 . S
H839 C833 0.959 . S
H840 C833 0.961 . S
H841 C833 0.960 . S
H842 C834 0.930 . S
H843 C835 0.929 . S
H844 C852 0.929 . S
H845 C854 0.930 . S
H846 C856 0.930 . S
H847 C859 0.929 . S
H848 C862 0.930 . S
H849 C864 0.960 . S
H850 C864 0.960 . S
H851 C864 0.960 . S
C852 H844 0.929 . S
C852 C853 1.377 . S
C852 C854 1.384 . S
C853 C852 1.377 . S
C853 C859 1.390 . S
C854 H845 0.930 . S
C854 C852 1.384 . S
C854 C855 1.372 . S
C855 C854 1.372 . S
C855 C856 1.400 . S
C855 C860 1.490 . S
C856 H846 0.930 . S
C856 C855 1.400 . S
C856 C859 1.386 . S
H857 C873 0.930 . S
H858 C874 0.931 . S
C859 H847 0.929 . S
C859 C853 1.390 . S
C859 C856 1.386 . S
C860 C855 1.490 . S
C860 C862 1.395 1_655 S
C860 C863 1.403 1_545 S
H861 C867 0.930 . S
C862 H848 0.930 . S
C862 C860 1.395 1_455 S
C862 C865 1.403 . S
C863 C860 1.403 1_565 S
C863 C864 1.524 . S
C863 C867 1.400 . S
C864 H849 0.960 . S
C864 H850 0.960 . S
C864 H851 0.960 . S
C864 C863 1.524 . S
C865 C862 1.403 . S
C865 C866 1.392 1_545 S
C865 C869 1.495 . S
C866 C865 1.392 1_565 S
C866 C867 1.385 1_455 S
C866 C868 1.478 . S
C867 H861 0.930 . S
C867 C863 1.400 . S
C867 C866 1.385 1_655 S
C868 C866 1.478 . S
C868 C870 1.381 . S
C868 C874 1.383 . S
C869 C865 1.495 . S
C869 H875 0.959 . S
C869 H876 0.961 . S
C869 H877 0.960 . S
C870 C868 1.381 . S
C870 C871 1.394 . S
C870 H878 0.930 . S
C871 C870 1.394 . S
C871 C872 1.383 . S
C871 H879 0.929 . S
C872 C871 1.383 . S
C872 C873 1.377 . S
C873 H857 0.930 . S
C873 C872 1.377 . S
C873 C874 1.379 . S
C874 H858 0.931 . S
C874 C868 1.383 . S
C874 C873 1.379 . S
H875 C869 0.959 . S
H876 C869 0.961 . S
H877 C869 0.960 . S
H878 C870 0.930 . S
H879 C871 0.929 . S
H880 C888 0.929 . S
H881 C890 0.930 . S
H882 C892 0.930 . S
H883 C895 0.929 . S
H884 C898 0.930 . S
H885 C900 0.960 . S
H886 C900 0.960 . S
H887 C900 0.960 . S
C888 H880 0.929 . S
C888 C889 1.377 . S
C888 C890 1.384 . S
C889 C888 1.377 . S
C889 C895 1.390 . S
C890 H881 0.930 . S
C890 C888 1.384 . S
C890 C891 1.372 . S
C891 C890 1.372 . S
C891 C892 1.400 . S
C891 C896 1.490 . S
C892 H882 0.930 . S
C892 C891 1.400 . S
C892 C895 1.386 . S
H893 C909 0.930 . S
H894 C910 0.931 . S
C895 H883 0.929 . S
C895 C889 1.390 . S
C895 C892 1.386 . S
C896 C891 1.490 . S
C896 C898 1.395 . S
C896 C899 1.403 . S
H897 C903 0.930 . S
C898 H884 0.930 . S
C898 C896 1.395 . S
C898 C901 1.403 . S
C899 C896 1.403 . S
C899 C900 1.524 . S
C899 C903 1.400 . S
C900 H885 0.960 . S
C900 H886 0.960 . S
C900 H887 0.960 . S
C900 C899 1.524 . S
C901 C898 1.403 . S
C901 C902 1.392 . S
C901 C905 1.495 . S
C902 C901 1.392 . S
C902 C903 1.385 . S
C902 C904 1.478 . S
C903 H897 0.930 . S
C903 C899 1.400 . S
C903 C902 1.385 . S
C904 C902 1.478 . S
C904 C906 1.381 . S
C904 C910 1.383 . S
C905 C901 1.495 . S
C905 H911 0.959 . S
C905 H912 0.961 . S
C905 H913 0.960 . S
C906 C904 1.381 . S
C906 C907 1.394 . S
C906 H914 0.930 . S
C907 C906 1.394 . S
C907 C908 1.383 . S
C907 H915 0.929 . S
C908 C907 1.383 . S
C908 C909 1.377 . S
C909 H893 0.930 . S
C909 C908 1.377 . S
C909 C910 1.379 . S
C910 H894 0.931 . S
C910 C904 1.383 . S
C910 C909 1.379 . S
H911 C905 0.959 . S
H912 C905 0.961 . S
H913 C905 0.960 . S
H914 C906 0.930 . S
H915 C907 0.929 . S
H916 C924 0.929 . S
H917 C926 0.930 . S
H918 C928 0.930 . S
H919 C931 0.929 . S
H920 C934 0.930 . S
H921 C936 0.960 . S
H922 C936 0.960 . S
H923 C936 0.960 . S
C924 H916 0.929 . S
C924 C925 1.377 . S
C924 C926 1.384 . S
C925 C924 1.377 . S
C925 C931 1.390 . S
C926 H917 0.930 . S
C926 C924 1.384 . S
C926 C927 1.372 . S
C927 C926 1.372 . S
C927 C928 1.400 . S
C927 C932 1.490 . S
C928 H918 0.930 . S
C928 C927 1.400 . S
C928 C931 1.386 . S
H929 C945 0.930 . S
H930 C946 0.931 . S
C931 H919 0.929 . S
C931 C925 1.390 . S
C931 C928 1.386 . S
C932 C927 1.490 . S
C932 C934 1.395 . S
C932 C935 1.403 . S
H933 C939 0.930 . S
C934 H920 0.930 . S
C934 C932 1.395 . S
C934 C937 1.403 . S
C935 C932 1.403 . S
C935 C936 1.524 . S
C935 C939 1.400 . S
C936 H921 0.960 . S
C936 H922 0.960 . S
C936 H923 0.960 . S
C936 C935 1.524 . S
C937 C934 1.403 . S
C937 C938 1.392 . S
C937 C941 1.495 . S
C938 C937 1.392 . S
C938 C939 1.385 . S
C938 C940 1.478 . S
C939 H933 0.930 . S
C939 C935 1.400 . S
C939 C938 1.385 . S
C940 C938 1.478 . S
C940 C942 1.381 . S
C940 C946 1.383 . S
C941 C937 1.495 . S
C941 H947 0.959 . S
C941 H948 0.961 . S
C941 H949 0.960 . S
C942 C940 1.381 . S
C942 C943 1.394 . S
C942 H950 0.930 . S
C943 C942 1.394 . S
C943 C944 1.383 . S
C943 H951 0.929 . S
C944 C943 1.383 . S
C944 C945 1.377 . S
C945 H929 0.930 . S
C945 C944 1.377 . S
C945 C946 1.379 . S
C946 H930 0.931 . S
C946 C940 1.383 . S
C946 C945 1.379 . S
H947 C941 0.959 . S
H948 C941 0.961 . S
H949 C941 0.960 . S
H950 C942 0.930 . S
H951 C943 0.929 . S
H952 C960 0.929 . S
H953 C962 0.930 . S
H954 C964 0.930 . S
H955 C967 0.929 . S
H956 C970 0.930 . S
H957 C972 0.960 . S
H958 C972 0.960 1_545 S
H959 C972 0.960 . S
C960 H952 0.929 . S
C960 C961 1.377 . S
C960 C962 1.384 . S
C961 C960 1.377 . S
C961 C967 1.390 . S
C962 H953 0.930 . S
C962 C960 1.384 . S
C962 C963 1.372 . S
C963 C962 1.372 . S
C963 C964 1.400 . S
C963 C968 1.490 . S
C964 H954 0.930 . S
C964 C963 1.400 . S
C964 C967 1.386 . S
H965 C981 0.930 . S
H966 C982 0.931 . S
C967 H955 0.929 . S
C967 C961 1.390 . S
C967 C964 1.386 . S
C968 C963 1.490 . S
C968 C970 1.395 1_554 S
C968 C971 1.403 1_545 S
H969 C975 0.930 . S
C970 H956 0.930 . S
C970 C968 1.395 1_556 S
C970 C973 1.403 . S
C971 C968 1.403 1_565 S
C971 C972 1.524 . S
C971 C975 1.400 . S
C972 H957 0.960 . S
C972 H958 0.960 1_565 S
C972 H959 0.960 . S
C972 C971 1.524 . S
C973 C970 1.403 . S
C973 C974 1.392 1_545 S
C973 C977 1.495 . S
C974 C973 1.392 1_565 S
C974 C975 1.385 1_556 S
C974 C976 1.478 . S
C975 H969 0.930 . S
C975 C971 1.400 . S
C975 C974 1.385 1_554 S
C976 C974 1.478 . S
C976 C978 1.381 . S
C976 C982 1.383 . S
C977 C973 1.495 . S
C977 H983 0.959 . S
C977 H984 0.961 1_545 S
C977 H985 0.960 . S
C978 C976 1.381 . S
C978 C979 1.394 . S
C978 H986 0.930 . S
C979 C978 1.394 . S
C979 C980 1.383 . S
C979 H987 0.929 . S
C980 C979 1.383 . S
C980 C981 1.377 . S
C981 H965 0.930 . S
C981 C980 1.377 . S
C981 C982 1.379 . S
C982 H966 0.931 . S
C982 C976 1.383 . S
C982 C981 1.379 . S
H983 C977 0.959 . S
H984 C977 0.961 1_565 S
H985 C977 0.960 . S
H986 C978 0.930 . S
H987 C979 0.929 . S
H988 C996 0.929 . S
H989 C998 0.930 . S
H990 C1000 0.930 . S
H991 C1003 0.929 . S
H992 C1006 0.930 . S
H993 C1008 0.960 . S
H994 C1008 0.960 . S
H995 C1008 0.960 . S
C996 H988 0.929 . S
C996 C997 1.377 . S
C996 C998 1.384 . S
C997 C996 1.377 . S
C997 C1003 1.390 . S
C998 H989 0.930 . S
C998 C996 1.384 . S
C998 C999 1.372 . S
C999 C998 1.372 . S
C999 C1000 1.400 . S
C999 C1004 1.490 . S
C1000 H990 0.930 . S
C1000 C999 1.400 . S
C1000 C1003 1.386 . S
H1001 C1017 0.930 . S
H1002 C1018 0.931 . S
C1003 H991 0.929 . S
C1003 C997 1.390 . S
C1003 C1000 1.386 . S
C1004 C999 1.490 . S
C1004 C1006 1.395 1_556 S
C1004 C1007 1.403 1_455 S
H1005 C1011 0.930 . S
C1006 H992 0.930 . S
C1006 C1004 1.395 1_554 S
C1006 C1009 1.403 . S
C1007 C1004 1.403 1_655 S
C1007 C1008 1.524 . S
C1007 C1011 1.400 . S
C1008 H993 0.960 . S
C1008 H994 0.960 . S
C1008 H995 0.960 . S
C1008 C1007 1.524 . S
C1009 C1006 1.403 . S
C1009 C1010 1.392 1_455 S
C1009 C1013 1.495 . S
C1010 C1009 1.392 1_655 S
C1010 C1011 1.385 1_554 S
C1010 C1012 1.478 . S
C1011 H1005 0.930 . S
C1011 C1007 1.400 . S
C1011 C1010 1.385 1_556 S
C1012 C1010 1.478 . S
C1012 C1014 1.381 . S
C1012 C1018 1.383 . S
C1013 C1009 1.495 . S
C1013 H1019 0.959 . S
C1013 H1020 0.961 . S
C1013 H1021 0.960 . S
C1014 C1012 1.381 . S
C1014 C1015 1.394 . S
C1014 H1022 0.930 . S
C1015 C1014 1.394 . S
C1015 C1016 1.383 . S
C1015 H1023 0.929 . S
C1016 C1015 1.383 . S
C1016 C1017 1.377 . S
C1017 H1001 0.930 . S
C1017 C1016 1.377 . S
C1017 C1018 1.379 . S
C1018 H1002 0.931 . S
C1018 C1012 1.383 . S
C1018 C1017 1.379 . S
H1019 C1013 0.959 . S
H1020 C1013 0.961 . S
H1021 C1013 0.960 . S
H1022 C1014 0.930 . S
H1023 C1015 0.929 . S
H1024 C1032 0.929 . S
H1025 C1034 0.930 . S
H1026 C1036 0.930 . S
H1027 C1039 0.929 . S
H1028 C1042 0.930 . S
H1029 C1044 0.960 . S
H1030 C1044 0.960 . S
H1031 C1044 0.960 1_556 S
C1032 H1024 0.929 . S
C1032 C1033 1.377 . S
C1032 C1034 1.384 . S
C1033 C1032 1.377 . S
C1033 C1039 1.390 . S
C1034 H1025 0.930 . S
C1034 C1032 1.384 . S
C1034 C1035 1.372 . S
C1035 C1034 1.372 . S
C1035 C1036 1.400 . S
C1035 C1040 1.490 . S
C1036 H1026 0.930 . S
C1036 C1035 1.400 . S
C1036 C1039 1.386 . S
H1037 C1053 0.930 . S
H1038 C1054 0.931 . S
C1039 H1027 0.929 . S
C1039 C1033 1.390 . S
C1039 C1036 1.386 . S
C1040 C1035 1.490 . S
C1040 C1042 1.395 . S
C1040 C1043 1.385 1_556 S
H1041 C1047 0.930 . S
C1042 H1028 0.930 . S
C1042 C1040 1.395 . S
C1042 C1045 1.412 1_545 S
C1043 C1040 1.385 1_554 S
C1043 C1044 1.526 . S
C1043 C1047 1.416 1_545 S
C1044 H1029 0.960 . S
C1044 H1030 0.960 . S
C1044 H1031 0.960 1_554 S
C1044 C1043 1.526 . S
C1045 C1042 1.412 1_565 S
C1045 C1046 1.384 1_556 S
C1045 C1049 1.496 . S
C1046 C1045 1.384 1_554 S
C1046 C1047 1.385 . S
C1046 C1048 1.478 . S
C1047 H1041 0.930 . S
C1047 C1043 1.416 1_565 S
C1047 C1046 1.385 . S
C1048 C1046 1.478 . S
C1048 C1050 1.381 . S
C1048 C1054 1.383 . S
C1049 C1045 1.496 . S
C1049 H1055 0.959 . S
C1049 H1056 0.961 . S
C1049 H1057 0.960 1_556 S
C1050 C1048 1.381 . S
C1050 C1051 1.394 . S
C1050 H1058 0.930 . S
C1051 C1050 1.394 . S
C1051 C1052 1.383 . S
C1051 H1059 0.929 . S
C1052 C1051 1.383 . S
C1052 C1053 1.377 . S
C1053 H1037 0.930 . S
C1053 C1052 1.377 . S
C1053 C1054 1.379 . S
C1054 H1038 0.931 . S
C1054 C1048 1.383 . S
C1054 C1053 1.379 . S
H1055 C1049 0.959 . S
H1056 C1049 0.961 . S
H1057 C1049 0.960 1_554 S
H1058 C1050 0.930 . S
H1059 C1051 0.929 . S
H1060 C1068 0.929 . S
H1061 C1070 0.930 . S
H1062 C1072 0.930 . S
H1063 C1075 0.929 . S
H1064 C1078 0.930 . S
H1065 C1080 0.960 . S
H1066 C1080 0.960 . S
H1067 C1080 0.960 . S
C1068 H1060 0.929 . S
C1068 C1069 1.377 . S
C1068 C1070 1.384 . S
C1069 C1068 1.377 . S
C1069 C1075 1.390 . S
C1070 H1061 0.930 . S
C1070 C1068 1.384 . S
C1070 C1071 1.372 . S
C1071 C1070 1.372 . S
C1071 C1072 1.400 . S
C1071 C1076 1.490 . S
C1072 H1062 0.930 . S
C1072 C1071 1.400 . S
C1072 C1075 1.386 . S
H1073 C1089 0.930 . S
H1074 C1090 0.931 . S
C1075 H1063 0.929 . S
C1075 C1069 1.390 . S
C1075 C1072 1.386 . S
C1076 C1071 1.490 . S
C1076 C1078 1.395 1_554 S
C1076 C1079 1.403 1_455 S
H1077 C1083 0.930 . S
C1078 H1064 0.930 . S
C1078 C1076 1.395 1_556 S
C1078 C1081 1.403 . S
C1079 C1076 1.403 1_655 S
C1079 C1080 1.524 . S
C1079 C1083 1.400 . S
C1080 H1065 0.960 . S
C1080 H1066 0.960 . S
C1080 H1067 0.960 . S
C1080 C1079 1.524 . S
C1081 C1078 1.403 . S
C1081 C1082 1.392 1_455 S
C1081 C1085 1.495 . S
C1082 C1081 1.392 1_655 S
C1082 C1083 1.385 1_556 S
C1082 C1084 1.478 . S
C1083 H1077 0.930 . S
C1083 C1079 1.400 . S
C1083 C1082 1.385 1_554 S
C1084 C1082 1.478 . S
C1084 C1086 1.381 . S
C1084 C1090 1.383 . S
C1085 C1081 1.495 . S
C1085 H1091 0.959 . S
C1085 H1092 0.961 . S
C1085 H1093 0.960 . S
C1086 C1084 1.381 . S
C1086 C1087 1.394 . S
C1086 H1094 0.930 . S
C1087 C1086 1.394 . S
C1087 C1088 1.383 . S
C1087 H1095 0.929 . S
C1088 C1087 1.383 . S
C1088 C1089 1.377 . S
C1089 H1073 0.930 . S
C1089 C1088 1.377 . S
C1089 C1090 1.379 . S
C1090 H1074 0.931 . S
C1090 C1084 1.383 . S
C1090 C1089 1.379 . S
H1091 C1085 0.959 . S
H1092 C1085 0.961 . S
H1093 C1085 0.960 . S
H1094 C1086 0.930 . S
H1095 C1087 0.929 . S
H1096 C1104 0.929 . S
H1097 C1106 0.930 . S
H1098 C1108 0.930 . S
H1099 C1111 0.929 . S
H1100 C1114 0.930 . S
H1101 C1116 0.960 . S
H1102 C1116 0.960 . S
H1103 C1116 0.960 . S
C1104 H1096 0.929 . S
C1104 C1105 1.377 . S
C1104 C1106 1.384 . S
C1105 C1104 1.377 . S
C1105 C1111 1.390 . S
C1106 H1097 0.930 . S
C1106 C1104 1.384 . S
C1106 C1107 1.372 . S
C1107 C1106 1.372 . S
C1107 C1108 1.400 . S
C1107 C1112 1.490 . S
C1108 H1098 0.930 . S
C1108 C1107 1.400 . S
C1108 C1111 1.386 . S
H1109 C1125 0.930 . S
H1110 C1126 0.931 . S
C1111 H1099 0.929 . S
C1111 C1105 1.390 . S
C1111 C1108 1.386 . S
C1112 C1107 1.490 . S
C1112 C1114 1.395 . S
C1112 C1115 1.403 . S
H1113 C1119 0.930 . S
C1114 H1100 0.930 . S
C1114 C1112 1.395 . S
C1114 C1117 1.403 . S
C1115 C1112 1.403 . S
C1115 C1116 1.524 . S
C1115 C1119 1.400 . S
C1116 H1101 0.960 . S
C1116 H1102 0.960 . S
C1116 H1103 0.960 . S
C1116 C1115 1.524 . S
C1117 C1114 1.403 . S
C1117 C1118 1.392 . S
C1117 C1121 1.495 . S
C1118 C1117 1.392 . S
C1118 C1119 1.385 . S
C1118 C1120 1.478 . S
C1119 H1113 0.930 . S
C1119 C1115 1.400 . S
C1119 C1118 1.385 . S
C1120 C1118 1.478 . S
C1120 C1122 1.381 . S
C1120 C1126 1.383 . S
C1121 C1117 1.495 . S
C1121 H1127 0.959 . S
C1121 H1128 0.961 . S
C1121 H1129 0.960 . S
C1122 C1120 1.381 . S
C1122 C1123 1.394 . S
C1122 H1130 0.930 . S
C1123 C1122 1.394 . S
C1123 C1124 1.383 . S
C1123 H1131 0.929 . S
C1124 C1123 1.383 . S
C1124 C1125 1.377 . S
C1125 H1109 0.930 . S
C1125 C1124 1.377 . S
C1125 C1126 1.379 . S
C1126 H1110 0.931 . S
C1126 C1120 1.383 . S
C1126 C1125 1.379 . S
H1127 C1121 0.959 . S
H1128 C1121 0.961 . S
H1129 C1121 0.960 . S
H1130 C1122 0.930 . S
H1131 C1123 0.929 . S
H1132 C1140 0.929 . S
H1133 C1142 0.930 . S
H1134 C1144 0.930 . S
H1135 C1147 0.929 . S
H1136 C1150 0.930 . S
H1137 C1152 0.960 . S
H1138 C1152 0.960 . S
H1139 C1152 0.960 . S
C1140 H1132 0.929 . S
C1140 C1141 1.377 . S
C1140 C1142 1.384 . S
C1141 C1140 1.377 . S
C1141 C1147 1.390 . S
C1142 H1133 0.930 . S
C1142 C1140 1.384 . S
C1142 C1143 1.372 . S
C1143 C1142 1.372 . S
C1143 C1144 1.400 . S
C1143 C1148 1.490 . S
C1144 H1134 0.930 . S
C1144 C1143 1.400 . S
C1144 C1147 1.386 . S
H1145 C1161 0.930 . S
H1146 C1162 0.931 . S
C1147 H1135 0.929 . S
C1147 C1141 1.390 . S
C1147 C1144 1.386 . S
C1148 C1143 1.490 . S
C1148 C1150 1.395 . S
C1148 C1151 1.403 . S
H1149 C1155 0.930 . S
C1150 H1136 0.930 . S
C1150 C1148 1.395 . S
C1150 C1153 1.403 . S
C1151 C1148 1.403 . S
C1151 C1152 1.524 . S
C1151 C1155 1.400 . S
C1152 H1137 0.960 . S
C1152 H1138 0.960 . S
C1152 H1139 0.960 . S
C1152 C1151 1.524 . S
C1153 C1150 1.403 . S
C1153 C1154 1.392 . S
C1153 C1157 1.495 . S
C1154 C1153 1.392 . S
C1154 C1155 1.385 . S
C1154 C1156 1.478 . S
C1155 H1149 0.930 . S
C1155 C1151 1.400 . S
C1155 C1154 1.385 . S
C1156 C1154 1.478 . S
C1156 C1158 1.381 . S
C1156 C1162 1.383 . S
C1157 C1153 1.495 . S
C1157 H1163 0.959 . S
C1157 H1164 0.961 . S
C1157 H1165 0.960 . S
C1158 C1156 1.381 . S
C1158 C1159 1.394 . S
C1158 H1166 0.930 . S
C1159 C1158 1.394 . S
C1159 C1160 1.383 . S
C1159 H1167 0.929 . S
C1160 C1159 1.383 . S
C1160 C1161 1.377 . S
C1161 H1145 0.930 . S
C1161 C1160 1.377 . S
C1161 C1162 1.379 . S
C1162 H1146 0.931 . S
C1162 C1156 1.383 . S
C1162 C1161 1.379 . S
H1163 C1157 0.959 . S
H1164 C1157 0.961 . S
H1165 C1157 0.960 . S
H1166 C1158 0.930 . S
H1167 C1159 0.929 . S
H1168 C1176 0.929 . S
H1169 C1178 0.930 . S
H1170 C1180 0.930 . S
H1171 C1183 0.929 . S
H1172 C1186 0.930 . S
H1173 C1188 0.960 . S
H1174 C1188 0.960 . S
H1175 C1188 0.960 . S
C1176 H1168 0.929 . S
C1176 C1177 1.377 . S
C1176 C1178 1.384 . S
C1177 C1176 1.377 . S
C1177 C1183 1.390 . S
C1178 H1169 0.930 . S
C1178 C1176 1.384 . S
C1178 C1179 1.372 . S
C1179 C1178 1.372 . S
C1179 C1180 1.400 . S
C1179 C1184 1.490 . S
C1180 H1170 0.930 . S
C1180 C1179 1.400 . S
C1180 C1183 1.386 . S
H1181 C1197 0.930 . S
H1182 C1198 0.931 . S
C1183 H1171 0.929 . S
C1183 C1177 1.390 . S
C1183 C1180 1.386 . S
C1184 C1179 1.490 . S
C1184 C1186 1.395 . S
C1184 C1187 1.403 . S
H1185 C1191 0.930 . S
C1186 H1172 0.930 . S
C1186 C1184 1.395 . S
C1186 C1189 1.403 . S
C1187 C1184 1.403 . S
C1187 C1188 1.524 . S
C1187 C1191 1.400 . S
C1188 H1173 0.960 . S
C1188 H1174 0.960 . S
C1188 H1175 0.960 . S
C1188 C1187 1.524 . S
C1189 C1186 1.403 . S
C1189 C1190 1.392 . S
C1189 C1193 1.495 . S
C1190 C1189 1.392 . S
C1190 C1191 1.385 . S
C1190 C1192 1.478 . S
C1191 H1185 0.930 . S
C1191 C1187 1.400 . S
C1191 C1190 1.385 . S
C1192 C1190 1.478 . S
C1192 C1194 1.381 . S
C1192 C1198 1.383 . S
C1193 C1189 1.495 . S
C1193 H1199 0.959 . S
C1193 H1200 0.961 . S
C1193 H1201 0.960 . S
C1194 C1192 1.381 . S
C1194 C1195 1.394 . S
C1194 H1202 0.930 . S
C1195 C1194 1.394 . S
C1195 C1196 1.383 . S
C1195 H1203 0.929 . S
C1196 C1195 1.383 . S
C1196 C1197 1.377 . S
C1197 H1181 0.930 . S
C1197 C1196 1.377 . S
C1197 C1198 1.379 . S
C1198 H1182 0.931 . S
C1198 C1192 1.383 . S
C1198 C1197 1.379 . S
H1199 C1193 0.959 . S
H1200 C1193 0.961 . S
H1201 C1193 0.960 . S
H1202 C1194 0.930 . S
H1203 C1195 0.929 . S
H1204 C1212 0.929 . S
H1205 C1214 0.930 . S
H1206 C1216 0.930 . S
H1207 C1219 0.929 . S
H1208 C1222 0.930 . S
H1209 C1224 0.960 . S
H1210 C1224 0.960 . S
H1211 C1224 0.960 . S
C1212 H1204 0.929 . S
C1212 C1213 1.377 . S
C1212 C1214 1.384 . S
C1213 C1212 1.377 . S
C1213 C1219 1.390 . S
C1214 H1205 0.930 . S
C1214 C1212 1.384 . S
C1214 C1215 1.372 . S
C1215 C1214 1.372 . S
C1215 C1216 1.400 . S
C1215 C1220 1.490 . S
C1216 H1206 0.930 . S
C1216 C1215 1.400 . S
C1216 C1219 1.386 . S
H1217 C1233 0.930 . S
H1218 C1234 0.931 . S
C1219 H1207 0.929 . S
C1219 C1213 1.390 . S
C1219 C1216 1.386 . S
C1220 C1215 1.490 . S
C1220 C1222 1.395 . S
C1220 C1223 1.403 . S
H1221 C1227 0.930 . S
C1222 H1208 0.930 . S
C1222 C1220 1.395 . S
C1222 C1225 1.403 . S
C1223 C1220 1.403 . S
C1223 C1224 1.524 . S
C1223 C1227 1.400 . S
C1224 H1209 0.960 . S
C1224 H1210 0.960 . S
C1224 H1211 0.960 . S
C1224 C1223 1.524 . S
C1225 C1222 1.403 . S
C1225 C1226 1.392 . S
C1225 C1229 1.495 . S
C1226 C1225 1.392 . S
C1226 C1227 1.385 . S
C1226 C1228 1.478 . S
C1227 H1221 0.930 . S
C1227 C1223 1.400 . S
C1227 C1226 1.385 . S
C1228 C1226 1.478 . S
C1228 C1230 1.381 . S
C1228 C1234 1.383 . S
C1229 C1225 1.495 . S
C1229 H1235 0.959 . S
C1229 H1236 0.961 . S
C1229 H1237 0.960 . S
C1230 C1228 1.381 . S
C1230 C1231 1.394 . S
C1230 H1238 0.930 . S
C1231 C1230 1.394 . S
C1231 C1232 1.383 . S
C1231 H1239 0.929 . S
C1232 C1231 1.383 . S
C1232 C1233 1.377 . S
C1233 H1217 0.930 . S
C1233 C1232 1.377 . S
C1233 C1234 1.379 . S
C1234 H1218 0.931 . S
C1234 C1228 1.383 . S
C1234 C1233 1.379 . S
H1235 C1229 0.959 . S
H1236 C1229 0.961 . S
H1237 C1229 0.960 . S
H1238 C1230 0.930 . S
H1239 C1231 0.929 . S
C241 C3 1.890 . S
C260 C218 1.882 . S
C277 C39 2.088 . S
C296 C129 2.063 . S
C313 C160 1.880 . S
C332 C61 1.894 . S
C349 C97 2.079 . S
C368 C187 2.025 . S
C385 C32 1.887 . S
C404 C189 1.860 . S
C421 C216 2.043 . S
C440 C68 2.075 . S
C457 C90 1.885 . S
C476 C131 1.861 . S
C493 C158 2.049 . S
C512 C10 2.058 . S
C529 C119 1.886 . S
C548 C102 1.879 . S
C565 C13 2.043 . S
C584 C155 2.073 . S
C601 C44 1.875 . S
C620 C177 1.888 . S
C637 C213 2.088 . S
C656 C71 2.065 . S
C673 C148 1.890 . S
C692 C73 1.881 . S
C709 C184 2.084 . S
C728 C100 2.018 . S
C745 C206 1.890 . S
C764 C15 1.883 . S
C781 C42 2.044 . S
C800 C126 2.091 . S
C817 C21 0.466 . S
C836 C79 0.438 . S
C853 C108 0.426 . S
C872 C50 0.434 . S
C889 C137 0.432 . S
C908 C195 0.393 . S
C925 C166 0.463 . S
C944 C224 0.480 . S
C961 C5 1.314 . S
C980 C34 1.346 . S
C997 C37 1.456 . S
C1016 C66 1.447 . S
C1033 C92 1.317 . S
C1052 C63 1.337 . S
C1069 C8 1.456 . S
C1088 C95 1.447 . S
C1105 C150 1.319 . S
C1124 C121 1.317 . S
C1141 C182 1.441 . S
C1160 C153 1.499 . S
C1177 C179 1.326 . S
C1196 C208 1.288 . S
C1213 C124 1.456 . S
C1232 C211 1.447 . S
