# Generated by pormake.
# Topology qtz-x, (6)-cn, num edge types: 1
# Building blocks:
#     Node 0, Type 0, BuildingBlock: NUHQIS_clean_sbu_0, # of connection points: 6
#     Node 1, Type 0, BuildingBlock: NUHQIS_clean_sbu_0, # of connection points: 6
#     Node 2, Type 0, BuildingBlock: NUHQIS_clean_sbu_0, # of connection points: 6
#     Edge 3, Type (0, 0), BuildingBlock: CIFDUS_clean_linker_0, # of connection points: 2
#     Edge 4, Type (0, 0), BuildingBlock: CIFDUS_clean_linker_0, # of connection points: 2
#     Edge 5, Type (0, 0), BuildingBlock: CIFDUS_clean_linker_0, # of connection points: 2
#     Edge 6, Type (0, 0), BuildingBlock: CIFDUS_clean_linker_0, # of connection points: 2
#     Edge 7, Type (0, 0), BuildingBlock: CIFDUS_clean_linker_0, # of connection points: 2
#     Edge 8, Type (0, 0), BuildingBlock: CIFDUS_clean_linker_0, # of connection points: 2
#     Edge 9, Type (0, 0), BuildingBlock: CIFDUS_clean_linker_0, # of connection points: 2
#     Edge 10, Type (0, 0), BuildingBlock: CIFDUS_clean_linker_0, # of connection points: 2
#     Edge 11, Type (0, 0), BuildingBlock: CIFDUS_clean_linker_0, # of connection points: 2
# Relax obj value: 0.280
# Max RMSD: 0.280
# Mean RMSD: 0.259
data_MOF--net-qtz-x--node1-NUHQIS_clean_sbu_0--edge1-CIFDUS_clean_linker_0
_symmetry_space_group_name_H-M    P1
_symmetry_Int_Tables_number       1
_symmetry_cell_setting            triclinic
loop_
_symmetry_equiv_pos_as_xyz
'x, y, z'
_cell_length_a     13.510518
_cell_length_b     13.557893
_cell_length_c     48.252394
_cell_angle_alpha  62.041951
_cell_angle_beta   119.44686
_cell_angle_gamma 121.65607
loop_
_atom_site_label
_atom_site_type_symbol
_atom_site_fract_x
_atom_site_fract_y
_atom_site_fract_z
_atom_type_partial_charge
Tb0 Tb 1.07671 0.58294 0.22308 0.0
Eu1 Eu 0.34661 0.76248 0.21055 0.0
C2 C 0.18381 0.86856 0.21291 0.0
C3 C 0.09528 0.67888 0.1511 0.0
C4 C 0.86442 0.39842 0.27219 0.0
C5 C 0.72602 0.32839 0.30194 0.0
C6 C 0.74769 0.36858 0.27202 0.0
C7 C 0.95908 0.38769 0.30281 0.0
C8 C 0.93818 0.34938 0.33258 0.0
C9 C 0.82142 0.319 0.33259 0.0
C10 C 0.88723 0.43836 0.24073 0.0
O11 O 0.12125 0.47388 0.21206 0.0
O12 O 0.33112 0.56952 0.22782 0.0
O13 O 0.38452 0.75562 0.26169 0.0
O14 O 0.2186 0.58188 0.27229 0.0
C15 C 0.2305 0.47559 0.22033 0.0
O16 O 0.53934 0.80212 0.22189 0.0
O17 O 0.45421 -0.07466 0.18106 0.0
O18 O 0.26982 0.89031 0.20287 0.0
O19 O 0.11019 0.75787 0.2242 0.0
O20 O 1.02661 0.64871 0.16827 0.0
O21 O 0.21393 0.7049 0.16462 0.0
C22 C 0.32549 0.66726 0.28218 0.0
O23 O 0.90583 0.55085 0.22326 0.0
O24 O 0.96583 0.40557 0.24265 0.0
C25 C 0.58904 0.89246 0.17275 0.0
C26 C 0.64199 0.90319 0.12157 0.0
C27 C 0.54582 0.80277 0.13276 0.0
C28 C 0.5195 0.79756 0.15811 0.0
C29 C 0.68787 -0.00937 0.16263 0.0
C30 C 0.71461 -0.00418 0.1373 0.0
C31 C 0.54904 0.89506 0.19558 0.0
H32 H 0.63513 0.30609 0.30109 0.0
H33 H 0.67328 0.37598 0.24876 0.0
H34 H 1.04924 0.4076 0.30378 0.0
H35 H 1.01304 0.34117 0.35571 0.0
H36 H 0.4894 0.7292 0.12151 0.0
H37 H 0.44222 0.72128 0.16553 0.0
H38 H 0.74148 0.0652 0.17346 0.0
H39 H 0.78867 0.07484 0.12907 0.0
Tb40 Tb 0.92198 0.19246 0.58699 0.0
Eu41 Eu 0.77972 0.91867 0.57789 0.0
C42 C 1.06927 0.06916 0.58739 0.0
C43 C 0.83517 0.15822 0.51709 0.0
C44 C 1.01949 0.43607 0.61908 0.0
C45 C 0.11824 0.5662 0.65419 0.0
C46 C 0.11123 0.54146 0.62808 0.0
C47 C 0.9309 0.3588 0.63518 0.0
C48 C 0.93823 0.38299 0.66135 0.0
C49 C 1.03423 0.48492 0.67178 0.0
C50 C 1.02774 0.39621 0.59714 0.0
O51 O 0.72531 0.15185 0.57211 0.0
O52 O 0.64955 -0.05525 0.58748 0.0
O53 O 0.85883 0.89053 0.63392 0.0
O54 O 0.88251 0.07282 0.63302 0.0
C55 C 0.63782 0.0458 0.57933 0.0
O56 O 0.60614 0.77783 0.56011 0.0
O57 O 0.77567 0.75095 0.58046 0.0
O58 O 0.96622 -0.01101 0.57405 0.0
O59 O 1.07031 0.13975 0.59926 0.0
O60 O 0.91873 0.2209 0.53838 0.0
O61 O 0.75385 0.05017 0.52621 0.0
C62 C 0.87603 -0.03883 0.64894 0.0
O63 O 1.07496 0.31426 0.6129 0.0
O64 O 0.9291 0.3684 0.57198 0.0
C65 C 0.62299 0.68557 0.5331 0.0
C66 C 0.52945 0.64637 0.47072 0.0
C67 C 0.48865 0.55315 0.49728 0.0
C68 C 0.53473 0.57284 0.52816 0.0
C69 C 0.66689 0.77744 0.50709 0.0
C70 C 0.62053 0.75826 0.47623 0.0
C71 C 0.65836 0.71287 0.56362 0.0
H72 H 0.19352 0.6451 0.66181 0.0
H73 H 0.18103 0.60118 0.61611 0.0
H74 H 0.85976 0.27655 0.62862 0.0
H75 H 0.87128 0.31979 0.67416 0.0
H76 H 0.41985 0.46543 0.4941 0.0
H77 H 0.49895 0.50119 0.54786 0.0
H78 H 0.73401 0.86565 0.5103 0.0
H79 H 0.65282 0.83292 0.45635 0.0
Tb80 Tb 0.87917 0.86833 0.88985 0.0
Eu81 Eu 1.02199 0.69304 0.91114 0.0
C82 C 0.15933 -0.0257 0.9016 0.0
C83 C 0.91215 0.83214 0.83394 0.0
C84 C 0.70841 -0.01796 0.89903 0.0
C85 C 0.72909 0.06485 0.93749 0.0
C86 C 0.76169 0.07803 0.91229 0.0
C87 C 0.61429 0.87547 0.90961 0.0
C88 C 0.57997 0.863 0.93447 0.0
C89 C 0.64037 -0.04398 0.94945 0.0
C90 C 0.76437 -0.01137 0.87819 0.0
O91 O 0.76257 0.68239 0.90666 0.0
O92 O 0.81938 0.59463 0.88963 0.0
O93 O 1.0001 0.66264 0.95827 0.0
O94 O 0.96055 0.8295 0.94406 0.0
C95 C 0.73818 0.59419 0.89708 0.0
O96 O 1.02773 0.51549 0.92743 0.0
O97 O 0.18884 0.67743 0.92066 0.0
O98 O 0.16392 0.86908 0.92133 0.0
O99 O 1.05515 -0.01161 0.88222 0.0
O100 O 0.84987 0.85805 0.84209 0.0
O101 O 0.9917 0.78152 0.85628 0.0
C102 C 0.98826 0.73548 0.96627 0.0
O103 O 0.88411 0.02541 0.88987 0.0
O104 O 0.71382 0.89623 0.86692 0.0
C105 C 0.14485 0.52055 0.90247 0.0
C106 C 0.13321 0.46648 0.85099 0.0
C107 C 1.05049 0.38525 0.8689 0.0
C108 C 1.05634 0.4122 0.89443 0.0
C109 C 0.23411 0.59636 0.88646 0.0
C110 C 0.22773 0.57003 0.86082 0.0
C111 C 0.13565 0.56134 0.92438 0.0
H112 H 0.77529 0.13889 0.94817 0.0
H113 H 0.8334 0.16102 0.90434 0.0
H114 H 0.57118 0.79954 0.8999 0.0
H115 H 0.51123 0.77816 0.94325 0.0
H116 H 0.97683 0.30453 0.86195 0.0
H117 H 0.98771 0.35155 0.9067 0.0
H118 H 0.30543 0.67929 0.89257 0.0
H119 H 0.29491 0.63247 0.84806 0.0
H120 H 0.35978 0.0954 0.21575 0.0
H121 H 0.98009 0.8759 0.21004 0.0
H122 H 0.96004 0.04246 0.21145 0.0
H123 H 1.0508 0.25097 0.215 0.0
H124 H 0.43335 0.46676 0.22315 0.0
H125 H 0.45091 0.30224 0.22006 0.0
C126 C 0.27232 0.08413 0.21459 0.0
C127 C 0.17154 -0.02736 0.21267 0.0
C128 C 0.2619 0.18001 0.21606 0.0
C129 C 1.0595 -0.04003 0.21163 0.0
C130 C 1.04784 0.05555 0.2124 0.0
C131 C 0.13825 0.26218 0.21619 0.0
C132 C 0.24058 0.37212 0.21939 0.0
C133 C 0.14857 0.16598 0.21481 0.0
C134 C 0.35296 0.38375 0.22092 0.0
C135 C 0.36325 0.28945 0.21909 0.0
H136 H 0.59917 0.21049 0.58716 0.0
H137 H 0.41567 0.859 0.57107 0.0
H138 H 0.22644 0.83492 0.57255 0.0
H139 H 0.11144 0.91162 0.57855 0.0
H140 H 0.29334 0.25891 0.59684 0.0
H141 H 0.48345 0.2859 0.59457 0.0
C142 C 0.51742 0.1292 0.58369 0.0
C143 C 0.52208 0.03711 0.57878 0.0
C144 C 0.4082 0.11454 0.58517 0.0
C145 C 0.41542 -0.0685 0.57489 0.0
C146 C 0.30671 0.91743 0.57574 0.0
C147 C 0.19255 -0.00667 0.58209 0.0
C148 C 0.1873 0.08304 0.58783 0.0
C149 C 0.30194 0.00799 0.58096 0.0
C150 C 0.29426 0.18781 0.59258 0.0
C151 C 0.40317 0.20368 0.5911 0.0
H152 H 0.21575 0.19452 0.90252 0.0
H153 H 0.35762 -0.01403 0.89726 0.0
H154 H 0.54794 0.16317 0.89305 0.0
H155 H 0.67612 0.37464 0.89302 0.0
H156 H 0.53726 0.57947 0.90144 0.0
H157 H 0.34566 0.40427 0.90382 0.0
C158 C 0.28897 0.18839 0.90058 0.0
C159 C 0.27432 0.07883 0.90026 0.0
C160 C 0.39889 0.28895 0.89922 0.0
C161 C 0.3688 0.07008 0.89796 0.0
C162 C 0.47716 0.17091 0.89557 0.0
C163 C 0.60336 0.38146 0.89495 0.0
C164 C 0.62063 0.48983 0.89691 0.0
C165 C 0.49351 0.28058 0.89641 0.0
C166 C 0.52619 0.49694 0.89985 0.0
C167 C 0.41626 0.39728 0.90099 0.0
H168 H 0.81196 0.00221 1.00714 0.0
H169 H 0.41952 0.86291 0.95851 0.0
H170 H 0.38533 0.8322 1.00782 0.0
H171 H 0.46803 0.8498 1.06421 0.0
H172 H 0.86104 -0.01709 0.11334 0.0
H173 H 0.89423 0.01188 1.06418 0.0
C174 C 0.71898 -0.03383 1.00727 0.0
C175 C 0.61835 -0.06319 0.97911 0.0
C176 C 0.70036 -0.05253 1.03576 0.0
C177 C 0.49831 0.88703 0.97984 0.0
C178 C 0.47886 0.86944 1.00801 0.0
C179 C 0.56095 0.88364 1.06436 0.0
C180 C 0.662 0.91454 0.0924 0.0
C181 C 0.57932 0.89965 1.03607 0.0
C182 C 0.78181 -0.04 0.09194 0.0
C183 C 0.80083 -0.02378 1.0639 0.0
H184 H 0.67773 0.06324 0.46397 0.0
H185 H 1.00893 0.36437 0.49293 0.0
H186 H 1.03248 0.44007 0.43895 0.0
H187 H 0.96378 0.41965 0.38379 0.0
H188 H 0.63173 0.12288 0.35347 0.0
H189 H 0.60361 0.04771 0.4073 0.0
C190 C 0.75442 0.14598 0.4584 0.0
C191 C 0.84121 0.20756 0.48279 0.0
C192 C 0.76764 0.19012 0.42692 0.0
C193 C 0.94007 0.31474 0.47488 0.0
C194 C 0.95411 0.35832 0.44391 0.0
C195 C 0.88517 0.33853 0.38895 0.0
C196 C 0.80029 0.27682 0.36463 0.0
C197 C 0.86921 0.29641 0.41984 0.0
C198 C 0.698 0.1727 0.37161 0.0
C199 C 0.68219 0.12938 0.40248 0.0
H200 H 0.94555 0.72812 0.8036 0.0
H201 H 0.84171 0.01281 0.78345 0.0
H202 H 0.82269 0.07675 0.72521 0.0
H203 H 0.83728 0.05453 0.68004 0.0
H204 H 0.92881 0.76442 0.69802 0.0
H205 H 0.94932 0.69906 0.75682 0.0
C206 C 0.91827 0.80385 0.78641 0.0
C207 C 0.89524 0.86562 0.79809 0.0
C208 C 0.905 0.83901 0.7525 0.0
C209 C 0.85914 -0.03704 0.77531 0.0
C210 C 0.84859 -7e-05 0.74193 0.0
C211 C 0.8619 -0.02313 0.69672 0.0
C212 C 0.88297 0.91543 0.68449 0.0
C213 C 0.87155 -0.06104 0.73026 0.0
C214 C 0.91263 0.81383 0.70662 0.0
C215 C 0.92458 0.77663 0.74031 0.0
H216 H 0.88733 0.78393 0.99408 0.0
H217 H 0.14517 0.63485 1.01907 0.0
H218 H 0.1926 0.59727 0.07788 0.0
H219 H 0.16752 0.61162 0.12226 0.0
H220 H 0.90862 0.75422 0.09991 0.0
H221 H 0.85222 0.7862 1.04024 0.0
C222 C 0.95371 0.74312 1.01247 0.0
C223 C 1.01306 0.71273 1.00203 0.0
C224 C 0.97925 0.71923 1.04673 0.0
C225 C 0.09774 0.65864 1.02624 0.0
C226 C 0.12505 0.63708 1.05996 0.0
C227 C 0.09763 0.64866 0.1044 0.0
C228 C 1.04262 0.68076 0.11558 0.0
C229 C 1.06691 0.6673 0.07046 0.0
C230 C 0.95155 0.72759 0.09207 0.0
C231 C 0.92041 0.74706 1.05791 0.0
H232 H 0.21191 0.56058 0.32852 0.0
H233 H 0.56823 0.77205 0.31542 0.0
H234 H 0.66309 0.77964 0.37276 0.0
H235 H 0.64481 0.73057 0.42624 0.0
H236 H 0.28732 0.52593 0.43888 0.0
H237 H 0.19389 0.50838 0.38257 0.0
C238 C 0.31045 0.60615 0.33838 0.0
C239 C 0.38266 0.66449 0.3177 0.0
C240 C 0.36449 0.61126 0.3714 0.0
C241 C 0.51018 0.72631 0.33071 0.0
C242 C 0.56469 0.73065 0.36355 0.0
C243 C 0.54635 0.68241 0.4167 0.0
C244 C 0.47366 0.62968 0.43698 0.0
C245 C 0.49264 0.6744 0.38404 0.0
C246 C 0.3463 0.56593 0.42419 0.0
C247 C 0.2924 0.55658 0.39181 0.0
H248 H 0.14366 0.63616 0.79221 0.0
H249 H 1.07759 0.25745 0.841 0.0
H250 H 1.03788 0.22948 0.7894 0.0
H251 H 1.02327 0.3136 0.73061 0.0
H252 H 0.0893 0.69252 0.68205 0.0
H253 H 0.12997 0.72009 0.73377 0.0
C254 C 0.12234 0.54782 0.79169 0.0
C255 C 0.11475 0.44924 0.82043 0.0
C256 C 0.09918 0.53253 0.76203 0.0
C257 C 0.08396 0.33467 0.81918 0.0
C258 C 1.06126 0.31871 0.78972 0.0
C259 C 1.04487 0.40188 0.73124 0.0
C260 C 1.05269 0.50087 0.70254 0.0
C261 C 1.0681 0.41697 0.76098 0.0
C262 C 0.08334 0.61521 0.70387 0.0
C263 C 0.10623 0.6309 0.73336 0.0
loop_
_geom_bond_atom_site_label_1
_geom_bond_atom_site_label_2
_geom_bond_distance
_geom_bond_site_symmetry_2
_ccdc_geom_bond_type
Tb0 C10 2.825 . S
Tb0 O11 2.347 . S
Tb0 O14 2.362 1_655 S
Tb0 O19 2.418 . S
Tb0 O20 2.384 . S
Tb0 O23 2.479 . S
Tb0 O24 2.471 . S
Eu1 O12 2.418 . S
Eu1 O13 2.384 . S
Eu1 O16 2.479 . S
Eu1 O17 2.471 . S
Eu1 O18 2.347 . S
Eu1 O21 2.363 1_455 S
Eu1 C31 2.825 . S
C2 O18 1.259 1_655 S
C2 O19 1.265 . S
C3 O20 1.255 . S
C3 O21 1.272 . S
C4 C6 1.380 . S
C4 C7 1.374 . S
C4 C10 1.507 . S
C5 C6 1.384 . S
C5 C9 1.387 . S
C5 H32 0.930 . S
C6 C4 1.380 . S
C6 C5 1.384 . S
C6 H33 0.931 . S
C7 C4 1.374 . S
C7 C8 1.390 . S
C7 H34 0.930 . S
C8 C7 1.390 . S
C8 C9 1.391 . S
C8 H35 0.930 . S
C9 C5 1.387 . S
C9 C8 1.391 . S
C10 Tb0 2.825 . S
C10 C4 1.507 . S
C10 O23 1.238 . S
C10 O24 1.247 . S
O11 Tb0 2.347 . S
O11 C15 1.259 1_655 S
O12 Eu1 2.418 . S
O12 C15 1.265 . S
O13 Eu1 2.384 . S
O13 C22 1.255 . S
O14 Tb0 2.362 1_455 S
O14 C22 1.274 . S
C15 O11 1.259 1_455 S
C15 O12 1.265 . S
O16 Eu1 2.479 . S
O16 C31 1.238 . S
O17 Eu1 2.471 . S
O17 C31 1.247 . S
O18 Eu1 2.347 . S
O18 C2 1.259 1_455 S
O19 Tb0 2.418 . S
O19 C2 1.265 . S
O20 Tb0 2.384 . S
O20 C3 1.255 . S
O21 Eu1 2.363 1_655 S
O21 C3 1.272 . S
C22 O13 1.255 . S
C22 O14 1.274 . S
O23 Tb0 2.479 . S
O23 C10 1.238 . S
O24 Tb0 2.471 . S
O24 C10 1.247 . S
C25 C28 1.380 . S
C25 C29 1.374 1_565 S
C25 C31 1.507 . S
C26 C27 1.387 1_545 S
C26 C30 1.391 . S
C27 C26 1.387 1_565 S
C27 C28 1.384 . S
C27 H36 0.930 . S
C28 C25 1.380 . S
C28 C27 1.384 . S
C28 H37 0.931 . S
C29 C25 1.374 1_545 S
C29 C30 1.390 . S
C29 H38 0.930 . S
C30 C26 1.391 . S
C30 C29 1.390 . S
C30 H39 0.930 . S
C31 Eu1 2.825 . S
C31 O16 1.238 . S
C31 O17 1.247 . S
C31 C25 1.507 . S
H32 C5 0.930 . S
H33 C6 0.931 . S
H34 C7 0.930 . S
H35 C8 0.930 . S
H36 C27 0.930 . S
H37 C28 0.931 . S
H38 C29 0.930 . S
H39 C30 0.930 . S
Tb40 C50 2.825 . S
Tb40 O51 2.347 . S
Tb40 O54 2.366 . S
Tb40 O59 2.418 1_655 S
Tb40 O60 2.384 . S
Tb40 O63 2.479 1_655 S
Tb40 O64 2.471 . S
Eu41 O52 2.418 . S
Eu41 O53 2.384 . S
Eu41 O56 2.479 . S
Eu41 O57 2.471 . S
Eu41 O58 2.347 . S
Eu41 O61 2.366 . S
Eu41 C71 2.825 . S
C42 O58 1.259 1_445 S
C42 O59 1.265 . S
C43 O60 1.255 . S
C43 O61 1.265 1_545 S
C44 C46 1.380 1_655 S
C44 C47 1.374 . S
C44 C50 1.507 . S
C45 C46 1.384 . S
C45 C49 1.387 . S
C45 H72 0.930 . S
C46 C44 1.380 1_455 S
C46 C45 1.384 . S
C46 H73 0.931 . S
C47 C44 1.374 . S
C47 C48 1.390 . S
C47 H74 0.930 . S
C48 C47 1.390 . S
C48 C49 1.391 1_655 S
C48 H75 0.930 . S
C49 C45 1.387 . S
C49 C48 1.391 1_455 S
C50 Tb40 2.825 . S
C50 C44 1.507 . S
C50 O63 1.238 1_655 S
C50 O64 1.247 . S
O51 Tb40 2.347 . S
O51 C55 1.259 1_545 S
O52 Eu41 2.418 . S
O52 C55 1.265 . S
O53 Eu41 2.384 . S
O53 C62 1.255 . S
O54 Tb40 2.366 . S
O54 C62 1.265 1_545 S
C55 O51 1.259 1_565 S
C55 O52 1.265 . S
O56 Eu41 2.479 . S
O56 C71 1.238 . S
O57 Eu41 2.471 . S
O57 C71 1.247 . S
O58 Eu41 2.347 . S
O58 C42 1.259 1_665 S
O59 Tb40 2.418 1_455 S
O59 C42 1.265 . S
O60 Tb40 2.384 . S
O60 C43 1.255 . S
O61 Eu41 2.366 . S
O61 C43 1.265 1_565 S
C62 O53 1.255 . S
C62 O54 1.265 1_565 S
O63 Tb40 2.479 1_455 S
O63 C50 1.238 1_455 S
O64 Tb40 2.471 . S
O64 C50 1.247 . S
C65 C68 1.380 . S
C65 C69 1.374 . S
C65 C71 1.507 . S
C66 C67 1.387 . S
C66 C70 1.391 . S
C67 C66 1.387 . S
C67 C68 1.384 . S
C67 H76 0.930 . S
C68 C65 1.380 . S
C68 C67 1.384 . S
C68 H77 0.931 . S
C69 C65 1.374 . S
C69 C70 1.390 . S
C69 H78 0.930 . S
C70 C66 1.391 . S
C70 C69 1.390 . S
C70 H79 0.930 . S
C71 Eu41 2.825 . S
C71 O56 1.238 . S
C71 O57 1.247 . S
C71 C65 1.507 . S
H72 C45 0.930 . S
H73 C46 0.931 . S
H74 C47 0.930 . S
H75 C48 0.930 . S
H76 C67 0.930 . S
H77 C68 0.931 . S
H78 C69 0.930 . S
H79 C70 0.930 . S
Tb80 C90 2.825 . S
Tb80 O91 2.347 1_545 S
Tb80 O94 2.366 . S
Tb80 O99 2.418 1_655 S
Tb80 O100 2.384 . S
Tb80 O103 2.479 . S
Tb80 O104 2.471 . S
Eu81 O92 2.418 1_455 S
Eu81 O93 2.384 . S
Eu81 O96 2.479 . S
Eu81 O97 2.471 . S
Eu81 O98 2.347 1_565 S
Eu81 O101 2.366 1_455 S
Eu81 C111 2.825 . S
C82 O98 1.259 . S
C82 O99 1.265 . S
C83 O100 1.255 . S
C83 O101 1.265 1_545 S
C84 C86 1.380 . S
C84 C87 1.374 . S
C84 C90 1.507 . S
C85 C86 1.384 . S
C85 C89 1.387 . S
C85 H112 0.930 . S
C86 C84 1.380 . S
C86 C85 1.384 . S
C86 H113 0.931 . S
C87 C84 1.374 . S
C87 C88 1.390 . S
C87 H114 0.930 1_545 S
C88 C87 1.390 . S
C88 C89 1.391 . S
C88 H115 0.930 1_545 S
C89 C85 1.387 . S
C89 C88 1.391 . S
C90 Tb80 2.825 . S
C90 C84 1.507 . S
C90 O103 1.238 . S
C90 O104 1.247 . S
O91 Tb80 2.347 1_565 S
O91 C95 1.259 . S
O92 Eu81 2.418 1_655 S
O92 C95 1.265 . S
O93 Eu81 2.384 . S
O93 C102 1.255 . S
O94 Tb80 2.366 . S
O94 C102 1.265 1_645 S
C95 O91 1.259 . S
C95 O92 1.265 . S
O96 Eu81 2.479 . S
O96 C111 1.238 . S
O97 Eu81 2.471 . S
O97 C111 1.247 . S
O98 Eu81 2.347 1_545 S
O98 C82 1.259 . S
O99 Tb80 2.418 1_455 S
O99 C82 1.265 . S
O100 Tb80 2.384 . S
O100 C83 1.255 . S
O101 Eu81 2.366 1_655 S
O101 C83 1.265 1_565 S
C102 O93 1.255 . S
C102 O94 1.265 1_465 S
O103 Tb80 2.479 . S
O103 C90 1.238 . S
O104 Tb80 2.471 . S
O104 C90 1.247 . S
C105 C108 1.380 . S
C105 C109 1.374 . S
C105 C111 1.507 . S
C106 C107 1.387 . S
C106 C110 1.391 . S
C107 C106 1.387 . S
C107 C108 1.384 . S
C107 H116 0.930 . S
C108 C105 1.380 . S
C108 C107 1.384 . S
C108 H117 0.931 . S
C109 C105 1.374 . S
C109 C110 1.390 . S
C109 H118 0.930 . S
C110 C106 1.391 . S
C110 C109 1.390 . S
C110 H119 0.930 . S
C111 Eu81 2.825 . S
C111 O96 1.238 . S
C111 O97 1.247 . S
C111 C105 1.507 . S
H112 C85 0.930 . S
H113 C86 0.931 . S
H114 C87 0.930 1_565 S
H115 C88 0.930 1_565 S
H116 C107 0.930 . S
H117 C108 0.931 . S
H118 C109 0.930 . S
H119 C110 0.930 . S
H120 C126 0.930 . S
H121 C129 0.930 1_565 S
H122 C130 0.930 . S
H123 C131 0.930 . S
H124 C134 0.930 . S
H125 C135 0.930 . S
C126 H120 0.930 . S
C126 C127 1.355 1_455 S
C126 C128 1.415 . S
C127 C126 1.355 1_655 S
C127 C129 1.419 . S
C128 C126 1.415 . S
C128 C133 1.425 1_455 S
C128 C135 1.409 . S
C129 H121 0.930 1_545 S
C129 C127 1.419 . S
C129 C130 1.362 . S
C130 H122 0.930 . S
C130 C129 1.362 . S
C130 C133 1.409 . S
C131 H123 0.930 . S
C131 C132 1.355 1_655 S
C131 C133 1.415 . S
C132 C131 1.355 1_455 S
C132 C134 1.419 . S
C133 C128 1.425 1_655 S
C133 C130 1.409 . S
C133 C131 1.415 . S
C134 H124 0.930 . S
C134 C132 1.419 . S
C134 C135 1.362 . S
C135 H125 0.930 . S
C135 C128 1.409 . S
C135 C134 1.362 . S
H136 C142 0.930 . S
H137 C145 0.930 . S
H138 C146 0.930 . S
H139 C147 0.930 . S
H140 C150 0.930 . S
H141 C151 0.930 . S
C142 H136 0.930 . S
C142 C143 1.355 . S
C142 C144 1.415 . S
C143 C142 1.355 . S
C143 C145 1.419 1_545 S
C144 C142 1.415 . S
C144 C149 1.425 1_545 S
C144 C151 1.409 . S
C145 H137 0.930 . S
C145 C143 1.419 1_565 S
C145 C146 1.362 . S
C146 H138 0.930 . S
C146 C145 1.362 . S
C146 C149 1.409 . S
C147 H139 0.930 . S
C147 C148 1.355 1_565 S
C147 C149 1.415 . S
C148 C147 1.355 1_545 S
C148 C150 1.419 . S
C149 C144 1.425 1_565 S
C149 C146 1.409 . S
C149 C147 1.415 . S
C150 H140 0.930 . S
C150 C148 1.419 . S
C150 C151 1.362 . S
C151 H141 0.930 . S
C151 C144 1.409 . S
C151 C150 1.362 . S
H152 C158 0.930 . S
H153 C161 0.930 . S
H154 C162 0.930 . S
H155 C163 0.930 . S
H156 C166 0.930 . S
H157 C167 0.930 . S
C158 H152 0.930 . S
C158 C159 1.355 . S
C158 C160 1.415 . S
C159 C158 1.355 . S
C159 C161 1.419 . S
C160 C158 1.415 . S
C160 C165 1.425 . S
C160 C167 1.409 . S
C161 H153 0.930 . S
C161 C159 1.419 . S
C161 C162 1.362 . S
C162 H154 0.930 . S
C162 C161 1.362 . S
C162 C165 1.409 . S
C163 H155 0.930 . S
C163 C164 1.355 . S
C163 C165 1.415 . S
C164 C163 1.355 . S
C164 C166 1.419 . S
C165 C160 1.425 . S
C165 C162 1.409 . S
C165 C163 1.415 . S
C166 H156 0.930 . S
C166 C164 1.419 . S
C166 C167 1.362 . S
C167 H157 0.930 . S
C167 C160 1.409 . S
C167 C166 1.362 . S
H168 C174 0.930 . S
H169 C177 0.930 . S
H170 C178 0.930 1_565 S
H171 C179 0.930 . S
H172 C182 0.930 . S
H173 C183 0.930 . S
C174 H168 0.930 . S
C174 C175 1.355 . S
C174 C176 1.415 . S
C175 C174 1.355 . S
C175 C177 1.419 . S
C176 C174 1.415 . S
C176 C181 1.425 . S
C176 C183 1.409 . S
C177 H169 0.930 . S
C177 C175 1.419 . S
C177 C178 1.362 . S
C178 H170 0.930 1_545 S
C178 C177 1.362 . S
C178 C181 1.409 . S
C179 H171 0.930 . S
C179 C180 1.355 . S
C179 C181 1.415 . S
C180 C179 1.355 . S
C180 C182 1.419 1_556 S
C181 C176 1.425 . S
C181 C178 1.409 . S
C181 C179 1.415 . S
C182 H172 0.930 . S
C182 C180 1.419 1_554 S
C182 C183 1.362 1_554 S
C183 H173 0.930 . S
C183 C176 1.409 . S
C183 C182 1.362 1_556 S
H184 C190 0.930 . S
H185 C193 0.930 . S
H186 C194 0.930 . S
H187 C195 0.930 . S
H188 C198 0.930 . S
H189 C199 0.930 . S
C190 H184 0.930 . S
C190 C191 1.355 . S
C190 C192 1.415 . S
C191 C190 1.355 . S
C191 C193 1.419 . S
C192 C190 1.415 . S
C192 C197 1.425 . S
C192 C199 1.409 . S
C193 H185 0.930 . S
C193 C191 1.419 . S
C193 C194 1.362 . S
C194 H186 0.930 . S
C194 C193 1.362 . S
C194 C197 1.409 . S
C195 H187 0.930 . S
C195 C196 1.355 . S
C195 C197 1.415 . S
C196 C195 1.355 . S
C196 C198 1.419 . S
C197 C192 1.425 . S
C197 C194 1.409 . S
C197 C195 1.415 . S
C198 H188 0.930 . S
C198 C196 1.419 . S
C198 C199 1.362 . S
C199 H189 0.930 . S
C199 C192 1.409 . S
C199 C198 1.362 . S
H200 C206 0.930 . S
H201 C209 0.930 1_455 S
H202 C210 0.930 1_455 S
H203 C211 0.930 1_545 S
H204 C214 0.930 . S
H205 C215 0.930 . S
C206 H200 0.930 . S
C206 C207 1.355 . S
C206 C208 1.415 . S
C207 C206 1.355 . S
C207 C209 1.419 1_565 S
C208 C206 1.415 . S
C208 C213 1.425 . S
C208 C215 1.409 . S
C209 H201 0.930 1_655 S
C209 C207 1.419 1_545 S
C209 C210 1.362 . S
C210 H202 0.930 1_655 S
C210 C209 1.362 . S
C210 C213 1.409 1_545 S
C211 H203 0.930 1_565 S
C211 C212 1.355 . S
C211 C213 1.415 . S
C212 C211 1.355 . S
C212 C214 1.419 . S
C213 C208 1.425 . S
C213 C210 1.409 1_565 S
C213 C211 1.415 . S
C214 H204 0.930 . S
C214 C212 1.419 . S
C214 C215 1.362 . S
C215 H205 0.930 . S
C215 C208 1.409 . S
C215 C214 1.362 . S
H216 C222 0.930 . S
H217 C225 0.930 . S
H218 C226 0.930 . S
H219 C227 0.930 . S
H220 C230 0.930 . S
H221 C231 0.930 . S
C222 H216 0.930 . S
C222 C223 1.355 1_455 S
C222 C224 1.415 . S
C223 C222 1.355 1_655 S
C223 C225 1.419 . S
C224 C222 1.415 . S
C224 C229 1.425 1_455 S
C224 C231 1.409 1_556 S
C225 H217 0.930 . S
C225 C223 1.419 . S
C225 C226 1.362 . S
C226 H218 0.930 . S
C226 C225 1.362 . S
C226 C229 1.409 . S
C227 H219 0.930 . S
C227 C228 1.355 . S
C227 C229 1.415 1_554 S
C228 C227 1.355 . S
C228 C230 1.419 1_655 S
C229 C224 1.425 1_655 S
C229 C226 1.409 . S
C229 C227 1.415 1_556 S
C230 H220 0.930 . S
C230 C228 1.419 1_455 S
C230 C231 1.362 . S
C231 H221 0.930 . S
C231 C224 1.409 1_554 S
C231 C230 1.362 . S
H232 C238 0.930 . S
H233 C241 0.930 . S
H234 C242 0.930 . S
H235 C243 0.930 . S
H236 C246 0.930 . S
H237 C247 0.930 . S
C238 H232 0.930 . S
C238 C239 1.355 . S
C238 C240 1.415 . S
C239 C238 1.355 . S
C239 C241 1.419 . S
C240 C238 1.415 . S
C240 C245 1.425 . S
C240 C247 1.409 . S
C241 H233 0.930 . S
C241 C239 1.419 . S
C241 C242 1.362 . S
C242 H234 0.930 . S
C242 C241 1.362 . S
C242 C245 1.409 . S
C243 H235 0.930 . S
C243 C244 1.355 . S
C243 C245 1.415 . S
C244 C243 1.355 . S
C244 C246 1.419 . S
C245 C240 1.425 . S
C245 C242 1.409 . S
C245 C243 1.415 . S
C246 H236 0.930 . S
C246 C244 1.419 . S
C246 C247 1.362 . S
C247 H237 0.930 . S
C247 C240 1.409 . S
C247 C246 1.362 . S
H248 C254 0.930 . S
H249 C257 0.930 . S
H250 C258 0.930 . S
H251 C259 0.930 . S
H252 C262 0.930 . S
H253 C263 0.930 . S
C254 H248 0.930 . S
C254 C255 1.355 . S
C254 C256 1.415 . S
C255 C254 1.355 . S
C255 C257 1.419 . S
C256 C254 1.415 . S
C256 C261 1.425 . S
C256 C263 1.409 . S
C257 H249 0.930 . S
C257 C255 1.419 . S
C257 C258 1.362 . S
C258 H250 0.930 . S
C258 C257 1.362 . S
C258 C261 1.409 . S
C259 H251 0.930 . S
C259 C260 1.355 . S
C259 C261 1.415 . S
C260 C259 1.355 . S
C260 C262 1.419 . S
C261 C256 1.425 . S
C261 C258 1.409 . S
C261 C259 1.415 . S
C262 H252 0.930 . S
C262 C260 1.419 . S
C262 C263 1.362 . S
C263 H253 0.930 . S
C263 C256 1.409 . S
C263 C262 1.362 . S
C127 C2 1.661 1_545 S
C132 C15 1.661 . S
C143 C55 1.771 1_545 S
C148 C42 1.771 . S
C159 C82 1.465 . S
C164 C95 1.465 . S
C175 C89 1.000 . S
C180 C26 1.022 1_556 S
C191 C43 2.019 . S
C196 C9 1.966 . S
C207 C83 2.544 1_565 S
C212 C62 2.497 . S
C223 C102 2.458 1_655 S
C228 C3 2.399 . S
C239 C22 2.015 . S
C244 C66 1.865 . S
C255 C106 1.010 . S
C260 C49 1.078 . S
