# Generated by pormake.
# Topology qtz-x, (6)-cn, num edge types: 1
# Building blocks:
#     Node 0, Type 0, BuildingBlock: JUFBIX_clean_sbu_0, # of connection points: 6
#     Node 1, Type 0, BuildingBlock: JUFBIX_clean_sbu_0, # of connection points: 6
#     Node 2, Type 0, BuildingBlock: JUFBIX_clean_sbu_0, # of connection points: 6
#     Edge 3, Type (0, 0), BuildingBlock: KIFKEQ_clean_linker_1, # of connection points: 2
#     Edge 4, Type (0, 0), BuildingBlock: KIFKEQ_clean_linker_1, # of connection points: 2
#     Edge 5, Type (0, 0), BuildingBlock: KIFKEQ_clean_linker_1, # of connection points: 2
#     Edge 6, Type (0, 0), BuildingBlock: KIFKEQ_clean_linker_1, # of connection points: 2
#     Edge 7, Type (0, 0), BuildingBlock: KIFKEQ_clean_linker_1, # of connection points: 2
#     Edge 8, Type (0, 0), BuildingBlock: KIFKEQ_clean_linker_1, # of connection points: 2
#     Edge 9, Type (0, 0), BuildingBlock: KIFKEQ_clean_linker_1, # of connection points: 2
#     Edge 10, Type (0, 0), BuildingBlock: KIFKEQ_clean_linker_1, # of connection points: 2
#     Edge 11, Type (0, 0), BuildingBlock: KIFKEQ_clean_linker_1, # of connection points: 2
# Relax obj value: 0.467
# Max RMSD: 0.292
# Mean RMSD: 0.292
data_MOF--net-qtz-x--node1-JUFBIX_clean_sbu_0--edge1-KIFKEQ_clean_linker_1
_symmetry_space_group_name_H-M    P1
_symmetry_Int_Tables_number       1
_symmetry_cell_setting            triclinic
loop_
_symmetry_equiv_pos_as_xyz
'x, y, z'
_cell_length_a     15.223161
_cell_length_b     15.233303
_cell_length_c     43.864897
_cell_angle_alpha  89.905426
_cell_angle_beta   90.151379
_cell_angle_gamma 120.02453
loop_
_atom_site_label
_atom_site_type_symbol
_atom_site_fract_x
_atom_site_fract_y
_atom_site_fract_z
_atom_type_partial_charge
Co0 Co 0.12642 0.50059 0.15069 0.0
C1 C 0.04377 0.62615 0.16002 0.0
Co2 Co 0.96949 0.42112 0.16823 0.0
C3 C 0.28154 0.54377 0.10699 0.0
C4 C 0.33077 0.66316 0.13978 0.0
N5 N 0.25419 0.56915 0.13328 0.0
N6 N 0.37047 0.619 0.09627 0.0
C7 C 0.40217 0.69435 0.11689 0.0
H8 H 0.2328 0.4748 0.09453 0.0
H9 H 0.33113 0.70877 0.15871 0.0
C10 C 0.05185 0.29544 0.15903 0.0
N11 N 0.84067 0.35202 0.18508 0.0
C12 C 0.81291 0.36384 0.21328 0.0
C13 C 0.75941 0.26795 0.17401 0.0
N14 N 0.71894 0.28908 0.22062 0.0
C15 C 0.68462 0.22891 0.19584 0.0
C16 C 0.97361 0.42319 0.1059 0.0
O17 O 0.12935 0.37675 0.15006 0.0
O18 O 0.97411 0.29858 0.168 0.0
O19 O 0.91302 0.3925 0.12835 0.0
O20 O 0.06837 0.4723 0.11098 0.0
O21 O 0.96564 0.54444 0.16843 0.0
H22 H 0.75714 0.23323 0.15231 0.0
H23 H 0.86366 0.42131 0.22917 0.0
O24 O 0.12207 0.62337 0.15148 0.0
O25 O 0.18363 0.52867 0.19059 0.0
O26 O 0.02784 0.45018 0.20792 0.0
C27 C 0.12271 0.49786 0.21303 0.0
H28 H 0.46943 0.76831 0.11481 0.0
H29 H 0.61303 0.15858 0.19426 0.0
Co30 Co 0.46922 0.9524 0.48468 0.0
C31 C 0.67792 0.03404 0.49335 0.0
Co32 Co 0.5494 0.11056 0.50125 0.0
C33 C 0.35965 0.80116 0.43981 0.0
C34 C 0.41698 0.74338 0.47418 0.0
N35 N 0.40751 0.82442 0.46701 0.0
N36 N 0.34225 0.71106 0.42904 0.0
C37 C 0.37663 0.67329 0.45083 0.0
H38 H 0.34313 0.85227 0.42717 0.0
H39 H 0.45729 0.73887 0.49392 0.0
C40 C 0.34072 0.02906 0.49255 0.0
N41 N 0.61024 0.23952 0.51801 0.0
C42 C 0.64948 0.26725 0.5463 0.0
C43 C 0.60763 0.32073 0.50684 0.0
N44 N 0.66828 0.36101 0.55366 0.0
C45 C 0.64291 0.39537 0.52874 0.0
C46 C 0.54498 0.1048 0.4394 0.0
O47 O 0.3428 0.94923 0.48543 0.0
O48 O 0.42309 0.10857 0.49975 0.0
O49 O 0.58093 0.16686 0.4614 0.0
O50 O 0.49503 1.01059 0.44502 0.0
O51 O 0.67462 0.1114 0.50265 0.0
H52 H 0.57518 0.32286 0.48508 0.0
H53 H 0.65593 0.21648 0.56224 0.0
O54 O 0.59676 0.95689 0.48405 0.0
O55 O 0.44403 0.89582 0.52465 0.0
O56 O 0.51738 0.05277 0.54095 0.0
C57 C 0.47305 0.95842 0.5467 0.0
H58 H 0.37978 0.60407 0.44894 0.0
H59 H 0.64367 0.46666 0.52714 0.0
Co60 Co 0.56185 0.59943 0.81745 0.0
C61 C 0.43547 0.39069 0.82591 0.0
Co62 Co 0.64046 0.52008 0.83419 0.0
C63 C 0.52127 0.71398 0.77364 0.0
C64 C 0.40045 0.6426 0.80591 0.0
N65 N 0.49449 0.65973 0.79972 0.0
N66 N 0.44688 0.729 0.76277 0.0
C67 C 0.37069 0.68462 0.78309 0.0
H68 H 0.59081 0.7348 0.76149 0.0
H69 H 0.35394 0.59662 0.82462 0.0
C70 C 0.76694 0.72873 0.82568 0.0
N71 N 0.70796 0.45969 0.8517 0.0
C72 C 0.68714 0.41347 0.87911 0.0
C73 C 0.79782 0.46986 0.84356 0.0
N74 N 0.76225 0.39805 0.88924 0.0
C75 C 0.83143 0.4322 0.86657 0.0
C76 C 0.64027 0.52481 0.77247 0.0
O77 O 0.6848 0.72634 0.81844 0.0
O78 O 0.76442 0.64659 0.83291 0.0
O79 O 0.6664 0.48886 0.79456 0.0
O80 O 0.59524 0.57425 0.77789 0.0
O81 O 0.5163 0.39444 0.83537 0.0
H82 H 0.83996 0.50946 0.82342 0.0
H83 H 0.62071 0.39755 0.89219 0.0
O84 O 0.43924 0.47156 0.81656 0.0
O85 O 0.52955 0.62443 0.85731 0.0
O86 O 0.61414 0.5522 0.87365 0.0
C87 C 0.56387 0.59613 0.87937 0.0
H88 H 0.29714 0.67885 0.78089 0.0
H89 H 0.90521 0.43805 0.86753 0.0
H90 H 0.8812 0.6564 0.16301 0.0
H91 H 0.20814 0.8169 0.15715 0.0
H92 H 0.88288 0.81717 0.16185 0.0
H93 H 0.21068 0.97778 0.15754 0.0
H94 H 0.18091 0.24857 0.12926 0.0
H95 H 0.17722 0.08677 0.1288 0.0
H96 H 0.92044 0.96153 0.19002 0.0
H97 H 0.92142 0.12162 0.18916 0.0
C98 C 0.95352 0.72615 0.16179 0.0
C99 C 0.04444 0.72381 0.1601 0.0
C100 C 0.9547 0.81866 0.16132 0.0
C101 C 0.047 0.91131 0.15962 0.0
C102 C 0.13794 0.90848 0.15823 0.0
C103 C 0.1366 0.816 0.15824 0.0
C104 C 0.1237 0.18632 0.14259 0.0
C105 C 0.05141 0.19792 0.1592 0.0
C106 C 0.12184 0.09348 0.1425 0.0
C107 C 0.04853 1.01027 0.15941 0.0
C108 C 0.97682 0.02268 0.17622 0.0
C109 C 0.9778 0.11497 0.17593 0.0
H110 H 0.31396 0.19344 0.49413 0.0
H111 H 0.14815 0.8662 0.49096 0.0
H112 H 0.15489 0.19504 0.49364 0.0
H113 H 0.98873 0.86718 0.49194 0.0
H114 H 0.72069 0.90214 0.46383 0.0
H115 H 0.88053 0.90218 0.46298 0.0
H116 H 1.01339 0.16218 0.52302 0.0
H117 H 0.85466 0.16467 0.52263 0.0
C118 C 0.24338 0.12172 0.4936 0.0
C119 C 0.24371 0.0297 0.49254 0.0
C120 C 0.1519 0.12252 0.49354 0.0
C121 C 0.05826 0.03123 0.49283 0.0
C122 C 0.05896 0.93914 0.49194 0.0
C123 C 0.15051 0.93844 0.49158 0.0
C124 C 0.78414 0.95939 0.47682 0.0
C125 C 0.77501 0.03353 0.49324 0.0
C126 C 0.87585 0.95905 0.47652 0.0
C127 C 0.9605 0.03205 0.49299 0.0
C128 C 0.95081 0.10583 0.50959 0.0
C129 C 0.85945 0.10695 0.50955 0.0
H130 H 0.95809 0.75542 0.82746 0.0
H131 H 0.79671 0.92124 0.82382 0.0
H132 H 0.1189 0.91422 0.82681 0.0
H133 H 0.95738 0.08053 0.82464 0.0
H134 H 0.26042 0.34741 0.79622 0.0
H135 H 0.10033 0.18783 0.79557 0.0
H136 H 0.22821 0.05615 0.85601 0.0
H137 H 0.38971 0.21458 0.85541 0.0
C138 C 0.95699 0.82596 0.82681 0.0
C139 C 0.8646 0.8257 0.82565 0.0
C140 C 0.04938 0.9173 0.82665 0.0
C141 C 0.05183 1.0109 0.82576 0.0
C142 C 0.95901 1.0103 0.82479 0.0
C143 C 0.86662 0.91885 0.82452 0.0
C144 C 0.25434 0.28424 0.80932 0.0
C145 C 0.33789 0.2936 0.8258 0.0
C146 C 0.16212 0.19271 0.80914 0.0
C147 C 0.15057 0.10848 0.8258 0.0
C148 C 0.23434 0.11839 0.84244 0.0
C149 C 0.32699 0.20957 0.84227 0.0
H150 H 0.45927 0.6864 0.90169 0.0
H151 H 0.62464 0.53782 0.92998 0.0
H152 H 0.42073 0.69921 0.95523 0.0
H153 H 0.58546 0.54975 0.98292 0.0
H154 H 0.36941 0.46526 0.06581 0.0
H155 H 0.42201 0.46699 0.01312 0.0
H156 H 0.5119 0.78372 0.00577 0.0
H157 H 0.45895 0.78166 0.05862 0.0
C158 C 0.48779 0.65704 0.91925 0.0
C159 C 0.54412 0.61014 0.91153 0.0
C160 C 0.46612 0.66474 0.94985 0.0
C161 C 0.49956 0.62477 0.97315 0.0
C162 C 0.55761 0.58001 0.96542 0.0
C163 C 0.58005 0.5733 0.93503 0.0
C164 C 0.4012 0.53531 0.05298 0.0
C165 C 0.41061 0.62332 0.06629 0.0
C166 C 0.43156 0.5365 0.02291 0.0
C167 C 0.47079 0.6255 0.00537 0.0
C168 C 0.48128 0.71399 0.01874 0.0
C169 C 0.45219 0.71311 0.04904 0.0
H170 H 0.42487 1.00648 0.391 0.0
H171 H 0.69807 0.28204 0.41593 0.0
H172 H 0.45315 0.05634 0.33773 0.0
H173 H 0.72984 0.3304 0.36224 0.0
H174 H 0.73621 0.42224 0.26417 0.0
H175 H 0.6833 0.38364 0.3174 0.0
H176 H 0.56073 0.06445 0.29879 0.0
H177 H 0.61036 0.10331 0.24586 0.0
C178 C 0.4914 0.0777 0.385 0.0
C179 C 0.56002 0.13986 0.4075 0.0
C180 C 0.50792 0.10621 0.35441 0.0
C181 C 0.59461 0.19679 0.34548 0.0
C182 C 0.66164 0.26067 0.36822 0.0
C183 C 0.64399 0.2328 0.39898 0.0
C184 C 0.69654 0.34389 0.27154 0.0
C185 C 0.67706 0.26581 0.25088 0.0
C186 C 0.66685 0.32169 0.30203 0.0
C187 C 0.61808 0.2209 0.31256 0.0
C188 C 0.59618 0.14281 0.29154 0.0
C189 C 0.62469 0.16497 0.26107 0.0
H190 H 0.60375 0.8803 0.73261 0.0
H191 H 0.28434 0.66219 0.72513 0.0
H192 H 0.60373 0.93524 0.68025 0.0
H193 H 0.28396 0.71751 0.6727 0.0
H194 H 0.37553 0.76316 0.56877 0.0
H195 H 0.36301 0.70948 0.62205 0.0
H196 H 0.52862 0.0228 0.65033 0.0
H197 H 0.54095 0.0765 0.59757 0.0
C198 C 0.53343 0.84479 0.71981 0.0
C199 C 0.4441 0.76733 0.73296 0.0
C200 C 0.53322 0.87642 0.68992 0.0
C201 C 0.44383 0.83044 0.67239 0.0
C202 C 0.35405 0.75374 0.68563 0.0
C203 C 0.35402 0.72298 0.71572 0.0
C204 C 0.4086 0.82045 0.58639 0.0
C205 C 0.45977 0.92405 0.57884 0.0
C206 C 0.40103 0.78975 0.61688 0.0
C207 C 0.44538 0.86206 0.64029 0.0
C208 C 0.4948 0.96541 0.63274 0.0
C209 C 0.50151 0.99603 0.60245 0.0
H210 H 0.89333 0.33743 0.90893 0.0
H211 H 0.66589 0.40654 0.94062 0.0
H212 H 0.93763 0.32608 0.96168 0.0
H213 H 0.7104 0.39578 -0.0073 0.0
H214 H 0.77608 0.32021 0.08626 0.0
H215 H 0.71486 0.2914 0.03365 0.0
H216 H 1.02439 0.4519 0.00141 0.0
H217 H 0.08539 0.47876 0.05369 0.0
C218 C 0.85228 0.34963 0.92696 0.0
C219 C 0.77732 0.37503 0.92017 0.0
C220 C 0.87771 0.3431 0.95722 0.0
C221 C 0.82849 0.36138 0.98141 0.0
C222 C 0.74938 0.38044 0.97468 0.0
C223 C 0.72399 0.38694 0.94452 0.0
C224 C 0.83094 0.34872 0.06791 0.0
C225 C 0.93553 0.4025 0.07417 0.0
C226 C 0.7959 0.33235 0.03779 0.0
C227 C 0.86473 0.36933 0.01332 0.0
C228 C 0.96928 0.42096 0.01966 0.0
C229 C 1.00425 0.4373 0.0497 0.0
H230 H 0.31644 0.62623 0.233 0.0
H231 H 1.01326 0.41929 0.26511 0.0
H232 H 0.37394 0.67133 0.28572 0.0
H233 H 0.07075 0.46476 0.31762 0.0
H234 H 0.23358 0.51574 0.41023 0.0
H235 H 0.1852 0.45587 0.35756 0.0
H236 H 0.34007 0.766 0.3259 0.0
H237 H 0.38897 0.82491 0.37798 0.0
C238 C 0.26237 0.58967 0.25127 0.0
C239 C 0.16022 0.51974 0.24485 0.0
C240 C 0.29515 0.6158 0.28144 0.0
C241 C 0.22669 0.57185 0.30579 0.0
C242 C 0.12544 0.49924 0.29938 0.0
C243 C 0.09246 0.4738 0.26925 0.0
C244 C 0.25732 0.57061 0.39191 0.0
C245 C 0.31366 0.67486 0.39825 0.0
C246 C 0.22947 0.53661 0.36186 0.0
C247 C 0.25904 0.60632 0.3376 0.0
C248 C 0.31695 0.71037 0.34401 0.0
C249 C 0.34366 0.74419 0.37394 0.0
H250 H 0.66932 0.37475 0.7491 0.0
H251 H 0.66066 0.64458 0.72412 0.0
H252 H 0.69011 0.34556 0.69554 0.0
H253 H 0.68715 0.61932 0.67105 0.0
H254 H 0.58691 0.46634 0.5783 0.0
H255 H 0.5928 0.51319 0.6313 0.0
H256 H 0.79215 0.39462 0.65142 0.0
H257 H 0.7825 0.34418 0.59807 0.0
C258 C 0.67368 0.42868 0.73218 0.0
C259 C 0.66188 0.51097 0.74064 0.0
C260 C 0.68638 0.41256 0.70149 0.0
C261 C 0.68935 0.47954 0.67878 0.0
C262 C 0.68246 0.56455 0.68768 0.0
C263 C 0.66778 0.57941 0.71817 0.0
C264 C 0.63384 0.45236 0.59386 0.0
C265 C 0.68447 0.40182 0.58403 0.0
C266 C 0.63738 0.47928 0.62439 0.0
C267 C 0.6929 0.45769 0.64585 0.0
C268 C 0.74709 0.41079 0.63571 0.0
C269 C 0.74234 0.38259 0.60515 0.0
loop_
_geom_bond_atom_site_label_1
_geom_bond_atom_site_label_2
_geom_bond_distance
_geom_bond_site_symmetry_2
_ccdc_geom_bond_type
Co0 N5 2.057 . S
Co0 O17 2.021 . S
Co0 O20 2.062 1_455 S
Co0 O24 2.117 . S
Co0 O25 2.020 . S
C1 O21 1.259 . S
C1 O24 1.258 1_655 S
Co2 N11 2.057 . S
Co2 O18 2.117 . S
Co2 O19 2.020 . S
Co2 O21 2.021 . S
Co2 O26 2.062 1_655 S
C3 N5 1.316 . S
C3 N6 1.347 . S
C3 H8 0.931 . S
C4 N5 1.375 . S
C4 C7 1.350 . S
C4 H9 0.930 . S
N5 Co0 2.057 . S
N5 C3 1.316 . S
N5 C4 1.375 . S
N6 C3 1.347 . S
N6 C7 1.373 . S
C7 C4 1.350 . S
C7 N6 1.373 . S
C7 H28 0.931 . S
H8 C3 0.931 . S
H9 C4 0.930 . S
C10 O17 1.259 . S
C10 O18 1.258 1_455 S
N11 Co2 2.057 . S
N11 C12 1.316 . S
N11 C13 1.375 . S
C12 N11 1.316 . S
C12 N14 1.347 . S
C12 H23 0.931 . S
C13 N11 1.375 . S
C13 C15 1.350 . S
C13 H22 0.930 . S
N14 C12 1.347 . S
N14 C15 1.373 . S
C15 C13 1.350 . S
C15 N14 1.373 . S
C15 H29 0.931 . S
C16 O19 1.256 . S
C16 O20 1.255 . S
O17 Co0 2.021 . S
O17 C10 1.259 . S
O18 Co2 2.117 . S
O18 C10 1.258 1_655 S
O19 Co2 2.020 . S
O19 C16 1.256 . S
O20 Co0 2.062 1_655 S
O20 C16 1.255 . S
O21 C1 1.259 . S
O21 Co2 2.021 . S
H22 C13 0.930 . S
H23 C12 0.931 . S
O24 Co0 2.117 . S
O24 C1 1.258 1_455 S
O25 Co0 2.020 . S
O25 C27 1.256 . S
O26 Co2 2.062 1_455 S
O26 C27 1.255 . S
C27 O25 1.256 . S
C27 O26 1.255 . S
H28 C7 0.931 . S
H29 C15 0.931 . S
Co30 N35 2.057 . S
Co30 O47 2.021 . S
Co30 O50 2.062 1_565 S
Co30 O54 2.117 . S
Co30 O55 2.020 . S
C31 O51 1.259 . S
C31 O54 1.258 1_545 S
Co32 N41 2.057 . S
Co32 O48 2.117 . S
Co32 O49 2.020 . S
Co32 O51 2.021 . S
Co32 O56 2.062 1_545 S
C33 N35 1.316 . S
C33 N36 1.347 . S
C33 H38 0.931 . S
C34 N35 1.375 . S
C34 C37 1.350 . S
C34 H39 0.930 . S
N35 Co30 2.057 . S
N35 C33 1.316 . S
N35 C34 1.375 . S
N36 C33 1.347 . S
N36 C37 1.373 . S
C37 C34 1.350 . S
C37 N36 1.373 . S
C37 H58 0.931 . S
H38 C33 0.931 . S
H39 C34 0.930 . S
C40 O47 1.259 1_545 S
C40 O48 1.258 . S
N41 Co32 2.057 . S
N41 C42 1.316 . S
N41 C43 1.375 . S
C42 N41 1.316 . S
C42 N44 1.347 . S
C42 H53 0.931 . S
C43 N41 1.375 . S
C43 C45 1.350 . S
C43 H52 0.930 . S
N44 C42 1.347 . S
N44 C45 1.373 . S
C45 C43 1.350 . S
C45 N44 1.373 . S
C45 H59 0.931 . S
C46 O49 1.256 . S
C46 O50 1.255 . S
O47 Co30 2.021 . S
O47 C40 1.259 1_565 S
O48 Co32 2.117 . S
O48 C40 1.258 . S
O49 Co32 2.020 . S
O49 C46 1.256 . S
O50 Co30 2.062 1_545 S
O50 C46 1.255 . S
O51 C31 1.259 . S
O51 Co32 2.021 . S
H52 C43 0.930 . S
H53 C42 0.931 . S
O54 Co30 2.117 . S
O54 C31 1.258 1_565 S
O55 Co30 2.020 . S
O55 C57 1.256 . S
O56 Co32 2.062 1_565 S
O56 C57 1.255 . S
C57 O55 1.256 . S
C57 O56 1.255 . S
H58 C37 0.931 . S
H59 C45 0.931 . S
Co60 N65 2.057 . S
Co60 O77 2.021 . S
Co60 O80 2.062 . S
Co60 O84 2.117 . S
Co60 O85 2.020 . S
C61 O81 1.259 . S
C61 O84 1.258 . S
Co62 N71 2.057 . S
Co62 O78 2.117 . S
Co62 O79 2.020 . S
Co62 O81 2.021 . S
Co62 O86 2.062 . S
C63 N65 1.316 . S
C63 N66 1.347 . S
C63 H68 0.931 . S
C64 N65 1.375 . S
C64 C67 1.350 . S
C64 H69 0.930 . S
N65 Co60 2.057 . S
N65 C63 1.316 . S
N65 C64 1.375 . S
N66 C63 1.347 . S
N66 C67 1.373 . S
C67 C64 1.350 . S
C67 N66 1.373 . S
C67 H88 0.931 . S
H68 C63 0.931 . S
H69 C64 0.930 . S
C70 O77 1.259 . S
C70 O78 1.258 . S
N71 Co62 2.057 . S
N71 C72 1.316 . S
N71 C73 1.375 . S
C72 N71 1.316 . S
C72 N74 1.347 . S
C72 H83 0.931 . S
C73 N71 1.375 . S
C73 C75 1.350 . S
C73 H82 0.930 . S
N74 C72 1.347 . S
N74 C75 1.373 . S
C75 C73 1.350 . S
C75 N74 1.373 . S
C75 H89 0.931 . S
C76 O79 1.256 . S
C76 O80 1.255 . S
O77 Co60 2.021 . S
O77 C70 1.259 . S
O78 Co62 2.117 . S
O78 C70 1.258 . S
O79 Co62 2.020 . S
O79 C76 1.256 . S
O80 Co60 2.062 . S
O80 C76 1.255 . S
O81 C61 1.259 . S
O81 Co62 2.021 . S
H82 C73 0.930 . S
H83 C72 0.931 . S
O84 Co60 2.117 . S
O84 C61 1.258 . S
O85 Co60 2.020 . S
O85 C87 1.256 . S
O86 Co62 2.062 . S
O86 C87 1.255 . S
C87 O85 1.256 . S
C87 O86 1.255 . S
H88 C67 0.931 . S
H89 C75 0.931 . S
H90 C98 0.950 . S
H91 C103 0.950 . S
H92 C100 0.950 . S
H93 C102 0.950 . S
H94 C104 0.950 . S
H95 C106 0.950 . S
H96 C108 0.950 1_565 S
H97 C109 0.950 . S
C98 H90 0.950 . S
C98 C99 1.386 1_655 S
C98 C100 1.391 . S
C99 C98 1.386 1_455 S
C99 C103 1.393 . S
C100 H92 0.950 . S
C100 C98 1.391 . S
C100 C101 1.400 1_655 S
C101 C100 1.400 1_455 S
C101 C102 1.398 . S
C101 C107 1.484 1_465 S
C102 H93 0.950 . S
C102 C101 1.398 . S
C102 C103 1.391 . S
C103 H91 0.950 . S
C103 C99 1.393 . S
C103 C102 1.391 . S
C104 H94 0.950 . S
C104 C105 1.386 1_455 S
C104 C106 1.391 . S
C105 C104 1.386 1_655 S
C105 C109 1.393 . S
C106 H95 0.950 . S
C106 C104 1.391 . S
C106 C107 1.395 1_455 S
C107 C101 1.484 1_645 S
C107 C106 1.395 1_655 S
C107 C108 1.411 . S
C108 H96 0.950 1_545 S
C108 C107 1.411 . S
C108 C109 1.391 . S
C109 H97 0.950 . S
C109 C105 1.393 . S
C109 C108 1.391 . S
H110 C118 0.950 . S
H111 C123 0.950 . S
H112 C120 0.950 . S
H113 C122 0.950 . S
H114 C124 0.950 . S
H115 C126 0.950 . S
H116 C128 0.950 1_455 S
H117 C129 0.950 . S
C118 H110 0.950 . S
C118 C119 1.386 . S
C118 C120 1.391 . S
C119 C118 1.386 . S
C119 C123 1.393 1_545 S
C120 H112 0.950 . S
C120 C118 1.391 . S
C120 C121 1.400 . S
C121 C120 1.400 . S
C121 C122 1.398 1_545 S
C121 C127 1.491 1_455 S
C122 H113 0.950 . S
C122 C121 1.398 1_565 S
C122 C123 1.391 . S
C123 H111 0.950 . S
C123 C119 1.393 1_565 S
C123 C122 1.391 . S
C124 H114 0.950 . S
C124 C125 1.386 1_565 S
C124 C126 1.391 . S
C125 C124 1.386 1_545 S
C125 C129 1.393 . S
C126 H115 0.950 . S
C126 C124 1.391 . S
C126 C127 1.400 1_565 S
C127 C121 1.491 1_655 S
C127 C126 1.400 1_545 S
C127 C128 1.398 . S
C128 H116 0.950 1_655 S
C128 C127 1.398 . S
C128 C129 1.391 . S
C129 H117 0.950 . S
C129 C125 1.393 . S
C129 C128 1.391 . S
H130 C138 0.950 . S
H131 C143 0.950 . S
H132 C140 0.950 1_455 S
H133 C142 0.950 . S
H134 C144 0.950 . S
H135 C146 0.950 . S
H136 C148 0.950 1_565 S
H137 C149 0.950 . S
C138 H130 0.950 . S
C138 C139 1.386 . S
C138 C140 1.391 . S
C139 C138 1.386 . S
C139 C143 1.393 . S
C140 H132 0.950 1_655 S
C140 C138 1.391 . S
C140 C141 1.400 . S
C141 C140 1.400 . S
C141 C142 1.398 . S
C141 C147 1.491 1_665 S
C142 H133 0.950 . S
C142 C141 1.398 . S
C142 C143 1.391 . S
C143 H131 0.950 . S
C143 C139 1.393 . S
C143 C142 1.391 . S
C144 H134 0.950 . S
C144 C145 1.386 . S
C144 C146 1.391 . S
C145 C144 1.386 . S
C145 C149 1.393 . S
C146 H135 0.950 . S
C146 C144 1.391 . S
C146 C147 1.400 . S
C147 C141 1.491 1_445 S
C147 C146 1.400 . S
C147 C148 1.398 . S
C148 H136 0.950 1_545 S
C148 C147 1.398 . S
C148 C149 1.391 . S
C149 H137 0.950 . S
C149 C145 1.393 . S
C149 C148 1.391 . S
H150 C158 0.950 . S
H151 C163 0.950 . S
H152 C160 0.950 . S
H153 C162 0.950 . S
H154 C164 0.950 . S
H155 C166 0.950 . S
H156 C168 0.950 . S
H157 C169 0.950 . S
C158 H150 0.950 . S
C158 C159 1.386 . S
C158 C160 1.391 . S
C159 C158 1.386 . S
C159 C163 1.393 . S
C160 H152 0.950 . S
C160 C158 1.391 . S
C160 C161 1.400 . S
C161 C160 1.400 . S
C161 C162 1.398 . S
C161 C167 1.491 . S
C162 H153 0.950 . S
C162 C161 1.398 . S
C162 C163 1.391 . S
C163 H151 0.950 . S
C163 C159 1.393 . S
C163 C162 1.391 . S
C164 H154 0.950 . S
C164 C165 1.386 . S
C164 C166 1.391 . S
C165 C164 1.386 . S
C165 C169 1.393 . S
C166 H155 0.950 . S
C166 C164 1.391 . S
C166 C167 1.400 1_554 S
C167 C161 1.491 . S
C167 C166 1.400 1_556 S
C167 C168 1.398 . S
C168 H156 0.950 . S
C168 C167 1.398 . S
C168 C169 1.391 1_556 S
C169 H157 0.950 . S
C169 C165 1.393 . S
C169 C168 1.391 1_554 S
H170 C178 0.950 . S
H171 C183 0.950 . S
H172 C180 0.950 . S
H173 C182 0.950 . S
H174 C184 0.950 . S
H175 C186 0.950 . S
H176 C188 0.950 . S
H177 C189 0.950 . S
C178 H170 0.950 . S
C178 C179 1.386 . S
C178 C180 1.391 . S
C179 C178 1.386 . S
C179 C183 1.393 . S
C180 H172 0.950 . S
C180 C178 1.391 . S
C180 C181 1.400 . S
C181 C180 1.400 . S
C181 C182 1.398 . S
C181 C187 1.491 . S
C182 H173 0.950 . S
C182 C181 1.398 . S
C182 C183 1.391 . S
C183 H171 0.950 . S
C183 C179 1.393 . S
C183 C182 1.391 . S
C184 H174 0.950 . S
C184 C185 1.386 . S
C184 C186 1.391 . S
C185 C184 1.386 . S
C185 C189 1.393 . S
C186 H175 0.950 . S
C186 C184 1.391 . S
C186 C187 1.400 . S
C187 C181 1.491 . S
C187 C186 1.400 . S
C187 C188 1.398 . S
C188 H176 0.950 . S
C188 C187 1.398 . S
C188 C189 1.391 . S
C189 H177 0.950 . S
C189 C185 1.393 . S
C189 C188 1.391 . S
H190 C198 0.950 . S
H191 C203 0.950 . S
H192 C200 0.950 . S
H193 C202 0.950 . S
H194 C204 0.950 . S
H195 C206 0.950 . S
H196 C208 0.950 . S
H197 C209 0.950 . S
C198 H190 0.950 . S
C198 C199 1.386 . S
C198 C200 1.391 . S
C199 C198 1.386 . S
C199 C203 1.393 . S
C200 H192 0.950 . S
C200 C198 1.391 . S
C200 C201 1.400 . S
C201 C200 1.400 . S
C201 C202 1.398 . S
C201 C207 1.491 . S
C202 H193 0.950 . S
C202 C201 1.398 . S
C202 C203 1.391 . S
C203 H191 0.950 . S
C203 C199 1.393 . S
C203 C202 1.391 . S
C204 H194 0.950 . S
C204 C205 1.386 . S
C204 C206 1.391 . S
C205 C204 1.386 . S
C205 C209 1.393 . S
C206 H195 0.950 . S
C206 C204 1.391 . S
C206 C207 1.400 . S
C207 C201 1.491 . S
C207 C206 1.400 . S
C207 C208 1.398 . S
C208 H196 0.950 . S
C208 C207 1.398 . S
C208 C209 1.391 . S
C209 H197 0.950 . S
C209 C205 1.393 . S
C209 C208 1.391 . S
H210 C218 0.950 . S
H211 C223 0.950 . S
H212 C220 0.950 . S
H213 C222 0.950 . S
H214 C224 0.950 . S
H215 C226 0.950 . S
H216 C228 0.950 . S
H217 C229 0.950 . S
C218 H210 0.950 . S
C218 C219 1.386 . S
C218 C220 1.391 . S
C219 C218 1.386 . S
C219 C223 1.393 . S
C220 H212 0.950 . S
C220 C218 1.391 . S
C220 C221 1.400 1_556 S
C221 C220 1.400 1_554 S
C221 C222 1.398 . S
C221 C227 1.491 . S
C222 H213 0.950 . S
C222 C221 1.398 . S
C222 C223 1.391 1_554 S
C223 H211 0.950 . S
C223 C219 1.393 . S
C223 C222 1.391 1_556 S
C224 H214 0.950 . S
C224 C225 1.386 . S
C224 C226 1.391 . S
C225 C224 1.386 . S
C225 C229 1.393 . S
C226 H215 0.950 . S
C226 C224 1.391 . S
C226 C227 1.400 . S
C227 C221 1.491 . S
C227 C226 1.400 . S
C227 C228 1.398 . S
C228 H216 0.950 . S
C228 C227 1.398 . S
C228 C229 1.391 . S
C229 H217 0.950 . S
C229 C225 1.393 . S
C229 C228 1.391 . S
H230 C238 0.950 . S
H231 C243 0.950 . S
H232 C240 0.950 . S
H233 C242 0.950 . S
H234 C244 0.950 . S
H235 C246 0.950 . S
H236 C248 0.950 . S
H237 C249 0.950 . S
C238 H230 0.950 . S
C238 C239 1.386 . S
C238 C240 1.391 . S
C239 C238 1.386 . S
C239 C243 1.393 . S
C240 H232 0.950 . S
C240 C238 1.391 . S
C240 C241 1.400 . S
C241 C240 1.400 . S
C241 C242 1.398 . S
C241 C247 1.491 . S
C242 H233 0.950 . S
C242 C241 1.398 . S
C242 C243 1.391 . S
C243 H231 0.950 . S
C243 C239 1.393 . S
C243 C242 1.391 . S
C244 H234 0.950 . S
C244 C245 1.386 . S
C244 C246 1.391 . S
C245 C244 1.386 . S
C245 C249 1.393 . S
C246 H235 0.950 . S
C246 C244 1.391 . S
C246 C247 1.400 . S
C247 C241 1.491 . S
C247 C246 1.400 . S
C247 C248 1.398 . S
C248 H236 0.950 . S
C248 C247 1.398 . S
C248 C249 1.391 . S
C249 H237 0.950 . S
C249 C245 1.393 . S
C249 C248 1.391 . S
H250 C258 0.950 . S
H251 C263 0.950 . S
H252 C260 0.950 . S
H253 C262 0.950 . S
H254 C264 0.950 . S
H255 C266 0.950 . S
H256 C268 0.950 . S
H257 C269 0.950 . S
C258 H250 0.950 . S
C258 C259 1.386 . S
C258 C260 1.391 . S
C259 C258 1.386 . S
C259 C263 1.393 . S
C260 H252 0.950 . S
C260 C258 1.391 . S
C260 C261 1.400 . S
C261 C260 1.400 . S
C261 C262 1.398 . S
C261 C267 1.491 . S
C262 H253 0.950 . S
C262 C261 1.398 . S
C262 C263 1.391 . S
C263 H251 0.950 . S
C263 C259 1.393 . S
C263 C262 1.391 . S
C264 H254 0.950 . S
C264 C265 1.386 . S
C264 C266 1.391 . S
C265 C264 1.386 . S
C265 C269 1.393 . S
C266 H255 0.950 . S
C266 C264 1.391 . S
C266 C267 1.400 . S
C267 C261 1.491 . S
C267 C266 1.400 . S
C267 C268 1.398 . S
C268 H256 0.950 . S
C268 C267 1.398 . S
C268 C269 1.391 . S
C269 H257 0.950 . S
C269 C265 1.393 . S
C269 C268 1.391 . S
C99 C1 1.720 1_455 S
C105 C10 1.720 1_655 S
C119 C40 1.718 . S
C125 C31 1.718 . S
C139 C70 1.720 . S
C145 C61 1.720 . S
C159 C87 1.037 . S
C165 N6 1.049 . S
C179 C46 0.916 . S
C185 N14 0.860 . S
C199 N66 1.046 . S
C205 C57 1.045 . S
C219 N74 0.863 . S
C225 C16 0.896 . S
C239 C27 1.044 . S
C245 N36 1.054 . S
C259 C76 0.886 . S
C265 N44 0.901 . S
