# Generated by pormake.
# Topology mok, (4)-cn, num edge types: 1
# Building blocks:
#     Node 0, Type 0, BuildingBlock: KUFVIS_clean_sbu_0, # of connection points: 4
#     Node 1, Type 0, BuildingBlock: KUFVIS_clean_sbu_0, # of connection points: 4
#     Node 2, Type 0, BuildingBlock: KUFVIS_clean_sbu_0, # of connection points: 4
#     Node 3, Type 0, BuildingBlock: KUFVIS_clean_sbu_0, # of connection points: 4
#     Node 4, Type 0, BuildingBlock: KUFVIS_clean_sbu_0, # of connection points: 4
#     Node 5, Type 0, BuildingBlock: KUFVIS_clean_sbu_0, # of connection points: 4
#     Node 6, Type 0, BuildingBlock: KUFVIS_clean_sbu_0, # of connection points: 4
#     Node 7, Type 0, BuildingBlock: KUFVIS_clean_sbu_0, # of connection points: 4
#     Edge 8, Type (0, 0), BuildingBlock: OJICUG_clean_linker_0, # of connection points: 2
#     Edge 9, Type (0, 0), BuildingBlock: OJICUG_clean_linker_0, # of connection points: 2
#     Edge 10, Type (0, 0), BuildingBlock: OJICUG_clean_linker_0, # of connection points: 2
#     Edge 11, Type (0, 0), BuildingBlock: OJICUG_clean_linker_0, # of connection points: 2
#     Edge 12, Type (0, 0), BuildingBlock: OJICUG_clean_linker_0, # of connection points: 2
#     Edge 13, Type (0, 0), BuildingBlock: OJICUG_clean_linker_0, # of connection points: 2
#     Edge 14, Type (0, 0), BuildingBlock: OJICUG_clean_linker_0, # of connection points: 2
#     Edge 15, Type (0, 0), BuildingBlock: OJICUG_clean_linker_0, # of connection points: 2
#     Edge 16, Type (0, 0), BuildingBlock: OJICUG_clean_linker_0, # of connection points: 2
#     Edge 17, Type (0, 0), BuildingBlock: OJICUG_clean_linker_0, # of connection points: 2
#     Edge 18, Type (0, 0), BuildingBlock: OJICUG_clean_linker_0, # of connection points: 2
#     Edge 19, Type (0, 0), BuildingBlock: OJICUG_clean_linker_0, # of connection points: 2
#     Edge 20, Type (0, 0), BuildingBlock: OJICUG_clean_linker_0, # of connection points: 2
#     Edge 21, Type (0, 0), BuildingBlock: OJICUG_clean_linker_0, # of connection points: 2
#     Edge 22, Type (0, 0), BuildingBlock: OJICUG_clean_linker_0, # of connection points: 2
#     Edge 23, Type (0, 0), BuildingBlock: OJICUG_clean_linker_0, # of connection points: 2
# Relax obj value: 0.031
# Max RMSD: 0.053
# Mean RMSD: 0.053
data_MOF--net-mok--node1-KUFVIS_clean_sbu_0--edge1-OJICUG_clean_linker_0
_symmetry_space_group_name_H-M    P1
_symmetry_Int_Tables_number       1
_symmetry_cell_setting            triclinic
loop_
_symmetry_equiv_pos_as_xyz
'x, y, z'
_cell_length_a     42.557705
_cell_length_b     11.950618
_cell_length_c     17.357648
_cell_angle_alpha  90.190969
_cell_angle_beta   89.474665
_cell_angle_gamma 89.992219
loop_
_atom_site_label
_atom_site_type_symbol
_atom_site_fract_x
_atom_site_fract_y
_atom_site_fract_z
_atom_type_partial_charge
Mn0 Mn 0.59341 0.23727 0.09104 0.0
Mn1 Mn 0.53179 0.37175 0.13657 0.0
C2 C 0.57422 0.35552 0.99275 0.0
C3 C 0.64848 0.23991 0.08011 0.0
C4 C 0.52521 0.12675 0.10666 0.0
O5 O 0.59805 0.26387 0.21262 0.0
O6 O 0.55336 0.35423 0.23146 0.0
C7 C 0.5622 0.58102 0.18391 0.0
N8 N 0.53927 0.52549 0.14513 0.0
C9 C 0.50811 0.6879 0.13512 0.0
C10 C 0.53036 0.7476 0.17842 0.0
C11 C 0.55792 0.69412 0.20186 0.0
C12 C 0.51343 0.57554 0.12043 0.0
H13 H 0.58332 0.53888 0.20147 0.0
C14 C 0.58005 0.32627 0.25472 0.0
O15 O 0.63338 0.14529 0.08251 0.0
O16 O 0.6319 0.32879 0.08689 0.0
N17 N 0.5077 0.39548 1.05034 0.0
C18 C 0.50071 0.30699 0.98469 0.0
C19 C 0.47304 0.31615 0.91599 0.0
C20 C 0.45 0.43203 0.90915 0.0
C21 C 0.46638 0.57252 1.02443 0.0
C22 C 0.49493 0.51208 0.07299 0.0
H23 H 0.51471 0.23232 0.98229 0.0
O24 O 0.58856 0.2629 0.97646 0.0
O25 O 0.56897 0.36792 0.06722 0.0
O26 O 0.55419 0.11579 0.0835 0.0
O27 O 0.51762 0.2162 0.1397 0.0
C28 C 0.46614 0.6908 1.04101 0.0
C29 C 0.48333 0.74113 0.09983 0.0
H30 H 0.52723 0.83591 0.19069 0.0
H31 H 0.57565 0.73962 0.23345 0.0
H32 H 0.46893 0.24375 0.88075 0.0
H33 H 0.43316 0.43853 0.86223 0.0
H34 H 0.46155 0.75197 0.99817 0.0
H35 H 0.48159 0.82953 0.10725 0.0
Mn36 Mn 0.33344 0.7897 1.00687 0.0
Mn37 Mn 0.39186 0.64395 1.03656 0.0
C38 C 0.35799 0.69788 0.8952 0.0
C39 C 0.27882 0.80015 1.00065 0.0
C40 C 0.40377 0.88206 1.02781 0.0
O41 O 0.32408 0.72628 0.12028 0.0
O42 O 0.37325 0.7217 0.12538 0.0
C43 C 0.34148 0.47093 0.07399 0.0
N44 N 0.3717 0.50518 0.06177 0.0
C45 C 0.39262 0.32989 0.09731 0.0
C46 C 0.36242 0.29436 0.12007 0.0
C47 C 0.33635 0.36326 0.10441 0.0
C48 C 0.3948 0.43226 0.06098 0.0
H49 H 0.32193 0.52669 0.06451 0.0
C50 C 0.34791 0.69462 0.15721 0.0
O51 O 0.29528 0.88845 1.01831 0.0
O52 O 0.29425 0.71242 0.98017 0.0
N53 N 0.41667 0.56637 0.96575 0.0
C54 C 0.43933 0.62815 0.90821 0.0
C55 C 0.47811 0.60103 0.89327 0.0
C56 C 0.49574 0.49383 0.93823 0.0
C57 C 0.45326 0.39749 1.03067 0.0
C58 C 0.41998 0.46495 1.02026 0.0
H59 H 0.43091 0.70593 0.88449 0.0
O60 O 0.3441 0.79423 0.88854 0.0
O61 O 0.35849 0.66624 0.96614 0.0
O62 O 0.37381 0.90104 1.03907 0.0
O63 O 0.41148 0.7853 1.00654 0.0
C64 C 0.44973 0.3034 0.08157 0.0
C65 C 0.42013 0.26922 0.11073 0.0
H66 H 0.35894 0.21397 0.14748 0.0
H67 H 0.31279 0.33564 0.11858 0.0
H68 H 0.49279 0.66283 0.8664 0.0
H69 H 0.5198 0.47708 0.92586 0.0
H70 H 0.46858 0.25116 0.0967 0.0
H71 H 0.41866 0.19532 0.14607 0.0
Mn72 Mn 0.60852 0.79229 0.62944 0.0
Mn73 Mn 0.54982 0.64781 0.59879 0.0
C74 C 0.58327 0.70252 0.74102 0.0
C75 C 0.66314 0.80147 0.6367 0.0
C76 C 0.53849 0.8861 0.60563 0.0
O77 O 0.61826 0.72587 0.51657 0.0
O78 O 0.56913 0.72125 0.5095 0.0
C79 C 0.59981 0.47201 0.56548 0.0
N80 N 0.56961 0.50738 0.57663 0.0
C81 C 0.54858 0.33042 0.54543 0.0
C82 C 0.57876 0.29311 0.52375 0.0
C83 C 0.60487 0.36264 0.53765 0.0
C84 C 0.54637 0.43504 0.57891 0.0
H85 H 0.61941 0.52792 0.57394 0.0
C86 C 0.59466 0.6929 0.47908 0.0
O87 O 0.64689 0.88982 0.61844 0.0
O88 O 0.64749 0.71447 0.65731 0.0
N89 N 0.52425 0.57561 0.66988 0.0
C90 C 0.50143 0.64222 0.72478 0.0
C91 C 0.46255 0.6176 0.73929 0.0
C92 C 0.44487 0.50755 0.69709 0.0
C93 C 0.48765 0.4034 0.60878 0.0
C94 C 0.521 0.47083 0.6181 0.0
H95 H 0.51003 0.71995 0.74866 0.0
O96 O 0.59738 0.79848 0.74781 0.0
O97 O 0.58293 0.67061 0.67 0.0
O98 O 0.56855 0.90446 0.59571 0.0
O99 O 0.53046 0.78993 0.62616 0.0
C100 C 0.49155 0.3041 0.56245 0.0
C101 C 0.52117 0.26854 0.53421 0.0
H102 H 0.5822 0.21089 0.49862 0.0
H103 H 0.62842 0.33387 0.52434 0.0
H104 H 0.44828 0.68059 0.76665 0.0
H105 H 0.4208 0.49192 0.70988 0.0
H106 H 0.47323 0.24741 0.55179 0.0
H107 H 0.52285 0.19178 0.50191 0.0
Mn108 Mn 0.34824 0.23619 0.54261 0.0
Mn109 Mn 0.41026 0.37157 0.50058 0.0
C110 C 0.36727 0.35199 0.64233 0.0
C111 C 0.29315 0.23909 0.55397 0.0
C112 C 0.41689 0.12704 0.52955 0.0
O113 O 0.34367 0.26816 0.42214 0.0
O114 O 0.39021 0.34517 0.40351 0.0
C115 C 0.37872 0.57798 0.45101 0.0
N116 N 0.40207 0.52433 0.48913 0.0
C117 C 0.43311 0.68759 0.4958 0.0
C118 C 0.41057 0.74494 0.4521 0.0
C119 C 0.38282 0.69028 0.43095 0.0
C120 C 0.4279 0.57609 0.51272 0.0
H121 H 0.35734 0.53525 0.43626 0.0
C122 C 0.36274 0.32673 0.38071 0.0
O123 O 0.30818 0.14442 0.54963 0.0
O124 O 0.30979 0.32792 0.54862 0.0
N125 N 0.43329 0.40139 0.58767 0.0
C126 C 0.43977 0.31742 0.65587 0.0
C127 C 0.46706 0.33109 0.72515 0.0
C128 C 0.49032 0.4466 0.72922 0.0
C129 C 0.47482 0.57895 0.60944 0.0
C130 C 0.44634 0.51577 0.56196 0.0
H131 H 0.42638 0.24106 0.65797 0.0
O132 O 0.35309 0.2588 0.65752 0.0
O133 O 0.37267 0.36596 0.5682 0.0
O134 O 0.38737 0.11364 0.54756 0.0
O135 O 0.42534 0.219 0.50255 0.0
C136 C 0.47543 0.6958 0.58914 0.0
C137 C 0.45807 0.74259 0.52937 0.0
H138 H 0.41357 0.83265 0.43814 0.0
H139 H 0.36477 0.73434 0.39966 0.0
H140 H 0.47108 0.26125 0.76211 0.0
H141 H 0.5072 0.45541 0.77585 0.0
H142 H 0.48027 0.75978 0.6299 0.0
H143 H 0.45988 0.83036 0.51974 0.0
Mn144 Mn 0.09368 0.7365 0.09568 0.0
Mn145 Mn 0.03196 0.87143 0.14034 0.0
C146 C 0.07466 0.85439 0.99718 0.0
C147 C 0.14876 0.73915 0.08463 0.0
C148 C 0.02537 0.6265 0.11033 0.0
O149 O 0.09821 0.76388 0.21709 0.0
O150 O 0.05319 0.85227 0.23573 0.0
C151 C 0.06247 0.08012 0.18873 0.0
N152 N 0.03954 0.025 0.14968 0.0
C153 C 0.00833 0.18745 0.14056 0.0
C154 C 0.03056 0.24665 0.18425 0.0
C155 C 0.05814 0.19299 0.20736 0.0
C156 C 0.01369 0.07531 0.12521 0.0
H157 H 0.08361 0.03785 0.2059 0.0
C158 C 0.07999 0.82562 0.25905 0.0
O159 O 0.13366 0.64454 0.08727 0.0
O160 O 0.13219 0.82801 0.09148 0.0
N161 N 0.00816 0.8964 0.05381 0.0
C162 C 0.00146 0.80901 0.98734 0.0
C163 C -0.02595 0.81925 0.91811 0.0
C164 C 0.95094 0.935 0.91177 0.0
C165 C 0.96682 0.07355 1.0286 0.0
C166 C -0.00474 0.01247 0.0772 0.0
H167 H 0.01532 0.73393 0.98513 0.0
O168 O 0.08894 0.76157 0.98108 0.0
O169 O 0.06931 0.86716 0.07157 0.0
O170 O 0.05447 0.61495 0.08826 0.0
O171 O 0.01758 0.71647 0.14231 0.0
C172 C 0.96643 0.19152 1.04623 0.0
C173 C -0.01647 0.24104 0.10554 0.0
H174 H 0.0274 0.3348 0.19706 0.0
H175 H 0.07587 0.23816 0.23919 0.0
H176 H 0.9701 0.7475 0.88226 0.0
H177 H 0.93422 0.94209 0.86465 0.0
H178 H 0.9619 0.25337 1.00387 0.0
H179 H -0.01825 0.32932 0.11355 0.0
Mn180 Mn 0.83377 0.28963 1.00925 0.0
Mn181 Mn 0.89221 0.14436 1.03944 0.0
C182 C 0.85862 0.19842 0.89766 0.0
C183 C 0.77917 0.29977 1.00184 0.0
C184 C 0.90397 0.38252 1.03136 0.0
O185 O 0.82416 0.22544 0.12245 0.0
O186 O 0.8733 0.22127 0.1282 0.0
C187 C 0.84187 0.97068 0.07535 0.0
N188 N 0.8721 1.00517 0.06366 0.0
C189 C 0.89298 0.82947 0.09825 0.0
C190 C 0.86276 0.79357 0.1205 0.0
C191 C 0.8367 0.86263 0.10506 0.0
C192 C 0.89522 0.93231 0.06262 0.0
H193 H 0.82232 0.02648 0.06598 0.0
C194 C 0.84793 0.19363 0.15961 0.0
O195 O 0.79551 0.38807 1.02006 0.0
O196 O 0.7947 0.2121 0.98177 0.0
N197 N 0.91731 0.06797 0.96877 0.0
C198 C 0.94013 0.13103 0.91229 0.0
C199 C -0.02103 0.10462 0.89792 0.0
C200 C -0.00347 0.99673 0.94232 0.0
C201 C 0.95379 0.89833 1.03306 0.0
C202 C 0.9205 0.96569 1.02253 0.0
H203 H 0.93172 0.20886 0.88858 0.0
O204 O 0.8447 0.2947 0.89103 0.0
O205 O 0.859 0.16661 0.96857 0.0
O206 O 0.87397 0.40131 1.0422 0.0
O207 O 0.91178 0.28591 1.01023 0.0
C208 C 0.95011 0.80314 0.08291 0.0
C209 C 0.92046 0.76861 0.11151 0.0
H210 H 0.85924 0.7128 0.14735 0.0
H211 H 0.81312 0.83478 0.11882 0.0
H212 H -0.00642 0.16684 0.87126 0.0
H213 H 0.02061 0.98041 0.93024 0.0
H214 H 0.96885 0.75012 0.09744 0.0
H215 H 0.91889 0.69424 0.14628 0.0
Mn216 Mn 0.10874 0.29094 0.63373 0.0
Mn217 Mn 0.05021 0.14556 0.60345 0.0
C218 C 0.08375 0.20074 0.74539 0.0
C219 C 0.16333 0.30112 0.64024 0.0
C220 C 0.03858 0.38381 0.61073 0.0
O221 O 0.1184 0.22507 0.52072 0.0
O222 O 0.06927 0.22036 0.51439 0.0
C223 C 0.10047 0.97093 0.56891 0.0
N224 N 0.07023 1.00569 0.58033 0.0
C225 C 0.04939 0.82902 0.54743 0.0
C226 C 0.07962 0.79249 0.52553 0.0
C227 C 0.10566 0.86208 0.54019 0.0
C228 C 0.0471 0.93291 0.58201 0.0
H229 H 0.12001 0.027 0.57779 0.0
C230 C 0.09473 0.19237 0.48344 0.0
O231 O 0.14691 0.38922 0.62227 0.0
O232 O 0.14786 0.21388 0.66122 0.0
N233 N 0.02486 0.07146 0.67426 0.0
C234 C 0.00194 0.13663 0.72967 0.0
C235 C 0.96306 0.11126 0.74371 0.0
C236 C 0.94551 1.00207 0.70024 0.0
C237 C -0.01159 0.90018 0.61121 0.0
C238 C 0.02173 0.96761 0.6215 0.0
H239 H 0.01041 0.21451 0.75358 0.0
O240 O 0.09774 0.29695 0.75211 0.0
O241 O 0.08338 0.16864 0.67442 0.0
O242 O 0.0686 0.40239 0.60032 0.0
O243 O 0.03071 0.28757 0.63177 0.0
C244 C -0.00771 0.80263 0.56317 0.0
C245 C 0.02197 0.76749 0.53501 0.0
H246 H 0.08315 0.71088 0.49953 0.0
H247 H 0.12924 0.83387 0.52666 0.0
H248 H 0.9486 0.17399 0.77067 0.0
H249 H 0.92142 0.98622 0.71242 0.0
H250 H -0.02623 0.74762 0.55039 0.0
H251 H 0.02365 0.69175 0.50146 0.0
Mn252 Mn 0.8487 0.73592 0.54525 0.0
Mn253 Mn 0.91077 0.8705 0.50262 0.0
C254 C 0.86772 0.85226 0.64475 0.0
C255 C 0.79357 0.73914 0.55583 0.0
C256 C 0.91721 0.62589 0.53191 0.0
O257 O 0.84427 0.76626 0.42442 0.0
O258 O 0.89031 0.8473 0.40596 0.0
C259 C 0.87978 0.078 0.4538 0.0
N260 N 0.90291 0.02365 0.49229 0.0
C261 C 0.93407 0.18642 0.50036 0.0
C262 C 0.91172 0.24461 0.45661 0.0
C263 C 0.88403 0.19048 0.43447 0.0
C264 C 0.92875 0.07469 0.51644 0.0
H265 H 0.85847 0.03559 0.43797 0.0
C266 C 0.86305 0.82597 0.38292 0.0
O267 O 0.80859 0.64437 0.55217 0.0
O268 O 0.81026 0.82785 0.55042 0.0
N269 N 0.93408 0.89823 0.58966 0.0
C270 C 0.94054 0.81288 0.65709 0.0
C271 C 0.96776 0.82517 0.72668 0.0
C272 C -0.00905 0.9408 0.73211 0.0
C273 C -0.0245 0.07564 0.61355 0.0
C274 C 0.94712 0.01328 0.56521 0.0
H275 H 0.92693 0.73709 0.659 0.0
O276 O 0.85338 0.75943 0.66007 0.0
O277 O 0.8732 0.86572 0.57056 0.0
O278 O 0.88782 0.61354 0.55139 0.0
O279 O 0.9255 0.71682 0.50279 0.0
C280 C -0.02398 0.19296 0.59459 0.0
C281 C 0.95892 0.24082 0.53483 0.0
H282 H 0.91483 0.33248 0.44327 0.0
H283 H 0.86615 0.23507 0.40294 0.0
H284 H -0.02836 0.75459 0.76317 0.0
H285 H 0.00767 0.94898 0.77918 0.0
H286 H -0.01944 0.25607 0.63627 0.0
H287 H 0.96072 0.3288 0.52605 0.0
C288 C 0.72824 0.37356 0.05435 0.0
C289 C 0.74511 0.28869 1.01678 0.0
H290 H 0.6846 0.42286 0.10572 0.0
C291 C 0.73017 0.18523 1.00243 0.0
H292 H 0.7392 0.45312 0.06739 0.0
C293 C 0.69912 0.16668 1.02585 0.0
C294 C 0.68231 0.25163 0.06333 0.0
H295 H 0.74264 0.11738 0.9741 0.0
H296 H 0.68814 0.08702 1.01322 0.0
C297 C 0.69713 0.35529 0.07719 0.0
C298 C 0.19902 0.66653 1.02793 0.0
C299 C 0.18251 0.75091 0.06681 0.0
H300 H 0.24209 0.61812 0.97354 0.0
C301 C 0.19742 0.85442 0.08056 0.0
H302 H 0.18794 0.58704 1.0153 0.0
C303 C 0.22832 0.87315 0.05616 0.0
C304 C 0.24488 0.78888 1.01711 0.0
H305 H 0.1851 0.92157 0.11012 0.0
H306 H 0.23938 0.95256 0.06915 0.0
C307 C 0.22985 0.68554 1.00295 0.0
C308 C 0.74504 0.85515 0.55989 0.0
C309 C 0.75974 0.75114 0.57279 0.0
H310 H 0.70317 0.95392 0.57119 0.0
C311 C 0.74287 0.66632 0.60989 0.0
H312 H 0.75761 0.92262 0.53166 0.0
C313 C 0.71191 0.68546 0.63402 0.0
C314 C 0.69712 0.7894 0.6208 0.0
H315 H 0.75377 0.58637 0.62179 0.0
H316 H 0.6994 0.61774 0.66207 0.0
C317 C 0.71402 0.87401 0.58343 0.0
C318 C 0.21374 0.37354 0.58436 0.0
C319 C 0.19721 0.2893 0.62311 0.0
H320 H 0.25686 0.42177 0.53009 0.0
C321 C 0.21218 0.18565 0.6362 0.0
H322 H 0.20274 0.4532 0.57215 0.0
C323 C 0.24293 0.1664 0.61056 0.0
C324 C 0.25942 0.25085 0.57209 0.0
H325 H 0.19995 0.11821 0.6653 0.0
H326 H 0.25399 0.08673 0.62246 0.0
C327 C 0.24456 0.35459 0.55932 0.0
C328 C 0.56367 0.44037 0.36803 0.0
C329 C 0.5892 0.39573 0.32517 0.0
H330 H 0.5443 0.57198 0.43548 0.0
C331 C 0.61841 0.45167 0.33417 0.0
H332 H 0.54057 0.40253 0.36423 0.0
C333 C 0.62126 0.54801 0.3835 0.0
C334 C 0.59456 0.59597 0.42073 0.0
H335 H 0.6386 0.42452 0.30069 0.0
H336 H 0.64407 0.58657 0.39058 0.0
C337 C 0.56575 0.54073 0.4091 0.0
C338 C 0.32168 0.54964 0.25227 0.0
C339 C 0.34836 0.59982 0.2166 0.0
H340 H 0.30432 0.42348 0.33249 0.0
C341 C 0.37749 0.54793 0.23008 0.0
H342 H 0.29864 0.58543 0.24345 0.0
C343 C 0.38002 0.44892 0.27205 0.0
C344 C 0.35429 0.40095 0.31221 0.0
H345 H 0.39889 0.58076 0.20454 0.0
H346 H 0.40339 0.41378 0.27721 0.0
C347 C 0.32474 0.45353 0.30122 0.0
C348 C 0.3643 0.49735 0.84285 0.0
C349 C 0.3621 0.61343 0.82789 0.0
H350 H 0.36767 0.32886 0.79933 0.0
C351 C 0.36154 0.64349 0.74873 0.0
H352 H 0.36403 0.46786 0.90167 0.0
C353 C 0.36339 0.56141 0.68822 0.0
C354 C 0.36587 0.44516 0.70414 0.0
H355 H 0.35945 0.73083 0.73329 0.0
H356 H 0.36282 0.58915 0.62896 0.0
C357 C 0.36603 0.41609 0.78313 0.0
C358 C 0.576 0.42053 0.85229 0.0
C359 C 0.57545 0.44951 0.9315 0.0
H360 H 0.57831 0.47218 0.73399 0.0
C361 C 0.5768 0.56608 0.9478 0.0
H362 H 0.57505 0.3332 0.83561 0.0
C363 C 0.57869 0.64824 0.88756 0.0
C364 C 0.57902 0.6181 0.80818 0.0
H365 H 0.57665 0.59407 1.00716 0.0
H366 H 0.58009 0.73577 0.90339 0.0
C367 C 0.57755 0.50182 0.79287 0.0
C368 C 0.11829 0.95102 0.33863 0.0
C369 C 0.08899 0.8959 0.32922 0.0
H370 H 0.14408 0.08531 0.39534 0.0
C371 C 0.06343 0.94128 0.37158 0.0
H372 H 0.13853 0.92319 0.30557 0.0
C373 C 0.06563 0.0414 0.41286 0.0
C374 C 0.09452 0.0959 0.42482 0.0
H375 H 0.04027 0.90402 0.36751 0.0
H376 H 0.0442 0.07303 0.43913 0.0
C377 C 0.12121 0.04737 0.3879 0.0
C378 C 0.88 0.94659 0.27328 0.0
C379 C 0.85436 0.89904 0.31402 0.0
H380 H 0.89886 0.07862 0.20596 0.0
C381 C 0.82484 0.95207 0.30355 0.0
H382 H 0.90334 0.91109 0.27805 0.0
C383 C 0.82172 0.04822 0.2546 0.0
C384 C 0.84836 0.09825 0.21863 0.0
H385 H 0.80449 0.92244 0.3353 0.0
H386 H 0.7987 0.08436 0.24622 0.0
C387 C 0.87747 0.04592 0.23166 0.0
C388 C 0.86629 0.91657 0.7855 0.0
C389 C 0.86634 0.94564 0.70649 0.0
H390 H 0.8643 0.96832 0.90404 0.0
C391 C 0.86425 0.062 0.69059 0.0
H392 H 0.86771 0.82929 0.80172 0.0
C393 C 0.86244 0.1441 0.75113 0.0
C394 C 0.86275 0.11398 0.83031 0.0
H395 H 0.86391 0.08982 0.63133 0.0
H396 H 0.86059 0.23152 0.7357 0.0
C397 C 0.86469 0.99784 0.84524 0.0
C398 C 0.0764 0.91901 0.85673 0.0
C399 C 0.07602 0.94812 0.9359 0.0
H400 H 0.07859 0.97052 0.73841 0.0
C401 C 0.07763 0.06465 0.95219 0.0
H402 H 0.07528 0.83168 0.84012 0.0
C403 C 0.07949 0.14671 0.89192 0.0
C404 C 0.07959 0.11646 0.81258 0.0
H405 H 0.07765 0.09265 1.01155 0.0
H406 H 0.08104 0.23422 0.9077 0.0
C407 C 0.07796 1.0002 0.79729 0.0
C408 C 0.44042 0.99303 0.1219 0.0
C409 C 0.43244 0.96071 1.0458 0.0
H410 H 0.47437 0.06516 0.20026 0.0
C411 C 0.45756 0.97445 0.99125 0.0
H412 H 0.42334 0.98067 0.1677 0.0
C413 C 0.48814 0.01774 1.0109 0.0
C414 C 0.4961 0.0506 0.08706 0.0
H415 H 0.45389 0.94753 0.93238 0.0
H416 H 0.50539 0.02804 0.96526 0.0
C417 C 0.47077 0.03835 0.14136 0.0
C418 C 0.50122 0.99264 0.51144 0.0
C419 C 0.50988 0.96451 0.58773 0.0
H420 H 0.46665 0.06212 0.43379 0.0
C421 C 0.48512 0.97964 0.64311 0.0
H422 H 0.51797 0.97873 0.4651 0.0
C423 C 0.45427 0.02061 0.6241 0.0
C424 C 0.44564 0.04953 0.54785 0.0
H425 H 0.48929 0.95543 0.7022 0.0
H426 H 0.43738 0.03287 0.67036 0.0
C427 C 0.47069 0.03701 0.49275 0.0
C428 C -0.01167 0.51783 1.01462 0.0
C429 C -0.00366 0.55008 0.09084 0.0
H430 H 0.954 0.44846 0.93601 0.0
C431 C -0.02898 0.53795 0.14516 0.0
H432 H 0.00555 0.52842 0.96896 0.0
C433 C 0.94064 0.49279 0.12569 0.0
C434 C 0.9326 0.46116 1.04951 0.0
H435 H -0.02535 0.56456 0.20409 0.0
H436 H 0.92359 0.48024 0.17151 0.0
C437 C 0.95771 0.475 0.99493 0.0
C438 C -0.0151 0.47668 0.64707 0.0
C439 C 0.00995 0.46206 0.59237 0.0
H440 H 0.93707 0.53008 0.67318 0.0
C441 C 0.00175 0.49175 0.51606 0.0
H442 H -0.01126 0.45154 0.70612 0.0
C443 C -0.02868 0.53635 0.49666 0.0
C444 C 0.94602 0.54878 0.55107 0.0
H445 H 0.01875 0.47847 0.47017 0.0
H446 H 0.9676 0.56206 0.43769 0.0
C447 C 0.95421 0.51848 0.6274 0.0
loop_
_geom_bond_atom_site_label_1
_geom_bond_atom_site_label_2
_geom_bond_distance
_geom_bond_site_symmetry_2
_ccdc_geom_bond_type
Mn0 O5 2.095 . S
Mn0 O15 2.162 . S
Mn0 O16 2.297 . S
Mn0 O24 2.385 1_554 S
Mn0 O25 2.209 1_554 S
Mn0 O26 2.094 . S
Mn1 O6 2.121 . S
Mn1 N8 2.257 1_554 S
Mn1 N17 2.282 1_554 S
Mn1 O25 2.215 1_554 S
Mn1 O27 2.117 . S
C2 O24 1.234 . S
C2 O25 1.283 . S
C3 O15 1.281 . S
C3 O16 1.236 . S
C4 O26 1.240 . S
C4 O27 1.264 . S
O5 Mn0 2.095 . S
O5 C14 1.250 . S
O6 Mn1 2.121 . S
O6 C14 1.258 . S
C7 N8 1.326 1_554 S
C7 C11 1.460 1_554 S
C7 H13 0.929 . S
N8 Mn1 2.257 1_556 S
N8 C7 1.326 1_556 S
N8 C12 1.362 . S
C9 C10 1.258 . S
C9 C12 1.431 . S
C9 C29 1.449 . S
C10 C9 1.258 . S
C10 C11 1.477 . S
C10 H30 0.931 . S
C11 C7 1.460 1_556 S
C11 C10 1.477 . S
C11 H31 0.930 1_556 S
C12 N8 1.362 . S
C12 C9 1.431 . S
C12 C22 1.476 . S
H13 C7 0.929 . S
C14 O5 1.250 . S
C14 O6 1.258 . S
O15 Mn0 2.162 . S
O15 C3 1.281 . S
O16 Mn0 2.297 . S
O16 C3 1.236 . S
N17 Mn1 2.282 1_556 S
N17 C18 1.328 . S
N17 C22 1.318 . S
C18 N17 1.328 . S
C18 C19 1.457 . S
C18 H23 0.929 . S
C19 C18 1.457 . S
C19 C20 1.291 . S
C19 H32 0.931 . S
C20 C19 1.291 . S
C20 C21 1.373 . S
C20 H33 0.929 . S
C21 C20 1.373 . S
C21 C22 1.396 . S
C21 C28 1.403 . S
C22 C12 1.476 . S
C22 N17 1.318 . S
C22 C21 1.396 . S
H23 C18 0.929 . S
O24 Mn0 2.385 1_556 S
O24 C2 1.234 . S
O25 Mn0 2.209 1_556 S
O25 Mn1 2.215 1_556 S
O25 C2 1.283 . S
O26 Mn0 2.094 . S
O26 C4 1.240 . S
O27 Mn1 2.117 . S
O27 C4 1.264 . S
C28 C21 1.403 . S
C28 C29 1.399 . S
C28 H34 0.929 . S
C29 C9 1.449 . S
C29 C28 1.399 . S
C29 H35 0.930 . S
H30 C10 0.931 . S
H31 C11 0.930 1_554 S
H32 C19 0.931 . S
H33 C20 0.929 . S
H34 C28 0.929 . S
H35 C29 0.930 . S
Mn36 O41 2.095 . S
Mn36 O51 2.162 . S
Mn36 O52 2.297 . S
Mn36 O60 2.385 1_554 S
Mn36 O61 2.209 1_554 S
Mn36 O62 2.094 . S
Mn37 O42 2.121 . S
Mn37 N44 2.257 1_554 S
Mn37 N53 2.282 1_554 S
Mn37 O61 2.215 1_554 S
Mn37 O63 2.117 . S
C38 O60 1.234 . S
C38 O61 1.283 . S
C39 O51 1.281 . S
C39 O52 1.236 . S
C40 O62 1.240 . S
C40 O63 1.264 . S
O41 Mn36 2.095 . S
O41 C50 1.250 . S
O42 Mn37 2.121 . S
O42 C50 1.258 . S
C43 N44 1.326 1_554 S
C43 C47 1.460 1_554 S
C43 H49 0.929 . S
N44 Mn37 2.257 1_556 S
N44 C43 1.326 1_556 S
N44 C48 1.362 . S
C45 C46 1.258 . S
C45 C48 1.431 . S
C45 C65 1.449 . S
C46 C45 1.258 . S
C46 C47 1.477 . S
C46 H66 0.931 . S
C47 C43 1.460 1_556 S
C47 C46 1.477 . S
C47 H67 0.930 1_556 S
C48 N44 1.362 . S
C48 C45 1.431 . S
C48 C58 1.476 . S
H49 C43 0.929 . S
C50 O41 1.250 . S
C50 O42 1.258 . S
O51 Mn36 2.162 . S
O51 C39 1.281 . S
O52 Mn36 2.297 . S
O52 C39 1.236 . S
N53 Mn37 2.282 1_556 S
N53 C54 1.328 . S
N53 C58 1.318 . S
C54 N53 1.328 . S
C54 C55 1.457 . S
C54 H59 0.929 . S
C55 C54 1.457 . S
C55 C56 1.291 . S
C55 H68 0.931 . S
C56 C55 1.291 . S
C56 C57 1.373 . S
C56 H69 0.929 . S
C57 C56 1.373 . S
C57 C58 1.396 . S
C57 C64 1.403 . S
C58 C48 1.476 . S
C58 N53 1.318 . S
C58 C57 1.396 . S
H59 C54 0.929 . S
O60 Mn36 2.385 1_556 S
O60 C38 1.234 . S
O61 Mn36 2.209 1_556 S
O61 Mn37 2.215 1_556 S
O61 C38 1.283 . S
O62 Mn36 2.094 . S
O62 C40 1.240 . S
O63 Mn37 2.117 . S
O63 C40 1.264 . S
C64 C57 1.403 . S
C64 C65 1.399 . S
C64 H70 0.929 . S
C65 C45 1.449 . S
C65 C64 1.399 . S
C65 H71 0.930 . S
H66 C46 0.931 . S
H67 C47 0.930 1_554 S
H68 C55 0.931 . S
H69 C56 0.929 . S
H70 C64 0.929 . S
H71 C65 0.930 . S
Mn72 O77 2.095 . S
Mn72 O87 2.162 . S
Mn72 O88 2.297 . S
Mn72 O96 2.385 . S
Mn72 O97 2.209 . S
Mn72 O98 2.094 . S
Mn73 O78 2.121 . S
Mn73 N80 2.257 . S
Mn73 N89 2.282 . S
Mn73 O97 2.215 . S
Mn73 O99 2.117 . S
C74 O96 1.234 . S
C74 O97 1.283 . S
C75 O87 1.281 . S
C75 O88 1.236 . S
C76 O98 1.240 . S
C76 O99 1.264 . S
O77 Mn72 2.095 . S
O77 C86 1.250 . S
O78 Mn73 2.121 . S
O78 C86 1.258 . S
C79 N80 1.326 . S
C79 C83 1.460 . S
C79 H85 0.929 . S
N80 Mn73 2.257 . S
N80 C79 1.326 . S
N80 C84 1.362 . S
C81 C82 1.258 . S
C81 C84 1.431 . S
C81 C101 1.449 . S
C82 C81 1.258 . S
C82 C83 1.477 . S
C82 H102 0.931 . S
C83 C79 1.460 . S
C83 C82 1.477 . S
C83 H103 0.930 . S
C84 N80 1.362 . S
C84 C81 1.431 . S
C84 C94 1.476 . S
H85 C79 0.929 . S
C86 O77 1.250 . S
C86 O78 1.258 . S
O87 Mn72 2.162 . S
O87 C75 1.281 . S
O88 Mn72 2.297 . S
O88 C75 1.236 . S
N89 Mn73 2.282 . S
N89 C90 1.328 . S
N89 C94 1.318 . S
C90 N89 1.328 . S
C90 C91 1.457 . S
C90 H95 0.929 . S
C91 C90 1.457 . S
C91 C92 1.291 . S
C91 H104 0.931 . S
C92 C91 1.291 . S
C92 C93 1.373 . S
C92 H105 0.929 . S
C93 C92 1.373 . S
C93 C94 1.396 . S
C93 C100 1.403 . S
C94 C84 1.476 . S
C94 N89 1.318 . S
C94 C93 1.396 . S
H95 C90 0.929 . S
O96 Mn72 2.385 . S
O96 C74 1.234 . S
O97 Mn72 2.209 . S
O97 Mn73 2.215 . S
O97 C74 1.283 . S
O98 Mn72 2.094 . S
O98 C76 1.240 . S
O99 Mn73 2.117 . S
O99 C76 1.264 . S
C100 C93 1.403 . S
C100 C101 1.399 . S
C100 H106 0.929 . S
C101 C81 1.449 . S
C101 C100 1.399 . S
C101 H107 0.930 . S
H102 C82 0.931 . S
H103 C83 0.930 . S
H104 C91 0.931 . S
H105 C92 0.929 . S
H106 C100 0.929 . S
H107 C101 0.930 . S
Mn108 O113 2.095 . S
Mn108 O123 2.162 . S
Mn108 O124 2.297 . S
Mn108 O132 2.385 . S
Mn108 O133 2.209 . S
Mn108 O134 2.094 . S
Mn109 O114 2.121 . S
Mn109 N116 2.257 . S
Mn109 N125 2.282 . S
Mn109 O133 2.215 . S
Mn109 O135 2.117 . S
C110 O132 1.234 . S
C110 O133 1.283 . S
C111 O123 1.281 . S
C111 O124 1.236 . S
C112 O134 1.240 . S
C112 O135 1.264 . S
O113 Mn108 2.095 . S
O113 C122 1.250 . S
O114 Mn109 2.121 . S
O114 C122 1.258 . S
C115 N116 1.326 . S
C115 C119 1.460 . S
C115 H121 0.929 . S
N116 Mn109 2.257 . S
N116 C115 1.326 . S
N116 C120 1.362 . S
C117 C118 1.258 . S
C117 C120 1.431 . S
C117 C137 1.449 . S
C118 C117 1.258 . S
C118 C119 1.477 . S
C118 H138 0.931 . S
C119 C115 1.460 . S
C119 C118 1.477 . S
C119 H139 0.930 . S
C120 N116 1.362 . S
C120 C117 1.431 . S
C120 C130 1.476 . S
H121 C115 0.929 . S
C122 O113 1.250 . S
C122 O114 1.258 . S
O123 Mn108 2.162 . S
O123 C111 1.281 . S
O124 Mn108 2.297 . S
O124 C111 1.236 . S
N125 Mn109 2.282 . S
N125 C126 1.328 . S
N125 C130 1.318 . S
C126 N125 1.328 . S
C126 C127 1.457 . S
C126 H131 0.929 . S
C127 C126 1.457 . S
C127 C128 1.291 . S
C127 H140 0.931 . S
C128 C127 1.291 . S
C128 C129 1.373 . S
C128 H141 0.929 . S
C129 C128 1.373 . S
C129 C130 1.396 . S
C129 C136 1.403 . S
C130 C120 1.476 . S
C130 N125 1.318 . S
C130 C129 1.396 . S
H131 C126 0.929 . S
O132 Mn108 2.385 . S
O132 C110 1.234 . S
O133 Mn108 2.209 . S
O133 Mn109 2.215 . S
O133 C110 1.283 . S
O134 Mn108 2.094 . S
O134 C112 1.240 . S
O135 Mn109 2.117 . S
O135 C112 1.264 . S
C136 C129 1.403 . S
C136 C137 1.399 . S
C136 H142 0.929 . S
C137 C117 1.449 . S
C137 C136 1.399 . S
C137 H143 0.930 . S
H138 C118 0.931 . S
H139 C119 0.930 . S
H140 C127 0.931 . S
H141 C128 0.929 . S
H142 C136 0.929 . S
H143 C137 0.930 . S
Mn144 O149 2.095 . S
Mn144 O159 2.162 . S
Mn144 O160 2.297 . S
Mn144 O168 2.385 1_554 S
Mn144 O169 2.209 1_554 S
Mn144 O170 2.094 . S
Mn145 O150 2.121 . S
Mn145 N152 2.257 1_564 S
Mn145 N161 2.282 1_554 S
Mn145 O169 2.215 1_554 S
Mn145 O171 2.117 . S
C146 O168 1.234 . S
C146 O169 1.283 . S
C147 O159 1.281 . S
C147 O160 1.236 . S
C148 O170 1.240 . S
C148 O171 1.264 . S
O149 Mn144 2.095 . S
O149 C158 1.250 . S
O150 Mn145 2.121 . S
O150 C158 1.258 . S
C151 N152 1.326 1_554 S
C151 C155 1.460 1_554 S
C151 H157 0.929 . S
N152 Mn145 2.257 1_546 S
N152 C151 1.326 1_556 S
N152 C156 1.362 . S
C153 C154 1.258 . S
C153 C156 1.431 . S
C153 C173 1.449 1_455 S
C154 C153 1.258 . S
C154 C155 1.477 . S
C154 H174 0.931 . S
C155 C151 1.460 1_556 S
C155 C154 1.477 . S
C155 H175 0.930 1_556 S
C156 N152 1.362 . S
C156 C153 1.431 . S
C156 C166 1.476 . S
H157 C151 0.929 . S
C158 O149 1.250 . S
C158 O150 1.258 . S
O159 Mn144 2.162 . S
O159 C147 1.281 . S
O160 Mn144 2.297 . S
O160 C147 1.236 . S
N161 Mn145 2.282 1_556 S
N161 C162 1.328 . S
N161 C166 1.318 1_565 S
C162 N161 1.328 . S
C162 C163 1.457 1_455 S
C162 H167 0.929 . S
C163 C162 1.457 1_655 S
C163 C164 1.291 . S
C163 H176 0.931 . S
C164 C163 1.291 . S
C164 C165 1.373 1_565 S
C164 H177 0.929 . S
C165 C164 1.373 1_545 S
C165 C166 1.396 1_655 S
C165 C172 1.403 . S
C166 C156 1.476 . S
C166 N161 1.318 1_545 S
C166 C165 1.396 1_455 S
H167 C162 0.929 . S
O168 Mn144 2.385 1_556 S
O168 C146 1.234 . S
O169 Mn144 2.209 1_556 S
O169 Mn145 2.215 1_556 S
O169 C146 1.283 . S
O170 Mn144 2.094 . S
O170 C148 1.240 . S
O171 Mn145 2.117 . S
O171 C148 1.264 . S
C172 C165 1.403 . S
C172 C173 1.399 . S
C172 H178 0.929 . S
C173 C153 1.449 1_655 S
C173 C172 1.399 . S
C173 H179 0.930 . S
H174 C154 0.931 . S
H175 C155 0.930 1_554 S
H176 C163 0.931 . S
H177 C164 0.929 . S
H178 C172 0.929 . S
H179 C173 0.930 . S
Mn180 O185 2.095 . S
Mn180 O195 2.162 . S
Mn180 O196 2.297 . S
Mn180 O204 2.385 1_554 S
Mn180 O205 2.209 1_554 S
Mn180 O206 2.094 . S
Mn181 O186 2.121 . S
Mn181 N188 2.257 1_544 S
Mn181 N197 2.282 1_554 S
Mn181 O205 2.215 1_554 S
Mn181 O207 2.117 . S
C182 O204 1.234 . S
C182 O205 1.283 . S
C183 O195 1.281 . S
C183 O196 1.236 . S
C184 O206 1.240 . S
C184 O207 1.264 . S
O185 Mn180 2.095 . S
O185 C194 1.250 . S
O186 Mn181 2.121 . S
O186 C194 1.258 . S
C187 N188 1.326 1_554 S
C187 C191 1.460 1_554 S
C187 H193 0.929 . S
N188 Mn181 2.257 1_566 S
N188 C187 1.326 1_556 S
N188 C192 1.362 . S
C189 C190 1.258 . S
C189 C192 1.431 . S
C189 C209 1.449 1_655 S
C190 C189 1.258 . S
C190 C191 1.477 . S
C190 H210 0.931 . S
C191 C187 1.460 1_556 S
C191 C190 1.477 . S
C191 H211 0.930 1_556 S
C192 N188 1.362 . S
C192 C189 1.431 . S
C192 C202 1.476 . S
H193 C187 0.929 . S
C194 O185 1.250 . S
C194 O186 1.258 . S
O195 Mn180 2.162 . S
O195 C183 1.281 . S
O196 Mn180 2.297 . S
O196 C183 1.236 . S
N197 Mn181 2.282 1_556 S
N197 C198 1.328 . S
N197 C202 1.318 1_545 S
C198 N197 1.328 . S
C198 C199 1.457 1_655 S
C198 H203 0.929 . S
C199 C198 1.457 1_455 S
C199 C200 1.291 . S
C199 H212 0.931 . S
C200 C199 1.291 . S
C200 C201 1.373 1_545 S
C200 H213 0.929 . S
C201 C200 1.373 1_565 S
C201 C202 1.396 1_455 S
C201 C208 1.403 . S
C202 C192 1.476 . S
C202 N197 1.318 1_565 S
C202 C201 1.396 1_655 S
H203 C198 0.929 . S
O204 Mn180 2.385 1_556 S
O204 C182 1.234 . S
O205 Mn180 2.209 1_556 S
O205 Mn181 2.215 1_556 S
O205 C182 1.283 . S
O206 Mn180 2.094 . S
O206 C184 1.240 . S
O207 Mn181 2.117 . S
O207 C184 1.264 . S
C208 C201 1.403 . S
C208 C209 1.399 . S
C208 H214 0.929 . S
C209 C189 1.449 1_455 S
C209 C208 1.399 . S
C209 H215 0.930 . S
H210 C190 0.931 . S
H211 C191 0.930 1_554 S
H212 C199 0.931 . S
H213 C200 0.929 . S
H214 C208 0.929 . S
H215 C209 0.930 . S
Mn216 O221 2.095 . S
Mn216 O231 2.162 . S
Mn216 O232 2.297 . S
Mn216 O240 2.385 . S
Mn216 O241 2.209 . S
Mn216 O242 2.094 . S
Mn217 O222 2.121 . S
Mn217 N224 2.257 1_545 S
Mn217 N233 2.282 . S
Mn217 O241 2.215 . S
Mn217 O243 2.117 . S
C218 O240 1.234 . S
C218 O241 1.283 . S
C219 O231 1.281 . S
C219 O232 1.236 . S
C220 O242 1.240 . S
C220 O243 1.264 . S
O221 Mn216 2.095 . S
O221 C230 1.250 . S
O222 Mn217 2.121 . S
O222 C230 1.258 . S
C223 N224 1.326 . S
C223 C227 1.460 . S
C223 H229 0.929 . S
N224 Mn217 2.257 1_565 S
N224 C223 1.326 . S
N224 C228 1.362 . S
C225 C226 1.258 . S
C225 C228 1.431 . S
C225 C245 1.449 1_455 S
C226 C225 1.258 . S
C226 C227 1.477 . S
C226 H246 0.931 . S
C227 C223 1.460 . S
C227 C226 1.477 . S
C227 H247 0.930 . S
C228 N224 1.362 . S
C228 C225 1.431 . S
C228 C238 1.476 . S
H229 C223 0.929 . S
C230 O221 1.250 . S
C230 O222 1.258 . S
O231 Mn216 2.162 . S
O231 C219 1.281 . S
O232 Mn216 2.297 . S
O232 C219 1.236 . S
N233 Mn217 2.282 . S
N233 C234 1.328 . S
N233 C238 1.318 1_545 S
C234 N233 1.328 . S
C234 C235 1.457 1_455 S
C234 H239 0.929 . S
C235 C234 1.457 1_655 S
C235 C236 1.291 . S
C235 H248 0.931 . S
C236 C235 1.291 . S
C236 C237 1.373 1_545 S
C236 H249 0.929 . S
C237 C236 1.373 1_565 S
C237 C238 1.396 1_655 S
C237 C244 1.403 . S
C238 C228 1.476 . S
C238 N233 1.318 1_565 S
C238 C237 1.396 1_455 S
H239 C234 0.929 . S
O240 Mn216 2.385 . S
O240 C218 1.234 . S
O241 Mn216 2.209 . S
O241 Mn217 2.215 . S
O241 C218 1.283 . S
O242 Mn216 2.094 . S
O242 C220 1.240 . S
O243 Mn217 2.117 . S
O243 C220 1.264 . S
C244 C237 1.403 . S
C244 C245 1.399 . S
C244 H250 0.929 . S
C245 C225 1.449 1_655 S
C245 C244 1.399 . S
C245 H251 0.930 . S
H246 C226 0.931 . S
H247 C227 0.930 . S
H248 C235 0.931 . S
H249 C236 0.929 . S
H250 C244 0.929 . S
H251 C245 0.930 . S
Mn252 O257 2.095 . S
Mn252 O267 2.162 . S
Mn252 O268 2.297 . S
Mn252 O276 2.385 . S
Mn252 O277 2.209 . S
Mn252 O278 2.094 . S
Mn253 O258 2.121 . S
Mn253 N260 2.257 1_565 S
Mn253 N269 2.282 . S
Mn253 O277 2.215 . S
Mn253 O279 2.117 . S
C254 O276 1.234 . S
C254 O277 1.283 . S
C255 O267 1.281 . S
C255 O268 1.236 . S
C256 O278 1.240 . S
C256 O279 1.264 . S
O257 Mn252 2.095 . S
O257 C266 1.250 . S
O258 Mn253 2.121 . S
O258 C266 1.258 . S
C259 N260 1.326 . S
C259 C263 1.460 . S
C259 H265 0.929 . S
N260 Mn253 2.257 1_545 S
N260 C259 1.326 . S
N260 C264 1.362 . S
C261 C262 1.258 . S
C261 C264 1.431 . S
C261 C281 1.449 1_655 S
C262 C261 1.258 . S
C262 C263 1.477 . S
C262 H282 0.931 . S
C263 C259 1.460 . S
C263 C262 1.477 . S
C263 H283 0.930 . S
C264 N260 1.362 . S
C264 C261 1.431 . S
C264 C274 1.476 . S
H265 C259 0.929 . S
C266 O257 1.250 . S
C266 O258 1.258 . S
O267 Mn252 2.162 . S
O267 C255 1.281 . S
O268 Mn252 2.297 . S
O268 C255 1.236 . S
N269 Mn253 2.282 . S
N269 C270 1.328 . S
N269 C274 1.318 1_565 S
C270 N269 1.328 . S
C270 C271 1.457 1_655 S
C270 H275 0.929 . S
C271 C270 1.457 1_455 S
C271 C272 1.291 . S
C271 H284 0.931 . S
C272 C271 1.291 . S
C272 C273 1.373 1_565 S
C272 H285 0.929 . S
C273 C272 1.373 1_545 S
C273 C274 1.396 1_455 S
C273 C280 1.403 . S
C274 C264 1.476 . S
C274 N269 1.318 1_545 S
C274 C273 1.396 1_655 S
H275 C270 0.929 . S
O276 Mn252 2.385 . S
O276 C254 1.234 . S
O277 Mn252 2.209 . S
O277 Mn253 2.215 . S
O277 C254 1.283 . S
O278 Mn252 2.094 . S
O278 C256 1.240 . S
O279 Mn253 2.117 . S
O279 C256 1.264 . S
C280 C273 1.403 . S
C280 C281 1.399 . S
C280 H286 0.929 . S
C281 C261 1.449 1_455 S
C281 C280 1.399 . S
C281 H287 0.930 . S
H282 C262 0.931 . S
H283 C263 0.930 . S
H284 C271 0.931 . S
H285 C272 0.929 . S
H286 C280 0.929 . S
H287 C281 0.930 . S
C288 C289 1.387 . S
C288 H292 0.950 . S
C288 C297 1.390 . S
C289 C288 1.387 . S
C289 C291 1.387 1_554 S
H290 C297 0.950 . S
C291 C289 1.387 1_556 S
C291 C293 1.390 . S
C291 H295 0.950 . S
H292 C288 0.950 . S
C293 C291 1.390 . S
C293 C294 1.387 1_556 S
C293 H296 0.950 . S
C294 C293 1.387 1_554 S
C294 C297 1.387 . S
H295 C291 0.950 . S
H296 C293 0.950 . S
C297 C288 1.390 . S
C297 H290 0.950 . S
C297 C294 1.387 . S
C298 C299 1.387 1_556 S
C298 H302 0.950 . S
C298 C307 1.390 . S
C299 C298 1.387 1_554 S
C299 C301 1.387 . S
H300 C307 0.950 . S
C301 C299 1.387 . S
C301 C303 1.390 . S
C301 H305 0.950 . S
H302 C298 0.950 . S
C303 C301 1.390 . S
C303 C304 1.387 . S
C303 H306 0.950 . S
C304 C303 1.387 . S
C304 C307 1.387 1_554 S
H305 C301 0.950 . S
H306 C303 0.950 . S
C307 C298 1.390 . S
C307 H300 0.950 . S
C307 C304 1.387 1_556 S
C308 C309 1.387 . S
C308 H312 0.950 . S
C308 C317 1.390 . S
C309 C308 1.387 . S
C309 C311 1.387 . S
H310 C317 0.950 . S
C311 C309 1.387 . S
C311 C313 1.390 . S
C311 H315 0.950 . S
H312 C308 0.950 . S
C313 C311 1.390 . S
C313 C314 1.387 . S
C313 H316 0.950 . S
C314 C313 1.387 . S
C314 C317 1.387 . S
H315 C311 0.950 . S
H316 C313 0.950 . S
C317 C308 1.390 . S
C317 H310 0.950 . S
C317 C314 1.387 . S
C318 C319 1.387 . S
C318 H322 0.950 . S
C318 C327 1.390 . S
C319 C318 1.387 . S
C319 C321 1.387 . S
H320 C327 0.950 . S
C321 C319 1.387 . S
C321 C323 1.390 . S
C321 H325 0.950 . S
H322 C318 0.950 . S
C323 C321 1.390 . S
C323 C324 1.387 . S
C323 H326 0.950 . S
C324 C323 1.387 . S
C324 C327 1.387 . S
H325 C321 0.950 . S
H326 C323 0.950 . S
C327 C318 1.390 . S
C327 H320 0.950 . S
C327 C324 1.387 . S
C328 C329 1.387 . S
C328 H332 0.950 . S
C328 C337 1.390 . S
C329 C328 1.387 . S
C329 C331 1.387 . S
H330 C337 0.950 . S
C331 C329 1.387 . S
C331 C333 1.390 . S
C331 H335 0.950 . S
H332 C328 0.950 . S
C333 C331 1.390 . S
C333 C334 1.387 . S
C333 H336 0.950 . S
C334 C333 1.387 . S
C334 C337 1.387 . S
H335 C331 0.950 . S
H336 C333 0.950 . S
C337 C328 1.390 . S
C337 H330 0.950 . S
C337 C334 1.387 . S
C338 C339 1.387 . S
C338 H342 0.950 . S
C338 C347 1.390 . S
C339 C338 1.387 . S
C339 C341 1.387 . S
H340 C347 0.950 . S
C341 C339 1.387 . S
C341 C343 1.390 . S
C341 H345 0.950 . S
H342 C338 0.950 . S
C343 C341 1.390 . S
C343 C344 1.387 . S
C343 H346 0.950 . S
C344 C343 1.387 . S
C344 C347 1.387 . S
H345 C341 0.950 . S
H346 C343 0.950 . S
C347 C338 1.390 . S
C347 H340 0.950 . S
C347 C344 1.387 . S
C348 C349 1.387 . S
C348 H352 0.950 . S
C348 C357 1.390 . S
C349 C348 1.387 . S
C349 C351 1.387 . S
H350 C357 0.950 . S
C351 C349 1.387 . S
C351 C353 1.390 . S
C351 H355 0.950 . S
H352 C348 0.950 . S
C353 C351 1.390 . S
C353 C354 1.387 . S
C353 H356 0.950 . S
C354 C353 1.387 . S
C354 C357 1.387 . S
H355 C351 0.950 . S
H356 C353 0.950 . S
C357 C348 1.390 . S
C357 H350 0.950 . S
C357 C354 1.387 . S
C358 C359 1.387 . S
C358 H362 0.950 . S
C358 C367 1.390 . S
C359 C358 1.387 . S
C359 C361 1.387 . S
H360 C367 0.950 . S
C361 C359 1.387 . S
C361 C363 1.390 . S
C361 H365 0.950 . S
H362 C358 0.950 . S
C363 C361 1.390 . S
C363 C364 1.387 . S
C363 H366 0.950 . S
C364 C363 1.387 . S
C364 C367 1.387 . S
H365 C361 0.950 . S
H366 C363 0.950 . S
C367 C358 1.390 . S
C367 H360 0.950 . S
C367 C364 1.387 . S
C368 C369 1.387 . S
C368 H372 0.950 . S
C368 C377 1.390 1_565 S
C369 C368 1.387 . S
C369 C371 1.387 . S
H370 C377 0.950 . S
C371 C369 1.387 . S
C371 C373 1.390 1_565 S
C371 H375 0.950 . S
H372 C368 0.950 . S
C373 C371 1.390 1_545 S
C373 C374 1.387 . S
C373 H376 0.950 . S
C374 C373 1.387 . S
C374 C377 1.387 . S
H375 C371 0.950 . S
H376 C373 0.950 . S
C377 C368 1.390 1_545 S
C377 H370 0.950 . S
C377 C374 1.387 . S
C378 C379 1.387 . S
C378 H382 0.950 . S
C378 C387 1.390 1_565 S
C379 C378 1.387 . S
C379 C381 1.387 . S
H380 C387 0.950 . S
C381 C379 1.387 . S
C381 C383 1.390 1_565 S
C381 H385 0.950 . S
H382 C378 0.950 . S
C383 C381 1.390 1_545 S
C383 C384 1.387 . S
C383 H386 0.950 . S
C384 C383 1.387 . S
C384 C387 1.387 . S
H385 C381 0.950 . S
H386 C383 0.950 . S
C387 C378 1.390 1_545 S
C387 H380 0.950 . S
C387 C384 1.387 . S
C388 C389 1.387 . S
C388 H392 0.950 . S
C388 C397 1.390 1_565 S
C389 C388 1.387 . S
C389 C391 1.387 . S
H390 C397 0.950 . S
C391 C389 1.387 . S
C391 C393 1.390 1_565 S
C391 H395 0.950 . S
H392 C388 0.950 . S
C393 C391 1.390 1_545 S
C393 C394 1.387 . S
C393 H396 0.950 . S
C394 C393 1.387 . S
C394 C397 1.387 . S
H395 C391 0.950 . S
H396 C393 0.950 . S
C397 C388 1.390 1_545 S
C397 H390 0.950 . S
C397 C394 1.387 . S
C398 C399 1.387 . S
C398 H402 0.950 . S
C398 C407 1.390 1_565 S
C399 C398 1.387 . S
C399 C401 1.387 . S
H400 C407 0.950 . S
C401 C399 1.387 . S
C401 C403 1.390 1_565 S
C401 H405 0.950 . S
H402 C398 0.950 . S
C403 C401 1.390 1_545 S
C403 C404 1.387 . S
C403 H406 0.950 . S
C404 C403 1.387 . S
C404 C407 1.387 . S
H405 C401 0.950 . S
H406 C403 0.950 . S
C407 C398 1.390 1_545 S
C407 H400 0.950 . S
C407 C404 1.387 . S
C408 C409 1.387 . S
C408 H412 0.950 . S
C408 C417 1.390 1_565 S
C409 C408 1.387 . S
C409 C411 1.387 1_554 S
H410 C417 0.950 . S
C411 C409 1.387 1_556 S
C411 C413 1.390 1_565 S
C411 H415 0.950 . S
H412 C408 0.950 . S
C413 C411 1.390 1_545 S
C413 C414 1.387 1_556 S
C413 H416 0.950 . S
C414 C413 1.387 1_554 S
C414 C417 1.387 . S
H415 C411 0.950 . S
H416 C413 0.950 . S
C417 C408 1.390 1_545 S
C417 H410 0.950 . S
C417 C414 1.387 . S
C418 C419 1.387 . S
C418 H422 0.950 . S
C418 C427 1.390 1_565 S
C419 C418 1.387 . S
C419 C421 1.387 . S
H420 C427 0.950 . S
C421 C419 1.387 . S
C421 C423 1.390 1_565 S
C421 H425 0.950 . S
H422 C418 0.950 . S
C423 C421 1.390 1_545 S
C423 C424 1.387 . S
C423 H426 0.950 . S
C424 C423 1.387 . S
C424 C427 1.387 . S
H425 C421 0.950 . S
H426 C423 0.950 . S
C427 C418 1.390 1_545 S
C427 H420 0.950 . S
C427 C424 1.387 . S
C428 C429 1.387 1_556 S
C428 H432 0.950 . S
C428 C437 1.390 1_455 S
C429 C428 1.387 1_554 S
C429 C431 1.387 . S
H430 C437 0.950 . S
C431 C429 1.387 . S
C431 C433 1.390 1_455 S
C431 H435 0.950 . S
H432 C428 0.950 . S
C433 C431 1.390 1_655 S
C433 C434 1.387 . S
C433 H436 0.950 . S
C434 C433 1.387 . S
C434 C437 1.387 1_554 S
H435 C431 0.950 . S
H436 C433 0.950 . S
C437 C428 1.390 1_655 S
C437 H430 0.950 . S
C437 C434 1.387 1_556 S
C438 C439 1.387 . S
C438 H442 0.950 . S
C438 C447 1.390 1_455 S
C439 C438 1.387 . S
C439 C441 1.387 . S
H440 C447 0.950 . S
C441 C439 1.387 . S
C441 C443 1.390 1_455 S
C441 H445 0.950 . S
H442 C438 0.950 . S
C443 C441 1.390 1_655 S
C443 C444 1.387 . S
C443 H446 0.950 . S
C444 C443 1.387 . S
C444 C447 1.387 . S
H445 C441 0.950 . S
H446 C443 0.950 . S
C447 C438 1.390 1_655 S
C447 H440 0.950 . S
C447 C444 1.387 . S
C289 C183 1.508 . S
C294 C3 1.508 . S
C299 C147 1.508 . S
C304 C39 1.508 . S
C309 C255 1.508 . S
C314 C75 1.508 . S
C319 C219 1.508 . S
C324 C111 1.508 . S
C329 C14 1.417 . S
C334 C86 1.417 . S
C339 C50 1.417 . S
C344 C122 1.417 . S
C349 C38 1.393 . S
C354 C110 1.393 . S
C359 C2 1.390 . S
C364 C74 1.390 . S
C369 C158 1.417 . S
C374 C230 1.417 . S
C379 C266 1.417 . S
C384 C194 1.417 . S
C389 C254 1.390 . S
C394 C182 1.390 . S
C399 C146 1.390 . S
C404 C218 1.390 . S
C409 C40 1.507 . S
C414 C4 1.507 . S
C419 C76 1.507 . S
C424 C112 1.507 . S
C429 C148 1.506 . S
C434 C184 1.506 . S
C439 C220 1.507 . S
C444 C256 1.507 . S
