# Generated by pormake.
# Topology umo, (4)-cn, num edge types: 1
# Building blocks:
#     Node 0, Type 0, BuildingBlock: QUQFOY_clean_sbu_3, # of connection points: 4
#     Node 1, Type 0, BuildingBlock: QUQFOY_clean_sbu_3, # of connection points: 4
#     Node 2, Type 0, BuildingBlock: QUQFOY_clean_sbu_3, # of connection points: 4
#     Node 3, Type 0, BuildingBlock: QUQFOY_clean_sbu_3, # of connection points: 4
#     Node 4, Type 0, BuildingBlock: QUQFOY_clean_sbu_3, # of connection points: 4
#     Node 5, Type 0, BuildingBlock: QUQFOY_clean_sbu_3, # of connection points: 4
#     Node 6, Type 0, BuildingBlock: QUQFOY_clean_sbu_3, # of connection points: 4
#     Node 7, Type 0, BuildingBlock: QUQFOY_clean_sbu_3, # of connection points: 4
#     Node 8, Type 0, BuildingBlock: QUQFOY_clean_sbu_3, # of connection points: 4
#     Node 9, Type 0, BuildingBlock: QUQFOY_clean_sbu_3, # of connection points: 4
#     Node 10, Type 0, BuildingBlock: QUQFOY_clean_sbu_3, # of connection points: 4
#     Node 11, Type 0, BuildingBlock: QUQFOY_clean_sbu_3, # of connection points: 4
#     Edge 12, Type (0, 0), BuildingBlock: XIVTED_clean_linker_0, # of connection points: 2
#     Edge 13, Type (0, 0), BuildingBlock: XIVTED_clean_linker_0, # of connection points: 2
#     Edge 14, Type (0, 0), BuildingBlock: XIVTED_clean_linker_0, # of connection points: 2
#     Edge 15, Type (0, 0), BuildingBlock: XIVTED_clean_linker_0, # of connection points: 2
#     Edge 16, Type (0, 0), BuildingBlock: XIVTED_clean_linker_0, # of connection points: 2
#     Edge 17, Type (0, 0), BuildingBlock: XIVTED_clean_linker_0, # of connection points: 2
#     Edge 18, Type (0, 0), BuildingBlock: XIVTED_clean_linker_0, # of connection points: 2
#     Edge 19, Type (0, 0), BuildingBlock: XIVTED_clean_linker_0, # of connection points: 2
#     Edge 20, Type (0, 0), BuildingBlock: XIVTED_clean_linker_0, # of connection points: 2
#     Edge 21, Type (0, 0), BuildingBlock: XIVTED_clean_linker_0, # of connection points: 2
#     Edge 22, Type (0, 0), BuildingBlock: XIVTED_clean_linker_0, # of connection points: 2
#     Edge 23, Type (0, 0), BuildingBlock: XIVTED_clean_linker_0, # of connection points: 2
#     Edge 24, Type (0, 0), BuildingBlock: XIVTED_clean_linker_0, # of connection points: 2
#     Edge 25, Type (0, 0), BuildingBlock: XIVTED_clean_linker_0, # of connection points: 2
#     Edge 26, Type (0, 0), BuildingBlock: XIVTED_clean_linker_0, # of connection points: 2
#     Edge 27, Type (0, 0), BuildingBlock: XIVTED_clean_linker_0, # of connection points: 2
#     Edge 28, Type (0, 0), BuildingBlock: XIVTED_clean_linker_0, # of connection points: 2
#     Edge 29, Type (0, 0), BuildingBlock: XIVTED_clean_linker_0, # of connection points: 2
#     Edge 30, Type (0, 0), BuildingBlock: XIVTED_clean_linker_0, # of connection points: 2
#     Edge 31, Type (0, 0), BuildingBlock: XIVTED_clean_linker_0, # of connection points: 2
#     Edge 32, Type (0, 0), BuildingBlock: XIVTED_clean_linker_0, # of connection points: 2
#     Edge 33, Type (0, 0), BuildingBlock: XIVTED_clean_linker_0, # of connection points: 2
#     Edge 34, Type (0, 0), BuildingBlock: XIVTED_clean_linker_0, # of connection points: 2
#     Edge 35, Type (0, 0), BuildingBlock: XIVTED_clean_linker_0, # of connection points: 2
# Relax obj value: 0.165
# Max RMSD: 0.248
# Mean RMSD: 0.247
data_MOF--net-umo--node1-QUQFOY_clean_sbu_3--edge1-XIVTED_clean_linker_0
_symmetry_space_group_name_H-M    P1
_symmetry_Int_Tables_number       1
_symmetry_cell_setting            triclinic
loop_
_symmetry_equiv_pos_as_xyz
'x, y, z'
_cell_length_a     52.153692
_cell_length_b     51.973233
_cell_length_c     38.685855
_cell_angle_alpha  89.87162
_cell_angle_beta   89.757006
_cell_angle_gamma 120.21898
loop_
_atom_site_label
_atom_site_type_symbol
_atom_site_fract_x
_atom_site_fract_y
_atom_site_fract_z
_atom_type_partial_charge
C0 C 0.17574 0.49911 0.33768 0.0
O1 O 0.19148 0.50595 0.36467 0.0
Cd2 Cd 0.18505 0.5368 0.40628 0.0
O3 O 0.15428 0.50414 0.33647 0.0
Cd4 Cd 0.13018 0.52199 0.37845 0.0
C5 C 0.17966 0.5892 0.35797 0.0
O6 O 0.14075 0.51913 0.44105 0.0
O7 O 0.13426 0.5551 0.42381 0.0
O8 O 0.08266 0.47579 0.37917 0.0
C9 C 0.13632 0.54046 0.44876 0.0
O10 O 0.19497 0.58293 0.37815 0.0
C11 C 0.06835 0.48753 0.36697 0.0
O12 O 0.1533 0.5698 0.35011 0.0
O13 O 0.08306 0.51504 0.35942 0.0
C14 C 0.6506 0.17774 0.4952 0.0
O15 O 0.66416 0.18769 0.5235 0.0
Cd16 Cd 0.63629 0.18187 0.57632 0.0
O17 O 0.62252 0.16157 0.49548 0.0
Cd18 Cd 0.58473 0.14115 0.54215 0.0
C19 C 0.58722 0.2039 0.55343 0.0
O20 O 0.59951 0.13554 0.60223 0.0
O21 O 0.5651 0.14682 0.5946 0.0
O22 O 0.56799 0.08961 0.53318 0.0
C23 C 0.5781 0.13797 0.61483 0.0
O24 O 0.6095 0.20851 0.57147 0.0
C25 C 0.54165 0.08231 0.52505 0.0
O26 O 0.57419 0.18113 0.53408 0.0
O27 O 0.53583 0.10319 0.5217 0.0
C28 C 0.41148 0.65398 0.67524 0.0
O29 O 0.41472 0.66308 0.70623 0.0
Cd30 Cd 0.40151 0.62881 0.75558 0.0
O31 O 0.40314 0.6269 0.66928 0.0
Cd32 Cd 0.39172 0.58171 0.70135 0.0
C33 C 0.33052 0.57527 0.73493 0.0
O34 O 0.41854 0.5937 0.75755 0.0
O35 O 0.38054 0.54967 0.74894 0.0
O36 O 0.42919 0.58035 0.6673 0.0
C37 C 0.40112 0.56728 0.76882 0.0
O38 O 0.3486 0.59552 0.75516 0.0
C39 C 0.41264 0.55439 0.65543 0.0
O40 O 0.33964 0.56754 0.70844 0.0
O41 O 0.3853 0.54113 0.66384 0.0
C42 C 0.72467 0.44841 0.84847 0.0
O43 O 0.7112 0.44285 0.8773 0.0
Cd44 Cd 0.7245 0.41973 0.92381 0.0
O45 O 0.74655 0.44429 0.84516 0.0
Cd46 Cd 0.77427 0.42846 0.88212 0.0
C47 C 0.72122 0.3597 0.88374 0.0
O48 O 0.77385 0.43738 0.94593 0.0
O49 O 0.77756 0.39991 0.92743 0.0
O50 O 0.82141 0.47298 0.87118 0.0
C51 C 0.77835 0.41582 0.95256 0.0
O52 O 0.71166 0.36979 0.90737 0.0
C53 C 0.83272 0.45964 0.85542 0.0
O54 O 0.74281 0.37715 0.86428 0.0
O55 O 0.81652 0.43168 0.8516 0.0
C56 C 0.24464 0.76007 0.02914 0.0
O57 O 0.23141 0.74852 0.05742 0.0
Cd58 Cd 0.26153 0.75502 0.10855 0.0
O59 O 0.27258 0.7771 0.02907 0.0
Cd60 Cd 0.31166 0.79682 0.07307 0.0
C61 C 0.30938 0.73366 0.07942 0.0
O62 O 0.29899 0.80125 0.13442 0.0
O63 O 0.33397 0.79132 0.1232 0.0
O64 O 0.32724 0.84811 0.06284 0.0
C65 C 0.32125 0.7994 0.14496 0.0
O66 O 0.28801 0.72838 0.09976 0.0
C67 C 0.35281 0.85526 0.05135 0.0
O68 O 0.32144 0.75704 0.06069 0.0
O69 O 0.35894 0.83459 0.04833 0.0
C70 C 0.50971 0.29084 0.15499 0.0
O71 O 0.51291 0.28251 0.18471 0.0
Cd72 Cd 0.53237 0.31717 0.23286 0.0
O73 O 0.51401 0.31698 0.15088 0.0
Cd74 Cd 0.52591 0.35982 0.18865 0.0
C75 C 0.59448 0.3766 0.19735 0.0
O76 O 0.50979 0.34533 0.2501 0.0
O77 O 0.54654 0.38951 0.23855 0.0
O78 O 0.48082 0.35847 0.17318 0.0
C79 C 0.52837 0.37149 0.26065 0.0
O80 O 0.58262 0.35587 0.21985 0.0
C81 C 0.49325 0.38479 0.16116 0.0
O82 O 0.57871 0.38161 0.17641 0.0
O83 O 0.52145 0.39931 0.16019 0.0
C84 C 0.4125 0.77243 0.4693 0.0
O85 O 0.41667 0.76638 0.43864 0.0
Cd86 Cd 0.40991 0.78755 0.38507 0.0
O87 O 0.40457 0.79159 0.47459 0.0
Cd88 Cd 0.39358 0.82643 0.44373 0.0
C89 C 0.33767 0.77308 0.39728 0.0
O90 O 0.42486 0.83797 0.39315 0.0
O91 O 0.39976 0.86024 0.39714 0.0
O92 O 0.4241 0.86053 0.48697 0.0
C93 C 0.41443 0.8525 0.37802 0.0
O94 O 0.35776 0.77071 0.38119 0.0
C95 C 0.40664 0.87019 0.49402 0.0
O96 O 0.34341 0.78926 0.42422 0.0
O97 O 0.38156 0.85783 0.47905 0.0
C98 C 0.63438 0.45907 0.62604 0.0
O99 O 0.6466 0.45834 0.5979 0.0
Cd100 Cd 0.61869 0.43735 0.54499 0.0
O101 O 0.60717 0.45176 0.62629 0.0
Cd102 Cd 0.56758 0.4363 0.58275 0.0
C103 C 0.56201 0.37125 0.57676 0.0
O104 O 0.58582 0.45244 0.5223 0.0
O105 O 0.54335 0.41237 0.53123 0.0
O106 O 0.55841 0.47656 0.59241 0.0
C107 C 0.56184 0.43111 0.5099 0.0
O108 O 0.58421 0.38544 0.55665 0.0
C109 C 0.53181 0.46018 0.60266 0.0
O110 O 0.55204 0.38459 0.59518 0.0
O111 O 0.52229 0.43245 0.60578 0.0
C112 C 0.15619 0.66721 0.80289 0.0
O113 O 0.17209 0.67635 0.77572 0.0
Cd114 Cd 0.16286 0.64492 0.72504 0.0
O115 O 0.13305 0.64156 0.80334 0.0
Cd116 Cd 0.10596 0.59982 0.76316 0.0
C117 C 0.15901 0.58346 0.76337 0.0
O118 O 0.11406 0.6167 0.70138 0.0
O119 O 0.10049 0.57088 0.71376 0.0
O120 O 0.05873 0.59706 0.77322 0.0
C121 C 0.10678 0.5906 0.69081 0.0
O122 O 0.17121 0.60499 0.74192 0.0
C123 C 0.04652 0.57117 0.78656 0.0
O124 O 0.13569 0.57783 0.78012 0.0
O125 O 0.0623 0.55901 0.78955 0.0
C126 C 0.49473 0.16754 0.94848 0.0
O127 O 0.49393 0.17598 0.9178 0.0
Cd128 Cd 0.50362 0.15497 0.86583 0.0
O129 O 0.49928 0.146 0.95366 0.0
Cd130 Cd 0.50727 0.1091 0.92345 0.0
C131 C 0.57131 0.16354 0.89056 0.0
O132 O 0.48231 0.10267 0.86879 0.0
O133 O 0.50886 0.08181 0.87414 0.0
O134 O 0.46888 0.07335 0.95997 0.0
C135 C 0.49443 0.08937 0.8544 0.0
O136 O 0.5552 0.1689 0.87052 0.0
C137 C 0.48373 0.06192 0.97137 0.0
O138 O 0.56017 0.14491 0.91551 0.0
O139 O 0.51047 0.07315 0.96105 0.0
C140 C 0.26776 0.47898 0.12132 0.0
O141 O 0.25761 0.47919 0.09163 0.0
Cd142 Cd 0.29081 0.49972 0.04142 0.0
O143 O 0.29496 0.48687 0.12451 0.0
Cd144 Cd 0.33859 0.50341 0.08707 0.0
C145 C 0.34075 0.56682 0.07598 0.0
O146 O 0.32757 0.48685 0.0258 0.0
O147 O 0.36827 0.52769 0.03831 0.0
O148 O 0.34544 0.46328 0.10539 0.0
C149 C 0.35259 0.50861 0.0158 0.0
O150 O 0.32147 0.55213 0.05304 0.0
C151 C 0.37119 0.47973 0.11767 0.0
O152 O 0.34939 0.55405 0.09728 0.0
O153 O 0.38142 0.50771 0.11729 0.0
C154 C 0.7516 0.27593 0.27295 0.0
O155 O 0.73968 0.2684 0.24327 0.0
Cd156 Cd 0.75861 0.29848 0.18989 0.0
O157 O 0.77527 0.3008 0.27703 0.0
Cd158 Cd 0.81115 0.34577 0.2458 0.0
C159 C 0.76073 0.36308 0.21585 0.0
O160 O 0.81107 0.32681 0.18879 0.0
O161 O 0.84026 0.37374 0.19638 0.0
O162 O 0.85114 0.34625 0.27737 0.0
C163 C 0.82687 0.35255 0.17526 0.0
O164 O 0.75134 0.34048 0.19621 0.0
C165 C 0.85968 0.37145 0.29118 0.0
O166 O 0.77996 0.36855 0.23931 0.0
O167 O 0.84496 0.38427 0.28443 0.0
H168 H 0.16546 0.62641 0.38955 0.0
H169 H 0.32163 0.75869 0.33059 0.0
H170 H 0.22133 0.62262 0.30983 0.0
H171 H 0.28483 0.74842 0.43319 0.0
H172 H 0.27344 0.71987 0.31002 0.0
H173 H 0.19749 0.68073 0.39139 0.0
C174 C 0.18367 0.63728 0.37124 0.0
C175 C 0.19108 0.62044 0.34953 0.0
C176 C 0.27569 0.72665 0.33683 0.0
C177 C 0.22762 0.68181 0.35182 0.0
C178 C 0.30317 0.74863 0.34866 0.0
C179 C 0.30731 0.75581 0.38392 0.0
C180 C 0.25238 0.71155 0.3605 0.0
C181 C 0.28258 0.74295 0.40597 0.0
C182 C 0.20197 0.66812 0.37249 0.0
C183 C 0.21507 0.6351 0.32681 0.0
N184 N 0.25617 0.72073 0.39406 0.0
N185 N 0.23284 0.66507 0.32887 0.0
H186 H 0.59153 0.2347 0.6114 0.0
H187 H 0.5399 0.33404 0.52279 0.0
H188 H 0.55178 0.21448 0.51018 0.0
H189 H 0.55505 0.33609 0.63237 0.0
H190 H 0.53416 0.28453 0.52001 0.0
H191 H 0.57087 0.26664 0.62197 0.0
C192 C 0.57853 0.23715 0.59126 0.0
C193 C 0.57412 0.22276 0.5594 0.0
C194 C 0.53776 0.29526 0.54491 0.0
C195 C 0.55012 0.25916 0.57149 0.0
C196 C 0.54091 0.32342 0.54649 0.0
C197 C 0.54834 0.33895 0.57776 0.0
C198 C 0.54308 0.28323 0.57466 0.0
C199 C 0.54946 0.32463 0.6078 0.0
C200 C 0.56631 0.25504 0.59755 0.0
C201 C 0.5562 0.22579 0.53478 0.0
N202 N 0.54769 0.29773 0.60537 0.0
N203 N 0.54531 0.24422 0.54107 0.0
H204 H 0.16127 0.54929 0.71294 0.0
H205 H 0.30552 0.56912 0.79818 0.0
H206 H 0.18612 0.57498 0.81875 0.0
H207 H 0.28321 0.54855 0.69064 0.0
H208 H 0.25413 0.55412 0.81091 0.0
H209 H 0.19609 0.53097 0.71003 0.0
C210 C 0.17342 0.55003 0.73595 0.0
C211 C 0.17141 0.5639 0.76598 0.0
C212 C 0.26026 0.55235 0.78461 0.0
C213 C 0.21193 0.54428 0.76251 0.0
C214 C 0.28964 0.5611 0.77726 0.0
C215 C 0.29871 0.56107 0.74308 0.0
C216 C 0.23994 0.5441 0.75745 0.0
C217 C 0.27717 0.54953 0.7172 0.0
C218 C 0.19337 0.53974 0.73426 0.0
C219 C 0.18736 0.5645 0.79514 0.0
N220 N 0.24881 0.54217 0.72479 0.0
N221 N 0.20763 0.5555 0.79243 0.0
H222 H 0.7083 0.32339 0.93868 0.0
H223 H 0.60239 0.18666 0.83106 0.0
H224 H 0.70934 0.32348 0.82725 0.0
H225 H 0.61333 0.18407 0.94119 0.0
H226 H 0.65123 0.23119 0.82706 0.0
H227 H 0.68394 0.26941 0.93878 0.0
C228 C 0.70343 0.31187 0.91416 0.0
C229 C 0.70972 0.32757 0.88287 0.0
C230 C 0.64345 0.22047 0.852 0.0
C231 C 0.68151 0.26575 0.88269 0.0
C232 C 0.61557 0.19502 0.85428 0.0
C233 C 0.60356 0.18252 0.8867 0.0
C234 C 0.65889 0.23374 0.88249 0.0
C235 C 0.62162 0.19355 0.91583 0.0
C236 C 0.68981 0.28105 0.91419 0.0
C237 C 0.70407 0.31191 0.85185 0.0
N238 N 0.64814 0.21919 0.9132 0.0
N239 N 0.68947 0.28164 0.8525 0.0
H240 H 0.30527 0.69745 0.13226 0.0
H241 H 0.35502 0.60579 0.02314 0.0
H242 H 0.34359 0.72662 0.03052 0.0
H243 H 0.34889 0.59938 0.13431 0.0
H244 H 0.35779 0.65399 0.02605 0.0
H245 H 0.32571 0.66455 0.13473 0.0
C246 C 0.31795 0.69683 0.11035 0.0
C247 C 0.32214 0.71415 0.08073 0.0
C248 C 0.35669 0.64252 0.04991 0.0
C249 C 0.34584 0.67673 0.08356 0.0
C250 C 0.3551 0.61506 0.04824 0.0
C251 C 0.35114 0.59861 0.07853 0.0
C252 C 0.3534 0.653 0.08203 0.0
C253 C 0.35168 0.61144 0.11043 0.0
C254 C 0.33001 0.67838 0.11201 0.0
C255 C 0.33947 0.71318 0.05356 0.0
N256 N 0.35191 0.63767 0.11134 0.0
N257 N 0.35027 0.69428 0.05534 0.0
H258 H 0.75186 0.39661 0.26401 0.0
H259 H 0.63136 0.39405 0.14081 0.0
H260 H 0.74231 0.37473 0.15558 0.0
H261 H 0.63094 0.39887 0.252 0.0
H262 H 0.68418 0.40931 0.14246 0.0
H263 H 0.72087 0.41928 0.25609 0.0
C264 C 0.74383 0.39725 0.23843 0.0
C265 C 0.74844 0.38275 0.21071 0.0
C266 C 0.67275 0.40796 0.16643 0.0
C267 C 0.71325 0.40838 0.20144 0.0
C268 C 0.64271 0.39936 0.16541 0.0
C269 C 0.62691 0.39431 0.19638 0.0
C270 C 0.68657 0.41121 0.19862 0.0
C271 C 0.64241 0.40168 0.22764 0.0
C272 C 0.72622 0.41019 0.23386 0.0
C273 C 0.73814 0.38466 0.17791 0.0
N274 N 0.6713 0.40916 0.22806 0.0
N275 N 0.72049 0.39664 0.17429 0.0
H276 H 0.09519 0.53717 0.66537 0.0
H277 H 0.13911 0.59161 0.47026 0.0
H278 H 0.12594 0.62781 0.63342 0.0
H279 H 0.12796 0.50862 0.50897 0.0
H280 H 0.13198 0.60455 0.52866 0.0
H281 H 0.10374 0.52558 0.60723 0.0
C282 C 0.1036 0.5547 0.64605 0.0
C283 C 0.10989 0.58362 0.65443 0.0
C284 C 0.13124 0.58359 0.52447 0.0
C285 C 0.11987 0.57027 0.58733 0.0
C286 C 0.13527 0.5761 0.49111 0.0
C287 C 0.13402 0.54887 0.48469 0.0
C288 C 0.12558 0.56359 0.55173 0.0
C289 C 0.12914 0.52982 0.51275 0.0
C290 C 0.10863 0.54801 0.6128 0.0
C291 C 0.12073 0.60525 0.62813 0.0
N292 N 0.12488 0.53746 0.54503 0.0
N293 N 0.12537 0.59811 0.5957 0.0
H294 H 0.58644 0.10319 0.66267 0.0
H295 H 0.48452 0.12163 0.8053 0.0
H296 H 0.54504 0.15646 0.64895 0.0
H297 H 0.52038 0.06336 0.81851 0.0
H298 H 0.50512 0.13301 0.7467 0.0
H299 H 0.56293 0.08826 0.72018 0.0
C300 C 0.57274 0.11197 0.67189 0.0
C301 C 0.56761 0.13097 0.65102 0.0
C302 C 0.50825 0.1175 0.76231 0.0
C303 C 0.54041 0.11381 0.7161 0.0
C304 C 0.4962 0.11078 0.79566 0.0
C305 C 0.50092 0.09172 0.81692 0.0
C306 C 0.5252 0.10512 0.75021 0.0
C307 C 0.51641 0.0784 0.80307 0.0
C308 C 0.5591 0.10327 0.70449 0.0
C309 C 0.54945 0.14156 0.66405 0.0
N310 N 0.52826 0.08559 0.77075 0.0
N311 N 0.53652 0.13282 0.69561 0.0
H312 H 0.32501 0.47446 0.95837 0.0
H313 H 0.43076 0.60172 0.82533 0.0
H314 H 0.40259 0.55612 -0.0101 0.0
H315 H 0.3695 0.51125 0.79486 0.0
H316 H 0.42165 0.58553 0.88608 0.0
H317 H 0.341 0.48748 0.89793 0.0
C318 C 0.34544 0.49493 0.95263 0.0
C319 C 0.36232 0.51426 0.9792 0.0
C320 C 0.41053 0.5692 0.86598 0.0
C321 C 0.38064 0.52945 0.91038 0.0
C322 C 0.41587 0.57844 0.83136 0.0
C323 C 0.40065 0.55792 0.80505 0.0
C324 C 0.38965 0.53936 0.87415 0.0
C325 C 0.38145 0.52797 0.81433 0.0
C326 C 0.35462 0.50237 0.91819 0.0
C327 C 0.38871 0.54056 0.97029 0.0
N328 N 0.37621 0.51969 0.84805 0.0
N329 N 0.39688 0.5475 0.93669 0.0
H330 H 0.85766 0.4061 0.14262 0.0
H331 H 0.75456 0.35966 0.97662 0.0
H332 H 0.78396 0.31706 0.12805 0.0
H333 H 0.81053 0.45101 0.00739 0.0
H334 H 0.76646 0.34319 0.03017 0.0
H335 H 0.84372 0.42204 0.09023 0.0
C336 C 0.83875 0.38973 0.12811 0.0
C337 C 0.82186 0.36015 0.13993 0.0
C338 C 0.77591 0.36683 0.02551 0.0
C339 C 0.80559 0.37853 0.07991 0.0
C340 C 0.76906 0.37627 -0.00498 0.0
C341 C 0.7816 0.40676 -0.01233 0.0
C342 C 0.79595 0.38801 0.04867 0.0
C343 C 0.80023 0.42733 0.01227 0.0
C344 C 0.83065 0.39899 0.09837 0.0
C345 C 0.79767 0.34002 0.11993 0.0
N346 N 0.80718 0.41756 0.04158 0.0
N347 N 0.79019 0.34962 0.09093 0.0
H348 H 0.31546 0.83508 0.19357 0.0
H349 H 0.42126 0.81736 0.32976 0.0
H350 H 0.35549 0.78097 0.17629 0.0
H351 H 0.39171 0.88096 0.34117 0.0
H352 H 0.39812 0.80442 0.27274 0.0
H353 H 0.34194 0.85119 0.24889 0.0
C354 C 0.32946 0.82633 0.20162 0.0
C355 C 0.33335 0.80677 0.18033 0.0
C356 C 0.39698 0.82146 0.28759 0.0
C357 C 0.36396 0.82529 0.24293 0.0
C358 C 0.41046 0.82903 0.32005 0.0
C359 C 0.40804 0.84992 0.34053 0.0
C360 C 0.38098 0.83486 0.27564 0.0
C361 C 0.39382 0.86443 0.32643 0.0
C362 C 0.34482 0.83573 0.23293 0.0
C363 C 0.35199 0.79627 0.1918 0.0
N364 N 0.3805 0.85636 0.29512 0.0
N365 N 0.36658 0.80566 0.2222 0.0
H366 H 0.49354 0.33981 0.31646 0.0
H367 H 0.59849 0.46201 0.45479 0.0
H368 H 0.57042 0.42384 0.28838 0.0
H369 H 0.51291 0.38608 0.47981 0.0
H370 H 0.58935 0.44812 0.39353 0.0
H371 H 0.501 0.35579 0.37703 0.0
C372 C 0.51188 0.36158 0.32299 0.0
C373 C 0.53135 0.38045 0.29735 0.0
C374 C 0.57254 0.43465 0.41251 0.0
C375 C 0.54018 0.39884 0.36637 0.0
C376 C 0.57776 0.44263 0.44741 0.0
C377 C 0.55654 0.42517 0.47246 0.0
C378 C 0.54602 0.40896 0.40278 0.0
C379 C 0.53002 0.40018 0.46146 0.0
C380 C 0.51614 0.37074 0.35751 0.0
C381 C 0.55481 0.4085 0.30727 0.0
N382 N 0.52563 0.39275 0.42756 0.0
N383 N 0.55863 0.41676 0.34094 0.0
H384 H 0.8939 0.34852 0.31299 0.0
H385 H 0.03127 0.50841 0.351 0.0
H386 H 0.88835 0.42865 0.31466 0.0
H387 H 0.03208 0.42713 0.3715 0.0
H388 H -0.02189 0.4792 0.34019 0.0
H389 H 0.94342 0.37618 0.338 0.0
C390 C 0.90295 0.37184 0.31909 0.0
C391 C 0.88723 0.38646 0.31131 0.0
C392 C -0.01016 0.46773 0.34734 0.0
C393 C 0.94388 0.41824 0.33944 0.0
C394 C 0.02021 0.48439 0.35331 0.0
C395 C 0.03609 0.4701 0.36176 0.0
C396 C -0.02469 0.43655 0.34943 0.0
C397 C 0.02064 0.43898 0.36479 0.0
C398 C 0.9312 0.38761 0.33335 0.0
C399 C 0.89984 0.41659 0.31997 0.0
N400 N -0.0089 0.42317 0.35826 0.0
N401 N 0.92764 0.43161 0.33313 0.0
H402 H 0.45067 0.89317 0.54153 0.0
H403 H 0.48289 0.0583 0.50769 0.0
H404 H 0.38959 0.91178 0.48744 0.0
H405 H 0.54724 0.03454 0.54103 0.0
H406 H 0.4443 0.00547 0.51055 0.0
H407 H 0.48066 0.94575 0.55583 0.0
C408 C 0.44312 0.90825 0.53356 0.0
C409 C 0.41803 0.89836 0.51273 0.0
C410 C 0.46689 0.01197 0.51733 0.0
C411 C 0.4527 0.95857 0.5278 0.0
C412 C 0.48892 0.04199 0.51539 0.0
C413 C 0.51835 0.05072 0.52369 0.0
C414 C 0.47445 -0.0092 0.528 0.0
C415 C 0.52493 0.02881 0.53397 0.0
C416 C 0.4604 0.9383 0.54138 0.0
C417 C 0.40899 0.91867 0.50334 0.0
N418 N 0.50316 -8e-05 0.53582 0.0
N419 N 0.42678 0.9481 0.51022 0.0
H420 H 0.46508 0.5801 0.6207 0.0
H421 H 0.47297 0.43081 0.62121 0.0
H422 H 0.39092 0.49449 0.64954 0.0
H423 H 0.54613 0.51793 0.59492 0.0
H424 H 0.44067 0.45222 0.62621 0.0
H425 H 0.49252 0.55585 0.60291 0.0
C426 C 0.45438 0.55607 0.62263 0.0
C427 C 0.42592 0.53926 0.63699 0.0
C428 C 0.46378 0.46658 0.61926 0.0
C429 C 0.45741 0.51141 0.61762 0.0
C430 C 0.48226 0.45444 0.61668 0.0
C431 C 0.51231 0.4727 0.60796 0.0
C432 C 0.47553 0.49713 0.61303 0.0
C433 C 0.52315 0.50307 0.60198 0.0
C434 C 0.4701 0.54223 0.61268 0.0
C435 C 0.41292 0.50821 0.63867 0.0
N436 N 0.50478 0.51431 0.6047 0.0
N437 N 0.42901 0.49526 0.62968 0.0
H438 H 0.00944 0.59384 0.79202 0.0
H439 H 0.86604 0.43622 0.83186 0.0
H440 H 0.01213 0.51265 0.80443 0.0
H441 H 0.86983 0.5198 0.85165 0.0
H442 H 0.9183 0.4636 0.81466 0.0
H443 H -0.04325 0.56665 0.8076 0.0
C444 C -0.00105 0.57032 0.7981 0.0
C445 C 0.0151 0.55544 0.79702 0.0
C446 C 0.90765 0.47591 0.82275 0.0
C447 C -0.04497 0.52429 0.81444 0.0
C448 C 0.87783 0.46033 0.83238 0.0
C449 C 0.86369 0.47581 0.84327 0.0
C450 C 0.92327 0.50715 0.8237 0.0
C451 C 0.87998 0.50703 0.84354 0.0
C452 C -0.03106 0.55486 0.807 0.0
C453 C 0.00048 0.52498 0.8051 0.0
N454 N 0.90896 0.52172 0.83385 0.0
N455 N -0.02881 0.51034 0.81332 0.0
H456 H 0.43342 0.0417 0.00956 0.0
H457 H 0.40982 0.87841 0.02721 0.0
H458 H 0.50032 0.0201 0.98041 0.0
H459 H 0.34563 0.90327 0.05828 0.0
H460 H 0.44553 0.9309 0.01509 0.0
H461 H 0.40385 -0.00776 0.03464 0.0
C462 C 0.44207 0.02662 0.00895 0.0
C463 C 0.46909 0.03472 -0.00747 0.0
C464 C 0.42368 0.92482 0.02474 0.0
C465 C 0.43511 -0.02215 0.02044 0.0
C466 C 0.40326 0.89489 0.03144 0.0
C467 C 0.37465 0.8865 0.04336 0.0
C468 C 0.4153 0.94631 0.03003 0.0
C469 C 0.36734 0.9087 0.04878 0.0
C470 C 0.42514 -0.00167 0.02317 0.0
C471 C 0.47949 0.01456 -0.00726 0.0
N472 N 0.3875 0.93756 0.04192 0.0
N473 N 0.46219 -0.01327 0.00598 0.0
H474 H 0.43066 0.50882 0.13186 0.0
H475 H 0.43325 0.3573 0.15511 0.0
H476 H 0.35298 0.42112 0.12706 0.0
H477 H 0.51272 0.44356 0.14757 0.0
H478 H 0.4035 0.38084 0.147 0.0
H479 H 0.46111 0.4859 0.1418 0.0
C480 C 0.41998 0.48478 0.13339 0.0
C481 C 0.38931 0.4668 0.12849 0.0
C482 C 0.42744 0.39466 0.14691 0.0
C483 C 0.42389 0.44056 0.13933 0.0
C484 C 0.44445 0.38121 0.15139 0.0
C485 C 0.47548 0.39854 0.15201 0.0
C486 C 0.44154 0.42571 0.1432 0.0
C487 C 0.48884 0.4294 0.14711 0.0
C488 C 0.43738 0.47173 0.13875 0.0
C489 C 0.37658 0.4358 0.13052 0.0
N490 N 0.47174 0.44208 0.1431 0.0
N491 N 0.39396 0.42367 0.13565 0.0
H492 H 0.15038 0.48743 0.27324 0.0
H493 H 0.28081 0.47054 0.18726 0.0
H494 H 0.2207 0.48652 0.33068 0.0
H495 H 0.21314 0.47486 0.12799 0.0
H496 H 0.25476 0.46917 0.24029 0.0
H497 H 0.16876 0.47598 0.22058 0.0
C498 C 0.16944 0.48444 0.27493 0.0
C499 C 0.18415 0.48824 0.30652 0.0
C500 C 0.24537 0.47009 0.21572 0.0
C501 C 0.20544 0.47527 0.24609 0.0
C502 C 0.26023 0.4708 0.18533 0.0
C503 C 0.24935 0.47312 0.153 0.0
C504 C 0.21944 0.47192 0.21403 0.0
C505 C 0.22243 0.47316 0.15228 0.0
C506 C 0.17997 0.47796 0.24477 0.0
C507 C 0.20872 0.48402 0.30697 0.0
N508 N 0.2086 0.47296 0.18234 0.0
N509 N 0.2187 0.47803 0.27723 0.0
H510 H 0.69564 0.22642 0.27938 0.0
H511 H 0.71038 0.21468 0.48443 0.0
H512 H 0.77522 0.28197 0.33735 0.0
H513 H 0.62812 0.16317 0.42947 0.0
H514 H 0.73579 0.23493 0.42939 0.0
H515 H 0.67184 0.19864 0.33261 0.0
C516 C 0.70822 0.23259 0.30314 0.0
C517 C 0.73742 0.25677 0.30385 0.0
C518 C 0.71221 0.21901 0.4293 0.0
C519 C 0.71031 0.22513 0.36487 0.0
C520 C 0.69768 0.20734 0.46079 0.0
C521 C 0.66697 0.18733 0.46174 0.0
C522 C 0.69599 0.21073 0.39836 0.0
C523 C 0.65178 0.17864 0.4301 0.0
C524 C 0.69459 0.21677 0.33356 0.0
C525 C 0.7526 0.26371 0.33549 0.0
N526 N 0.66638 0.19056 0.39977 0.0
N527 N 0.73885 0.24812 0.36462 0.0
H528 H 0.41903 0.71044 0.67618 0.0
H529 H 0.42185 0.72481 0.46926 0.0
H530 H 0.41424 0.6434 0.60653 0.0
H531 H 0.41149 0.78423 0.53817 0.0
H532 H 0.42518 0.69796 0.51951 0.0
H533 H 0.42251 0.74111 0.62611 0.0
C534 C 0.41897 0.70227 0.65043 0.0
C535 C 0.41611 0.67417 0.64563 0.0
C536 C 0.42229 0.71696 0.52362 0.0
C537 C 0.42005 0.70913 0.58821 0.0
C538 C 0.42044 0.73234 0.4949 0.0
C539 C 0.41615 0.75672 0.49938 0.0
C540 C 0.42 0.72606 0.55714 0.0
C541 C 0.41455 0.76544 0.53335 0.0
C542 C 0.42085 0.71974 0.62184 0.0
C543 C 0.41616 0.66477 0.61158 0.0
N544 N 0.4164 0.75011 0.56085 0.0
N545 N 0.41799 0.68213 0.58427 0.0
H546 H 0.67339 0.45098 0.8416 0.0
H547 H 0.69221 0.4734 0.63622 0.0
H548 H 0.75089 0.46527 0.78469 0.0
H549 H 0.61371 0.45798 0.69177 0.0
H550 H 0.71629 0.47651 0.69131 0.0
H551 H 0.65344 0.45937 0.78819 0.0
C552 C 0.6864 0.45626 0.81804 0.0
C553 C 0.71376 0.45713 0.81767 0.0
C554 C 0.69389 0.47274 0.6915 0.0
C555 C 0.69095 0.46655 0.75634 0.0
C556 C 0.68013 0.47104 0.65997 0.0
C557 C 0.65074 0.46516 0.65921 0.0
C558 C 0.67818 0.46838 0.72264 0.0
C559 C 0.63631 0.46239 0.69098 0.0
C560 C 0.67495 0.46096 0.7875 0.0
C561 C 0.72959 0.46409 0.78627 0.0
N562 N 0.65005 0.46373 0.72133 0.0
N563 N 0.71788 0.46827 0.75693 0.0
H564 H 0.26603 0.78373 0.96502 0.0
H565 H 0.12719 0.65417 0.8654 0.0
H566 H 0.18693 0.71626 0.01658 0.0
H567 H 0.20739 0.72052 0.81456 0.0
H568 H 0.14603 0.68018 0.92008 0.0
H569 H 0.24225 0.76469 0.90938 0.0
C570 C 0.24349 0.76512 0.96471 0.0
C571 C 0.22859 0.75143 -0.00433 0.0
C572 C 0.1594 0.68924 0.89693 0.0
C573 C 0.20124 0.72924 0.93166 0.0
C574 C 0.14864 0.67441 0.86559 0.0
C575 C 0.16582 0.68498 0.83523 0.0
C576 C 0.18765 0.71485 0.89813 0.0
C577 C 0.19339 0.71142 0.83724 0.0
C578 C 0.22993 0.7542 0.93283 0.0
C579 C 0.19934 0.72749 -0.00654 0.0
N580 N 0.20353 0.72525 0.86816 0.0
N581 N 0.18676 0.71697 0.96203 0.0
H582 H 0.50257 0.3022 0.08744 0.0
H583 H 0.49044 0.15186 0.01668 0.0
H584 H 0.50128 0.23421 0.15296 0.0
H585 H 0.49312 0.21983 0.94988 0.0
H586 H 0.49031 0.18006 0.0668 0.0
H587 H 0.49514 0.27087 0.03712 0.0
C588 C 0.5005 0.28059 0.09134 0.0
C589 C 0.50275 0.27096 0.12461 0.0
C590 C 0.49076 0.18879 0.04122 0.0
C591 C 0.49433 0.23494 0.06684 0.0
C592 C 0.49082 0.17266 0.01247 0.0
C593 C 0.49201 0.18354 0.97885 0.0
C594 C 0.49202 0.2162 0.03658 0.0
C595 C 0.49226 0.21057 0.97524 0.0
C596 C 0.49629 0.26272 0.06252 0.0
C597 C 0.49981 0.24267 0.12791 0.0
N598 N 0.49249 0.22607 0.00374 0.0
N599 N 0.49593 0.22579 0.09942 0.0
loop_
_geom_bond_atom_site_label_1
_geom_bond_atom_site_label_2
_geom_bond_distance
_geom_bond_site_symmetry_2
_ccdc_geom_bond_type
C0 O1 1.306 . S
C0 O3 1.160 . S
O1 C0 1.306 . S
O1 Cd2 2.228 . S
Cd2 O1 2.228 . S
Cd2 O6 2.273 . S
Cd2 O10 2.277 . S
O3 C0 1.160 . S
O3 Cd4 2.203 . S
Cd4 O3 2.203 . S
Cd4 O6 2.411 . S
Cd4 O7 2.333 . S
Cd4 O8 2.352 . S
Cd4 O12 2.277 . S
Cd4 O13 2.356 . S
C5 O10 1.209 . S
C5 O12 1.226 . S
O6 Cd2 2.273 . S
O6 Cd4 2.411 . S
O6 C9 1.320 . S
O7 Cd4 2.333 . S
O7 C9 1.214 . S
O8 Cd4 2.352 . S
O8 C11 1.258 . S
C9 O6 1.320 . S
C9 O7 1.214 . S
O10 Cd2 2.277 . S
O10 C5 1.209 . S
C11 O8 1.258 . S
C11 O13 1.282 . S
O12 Cd4 2.277 . S
O12 C5 1.226 . S
O13 Cd4 2.356 . S
O13 C11 1.282 . S
C14 O15 1.306 . S
C14 O17 1.160 . S
O15 C14 1.306 . S
O15 Cd16 2.228 . S
Cd16 O15 2.228 . S
Cd16 O20 2.273 . S
Cd16 O24 2.277 . S
O17 C14 1.160 . S
O17 Cd18 2.203 . S
Cd18 O17 2.203 . S
Cd18 O20 2.411 . S
Cd18 O21 2.333 . S
Cd18 O22 2.352 . S
Cd18 O26 2.277 . S
Cd18 O27 2.356 . S
C19 O24 1.209 . S
C19 O26 1.226 . S
O20 Cd16 2.273 . S
O20 Cd18 2.411 . S
O20 C23 1.320 . S
O21 Cd18 2.333 . S
O21 C23 1.214 . S
O22 Cd18 2.352 . S
O22 C25 1.258 . S
C23 O20 1.320 . S
C23 O21 1.214 . S
O24 Cd16 2.277 . S
O24 C19 1.209 . S
C25 O22 1.258 . S
C25 O27 1.282 . S
O26 Cd18 2.277 . S
O26 C19 1.226 . S
O27 Cd18 2.356 . S
O27 C25 1.282 . S
C28 O29 1.306 . S
C28 O31 1.160 . S
O29 C28 1.306 . S
O29 Cd30 2.228 . S
Cd30 O29 2.228 . S
Cd30 O34 2.273 . S
Cd30 O38 2.277 . S
O31 C28 1.160 . S
O31 Cd32 2.203 . S
Cd32 O31 2.203 . S
Cd32 O34 2.411 . S
Cd32 O35 2.333 . S
Cd32 O36 2.352 . S
Cd32 O40 2.277 . S
Cd32 O41 2.356 . S
C33 O38 1.209 . S
C33 O40 1.226 . S
O34 Cd30 2.273 . S
O34 Cd32 2.411 . S
O34 C37 1.320 . S
O35 Cd32 2.333 . S
O35 C37 1.214 . S
O36 Cd32 2.352 . S
O36 C39 1.258 . S
C37 O34 1.320 . S
C37 O35 1.214 . S
O38 Cd30 2.277 . S
O38 C33 1.209 . S
C39 O36 1.258 . S
C39 O41 1.282 . S
O40 Cd32 2.277 . S
O40 C33 1.226 . S
O41 Cd32 2.356 . S
O41 C39 1.282 . S
C42 O43 1.306 . S
C42 O45 1.160 . S
O43 C42 1.306 . S
O43 Cd44 2.228 . S
Cd44 O43 2.228 . S
Cd44 O48 2.273 . S
Cd44 O52 2.277 . S
O45 C42 1.160 . S
O45 Cd46 2.203 . S
Cd46 O45 2.203 . S
Cd46 O48 2.411 . S
Cd46 O49 2.333 . S
Cd46 O50 2.352 . S
Cd46 O54 2.277 . S
Cd46 O55 2.356 . S
C47 O52 1.209 . S
C47 O54 1.226 . S
O48 Cd44 2.273 . S
O48 Cd46 2.411 . S
O48 C51 1.320 . S
O49 Cd46 2.333 . S
O49 C51 1.214 . S
O50 Cd46 2.352 . S
O50 C53 1.258 . S
C51 O48 1.320 . S
C51 O49 1.214 . S
O52 Cd44 2.277 . S
O52 C47 1.209 . S
C53 O50 1.258 . S
C53 O55 1.282 . S
O54 Cd46 2.277 . S
O54 C47 1.226 . S
O55 Cd46 2.356 . S
O55 C53 1.282 . S
C56 O57 1.306 . S
C56 O59 1.160 . S
O57 C56 1.306 . S
O57 Cd58 2.228 . S
Cd58 O57 2.228 . S
Cd58 O62 2.273 . S
Cd58 O66 2.277 . S
O59 C56 1.160 . S
O59 Cd60 2.203 . S
Cd60 O59 2.203 . S
Cd60 O62 2.411 . S
Cd60 O63 2.333 . S
Cd60 O64 2.352 . S
Cd60 O68 2.277 . S
Cd60 O69 2.356 . S
C61 O66 1.209 . S
C61 O68 1.226 . S
O62 Cd58 2.273 . S
O62 Cd60 2.411 . S
O62 C65 1.320 . S
O63 Cd60 2.333 . S
O63 C65 1.214 . S
O64 Cd60 2.352 . S
O64 C67 1.258 . S
C65 O62 1.320 . S
C65 O63 1.214 . S
O66 Cd58 2.277 . S
O66 C61 1.209 . S
C67 O64 1.258 . S
C67 O69 1.282 . S
O68 Cd60 2.277 . S
O68 C61 1.226 . S
O69 Cd60 2.356 . S
O69 C67 1.282 . S
C70 O71 1.306 . S
C70 O73 1.160 . S
O71 C70 1.306 . S
O71 Cd72 2.228 . S
Cd72 O71 2.228 . S
Cd72 O76 2.273 . S
Cd72 O80 2.277 . S
O73 C70 1.160 . S
O73 Cd74 2.203 . S
Cd74 O73 2.203 . S
Cd74 O76 2.411 . S
Cd74 O77 2.333 . S
Cd74 O78 2.352 . S
Cd74 O82 2.277 . S
Cd74 O83 2.356 . S
C75 O80 1.209 . S
C75 O82 1.226 . S
O76 Cd72 2.273 . S
O76 Cd74 2.411 . S
O76 C79 1.320 . S
O77 Cd74 2.333 . S
O77 C79 1.214 . S
O78 Cd74 2.352 . S
O78 C81 1.258 . S
C79 O76 1.320 . S
C79 O77 1.214 . S
O80 Cd72 2.277 . S
O80 C75 1.209 . S
C81 O78 1.258 . S
C81 O83 1.282 . S
O82 Cd74 2.277 . S
O82 C75 1.226 . S
O83 Cd74 2.356 . S
O83 C81 1.282 . S
C84 O85 1.306 . S
C84 O87 1.160 . S
O85 C84 1.306 . S
O85 Cd86 2.228 . S
Cd86 O85 2.228 . S
Cd86 O90 2.273 . S
Cd86 O94 2.277 . S
O87 C84 1.160 . S
O87 Cd88 2.203 . S
Cd88 O87 2.203 . S
Cd88 O90 2.411 . S
Cd88 O91 2.333 . S
Cd88 O92 2.352 . S
Cd88 O96 2.277 . S
Cd88 O97 2.356 . S
C89 O94 1.209 . S
C89 O96 1.226 . S
O90 Cd86 2.273 . S
O90 Cd88 2.411 . S
O90 C93 1.320 . S
O91 Cd88 2.333 . S
O91 C93 1.214 . S
O92 Cd88 2.352 . S
O92 C95 1.258 . S
C93 O90 1.320 . S
C93 O91 1.214 . S
O94 Cd86 2.277 . S
O94 C89 1.209 . S
C95 O92 1.258 . S
C95 O97 1.282 . S
O96 Cd88 2.277 . S
O96 C89 1.226 . S
O97 Cd88 2.356 . S
O97 C95 1.282 . S
C98 O99 1.306 . S
C98 O101 1.160 . S
O99 C98 1.306 . S
O99 Cd100 2.228 . S
Cd100 O99 2.228 . S
Cd100 O104 2.273 . S
Cd100 O108 2.277 . S
O101 C98 1.160 . S
O101 Cd102 2.203 . S
Cd102 O101 2.203 . S
Cd102 O104 2.411 . S
Cd102 O105 2.333 . S
Cd102 O106 2.352 . S
Cd102 O110 2.277 . S
Cd102 O111 2.356 . S
C103 O108 1.209 . S
C103 O110 1.226 . S
O104 Cd100 2.273 . S
O104 Cd102 2.411 . S
O104 C107 1.320 . S
O105 Cd102 2.333 . S
O105 C107 1.214 . S
O106 Cd102 2.352 . S
O106 C109 1.258 . S
C107 O104 1.320 . S
C107 O105 1.214 . S
O108 Cd100 2.277 . S
O108 C103 1.209 . S
C109 O106 1.258 . S
C109 O111 1.282 . S
O110 Cd102 2.277 . S
O110 C103 1.226 . S
O111 Cd102 2.356 . S
O111 C109 1.282 . S
C112 O113 1.306 . S
C112 O115 1.160 . S
O113 C112 1.306 . S
O113 Cd114 2.228 . S
Cd114 O113 2.228 . S
Cd114 O118 2.273 . S
Cd114 O122 2.277 . S
O115 C112 1.160 . S
O115 Cd116 2.203 . S
Cd116 O115 2.203 . S
Cd116 O118 2.411 . S
Cd116 O119 2.333 . S
Cd116 O120 2.352 . S
Cd116 O124 2.277 . S
Cd116 O125 2.356 . S
C117 O122 1.209 . S
C117 O124 1.226 . S
O118 Cd114 2.273 . S
O118 Cd116 2.411 . S
O118 C121 1.320 . S
O119 Cd116 2.333 . S
O119 C121 1.214 . S
O120 Cd116 2.352 . S
O120 C123 1.258 . S
C121 O118 1.320 . S
C121 O119 1.214 . S
O122 Cd114 2.277 . S
O122 C117 1.209 . S
C123 O120 1.258 . S
C123 O125 1.282 . S
O124 Cd116 2.277 . S
O124 C117 1.226 . S
O125 Cd116 2.356 . S
O125 C123 1.282 . S
C126 O127 1.306 . S
C126 O129 1.160 . S
O127 C126 1.306 . S
O127 Cd128 2.228 . S
Cd128 O127 2.228 . S
Cd128 O132 2.273 . S
Cd128 O136 2.277 . S
O129 C126 1.160 . S
O129 Cd130 2.203 . S
Cd130 O129 2.203 . S
Cd130 O132 2.411 . S
Cd130 O133 2.333 . S
Cd130 O134 2.352 . S
Cd130 O138 2.277 . S
Cd130 O139 2.356 . S
C131 O136 1.209 . S
C131 O138 1.226 . S
O132 Cd128 2.273 . S
O132 Cd130 2.411 . S
O132 C135 1.320 . S
O133 Cd130 2.333 . S
O133 C135 1.214 . S
O134 Cd130 2.352 . S
O134 C137 1.258 . S
C135 O132 1.320 . S
C135 O133 1.214 . S
O136 Cd128 2.277 . S
O136 C131 1.209 . S
C137 O134 1.258 . S
C137 O139 1.282 . S
O138 Cd130 2.277 . S
O138 C131 1.226 . S
O139 Cd130 2.356 . S
O139 C137 1.282 . S
C140 O141 1.306 . S
C140 O143 1.160 . S
O141 C140 1.306 . S
O141 Cd142 2.228 . S
Cd142 O141 2.228 . S
Cd142 O146 2.273 . S
Cd142 O150 2.277 . S
O143 C140 1.160 . S
O143 Cd144 2.203 . S
Cd144 O143 2.203 . S
Cd144 O146 2.411 . S
Cd144 O147 2.333 . S
Cd144 O148 2.352 . S
Cd144 O152 2.277 . S
Cd144 O153 2.356 . S
C145 O150 1.209 . S
C145 O152 1.226 . S
O146 Cd142 2.273 . S
O146 Cd144 2.411 . S
O146 C149 1.320 . S
O147 Cd144 2.333 . S
O147 C149 1.214 . S
O148 Cd144 2.352 . S
O148 C151 1.258 . S
C149 O146 1.320 . S
C149 O147 1.214 . S
O150 Cd142 2.277 . S
O150 C145 1.209 . S
C151 O148 1.258 . S
C151 O153 1.282 . S
O152 Cd144 2.277 . S
O152 C145 1.226 . S
O153 Cd144 2.356 . S
O153 C151 1.282 . S
C154 O155 1.306 . S
C154 O157 1.160 . S
O155 C154 1.306 . S
O155 Cd156 2.228 . S
Cd156 O155 2.228 . S
Cd156 O160 2.273 . S
Cd156 O164 2.277 . S
O157 C154 1.160 . S
O157 Cd158 2.203 . S
Cd158 O157 2.203 . S
Cd158 O160 2.411 . S
Cd158 O161 2.333 . S
Cd158 O162 2.352 . S
Cd158 O166 2.277 . S
Cd158 O167 2.356 . S
C159 O164 1.209 . S
C159 O166 1.226 . S
O160 Cd156 2.273 . S
O160 Cd158 2.411 . S
O160 C163 1.320 . S
O161 Cd158 2.333 . S
O161 C163 1.214 . S
O162 Cd158 2.352 . S
O162 C165 1.258 . S
C163 O160 1.320 . S
C163 O161 1.214 . S
O164 Cd156 2.277 . S
O164 C159 1.209 . S
C165 O162 1.258 . S
C165 O167 1.282 . S
O166 Cd158 2.277 . S
O166 C159 1.226 . S
O167 Cd158 2.356 . S
O167 C165 1.282 . S
H168 C174 0.930 . S
H169 C178 0.930 . S
H170 C183 0.929 . S
H171 C181 0.929 . S
H172 C176 0.929 . S
H173 C182 0.929 . S
C174 H168 0.930 . S
C174 C175 1.367 . S
C174 C182 1.378 . S
C175 C174 1.367 . S
C175 C183 1.433 . S
C176 H172 0.929 . S
C176 C178 1.378 . S
C176 C180 1.350 . S
C177 C180 1.463 . S
C177 C182 1.350 . S
C177 N185 1.427 . S
C178 H169 0.930 . S
C178 C176 1.378 . S
C178 C179 1.367 . S
C179 C178 1.367 . S
C179 C181 1.433 . S
C180 C176 1.350 . S
C180 C177 1.463 . S
C180 N184 1.427 . S
C181 H171 0.929 . S
C181 C179 1.433 . S
C181 N184 1.384 . S
C182 H173 0.929 . S
C182 C174 1.378 . S
C182 C177 1.350 . S
C183 H170 0.929 . S
C183 C175 1.433 . S
C183 N185 1.384 . S
N184 C180 1.427 . S
N184 C181 1.384 . S
N185 C177 1.427 . S
N185 C183 1.384 . S
H186 C192 0.930 . S
H187 C196 0.930 . S
H188 C201 0.929 . S
H189 C199 0.929 . S
H190 C194 0.929 . S
H191 C200 0.929 . S
C192 H186 0.930 . S
C192 C193 1.367 . S
C192 C200 1.378 . S
C193 C192 1.367 . S
C193 C201 1.433 . S
C194 H190 0.929 . S
C194 C196 1.378 . S
C194 C198 1.350 . S
C195 C198 1.463 . S
C195 C200 1.350 . S
C195 N203 1.427 . S
C196 H187 0.930 . S
C196 C194 1.378 . S
C196 C197 1.367 . S
C197 C196 1.367 . S
C197 C199 1.433 . S
C198 C194 1.350 . S
C198 C195 1.463 . S
C198 N202 1.427 . S
C199 H189 0.929 . S
C199 C197 1.433 . S
C199 N202 1.384 . S
C200 H191 0.929 . S
C200 C192 1.378 . S
C200 C195 1.350 . S
C201 H188 0.929 . S
C201 C193 1.433 . S
C201 N203 1.384 . S
N202 C198 1.427 . S
N202 C199 1.384 . S
N203 C195 1.427 . S
N203 C201 1.384 . S
H204 C210 0.930 . S
H205 C214 0.930 . S
H206 C219 0.929 . S
H207 C217 0.929 . S
H208 C212 0.929 . S
H209 C218 0.929 . S
C210 H204 0.930 . S
C210 C211 1.367 . S
C210 C218 1.378 . S
C211 C210 1.367 . S
C211 C219 1.433 . S
C212 H208 0.929 . S
C212 C214 1.378 . S
C212 C216 1.350 . S
C213 C216 1.463 . S
C213 C218 1.350 . S
C213 N221 1.427 . S
C214 H205 0.930 . S
C214 C212 1.378 . S
C214 C215 1.367 . S
C215 C214 1.367 . S
C215 C217 1.433 . S
C216 C212 1.350 . S
C216 C213 1.463 . S
C216 N220 1.427 . S
C217 H207 0.929 . S
C217 C215 1.433 . S
C217 N220 1.384 . S
C218 H209 0.929 . S
C218 C210 1.378 . S
C218 C213 1.350 . S
C219 H206 0.929 . S
C219 C211 1.433 . S
C219 N221 1.384 . S
N220 C216 1.427 . S
N220 C217 1.384 . S
N221 C213 1.427 . S
N221 C219 1.384 . S
H222 C228 0.930 . S
H223 C232 0.930 . S
H224 C237 0.929 . S
H225 C235 0.929 . S
H226 C230 0.929 . S
H227 C236 0.929 . S
C228 H222 0.930 . S
C228 C229 1.367 . S
C228 C236 1.378 . S
C229 C228 1.367 . S
C229 C237 1.433 . S
C230 H226 0.929 . S
C230 C232 1.378 . S
C230 C234 1.350 . S
C231 C234 1.463 . S
C231 C236 1.350 . S
C231 N239 1.427 . S
C232 H223 0.930 . S
C232 C230 1.378 . S
C232 C233 1.367 . S
C233 C232 1.367 . S
C233 C235 1.433 . S
C234 C230 1.350 . S
C234 C231 1.463 . S
C234 N238 1.427 . S
C235 H225 0.929 . S
C235 C233 1.433 . S
C235 N238 1.384 . S
C236 H227 0.929 . S
C236 C228 1.378 . S
C236 C231 1.350 . S
C237 H224 0.929 . S
C237 C229 1.433 . S
C237 N239 1.384 . S
N238 C234 1.427 . S
N238 C235 1.384 . S
N239 C231 1.427 . S
N239 C237 1.384 . S
H240 C246 0.930 . S
H241 C250 0.930 . S
H242 C255 0.929 . S
H243 C253 0.929 . S
H244 C248 0.929 . S
H245 C254 0.929 . S
C246 H240 0.930 . S
C246 C247 1.367 . S
C246 C254 1.378 . S
C247 C246 1.367 . S
C247 C255 1.433 . S
C248 H244 0.929 . S
C248 C250 1.378 . S
C248 C252 1.350 . S
C249 C252 1.463 . S
C249 C254 1.350 . S
C249 N257 1.427 . S
C250 H241 0.930 . S
C250 C248 1.378 . S
C250 C251 1.367 . S
C251 C250 1.367 . S
C251 C253 1.433 . S
C252 C248 1.350 . S
C252 C249 1.463 . S
C252 N256 1.427 . S
C253 H243 0.929 . S
C253 C251 1.433 . S
C253 N256 1.384 . S
C254 H245 0.929 . S
C254 C246 1.378 . S
C254 C249 1.350 . S
C255 H242 0.929 . S
C255 C247 1.433 . S
C255 N257 1.384 . S
N256 C252 1.427 . S
N256 C253 1.384 . S
N257 C249 1.427 . S
N257 C255 1.384 . S
H258 C264 0.930 . S
H259 C268 0.930 . S
H260 C273 0.929 . S
H261 C271 0.929 . S
H262 C266 0.929 . S
H263 C272 0.929 . S
C264 H258 0.930 . S
C264 C265 1.367 . S
C264 C272 1.378 . S
C265 C264 1.367 . S
C265 C273 1.433 . S
C266 H262 0.929 . S
C266 C268 1.378 . S
C266 C270 1.350 . S
C267 C270 1.463 . S
C267 C272 1.350 . S
C267 N275 1.427 . S
C268 H259 0.930 . S
C268 C266 1.378 . S
C268 C269 1.367 . S
C269 C268 1.367 . S
C269 C271 1.433 . S
C270 C266 1.350 . S
C270 C267 1.463 . S
C270 N274 1.427 . S
C271 H261 0.929 . S
C271 C269 1.433 . S
C271 N274 1.384 . S
C272 H263 0.929 . S
C272 C264 1.378 . S
C272 C267 1.350 . S
C273 H260 0.929 . S
C273 C265 1.433 . S
C273 N275 1.384 . S
N274 C270 1.427 . S
N274 C271 1.384 . S
N275 C267 1.427 . S
N275 C273 1.384 . S
H276 C282 0.930 . S
H277 C286 0.930 . S
H278 C291 0.929 . S
H279 C289 0.929 . S
H280 C284 0.929 . S
H281 C290 0.929 . S
C282 H276 0.930 . S
C282 C283 1.367 . S
C282 C290 1.378 . S
C283 C282 1.367 . S
C283 C291 1.433 . S
C284 H280 0.929 . S
C284 C286 1.378 . S
C284 C288 1.350 . S
C285 C288 1.463 . S
C285 C290 1.350 . S
C285 N293 1.427 . S
C286 H277 0.930 . S
C286 C284 1.378 . S
C286 C287 1.367 . S
C287 C286 1.367 . S
C287 C289 1.433 . S
C288 C284 1.350 . S
C288 C285 1.463 . S
C288 N292 1.427 . S
C289 H279 0.929 . S
C289 C287 1.433 . S
C289 N292 1.384 . S
C290 H281 0.929 . S
C290 C282 1.378 . S
C290 C285 1.350 . S
C291 H278 0.929 . S
C291 C283 1.433 . S
C291 N293 1.384 . S
N292 C288 1.427 . S
N292 C289 1.384 . S
N293 C285 1.427 . S
N293 C291 1.384 . S
H294 C300 0.930 . S
H295 C304 0.930 . S
H296 C309 0.929 . S
H297 C307 0.929 . S
H298 C302 0.929 . S
H299 C308 0.929 . S
C300 H294 0.930 . S
C300 C301 1.367 . S
C300 C308 1.378 . S
C301 C300 1.367 . S
C301 C309 1.433 . S
C302 H298 0.929 . S
C302 C304 1.378 . S
C302 C306 1.350 . S
C303 C306 1.463 . S
C303 C308 1.350 . S
C303 N311 1.427 . S
C304 H295 0.930 . S
C304 C302 1.378 . S
C304 C305 1.367 . S
C305 C304 1.367 . S
C305 C307 1.433 . S
C306 C302 1.350 . S
C306 C303 1.463 . S
C306 N310 1.427 . S
C307 H297 0.929 . S
C307 C305 1.433 . S
C307 N310 1.384 . S
C308 H299 0.929 . S
C308 C300 1.378 . S
C308 C303 1.350 . S
C309 H296 0.929 . S
C309 C301 1.433 . S
C309 N311 1.384 . S
N310 C306 1.427 . S
N310 C307 1.384 . S
N311 C303 1.427 . S
N311 C309 1.384 . S
H312 C318 0.930 . S
H313 C322 0.930 . S
H314 C327 0.929 1_554 S
H315 C325 0.929 . S
H316 C320 0.929 . S
H317 C326 0.929 . S
C318 H312 0.930 . S
C318 C319 1.367 . S
C318 C326 1.378 . S
C319 C318 1.367 . S
C319 C327 1.433 . S
C320 H316 0.929 . S
C320 C322 1.378 . S
C320 C324 1.350 . S
C321 C324 1.463 . S
C321 C326 1.350 . S
C321 N329 1.427 . S
C322 H313 0.930 . S
C322 C320 1.378 . S
C322 C323 1.367 . S
C323 C322 1.367 . S
C323 C325 1.433 . S
C324 C320 1.350 . S
C324 C321 1.463 . S
C324 N328 1.427 . S
C325 H315 0.929 . S
C325 C323 1.433 . S
C325 N328 1.384 . S
C326 H317 0.929 . S
C326 C318 1.378 . S
C326 C321 1.350 . S
C327 H314 0.929 1_556 S
C327 C319 1.433 . S
C327 N329 1.384 . S
N328 C324 1.427 . S
N328 C325 1.384 . S
N329 C321 1.427 . S
N329 C327 1.384 . S
H330 C336 0.930 . S
H331 C340 0.930 . S
H332 C345 0.929 . S
H333 C343 0.929 . S
H334 C338 0.929 . S
H335 C344 0.929 . S
C336 H330 0.930 . S
C336 C337 1.367 . S
C336 C344 1.378 . S
C337 C336 1.367 . S
C337 C345 1.433 . S
C338 H334 0.929 . S
C338 C340 1.378 . S
C338 C342 1.350 . S
C339 C342 1.463 . S
C339 C344 1.350 . S
C339 N347 1.427 . S
C340 H331 0.930 . S
C340 C338 1.378 . S
C340 C341 1.367 . S
C341 C340 1.367 . S
C341 C343 1.433 . S
C342 C338 1.350 . S
C342 C339 1.463 . S
C342 N346 1.427 . S
C343 H333 0.929 . S
C343 C341 1.433 . S
C343 N346 1.384 . S
C344 H335 0.929 . S
C344 C336 1.378 . S
C344 C339 1.350 . S
C345 H332 0.929 . S
C345 C337 1.433 . S
C345 N347 1.384 . S
N346 C342 1.427 . S
N346 C343 1.384 . S
N347 C339 1.427 . S
N347 C345 1.384 . S
H348 C354 0.930 . S
H349 C358 0.930 . S
H350 C363 0.929 . S
H351 C361 0.929 . S
H352 C356 0.929 . S
H353 C362 0.929 . S
C354 H348 0.930 . S
C354 C355 1.367 . S
C354 C362 1.378 . S
C355 C354 1.367 . S
C355 C363 1.433 . S
C356 H352 0.929 . S
C356 C358 1.378 . S
C356 C360 1.350 . S
C357 C360 1.463 . S
C357 C362 1.350 . S
C357 N365 1.427 . S
C358 H349 0.930 . S
C358 C356 1.378 . S
C358 C359 1.367 . S
C359 C358 1.367 . S
C359 C361 1.433 . S
C360 C356 1.350 . S
C360 C357 1.463 . S
C360 N364 1.427 . S
C361 H351 0.929 . S
C361 C359 1.433 . S
C361 N364 1.384 . S
C362 H353 0.929 . S
C362 C354 1.378 . S
C362 C357 1.350 . S
C363 H350 0.929 . S
C363 C355 1.433 . S
C363 N365 1.384 . S
N364 C360 1.427 . S
N364 C361 1.384 . S
N365 C357 1.427 . S
N365 C363 1.384 . S
H366 C372 0.930 . S
H367 C376 0.930 . S
H368 C381 0.929 . S
H369 C379 0.929 . S
H370 C374 0.929 . S
H371 C380 0.929 . S
C372 H366 0.930 . S
C372 C373 1.367 . S
C372 C380 1.378 . S
C373 C372 1.367 . S
C373 C381 1.433 . S
C374 H370 0.929 . S
C374 C376 1.378 . S
C374 C378 1.350 . S
C375 C378 1.463 . S
C375 C380 1.350 . S
C375 N383 1.427 . S
C376 H367 0.930 . S
C376 C374 1.378 . S
C376 C377 1.367 . S
C377 C376 1.367 . S
C377 C379 1.433 . S
C378 C374 1.350 . S
C378 C375 1.463 . S
C378 N382 1.427 . S
C379 H369 0.929 . S
C379 C377 1.433 . S
C379 N382 1.384 . S
C380 H371 0.929 . S
C380 C372 1.378 . S
C380 C375 1.350 . S
C381 H368 0.929 . S
C381 C373 1.433 . S
C381 N383 1.384 . S
N382 C378 1.427 . S
N382 C379 1.384 . S
N383 C375 1.427 . S
N383 C381 1.384 . S
H384 C390 0.930 . S
H385 C394 0.930 . S
H386 C399 0.929 . S
H387 C397 0.929 . S
H388 C392 0.929 . S
H389 C398 0.929 . S
C390 H384 0.930 . S
C390 C391 1.367 . S
C390 C398 1.378 . S
C391 C390 1.367 . S
C391 C399 1.433 . S
C392 H388 0.929 . S
C392 C394 1.378 . S
C392 C396 1.350 . S
C393 C396 1.463 1_655 S
C393 C398 1.350 . S
C393 N401 1.427 . S
C394 H385 0.930 . S
C394 C392 1.378 . S
C394 C395 1.367 . S
C395 C394 1.367 . S
C395 C397 1.433 . S
C396 C392 1.350 . S
C396 C393 1.463 1_455 S
C396 N400 1.427 . S
C397 H387 0.929 . S
C397 C395 1.433 . S
C397 N400 1.384 . S
C398 H389 0.929 . S
C398 C390 1.378 . S
C398 C393 1.350 . S
C399 H386 0.929 . S
C399 C391 1.433 . S
C399 N401 1.384 . S
N400 C396 1.427 . S
N400 C397 1.384 . S
N401 C393 1.427 . S
N401 C399 1.384 . S
H402 C408 0.930 . S
H403 C412 0.930 . S
H404 C417 0.929 . S
H405 C415 0.929 . S
H406 C410 0.929 . S
H407 C416 0.929 . S
C408 H402 0.930 . S
C408 C409 1.367 . S
C408 C416 1.378 . S
C409 C408 1.367 . S
C409 C417 1.433 . S
C410 H406 0.929 . S
C410 C412 1.378 . S
C410 C414 1.350 . S
C411 C414 1.463 1_565 S
C411 C416 1.350 . S
C411 N419 1.427 . S
C412 H403 0.930 . S
C412 C410 1.378 . S
C412 C413 1.367 . S
C413 C412 1.367 . S
C413 C415 1.433 . S
C414 C410 1.350 . S
C414 C411 1.463 1_545 S
C414 N418 1.427 . S
C415 H405 0.929 . S
C415 C413 1.433 . S
C415 N418 1.384 . S
C416 H407 0.929 . S
C416 C408 1.378 . S
C416 C411 1.350 . S
C417 H404 0.929 . S
C417 C409 1.433 . S
C417 N419 1.384 . S
N418 C414 1.427 . S
N418 C415 1.384 . S
N419 C411 1.427 . S
N419 C417 1.384 . S
H420 C426 0.930 . S
H421 C430 0.930 . S
H422 C435 0.929 . S
H423 C433 0.929 . S
H424 C428 0.929 . S
H425 C434 0.929 . S
C426 H420 0.930 . S
C426 C427 1.367 . S
C426 C434 1.378 . S
C427 C426 1.367 . S
C427 C435 1.433 . S
C428 H424 0.929 . S
C428 C430 1.378 . S
C428 C432 1.350 . S
C429 C432 1.463 . S
C429 C434 1.350 . S
C429 N437 1.427 . S
C430 H421 0.930 . S
C430 C428 1.378 . S
C430 C431 1.367 . S
C431 C430 1.367 . S
C431 C433 1.433 . S
C432 C428 1.350 . S
C432 C429 1.463 . S
C432 N436 1.427 . S
C433 H423 0.929 . S
C433 C431 1.433 . S
C433 N436 1.384 . S
C434 H425 0.929 . S
C434 C426 1.378 . S
C434 C429 1.350 . S
C435 H422 0.929 . S
C435 C427 1.433 . S
C435 N437 1.384 . S
N436 C432 1.427 . S
N436 C433 1.384 . S
N437 C429 1.427 . S
N437 C435 1.384 . S
H438 C444 0.930 . S
H439 C448 0.930 . S
H440 C453 0.929 . S
H441 C451 0.929 . S
H442 C446 0.929 . S
H443 C452 0.929 . S
C444 H438 0.930 . S
C444 C445 1.367 . S
C444 C452 1.378 . S
C445 C444 1.367 . S
C445 C453 1.433 . S
C446 H442 0.929 . S
C446 C448 1.378 . S
C446 C450 1.350 . S
C447 C450 1.463 1_455 S
C447 C452 1.350 . S
C447 N455 1.427 . S
C448 H439 0.930 . S
C448 C446 1.378 . S
C448 C449 1.367 . S
C449 C448 1.367 . S
C449 C451 1.433 . S
C450 C446 1.350 . S
C450 C447 1.463 1_655 S
C450 N454 1.427 . S
C451 H441 0.929 . S
C451 C449 1.433 . S
C451 N454 1.384 . S
C452 H443 0.929 . S
C452 C444 1.378 . S
C452 C447 1.350 . S
C453 H440 0.929 . S
C453 C445 1.433 . S
C453 N455 1.384 . S
N454 C450 1.427 . S
N454 C451 1.384 . S
N455 C447 1.427 . S
N455 C453 1.384 . S
H456 C462 0.930 1_554 S
H457 C466 0.930 1_556 S
H458 C471 0.929 . S
H459 C469 0.929 . S
H460 C464 0.929 . S
H461 C470 0.929 . S
C462 H456 0.930 1_556 S
C462 C463 1.367 . S
C462 C470 1.378 1_556 S
C463 C462 1.367 . S
C463 C471 1.433 . S
C464 H460 0.929 . S
C464 C466 1.378 1_556 S
C464 C468 1.350 1_556 S
C465 C468 1.463 1_546 S
C465 C470 1.350 1_556 S
C465 N473 1.427 . S
C466 H457 0.930 1_554 S
C466 C464 1.378 1_554 S
C466 C467 1.367 . S
C467 C466 1.367 . S
C467 C469 1.433 . S
C468 C464 1.350 1_554 S
C468 C465 1.463 1_564 S
C468 N472 1.427 . S
C469 H459 0.929 . S
C469 C467 1.433 . S
C469 N472 1.384 . S
C470 H461 0.929 . S
C470 C462 1.378 1_554 S
C470 C465 1.350 1_554 S
C471 H458 0.929 . S
C471 C463 1.433 . S
C471 N473 1.384 . S
N472 C468 1.427 . S
N472 C469 1.384 . S
N473 C465 1.427 . S
N473 C471 1.384 . S
H474 C480 0.930 . S
H475 C484 0.930 . S
H476 C489 0.929 . S
H477 C487 0.929 . S
H478 C482 0.929 . S
H479 C488 0.929 . S
C480 H474 0.930 . S
C480 C481 1.367 . S
C480 C488 1.378 . S
C481 C480 1.367 . S
C481 C489 1.433 . S
C482 H478 0.929 . S
C482 C484 1.378 . S
C482 C486 1.350 . S
C483 C486 1.463 . S
C483 C488 1.350 . S
C483 N491 1.427 . S
C484 H475 0.930 . S
C484 C482 1.378 . S
C484 C485 1.367 . S
C485 C484 1.367 . S
C485 C487 1.433 . S
C486 C482 1.350 . S
C486 C483 1.463 . S
C486 N490 1.427 . S
C487 H477 0.929 . S
C487 C485 1.433 . S
C487 N490 1.384 . S
C488 H479 0.929 . S
C488 C480 1.378 . S
C488 C483 1.350 . S
C489 H476 0.929 . S
C489 C481 1.433 . S
C489 N491 1.384 . S
N490 C486 1.427 . S
N490 C487 1.384 . S
N491 C483 1.427 . S
N491 C489 1.384 . S
H492 C498 0.930 . S
H493 C502 0.930 . S
H494 C507 0.929 . S
H495 C505 0.929 . S
H496 C500 0.929 . S
H497 C506 0.929 . S
C498 H492 0.930 . S
C498 C499 1.367 . S
C498 C506 1.378 . S
C499 C498 1.367 . S
C499 C507 1.433 . S
C500 H496 0.929 . S
C500 C502 1.378 . S
C500 C504 1.350 . S
C501 C504 1.463 . S
C501 C506 1.350 . S
C501 N509 1.427 . S
C502 H493 0.930 . S
C502 C500 1.378 . S
C502 C503 1.367 . S
C503 C502 1.367 . S
C503 C505 1.433 . S
C504 C500 1.350 . S
C504 C501 1.463 . S
C504 N508 1.427 . S
C505 H495 0.929 . S
C505 C503 1.433 . S
C505 N508 1.384 . S
C506 H497 0.929 . S
C506 C498 1.378 . S
C506 C501 1.350 . S
C507 H494 0.929 . S
C507 C499 1.433 . S
C507 N509 1.384 . S
N508 C504 1.427 . S
N508 C505 1.384 . S
N509 C501 1.427 . S
N509 C507 1.384 . S
H510 C516 0.930 . S
H511 C520 0.930 . S
H512 C525 0.929 . S
H513 C523 0.929 . S
H514 C518 0.929 . S
H515 C524 0.929 . S
C516 H510 0.930 . S
C516 C517 1.367 . S
C516 C524 1.378 . S
C517 C516 1.367 . S
C517 C525 1.433 . S
C518 H514 0.929 . S
C518 C520 1.378 . S
C518 C522 1.350 . S
C519 C522 1.463 . S
C519 C524 1.350 . S
C519 N527 1.427 . S
C520 H511 0.930 . S
C520 C518 1.378 . S
C520 C521 1.367 . S
C521 C520 1.367 . S
C521 C523 1.433 . S
C522 C518 1.350 . S
C522 C519 1.463 . S
C522 N526 1.427 . S
C523 H513 0.929 . S
C523 C521 1.433 . S
C523 N526 1.384 . S
C524 H515 0.929 . S
C524 C516 1.378 . S
C524 C519 1.350 . S
C525 H512 0.929 . S
C525 C517 1.433 . S
C525 N527 1.384 . S
N526 C522 1.427 . S
N526 C523 1.384 . S
N527 C519 1.427 . S
N527 C525 1.384 . S
H528 C534 0.930 . S
H529 C538 0.930 . S
H530 C543 0.929 . S
H531 C541 0.929 . S
H532 C536 0.929 . S
H533 C542 0.929 . S
C534 H528 0.930 . S
C534 C535 1.367 . S
C534 C542 1.378 . S
C535 C534 1.367 . S
C535 C543 1.433 . S
C536 H532 0.929 . S
C536 C538 1.378 . S
C536 C540 1.350 . S
C537 C540 1.463 . S
C537 C542 1.350 . S
C537 N545 1.427 . S
C538 H529 0.930 . S
C538 C536 1.378 . S
C538 C539 1.367 . S
C539 C538 1.367 . S
C539 C541 1.433 . S
C540 C536 1.350 . S
C540 C537 1.463 . S
C540 N544 1.427 . S
C541 H531 0.929 . S
C541 C539 1.433 . S
C541 N544 1.384 . S
C542 H533 0.929 . S
C542 C534 1.378 . S
C542 C537 1.350 . S
C543 H530 0.929 . S
C543 C535 1.433 . S
C543 N545 1.384 . S
N544 C540 1.427 . S
N544 C541 1.384 . S
N545 C537 1.427 . S
N545 C543 1.384 . S
H546 C552 0.930 . S
H547 C556 0.930 . S
H548 C561 0.929 . S
H549 C559 0.929 . S
H550 C554 0.929 . S
H551 C560 0.929 . S
C552 H546 0.930 . S
C552 C553 1.367 . S
C552 C560 1.378 . S
C553 C552 1.367 . S
C553 C561 1.433 . S
C554 H550 0.929 . S
C554 C556 1.378 . S
C554 C558 1.350 . S
C555 C558 1.463 . S
C555 C560 1.350 . S
C555 N563 1.427 . S
C556 H547 0.930 . S
C556 C554 1.378 . S
C556 C557 1.367 . S
C557 C556 1.367 . S
C557 C559 1.433 . S
C558 C554 1.350 . S
C558 C555 1.463 . S
C558 N562 1.427 . S
C559 H549 0.929 . S
C559 C557 1.433 . S
C559 N562 1.384 . S
C560 H551 0.929 . S
C560 C552 1.378 . S
C560 C555 1.350 . S
C561 H548 0.929 . S
C561 C553 1.433 . S
C561 N563 1.384 . S
N562 C558 1.427 . S
N562 C559 1.384 . S
N563 C555 1.427 . S
N563 C561 1.384 . S
H564 C570 0.930 . S
H565 C574 0.930 . S
H566 C579 0.929 1_554 S
H567 C577 0.929 . S
H568 C572 0.929 . S
H569 C578 0.929 . S
C570 H564 0.930 . S
C570 C571 1.367 . S
C570 C578 1.378 . S
C571 C570 1.367 . S
C571 C579 1.433 . S
C572 H568 0.929 . S
C572 C574 1.378 . S
C572 C576 1.350 . S
C573 C576 1.463 . S
C573 C578 1.350 . S
C573 N581 1.427 . S
C574 H565 0.930 . S
C574 C572 1.378 . S
C574 C575 1.367 . S
C575 C574 1.367 . S
C575 C577 1.433 . S
C576 C572 1.350 . S
C576 C573 1.463 . S
C576 N580 1.427 . S
C577 H567 0.929 . S
C577 C575 1.433 . S
C577 N580 1.384 . S
C578 H569 0.929 . S
C578 C570 1.378 . S
C578 C573 1.350 . S
C579 H566 0.929 1_556 S
C579 C571 1.433 . S
C579 N581 1.384 . S
N580 C576 1.427 . S
N580 C577 1.384 . S
N581 C573 1.427 . S
N581 C579 1.384 . S
H582 C588 0.930 . S
H583 C592 0.930 . S
H584 C597 0.929 . S
H585 C595 0.929 1_556 S
H586 C590 0.929 . S
H587 C596 0.929 . S
C588 H582 0.930 . S
C588 C589 1.367 . S
C588 C596 1.378 . S
C589 C588 1.367 . S
C589 C597 1.433 . S
C590 H586 0.929 . S
C590 C592 1.378 . S
C590 C594 1.350 . S
C591 C594 1.463 . S
C591 C596 1.350 . S
C591 N599 1.427 . S
C592 H583 0.930 . S
C592 C590 1.378 . S
C592 C593 1.367 . S
C593 C592 1.367 . S
C593 C595 1.433 . S
C594 C590 1.350 . S
C594 C591 1.463 . S
C594 N598 1.427 . S
C595 H585 0.929 1_554 S
C595 C593 1.433 . S
C595 N598 1.384 . S
C596 H587 0.929 . S
C596 C588 1.378 . S
C596 C591 1.350 . S
C597 H584 0.929 . S
C597 C589 1.433 . S
C597 N599 1.384 . S
N598 C594 1.427 . S
N598 C595 1.384 . S
N599 C591 1.427 . S
N599 C597 1.384 . S
C175 C5 0.765 . S
C179 C89 0.764 . S
C193 C19 0.762 . S
C197 C103 0.769 . S
C211 C117 0.772 . S
C215 C33 0.761 . S
C229 C47 0.762 . S
C233 C131 0.768 . S
C247 C61 0.768 . S
C251 C145 0.762 . S
C265 C159 0.768 . S
C269 C75 0.778 . S
C283 C121 1.443 . S
C287 C9 1.443 . S
C301 C23 1.455 . S
C305 C135 1.455 . S
C319 C149 1.462 1_556 S
C323 C37 1.462 . S
C337 C163 1.454 . S
C341 C51 1.453 1_554 S
C355 C65 1.458 . S
C359 C93 1.457 . S
C373 C79 1.456 . S
C377 C107 1.455 . S
C391 C165 1.346 . S
C395 C11 1.344 . S
C409 C95 1.346 . S
C413 C25 1.344 . S
C427 C39 1.346 . S
C431 C109 1.345 . S
C445 C123 1.345 . S
C449 C53 1.345 . S
C463 C137 1.346 . S
C467 C67 1.345 . S
C481 C151 1.345 . S
C485 C81 1.345 . S
C499 C0 1.520 . S
C503 C140 1.509 . S
C517 C154 1.511 . S
C521 C14 1.520 . S
C535 C28 1.516 . S
C539 C84 1.515 . S
C553 C42 1.510 . S
C557 C98 1.520 . S
C571 C56 1.517 1_556 S
C575 C112 1.513 . S
C589 C70 1.516 . S
C593 C126 1.514 1_554 S
