# Generated by pormake.
# Topology yfc, (5)-cn, num edge types: 1
# Building blocks:
#     Node 0, Type 0, BuildingBlock: XOMCOT_clean_sbu_0, # of connection points: 5
#     Node 1, Type 0, BuildingBlock: XOMCOT_clean_sbu_0, # of connection points: 5
#     Node 2, Type 0, BuildingBlock: XOMCOT_clean_sbu_0, # of connection points: 5
#     Node 3, Type 0, BuildingBlock: XOMCOT_clean_sbu_0, # of connection points: 5
#     Node 4, Type 0, BuildingBlock: XOMCOT_clean_sbu_0, # of connection points: 5
#     Node 5, Type 0, BuildingBlock: XOMCOT_clean_sbu_0, # of connection points: 5
#     Node 6, Type 0, BuildingBlock: XOMCOT_clean_sbu_0, # of connection points: 5
#     Node 7, Type 0, BuildingBlock: XOMCOT_clean_sbu_0, # of connection points: 5
#     Node 8, Type 0, BuildingBlock: XOMCOT_clean_sbu_0, # of connection points: 5
#     Node 9, Type 0, BuildingBlock: XOMCOT_clean_sbu_0, # of connection points: 5
#     Node 10, Type 0, BuildingBlock: XOMCOT_clean_sbu_0, # of connection points: 5
#     Node 11, Type 0, BuildingBlock: XOMCOT_clean_sbu_0, # of connection points: 5
#     Node 12, Type 0, BuildingBlock: XOMCOT_clean_sbu_0, # of connection points: 5
#     Node 13, Type 0, BuildingBlock: XOMCOT_clean_sbu_0, # of connection points: 5
#     Node 14, Type 0, BuildingBlock: XOMCOT_clean_sbu_0, # of connection points: 5
#     Node 15, Type 0, BuildingBlock: XOMCOT_clean_sbu_0, # of connection points: 5
#     Edge 16, Type (0, 0), BuildingBlock: ZUJKAS_clean_linker_0, # of connection points: 2
#     Edge 17, Type (0, 0), BuildingBlock: ZUJKAS_clean_linker_0, # of connection points: 2
#     Edge 18, Type (0, 0), BuildingBlock: ZUJKAS_clean_linker_0, # of connection points: 2
#     Edge 19, Type (0, 0), BuildingBlock: ZUJKAS_clean_linker_0, # of connection points: 2
#     Edge 20, Type (0, 0), BuildingBlock: ZUJKAS_clean_linker_0, # of connection points: 2
#     Edge 21, Type (0, 0), BuildingBlock: ZUJKAS_clean_linker_0, # of connection points: 2
#     Edge 22, Type (0, 0), BuildingBlock: ZUJKAS_clean_linker_0, # of connection points: 2
#     Edge 23, Type (0, 0), BuildingBlock: ZUJKAS_clean_linker_0, # of connection points: 2
#     Edge 24, Type (0, 0), BuildingBlock: ZUJKAS_clean_linker_0, # of connection points: 2
#     Edge 25, Type (0, 0), BuildingBlock: ZUJKAS_clean_linker_0, # of connection points: 2
#     Edge 26, Type (0, 0), BuildingBlock: ZUJKAS_clean_linker_0, # of connection points: 2
#     Edge 27, Type (0, 0), BuildingBlock: ZUJKAS_clean_linker_0, # of connection points: 2
#     Edge 28, Type (0, 0), BuildingBlock: ZUJKAS_clean_linker_0, # of connection points: 2
#     Edge 29, Type (0, 0), BuildingBlock: ZUJKAS_clean_linker_0, # of connection points: 2
#     Edge 30, Type (0, 0), BuildingBlock: ZUJKAS_clean_linker_0, # of connection points: 2
#     Edge 31, Type (0, 0), BuildingBlock: ZUJKAS_clean_linker_0, # of connection points: 2
#     Edge 32, Type (0, 0), BuildingBlock: ZUJKAS_clean_linker_0, # of connection points: 2
#     Edge 33, Type (0, 0), BuildingBlock: ZUJKAS_clean_linker_0, # of connection points: 2
#     Edge 34, Type (0, 0), BuildingBlock: ZUJKAS_clean_linker_0, # of connection points: 2
#     Edge 35, Type (0, 0), BuildingBlock: ZUJKAS_clean_linker_0, # of connection points: 2
#     Edge 36, Type (0, 0), BuildingBlock: ZUJKAS_clean_linker_0, # of connection points: 2
#     Edge 37, Type (0, 0), BuildingBlock: ZUJKAS_clean_linker_0, # of connection points: 2
#     Edge 38, Type (0, 0), BuildingBlock: ZUJKAS_clean_linker_0, # of connection points: 2
#     Edge 39, Type (0, 0), BuildingBlock: ZUJKAS_clean_linker_0, # of connection points: 2
#     Edge 40, Type (0, 0), BuildingBlock: ZUJKAS_clean_linker_0, # of connection points: 2
#     Edge 41, Type (0, 0), BuildingBlock: ZUJKAS_clean_linker_0, # of connection points: 2
#     Edge 42, Type (0, 0), BuildingBlock: ZUJKAS_clean_linker_0, # of connection points: 2
#     Edge 43, Type (0, 0), BuildingBlock: ZUJKAS_clean_linker_0, # of connection points: 2
#     Edge 44, Type (0, 0), BuildingBlock: ZUJKAS_clean_linker_0, # of connection points: 2
#     Edge 45, Type (0, 0), BuildingBlock: ZUJKAS_clean_linker_0, # of connection points: 2
#     Edge 46, Type (0, 0), BuildingBlock: ZUJKAS_clean_linker_0, # of connection points: 2
#     Edge 47, Type (0, 0), BuildingBlock: ZUJKAS_clean_linker_0, # of connection points: 2
#     Edge 48, Type (0, 0), BuildingBlock: ZUJKAS_clean_linker_0, # of connection points: 2
#     Edge 49, Type (0, 0), BuildingBlock: ZUJKAS_clean_linker_0, # of connection points: 2
#     Edge 50, Type (0, 0), BuildingBlock: ZUJKAS_clean_linker_0, # of connection points: 2
#     Edge 51, Type (0, 0), BuildingBlock: ZUJKAS_clean_linker_0, # of connection points: 2
#     Edge 52, Type (0, 0), BuildingBlock: ZUJKAS_clean_linker_0, # of connection points: 2
#     Edge 53, Type (0, 0), BuildingBlock: ZUJKAS_clean_linker_0, # of connection points: 2
#     Edge 54, Type (0, 0), BuildingBlock: ZUJKAS_clean_linker_0, # of connection points: 2
#     Edge 55, Type (0, 0), BuildingBlock: ZUJKAS_clean_linker_0, # of connection points: 2
# Relax obj value: 0.558
# Max RMSD: 0.288
# Mean RMSD: 0.265
data_MOF--net-yfc--node1-XOMCOT_clean_sbu_0--edge1-ZUJKAS_clean_linker_0
_symmetry_space_group_name_H-M    P1
_symmetry_Int_Tables_number       1
_symmetry_cell_setting            triclinic
loop_
_symmetry_equiv_pos_as_xyz
'x, y, z'
_cell_length_a     50.648786
_cell_length_b     50.659162
_cell_length_c     61.898114
_cell_angle_alpha  90.009679
_cell_angle_beta   90.004082
_cell_angle_gamma 89.985994
loop_
_atom_site_label
_atom_site_type_symbol
_atom_site_fract_x
_atom_site_fract_y
_atom_site_fract_z
_atom_type_partial_charge
Co0 Co 0.73622 0.03918 0.1906 0.0
C1 C 0.74356 0.09716 0.17936 0.0
C2 C 0.73229 0.09008 0.21222 0.0
C3 C 0.73479 0.11675 0.20935 0.0
N4 N 0.73816 0.07752 0.19358 0.0
N5 N 0.74184 0.12118 0.18873 0.0
H6 H 0.748 0.09448 0.16249 0.0
H7 H 0.72589 0.08058 0.22695 0.0
C8 C 0.68161 0.05891 0.18378 0.0
O9 O 0.69106 0.07485 0.16894 0.0
N10 N 0.73361 0.00142 0.18884 0.0
C11 C 0.74744 0.98435 0.17658 0.0
C12 C 0.73904 0.95906 0.18137 0.0
C13 C 0.71739 0.9866 0.20097 0.0
N14 N 0.72027 0.96064 0.19681 0.0
C15 C 0.75955 0.04845 0.14953 0.0
C16 C 0.71839 0.02989 0.12449 0.0
C17 C 0.74146 0.03885 0.11432 0.0
C18 C 0.76222 0.04809 0.12718 0.0
C19 C 0.71657 0.03052 0.14704 0.0
N20 N 0.7366 0.0408 0.15922 0.0
H21 H 0.77592 0.05544 0.15912 0.0
H22 H 0.69932 0.0222 0.15471 0.0
H23 H 0.76258 0.98986 0.16511 0.0
H24 H 0.70363 0.99479 0.21254 0.0
O25 O 0.77378 0.03654 0.1953 0.0
O26 O 0.74361 0.03596 0.22117 0.0
O27 O 0.69664 0.04186 0.19271 0.0
C28 C 0.76846 0.0358 0.21582 0.0
H29 H 0.73083 0.13183 0.22132 0.0
H30 H 0.74647 0.94096 0.17434 0.0
H31 H 0.7022 0.02182 0.11515 0.0
H32 H 0.7804 0.05521 0.12004 0.0
Co33 Co 0.46654 0.7353 0.68832 0.0
C34 C 0.4109 0.74863 0.67687 0.0
C35 C 0.41502 0.7329 0.70894 0.0
C36 C 0.38882 0.73826 0.70536 0.0
N37 N 0.42884 0.73944 0.69115 0.0
N38 N 0.3863 0.748 0.68521 0.0
H39 H 0.41557 0.7555 0.66077 0.0
H40 H 0.42342 0.72443 0.72343 0.0
C41 C 0.47225 0.67572 0.68767 0.0
O42 O 0.48872 0.67644 0.67129 0.0
N43 N 0.5045 0.73061 0.68659 0.0
C44 C 0.52254 0.74128 0.6731 0.0
C45 C 0.54724 0.73231 0.67881 0.0
C46 C 0.51866 0.71604 0.70067 0.0
N47 N 0.54469 0.71647 0.69616 0.0
C48 C 0.47064 0.75084 0.6443 0.0
C49 C 0.44408 0.70884 0.62596 0.0
C50 C 0.45423 0.7287 0.61257 0.0
C51 C 0.4674 0.74996 0.62204 0.0
C52 C 0.44829 0.71023 0.64835 0.0
N53 N 0.4624 0.73061 0.6572 0.0
H54 H 0.47926 0.76836 0.65117 0.0
H55 H 0.43923 0.69551 0.65852 0.0
H56 H 0.51872 0.75504 0.66026 0.0
H57 H 0.50993 0.70503 0.71384 0.0
O58 O 0.47048 0.77323 0.68912 0.0
O59 O 0.4706 0.74713 0.71779 0.0
O60 O 0.46182 0.69681 0.69501 0.0
C61 C 0.47128 0.77097 0.71003 0.0
H62 H 0.3727 0.73442 0.71641 0.0
H63 H 0.56569 0.73745 0.67106 0.0
H64 H 0.43296 0.69254 0.61923 0.0
H65 H 0.47446 0.76631 0.61233 0.0
Co66 Co 0.77125 0.46537 0.19244 0.0
C67 C 0.75612 0.4099 0.18215 0.0
C68 C 0.77479 0.41408 0.21316 0.0
C69 C 0.76859 0.38798 0.21016 0.0
N70 N 0.76698 0.42779 0.19567 0.0
N71 N 0.75696 0.38537 0.19068 0.0
H72 H 0.74784 0.41461 0.16651 0.0
H73 H 0.78457 0.42253 0.22708 0.0
C74 C 0.83101 0.47015 0.19135 0.0
O75 O 0.83038 0.48627 0.17473 0.0
N76 N 0.77596 0.50326 0.19029 0.0
C77 C 0.76229 0.52135 0.17882 0.0
C78 C 0.77095 0.5462 0.18444 0.0
C79 C 0.79204 0.51746 0.20317 0.0
N80 N 0.78974 0.54364 0.19971 0.0
C81 C 0.75567 0.46875 0.14843 0.0
C82 C 0.7965 0.43981 0.13069 0.0
C83 C 0.77584 0.44836 0.11736 0.0
C84 C 0.75542 0.46316 0.12647 0.0
C85 C 0.79587 0.4457 0.15283 0.0
N86 N 0.77591 0.46065 0.16139 0.0
H87 H 0.7386 0.47838 0.1551 0.0
H88 H 0.81063 0.43693 0.16312 0.0
H89 H 0.74635 0.51735 0.1678 0.0
H90 H 0.80445 0.5088 0.2155 0.0
O91 O 0.73341 0.46953 0.19303 0.0
O92 O 0.75929 0.46987 0.22186 0.0
O93 O 0.80976 0.46049 0.1991 0.0
C94 C 0.7355 0.47062 0.21393 0.0
H95 H 0.77301 0.37198 0.22118 0.0
H96 H 0.76377 0.56469 0.17794 0.0
H97 H 0.81227 0.42768 0.12427 0.0
H98 H 0.73893 0.46989 0.11677 0.0
Co99 Co 0.04515 0.76715 0.69089 0.0
C100 C 0.10061 0.75356 0.67914 0.0
C101 C 0.09703 0.77059 0.71081 0.0
C102 C 0.12319 0.7652 0.70704 0.0
N103 N 0.0829 0.76326 0.69339 0.0
N104 N 0.12537 0.75466 0.68713 0.0
H105 H 0.09565 0.74602 0.66329 0.0
H106 H 0.08886 0.77961 0.72517 0.0
C107 C 0.03983 0.8269 0.6888 0.0
O108 O 0.02352 0.82599 0.67231 0.0
N109 N 0.00715 0.77151 0.68945 0.0
C110 C 0.98879 0.75769 0.67838 0.0
C111 C 0.96409 0.76675 0.68402 0.0
C112 C 0.99323 0.78796 0.70222 0.0
N113 N 0.96698 0.78578 0.69903 0.0
C114 C 0.03966 0.7504 0.64728 0.0
C115 C 0.0666 0.79134 0.62775 0.0
C116 C 0.05581 0.77128 0.61489 0.0
C117 C 0.04243 0.75056 0.62497 0.0
C118 C 0.06289 0.79066 0.65021 0.0
N119 N 0.04866 0.77079 0.65965 0.0
H120 H 0.0311 0.73316 0.65461 0.0
H121 H 0.07244 0.8055 0.65997 0.0
H122 H 0.99248 0.74139 0.66765 0.0
H123 H 0.00224 0.80117 0.71379 0.0
O124 O 0.0414 0.72924 0.69267 0.0
O125 O 0.04154 0.75649 0.72065 0.0
O126 O 0.04987 0.80587 0.6966 0.0
C127 C 0.04072 0.73237 0.71352 0.0
H128 H 0.1395 0.76958 0.71776 0.0
H129 H 0.94545 0.75926 0.67806 0.0
H130 H 0.07787 0.80723 0.62055 0.0
H131 H 0.03494 0.73402 0.61571 0.0
Co132 Co 0.74006 0.46601 0.8132 0.0
C133 C 0.75368 0.40982 0.82365 0.0
C134 C 0.7389 0.41523 0.79143 0.0
C135 C 0.74369 0.38888 0.79451 0.0
N136 N 0.74529 0.42845 0.80958 0.0
N137 N 0.75286 0.38547 0.81475 0.0
H138 H 0.7599 0.41376 0.84005 0.0
H139 H 0.73053 0.42407 0.77708 0.0
C140 C 0.68009 0.47172 0.81338 0.0
O141 O 0.68045 0.49403 0.82416 0.0
N142 N 0.73422 0.50374 0.81586 0.0
C143 C 0.73755 0.5201 0.8329 0.0
C144 C 0.72861 0.54486 0.82737 0.0
C145 C 0.72373 0.51899 0.80019 0.0
N146 N 0.71991 0.54405 0.80682 0.0
C147 C 0.76084 0.46786 0.85585 0.0
C148 C 0.71843 0.44562 0.87718 0.0
C149 C 0.74065 0.45342 0.88909 0.0
C150 C 0.76209 0.46442 0.8781 0.0
C151 C 0.71785 0.44969 0.85479 0.0
N152 N 0.73868 0.46136 0.84445 0.0
H153 H 0.77768 0.47649 0.84788 0.0
H154 H 0.70094 0.44274 0.84591 0.0
H155 H 0.74502 0.51476 0.84857 0.0
H156 H 0.71741 0.51144 0.78467 0.0
O157 O 0.77758 0.4717 0.80982 0.0
O158 O 0.74872 0.47086 0.78304 0.0
O159 O 0.70136 0.45925 0.80918 0.0
C160 C 0.7732 0.47261 0.78916 0.0
H161 H 0.7396 0.37323 0.78307 0.0
H162 H 0.72802 0.56199 0.83782 0.0
H163 H 0.70161 0.43663 0.88509 0.0
H164 H 0.77989 0.47012 0.8866 0.0
Co165 Co 0.04107 0.7368 0.31475 0.0
C166 C 0.09709 0.74613 0.32802 0.0
C167 C 0.0931 0.72748 0.29698 0.0
C168 C 0.11941 0.72875 0.30203 0.0
N169 N 0.0791 0.73797 0.31334 0.0
N170 N 0.12189 0.74023 0.32157 0.0
H171 H 0.09215 0.75479 0.34349 0.0
H172 H 0.08463 0.71867 0.28265 0.0
C173 C 0.03467 0.67698 0.31262 0.0
O174 O 0.01992 0.67617 0.33007 0.0
N175 N 0.00266 0.73529 0.31479 0.0
C176 C 0.98512 0.75318 0.32235 0.0
C177 C 0.96006 0.74595 0.31601 0.0
C178 C 0.98799 0.71833 0.30303 0.0
N179 N 0.96201 0.72406 0.30378 0.0
C180 C 0.03105 0.74478 0.35956 0.0
C181 C 0.06334 0.70515 0.37515 0.0
C182 C 0.05064 0.72201 0.38978 0.0
C183 C 0.03415 0.74181 0.38174 0.0
C184 C 0.05916 0.70844 0.35293 0.0
N185 N 0.04295 0.728 0.34536 0.0
H186 H 0.0203 0.76166 0.35392 0.0
H187 H 0.07007 0.69614 0.3418 0.0
H188 H 0.98999 0.77134 0.33055 0.0
H189 H 0.99615 0.70269 0.29328 0.0
O190 O 0.04021 0.77473 0.31723 0.0
O191 O 0.03967 0.75238 0.28639 0.0
O192 O 0.04341 0.69888 0.30539 0.0
C193 C 0.0401 0.77511 0.2962 0.0
H194 H 0.13552 0.72131 0.29227 0.0
H195 H 0.94203 0.75677 0.31912 0.0
H196 H 0.0767 0.68995 0.3808 0.0
H197 H 0.0248 0.75588 0.39249 0.0
Co198 Co 0.76739 0.04164 0.80772 0.0
C199 C 0.75342 0.09717 0.81995 0.0
C200 C 0.76726 0.09325 0.7873 0.0
C201 C 0.76208 0.11938 0.79116 0.0
N202 N 0.7617 0.07925 0.80523 0.0
N203 N 0.75348 0.12185 0.81166 0.0
H204 H 0.74778 0.09249 0.83635 0.0
H205 H 0.77526 0.08509 0.77254 0.0
C206 C 0.82751 0.03709 0.80742 0.0
O207 O 0.82772 0.01573 0.81944 0.0
N208 N 0.77343 0.00396 0.80926 0.0
C209 C 0.76427 0.98604 0.82353 0.0
C210 C 0.77316 0.96142 0.81755 0.0
C211 C 0.787 0.98988 0.79451 0.0
N212 N 0.78753 0.96391 0.79933 0.0
C213 C 0.74809 0.0384 0.85081 0.0
C214 C 0.79172 0.05864 0.8718 0.0
C215 C 0.76963 0.05112 0.88397 0.0
C216 C 0.74762 0.04102 0.87315 0.0
C217 C 0.79132 0.05584 0.84928 0.0
N218 N 0.76994 0.045 0.83907 0.0
H219 H 0.73067 0.03076 0.84303 0.0
H220 H 0.80789 0.06326 0.84028 0.0
H221 H 0.75177 0.99006 0.8372 0.0
H222 H 0.79698 0.99874 0.78086 0.0
O223 O 0.72981 0.03553 0.80507 0.0
O224 O 0.75781 0.03781 0.77768 0.0
O225 O 0.80591 0.0488 0.80284 0.0
C226 C 0.73362 0.03525 0.78432 0.0
H227 H 0.76548 0.13551 0.78003 0.0
H228 H 0.76914 0.94309 0.82591 0.0
H229 H 0.80888 0.06719 0.87956 0.0
H230 H 0.73015 0.03485 0.8819 0.0
Co231 Co 0.46336 0.76689 0.30997 0.0
C232 C 0.40745 0.75489 0.32241 0.0
C233 C 0.41178 0.76803 0.2896 0.0
C234 C 0.38546 0.76413 0.29362 0.0
N235 N 0.42561 0.7622 0.30756 0.0
N236 N 0.38274 0.75604 0.31424 0.0
H237 H 0.41201 0.7493 0.33886 0.0
H238 H 0.42021 0.77547 0.27475 0.0
C239 C 0.46829 0.82667 0.30988 0.0
O240 O 0.48571 0.82663 0.32561 0.0
N241 N 0.50123 0.7722 0.31115 0.0
C242 C 0.5198 0.76116 0.32393 0.0
C243 C 0.54431 0.76974 0.31733 0.0
C244 C 0.51484 0.78664 0.29664 0.0
N245 N 0.54111 0.78573 0.30014 0.0
C246 C 0.46847 0.75119 0.35391 0.0
C247 C 0.4423 0.79318 0.37265 0.0
C248 C 0.4525 0.77318 0.38588 0.0
C249 C 0.46557 0.75197 0.37622 0.0
C250 C 0.44617 0.79191 0.35023 0.0
N251 N 0.45991 0.77144 0.34116 0.0
H252 H 0.47711 0.73376 0.3469 0.0
H253 H 0.43703 0.80676 0.34024 0.0
H254 H 0.5164 0.7472 0.33673 0.0
H255 H 0.50553 0.79766 0.28375 0.0
O256 O 0.46823 0.72899 0.30891 0.0
O257 O 0.46699 0.75542 0.28043 0.0
O258 O 0.45772 0.80524 0.30339 0.0
C259 C 0.46865 0.73157 0.28801 0.0
H260 H 0.36941 0.76819 0.28255 0.0
H261 H 0.56306 0.76404 0.32431 0.0
H262 H 0.43136 0.80952 0.37955 0.0
H263 H 0.47279 0.7356 0.38582 0.0
Co264 Co 0.27956 0.96572 0.84261 0.0
C265 C 0.30562 0.01226 0.82293 0.0
C266 C 0.30672 0.01474 0.85741 0.0
C267 C 0.32071 0.03573 0.84899 0.0
N268 N 0.29648 0.00035 0.84104 0.0
N269 N 0.3201 0.03395 0.82731 0.0
H270 H 0.30321 0.00449 0.80681 0.0
H271 H 0.30585 0.00956 0.87431 0.0
C272 C 0.2586 0.99041 0.88356 0.0
O273 O 0.24996 0.01072 0.8724 0.0
N274 N 0.26349 0.93102 0.8435 0.0
C275 C 0.24748 0.92114 0.82808 0.0
C276 C 0.24105 0.89566 0.83331 0.0
C277 C 0.26729 0.91103 0.85763 0.0
N278 N 0.2535 0.88925 0.85181 0.0
C279 C 0.24447 0.9892 0.81169 0.0
C280 C 0.1985 0.97651 0.83333 0.0
C281 C 0.19693 0.98381 0.81151 0.0
C282 C 0.22025 0.99144 0.80102 0.0
C283 C 0.22312 0.97423 0.84331 0.0
N284 N 0.24589 0.97985 0.83234 0.0
H285 H 0.2621 0.99229 0.80239 0.0
H286 H 0.22384 0.96524 0.8591 0.0
H287 H 0.24144 0.93152 0.81365 0.0
H288 H 0.28022 0.9122 0.87153 0.0
O289 O 0.29521 0.95627 0.81519 0.0
O290 O 0.31371 0.95002 0.84728 0.0
O291 O 0.27018 0.97123 0.87405 0.0
C292 C 0.31516 0.94755 0.8264 0.0
H293 H 0.33198 0.0501 0.85808 0.0
H294 H 0.22916 0.88237 0.82366 0.0
H295 H 0.18104 0.9706 0.84218 0.0
H296 H 0.22022 0.9967 0.78407 0.0
Co297 Co 0.53597 0.28337 0.3465 0.0
C298 C 0.48969 0.31008 0.32695 0.0
C299 C 0.48803 0.3125 0.36141 0.0
C300 C 0.46721 0.32673 0.35296 0.0
N301 N 0.50178 0.30126 0.34509 0.0
N302 N 0.4685 0.32528 0.33129 0.0
H303 H 0.49702 0.30692 0.31077 0.0
H304 H 0.49358 0.31211 0.37824 0.0
C305 C 0.51165 0.26472 0.3882 0.0
O306 O 0.49085 0.25637 0.3775 0.0
N307 N 0.57025 0.26629 0.34712 0.0
C308 C 0.57917 0.24959 0.3318 0.0
C309 C 0.60457 0.24244 0.33662 0.0
C310 C 0.59081 0.26978 0.36079 0.0
N311 N 0.61196 0.25512 0.35477 0.0
C312 C 0.51103 0.2479 0.31681 0.0
C313 C 0.52372 0.20244 0.33914 0.0
C314 C 0.51697 0.20045 0.31723 0.0
C315 C 0.50903 0.22349 0.30646 0.0
C316 C 0.52597 0.22727 0.34876 0.0
N317 N 0.52061 0.2498 0.33736 0.0
H318 H 0.50792 0.2653 0.30724 0.0
H319 H 0.53504 0.2283 0.36451 0.0
H320 H 0.56818 0.24353 0.31767 0.0
H321 H 0.59048 0.28307 0.37448 0.0
O322 O 0.545 0.29766 0.31855 0.0
O323 O 0.55278 0.3172 0.35002 0.0
O324 O 0.53101 0.27532 0.37821 0.0
C325 C 0.55455 0.31778 0.32906 0.0
H326 H 0.45335 0.33873 0.36196 0.0
H327 H 0.61716 0.22987 0.32692 0.0
H328 H 0.52969 0.18521 0.34827 0.0
H329 H 0.50405 0.22321 0.28945 0.0
Co330 Co 0.23369 0.53716 0.8419 0.0
C331 C 0.20112 0.49512 0.82196 0.0
C332 C 0.21587 0.48277 0.85278 0.0
C333 C 0.20165 0.46228 0.84379 0.0
N334 N 0.21543 0.50349 0.83911 0.0
N335 N 0.19243 0.47007 0.82435 0.0
H336 H 0.19721 0.50707 0.80788 0.0
H337 H 0.22627 0.48213 0.86801 0.0
C338 C 0.25978 0.53894 0.88607 0.0
O339 O 0.27593 0.55749 0.87944 0.0
N340 N 0.25174 0.57113 0.84358 0.0
C341 C 0.27332 0.57851 0.83226 0.0
C342 C 0.2793 0.60424 0.83707 0.0
C343 C 0.24429 0.59312 0.8545 0.0
N344 N 0.26112 0.61341 0.85102 0.0
C345 C 0.26415 0.51731 0.80695 0.0
C346 C 0.31166 0.51337 0.82856 0.0
C347 C 0.3117 0.51351 0.80589 0.0
C348 C 0.28736 0.51373 0.79516 0.0
C349 C 0.2879 0.51672 0.83976 0.0
N350 N 0.26484 0.52094 0.82881 0.0
H351 H 0.24586 0.51933 0.79818 0.0
H352 H 0.28874 0.51766 0.85704 0.0
H353 H 0.28384 0.56651 0.82072 0.0
H354 H 0.22713 0.59423 0.86487 0.0
O355 O 0.21666 0.55008 0.81604 0.0
O356 O 0.20069 0.55414 0.84919 0.0
O357 O 0.24411 0.52754 0.87272 0.0
C358 C 0.19792 0.55854 0.82862 0.0
H359 H 0.19902 0.44291 0.85082 0.0
H360 H 0.29527 0.6157 0.83019 0.0
H361 H 0.33001 0.51236 0.83752 0.0
H362 H 0.28631 0.5136 0.77768 0.0
Co363 Co 0.96514 0.22795 0.34299 0.0
C364 C 0.00715 0.19384 0.32439 0.0
C365 C 0.02075 0.21431 0.35258 0.0
C366 C 0.04167 0.20066 0.3437 0.0
N367 N 0.999 0.20998 0.34051 0.0
N368 N 0.03307 0.18782 0.32596 0.0
H369 H 0.99484 0.18769 0.31104 0.0
H370 H 0.02183 0.22738 0.36634 0.0
C371 C 0.96346 0.25491 0.38681 0.0
O372 O 0.94446 0.27056 0.38021 0.0
N373 N 0.93105 0.24595 0.34441 0.0
C374 C 0.92387 0.26764 0.33314 0.0
C375 C 0.89813 0.27374 0.3378 0.0
C376 C 0.90891 0.2386 0.35519 0.0
N377 N 0.88873 0.25557 0.35165 0.0
C378 C 0.98431 0.25799 0.3075 0.0
C379 C 0.99046 0.30533 0.329 0.0
C380 C 0.98988 0.30539 0.30634 0.0
C381 C 0.98839 0.28105 0.29563 0.0
C382 C 0.98636 0.28175 0.34027 0.0
N383 N 0.98121 0.25883 0.32941 0.0
H384 H 0.98162 0.23973 0.29881 0.0
H385 H 0.98579 0.28267 0.35756 0.0
H386 H 0.93603 0.27827 0.3218 0.0
H387 H 0.90763 0.22145 0.36557 0.0
O388 O 0.95223 0.21011 0.31746 0.0
O389 O 0.94833 0.19515 0.35094 0.0
O390 O 0.97484 0.23913 0.37357 0.0
C391 C 0.94374 0.19181 0.33046 0.0
H392 H 0.06177 0.20065 0.34963 0.0
H393 H 0.88685 0.28987 0.33097 0.0
H394 H 0.99253 0.32358 0.33796 0.0
H395 H 0.98814 0.27995 0.27816 0.0
Co396 Co 0.27955 0.54124 0.15834 0.0
C397 C 0.30368 0.49446 0.17933 0.0
C398 C 0.30638 0.49145 0.14495 0.0
C399 C 0.31983 0.4705 0.154 0.0
N400 N 0.29543 0.50615 0.16083 0.0
N401 N 0.31823 0.47263 0.17562 0.0
H402 H 0.30078 0.50258 0.19528 0.0
H403 H 0.3065 0.49648 0.12801 0.0
C404 C 0.25993 0.51616 0.11714 0.0
O405 O 0.25128 0.49585 0.1283 0.0
N406 N 0.26454 0.5764 0.15657 0.0
C407 C 0.24802 0.58687 0.17137 0.0
C408 C 0.24174 0.61214 0.16535 0.0
C409 C 0.26886 0.59588 0.14204 0.0
N410 N 0.25482 0.6178 0.14701 0.0
C411 C 0.24257 0.51914 0.18838 0.0
C412 C 0.19781 0.53201 0.16517 0.0
C413 C 0.1951 0.52481 0.18695 0.0
C414 C 0.21786 0.5172 0.19825 0.0
C415 C 0.22293 0.53401 0.15599 0.0
N416 N 0.24508 0.52823 0.16773 0.0
H417 H 0.25972 0.51591 0.19824 0.0
H418 H 0.22452 0.54275 0.14015 0.0
H419 H 0.24125 0.57693 0.1858 0.0
H420 H 0.28205 0.59417 0.12835 0.0
O421 O 0.29402 0.55074 0.18611 0.0
O422 O 0.31452 0.55559 0.15462 0.0
O423 O 0.27121 0.53545 0.12676 0.0
C424 C 0.31492 0.55822 0.17552 0.0
H425 H 0.33159 0.45604 0.14542 0.0
H426 H 0.22925 0.62574 0.17417 0.0
H427 H 0.18084 0.53789 0.15568 0.0
H428 H 0.217 0.51206 0.21521 0.0
Co429 Co 0.96814 0.2821 0.65771 0.0
C430 C 0.01483 0.30944 0.67628 0.0
C431 C 0.01513 0.31149 0.64181 0.0
C432 C 0.03584 0.32635 0.64964 0.0
N433 N 0.00229 0.30012 0.6585 0.0
N434 N 0.03562 0.32505 0.67139 0.0
H435 H 0.00755 0.307 0.69252 0.0
H436 H 0.00905 0.31057 0.6251 0.0
C437 C 0.99321 0.26113 0.61707 0.0
O438 O 0.01418 0.25429 0.62826 0.0
N439 N 0.93382 0.2651 0.65745 0.0
C440 C 0.92454 0.24914 0.67315 0.0
C441 C 0.89934 0.24149 0.66797 0.0
C442 C 0.9137 0.26775 0.64323 0.0
N443 N 0.89254 0.2532 0.64926 0.0
C444 C 0.99367 0.24861 0.68879 0.0
C445 C 0.98054 0.20165 0.66879 0.0
C446 C 0.98892 0.20112 0.69038 0.0
C447 C 0.99703 0.22488 0.69988 0.0
C448 C 0.97787 0.22584 0.65811 0.0
N449 N 0.9834 0.24912 0.66841 0.0
H450 H 0.99676 0.26653 0.69764 0.0
H451 H 0.96837 0.22588 0.6425 0.0
H452 H 0.9352 0.24375 0.68762 0.0
H453 H 0.91439 0.28022 0.62904 0.0
O454 O 0.95872 0.29827 0.68489 0.0
O455 O 0.95148 0.31563 0.6525 0.0
O456 O 0.97347 0.2718 0.62651 0.0
C457 C 0.94931 0.31763 0.67338 0.0
H458 H 0.04936 0.33794 0.64 0.0
H459 H 0.88653 0.22909 0.67762 0.0
H460 H 0.97358 0.18392 0.66086 0.0
H461 H 0.00386 0.22544 0.71645 0.0
Co462 Co 0.22653 0.96863 0.15865 0.0
C463 C 0.20143 0.01588 0.17821 0.0
C464 C 0.19731 0.01626 0.14384 0.0
C465 C 0.18284 0.0369 0.15229 0.0
N466 N 0.20966 0.00335 0.16006 0.0
N467 N 0.18529 0.03645 0.17394 0.0
H468 H 0.2055 0.00908 0.19438 0.0
H469 H 0.19689 0.01002 0.12717 0.0
C470 C 0.24471 0.99212 0.11661 0.0
O471 O 0.25378 0.01262 0.12729 0.0
N472 N 0.2424 0.9338 0.15789 0.0
C473 C 0.25875 0.92409 0.17314 0.0
C474 C 0.26531 0.89864 0.16786 0.0
C475 C 0.23857 0.91376 0.1438 0.0
N476 N 0.25264 0.89209 0.14948 0.0
C477 C 0.26372 0.99305 0.1873 0.0
C478 C 0.30806 0.97782 0.16452 0.0
C479 C 0.31094 0.98562 0.18614 0.0
C480 C 0.2885 0.99466 0.19713 0.0
C481 C 0.28291 0.97626 0.15535 0.0
N482 N 0.26091 0.98293 0.16698 0.0
H483 H 0.24672 0.99713 0.19709 0.0
H484 H 0.28107 0.96683 0.13979 0.0
H485 H 0.26511 0.93467 0.18739 0.0
H486 H 0.2256 0.91488 0.12993 0.0
O487 O 0.21301 0.96063 0.187 0.0
O488 O 0.19202 0.95282 0.15614 0.0
O489 O 0.23378 0.97301 0.12672 0.0
C490 C 0.19218 0.95164 0.17715 0.0
H491 H 0.1699 0.04991 0.14332 0.0
H492 H 0.27763 0.88552 0.17731 0.0
H493 H 0.32484 0.97088 0.15528 0.0
H494 H 0.28955 0.00045 0.21395 0.0
Co495 Co 0.54103 0.22515 0.66112 0.0
C496 C 0.49409 0.19938 0.68048 0.0
C497 C 0.48964 0.20232 0.64623 0.0
C498 C 0.46838 0.18855 0.65444 0.0
N499 N 0.50552 0.20992 0.66266 0.0
N500 N 0.4714 0.18662 0.67597 0.0
H501 H 0.50274 0.19978 0.69644 0.0
H502 H 0.49386 0.20472 0.62927 0.0
C503 C 0.51786 0.24929 0.62087 0.0
O504 O 0.4987 0.25964 0.63242 0.0
N505 N 0.57659 0.23933 0.66026 0.0
C506 C 0.5876 0.25374 0.67621 0.0
C507 C 0.61311 0.2597 0.67066 0.0
C508 C 0.59593 0.23592 0.64545 0.0
N509 N 0.61838 0.24851 0.6514 0.0
C510 C 0.51669 0.26039 0.69153 0.0
C511 C 0.53481 0.3064 0.67267 0.0
C512 C 0.52431 0.30752 0.69363 0.0
C513 C 0.51398 0.28428 0.70254 0.0
C514 C 0.53682 0.28212 0.66206 0.0
N515 N 0.52862 0.25928 0.67179 0.0
H516 H 0.51119 0.24264 0.69985 0.0
H517 H 0.54732 0.28141 0.64687 0.0
H518 H 0.5778 0.25923 0.69108 0.0
H519 H 0.59376 0.22431 0.63087 0.0
O520 O 0.5499 0.2089 0.68835 0.0
O521 O 0.55472 0.1902 0.65609 0.0
O522 O 0.53581 0.23542 0.62991 0.0
C523 C 0.5572 0.18855 0.67697 0.0
H524 H 0.45289 0.17913 0.64517 0.0
H525 H 0.62712 0.27058 0.68043 0.0
H526 H 0.54349 0.32367 0.66521 0.0
H527 H 0.50542 0.28417 0.71858 0.0
H528 H 0.70053 0.95997 0.23734 0.0
H529 H 0.67252 0.9261 0.25339 0.0
H530 H 0.67925 0.87921 0.19551 0.0
H531 H 0.70728 0.91333 0.17917 0.0
H532 H 0.62386 0.91006 0.23519 0.0
H533 H 0.69371 0.8262 0.24555 0.0
H534 H 0.70473 0.85982 0.24185 0.0
H535 H 0.69273 0.84122 0.21922 0.0
C536 C 0.69611 0.94246 0.228 0.0
C537 C 0.70587 0.93945 0.20688 0.0
C538 C 0.68025 0.92306 0.23726 0.0
C539 C 0.67393 0.90016 0.22567 0.0
C540 C 0.68424 0.89661 0.20482 0.0
H541 H 0.53914 0.80107 0.25819 0.0
H542 H 0.57199 0.82726 0.2388 0.0
C543 C 0.70022 0.91609 0.19552 0.0
C544 C 0.65499 0.88111 0.235 0.0
H545 H 0.64899 0.81841 0.25462 0.0
C546 C 0.6293 0.88998 0.23936 0.0
C547 C 0.66229 0.85505 0.24053 0.0
C548 C 0.68991 0.84492 0.23673 0.0
C549 C 0.61068 0.87352 0.24928 0.0
C550 C 0.61788 0.84738 0.25468 0.0
C551 C 0.64355 0.83843 0.25027 0.0
C552 C 0.59915 0.82951 0.2657 0.0
C553 C 0.58368 0.88448 0.25445 0.0
C554 C 0.60398 0.82145 0.287 0.0
C555 C 0.5852 0.80655 0.29817 0.0
C556 C 0.5613 0.79943 0.28817 0.0
C557 C 0.55704 0.80672 0.26652 0.0
C558 C 0.57583 0.82158 0.25538 0.0
H559 H 0.58322 0.90638 0.25349 0.0
H560 H 0.56914 0.87661 0.24268 0.0
H561 H 0.57731 0.87841 0.27088 0.0
H562 H 0.6219 0.82742 0.29522 0.0
H563 H 0.58903 0.8014 0.31484 0.0
H564 H 0.68771 0.58134 0.82366 0.0
H565 H 0.66108 0.6133 0.80361 0.0
H566 H 0.69453 0.58518 0.74377 0.0
H567 H 0.72081 0.55278 0.76379 0.0
H568 H 0.67289 0.65369 0.77631 0.0
H569 H 0.61643 0.57607 0.73295 0.0
H570 H 0.63795 0.56869 0.75536 0.0
H571 H 0.65144 0.5741 0.72884 0.0
C572 C 0.68962 0.5822 0.80626 0.0
C573 C 0.70614 0.56444 0.79524 0.0
C574 C 0.67434 0.6004 0.79482 0.0
C575 C 0.67541 0.60123 0.77217 0.0
C576 C 0.69285 0.58437 0.7612 0.0
H577 H 0.58937 0.69659 0.6786 0.0
H578 H 0.62314 0.67018 0.69699 0.0
C579 C 0.7079 0.56595 0.77262 0.0
C580 C 0.6577 0.61923 0.76011 0.0
H581 H 0.60818 0.62031 0.72266 0.0
C582 C 0.65875 0.6464 0.76457 0.0
C583 C 0.63914 0.60962 0.7449 0.0
C584 C 0.63592 0.58052 0.74035 0.0
C585 C 0.64179 0.66422 0.75414 0.0
C586 C 0.62342 0.65458 0.73893 0.0
C587 C 0.62251 0.62754 0.73427 0.0
C588 C 0.60416 0.67208 0.72824 0.0
C589 C 0.64352 0.69324 0.75938 0.0
C590 C 0.58245 0.68178 0.73981 0.0
C591 C 0.5631 0.69669 0.72935 0.0
C592 C 0.56526 0.70223 0.70717 0.0
C593 C 0.58735 0.69288 0.69574 0.0
C594 C 0.60656 0.67774 0.70617 0.0
H595 H 0.66142 0.69805 0.76898 0.0
H596 H 0.64368 0.70511 0.7443 0.0
H597 H 0.62586 0.69916 0.76884 0.0
H598 H 0.58022 0.67736 0.75684 0.0
H599 H 0.54644 0.70385 0.7386 0.0
H600 H 0.91107 0.71969 0.31667 0.0
H601 H 0.87636 0.69328 0.2994 0.0
H602 H 0.93103 0.67016 0.24945 0.0
H603 H 0.9654 0.69694 0.26617 0.0
H604 H 0.88004 0.68381 0.23413 0.0
H605 H 0.87712 0.61161 0.3019 0.0
H606 H 0.87204 0.64568 0.30894 0.0
H607 H 0.90354 0.63519 0.29878 0.0
C608 C 0.91553 0.70926 0.30185 0.0
C609 C 0.94107 0.7101 0.29296 0.0
C610 C 0.89578 0.69404 0.29212 0.0
C611 C 0.90131 0.67949 0.27336 0.0
C612 C 0.92645 0.68113 0.26401 0.0
H613 H 0.83886 0.54031 0.21652 0.0
H614 H 0.86344 0.57513 0.23491 0.0
C615 C 0.94615 0.69625 0.27372 0.0
C616 C 0.88143 0.66163 0.26375 0.0
H617 H 0.84949 0.60324 0.27218 0.0
C618 C 0.87307 0.66633 0.24248 0.0
C619 C 0.87271 0.63874 0.27469 0.0
C620 C 0.88189 0.63226 0.29728 0.0
C621 C 0.85662 0.64839 0.23165 0.0
C622 C 0.84812 0.62537 0.24253 0.0
C623 C 0.85598 0.621 0.26397 0.0
C624 C 0.83275 0.60454 0.23147 0.0
C625 C 0.84945 0.65362 0.20837 0.0
C626 C 0.80727 0.60953 0.22356 0.0
C627 C 0.79314 0.5896 0.21303 0.0
C628 C 0.80419 0.56432 0.21043 0.0
C629 C 0.82965 0.55943 0.21853 0.0
C630 C 0.84376 0.57933 0.22896 0.0
H631 H 0.86184 0.6694 0.20114 0.0
H632 H 0.85163 0.63541 0.19854 0.0
H633 H 0.82851 0.65997 0.20746 0.0
H634 H 0.79825 0.62874 0.22569 0.0
H635 H 0.77343 0.59387 0.20725 0.0
H636 H 0.96901 0.80862 0.73862 0.0
H637 H 0.93545 0.83665 0.75518 0.0
H638 H 0.88485 0.82528 0.69994 0.0
H639 H 0.9185 0.7974 0.68307 0.0
H640 H 0.91557 0.88365 0.73695 0.0
H641 H 0.83619 0.8102 0.75225 0.0
H642 H 0.86999 0.80078 0.74703 0.0
H643 H 0.84896 0.81079 0.72515 0.0
C644 C 0.95079 0.81207 0.72994 0.0
C645 C 0.9465 0.80086 0.70945 0.0
C646 C 0.93157 0.82796 0.7395 0.0
C647 C 0.90764 0.83281 0.72886 0.0
C648 C 0.90303 0.82135 0.70858 0.0
H649 H 0.80178 0.96335 0.75709 0.0
H650 H 0.82987 0.9308 0.73914 0.0
C651 C 0.92227 0.80543 0.69898 0.0
C652 C 0.88825 0.85115 0.73848 0.0
H653 H 0.82576 0.85513 0.75888 0.0
C654 C 0.89592 0.87745 0.74174 0.0
C655 C 0.86276 0.84285 0.74482 0.0
C656 C 0.85394 0.81458 0.74234 0.0
C657 C 0.8787 0.8958 0.75114 0.0
C658 C 0.85305 0.88763 0.75715 0.0
C659 C 0.84539 0.8613 0.75403 0.0
C660 C 0.83431 0.90611 0.76741 0.0
C661 C 0.88825 0.92363 0.75497 0.0
C662 C 0.82692 0.90248 0.78902 0.0
C663 C 0.81098 0.9211 0.79936 0.0
C664 C 0.80209 0.94361 0.7882 0.0
C665 C 0.80873 0.94657 0.76627 0.0
C666 C 0.82468 0.92795 0.75596 0.0
H667 H 0.91007 0.9252 0.75362 0.0
H668 H 0.87932 0.93694 0.74274 0.0
H669 H 0.88217 0.93071 0.7712 0.0
H670 H 0.83419 0.88569 0.79808 0.0
H671 H 0.80645 0.91829 0.81628 0.0
H672 H 0.34632 0.01688 0.79194 0.0
H673 H 0.37177 0.04362 0.76646 0.0
H674 H 0.35118 0.11386 0.80218 0.0
H675 H 0.32672 0.08682 0.82826 0.0
H676 H 0.35916 0.08022 0.73947 0.0
H677 H 0.42844 0.12446 0.79834 0.0
H678 H 0.40621 0.09815 0.80558 0.0
H679 H 0.39476 0.13183 0.80483 0.0
C680 C 0.34727 0.03803 0.79433 0.0
C681 C 0.33466 0.04982 0.8121 0.0
C682 C 0.36185 0.05333 0.77978 0.0
C683 C 0.36391 0.0808 0.78253 0.0
C684 C 0.35071 0.09266 0.80002 0.0
H685 H 0.41819 0.18328 0.67691 0.0
H686 H 0.39122 0.15828 0.7027 0.0
C687 C 0.33657 0.07727 0.81484 0.0
C688 C 0.37948 0.09687 0.76685 0.0
H689 H 0.4286 0.14287 0.76302 0.0
C690 C 0.37444 0.09383 0.74465 0.0
C691 C 0.39975 0.11439 0.77346 0.0
C692 C 0.40782 0.11721 0.79683 0.0
C693 C 0.38897 0.10769 0.72897 0.0
C694 C 0.40846 0.12604 0.73563 0.0
C695 C 0.41351 0.12907 0.75783 0.0
C696 C 0.42454 0.14163 0.71995 0.0
C697 C 0.38381 0.10176 0.70544 0.0
C698 C 0.45223 0.14154 0.72145 0.0
C699 C 0.46755 0.15639 0.70711 0.0
C700 C 0.45554 0.17144 0.69077 0.0
C701 C 0.42788 0.17155 0.68919 0.0
C702 C 0.41251 0.15711 0.70384 0.0
H703 H 0.37489 0.08189 0.70329 0.0
H704 H 0.36967 0.11647 0.69892 0.0
H705 H 0.40225 0.10269 0.69579 0.0
H706 H 0.46208 0.12982 0.73368 0.0
H707 H 0.48884 0.15575 0.70856 0.0
H708 H 0.48598 0.3516 0.29619 0.0
H709 H 0.4595 0.37679 0.27034 0.0
H710 H 0.38876 0.35554 0.30514 0.0
H711 H 0.41559 0.33156 0.33169 0.0
H712 H 0.42437 0.364 0.24287 0.0
H713 H 0.37611 0.43205 0.3005 0.0
H714 H 0.40255 0.41036 0.3085 0.0
H715 H 0.36913 0.39828 0.30687 0.0
C716 C 0.46478 0.35244 0.29831 0.0
C717 C 0.45278 0.33978 0.31595 0.0
C718 C 0.44962 0.36684 0.28355 0.0
C719 C 0.42205 0.36861 0.2859 0.0
C720 C 0.41 0.35536 0.30329 0.0
H721 H 0.32324 0.41964 0.17683 0.0
H722 H 0.34743 0.39353 0.20373 0.0
C723 C 0.42527 0.34147 0.31837 0.0
C724 C 0.40609 0.38376 0.26983 0.0
H725 H 0.35866 0.43138 0.2648 0.0
C726 C 0.41012 0.37886 0.24771 0.0
C727 C 0.38772 0.4035 0.27598 0.0
C728 C 0.38382 0.41157 0.29924 0.0
C729 C 0.39645 0.393 0.23168 0.0
C730 C 0.37717 0.41184 0.23785 0.0
C731 C 0.37315 0.41676 0.25996 0.0
C732 C 0.36163 0.42738 0.22174 0.0
C733 C 0.40363 0.38815 0.20834 0.0
C734 C 0.36037 0.45505 0.22336 0.0
C735 C 0.34583 0.46983 0.20842 0.0
C736 C 0.33253 0.45731 0.19135 0.0
C737 C 0.33362 0.4297 0.18972 0.0
C738 C 0.34764 0.41483 0.20499 0.0
H739 H 0.42396 0.38012 0.20678 0.0
H740 H 0.38988 0.37336 0.20139 0.0
H741 H 0.40232 0.40654 0.19865 0.0
H742 H 0.37089 0.4653 0.23608 0.0
H743 H 0.34548 0.49112 0.20991 0.0
H744 H 0.04524 0.31254 0.71336 0.0
H745 H 0.07174 0.33734 0.73931 0.0
H746 H 0.0917 0.3937 0.68977 0.0
H747 H 0.06436 0.36968 0.66392 0.0
H748 H 0.1242 0.34935 0.73958 0.0
H749 H 0.06525 0.44157 0.73749 0.0
H750 H 0.05361 0.41106 0.72585 0.0
H751 H 0.07681 0.43133 0.7114 0.0
C752 C 0.05493 0.3304 0.70799 0.0
C753 C 0.05227 0.33919 0.6865 0.0
C754 C 0.07028 0.34447 0.72285 0.0
C755 C 0.08334 0.36769 0.71665 0.0
C756 C 0.08132 0.37619 0.69511 0.0
H757 H 0.18812 0.47806 0.78094 0.0
H758 H 0.16175 0.45276 0.75531 0.0
C759 C 0.06589 0.36218 0.68023 0.0
C760 C 0.09931 0.38276 0.73266 0.0
H761 H 0.10608 0.44338 0.75634 0.0
C762 C 0.12015 0.36987 0.74332 0.0
C763 C 0.09399 0.40954 0.73762 0.0
C764 C 0.07105 0.42415 0.72766 0.0
C765 C 0.1361 0.38314 0.75842 0.0
C766 C 0.13092 0.40996 0.7632 0.0
C767 C 0.11007 0.42284 0.7526 0.0
C768 C 0.14703 0.4251 0.77901 0.0
C769 C 0.15875 0.36854 0.76881 0.0
C770 C 0.14735 0.41815 0.80096 0.0
C771 C 0.16226 0.43278 0.8158 0.0
C772 C 0.17715 0.45476 0.80902 0.0
C773 C 0.17669 0.46161 0.78695 0.0
C774 C 0.16171 0.44703 0.77217 0.0
H775 H 0.16374 0.35014 0.75992 0.0
H776 H 0.17661 0.38121 0.76961 0.0
H777 H 0.15321 0.36307 0.78556 0.0
H778 H 0.13578 0.40158 0.80668 0.0
H779 H 0.16174 0.42709 0.83264 0.0
H780 H 0.08484 0.19459 0.31614 0.0
H781 H 0.11089 0.16966 0.28986 0.0
H782 H 0.04303 0.12135 0.27544 0.0
H783 H 0.01675 0.14662 0.30141 0.0
H784 H 0.1247 0.1193 0.28788 0.0
H785 H 0.06464 0.14272 0.21566 0.0
H786 H 0.06011 0.15944 0.24112 0.0
H787 H 0.04557 0.12747 0.23663 0.0
C788 C 0.07547 0.17861 0.30743 0.0
C789 C 0.04865 0.17269 0.31081 0.0
C790 C 0.09038 0.16441 0.29233 0.0
C791 C 0.07886 0.1439 0.28029 0.0
C792 C 0.05222 0.13757 0.28399 0.0
H793 H 0.16669 0.02092 0.21305 0.0
H794 H 0.14145 0.04733 0.23881 0.0
C795 C 0.03722 0.15196 0.29893 0.0
C796 C 0.09494 0.12883 0.26428 0.0
H797 H 0.09685 0.10878 0.21155 0.0
C798 C 0.11864 0.11713 0.27116 0.0
C799 C 0.08737 0.12631 0.24234 0.0
C800 C 0.06319 0.13988 0.23342 0.0
C801 C 0.13469 0.10265 0.25689 0.0
C802 C 0.12649 0.09908 0.2352 0.0
C803 C 0.10304 0.1112 0.22821 0.0
C804 C 0.14194 0.08295 0.21948 0.0
C805 C 0.16056 0.09183 0.26515 0.0
C806 C 0.14995 0.09377 0.19962 0.0
C807 C 0.16416 0.07855 0.18471 0.0
C808 C 0.17078 0.0522 0.18937 0.0
C809 C 0.16253 0.04134 0.20917 0.0
C810 C 0.1481 0.05646 0.22396 0.0
H811 H 0.16768 0.10303 0.27945 0.0
H812 H 0.15774 0.071 0.27019 0.0
H813 H 0.17606 0.09245 0.25248 0.0
H814 H 0.14535 0.1141 0.1957 0.0
H815 H 0.17026 0.08747 0.16962 0.0
H816 H 0.64231 0.08958 0.16681 0.0
H817 H 0.60331 0.10607 0.18582 0.0
H818 H 0.62267 0.05762 0.24085 0.0
H819 H 0.66122 0.04043 0.22178 0.0
H820 H 0.56749 0.06416 0.23489 0.0
H821 H 0.62221 0.15946 0.23292 0.0
H822 H 0.61464 0.14564 0.20695 0.0
H823 H 0.6371 0.12875 0.2247 0.0
C824 C 0.63788 0.08189 0.18274 0.0
C825 C 0.65515 0.06411 0.19297 0.0
C826 C 0.61561 0.09137 0.19358 0.0
C827 C 0.61051 0.08357 0.21493 0.0
C828 C 0.62633 0.064 0.22441 0.0
H829 H 0.55893 0.16734 0.32324 0.0
H830 H 0.57604 0.13485 0.29812 0.0
C831 C 0.64842 0.05425 0.21349 0.0
C832 C 0.59147 0.0984 0.22847 0.0
H833 H 0.58223 0.15874 0.25182 0.0
C834 C 0.57044 0.08492 0.23839 0.0
C835 C 0.59567 0.12542 0.23326 0.0
C836 C 0.61872 0.14068 0.22409 0.0
C837 C 0.55373 0.09778 0.25321 0.0
C838 C 0.55828 0.12458 0.25812 0.0
C839 C 0.5788 0.13817 0.24781 0.0
C840 C 0.54392 0.13867 0.27539 0.0
C841 C 0.53199 0.0826 0.26422 0.0
C842 C 0.51955 0.15079 0.27128 0.0
C843 C 0.50934 0.16934 0.28587 0.0
C844 C 0.52358 0.17623 0.30461 0.0
C845 C 0.54703 0.1624 0.30929 0.0
C846 C 0.55705 0.14385 0.29483 0.0
H847 H 0.53084 0.06184 0.25853 0.0
H848 H 0.53531 0.08267 0.28195 0.0
H849 H 0.51274 0.09243 0.26117 0.0
H850 H 0.50926 0.14713 0.25623 0.0
H851 H 0.49107 0.17931 0.28187 0.0
H852 H 0.35113 0.54787 0.81568 0.0
H853 H 0.38645 0.56294 0.79207 0.0
H854 H 0.36372 0.50537 0.74421 0.0
H855 H 0.32771 0.49045 0.76775 0.0
H856 H 0.42938 0.54266 0.77157 0.0
H857 H 0.35336 0.57347 0.71154 0.0
H858 H 0.34466 0.56209 0.73818 0.0
H859 H 0.35451 0.53888 0.71775 0.0
C860 C 0.35406 0.53782 0.80041 0.0
C861 C 0.33646 0.51808 0.79353 0.0
C862 C 0.37424 0.54658 0.78685 0.0
C863 C 0.37737 0.53575 0.76613 0.0
C864 C 0.36123 0.51453 0.75988 0.0
H865 H 0.46822 0.62663 0.66892 0.0
H866 H 0.44978 0.58648 0.68564 0.0
C867 C 0.34077 0.50591 0.77339 0.0
C868 C 0.39584 0.54864 0.75072 0.0
H869 H 0.3966 0.58748 0.70556 0.0
C870 C 0.42232 0.552 0.7569 0.0
C871 C 0.38667 0.56087 0.73152 0.0
C872 C 0.35824 0.55889 0.72435 0.0
C873 C 0.4394 0.56845 0.74513 0.0
C874 C 0.42974 0.58186 0.72674 0.0
C875 C 0.40392 0.57701 0.71963 0.0
C876 C 0.44421 0.60435 0.71707 0.0
C877 C 0.4673 0.57235 0.75299 0.0
C878 C 0.44717 0.6275 0.72922 0.0
C879 C 0.45716 0.65032 0.71969 0.0
C880 C 0.46463 0.65046 0.69783 0.0
C881 C 0.46276 0.62697 0.68583 0.0
C882 C 0.45225 0.60411 0.69534 0.0
H883 H 0.47402 0.55543 0.76299 0.0
H884 H 0.48111 0.57495 0.73922 0.0
H885 H 0.46816 0.59041 0.76312 0.0
H886 H 0.44068 0.62825 0.74589 0.0
H887 H 0.45847 0.66811 0.72936 0.0
H888 H 0.01166 0.31931 0.26712 0.0
H889 H 0.9984 0.35637 0.24408 0.0
H890 H 0.94617 0.38408 0.29424 0.0
H891 H 0.95931 0.34754 0.31718 0.0
H892 H 0.94997 0.36219 0.22924 0.0
H893 H 0.97448 0.45306 0.27357 0.0
H894 H 0.98895 0.42157 0.28046 0.0
H895 H 0.95716 0.43096 0.29114 0.0
C896 C 0.99785 0.33371 0.27342 0.0
C897 C 0.98659 0.33043 0.29403 0.0
C898 C 0.99035 0.35493 0.26026 0.0
C899 C 0.97154 0.37331 0.26749 0.0
C900 C 0.96133 0.37075 0.28848 0.0
H901 H 0.83862 0.45167 0.23189 0.0
H902 H 0.87864 0.43262 0.24716 0.0
C903 C 0.96887 0.34969 0.30163 0.0
C904 C 0.9594 0.39259 0.25235 0.0
H905 H 0.9349 0.45538 0.25049 0.0
C906 C 0.94745 0.38281 0.23348 0.0
C907 C 0.95616 0.41956 0.25775 0.0
C908 C 0.97016 0.4319 0.27673 0.0
C909 C 0.93039 0.39857 0.22109 0.0
C910 C 0.92525 0.42476 0.22771 0.0
C911 C 0.93879 0.43521 0.24553 0.0
C912 C 0.90255 0.43959 0.2188 0.0
C913 C 0.91626 0.38651 0.20203 0.0
C914 C 0.90295 0.4504 0.1979 0.0
C915 C 0.87996 0.46155 0.18909 0.0
C916 C 0.85632 0.46163 0.20101 0.0
C917 C 0.85644 0.45167 0.22221 0.0
C918 C 0.87933 0.4409 0.23102 0.0
H919 H 0.92202 0.36562 0.19929 0.0
H920 H 0.89458 0.38741 0.20462 0.0
H921 H 0.92079 0.39799 0.18722 0.0
H922 H 0.92076 0.44955 0.18825 0.0
H923 H 0.88041 0.46906 0.17271 0.0
H924 H 0.16248 0.94274 0.81573 0.0
H925 H 0.12671 0.93042 0.79168 0.0
H926 H 0.14018 0.00034 0.75355 0.0
H927 H 0.17619 0.01322 0.77794 0.0
H928 H 0.07956 0.95533 0.77708 0.0
H929 H 0.15245 0.93904 0.71078 0.0
H930 H 0.1628 0.9438 0.7384 0.0
H931 H 0.15078 0.97125 0.72294 0.0
C932 C 0.15744 0.95608 0.8027 0.0
C933 C 0.17236 0.97903 0.79882 0.0
C934 C 0.13699 0.94886 0.78883 0.0
C935 C 0.13101 0.96425 0.77067 0.0
C936 C 0.14478 0.98795 0.76731 0.0
H937 H 0.0418 0.87662 0.67073 0.0
H938 H 0.05847 0.91718 0.68809 0.0
C939 C 0.16533 0.99527 0.78126 0.0
C940 C 0.11198 0.95375 0.7546 0.0
H941 H 0.11051 0.92067 0.70653 0.0
C942 C 0.08609 0.94838 0.76138 0.0
C943 C 0.12045 0.94485 0.73404 0.0
C944 C 0.14813 0.94984 0.726 0.0
C945 C 0.06916 0.9326 0.74891 0.0
C946 C 0.0785 0.92168 0.72933 0.0
C947 C 0.10345 0.92907 0.72158 0.0
C948 C 0.06527 0.89875 0.71914 0.0
C949 C 0.04193 0.92649 0.75739 0.0
C950 C 0.06366 0.87511 0.73082 0.0
C951 C 0.05463 0.85214 0.72096 0.0
C952 C 0.04687 0.85222 0.69917 0.0
C953 C 0.04754 0.87608 0.68758 0.0
C954 C 0.05704 0.89918 0.69745 0.0
H955 H 0.03446 0.94275 0.76777 0.0
H956 H 0.02774 0.92312 0.74399 0.0
H957 H 0.04281 0.90834 0.7674 0.0
H958 H 0.07042 0.87416 0.74741 0.0
H959 H 0.05422 0.8341 0.73037 0.0
H960 H 0.5384 0.30939 0.73612 0.0
H961 H 0.55156 0.34758 0.75705 0.0
H962 H 0.53355 0.39846 0.70317 0.0
H963 H 0.52001 0.35992 0.68187 0.0
H964 H 0.58262 0.40572 0.71708 0.0
H965 H 0.51785 0.40799 0.78843 0.0
H966 H 0.53046 0.37527 0.78477 0.0
H967 H 0.50943 0.3896 0.76438 0.0
C968 C 0.53617 0.32872 0.72887 0.0
C969 C 0.52798 0.33149 0.70726 0.0
C970 C 0.5437 0.35067 0.74097 0.0
C971 C 0.5431 0.37603 0.73189 0.0
C972 C 0.53393 0.3791 0.7106 0.0
H973 H 0.63332 0.49774 0.80526 0.0
H974 H 0.5949 0.48012 0.78548 0.0
C975 C 0.52635 0.35705 0.69842 0.0
C976 C 0.556 0.39818 0.74356 0.0
H977 H 0.56343 0.42372 0.79431 0.0
C978 C 0.57782 0.41035 0.73374 0.0
C979 C 0.54973 0.4045 0.76526 0.0
C980 C 0.52538 0.39382 0.77619 0.0
C981 C 0.59493 0.42653 0.74563 0.0
C982 C 0.5902 0.43047 0.76789 0.0
C983 C 0.56713 0.42039 0.77726 0.0
C984 C 0.61126 0.44091 0.78201 0.0
C985 C 0.61907 0.4378 0.73475 0.0
C986 C 0.63258 0.42444 0.78704 0.0
C987 C 0.6543 0.4343 0.79818 0.0
C988 C 0.65516 0.46091 0.80462 0.0
C989 C 0.63314 0.47713 0.80059 0.0
C990 C 0.61127 0.46717 0.78926 0.0
H991 H 0.61701 0.43793 0.71688 0.0
H992 H 0.62288 0.45824 0.74043 0.0
H993 H 0.63652 0.42557 0.73898 0.0
H994 H 0.63279 0.40407 0.78166 0.0
H995 H 0.67082 0.4212 0.80119 0.0
H996 H 0.17344 0.49577 0.22031 0.0
H997 H 0.13635 0.50857 0.24353 0.0
H998 H 0.12298 0.57722 0.20388 0.0
H999 H 0.16 0.56516 0.1811 0.0
H1000 H 0.13573 0.55513 0.2666 0.0
H1001 H 0.04808 0.55128 0.21387 0.0
H1002 H 0.07829 0.53392 0.20753 0.0
H1003 H 0.07469 0.56836 0.20087 0.0
C1004 C 0.16232 0.51337 0.21633 0.0
C1005 C 0.1698 0.52936 0.19874 0.0
C1006 C 0.14104 0.52055 0.22956 0.0
C1007 C 0.12662 0.54362 0.22525 0.0
C1008 C 0.13329 0.55892 0.20718 0.0
H1009 H 0.05246 0.67343 0.27145 0.0
H1010 H 0.06979 0.63482 0.25296 0.0
C1011 C 0.15457 0.5519 0.19408 0.0
C1012 C 0.10705 0.55401 0.24095 0.0
H1013 H 0.04677 0.58401 0.24288 0.0
C1014 C 0.11593 0.5607 0.26173 0.0
C1015 C 0.08119 0.56113 0.23461 0.0
C1016 C 0.06993 0.55303 0.21306 0.0
C1017 C 0.10064 0.57661 0.27549 0.0
C1018 C 0.07573 0.58571 0.26832 0.0
C1019 C 0.06593 0.57709 0.24831 0.0
C1020 C 0.06211 0.60786 0.27931 0.0
C1021 C 0.11217 0.58546 0.29678 0.0
C1022 C 0.05141 0.6054 0.30017 0.0
C1023 C 0.04135 0.62766 0.31091 0.0
C1024 C 0.0421 0.6526 0.30093 0.0
C1025 C 0.05183 0.65459 0.27971 0.0
C1026 C 0.06163 0.63248 0.26904 0.0
H1027 H 0.1327 0.57831 0.29914 0.0
H1028 H 0.11214 0.60735 0.29778 0.0
H1029 H 0.09984 0.57784 0.31022 0.0
H1030 H 0.05141 0.58647 0.30829 0.0
H1031 H 0.03395 0.62554 0.32723 0.0
H1032 H 0.99695 0.14868 0.67994 0.0
H1033 H 0.98161 0.11005 0.70036 0.0
H1034 H 0.95441 0.16121 0.75141 0.0
H1035 H 0.9695 0.19947 0.73141 0.0
H1036 H 0.97536 0.1143 0.76717 0.0
H1037 H 0.90226 0.09677 0.70129 0.0
H1038 H 0.93661 0.09558 0.69411 0.0
H1039 H 0.92203 0.12631 0.70233 0.0
C1040 C 0.9881 0.15161 0.69568 0.0
C1041 C 0.98441 0.17725 0.70395 0.0
C1042 C 0.97934 0.12953 0.70732 0.0
C1043 C 0.9665 0.13279 0.72727 0.0
C1044 C 0.96437 0.15817 0.73611 0.0
H1045 H 0.83477 0.08632 0.79137 0.0
H1046 H 0.87309 0.10353 0.77241 0.0
C1047 C 0.97316 0.18012 0.72461 0.0
C1048 C 0.95236 0.11076 0.73804 0.0
H1049 H 0.89557 0.07481 0.73387 0.0
C1050 C 0.95832 0.10504 0.75973 0.0
C1051 C 0.93002 0.09884 0.72833 0.0
C1052 C 0.92212 0.10469 0.70529 0.0
C1053 C 0.94151 0.08923 0.77236 0.0
C1054 C 0.91835 0.07883 0.76297 0.0
C1055 C 0.91347 0.08284 0.74092 0.0
C1056 C 0.89657 0.06821 0.77631 0.0
C1057 C 0.9474 0.0854 0.79602 0.0
C1058 C 0.89732 0.04272 0.78523 0.0
C1059 C 0.87525 0.03271 0.79626 0.0
C1060 C 0.8522 0.04805 0.79831 0.0
C1061 C 0.85207 0.07386 0.78995 0.0
C1062 C 0.87397 0.08377 0.77909 0.0
H1063 H 0.96639 0.09466 0.80086 0.0
H1064 H 0.93126 0.0941 0.80586 0.0
H1065 H 0.94827 0.064 0.79978 0.0
H1066 H 0.91461 0.0304 0.78314 0.0
H1067 H 0.87587 0.01272 0.80244 0.0
H1068 H 0.34283 0.94252 0.18188 0.0
H1069 H 0.37868 0.92878 0.20534 0.0
H1070 H 0.37075 0.00048 0.2423 0.0
H1071 H 0.33465 0.01476 0.21852 0.0
H1072 H 0.42756 0.9509 0.21806 0.0
H1073 H 0.35698 0.94173 0.28686 0.0
H1074 H 0.34574 0.94628 0.25946 0.0
H1075 H 0.36001 0.97341 0.27399 0.0
C1076 C 0.34913 0.95591 0.19451 0.0
C1077 C 0.33572 0.97981 0.19825 0.0
C1078 C 0.3696 0.94787 0.20805 0.0
C1079 C 0.37714 0.9634 0.22576 0.0
C1080 C 0.36492 0.98798 0.22893 0.0
H1081 H 0.4694 0.8777 0.3255 0.0
H1082 H 0.45253 0.91753 0.30715 0.0
C1083 C 0.34433 0.9961 0.21531 0.0
C1084 C 0.39622 0.95233 0.24155 0.0
H1085 H 0.39828 0.92178 0.29072 0.0
C1086 C 0.42142 0.94513 0.23417 0.0
C1087 C 0.38826 0.94492 0.26263 0.0
C1088 C 0.36126 0.95179 0.2713 0.0
C1089 C 0.43808 0.92911 0.24669 0.0
C1090 C 0.42918 0.91987 0.26696 0.0
C1091 C 0.40501 0.92894 0.27516 0.0
C1092 C 0.44191 0.89705 0.27772 0.0
C1093 C 0.46447 0.92096 0.23761 0.0
C1094 C 0.44136 0.87252 0.26729 0.0
C1095 C 0.4505 0.84997 0.27772 0.0
C1096 C 0.46055 0.85139 0.29886 0.0
C1097 C 0.46185 0.87609 0.30918 0.0
C1098 C 0.45225 0.89878 0.29875 0.0
H1099 H 0.47204 0.93583 0.22596 0.0
H1100 H 0.47926 0.91815 0.25066 0.0
H1101 H 0.46221 0.90197 0.22885 0.0
H1102 H 0.43302 0.87064 0.25124 0.0
H1103 H 0.44935 0.83128 0.26926 0.0
H1104 H 0.46029 0.82157 0.69807 0.0
H1105 H 0.44309 0.85642 0.72129 0.0
H1106 H 0.45664 0.80763 0.77733 0.0
H1107 H 0.4732 0.77232 0.75408 0.0
H1108 H 0.40637 0.82203 0.77413 0.0
H1109 H 0.46823 0.91102 0.76365 0.0
H1110 H 0.45808 0.89754 0.73819 0.0
H1111 H 0.47926 0.87855 0.75565 0.0
C1112 C 0.46045 0.81857 0.7154 0.0
C1113 C 0.46785 0.79412 0.72425 0.0
C1114 C 0.45073 0.83863 0.7287 0.0
C1115 C 0.44868 0.83473 0.75109 0.0
C1116 C 0.45808 0.81108 0.7601 0.0
H1117 H 0.35668 0.92318 0.84615 0.0
H1118 H 0.39194 0.8976 0.82897 0.0
C1119 C 0.46758 0.79093 0.74679 0.0
C1120 C 0.43282 0.85319 0.76441 0.0
H1121 H 0.4237 0.91837 0.77659 0.0
C1122 C 0.41051 0.84301 0.77501 0.0
C1123 C 0.43806 0.88061 0.7654 0.0
C1124 C 0.46237 0.89252 0.75528 0.0
C1125 C 0.39283 0.85958 0.7859 0.0
C1126 C 0.39759 0.88701 0.78623 0.0
C1127 C 0.42015 0.89726 0.77615 0.0
C1128 C 0.37853 0.90518 0.7964 0.0
C1129 C 0.36864 0.84784 0.79641 0.0
C1130 C 0.3597 0.91816 0.78366 0.0
C1131 C 0.33944 0.93263 0.79339 0.0
C1132 C 0.33782 0.93435 0.81601 0.0
C1133 C 0.35739 0.92217 0.82868 0.0
C1134 C 0.37757 0.90763 0.81893 0.0
H1135 H 0.36687 0.82629 0.7934 0.0
H1136 H 0.36951 0.85116 0.81413 0.0
H1137 H 0.35059 0.85779 0.79028 0.0
H1138 H 0.36015 0.9163 0.76622 0.0
H1139 H 0.32471 0.94189 0.78322 0.0
H1140 H 0.73424 0.46397 0.2577 0.0
H1141 H 0.69721 0.44641 0.27863 0.0
H1142 H 0.64713 0.45133 0.22249 0.0
H1143 H 0.68394 0.46894 0.20139 0.0
H1144 H 0.63152 0.4627 0.27948 0.0
H1145 H 0.66821 0.36846 0.2436 0.0
H1146 H 0.69032 0.39566 0.24884 0.0
H1147 H 0.66688 0.39789 0.22725 0.0
C1148 C 0.71511 0.46225 0.25 0.0
C1149 C 0.71207 0.46746 0.22783 0.0
C1150 C 0.69399 0.45226 0.262 0.0
C1151 C 0.66964 0.44751 0.25199 0.0
C1152 C 0.66584 0.45501 0.23043 0.0
H1153 H 0.55485 0.32774 0.28579 0.0
H1154 H 0.5795 0.36219 0.26683 0.0
C1155 C 0.68691 0.465 0.21842 0.0
C1156 C 0.65006 0.43047 0.26269 0.0
H1157 H 0.63232 0.36585 0.26728 0.0
C1158 C 0.63151 0.44154 0.27683 0.0
C1159 C 0.6502 0.40297 0.25899 0.0
C1160 C 0.66994 0.39032 0.2439 0.0
C1161 C 0.61294 0.42556 0.28751 0.0
C1162 C 0.61346 0.39791 0.28417 0.0
C1163 C 0.63189 0.38704 0.26977 0.0
C1164 C 0.59585 0.3795 0.29588 0.0
C1165 C 0.59281 0.43844 0.30205 0.0
C1166 C 0.59668 0.37796 0.31851 0.0
C1167 C 0.58251 0.35839 0.32937 0.0
C1168 C 0.56761 0.3398 0.31775 0.0
C1169 C 0.56629 0.34173 0.29515 0.0
C1170 C 0.58028 0.36143 0.28431 0.0
H1171 H 0.58978 0.45952 0.29775 0.0
H1172 H 0.57352 0.42807 0.3012 0.0
H1173 H 0.59994 0.43765 0.31898 0.0
H1174 H 0.60908 0.39124 0.32773 0.0
H1175 H 0.58399 0.35728 0.34681 0.0
H1176 H 0.05362 0.68174 0.70322 0.0
H1177 H 0.0697 0.648 0.72795 0.0
H1178 H 0.05107 0.69816 0.78221 0.0
H1179 H 0.03578 0.73247 0.7574 0.0
H1180 H 0.10092 0.68477 0.78268 0.0
H1181 H 0.04337 0.5938 0.76938 0.0
H1182 H 0.05514 0.60658 0.74417 0.0
H1183 H 0.03212 0.62564 0.76001 0.0
C1184 C 0.05211 0.68526 0.72044 0.0
C1185 C 0.04368 0.70982 0.72839 0.0
C1186 C 0.06117 0.66582 0.73461 0.0
C1187 C 0.06144 0.67041 0.75699 0.0
C1188 C 0.051 0.69416 0.76501 0.0
H1189 H 0.15963 0.58466 0.85122 0.0
H1190 H 0.1229 0.61053 0.83641 0.0
C1191 C 0.04225 0.71374 0.75082 0.0
C1192 C 0.07665 0.65263 0.7714 0.0
H1193 H 0.08828 0.58769 0.78278 0.0
C1194 C 0.09769 0.66361 0.78315 0.0
C1195 C 0.07256 0.625 0.77194 0.0
C1196 C 0.04937 0.61215 0.76086 0.0
C1197 C 0.11562 0.64763 0.79437 0.0
C1198 C 0.11235 0.61997 0.79388 0.0
C1199 C 0.09072 0.60896 0.78297 0.0
C1200 C 0.1326 0.60228 0.80306 0.0
C1201 C 0.13879 0.66029 0.80569 0.0
C1202 C 0.1498 0.58883 0.78915 0.0
C1203 C 0.17083 0.57425 0.79751 0.0
C1204 C 0.17485 0.57276 0.81993 0.0
C1205 C 0.15703 0.58553 0.83387 0.0
C1206 C 0.13607 0.60026 0.82547 0.0
H1207 H 0.14001 0.68185 0.80256 0.0
H1208 H 0.13693 0.65721 0.82338 0.0
H1209 H 0.15753 0.65092 0.8004 0.0
H1210 H 0.14741 0.59029 0.77179 0.0
H1211 H 0.18414 0.56447 0.78639 0.0
H1212 H 0.93708 0.17657 0.2886 0.0
H1213 H 0.90969 0.14033 0.27511 0.0
H1214 H 0.88919 0.1191 0.34042 0.0
H1215 H 0.91668 0.15527 0.35414 0.0
H1216 H 0.90972 0.07952 0.29101 0.0
H1217 H 0.81881 0.14012 0.30282 0.0
H1218 H 0.85061 0.15546 0.29879 0.0
H1219 H 0.84359 0.13894 0.32372 0.0
C1220 C 0.92696 0.16404 0.30011 0.0
C1221 C 0.92886 0.16882 0.32241 0.0
C1222 C 0.91147 0.1433 0.29238 0.0
C1223 C 0.89754 0.12717 0.30681 0.0
C1224 C 0.89993 0.13138 0.3291 0.0
H1225 H 0.76337 0.03641 0.2598 0.0
H1226 H 0.79627 0.05182 0.28586 0.0
C1227 C 0.91558 0.15202 0.33687 0.0
C1228 C 0.8789 0.10739 0.2983 0.0
H1229 H 0.81433 0.10016 0.28424 0.0
C1230 C 0.88877 0.08373 0.28978 0.0
C1231 C 0.85165 0.11294 0.29701 0.0
C1232 C 0.84032 0.13823 0.306 0.0
C1233 C 0.87204 0.06575 0.27924 0.0
C1234 C 0.84499 0.07209 0.27669 0.0
C1235 C 0.83502 0.09522 0.28621 0.0
C1236 C 0.82725 0.05703 0.26215 0.0
C1237 C 0.88361 0.04035 0.27075 0.0
C1238 C 0.83399 0.05395 0.24029 0.0
C1239 C 0.81534 0.04488 0.22545 0.0
C1240 C 0.78945 0.0392 0.23212 0.0
C1241 C 0.78317 0.04067 0.25419 0.0
C1242 C 0.80194 0.04951 0.26909 0.0
H1243 H 0.90044 0.03374 0.28092 0.0
H1244 H 0.86865 0.02435 0.27017 0.0
H1245 H 0.8913 0.04368 0.25418 0.0
H1246 H 0.85309 0.06024 0.23438 0.0
H1247 H 0.82077 0.04408 0.20853 0.0
H1248 H 0.48234 0.6803 0.29644 0.0
H1249 H 0.47074 0.64148 0.27477 0.0
H1250 H 0.4353 0.69249 0.22694 0.0
H1251 H 0.44855 0.73087 0.24758 0.0
H1252 H 0.42604 0.62446 0.26833 0.0
H1253 H 0.46381 0.64101 0.18683 0.0
H1254 H 0.47538 0.6605 0.20931 0.0
H1255 H 0.44668 0.67058 0.19398 0.0
C1256 C 0.47296 0.6831 0.28088 0.0
C1257 C 0.46642 0.70853 0.27362 0.0
C1258 C 0.46625 0.66094 0.26853 0.0
C1259 C 0.4524 0.66387 0.24896 0.0
C1260 C 0.44686 0.68945 0.24144 0.0
H1261 H 0.31488 0.58644 0.21265 0.0
H1262 H 0.35254 0.60688 0.23054 0.0
C1263 C 0.45422 0.71153 0.25343 0.0
C1264 C 0.43995 0.64077 0.23815 0.0
H1265 H 0.41914 0.62033 0.18853 0.0
C1266 C 0.42522 0.62311 0.25086 0.0
C1267 C 0.4394 0.63798 0.21539 0.0
C1268 C 0.4575 0.6534 0.20072 0.0
C1269 C 0.40804 0.60474 0.24143 0.0
C1270 C 0.40435 0.60502 0.21876 0.0
C1271 C 0.42109 0.62067 0.20598 0.0
C1272 C 0.38175 0.59137 0.20825 0.0
C1273 C 0.39372 0.58565 0.25602 0.0
C1274 C 0.38525 0.57684 0.18911 0.0
C1275 C 0.36348 0.56608 0.17835 0.0
C1276 C 0.33795 0.56926 0.18679 0.0
C1277 C 0.33444 0.58342 0.20602 0.0
C1278 C 0.35605 0.59481 0.2164 0.0
H1279 H 0.40644 0.57986 0.26986 0.0
H1280 H 0.37594 0.59541 0.26282 0.0
H1281 H 0.38761 0.56751 0.24729 0.0
H1282 H 0.40478 0.57404 0.18236 0.0
H1283 H 0.36661 0.55511 0.16354 0.0
H1284 H 0.82591 0.46887 0.79767 0.0
H1285 H 0.85973 0.45251 0.77302 0.0
H1286 H 0.80362 0.45388 0.72061 0.0
H1287 H 0.76953 0.46992 0.74525 0.0
H1288 H 0.82328 0.40473 0.72906 0.0
H1289 H 0.90569 0.47612 0.72243 0.0
H1290 H 0.89567 0.4703 0.74984 0.0
H1291 H 0.87302 0.4856 0.73128 0.0
C1292 C 0.821 0.46662 0.78074 0.0
C1293 C 0.79498 0.47032 0.77345 0.0
C1294 C 0.84043 0.4574 0.76661 0.0
C1295 C 0.8342 0.45202 0.74497 0.0
C1296 C 0.80883 0.45798 0.73725 0.0
H1297 H 0.92924 0.36121 0.65328 0.0
H1298 H 0.90279 0.3965 0.66957 0.0
C1299 C 0.78938 0.46715 0.75136 0.0
C1300 C 0.85228 0.4357 0.73177 0.0
H1301 H 0.91583 0.43078 0.71369 0.0
C1302 C 0.84336 0.41066 0.72536 0.0
C1303 C 0.8785 0.4434 0.72707 0.0
C1304 C 0.88874 0.47043 0.73283 0.0
C1305 C 0.86023 0.39273 0.71511 0.0
C1306 C 0.8867 0.39998 0.71129 0.0
C1307 C 0.8955 0.42531 0.71691 0.0
C1308 C 0.90545 0.38087 0.70198 0.0
C1309 C 0.8499 0.36584 0.70888 0.0
C1310 C 0.91594 0.36079 0.71499 0.0
C1311 C 0.93101 0.34063 0.70579 0.0
C1312 C 0.93566 0.34023 0.68342 0.0
C1313 C 0.9259 0.36095 0.67057 0.0
C1314 C 0.91092 0.38117 0.67981 0.0
H1315 H 0.82808 0.3645 0.71044 0.0
H1316 H 0.85548 0.36112 0.69196 0.0
H1317 H 0.85894 0.35066 0.71948 0.0
H1318 H 0.91175 0.3603 0.73216 0.0
H1319 H 0.9383 0.32497 0.7161 0.0
H1320 H 0.04953 0.82414 0.31267 0.0
H1321 H 0.06629 0.86239 0.2929 0.0
H1322 H 0.05758 0.82011 0.23286 0.0
H1323 H 0.04081 0.78176 0.25247 0.0
H1324 H 0.11354 0.85323 0.26866 0.0
H1325 H 0.03461 0.89702 0.21776 0.0
H1326 H 0.02769 0.87797 0.24181 0.0
H1327 H 0.03662 0.86158 0.21714 0.0
C1328 C 0.05038 0.82326 0.2952 0.0
C1329 C 0.04417 0.79986 0.28412 0.0
C1330 C 0.05991 0.84516 0.28395 0.0
C1331 C 0.06302 0.84408 0.26145 0.0
C1332 C 0.0549 0.82147 0.25019 0.0
H1333 H 0.15498 0.9172 0.16244 0.0
H1334 H 0.12146 0.89421 0.18388 0.0
C1335 C 0.0455 0.79951 0.26144 0.0
C1336 C 0.07915 0.8642 0.25033 0.0
H1337 H 0.07906 0.90851 0.20883 0.0
C1338 C 0.10595 0.86569 0.25582 0.0
C1339 C 0.06917 0.87998 0.23341 0.0
C1340 C 0.04039 0.8793 0.22722 0.0
C1341 C 0.12339 0.88181 0.24427 0.0
C1342 C 0.11352 0.89757 0.2272 0.0
C1343 C 0.08653 0.89653 0.222 0.0
C1344 C 0.13136 0.91396 0.21383 0.0
C1345 C 0.15243 0.88069 0.2498 0.0
C1346 C 0.14738 0.93329 0.22342 0.0
C1347 C 0.16685 0.94599 0.21133 0.0
C1348 C 0.17012 0.94004 0.18934 0.0
C1349 C 0.1529 0.92203 0.17941 0.0
C1350 C 0.13373 0.90898 0.19161 0.0
H1351 H 0.15745 0.86274 0.25926 0.0
H1352 H 0.16477 0.88092 0.23498 0.0
H1353 H 0.1577 0.89814 0.25974 0.0
H1354 H 0.14538 0.93795 0.24042 0.0
H1355 H 0.17958 0.9602 0.21926 0.0
H1356 H 0.68332 0.01716 0.79021 0.0
H1357 H 0.64471 0.02793 0.76804 0.0
H1358 H 0.69508 0.07061 0.72387 0.0
H1359 H 0.73347 0.05816 0.74491 0.0
H1360 H 0.6254 0.072 0.76414 0.0
H1361 H 0.64653 0.0434 0.68083 0.0
H1362 H 0.66605 0.03081 0.70293 0.0
H1363 H 0.67477 0.06149 0.68977 0.0
C1364 C 0.6861 0.02794 0.77526 0.0
C1365 C 0.71129 0.03677 0.76919 0.0
C1366 C 0.66406 0.03417 0.76264 0.0
C1367 C 0.66681 0.04989 0.74403 0.0
C1368 C 0.69227 0.05764 0.73756 0.0
H1369 H 0.58387 0.18619 0.71482 0.0
H1370 H 0.60524 0.14781 0.73083 0.0
C1371 C 0.71431 0.05072 0.74978 0.0
C1372 C 0.64334 0.06202 0.73352 0.0
H1373 H 0.6231 0.08648 0.68499 0.0
C1374 C 0.62449 0.07443 0.74675 0.0
C1375 C 0.64118 0.06466 0.71082 0.0
C1376 C 0.6581 0.04903 0.69537 0.0
C1377 C 0.60542 0.09143 0.73807 0.0
C1378 C 0.60611 0.09733 0.71573 0.0
C1379 C 0.62307 0.08281 0.70225 0.0
C1380 C 0.5916 0.12018 0.70648 0.0
C1381 C 0.58519 0.10327 0.75312 0.0
C1382 C 0.57771 0.11785 0.68691 0.0
C1383 C 0.56634 0.1401 0.6773 0.0
C1384 C 0.56831 0.1649 0.68729 0.0
C1385 C 0.58175 0.16718 0.70699 0.0
C1386 C 0.5937 0.14514 0.71627 0.0
H1387 H 0.57974 0.08897 0.76598 0.0
H1388 H 0.59379 0.12081 0.76124 0.0
H1389 H 0.56698 0.10926 0.74443 0.0
H1390 H 0.57596 0.0989 0.67893 0.0
H1391 H 0.55599 0.13791 0.66208 0.0
H1392 H 0.73519 0.34371 0.21068 0.0
H1393 H 0.72947 0.29945 0.19584 0.0
H1394 H 0.75585 0.32694 0.13352 0.0
H1395 H 0.76192 0.37154 0.14854 0.0
H1396 H 0.70101 0.27795 0.15927 0.0
H1397 H 0.81056 0.26971 0.15225 0.0
H1398 H 0.7954 0.29586 0.16767 0.0
H1399 H 0.79386 0.29638 0.13873 0.0
C1400 C 0.73941 0.34039 0.19375 0.0
C1401 C 0.74933 0.36085 0.18083 0.0
C1402 C 0.73598 0.31518 0.18524 0.0
C1403 C 0.74253 0.30988 0.16366 0.0
C1404 C 0.75089 0.33063 0.15026 0.0
H1405 H 0.72739 0.13639 0.14835 0.0
H1406 H 0.72839 0.18177 0.13401 0.0
C1407 C 0.75418 0.35606 0.1588 0.0
C1408 C 0.74313 0.28203 0.15649 0.0
H1409 H 0.7863 0.2305 0.15278 0.0
C1410 C 0.71953 0.26754 0.15705 0.0
C1411 C 0.76741 0.26863 0.15367 0.0
C1412 C 0.79335 0.28328 0.15308 0.0
C1413 C 0.71976 0.23984 0.15686 0.0
C1414 C 0.74423 0.22644 0.15598 0.0
C1415 C 0.76761 0.24093 0.15338 0.0
C1416 C 0.74638 0.19849 0.16262 0.0
C1417 C 0.69412 0.22508 0.15969 0.0
C1418 C 0.75686 0.1929 0.18308 0.0
C1419 C 0.75625 0.1673 0.1912 0.0
C1420 C 0.7453 0.1467 0.179 0.0
C1421 C 0.73603 0.15197 0.15801 0.0
C1422 C 0.73645 0.17781 0.14989 0.0
H1423 H 0.67688 0.23856 0.16089 0.0
H1424 H 0.69102 0.21165 0.14575 0.0
H1425 H 0.69497 0.21277 0.17452 0.0
H1426 H 0.76461 0.2086 0.19314 0.0
H1427 H 0.76381 0.16367 0.20729 0.0
H1428 H 0.37249 0.73485 0.6444 0.0
H1429 H 0.32773 0.73735 0.62897 0.0
H1430 H 0.30028 0.77562 0.68706 0.0
H1431 H 0.34463 0.77296 0.70238 0.0
H1432 H 0.2851 0.7118 0.64986 0.0
H1433 H 0.26321 0.81767 0.639 0.0
H1434 H 0.29656 0.80491 0.63982 0.0
H1435 H 0.27894 0.81163 0.6645 0.0
C1436 C 0.35698 0.74451 0.65349 0.0
C1437 C 0.36179 0.75368 0.67456 0.0
C1438 C 0.3315 0.74586 0.64473 0.0
C1439 C 0.3108 0.75698 0.65677 0.0
C1440 C 0.31606 0.76747 0.6773 0.0
H1441 H 0.16756 0.73071 0.70439 0.0
H1442 H 0.21158 0.72756 0.6885 0.0
C1443 C 0.34129 0.76576 0.68613 0.0
C1444 C 0.28299 0.7543 0.64982 0.0
H1445 H 0.2258 0.78972 0.64931 0.0
C1446 C 0.27215 0.72882 0.64894 0.0
C1447 C 0.26615 0.77646 0.64826 0.0
C1448 C 0.27688 0.80421 0.64771 0.0
C1449 C 0.24473 0.72502 0.64914 0.0
C1450 C 0.22792 0.74724 0.65039 0.0
C1451 C 0.23872 0.77266 0.64863 0.0
C1452 C 0.20029 0.74483 0.65785 0.0
C1453 C 0.23399 0.69727 0.64953 0.0
C1454 C 0.17927 0.75535 0.64582 0.0
C1455 C 0.15399 0.75698 0.65491 0.0
C1456 C 0.14969 0.74869 0.6763 0.0
C1457 C 0.1705 0.73722 0.68791 0.0
C1458 C 0.19554 0.73523 0.67876 0.0
H1459 H 0.24746 0.68344 0.641 0.0
H1460 H 0.23231 0.69057 0.66654 0.0
H1461 H 0.21414 0.69625 0.64196 0.0
H1462 H 0.18266 0.76318 0.62977 0.0
H1463 H 0.13824 0.76616 0.64578 0.0
H1464 H 0.73057 0.16475 0.79448 0.0
H1465 H 0.72965 0.20903 0.80992 0.0
H1466 H 0.76412 0.17933 0.86884 0.0
H1467 H 0.76548 0.1347 0.85311 0.0
H1468 H 0.70861 0.23214 0.84801 0.0
H1469 H 0.81874 0.23324 0.84599 0.0
H1470 H 0.80005 0.20789 0.83241 0.0
H1471 H 0.80237 0.20791 0.86134 0.0
C1472 C 0.73759 0.1676 0.81083 0.0
C1473 C 0.74844 0.14646 0.82248 0.0
C1474 C 0.73692 0.19284 0.81971 0.0
C1475 C 0.74718 0.19753 0.8404 0.0
C1476 C 0.7564 0.17615 0.85274 0.0
H1477 H 0.74138 0.37124 0.85598 0.0
H1478 H 0.74239 0.32602 0.87058 0.0
C1479 C 0.75697 0.1507 0.84383 0.0
C1480 C 0.7505 0.22527 0.84749 0.0
H1481 H 0.79716 0.27386 0.84809 0.0
C1482 C 0.72795 0.24129 0.84878 0.0
C1483 C 0.77581 0.23705 0.84842 0.0
C1484 C 0.80072 0.22079 0.84691 0.0
C1485 C 0.72998 0.26893 0.84893 0.0
C1486 C 0.75528 0.28073 0.84804 0.0
C1487 C 0.77784 0.26468 0.84882 0.0
C1488 C 0.75853 0.30866 0.84148 0.0
C1489 C 0.70508 0.28526 0.84796 0.0
C1490 C 0.76839 0.31396 0.82076 0.0
C1491 C 0.76789 0.33952 0.81252 0.0
C1492 C 0.75765 0.36038 0.82486 0.0
C1493 C 0.74945 0.35547 0.84619 0.0
C1494 C 0.74982 0.32969 0.85445 0.0
H1495 H 0.68702 0.27285 0.84709 0.0
H1496 H 0.70373 0.29786 0.86257 0.0
H1497 H 0.70551 0.29845 0.83363 0.0
H1498 H 0.77525 0.29804 0.81048 0.0
H1499 H 0.77461 0.34287 0.79614 0.0
H1500 H 0.33833 0.73535 0.29779 0.0
H1501 H 0.29431 0.73693 0.31387 0.0
H1502 H 0.3267 0.77159 0.3717 0.0
H1503 H 0.37117 0.77012 0.3555 0.0
H1504 H 0.28093 0.72404 0.37187 0.0
H1505 H 0.26232 0.8174 0.32743 0.0
H1506 H 0.2803 0.79263 0.31265 0.0
H1507 H 0.2949 0.80738 0.33617 0.0
C1508 C 0.33613 0.74293 0.31405 0.0
C1509 C 0.35803 0.75282 0.32533 0.0
C1510 C 0.31106 0.74378 0.32322 0.0
C1511 C 0.30737 0.75461 0.34382 0.0
C1512 C 0.3293 0.76317 0.35575 0.0
H1513 H 0.1373 0.78163 0.34632 0.0
H1514 H 0.18173 0.78847 0.36158 0.0
C1515 C 0.3546 0.7622 0.34656 0.0
C1516 C 0.28012 0.75853 0.35159 0.0
H1517 H 0.22445 0.79124 0.33628 0.0
C1518 C 0.26859 0.73922 0.36474 0.0
C1519 C 0.26423 0.77865 0.34262 0.0
C1520 C 0.27602 0.80039 0.32906 0.0
C1521 C 0.24106 0.73798 0.36728 0.0
C1522 C 0.22489 0.7561 0.35592 0.0
C1523 C 0.23674 0.77717 0.34485 0.0
C1524 C 0.19673 0.75045 0.35129 0.0
C1525 C 0.2295 0.71635 0.38106 0.0
C1526 C 0.19034 0.72678 0.34074 0.0
C1527 C 0.16533 0.72304 0.33198 0.0
C1528 C 0.14611 0.74292 0.33345 0.0
C1529 C 0.15184 0.76603 0.34507 0.0
C1530 C 0.17713 0.7699 0.35376 0.0
H1531 H 0.24249 0.71215 0.39511 0.0
H1532 H 0.2095 0.72159 0.38705 0.0
H1533 H 0.22809 0.69796 0.37139 0.0
H1534 H 0.20521 0.71176 0.33805 0.0
H1535 H 0.16126 0.70492 0.32333 0.0
H1536 H 0.21748 0.64392 0.85531 0.0
H1537 H 0.21681 0.69163 0.86285 0.0
H1538 H 0.30115 0.69042 0.87251 0.0
H1539 H 0.30187 0.64314 0.86442 0.0
H1540 H 0.23327 0.72479 0.89658 0.0
H1541 H 0.29297 0.74176 0.82266 0.0
H1542 H 0.27813 0.71028 0.82872 0.0
H1543 H 0.30839 0.71999 0.84172 0.0
C1544 C 0.23572 0.65384 0.85945 0.0
C1545 C 0.25978 0.64005 0.859 0.0
C1546 C 0.23537 0.68104 0.8637 0.0
C1547 C 0.25904 0.6947 0.8677 0.0
C1548 C 0.28276 0.68046 0.86887 0.0
H1549 H 0.29588 0.8634 0.8681 0.0
H1550 H 0.29806 0.81604 0.87667 0.0
C1551 C 0.28315 0.65347 0.86434 0.0
C1552 C 0.25934 0.72399 0.86911 0.0
H1553 H 0.28442 0.7789 0.84451 0.0
C1554 C 0.24449 0.73664 0.88524 0.0
C1555 C 0.27394 0.73947 0.85424 0.0
C1556 C 0.28906 0.72724 0.83573 0.0
C1557 C 0.24396 0.76434 0.88694 0.0
C1558 C 0.25849 0.77972 0.87203 0.0
C1559 C 0.2736 0.76706 0.85612 0.0
C1560 C 0.25646 0.80893 0.8711 0.0
C1561 C 0.22787 0.77695 0.90465 0.0
C1562 C 0.23232 0.8207 0.8656 0.0
C1563 C 0.23113 0.84755 0.86064 0.0
C1564 C 0.25403 0.86321 0.8611 0.0
C1565 C 0.27791 0.85182 0.86789 0.0
C1566 C 0.27917 0.8248 0.87266 0.0
H1567 H 0.2243 0.763 0.91819 0.0
H1568 H 0.23783 0.79484 0.91105 0.0
H1569 H 0.20841 0.78296 0.89803 0.0
H1570 H 0.21466 0.80882 0.86389 0.0
H1571 H 0.21249 0.85592 0.85548 0.0
H1572 H 0.85749 0.21238 0.35578 0.0
H1573 H 0.80973 0.21249 0.36326 0.0
H1574 H 0.81229 0.29674 0.37311 0.0
H1575 H 0.8596 0.29669 0.36515 0.0
H1576 H 0.7768 0.22976 0.39725 0.0
H1577 H 0.76073 0.28929 0.32314 0.0
H1578 H 0.79191 0.27376 0.32917 0.0
H1579 H 0.78298 0.30434 0.34203 0.0
C1580 C 0.84785 0.23077 0.35996 0.0
C1581 C 0.86205 0.25458 0.35962 0.0
C1582 C 0.82061 0.23086 0.36417 0.0
C1583 C 0.80732 0.25474 0.36821 0.0
C1584 C 0.82196 0.2782 0.36946 0.0
H1585 H 0.63984 0.29681 0.37003 0.0
H1586 H 0.6875 0.29738 0.37769 0.0
C1587 C 0.84897 0.27815 0.365 0.0
C1588 C 0.77803 0.25559 0.36965 0.0
H1589 H 0.72354 0.28207 0.34534 0.0
C1590 C 0.76514 0.2412 0.38593 0.0
C1591 C 0.76278 0.27048 0.35482 0.0
C1592 C 0.77524 0.28514 0.33618 0.0
C1593 C 0.73743 0.24151 0.38785 0.0
C1594 C 0.72228 0.25641 0.37301 0.0
C1595 C 0.7352 0.27097 0.3569 0.0
C1596 C 0.69297 0.25547 0.37248 0.0
C1597 C 0.7246 0.22598 0.40578 0.0
C1598 C 0.68017 0.2317 0.36748 0.0
C1599 C 0.65313 0.23142 0.36306 0.0
C1600 C 0.6383 0.25487 0.36354 0.0
C1601 C 0.65076 0.27843 0.3698 0.0
C1602 C 0.67796 0.27877 0.37405 0.0
H1603 H 0.73863 0.2221 0.41921 0.0
H1604 H 0.70711 0.23654 0.41229 0.0
H1605 H 0.71791 0.20666 0.39934 0.0
H1606 H 0.69134 0.21359 0.36577 0.0
H1607 H 0.64396 0.21301 0.35831 0.0
H1608 H 0.29707 0.64894 0.13954 0.0
H1609 H 0.29545 0.69654 0.13157 0.0
H1610 H 0.21089 0.69165 0.12415 0.0
H1611 H 0.21256 0.64451 0.13299 0.0
H1612 H 0.27687 0.73026 0.09955 0.0
H1613 H 0.21808 0.74159 0.17467 0.0
H1614 H 0.23392 0.71098 0.16745 0.0
H1615 H 0.20303 0.72016 0.15518 0.0
C1616 C 0.27833 0.65801 0.13555 0.0
C1617 C 0.25492 0.64329 0.13688 0.0
C1618 C 0.27735 0.68516 0.13112 0.0
C1619 C 0.25294 0.69782 0.12784 0.0
C1620 C 0.22986 0.6825 0.1272 0.0
H1621 H 0.21087 0.86566 0.13269 0.0
H1622 H 0.20987 0.81861 0.12285 0.0
C1623 C 0.23081 0.65558 0.132 0.0
C1624 C 0.25129 0.72715 0.12722 0.0
H1625 H 0.22493 0.77998 0.15401 0.0
C1626 C 0.26543 0.74113 0.11139 0.0
C1627 C 0.23648 0.74141 0.14278 0.0
C1628 C 0.22223 0.72783 0.16111 0.0
C1629 C 0.2651 0.76892 0.11071 0.0
C1630 C 0.25037 0.78306 0.12631 0.0
C1631 C 0.2359 0.76909 0.14187 0.0
C1632 C 0.2516 0.81226 0.12832 0.0
C1633 C 0.28056 0.78297 0.09337 0.0
C1634 C 0.27541 0.82436 0.13429 0.0
C1635 C 0.27593 0.85102 0.14002 0.0
C1636 C 0.25268 0.86619 0.13986 0.0
C1637 C 0.2291 0.85449 0.13271 0.0
C1638 C 0.22852 0.82763 0.12719 0.0
H1639 H 0.28459 0.76984 0.07937 0.0
H1640 H 0.26984 0.80075 0.0876 0.0
H1641 H 0.2998 0.78944 0.10012 0.0
H1642 H 0.29336 0.81285 0.13567 0.0
H1643 H 0.29436 0.85961 0.14542 0.0
H1644 H 0.65064 0.29007 0.64648 0.0
H1645 H 0.6974 0.28876 0.63653 0.0
H1646 H 0.69129 0.20511 0.62468 0.0
H1647 H 0.64418 0.20653 0.63449 0.0
H1648 H 0.72954 0.2222 0.65705 0.0
H1649 H 0.74113 0.27705 0.58002 0.0
H1650 H 0.72024 0.29257 0.59979 0.0
H1651 H 0.71038 0.26172 0.58799 0.0
C1652 C 0.65914 0.27159 0.6411 0.0
C1653 C 0.64391 0.24841 0.6412 0.0
C1654 C 0.68579 0.27087 0.63532 0.0
C1655 C 0.69779 0.2469 0.62968 0.0
C1656 C 0.68232 0.22387 0.62875 0.0
H1657 H 0.86583 0.20931 0.63901 0.0
H1658 H 0.81874 0.20633 0.63017 0.0
C1659 C 0.65545 0.22468 0.63424 0.0
C1660 C 0.72701 0.24546 0.62808 0.0
H1661 H 0.78026 0.27005 0.60077 0.0
C1662 C 0.74067 0.23225 0.64453 0.0
C1663 C 0.74141 0.25906 0.61199 0.0
C1664 C 0.72761 0.27327 0.59382 0.0
C1665 C 0.76832 0.23305 0.64585 0.0
C1666 C 0.78288 0.24666 0.62975 0.0
C1667 C 0.76919 0.2595 0.61302 0.0
C1668 C 0.81221 0.24856 0.63072 0.0
C1669 C 0.7815 0.22041 0.66515 0.0
C1670 C 0.82469 0.27331 0.63222 0.0
C1671 C 0.85181 0.27498 0.63661 0.0
C1672 C 0.86671 0.25193 0.63973 0.0
C1673 C 0.8546 0.22729 0.63673 0.0
C1674 C 0.82771 0.22561 0.63192 0.0
H1675 H 0.76745 0.21755 0.67874 0.0
H1676 H 0.78916 0.2007 0.66049 0.0
H1677 H 0.79828 0.23256 0.67102 0.0
H1678 H 0.8132 0.29131 0.63122 0.0
H1679 H 0.86076 0.29416 0.63908 0.0
H1680 H 0.80816 0.0369 0.91274 0.0
H1681 H 0.80454 0.03545 0.95229 0.0
H1682 H 0.72634 0.06878 0.94839 0.0
H1683 H 0.72982 0.0704 0.90904 0.0
H1684 H 0.79263 0.0761 0.98378 0.0
H1685 H 0.71615 0.99762 0.98045 0.0
H1686 H 0.73672 0.00586 0.9576 0.0
H1687 H 0.70898 0.02633 0.96446 0.0
C1688 C 0.79041 0.04433 0.92037 0.0
C1689 C 0.76913 0.05341 0.90783 0.0
C1690 C 0.78832 0.04337 0.9429 0.0
C1691 C 0.76494 0.05145 0.95313 0.0
C1692 C 0.74429 0.06187 0.94072 0.0
H1693 H 0.70496 0.05373 0.08408 0.0
H1694 H 0.71106 0.05639 0.04484 0.0
C1695 C 0.74633 0.0628 0.91828 0.0
C1696 C 0.76169 0.04831 0.97672 0.0
H1697 H 0.72444 0.01676 0.01474 0.0
C1698 C 0.77785 0.06304 0.9906 0.0
C1699 C 0.74236 0.03123 0.98547 0.0
C1700 C 0.72518 0.01415 0.97127 0.0
C1701 C 0.77475 0.06162 0.0131 0.0
C1702 C 0.75529 0.04465 0.02185 0.0
C1703 C 0.73926 0.0298 0.00795 0.0
C1704 C 0.75129 0.04201 0.04542 0.0
C1705 C 0.79186 0.07876 0.0273 0.0
C1706 C 0.77161 0.03231 0.05858 0.0
C1707 C 0.76816 0.03068 0.0809 0.0
C1708 C 0.74424 0.03859 0.09047 0.0
C1709 C 0.72355 0.04738 0.07715 0.0
C1710 C 0.72705 0.04905 0.05479 0.0
H1711 H 0.80091 0.09526 0.01809 0.0
H1712 H 0.78028 0.08712 0.04091 0.0
H1713 H 0.80805 0.06663 0.03417 0.0
H1714 H 0.79021 0.0261 0.05158 0.0
H1715 H 0.78427 0.0233 0.0907 0.0
H1716 H 0.4065 0.77812 0.40875 0.0
H1717 H 0.40068 0.77221 0.44798 0.0
H1718 H 0.48472 0.76183 0.45523 0.0
H1719 H 0.49058 0.7675 0.41627 0.0
H1720 H 0.42077 0.7235 0.47173 0.0
H1721 H 0.46128 0.81851 0.50179 0.0
H1722 H 0.44799 0.81464 0.47487 0.0
H1723 H 0.48047 0.80261 0.48109 0.0
C1724 C 0.42371 0.77512 0.41885 0.0
C1725 C 0.44899 0.77334 0.4096 0.0
C1726 C 0.42036 0.77156 0.44114 0.0
C1727 C 0.4423 0.76669 0.45441 0.0
C1728 C 0.46759 0.76578 0.44525 0.0
H1729 H 0.49204 0.7338 0.58196 0.0
H1730 H 0.48576 0.74141 0.54331 0.0
C1731 C 0.47091 0.769 0.42304 0.0
C1732 C 0.43911 0.76112 0.47771 0.0
H1733 H 0.45767 0.78358 0.52734 0.0
C1734 C 0.42838 0.73676 0.48401 0.0
C1735 C 0.44916 0.77846 0.49353 0.0
C1736 C 0.4602 0.80514 0.48759 0.0
C1737 C 0.42878 0.72866 0.50574 0.0
C1738 C 0.43979 0.74564 0.52149 0.0
C1739 C 0.44941 0.7705 0.51522 0.0
C1740 C 0.44322 0.73762 0.54436 0.0
C1741 C 0.41871 0.70154 0.5115 0.0
C1742 C 0.42142 0.73219 0.55769 0.0
C1743 C 0.42504 0.7275 0.57982 0.0
C1744 C 0.45045 0.72856 0.58888 0.0
C1745 C 0.47225 0.73293 0.57533 0.0
C1746 C 0.46867 0.73736 0.55331 0.0
H1747 H 0.41607 0.6889 0.49698 0.0
H1748 H 0.43246 0.6915 0.5228 0.0
H1749 H 0.39929 0.70342 0.51965 0.0
H1750 H 0.40157 0.73271 0.55121 0.0
H1751 H 0.40791 0.72454 0.59002 0.0
H1752 H 0.73431 0.42651 0.09625 0.0
H1753 H 0.72871 0.42144 0.05727 0.0
H1754 H 0.80805 0.4498 0.04709 0.0
H1755 H 0.81381 0.45472 0.08632 0.0
H1756 H 0.73151 0.46443 0.02989 0.0
H1757 H 0.80284 0.38673 0.00532 0.0
H1758 H 0.79226 0.3911 0.03298 0.0
H1759 H 0.81664 0.41272 0.02154 0.0
C1760 C 0.75072 0.43122 0.0857 0.0
C1761 C 0.77442 0.44124 0.0942 0.0
C1762 C 0.74751 0.42826 0.06347 0.0
C1763 C 0.76796 0.43517 0.04931 0.0
C1764 C 0.79217 0.44394 0.05778 0.0
H1765 H 0.75707 0.48967 0.91857 0.0
H1766 H 0.76253 0.48377 0.95749 0.0
C1767 C 0.79544 0.4468 0.08013 0.0
C1768 C 0.76274 0.43596 0.02578 0.0
H1769 H 0.7829 0.41172 0.97701 0.0
C1770 C 0.74262 0.45274 0.01835 0.0
C1771 C 0.77714 0.42058 0.0108 0.0
C1772 C 0.79829 0.40157 0.01801 0.0
C1773 C 0.73688 0.45499 0.99629 0.0
C1774 C 0.75182 0.44027 0.98126 0.0
C1775 C 0.77154 0.42301 0.98865 0.0
C1776 C 0.74804 0.44361 0.95775 0.0
C1777 C 0.71492 0.47316 0.98919 0.0
C1778 C 0.73815 0.4229 0.94504 0.0
C1779 C 0.73495 0.42624 0.92274 0.0
C1780 C 0.74197 0.45021 0.91286 0.0
C1781 C 0.75168 0.47092 0.92573 0.0
C1782 C 0.7547 0.46764 0.94795 0.0
H1783 H 0.70141 0.47813 0.00274 0.0
H1784 H 0.72357 0.49182 0.98302 0.0
H1785 H 0.70322 0.4641 0.97595 0.0
H1786 H 0.73297 0.4042 0.95238 0.0
H1787 H 0.72769 0.40988 0.91316 0.0
H1788 H 0.09837 0.72225 0.41033 0.0
H1789 H 0.10623 0.72809 0.44926 0.0
H1790 H 0.02225 0.72633 0.46071 0.0
H1791 H 0.01436 0.72052 0.42203 0.0
H1792 H 0.08467 0.77236 0.47345 0.0
H1793 H 0.05338 0.67588 0.50695 0.0
H1794 H 0.06285 0.68015 0.47902 0.0
H1795 H 0.03039 0.68958 0.48791 0.0
C1796 C 0.0817 0.72238 0.42129 0.0
C1797 C 0.05577 0.72083 0.41328 0.0
C1798 C 0.08618 0.72591 0.44343 0.0
C1799 C 0.06482 0.72745 0.45782 0.0
C1800 C 0.03901 0.72481 0.4499 0.0
H1801 H 0.01769 0.76426 0.58475 0.0
H1802 H 0.02364 0.75514 0.5463 0.0
C1803 C 0.03452 0.72157 0.42784 0.0
C1804 C 0.06896 0.73393 0.48088 0.0
H1805 H 0.05415 0.71235 0.5316 0.0
C1806 C 0.07852 0.75912 0.48625 0.0
C1807 C 0.06089 0.71657 0.49745 0.0
C1808 C 0.05153 0.68893 0.49261 0.0
C1809 C 0.07866 0.76799 0.50778 0.0
C1810 C 0.06935 0.75104 0.52423 0.0
C1811 C 0.06107 0.72539 0.51891 0.0
C1812 C 0.06609 0.7599 0.54687 0.0
C1813 C 0.08739 0.79583 0.51263 0.0
C1814 C 0.08794 0.76636 0.55981 0.0
C1815 C 0.08453 0.77182 0.58184 0.0
C1816 C 0.05927 0.77056 0.59117 0.0
C1817 C 0.03738 0.76524 0.57794 0.0
C1818 C 0.04076 0.75997 0.55602 0.0
H1819 H 0.0896 0.80784 0.49771 0.0
H1820 H 0.07302 0.80574 0.52349 0.0
H1821 H 0.10674 0.79531 0.52101 0.0
H1822 H 0.10769 0.76607 0.55311 0.0
H1823 H 0.10174 0.77554 0.59178 0.0
H1824 H 0.27896 0.01871 0.09032 0.0
H1825 H 0.28071 0.01802 0.05082 0.0
H1826 H 0.21421 0.96479 0.04942 0.0
H1827 H 0.21337 0.9643 0.0889 0.0
H1828 H 0.24773 0.94941 0.02131 0.0
H1829 H 0.23575 0.05686 0.00952 0.0
H1830 H 0.2644 0.04972 0.02544 0.0
H1831 H 0.23206 0.04153 0.03561 0.0
C1832 C 0.26471 0.00689 0.08156 0.0
C1833 C 0.24596 0.99165 0.09271 0.0
C1834 C 0.26556 0.0067 0.05894 0.0
C1835 C 0.24714 0.99192 0.04698 0.0
C1836 C 0.22857 0.97649 0.05818 0.0
H1837 H 0.22301 0.0173 0.90854 0.0
H1838 H 0.21897 0.01655 0.94797 0.0
C1839 C 0.2281 0.97621 0.08077 0.0
C1840 C 0.2476 0.9919 0.02287 0.0
H1841 H 0.2494 0.03215 0.97859 0.0
C1842 C 0.24788 0.96754 0.01199 0.0
C1843 C 0.24725 0.01548 0.01055 0.0
C1844 C 0.24454 0.04234 0.02088 0.0
C1845 C 0.24823 0.96608 0.98932 0.0
C1846 C 0.24952 0.98967 0.97704 0.0
C1847 C 0.24878 0.01403 0.98789 0.0
C1848 C 0.25162 0.98959 0.95299 0.0
C1849 C 0.24649 0.93921 0.97887 0.0
C1850 C 0.27142 0.97492 0.94255 0.0
C1851 C 0.27334 0.97485 0.92001 0.0
C1852 C 0.25602 0.99012 0.9074 0.0
C1853 C 0.23663 0.00533 0.91782 0.0
C1854 C 0.23434 0.00493 0.94038 0.0
H1855 H 0.2365 0.92477 0.98962 0.0
H1856 H 0.23557 0.94001 0.96333 0.0
H1857 H 0.26672 0.93171 0.97573 0.0
H1858 H 0.28564 0.96369 0.95182 0.0
H1859 H 0.28878 0.96326 0.91248 0.0
H1860 H 0.54194 0.2173 0.59144 0.0
H1861 H 0.54055 0.22053 0.55214 0.0
H1862 H 0.49267 0.29075 0.55701 0.0
H1863 H 0.49291 0.2868 0.59646 0.0
H1864 H 0.47399 0.26074 0.52675 0.0
H1865 H 0.58171 0.26761 0.51384 0.0
H1866 H 0.57328 0.23794 0.52797 0.0
H1867 H 0.56718 0.26957 0.54036 0.0
C1868 C 0.53126 0.23355 0.58416 0.0
C1869 C 0.51768 0.25192 0.59706 0.0
C1870 C 0.53064 0.23548 0.56164 0.0
C1871 C 0.51708 0.25627 0.55151 0.0
C1872 C 0.50341 0.27461 0.5644 0.0
H1873 H 0.5409 0.29462 0.41589 0.0
H1874 H 0.54098 0.29325 0.45532 0.0
C1875 C 0.50359 0.27238 0.58695 0.0
C1876 C 0.51645 0.25837 0.52751 0.0
H1877 H 0.55562 0.25815 0.4826 0.0
C1878 C 0.49188 0.26041 0.51711 0.0
C1879 C 0.53976 0.25839 0.51485 0.0
C1880 C 0.56695 0.25856 0.52486 0.0
C1881 C 0.48992 0.26206 0.4945 0.0
C1882 C 0.51315 0.26057 0.4818 0.0
C1883 C 0.53774 0.25892 0.49223 0.0
C1884 C 0.5126 0.2614 0.45774 0.0
C1885 C 0.46298 0.26609 0.4846 0.0
C1886 C 0.49684 0.2438 0.4458 0.0
C1887 C 0.49635 0.24494 0.4232 0.0
C1888 C 0.51221 0.26318 0.41207 0.0
C1889 C 0.5285 0.28028 0.42399 0.0
C1890 C 0.52856 0.27951 0.44656 0.0
H1891 H 0.44909 0.27531 0.49626 0.0
H1892 H 0.46403 0.27876 0.46999 0.0
H1893 H 0.45466 0.24665 0.47993 0.0
H1894 H 0.48503 0.22902 0.45393 0.0
H1895 H 0.48385 0.23129 0.41443 0.0
H1896 H 0.27939 0.55298 0.08909 0.0
H1897 H 0.27624 0.55331 0.04979 0.0
H1898 H 0.23165 0.48084 0.05146 0.0
H1899 H 0.2352 0.48001 0.09096 0.0
H1900 H 0.27011 0.47987 0.02041 0.0
H1901 H 0.21286 0.57249 0.0135 0.0
H1902 H 0.24252 0.57694 0.02888 0.0
H1903 H 0.217 0.5554 0.03886 0.0
C1904 C 0.26877 0.53714 0.08118 0.0
C1905 C 0.25742 0.51653 0.09324 0.0
C1906 C 0.26685 0.53746 0.05866 0.0
C1907 C 0.25324 0.5174 0.04766 0.0
C1908 C 0.24207 0.49664 0.05961 0.0
H1909 H 0.22901 0.50192 0.90686 0.0
H1910 H 0.22619 0.4939 0.94593 0.0
C1911 C 0.24409 0.49623 0.08219 0.0
C1912 C 0.25143 0.51787 0.02367 0.0
H1913 H 0.23433 0.55742 0.9812 0.0
C1914 C 0.26192 0.49664 0.01183 0.0
C1915 C 0.24056 0.53967 0.01244 0.0
C1916 C 0.22735 0.56228 0.02408 0.0
C1917 C 0.26297 0.49724 0.98911 0.0
C1918 C 0.25324 0.51959 0.97803 0.0
C1919 C 0.24196 0.54039 0.98979 0.0
C1920 C 0.25605 0.52265 0.95432 0.0
C1921 C 0.2754 0.47454 0.97707 0.0
C1922 C 0.27388 0.54128 0.94615 0.0
C1923 C 0.27565 0.5458 0.92395 0.0
C1924 C 0.25942 0.53195 0.90937 0.0
C1925 C 0.24188 0.51285 0.91758 0.0
C1926 C 0.24024 0.50823 0.93989 0.0
H1927 H 0.2842 0.4597 0.98815 0.0
H1928 H 0.26019 0.46463 0.96703 0.0
H1929 H 0.291 0.48196 0.96603 0.0
H1930 H 0.28621 0.55263 0.95703 0.0
H1931 H 0.28935 0.56068 0.9183 0.0
H1932 H 0.0032 0.22707 0.40693 0.0
H1933 H 0.01391 0.22666 0.44557 0.0
H1934 H 0.9518 0.28303 0.45756 0.0
H1935 H 0.94142 0.28408 0.41916 0.0
H1936 H 0.99651 0.2953 0.47954 0.0
H1937 H 0.97132 0.18954 0.49202 0.0
H1938 H 0.9962 0.19571 0.47197 0.0
H1939 H 0.96299 0.207 0.46755 0.0
C1940 C 0.99194 0.23951 0.41778 0.0
C1941 C 0.97138 0.25555 0.4099 0.0
C1942 C 0.99795 0.23908 0.4399 0.0
C1943 C 0.98333 0.25445 0.45455 0.0
C1944 C 0.96329 0.27092 0.44661 0.0
H1945 H 0.95578 0.27904 0.58887 0.0
H1946 H 0.95623 0.27655 0.54948 0.0
C1947 C 0.95738 0.27148 0.42458 0.0
C1948 C 0.98854 0.25357 0.47819 0.0
H1949 H 0.98608 0.21328 0.52251 0.0
C1950 C 0.9944 0.27731 0.48889 0.0
C1951 C 0.9858 0.23008 0.49042 0.0
C1952 C 0.97852 0.20415 0.48 0.0
C1953 C 0.99706 0.27832 0.51145 0.0
C1954 C 0.99364 0.25502 0.52367 0.0
C1955 C 0.9887 0.23109 0.51302 0.0
C1956 C 0.99335 0.2556 0.54761 0.0
C1957 C 0.00314 0.30438 0.52214 0.0
C1958 C 0.01387 0.24415 0.55963 0.0
C1959 C 0.01377 0.24563 0.58224 0.0
C1960 C 0.99297 0.25832 0.5932 0.0
C1961 C 0.97215 0.26916 0.58102 0.0
C1962 C 0.97239 0.26785 0.55848 0.0
H1963 H 0.01078 0.31912 0.51042 0.0
H1964 H 0.98482 0.3124 0.52947 0.0
H1965 H 0.01788 0.30175 0.53526 0.0
H1966 H 0.03015 0.23449 0.55149 0.0
H1967 H 0.03006 0.237 0.59111 0.0
loop_
_geom_bond_atom_site_label_1
_geom_bond_atom_site_label_2
_geom_bond_distance
_geom_bond_site_symmetry_2
_ccdc_geom_bond_type
Co0 N4 2.148 . S
Co0 N10 2.128 . S
Co0 N20 2.194 . S
Co0 O25 2.351 . S
Co0 O26 2.155 . S
Co0 O27 2.096 . S
C1 N4 1.301 . S
C1 N5 1.328 . S
C1 H6 0.930 . S
C2 C3 1.333 . S
C2 N4 1.317 . S
C2 H7 0.930 . S
C3 C2 1.333 . S
C3 N5 1.350 . S
C3 H29 0.931 . S
N4 Co0 2.148 . S
N4 C1 1.301 . S
N4 C2 1.317 . S
N5 C1 1.328 . S
N5 C3 1.350 . S
H6 C1 0.930 . S
H7 C2 0.930 . S
C8 O9 1.224 . S
C8 O27 1.247 . S
O9 C8 1.224 . S
N10 Co0 2.128 . S
N10 C11 1.355 1_545 S
N10 C13 1.311 1_545 S
C11 N10 1.355 1_565 S
C11 C12 1.363 . S
C11 H23 0.929 . S
C12 C11 1.363 . S
C12 N14 1.375 . S
C12 H30 0.931 . S
C13 N10 1.311 1_565 S
C13 N14 1.347 . S
C13 H24 0.929 1_565 S
N14 C12 1.375 . S
N14 C13 1.347 . S
C15 C18 1.365 . S
C15 N20 1.328 . S
C15 H21 0.929 . S
C16 C17 1.362 . S
C16 C19 1.378 . S
C16 H31 0.929 . S
C17 C16 1.362 . S
C17 C18 1.366 . S
C18 C15 1.365 . S
C18 C17 1.366 . S
C18 H32 0.930 . S
C19 C16 1.378 . S
C19 N20 1.315 . S
C19 H22 0.930 . S
N20 Co0 2.194 . S
N20 C15 1.328 . S
N20 C19 1.315 . S
H21 C15 0.929 . S
H22 C19 0.930 . S
H23 C11 0.929 . S
H24 C13 0.929 1_545 S
O25 Co0 2.351 . S
O25 C28 1.244 . S
O26 Co0 2.155 . S
O26 C28 1.240 . S
O27 Co0 2.096 . S
O27 C8 1.247 . S
C28 O25 1.244 . S
C28 O26 1.240 . S
H29 C3 0.931 . S
H30 C12 0.931 . S
H31 C16 0.929 . S
H32 C18 0.930 . S
Co33 N37 2.148 . S
Co33 N43 2.128 . S
Co33 N53 2.194 . S
Co33 O58 2.351 . S
Co33 O59 2.155 . S
Co33 O60 2.096 . S
C34 N37 1.301 . S
C34 N38 1.328 . S
C34 H39 0.930 . S
C35 C36 1.333 . S
C35 N37 1.317 . S
C35 H40 0.930 . S
C36 C35 1.333 . S
C36 N38 1.350 . S
C36 H62 0.931 . S
N37 Co33 2.148 . S
N37 C34 1.301 . S
N37 C35 1.317 . S
N38 C34 1.328 . S
N38 C36 1.350 . S
H39 C34 0.930 . S
H40 C35 0.930 . S
C41 O42 1.224 . S
C41 O60 1.247 . S
O42 C41 1.224 . S
N43 Co33 2.128 . S
N43 C44 1.355 . S
N43 C46 1.311 . S
C44 N43 1.355 . S
C44 C45 1.363 . S
C44 H56 0.929 . S
C45 C44 1.363 . S
C45 N47 1.375 . S
C45 H63 0.931 . S
C46 N43 1.311 . S
C46 N47 1.347 . S
C46 H57 0.929 . S
N47 C45 1.375 . S
N47 C46 1.347 . S
C48 C51 1.365 . S
C48 N53 1.328 . S
C48 H54 0.929 . S
C49 C50 1.362 . S
C49 C52 1.378 . S
C49 H64 0.929 . S
C50 C49 1.362 . S
C50 C51 1.366 . S
C51 C48 1.365 . S
C51 C50 1.366 . S
C51 H65 0.930 . S
C52 C49 1.378 . S
C52 N53 1.315 . S
C52 H55 0.930 . S
N53 Co33 2.194 . S
N53 C48 1.328 . S
N53 C52 1.315 . S
H54 C48 0.929 . S
H55 C52 0.930 . S
H56 C44 0.929 . S
H57 C46 0.929 . S
O58 Co33 2.351 . S
O58 C61 1.244 . S
O59 Co33 2.155 . S
O59 C61 1.240 . S
O60 Co33 2.096 . S
O60 C41 1.247 . S
C61 O58 1.244 . S
C61 O59 1.240 . S
H62 C36 0.931 . S
H63 C45 0.931 . S
H64 C49 0.929 . S
H65 C51 0.930 . S
Co66 N70 2.148 . S
Co66 N76 2.128 . S
Co66 N86 2.194 . S
Co66 O91 2.351 . S
Co66 O92 2.155 . S
Co66 O93 2.096 . S
C67 N70 1.301 . S
C67 N71 1.328 . S
C67 H72 0.930 . S
C68 C69 1.333 . S
C68 N70 1.317 . S
C68 H73 0.930 . S
C69 C68 1.333 . S
C69 N71 1.350 . S
C69 H95 0.931 . S
N70 Co66 2.148 . S
N70 C67 1.301 . S
N70 C68 1.317 . S
N71 C67 1.328 . S
N71 C69 1.350 . S
H72 C67 0.930 . S
H73 C68 0.930 . S
C74 O75 1.224 . S
C74 O93 1.247 . S
O75 C74 1.224 . S
N76 Co66 2.128 . S
N76 C77 1.355 . S
N76 C79 1.311 . S
C77 N76 1.355 . S
C77 C78 1.363 . S
C77 H89 0.929 . S
C78 C77 1.363 . S
C78 N80 1.375 . S
C78 H96 0.931 . S
C79 N76 1.311 . S
C79 N80 1.347 . S
C79 H90 0.929 . S
N80 C78 1.375 . S
N80 C79 1.347 . S
C81 C84 1.365 . S
C81 N86 1.328 . S
C81 H87 0.929 . S
C82 C83 1.362 . S
C82 C85 1.378 . S
C82 H97 0.929 . S
C83 C82 1.362 . S
C83 C84 1.366 . S
C84 C81 1.365 . S
C84 C83 1.366 . S
C84 H98 0.930 . S
C85 C82 1.378 . S
C85 N86 1.315 . S
C85 H88 0.930 . S
N86 Co66 2.194 . S
N86 C81 1.328 . S
N86 C85 1.315 . S
H87 C81 0.929 . S
H88 C85 0.930 . S
H89 C77 0.929 . S
H90 C79 0.929 . S
O91 Co66 2.351 . S
O91 C94 1.244 . S
O92 Co66 2.155 . S
O92 C94 1.240 . S
O93 Co66 2.096 . S
O93 C74 1.247 . S
C94 O91 1.244 . S
C94 O92 1.240 . S
H95 C69 0.931 . S
H96 C78 0.931 . S
H97 C82 0.929 . S
H98 C84 0.930 . S
Co99 N103 2.148 . S
Co99 N109 2.128 . S
Co99 N119 2.194 . S
Co99 O124 2.351 . S
Co99 O125 2.155 . S
Co99 O126 2.096 . S
C100 N103 1.301 . S
C100 N104 1.328 . S
C100 H105 0.930 . S
C101 C102 1.333 . S
C101 N103 1.317 . S
C101 H106 0.930 . S
C102 C101 1.333 . S
C102 N104 1.350 . S
C102 H128 0.931 . S
N103 Co99 2.148 . S
N103 C100 1.301 . S
N103 C101 1.317 . S
N104 C100 1.328 . S
N104 C102 1.350 . S
H105 C100 0.930 . S
H106 C101 0.930 . S
C107 O108 1.224 . S
C107 O126 1.247 . S
O108 C107 1.224 . S
N109 Co99 2.128 . S
N109 C110 1.355 1_455 S
N109 C112 1.311 1_455 S
C110 N109 1.355 1_655 S
C110 C111 1.363 . S
C110 H122 0.929 . S
C111 C110 1.363 . S
C111 N113 1.375 . S
C111 H129 0.931 . S
C112 N109 1.311 1_655 S
C112 N113 1.347 . S
C112 H123 0.929 1_655 S
N113 C111 1.375 . S
N113 C112 1.347 . S
C114 C117 1.365 . S
C114 N119 1.328 . S
C114 H120 0.929 . S
C115 C116 1.362 . S
C115 C118 1.378 . S
C115 H130 0.929 . S
C116 C115 1.362 . S
C116 C117 1.366 . S
C117 C114 1.365 . S
C117 C116 1.366 . S
C117 H131 0.930 . S
C118 C115 1.378 . S
C118 N119 1.315 . S
C118 H121 0.930 . S
N119 Co99 2.194 . S
N119 C114 1.328 . S
N119 C118 1.315 . S
H120 C114 0.929 . S
H121 C118 0.930 . S
H122 C110 0.929 . S
H123 C112 0.929 1_455 S
O124 Co99 2.351 . S
O124 C127 1.244 . S
O125 Co99 2.155 . S
O125 C127 1.240 . S
O126 Co99 2.096 . S
O126 C107 1.247 . S
C127 O124 1.244 . S
C127 O125 1.240 . S
H128 C102 0.931 . S
H129 C111 0.931 . S
H130 C115 0.929 . S
H131 C117 0.930 . S
Co132 N136 2.148 . S
Co132 N142 2.128 . S
Co132 N152 2.194 . S
Co132 O157 2.351 . S
Co132 O158 2.155 . S
Co132 O159 2.096 . S
C133 N136 1.301 . S
C133 N137 1.328 . S
C133 H138 0.930 . S
C134 C135 1.333 . S
C134 N136 1.317 . S
C134 H139 0.930 . S
C135 C134 1.333 . S
C135 N137 1.350 . S
C135 H161 0.931 . S
N136 Co132 2.148 . S
N136 C133 1.301 . S
N136 C134 1.317 . S
N137 C133 1.328 . S
N137 C135 1.350 . S
H138 C133 0.930 . S
H139 C134 0.930 . S
C140 O141 1.224 . S
C140 O159 1.247 . S
O141 C140 1.224 . S
N142 Co132 2.128 . S
N142 C143 1.355 . S
N142 C145 1.311 . S
C143 N142 1.355 . S
C143 C144 1.363 . S
C143 H155 0.929 . S
C144 C143 1.363 . S
C144 N146 1.375 . S
C144 H162 0.931 . S
C145 N142 1.311 . S
C145 N146 1.347 . S
C145 H156 0.929 . S
N146 C144 1.375 . S
N146 C145 1.347 . S
C147 C150 1.365 . S
C147 N152 1.328 . S
C147 H153 0.929 . S
C148 C149 1.362 . S
C148 C151 1.378 . S
C148 H163 0.929 . S
C149 C148 1.362 . S
C149 C150 1.366 . S
C150 C147 1.365 . S
C150 C149 1.366 . S
C150 H164 0.930 . S
C151 C148 1.378 . S
C151 N152 1.315 . S
C151 H154 0.930 . S
N152 Co132 2.194 . S
N152 C147 1.328 . S
N152 C151 1.315 . S
H153 C147 0.929 . S
H154 C151 0.930 . S
H155 C143 0.929 . S
H156 C145 0.929 . S
O157 Co132 2.351 . S
O157 C160 1.244 . S
O158 Co132 2.155 . S
O158 C160 1.240 . S
O159 Co132 2.096 . S
O159 C140 1.247 . S
C160 O157 1.244 . S
C160 O158 1.240 . S
H161 C135 0.931 . S
H162 C144 0.931 . S
H163 C148 0.929 . S
H164 C150 0.930 . S
Co165 N169 2.148 . S
Co165 N175 2.128 . S
Co165 N185 2.194 . S
Co165 O190 2.351 . S
Co165 O191 2.155 . S
Co165 O192 2.096 . S
C166 N169 1.301 . S
C166 N170 1.328 . S
C166 H171 0.930 . S
C167 C168 1.333 . S
C167 N169 1.317 . S
C167 H172 0.930 . S
C168 C167 1.333 . S
C168 N170 1.350 . S
C168 H194 0.931 . S
N169 Co165 2.148 . S
N169 C166 1.301 . S
N169 C167 1.317 . S
N170 C166 1.328 . S
N170 C168 1.350 . S
H171 C166 0.930 . S
H172 C167 0.930 . S
C173 O174 1.224 . S
C173 O192 1.247 . S
O174 C173 1.224 . S
N175 Co165 2.128 . S
N175 C176 1.355 1_455 S
N175 C178 1.311 1_455 S
C176 N175 1.355 1_655 S
C176 C177 1.363 . S
C176 H188 0.929 . S
C177 C176 1.363 . S
C177 N179 1.375 . S
C177 H195 0.931 . S
C178 N175 1.311 1_655 S
C178 N179 1.347 . S
C178 H189 0.929 1_655 S
N179 C177 1.375 . S
N179 C178 1.347 . S
C180 C183 1.365 . S
C180 N185 1.328 . S
C180 H186 0.929 . S
C181 C182 1.362 . S
C181 C184 1.378 . S
C181 H196 0.929 . S
C182 C181 1.362 . S
C182 C183 1.366 . S
C183 C180 1.365 . S
C183 C182 1.366 . S
C183 H197 0.930 . S
C184 C181 1.378 . S
C184 N185 1.315 . S
C184 H187 0.930 . S
N185 Co165 2.194 . S
N185 C180 1.328 . S
N185 C184 1.315 . S
H186 C180 0.929 . S
H187 C184 0.930 . S
H188 C176 0.929 . S
H189 C178 0.929 1_455 S
O190 Co165 2.351 . S
O190 C193 1.244 . S
O191 Co165 2.155 . S
O191 C193 1.240 . S
O192 Co165 2.096 . S
O192 C173 1.247 . S
C193 O190 1.244 . S
C193 O191 1.240 . S
H194 C168 0.931 . S
H195 C177 0.931 . S
H196 C181 0.929 . S
H197 C183 0.930 . S
Co198 N202 2.148 . S
Co198 N208 2.128 . S
Co198 N218 2.194 . S
Co198 O223 2.351 . S
Co198 O224 2.155 . S
Co198 O225 2.096 . S
C199 N202 1.301 . S
C199 N203 1.328 . S
C199 H204 0.930 . S
C200 C201 1.333 . S
C200 N202 1.317 . S
C200 H205 0.930 . S
C201 C200 1.333 . S
C201 N203 1.350 . S
C201 H227 0.931 . S
N202 Co198 2.148 . S
N202 C199 1.301 . S
N202 C200 1.317 . S
N203 C199 1.328 . S
N203 C201 1.350 . S
H204 C199 0.930 . S
H205 C200 0.930 . S
C206 O207 1.224 . S
C206 O225 1.247 . S
O207 C206 1.224 . S
N208 Co198 2.128 . S
N208 C209 1.355 1_545 S
N208 C211 1.311 1_545 S
C209 N208 1.355 1_565 S
C209 C210 1.363 . S
C209 H221 0.929 . S
C210 C209 1.363 . S
C210 N212 1.375 . S
C210 H228 0.931 . S
C211 N208 1.311 1_565 S
C211 N212 1.347 . S
C211 H222 0.929 1_565 S
N212 C210 1.375 . S
N212 C211 1.347 . S
C213 C216 1.365 . S
C213 N218 1.328 . S
C213 H219 0.929 . S
C214 C215 1.362 . S
C214 C217 1.378 . S
C214 H229 0.929 . S
C215 C214 1.362 . S
C215 C216 1.366 . S
C216 C213 1.365 . S
C216 C215 1.366 . S
C216 H230 0.930 . S
C217 C214 1.378 . S
C217 N218 1.315 . S
C217 H220 0.930 . S
N218 Co198 2.194 . S
N218 C213 1.328 . S
N218 C217 1.315 . S
H219 C213 0.929 . S
H220 C217 0.930 . S
H221 C209 0.929 . S
H222 C211 0.929 1_545 S
O223 Co198 2.351 . S
O223 C226 1.244 . S
O224 Co198 2.155 . S
O224 C226 1.240 . S
O225 Co198 2.096 . S
O225 C206 1.247 . S
C226 O223 1.244 . S
C226 O224 1.240 . S
H227 C201 0.931 . S
H228 C210 0.931 . S
H229 C214 0.929 . S
H230 C216 0.930 . S
Co231 N235 2.148 . S
Co231 N241 2.128 . S
Co231 N251 2.194 . S
Co231 O256 2.351 . S
Co231 O257 2.155 . S
Co231 O258 2.096 . S
C232 N235 1.301 . S
C232 N236 1.328 . S
C232 H237 0.930 . S
C233 C234 1.333 . S
C233 N235 1.317 . S
C233 H238 0.930 . S
C234 C233 1.333 . S
C234 N236 1.350 . S
C234 H260 0.931 . S
N235 Co231 2.148 . S
N235 C232 1.301 . S
N235 C233 1.317 . S
N236 C232 1.328 . S
N236 C234 1.350 . S
H237 C232 0.930 . S
H238 C233 0.930 . S
C239 O240 1.224 . S
C239 O258 1.247 . S
O240 C239 1.224 . S
N241 Co231 2.128 . S
N241 C242 1.355 . S
N241 C244 1.311 . S
C242 N241 1.355 . S
C242 C243 1.363 . S
C242 H254 0.929 . S
C243 C242 1.363 . S
C243 N245 1.375 . S
C243 H261 0.931 . S
C244 N241 1.311 . S
C244 N245 1.347 . S
C244 H255 0.929 . S
N245 C243 1.375 . S
N245 C244 1.347 . S
C246 C249 1.365 . S
C246 N251 1.328 . S
C246 H252 0.929 . S
C247 C248 1.362 . S
C247 C250 1.378 . S
C247 H262 0.929 . S
C248 C247 1.362 . S
C248 C249 1.366 . S
C249 C246 1.365 . S
C249 C248 1.366 . S
C249 H263 0.930 . S
C250 C247 1.378 . S
C250 N251 1.315 . S
C250 H253 0.930 . S
N251 Co231 2.194 . S
N251 C246 1.328 . S
N251 C250 1.315 . S
H252 C246 0.929 . S
H253 C250 0.930 . S
H254 C242 0.929 . S
H255 C244 0.929 . S
O256 Co231 2.351 . S
O256 C259 1.244 . S
O257 Co231 2.155 . S
O257 C259 1.240 . S
O258 Co231 2.096 . S
O258 C239 1.247 . S
C259 O256 1.244 . S
C259 O257 1.240 . S
H260 C234 0.931 . S
H261 C243 0.931 . S
H262 C247 0.929 . S
H263 C249 0.930 . S
Co264 N268 2.148 . S
Co264 N274 2.128 . S
Co264 N284 2.194 . S
Co264 O289 2.351 . S
Co264 O290 2.155 . S
Co264 O291 2.096 . S
C265 N268 1.301 1_545 S
C265 N269 1.328 . S
C265 H270 0.930 1_545 S
C266 C267 1.333 . S
C266 N268 1.317 1_545 S
C266 H271 0.930 . S
C267 C266 1.333 . S
C267 N269 1.350 . S
C267 H293 0.931 . S
N268 Co264 2.148 . S
N268 C265 1.301 1_565 S
N268 C266 1.317 1_565 S
N269 C265 1.328 . S
N269 C267 1.350 . S
H270 C265 0.930 1_565 S
H271 C266 0.930 . S
C272 O273 1.224 . S
C272 O291 1.247 . S
O273 C272 1.224 . S
N274 Co264 2.128 . S
N274 C275 1.355 . S
N274 C277 1.311 . S
C275 N274 1.355 . S
C275 C276 1.363 . S
C275 H287 0.929 . S
C276 C275 1.363 . S
C276 N278 1.375 . S
C276 H294 0.931 . S
C277 N274 1.311 . S
C277 N278 1.347 . S
C277 H288 0.929 . S
N278 C276 1.375 . S
N278 C277 1.347 . S
C279 C282 1.365 . S
C279 N284 1.328 . S
C279 H285 0.929 . S
C280 C281 1.362 . S
C280 C283 1.378 . S
C280 H295 0.929 . S
C281 C280 1.362 . S
C281 C282 1.366 . S
C282 C279 1.365 . S
C282 C281 1.366 . S
C282 H296 0.930 . S
C283 C280 1.378 . S
C283 N284 1.315 . S
C283 H286 0.930 . S
N284 Co264 2.194 . S
N284 C279 1.328 . S
N284 C283 1.315 . S
H285 C279 0.929 . S
H286 C283 0.930 . S
H287 C275 0.929 . S
H288 C277 0.929 . S
O289 Co264 2.351 . S
O289 C292 1.244 . S
O290 Co264 2.155 . S
O290 C292 1.240 . S
O291 Co264 2.096 . S
O291 C272 1.247 . S
C292 O289 1.244 . S
C292 O290 1.240 . S
H293 C267 0.931 . S
H294 C276 0.931 . S
H295 C280 0.929 . S
H296 C282 0.930 . S
Co297 N301 2.148 . S
Co297 N307 2.128 . S
Co297 N317 2.194 . S
Co297 O322 2.351 . S
Co297 O323 2.155 . S
Co297 O324 2.096 . S
C298 N301 1.301 . S
C298 N302 1.328 . S
C298 H303 0.930 . S
C299 C300 1.333 . S
C299 N301 1.317 . S
C299 H304 0.930 . S
C300 C299 1.333 . S
C300 N302 1.350 . S
C300 H326 0.931 . S
N301 Co297 2.148 . S
N301 C298 1.301 . S
N301 C299 1.317 . S
N302 C298 1.328 . S
N302 C300 1.350 . S
H303 C298 0.930 . S
H304 C299 0.930 . S
C305 O306 1.224 . S
C305 O324 1.247 . S
O306 C305 1.224 . S
N307 Co297 2.128 . S
N307 C308 1.355 . S
N307 C310 1.311 . S
C308 N307 1.355 . S
C308 C309 1.363 . S
C308 H320 0.929 . S
C309 C308 1.363 . S
C309 N311 1.375 . S
C309 H327 0.931 . S
C310 N307 1.311 . S
C310 N311 1.347 . S
C310 H321 0.929 . S
N311 C309 1.375 . S
N311 C310 1.347 . S
C312 C315 1.365 . S
C312 N317 1.328 . S
C312 H318 0.929 . S
C313 C314 1.362 . S
C313 C316 1.378 . S
C313 H328 0.929 . S
C314 C313 1.362 . S
C314 C315 1.366 . S
C315 C312 1.365 . S
C315 C314 1.366 . S
C315 H329 0.930 . S
C316 C313 1.378 . S
C316 N317 1.315 . S
C316 H319 0.930 . S
N317 Co297 2.194 . S
N317 C312 1.328 . S
N317 C316 1.315 . S
H318 C312 0.929 . S
H319 C316 0.930 . S
H320 C308 0.929 . S
H321 C310 0.929 . S
O322 Co297 2.351 . S
O322 C325 1.244 . S
O323 Co297 2.155 . S
O323 C325 1.240 . S
O324 Co297 2.096 . S
O324 C305 1.247 . S
C325 O322 1.244 . S
C325 O323 1.240 . S
H326 C300 0.931 . S
H327 C309 0.931 . S
H328 C313 0.929 . S
H329 C315 0.930 . S
Co330 N334 2.148 . S
Co330 N340 2.128 . S
Co330 N350 2.194 . S
Co330 O355 2.351 . S
Co330 O356 2.155 . S
Co330 O357 2.096 . S
C331 N334 1.301 . S
C331 N335 1.328 . S
C331 H336 0.930 . S
C332 C333 1.333 . S
C332 N334 1.317 . S
C332 H337 0.930 . S
C333 C332 1.333 . S
C333 N335 1.350 . S
C333 H359 0.931 . S
N334 Co330 2.148 . S
N334 C331 1.301 . S
N334 C332 1.317 . S
N335 C331 1.328 . S
N335 C333 1.350 . S
H336 C331 0.930 . S
H337 C332 0.930 . S
C338 O339 1.224 . S
C338 O357 1.247 . S
O339 C338 1.224 . S
N340 Co330 2.128 . S
N340 C341 1.355 . S
N340 C343 1.311 . S
C341 N340 1.355 . S
C341 C342 1.363 . S
C341 H353 0.929 . S
C342 C341 1.363 . S
C342 N344 1.375 . S
C342 H360 0.931 . S
C343 N340 1.311 . S
C343 N344 1.347 . S
C343 H354 0.929 . S
N344 C342 1.375 . S
N344 C343 1.347 . S
C345 C348 1.365 . S
C345 N350 1.328 . S
C345 H351 0.929 . S
C346 C347 1.362 . S
C346 C349 1.378 . S
C346 H361 0.929 . S
C347 C346 1.362 . S
C347 C348 1.366 . S
C348 C345 1.365 . S
C348 C347 1.366 . S
C348 H362 0.930 . S
C349 C346 1.378 . S
C349 N350 1.315 . S
C349 H352 0.930 . S
N350 Co330 2.194 . S
N350 C345 1.328 . S
N350 C349 1.315 . S
H351 C345 0.929 . S
H352 C349 0.930 . S
H353 C341 0.929 . S
H354 C343 0.929 . S
O355 Co330 2.351 . S
O355 C358 1.244 . S
O356 Co330 2.155 . S
O356 C358 1.240 . S
O357 Co330 2.096 . S
O357 C338 1.247 . S
C358 O355 1.244 . S
C358 O356 1.240 . S
H359 C333 0.931 . S
H360 C342 0.931 . S
H361 C346 0.929 . S
H362 C348 0.930 . S
Co363 N367 2.148 . S
Co363 N373 2.128 . S
Co363 N383 2.194 . S
Co363 O388 2.351 . S
Co363 O389 2.155 . S
Co363 O390 2.096 . S
C364 N367 1.301 1_455 S
C364 N368 1.328 . S
C364 H369 0.930 1_455 S
C365 C366 1.333 . S
C365 N367 1.317 1_455 S
C365 H370 0.930 . S
C366 C365 1.333 . S
C366 N368 1.350 . S
C366 H392 0.931 . S
N367 Co363 2.148 . S
N367 C364 1.301 1_655 S
N367 C365 1.317 1_655 S
N368 C364 1.328 . S
N368 C366 1.350 . S
H369 C364 0.930 1_655 S
H370 C365 0.930 . S
C371 O372 1.224 . S
C371 O390 1.247 . S
O372 C371 1.224 . S
N373 Co363 2.128 . S
N373 C374 1.355 . S
N373 C376 1.311 . S
C374 N373 1.355 . S
C374 C375 1.363 . S
C374 H386 0.929 . S
C375 C374 1.363 . S
C375 N377 1.375 . S
C375 H393 0.931 . S
C376 N373 1.311 . S
C376 N377 1.347 . S
C376 H387 0.929 . S
N377 C375 1.375 . S
N377 C376 1.347 . S
C378 C381 1.365 . S
C378 N383 1.328 . S
C378 H384 0.929 . S
C379 C380 1.362 . S
C379 C382 1.378 . S
C379 H394 0.929 . S
C380 C379 1.362 . S
C380 C381 1.366 . S
C381 C378 1.365 . S
C381 C380 1.366 . S
C381 H395 0.930 . S
C382 C379 1.378 . S
C382 N383 1.315 . S
C382 H385 0.930 . S
N383 Co363 2.194 . S
N383 C378 1.328 . S
N383 C382 1.315 . S
H384 C378 0.929 . S
H385 C382 0.930 . S
H386 C374 0.929 . S
H387 C376 0.929 . S
O388 Co363 2.351 . S
O388 C391 1.244 . S
O389 Co363 2.155 . S
O389 C391 1.240 . S
O390 Co363 2.096 . S
O390 C371 1.247 . S
C391 O388 1.244 . S
C391 O389 1.240 . S
H392 C366 0.931 . S
H393 C375 0.931 . S
H394 C379 0.929 . S
H395 C381 0.930 . S
Co396 N400 2.148 . S
Co396 N406 2.128 . S
Co396 N416 2.194 . S
Co396 O421 2.351 . S
Co396 O422 2.155 . S
Co396 O423 2.096 . S
C397 N400 1.301 . S
C397 N401 1.328 . S
C397 H402 0.930 . S
C398 C399 1.333 . S
C398 N400 1.317 . S
C398 H403 0.930 . S
C399 C398 1.333 . S
C399 N401 1.350 . S
C399 H425 0.931 . S
N400 Co396 2.148 . S
N400 C397 1.301 . S
N400 C398 1.317 . S
N401 C397 1.328 . S
N401 C399 1.350 . S
H402 C397 0.930 . S
H403 C398 0.930 . S
C404 O405 1.224 . S
C404 O423 1.247 . S
O405 C404 1.224 . S
N406 Co396 2.128 . S
N406 C407 1.355 . S
N406 C409 1.311 . S
C407 N406 1.355 . S
C407 C408 1.363 . S
C407 H419 0.929 . S
C408 C407 1.363 . S
C408 N410 1.375 . S
C408 H426 0.931 . S
C409 N406 1.311 . S
C409 N410 1.347 . S
C409 H420 0.929 . S
N410 C408 1.375 . S
N410 C409 1.347 . S
C411 C414 1.365 . S
C411 N416 1.328 . S
C411 H417 0.929 . S
C412 C413 1.362 . S
C412 C415 1.378 . S
C412 H427 0.929 . S
C413 C412 1.362 . S
C413 C414 1.366 . S
C414 C411 1.365 . S
C414 C413 1.366 . S
C414 H428 0.930 . S
C415 C412 1.378 . S
C415 N416 1.315 . S
C415 H418 0.930 . S
N416 Co396 2.194 . S
N416 C411 1.328 . S
N416 C415 1.315 . S
H417 C411 0.929 . S
H418 C415 0.930 . S
H419 C407 0.929 . S
H420 C409 0.929 . S
O421 Co396 2.351 . S
O421 C424 1.244 . S
O422 Co396 2.155 . S
O422 C424 1.240 . S
O423 Co396 2.096 . S
O423 C404 1.247 . S
C424 O421 1.244 . S
C424 O422 1.240 . S
H425 C399 0.931 . S
H426 C408 0.931 . S
H427 C412 0.929 . S
H428 C414 0.930 . S
Co429 N433 2.148 . S
Co429 N439 2.128 . S
Co429 N449 2.194 . S
Co429 O454 2.351 . S
Co429 O455 2.155 . S
Co429 O456 2.096 . S
C430 N433 1.301 1_455 S
C430 N434 1.328 . S
C430 H435 0.930 1_455 S
C431 C432 1.333 . S
C431 N433 1.317 1_455 S
C431 H436 0.930 . S
C432 C431 1.333 . S
C432 N434 1.350 . S
C432 H458 0.931 . S
N433 Co429 2.148 . S
N433 C430 1.301 1_655 S
N433 C431 1.317 1_655 S
N434 C430 1.328 . S
N434 C432 1.350 . S
H435 C430 0.930 1_655 S
H436 C431 0.930 . S
C437 O438 1.224 . S
C437 O456 1.247 . S
O438 C437 1.224 . S
N439 Co429 2.128 . S
N439 C440 1.355 . S
N439 C442 1.311 . S
C440 N439 1.355 . S
C440 C441 1.363 . S
C440 H452 0.929 . S
C441 C440 1.363 . S
C441 N443 1.375 . S
C441 H459 0.931 . S
C442 N439 1.311 . S
C442 N443 1.347 . S
C442 H453 0.929 . S
N443 C441 1.375 . S
N443 C442 1.347 . S
C444 C447 1.365 . S
C444 N449 1.328 . S
C444 H450 0.929 . S
C445 C446 1.362 . S
C445 C448 1.378 . S
C445 H460 0.929 . S
C446 C445 1.362 . S
C446 C447 1.366 . S
C447 C444 1.365 . S
C447 C446 1.366 . S
C447 H461 0.930 . S
C448 C445 1.378 . S
C448 N449 1.315 . S
C448 H451 0.930 . S
N449 Co429 2.194 . S
N449 C444 1.328 . S
N449 C448 1.315 . S
H450 C444 0.929 . S
H451 C448 0.930 . S
H452 C440 0.929 . S
H453 C442 0.929 . S
O454 Co429 2.351 . S
O454 C457 1.244 . S
O455 Co429 2.155 . S
O455 C457 1.240 . S
O456 Co429 2.096 . S
O456 C437 1.247 . S
C457 O454 1.244 . S
C457 O455 1.240 . S
H458 C432 0.931 . S
H459 C441 0.931 . S
H460 C445 0.929 . S
H461 C447 0.930 . S
Co462 N466 2.148 . S
Co462 N472 2.128 . S
Co462 N482 2.194 . S
Co462 O487 2.351 . S
Co462 O488 2.155 . S
Co462 O489 2.096 . S
C463 N466 1.301 1_545 S
C463 N467 1.328 . S
C463 H468 0.930 1_545 S
C464 C465 1.333 . S
C464 N466 1.317 1_545 S
C464 H469 0.930 . S
C465 C464 1.333 . S
C465 N467 1.350 . S
C465 H491 0.931 . S
N466 Co462 2.148 . S
N466 C463 1.301 1_565 S
N466 C464 1.317 1_565 S
N467 C463 1.328 . S
N467 C465 1.350 . S
H468 C463 0.930 1_565 S
H469 C464 0.930 . S
C470 O471 1.224 . S
C470 O489 1.247 . S
O471 C470 1.224 . S
N472 Co462 2.128 . S
N472 C473 1.355 . S
N472 C475 1.311 . S
C473 N472 1.355 . S
C473 C474 1.363 . S
C473 H485 0.929 . S
C474 C473 1.363 . S
C474 N476 1.375 . S
C474 H492 0.931 . S
C475 N472 1.311 . S
C475 N476 1.347 . S
C475 H486 0.929 . S
N476 C474 1.375 . S
N476 C475 1.347 . S
C477 C480 1.365 . S
C477 N482 1.328 . S
C477 H483 0.929 . S
C478 C479 1.362 . S
C478 C481 1.378 . S
C478 H493 0.929 . S
C479 C478 1.362 . S
C479 C480 1.366 . S
C480 C477 1.365 . S
C480 C479 1.366 . S
C480 H494 0.930 . S
C481 C478 1.378 . S
C481 N482 1.315 . S
C481 H484 0.930 . S
N482 Co462 2.194 . S
N482 C477 1.328 . S
N482 C481 1.315 . S
H483 C477 0.929 . S
H484 C481 0.930 . S
H485 C473 0.929 . S
H486 C475 0.929 . S
O487 Co462 2.351 . S
O487 C490 1.244 . S
O488 Co462 2.155 . S
O488 C490 1.240 . S
O489 Co462 2.096 . S
O489 C470 1.247 . S
C490 O487 1.244 . S
C490 O488 1.240 . S
H491 C465 0.931 . S
H492 C474 0.931 . S
H493 C478 0.929 . S
H494 C480 0.930 . S
Co495 N499 2.148 . S
Co495 N505 2.128 . S
Co495 N515 2.194 . S
Co495 O520 2.351 . S
Co495 O521 2.155 . S
Co495 O522 2.096 . S
C496 N499 1.301 . S
C496 N500 1.328 . S
C496 H501 0.930 . S
C497 C498 1.333 . S
C497 N499 1.317 . S
C497 H502 0.930 . S
C498 C497 1.333 . S
C498 N500 1.350 . S
C498 H524 0.931 . S
N499 Co495 2.148 . S
N499 C496 1.301 . S
N499 C497 1.317 . S
N500 C496 1.328 . S
N500 C498 1.350 . S
H501 C496 0.930 . S
H502 C497 0.930 . S
C503 O504 1.224 . S
C503 O522 1.247 . S
O504 C503 1.224 . S
N505 Co495 2.128 . S
N505 C506 1.355 . S
N505 C508 1.311 . S
C506 N505 1.355 . S
C506 C507 1.363 . S
C506 H518 0.929 . S
C507 C506 1.363 . S
C507 N509 1.375 . S
C507 H525 0.931 . S
C508 N505 1.311 . S
C508 N509 1.347 . S
C508 H519 0.929 . S
N509 C507 1.375 . S
N509 C508 1.347 . S
C510 C513 1.365 . S
C510 N515 1.328 . S
C510 H516 0.929 . S
C511 C512 1.362 . S
C511 C514 1.378 . S
C511 H526 0.929 . S
C512 C511 1.362 . S
C512 C513 1.366 . S
C513 C510 1.365 . S
C513 C512 1.366 . S
C513 H527 0.930 . S
C514 C511 1.378 . S
C514 N515 1.315 . S
C514 H517 0.930 . S
N515 Co495 2.194 . S
N515 C510 1.328 . S
N515 C514 1.315 . S
H516 C510 0.929 . S
H517 C514 0.930 . S
H518 C506 0.929 . S
H519 C508 0.929 . S
O520 Co495 2.351 . S
O520 C523 1.244 . S
O521 Co495 2.155 . S
O521 C523 1.240 . S
O522 Co495 2.096 . S
O522 C503 1.247 . S
C523 O520 1.244 . S
C523 O521 1.240 . S
H524 C498 0.931 . S
H525 C507 0.931 . S
H526 C511 0.929 . S
H527 C513 0.930 . S
H528 C536 0.929 . S
H529 C538 0.930 . S
H530 C540 0.930 . S
H531 C543 0.929 . S
H532 C546 0.930 . S
H533 C548 0.960 . S
H534 C548 0.960 . S
H535 C548 0.960 . S
C536 H528 0.929 . S
C536 C537 1.377 . S
C536 C538 1.384 . S
C537 C536 1.377 . S
C537 C543 1.390 . S
C538 H529 0.930 . S
C538 C536 1.384 . S
C538 C539 1.372 . S
C539 C538 1.372 . S
C539 C540 1.400 . S
C539 C544 1.490 . S
C540 H530 0.930 . S
C540 C539 1.400 . S
C540 C543 1.386 . S
H541 C557 0.930 . S
H542 C558 0.931 . S
C543 H531 0.929 . S
C543 C537 1.390 . S
C543 C540 1.386 . S
C544 C539 1.490 . S
C544 C546 1.395 . S
C544 C547 1.403 . S
H545 C551 0.930 . S
C546 H532 0.930 . S
C546 C544 1.395 . S
C546 C549 1.403 . S
C547 C544 1.403 . S
C547 C548 1.524 . S
C547 C551 1.400 . S
C548 H533 0.960 . S
C548 H534 0.960 . S
C548 H535 0.960 . S
C548 C547 1.524 . S
C549 C546 1.403 . S
C549 C550 1.392 . S
C549 C553 1.495 . S
C550 C549 1.392 . S
C550 C551 1.385 . S
C550 C552 1.478 . S
C551 H545 0.930 . S
C551 C547 1.400 . S
C551 C550 1.385 . S
C552 C550 1.478 . S
C552 C554 1.381 . S
C552 C558 1.383 . S
C553 C549 1.495 . S
C553 H559 0.959 . S
C553 H560 0.961 . S
C553 H561 0.960 . S
C554 C552 1.381 . S
C554 C555 1.394 . S
C554 H562 0.930 . S
C555 C554 1.394 . S
C555 C556 1.383 . S
C555 H563 0.929 . S
C556 C555 1.383 . S
C556 C557 1.377 . S
C557 H541 0.930 . S
C557 C556 1.377 . S
C557 C558 1.379 . S
C558 H542 0.931 . S
C558 C552 1.383 . S
C558 C557 1.379 . S
H559 C553 0.959 . S
H560 C553 0.961 . S
H561 C553 0.960 . S
H562 C554 0.930 . S
H563 C555 0.929 . S
H564 C572 0.929 . S
H565 C574 0.930 . S
H566 C576 0.930 . S
H567 C579 0.929 . S
H568 C582 0.930 . S
H569 C584 0.960 . S
H570 C584 0.960 . S
H571 C584 0.960 . S
C572 H564 0.929 . S
C572 C573 1.377 . S
C572 C574 1.384 . S
C573 C572 1.377 . S
C573 C579 1.390 . S
C574 H565 0.930 . S
C574 C572 1.384 . S
C574 C575 1.372 . S
C575 C574 1.372 . S
C575 C576 1.400 . S
C575 C580 1.490 . S
C576 H566 0.930 . S
C576 C575 1.400 . S
C576 C579 1.386 . S
H577 C593 0.930 . S
H578 C594 0.931 . S
C579 H567 0.929 . S
C579 C573 1.390 . S
C579 C576 1.386 . S
C580 C575 1.490 . S
C580 C582 1.395 . S
C580 C583 1.403 . S
H581 C587 0.930 . S
C582 H568 0.930 . S
C582 C580 1.395 . S
C582 C585 1.403 . S
C583 C580 1.403 . S
C583 C584 1.524 . S
C583 C587 1.400 . S
C584 H569 0.960 . S
C584 H570 0.960 . S
C584 H571 0.960 . S
C584 C583 1.524 . S
C585 C582 1.403 . S
C585 C586 1.392 . S
C585 C589 1.495 . S
C586 C585 1.392 . S
C586 C587 1.385 . S
C586 C588 1.478 . S
C587 H581 0.930 . S
C587 C583 1.400 . S
C587 C586 1.385 . S
C588 C586 1.478 . S
C588 C590 1.381 . S
C588 C594 1.383 . S
C589 C585 1.495 . S
C589 H595 0.959 . S
C589 H596 0.961 . S
C589 H597 0.960 . S
C590 C588 1.381 . S
C590 C591 1.394 . S
C590 H598 0.930 . S
C591 C590 1.394 . S
C591 C592 1.383 . S
C591 H599 0.929 . S
C592 C591 1.383 . S
C592 C593 1.377 . S
C593 H577 0.930 . S
C593 C592 1.377 . S
C593 C594 1.379 . S
C594 H578 0.931 . S
C594 C588 1.383 . S
C594 C593 1.379 . S
H595 C589 0.959 . S
H596 C589 0.961 . S
H597 C589 0.960 . S
H598 C590 0.930 . S
H599 C591 0.929 . S
H600 C608 0.929 . S
H601 C610 0.930 . S
H602 C612 0.930 . S
H603 C615 0.929 . S
H604 C618 0.930 . S
H605 C620 0.960 . S
H606 C620 0.960 . S
H607 C620 0.960 . S
C608 H600 0.929 . S
C608 C609 1.377 . S
C608 C610 1.384 . S
C609 C608 1.377 . S
C609 C615 1.390 . S
C610 H601 0.930 . S
C610 C608 1.384 . S
C610 C611 1.372 . S
C611 C610 1.372 . S
C611 C612 1.400 . S
C611 C616 1.490 . S
C612 H602 0.930 . S
C612 C611 1.400 . S
C612 C615 1.386 . S
H613 C629 0.930 . S
H614 C630 0.931 . S
C615 H603 0.929 . S
C615 C609 1.390 . S
C615 C612 1.386 . S
C616 C611 1.490 . S
C616 C618 1.395 . S
C616 C619 1.403 . S
H617 C623 0.930 . S
C618 H604 0.930 . S
C618 C616 1.395 . S
C618 C621 1.403 . S
C619 C616 1.403 . S
C619 C620 1.524 . S
C619 C623 1.400 . S
C620 H605 0.960 . S
C620 H606 0.960 . S
C620 H607 0.960 . S
C620 C619 1.524 . S
C621 C618 1.403 . S
C621 C622 1.392 . S
C621 C625 1.495 . S
C622 C621 1.392 . S
C622 C623 1.385 . S
C622 C624 1.478 . S
C623 H617 0.930 . S
C623 C619 1.400 . S
C623 C622 1.385 . S
C624 C622 1.478 . S
C624 C626 1.381 . S
C624 C630 1.383 . S
C625 C621 1.495 . S
C625 H631 0.959 . S
C625 H632 0.961 . S
C625 H633 0.960 . S
C626 C624 1.381 . S
C626 C627 1.394 . S
C626 H634 0.930 . S
C627 C626 1.394 . S
C627 C628 1.383 . S
C627 H635 0.929 . S
C628 C627 1.383 . S
C628 C629 1.377 . S
C629 H613 0.930 . S
C629 C628 1.377 . S
C629 C630 1.379 . S
C630 H614 0.931 . S
C630 C624 1.383 . S
C630 C629 1.379 . S
H631 C625 0.959 . S
H632 C625 0.961 . S
H633 C625 0.960 . S
H634 C626 0.930 . S
H635 C627 0.929 . S
H636 C644 0.929 . S
H637 C646 0.930 . S
H638 C648 0.930 . S
H639 C651 0.929 . S
H640 C654 0.930 . S
H641 C656 0.960 . S
H642 C656 0.960 . S
H643 C656 0.960 . S
C644 H636 0.929 . S
C644 C645 1.377 . S
C644 C646 1.384 . S
C645 C644 1.377 . S
C645 C651 1.390 . S
C646 H637 0.930 . S
C646 C644 1.384 . S
C646 C647 1.372 . S
C647 C646 1.372 . S
C647 C648 1.400 . S
C647 C652 1.490 . S
C648 H638 0.930 . S
C648 C647 1.400 . S
C648 C651 1.386 . S
H649 C665 0.930 . S
H650 C666 0.931 . S
C651 H639 0.929 . S
C651 C645 1.390 . S
C651 C648 1.386 . S
C652 C647 1.490 . S
C652 C654 1.395 . S
C652 C655 1.403 . S
H653 C659 0.930 . S
C654 H640 0.930 . S
C654 C652 1.395 . S
C654 C657 1.403 . S
C655 C652 1.403 . S
C655 C656 1.524 . S
C655 C659 1.400 . S
C656 H641 0.960 . S
C656 H642 0.960 . S
C656 H643 0.960 . S
C656 C655 1.524 . S
C657 C654 1.403 . S
C657 C658 1.392 . S
C657 C661 1.495 . S
C658 C657 1.392 . S
C658 C659 1.385 . S
C658 C660 1.478 . S
C659 H653 0.930 . S
C659 C655 1.400 . S
C659 C658 1.385 . S
C660 C658 1.478 . S
C660 C662 1.381 . S
C660 C666 1.383 . S
C661 C657 1.495 . S
C661 H667 0.959 . S
C661 H668 0.961 . S
C661 H669 0.960 . S
C662 C660 1.381 . S
C662 C663 1.394 . S
C662 H670 0.930 . S
C663 C662 1.394 . S
C663 C664 1.383 . S
C663 H671 0.929 . S
C664 C663 1.383 . S
C664 C665 1.377 . S
C665 H649 0.930 . S
C665 C664 1.377 . S
C665 C666 1.379 . S
C666 H650 0.931 . S
C666 C660 1.383 . S
C666 C665 1.379 . S
H667 C661 0.959 . S
H668 C661 0.961 . S
H669 C661 0.960 . S
H670 C662 0.930 . S
H671 C663 0.929 . S
H672 C680 0.929 . S
H673 C682 0.930 . S
H674 C684 0.930 . S
H675 C687 0.929 . S
H676 C690 0.930 . S
H677 C692 0.960 . S
H678 C692 0.960 . S
H679 C692 0.960 . S
C680 H672 0.929 . S
C680 C681 1.377 . S
C680 C682 1.384 . S
C681 C680 1.377 . S
C681 C687 1.390 . S
C682 H673 0.930 . S
C682 C680 1.384 . S
C682 C683 1.372 . S
C683 C682 1.372 . S
C683 C684 1.400 . S
C683 C688 1.490 . S
C684 H674 0.930 . S
C684 C683 1.400 . S
C684 C687 1.386 . S
H685 C701 0.930 . S
H686 C702 0.931 . S
C687 H675 0.929 . S
C687 C681 1.390 . S
C687 C684 1.386 . S
C688 C683 1.490 . S
C688 C690 1.395 . S
C688 C691 1.403 . S
H689 C695 0.930 . S
C690 H676 0.930 . S
C690 C688 1.395 . S
C690 C693 1.403 . S
C691 C688 1.403 . S
C691 C692 1.524 . S
C691 C695 1.400 . S
C692 H677 0.960 . S
C692 H678 0.960 . S
C692 H679 0.960 . S
C692 C691 1.524 . S
C693 C690 1.403 . S
C693 C694 1.392 . S
C693 C697 1.495 . S
C694 C693 1.392 . S
C694 C695 1.385 . S
C694 C696 1.478 . S
C695 H689 0.930 . S
C695 C691 1.400 . S
C695 C694 1.385 . S
C696 C694 1.478 . S
C696 C698 1.381 . S
C696 C702 1.383 . S
C697 C693 1.495 . S
C697 H703 0.959 . S
C697 H704 0.961 . S
C697 H705 0.960 . S
C698 C696 1.381 . S
C698 C699 1.394 . S
C698 H706 0.930 . S
C699 C698 1.394 . S
C699 C700 1.383 . S
C699 H707 0.929 . S
C700 C699 1.383 . S
C700 C701 1.377 . S
C701 H685 0.930 . S
C701 C700 1.377 . S
C701 C702 1.379 . S
C702 H686 0.931 . S
C702 C696 1.383 . S
C702 C701 1.379 . S
H703 C697 0.959 . S
H704 C697 0.961 . S
H705 C697 0.960 . S
H706 C698 0.930 . S
H707 C699 0.929 . S
H708 C716 0.929 . S
H709 C718 0.930 . S
H710 C720 0.930 . S
H711 C723 0.929 . S
H712 C726 0.930 . S
H713 C728 0.960 . S
H714 C728 0.960 . S
H715 C728 0.960 . S
C716 H708 0.929 . S
C716 C717 1.377 . S
C716 C718 1.384 . S
C717 C716 1.377 . S
C717 C723 1.390 . S
C718 H709 0.930 . S
C718 C716 1.384 . S
C718 C719 1.372 . S
C719 C718 1.372 . S
C719 C720 1.400 . S
C719 C724 1.490 . S
C720 H710 0.930 . S
C720 C719 1.400 . S
C720 C723 1.386 . S
H721 C737 0.930 . S
H722 C738 0.931 . S
C723 H711 0.929 . S
C723 C717 1.390 . S
C723 C720 1.386 . S
C724 C719 1.490 . S
C724 C726 1.395 . S
C724 C727 1.403 . S
H725 C731 0.930 . S
C726 H712 0.930 . S
C726 C724 1.395 . S
C726 C729 1.403 . S
C727 C724 1.403 . S
C727 C728 1.524 . S
C727 C731 1.400 . S
C728 H713 0.960 . S
C728 H714 0.960 . S
C728 H715 0.960 . S
C728 C727 1.524 . S
C729 C726 1.403 . S
C729 C730 1.392 . S
C729 C733 1.495 . S
C730 C729 1.392 . S
C730 C731 1.385 . S
C730 C732 1.478 . S
C731 H725 0.930 . S
C731 C727 1.400 . S
C731 C730 1.385 . S
C732 C730 1.478 . S
C732 C734 1.381 . S
C732 C738 1.383 . S
C733 C729 1.495 . S
C733 H739 0.959 . S
C733 H740 0.961 . S
C733 H741 0.960 . S
C734 C732 1.381 . S
C734 C735 1.394 . S
C734 H742 0.930 . S
C735 C734 1.394 . S
C735 C736 1.383 . S
C735 H743 0.929 . S
C736 C735 1.383 . S
C736 C737 1.377 . S
C737 H721 0.930 . S
C737 C736 1.377 . S
C737 C738 1.379 . S
C738 H722 0.931 . S
C738 C732 1.383 . S
C738 C737 1.379 . S
H739 C733 0.959 . S
H740 C733 0.961 . S
H741 C733 0.960 . S
H742 C734 0.930 . S
H743 C735 0.929 . S
H744 C752 0.929 . S
H745 C754 0.930 . S
H746 C756 0.930 . S
H747 C759 0.929 . S
H748 C762 0.930 . S
H749 C764 0.960 . S
H750 C764 0.960 . S
H751 C764 0.960 . S
C752 H744 0.929 . S
C752 C753 1.377 . S
C752 C754 1.384 . S
C753 C752 1.377 . S
C753 C759 1.390 . S
C754 H745 0.930 . S
C754 C752 1.384 . S
C754 C755 1.372 . S
C755 C754 1.372 . S
C755 C756 1.400 . S
C755 C760 1.490 . S
C756 H746 0.930 . S
C756 C755 1.400 . S
C756 C759 1.386 . S
H757 C773 0.930 . S
H758 C774 0.931 . S
C759 H747 0.929 . S
C759 C753 1.390 . S
C759 C756 1.386 . S
C760 C755 1.490 . S
C760 C762 1.395 . S
C760 C763 1.403 . S
H761 C767 0.930 . S
C762 H748 0.930 . S
C762 C760 1.395 . S
C762 C765 1.403 . S
C763 C760 1.403 . S
C763 C764 1.524 . S
C763 C767 1.400 . S
C764 H749 0.960 . S
C764 H750 0.960 . S
C764 H751 0.960 . S
C764 C763 1.524 . S
C765 C762 1.403 . S
C765 C766 1.392 . S
C765 C769 1.495 . S
C766 C765 1.392 . S
C766 C767 1.385 . S
C766 C768 1.478 . S
C767 H761 0.930 . S
C767 C763 1.400 . S
C767 C766 1.385 . S
C768 C766 1.478 . S
C768 C770 1.381 . S
C768 C774 1.383 . S
C769 C765 1.495 . S
C769 H775 0.959 . S
C769 H776 0.961 . S
C769 H777 0.960 . S
C770 C768 1.381 . S
C770 C771 1.394 . S
C770 H778 0.930 . S
C771 C770 1.394 . S
C771 C772 1.383 . S
C771 H779 0.929 . S
C772 C771 1.383 . S
C772 C773 1.377 . S
C773 H757 0.930 . S
C773 C772 1.377 . S
C773 C774 1.379 . S
C774 H758 0.931 . S
C774 C768 1.383 . S
C774 C773 1.379 . S
H775 C769 0.959 . S
H776 C769 0.961 . S
H777 C769 0.960 . S
H778 C770 0.930 . S
H779 C771 0.929 . S
H780 C788 0.929 . S
H781 C790 0.930 . S
H782 C792 0.930 . S
H783 C795 0.929 . S
H784 C798 0.930 . S
H785 C800 0.960 . S
H786 C800 0.960 . S
H787 C800 0.960 . S
C788 H780 0.929 . S
C788 C789 1.377 . S
C788 C790 1.384 . S
C789 C788 1.377 . S
C789 C795 1.390 . S
C790 H781 0.930 . S
C790 C788 1.384 . S
C790 C791 1.372 . S
C791 C790 1.372 . S
C791 C792 1.400 . S
C791 C796 1.490 . S
C792 H782 0.930 . S
C792 C791 1.400 . S
C792 C795 1.386 . S
H793 C809 0.930 . S
H794 C810 0.931 . S
C795 H783 0.929 . S
C795 C789 1.390 . S
C795 C792 1.386 . S
C796 C791 1.490 . S
C796 C798 1.395 . S
C796 C799 1.403 . S
H797 C803 0.930 . S
C798 H784 0.930 . S
C798 C796 1.395 . S
C798 C801 1.403 . S
C799 C796 1.403 . S
C799 C800 1.524 . S
C799 C803 1.400 . S
C800 H785 0.960 . S
C800 H786 0.960 . S
C800 H787 0.960 . S
C800 C799 1.524 . S
C801 C798 1.403 . S
C801 C802 1.392 . S
C801 C805 1.495 . S
C802 C801 1.392 . S
C802 C803 1.385 . S
C802 C804 1.478 . S
C803 H797 0.930 . S
C803 C799 1.400 . S
C803 C802 1.385 . S
C804 C802 1.478 . S
C804 C806 1.381 . S
C804 C810 1.383 . S
C805 C801 1.495 . S
C805 H811 0.959 . S
C805 H812 0.961 . S
C805 H813 0.960 . S
C806 C804 1.381 . S
C806 C807 1.394 . S
C806 H814 0.930 . S
C807 C806 1.394 . S
C807 C808 1.383 . S
C807 H815 0.929 . S
C808 C807 1.383 . S
C808 C809 1.377 . S
C809 H793 0.930 . S
C809 C808 1.377 . S
C809 C810 1.379 . S
C810 H794 0.931 . S
C810 C804 1.383 . S
C810 C809 1.379 . S
H811 C805 0.959 . S
H812 C805 0.961 . S
H813 C805 0.960 . S
H814 C806 0.930 . S
H815 C807 0.929 . S
H816 C824 0.929 . S
H817 C826 0.930 . S
H818 C828 0.930 . S
H819 C831 0.929 . S
H820 C834 0.930 . S
H821 C836 0.960 . S
H822 C836 0.960 . S
H823 C836 0.960 . S
C824 H816 0.929 . S
C824 C825 1.377 . S
C824 C826 1.384 . S
C825 C824 1.377 . S
C825 C831 1.390 . S
C826 H817 0.930 . S
C826 C824 1.384 . S
C826 C827 1.372 . S
C827 C826 1.372 . S
C827 C828 1.400 . S
C827 C832 1.490 . S
C828 H818 0.930 . S
C828 C827 1.400 . S
C828 C831 1.386 . S
H829 C845 0.930 . S
H830 C846 0.931 . S
C831 H819 0.929 . S
C831 C825 1.390 . S
C831 C828 1.386 . S
C832 C827 1.490 . S
C832 C834 1.395 . S
C832 C835 1.403 . S
H833 C839 0.930 . S
C834 H820 0.930 . S
C834 C832 1.395 . S
C834 C837 1.403 . S
C835 C832 1.403 . S
C835 C836 1.524 . S
C835 C839 1.400 . S
C836 H821 0.960 . S
C836 H822 0.960 . S
C836 H823 0.960 . S
C836 C835 1.524 . S
C837 C834 1.403 . S
C837 C838 1.392 . S
C837 C841 1.495 . S
C838 C837 1.392 . S
C838 C839 1.385 . S
C838 C840 1.478 . S
C839 H833 0.930 . S
C839 C835 1.400 . S
C839 C838 1.385 . S
C840 C838 1.478 . S
C840 C842 1.381 . S
C840 C846 1.383 . S
C841 C837 1.495 . S
C841 H847 0.959 . S
C841 H848 0.961 . S
C841 H849 0.960 . S
C842 C840 1.381 . S
C842 C843 1.394 . S
C842 H850 0.930 . S
C843 C842 1.394 . S
C843 C844 1.383 . S
C843 H851 0.929 . S
C844 C843 1.383 . S
C844 C845 1.377 . S
C845 H829 0.930 . S
C845 C844 1.377 . S
C845 C846 1.379 . S
C846 H830 0.931 . S
C846 C840 1.383 . S
C846 C845 1.379 . S
H847 C841 0.959 . S
H848 C841 0.961 . S
H849 C841 0.960 . S
H850 C842 0.930 . S
H851 C843 0.929 . S
H852 C860 0.929 . S
H853 C862 0.930 . S
H854 C864 0.930 . S
H855 C867 0.929 . S
H856 C870 0.930 . S
H857 C872 0.960 . S
H858 C872 0.960 . S
H859 C872 0.960 . S
C860 H852 0.929 . S
C860 C861 1.377 . S
C860 C862 1.384 . S
C861 C860 1.377 . S
C861 C867 1.390 . S
C862 H853 0.930 . S
C862 C860 1.384 . S
C862 C863 1.372 . S
C863 C862 1.372 . S
C863 C864 1.400 . S
C863 C868 1.490 . S
C864 H854 0.930 . S
C864 C863 1.400 . S
C864 C867 1.386 . S
H865 C881 0.930 . S
H866 C882 0.931 . S
C867 H855 0.929 . S
C867 C861 1.390 . S
C867 C864 1.386 . S
C868 C863 1.490 . S
C868 C870 1.395 . S
C868 C871 1.403 . S
H869 C875 0.930 . S
C870 H856 0.930 . S
C870 C868 1.395 . S
C870 C873 1.403 . S
C871 C868 1.403 . S
C871 C872 1.524 . S
C871 C875 1.400 . S
C872 H857 0.960 . S
C872 H858 0.960 . S
C872 H859 0.960 . S
C872 C871 1.524 . S
C873 C870 1.403 . S
C873 C874 1.392 . S
C873 C877 1.495 . S
C874 C873 1.392 . S
C874 C875 1.385 . S
C874 C876 1.478 . S
C875 H869 0.930 . S
C875 C871 1.400 . S
C875 C874 1.385 . S
C876 C874 1.478 . S
C876 C878 1.381 . S
C876 C882 1.383 . S
C877 C873 1.495 . S
C877 H883 0.959 . S
C877 H884 0.961 . S
C877 H885 0.960 . S
C878 C876 1.381 . S
C878 C879 1.394 . S
C878 H886 0.930 . S
C879 C878 1.394 . S
C879 C880 1.383 . S
C879 H887 0.929 . S
C880 C879 1.383 . S
C880 C881 1.377 . S
C881 H865 0.930 . S
C881 C880 1.377 . S
C881 C882 1.379 . S
C882 H866 0.931 . S
C882 C876 1.383 . S
C882 C881 1.379 . S
H883 C877 0.959 . S
H884 C877 0.961 . S
H885 C877 0.960 . S
H886 C878 0.930 . S
H887 C879 0.929 . S
H888 C896 0.929 . S
H889 C898 0.930 . S
H890 C900 0.930 . S
H891 C903 0.929 . S
H892 C906 0.930 . S
H893 C908 0.960 . S
H894 C908 0.960 . S
H895 C908 0.960 . S
C896 H888 0.929 . S
C896 C897 1.377 . S
C896 C898 1.384 . S
C897 C896 1.377 . S
C897 C903 1.390 . S
C898 H889 0.930 . S
C898 C896 1.384 . S
C898 C899 1.372 . S
C899 C898 1.372 . S
C899 C900 1.400 . S
C899 C904 1.490 . S
C900 H890 0.930 . S
C900 C899 1.400 . S
C900 C903 1.386 . S
H901 C917 0.930 . S
H902 C918 0.931 . S
C903 H891 0.929 . S
C903 C897 1.390 . S
C903 C900 1.386 . S
C904 C899 1.490 . S
C904 C906 1.395 . S
C904 C907 1.403 . S
H905 C911 0.930 . S
C906 H892 0.930 . S
C906 C904 1.395 . S
C906 C909 1.403 . S
C907 C904 1.403 . S
C907 C908 1.524 . S
C907 C911 1.400 . S
C908 H893 0.960 . S
C908 H894 0.960 . S
C908 H895 0.960 . S
C908 C907 1.524 . S
C909 C906 1.403 . S
C909 C910 1.392 . S
C909 C913 1.495 . S
C910 C909 1.392 . S
C910 C911 1.385 . S
C910 C912 1.478 . S
C911 H905 0.930 . S
C911 C907 1.400 . S
C911 C910 1.385 . S
C912 C910 1.478 . S
C912 C914 1.381 . S
C912 C918 1.383 . S
C913 C909 1.495 . S
C913 H919 0.959 . S
C913 H920 0.961 . S
C913 H921 0.960 . S
C914 C912 1.381 . S
C914 C915 1.394 . S
C914 H922 0.930 . S
C915 C914 1.394 . S
C915 C916 1.383 . S
C915 H923 0.929 . S
C916 C915 1.383 . S
C916 C917 1.377 . S
C917 H901 0.930 . S
C917 C916 1.377 . S
C917 C918 1.379 . S
C918 H902 0.931 . S
C918 C912 1.383 . S
C918 C917 1.379 . S
H919 C913 0.959 . S
H920 C913 0.961 . S
H921 C913 0.960 . S
H922 C914 0.930 . S
H923 C915 0.929 . S
H924 C932 0.929 . S
H925 C934 0.930 . S
H926 C936 0.930 . S
H927 C939 0.929 . S
H928 C942 0.930 . S
H929 C944 0.960 . S
H930 C944 0.960 . S
H931 C944 0.960 . S
C932 H924 0.929 . S
C932 C933 1.377 . S
C932 C934 1.384 . S
C933 C932 1.377 . S
C933 C939 1.390 . S
C934 H925 0.930 . S
C934 C932 1.384 . S
C934 C935 1.372 . S
C935 C934 1.372 . S
C935 C936 1.400 . S
C935 C940 1.490 . S
C936 H926 0.930 . S
C936 C935 1.400 . S
C936 C939 1.386 . S
H937 C953 0.930 . S
H938 C954 0.931 . S
C939 H927 0.929 . S
C939 C933 1.390 . S
C939 C936 1.386 . S
C940 C935 1.490 . S
C940 C942 1.395 . S
C940 C943 1.403 . S
H941 C947 0.930 . S
C942 H928 0.930 . S
C942 C940 1.395 . S
C942 C945 1.403 . S
C943 C940 1.403 . S
C943 C944 1.524 . S
C943 C947 1.400 . S
C944 H929 0.960 . S
C944 H930 0.960 . S
C944 H931 0.960 . S
C944 C943 1.524 . S
C945 C942 1.403 . S
C945 C946 1.392 . S
C945 C949 1.495 . S
C946 C945 1.392 . S
C946 C947 1.385 . S
C946 C948 1.478 . S
C947 H941 0.930 . S
C947 C943 1.400 . S
C947 C946 1.385 . S
C948 C946 1.478 . S
C948 C950 1.381 . S
C948 C954 1.383 . S
C949 C945 1.495 . S
C949 H955 0.959 . S
C949 H956 0.961 . S
C949 H957 0.960 . S
C950 C948 1.381 . S
C950 C951 1.394 . S
C950 H958 0.930 . S
C951 C950 1.394 . S
C951 C952 1.383 . S
C951 H959 0.929 . S
C952 C951 1.383 . S
C952 C953 1.377 . S
C953 H937 0.930 . S
C953 C952 1.377 . S
C953 C954 1.379 . S
C954 H938 0.931 . S
C954 C948 1.383 . S
C954 C953 1.379 . S
H955 C949 0.959 . S
H956 C949 0.961 . S
H957 C949 0.960 . S
H958 C950 0.930 . S
H959 C951 0.929 . S
H960 C968 0.929 . S
H961 C970 0.930 . S
H962 C972 0.930 . S
H963 C975 0.929 . S
H964 C978 0.930 . S
H965 C980 0.960 . S
H966 C980 0.960 . S
H967 C980 0.960 . S
C968 H960 0.929 . S
C968 C969 1.377 . S
C968 C970 1.384 . S
C969 C968 1.377 . S
C969 C975 1.390 . S
C970 H961 0.930 . S
C970 C968 1.384 . S
C970 C971 1.372 . S
C971 C970 1.372 . S
C971 C972 1.400 . S
C971 C976 1.490 . S
C972 H962 0.930 . S
C972 C971 1.400 . S
C972 C975 1.386 . S
H973 C989 0.930 . S
H974 C990 0.931 . S
C975 H963 0.929 . S
C975 C969 1.390 . S
C975 C972 1.386 . S
C976 C971 1.490 . S
C976 C978 1.395 . S
C976 C979 1.403 . S
H977 C983 0.930 . S
C978 H964 0.930 . S
C978 C976 1.395 . S
C978 C981 1.403 . S
C979 C976 1.403 . S
C979 C980 1.524 . S
C979 C983 1.400 . S
C980 H965 0.960 . S
C980 H966 0.960 . S
C980 H967 0.960 . S
C980 C979 1.524 . S
C981 C978 1.403 . S
C981 C982 1.392 . S
C981 C985 1.495 . S
C982 C981 1.392 . S
C982 C983 1.385 . S
C982 C984 1.478 . S
C983 H977 0.930 . S
C983 C979 1.400 . S
C983 C982 1.385 . S
C984 C982 1.478 . S
C984 C986 1.381 . S
C984 C990 1.383 . S
C985 C981 1.495 . S
C985 H991 0.959 . S
C985 H992 0.961 . S
C985 H993 0.960 . S
C986 C984 1.381 . S
C986 C987 1.394 . S
C986 H994 0.930 . S
C987 C986 1.394 . S
C987 C988 1.383 . S
C987 H995 0.929 . S
C988 C987 1.383 . S
C988 C989 1.377 . S
C989 H973 0.930 . S
C989 C988 1.377 . S
C989 C990 1.379 . S
C990 H974 0.931 . S
C990 C984 1.383 . S
C990 C989 1.379 . S
H991 C985 0.959 . S
H992 C985 0.961 . S
H993 C985 0.960 . S
H994 C986 0.930 . S
H995 C987 0.929 . S
H996 C1004 0.929 . S
H997 C1006 0.930 . S
H998 C1008 0.930 . S
H999 C1011 0.929 . S
H1000 C1014 0.930 . S
H1001 C1016 0.960 . S
H1002 C1016 0.960 . S
H1003 C1016 0.960 . S
C1004 H996 0.929 . S
C1004 C1005 1.377 . S
C1004 C1006 1.384 . S
C1005 C1004 1.377 . S
C1005 C1011 1.390 . S
C1006 H997 0.930 . S
C1006 C1004 1.384 . S
C1006 C1007 1.372 . S
C1007 C1006 1.372 . S
C1007 C1008 1.400 . S
C1007 C1012 1.490 . S
C1008 H998 0.930 . S
C1008 C1007 1.400 . S
C1008 C1011 1.386 . S
H1009 C1025 0.930 . S
H1010 C1026 0.931 . S
C1011 H999 0.929 . S
C1011 C1005 1.390 . S
C1011 C1008 1.386 . S
C1012 C1007 1.490 . S
C1012 C1014 1.395 . S
C1012 C1015 1.403 . S
H1013 C1019 0.930 . S
C1014 H1000 0.930 . S
C1014 C1012 1.395 . S
C1014 C1017 1.403 . S
C1015 C1012 1.403 . S
C1015 C1016 1.524 . S
C1015 C1019 1.400 . S
C1016 H1001 0.960 . S
C1016 H1002 0.960 . S
C1016 H1003 0.960 . S
C1016 C1015 1.524 . S
C1017 C1014 1.403 . S
C1017 C1018 1.392 . S
C1017 C1021 1.495 . S
C1018 C1017 1.392 . S
C1018 C1019 1.385 . S
C1018 C1020 1.478 . S
C1019 H1013 0.930 . S
C1019 C1015 1.400 . S
C1019 C1018 1.385 . S
C1020 C1018 1.478 . S
C1020 C1022 1.381 . S
C1020 C1026 1.383 . S
C1021 C1017 1.495 . S
C1021 H1027 0.959 . S
C1021 H1028 0.961 . S
C1021 H1029 0.960 . S
C1022 C1020 1.381 . S
C1022 C1023 1.394 . S
C1022 H1030 0.930 . S
C1023 C1022 1.394 . S
C1023 C1024 1.383 . S
C1023 H1031 0.929 . S
C1024 C1023 1.383 . S
C1024 C1025 1.377 . S
C1025 H1009 0.930 . S
C1025 C1024 1.377 . S
C1025 C1026 1.379 . S
C1026 H1010 0.931 . S
C1026 C1020 1.383 . S
C1026 C1025 1.379 . S
H1027 C1021 0.959 . S
H1028 C1021 0.961 . S
H1029 C1021 0.960 . S
H1030 C1022 0.930 . S
H1031 C1023 0.929 . S
H1032 C1040 0.929 . S
H1033 C1042 0.930 . S
H1034 C1044 0.930 . S
H1035 C1047 0.929 . S
H1036 C1050 0.930 . S
H1037 C1052 0.960 . S
H1038 C1052 0.960 . S
H1039 C1052 0.960 . S
C1040 H1032 0.929 . S
C1040 C1041 1.377 . S
C1040 C1042 1.384 . S
C1041 C1040 1.377 . S
C1041 C1047 1.390 . S
C1042 H1033 0.930 . S
C1042 C1040 1.384 . S
C1042 C1043 1.372 . S
C1043 C1042 1.372 . S
C1043 C1044 1.400 . S
C1043 C1048 1.490 . S
C1044 H1034 0.930 . S
C1044 C1043 1.400 . S
C1044 C1047 1.386 . S
H1045 C1061 0.930 . S
H1046 C1062 0.931 . S
C1047 H1035 0.929 . S
C1047 C1041 1.390 . S
C1047 C1044 1.386 . S
C1048 C1043 1.490 . S
C1048 C1050 1.395 . S
C1048 C1051 1.403 . S
H1049 C1055 0.930 . S
C1050 H1036 0.930 . S
C1050 C1048 1.395 . S
C1050 C1053 1.403 . S
C1051 C1048 1.403 . S
C1051 C1052 1.524 . S
C1051 C1055 1.400 . S
C1052 H1037 0.960 . S
C1052 H1038 0.960 . S
C1052 H1039 0.960 . S
C1052 C1051 1.524 . S
C1053 C1050 1.403 . S
C1053 C1054 1.392 . S
C1053 C1057 1.495 . S
C1054 C1053 1.392 . S
C1054 C1055 1.385 . S
C1054 C1056 1.478 . S
C1055 H1049 0.930 . S
C1055 C1051 1.400 . S
C1055 C1054 1.385 . S
C1056 C1054 1.478 . S
C1056 C1058 1.381 . S
C1056 C1062 1.383 . S
C1057 C1053 1.495 . S
C1057 H1063 0.959 . S
C1057 H1064 0.961 . S
C1057 H1065 0.960 . S
C1058 C1056 1.381 . S
C1058 C1059 1.394 . S
C1058 H1066 0.930 . S
C1059 C1058 1.394 . S
C1059 C1060 1.383 . S
C1059 H1067 0.929 . S
C1060 C1059 1.383 . S
C1060 C1061 1.377 . S
C1061 H1045 0.930 . S
C1061 C1060 1.377 . S
C1061 C1062 1.379 . S
C1062 H1046 0.931 . S
C1062 C1056 1.383 . S
C1062 C1061 1.379 . S
H1063 C1057 0.959 . S
H1064 C1057 0.961 . S
H1065 C1057 0.960 . S
H1066 C1058 0.930 . S
H1067 C1059 0.929 . S
H1068 C1076 0.929 . S
H1069 C1078 0.930 . S
H1070 C1080 0.930 . S
H1071 C1083 0.929 . S
H1072 C1086 0.930 . S
H1073 C1088 0.960 . S
H1074 C1088 0.960 . S
H1075 C1088 0.960 . S
C1076 H1068 0.929 . S
C1076 C1077 1.377 . S
C1076 C1078 1.384 . S
C1077 C1076 1.377 . S
C1077 C1083 1.390 . S
C1078 H1069 0.930 . S
C1078 C1076 1.384 . S
C1078 C1079 1.372 . S
C1079 C1078 1.372 . S
C1079 C1080 1.400 . S
C1079 C1084 1.490 . S
C1080 H1070 0.930 . S
C1080 C1079 1.400 . S
C1080 C1083 1.386 . S
H1081 C1097 0.930 . S
H1082 C1098 0.931 . S
C1083 H1071 0.929 . S
C1083 C1077 1.390 . S
C1083 C1080 1.386 . S
C1084 C1079 1.490 . S
C1084 C1086 1.395 . S
C1084 C1087 1.403 . S
H1085 C1091 0.930 . S
C1086 H1072 0.930 . S
C1086 C1084 1.395 . S
C1086 C1089 1.403 . S
C1087 C1084 1.403 . S
C1087 C1088 1.524 . S
C1087 C1091 1.400 . S
C1088 H1073 0.960 . S
C1088 H1074 0.960 . S
C1088 H1075 0.960 . S
C1088 C1087 1.524 . S
C1089 C1086 1.403 . S
C1089 C1090 1.392 . S
C1089 C1093 1.495 . S
C1090 C1089 1.392 . S
C1090 C1091 1.385 . S
C1090 C1092 1.478 . S
C1091 H1085 0.930 . S
C1091 C1087 1.400 . S
C1091 C1090 1.385 . S
C1092 C1090 1.478 . S
C1092 C1094 1.381 . S
C1092 C1098 1.383 . S
C1093 C1089 1.495 . S
C1093 H1099 0.959 . S
C1093 H1100 0.961 . S
C1093 H1101 0.960 . S
C1094 C1092 1.381 . S
C1094 C1095 1.394 . S
C1094 H1102 0.930 . S
C1095 C1094 1.394 . S
C1095 C1096 1.383 . S
C1095 H1103 0.929 . S
C1096 C1095 1.383 . S
C1096 C1097 1.377 . S
C1097 H1081 0.930 . S
C1097 C1096 1.377 . S
C1097 C1098 1.379 . S
C1098 H1082 0.931 . S
C1098 C1092 1.383 . S
C1098 C1097 1.379 . S
H1099 C1093 0.959 . S
H1100 C1093 0.961 . S
H1101 C1093 0.960 . S
H1102 C1094 0.930 . S
H1103 C1095 0.929 . S
H1104 C1112 0.929 . S
H1105 C1114 0.930 . S
H1106 C1116 0.930 . S
H1107 C1119 0.929 . S
H1108 C1122 0.930 . S
H1109 C1124 0.960 . S
H1110 C1124 0.960 . S
H1111 C1124 0.960 . S
C1112 H1104 0.929 . S
C1112 C1113 1.377 . S
C1112 C1114 1.384 . S
C1113 C1112 1.377 . S
C1113 C1119 1.390 . S
C1114 H1105 0.930 . S
C1114 C1112 1.384 . S
C1114 C1115 1.372 . S
C1115 C1114 1.372 . S
C1115 C1116 1.400 . S
C1115 C1120 1.490 . S
C1116 H1106 0.930 . S
C1116 C1115 1.400 . S
C1116 C1119 1.386 . S
H1117 C1133 0.930 . S
H1118 C1134 0.931 . S
C1119 H1107 0.929 . S
C1119 C1113 1.390 . S
C1119 C1116 1.386 . S
C1120 C1115 1.490 . S
C1120 C1122 1.395 . S
C1120 C1123 1.403 . S
H1121 C1127 0.930 . S
C1122 H1108 0.930 . S
C1122 C1120 1.395 . S
C1122 C1125 1.403 . S
C1123 C1120 1.403 . S
C1123 C1124 1.524 . S
C1123 C1127 1.400 . S
C1124 H1109 0.960 . S
C1124 H1110 0.960 . S
C1124 H1111 0.960 . S
C1124 C1123 1.524 . S
C1125 C1122 1.403 . S
C1125 C1126 1.392 . S
C1125 C1129 1.495 . S
C1126 C1125 1.392 . S
C1126 C1127 1.385 . S
C1126 C1128 1.478 . S
C1127 H1121 0.930 . S
C1127 C1123 1.400 . S
C1127 C1126 1.385 . S
C1128 C1126 1.478 . S
C1128 C1130 1.381 . S
C1128 C1134 1.383 . S
C1129 C1125 1.495 . S
C1129 H1135 0.959 . S
C1129 H1136 0.961 . S
C1129 H1137 0.960 . S
C1130 C1128 1.381 . S
C1130 C1131 1.394 . S
C1130 H1138 0.930 . S
C1131 C1130 1.394 . S
C1131 C1132 1.383 . S
C1131 H1139 0.929 . S
C1132 C1131 1.383 . S
C1132 C1133 1.377 . S
C1133 H1117 0.930 . S
C1133 C1132 1.377 . S
C1133 C1134 1.379 . S
C1134 H1118 0.931 . S
C1134 C1128 1.383 . S
C1134 C1133 1.379 . S
H1135 C1129 0.959 . S
H1136 C1129 0.961 . S
H1137 C1129 0.960 . S
H1138 C1130 0.930 . S
H1139 C1131 0.929 . S
H1140 C1148 0.929 . S
H1141 C1150 0.930 . S
H1142 C1152 0.930 . S
H1143 C1155 0.929 . S
H1144 C1158 0.930 . S
H1145 C1160 0.960 . S
H1146 C1160 0.960 . S
H1147 C1160 0.960 . S
C1148 H1140 0.929 . S
C1148 C1149 1.377 . S
C1148 C1150 1.384 . S
C1149 C1148 1.377 . S
C1149 C1155 1.390 . S
C1150 H1141 0.930 . S
C1150 C1148 1.384 . S
C1150 C1151 1.372 . S
C1151 C1150 1.372 . S
C1151 C1152 1.400 . S
C1151 C1156 1.490 . S
C1152 H1142 0.930 . S
C1152 C1151 1.400 . S
C1152 C1155 1.386 . S
H1153 C1169 0.930 . S
H1154 C1170 0.931 . S
C1155 H1143 0.929 . S
C1155 C1149 1.390 . S
C1155 C1152 1.386 . S
C1156 C1151 1.490 . S
C1156 C1158 1.395 . S
C1156 C1159 1.403 . S
H1157 C1163 0.930 . S
C1158 H1144 0.930 . S
C1158 C1156 1.395 . S
C1158 C1161 1.403 . S
C1159 C1156 1.403 . S
C1159 C1160 1.524 . S
C1159 C1163 1.400 . S
C1160 H1145 0.960 . S
C1160 H1146 0.960 . S
C1160 H1147 0.960 . S
C1160 C1159 1.524 . S
C1161 C1158 1.403 . S
C1161 C1162 1.392 . S
C1161 C1165 1.495 . S
C1162 C1161 1.392 . S
C1162 C1163 1.385 . S
C1162 C1164 1.478 . S
C1163 H1157 0.930 . S
C1163 C1159 1.400 . S
C1163 C1162 1.385 . S
C1164 C1162 1.478 . S
C1164 C1166 1.381 . S
C1164 C1170 1.383 . S
C1165 C1161 1.495 . S
C1165 H1171 0.959 . S
C1165 H1172 0.961 . S
C1165 H1173 0.960 . S
C1166 C1164 1.381 . S
C1166 C1167 1.394 . S
C1166 H1174 0.930 . S
C1167 C1166 1.394 . S
C1167 C1168 1.383 . S
C1167 H1175 0.929 . S
C1168 C1167 1.383 . S
C1168 C1169 1.377 . S
C1169 H1153 0.930 . S
C1169 C1168 1.377 . S
C1169 C1170 1.379 . S
C1170 H1154 0.931 . S
C1170 C1164 1.383 . S
C1170 C1169 1.379 . S
H1171 C1165 0.959 . S
H1172 C1165 0.961 . S
H1173 C1165 0.960 . S
H1174 C1166 0.930 . S
H1175 C1167 0.929 . S
H1176 C1184 0.929 . S
H1177 C1186 0.930 . S
H1178 C1188 0.930 . S
H1179 C1191 0.929 . S
H1180 C1194 0.930 . S
H1181 C1196 0.960 . S
H1182 C1196 0.960 . S
H1183 C1196 0.960 . S
C1184 H1176 0.929 . S
C1184 C1185 1.377 . S
C1184 C1186 1.384 . S
C1185 C1184 1.377 . S
C1185 C1191 1.390 . S
C1186 H1177 0.930 . S
C1186 C1184 1.384 . S
C1186 C1187 1.372 . S
C1187 C1186 1.372 . S
C1187 C1188 1.400 . S
C1187 C1192 1.490 . S
C1188 H1178 0.930 . S
C1188 C1187 1.400 . S
C1188 C1191 1.386 . S
H1189 C1205 0.930 . S
H1190 C1206 0.931 . S
C1191 H1179 0.929 . S
C1191 C1185 1.390 . S
C1191 C1188 1.386 . S
C1192 C1187 1.490 . S
C1192 C1194 1.395 . S
C1192 C1195 1.403 . S
H1193 C1199 0.930 . S
C1194 H1180 0.930 . S
C1194 C1192 1.395 . S
C1194 C1197 1.403 . S
C1195 C1192 1.403 . S
C1195 C1196 1.524 . S
C1195 C1199 1.400 . S
C1196 H1181 0.960 . S
C1196 H1182 0.960 . S
C1196 H1183 0.960 . S
C1196 C1195 1.524 . S
C1197 C1194 1.403 . S
C1197 C1198 1.392 . S
C1197 C1201 1.495 . S
C1198 C1197 1.392 . S
C1198 C1199 1.385 . S
C1198 C1200 1.478 . S
C1199 H1193 0.930 . S
C1199 C1195 1.400 . S
C1199 C1198 1.385 . S
C1200 C1198 1.478 . S
C1200 C1202 1.381 . S
C1200 C1206 1.383 . S
C1201 C1197 1.495 . S
C1201 H1207 0.959 . S
C1201 H1208 0.961 . S
C1201 H1209 0.960 . S
C1202 C1200 1.381 . S
C1202 C1203 1.394 . S
C1202 H1210 0.930 . S
C1203 C1202 1.394 . S
C1203 C1204 1.383 . S
C1203 H1211 0.929 . S
C1204 C1203 1.383 . S
C1204 C1205 1.377 . S
C1205 H1189 0.930 . S
C1205 C1204 1.377 . S
C1205 C1206 1.379 . S
C1206 H1190 0.931 . S
C1206 C1200 1.383 . S
C1206 C1205 1.379 . S
H1207 C1201 0.959 . S
H1208 C1201 0.961 . S
H1209 C1201 0.960 . S
H1210 C1202 0.930 . S
H1211 C1203 0.929 . S
H1212 C1220 0.929 . S
H1213 C1222 0.930 . S
H1214 C1224 0.930 . S
H1215 C1227 0.929 . S
H1216 C1230 0.930 . S
H1217 C1232 0.960 . S
H1218 C1232 0.960 . S
H1219 C1232 0.960 . S
C1220 H1212 0.929 . S
C1220 C1221 1.377 . S
C1220 C1222 1.384 . S
C1221 C1220 1.377 . S
C1221 C1227 1.390 . S
C1222 H1213 0.930 . S
C1222 C1220 1.384 . S
C1222 C1223 1.372 . S
C1223 C1222 1.372 . S
C1223 C1224 1.400 . S
C1223 C1228 1.490 . S
C1224 H1214 0.930 . S
C1224 C1223 1.400 . S
C1224 C1227 1.386 . S
H1225 C1241 0.930 . S
H1226 C1242 0.931 . S
C1227 H1215 0.929 . S
C1227 C1221 1.390 . S
C1227 C1224 1.386 . S
C1228 C1223 1.490 . S
C1228 C1230 1.395 . S
C1228 C1231 1.403 . S
H1229 C1235 0.930 . S
C1230 H1216 0.930 . S
C1230 C1228 1.395 . S
C1230 C1233 1.403 . S
C1231 C1228 1.403 . S
C1231 C1232 1.524 . S
C1231 C1235 1.400 . S
C1232 H1217 0.960 . S
C1232 H1218 0.960 . S
C1232 H1219 0.960 . S
C1232 C1231 1.524 . S
C1233 C1230 1.403 . S
C1233 C1234 1.392 . S
C1233 C1237 1.495 . S
C1234 C1233 1.392 . S
C1234 C1235 1.385 . S
C1234 C1236 1.478 . S
C1235 H1229 0.930 . S
C1235 C1231 1.400 . S
C1235 C1234 1.385 . S
C1236 C1234 1.478 . S
C1236 C1238 1.381 . S
C1236 C1242 1.383 . S
C1237 C1233 1.495 . S
C1237 H1243 0.959 . S
C1237 H1244 0.961 . S
C1237 H1245 0.960 . S
C1238 C1236 1.381 . S
C1238 C1239 1.394 . S
C1238 H1246 0.930 . S
C1239 C1238 1.394 . S
C1239 C1240 1.383 . S
C1239 H1247 0.929 . S
C1240 C1239 1.383 . S
C1240 C1241 1.377 . S
C1241 H1225 0.930 . S
C1241 C1240 1.377 . S
C1241 C1242 1.379 . S
C1242 H1226 0.931 . S
C1242 C1236 1.383 . S
C1242 C1241 1.379 . S
H1243 C1237 0.959 . S
H1244 C1237 0.961 . S
H1245 C1237 0.960 . S
H1246 C1238 0.930 . S
H1247 C1239 0.929 . S
H1248 C1256 0.929 . S
H1249 C1258 0.930 . S
H1250 C1260 0.930 . S
H1251 C1263 0.929 . S
H1252 C1266 0.930 . S
H1253 C1268 0.960 . S
H1254 C1268 0.960 . S
H1255 C1268 0.960 . S
C1256 H1248 0.929 . S
C1256 C1257 1.377 . S
C1256 C1258 1.384 . S
C1257 C1256 1.377 . S
C1257 C1263 1.390 . S
C1258 H1249 0.930 . S
C1258 C1256 1.384 . S
C1258 C1259 1.372 . S
C1259 C1258 1.372 . S
C1259 C1260 1.400 . S
C1259 C1264 1.490 . S
C1260 H1250 0.930 . S
C1260 C1259 1.400 . S
C1260 C1263 1.386 . S
H1261 C1277 0.930 . S
H1262 C1278 0.931 . S
C1263 H1251 0.929 . S
C1263 C1257 1.390 . S
C1263 C1260 1.386 . S
C1264 C1259 1.490 . S
C1264 C1266 1.395 . S
C1264 C1267 1.403 . S
H1265 C1271 0.930 . S
C1266 H1252 0.930 . S
C1266 C1264 1.395 . S
C1266 C1269 1.403 . S
C1267 C1264 1.403 . S
C1267 C1268 1.524 . S
C1267 C1271 1.400 . S
C1268 H1253 0.960 . S
C1268 H1254 0.960 . S
C1268 H1255 0.960 . S
C1268 C1267 1.524 . S
C1269 C1266 1.403 . S
C1269 C1270 1.392 . S
C1269 C1273 1.495 . S
C1270 C1269 1.392 . S
C1270 C1271 1.385 . S
C1270 C1272 1.478 . S
C1271 H1265 0.930 . S
C1271 C1267 1.400 . S
C1271 C1270 1.385 . S
C1272 C1270 1.478 . S
C1272 C1274 1.381 . S
C1272 C1278 1.383 . S
C1273 C1269 1.495 . S
C1273 H1279 0.959 . S
C1273 H1280 0.961 . S
C1273 H1281 0.960 . S
C1274 C1272 1.381 . S
C1274 C1275 1.394 . S
C1274 H1282 0.930 . S
C1275 C1274 1.394 . S
C1275 C1276 1.383 . S
C1275 H1283 0.929 . S
C1276 C1275 1.383 . S
C1276 C1277 1.377 . S
C1277 H1261 0.930 . S
C1277 C1276 1.377 . S
C1277 C1278 1.379 . S
C1278 H1262 0.931 . S
C1278 C1272 1.383 . S
C1278 C1277 1.379 . S
H1279 C1273 0.959 . S
H1280 C1273 0.961 . S
H1281 C1273 0.960 . S
H1282 C1274 0.930 . S
H1283 C1275 0.929 . S
H1284 C1292 0.929 . S
H1285 C1294 0.930 . S
H1286 C1296 0.930 . S
H1287 C1299 0.929 . S
H1288 C1302 0.930 . S
H1289 C1304 0.960 . S
H1290 C1304 0.960 . S
H1291 C1304 0.960 . S
C1292 H1284 0.929 . S
C1292 C1293 1.377 . S
C1292 C1294 1.384 . S
C1293 C1292 1.377 . S
C1293 C1299 1.390 . S
C1294 H1285 0.930 . S
C1294 C1292 1.384 . S
C1294 C1295 1.372 . S
C1295 C1294 1.372 . S
C1295 C1296 1.400 . S
C1295 C1300 1.490 . S
C1296 H1286 0.930 . S
C1296 C1295 1.400 . S
C1296 C1299 1.386 . S
H1297 C1313 0.930 . S
H1298 C1314 0.931 . S
C1299 H1287 0.929 . S
C1299 C1293 1.390 . S
C1299 C1296 1.386 . S
C1300 C1295 1.490 . S
C1300 C1302 1.395 . S
C1300 C1303 1.403 . S
H1301 C1307 0.930 . S
C1302 H1288 0.930 . S
C1302 C1300 1.395 . S
C1302 C1305 1.403 . S
C1303 C1300 1.403 . S
C1303 C1304 1.524 . S
C1303 C1307 1.400 . S
C1304 H1289 0.960 . S
C1304 H1290 0.960 . S
C1304 H1291 0.960 . S
C1304 C1303 1.524 . S
C1305 C1302 1.403 . S
C1305 C1306 1.392 . S
C1305 C1309 1.495 . S
C1306 C1305 1.392 . S
C1306 C1307 1.385 . S
C1306 C1308 1.478 . S
C1307 H1301 0.930 . S
C1307 C1303 1.400 . S
C1307 C1306 1.385 . S
C1308 C1306 1.478 . S
C1308 C1310 1.381 . S
C1308 C1314 1.383 . S
C1309 C1305 1.495 . S
C1309 H1315 0.959 . S
C1309 H1316 0.961 . S
C1309 H1317 0.960 . S
C1310 C1308 1.381 . S
C1310 C1311 1.394 . S
C1310 H1318 0.930 . S
C1311 C1310 1.394 . S
C1311 C1312 1.383 . S
C1311 H1319 0.929 . S
C1312 C1311 1.383 . S
C1312 C1313 1.377 . S
C1313 H1297 0.930 . S
C1313 C1312 1.377 . S
C1313 C1314 1.379 . S
C1314 H1298 0.931 . S
C1314 C1308 1.383 . S
C1314 C1313 1.379 . S
H1315 C1309 0.959 . S
H1316 C1309 0.961 . S
H1317 C1309 0.960 . S
H1318 C1310 0.930 . S
H1319 C1311 0.929 . S
H1320 C1328 0.929 . S
H1321 C1330 0.930 . S
H1322 C1332 0.930 . S
H1323 C1335 0.929 . S
H1324 C1338 0.930 . S
H1325 C1340 0.960 . S
H1326 C1340 0.960 . S
H1327 C1340 0.960 . S
C1328 H1320 0.929 . S
C1328 C1329 1.377 . S
C1328 C1330 1.384 . S
C1329 C1328 1.377 . S
C1329 C1335 1.390 . S
C1330 H1321 0.930 . S
C1330 C1328 1.384 . S
C1330 C1331 1.372 . S
C1331 C1330 1.372 . S
C1331 C1332 1.400 . S
C1331 C1336 1.490 . S
C1332 H1322 0.930 . S
C1332 C1331 1.400 . S
C1332 C1335 1.386 . S
H1333 C1349 0.930 . S
H1334 C1350 0.931 . S
C1335 H1323 0.929 . S
C1335 C1329 1.390 . S
C1335 C1332 1.386 . S
C1336 C1331 1.490 . S
C1336 C1338 1.395 . S
C1336 C1339 1.403 . S
H1337 C1343 0.930 . S
C1338 H1324 0.930 . S
C1338 C1336 1.395 . S
C1338 C1341 1.403 . S
C1339 C1336 1.403 . S
C1339 C1340 1.524 . S
C1339 C1343 1.400 . S
C1340 H1325 0.960 . S
C1340 H1326 0.960 . S
C1340 H1327 0.960 . S
C1340 C1339 1.524 . S
C1341 C1338 1.403 . S
C1341 C1342 1.392 . S
C1341 C1345 1.495 . S
C1342 C1341 1.392 . S
C1342 C1343 1.385 . S
C1342 C1344 1.478 . S
C1343 H1337 0.930 . S
C1343 C1339 1.400 . S
C1343 C1342 1.385 . S
C1344 C1342 1.478 . S
C1344 C1346 1.381 . S
C1344 C1350 1.383 . S
C1345 C1341 1.495 . S
C1345 H1351 0.959 . S
C1345 H1352 0.961 . S
C1345 H1353 0.960 . S
C1346 C1344 1.381 . S
C1346 C1347 1.394 . S
C1346 H1354 0.930 . S
C1347 C1346 1.394 . S
C1347 C1348 1.383 . S
C1347 H1355 0.929 . S
C1348 C1347 1.383 . S
C1348 C1349 1.377 . S
C1349 H1333 0.930 . S
C1349 C1348 1.377 . S
C1349 C1350 1.379 . S
C1350 H1334 0.931 . S
C1350 C1344 1.383 . S
C1350 C1349 1.379 . S
H1351 C1345 0.959 . S
H1352 C1345 0.961 . S
H1353 C1345 0.960 . S
H1354 C1346 0.930 . S
H1355 C1347 0.929 . S
H1356 C1364 0.929 . S
H1357 C1366 0.930 . S
H1358 C1368 0.930 . S
H1359 C1371 0.929 . S
H1360 C1374 0.930 . S
H1361 C1376 0.960 . S
H1362 C1376 0.960 . S
H1363 C1376 0.960 . S
C1364 H1356 0.929 . S
C1364 C1365 1.377 . S
C1364 C1366 1.384 . S
C1365 C1364 1.377 . S
C1365 C1371 1.390 . S
C1366 H1357 0.930 . S
C1366 C1364 1.384 . S
C1366 C1367 1.372 . S
C1367 C1366 1.372 . S
C1367 C1368 1.400 . S
C1367 C1372 1.490 . S
C1368 H1358 0.930 . S
C1368 C1367 1.400 . S
C1368 C1371 1.386 . S
H1369 C1385 0.930 . S
H1370 C1386 0.931 . S
C1371 H1359 0.929 . S
C1371 C1365 1.390 . S
C1371 C1368 1.386 . S
C1372 C1367 1.490 . S
C1372 C1374 1.395 . S
C1372 C1375 1.403 . S
H1373 C1379 0.930 . S
C1374 H1360 0.930 . S
C1374 C1372 1.395 . S
C1374 C1377 1.403 . S
C1375 C1372 1.403 . S
C1375 C1376 1.524 . S
C1375 C1379 1.400 . S
C1376 H1361 0.960 . S
C1376 H1362 0.960 . S
C1376 H1363 0.960 . S
C1376 C1375 1.524 . S
C1377 C1374 1.403 . S
C1377 C1378 1.392 . S
C1377 C1381 1.495 . S
C1378 C1377 1.392 . S
C1378 C1379 1.385 . S
C1378 C1380 1.478 . S
C1379 H1373 0.930 . S
C1379 C1375 1.400 . S
C1379 C1378 1.385 . S
C1380 C1378 1.478 . S
C1380 C1382 1.381 . S
C1380 C1386 1.383 . S
C1381 C1377 1.495 . S
C1381 H1387 0.959 . S
C1381 H1388 0.961 . S
C1381 H1389 0.960 . S
C1382 C1380 1.381 . S
C1382 C1383 1.394 . S
C1382 H1390 0.930 . S
C1383 C1382 1.394 . S
C1383 C1384 1.383 . S
C1383 H1391 0.929 . S
C1384 C1383 1.383 . S
C1384 C1385 1.377 . S
C1385 H1369 0.930 . S
C1385 C1384 1.377 . S
C1385 C1386 1.379 . S
C1386 H1370 0.931 . S
C1386 C1380 1.383 . S
C1386 C1385 1.379 . S
H1387 C1381 0.959 . S
H1388 C1381 0.961 . S
H1389 C1381 0.960 . S
H1390 C1382 0.930 . S
H1391 C1383 0.929 . S
H1392 C1400 0.929 . S
H1393 C1402 0.930 . S
H1394 C1404 0.930 . S
H1395 C1407 0.929 . S
H1396 C1410 0.930 . S
H1397 C1412 0.960 . S
H1398 C1412 0.960 . S
H1399 C1412 0.960 . S
C1400 H1392 0.929 . S
C1400 C1401 1.377 . S
C1400 C1402 1.384 . S
C1401 C1400 1.377 . S
C1401 C1407 1.390 . S
C1402 H1393 0.930 . S
C1402 C1400 1.384 . S
C1402 C1403 1.372 . S
C1403 C1402 1.372 . S
C1403 C1404 1.400 . S
C1403 C1408 1.490 . S
C1404 H1394 0.930 . S
C1404 C1403 1.400 . S
C1404 C1407 1.386 . S
H1405 C1421 0.930 . S
H1406 C1422 0.931 . S
C1407 H1395 0.929 . S
C1407 C1401 1.390 . S
C1407 C1404 1.386 . S
C1408 C1403 1.490 . S
C1408 C1410 1.395 . S
C1408 C1411 1.403 . S
H1409 C1415 0.930 . S
C1410 H1396 0.930 . S
C1410 C1408 1.395 . S
C1410 C1413 1.403 . S
C1411 C1408 1.403 . S
C1411 C1412 1.524 . S
C1411 C1415 1.400 . S
C1412 H1397 0.960 . S
C1412 H1398 0.960 . S
C1412 H1399 0.960 . S
C1412 C1411 1.524 . S
C1413 C1410 1.403 . S
C1413 C1414 1.392 . S
C1413 C1417 1.495 . S
C1414 C1413 1.392 . S
C1414 C1415 1.385 . S
C1414 C1416 1.478 . S
C1415 H1409 0.930 . S
C1415 C1411 1.400 . S
C1415 C1414 1.385 . S
C1416 C1414 1.478 . S
C1416 C1418 1.381 . S
C1416 C1422 1.383 . S
C1417 C1413 1.495 . S
C1417 H1423 0.959 . S
C1417 H1424 0.961 . S
C1417 H1425 0.960 . S
C1418 C1416 1.381 . S
C1418 C1419 1.394 . S
C1418 H1426 0.930 . S
C1419 C1418 1.394 . S
C1419 C1420 1.383 . S
C1419 H1427 0.929 . S
C1420 C1419 1.383 . S
C1420 C1421 1.377 . S
C1421 H1405 0.930 . S
C1421 C1420 1.377 . S
C1421 C1422 1.379 . S
C1422 H1406 0.931 . S
C1422 C1416 1.383 . S
C1422 C1421 1.379 . S
H1423 C1417 0.959 . S
H1424 C1417 0.961 . S
H1425 C1417 0.960 . S
H1426 C1418 0.930 . S
H1427 C1419 0.929 . S
H1428 C1436 0.929 . S
H1429 C1438 0.930 . S
H1430 C1440 0.930 . S
H1431 C1443 0.929 . S
H1432 C1446 0.930 . S
H1433 C1448 0.960 . S
H1434 C1448 0.960 . S
H1435 C1448 0.960 . S
C1436 H1428 0.929 . S
C1436 C1437 1.377 . S
C1436 C1438 1.384 . S
C1437 C1436 1.377 . S
C1437 C1443 1.390 . S
C1438 H1429 0.930 . S
C1438 C1436 1.384 . S
C1438 C1439 1.372 . S
C1439 C1438 1.372 . S
C1439 C1440 1.400 . S
C1439 C1444 1.490 . S
C1440 H1430 0.930 . S
C1440 C1439 1.400 . S
C1440 C1443 1.386 . S
H1441 C1457 0.930 . S
H1442 C1458 0.931 . S
C1443 H1431 0.929 . S
C1443 C1437 1.390 . S
C1443 C1440 1.386 . S
C1444 C1439 1.490 . S
C1444 C1446 1.395 . S
C1444 C1447 1.403 . S
H1445 C1451 0.930 . S
C1446 H1432 0.930 . S
C1446 C1444 1.395 . S
C1446 C1449 1.403 . S
C1447 C1444 1.403 . S
C1447 C1448 1.524 . S
C1447 C1451 1.400 . S
C1448 H1433 0.960 . S
C1448 H1434 0.960 . S
C1448 H1435 0.960 . S
C1448 C1447 1.524 . S
C1449 C1446 1.403 . S
C1449 C1450 1.392 . S
C1449 C1453 1.495 . S
C1450 C1449 1.392 . S
C1450 C1451 1.385 . S
C1450 C1452 1.478 . S
C1451 H1445 0.930 . S
C1451 C1447 1.400 . S
C1451 C1450 1.385 . S
C1452 C1450 1.478 . S
C1452 C1454 1.381 . S
C1452 C1458 1.383 . S
C1453 C1449 1.495 . S
C1453 H1459 0.959 . S
C1453 H1460 0.961 . S
C1453 H1461 0.960 . S
C1454 C1452 1.381 . S
C1454 C1455 1.394 . S
C1454 H1462 0.930 . S
C1455 C1454 1.394 . S
C1455 C1456 1.383 . S
C1455 H1463 0.929 . S
C1456 C1455 1.383 . S
C1456 C1457 1.377 . S
C1457 H1441 0.930 . S
C1457 C1456 1.377 . S
C1457 C1458 1.379 . S
C1458 H1442 0.931 . S
C1458 C1452 1.383 . S
C1458 C1457 1.379 . S
H1459 C1453 0.959 . S
H1460 C1453 0.961 . S
H1461 C1453 0.960 . S
H1462 C1454 0.930 . S
H1463 C1455 0.929 . S
H1464 C1472 0.929 . S
H1465 C1474 0.930 . S
H1466 C1476 0.930 . S
H1467 C1479 0.929 . S
H1468 C1482 0.930 . S
H1469 C1484 0.960 . S
H1470 C1484 0.960 . S
H1471 C1484 0.960 . S
C1472 H1464 0.929 . S
C1472 C1473 1.377 . S
C1472 C1474 1.384 . S
C1473 C1472 1.377 . S
C1473 C1479 1.390 . S
C1474 H1465 0.930 . S
C1474 C1472 1.384 . S
C1474 C1475 1.372 . S
C1475 C1474 1.372 . S
C1475 C1476 1.400 . S
C1475 C1480 1.490 . S
C1476 H1466 0.930 . S
C1476 C1475 1.400 . S
C1476 C1479 1.386 . S
H1477 C1493 0.930 . S
H1478 C1494 0.931 . S
C1479 H1467 0.929 . S
C1479 C1473 1.390 . S
C1479 C1476 1.386 . S
C1480 C1475 1.490 . S
C1480 C1482 1.395 . S
C1480 C1483 1.403 . S
H1481 C1487 0.930 . S
C1482 H1468 0.930 . S
C1482 C1480 1.395 . S
C1482 C1485 1.403 . S
C1483 C1480 1.403 . S
C1483 C1484 1.524 . S
C1483 C1487 1.400 . S
C1484 H1469 0.960 . S
C1484 H1470 0.960 . S
C1484 H1471 0.960 . S
C1484 C1483 1.524 . S
C1485 C1482 1.403 . S
C1485 C1486 1.392 . S
C1485 C1489 1.495 . S
C1486 C1485 1.392 . S
C1486 C1487 1.385 . S
C1486 C1488 1.478 . S
C1487 H1481 0.930 . S
C1487 C1483 1.400 . S
C1487 C1486 1.385 . S
C1488 C1486 1.478 . S
C1488 C1490 1.381 . S
C1488 C1494 1.383 . S
C1489 C1485 1.495 . S
C1489 H1495 0.959 . S
C1489 H1496 0.961 . S
C1489 H1497 0.960 . S
C1490 C1488 1.381 . S
C1490 C1491 1.394 . S
C1490 H1498 0.930 . S
C1491 C1490 1.394 . S
C1491 C1492 1.383 . S
C1491 H1499 0.929 . S
C1492 C1491 1.383 . S
C1492 C1493 1.377 . S
C1493 H1477 0.930 . S
C1493 C1492 1.377 . S
C1493 C1494 1.379 . S
C1494 H1478 0.931 . S
C1494 C1488 1.383 . S
C1494 C1493 1.379 . S
H1495 C1489 0.959 . S
H1496 C1489 0.961 . S
H1497 C1489 0.960 . S
H1498 C1490 0.930 . S
H1499 C1491 0.929 . S
H1500 C1508 0.929 . S
H1501 C1510 0.930 . S
H1502 C1512 0.930 . S
H1503 C1515 0.929 . S
H1504 C1518 0.930 . S
H1505 C1520 0.960 . S
H1506 C1520 0.960 . S
H1507 C1520 0.960 . S
C1508 H1500 0.929 . S
C1508 C1509 1.377 . S
C1508 C1510 1.384 . S
C1509 C1508 1.377 . S
C1509 C1515 1.390 . S
C1510 H1501 0.930 . S
C1510 C1508 1.384 . S
C1510 C1511 1.372 . S
C1511 C1510 1.372 . S
C1511 C1512 1.400 . S
C1511 C1516 1.490 . S
C1512 H1502 0.930 . S
C1512 C1511 1.400 . S
C1512 C1515 1.386 . S
H1513 C1529 0.930 . S
H1514 C1530 0.931 . S
C1515 H1503 0.929 . S
C1515 C1509 1.390 . S
C1515 C1512 1.386 . S
C1516 C1511 1.490 . S
C1516 C1518 1.395 . S
C1516 C1519 1.403 . S
H1517 C1523 0.930 . S
C1518 H1504 0.930 . S
C1518 C1516 1.395 . S
C1518 C1521 1.403 . S
C1519 C1516 1.403 . S
C1519 C1520 1.524 . S
C1519 C1523 1.400 . S
C1520 H1505 0.960 . S
C1520 H1506 0.960 . S
C1520 H1507 0.960 . S
C1520 C1519 1.524 . S
C1521 C1518 1.403 . S
C1521 C1522 1.392 . S
C1521 C1525 1.495 . S
C1522 C1521 1.392 . S
C1522 C1523 1.385 . S
C1522 C1524 1.478 . S
C1523 H1517 0.930 . S
C1523 C1519 1.400 . S
C1523 C1522 1.385 . S
C1524 C1522 1.478 . S
C1524 C1526 1.381 . S
C1524 C1530 1.383 . S
C1525 C1521 1.495 . S
C1525 H1531 0.959 . S
C1525 H1532 0.961 . S
C1525 H1533 0.960 . S
C1526 C1524 1.381 . S
C1526 C1527 1.394 . S
C1526 H1534 0.930 . S
C1527 C1526 1.394 . S
C1527 C1528 1.383 . S
C1527 H1535 0.929 . S
C1528 C1527 1.383 . S
C1528 C1529 1.377 . S
C1529 H1513 0.930 . S
C1529 C1528 1.377 . S
C1529 C1530 1.379 . S
C1530 H1514 0.931 . S
C1530 C1524 1.383 . S
C1530 C1529 1.379 . S
H1531 C1525 0.959 . S
H1532 C1525 0.961 . S
H1533 C1525 0.960 . S
H1534 C1526 0.930 . S
H1535 C1527 0.929 . S
H1536 C1544 0.929 . S
H1537 C1546 0.930 . S
H1538 C1548 0.930 . S
H1539 C1551 0.929 . S
H1540 C1554 0.930 . S
H1541 C1556 0.960 . S
H1542 C1556 0.960 . S
H1543 C1556 0.960 . S
C1544 H1536 0.929 . S
C1544 C1545 1.377 . S
C1544 C1546 1.384 . S
C1545 C1544 1.377 . S
C1545 C1551 1.390 . S
C1546 H1537 0.930 . S
C1546 C1544 1.384 . S
C1546 C1547 1.372 . S
C1547 C1546 1.372 . S
C1547 C1548 1.400 . S
C1547 C1552 1.490 . S
C1548 H1538 0.930 . S
C1548 C1547 1.400 . S
C1548 C1551 1.386 . S
H1549 C1565 0.930 . S
H1550 C1566 0.931 . S
C1551 H1539 0.929 . S
C1551 C1545 1.390 . S
C1551 C1548 1.386 . S
C1552 C1547 1.490 . S
C1552 C1554 1.395 . S
C1552 C1555 1.403 . S
H1553 C1559 0.930 . S
C1554 H1540 0.930 . S
C1554 C1552 1.395 . S
C1554 C1557 1.403 . S
C1555 C1552 1.403 . S
C1555 C1556 1.524 . S
C1555 C1559 1.400 . S
C1556 H1541 0.960 . S
C1556 H1542 0.960 . S
C1556 H1543 0.960 . S
C1556 C1555 1.524 . S
C1557 C1554 1.403 . S
C1557 C1558 1.392 . S
C1557 C1561 1.495 . S
C1558 C1557 1.392 . S
C1558 C1559 1.385 . S
C1558 C1560 1.478 . S
C1559 H1553 0.930 . S
C1559 C1555 1.400 . S
C1559 C1558 1.385 . S
C1560 C1558 1.478 . S
C1560 C1562 1.381 . S
C1560 C1566 1.383 . S
C1561 C1557 1.495 . S
C1561 H1567 0.959 . S
C1561 H1568 0.961 . S
C1561 H1569 0.960 . S
C1562 C1560 1.381 . S
C1562 C1563 1.394 . S
C1562 H1570 0.930 . S
C1563 C1562 1.394 . S
C1563 C1564 1.383 . S
C1563 H1571 0.929 . S
C1564 C1563 1.383 . S
C1564 C1565 1.377 . S
C1565 H1549 0.930 . S
C1565 C1564 1.377 . S
C1565 C1566 1.379 . S
C1566 H1550 0.931 . S
C1566 C1560 1.383 . S
C1566 C1565 1.379 . S
H1567 C1561 0.959 . S
H1568 C1561 0.961 . S
H1569 C1561 0.960 . S
H1570 C1562 0.930 . S
H1571 C1563 0.929 . S
H1572 C1580 0.929 . S
H1573 C1582 0.930 . S
H1574 C1584 0.930 . S
H1575 C1587 0.929 . S
H1576 C1590 0.930 . S
H1577 C1592 0.960 . S
H1578 C1592 0.960 . S
H1579 C1592 0.960 . S
C1580 H1572 0.929 . S
C1580 C1581 1.377 . S
C1580 C1582 1.384 . S
C1581 C1580 1.377 . S
C1581 C1587 1.390 . S
C1582 H1573 0.930 . S
C1582 C1580 1.384 . S
C1582 C1583 1.372 . S
C1583 C1582 1.372 . S
C1583 C1584 1.400 . S
C1583 C1588 1.490 . S
C1584 H1574 0.930 . S
C1584 C1583 1.400 . S
C1584 C1587 1.386 . S
H1585 C1601 0.930 . S
H1586 C1602 0.931 . S
C1587 H1575 0.929 . S
C1587 C1581 1.390 . S
C1587 C1584 1.386 . S
C1588 C1583 1.490 . S
C1588 C1590 1.395 . S
C1588 C1591 1.403 . S
H1589 C1595 0.930 . S
C1590 H1576 0.930 . S
C1590 C1588 1.395 . S
C1590 C1593 1.403 . S
C1591 C1588 1.403 . S
C1591 C1592 1.524 . S
C1591 C1595 1.400 . S
C1592 H1577 0.960 . S
C1592 H1578 0.960 . S
C1592 H1579 0.960 . S
C1592 C1591 1.524 . S
C1593 C1590 1.403 . S
C1593 C1594 1.392 . S
C1593 C1597 1.495 . S
C1594 C1593 1.392 . S
C1594 C1595 1.385 . S
C1594 C1596 1.478 . S
C1595 H1589 0.930 . S
C1595 C1591 1.400 . S
C1595 C1594 1.385 . S
C1596 C1594 1.478 . S
C1596 C1598 1.381 . S
C1596 C1602 1.383 . S
C1597 C1593 1.495 . S
C1597 H1603 0.959 . S
C1597 H1604 0.961 . S
C1597 H1605 0.960 . S
C1598 C1596 1.381 . S
C1598 C1599 1.394 . S
C1598 H1606 0.930 . S
C1599 C1598 1.394 . S
C1599 C1600 1.383 . S
C1599 H1607 0.929 . S
C1600 C1599 1.383 . S
C1600 C1601 1.377 . S
C1601 H1585 0.930 . S
C1601 C1600 1.377 . S
C1601 C1602 1.379 . S
C1602 H1586 0.931 . S
C1602 C1596 1.383 . S
C1602 C1601 1.379 . S
H1603 C1597 0.959 . S
H1604 C1597 0.961 . S
H1605 C1597 0.960 . S
H1606 C1598 0.930 . S
H1607 C1599 0.929 . S
H1608 C1616 0.929 . S
H1609 C1618 0.930 . S
H1610 C1620 0.930 . S
H1611 C1623 0.929 . S
H1612 C1626 0.930 . S
H1613 C1628 0.960 . S
H1614 C1628 0.960 . S
H1615 C1628 0.960 . S
C1616 H1608 0.929 . S
C1616 C1617 1.377 . S
C1616 C1618 1.384 . S
C1617 C1616 1.377 . S
C1617 C1623 1.390 . S
C1618 H1609 0.930 . S
C1618 C1616 1.384 . S
C1618 C1619 1.372 . S
C1619 C1618 1.372 . S
C1619 C1620 1.400 . S
C1619 C1624 1.490 . S
C1620 H1610 0.930 . S
C1620 C1619 1.400 . S
C1620 C1623 1.386 . S
H1621 C1637 0.930 . S
H1622 C1638 0.931 . S
C1623 H1611 0.929 . S
C1623 C1617 1.390 . S
C1623 C1620 1.386 . S
C1624 C1619 1.490 . S
C1624 C1626 1.395 . S
C1624 C1627 1.403 . S
H1625 C1631 0.930 . S
C1626 H1612 0.930 . S
C1626 C1624 1.395 . S
C1626 C1629 1.403 . S
C1627 C1624 1.403 . S
C1627 C1628 1.524 . S
C1627 C1631 1.400 . S
C1628 H1613 0.960 . S
C1628 H1614 0.960 . S
C1628 H1615 0.960 . S
C1628 C1627 1.524 . S
C1629 C1626 1.403 . S
C1629 C1630 1.392 . S
C1629 C1633 1.495 . S
C1630 C1629 1.392 . S
C1630 C1631 1.385 . S
C1630 C1632 1.478 . S
C1631 H1625 0.930 . S
C1631 C1627 1.400 . S
C1631 C1630 1.385 . S
C1632 C1630 1.478 . S
C1632 C1634 1.381 . S
C1632 C1638 1.383 . S
C1633 C1629 1.495 . S
C1633 H1639 0.959 . S
C1633 H1640 0.961 . S
C1633 H1641 0.960 . S
C1634 C1632 1.381 . S
C1634 C1635 1.394 . S
C1634 H1642 0.930 . S
C1635 C1634 1.394 . S
C1635 C1636 1.383 . S
C1635 H1643 0.929 . S
C1636 C1635 1.383 . S
C1636 C1637 1.377 . S
C1637 H1621 0.930 . S
C1637 C1636 1.377 . S
C1637 C1638 1.379 . S
C1638 H1622 0.931 . S
C1638 C1632 1.383 . S
C1638 C1637 1.379 . S
H1639 C1633 0.959 . S
H1640 C1633 0.961 . S
H1641 C1633 0.960 . S
H1642 C1634 0.930 . S
H1643 C1635 0.929 . S
H1644 C1652 0.929 . S
H1645 C1654 0.930 . S
H1646 C1656 0.930 . S
H1647 C1659 0.929 . S
H1648 C1662 0.930 . S
H1649 C1664 0.960 . S
H1650 C1664 0.960 . S
H1651 C1664 0.960 . S
C1652 H1644 0.929 . S
C1652 C1653 1.377 . S
C1652 C1654 1.384 . S
C1653 C1652 1.377 . S
C1653 C1659 1.390 . S
C1654 H1645 0.930 . S
C1654 C1652 1.384 . S
C1654 C1655 1.372 . S
C1655 C1654 1.372 . S
C1655 C1656 1.400 . S
C1655 C1660 1.490 . S
C1656 H1646 0.930 . S
C1656 C1655 1.400 . S
C1656 C1659 1.386 . S
H1657 C1673 0.930 . S
H1658 C1674 0.931 . S
C1659 H1647 0.929 . S
C1659 C1653 1.390 . S
C1659 C1656 1.386 . S
C1660 C1655 1.490 . S
C1660 C1662 1.395 . S
C1660 C1663 1.403 . S
H1661 C1667 0.930 . S
C1662 H1648 0.930 . S
C1662 C1660 1.395 . S
C1662 C1665 1.403 . S
C1663 C1660 1.403 . S
C1663 C1664 1.524 . S
C1663 C1667 1.400 . S
C1664 H1649 0.960 . S
C1664 H1650 0.960 . S
C1664 H1651 0.960 . S
C1664 C1663 1.524 . S
C1665 C1662 1.403 . S
C1665 C1666 1.392 . S
C1665 C1669 1.495 . S
C1666 C1665 1.392 . S
C1666 C1667 1.385 . S
C1666 C1668 1.478 . S
C1667 H1661 0.930 . S
C1667 C1663 1.400 . S
C1667 C1666 1.385 . S
C1668 C1666 1.478 . S
C1668 C1670 1.381 . S
C1668 C1674 1.383 . S
C1669 C1665 1.495 . S
C1669 H1675 0.959 . S
C1669 H1676 0.961 . S
C1669 H1677 0.960 . S
C1670 C1668 1.381 . S
C1670 C1671 1.394 . S
C1670 H1678 0.930 . S
C1671 C1670 1.394 . S
C1671 C1672 1.383 . S
C1671 H1679 0.929 . S
C1672 C1671 1.383 . S
C1672 C1673 1.377 . S
C1673 H1657 0.930 . S
C1673 C1672 1.377 . S
C1673 C1674 1.379 . S
C1674 H1658 0.931 . S
C1674 C1668 1.383 . S
C1674 C1673 1.379 . S
H1675 C1669 0.959 . S
H1676 C1669 0.961 . S
H1677 C1669 0.960 . S
H1678 C1670 0.930 . S
H1679 C1671 0.929 . S
H1680 C1688 0.929 . S
H1681 C1690 0.930 . S
H1682 C1692 0.930 . S
H1683 C1695 0.929 . S
H1684 C1698 0.930 . S
H1685 C1700 0.960 . S
H1686 C1700 0.960 . S
H1687 C1700 0.960 . S
C1688 H1680 0.929 . S
C1688 C1689 1.377 . S
C1688 C1690 1.384 . S
C1689 C1688 1.377 . S
C1689 C1695 1.390 . S
C1690 H1681 0.930 . S
C1690 C1688 1.384 . S
C1690 C1691 1.372 . S
C1691 C1690 1.372 . S
C1691 C1692 1.400 . S
C1691 C1696 1.490 . S
C1692 H1682 0.930 . S
C1692 C1691 1.400 . S
C1692 C1695 1.386 . S
H1693 C1709 0.930 . S
H1694 C1710 0.931 . S
C1695 H1683 0.929 . S
C1695 C1689 1.390 . S
C1695 C1692 1.386 . S
C1696 C1691 1.490 . S
C1696 C1698 1.395 . S
C1696 C1699 1.403 . S
H1697 C1703 0.915 1_565 S
C1698 H1684 0.930 . S
C1698 C1696 1.395 . S
C1698 C1701 1.403 1_556 S
C1699 C1696 1.403 . S
C1699 C1700 1.524 1_545 S
C1699 C1703 1.400 1_556 S
C1700 H1685 0.960 . S
C1700 H1686 0.960 . S
C1700 H1687 0.960 . S
C1700 C1699 1.524 1_565 S
C1701 C1698 1.403 1_554 S
C1701 C1702 1.392 . S
C1701 C1705 1.495 . S
C1702 C1701 1.392 . S
C1702 C1703 1.385 . S
C1702 C1704 1.478 . S
C1703 H1697 0.915 1_545 S
C1703 C1699 1.400 1_554 S
C1703 C1702 1.385 . S
C1704 C1702 1.478 . S
C1704 C1706 1.381 . S
C1704 C1710 1.383 . S
C1705 C1701 1.495 . S
C1705 H1711 0.959 . S
C1705 H1712 0.961 . S
C1705 H1713 0.960 . S
C1706 C1704 1.381 . S
C1706 C1707 1.394 . S
C1706 H1714 0.930 . S
C1707 C1706 1.394 . S
C1707 C1708 1.383 . S
C1707 H1715 0.929 . S
C1708 C1707 1.383 . S
C1708 C1709 1.377 . S
C1709 H1693 0.930 . S
C1709 C1708 1.377 . S
C1709 C1710 1.379 . S
C1710 H1694 0.931 . S
C1710 C1704 1.383 . S
C1710 C1709 1.379 . S
H1711 C1705 0.959 . S
H1712 C1705 0.961 . S
H1713 C1705 0.960 . S
H1714 C1706 0.930 . S
H1715 C1707 0.929 . S
H1716 C1724 0.929 . S
H1717 C1726 0.930 . S
H1718 C1728 0.930 . S
H1719 C1731 0.929 . S
H1720 C1734 0.930 . S
H1721 C1736 0.960 . S
H1722 C1736 0.960 . S
H1723 C1736 0.960 . S
C1724 H1716 0.929 . S
C1724 C1725 1.377 . S
C1724 C1726 1.384 . S
C1725 C1724 1.377 . S
C1725 C1731 1.390 . S
C1726 H1717 0.930 . S
C1726 C1724 1.384 . S
C1726 C1727 1.372 . S
C1727 C1726 1.372 . S
C1727 C1728 1.400 . S
C1727 C1732 1.490 . S
C1728 H1718 0.930 . S
C1728 C1727 1.400 . S
C1728 C1731 1.386 . S
H1729 C1745 0.930 . S
H1730 C1746 0.931 . S
C1731 H1719 0.929 . S
C1731 C1725 1.390 . S
C1731 C1728 1.386 . S
C1732 C1727 1.490 . S
C1732 C1734 1.395 . S
C1732 C1735 1.403 . S
H1733 C1739 0.930 . S
C1734 H1720 0.930 . S
C1734 C1732 1.395 . S
C1734 C1737 1.403 . S
C1735 C1732 1.403 . S
C1735 C1736 1.524 . S
C1735 C1739 1.400 . S
C1736 H1721 0.960 . S
C1736 H1722 0.960 . S
C1736 H1723 0.960 . S
C1736 C1735 1.524 . S
C1737 C1734 1.403 . S
C1737 C1738 1.392 . S
C1737 C1741 1.495 . S
C1738 C1737 1.392 . S
C1738 C1739 1.385 . S
C1738 C1740 1.478 . S
C1739 H1733 0.930 . S
C1739 C1735 1.400 . S
C1739 C1738 1.385 . S
C1740 C1738 1.478 . S
C1740 C1742 1.381 . S
C1740 C1746 1.383 . S
C1741 C1737 1.495 . S
C1741 H1747 0.959 . S
C1741 H1748 0.961 . S
C1741 H1749 0.960 . S
C1742 C1740 1.381 . S
C1742 C1743 1.394 . S
C1742 H1750 0.930 . S
C1743 C1742 1.394 . S
C1743 C1744 1.383 . S
C1743 H1751 0.929 . S
C1744 C1743 1.383 . S
C1744 C1745 1.377 . S
C1745 H1729 0.930 . S
C1745 C1744 1.377 . S
C1745 C1746 1.379 . S
C1746 H1730 0.931 . S
C1746 C1740 1.383 . S
C1746 C1745 1.379 . S
H1747 C1741 0.959 . S
H1748 C1741 0.961 . S
H1749 C1741 0.960 . S
H1750 C1742 0.930 . S
H1751 C1743 0.929 . S
H1752 C1760 0.929 . S
H1753 C1762 0.930 . S
H1754 C1764 0.930 . S
H1755 C1767 0.929 . S
H1756 C1770 0.930 . S
H1757 C1772 0.960 . S
H1758 C1772 0.960 . S
H1759 C1772 0.960 . S
C1760 H1752 0.929 . S
C1760 C1761 1.377 . S
C1760 C1762 1.384 . S
C1761 C1760 1.377 . S
C1761 C1767 1.390 . S
C1762 H1753 0.930 . S
C1762 C1760 1.384 . S
C1762 C1763 1.372 . S
C1763 C1762 1.372 . S
C1763 C1764 1.400 . S
C1763 C1768 1.490 . S
C1764 H1754 0.930 . S
C1764 C1763 1.400 . S
C1764 C1767 1.386 . S
H1765 C1781 0.930 . S
H1766 C1782 0.931 . S
C1767 H1755 0.929 . S
C1767 C1761 1.390 . S
C1767 C1764 1.386 . S
C1768 C1763 1.490 . S
C1768 C1770 1.395 . S
C1768 C1771 1.403 . S
H1769 C1775 0.930 . S
C1770 H1756 0.930 . S
C1770 C1768 1.395 . S
C1770 C1773 1.403 1_554 S
C1771 C1768 1.403 . S
C1771 C1772 1.524 . S
C1771 C1775 1.400 1_554 S
C1772 H1757 0.960 . S
C1772 H1758 0.960 . S
C1772 H1759 0.960 . S
C1772 C1771 1.524 . S
C1773 C1770 1.403 1_556 S
C1773 C1774 1.392 . S
C1773 C1777 1.495 . S
C1774 C1773 1.392 . S
C1774 C1775 1.385 . S
C1774 C1776 1.478 . S
C1775 H1769 0.930 . S
C1775 C1771 1.400 1_556 S
C1775 C1774 1.385 . S
C1776 C1774 1.478 . S
C1776 C1778 1.381 . S
C1776 C1782 1.383 . S
C1777 C1773 1.495 . S
C1777 H1783 0.959 . S
C1777 H1784 0.961 . S
C1777 H1785 0.960 . S
C1778 C1776 1.381 . S
C1778 C1779 1.394 . S
C1778 H1786 0.930 . S
C1779 C1778 1.394 . S
C1779 C1780 1.383 . S
C1779 H1787 0.929 . S
C1780 C1779 1.383 . S
C1780 C1781 1.377 . S
C1781 H1765 0.930 . S
C1781 C1780 1.377 . S
C1781 C1782 1.379 . S
C1782 H1766 0.931 . S
C1782 C1776 1.383 . S
C1782 C1781 1.379 . S
H1783 C1777 0.959 . S
H1784 C1777 0.961 . S
H1785 C1777 0.960 . S
H1786 C1778 0.930 . S
H1787 C1779 0.929 . S
H1788 C1796 0.929 . S
H1789 C1798 0.930 . S
H1790 C1800 0.965 . S
H1791 C1803 0.929 . S
H1792 C1806 0.930 . S
H1793 C1808 0.960 . S
H1794 C1808 0.960 . S
H1795 C1808 0.960 . S
C1796 H1788 0.929 . S
C1796 C1797 1.377 . S
C1796 C1798 1.384 . S
C1797 C1796 1.377 . S
C1797 C1803 1.390 1_455 S
C1798 H1789 0.930 . S
C1798 C1796 1.384 . S
C1798 C1799 1.372 . S
C1799 C1798 1.372 . S
C1799 C1800 1.364 1_455 S
C1799 C1804 1.490 . S
C1800 H1790 0.965 . S
C1800 C1799 1.364 1_655 S
C1800 C1803 1.387 . S
H1801 C1817 0.930 1_655 S
H1802 C1818 0.931 1_655 S
C1803 H1791 0.929 . S
C1803 C1797 1.390 1_655 S
C1803 C1800 1.387 . S
C1804 C1799 1.490 . S
C1804 C1806 1.395 . S
C1804 C1807 1.403 . S
H1805 C1811 0.930 1_655 S
C1806 H1792 0.930 . S
C1806 C1804 1.395 . S
C1806 C1809 1.403 . S
C1807 C1804 1.403 . S
C1807 C1808 1.524 1_455 S
C1807 C1811 1.400 . S
C1808 H1793 0.960 . S
C1808 H1794 0.960 . S
C1808 H1795 0.960 . S
C1808 C1807 1.524 1_655 S
C1809 C1806 1.403 . S
C1809 C1810 1.392 . S
C1809 C1813 1.495 . S
C1810 C1809 1.392 . S
C1810 C1811 1.385 . S
C1810 C1812 1.478 . S
C1811 H1805 0.930 1_455 S
C1811 C1807 1.400 . S
C1811 C1810 1.385 . S
C1812 C1810 1.478 . S
C1812 C1814 1.381 . S
C1812 C1818 1.383 . S
C1813 C1809 1.495 . S
C1813 H1819 0.959 . S
C1813 H1820 0.961 . S
C1813 H1821 0.960 . S
C1814 C1812 1.381 . S
C1814 C1815 1.394 . S
C1814 H1822 0.930 . S
C1815 C1814 1.394 . S
C1815 C1816 1.383 . S
C1815 H1823 0.929 . S
C1816 C1815 1.383 . S
C1816 C1817 1.377 . S
C1817 H1801 0.930 1_455 S
C1817 C1816 1.377 . S
C1817 C1818 1.379 . S
C1818 H1802 0.931 1_455 S
C1818 C1812 1.383 . S
C1818 C1817 1.379 . S
H1819 C1813 0.959 . S
H1820 C1813 0.961 . S
H1821 C1813 0.960 . S
H1822 C1814 0.930 . S
H1823 C1815 0.929 . S
H1824 C1832 0.929 . S
H1825 C1834 0.930 . S
H1826 C1836 0.930 . S
H1827 C1839 0.929 . S
H1828 C1842 0.930 . S
H1829 C1844 0.960 . S
H1830 C1844 0.960 . S
H1831 C1844 0.960 . S
C1832 H1824 0.929 . S
C1832 C1833 1.377 . S
C1832 C1834 1.384 . S
C1833 C1832 1.377 . S
C1833 C1839 1.390 . S
C1834 H1825 0.930 . S
C1834 C1832 1.384 . S
C1834 C1835 1.372 . S
C1835 C1834 1.372 . S
C1835 C1836 1.400 . S
C1835 C1840 1.490 . S
C1836 H1826 0.930 . S
C1836 C1835 1.400 . S
C1836 C1839 1.386 . S
H1837 C1853 0.930 . S
H1838 C1854 0.931 . S
C1839 H1827 0.929 . S
C1839 C1833 1.390 . S
C1839 C1836 1.386 . S
C1840 C1835 1.490 . S
C1840 C1842 1.395 . S
C1840 C1843 1.403 . S
H1841 C1847 0.930 . S
C1842 H1828 0.930 . S
C1842 C1840 1.395 . S
C1842 C1845 1.403 1_554 S
C1843 C1840 1.403 . S
C1843 C1844 1.524 1_565 S
C1843 C1847 1.400 1_554 S
C1844 H1829 0.960 . S
C1844 H1830 0.960 . S
C1844 H1831 0.960 . S
C1844 C1843 1.524 1_545 S
C1845 C1842 1.403 1_556 S
C1845 C1846 1.392 . S
C1845 C1849 1.495 . S
C1846 C1845 1.392 . S
C1846 C1847 1.385 . S
C1846 C1848 1.478 . S
C1847 H1841 0.930 . S
C1847 C1843 1.400 1_556 S
C1847 C1846 1.385 . S
C1848 C1846 1.478 . S
C1848 C1850 1.381 . S
C1848 C1854 1.383 . S
C1849 C1845 1.495 . S
C1849 H1855 0.959 . S
C1849 H1856 0.961 . S
C1849 H1857 0.960 . S
C1850 C1848 1.381 . S
C1850 C1851 1.394 . S
C1850 H1858 0.930 . S
C1851 C1850 1.394 . S
C1851 C1852 1.383 . S
C1851 H1859 0.929 . S
C1852 C1851 1.383 . S
C1852 C1853 1.377 . S
C1853 H1837 0.930 . S
C1853 C1852 1.377 . S
C1853 C1854 1.379 . S
C1854 H1838 0.931 . S
C1854 C1848 1.383 . S
C1854 C1853 1.379 . S
H1855 C1849 0.959 . S
H1856 C1849 0.961 . S
H1857 C1849 0.960 . S
H1858 C1850 0.930 . S
H1859 C1851 0.929 . S
H1860 C1868 0.929 . S
H1861 C1870 0.930 . S
H1862 C1872 0.930 . S
H1863 C1875 0.929 . S
H1864 C1878 0.930 . S
H1865 C1880 0.960 . S
H1866 C1880 0.960 . S
H1867 C1880 0.960 . S
C1868 H1860 0.929 . S
C1868 C1869 1.377 . S
C1868 C1870 1.384 . S
C1869 C1868 1.377 . S
C1869 C1875 1.390 . S
C1870 H1861 0.930 . S
C1870 C1868 1.384 . S
C1870 C1871 1.372 . S
C1871 C1870 1.372 . S
C1871 C1872 1.400 . S
C1871 C1876 1.490 . S
C1872 H1862 0.930 . S
C1872 C1871 1.400 . S
C1872 C1875 1.386 . S
H1873 C1889 0.930 . S
H1874 C1890 0.931 . S
C1875 H1863 0.929 . S
C1875 C1869 1.390 . S
C1875 C1872 1.386 . S
C1876 C1871 1.490 . S
C1876 C1878 1.395 . S
C1876 C1879 1.403 . S
H1877 C1883 0.930 . S
C1878 H1864 0.930 . S
C1878 C1876 1.395 . S
C1878 C1881 1.403 . S
C1879 C1876 1.403 . S
C1879 C1880 1.524 . S
C1879 C1883 1.400 . S
C1880 H1865 0.960 . S
C1880 H1866 0.960 . S
C1880 H1867 0.960 . S
C1880 C1879 1.524 . S
C1881 C1878 1.403 . S
C1881 C1882 1.392 . S
C1881 C1885 1.495 . S
C1882 C1881 1.392 . S
C1882 C1883 1.385 . S
C1882 C1884 1.478 . S
C1883 H1877 0.930 . S
C1883 C1879 1.400 . S
C1883 C1882 1.385 . S
C1884 C1882 1.478 . S
C1884 C1886 1.381 . S
C1884 C1890 1.383 . S
C1885 C1881 1.495 . S
C1885 H1891 0.959 . S
C1885 H1892 0.961 . S
C1885 H1893 0.960 . S
C1886 C1884 1.381 . S
C1886 C1887 1.394 . S
C1886 H1894 0.930 . S
C1887 C1886 1.394 . S
C1887 C1888 1.383 . S
C1887 H1895 0.929 . S
C1888 C1887 1.383 . S
C1888 C1889 1.377 . S
C1889 H1873 0.930 . S
C1889 C1888 1.377 . S
C1889 C1890 1.379 . S
C1890 H1874 0.931 . S
C1890 C1884 1.383 . S
C1890 C1889 1.379 . S
H1891 C1885 0.959 . S
H1892 C1885 0.961 . S
H1893 C1885 0.960 . S
H1894 C1886 0.930 . S
H1895 C1887 0.929 . S
H1896 C1904 0.929 . S
H1897 C1906 0.930 . S
H1898 C1908 0.930 . S
H1899 C1911 0.929 . S
H1900 C1914 0.930 . S
H1901 C1916 0.960 . S
H1902 C1916 0.960 . S
H1903 C1916 0.960 . S
C1904 H1896 0.929 . S
C1904 C1905 1.377 . S
C1904 C1906 1.384 . S
C1905 C1904 1.377 . S
C1905 C1911 1.390 . S
C1906 H1897 0.930 . S
C1906 C1904 1.384 . S
C1906 C1907 1.372 . S
C1907 C1906 1.372 . S
C1907 C1908 1.400 . S
C1907 C1912 1.490 . S
C1908 H1898 0.930 . S
C1908 C1907 1.400 . S
C1908 C1911 1.386 . S
H1909 C1925 0.930 . S
H1910 C1926 0.931 . S
C1911 H1899 0.929 . S
C1911 C1905 1.390 . S
C1911 C1908 1.386 . S
C1912 C1907 1.490 . S
C1912 C1914 1.395 . S
C1912 C1915 1.403 . S
H1913 C1919 0.930 . S
C1914 H1900 0.930 . S
C1914 C1912 1.395 . S
C1914 C1917 1.403 1_554 S
C1915 C1912 1.403 . S
C1915 C1916 1.524 . S
C1915 C1919 1.400 1_554 S
C1916 H1901 0.960 . S
C1916 H1902 0.960 . S
C1916 H1903 0.960 . S
C1916 C1915 1.524 . S
C1917 C1914 1.403 1_556 S
C1917 C1918 1.392 . S
C1917 C1921 1.495 . S
C1918 C1917 1.392 . S
C1918 C1919 1.385 . S
C1918 C1920 1.478 . S
C1919 H1913 0.930 . S
C1919 C1915 1.400 1_556 S
C1919 C1918 1.385 . S
C1920 C1918 1.478 . S
C1920 C1922 1.381 . S
C1920 C1926 1.383 . S
C1921 C1917 1.495 . S
C1921 H1927 0.959 . S
C1921 H1928 0.961 . S
C1921 H1929 0.960 . S
C1922 C1920 1.381 . S
C1922 C1923 1.394 . S
C1922 H1930 0.930 . S
C1923 C1922 1.394 . S
C1923 C1924 1.383 . S
C1923 H1931 0.929 . S
C1924 C1923 1.383 . S
C1924 C1925 1.377 . S
C1925 H1909 0.930 . S
C1925 C1924 1.377 . S
C1925 C1926 1.379 . S
C1926 H1910 0.931 . S
C1926 C1920 1.383 . S
C1926 C1925 1.379 . S
H1927 C1921 0.959 . S
H1928 C1921 0.961 . S
H1929 C1921 0.960 . S
H1930 C1922 0.930 . S
H1931 C1923 0.929 . S
H1932 C1940 0.929 1_455 S
H1933 C1942 0.930 1_455 S
H1934 C1944 0.930 . S
H1935 C1947 0.929 . S
H1936 C1950 0.930 . S
H1937 C1952 0.960 . S
H1938 C1952 0.960 . S
H1939 C1952 0.960 . S
C1940 H1932 0.929 1_655 S
C1940 C1941 1.377 . S
C1940 C1942 1.384 . S
C1941 C1940 1.377 . S
C1941 C1947 1.390 . S
C1942 H1933 0.930 1_655 S
C1942 C1940 1.384 . S
C1942 C1943 1.372 . S
C1943 C1942 1.372 . S
C1943 C1944 1.400 . S
C1943 C1948 1.490 . S
C1944 H1934 0.930 . S
C1944 C1943 1.400 . S
C1944 C1947 1.386 . S
H1945 C1961 0.930 . S
H1946 C1962 0.931 . S
C1947 H1935 0.929 . S
C1947 C1941 1.390 . S
C1947 C1944 1.386 . S
C1948 C1943 1.490 . S
C1948 C1950 1.395 . S
C1948 C1951 1.403 . S
H1949 C1955 0.930 . S
C1950 H1936 0.930 . S
C1950 C1948 1.395 . S
C1950 C1953 1.403 . S
C1951 C1948 1.403 . S
C1951 C1952 1.524 . S
C1951 C1955 1.400 . S
C1952 H1937 0.960 . S
C1952 H1938 0.960 . S
C1952 H1939 0.960 . S
C1952 C1951 1.524 . S
C1953 C1950 1.403 . S
C1953 C1954 1.392 . S
C1953 C1957 1.495 . S
C1954 C1953 1.392 . S
C1954 C1955 1.385 . S
C1954 C1956 1.478 . S
C1955 H1949 0.930 . S
C1955 C1951 1.400 . S
C1955 C1954 1.385 . S
C1956 C1954 1.478 . S
C1956 C1958 1.381 . S
C1956 C1962 1.383 . S
C1957 C1953 1.495 . S
C1957 H1963 0.959 . S
C1957 H1964 0.961 . S
C1957 H1965 0.960 . S
C1958 C1956 1.381 . S
C1958 C1959 1.394 . S
C1958 H1966 0.930 1_655 S
C1959 C1958 1.394 . S
C1959 C1960 1.383 . S
C1959 H1967 0.929 1_655 S
C1960 C1959 1.383 . S
C1960 C1961 1.377 . S
C1961 H1945 0.930 . S
C1961 C1960 1.377 . S
C1961 C1962 1.379 . S
C1962 H1946 0.931 . S
C1962 C1956 1.383 . S
C1962 C1961 1.379 . S
H1963 C1957 0.959 . S
H1964 C1957 0.961 . S
H1965 C1957 0.960 . S
H1966 C1958 0.930 1_455 S
H1967 C1959 0.929 1_455 S
C537 N14 1.666 . S
C556 N245 1.662 . S
C573 N146 1.665 . S
C592 N47 1.665 . S
C609 N179 1.665 . S
C628 N80 1.661 . S
C645 N113 1.666 . S
C664 N212 1.660 . S
C681 N269 2.319 . S
C700 N500 2.307 . S
C717 N302 2.319 . S
C736 N401 2.306 . S
C753 N434 2.322 . S
C772 N335 2.327 . S
C789 N368 2.324 . S
C808 N467 2.329 . S
C825 C8 0.402 . S
C844 C314 0.640 . S
C861 C347 0.539 . S
C880 C41 0.464 . S
C897 C380 0.569 . S
C916 C74 0.362 . S
C933 C281 0.530 . S
C952 C107 0.448 . S
C969 C512 0.544 . S
C988 C140 0.374 . S
C1005 C413 0.570 . S
C1024 C173 0.367 . S
C1041 C446 0.550 . S
C1060 C206 0.457 . S
C1077 C479 0.531 . S
C1096 C239 0.453 . S
C1113 C61 0.741 . S
C1132 C292 0.692 . S
C1149 C94 0.722 . S
C1168 C325 0.747 . S
C1185 C127 0.743 . S
C1204 C358 0.693 . S
C1221 C391 0.727 . S
C1240 C28 0.796 . S
C1257 C259 0.746 . S
C1276 C424 0.739 . S
C1293 C160 0.745 . S
C1312 C457 0.695 . S
C1329 C193 0.747 . S
C1348 C490 0.702 . S
C1365 C226 0.746 . S
C1384 C523 0.741 . S
C1401 N71 0.876 . S
C1420 N5 0.829 . S
C1437 N38 0.899 . S
C1456 N104 0.948 . S
C1473 N203 0.879 . S
C1492 N137 0.841 . S
C1509 N236 0.892 . S
C1528 N170 0.907 . S
C1545 N344 0.887 . S
C1564 N278 0.951 . S
C1581 N377 0.888 . S
C1600 N311 0.964 . S
C1617 N410 0.887 . S
C1636 N476 0.964 . S
C1653 N509 0.906 . S
C1672 N443 0.855 . S
C1689 C215 1.277 . S
C1708 C17 1.249 . S
C1725 C248 1.272 . S
C1744 C50 1.269 . S
C1761 C83 1.268 . S
C1780 C149 1.293 . S
C1797 C182 1.273 . S
C1816 C116 1.263 . S
C1833 C470 1.390 . S
C1852 C272 1.378 . S
C1869 C503 1.389 . S
C1888 C305 1.393 . S
C1905 C404 1.391 . S
C1924 C338 1.399 . S
C1941 C371 1.392 . S
C1960 C437 1.392 . S
