# Generated by pormake.
# Topology wlj, (5)-cn, num edge types: 1
# Building blocks:
#     Node 0, Type 0, BuildingBlock: XOMCOT_clean_sbu_1, # of connection points: 5
#     Node 1, Type 0, BuildingBlock: XOMCOT_clean_sbu_1, # of connection points: 5
#     Node 2, Type 0, BuildingBlock: XOMCOT_clean_sbu_1, # of connection points: 5
#     Node 3, Type 0, BuildingBlock: XOMCOT_clean_sbu_1, # of connection points: 5
#     Node 4, Type 0, BuildingBlock: XOMCOT_clean_sbu_1, # of connection points: 5
#     Node 5, Type 0, BuildingBlock: XOMCOT_clean_sbu_1, # of connection points: 5
#     Edge 6, Type (0, 0), BuildingBlock: XIVTED_clean_linker_0, # of connection points: 2
#     Edge 7, Type (0, 0), BuildingBlock: XIVTED_clean_linker_0, # of connection points: 2
#     Edge 8, Type (0, 0), BuildingBlock: XIVTED_clean_linker_0, # of connection points: 2
#     Edge 9, Type (0, 0), BuildingBlock: XIVTED_clean_linker_0, # of connection points: 2
#     Edge 10, Type (0, 0), BuildingBlock: XIVTED_clean_linker_0, # of connection points: 2
#     Edge 11, Type (0, 0), BuildingBlock: XIVTED_clean_linker_0, # of connection points: 2
#     Edge 12, Type (0, 0), BuildingBlock: XIVTED_clean_linker_0, # of connection points: 2
#     Edge 13, Type (0, 0), BuildingBlock: XIVTED_clean_linker_0, # of connection points: 2
#     Edge 14, Type (0, 0), BuildingBlock: XIVTED_clean_linker_0, # of connection points: 2
#     Edge 15, Type (0, 0), BuildingBlock: XIVTED_clean_linker_0, # of connection points: 2
#     Edge 16, Type (0, 0), BuildingBlock: XIVTED_clean_linker_0, # of connection points: 2
#     Edge 17, Type (0, 0), BuildingBlock: XIVTED_clean_linker_0, # of connection points: 2
#     Edge 18, Type (0, 0), BuildingBlock: XIVTED_clean_linker_0, # of connection points: 2
#     Edge 19, Type (0, 0), BuildingBlock: XIVTED_clean_linker_0, # of connection points: 2
#     Edge 20, Type (0, 0), BuildingBlock: XIVTED_clean_linker_0, # of connection points: 2
# Relax obj value: 0.129
# Max RMSD: 0.180
# Mean RMSD: 0.180
data_MOF--net-wlj--node1-XOMCOT_clean_sbu_1--edge1-XIVTED_clean_linker_0
_symmetry_space_group_name_H-M    P1
_symmetry_Int_Tables_number       1
_symmetry_cell_setting            triclinic
loop_
_symmetry_equiv_pos_as_xyz
'x, y, z'
_cell_length_a     25.553125
_cell_length_b     25.416299
_cell_length_c     53.397296
_cell_angle_alpha  90.129141
_cell_angle_beta   89.777375
_cell_angle_gamma 119.57156
loop_
_atom_site_label
_atom_site_type_symbol
_atom_site_fract_x
_atom_site_fract_y
_atom_site_fract_z
_atom_type_partial_charge
C0 C 0.67939 0.2733 0.31351 0.0
C1 C 0.68046 0.22801 0.32725 0.0
N2 N 0.62426 0.18016 0.32809 0.0
N3 N 0.62281 0.25417 0.30553 0.0
C4 C 0.59035 0.19741 0.31471 0.0
H5 H 0.71724 0.31782 0.31007 0.0
Co6 Co 0.59323 0.29825 0.28827 0.0
C7 C 0.53025 0.22158 0.2446 0.0
O8 O 0.55424 0.27112 0.23099 0.0
N9 N 0.56081 0.34168 0.27151 0.0
C10 C 0.48753 0.36019 0.26008 0.0
C11 C 0.50048 0.3184 0.27008 0.0
C12 C 0.58355 0.39828 0.26186 0.0
N13 N 0.53971 0.41028 0.2549 0.0
O14 O 0.53259 0.27836 0.31369 0.0
H15 H 0.46749 0.27377 0.27649 0.0
H16 H 0.63076 0.43131 0.26074 0.0
O17 O 0.54112 0.22515 0.26815 0.0
C18 C 0.55609 0.31322 0.33253 0.0
O19 O 0.61504 0.34575 0.33354 0.0
N20 N 0.65798 0.32499 0.26553 0.0
C21 C 0.76924 0.38122 0.24085 0.0
C22 C 0.7274 0.32015 0.23621 0.0
C23 C 0.67232 0.2923 0.24926 0.0
C24 C 0.69904 0.38353 0.27069 0.0
C25 C 0.75399 0.41282 0.25825 0.0
H26 H 0.64279 0.24426 0.24702 0.0
H27 H 0.6896 0.40725 0.28529 0.0
H28 H 0.54215 0.17027 0.3124 0.0
H29 H 0.71968 0.23056 0.33608 0.0
H30 H 0.44317 0.35448 0.25695 0.0
H31 H 0.73828 0.29354 0.22357 0.0
H32 H 0.7849 0.45976 0.26269 0.0
C33 C 0.7515 0.41321 0.98404 0.0
C34 C 0.79462 0.46093 0.99775 0.0
N35 N 0.84611 0.45842 0.99697 0.0
N36 N 0.77556 0.38062 0.97459 0.0
C37 C 0.8331 0.40916 0.98283 0.0
H38 H 0.7054 0.4026 0.98129 0.0
Co39 Co 0.73665 0.30901 0.95569 0.0
C40 C 0.81875 0.33133 0.9131 0.0
O41 O 0.77057 0.30776 0.89887 0.0
N42 N 0.69885 0.2346 0.93748 0.0
C43 C 0.69311 0.14829 0.9246 0.0
C44 C 0.73011 0.20506 0.93357 0.0
C45 C 0.64147 0.19292 0.93112 0.0
N46 N 0.63731 0.14035 0.92314 0.0
O47 O 0.75442 0.26612 0.98087 0.0
H48 H 0.77676 0.22226 0.93847 0.0
H49 H 0.60262 0.19838 0.93404 0.0
O50 O 0.81292 0.33427 0.9369 0.0
C51 C 0.71596 0.25098 0.99862 0.0
O52 O 0.68237 0.27682 0.99963 0.0
N53 N 0.71244 0.34911 0.93252 0.0
C54 C 0.66508 0.40466 0.90216 0.0
C55 C 0.72744 0.43071 0.90516 0.0
C56 C 0.75033 0.40246 0.92071 0.0
C57 C 0.65187 0.3267 0.93146 0.0
C58 C 0.62716 0.35253 0.91582 0.0
H59 H 0.79838 0.424 0.92355 0.0
H60 H 0.62248 0.28982 0.94351 0.0
H61 H 0.86439 0.39302 0.97903 0.0
H62 H 0.78845 0.49498 1.0074 0.0
H63 H 0.70574 0.11431 0.92045 0.0
H64 H 0.75807 0.47212 0.89549 0.0
H65 H 0.57871 0.33279 0.9149 0.0
C66 C 0.66442 0.41513 0.66411 0.0
C67 C 0.6199 0.41865 0.67715 0.0
N68 N 0.58824 0.43256 0.661 0.0
N69 N 0.66161 0.42711 0.63973 0.0
C70 C 0.61462 0.43773 0.63837 0.0
H71 H 0.69563 0.40263 0.67195 0.0
Co72 Co 0.70912 0.41892 0.61482 0.0
C73 C 0.71753 0.50444 0.57295 0.0
O74 O 0.74815 0.48854 0.55797 0.0
N75 N 0.75775 0.40802 0.59057 0.0
C76 C 0.79233 0.36045 0.56626 0.0
C77 C 0.74444 0.35441 0.58001 0.0
C78 C 0.81572 0.44552 0.58355 0.0
N79 N 0.83738 0.41772 0.56845 0.0
O80 O 0.78127 0.47987 0.63128 0.0
H81 H 0.70378 0.31201 0.58308 0.0
H82 H 0.84183 0.49201 0.5897 0.0
O83 O 0.70202 0.4806 0.59475 0.0
C84 C 0.80319 0.45374 0.6446 0.0
O85 O 0.7754 0.39427 0.64457 0.0
N86 N 0.63926 0.35547 0.6004 0.0
C87 C 0.56353 0.24331 0.57872 0.0
C88 C 0.58256 0.29688 0.56504 0.0
C89 C 0.62025 0.35283 0.5763 0.0
C90 C 0.61615 0.30441 0.61467 0.0
C91 C 0.57804 0.24784 0.60423 0.0
H92 H 0.63832 0.39261 0.56477 0.0
H93 H 0.6323 0.30686 0.63356 0.0
H94 H 0.59854 0.44653 0.62103 0.0
H95 H 0.6114 0.41126 0.69706 0.0
H96 H 0.79489 0.32434 0.55656 0.0
H97 H 0.57153 0.2954 0.5454 0.0
H98 H 0.56477 0.20782 0.61551 0.0
C99 C 0.27913 0.68188 0.7567 0.0
C100 C 0.23413 0.68355 0.74306 0.0
N101 N 0.18579 0.62746 0.74271 0.0
N102 N 0.25921 0.625 0.76495 0.0
C103 C 0.20249 0.59306 0.75608 0.0
H104 H 0.32376 0.71943 0.76005 0.0
Co105 Co 0.3003 0.5927 0.78248 0.0
C106 C 0.21991 0.52876 0.82502 0.0
O107 O 0.26834 0.55172 0.83909 0.0
N108 N 0.33994 0.5561 0.79936 0.0
C109 C 0.34789 0.4757 0.81036 0.0
C110 C 0.31046 0.49502 0.8013 0.0
C111 C 0.39664 0.57266 0.80726 0.0
N112 N 0.40219 0.52428 0.81402 0.0
O113 O 0.28238 0.5341 0.75626 0.0
H114 H 0.26459 0.46551 0.79543 0.0
H115 H 0.43421 0.61816 0.80671 0.0
O116 O 0.22522 0.54001 0.80143 0.0
C117 C 0.31922 0.55871 0.7381 0.0
O118 O 0.35266 0.61795 0.73794 0.0
N119 N 0.32431 0.65519 0.80647 0.0
C120 C 0.37178 0.75733 0.83729 0.0
C121 C 0.30936 0.71955 0.83538 0.0
C122 C 0.28639 0.66883 0.8196 0.0
C123 C 0.38462 0.69447 0.80662 0.0
C124 C 0.40949 0.74467 0.82243 0.0
H125 H 0.23821 0.64148 0.81753 0.0
H126 H 0.41355 0.68801 0.79371 0.0
H127 H 0.17474 0.54475 0.75869 0.0
H128 H 0.23698 0.72302 0.73409 0.0
H129 H 0.33649 0.42913 0.81342 0.0
H130 H 0.27875 0.72905 0.84598 0.0
H131 H 0.45778 0.77444 0.82247 0.0
C132 C 0.41355 0.65828 0.40844 0.0
C133 C 0.41654 0.61342 0.39531 0.0
N134 N 0.43066 0.58151 0.41132 0.0
N135 N 0.42608 0.6555 0.43274 0.0
C136 C 0.4365 0.60813 0.43395 0.0
H137 H 0.40099 0.68968 0.40072 0.0
Co138 Co 0.4187 0.70353 0.45775 0.0
C139 C 0.50537 0.71291 0.499 0.0
O140 O 0.48957 0.74348 0.51409 0.0
N141 N 0.40863 0.7527 0.48209 0.0
C142 C 0.36212 0.78779 0.50673 0.0
C143 C 0.35557 0.73956 0.4929 0.0
C144 C 0.44626 0.81095 0.48899 0.0
N145 N 0.41915 0.83289 0.50432 0.0
O146 O 0.47813 0.77583 0.44074 0.0
H147 H 0.31327 0.69875 0.48999 0.0
H148 H 0.49241 0.837 0.48264 0.0
O149 O 0.48113 0.69704 0.47732 0.0
C150 C 0.4506 0.79678 0.42777 0.0
O151 O 0.39146 0.76814 0.42865 0.0
N152 N 0.35646 0.63347 0.47269 0.0
C153 C 0.24551 0.55743 0.49495 0.0
C154 C 0.29907 0.5773 0.50845 0.0
C155 C 0.35444 0.61512 0.49689 0.0
C156 C 0.3054 0.60957 0.45864 0.0
C157 C 0.24944 0.57125 0.46937 0.0
H158 H 0.39425 0.63392 0.50825 0.0
H159 H 0.30733 0.6253 0.43968 0.0
H160 H 0.44568 0.59197 0.45121 0.0
H161 H 0.40866 0.60487 0.37543 0.0
H162 H 0.32654 0.7905 0.51669 0.0
H163 H 0.29799 0.56689 0.52817 0.0
H164 H 0.20939 0.55736 0.45823 0.0
C165 C 0.39494 0.74731 0.07859 0.0
C166 C 0.4394 0.79128 0.06398 0.0
N167 N 0.44748 0.84569 0.07118 0.0
N168 N 0.37443 0.77332 0.095 0.0
C169 C 0.40711 0.8333 0.08995 0.0
H170 H 0.38032 0.69949 0.07801 0.0
Co171 Co 0.32042 0.73182 0.12128 0.0
C172 C 0.31367 0.82882 0.14974 0.0
O173 O 0.25479 0.79584 0.15107 0.0
N174 N 0.26714 0.69004 0.14803 0.0
C175 C 0.23412 0.66326 0.18705 0.0
C176 C 0.28336 0.69752 0.17239 0.0
C177 C 0.20708 0.6504 0.1485 0.0
N178 N 0.18575 0.63393 0.17214 0.0
O179 O 0.25555 0.73319 0.10308 0.0
H180 H 0.32795 0.72763 0.17937 0.0
H181 H 0.1791 0.63558 0.13198 0.0
O182 O 0.34386 0.80876 0.138 0.0
C183 C 0.23579 0.68998 0.08714 0.0
O184 O 0.26196 0.65667 0.08599 0.0
N185 N 0.38125 0.72405 0.13725 0.0
C186 C 0.45642 0.68961 0.16102 0.0
C187 C 0.46531 0.74838 0.16411 0.0
C188 C 0.42776 0.76533 0.15154 0.0
C189 C 0.37348 0.66769 0.13345 0.0
C190 C 0.41075 0.64964 0.14501 0.0
H191 H 0.43465 0.81048 0.15412 0.0
H192 H 0.33675 0.63596 0.12185 0.0
H193 H 0.40225 0.86738 0.10017 0.0
H194 H 0.46549 0.78363 0.04991 0.0
H195 H 0.23411 0.66085 0.20727 0.0
H196 H 0.50034 0.78045 0.17633 0.0
H197 H 0.4021 0.60376 0.14232 0.0
H198 H 0.44491 0.11131 0.2639 0.0
H199 H 0.42733 0.92346 0.14155 0.0
H200 H 0.54079 0.19656 0.19589 0.0
H201 H 0.27317 0.86597 0.19004 0.0
H202 H 0.47964 0.01818 0.16525 0.0
H203 H 0.39086 0.01457 0.24104 0.0
C204 C 0.45467 0.10966 0.24424 0.0
C205 C 0.4971 0.16216 0.23174 0.0
C206 C 0.43431 0.98481 0.17065 0.0
C207 C 0.43662 0.05198 0.20576 0.0
C208 C 0.40444 0.93074 0.15715 0.0
C209 C 0.34551 0.88692 0.16364 0.0
C210 C 0.40577 0.99467 0.19122 0.0
C211 C 0.31829 0.8988 0.18419 0.0
C212 C 0.42374 0.05465 0.23122 0.0
C213 C 0.50806 0.15744 0.20625 0.0
N214 N 0.34877 0.95132 0.19738 0.0
N215 N 0.47846 0.1034 0.19419 0.0
H216 H 0.10742 0.47694 0.80339 0.0
H217 H 0.93124 0.38673 0.935 0.0
H218 H 0.19574 0.50436 0.87485 0.0
H219 H 0.84314 0.33532 0.86314 0.0
H220 H 0.02892 0.43189 0.91344 0.0
H221 H 1.00992 0.42631 0.825 0.0
C222 C 0.10637 0.47204 0.82356 0.0
C223 C 0.15998 0.49501 0.83727 0.0
C224 C 0.98811 0.41046 0.90243 0.0
C225 C 0.04855 0.4376 0.8622 0.0
C226 C 0.93235 0.38466 0.91475 0.0
C227 C 0.87878 0.35714 0.90092 0.0
C228 C 0.99031 0.40908 0.87608 0.0
C229 C 0.8831 0.35601 0.87466 0.0
C230 C 0.0507 0.44319 0.83592 0.0
C231 C 0.15573 0.48747 0.86344 0.0
N232 N 0.93768 0.38173 0.86315 0.0
N233 N 0.10118 0.45975 0.87501 0.0
H234 H 0.5535 0.6516 0.47376 0.0
H235 H 0.65752 0.55387 0.5981 0.0
H236 H 0.54204 0.71578 0.54738 0.0
H237 H 0.71792 0.53852 0.52424 0.0
H238 H 0.60993 0.60838 0.57994 0.0
H239 H 0.60898 0.60488 0.4918 0.0
C240 C 0.56291 0.65625 0.49365 0.0
C241 C 0.54294 0.68781 0.50901 0.0
C242 C 0.63397 0.5934 0.56774 0.0
C243 C 0.60582 0.63365 0.52987 0.0
C244 C 0.66115 0.56222 0.57812 0.0
C245 C 0.69193 0.54147 0.56274 0.0
C246 C 0.63675 0.60327 0.54173 0.0
C247 C 0.69493 0.5537 0.53691 0.0
C248 C 0.59463 0.62957 0.50395 0.0
C249 C 0.55653 0.69213 0.53472 0.0
N250 N 0.66735 0.58325 0.52724 0.0
N251 N 0.58656 0.66503 0.54432 0.0
H252 H 0.51767 0.6337 0.14399 0.0
H253 H 0.48529 0.47087 0.27177 0.0
H254 H 0.46881 0.69147 0.21179 0.0
H255 H 0.60516 0.47264 0.21455 0.0
H256 H 0.48149 0.55428 0.25057 0.0
H257 H 0.55403 0.57781 0.16919 0.0
C258 C 0.51592 0.63565 0.16423 0.0
C259 C 0.49013 0.66702 0.17588 0.0
C260 C 0.50961 0.53738 0.24284 0.0
C261 C 0.53011 0.60214 0.20475 0.0
C262 C 0.51162 0.48982 0.25491 0.0
C263 C 0.54548 0.4652 0.24477 0.0
C264 C 0.54038 0.55937 0.22006 0.0
C265 C 0.57884 0.49089 0.2229 0.0
C266 C 0.53665 0.60383 0.17859 0.0
C267 C 0.48867 0.66807 0.20212 0.0
N268 N 0.57453 0.53591 0.21094 0.0
N269 N 0.50722 0.63504 0.21568 0.0
H270 H 0.34829 0.85186 0.83961 0.0
H271 H 0.6099 0.03012 0.93988 0.0
H272 H 0.45678 0.78414 0.87292 0.0
H273 H 0.54649 0.12203 0.89156 0.0
H274 H 0.53415 0.93331 0.92263 0.0
H275 H 0.40253 0.94492 0.86478 0.0
C276 C 0.38281 0.85625 0.85253 0.0
C277 C 0.3985 0.81063 0.85415 0.0
C278 C 0.5361 0.97443 0.91593 0.0
C279 C 0.46 0.916 0.88292 0.0
C280 C 0.57917 0.02961 0.92584 0.0
C281 C 0.58483 0.08394 0.91682 0.0
C282 C 0.49836 0.97328 0.89666 0.0
C283 C 0.54342 0.08095 0.89892 0.0
C284 C 0.41383 0.9093 0.86674 0.0
C285 C 0.44373 0.8185 0.87098 0.0
N286 N 0.50231 0.02642 0.88908 0.0
N287 N 0.47286 0.8701 0.88464 0.0
H288 H 0.94349 0.50558 0.58784 0.0
H289 H 0.1377 0.46318 0.47922 0.0
H290 H 0.8677 0.38225 0.52568 0.0
H291 H 0.21773 0.59143 0.53957 0.0
H292 H 0.03851 0.42988 0.4975 0.0
H293 H 0.04462 0.53724 0.5713 0.0
C294 C 0.94807 0.48563 0.57062 0.0
C295 C 0.89706 0.44094 0.5582 0.0
C296 C 0.07775 0.465 0.50689 0.0
C297 C 1.01231 0.4761 0.53941 0.0
C298 C 0.13443 0.4839 0.49647 0.0
C299 C 0.18615 0.53015 0.50784 0.0
C300 C 0.07244 0.49274 0.52884 0.0
C301 C 0.17918 0.55508 0.53031 0.0
C302 C 1.00576 0.50327 0.56131 0.0
C303 C 0.9057 0.4161 0.5361 0.0
N304 N 0.12337 0.53639 0.53997 0.0
N305 N 0.96201 0.43388 0.52748 0.0
H306 H 0.58933 0.34907 0.86347 0.0
H307 H 0.48658 0.59565 0.84813 0.0
H308 H 0.67948 0.51933 0.90262 0.0
H309 H 0.43622 0.4454 0.79798 0.0
H310 H 0.56259 0.57478 0.86695 0.0
H311 H 0.53652 0.38774 0.83814 0.0
C312 C 0.59832 0.39496 0.86651 0.0
C313 C 0.63852 0.43105 0.88513 0.0
C314 C 0.5356 0.54713 0.85151 0.0
C315 C 0.57747 0.4757 0.8565 0.0
C316 C 0.49263 0.55931 0.84073 0.0
C317 C 0.4547 0.52158 0.82179 0.0
C318 C 0.54013 0.49687 0.84323 0.0
C319 C 0.46386 0.47479 0.81289 0.0
C320 C 0.56831 0.41719 0.85204 0.0
C321 C 0.64883 0.49028 0.88833 0.0
N322 N 0.50496 0.46335 0.82385 0.0
N323 N 0.61777 0.51058 0.87439 0.0
H324 H 0.47097 0.13474 0.59524 0.0
H325 H 0.50715 0.93952 0.485 0.0
H326 H 0.59545 0.21502 0.53371 0.0
H327 H 0.38496 0.86322 0.54745 0.0
H328 H 0.54032 0.04106 0.50197 0.0
H329 H 0.43669 0.03498 0.57685 0.0
C330 C 0.49071 0.13142 0.57773 0.0
C331 C 0.53612 0.18341 0.56603 0.0
C332 C 0.50626 1.002 0.51193 0.0
C333 C 0.4975 0.06902 0.54489 0.0
C334 C 0.48774 0.94406 0.50237 0.0
C335 C 0.44294 0.89278 0.51474 0.0
C336 C 0.4799 1.00856 0.53406 0.0
C337 C 0.41885 0.90142 0.53706 0.0
C338 C 0.47121 0.0744 0.56724 0.0
C339 C 0.55975 0.17631 0.54324 0.0
N340 N 0.43751 0.95798 0.54593 0.0
N341 N 0.54048 0.1202 0.53351 0.0
H342 H 0.13909 0.64106 0.21676 0.0
H343 H 0.8021 0.37898 0.19151 0.0
H344 H 0.09095 0.54284 0.14689 0.0
H345 H 0.87592 0.45302 0.26402 0.0
H346 H 0.90354 0.43908 0.17312 0.0
H347 H 0.03855 0.57574 0.23237 0.0
C348 C 0.10757 0.60527 0.20469 0.0
C349 C 0.12432 0.59685 0.1806 0.0
C350 C 0.89727 0.44177 0.19306 0.0
C351 C 1.00713 0.52147 0.19847 0.0
C352 C 0.83959 0.40735 0.20356 0.0
C353 C 0.8303 0.41182 0.22928 0.0
C354 C 0.94561 0.48074 0.20844 0.0
C355 C 0.88045 0.44924 0.24402 0.0
C356 C 0.04968 0.56791 0.21365 0.0
C357 C 0.08013 0.55086 0.16561 0.0
N358 N 0.93548 0.48234 0.2334 0.0
N359 N 0.02343 0.51465 0.17482 0.0
H360 H 0.40396 0.82362 0.38765 0.0
H361 H 0.67901 0.15797 0.3674 0.0
H362 H 0.5673 0.89337 0.43072 0.0
H363 H 0.52291 0.07246 0.31964 0.0
H364 H 0.64168 0.06295 0.39047 0.0
H365 H 0.44919 0.91499 0.3625 0.0
C366 C 0.44968 0.85823 0.39178 0.0
C367 C 0.48177 0.85084 0.41145 0.0
C368 C 0.61583 0.06502 0.37486 0.0
C369 C 0.53419 0.95687 0.38254 0.0
C370 C 0.6372 0.11931 0.36156 0.0
C371 C 0.60398 0.12381 0.34149 0.0
C372 C 0.56072 0.01471 0.36816 0.0
C373 C 0.54971 0.07195 0.33515 0.0
C374 C 0.47559 0.91057 0.37731 0.0
C375 C 0.54106 0.89714 0.41568 0.0
N376 N 0.52984 0.01995 0.34845 0.0
N377 N 0.56525 0.94857 0.40148 0.0
H378 H 0.86426 0.52872 0.03838 0.0
H379 H 0.21804 0.64446 0.04036 0.0
H380 H 0.95822 0.48192 0.98319 0.0
H381 H 0.13003 0.69063 0.09839 0.0
H382 H 0.12409 0.59446 1.01714 0.0
H383 H 0.96056 0.59545 0.05878 0.0
C384 C 0.90503 0.5327 1.03039 0.0
C385 C 0.90273 0.49907 1.00901 0.0
C386 C 0.12506 0.61601 1.03479 0.0
C387 C 0.01345 0.57562 1.03244 0.0
C388 C 0.17895 0.64498 0.04802 0.0
C389 C 0.18192 0.67184 0.07134 0.0
C390 C 0.07287 0.61281 0.045 0.0
C391 C 0.12982 0.67102 0.08035 0.0
C392 C 0.96006 0.57077 0.04214 0.0
C393 C 0.95728 0.5059 0.99979 0.0
N394 N 0.07711 0.64122 0.0673 0.0
N395 N 1.01006 0.54313 1.01153 0.0
H396 H 0.3112 0.44814 0.74653 0.0
H397 H 0.55248 0.5056 0.6385 0.0
H398 H 0.3717 0.59189 0.6922 0.0
H399 H 0.50624 0.37512 0.69786 0.0
H400 H 0.47202 0.52476 0.65288 0.0
H401 H 0.36651 0.40701 0.72368 0.0
C402 C 0.33448 0.46994 0.72937 0.0
C403 C 0.33715 0.52373 0.72134 0.0
C404 C 0.47912 0.49148 0.66261 0.0
C405 C 0.40165 0.47781 0.6954 0.0
C406 C 0.52491 0.48039 0.65431 0.0
C407 C 0.53688 0.43951 0.66725 0.0
C408 C 0.44483 0.46122 0.68391 0.0
C409 C 0.49967 0.40815 0.68769 0.0
C410 C 0.36668 0.44688 0.71647 0.0
C411 C 0.36881 0.55054 0.69915 0.0
N412 N 0.45581 0.41999 0.69549 0.0
N413 N 0.40036 0.5278 0.68715 0.0
H414 H 0.078 0.52954 0.75404 0.0
H415 H 0.89828 0.57113 0.63955 0.0
H416 H 0.16269 0.67922 0.70244 0.0
H417 H 0.83277 0.41115 0.68533 0.0
H418 H 0.99159 0.61859 0.66459 0.0
H419 H 0.98402 0.49247 0.73133 0.0
C420 C 0.07707 0.55461 0.73786 0.0
C421 C 0.12896 0.60727 0.73004 0.0
C422 C 0.95646 0.57325 0.66917 0.0
C423 C 0.02024 0.56508 0.70383 0.0
C424 C 0.90318 0.54636 0.655 0.0
C425 C 0.85781 0.487 0.66028 0.0
C426 C 0.96379 0.54062 0.68886 0.0
C427 C 0.86666 0.45676 0.68038 0.0
C428 C 0.02305 0.53352 0.72491 0.0
C429 C 0.124 0.63853 0.70924 0.0
N430 N 0.91832 0.48376 0.69382 0.0
N431 N 0.07075 0.6168 0.69677 0.0
H432 H 0.44669 0.30646 0.3239 0.0
H433 H 0.50332 0.54492 0.43332 0.0
H434 H 0.58716 0.36254 0.37903 0.0
H435 H 0.37261 0.49938 0.37455 0.0
H436 H 0.52196 0.4641 0.41851 0.0
H437 H 0.40549 0.36115 0.3472 0.0
C438 C 0.46777 0.32865 0.34129 0.0
C439 C 0.52074 0.33036 0.34941 0.0
C440 C 0.48874 0.47142 0.40901 0.0
C441 C 0.47473 0.39417 0.3759 0.0
C442 C 0.47796 0.51742 0.41755 0.0
C443 C 0.43719 0.52975 0.40489 0.0
C444 C 0.45834 0.43732 0.38772 0.0
C445 C 0.40559 0.4926 0.3845 0.0
C446 C 0.44465 0.36049 0.35448 0.0
C447 C 0.54653 0.3605 0.37197 0.0
N448 N 0.41719 0.44858 0.37644 0.0
N449 N 0.52382 0.39181 0.38422 0.0
H450 H 0.66993 0.22825 0.0457 0.0
H451 H 0.50862 0.87111 1.0268 0.0
H452 H 0.71071 0.14454 0.98408 0.0
H453 H 0.49124 0.95575 0.09414 0.0
H454 H 0.58566 0.9699 1.01173 0.0
H455 H 0.61028 0.12901 0.06513 0.0
C456 C 0.66768 0.18904 1.0366 0.0
C457 C 0.6956 0.19476 1.0133 0.0
C458 C 0.56525 0.9668 1.02988 0.0
C459 C 0.62525 0.08028 1.03499 0.0
C460 C 0.52106 0.91016 0.03858 0.0
C461 C 0.49272 0.90441 0.06188 0.0
C462 C 0.58138 0.01864 0.04443 0.0
C463 C 0.5107 0.95745 0.07595 0.0
C464 C 0.63312 0.13223 0.0476 0.0
C465 C 0.69056 0.14234 1.00219 0.0
N466 N 0.55353 0.0121 0.06697 0.0
N467 N 0.65517 0.08716 1.01293 0.0
loop_
_geom_bond_atom_site_label_1
_geom_bond_atom_site_label_2
_geom_bond_distance
_geom_bond_site_symmetry_2
_ccdc_geom_bond_type
C0 C1 1.351 . S
C0 N3 1.368 . S
C0 H5 0.931 . S
C1 C0 1.351 . S
C1 N2 1.373 . S
C1 H29 0.930 . S
N2 C1 1.373 . S
N2 C4 1.340 . S
N3 C0 1.368 . S
N3 C4 1.321 . S
N3 Co6 2.135 . S
C4 N2 1.340 . S
C4 N3 1.321 . S
C4 H28 0.930 . S
H5 C0 0.931 . S
Co6 N3 2.135 . S
Co6 N9 2.121 . S
Co6 O14 2.055 . S
Co6 O17 2.039 . S
Co6 N20 2.140 . S
C7 O8 1.227 . S
C7 O17 1.265 . S
O8 C7 1.227 . S
N9 Co6 2.121 . S
N9 C11 1.375 . S
N9 C12 1.313 . S
C10 C11 1.338 . S
C10 N13 1.377 . S
C10 H30 0.930 . S
C11 N9 1.375 . S
C11 C10 1.338 . S
C11 H15 0.931 . S
C12 N9 1.313 . S
C12 N13 1.344 . S
C12 H16 0.930 . S
N13 C10 1.377 . S
N13 C12 1.344 . S
O14 Co6 2.055 . S
O14 C18 1.253 . S
H15 C11 0.931 . S
H16 C12 0.930 . S
O17 Co6 2.039 . S
O17 C7 1.265 . S
C18 O14 1.253 . S
C18 O19 1.227 . S
O19 C18 1.227 . S
N20 Co6 2.140 . S
N20 C23 1.346 . S
N20 C24 1.345 . S
C21 C22 1.387 . S
C21 C25 1.391 . S
C22 C21 1.387 . S
C22 C23 1.369 . S
C22 H31 0.929 . S
C23 N20 1.346 . S
C23 C22 1.369 . S
C23 H26 0.928 . S
C24 N20 1.345 . S
C24 C25 1.371 . S
C24 H27 0.931 . S
C25 C21 1.391 . S
C25 C24 1.371 . S
C25 H32 0.930 . S
H26 C23 0.928 . S
H27 C24 0.931 . S
H28 C4 0.930 . S
H29 C1 0.930 . S
H30 C10 0.930 . S
H31 C22 0.929 . S
H32 C25 0.930 . S
C33 C34 1.351 . S
C33 N36 1.368 . S
C33 H38 0.931 . S
C34 C33 1.351 . S
C34 N35 1.373 . S
C34 H62 0.930 . S
N35 C34 1.373 . S
N35 C37 1.340 . S
N36 C33 1.368 . S
N36 C37 1.321 . S
N36 Co39 2.135 . S
C37 N35 1.340 . S
C37 N36 1.321 . S
C37 H61 0.930 . S
H38 C33 0.931 . S
Co39 N36 2.135 . S
Co39 N42 2.121 . S
Co39 O47 2.055 . S
Co39 O50 2.039 . S
Co39 N53 2.140 . S
C40 O41 1.227 . S
C40 O50 1.265 . S
O41 C40 1.227 . S
N42 Co39 2.121 . S
N42 C44 1.375 . S
N42 C45 1.313 . S
C43 C44 1.338 . S
C43 N46 1.377 . S
C43 H63 0.930 . S
C44 N42 1.375 . S
C44 C43 1.338 . S
C44 H48 0.931 . S
C45 N42 1.313 . S
C45 N46 1.344 . S
C45 H49 0.930 . S
N46 C43 1.377 . S
N46 C45 1.344 . S
O47 Co39 2.055 . S
O47 C51 1.253 . S
H48 C44 0.931 . S
H49 C45 0.930 . S
O50 Co39 2.039 . S
O50 C40 1.265 . S
C51 O47 1.253 . S
C51 O52 1.227 . S
O52 C51 1.227 . S
N53 Co39 2.140 . S
N53 C56 1.346 . S
N53 C57 1.345 . S
C54 C55 1.387 . S
C54 C58 1.391 . S
C55 C54 1.387 . S
C55 C56 1.369 . S
C55 H64 0.929 . S
C56 N53 1.346 . S
C56 C55 1.369 . S
C56 H59 0.928 . S
C57 N53 1.345 . S
C57 C58 1.371 . S
C57 H60 0.931 . S
C58 C54 1.391 . S
C58 C57 1.371 . S
C58 H65 0.930 . S
H59 C56 0.928 . S
H60 C57 0.931 . S
H61 C37 0.930 . S
H62 C34 0.930 . S
H63 C43 0.930 . S
H64 C55 0.929 . S
H65 C58 0.930 . S
C66 C67 1.351 . S
C66 N69 1.368 . S
C66 H71 0.931 . S
C67 C66 1.351 . S
C67 N68 1.373 . S
C67 H95 0.930 . S
N68 C67 1.373 . S
N68 C70 1.340 . S
N69 C66 1.368 . S
N69 C70 1.321 . S
N69 Co72 2.135 . S
C70 N68 1.340 . S
C70 N69 1.321 . S
C70 H94 0.930 . S
H71 C66 0.931 . S
Co72 N69 2.135 . S
Co72 N75 2.121 . S
Co72 O80 2.055 . S
Co72 O83 2.039 . S
Co72 N86 2.140 . S
C73 O74 1.227 . S
C73 O83 1.265 . S
O74 C73 1.227 . S
N75 Co72 2.121 . S
N75 C77 1.375 . S
N75 C78 1.313 . S
C76 C77 1.338 . S
C76 N79 1.377 . S
C76 H96 0.930 . S
C77 N75 1.375 . S
C77 C76 1.338 . S
C77 H81 0.931 . S
C78 N75 1.313 . S
C78 N79 1.344 . S
C78 H82 0.930 . S
N79 C76 1.377 . S
N79 C78 1.344 . S
O80 Co72 2.055 . S
O80 C84 1.253 . S
H81 C77 0.931 . S
H82 C78 0.930 . S
O83 Co72 2.039 . S
O83 C73 1.265 . S
C84 O80 1.253 . S
C84 O85 1.227 . S
O85 C84 1.227 . S
N86 Co72 2.140 . S
N86 C89 1.346 . S
N86 C90 1.345 . S
C87 C88 1.387 . S
C87 C91 1.391 . S
C88 C87 1.387 . S
C88 C89 1.369 . S
C88 H97 0.929 . S
C89 N86 1.346 . S
C89 C88 1.369 . S
C89 H92 0.928 . S
C90 N86 1.345 . S
C90 C91 1.371 . S
C90 H93 0.931 . S
C91 C87 1.391 . S
C91 C90 1.371 . S
C91 H98 0.930 . S
H92 C89 0.928 . S
H93 C90 0.931 . S
H94 C70 0.930 . S
H95 C67 0.930 . S
H96 C76 0.930 . S
H97 C88 0.929 . S
H98 C91 0.930 . S
C99 C100 1.351 . S
C99 N102 1.368 . S
C99 H104 0.931 . S
C100 C99 1.351 . S
C100 N101 1.373 . S
C100 H128 0.930 . S
N101 C100 1.373 . S
N101 C103 1.340 . S
N102 C99 1.368 . S
N102 C103 1.321 . S
N102 Co105 2.135 . S
C103 N101 1.340 . S
C103 N102 1.321 . S
C103 H127 0.930 . S
H104 C99 0.931 . S
Co105 N102 2.135 . S
Co105 N108 2.121 . S
Co105 O113 2.055 . S
Co105 O116 2.039 . S
Co105 N119 2.140 . S
C106 O107 1.227 . S
C106 O116 1.265 . S
O107 C106 1.227 . S
N108 Co105 2.121 . S
N108 C110 1.375 . S
N108 C111 1.313 . S
C109 C110 1.338 . S
C109 N112 1.377 . S
C109 H129 0.930 . S
C110 N108 1.375 . S
C110 C109 1.338 . S
C110 H114 0.931 . S
C111 N108 1.313 . S
C111 N112 1.344 . S
C111 H115 0.930 . S
N112 C109 1.377 . S
N112 C111 1.344 . S
O113 Co105 2.055 . S
O113 C117 1.253 . S
H114 C110 0.931 . S
H115 C111 0.930 . S
O116 Co105 2.039 . S
O116 C106 1.265 . S
C117 O113 1.253 . S
C117 O118 1.227 . S
O118 C117 1.227 . S
N119 Co105 2.140 . S
N119 C122 1.346 . S
N119 C123 1.345 . S
C120 C121 1.387 . S
C120 C124 1.391 . S
C121 C120 1.387 . S
C121 C122 1.369 . S
C121 H130 0.929 . S
C122 N119 1.346 . S
C122 C121 1.369 . S
C122 H125 0.928 . S
C123 N119 1.345 . S
C123 C124 1.371 . S
C123 H126 0.931 . S
C124 C120 1.391 . S
C124 C123 1.371 . S
C124 H131 0.930 . S
H125 C122 0.928 . S
H126 C123 0.931 . S
H127 C103 0.930 . S
H128 C100 0.930 . S
H129 C109 0.930 . S
H130 C121 0.929 . S
H131 C124 0.930 . S
C132 C133 1.351 . S
C132 N135 1.368 . S
C132 H137 0.931 . S
C133 C132 1.351 . S
C133 N134 1.373 . S
C133 H161 0.930 . S
N134 C133 1.373 . S
N134 C136 1.340 . S
N135 C132 1.368 . S
N135 C136 1.321 . S
N135 Co138 2.135 . S
C136 N134 1.340 . S
C136 N135 1.321 . S
C136 H160 0.930 . S
H137 C132 0.931 . S
Co138 N135 2.135 . S
Co138 N141 2.121 . S
Co138 O146 2.055 . S
Co138 O149 2.039 . S
Co138 N152 2.140 . S
C139 O140 1.227 . S
C139 O149 1.265 . S
O140 C139 1.227 . S
N141 Co138 2.121 . S
N141 C143 1.375 . S
N141 C144 1.313 . S
C142 C143 1.338 . S
C142 N145 1.377 . S
C142 H162 0.930 . S
C143 N141 1.375 . S
C143 C142 1.338 . S
C143 H147 0.931 . S
C144 N141 1.313 . S
C144 N145 1.344 . S
C144 H148 0.930 . S
N145 C142 1.377 . S
N145 C144 1.344 . S
O146 Co138 2.055 . S
O146 C150 1.253 . S
H147 C143 0.931 . S
H148 C144 0.930 . S
O149 Co138 2.039 . S
O149 C139 1.265 . S
C150 O146 1.253 . S
C150 O151 1.227 . S
O151 C150 1.227 . S
N152 Co138 2.140 . S
N152 C155 1.346 . S
N152 C156 1.345 . S
C153 C154 1.387 . S
C153 C157 1.391 . S
C154 C153 1.387 . S
C154 C155 1.369 . S
C154 H163 0.929 . S
C155 N152 1.346 . S
C155 C154 1.369 . S
C155 H158 0.928 . S
C156 N152 1.345 . S
C156 C157 1.371 . S
C156 H159 0.931 . S
C157 C153 1.391 . S
C157 C156 1.371 . S
C157 H164 0.930 . S
H158 C155 0.928 . S
H159 C156 0.931 . S
H160 C136 0.930 . S
H161 C133 0.930 . S
H162 C142 0.930 . S
H163 C154 0.929 . S
H164 C157 0.930 . S
C165 C166 1.351 . S
C165 N168 1.368 . S
C165 H170 0.931 . S
C166 C165 1.351 . S
C166 N167 1.373 . S
C166 H194 0.930 . S
N167 C166 1.373 . S
N167 C169 1.340 . S
N168 C165 1.368 . S
N168 C169 1.321 . S
N168 Co171 2.135 . S
C169 N167 1.340 . S
C169 N168 1.321 . S
C169 H193 0.930 . S
H170 C165 0.931 . S
Co171 N168 2.135 . S
Co171 N174 2.121 . S
Co171 O179 2.055 . S
Co171 O182 2.039 . S
Co171 N185 2.140 . S
C172 O173 1.227 . S
C172 O182 1.265 . S
O173 C172 1.227 . S
N174 Co171 2.121 . S
N174 C176 1.375 . S
N174 C177 1.313 . S
C175 C176 1.338 . S
C175 N178 1.377 . S
C175 H195 0.930 . S
C176 N174 1.375 . S
C176 C175 1.338 . S
C176 H180 0.931 . S
C177 N174 1.313 . S
C177 N178 1.344 . S
C177 H181 0.930 . S
N178 C175 1.377 . S
N178 C177 1.344 . S
O179 Co171 2.055 . S
O179 C183 1.253 . S
H180 C176 0.931 . S
H181 C177 0.930 . S
O182 Co171 2.039 . S
O182 C172 1.265 . S
C183 O179 1.253 . S
C183 O184 1.227 . S
O184 C183 1.227 . S
N185 Co171 2.140 . S
N185 C188 1.346 . S
N185 C189 1.345 . S
C186 C187 1.387 . S
C186 C190 1.391 . S
C187 C186 1.387 . S
C187 C188 1.369 . S
C187 H196 0.929 . S
C188 N185 1.346 . S
C188 C187 1.369 . S
C188 H191 0.928 . S
C189 N185 1.345 . S
C189 C190 1.371 . S
C189 H192 0.931 . S
C190 C186 1.391 . S
C190 C189 1.371 . S
C190 H197 0.930 . S
H191 C188 0.928 . S
H192 C189 0.931 . S
H193 C169 0.930 . S
H194 C166 0.930 . S
H195 C175 0.930 . S
H196 C187 0.929 . S
H197 C190 0.930 . S
H198 C204 0.930 . S
H199 C208 0.930 . S
H200 C213 0.929 . S
H201 C211 0.929 . S
H202 C206 0.929 . S
H203 C212 0.929 . S
C204 H198 0.930 . S
C204 C205 1.367 . S
C204 C212 1.378 . S
C205 C204 1.367 . S
C205 C213 1.433 . S
C206 H202 0.929 . S
C206 C208 1.378 . S
C206 C210 1.350 . S
C207 C210 1.463 1_545 S
C207 C212 1.350 . S
C207 N215 1.427 . S
C208 H199 0.930 . S
C208 C206 1.378 . S
C208 C209 1.367 . S
C209 C208 1.367 . S
C209 C211 1.433 . S
C210 C206 1.350 . S
C210 C207 1.463 1_565 S
C210 N214 1.427 . S
C211 H201 0.929 . S
C211 C209 1.433 . S
C211 N214 1.384 . S
C212 H203 0.929 . S
C212 C204 1.378 . S
C212 C207 1.350 . S
C213 H200 0.929 . S
C213 C205 1.433 . S
C213 N215 1.384 . S
N214 C210 1.427 . S
N214 C211 1.384 . S
N215 C207 1.427 . S
N215 C213 1.384 . S
H216 C222 0.930 . S
H217 C226 0.930 . S
H218 C231 0.929 . S
H219 C229 0.929 . S
H220 C224 0.929 1_455 S
H221 C230 0.929 1_655 S
C222 H216 0.930 . S
C222 C223 1.367 . S
C222 C230 1.378 . S
C223 C222 1.367 . S
C223 C231 1.433 . S
C224 H220 0.929 1_655 S
C224 C226 1.378 . S
C224 C228 1.350 . S
C225 C228 1.463 1_455 S
C225 C230 1.350 . S
C225 N233 1.427 . S
C226 H217 0.930 . S
C226 C224 1.378 . S
C226 C227 1.367 . S
C227 C226 1.367 . S
C227 C229 1.433 . S
C228 C224 1.350 . S
C228 C225 1.463 1_655 S
C228 N232 1.427 . S
C229 H219 0.929 . S
C229 C227 1.433 . S
C229 N232 1.384 . S
C230 H221 0.929 1_455 S
C230 C222 1.378 . S
C230 C225 1.350 . S
C231 H218 0.929 . S
C231 C223 1.433 . S
C231 N233 1.384 . S
N232 C228 1.427 . S
N232 C229 1.384 . S
N233 C225 1.427 . S
N233 C231 1.384 . S
H234 C240 0.930 . S
H235 C244 0.930 . S
H236 C249 0.929 . S
H237 C247 0.929 . S
H238 C242 0.929 . S
H239 C248 0.929 . S
C240 H234 0.930 . S
C240 C241 1.367 . S
C240 C248 1.378 . S
C241 C240 1.367 . S
C241 C249 1.433 . S
C242 H238 0.929 . S
C242 C244 1.378 . S
C242 C246 1.350 . S
C243 C246 1.463 . S
C243 C248 1.350 . S
C243 N251 1.427 . S
C244 H235 0.930 . S
C244 C242 1.378 . S
C244 C245 1.367 . S
C245 C244 1.367 . S
C245 C247 1.433 . S
C246 C242 1.350 . S
C246 C243 1.463 . S
C246 N250 1.427 . S
C247 H237 0.929 . S
C247 C245 1.433 . S
C247 N250 1.384 . S
C248 H239 0.929 . S
C248 C240 1.378 . S
C248 C243 1.350 . S
C249 H236 0.929 . S
C249 C241 1.433 . S
C249 N251 1.384 . S
N250 C246 1.427 . S
N250 C247 1.384 . S
N251 C243 1.427 . S
N251 C249 1.384 . S
H252 C258 0.930 . S
H253 C262 0.930 . S
H254 C267 0.929 . S
H255 C265 0.929 . S
H256 C260 0.929 . S
H257 C266 0.929 . S
C258 H252 0.930 . S
C258 C259 1.367 . S
C258 C266 1.378 . S
C259 C258 1.367 . S
C259 C267 1.433 . S
C260 H256 0.929 . S
C260 C262 1.378 . S
C260 C264 1.350 . S
C261 C264 1.463 . S
C261 C266 1.350 . S
C261 N269 1.427 . S
C262 H253 0.930 . S
C262 C260 1.378 . S
C262 C263 1.367 . S
C263 C262 1.367 . S
C263 C265 1.433 . S
C264 C260 1.350 . S
C264 C261 1.463 . S
C264 N268 1.427 . S
C265 H255 0.929 . S
C265 C263 1.433 . S
C265 N268 1.384 . S
C266 H257 0.929 . S
C266 C258 1.378 . S
C266 C261 1.350 . S
C267 H254 0.929 . S
C267 C259 1.433 . S
C267 N269 1.384 . S
N268 C264 1.427 . S
N268 C265 1.384 . S
N269 C261 1.427 . S
N269 C267 1.384 . S
H270 C276 0.930 . S
H271 C280 0.930 . S
H272 C285 0.929 . S
H273 C283 0.929 . S
H274 C278 0.929 . S
H275 C284 0.929 . S
C276 H270 0.930 . S
C276 C277 1.367 . S
C276 C284 1.378 . S
C277 C276 1.367 . S
C277 C285 1.433 . S
C278 H274 0.929 . S
C278 C280 1.378 . S
C278 C282 1.350 . S
C279 C282 1.463 . S
C279 C284 1.350 . S
C279 N287 1.427 . S
C280 H271 0.930 . S
C280 C278 1.378 . S
C280 C281 1.367 1_565 S
C281 C280 1.367 1_545 S
C281 C283 1.433 . S
C282 C278 1.350 . S
C282 C279 1.463 . S
C282 N286 1.427 . S
C283 H273 0.929 . S
C283 C281 1.433 . S
C283 N286 1.384 1_545 S
C284 H275 0.929 . S
C284 C276 1.378 . S
C284 C279 1.350 . S
C285 H272 0.929 . S
C285 C277 1.433 . S
C285 N287 1.384 . S
N286 C282 1.427 . S
N286 C283 1.384 1_565 S
N287 C279 1.427 . S
N287 C285 1.384 . S
H288 C294 0.930 . S
H289 C298 0.930 . S
H290 C303 0.928 . S
H291 C301 0.929 . S
H292 C296 0.929 . S
H293 C302 0.929 . S
C294 H288 0.930 . S
C294 C295 1.367 1_455 S
C294 C302 1.378 . S
C295 C294 1.367 1_655 S
C295 C303 1.433 . S
C296 H292 0.929 . S
C296 C298 1.378 . S
C296 C300 1.350 . S
C297 C300 1.463 . S
C297 C302 1.350 . S
C297 N305 1.427 . S
C298 H289 0.930 . S
C298 C296 1.378 . S
C298 C299 1.367 . S
C299 C298 1.367 . S
C299 C301 1.433 . S
C300 C296 1.350 . S
C300 C297 1.463 . S
C300 N304 1.427 . S
C301 H291 0.929 . S
C301 C299 1.433 . S
C301 N304 1.384 . S
C302 H293 0.929 . S
C302 C294 1.378 . S
C302 C297 1.350 . S
C303 H290 0.928 . S
C303 C295 1.433 . S
C303 N305 1.385 1_655 S
N304 C300 1.427 . S
N304 C301 1.384 . S
N305 C297 1.427 . S
N305 C303 1.385 1_455 S
H306 C312 0.930 . S
H307 C316 0.930 . S
H308 C321 0.929 . S
H309 C319 0.929 . S
H310 C314 0.929 . S
H311 C320 0.929 . S
C312 H306 0.930 . S
C312 C313 1.367 . S
C312 C320 1.378 . S
C313 C312 1.367 . S
C313 C321 1.433 . S
C314 H310 0.929 . S
C314 C316 1.378 . S
C314 C318 1.350 . S
C315 C318 1.463 . S
C315 C320 1.350 . S
C315 N323 1.427 . S
C316 H307 0.930 . S
C316 C314 1.378 . S
C316 C317 1.367 . S
C317 C316 1.367 . S
C317 C319 1.433 . S
C318 C314 1.350 . S
C318 C315 1.463 . S
C318 N322 1.427 . S
C319 H309 0.929 . S
C319 C317 1.433 . S
C319 N322 1.384 . S
C320 H311 0.929 . S
C320 C312 1.378 . S
C320 C315 1.350 . S
C321 H308 0.929 . S
C321 C313 1.433 . S
C321 N323 1.384 . S
N322 C318 1.427 . S
N322 C319 1.384 . S
N323 C315 1.427 . S
N323 C321 1.384 . S
H324 C330 0.930 . S
H325 C334 0.930 . S
H326 C339 0.929 . S
H327 C337 0.929 1_565 S
H328 C332 0.929 . S
H329 C338 0.929 . S
C330 H324 0.930 . S
C330 C331 1.367 . S
C330 C338 1.378 . S
C331 C330 1.367 . S
C331 C339 1.433 . S
C332 H328 0.929 . S
C332 C334 1.378 . S
C332 C336 1.350 . S
C333 C336 1.463 . S
C333 C338 1.350 . S
C333 N341 1.427 . S
C334 H325 0.930 . S
C334 C332 1.378 . S
C334 C335 1.367 1_545 S
C335 C334 1.367 1_565 S
C335 C337 1.433 1_565 S
C336 C332 1.350 . S
C336 C333 1.463 . S
C336 N340 1.427 . S
C337 H327 0.929 1_545 S
C337 C335 1.433 1_545 S
C337 N340 1.384 . S
C338 H329 0.929 . S
C338 C330 1.378 . S
C338 C333 1.350 . S
C339 H326 0.929 . S
C339 C331 1.433 . S
C339 N341 1.384 . S
N340 C336 1.427 . S
N340 C337 1.384 . S
N341 C333 1.427 . S
N341 C339 1.384 . S
H342 C348 0.930 1_455 S
H343 C352 0.930 . S
H344 C357 0.929 . S
H345 C355 0.929 . S
H346 C350 0.929 . S
H347 C356 0.929 . S
C348 H342 0.930 1_655 S
C348 C349 1.367 1_655 S
C348 C356 1.378 . S
C349 C348 1.367 1_455 S
C349 C357 1.433 1_455 S
C350 H346 0.929 . S
C350 C352 1.378 . S
C350 C354 1.350 . S
C351 C354 1.463 . S
C351 C356 1.350 . S
C351 N359 1.427 . S
C352 H343 0.930 . S
C352 C350 1.378 . S
C352 C353 1.367 . S
C353 C352 1.367 . S
C353 C355 1.433 . S
C354 C350 1.350 . S
C354 C351 1.463 . S
C354 N358 1.427 . S
C355 H345 0.929 . S
C355 C353 1.433 . S
C355 N358 1.384 . S
C356 H347 0.929 . S
C356 C348 1.378 . S
C356 C351 1.350 . S
C357 H344 0.929 . S
C357 C349 1.433 1_655 S
C357 N359 1.384 . S
N358 C354 1.427 . S
N358 C355 1.384 . S
N359 C351 1.427 . S
N359 C357 1.384 . S
H360 C366 0.930 . S
H361 C370 0.930 . S
H362 C375 0.929 . S
H363 C373 0.929 . S
H364 C368 0.929 . S
H365 C374 0.929 . S
C366 H360 0.930 . S
C366 C367 1.367 . S
C366 C374 1.378 . S
C367 C366 1.367 . S
C367 C375 1.433 . S
C368 H364 0.929 . S
C368 C370 1.378 . S
C368 C372 1.350 . S
C369 C372 1.463 . S
C369 C374 1.350 1_545 S
C369 N377 1.427 . S
C370 H361 0.930 . S
C370 C368 1.378 . S
C370 C371 1.367 . S
C371 C370 1.367 . S
C371 C373 1.433 . S
C372 C368 1.350 . S
C372 C369 1.463 . S
C372 N376 1.427 . S
C373 H363 0.929 . S
C373 C371 1.433 . S
C373 N376 1.384 . S
C374 H365 0.929 . S
C374 C366 1.378 . S
C374 C369 1.350 1_565 S
C375 H362 0.929 . S
C375 C367 1.433 . S
C375 N377 1.384 1_565 S
N376 C372 1.427 . S
N376 C373 1.384 . S
N377 C369 1.427 . S
N377 C375 1.384 1_545 S
H378 C384 0.930 . S
H379 C388 0.930 . S
H380 C393 0.929 . S
H381 C391 0.929 . S
H382 C386 0.929 1_556 S
H383 C392 0.929 . S
C384 H378 0.930 . S
C384 C385 1.367 . S
C384 C392 1.378 1_556 S
C385 C384 1.367 . S
C385 C393 1.433 . S
C386 H382 0.929 1_554 S
C386 C388 1.378 . S
C386 C390 1.350 1_455 S
C387 C390 1.463 1_556 S
C387 C392 1.350 1_556 S
C387 N395 1.427 . S
C388 H379 0.930 . S
C388 C386 1.378 . S
C388 C389 1.367 . S
C389 C388 1.367 . S
C389 C391 1.433 . S
C390 C386 1.350 1_655 S
C390 C387 1.463 1_554 S
C390 N394 1.427 . S
C391 H381 0.929 . S
C391 C389 1.433 . S
C391 N394 1.384 1_455 S
C392 H383 0.929 . S
C392 C384 1.378 1_554 S
C392 C387 1.350 1_554 S
C393 H380 0.929 . S
C393 C385 1.433 . S
C393 N395 1.384 . S
N394 C390 1.427 . S
N394 C391 1.384 1_655 S
N395 C387 1.427 . S
N395 C393 1.384 . S
H396 C402 0.930 . S
H397 C406 0.930 . S
H398 C411 0.929 . S
H399 C409 0.929 . S
H400 C404 0.929 . S
H401 C410 0.929 . S
C402 H396 0.930 . S
C402 C403 1.367 . S
C402 C410 1.378 . S
C403 C402 1.367 . S
C403 C411 1.433 . S
C404 H400 0.929 . S
C404 C406 1.378 . S
C404 C408 1.350 . S
C405 C408 1.463 . S
C405 C410 1.350 . S
C405 N413 1.427 . S
C406 H397 0.930 . S
C406 C404 1.378 . S
C406 C407 1.367 . S
C407 C406 1.367 . S
C407 C409 1.433 . S
C408 C404 1.350 . S
C408 C405 1.463 . S
C408 N412 1.427 . S
C409 H399 0.929 . S
C409 C407 1.433 . S
C409 N412 1.384 . S
C410 H401 0.929 . S
C410 C402 1.378 . S
C410 C405 1.350 . S
C411 H398 0.929 . S
C411 C403 1.433 . S
C411 N413 1.384 . S
N412 C408 1.427 . S
N412 C409 1.384 . S
N413 C405 1.427 . S
N413 C411 1.384 . S
H414 C420 0.930 . S
H415 C424 0.930 . S
H416 C429 0.929 . S
H417 C427 0.929 . S
H418 C422 0.929 . S
H419 C428 0.929 . S
C420 H414 0.930 . S
C420 C421 1.367 . S
C420 C428 1.378 . S
C421 C420 1.367 . S
C421 C429 1.433 . S
C422 H418 0.929 . S
C422 C424 1.378 1_455 S
C422 C426 1.350 . S
C423 C426 1.463 . S
C423 C428 1.350 . S
C423 N431 1.427 . S
C424 H415 0.930 . S
C424 C422 1.378 1_655 S
C424 C425 1.367 . S
C425 C424 1.367 . S
C425 C427 1.433 . S
C426 C422 1.350 . S
C426 C423 1.463 . S
C426 N430 1.427 1_455 S
C427 H417 0.929 . S
C427 C425 1.433 . S
C427 N430 1.384 . S
C428 H419 0.929 . S
C428 C420 1.378 . S
C428 C423 1.350 . S
C429 H416 0.929 . S
C429 C421 1.433 . S
C429 N431 1.384 . S
N430 C426 1.427 1_655 S
N430 C427 1.384 . S
N431 C423 1.427 . S
N431 C429 1.384 . S
H432 C438 0.930 . S
H433 C442 0.930 . S
H434 C447 0.929 . S
H435 C445 0.929 . S
H436 C440 0.929 . S
H437 C446 0.929 . S
C438 H432 0.930 . S
C438 C439 1.367 . S
C438 C446 1.378 . S
C439 C438 1.367 . S
C439 C447 1.433 . S
C440 H436 0.929 . S
C440 C442 1.378 . S
C440 C444 1.350 . S
C441 C444 1.463 . S
C441 C446 1.350 . S
C441 N449 1.427 . S
C442 H433 0.930 . S
C442 C440 1.378 . S
C442 C443 1.367 . S
C443 C442 1.367 . S
C443 C445 1.433 . S
C444 C440 1.350 . S
C444 C441 1.463 . S
C444 N448 1.427 . S
C445 H435 0.929 . S
C445 C443 1.433 . S
C445 N448 1.384 . S
C446 H437 0.929 . S
C446 C438 1.378 . S
C446 C441 1.350 . S
C447 H434 0.929 . S
C447 C439 1.433 . S
C447 N449 1.384 . S
N448 C444 1.427 . S
N448 C445 1.384 . S
N449 C441 1.427 . S
N449 C447 1.384 . S
H450 C456 0.930 . S
H451 C460 0.930 . S
H452 C465 0.929 . S
H453 C463 0.929 . S
H454 C458 0.929 1_556 S
H455 C464 0.929 . S
C456 H450 0.930 . S
C456 C457 1.367 . S
C456 C464 1.378 . S
C457 C456 1.367 . S
C457 C465 1.433 . S
C458 H454 0.929 1_554 S
C458 C460 1.378 . S
C458 C462 1.350 . S
C459 C462 1.463 1_556 S
C459 C464 1.350 1_565 S
C459 N467 1.427 . S
C460 H451 0.930 . S
C460 C458 1.378 . S
C460 C461 1.367 . S
C461 C460 1.367 . S
C461 C463 1.433 . S
C462 C458 1.350 . S
C462 C459 1.463 1_554 S
C462 N466 1.427 . S
C463 H453 0.929 . S
C463 C461 1.433 . S
C463 N466 1.384 . S
C464 H455 0.929 . S
C464 C456 1.378 . S
C464 C459 1.350 1_545 S
C465 H452 0.929 . S
C465 C457 1.433 . S
C465 N467 1.384 1_545 S
N466 C462 1.427 . S
N466 C463 1.384 . S
N467 C459 1.427 . S
N467 C465 1.384 1_565 S
C205 C7 1.518 . S
C209 C172 1.508 . S
C223 C106 1.514 . S
C227 C40 1.514 . S
C241 C139 1.513 . S
C245 C73 1.516 . S
C259 C186 1.137 . S
C263 N13 1.131 . S
C277 C120 1.137 . S
C281 N46 1.131 . S
C295 N79 1.132 . S
C299 C153 1.135 . S
C313 C54 1.133 . S
C317 N112 1.127 . S
C331 C87 1.134 . S
C335 N145 1.132 . S
C349 N178 1.121 . S
C353 C21 1.137 . S
C367 C150 1.642 . S
C371 N2 1.589 . S
C385 N35 1.589 . S
C389 C183 1.642 . S
C403 C117 1.642 . S
C407 N68 1.593 . S
C421 N101 1.595 . S
C425 C84 1.642 . S
C439 C18 1.637 . S
C443 N134 1.602 . S
C457 C51 1.639 . S
C461 N167 1.595 . S
