# Generated by pormake.
# Topology fca, (5)-cn, num edge types: 1
# Building blocks:
#     Node 0, Type 0, BuildingBlock: BEQFEK_clean_sbu_0, # of connection points: 5
#     Node 1, Type 0, BuildingBlock: BEQFEK_clean_sbu_0, # of connection points: 5
#     Node 2, Type 0, BuildingBlock: BEQFEK_clean_sbu_0, # of connection points: 5
#     Node 3, Type 0, BuildingBlock: BEQFEK_clean_sbu_0, # of connection points: 5
#     Node 4, Type 0, BuildingBlock: BEQFEK_clean_sbu_0, # of connection points: 5
#     Node 5, Type 0, BuildingBlock: BEQFEK_clean_sbu_0, # of connection points: 5
#     Node 6, Type 0, BuildingBlock: BEQFEK_clean_sbu_0, # of connection points: 5
#     Node 7, Type 0, BuildingBlock: BEQFEK_clean_sbu_0, # of connection points: 5
#     Node 8, Type 0, BuildingBlock: BEQFEK_clean_sbu_0, # of connection points: 5
#     Node 9, Type 0, BuildingBlock: BEQFEK_clean_sbu_0, # of connection points: 5
#     Node 10, Type 0, BuildingBlock: BEQFEK_clean_sbu_0, # of connection points: 5
#     Node 11, Type 0, BuildingBlock: BEQFEK_clean_sbu_0, # of connection points: 5
#     Node 12, Type 0, BuildingBlock: BEQFEK_clean_sbu_0, # of connection points: 5
#     Node 13, Type 0, BuildingBlock: BEQFEK_clean_sbu_0, # of connection points: 5
#     Node 14, Type 0, BuildingBlock: BEQFEK_clean_sbu_0, # of connection points: 5
#     Node 15, Type 0, BuildingBlock: BEQFEK_clean_sbu_0, # of connection points: 5
#     Node 16, Type 0, BuildingBlock: BEQFEK_clean_sbu_0, # of connection points: 5
#     Node 17, Type 0, BuildingBlock: BEQFEK_clean_sbu_0, # of connection points: 5
#     Node 18, Type 0, BuildingBlock: BEQFEK_clean_sbu_0, # of connection points: 5
#     Node 19, Type 0, BuildingBlock: BEQFEK_clean_sbu_0, # of connection points: 5
#     Node 20, Type 0, BuildingBlock: BEQFEK_clean_sbu_0, # of connection points: 5
#     Node 21, Type 0, BuildingBlock: BEQFEK_clean_sbu_0, # of connection points: 5
#     Node 22, Type 0, BuildingBlock: BEQFEK_clean_sbu_0, # of connection points: 5
#     Node 23, Type 0, BuildingBlock: BEQFEK_clean_sbu_0, # of connection points: 5
#     Edge 24, Type (0, 0), BuildingBlock: EZIPEK_clean_linker_0, # of connection points: 2
#     Edge 25, Type (0, 0), BuildingBlock: EZIPEK_clean_linker_0, # of connection points: 2
#     Edge 26, Type (0, 0), BuildingBlock: EZIPEK_clean_linker_0, # of connection points: 2
#     Edge 27, Type (0, 0), BuildingBlock: EZIPEK_clean_linker_0, # of connection points: 2
#     Edge 28, Type (0, 0), BuildingBlock: EZIPEK_clean_linker_0, # of connection points: 2
#     Edge 29, Type (0, 0), BuildingBlock: EZIPEK_clean_linker_0, # of connection points: 2
#     Edge 30, Type (0, 0), BuildingBlock: EZIPEK_clean_linker_0, # of connection points: 2
#     Edge 31, Type (0, 0), BuildingBlock: EZIPEK_clean_linker_0, # of connection points: 2
#     Edge 32, Type (0, 0), BuildingBlock: EZIPEK_clean_linker_0, # of connection points: 2
#     Edge 33, Type (0, 0), BuildingBlock: EZIPEK_clean_linker_0, # of connection points: 2
#     Edge 34, Type (0, 0), BuildingBlock: EZIPEK_clean_linker_0, # of connection points: 2
#     Edge 35, Type (0, 0), BuildingBlock: EZIPEK_clean_linker_0, # of connection points: 2
#     Edge 36, Type (0, 0), BuildingBlock: EZIPEK_clean_linker_0, # of connection points: 2
#     Edge 37, Type (0, 0), BuildingBlock: EZIPEK_clean_linker_0, # of connection points: 2
#     Edge 38, Type (0, 0), BuildingBlock: EZIPEK_clean_linker_0, # of connection points: 2
#     Edge 39, Type (0, 0), BuildingBlock: EZIPEK_clean_linker_0, # of connection points: 2
#     Edge 40, Type (0, 0), BuildingBlock: EZIPEK_clean_linker_0, # of connection points: 2
#     Edge 41, Type (0, 0), BuildingBlock: EZIPEK_clean_linker_0, # of connection points: 2
#     Edge 42, Type (0, 0), BuildingBlock: EZIPEK_clean_linker_0, # of connection points: 2
#     Edge 43, Type (0, 0), BuildingBlock: EZIPEK_clean_linker_0, # of connection points: 2
#     Edge 44, Type (0, 0), BuildingBlock: EZIPEK_clean_linker_0, # of connection points: 2
#     Edge 45, Type (0, 0), BuildingBlock: EZIPEK_clean_linker_0, # of connection points: 2
#     Edge 46, Type (0, 0), BuildingBlock: EZIPEK_clean_linker_0, # of connection points: 2
#     Edge 47, Type (0, 0), BuildingBlock: EZIPEK_clean_linker_0, # of connection points: 2
#     Edge 48, Type (0, 0), BuildingBlock: EZIPEK_clean_linker_0, # of connection points: 2
#     Edge 49, Type (0, 0), BuildingBlock: EZIPEK_clean_linker_0, # of connection points: 2
#     Edge 50, Type (0, 0), BuildingBlock: EZIPEK_clean_linker_0, # of connection points: 2
#     Edge 51, Type (0, 0), BuildingBlock: EZIPEK_clean_linker_0, # of connection points: 2
#     Edge 52, Type (0, 0), BuildingBlock: EZIPEK_clean_linker_0, # of connection points: 2
#     Edge 53, Type (0, 0), BuildingBlock: EZIPEK_clean_linker_0, # of connection points: 2
#     Edge 54, Type (0, 0), BuildingBlock: EZIPEK_clean_linker_0, # of connection points: 2
#     Edge 55, Type (0, 0), BuildingBlock: EZIPEK_clean_linker_0, # of connection points: 2
#     Edge 56, Type (0, 0), BuildingBlock: EZIPEK_clean_linker_0, # of connection points: 2
#     Edge 57, Type (0, 0), BuildingBlock: EZIPEK_clean_linker_0, # of connection points: 2
#     Edge 58, Type (0, 0), BuildingBlock: EZIPEK_clean_linker_0, # of connection points: 2
#     Edge 59, Type (0, 0), BuildingBlock: EZIPEK_clean_linker_0, # of connection points: 2
#     Edge 60, Type (0, 0), BuildingBlock: EZIPEK_clean_linker_0, # of connection points: 2
#     Edge 61, Type (0, 0), BuildingBlock: EZIPEK_clean_linker_0, # of connection points: 2
#     Edge 62, Type (0, 0), BuildingBlock: EZIPEK_clean_linker_0, # of connection points: 2
#     Edge 63, Type (0, 0), BuildingBlock: EZIPEK_clean_linker_0, # of connection points: 2
#     Edge 64, Type (0, 0), BuildingBlock: EZIPEK_clean_linker_0, # of connection points: 2
#     Edge 65, Type (0, 0), BuildingBlock: EZIPEK_clean_linker_0, # of connection points: 2
#     Edge 66, Type (0, 0), BuildingBlock: EZIPEK_clean_linker_0, # of connection points: 2
#     Edge 67, Type (0, 0), BuildingBlock: EZIPEK_clean_linker_0, # of connection points: 2
#     Edge 68, Type (0, 0), BuildingBlock: EZIPEK_clean_linker_0, # of connection points: 2
#     Edge 69, Type (0, 0), BuildingBlock: EZIPEK_clean_linker_0, # of connection points: 2
#     Edge 70, Type (0, 0), BuildingBlock: EZIPEK_clean_linker_0, # of connection points: 2
#     Edge 71, Type (0, 0), BuildingBlock: EZIPEK_clean_linker_0, # of connection points: 2
#     Edge 72, Type (0, 0), BuildingBlock: EZIPEK_clean_linker_0, # of connection points: 2
#     Edge 73, Type (0, 0), BuildingBlock: EZIPEK_clean_linker_0, # of connection points: 2
#     Edge 74, Type (0, 0), BuildingBlock: EZIPEK_clean_linker_0, # of connection points: 2
#     Edge 75, Type (0, 0), BuildingBlock: EZIPEK_clean_linker_0, # of connection points: 2
#     Edge 76, Type (0, 0), BuildingBlock: EZIPEK_clean_linker_0, # of connection points: 2
#     Edge 77, Type (0, 0), BuildingBlock: EZIPEK_clean_linker_0, # of connection points: 2
#     Edge 78, Type (0, 0), BuildingBlock: EZIPEK_clean_linker_0, # of connection points: 2
#     Edge 79, Type (0, 0), BuildingBlock: EZIPEK_clean_linker_0, # of connection points: 2
#     Edge 80, Type (0, 0), BuildingBlock: EZIPEK_clean_linker_0, # of connection points: 2
#     Edge 81, Type (0, 0), BuildingBlock: EZIPEK_clean_linker_0, # of connection points: 2
#     Edge 82, Type (0, 0), BuildingBlock: EZIPEK_clean_linker_0, # of connection points: 2
#     Edge 83, Type (0, 0), BuildingBlock: EZIPEK_clean_linker_0, # of connection points: 2
# Relax obj value: 0.594
# Max RMSD: 0.295
# Mean RMSD: 0.295
data_MOF--net-fca--node1-BEQFEK_clean_sbu_0--edge1-EZIPEK_clean_linker_0
_symmetry_space_group_name_H-M    P1
_symmetry_Int_Tables_number       1
_symmetry_cell_setting            triclinic
loop_
_symmetry_equiv_pos_as_xyz
'x, y, z'
_cell_length_a     41.759218
_cell_length_b     42.108153
_cell_length_c     42.078994
_cell_angle_alpha  89.921891
_cell_angle_beta   89.858518
_cell_angle_gamma 89.857845
loop_
_atom_site_label
_atom_site_type_symbol
_atom_site_fract_x
_atom_site_fract_y
_atom_site_fract_z
_atom_type_partial_charge
Co0 Co 0.05206 0.40616 0.28445 0.0
Co1 Co 0.09107 0.41768 0.34523 0.0
C2 C 0.11974 0.43246 0.28071 0.0
O3 O 0.09412 0.4232 0.26722 0.0
O4 O 0.12361 0.42766 0.31044 0.0
C5 C 0.03359 0.37851 0.22437 0.0
O6 O 0.06186 0.3648 0.22363 0.0
C7 C 0.13434 0.3984 0.39576 0.0
C8 C 0.12026 0.43106 0.43443 0.0
C9 C 0.13884 0.40461 0.42779 0.0
N10 N 0.11317 0.41952 0.3844 0.0
N11 N 0.10569 0.4397 0.40729 0.0
C12 C 0.14697 0.37091 0.377 0.0
H13 H 0.12666 0.35708 0.36723 0.0
H14 H 0.16242 0.3553 0.39175 0.0
H15 H 0.16092 0.38005 0.35647 0.0
C16 C 0.02564 0.35237 0.32116 0.0
N17 N 0.04938 0.3739 0.31656 0.0
N18 N 0.06223 0.38104 0.34414 0.0
C19 C 0.0456 0.36535 0.36723 0.0
C20 C 0.02243 0.34595 0.35349 0.0
C21 C 1.00278 0.34231 0.29589 0.0
H22 H 0.98775 0.36289 0.28882 0.0
H23 H 1.01651 0.33431 0.27481 0.0
H24 H 0.98701 0.32282 0.30428 0.0
O25 O 0.03249 0.44466 0.3025 0.0
O26 O 0.06463 0.45507 0.34331 0.0
H27 H 0.02222 0.38682 0.40692 0.0
H28 H 0.04593 0.35287 0.41657 0.0
C29 C 0.04512 0.37452 0.40151 0.0
H30 H 0.06485 0.39072 0.40744 0.0
H31 H 0.08894 0.45798 0.40497 0.0
O32 O 0.02548 0.39561 0.24784 0.0
C33 C 0.04219 0.46289 0.32459 0.0
Co34 Co 1.00344 0.65209 0.28153 0.0
Co35 Co 0.9639 0.64189 0.34284 0.0
C36 C 0.93547 0.62671 0.27825 0.0
O37 O 0.96124 0.63565 0.26469 0.0
O38 O 0.93143 0.63173 0.30797 0.0
C39 C 0.02168 0.67554 0.21971 0.0
O40 O 0.99251 0.68703 0.21757 0.0
C41 C 0.92503 0.66402 0.39674 0.0
C42 C 0.93532 0.62667 0.43225 0.0
C43 C 0.92068 0.65594 0.42848 0.0
N44 N 0.94236 0.64099 0.38278 0.0
N45 N 0.94757 0.61829 0.40389 0.0
C46 C 0.91561 0.69428 0.38057 0.0
H47 H 0.93739 0.7067 0.37198 0.0
H48 H 0.90189 0.71005 0.3968 0.0
H49 H 0.90092 0.68864 0.35939 0.0
C50 C 0.03059 0.70576 0.3173 0.0
N51 N 1.00635 0.68474 0.31303 0.0
N52 N 0.99389 0.67747 0.34083 0.0
C53 C 1.01156 0.69204 0.3637 0.0
C54 C 0.03474 0.71133 0.34969 0.0
C55 C 0.05265 0.71635 0.2914 0.0
H56 H 0.06883 0.69644 0.28486 0.0
H57 H 0.03848 0.72291 0.27013 0.0
H58 H 0.06736 0.73686 0.29909 0.0
O59 O 0.02205 0.61343 0.30041 0.0
O60 O 0.98956 0.60405 0.34139 0.0
H61 H 0.03659 0.66726 0.40018 0.0
H62 H 1.01519 0.70138 0.41361 0.0
C63 C 1.0139 0.68075 0.39729 0.0
H64 H 0.99397 0.66489 0.40372 0.0
H65 H 0.96129 0.59801 0.3995 0.0
O66 O 0.03062 0.66139 0.2448 0.0
C67 C 1.012 0.59568 0.32285 0.0
Co68 Co 0.06375 0.6406 0.7771 0.0
Co69 Co 0.10642 0.64132 0.71755 0.0
C70 C 0.13574 0.62213 0.77873 0.0
O71 O 0.10782 0.62484 0.79089 0.0
O72 O 0.14093 0.63333 0.75094 0.0
C73 C 0.04018 0.67042 0.83501 0.0
O74 O 0.06266 0.69195 0.83185 0.0
C75 C 0.15074 0.65872 0.66583 0.0
C76 C 0.1223 0.64286 0.62461 0.0
C77 C 0.14943 0.65975 0.63282 0.0
N78 N 0.12472 0.64321 0.67637 0.0
N79 N 0.10849 0.6328 0.65161 0.0
C80 C 0.17595 0.67199 0.6872 0.0
H81 H 0.16472 0.68831 0.70471 0.0
H82 H 0.19483 0.68449 0.67344 0.0
H83 H 0.18699 0.65226 0.70088 0.0
C84 C 0.03035 0.69244 0.74237 0.0
N85 N 0.05711 0.67476 0.74752 0.0
N86 N 0.07561 0.67616 0.72227 0.0
C87 C 0.06139 0.69581 0.70072 0.0
C88 C 0.03196 0.70682 0.71247 0.0
C89 C 1.00112 0.69069 0.76292 0.0
H90 H 0.99716 0.66586 0.77079 0.0
H91 H 1.00491 0.70553 0.78427 0.0
H92 H 0.97953 0.69947 0.75031 0.0
O93 O 0.04705 0.60303 0.75686 0.0
O94 O 0.08212 0.60114 0.7169 0.0
H95 H 0.06572 0.68156 0.65223 0.0
H96 H 0.06394 0.72386 0.65794 0.0
C97 C 0.07351 0.70129 0.66778 0.0
H98 H 0.09988 0.70211 0.66802 0.0
H99 H 0.08674 0.62074 0.65319 0.0
O100 O 0.03787 0.64786 0.81517 0.0
C101 C 0.05933 0.58914 0.73298 0.0
Co102 Co 1.00878 0.40599 0.77471 0.0
Co103 Co 0.9685 0.4147 0.71423 0.0
C104 C 0.94223 0.43079 0.78081 0.0
O105 O 0.9649 0.41518 0.79386 0.0
O106 O 0.9405 0.43142 0.75052 0.0
C107 C 0.03346 0.37217 0.83072 0.0
O108 O 1.00923 0.35252 0.82827 0.0
C109 C 0.91553 0.40261 0.67066 0.0
C110 C 0.93911 0.41193 0.62467 0.0
C111 C 0.9116 0.39937 0.63814 0.0
N112 N 0.94466 0.41483 0.67605 0.0
N113 N 0.95804 0.42173 0.64845 0.0
C114 C 0.89204 0.39455 0.69629 0.0
H115 H 0.90439 0.38202 0.71601 0.0
H116 H 0.87192 0.38012 0.68703 0.0
H117 H 0.88207 0.41703 0.70583 0.0
C118 C 0.04077 0.35749 0.73307 0.0
N119 N 1.01472 0.37519 0.74126 0.0
N120 N 0.99496 0.37617 0.71699 0.0
C121 C 1.00715 0.35724 0.69358 0.0
C122 C 0.03671 0.34457 0.70293 0.0
C123 C 0.07266 0.35984 0.74884 0.0
H124 H 0.07199 0.37605 0.76938 0.0
H125 H 0.08076 0.33577 0.75589 0.0
H126 H 0.09057 0.36902 0.73158 0.0
O127 O 0.02237 0.44735 0.75707 0.0
O128 O 0.99848 0.44934 0.70966 0.0
H129 H 1.00233 0.37395 0.64589 0.0
H130 H 1.0005 0.33152 0.64996 0.0
C131 C 0.99329 0.35437 0.66104 0.0
H132 H 0.96693 0.35586 0.66229 0.0
H133 H 0.98116 0.43075 0.64585 0.0
O134 O 0.0368 0.39496 0.81107 0.0
C135 C 1.0168 0.46108 0.73059 0.0
Co136 Co 0.29491 0.04813 0.41613 0.0
Co137 Co 0.35027 0.09474 0.40481 0.0
C138 C 0.28789 0.11843 0.43373 0.0
O139 O 0.27714 0.09037 0.43037 0.0
O140 O 0.31586 0.12536 0.42315 0.0
C141 C 0.23621 0.02794 0.39285 0.0
O142 O 0.24013 0.05272 0.37426 0.0
C143 C 0.40035 0.14394 0.39205 0.0
C144 C 0.44177 0.11122 0.38833 0.0
C145 C 0.43312 0.14284 0.38586 0.0
N146 N 0.39022 0.11397 0.3966 0.0
N147 N 0.41527 0.09482 0.39524 0.0
C148 C 0.37959 0.17258 0.39655 0.0
H149 H 0.36822 0.17153 0.4204 0.0
H150 H 0.36002 0.1723 0.37876 0.0
H151 H 0.39361 0.19485 0.39432 0.0
C152 C 0.32413 0.01656 0.36072 0.0
N153 N 0.31906 0.04339 0.37781 0.0
N154 N 0.34107 0.06444 0.37061 0.0
C155 C 0.35987 0.05182 0.34719 0.0
C156 C 0.35028 0.02069 0.34049 0.0
C157 C 0.30801 0.98567 0.36791 0.0
H158 H 0.30678 0.98208 0.39402 0.0
H159 H 0.28317 0.98648 0.35879 0.0
H160 H 0.32067 0.96533 0.35673 0.0
O161 O 0.32258 0.03527 0.45119 0.0
O162 O 0.36196 0.06943 0.44193 0.0
H163 H 0.41053 0.05771 0.34269 0.0
H164 H 0.38878 0.06286 0.30664 0.0
C165 C 0.38822 0.06779 0.33255 0.0
H166 H 0.38725 0.09382 0.33639 0.0
H167 H 0.41415 0.07032 0.39883 0.0
O168 O 0.25742 0.0209 0.41328 0.0
C169 C 0.34934 0.04769 0.45852 0.0
Co170 Co 0.77394 0.99827 0.41917 0.0
Co171 Co 0.71421 0.9567 0.42272 0.0
C172 C 0.78143 0.93245 0.44361 0.0
O173 O 0.79489 0.95642 0.43086 0.0
O174 O 0.75098 0.92956 0.4418 0.0
C175 C 0.8314 0.02238 0.39188 0.0
O176 O 0.83036 0.997 0.37383 0.0
C177 C 0.67191 0.90522 0.40297 0.0
C178 C 0.62502 0.92647 0.41494 0.0
C179 C 0.63914 0.90147 0.39874 0.0
N180 N 0.67664 0.93215 0.41927 0.0
N181 N 0.64854 0.94398 0.42756 0.0
C182 C 0.69846 0.88381 0.3922 0.0
H183 H 0.71096 0.87422 0.4134 0.0
H184 H 0.71636 0.89771 0.37849 0.0
H185 H 0.68923 0.86375 0.3778 0.0
C186 C 0.73871 0.02715 0.36451 0.0
N187 N 0.74421 1.00232 0.3845 0.0
N188 N 0.71876 0.98405 0.38519 0.0
C189 C 0.6965 0.9967 0.36512 0.0
C190 C 0.70821 0.0246 0.35124 0.0
C191 C 0.76004 0.0555 0.36203 0.0
H192 H 0.76489 0.06497 0.38613 0.0
H193 H 0.78311 0.04815 0.35135 0.0
H194 H 0.74928 0.07445 0.34709 0.0
O195 O 0.75141 1.01077 0.45869 0.0
O196 O 0.7047 0.98549 0.45697 0.0
H197 H 0.64941 0.99436 0.3846 0.0
H198 H 0.65053 0.99553 0.34181 0.0
C199 C 0.66254 0.9859 0.36327 0.0
H200 H 0.6617 0.95972 0.36273 0.0
H201 H 0.64542 0.96541 0.43959 0.0
O202 O 0.80956 0.02744 0.41234 0.0
C203 C 0.72411 1.00402 0.47059 0.0
Co204 Co 0.29776 1.0096 0.62783 0.0
Co205 Co 0.35274 0.96162 0.63534 0.0
C206 C 0.28782 0.94009 0.61043 0.0
O207 O 0.27743 0.96815 0.61493 0.0
O208 O 0.31631 0.93285 0.61896 0.0
C209 C 0.24103 0.03125 0.65407 0.0
O210 O 0.24558 1.00625 0.67222 0.0
C211 C 0.39604 0.91285 0.66181 0.0
C212 C 0.44221 0.93125 0.64395 0.0
C213 C 0.42902 0.90857 0.66383 0.0
N214 N 0.39042 0.93767 0.6425 0.0
N215 N 0.41806 0.94785 0.63114 0.0
C216 C 0.37012 0.89379 0.67725 0.0
H217 H 0.35491 0.90961 0.69207 0.0
H218 H 0.38018 0.87419 0.69183 0.0
H219 H 0.35446 0.88373 0.65854 0.0
C220 C 0.33023 0.04059 0.68183 0.0
N221 N 0.32402 1.0139 0.66483 0.0
N222 N 0.34721 0.99325 0.66916 0.0
C223 C 0.36862 1.00625 0.68976 0.0
C224 C 0.35877 0.0369 0.6987 0.0
C225 C 0.31309 0.0714 0.67655 0.0
H226 H 0.30955 0.07532 0.65071 0.0
H227 H 0.28918 0.07024 0.68791 0.0
H228 H 0.32639 0.09176 0.68671 0.0
O229 O 0.32442 0.02077 0.5909 0.0
O230 O 0.36403 0.98593 0.59768 0.0
H231 H 0.41692 0.99588 0.67662 0.0
H232 H 0.41119 1.00286 0.71857 0.0
C233 C 0.40053 0.99201 0.69702 0.0
H234 H 0.39775 0.96624 0.70067 0.0
H235 H 0.42064 0.96748 0.61621 0.0
O236 O 0.26125 0.03807 0.63252 0.0
C237 C 0.35057 1.00782 0.58191 0.0
Co238 Co 0.77447 0.05139 0.65114 0.0
Co239 Co 0.71294 0.09137 0.64676 0.0
C240 C 0.77925 0.1174 0.62689 0.0
O241 O 0.79305 0.09472 0.64165 0.0
O242 O 0.74869 0.11968 0.62821 0.0
C243 C 0.83335 0.02861 0.67799 0.0
O244 O 0.83225 0.05407 0.69596 0.0
C245 C 0.66514 0.14284 0.65485 0.0
C246 C 0.62075 0.11472 0.6502 0.0
C247 C 0.63197 0.1448 0.65721 0.0
N248 N 0.67295 0.11259 0.64827 0.0
N249 N 0.64629 0.09624 0.64443 0.0
C250 C 0.689 0.16913 0.65735 0.0
H251 H 0.7011 0.17194 0.63403 0.0
H252 H 0.7076 0.16268 0.67504 0.0
H253 H 0.67743 0.19196 0.66386 0.0
C254 C 0.7388 0.02105 0.7046 0.0
N255 N 0.74381 0.04595 0.68468 0.0
N256 N 0.71822 0.06418 0.68442 0.0
C257 C 0.69655 0.05172 0.70526 0.0
C258 C 0.70845 0.02348 0.71839 0.0
C259 C 0.761 0.99328 0.70727 0.0
H260 H 0.76582 0.98346 0.68327 0.0
H261 H 0.784 1.00146 0.71727 0.0
H262 H 0.75107 0.97442 0.72285 0.0
O263 O 0.75434 0.03818 0.61086 0.0
O264 O 0.70719 0.06305 0.61147 0.0
H265 H 0.64699 0.05298 0.69316 0.0
H266 H 0.65475 0.05854 0.73456 0.0
C267 C 0.66345 0.06435 0.71032 0.0
H268 H 0.66303 0.09046 0.70707 0.0
H269 H 0.6456 0.07211 0.63889 0.0
O270 O 0.81124 0.02323 0.65806 0.0
C271 C 0.72715 0.04434 0.59867 0.0
Co272 Co 0.41758 0.27209 0.04885 0.0
Co273 Co 0.41499 0.32928 0.09407 0.0
C274 C 0.43648 0.26863 0.12094 0.0
O275 O 0.43434 0.25786 0.09261 0.0
O276 O 0.42412 0.29566 0.12747 0.0
C277 C 0.38015 0.22 0.02248 0.0
O278 O 0.35627 0.23016 0.04011 0.0
C279 C 0.39995 0.38099 0.13927 0.0
C280 C 0.40971 0.42215 0.10808 0.0
C281 C 0.39677 0.41384 0.13722 0.0
N282 N 0.41272 0.37055 0.11185 0.0
N283 N 0.4195 0.39535 0.09383 0.0
C284 C 0.39158 0.35974 0.16655 0.0
H285 H 0.37434 0.34141 0.15853 0.0
H286 H 0.38143 0.37344 0.18675 0.0
H287 H 0.41348 0.34707 0.17449 0.0
C288 C 0.3686 0.31213 0.01603 0.0
N289 N 0.38392 0.30296 0.04302 0.0
N290 N 0.37908 0.32445 0.06506 0.0
C291 C 0.35819 0.34644 0.05342 0.0
C292 C 0.35092 0.33973 0.02166 0.0
C293 C 0.37772 0.30061 0.98367 0.0
H294 H 0.39153 0.27821 0.98494 0.0
H295 H 0.35605 0.29771 0.9688 0.0
H296 H 0.39289 0.31884 0.97197 0.0
O297 O 0.45519 0.29232 0.03177 0.0
O298 O 0.455 0.33088 0.06812 0.0
H299 H 0.36183 0.39561 0.06564 0.0
H300 H 0.32175 0.38074 0.06447 0.0
C301 C 0.3467 0.37482 0.0714 0.0
H302 H 0.34775 0.37 0.0972 0.0
H303 H 0.42881 0.39379 0.07085 0.0
O304 O 0.40715 0.23396 0.02335 0.0
C305 C 0.46795 0.31637 0.04481 0.0
Co306 Co 0.39964 0.77281 1.00527 0.0
Co307 Co 0.41806 0.71211 0.96668 0.0
C308 C 0.4337 0.77775 0.94097 0.0
O309 O 0.42095 0.79058 0.9654 0.0
O310 O 0.43055 0.74792 0.93629 0.0
C311 C 0.36152 0.82982 0.02499 0.0
O312 O 0.34546 0.82935 0.99821 0.0
C313 C 0.40544 0.65449 0.92889 0.0
C314 C 0.45103 0.62839 0.93482 0.0
C315 C 0.42059 0.62601 0.92213 0.0
N316 N 0.42569 0.67273 0.94556 0.0
N317 N 0.45315 0.65726 0.94836 0.0
C318 C 0.37187 0.6636 0.92049 0.0
H319 H 0.35519 0.64396 0.92638 0.0
H320 H 0.37046 0.66752 0.89444 0.0
H321 H 0.36458 0.68571 0.93285 0.0
C322 C 0.34744 0.73158 0.02757 0.0
N323 N 0.36954 0.73815 1.00485 0.0
N324 N 0.37867 0.71136 0.99151 0.0
C325 C 0.3634 0.68697 1.00653 0.0
C326 C 0.34267 0.699 0.02976 0.0
C327 C 0.33464 0.75557 0.05021 0.0
H328 H 0.35457 0.76521 0.06462 0.0
H329 H 0.3238 0.77502 0.03614 0.0
H330 H 0.31625 0.74536 0.06632 0.0
O331 O 0.43726 0.75652 0.02854 0.0
O332 O 0.45173 0.71595 0.99758 0.0
H333 H 0.36697 0.63927 0.02538 0.0
H334 H 0.35979 0.64194 0.98356 0.0
C335 C 0.37297 0.65283 1.00355 0.0
H336 H 0.39903 0.65091 0.99889 0.0
H337 H 0.47296 0.66587 0.96069 0.0
O338 O 0.38293 0.80899 0.03065 0.0
C339 C 0.45687 0.73462 0.02065 0.0
Co340 Co 0.65428 0.29289 0.99066 0.0
Co341 Co 0.63985 0.35429 0.95343 0.0
C342 C 0.6276 0.28582 0.92722 0.0
O343 O 0.6457 0.27269 0.94783 0.0
O344 O 0.62444 0.31599 0.92751 0.0
C345 C 0.68168 0.2376 0.02637 0.0
O346 O 0.70632 0.23677 1.00688 0.0
C347 C 0.65969 0.40621 0.91006 0.0
C348 C 0.61422 0.43293 0.90631 0.0
C349 C 0.64621 0.43362 0.89769 0.0
N350 N 0.63699 0.39048 0.92632 0.0
N351 N 0.60968 0.40615 0.92318 0.0
C352 C 0.69367 0.39545 0.90646 0.0
H353 H 0.69899 0.37524 0.92251 0.0
H354 H 0.71029 0.41548 0.91092 0.0
H355 H 0.69758 0.38768 0.88156 0.0
C356 C 0.70833 0.33427 0.01758 0.0
N357 N 0.68578 0.32735 0.99518 0.0
N358 N 0.67825 0.35389 0.98029 0.0
C359 C 0.69452 0.37834 0.99394 0.0
C360 C 0.71437 0.36682 0.01821 0.0
C361 C 0.72164 0.31151 0.04134 0.0
H362 H 0.71574 0.28703 0.03519 0.0
H363 H 0.74806 0.31339 0.0422 0.0
H364 H 0.71258 0.31767 0.06537 0.0
O365 O 0.61159 0.31035 1.00308 0.0
O366 O 0.60491 0.35877 0.9829 0.0
H367 H 0.66326 0.41617 0.97886 0.0
H368 H 0.69357 0.42822 1.007 0.0
C369 C 0.68841 0.41264 0.98649 0.0
H370 H 0.7046 0.42015 0.96706 0.0
H371 H 0.58814 0.39924 0.9337 0.0
O372 O 0.65976 0.25813 0.02211 0.0
C373 C 0.59521 0.33572 0.99971 0.0
Co374 Co 0.64717 0.76829 0.05216 0.0
Co375 Co 0.64103 0.70994 0.09545 0.0
C376 C 0.62567 0.77274 0.12209 0.0
O377 O 0.63009 0.78391 0.09432 0.0
O378 O 0.63574 0.74479 0.1286 0.0
C379 C 0.67567 0.82815 0.03751 0.0
O380 O 0.68962 0.82565 0.06533 0.0
C381 C 0.66036 0.6541 0.13281 0.0
C382 C 0.61591 0.6257 0.13221 0.0
C383 C 0.64744 0.62537 0.14227 0.0
N384 N 0.63777 0.67046 0.1171 0.0
N385 N 0.61106 0.65364 0.1174 0.0
C386 C 0.69383 0.66545 0.13811 0.0
H387 H 0.7112 0.64607 0.13317 0.0
H388 H 0.69657 0.67216 0.16345 0.0
H389 H 0.69909 0.6865 0.12313 0.0
C390 C 0.69985 0.73157 0.02331 0.0
N391 N 0.67989 0.73667 0.04825 0.0
N392 N 0.67626 0.71011 0.0643 0.0
C393 C 0.69361 0.68703 0.04933 0.0
C394 C 0.70959 0.69991 0.02294 0.0
C395 C 0.70526 0.75521 0.99732 0.0
H396 H 0.71525 0.77725 1.00764 0.0
H397 H 0.72192 0.74597 0.97892 0.0
H398 H 0.682 0.76128 0.98613 0.0
O399 O 0.60836 0.75027 0.03415 0.0
O400 O 0.60055 0.71465 0.07248 0.0
H401 H 0.69628 0.63775 0.03523 0.0
H402 H 0.70892 0.64599 0.07497 0.0
C403 C 0.69107 0.65232 0.05659 0.0
H404 H 0.6668 0.64658 0.06552 0.0
H405 H 0.58972 0.66083 0.10671 0.0
O406 O 0.65765 0.80614 0.02748 0.0
C407 C 0.59056 0.73059 0.04883 0.0
Co408 Co 0.56502 0.90618 0.80092 0.0
Co409 Co 0.60308 0.92331 0.86095 0.0
C410 C 0.63255 0.93202 0.79537 0.0
O411 O 0.60718 0.92152 0.78222 0.0
O412 O 0.63606 0.92932 0.82545 0.0
C413 C 0.53789 0.89447 0.73825 0.0
O414 O 0.56311 0.90797 0.72541 0.0
C415 C 0.6399 0.90758 0.91776 0.0
C416 C 0.63918 0.953 0.94405 0.0
C417 C 0.64891 0.92161 0.94599 0.0
N418 N 0.62477 0.92937 0.90003 0.0
N419 N 0.62501 0.95668 0.91554 0.0
C420 C 0.64464 0.87362 0.90846 0.0
H421 H 0.6329 0.86845 0.88544 0.0
H422 H 0.63519 0.85774 0.92732 0.0
H423 H 0.67068 0.86871 0.90631 0.0
C424 C 0.53825 0.85595 0.84185 0.0
N425 N 0.56178 0.87738 0.83596 0.0
N426 N 0.57449 0.88643 0.86299 0.0
C427 C 0.55843 0.87158 0.88704 0.0
C428 C 0.53494 0.85146 0.87448 0.0
C429 C 0.51611 0.84323 0.81709 0.0
H430 H 0.49865 0.86198 0.8104 0.0
H431 H 0.52995 0.83636 0.79563 0.0
H432 H 0.5027 0.82231 0.82608 0.0
O433 O 0.54577 0.94665 0.81453 0.0
O434 O 0.57701 0.96111 0.85467 0.0
H435 H 0.53773 0.87845 0.93347 0.0
H436 H 0.57792 0.86352 0.9332 0.0
C437 C 0.5613 0.88031 0.92135 0.0
H438 H 0.57058 0.9048 0.9239 0.0
H439 H 0.61446 0.97756 0.90717 0.0
O440 O 0.53626 0.89076 0.76805 0.0
C441 C 0.5551 0.96715 0.83468 0.0
Co442 Co 0.50926 0.15363 0.77492 0.0
Co443 Co 0.46693 0.14423 0.83435 0.0
C444 C 0.44019 0.12944 0.76901 0.0
O445 O 0.46514 0.14231 0.75709 0.0
O446 O 0.43616 0.13041 0.79916 0.0
C447 C 0.53469 0.19424 0.7239 0.0
O448 O 0.5153 0.21695 0.73332 0.0
C449 C 0.41904 0.1496 0.8863 0.0
C450 C 0.45134 0.14247 0.92726 0.0
C451 C 0.42037 0.15122 0.91936 0.0
N452 N 0.44838 0.14193 0.8755 0.0
N453 N 0.46717 0.1366 0.90014 0.0
C454 C 0.39081 0.15513 0.86514 0.0
H455 H 0.38672 0.13357 0.85057 0.0
H456 H 0.39614 0.17485 0.84843 0.0
H457 H 0.36888 0.16053 0.87909 0.0
C458 C 0.54011 0.20081 0.81768 0.0
N459 N 0.51425 0.18348 0.80876 0.0
N460 N 0.49342 0.18294 0.83219 0.0
C461 C 0.50452 0.20241 0.85561 0.0
C462 C 0.53483 0.21426 0.84744 0.0
C463 C 0.57248 0.1979 0.80273 0.0
H464 H 0.57196 0.18298 0.78119 0.0
H465 H 0.58189 0.22186 0.79729 0.0
H466 H 0.58926 0.18694 0.82002 0.0
O467 O 0.52687 0.11338 0.79104 0.0
O468 O 0.49582 0.10761 0.83368 0.0
H469 H 0.49663 0.19267 0.90495 0.0
H470 H 0.49206 0.23348 0.89409 0.0
C471 C 0.48746 0.20876 0.88621 0.0
H472 H 0.4614 0.20512 0.88332 0.0
H473 H 0.49144 0.13091 0.89835 0.0
O474 O 0.53521 0.16755 0.73813 0.0
C475 C 0.51775 0.09754 0.81524 0.0
Co476 Co 0.55874 0.13472 0.27004 0.0
Co477 Co 0.60302 0.13605 0.2114 0.0
C478 C 0.62963 0.11452 0.27479 0.0
O479 O 0.60207 0.1199 0.28676 0.0
O480 O 0.63522 0.12262 0.24596 0.0
C481 C 0.53656 0.17432 0.32097 0.0
O482 O 0.55782 0.19458 0.31017 0.0
C483 C 0.65102 0.1527 0.16276 0.0
C484 C 0.62223 0.14434 0.11957 0.0
C485 C 0.65055 0.15767 0.13006 0.0
N486 N 0.62325 0.13896 0.17113 0.0
N487 N 0.6068 0.13284 0.14509 0.0
C488 C 0.67687 0.16097 0.18587 0.0
H489 H 0.68571 0.13886 0.19727 0.0
H490 H 0.66682 0.17613 0.20503 0.0
H491 H 0.69714 0.17316 0.1739 0.0
C492 C 0.52509 0.18318 0.23083 0.0
N493 N 0.55264 0.16794 0.23905 0.0
N494 N 0.57401 0.17216 0.21648 0.0
C495 C 0.56116 0.19236 0.1945 0.0
C496 C 0.52968 0.20003 0.20275 0.0
C497 C 0.4928 0.17509 0.24397 0.0
H498 H 0.49448 0.16376 0.26755 0.0
H499 H 0.47751 0.19666 0.24493 0.0
H500 H 0.48094 0.15806 0.22774 0.0
O501 O 0.54281 0.09651 0.24912 0.0
O502 O 0.57461 0.09916 0.2066 0.0
H503 H 0.56724 0.18447 0.14482 0.0
H504 H 0.56951 0.22529 0.15648 0.0
C505 C 0.57623 0.20073 0.16347 0.0
H506 H 0.60248 0.19888 0.1652 0.0
H507 H 0.58388 0.12303 0.14499 0.0
O508 O 0.53343 0.14722 0.30787 0.0
C509 C 0.55292 0.08538 0.2227 0.0
Co510 Co 0.50096 0.91128 0.26536 0.0
Co511 Co 0.45674 0.90955 0.2069 0.0
C512 C 0.42822 0.92655 0.27035 0.0
O513 O 0.45644 0.92284 0.28136 0.0
O514 O 0.42336 0.92005 0.24107 0.0
C515 C 0.53758 0.8798 0.31467 0.0
O516 O 0.52585 0.85315 0.30346 0.0
C517 C 0.4092 0.90172 0.15517 0.0
C518 C 0.44199 0.90386 0.11387 0.0
C519 C 0.41046 0.89831 0.12234 0.0
N520 N 0.439 0.90751 0.16558 0.0
N521 N 0.45819 0.90984 0.14068 0.0
C522 C 0.38039 0.90044 0.17627 0.0
H523 H 0.37693 0.92413 0.18723 0.0
H524 H 0.38454 0.8831 0.19573 0.0
H525 H 0.35846 0.89416 0.16286 0.0
C526 C 0.53531 0.86084 0.226 0.0
N527 N 0.50862 0.87771 0.23434 0.0
N528 N 0.48681 0.87386 0.21214 0.0
C529 C 0.49818 0.85236 0.19064 0.0
C530 C 0.52953 0.84369 0.19834 0.0
C531 C 0.56819 0.86652 0.23892 0.0
H532 H 0.56918 0.86165 0.26454 0.0
H533 H 0.58639 0.85107 0.2275 0.0
H534 H 0.57479 0.89161 0.23441 0.0
O535 O 0.51483 0.95006 0.24509 0.0
O536 O 0.48162 0.94895 0.20382 0.0
H537 H 0.4908 0.85446 0.14046 0.0
H538 H 0.48485 0.81614 0.15755 0.0
C539 C 0.48087 0.84191 0.16145 0.0
H540 H 0.45482 0.84653 0.16365 0.0
H541 H 0.48272 0.91426 0.14217 0.0
O542 O 0.52777 0.90601 0.30347 0.0
C543 C 0.50328 0.96235 0.22005 0.0
Co544 Co 0.78937 0.55659 0.90623 0.0
Co545 Co 0.8473 0.60134 0.91227 0.0
C546 C 0.78376 0.62702 0.92718 0.0
O547 O 0.7732 0.59888 0.92355 0.0
O548 O 0.81158 0.63394 0.91664 0.0
C549 C 0.73426 0.532 0.87058 0.0
O550 O 0.73955 0.55292 0.84802 0.0
C551 C 0.90557 0.6397 0.89956 0.0
C552 C 0.93084 0.63395 0.94531 0.0
C553 C 0.93397 0.64645 0.91507 0.0
N554 N 0.88697 0.62263 0.91923 0.0
N555 N 0.90186 0.62019 0.94686 0.0
C556 C 0.89632 0.6496 0.86671 0.0
H557 H 0.8746 0.63671 0.85878 0.0
H558 H 0.91654 0.64569 0.84999 0.0
H559 H 0.89103 0.67543 0.86674 0.0
C560 C 0.83083 0.52553 0.85868 0.0
N561 N 0.82325 0.55203 0.87543 0.0
N562 N 0.84846 0.57066 0.87695 0.0
C563 C 0.87264 0.5566 0.86014 0.0
C564 C 0.86242 0.52725 0.84785 0.0
C565 C 0.81036 0.4964 0.85845 0.0
H566 H 0.79945 0.49275 0.88223 0.0
H567 H 0.79082 0.49976 0.84102 0.0
H568 H 0.82426 0.47491 0.85181 0.0
O569 O 0.80615 0.53824 0.94454 0.0
O570 O 0.84288 0.57587 0.9513 0.0
H571 H 0.91437 0.57592 0.88238 0.0
H572 H 0.92302 0.55206 0.84767 0.0
C573 C 0.90604 0.56926 0.85834 0.0
H574 H 0.90611 0.59053 0.84294 0.0
H575 H 0.8928 0.6081 0.96656 0.0
O576 O 0.75206 0.53091 0.89496 0.0
C577 C 0.82744 0.5518 0.96109 0.0
Co578 Co 0.28164 0.4936 0.91201 0.0
Co579 Co 0.21719 0.45891 0.91976 0.0
C580 C 0.28282 0.42651 0.93275 0.0
O581 O 0.29778 0.44877 0.91838 0.0
O582 O 0.25215 0.42707 0.93391 0.0
C583 C 0.34225 0.5206 0.88816 0.0
O584 O 0.34513 0.49699 0.868 0.0
C585 C 0.1655 0.41238 0.90898 0.0
C586 C 0.12358 0.44299 0.91898 0.0
C587 C 0.13221 0.41346 0.90729 0.0
N588 N 0.17579 0.44063 0.91953 0.0
N589 N 0.1506 0.45829 0.92664 0.0
C590 C 0.18737 0.38535 0.90087 0.0
H591 H 0.20205 0.37943 0.92202 0.0
H592 H 0.20414 0.39278 0.88177 0.0
H593 H 0.1738 0.36401 0.89344 0.0
C594 C 0.24522 0.52798 0.86119 0.0
N595 N 0.24934 0.50261 0.88075 0.0
N596 N 0.22232 0.48674 0.88265 0.0
C597 C 0.20053 0.50127 0.8634 0.0
C598 C 0.21401 0.52824 0.84938 0.0
C599 C 0.26929 0.55389 0.85725 0.0
H600 H 0.27581 0.56346 0.88091 0.0
H601 H 0.29121 0.54385 0.84628 0.0
H602 H 0.26004 0.5734 0.84205 0.0
O603 O 0.26492 0.50506 0.95408 0.0
O604 O 0.2153 0.48635 0.95647 0.0
H605 H 0.15231 0.50306 0.88009 0.0
H606 H 0.15605 0.50036 0.8377 0.0
C607 C 0.16619 0.49189 0.86057 0.0
H608 H 0.16386 0.46575 0.86199 0.0
H609 H 0.15193 0.48156 0.93503 0.0
O610 O 0.31834 0.5222 0.90674 0.0
C611 C 0.23845 0.50142 0.96856 0.0
Co612 Co 0.7913 0.49874 0.14715 0.0
Co613 Co 0.85453 0.46513 0.13292 0.0
C614 C 0.78642 0.43775 0.11777 0.0
O615 O 0.77278 0.45523 0.1385 0.0
O616 O 0.81666 0.44026 0.1143 0.0
C617 C 0.73304 0.52568 0.17618 0.0
O618 O 0.73283 0.50201 0.19653 0.0
C619 C 0.90818 0.42321 0.15215 0.0
C620 C 0.93364 0.41832 0.10627 0.0
C621 C 0.93525 0.41042 0.13812 0.0
N622 N 0.89141 0.43866 0.12974 0.0
N623 N 0.9064 0.43496 0.10225 0.0
C624 C 0.89942 0.42174 0.18659 0.0
H625 H 0.87639 0.43407 0.19119 0.0
H626 H 0.91878 0.43244 0.20102 0.0
H627 H 0.89739 0.39651 0.19396 0.0
C628 C 0.82977 0.52807 0.19927 0.0
N629 N 0.82481 0.50423 0.17814 0.0
N630 N 0.85244 0.49068 0.17148 0.0
C631 C 0.87585 0.50627 0.18761 0.0
C632 C 0.86234 0.53033 0.20617 0.0
C633 C 0.80456 0.55113 0.20938 0.0
H634 H 0.79525 0.56394 0.18827 0.0
H635 H 0.78461 0.53775 0.22037 0.0
H636 H 0.81391 0.56859 0.22675 0.0
O637 O 0.80875 0.51232 0.10497 0.0
O638 O 0.85946 0.49616 0.1005 0.0
H639 H 0.92226 0.52676 0.17938 0.0
H640 H 0.92246 0.48984 0.20042 0.0
C641 C 0.91086 0.503 0.1807 0.0
H642 H 0.91493 0.49025 0.15805 0.0
H643 H 0.89871 0.44493 0.08087 0.0
O644 O 0.75498 0.52774 0.15531 0.0
C645 C 0.83532 0.51102 0.08993 0.0
Co646 Co 0.26963 0.5586 0.15559 0.0
Co647 Co 0.20795 0.59563 0.13847 0.0
C648 C 0.27139 0.62581 0.12736 0.0
O649 O 0.28524 0.60022 0.13622 0.0
O650 O 0.24171 0.62988 0.13349 0.0
C651 C 0.32748 0.52474 0.15445 0.0
O652 O 0.32847 0.53669 0.12563 0.0
C653 C 0.14939 0.632 0.15079 0.0
C654 C 0.12353 0.62705 0.10529 0.0
C655 C 0.12099 0.63939 0.13567 0.0
N656 N 0.16779 0.61537 0.13061 0.0
N657 N 0.1525 0.61305 0.10322 0.0
C658 C 0.15841 0.63997 0.18421 0.0
H659 H 0.13856 0.63383 0.20067 0.0
H660 H 0.16228 0.66597 0.18602 0.0
H661 H 0.18071 0.62747 0.19126 0.0
C662 C 0.22758 0.53168 0.20546 0.0
N663 N 0.23374 0.5553 0.18433 0.0
N664 N 0.20655 0.56864 0.1759 0.0
C665 C 0.18221 0.55309 0.19084 0.0
C666 C 0.19467 0.5292 0.21037 0.0
C667 C 0.2522 0.50866 0.21717 0.0
H668 H 0.25937 0.49273 0.19742 0.0
H669 H 0.2737 0.52173 0.22528 0.0
H670 H 0.24272 0.49399 0.237 0.0
O671 O 0.2566 0.53669 0.11674 0.0
O672 O 0.2158 0.56769 0.10225 0.0
H673 H 0.13412 0.53454 0.18749 0.0
H674 H 0.13691 0.57599 0.1967 0.0
C675 C 0.14761 0.55665 0.18233 0.0
H676 H 0.14509 0.56261 0.15681 0.0
H677 H 0.16143 0.60107 0.08338 0.0
O678 O 0.30529 0.53339 0.17313 0.0
C679 C 0.23511 0.54492 0.09703 0.0
Co680 Co 0.91039 0.78701 0.57097 0.0
Co681 Co 0.92899 0.84701 0.60736 0.0
C682 C 0.93745 0.77839 0.63464 0.0
O683 O 0.91933 0.76622 0.61356 0.0
O684 O 0.94157 0.80846 0.6347 0.0
C685 C 0.89409 0.72565 0.54282 0.0
O686 O 0.8938 0.71297 0.57134 0.0
C687 C 0.90976 0.90197 0.646 0.0
C688 C 0.95571 0.92752 0.65024 0.0
C689 C 0.92335 0.92971 0.65703 0.0
N690 N 0.93285 0.88426 0.63257 0.0
N691 N 0.96041 0.89931 0.63592 0.0
C692 C 0.87502 0.89344 0.64688 0.0
H693 H 0.8609 0.91139 0.63359 0.0
H694 H 0.86646 0.89403 0.67187 0.0
H695 H 0.87097 0.86945 0.63686 0.0
C696 C 0.85929 0.82778 0.54442 0.0
N697 N 0.88113 0.82171 0.56751 0.0
N698 N 0.89106 0.84864 0.57968 0.0
C699 C 0.87666 0.87279 0.56348 0.0
C700 C 0.85563 0.86055 0.54063 0.0
C701 C 0.84504 0.80278 0.52363 0.0
H702 H 0.83973 0.78122 0.53787 0.0
H703 H 0.82281 0.81154 0.51211 0.0
H704 H 0.86251 0.79624 0.50482 0.0
O705 O 0.95299 0.80205 0.55505 0.0
O706 O 0.96508 0.84726 0.57935 0.0
H707 H 0.88905 0.91686 0.54085 0.0
H708 H 0.86906 0.92076 0.57827 0.0
C709 C 0.8872 0.90666 0.56513 0.0
H710 H 0.91068 0.90856 0.57717 0.0
H711 H 0.98221 0.89105 0.62696 0.0
O712 O 0.89887 0.75516 0.53939 0.0
C713 C 0.9719 0.82533 0.55984 0.0
Co714 Co 0.91008 0.26683 0.50053 0.0
Co715 Co 0.91754 0.20878 0.45668 0.0
C716 C 0.9294 0.27176 0.42932 0.0
O717 O 0.92533 0.28283 0.45723 0.0
O718 O 0.92106 0.24326 0.42329 0.0
C719 C 0.87754 0.3165 0.53915 0.0
O720 O 0.84927 0.30577 0.5309 0.0
C721 C 0.90467 0.15142 0.41847 0.0
C722 C 0.94939 0.12434 0.42616 0.0
C723 C 0.9192 0.12237 0.41287 0.0
N724 N 0.92459 0.16919 0.43591 0.0
N725 N 0.95173 0.15328 0.43939 0.0
C726 C 0.87249 0.16208 0.40711 0.0
H727 H 0.86468 0.18385 0.41984 0.0
H728 H 0.85466 0.14276 0.40993 0.0
H729 H 0.87412 0.16755 0.38136 0.0
C730 C 0.86081 0.22423 0.53229 0.0
N731 N 0.87919 0.23242 0.50672 0.0
N732 N 0.88141 0.20769 0.48761 0.0
C733 C 0.86331 0.18372 0.50021 0.0
C734 C 0.8495 0.19332 0.52913 0.0
C735 C 0.85926 0.24234 0.56276 0.0
H736 H 0.87988 0.25818 0.56465 0.0
H737 H 0.83676 0.25633 0.56371 0.0
H738 H 0.85933 0.22605 0.58352 0.0
O739 O 0.94968 0.25048 0.5178 0.0
O740 O 0.95794 0.21442 0.4804 0.0
H741 H 0.84946 0.13407 0.50288 0.0
H742 H 0.84643 0.15201 0.4648 0.0
C743 C 0.86121 0.15107 0.48651 0.0
H744 H 0.88547 0.14238 0.4805 0.0
H745 H 0.97149 0.1616 0.45195 0.0
O746 O 0.90252 0.30481 0.52672 0.0
C747 C 0.96767 0.23051 0.50394 0.0
Co748 Co 0.15866 0.79027 0.4896 0.0
Co749 Co 0.13819 0.85072 0.4533 0.0
C750 C 0.12916 0.7849 0.42417 0.0
O751 O 0.14203 0.77135 0.44815 0.0
O752 O 0.12943 0.81516 0.42191 0.0
C753 C 0.16319 0.72981 0.5205 0.0
O754 O 0.14012 0.72145 0.50112 0.0
C755 C 0.15325 0.90777 0.4172 0.0
C756 C 0.10765 0.93443 0.41963 0.0
C757 C 0.13927 0.93658 0.40991 0.0
N758 N 0.13133 0.88957 0.43163 0.0
N759 N 0.10385 0.90525 0.43224 0.0
C760 C 0.18747 0.89846 0.41193 0.0
H761 H 0.20362 0.91602 0.42318 0.0
H762 H 0.19266 0.89887 0.38605 0.0
H763 H 0.19234 0.87432 0.42131 0.0
C764 C 0.21029 0.83197 0.51325 0.0
N765 N 0.18764 0.82564 0.491 0.0
N766 N 0.17678 0.85255 0.4794 0.0
C767 C 0.19121 0.87683 0.49517 0.0
C768 C 0.21338 0.86479 0.51705 0.0
C769 C 0.22593 0.80712 0.53339 0.0
H770 H 0.23213 0.78618 0.51861 0.0
H771 H 0.24785 0.8165 0.54488 0.0
H772 H 0.20897 0.79939 0.55219 0.0
O773 O 0.11875 0.80477 0.51073 0.0
O774 O 0.10263 0.84623 0.48221 0.0
H775 H 0.19513 0.92452 0.47813 0.0
H776 H 0.15458 0.91172 0.48611 0.0
C777 C 0.17972 0.91051 0.49437 0.0
H778 H 0.1814 0.92143 0.51831 0.0
H779 H 0.08293 0.8967 0.44279 0.0
O780 O 0.17571 0.75705 0.51778 0.0
C781 C 0.09818 0.82622 0.50433 0.0
Co782 Co 0.16011 0.26633 0.55963 0.0
Co783 Co 0.13902 0.20604 0.59389 0.0
C784 C 0.13024 0.27391 0.6225 0.0
O785 O 0.14937 0.28635 0.60236 0.0
O786 O 0.12568 0.24395 0.62157 0.0
C787 C 0.17571 0.32864 0.53498 0.0
O788 O 0.17343 0.33929 0.5642 0.0
C789 C 0.15675 0.15103 0.63212 0.0
C790 C 0.11096 0.12494 0.6348 0.0
C791 C 0.14322 0.12283 0.64202 0.0
N792 N 0.13388 0.16878 0.6186 0.0
N793 N 0.10634 0.15351 0.6211 0.0
C794 C 0.19138 0.15989 0.63388 0.0
H795 H 0.19522 0.1846 0.6256 0.0
H796 H 0.2059 0.14316 0.61947 0.0
H797 H 0.19969 0.15761 0.65882 0.0
C798 C 0.21156 0.22524 0.53394 0.0
N799 N 0.189 0.23127 0.55646 0.0
N800 N 0.17809 0.20429 0.56774 0.0
C801 C 0.19259 0.18019 0.55155 0.0
C802 C 0.21472 0.19248 0.52966 0.0
C803 C 0.22685 0.25035 0.51389 0.0
H804 H 0.23214 0.27154 0.52861 0.0
H805 H 0.24922 0.24139 0.50272 0.0
H806 H 0.21002 0.25756 0.49482 0.0
O807 O 0.1179 0.25214 0.54173 0.0
O808 O 0.10446 0.20637 0.56445 0.0
H809 H 0.17933 0.13733 0.52737 0.0
H810 H 0.19893 0.13151 0.56465 0.0
C811 C 0.18122 0.14654 0.55201 0.0
H812 H 0.15759 0.14472 0.56387 0.0
H813 H 0.08473 0.16179 0.61181 0.0
O814 O 0.17367 0.2991 0.52963 0.0
C815 C 0.09862 0.2289 0.54532 0.0
C816 C 0.13161 0.35786 0.46337 0.0
C817 C 0.15136 0.38303 0.4526 0.0
C818 C 0.18907 0.37212 0.49597 0.0
C819 C 0.16717 0.34962 0.50835 0.0
N820 N 0.11375 0.32769 0.50858 0.0
N821 N 0.19775 0.41621 0.45963 0.0
C822 C 0.1373 0.3445 0.49346 0.0
C823 C 0.17984 0.39083 0.46923 0.0
N824 N 0.10778 0.34602 0.44475 0.0
N825 N 0.21872 0.375 0.50926 0.0
H826 H 0.1925 0.42921 0.43915 0.0
H827 H 0.21681 0.42525 0.47268 0.0
H828 H 0.22565 0.36207 0.52929 0.0
H829 H 0.23699 0.38866 0.49941 0.0
H830 H 0.09494 0.32559 0.45048 0.0
H831 H 0.10345 0.35393 0.42186 0.0
H832 H 0.09034 0.32626 0.50016 0.0
H833 H 0.11652 0.31816 0.53126 0.0
C834 C 0.8823 0.67002 0.47245 0.0
C835 C 0.91106 0.67642 0.45552 0.0
C836 C 0.93011 0.7091 0.49935 0.0
C837 C 0.90016 0.70571 0.51473 0.0
N838 N 0.84613 0.68595 0.51499 0.0
N839 N 0.95817 0.70924 0.44958 0.0
C840 C 0.87571 0.68691 0.50109 0.0
C841 C 0.93368 0.69817 0.46793 0.0
N842 N 0.86152 0.64769 0.46125 0.0
N843 N 0.95555 0.72204 0.51513 0.0
H844 H 0.96061 0.70343 0.42582 0.0
H845 H 0.97348 0.72739 0.45671 0.0
H846 H 0.95423 0.72949 0.53872 0.0
H847 H 0.97879 0.72211 0.50603 0.0
H848 H 0.84195 0.63939 0.47417 0.0
H849 H 0.86479 0.63634 0.43945 0.0
H850 H 0.82629 0.67539 0.50448 0.0
H851 H 0.84101 0.69751 0.53633 0.0
C852 C 0.18082 0.667 0.58308 0.0
C853 C 0.16567 0.68103 0.60983 0.0
C854 C 0.15175 0.72769 0.57848 0.0
C855 C 0.16617 0.71358 0.55141 0.0
N856 N 0.2005 0.67342 0.52896 0.0
N857 N 0.14859 0.72952 0.63551 0.0
C858 C 0.1829 0.68439 0.55407 0.0
C859 C 0.15537 0.71306 0.60843 0.0
N860 N 0.19185 0.63652 0.58531 0.0
N861 N 0.13261 0.75391 0.5754 0.0
H862 H 0.15147 0.72003 0.65804 0.0
H863 H 0.14382 0.75383 0.63572 0.0
H864 H 0.12822 0.76499 0.55375 0.0
H865 H 0.11838 0.76271 0.59378 0.0
H866 H 0.19982 0.62328 0.56597 0.0
H867 H 0.19208 0.62425 0.6069 0.0
H868 H 0.21539 0.6536 0.53016 0.0
H869 H 0.2019 0.68562 0.5074 0.0
C870 C 0.90042 0.34423 0.62188 0.0
C871 C 0.89135 0.37652 0.62067 0.0
C872 C 0.86541 0.36696 0.5693 0.0
C873 C 0.88117 0.33696 0.56759 0.0
N874 N 0.91995 0.30034 0.59173 0.0
N875 N 0.86345 0.41892 0.59458 0.0
C876 C 0.90027 0.32635 0.59367 0.0
C877 C 0.87271 0.38779 0.59497 0.0
N878 N 0.90992 0.33041 0.64968 0.0
N879 N 0.84468 0.37611 0.54592 0.0
H880 H 0.86716 0.43386 0.61402 0.0
H881 H 0.85322 0.43007 0.57497 0.0
H882 H 0.84086 0.36292 0.52534 0.0
H883 H 0.83007 0.39611 0.5476 0.0
H884 H 0.91336 0.30598 0.65201 0.0
H885 H 0.91088 0.34227 0.67119 0.0
H886 H 0.93699 0.29507 0.60904 0.0
H887 H 0.92256 0.28564 0.5722 0.0
C888 C 0.51487 0.17258 0.37598 0.0
C889 C 0.51248 0.1842 0.34465 0.0
C890 C 0.4544 0.18367 0.34742 0.0
C891 C 0.45656 0.16766 0.37706 0.0
N892 N 0.48677 0.15948 0.42492 0.0
N893 N 0.48085 0.21416 0.30724 0.0
C894 C 0.48625 0.167 0.39338 0.0
C895 C 0.4827 0.195 0.33317 0.0
N896 N 0.54422 0.16497 0.38799 0.0
N897 N 0.42621 0.18601 0.33131 0.0
H898 H 0.50104 0.22354 0.29598 0.0
H899 H 0.50104 0.22354 0.29598 0.0
H900 H 0.4049 0.1762 0.33935 0.0
H901 H 0.42467 0.19697 0.30908 0.0
H902 H 0.54751 0.15312 0.40948 0.0
H903 H 0.56529 0.16999 0.37556 0.0
H904 H 0.50741 0.16014 0.43874 0.0
H905 H 0.46564 0.15539 0.43763 0.0
C906 C 0.59489 0.86533 0.38393 0.0
C907 C 0.62135 0.88384 0.37403 0.0
C908 C 0.59459 0.89676 0.32426 0.0
C909 C 0.56704 0.87944 0.33445 0.0
N910 N 0.54299 0.84263 0.37171 0.0
N911 N 0.65115 0.90552 0.32982 0.0
C912 C 0.56807 0.86172 0.36332 0.0
C913 C 0.62283 0.89547 0.34256 0.0
N914 N 0.59493 0.85288 0.41393 0.0
N915 N 0.59399 0.91578 0.29785 0.0
H916 H 0.67254 0.90572 0.34216 0.0
H917 H 0.65421 0.91043 0.30572 0.0
H918 H 0.57558 0.91673 0.28145 0.0
H919 H 0.61147 0.93278 0.29311 0.0
H920 H 0.57515 0.84241 0.42473 0.0
H921 H 0.61517 0.85393 0.42844 0.0
H922 H 0.54379 0.82654 0.39048 0.0
H923 H 0.52152 0.84183 0.35921 0.0
C924 C 0.4819 0.91267 0.73111 0.0
C925 C 0.50751 0.89312 0.72067 0.0
C926 C 0.47401 0.87283 0.67768 0.0
C927 C 0.4487 0.89267 0.68834 0.0
N928 N 0.4248 0.91954 0.73314 0.0
N929 N 0.52622 0.84952 0.68854 0.0
C930 C 0.45131 0.90833 0.71788 0.0
C931 C 0.503 0.87135 0.69542 0.0
N932 N 0.48708 0.93689 0.75212 0.0
N933 N 0.47059 0.85674 0.64976 0.0
H934 H 0.54783 0.84842 0.70092 0.0
H935 H 0.52323 0.83127 0.67216 0.0
H936 H 0.44885 0.85649 0.63753 0.0
H937 H 0.48919 0.84468 0.63847 0.0
H938 H 0.4696 0.95367 0.75786 0.0
H939 H 0.50966 0.94259 0.7609 0.0
H940 H 0.42552 0.9291 0.75597 0.0
H941 H 0.40181 0.91564 0.72479 0.0
C942 C 0.55492 0.18802 0.66881 0.0
C943 C 0.55948 0.20005 0.69969 0.0
C944 C 0.61539 0.18513 0.69889 0.0
C945 C 0.6109 0.17083 0.66857 0.0
N946 N 0.58012 0.16974 0.62012 0.0
N947 N 0.59588 0.2255 0.73508 0.0
C948 C 0.58191 0.17644 0.65178 0.0
C949 C 0.59065 0.20449 0.71114 0.0
N950 N 0.52468 0.18586 0.65687 0.0
N951 N 0.6407 0.17739 0.71788 0.0
H952 H 0.5773 0.23974 0.74377 0.0
H953 H 0.61874 0.23079 0.74345 0.0
H954 H 0.65759 0.16018 0.7121 0.0
H955 H 0.64272 0.18558 0.74116 0.0
H956 H 0.51925 0.17399 0.63586 0.0
H957 H 0.50498 0.19528 0.669 0.0
H958 H 0.56013 0.17504 0.60631 0.0
H959 H 0.59999 0.16178 0.60726 0.0
C960 C 0.32699 0.4657 0.15196 0.0
C961 C 0.34333 0.49397 0.16031 0.0
C962 C 0.39307 0.46413 0.1677 0.0
C963 C 0.37746 0.43657 0.15623 0.0
N964 N 0.32766 0.40849 0.14901 0.0
N965 N 0.38877 0.51952 0.18393 0.0
C966 C 0.34373 0.43643 0.15249 0.0
C967 C 0.37539 0.49292 0.17106 0.0
N968 N 0.29601 0.46706 0.14152 0.0
N969 N 0.42518 0.4628 0.17371 0.0
H970 H 0.37604 0.54075 0.18637 0.0
H971 H 0.41142 0.52011 0.19414 0.0
H972 H 0.43788 0.44141 0.17292 0.0
H973 H 0.43923 0.48248 0.17889 0.0
H974 H 0.28438 0.44822 0.1305 0.0
H975 H 0.28223 0.48767 0.14213 0.0
H976 H 0.30281 0.40668 0.14939 0.0
H977 H 0.33892 0.38656 0.14925 0.0
C978 C 0.39784 0.57235 0.93414 0.0
C979 C 0.40498 0.59638 0.9115 0.0
C980 C 0.37545 0.56724 0.87058 0.0
C981 C 0.36858 0.54332 0.89333 0.0
N982 N 0.38104 0.51807 0.94312 0.0
N983 N 0.40666 0.61401 0.85705 0.0
C984 C 0.38249 0.54426 0.92392 0.0
C985 C 0.39576 0.59291 0.87926 0.0
N986 N 0.40378 0.57709 0.96573 0.0
N987 N 0.36142 0.56616 0.84132 0.0
H988 H 0.42139 0.63312 0.86283 0.0
H989 H 0.40329 0.61123 0.83271 0.0
H990 H 0.34779 0.5469 0.83375 0.0
H991 H 0.36211 0.58481 0.82508 0.0
H992 H 0.39548 0.56197 0.98353 0.0
H993 H 0.41451 0.59749 0.97467 0.0
H994 H 0.39334 0.51621 0.96456 0.0
H995 H 0.37026 0.49692 0.93597 0.0
C996 C 0.68468 0.5151 0.89725 0.0
C997 C 0.70533 0.51202 0.87081 0.0
C998 C 0.6797 0.46171 0.85691 0.0
C999 C 0.66394 0.46198 0.88682 0.0
N1000 N 0.6549 0.48746 0.93773 0.0
N1001 N 0.7225 0.48336 0.8243 0.0
C1002 C 0.66686 0.4885 0.90745 0.0
C1003 C 0.70246 0.48586 0.84987 0.0
N1004 N 0.68264 0.54349 0.91284 0.0
N1005 N 0.67281 0.43845 0.83539 0.0
H1006 H 0.73809 0.50149 0.81765 0.0
H1007 H 0.7245 0.46299 0.81043 0.0
H1008 H 0.65631 0.42046 0.84009 0.0
H1009 H 0.68138 0.43839 0.81214 0.0
H1010 H 0.66587 0.54806 0.93064 0.0
H1011 H 0.69546 0.56348 0.90548 0.0
H1012 H 0.65966 0.50482 0.95468 0.0
H1013 H 0.6429 0.46795 0.94718 0.0
C1014 C 0.67897 0.59767 0.18484 0.0
C1015 C 0.66529 0.59737 0.15398 0.0
C1016 C 0.68648 0.54404 0.14519 0.0
C1017 C 0.70509 0.54694 0.17297 0.0
N1018 N 0.71868 0.57529 0.2206 0.0
N1019 N 0.65981 0.57181 0.10271 0.0
C1020 C 0.70095 0.57326 0.19348 0.0
C1021 C 0.66966 0.5708 0.13367 0.0
N1022 N 0.67055 0.62097 0.20585 0.0
N1023 N 0.68483 0.51546 0.13001 0.0
H1024 H 0.64862 0.59145 0.09251 0.0
H1025 H 0.66563 0.55428 0.08621 0.0
H1026 H 0.69609 0.49521 0.139 0.0
H1027 H 0.66943 0.51111 0.11108 0.0
H1028 H 0.6775 0.62106 0.22959 0.0
H1029 H 0.65438 0.63902 0.20014 0.0
H1030 H 0.71995 0.59564 0.23457 0.0
H1031 H 0.73294 0.5566 0.22859 0.0
C1032 C 0.99259 0.7534 0.7045 0.0
C1033 C 1.00515 0.72364 0.69426 0.0
C1034 C 0.97264 0.72851 0.6454 0.0
C1035 C 0.95812 0.75743 0.65643 0.0
N1036 N 0.94883 0.79149 0.70163 0.0
N1037 N 0.99764 0.67853 0.66004 0.0
C1038 C 0.96654 0.76808 0.68755 0.0
C1039 C 0.99216 0.70989 0.66635 0.0
N1040 N 1.00606 0.76827 0.72997 0.0
N1041 N 0.97003 0.71935 0.61438 0.0
H1042 H 1.01068 0.66383 0.67525 0.0
H1043 H 0.98618 0.66641 0.64173 0.0
H1044 H 0.95803 0.73219 0.59704 0.0
H1045 H 0.98317 0.70053 0.60488 0.0
H1046 H 1.00039 0.79147 0.73649 0.0
H1047 H 0.02484 0.75838 0.74297 0.0
H1048 H 0.9519 0.79834 0.7252 0.0
H1049 H 0.92856 0.80134 0.69102 0.0
C1050 C 0.07572 0.34207 0.65572 0.0
C1051 C 0.06214 0.32748 0.68304 0.0
C1052 C 0.10011 0.28267 0.67515 0.0
C1053 C 0.10941 0.29443 0.64464 0.0
N1054 N 0.09923 0.33442 0.60394 0.0
N1055 N 0.05962 0.2813 0.71677 0.0
C1056 C 0.09553 0.32399 0.63447 0.0
C1057 C 0.07393 0.29706 0.69219 0.0
N1058 N 0.07076 0.3737 0.65043 0.0
N1059 N 0.1172 0.25852 0.6887 0.0
H1060 H 0.04059 0.29085 0.72974 0.0
H1061 H 0.06476 0.25773 0.7224 0.0
H1062 H 0.13763 0.24885 0.67815 0.0
H1063 H 0.11349 0.25082 0.71196 0.0
H1064 H 0.08272 0.38634 0.63272 0.0
H1065 H 0.05757 0.38801 0.66591 0.0
H1066 H 0.08652 0.35369 0.59479 0.0
H1067 H 0.11193 0.32227 0.5866 0.0
C1068 C 0.94362 0.32114 0.39637 0.0
C1069 C 0.95126 0.28972 0.40651 0.0
C1070 C 1.00304 0.29403 0.37755 0.0
C1071 C 0.99687 0.32639 0.37033 0.0
N1072 N 0.96181 0.37162 0.37422 0.0
N1073 N 0.99174 0.2487 0.41113 0.0
C1074 C 0.9672 0.34014 0.38006 0.0
C1075 C 0.98179 0.27673 0.39798 0.0
N1076 N 0.9134 0.33251 0.40164 0.0
N1077 N 0.02927 0.27947 0.36456 0.0
H1078 H 0.97771 0.23505 0.4263 0.0
H1079 H 1.01513 0.24024 0.40933 0.0
H1080 H 0.04579 0.29137 0.35025 0.0
H1081 H 0.03314 0.25505 0.3656 0.0
H1082 H 0.90488 0.35386 0.39246 0.0
H1083 H 0.89582 0.3192 0.41318 0.0
H1084 H 0.94259 0.38431 0.3836 0.0
H1085 H 0.97777 0.38569 0.36133 0.0
C1086 C 0.11607 0.74008 0.38458 0.0
C1087 C 0.10595 0.76629 0.40349 0.0
C1088 C 0.05068 0.7586 0.38337 0.0
C1089 C 0.06012 0.7308 0.36673 0.0
N1090 N 0.1013 0.69229 0.35543 0.0
N1091 N 0.06124 0.79483 0.42657 0.0
C1092 C 0.09276 0.72084 0.36832 0.0
C1093 C 0.07261 0.77406 0.40427 0.0
N1094 N 0.14806 0.73397 0.38159 0.0
N1095 N 0.02064 0.77075 0.37885 0.0
H1096 H 0.07577 0.8058 0.44329 0.0
H1097 H 0.03693 0.79849 0.43086 0.0
H1098 H 1.00377 0.76017 0.36403 0.0
H1099 H 1.01351 0.79289 0.38738 0.0
H1100 H 0.15747 0.71742 0.36574 0.0
H1101 H 0.16541 0.74737 0.39326 0.0
H1102 H 0.12372 0.68191 0.35852 0.0
H1103 H 0.08504 0.6777 0.34368 0.0
C1104 C 0.66604 0.94569 0.74572 0.0
C1105 C 0.65448 0.95418 0.77646 0.0
C1106 C 0.6822 1.00607 0.77045 0.0
C1107 C 0.69054 0.99903 0.7385 0.0
N1108 N 0.68513 0.9635 0.69398 0.0
N1109 N 0.64493 0.99729 0.81353 0.0
C1110 C 0.68105 0.96914 0.72569 0.0
C1111 C 0.66096 0.98562 0.78769 0.0
N1112 N 0.66345 0.91493 0.73586 0.0
N1113 N 0.69482 0.03232 0.7847 0.0
H1114 H 0.6275 0.98467 0.82584 0.0
H1115 H 0.64611 0.02101 0.82047 0.0
H1116 H 0.71012 0.04799 0.77292 0.0
H1117 H 0.69247 0.03684 0.80894 0.0
H1118 H 0.67413 0.90638 0.71517 0.0
H1119 H 0.65326 0.89723 0.74997 0.0
H1120 H 0.67574 0.94375 0.68246 0.0
H1121 H 0.69543 0.98001 0.67856 0.0
C1122 C 0.42957 0.09166 0.72081 0.0
C1123 C 0.41798 0.1089 0.74814 0.0
C1124 C 0.3673 0.07804 0.74334 0.0
C1125 C 0.37834 0.06283 0.71515 0.0
N1126 N 0.41563 0.06519 0.67157 0.0
N1127 N 0.37079 0.12419 0.77776 0.0
C1128 C 0.40805 0.07282 0.70223 0.0
C1129 C 0.38534 0.10369 0.75715 0.0
N1130 N 0.46136 0.09104 0.71304 0.0
N1131 N 0.33978 0.06771 0.75747 0.0
H1132 H 0.38199 0.14462 0.78615 0.0
H1133 H 0.34646 0.12323 0.78322 0.0
H1134 H 0.32589 0.04946 0.74806 0.0
H1135 H 0.33227 0.07544 0.7798 0.0
H1136 H 0.47064 0.0757 0.69587 0.0
H1137 H 0.47935 0.10261 0.72527 0.0
H1138 H 0.43544 0.07462 0.65977 0.0
H1139 H 0.4002 0.05255 0.65682 0.0
C1140 C 0.66424 0.06398 0.28027 0.0
C1141 C 0.65309 0.09342 0.2933 0.0
C1142 C 0.67694 0.07713 0.34506 0.0
C1143 C 0.68992 0.04898 0.33124 0.0
N1144 N 0.70078 0.01901 0.28385 0.0
N1145 N 0.65414 0.12994 0.3372 0.0
C1146 C 0.68507 0.04359 0.29828 0.0
C1147 C 0.66101 0.10045 0.3255 0.0
N1148 N 0.65319 0.05408 0.25143 0.0
N1149 N 0.67887 0.08118 0.3772 0.0
H1150 H 0.64321 0.14755 0.32351 0.0
H1151 H 0.66193 0.13796 0.35924 0.0
H1152 H 0.69041 0.065 0.3921 0.0
H1153 H 0.66694 0.09916 0.38942 0.0
H1154 H 0.65707 0.03132 0.24252 0.0
H1155 H 0.63751 0.06733 0.2376 0.0
H1156 H 0.70144 0.01593 0.25929 0.0
H1157 H 0.71555 1.00325 0.29618 0.0
C1158 C 0.39391 0.97784 0.33868 0.0
C1159 C 0.36885 0.99471 0.32309 0.0
C1160 C 0.37527 0.9586 0.27689 0.0
C1161 C 0.40322 0.94463 0.29059 0.0
N1162 N 0.42766 0.93075 0.34048 0.0
N1163 N 0.33698 1.00234 0.2762 0.0
C1164 C 0.40942 0.95149 0.32323 0.0
C1165 C 0.35987 0.98527 0.29192 0.0
N1166 N 0.40344 0.98734 0.36823 0.0
N1167 N 0.36125 0.94426 0.25143 0.0
H1168 H 0.32479 0.02136 0.28657 0.0
H1169 H 0.33194 0.99935 0.25216 0.0
H1170 H 0.36808 0.9217 0.2439 0.0
H1171 H 0.33977 0.95179 0.2414 0.0
H1172 H 0.42414 0.97905 0.37925 0.0
H1173 H 0.39194 1.0053 0.38095 0.0
H1174 H 0.43121 0.93255 0.36488 0.0
H1175 H 0.43534 0.90903 0.33129 0.0
C1176 C 0.76267 0.6838 0.99737 0.0
C1177 C 0.72867 0.68295 0.99706 0.0
C1178 C 0.73147 0.65253 0.94656 0.0
C1179 C 0.76542 0.6496 0.94919 0.0
N1180 N 0.81253 0.65899 0.98164 0.0
N1181 N 0.68037 0.66494 0.97185 0.0
C1182 C 0.78086 0.66467 0.97557 0.0
C1183 C 0.71303 0.66685 0.97174 0.0
N1184 N 0.77786 0.70308 0.01862 0.0
N1185 N 0.71689 0.64272 0.91926 0.0
H1186 H 0.66613 0.6763 0.98879 0.0
H1187 H 0.66748 0.65044 0.95651 0.0
H1188 H 0.72963 0.63341 0.90004 0.0
H1189 H 0.69282 0.6467 0.91424 0.0
H1190 H 0.80226 0.70806 0.01748 0.0
H1191 H 0.76568 0.71633 0.03576 0.0
H1192 H 0.82379 0.66599 1.00254 0.0
H1193 H 0.82709 0.64435 0.96794 0.0
C1194 C 0.78112 0.39208 0.07707 0.0
C1195 C 0.76693 0.41811 0.09384 0.0
C1196 C 0.71675 0.4065 0.06465 0.0
C1197 C 0.73262 0.38489 0.044 0.0
N1198 N 0.78332 0.36303 0.02729 0.0
N1199 N 0.72284 0.45599 0.09238 0.0
C1200 C 0.76586 0.37948 0.04924 0.0
C1201 C 0.73508 0.42693 0.08473 0.0
N1202 N 0.80843 0.37818 0.08823 0.0
N1203 N 0.68411 0.40755 0.06569 0.0
H1204 H 0.73641 0.47407 0.10236 0.0
H1205 H 0.70064 0.46373 0.08404 0.0
H1206 H 0.66977 0.39236 0.05232 0.0
H1207 H 0.67168 0.42134 0.08223 0.0
H1208 H 0.81827 0.35779 0.07807 0.0
H1209 H 0.81869 0.38428 0.10993 0.0
H1210 H 0.80817 0.36093 0.0285 0.0
H1211 H 0.77325 0.35416 1.00645 0.0
C1212 C 0.33958 0.67087 0.08388 0.0
C1213 C 0.32421 0.68139 0.05555 0.0
C1214 C 0.27381 0.65704 0.07458 0.0
C1215 C 0.2886 0.64779 0.10396 0.0
N1216 N 0.3342 0.65233 0.13851 0.0
N1217 N 0.27491 0.69074 0.02764 0.0
C1218 C 0.32118 0.65651 0.10904 0.0
C1219 C 0.29078 0.67655 0.05226 0.0
N1220 N 0.37196 0.67439 0.08672 0.0
N1221 N 0.24441 0.64537 0.06642 0.0
H1222 H 0.28647 0.70395 1.01006 0.0
H1223 H 0.25003 0.69174 0.02617 0.0
H1224 H 0.23127 0.62958 0.08019 0.0
H1225 H 0.23448 0.64822 0.04391 0.0
H1226 H 0.38537 0.66398 0.10479 0.0
H1227 H 0.38588 0.686 0.0697 0.0
H1228 H 0.35665 0.66081 0.14497 0.0
H1229 H 0.32119 0.64319 0.15763 0.0
C1230 C 0.29304 0.37051 0.95579 0.0
C1231 C 0.30149 0.40325 0.95372 0.0
C1232 C 0.34589 0.39225 0.99131 0.0
C1233 C 0.33443 0.36107 0.9972 0.0
N1234 N 0.2938 0.32183 0.98712 0.0
N1235 N 0.33143 0.44616 0.9781 0.0
C1236 C 0.30709 0.35055 0.97991 0.0
C1237 C 0.32678 0.41435 0.97373 0.0
N1238 N 0.27244 0.35805 0.934 0.0
N1239 N 0.37564 0.40077 1.00159 0.0
H1240 H 0.31651 0.46358 0.96863 0.0
H1241 H 0.34764 0.45511 0.9946 0.0
H1242 H 0.39097 0.385 1.01321 0.0
H1243 H 0.38632 0.42226 0.99538 0.0
H1244 H 0.26757 0.33386 0.93231 0.0
H1245 H 0.26285 0.37147 0.91546 0.0
H1246 H 0.272 0.31424 0.97788 0.0
H1247 H 0.30324 0.3067 1.00438 0.0
C1248 C 0.63641 0.89717 0.99878 0.0
C1249 C 0.65926 0.90445 0.97479 0.0
C1250 C 0.69745 0.86696 0.99812 0.0
C1251 C 0.67404 0.85888 0.02105 0.0
N1252 N 0.62623 0.87254 0.04992 0.0
N1253 N 0.71359 0.90276 0.95566 0.0
C1254 C 0.64526 0.87637 0.02371 0.0
C1255 C 0.69063 0.89155 0.97594 0.0
N1256 N 0.60559 0.908 0.99649 0.0
N1257 N 0.72544 0.85015 0.9968 0.0
H1258 H 0.70899 0.92082 0.93926 0.0
H1259 H 0.73759 0.89613 0.95672 0.0
H1260 H 0.73154 0.8333 1.01397 0.0
H1261 H 0.74203 0.85211 0.97841 0.0
H1262 H 0.58707 0.90004 1.01104 0.0
H1263 H 0.59772 0.92322 0.97862 0.0
H1264 H 0.60632 0.88671 0.05472 0.0
H1265 H 0.63229 0.85721 0.06848 0.0
C1266 C 0.38642 0.16537 1.00031 0.0
C1267 C 0.37484 0.19667 0.99696 0.0
C1268 C 0.38437 0.19546 0.94018 0.0
C1269 C 0.39742 0.16427 0.94311 0.0
N1270 N 0.39943 0.11585 0.97378 0.0
N1271 N 0.3478 0.23378 0.96315 0.0
C1272 C 0.39424 0.14784 0.97251 0.0
C1273 C 0.36817 0.20871 0.96653 0.0
N1274 N 0.39133 0.15314 0.02994 0.0
N1275 N 0.39057 0.21417 0.91439 0.0
H1276 H 0.33568 0.24344 0.98263 0.0
H1277 H 0.34067 0.24233 0.94099 0.0
H1278 H 0.40569 0.20756 0.89596 0.0
H1279 H 0.38363 0.23795 0.91326 0.0
H1280 H 0.40311 0.13168 0.03403 0.0
H1281 H 0.38448 0.16541 0.05043 0.0
H1282 H 0.39555 0.10233 0.99418 0.0
H1283 H 0.40446 0.10256 0.95343 0.0
C1284 C 0.6868 0.1844 0.05393 0.0
C1285 C 0.68108 0.21773 0.05576 0.0
C1286 C 0.6671 0.21228 0.11248 0.0
C1287 C 0.67 0.17886 0.10951 0.0
N1288 N 0.69293 0.13441 0.08232 0.0
N1289 N 0.66662 0.26381 0.08744 0.0
C1290 C 0.68348 0.16549 0.08177 0.0
C1291 C 0.67215 0.23183 0.08541 0.0
N1292 N 0.6921 0.1702 0.02517 0.0
N1293 N 0.6601 0.22557 0.1413 0.0
H1294 H 0.6733 0.27999 0.07012 0.0
H1295 H 0.65405 0.27469 0.10582 0.0
H1296 H 0.65496 0.21256 0.16152 0.0
H1297 H 0.66206 0.24965 0.14637 0.0
H1298 H 0.6928 0.1457 0.02198 0.0
H1299 H 0.6928 0.18247 1.0037 0.0
H1300 H 0.70581 0.1236 0.06407 0.0
H1301 H 0.69073 0.12043 0.10274 0.0
C1302 C 0.37122 0.8853 0.04347 0.0
C1303 C 0.35704 0.8553 0.0487 0.0
C1304 C 0.37015 0.85724 0.10461 0.0
C1305 C 0.38599 0.88671 0.09974 0.0
N1306 N 0.39105 0.93382 0.0674 0.0
N1307 N 0.32753 0.82356 0.08566 0.0
C1308 C 0.38267 0.90262 0.07009 0.0
C1309 C 0.35085 0.84533 0.07997 0.0
N1310 N 0.37565 0.89612 1.01322 0.0
N1311 N 0.37601 0.83872 0.13062 0.0
H1312 H 0.31205 0.81661 0.06756 0.0
H1313 H 0.32122 0.81627 0.10854 0.0
H1314 H 0.39302 0.84416 0.14775 0.0
H1315 H 0.36652 0.81596 0.13309 0.0
H1316 H 0.38938 0.91603 1.00776 0.0
H1317 H 0.3663 0.88434 0.99355 0.0
H1318 H 0.38718 0.94716 0.04689 0.0
H1319 H 0.39885 0.94702 0.08688 0.0
C1320 C 0.99475 0.69328 0.86713 0.0
C1321 C 0.01872 0.66974 0.86287 0.0
C1322 C 0.98894 0.63237 0.89567 0.0
C1323 C 0.96451 0.65559 0.89983 0.0
N1324 N 0.94748 0.71018 0.89644 0.0
N1325 N 0.04435 0.62231 0.88197 0.0
C1326 C 0.96857 0.68683 0.88787 0.0
C1327 C 1.01773 0.64119 0.88042 0.0
N1328 N 0.99615 0.72095 0.85024 0.0
N1329 N 0.98388 0.60133 0.90386 0.0
H1330 H 0.06592 0.62863 0.87108 0.0
H1331 H 0.04599 0.60248 0.89673 0.0
H1332 H 0.96264 0.59298 0.91373 0.0
H1333 H 0.9997 0.5831 0.8979 0.0
H1334 H 0.97736 0.73721 0.84909 0.0
H1335 H 1.01582 0.72711 0.83629 0.0
H1336 H 0.95064 0.73404 0.8908 0.0
H1337 H 0.92809 0.70597 0.91155 0.0
C1338 C 0.08974 0.3638 0.84488 0.0
C1339 C 0.05813 0.36801 0.85546 0.0
C1340 C 0.07903 0.38635 0.90624 0.0
C1341 C 0.1092 0.39187 0.89141 0.0
N1342 N 0.14004 0.39059 0.84212 0.0
N1343 N 0.02177 0.38125 0.89786 0.0
C1344 C 0.11425 0.38119 0.85971 0.0
C1345 C 0.0524 0.37802 0.88699 0.0
N1346 N 0.09591 0.34418 0.81998 0.0
N1347 N 0.07587 0.38951 0.93837 0.0
H1348 H 1.00202 0.37433 0.88442 0.0
H1349 H 1.01611 0.39196 0.91947 0.0
H1350 H 0.09535 0.39466 0.95298 0.0
H1351 H 0.05493 0.38377 0.95058 0.0
H1352 H 0.11911 0.33925 0.81211 0.0
H1353 H 0.07775 0.33021 0.81031 0.0
H1354 H 0.14263 0.38468 0.81818 0.0
H1355 H 0.15638 0.4075 0.84973 0.0
C1356 C 0.98952 0.35952 0.18922 0.0
C1357 C 1.01427 0.38152 0.19539 0.0
C1358 C 0.98951 0.42077 0.16057 0.0
C1359 C 0.96407 0.39918 0.15494 0.0
N1360 N 0.94255 0.34627 0.15792 0.0
N1361 N 0.04337 0.42843 0.18043 0.0
C1362 C 0.96503 0.36784 0.16727 0.0
C1363 C 1.01615 0.41054 0.17862 0.0
N1364 N 0.98897 0.33131 0.20525 0.0
N1365 N 0.98727 0.45165 0.15062 0.0
H1366 H 0.06325 0.42136 0.1937 0.0
H1367 H 0.04748 0.44844 0.16646 0.0
H1368 H 0.96811 0.46048 0.13746 0.0
H1369 H 1.00322 0.46931 0.1575 0.0
H1370 H 0.96973 0.31566 0.20497 0.0
H1371 H 1.0079 0.32396 0.21966 0.0
H1372 H 0.94323 0.32231 0.164 0.0
H1373 H 0.92426 0.35195 0.14203 0.0
C1374 C 0.06664 0.62958 0.1588 0.0
C1375 C 0.09154 0.65123 0.15117 0.0
C1376 C 0.06569 0.69256 0.18318 0.0
C1377 C 0.04129 0.67067 0.19107 0.0
N1378 N 1.01302 0.6223 0.17967 0.0
N1379 N 0.11153 0.70481 0.1497 0.0
C1380 C 0.03985 0.64057 0.17633 0.0
C1381 C 0.08993 0.68334 0.16123 0.0
N1382 N 0.06962 0.59804 0.15155 0.0
N1383 N 0.06626 0.72156 0.19767 0.0
H1384 H 0.12949 0.69855 0.13358 0.0
H1385 H 0.11019 0.72911 0.15404 0.0
H1386 H 0.0477 0.7294 0.21237 0.0
H1387 H 0.0854 0.73728 0.19606 0.0
H1388 H 0.05408 0.58068 0.16008 0.0
H1389 H 0.08903 0.58855 0.13921 0.0
H1390 H 1.00926 0.60138 0.16706 0.0
H1391 H 0.99309 0.62974 0.19272 0.0
C1392 C 0.89956 0.98176 0.64086 0.0
C1393 C 0.90572 0.95904 0.66507 0.0
C1394 C 0.86933 0.98687 0.70136 0.0
C1395 C 0.86235 1.00868 0.67663 0.0
N1396 N 0.87774 0.03342 0.62741 0.0
N1397 N 0.90257 0.94313 0.71993 0.0
C1398 C 0.87985 1.00822 0.64785 0.0
C1399 C 0.89261 0.96272 0.69596 0.0
N1400 N 0.91098 0.97718 0.61071 0.0
N1401 N 0.85279 0.98856 0.72936 0.0
H1402 H 0.91948 0.92517 0.71641 0.0
H1403 H 0.89605 0.94601 0.74363 0.0
H1404 H 0.83729 1.00726 0.73467 0.0
H1405 H 0.85367 0.97118 0.74694 0.0
H1406 H 0.90368 0.99067 0.59127 0.0
H1407 H 0.92615 0.95854 0.60446 0.0
H1408 H 0.89213 0.03599 0.60733 0.0
H1409 H 0.86385 0.05345 0.63242 0.0
C1410 C 0.89509 0.07058 0.42967 0.0
C1411 C 0.9023 0.09266 0.40505 0.0
C1412 C 0.8679 0.06351 0.3682 0.0
C1413 C 0.86033 0.04219 0.39317 0.0
N1414 N 0.87492 0.01843 0.44306 0.0
N1415 N 0.90201 0.10638 0.34949 0.0
C1416 C 0.87685 0.0434 0.42234 0.0
C1417 C 0.89084 0.08781 0.37373 0.0
N1418 N 0.90344 0.07652 0.46051 0.0
N1419 N 0.85222 0.06131 0.33985 0.0
H1420 H 0.91881 0.12433 0.35306 0.0
H1421 H 0.8967 0.10248 0.32566 0.0
H1422 H 0.83691 0.04255 0.33454 0.0
H1423 H 0.85357 0.07844 0.32205 0.0
H1424 H 0.89502 0.06315 0.47961 0.0
H1425 H 0.91642 0.09626 0.46774 0.0
H1426 H 0.88892 0.01658 0.46345 0.0
H1427 H 0.86187 0.99794 0.43797 0.0
C1428 C 0.18755 1.0114 0.42185 0.0
C1429 C 0.20563 1.01076 0.39344 0.0
C1430 C 0.1707 0.96956 0.37202 0.0
C1431 C 0.15714 0.96585 0.40268 0.0
N1432 N 0.15346 0.98224 0.45776 0.0
N1433 N 0.21441 0.99082 0.34045 0.0
C1434 C 0.16523 0.9869 0.42776 0.0
C1435 C 0.19682 0.99075 0.36788 0.0
N1436 N 0.19175 0.03559 0.44307 0.0
N1437 N 0.15864 0.95258 0.34714 0.0
H1438 H 0.23289 1.00689 0.33626 0.0
H1439 H 0.2117 0.97414 0.32243 0.0
H1440 H 0.13947 0.93693 0.34983 0.0
H1441 H 0.16563 0.95592 0.32362 0.0
H1442 H 0.1771 0.03905 0.46284 0.0
H1443 H 0.20781 0.05414 0.43905 0.0
H1444 H 0.16207 0.99416 0.47764 0.0
H1445 H 0.1366 0.96498 0.46345 0.0
C1446 C 0.16836 0.0725 0.62289 0.0
C1447 C 0.16146 0.09354 0.64838 0.0
C1448 C 0.20269 0.06843 0.68111 0.0
C1449 C 0.21047 0.04859 0.65501 0.0
N1450 N 0.19442 0.02391 0.60606 0.0
N1451 N 0.16561 0.10692 0.70372 0.0
C1452 C 0.1911 0.04804 0.62754 0.0
C1453 C 0.17645 0.0898 0.6783 0.0
N1454 N 0.15492 0.07709 0.59364 0.0
N1455 N 0.2213 0.06793 0.70777 0.0
H1456 H 0.14638 0.12271 0.70198 0.0
H1457 H 0.17371 0.10366 0.72687 0.0
H1458 H 0.23975 0.05155 0.71108 0.0
H1459 H 0.21937 0.08441 0.72608 0.0
H1460 H 0.16257 0.06526 0.57326 0.0
H1461 H 0.13748 0.09417 0.58901 0.0
H1462 H 0.17889 0.02049 0.58704 0.0
H1463 H 0.21074 1.00534 0.60918 0.0
C1464 C 0.48196 0.26803 0.16264 0.0
C1465 C 0.45805 0.25135 0.14484 0.0
C1466 C 0.48274 0.20074 0.16332 0.0
C1467 C 0.50463 0.2175 0.18297 0.0
N1468 N 0.52017 0.26724 0.2062 0.0
N1469 N 0.43216 0.20127 0.13477 0.0
C1470 C 0.50255 0.25114 0.18416 0.0
C1471 C 0.45753 0.21751 0.14709 0.0
N1472 N 0.48696 0.29972 0.15763 0.0
N1473 N 0.48648 0.16876 0.15939 0.0
H1474 H 0.41269 0.21263 0.12416 0.0
H1475 H 0.4287 0.17702 0.13816 0.0
H1476 H 0.50436 0.15577 0.17086 0.0
H1477 H 0.47367 0.15563 0.14278 0.0
H1478 H 0.50645 0.31192 0.16697 0.0
H1479 H 0.4741 0.31345 0.14155 0.0
H1480 H 0.51689 0.2913 0.211 0.0
H1481 H 0.53602 0.25598 0.22171 0.0
C1482 C 0.57487 0.77466 0.15693 0.0
C1483 C 0.60251 0.79025 0.14412 0.0
C1484 C 0.5791 0.84144 0.16222 0.0
C1485 C 0.55388 0.82534 0.1784 0.0
N1486 N 0.53134 0.77559 0.19537 0.0
N1487 N 0.63272 0.83872 0.13964 0.0
C1488 C 0.55297 0.79166 0.17706 0.0
C1489 C 0.60503 0.82376 0.14823 0.0
N1490 N 0.56783 0.74424 0.14813 0.0
N1491 N 0.5779 0.87374 0.15943 0.0
H1492 H 0.65243 0.82656 0.13037 0.0
H1493 H 0.63736 0.86247 0.14469 0.0
H1494 H 0.55928 0.88733 0.16894 0.0
H1495 H 0.59361 0.8867 0.14522 0.0
H1496 H 0.54626 0.7332 0.15386 0.0
H1497 H 0.58153 0.73106 0.13222 0.0
H1498 H 0.53194 0.75102 0.19831 0.0
H1499 H 0.51447 0.78702 0.20971 0.0
C1500 C 0.45144 0.82475 0.90594 0.0
C1501 C 0.45911 0.79623 0.9225 0.0
C1502 C 0.51607 0.80341 0.90642 0.0
C1503 C 0.50878 0.83294 0.89178 0.0
N1504 N 0.47 0.87409 0.88171 0.0
N1505 N 0.50082 0.76259 0.94409 0.0
C1506 C 0.47652 0.84421 0.89266 0.0
C1507 C 0.492 0.78667 0.92411 0.0
N1508 N 0.41998 0.83282 0.9021 0.0
N1509 N 0.54603 0.79074 0.90282 0.0
H1510 H 0.48461 0.74981 0.9578 0.0
H1511 H 0.52456 0.75727 0.94952 0.0
H1512 H 0.56449 0.80246 0.89091 0.0
H1513 H 0.55187 0.76757 0.90935 0.0
H1514 H 0.41223 0.85134 0.88761 0.0
H1515 H 0.40133 0.81924 0.91146 0.0
H1516 H 0.44793 0.88528 0.88449 0.0
H1517 H 0.48755 0.88884 0.87205 0.0
C1518 C 0.57279 0.2613 0.857 0.0
C1519 C 0.55923 0.23214 0.86774 0.0
C1520 C 0.58913 0.23875 0.91801 0.0
C1521 C 0.60574 0.26593 0.9059 0.0
N1522 N 0.6174 0.29817 0.85989 0.0
N1523 N 0.56324 0.18893 0.90519 0.0
C1524 C 0.59867 0.27576 0.87421 0.0
C1525 C 0.57005 0.21962 0.89724 0.0
N1526 N 0.56033 0.27593 0.83081 0.0
N1527 N 0.58941 0.23206 0.94979 0.0
H1528 H 0.55086 0.17365 0.89012 0.0
H1529 H 0.57305 0.17777 0.92506 0.0
H1530 H 0.60024 0.24649 0.96667 0.0
H1531 H 0.57529 0.21428 0.95983 0.0
H1532 H 0.56689 0.29872 0.82371 0.0
H1533 H 0.54129 0.26652 0.81791 0.0
H1534 H 0.61535 0.30416 0.83595 0.0
H1535 H 0.63733 0.30811 0.87092 0.0
C1536 C 0.15672 0.44829 0.23439 0.0
C1537 C 0.14106 0.45624 0.26342 0.0
C1538 C 0.16322 0.51082 0.25881 0.0
C1539 C 0.17659 0.50365 0.22864 0.0
N1540 N 0.1828 0.46643 0.18569 0.0
N1541 N 0.12396 0.49804 0.29916 0.0
C1542 C 0.17249 0.47255 0.21592 0.0
C1543 C 0.14304 0.48827 0.27459 0.0
N1544 N 0.15722 0.4173 0.22485 0.0
N1545 N 0.17025 0.53919 0.27289 0.0
H1546 H 0.10835 0.48307 0.31119 0.0
H1547 H 0.12116 0.52176 0.30561 0.0
H1548 H 0.18421 0.55658 0.26195 0.0
H1549 H 0.16459 0.54437 0.29645 0.0
H1550 H 0.17075 0.40902 0.20576 0.0
H1551 H 0.14601 0.39926 0.23772 0.0
H1552 H 0.1777 0.44557 0.1735 0.0
H1553 H 0.19456 0.48331 0.17178 0.0
C1554 C 0.91143 0.57117 0.27211 0.0
C1555 C 0.91405 0.60317 0.26088 0.0
C1556 C 0.88435 0.58698 0.21244 0.0
C1557 C 0.87959 0.5559 0.22509 0.0
N1558 N 0.88391 0.52045 0.26972 0.0
N1559 N 0.89936 0.64218 0.22177 0.0
C1560 C 0.89169 0.54874 0.25575 0.0
C1561 C 0.89946 0.61118 0.23137 0.0
N1562 N 0.92954 0.56129 0.29728 0.0
N1563 N 0.87542 0.59311 0.18182 0.0
H1564 H 0.91003 0.6602 0.23501 0.0
H1565 H 0.88655 0.65048 0.20226 0.0
H1566 H 0.86423 0.57627 0.16751 0.0
H1567 H 0.88119 0.61393 0.16977 0.0
H1568 H 0.93192 0.53755 0.30387 0.0
H1569 H 0.94481 0.57614 0.30979 0.0
H1570 H 0.88862 0.51528 0.29347 0.0
H1571 H 0.8702 0.50316 0.25841 0.0
C1572 C 0.17809 0.57683 0.77984 0.0
C1573 C 0.16055 0.60144 0.79593 0.0
C1574 C 0.1788 0.57826 0.84727 0.0
C1575 C 0.19694 0.55459 0.8311 0.0
N1576 N 0.21991 0.53646 0.78196 0.0
N1577 N 0.15206 0.62963 0.84501 0.0
C1578 C 0.19858 0.5557 0.79742 0.0
C1579 C 0.16324 0.60323 0.8297 0.0
N1580 N 0.17377 0.57174 0.74805 0.0
N1581 N 0.17604 0.57677 0.8796 0.0
H1582 H 0.14217 0.64894 0.83292 0.0
H1583 H 0.15575 0.63401 0.86907 0.0
H1584 H 0.18828 0.5601 0.89336 0.0
H1585 H 0.16006 0.59069 0.89257 0.0
H1586 H 0.1824 0.5517 0.73631 0.0
H1587 H 0.15918 0.58545 0.73354 0.0
H1588 H 0.22532 0.53876 0.75789 0.0
H1589 H 0.23441 0.52006 0.79377 0.0
C1590 C 0.87179 0.48663 0.80292 0.0
C1591 C 0.88197 0.50082 0.83192 0.0
C1592 C 0.93196 0.4695 0.82778 0.0
C1593 C 0.92045 0.45266 0.80053 0.0
N1594 N 0.87376 0.43963 0.76966 0.0
N1595 N 0.91704 0.49532 0.87708 0.0
C1596 C 0.88865 0.45964 0.79031 0.0
C1597 C 0.91049 0.48888 0.846 0.0
N1598 N 0.84648 0.49925 0.78675 0.0
N1599 N 0.96374 0.4694 0.83538 0.0
H1600 H 0.90136 0.50809 0.8916 0.0
H1601 H 0.93624 0.48496 0.88909 0.0
H1602 H 0.98144 0.45908 0.82135 0.0
H1603 H 0.97302 0.48347 0.85352 0.0
H1604 H 0.83996 0.49163 0.76412 0.0
H1605 H 0.83404 0.51928 0.79458 0.0
H1606 H 0.84981 0.44216 0.76321 0.0
H1607 H 0.88412 0.41823 0.76256 0.0
C1608 C 0.25912 0.15359 0.51399 0.0
C1609 C 0.23413 0.17453 0.50453 0.0
C1610 C 0.24789 0.16277 0.44807 0.0
C1611 C 0.27085 0.13974 0.45769 0.0
N1612 N 0.29394 0.10937 0.50062 0.0
N1613 N 0.20099 0.19438 0.46208 0.0
C1614 C 0.27519 0.13416 0.4909 0.0
C1615 C 0.22764 0.178 0.47136 0.0
N1616 N 0.26837 0.15289 0.54513 0.0
N1617 N 0.24541 0.17015 0.41657 0.0
H1618 H 0.18508 0.20464 0.47823 0.0
H1619 H 0.19297 0.19529 0.43869 0.0
H1620 H 0.25933 0.159 0.39921 0.0
H1621 H 0.23161 0.18891 0.408 0.0
H1622 H 0.28875 0.14102 0.55306 0.0
H1623 H 0.25733 0.16651 0.56273 0.0
H1624 H 0.29494 0.10143 0.52405 0.0
H1625 H 0.30665 0.09502 0.48487 0.0
C1626 C 0.22757 0.87956 0.57494 0.0
C1627 C 0.23294 0.88319 0.54157 0.0
C1628 C 0.27243 0.92519 0.55379 0.0
C1629 C 0.26967 0.91919 0.5871 0.0
N1630 N 0.24703 0.88759 0.62901 0.0
N1631 N 0.26519 0.90597 0.49989 0.0
C1632 C 0.24805 0.89529 0.5975 0.0
C1633 C 0.25669 0.90506 0.53127 0.0
N1634 N 0.20168 0.86261 0.58519 0.0
N1635 N 0.28934 0.95094 0.54344 0.0
H1636 H 0.25456 0.89167 0.48269 0.0
H1637 H 0.28479 0.91869 0.49138 0.0
H1638 H 0.30163 0.96601 0.55871 0.0
H1639 H 0.28901 0.95893 0.52 0.0
H1640 H 0.19451 0.8615 0.60888 0.0
H1641 H 0.18544 0.85217 0.56962 0.0
H1642 H 0.23434 0.86826 0.63791 0.0
H1643 H 0.26104 0.89916 0.64591 0.0
C1644 C 0.82518 0.1249 0.5861 0.0
C1645 C 0.79844 0.13777 0.60327 0.0
C1646 C 0.80242 0.18506 0.56812 0.0
C1647 C 0.83174 0.17394 0.55456 0.0
N1648 N 0.87577 0.13721 0.56086 0.0
N1649 N 0.76794 0.18519 0.61467 0.0
C1650 C 0.84464 0.14517 0.5668 0.0
C1651 C 0.78887 0.16937 0.5954 0.0
N1652 N 0.83099 0.09298 0.58573 0.0
N1653 N 0.78683 0.21014 0.55455 0.0
H1654 H 0.75983 0.17572 0.63611 0.0
H1655 H 0.76206 0.20905 0.61141 0.0
H1656 H 0.79525 0.22153 0.53416 0.0
H1657 H 0.76404 0.2174 0.56169 0.0
H1658 H 0.84895 0.08289 0.5717 0.0
H1659 H 0.81538 0.07623 0.59524 0.0
H1660 H 0.88676 0.1176 0.57143 0.0
H1661 H 0.89132 0.15201 0.54834 0.0
C1662 C 0.81156 0.89953 0.52432 0.0
C1663 C 0.83671 0.87861 0.51523 0.0
C1664 C 0.82373 0.89026 0.45859 0.0
C1665 C 0.80023 0.91295 0.4679 0.0
N1666 N 0.77884 0.94496 0.51045 0.0
N1667 N 0.87099 0.85953 0.47319 0.0
C1668 C 0.79611 0.91908 0.50102 0.0
C1669 C 0.84388 0.87539 0.48215 0.0
N1670 N 0.80164 0.90027 0.55528 0.0
N1671 N 0.82658 0.8826 0.42721 0.0
H1672 H 0.88685 0.84962 0.48956 0.0
H1673 H 0.87939 0.85884 0.44989 0.0
H1674 H 0.8127 0.8934 0.40964 0.0
H1675 H 0.84075 0.86395 0.41896 0.0
H1676 H 0.78114 0.91233 0.56272 0.0
H1677 H 0.81211 0.88648 0.57307 0.0
H1678 H 0.77797 0.95289 0.53389 0.0
H1679 H 0.7682 0.96049 0.49438 0.0
C1680 C 0.03292 0.51333 0.29498 0.0
C1681 C 0.03267 0.49642 0.32418 0.0
C1682 C 0.02634 0.5464 0.35273 0.0
C1683 C 0.02134 0.56211 0.32332 0.0
N1684 N 1.00832 0.55657 0.26722 0.0
N1685 N 0.02291 0.49637 0.38082 0.0
C1686 C 0.02119 0.54455 0.29458 0.0
C1687 C 0.02749 0.5128 0.35317 0.0
N1688 N 0.04598 0.50075 0.26793 0.0
N1689 N 0.0308 0.56346 0.37995 0.0
H1690 H 0.02226 0.47161 0.38171 0.0
H1691 H 1.01641 0.50731 0.40209 0.0
H1692 H 0.03149 0.58823 0.38022 0.0
H1693 H 0.03718 0.553 0.4015 0.0
H1694 H 0.0485 0.51396 0.24708 0.0
H1695 H 0.05812 0.47914 0.26723 0.0
H1696 H 1.00587 0.5429 0.2467 0.0
H1697 H 0.9963 0.57822 0.26598 0.0
C1698 C 0.07177 0.53129 0.73256 0.0
C1699 C 0.04977 0.55638 0.72669 0.0
C1700 C 1.00604 0.51875 0.72206 0.0
C1701 C 0.02842 0.4935 0.72591 0.0
N1702 N 0.08314 0.47521 0.72681 0.0
N1703 N 0.99819 0.57405 0.70825 0.0
C1704 C 0.06155 0.49962 0.72841 0.0
C1705 C 1.01761 0.55008 0.71876 0.0
N1706 N 0.10157 0.5375 0.74433 0.0
N1707 N 0.9738 0.51329 0.72397 0.0
H1708 H 1.00619 0.59738 0.70562 0.0
H1709 H 0.9753 0.57018 0.69925 0.0
H1710 H 0.96388 0.49097 0.72793 0.0
H1711 H 0.95685 0.53147 0.72478 0.0
H1712 H 0.11721 0.51985 0.75216 0.0
H1713 H 0.10952 0.56037 0.74926 0.0
H1714 H 0.1078 0.47874 0.72559 0.0
H1715 H 0.07625 0.45163 0.72352 0.0
C1716 C 0.36817 0.06064 0.51357 0.0
C1717 C 0.36451 0.03825 0.48854 0.0
C1718 C 0.36569 0.9942 0.52584 0.0
C1719 C 0.36406 0.01676 0.55096 0.0
N1720 N 0.37672 0.06885 0.57009 0.0
N1721 N 0.37359 0.98549 0.46928 0.0
C1722 C 0.36988 0.04923 0.54517 0.0
C1723 C 0.36823 1.0055 0.49428 0.0
N1724 N 0.36776 0.09255 0.50757 0.0
N1725 N 0.36235 0.96243 0.5317 0.0
H1726 H 0.37563 0.99389 0.44598 0.0
H1727 H 0.37915 0.9615 0.47179 0.0
H1728 H 0.3614 0.95258 0.55434 0.0
H1729 H 0.35894 0.94561 0.51393 0.0
H1730 H 0.3656 0.10972 0.52521 0.0
H1731 H 0.36855 0.10228 0.48487 0.0
H1732 H 0.38381 0.09239 0.5675 0.0
H1733 H 0.37828 0.06046 0.59341 0.0
C1734 C 0.72703 0.05695 0.5412 0.0
C1735 C 0.7211 0.03483 0.56598 0.0
C1736 C 0.71054 0.99296 0.52777 0.0
C1737 C 0.71683 0.01515 0.50282 0.0
N1738 N 0.72067 0.06946 0.48542 0.0
N1739 N 0.69893 0.98525 0.58378 0.0
C1740 C 0.72163 0.04763 0.50949 0.0
C1741 C 0.70996 1.00395 0.55954 0.0
N1742 N 0.73918 0.08633 0.54785 0.0
N1743 N 0.70752 0.96118 0.5217 0.0
H1744 H 0.6989 0.99261 0.60746 0.0
H1745 H 0.6872 0.96376 0.58018 0.0
H1746 H 0.70808 0.95121 0.49913 0.0
H1747 H 0.70718 0.94395 0.53946 0.0
H1748 H 0.74757 0.10188 0.53047 0.0
H1749 H 0.74312 0.09437 0.5709 0.0
H1750 H 0.72118 0.09389 0.48917 0.0
H1751 H 0.71596 0.06314 0.4619 0.0
C1752 C 0.52639 0.32159 0.05536 0.0
C1753 C 0.50005 0.32588 0.03452 0.0
C1754 C 0.53613 0.33861 0.99085 0.0
C1755 C 0.5624 0.33628 1.01221 0.0
N1756 N 0.58213 0.3331 0.06588 0.0
N1757 N 0.47887 0.34568 0.98511 0.0
C1758 C 0.55735 0.33032 0.04491 0.0
C1759 C 0.50461 0.33687 1.00312 0.0
N1760 N 0.5222 0.30725 0.08423 0.0
N1761 N 0.54108 0.3401 0.95873 0.0
H1762 H 0.45535 0.34461 0.99353 0.0
H1763 H 0.48107 0.35685 0.9631 0.0
H1764 H 0.56368 0.34021 0.94822 0.0
H1765 H 0.52265 0.33818 0.94221 0.0
H1766 H 0.54111 0.30059 0.09892 0.0
H1767 H 0.50004 0.29915 0.0922 0.0
H1768 H 0.57914 0.33185 0.09044 0.0
H1769 H 0.60514 0.33979 0.05884 0.0
C1770 C 0.54 0.76133 0.04271 0.0
C1771 C 0.55586 0.7315 0.04332 0.0
C1772 C 0.50409 0.70494 0.04072 0.0
C1773 C 0.48946 0.7345 0.03351 0.0
N1774 N 0.49658 0.79018 0.01932 0.0
N1775 N 0.55318 0.67432 0.03934 0.0
C1776 C 0.50807 0.76266 0.03237 0.0
C1777 C 0.53796 0.703 0.04156 0.0
N1778 N 0.55473 0.78835 0.05306 0.0
N1779 N 0.48559 0.6789 0.04677 0.0
H1780 H 0.57805 0.67208 0.03864 0.0
H1781 H 0.54114 0.65311 0.03508 0.0
H1782 H 0.4606 0.67995 0.04702 0.0
H1783 H 0.49496 0.65735 0.05468 0.0
H1784 H 0.54261 0.80992 0.05539 0.0
H1785 H 0.5775 0.78854 0.06303 0.0
H1786 H 0.5111 0.80993 0.01541 0.0
H1787 H 0.47413 0.79249 1.00892 0.0
C1788 C 0.53559 0.05358 0.85148 0.0
C1789 C 0.52961 0.06485 0.8202 0.0
C1790 C 0.54579 1.0136 0.79901 0.0
C1791 C 0.54557 1.00056 0.83014 0.0
N1792 N 0.53507 1.00773 0.8862 0.0
N1793 N 0.51959 0.0511 0.76505 0.0
C1794 C 0.539 0.02042 0.85656 0.0
C1795 C 0.53203 0.04368 0.79411 0.0
N1796 N 0.53903 0.07443 0.87606 0.0
N1797 N 0.56047 0.99834 0.77428 0.0
H1798 H 0.50624 0.07152 0.76086 0.0
H1799 H 0.51891 0.03484 0.74639 0.0
H1800 H 0.57391 0.97765 0.777 0.0
H1801 H 0.56289 1.00869 0.75186 0.0
H1802 H 0.54594 0.06738 0.89879 0.0
H1803 H 0.53864 0.099 0.87285 0.0
H1804 H 0.52752 0.02111 0.90566 0.0
H1805 H 0.53607 0.98336 0.8906 0.0
C1806 C 0.54561 0.99841 0.20097 0.0
C1807 C 0.51372 0.99417 0.21111 0.0
C1808 C 0.50576 0.0514 0.21325 0.0
C1809 C 0.53932 0.05529 0.21102 0.0
N1810 N 0.59172 0.03257 0.19947 0.0
N1811 N 0.4624 0.01591 0.22667 0.0
C1812 C 0.55941 0.029 0.20308 0.0
C1813 C 0.49317 0.02045 0.21648 0.0
N1814 N 0.56249 0.9731 0.18926 0.0
N1815 N 0.48615 0.07741 0.21219 0.0
H1816 H 0.45207 0.99353 0.22914 0.0
H1817 H 0.44771 0.03429 0.23465 0.0
H1818 H 0.49506 0.10033 0.20884 0.0
H1819 H 0.46128 0.07597 0.21114 0.0
H1820 H 0.58487 0.9751 0.1785 0.0
H1821 H 0.55265 0.95039 0.18754 0.0
H1822 H 0.60773 1.01357 0.1992 0.0
H1823 H 0.60307 0.05433 0.19727 0.0
C1824 C 0.84278 0.50034 0.03223 0.0
C1825 C 0.83626 0.52229 0.05714 0.0
C1826 C 0.8217 0.56274 0.01866 0.0
C1827 C 0.83158 0.54197 0.99398 0.0
N1828 N 0.85744 0.49364 0.97701 0.0
N1829 N 0.82586 0.57594 0.07438 0.0
C1830 C 0.84412 0.51159 1.00068 0.0
C1831 C 0.82777 0.55407 0.05047 0.0
N1832 N 0.84544 0.46852 0.03827 0.0
N1833 N 0.8048 0.58971 1.01184 0.0
H1834 H 0.83058 0.57032 0.09807 0.0
H1835 H 0.82265 0.60015 0.07027 0.0
H1836 H 0.79825 0.5959 0.98877 0.0
H1837 H 0.79438 0.60406 0.02919 0.0
H1838 H 0.84678 0.45147 0.02039 0.0
H1839 H 0.84293 0.45863 0.06081 0.0
H1840 H 0.86989 0.4726 0.98135 0.0
H1841 H 0.8586 0.50122 0.95341 0.0
C1842 C 0.24467 0.54397 1.00861 0.0
C1843 C 0.23593 0.51239 1.00146 0.0
C1844 C 0.22518 0.50187 0.05767 0.0
C1845 C 0.23681 0.53248 0.06474 0.0
N1846 N 0.26674 0.57865 0.04831 0.0
N1847 N 0.22558 0.45875 0.01992 0.0
C1848 C 0.24924 0.55243 0.04062 0.0
C1849 C 0.22813 0.49052 0.02614 0.0
N1850 N 0.2478 0.56608 0.98499 0.0
N1851 N 0.21123 0.48386 0.0809 0.0
H1852 H 0.22924 0.44895 0.99748 0.0
H1853 H 0.22309 0.44166 0.03768 0.0
H1854 H 0.20963 0.49127 0.10451 0.0
H1855 H 0.19925 0.4627 0.07625 0.0
H1856 H 0.25131 0.59016 0.98951 0.0
H1857 H 0.24356 0.56097 0.96111 0.0
H1858 H 0.27886 0.59232 0.03149 0.0
H1859 H 0.27209 0.58459 0.07174 0.0
C1860 C 0.02204 0.79679 0.54337 0.0
C1861 C 1.00398 0.82535 0.54507 0.0
C1862 C 0.05089 0.85483 0.52724 0.0
C1863 C 0.06664 0.82578 0.52014 0.0
N1864 N 0.06122 0.76878 0.51235 0.0
N1865 N 0.99952 0.88091 0.53078 0.0
C1866 C 0.0506 0.79655 0.52551 0.0
C1867 C 1.01786 0.85429 0.53469 0.0
N1868 N 1.0132 0.77036 0.56003 0.0
N1869 N 0.06747 0.88276 0.52785 0.0
H1870 H 0.97472 0.88099 0.53383 0.0
H1871 H 1.00846 0.90179 0.52083 0.0
H1872 H 0.09222 0.88391 0.52462 0.0
H1873 H 0.0572 0.90407 0.53534 0.0
H1874 H 0.02734 0.74991 0.56085 0.0
H1875 H 0.99441 0.77032 0.57632 0.0
H1876 H 0.04831 0.74767 0.51418 0.0
H1877 H 0.0802 0.76747 0.49631 0.0
C1878 C 0.04824 0.25838 0.53169 0.0
C1879 C 0.06658 0.22998 0.5307 0.0
C1880 C 0.01892 0.20067 0.51449 0.0
C1881 C 1.00195 0.22978 0.51203 0.0
N1882 N 1.00565 0.287 0.50619 0.0
N1883 N 0.0711 0.17566 0.51264 0.0
C1884 C 1.01821 0.2589 0.5167 0.0
C1885 C 0.0525 0.20155 0.51929 0.0
N1886 N 0.05781 0.28406 0.54899 0.0
N1887 N 1.00307 0.17234 0.51391 0.0
H1888 H 0.09601 0.17602 0.51453 0.0
H1889 H 0.06211 0.15526 0.50192 0.0
H1890 H 0.97822 0.17071 0.51234 0.0
H1891 H 1.01434 0.15069 0.51841 0.0
H1892 H 0.04348 0.30419 0.55185 0.0
H1893 H 0.07764 0.28373 0.56389 0.0
H1894 H 1.0183 0.3083 0.50741 0.0
H1895 H 0.98477 0.28838 0.49271 0.0
loop_
_geom_bond_atom_site_label_1
_geom_bond_atom_site_label_2
_geom_bond_distance
_geom_bond_site_symmetry_2
_ccdc_geom_bond_type
Co0 O3 1.970 . S
Co0 N17 1.989 1_455 S
Co0 O25 1.967 . S
Co0 O32 1.920 1_455 S
Co1 O4 1.966 . S
Co1 N10 2.022 . S
Co1 N18 1.993 . S
Co1 O26 1.941 . S
C2 O3 1.258 . S
C2 O4 1.263 . S
O3 Co0 1.970 . S
O3 C2 1.258 . S
O4 Co1 1.966 . S
O4 C2 1.263 . S
C5 O6 1.235 . S
C5 O32 1.289 . S
O6 C5 1.235 . S
C7 C9 1.400 . S
C7 N10 1.351 . S
C7 C12 1.501 . S
C8 C9 1.387 . S
C8 N11 1.341 . S
C9 C7 1.400 . S
C9 C8 1.387 . S
N10 Co1 2.022 . S
N10 C7 1.351 . S
N10 N11 1.365 . S
N11 C8 1.341 . S
N11 N10 1.365 . S
N11 H31 0.862 . S
C12 C7 1.501 . S
C12 H13 0.961 . S
C12 H14 0.961 . S
C12 H15 0.960 . S
H13 C12 0.961 . S
H14 C12 0.961 . S
H15 C12 0.960 . S
C16 N17 1.342 . S
C16 C20 1.401 . S
C16 C21 1.499 . S
N17 Co0 1.989 1_655 S
N17 C16 1.342 . S
N17 N18 1.388 1_655 S
N18 Co1 1.993 . S
N18 N17 1.388 1_455 S
N18 C19 1.346 . S
C19 N18 1.346 . S
C19 C20 1.396 1_455 S
C19 C29 1.510 . S
C20 C16 1.401 . S
C20 C19 1.396 1_655 S
C21 C16 1.499 . S
C21 H22 0.959 . S
C21 H23 0.960 . S
C21 H24 0.961 . S
H22 C21 0.959 . S
H23 C21 0.960 . S
H24 C21 0.961 . S
O25 Co0 1.967 . S
O25 C33 1.258 . S
O26 Co1 1.941 . S
O26 C33 1.266 . S
H27 C29 0.959 . S
H28 C29 0.961 . S
C29 C19 1.510 . S
C29 H27 0.959 . S
C29 H28 0.961 . S
C29 H30 0.960 . S
H30 C29 0.960 . S
H31 N11 0.862 . S
O32 Co0 1.920 1_655 S
O32 C5 1.289 . S
C33 O25 1.258 . S
C33 O26 1.266 . S
Co34 O37 1.970 1_455 S
Co34 N51 1.989 . S
Co34 O59 1.967 . S
Co34 O66 1.920 . S
Co35 O38 1.966 . S
Co35 N44 2.022 . S
Co35 N52 1.993 1_655 S
Co35 O60 1.941 . S
C36 O37 1.258 . S
C36 O38 1.263 . S
O37 Co34 1.970 1_655 S
O37 C36 1.258 . S
O38 Co35 1.966 . S
O38 C36 1.263 . S
C39 O40 1.235 . S
C39 O66 1.289 . S
O40 C39 1.235 . S
C41 C43 1.400 . S
C41 N44 1.351 . S
C41 C46 1.501 . S
C42 C43 1.387 . S
C42 N45 1.341 . S
C43 C41 1.400 . S
C43 C42 1.387 . S
N44 Co35 2.022 . S
N44 C41 1.351 . S
N44 N45 1.365 . S
N45 C42 1.341 . S
N45 N44 1.365 . S
N45 H65 0.862 . S
C46 C41 1.501 . S
C46 H47 0.961 . S
C46 H48 0.961 . S
C46 H49 0.960 . S
H47 C46 0.961 . S
H48 C46 0.961 . S
H49 C46 0.960 . S
C50 N51 1.342 . S
C50 C54 1.401 . S
C50 C55 1.499 . S
N51 Co34 1.989 . S
N51 C50 1.342 . S
N51 N52 1.388 . S
N52 Co35 1.993 1_455 S
N52 N51 1.388 . S
N52 C53 1.346 . S
C53 N52 1.346 . S
C53 C54 1.396 . S
C53 C63 1.510 . S
C54 C50 1.401 . S
C54 C53 1.396 . S
C55 C50 1.499 . S
C55 H56 0.959 . S
C55 H57 0.960 . S
C55 H58 0.961 . S
H56 C55 0.959 . S
H57 C55 0.960 . S
H58 C55 0.961 . S
O59 Co34 1.967 . S
O59 C67 1.271 . S
O60 Co35 1.941 . S
O60 C67 1.251 1_655 S
H61 C63 0.959 . S
H62 C63 0.961 . S
C63 C53 1.510 . S
C63 H61 0.959 . S
C63 H62 0.961 . S
C63 H64 0.960 1_455 S
H64 C63 0.960 1_655 S
H65 N45 0.862 . S
O66 Co34 1.920 . S
O66 C39 1.289 . S
C67 O59 1.271 . S
C67 O60 1.251 1_455 S
Co68 O71 1.970 . S
Co68 N85 1.989 1_455 S
Co68 O93 1.967 . S
Co68 O100 1.920 1_455 S
Co69 O72 1.966 . S
Co69 N78 2.022 . S
Co69 N86 1.993 . S
Co69 O94 1.941 . S
C70 O71 1.258 . S
C70 O72 1.263 . S
O71 Co68 1.970 . S
O71 C70 1.258 . S
O72 Co69 1.966 . S
O72 C70 1.263 . S
C73 O74 1.235 . S
C73 O100 1.289 . S
O74 C73 1.235 . S
C75 C77 1.400 . S
C75 N78 1.351 . S
C75 C80 1.501 . S
C76 C77 1.387 . S
C76 N79 1.341 . S
C77 C75 1.400 . S
C77 C76 1.387 . S
N78 Co69 2.022 . S
N78 C75 1.351 . S
N78 N79 1.365 . S
N79 C76 1.341 . S
N79 N78 1.365 . S
N79 H99 0.862 . S
C80 C75 1.501 . S
C80 H81 0.961 . S
C80 H82 0.961 . S
C80 H83 0.960 . S
H81 C80 0.961 . S
H82 C80 0.961 . S
H83 C80 0.960 . S
C84 N85 1.342 . S
C84 C88 1.401 . S
C84 C89 1.499 . S
N85 Co68 1.989 1_655 S
N85 C84 1.342 . S
N85 N86 1.388 1_655 S
N86 Co69 1.993 . S
N86 N85 1.388 1_455 S
N86 C87 1.346 . S
C87 N86 1.346 . S
C87 C88 1.396 1_455 S
C87 C97 1.510 . S
C88 C84 1.401 . S
C88 C87 1.396 1_655 S
C89 C84 1.499 . S
C89 H90 0.959 . S
C89 H91 0.960 . S
C89 H92 0.961 . S
H90 C89 0.959 . S
H91 C89 0.960 . S
H92 C89 0.961 . S
O93 Co68 1.967 . S
O93 C101 1.258 . S
O94 Co69 1.941 . S
O94 C101 1.266 . S
H95 C97 0.959 . S
H96 C97 0.961 . S
C97 C87 1.510 . S
C97 H95 0.959 . S
C97 H96 0.961 . S
C97 H98 0.960 . S
H98 C97 0.960 . S
H99 N79 0.862 . S
O100 Co68 1.920 1_655 S
O100 C73 1.289 . S
C101 O93 1.258 . S
C101 O94 1.266 . S
Co102 O105 1.970 1_455 S
Co102 N119 1.989 . S
Co102 O127 1.967 . S
Co102 O134 1.920 . S
Co103 O106 1.966 . S
Co103 N112 2.022 . S
Co103 N120 1.993 1_655 S
Co103 O128 1.941 . S
C104 O105 1.258 . S
C104 O106 1.263 . S
O105 Co102 1.970 1_655 S
O105 C104 1.258 . S
O106 Co103 1.966 . S
O106 C104 1.263 . S
C107 O108 1.235 . S
C107 O134 1.289 . S
O108 C107 1.235 . S
C109 C111 1.400 . S
C109 N112 1.351 . S
C109 C114 1.501 . S
C110 C111 1.387 . S
C110 N113 1.341 . S
C111 C109 1.400 . S
C111 C110 1.387 . S
N112 Co103 2.022 . S
N112 C109 1.351 . S
N112 N113 1.365 . S
N113 C110 1.341 . S
N113 N112 1.365 . S
N113 H133 0.862 . S
C114 C109 1.501 . S
C114 H115 0.961 . S
C114 H116 0.961 . S
C114 H117 0.960 . S
H115 C114 0.961 . S
H116 C114 0.961 . S
H117 C114 0.960 . S
C118 N119 1.342 . S
C118 C122 1.401 . S
C118 C123 1.499 . S
N119 Co102 1.989 . S
N119 C118 1.342 . S
N119 N120 1.388 . S
N120 Co103 1.993 1_455 S
N120 N119 1.388 . S
N120 C121 1.346 . S
C121 N120 1.346 . S
C121 C122 1.396 . S
C121 C131 1.510 . S
C122 C118 1.401 . S
C122 C121 1.396 . S
C123 C118 1.499 . S
C123 H124 0.959 . S
C123 H125 0.960 . S
C123 H126 0.961 . S
H124 C123 0.959 . S
H125 C123 0.960 . S
H126 C123 0.961 . S
O127 Co102 1.967 . S
O127 C135 1.271 . S
O128 Co103 1.941 . S
O128 C135 1.251 1_655 S
H129 C131 0.959 . S
H130 C131 0.961 . S
C131 C121 1.510 . S
C131 H129 0.959 . S
C131 H130 0.961 . S
C131 H132 0.960 1_455 S
H132 C131 0.960 1_655 S
H133 N113 0.862 . S
O134 Co102 1.920 . S
O134 C107 1.289 . S
C135 O127 1.271 . S
C135 O128 1.251 1_455 S
Co136 O139 1.970 . S
Co136 N153 1.989 1_545 S
Co136 O161 1.967 . S
Co136 O168 1.920 1_545 S
Co137 O140 1.966 . S
Co137 N146 2.022 . S
Co137 N154 1.993 . S
Co137 O162 1.941 . S
C138 O139 1.258 . S
C138 O140 1.263 . S
O139 Co136 1.970 . S
O139 C138 1.258 . S
O140 Co137 1.966 . S
O140 C138 1.263 . S
C141 O142 1.235 . S
C141 O168 1.289 . S
O142 C141 1.235 . S
C143 C145 1.400 . S
C143 N146 1.351 . S
C143 C148 1.501 . S
C144 C145 1.387 . S
C144 N147 1.341 . S
C145 C143 1.400 . S
C145 C144 1.387 . S
N146 Co137 2.022 . S
N146 C143 1.351 . S
N146 N147 1.365 . S
N147 C144 1.341 . S
N147 N146 1.365 . S
N147 H167 0.862 . S
C148 C143 1.501 . S
C148 H149 0.961 . S
C148 H150 0.961 . S
C148 H151 0.960 . S
H149 C148 0.961 . S
H150 C148 0.961 . S
H151 C148 0.960 . S
C152 N153 1.342 . S
C152 C156 1.401 . S
C152 C157 1.499 . S
N153 Co136 1.989 1_565 S
N153 C152 1.342 . S
N153 N154 1.388 1_565 S
N154 Co137 1.993 . S
N154 N153 1.388 1_545 S
N154 C155 1.346 . S
C155 N154 1.346 . S
C155 C156 1.396 1_545 S
C155 C165 1.510 . S
C156 C152 1.401 . S
C156 C155 1.396 1_565 S
C157 C152 1.499 . S
C157 H158 0.959 . S
C157 H159 0.960 . S
C157 H160 0.961 . S
H158 C157 0.959 . S
H159 C157 0.960 . S
H160 C157 0.961 . S
O161 Co136 1.967 . S
O161 C169 1.258 . S
O162 Co137 1.941 . S
O162 C169 1.266 . S
H163 C165 0.959 . S
H164 C165 0.961 . S
C165 C155 1.510 . S
C165 H163 0.959 . S
C165 H164 0.961 . S
C165 H166 0.960 . S
H166 C165 0.960 . S
H167 N147 0.862 . S
O168 Co136 1.920 1_565 S
O168 C141 1.289 . S
C169 O161 1.258 . S
C169 O162 1.266 . S
Co170 O173 1.970 1_545 S
Co170 N187 1.989 . S
Co170 O195 1.967 . S
Co170 O202 1.920 . S
Co171 O174 1.966 . S
Co171 N180 2.022 . S
Co171 N188 1.993 1_565 S
Co171 O196 1.941 . S
C172 O173 1.258 . S
C172 O174 1.263 . S
O173 Co170 1.970 1_565 S
O173 C172 1.258 . S
O174 Co171 1.966 . S
O174 C172 1.263 . S
C175 O176 1.235 . S
C175 O202 1.289 . S
O176 C175 1.235 . S
C177 C179 1.400 . S
C177 N180 1.351 . S
C177 C182 1.501 . S
C178 C179 1.387 . S
C178 N181 1.341 . S
C179 C177 1.400 . S
C179 C178 1.387 . S
N180 Co171 2.022 . S
N180 C177 1.351 . S
N180 N181 1.365 . S
N181 C178 1.341 . S
N181 N180 1.365 . S
N181 H201 0.862 . S
C182 C177 1.501 . S
C182 H183 0.961 . S
C182 H184 0.961 . S
C182 H185 0.960 . S
H183 C182 0.961 . S
H184 C182 0.961 . S
H185 C182 0.960 . S
C186 N187 1.342 . S
C186 C190 1.401 . S
C186 C191 1.499 . S
N187 Co170 1.989 . S
N187 C186 1.342 . S
N187 N188 1.388 . S
N188 Co171 1.993 1_545 S
N188 N187 1.388 . S
N188 C189 1.346 . S
C189 N188 1.346 . S
C189 C190 1.396 . S
C189 C199 1.510 . S
C190 C186 1.401 . S
C190 C189 1.396 . S
C191 C186 1.499 . S
C191 H192 0.959 . S
C191 H193 0.960 . S
C191 H194 0.961 . S
H192 C191 0.959 . S
H193 C191 0.960 . S
H194 C191 0.961 . S
O195 Co170 1.967 . S
O195 C203 1.271 . S
O196 Co171 1.941 . S
O196 C203 1.251 1_565 S
H197 C199 0.959 . S
H198 C199 0.961 . S
C199 C189 1.510 . S
C199 H197 0.959 . S
C199 H198 0.961 . S
C199 H200 0.960 1_545 S
H200 C199 0.960 1_565 S
H201 N181 0.862 . S
O202 Co170 1.920 . S
O202 C175 1.289 . S
C203 O195 1.271 . S
C203 O196 1.251 1_545 S
Co204 O207 1.970 1_545 S
Co204 N221 1.989 . S
Co204 O229 1.967 . S
Co204 O236 1.920 . S
Co205 O208 1.966 . S
Co205 N214 2.022 . S
Co205 N222 1.993 1_565 S
Co205 O230 1.941 . S
C206 O207 1.258 . S
C206 O208 1.263 . S
O207 Co204 1.970 1_565 S
O207 C206 1.258 . S
O208 Co205 1.966 . S
O208 C206 1.263 . S
C209 O210 1.235 . S
C209 O236 1.289 . S
O210 C209 1.235 . S
C211 C213 1.400 . S
C211 N214 1.351 . S
C211 C216 1.501 . S
C212 C213 1.387 . S
C212 N215 1.341 . S
C213 C211 1.400 . S
C213 C212 1.387 . S
N214 Co205 2.022 . S
N214 C211 1.351 . S
N214 N215 1.365 . S
N215 C212 1.341 . S
N215 N214 1.365 . S
N215 H235 0.862 . S
C216 C211 1.501 . S
C216 H217 0.961 . S
C216 H218 0.961 . S
C216 H219 0.960 . S
H217 C216 0.961 . S
H218 C216 0.961 . S
H219 C216 0.960 . S
C220 N221 1.342 . S
C220 C224 1.401 . S
C220 C225 1.499 . S
N221 Co204 1.989 . S
N221 C220 1.342 . S
N221 N222 1.388 . S
N222 Co205 1.993 1_545 S
N222 N221 1.388 . S
N222 C223 1.346 . S
C223 N222 1.346 . S
C223 C224 1.396 . S
C223 C233 1.510 . S
C224 C220 1.401 . S
C224 C223 1.396 . S
C225 C220 1.499 . S
C225 H226 0.959 . S
C225 H227 0.960 . S
C225 H228 0.961 . S
H226 C225 0.959 . S
H227 C225 0.960 . S
H228 C225 0.961 . S
O229 Co204 1.967 . S
O229 C237 1.271 . S
O230 Co205 1.941 . S
O230 C237 1.251 1_565 S
H231 C233 0.959 . S
H232 C233 0.961 . S
C233 C223 1.510 . S
C233 H231 0.959 . S
C233 H232 0.961 . S
C233 H234 0.960 1_545 S
H234 C233 0.960 1_565 S
H235 N215 0.862 . S
O236 Co204 1.920 . S
O236 C209 1.289 . S
C237 O229 1.271 . S
C237 O230 1.251 1_545 S
Co238 O241 1.970 . S
Co238 N255 1.989 1_545 S
Co238 O263 1.967 . S
Co238 O270 1.920 1_545 S
Co239 O242 1.966 . S
Co239 N248 2.022 . S
Co239 N256 1.993 . S
Co239 O264 1.941 . S
C240 O241 1.258 . S
C240 O242 1.263 . S
O241 Co238 1.970 . S
O241 C240 1.258 . S
O242 Co239 1.966 . S
O242 C240 1.263 . S
C243 O244 1.235 . S
C243 O270 1.289 . S
O244 C243 1.235 . S
C245 C247 1.400 . S
C245 N248 1.351 . S
C245 C250 1.501 . S
C246 C247 1.387 . S
C246 N249 1.341 . S
C247 C245 1.400 . S
C247 C246 1.387 . S
N248 Co239 2.022 . S
N248 C245 1.351 . S
N248 N249 1.365 . S
N249 C246 1.341 . S
N249 N248 1.365 . S
N249 H269 0.862 . S
C250 C245 1.501 . S
C250 H251 0.961 . S
C250 H252 0.961 . S
C250 H253 0.960 . S
H251 C250 0.961 . S
H252 C250 0.961 . S
H253 C250 0.960 . S
C254 N255 1.342 . S
C254 C258 1.401 . S
C254 C259 1.499 . S
N255 Co238 1.989 1_565 S
N255 C254 1.342 . S
N255 N256 1.388 1_565 S
N256 Co239 1.993 . S
N256 N255 1.388 1_545 S
N256 C257 1.346 . S
C257 N256 1.346 . S
C257 C258 1.396 1_545 S
C257 C267 1.510 . S
C258 C254 1.401 . S
C258 C257 1.396 1_565 S
C259 C254 1.499 . S
C259 H260 0.959 . S
C259 H261 0.960 . S
C259 H262 0.961 . S
H260 C259 0.959 . S
H261 C259 0.960 . S
H262 C259 0.961 . S
O263 Co238 1.967 . S
O263 C271 1.258 . S
O264 Co239 1.941 . S
O264 C271 1.266 . S
H265 C267 0.959 . S
H266 C267 0.961 . S
C267 C257 1.510 . S
C267 H265 0.959 . S
C267 H266 0.961 . S
C267 H268 0.960 . S
H268 C267 0.960 . S
H269 N249 0.862 . S
O270 Co238 1.920 1_565 S
O270 C243 1.289 . S
C271 O263 1.258 . S
C271 O264 1.266 . S
Co272 O275 1.970 . S
Co272 N289 1.989 1_554 S
Co272 O297 1.967 . S
Co272 O304 1.920 1_554 S
Co273 O276 1.966 . S
Co273 N282 2.022 . S
Co273 N290 1.993 . S
Co273 O298 1.941 . S
C274 O275 1.258 . S
C274 O276 1.263 . S
O275 Co272 1.970 . S
O275 C274 1.258 . S
O276 Co273 1.966 . S
O276 C274 1.263 . S
C277 O278 1.235 . S
C277 O304 1.289 . S
O278 C277 1.235 . S
C279 C281 1.400 . S
C279 N282 1.351 . S
C279 C284 1.501 . S
C280 C281 1.387 . S
C280 N283 1.341 . S
C281 C279 1.400 . S
C281 C280 1.387 . S
N282 Co273 2.022 . S
N282 C279 1.351 . S
N282 N283 1.365 . S
N283 C280 1.341 . S
N283 N282 1.365 . S
N283 H303 0.862 . S
C284 C279 1.501 . S
C284 H285 0.961 . S
C284 H286 0.961 . S
C284 H287 0.960 . S
H285 C284 0.961 . S
H286 C284 0.961 . S
H287 C284 0.960 . S
C288 N289 1.342 . S
C288 C292 1.401 . S
C288 C293 1.499 . S
N289 Co272 1.989 1_556 S
N289 C288 1.342 . S
N289 N290 1.388 1_556 S
N290 Co273 1.993 . S
N290 N289 1.388 1_554 S
N290 C291 1.346 . S
C291 N290 1.346 . S
C291 C292 1.396 1_554 S
C291 C301 1.510 . S
C292 C288 1.401 . S
C292 C291 1.396 1_556 S
C293 C288 1.499 . S
C293 H294 0.959 . S
C293 H295 0.960 . S
C293 H296 0.961 . S
H294 C293 0.959 . S
H295 C293 0.960 . S
H296 C293 0.961 . S
O297 Co272 1.967 . S
O297 C305 1.258 . S
O298 Co273 1.941 . S
O298 C305 1.266 . S
H299 C301 0.959 . S
H300 C301 0.961 . S
C301 C291 1.510 . S
C301 H299 0.959 . S
C301 H300 0.961 . S
C301 H302 0.960 . S
H302 C301 0.960 . S
H303 N283 0.862 . S
O304 Co272 1.920 1_556 S
O304 C277 1.289 . S
C305 O297 1.258 . S
C305 O298 1.266 . S
Co306 O309 1.970 1_554 S
Co306 N323 1.989 . S
Co306 O331 1.967 . S
Co306 O338 1.920 . S
Co307 O310 1.966 . S
Co307 N316 2.022 . S
Co307 N324 1.993 1_556 S
Co307 O332 1.941 . S
C308 O309 1.258 . S
C308 O310 1.263 . S
O309 Co306 1.970 1_556 S
O309 C308 1.258 . S
O310 Co307 1.966 . S
O310 C308 1.263 . S
C311 O312 1.235 . S
C311 O338 1.289 . S
O312 C311 1.235 . S
C313 C315 1.400 . S
C313 N316 1.351 . S
C313 C318 1.501 . S
C314 C315 1.387 . S
C314 N317 1.341 . S
C315 C313 1.400 . S
C315 C314 1.387 . S
N316 Co307 2.022 . S
N316 C313 1.351 . S
N316 N317 1.365 . S
N317 C314 1.341 . S
N317 N316 1.365 . S
N317 H337 0.862 . S
C318 C313 1.501 . S
C318 H319 0.961 . S
C318 H320 0.961 . S
C318 H321 0.960 . S
H319 C318 0.961 . S
H320 C318 0.961 . S
H321 C318 0.960 . S
C322 N323 1.342 . S
C322 C326 1.401 . S
C322 C327 1.499 . S
N323 Co306 1.989 . S
N323 C322 1.342 . S
N323 N324 1.388 . S
N324 Co307 1.993 1_554 S
N324 N323 1.388 . S
N324 C325 1.346 . S
C325 N324 1.346 . S
C325 C326 1.396 . S
C325 C335 1.510 . S
C326 C322 1.401 . S
C326 C325 1.396 . S
C327 C322 1.499 . S
C327 H328 0.959 . S
C327 H329 0.960 . S
C327 H330 0.961 . S
H328 C327 0.959 . S
H329 C327 0.960 . S
H330 C327 0.961 . S
O331 Co306 1.967 . S
O331 C339 1.271 . S
O332 Co307 1.941 . S
O332 C339 1.251 1_556 S
H333 C335 0.959 . S
H334 C335 0.961 . S
C335 C325 1.510 . S
C335 H333 0.959 . S
C335 H334 0.961 . S
C335 H336 0.960 1_554 S
H336 C335 0.960 1_556 S
H337 N317 0.862 . S
O338 Co306 1.920 . S
O338 C311 1.289 . S
C339 O331 1.271 . S
C339 O332 1.251 1_554 S
Co340 O343 1.970 1_554 S
Co340 N357 1.989 . S
Co340 O365 1.967 . S
Co340 O372 1.920 . S
Co341 O344 1.966 . S
Co341 N350 2.022 . S
Co341 N358 1.993 1_556 S
Co341 O366 1.941 . S
C342 O343 1.258 . S
C342 O344 1.263 . S
O343 Co340 1.970 1_556 S
O343 C342 1.258 . S
O344 Co341 1.966 . S
O344 C342 1.263 . S
C345 O346 1.235 . S
C345 O372 1.289 . S
O346 C345 1.235 . S
C347 C349 1.400 . S
C347 N350 1.351 . S
C347 C352 1.501 . S
C348 C349 1.387 . S
C348 N351 1.341 . S
C349 C347 1.400 . S
C349 C348 1.387 . S
N350 Co341 2.022 . S
N350 C347 1.351 . S
N350 N351 1.365 . S
N351 C348 1.341 . S
N351 N350 1.365 . S
N351 H371 0.862 . S
C352 C347 1.501 . S
C352 H353 0.961 . S
C352 H354 0.961 . S
C352 H355 0.960 . S
H353 C352 0.961 . S
H354 C352 0.961 . S
H355 C352 0.960 . S
C356 N357 1.342 . S
C356 C360 1.401 . S
C356 C361 1.499 . S
N357 Co340 1.989 . S
N357 C356 1.342 . S
N357 N358 1.388 . S
N358 Co341 1.993 1_554 S
N358 N357 1.388 . S
N358 C359 1.346 . S
C359 N358 1.346 . S
C359 C360 1.396 . S
C359 C369 1.510 . S
C360 C356 1.401 . S
C360 C359 1.396 . S
C361 C356 1.499 . S
C361 H362 0.959 . S
C361 H363 0.960 . S
C361 H364 0.961 . S
H362 C361 0.959 . S
H363 C361 0.960 . S
H364 C361 0.961 . S
O365 Co340 1.967 . S
O365 C373 1.271 . S
O366 Co341 1.941 . S
O366 C373 1.251 1_556 S
H367 C369 0.959 . S
H368 C369 0.961 . S
C369 C359 1.510 . S
C369 H367 0.959 . S
C369 H368 0.961 . S
C369 H370 0.960 1_554 S
H370 C369 0.960 1_556 S
H371 N351 0.862 . S
O372 Co340 1.920 . S
O372 C345 1.289 . S
C373 O365 1.271 . S
C373 O366 1.251 1_554 S
Co374 O377 1.970 . S
Co374 N391 1.989 1_554 S
Co374 O399 1.967 . S
Co374 O406 1.920 1_554 S
Co375 O378 1.966 . S
Co375 N384 2.022 . S
Co375 N392 1.993 . S
Co375 O400 1.941 . S
C376 O377 1.258 . S
C376 O378 1.263 . S
O377 Co374 1.970 . S
O377 C376 1.258 . S
O378 Co375 1.966 . S
O378 C376 1.263 . S
C379 O380 1.235 . S
C379 O406 1.289 . S
O380 C379 1.235 . S
C381 C383 1.400 . S
C381 N384 1.351 . S
C381 C386 1.501 . S
C382 C383 1.387 . S
C382 N385 1.341 . S
C383 C381 1.400 . S
C383 C382 1.387 . S
N384 Co375 2.022 . S
N384 C381 1.351 . S
N384 N385 1.365 . S
N385 C382 1.341 . S
N385 N384 1.365 . S
N385 H405 0.862 . S
C386 C381 1.501 . S
C386 H387 0.961 . S
C386 H388 0.961 . S
C386 H389 0.960 . S
H387 C386 0.961 . S
H388 C386 0.961 . S
H389 C386 0.960 . S
C390 N391 1.342 . S
C390 C394 1.401 . S
C390 C395 1.499 . S
N391 Co374 1.989 1_556 S
N391 C390 1.342 . S
N391 N392 1.388 1_556 S
N392 Co375 1.993 . S
N392 N391 1.388 1_554 S
N392 C393 1.346 . S
C393 N392 1.346 . S
C393 C394 1.396 1_554 S
C393 C403 1.510 . S
C394 C390 1.401 . S
C394 C393 1.396 1_556 S
C395 C390 1.499 . S
C395 H396 0.959 . S
C395 H397 0.960 . S
C395 H398 0.961 . S
H396 C395 0.959 . S
H397 C395 0.960 . S
H398 C395 0.961 . S
O399 Co374 1.967 . S
O399 C407 1.258 . S
O400 Co375 1.941 . S
O400 C407 1.266 . S
H401 C403 0.959 . S
H402 C403 0.961 . S
C403 C393 1.510 . S
C403 H401 0.959 . S
C403 H402 0.961 . S
C403 H404 0.960 . S
H404 C403 0.960 . S
H405 N385 0.862 . S
O406 Co374 1.920 1_556 S
O406 C379 1.289 . S
C407 O399 1.258 . S
C407 O400 1.266 . S
Co408 O411 1.970 . S
Co408 N425 1.989 . S
Co408 O433 1.967 . S
Co408 O440 1.920 . S
Co409 O412 1.966 . S
Co409 N418 2.022 . S
Co409 N426 1.993 . S
Co409 O434 1.941 . S
C410 O411 1.258 . S
C410 O412 1.263 . S
O411 Co408 1.970 . S
O411 C410 1.258 . S
O412 Co409 1.966 . S
O412 C410 1.263 . S
C413 O414 1.235 . S
C413 O440 1.289 . S
O414 C413 1.235 . S
C415 C417 1.400 . S
C415 N418 1.351 . S
C415 C420 1.501 . S
C416 C417 1.387 . S
C416 N419 1.341 . S
C417 C415 1.400 . S
C417 C416 1.387 . S
N418 Co409 2.022 . S
N418 C415 1.351 . S
N418 N419 1.365 . S
N419 C416 1.341 . S
N419 N418 1.365 . S
N419 H439 0.862 . S
C420 C415 1.501 . S
C420 H421 0.961 . S
C420 H422 0.961 . S
C420 H423 0.960 . S
H421 C420 0.961 . S
H422 C420 0.961 . S
H423 C420 0.960 . S
C424 N425 1.342 . S
C424 C428 1.401 . S
C424 C429 1.499 . S
N425 Co408 1.989 . S
N425 C424 1.342 . S
N425 N426 1.388 . S
N426 Co409 1.993 . S
N426 N425 1.388 . S
N426 C427 1.346 . S
C427 N426 1.346 . S
C427 C428 1.396 . S
C427 C437 1.510 . S
C428 C424 1.401 . S
C428 C427 1.396 . S
C429 C424 1.499 . S
C429 H430 0.959 . S
C429 H431 0.960 . S
C429 H432 0.961 . S
H430 C429 0.959 . S
H431 C429 0.960 . S
H432 C429 0.961 . S
O433 Co408 1.967 . S
O433 C441 1.258 . S
O434 Co409 1.941 . S
O434 C441 1.266 . S
H435 C437 0.959 . S
H436 C437 0.961 . S
C437 C427 1.510 . S
C437 H435 0.959 . S
C437 H436 0.961 . S
C437 H438 0.960 . S
H438 C437 0.960 . S
H439 N419 0.862 . S
O440 Co408 1.920 . S
O440 C413 1.289 . S
C441 O433 1.258 . S
C441 O434 1.266 . S
Co442 O445 1.970 . S
Co442 N459 1.989 . S
Co442 O467 1.967 . S
Co442 O474 1.920 . S
Co443 O446 1.966 . S
Co443 N452 2.022 . S
Co443 N460 1.993 . S
Co443 O468 1.941 . S
C444 O445 1.258 . S
C444 O446 1.263 . S
O445 Co442 1.970 . S
O445 C444 1.258 . S
O446 Co443 1.966 . S
O446 C444 1.263 . S
C447 O448 1.235 . S
C447 O474 1.289 . S
O448 C447 1.235 . S
C449 C451 1.400 . S
C449 N452 1.351 . S
C449 C454 1.501 . S
C450 C451 1.387 . S
C450 N453 1.341 . S
C451 C449 1.400 . S
C451 C450 1.387 . S
N452 Co443 2.022 . S
N452 C449 1.351 . S
N452 N453 1.365 . S
N453 C450 1.341 . S
N453 N452 1.365 . S
N453 H473 0.862 . S
C454 C449 1.501 . S
C454 H455 0.961 . S
C454 H456 0.961 . S
C454 H457 0.960 . S
H455 C454 0.961 . S
H456 C454 0.961 . S
H457 C454 0.960 . S
C458 N459 1.342 . S
C458 C462 1.401 . S
C458 C463 1.499 . S
N459 Co442 1.989 . S
N459 C458 1.342 . S
N459 N460 1.388 . S
N460 Co443 1.993 . S
N460 N459 1.388 . S
N460 C461 1.346 . S
C461 N460 1.346 . S
C461 C462 1.396 . S
C461 C471 1.510 . S
C462 C458 1.401 . S
C462 C461 1.396 . S
C463 C458 1.499 . S
C463 H464 0.959 . S
C463 H465 0.960 . S
C463 H466 0.961 . S
H464 C463 0.959 . S
H465 C463 0.960 . S
H466 C463 0.961 . S
O467 Co442 1.967 . S
O467 C475 1.258 . S
O468 Co443 1.941 . S
O468 C475 1.266 . S
H469 C471 0.959 . S
H470 C471 0.961 . S
C471 C461 1.510 . S
C471 H469 0.959 . S
C471 H470 0.961 . S
C471 H472 0.960 . S
H472 C471 0.960 . S
H473 N453 0.862 . S
O474 Co442 1.920 . S
O474 C447 1.289 . S
C475 O467 1.258 . S
C475 O468 1.266 . S
Co476 O479 1.970 . S
Co476 N493 1.989 . S
Co476 O501 1.967 . S
Co476 O508 1.920 . S
Co477 O480 1.966 . S
Co477 N486 2.022 . S
Co477 N494 1.993 . S
Co477 O502 1.941 . S
C478 O479 1.258 . S
C478 O480 1.263 . S
O479 Co476 1.970 . S
O479 C478 1.258 . S
O480 Co477 1.966 . S
O480 C478 1.263 . S
C481 O482 1.235 . S
C481 O508 1.289 . S
O482 C481 1.235 . S
C483 C485 1.400 . S
C483 N486 1.351 . S
C483 C488 1.501 . S
C484 C485 1.387 . S
C484 N487 1.341 . S
C485 C483 1.400 . S
C485 C484 1.387 . S
N486 Co477 2.022 . S
N486 C483 1.351 . S
N486 N487 1.365 . S
N487 C484 1.341 . S
N487 N486 1.365 . S
N487 H507 0.862 . S
C488 C483 1.501 . S
C488 H489 0.961 . S
C488 H490 0.961 . S
C488 H491 0.960 . S
H489 C488 0.961 . S
H490 C488 0.961 . S
H491 C488 0.960 . S
C492 N493 1.342 . S
C492 C496 1.401 . S
C492 C497 1.499 . S
N493 Co476 1.989 . S
N493 C492 1.342 . S
N493 N494 1.388 . S
N494 Co477 1.993 . S
N494 N493 1.388 . S
N494 C495 1.346 . S
C495 N494 1.346 . S
C495 C496 1.396 . S
C495 C505 1.510 . S
C496 C492 1.401 . S
C496 C495 1.396 . S
C497 C492 1.499 . S
C497 H498 0.959 . S
C497 H499 0.960 . S
C497 H500 0.961 . S
H498 C497 0.959 . S
H499 C497 0.960 . S
H500 C497 0.961 . S
O501 Co476 1.967 . S
O501 C509 1.258 . S
O502 Co477 1.941 . S
O502 C509 1.266 . S
H503 C505 0.959 . S
H504 C505 0.961 . S
C505 C495 1.510 . S
C505 H503 0.959 . S
C505 H504 0.961 . S
C505 H506 0.960 . S
H506 C505 0.960 . S
H507 N487 0.862 . S
O508 Co476 1.920 . S
O508 C481 1.289 . S
C509 O501 1.258 . S
C509 O502 1.266 . S
Co510 O513 1.970 . S
Co510 N527 1.989 . S
Co510 O535 1.967 . S
Co510 O542 1.920 . S
Co511 O514 1.966 . S
Co511 N520 2.022 . S
Co511 N528 1.993 . S
Co511 O536 1.941 . S
C512 O513 1.258 . S
C512 O514 1.263 . S
O513 Co510 1.970 . S
O513 C512 1.258 . S
O514 Co511 1.966 . S
O514 C512 1.263 . S
C515 O516 1.235 . S
C515 O542 1.289 . S
O516 C515 1.235 . S
C517 C519 1.400 . S
C517 N520 1.351 . S
C517 C522 1.501 . S
C518 C519 1.387 . S
C518 N521 1.341 . S
C519 C517 1.400 . S
C519 C518 1.387 . S
N520 Co511 2.022 . S
N520 C517 1.351 . S
N520 N521 1.365 . S
N521 C518 1.341 . S
N521 N520 1.365 . S
N521 H541 0.862 . S
C522 C517 1.501 . S
C522 H523 0.961 . S
C522 H524 0.961 . S
C522 H525 0.960 . S
H523 C522 0.961 . S
H524 C522 0.961 . S
H525 C522 0.960 . S
C526 N527 1.342 . S
C526 C530 1.401 . S
C526 C531 1.499 . S
N527 Co510 1.989 . S
N527 C526 1.342 . S
N527 N528 1.388 . S
N528 Co511 1.993 . S
N528 N527 1.388 . S
N528 C529 1.346 . S
C529 N528 1.346 . S
C529 C530 1.396 . S
C529 C539 1.510 . S
C530 C526 1.401 . S
C530 C529 1.396 . S
C531 C526 1.499 . S
C531 H532 0.959 . S
C531 H533 0.960 . S
C531 H534 0.961 . S
H532 C531 0.959 . S
H533 C531 0.960 . S
H534 C531 0.961 . S
O535 Co510 1.967 . S
O535 C543 1.258 . S
O536 Co511 1.941 . S
O536 C543 1.266 . S
H537 C539 0.959 . S
H538 C539 0.961 . S
C539 C529 1.510 . S
C539 H537 0.959 . S
C539 H538 0.961 . S
C539 H540 0.960 . S
H540 C539 0.960 . S
H541 N521 0.862 . S
O542 Co510 1.920 . S
O542 C515 1.289 . S
C543 O535 1.258 . S
C543 O536 1.266 . S
Co544 O547 1.970 . S
Co544 N561 1.989 . S
Co544 O569 1.967 . S
Co544 O576 1.920 . S
Co545 O548 1.966 . S
Co545 N554 2.022 . S
Co545 N562 1.993 . S
Co545 O570 1.941 . S
C546 O547 1.258 . S
C546 O548 1.263 . S
O547 Co544 1.970 . S
O547 C546 1.258 . S
O548 Co545 1.966 . S
O548 C546 1.263 . S
C549 O550 1.235 . S
C549 O576 1.289 . S
O550 C549 1.235 . S
C551 C553 1.400 . S
C551 N554 1.351 . S
C551 C556 1.501 . S
C552 C553 1.387 . S
C552 N555 1.341 . S
C553 C551 1.400 . S
C553 C552 1.387 . S
N554 Co545 2.022 . S
N554 C551 1.351 . S
N554 N555 1.365 . S
N555 C552 1.341 . S
N555 N554 1.365 . S
N555 H575 0.862 . S
C556 C551 1.501 . S
C556 H557 0.961 . S
C556 H558 0.961 . S
C556 H559 0.960 . S
H557 C556 0.961 . S
H558 C556 0.961 . S
H559 C556 0.960 . S
C560 N561 1.342 . S
C560 C564 1.401 . S
C560 C565 1.499 . S
N561 Co544 1.989 . S
N561 C560 1.342 . S
N561 N562 1.388 . S
N562 Co545 1.993 . S
N562 N561 1.388 . S
N562 C563 1.346 . S
C563 N562 1.346 . S
C563 C564 1.396 . S
C563 C573 1.510 . S
C564 C560 1.401 . S
C564 C563 1.396 . S
C565 C560 1.499 . S
C565 H566 0.959 . S
C565 H567 0.960 . S
C565 H568 0.961 . S
H566 C565 0.959 . S
H567 C565 0.960 . S
H568 C565 0.961 . S
O569 Co544 1.967 . S
O569 C577 1.258 . S
O570 Co545 1.941 . S
O570 C577 1.266 . S
H571 C573 0.959 . S
H572 C573 0.961 . S
C573 C563 1.510 . S
C573 H571 0.959 . S
C573 H572 0.961 . S
C573 H574 0.960 . S
H574 C573 0.960 . S
H575 N555 0.862 . S
O576 Co544 1.920 . S
O576 C549 1.289 . S
C577 O569 1.258 . S
C577 O570 1.266 . S
Co578 O581 1.970 . S
Co578 N595 1.989 . S
Co578 O603 1.967 . S
Co578 O610 1.920 . S
Co579 O582 1.966 . S
Co579 N588 2.022 . S
Co579 N596 1.993 . S
Co579 O604 1.941 . S
C580 O581 1.258 . S
C580 O582 1.263 . S
O581 Co578 1.970 . S
O581 C580 1.258 . S
O582 Co579 1.966 . S
O582 C580 1.263 . S
C583 O584 1.235 . S
C583 O610 1.289 . S
O584 C583 1.235 . S
C585 C587 1.400 . S
C585 N588 1.351 . S
C585 C590 1.501 . S
C586 C587 1.387 . S
C586 N589 1.341 . S
C587 C585 1.400 . S
C587 C586 1.387 . S
N588 Co579 2.022 . S
N588 C585 1.351 . S
N588 N589 1.365 . S
N589 C586 1.341 . S
N589 N588 1.365 . S
N589 H609 0.862 . S
C590 C585 1.501 . S
C590 H591 0.961 . S
C590 H592 0.961 . S
C590 H593 0.960 . S
H591 C590 0.961 . S
H592 C590 0.961 . S
H593 C590 0.960 . S
C594 N595 1.342 . S
C594 C598 1.401 . S
C594 C599 1.499 . S
N595 Co578 1.989 . S
N595 C594 1.342 . S
N595 N596 1.388 . S
N596 Co579 1.993 . S
N596 N595 1.388 . S
N596 C597 1.346 . S
C597 N596 1.346 . S
C597 C598 1.396 . S
C597 C607 1.510 . S
C598 C594 1.401 . S
C598 C597 1.396 . S
C599 C594 1.499 . S
C599 H600 0.959 . S
C599 H601 0.960 . S
C599 H602 0.961 . S
H600 C599 0.959 . S
H601 C599 0.960 . S
H602 C599 0.961 . S
O603 Co578 1.967 . S
O603 C611 1.258 . S
O604 Co579 1.941 . S
O604 C611 1.266 . S
H605 C607 0.959 . S
H606 C607 0.961 . S
C607 C597 1.510 . S
C607 H605 0.959 . S
C607 H606 0.961 . S
C607 H608 0.960 . S
H608 C607 0.960 . S
H609 N589 0.862 . S
O610 Co578 1.920 . S
O610 C583 1.289 . S
C611 O603 1.258 . S
C611 O604 1.266 . S
Co612 O615 1.970 . S
Co612 N629 1.989 . S
Co612 O637 1.967 . S
Co612 O644 1.920 . S
Co613 O616 1.966 . S
Co613 N622 2.022 . S
Co613 N630 1.993 . S
Co613 O638 1.941 . S
C614 O615 1.258 . S
C614 O616 1.263 . S
O615 Co612 1.970 . S
O615 C614 1.258 . S
O616 Co613 1.966 . S
O616 C614 1.263 . S
C617 O618 1.235 . S
C617 O644 1.289 . S
O618 C617 1.235 . S
C619 C621 1.400 . S
C619 N622 1.351 . S
C619 C624 1.501 . S
C620 C621 1.387 . S
C620 N623 1.341 . S
C621 C619 1.400 . S
C621 C620 1.387 . S
N622 Co613 2.022 . S
N622 C619 1.351 . S
N622 N623 1.365 . S
N623 C620 1.341 . S
N623 N622 1.365 . S
N623 H643 0.862 . S
C624 C619 1.501 . S
C624 H625 0.961 . S
C624 H626 0.961 . S
C624 H627 0.960 . S
H625 C624 0.961 . S
H626 C624 0.961 . S
H627 C624 0.960 . S
C628 N629 1.342 . S
C628 C632 1.401 . S
C628 C633 1.499 . S
N629 Co612 1.989 . S
N629 C628 1.342 . S
N629 N630 1.388 . S
N630 Co613 1.993 . S
N630 N629 1.388 . S
N630 C631 1.346 . S
C631 N630 1.346 . S
C631 C632 1.396 . S
C631 C641 1.510 . S
C632 C628 1.401 . S
C632 C631 1.396 . S
C633 C628 1.499 . S
C633 H634 0.959 . S
C633 H635 0.960 . S
C633 H636 0.961 . S
H634 C633 0.959 . S
H635 C633 0.960 . S
H636 C633 0.961 . S
O637 Co612 1.967 . S
O637 C645 1.258 . S
O638 Co613 1.941 . S
O638 C645 1.266 . S
H639 C641 0.959 . S
H640 C641 0.961 . S
C641 C631 1.510 . S
C641 H639 0.959 . S
C641 H640 0.961 . S
C641 H642 0.960 . S
H642 C641 0.960 . S
H643 N623 0.862 . S
O644 Co612 1.920 . S
O644 C617 1.289 . S
C645 O637 1.258 . S
C645 O638 1.266 . S
Co646 O649 1.970 . S
Co646 N663 1.989 . S
Co646 O671 1.967 . S
Co646 O678 1.920 . S
Co647 O650 1.966 . S
Co647 N656 2.022 . S
Co647 N664 1.993 . S
Co647 O672 1.941 . S
C648 O649 1.258 . S
C648 O650 1.263 . S
O649 Co646 1.970 . S
O649 C648 1.258 . S
O650 Co647 1.966 . S
O650 C648 1.263 . S
C651 O652 1.235 . S
C651 O678 1.289 . S
O652 C651 1.235 . S
C653 C655 1.400 . S
C653 N656 1.351 . S
C653 C658 1.501 . S
C654 C655 1.387 . S
C654 N657 1.341 . S
C655 C653 1.400 . S
C655 C654 1.387 . S
N656 Co647 2.022 . S
N656 C653 1.351 . S
N656 N657 1.365 . S
N657 C654 1.341 . S
N657 N656 1.365 . S
N657 H677 0.862 . S
C658 C653 1.501 . S
C658 H659 0.961 . S
C658 H660 0.961 . S
C658 H661 0.960 . S
H659 C658 0.961 . S
H660 C658 0.961 . S
H661 C658 0.960 . S
C662 N663 1.342 . S
C662 C666 1.401 . S
C662 C667 1.499 . S
N663 Co646 1.989 . S
N663 C662 1.342 . S
N663 N664 1.388 . S
N664 Co647 1.993 . S
N664 N663 1.388 . S
N664 C665 1.346 . S
C665 N664 1.346 . S
C665 C666 1.396 . S
C665 C675 1.510 . S
C666 C662 1.401 . S
C666 C665 1.396 . S
C667 C662 1.499 . S
C667 H668 0.959 . S
C667 H669 0.960 . S
C667 H670 0.961 . S
H668 C667 0.959 . S
H669 C667 0.960 . S
H670 C667 0.961 . S
O671 Co646 1.967 . S
O671 C679 1.258 . S
O672 Co647 1.941 . S
O672 C679 1.266 . S
H673 C675 0.959 . S
H674 C675 0.961 . S
C675 C665 1.510 . S
C675 H673 0.959 . S
C675 H674 0.961 . S
C675 H676 0.960 . S
H676 C675 0.960 . S
H677 N657 0.862 . S
O678 Co646 1.920 . S
O678 C651 1.289 . S
C679 O671 1.258 . S
C679 O672 1.266 . S
Co680 O683 1.970 . S
Co680 N697 1.989 . S
Co680 O705 1.967 . S
Co680 O712 1.920 . S
Co681 O684 1.966 . S
Co681 N690 2.022 . S
Co681 N698 1.993 . S
Co681 O706 1.941 . S
C682 O683 1.258 . S
C682 O684 1.263 . S
O683 Co680 1.970 . S
O683 C682 1.258 . S
O684 Co681 1.966 . S
O684 C682 1.263 . S
C685 O686 1.235 . S
C685 O712 1.289 . S
O686 C685 1.235 . S
C687 C689 1.400 . S
C687 N690 1.351 . S
C687 C692 1.501 . S
C688 C689 1.387 . S
C688 N691 1.341 . S
C689 C687 1.400 . S
C689 C688 1.387 . S
N690 Co681 2.022 . S
N690 C687 1.351 . S
N690 N691 1.365 . S
N691 C688 1.341 . S
N691 N690 1.365 . S
N691 H711 0.862 . S
C692 C687 1.501 . S
C692 H693 0.961 . S
C692 H694 0.961 . S
C692 H695 0.960 . S
H693 C692 0.961 . S
H694 C692 0.961 . S
H695 C692 0.960 . S
C696 N697 1.342 . S
C696 C700 1.401 . S
C696 C701 1.499 . S
N697 Co680 1.989 . S
N697 C696 1.342 . S
N697 N698 1.388 . S
N698 Co681 1.993 . S
N698 N697 1.388 . S
N698 C699 1.346 . S
C699 N698 1.346 . S
C699 C700 1.396 . S
C699 C709 1.510 . S
C700 C696 1.401 . S
C700 C699 1.396 . S
C701 C696 1.499 . S
C701 H702 0.959 . S
C701 H703 0.960 . S
C701 H704 0.961 . S
H702 C701 0.959 . S
H703 C701 0.960 . S
H704 C701 0.961 . S
O705 Co680 1.967 . S
O705 C713 1.258 . S
O706 Co681 1.941 . S
O706 C713 1.266 . S
H707 C709 0.959 . S
H708 C709 0.961 . S
C709 C699 1.510 . S
C709 H707 0.959 . S
C709 H708 0.961 . S
C709 H710 0.960 . S
H710 C709 0.960 . S
H711 N691 0.862 . S
O712 Co680 1.920 . S
O712 C685 1.289 . S
C713 O705 1.258 . S
C713 O706 1.266 . S
Co714 O717 1.970 . S
Co714 N731 1.989 . S
Co714 O739 1.967 . S
Co714 O746 1.920 . S
Co715 O718 1.966 . S
Co715 N724 2.022 . S
Co715 N732 1.993 . S
Co715 O740 1.941 . S
C716 O717 1.258 . S
C716 O718 1.263 . S
O717 Co714 1.970 . S
O717 C716 1.258 . S
O718 Co715 1.966 . S
O718 C716 1.263 . S
C719 O720 1.235 . S
C719 O746 1.289 . S
O720 C719 1.235 . S
C721 C723 1.400 . S
C721 N724 1.351 . S
C721 C726 1.501 . S
C722 C723 1.387 . S
C722 N725 1.341 . S
C723 C721 1.400 . S
C723 C722 1.387 . S
N724 Co715 2.022 . S
N724 C721 1.351 . S
N724 N725 1.365 . S
N725 C722 1.341 . S
N725 N724 1.365 . S
N725 H745 0.862 . S
C726 C721 1.501 . S
C726 H727 0.961 . S
C726 H728 0.961 . S
C726 H729 0.960 . S
H727 C726 0.961 . S
H728 C726 0.961 . S
H729 C726 0.960 . S
C730 N731 1.342 . S
C730 C734 1.401 . S
C730 C735 1.499 . S
N731 Co714 1.989 . S
N731 C730 1.342 . S
N731 N732 1.388 . S
N732 Co715 1.993 . S
N732 N731 1.388 . S
N732 C733 1.346 . S
C733 N732 1.346 . S
C733 C734 1.396 . S
C733 C743 1.510 . S
C734 C730 1.401 . S
C734 C733 1.396 . S
C735 C730 1.499 . S
C735 H736 0.959 . S
C735 H737 0.960 . S
C735 H738 0.961 . S
H736 C735 0.959 . S
H737 C735 0.960 . S
H738 C735 0.961 . S
O739 Co714 1.967 . S
O739 C747 1.258 . S
O740 Co715 1.941 . S
O740 C747 1.266 . S
H741 C743 0.959 . S
H742 C743 0.961 . S
C743 C733 1.510 . S
C743 H741 0.959 . S
C743 H742 0.961 . S
C743 H744 0.960 . S
H744 C743 0.960 . S
H745 N725 0.862 . S
O746 Co714 1.920 . S
O746 C719 1.289 . S
C747 O739 1.258 . S
C747 O740 1.266 . S
Co748 O751 1.970 . S
Co748 N765 1.989 . S
Co748 O773 1.967 . S
Co748 O780 1.920 . S
Co749 O752 1.966 . S
Co749 N758 2.022 . S
Co749 N766 1.993 . S
Co749 O774 1.941 . S
C750 O751 1.258 . S
C750 O752 1.263 . S
O751 Co748 1.970 . S
O751 C750 1.258 . S
O752 Co749 1.966 . S
O752 C750 1.263 . S
C753 O754 1.235 . S
C753 O780 1.289 . S
O754 C753 1.235 . S
C755 C757 1.400 . S
C755 N758 1.351 . S
C755 C760 1.501 . S
C756 C757 1.387 . S
C756 N759 1.341 . S
C757 C755 1.400 . S
C757 C756 1.387 . S
N758 Co749 2.022 . S
N758 C755 1.351 . S
N758 N759 1.365 . S
N759 C756 1.341 . S
N759 N758 1.365 . S
N759 H779 0.862 . S
C760 C755 1.501 . S
C760 H761 0.961 . S
C760 H762 0.961 . S
C760 H763 0.960 . S
H761 C760 0.961 . S
H762 C760 0.961 . S
H763 C760 0.960 . S
C764 N765 1.342 . S
C764 C768 1.401 . S
C764 C769 1.499 . S
N765 Co748 1.989 . S
N765 C764 1.342 . S
N765 N766 1.388 . S
N766 Co749 1.993 . S
N766 N765 1.388 . S
N766 C767 1.346 . S
C767 N766 1.346 . S
C767 C768 1.396 . S
C767 C777 1.510 . S
C768 C764 1.401 . S
C768 C767 1.396 . S
C769 C764 1.499 . S
C769 H770 0.959 . S
C769 H771 0.960 . S
C769 H772 0.961 . S
H770 C769 0.959 . S
H771 C769 0.960 . S
H772 C769 0.961 . S
O773 Co748 1.967 . S
O773 C781 1.258 . S
O774 Co749 1.941 . S
O774 C781 1.266 . S
H775 C777 0.959 . S
H776 C777 0.961 . S
C777 C767 1.510 . S
C777 H775 0.959 . S
C777 H776 0.961 . S
C777 H778 0.960 . S
H778 C777 0.960 . S
H779 N759 0.862 . S
O780 Co748 1.920 . S
O780 C753 1.289 . S
C781 O773 1.258 . S
C781 O774 1.266 . S
Co782 O785 1.970 . S
Co782 N799 1.989 . S
Co782 O807 1.967 . S
Co782 O814 1.920 . S
Co783 O786 1.966 . S
Co783 N792 2.022 . S
Co783 N800 1.993 . S
Co783 O808 1.941 . S
C784 O785 1.258 . S
C784 O786 1.263 . S
O785 Co782 1.970 . S
O785 C784 1.258 . S
O786 Co783 1.966 . S
O786 C784 1.263 . S
C787 O788 1.235 . S
C787 O814 1.289 . S
O788 C787 1.235 . S
C789 C791 1.400 . S
C789 N792 1.351 . S
C789 C794 1.501 . S
C790 C791 1.387 . S
C790 N793 1.341 . S
C791 C789 1.400 . S
C791 C790 1.387 . S
N792 Co783 2.022 . S
N792 C789 1.351 . S
N792 N793 1.365 . S
N793 C790 1.341 . S
N793 N792 1.365 . S
N793 H813 0.862 . S
C794 C789 1.501 . S
C794 H795 0.961 . S
C794 H796 0.961 . S
C794 H797 0.960 . S
H795 C794 0.961 . S
H796 C794 0.961 . S
H797 C794 0.960 . S
C798 N799 1.342 . S
C798 C802 1.401 . S
C798 C803 1.499 . S
N799 Co782 1.989 . S
N799 C798 1.342 . S
N799 N800 1.388 . S
N800 Co783 1.993 . S
N800 N799 1.388 . S
N800 C801 1.346 . S
C801 N800 1.346 . S
C801 C802 1.396 . S
C801 C811 1.510 . S
C802 C798 1.401 . S
C802 C801 1.396 . S
C803 C798 1.499 . S
C803 H804 0.959 . S
C803 H805 0.960 . S
C803 H806 0.961 . S
H804 C803 0.959 . S
H805 C803 0.960 . S
H806 C803 0.961 . S
O807 Co782 1.967 . S
O807 C815 1.258 . S
O808 Co783 1.941 . S
O808 C815 1.266 . S
H809 C811 0.959 . S
H810 C811 0.961 . S
C811 C801 1.510 . S
C811 H809 0.959 . S
C811 H810 0.961 . S
C811 H812 0.960 . S
H812 C811 0.960 . S
H813 N793 0.862 . S
O814 Co782 1.920 . S
O814 C787 1.289 . S
C815 O807 1.258 . S
C815 O808 1.266 . S
C816 C817 1.363 . S
C816 C822 1.379 . S
C816 N824 1.356 . S
C817 C816 1.363 . S
C817 C823 1.363 . S
C818 C819 1.363 . S
C818 C823 1.379 . S
C818 N825 1.356 . S
C819 C818 1.363 . S
C819 C822 1.363 . S
N820 C822 1.356 . S
N820 H832 0.984 . S
N820 H833 0.985 . S
N821 C823 1.356 . S
N821 H826 0.984 . S
N821 H827 0.985 . S
C822 C816 1.379 . S
C822 C819 1.363 . S
C822 N820 1.356 . S
C823 C817 1.363 . S
C823 C818 1.379 . S
C823 N821 1.356 . S
N824 C816 1.356 . S
N824 H830 0.984 . S
N824 H831 0.984 . S
N825 C818 1.356 . S
N825 H828 0.984 . S
N825 H829 0.985 . S
H826 N821 0.984 . S
H827 N821 0.985 . S
H828 N825 0.984 . S
H829 N825 0.985 . S
H830 N824 0.984 . S
H831 N824 0.984 . S
H832 N820 0.984 . S
H833 N820 0.985 . S
C834 C835 1.363 . S
C834 C840 1.379 . S
C834 N842 1.356 . S
C835 C834 1.363 . S
C835 C841 1.363 . S
C836 C837 1.363 . S
C836 C841 1.379 . S
C836 N843 1.356 . S
C837 C836 1.363 . S
C837 C840 1.363 . S
N838 C840 1.356 . S
N838 H850 0.984 . S
N838 H851 0.985 . S
N839 C841 1.356 . S
N839 H844 0.984 . S
N839 H845 0.985 . S
C840 C834 1.379 . S
C840 C837 1.363 . S
C840 N838 1.356 . S
C841 C835 1.363 . S
C841 C836 1.379 . S
C841 N839 1.356 . S
N842 C834 1.356 . S
N842 H848 0.984 . S
N842 H849 0.984 . S
N843 C836 1.356 . S
N843 H846 0.984 . S
N843 H847 0.985 . S
H844 N839 0.984 . S
H845 N839 0.985 . S
H846 N843 0.984 . S
H847 N843 0.985 . S
H848 N842 0.984 . S
H849 N842 0.984 . S
H850 N838 0.984 . S
H851 N838 0.985 . S
C852 C853 1.363 . S
C852 C858 1.379 . S
C852 N860 1.356 . S
C853 C852 1.363 . S
C853 C859 1.363 . S
C854 C855 1.363 . S
C854 C859 1.379 . S
C854 N861 1.356 . S
C855 C854 1.363 . S
C855 C858 1.363 . S
N856 C858 1.356 . S
N856 H868 0.984 . S
N856 H869 0.985 . S
N857 C859 1.356 . S
N857 H862 0.984 . S
N857 H863 0.985 . S
C858 C852 1.379 . S
C858 C855 1.363 . S
C858 N856 1.356 . S
C859 C853 1.363 . S
C859 C854 1.379 . S
C859 N857 1.356 . S
N860 C852 1.356 . S
N860 H866 0.984 . S
N860 H867 0.984 . S
N861 C854 1.356 . S
N861 H864 0.984 . S
N861 H865 0.985 . S
H862 N857 0.984 . S
H863 N857 0.985 . S
H864 N861 0.984 . S
H865 N861 0.985 . S
H866 N860 0.984 . S
H867 N860 0.984 . S
H868 N856 0.984 . S
H869 N856 0.985 . S
C870 C871 1.363 . S
C870 C876 1.379 . S
C870 N878 1.356 . S
C871 C870 1.363 . S
C871 C877 1.363 . S
C872 C873 1.363 . S
C872 C877 1.379 . S
C872 N879 1.356 . S
C873 C872 1.363 . S
C873 C876 1.363 . S
N874 C876 1.356 . S
N874 H886 0.984 . S
N874 H887 0.985 . S
N875 C877 1.356 . S
N875 H880 0.984 . S
N875 H881 0.985 . S
C876 C870 1.379 . S
C876 C873 1.363 . S
C876 N874 1.356 . S
C877 C871 1.363 . S
C877 C872 1.379 . S
C877 N875 1.356 . S
N878 C870 1.356 . S
N878 H884 0.984 . S
N878 H885 0.984 . S
N879 C872 1.356 . S
N879 H882 0.984 . S
N879 H883 0.985 . S
H880 N875 0.984 . S
H881 N875 0.985 . S
H882 N879 0.984 . S
H883 N879 0.985 . S
H884 N878 0.984 . S
H885 N878 0.984 . S
H886 N874 0.984 . S
H887 N874 0.985 . S
C888 C889 1.363 . S
C888 C894 1.379 . S
C888 N896 1.356 . S
C889 C888 1.363 . S
C889 C895 1.363 . S
C890 C891 1.363 . S
C890 C895 1.379 . S
C890 N897 1.356 . S
C891 C890 1.363 . S
C891 C894 1.363 . S
N892 C894 1.356 . S
N892 H904 0.984 . S
N892 H905 0.985 . S
N893 C895 1.356 . S
N893 H898 0.984 . S
N893 H899 0.985 . S
C894 C888 1.379 . S
C894 C891 1.363 . S
C894 N892 1.356 . S
C895 C889 1.363 . S
C895 C890 1.379 . S
C895 N893 1.356 . S
N896 C888 1.356 . S
N896 H902 0.984 . S
N896 H903 0.984 . S
N897 C890 1.356 . S
N897 H900 0.984 . S
N897 H901 0.985 . S
H898 N893 0.984 . S
H899 N893 0.985 . S
H900 N897 0.984 . S
H901 N897 0.985 . S
H902 N896 0.984 . S
H903 N896 0.984 . S
H904 N892 0.984 . S
H905 N892 0.985 . S
C906 C907 1.363 . S
C906 C912 1.379 . S
C906 N914 1.356 . S
C907 C906 1.363 . S
C907 C913 1.363 . S
C908 C909 1.363 . S
C908 C913 1.379 . S
C908 N915 1.356 . S
C909 C908 1.363 . S
C909 C912 1.363 . S
N910 C912 1.356 . S
N910 H922 0.984 . S
N910 H923 0.985 . S
N911 C913 1.356 . S
N911 H916 0.984 . S
N911 H917 0.985 . S
C912 C906 1.379 . S
C912 C909 1.363 . S
C912 N910 1.356 . S
C913 C907 1.363 . S
C913 C908 1.379 . S
C913 N911 1.356 . S
N914 C906 1.356 . S
N914 H920 0.984 . S
N914 H921 0.984 . S
N915 C908 1.356 . S
N915 H918 0.984 . S
N915 H919 0.985 . S
H916 N911 0.984 . S
H917 N911 0.985 . S
H918 N915 0.984 . S
H919 N915 0.985 . S
H920 N914 0.984 . S
H921 N914 0.984 . S
H922 N910 0.984 . S
H923 N910 0.985 . S
C924 C925 1.363 . S
C924 C930 1.379 . S
C924 N932 1.356 . S
C925 C924 1.363 . S
C925 C931 1.363 . S
C926 C927 1.363 . S
C926 C931 1.379 . S
C926 N933 1.356 . S
C927 C926 1.363 . S
C927 C930 1.363 . S
N928 C930 1.356 . S
N928 H940 0.984 . S
N928 H941 0.985 . S
N929 C931 1.356 . S
N929 H934 0.984 . S
N929 H935 0.985 . S
C930 C924 1.379 . S
C930 C927 1.363 . S
C930 N928 1.356 . S
C931 C925 1.363 . S
C931 C926 1.379 . S
C931 N929 1.356 . S
N932 C924 1.356 . S
N932 H938 0.984 . S
N932 H939 0.984 . S
N933 C926 1.356 . S
N933 H936 0.984 . S
N933 H937 0.985 . S
H934 N929 0.984 . S
H935 N929 0.985 . S
H936 N933 0.984 . S
H937 N933 0.985 . S
H938 N932 0.984 . S
H939 N932 0.984 . S
H940 N928 0.984 . S
H941 N928 0.985 . S
C942 C943 1.363 . S
C942 C948 1.379 . S
C942 N950 1.356 . S
C943 C942 1.363 . S
C943 C949 1.363 . S
C944 C945 1.363 . S
C944 C949 1.379 . S
C944 N951 1.356 . S
C945 C944 1.363 . S
C945 C948 1.363 . S
N946 C948 1.356 . S
N946 H958 0.984 . S
N946 H959 0.985 . S
N947 C949 1.356 . S
N947 H952 0.984 . S
N947 H953 0.985 . S
C948 C942 1.379 . S
C948 C945 1.363 . S
C948 N946 1.356 . S
C949 C943 1.363 . S
C949 C944 1.379 . S
C949 N947 1.356 . S
N950 C942 1.356 . S
N950 H956 0.984 . S
N950 H957 0.984 . S
N951 C944 1.356 . S
N951 H954 0.984 . S
N951 H955 0.985 . S
H952 N947 0.984 . S
H953 N947 0.985 . S
H954 N951 0.984 . S
H955 N951 0.985 . S
H956 N950 0.984 . S
H957 N950 0.984 . S
H958 N946 0.984 . S
H959 N946 0.985 . S
C960 C961 1.363 . S
C960 C966 1.379 . S
C960 N968 1.356 . S
C961 C960 1.363 . S
C961 C967 1.363 . S
C962 C963 1.363 . S
C962 C967 1.379 . S
C962 N969 1.356 . S
C963 C962 1.363 . S
C963 C966 1.363 . S
N964 C966 1.356 . S
N964 H976 0.984 . S
N964 H977 0.985 . S
N965 C967 1.356 . S
N965 H970 0.984 . S
N965 H971 0.985 . S
C966 C960 1.379 . S
C966 C963 1.363 . S
C966 N964 1.356 . S
C967 C961 1.363 . S
C967 C962 1.379 . S
C967 N965 1.356 . S
N968 C960 1.356 . S
N968 H974 0.984 . S
N968 H975 0.984 . S
N969 C962 1.356 . S
N969 H972 0.984 . S
N969 H973 0.985 . S
H970 N965 0.984 . S
H971 N965 0.985 . S
H972 N969 0.984 . S
H973 N969 0.985 . S
H974 N968 0.984 . S
H975 N968 0.984 . S
H976 N964 0.984 . S
H977 N964 0.985 . S
C978 C979 1.363 . S
C978 C984 1.379 . S
C978 N986 1.356 . S
C979 C978 1.363 . S
C979 C985 1.363 . S
C980 C981 1.363 . S
C980 C985 1.379 . S
C980 N987 1.356 . S
C981 C980 1.363 . S
C981 C984 1.363 . S
N982 C984 1.356 . S
N982 H994 0.984 . S
N982 H995 0.985 . S
N983 C985 1.356 . S
N983 H988 0.984 . S
N983 H989 0.985 . S
C984 C978 1.379 . S
C984 C981 1.363 . S
C984 N982 1.356 . S
C985 C979 1.363 . S
C985 C980 1.379 . S
C985 N983 1.356 . S
N986 C978 1.356 . S
N986 H992 0.984 . S
N986 H993 0.984 . S
N987 C980 1.356 . S
N987 H990 0.984 . S
N987 H991 0.985 . S
H988 N983 0.984 . S
H989 N983 0.985 . S
H990 N987 0.984 . S
H991 N987 0.985 . S
H992 N986 0.984 . S
H993 N986 0.984 . S
H994 N982 0.984 . S
H995 N982 0.985 . S
C996 C997 1.363 . S
C996 C1002 1.379 . S
C996 N1004 1.356 . S
C997 C996 1.363 . S
C997 C1003 1.363 . S
C998 C999 1.363 . S
C998 C1003 1.379 . S
C998 N1005 1.356 . S
C999 C998 1.363 . S
C999 C1002 1.363 . S
N1000 C1002 1.356 . S
N1000 H1012 0.984 . S
N1000 H1013 0.985 . S
N1001 C1003 1.356 . S
N1001 H1006 0.984 . S
N1001 H1007 0.985 . S
C1002 C996 1.379 . S
C1002 C999 1.363 . S
C1002 N1000 1.356 . S
C1003 C997 1.363 . S
C1003 C998 1.379 . S
C1003 N1001 1.356 . S
N1004 C996 1.356 . S
N1004 H1010 0.984 . S
N1004 H1011 0.984 . S
N1005 C998 1.356 . S
N1005 H1008 0.984 . S
N1005 H1009 0.985 . S
H1006 N1001 0.984 . S
H1007 N1001 0.985 . S
H1008 N1005 0.984 . S
H1009 N1005 0.985 . S
H1010 N1004 0.984 . S
H1011 N1004 0.984 . S
H1012 N1000 0.984 . S
H1013 N1000 0.985 . S
C1014 C1015 1.363 . S
C1014 C1020 1.379 . S
C1014 N1022 1.356 . S
C1015 C1014 1.363 . S
C1015 C1021 1.363 . S
C1016 C1017 1.363 . S
C1016 C1021 1.379 . S
C1016 N1023 1.356 . S
C1017 C1016 1.363 . S
C1017 C1020 1.363 . S
N1018 C1020 1.356 . S
N1018 H1030 0.984 . S
N1018 H1031 0.985 . S
N1019 C1021 1.356 . S
N1019 H1024 0.984 . S
N1019 H1025 0.985 . S
C1020 C1014 1.379 . S
C1020 C1017 1.363 . S
C1020 N1018 1.356 . S
C1021 C1015 1.363 . S
C1021 C1016 1.379 . S
C1021 N1019 1.356 . S
N1022 C1014 1.356 . S
N1022 H1028 0.984 . S
N1022 H1029 0.984 . S
N1023 C1016 1.356 . S
N1023 H1026 0.984 . S
N1023 H1027 0.985 . S
H1024 N1019 0.984 . S
H1025 N1019 0.985 . S
H1026 N1023 0.984 . S
H1027 N1023 0.985 . S
H1028 N1022 0.984 . S
H1029 N1022 0.984 . S
H1030 N1018 0.984 . S
H1031 N1018 0.985 . S
C1032 C1033 1.363 . S
C1032 C1038 1.379 . S
C1032 N1040 1.356 . S
C1033 C1032 1.363 . S
C1033 C1039 1.363 . S
C1034 C1035 1.363 . S
C1034 C1039 1.379 . S
C1034 N1041 1.356 . S
C1035 C1034 1.363 . S
C1035 C1038 1.363 . S
N1036 C1038 1.356 . S
N1036 H1048 0.984 . S
N1036 H1049 0.985 . S
N1037 C1039 1.356 . S
N1037 H1042 0.984 . S
N1037 H1043 0.985 . S
C1038 C1032 1.379 . S
C1038 C1035 1.363 . S
C1038 N1036 1.356 . S
C1039 C1033 1.363 . S
C1039 C1034 1.379 . S
C1039 N1037 1.356 . S
N1040 C1032 1.356 . S
N1040 H1046 0.984 . S
N1040 H1047 0.984 . S
N1041 C1034 1.356 . S
N1041 H1044 0.984 . S
N1041 H1045 0.985 . S
H1042 N1037 0.984 . S
H1043 N1037 0.985 . S
H1044 N1041 0.984 . S
H1045 N1041 0.985 . S
H1046 N1040 0.984 . S
H1047 N1040 0.984 . S
H1048 N1036 0.984 . S
H1049 N1036 0.985 . S
C1050 C1051 1.363 . S
C1050 C1056 1.379 . S
C1050 N1058 1.356 . S
C1051 C1050 1.363 . S
C1051 C1057 1.363 . S
C1052 C1053 1.363 . S
C1052 C1057 1.379 . S
C1052 N1059 1.356 . S
C1053 C1052 1.363 . S
C1053 C1056 1.363 . S
N1054 C1056 1.356 . S
N1054 H1066 0.984 . S
N1054 H1067 0.985 . S
N1055 C1057 1.356 . S
N1055 H1060 0.984 . S
N1055 H1061 0.985 . S
C1056 C1050 1.379 . S
C1056 C1053 1.363 . S
C1056 N1054 1.356 . S
C1057 C1051 1.363 . S
C1057 C1052 1.379 . S
C1057 N1055 1.356 . S
N1058 C1050 1.356 . S
N1058 H1064 0.984 . S
N1058 H1065 0.984 . S
N1059 C1052 1.356 . S
N1059 H1062 0.984 . S
N1059 H1063 0.985 . S
H1060 N1055 0.984 . S
H1061 N1055 0.985 . S
H1062 N1059 0.984 . S
H1063 N1059 0.985 . S
H1064 N1058 0.984 . S
H1065 N1058 0.984 . S
H1066 N1054 0.984 . S
H1067 N1054 0.985 . S
C1068 C1069 1.363 . S
C1068 C1074 1.379 . S
C1068 N1076 1.356 . S
C1069 C1068 1.363 . S
C1069 C1075 1.363 . S
C1070 C1071 1.363 . S
C1070 C1075 1.379 . S
C1070 N1077 1.356 . S
C1071 C1070 1.363 . S
C1071 C1074 1.363 . S
N1072 C1074 1.356 . S
N1072 H1084 0.984 . S
N1072 H1085 0.985 . S
N1073 C1075 1.356 . S
N1073 H1078 0.984 . S
N1073 H1079 0.985 . S
C1074 C1068 1.379 . S
C1074 C1071 1.363 . S
C1074 N1072 1.356 . S
C1075 C1069 1.363 . S
C1075 C1070 1.379 . S
C1075 N1073 1.356 . S
N1076 C1068 1.356 . S
N1076 H1082 0.984 . S
N1076 H1083 0.984 . S
N1077 C1070 1.356 . S
N1077 H1080 0.984 . S
N1077 H1081 0.985 . S
H1078 N1073 0.984 . S
H1079 N1073 0.985 . S
H1080 N1077 0.984 . S
H1081 N1077 0.985 . S
H1082 N1076 0.984 . S
H1083 N1076 0.984 . S
H1084 N1072 0.984 . S
H1085 N1072 0.985 . S
C1086 C1087 1.363 . S
C1086 C1092 1.379 . S
C1086 N1094 1.356 . S
C1087 C1086 1.363 . S
C1087 C1093 1.363 . S
C1088 C1089 1.363 . S
C1088 C1093 1.379 . S
C1088 N1095 1.356 . S
C1089 C1088 1.363 . S
C1089 C1092 1.363 . S
N1090 C1092 1.356 . S
N1090 H1102 0.984 . S
N1090 H1103 0.985 . S
N1091 C1093 1.356 . S
N1091 H1096 0.984 . S
N1091 H1097 0.985 . S
C1092 C1086 1.379 . S
C1092 C1089 1.363 . S
C1092 N1090 1.356 . S
C1093 C1087 1.363 . S
C1093 C1088 1.379 . S
C1093 N1091 1.356 . S
N1094 C1086 1.356 . S
N1094 H1100 0.984 . S
N1094 H1101 0.984 . S
N1095 C1088 1.356 . S
N1095 H1098 0.984 . S
N1095 H1099 0.985 . S
H1096 N1091 0.984 . S
H1097 N1091 0.985 . S
H1098 N1095 0.984 . S
H1099 N1095 0.985 . S
H1100 N1094 0.984 . S
H1101 N1094 0.984 . S
H1102 N1090 0.984 . S
H1103 N1090 0.985 . S
C1104 C1105 1.363 . S
C1104 C1110 1.379 . S
C1104 N1112 1.356 . S
C1105 C1104 1.363 . S
C1105 C1111 1.363 . S
C1106 C1107 1.363 . S
C1106 C1111 1.379 . S
C1106 N1113 1.356 . S
C1107 C1106 1.363 . S
C1107 C1110 1.363 . S
N1108 C1110 1.356 . S
N1108 H1120 0.984 . S
N1108 H1121 0.985 . S
N1109 C1111 1.356 . S
N1109 H1114 0.984 . S
N1109 H1115 0.985 . S
C1110 C1104 1.379 . S
C1110 C1107 1.363 . S
C1110 N1108 1.356 . S
C1111 C1105 1.363 . S
C1111 C1106 1.379 . S
C1111 N1109 1.356 . S
N1112 C1104 1.356 . S
N1112 H1118 0.984 . S
N1112 H1119 0.984 . S
N1113 C1106 1.356 . S
N1113 H1116 0.984 . S
N1113 H1117 0.985 . S
H1114 N1109 0.984 . S
H1115 N1109 0.985 . S
H1116 N1113 0.984 . S
H1117 N1113 0.985 . S
H1118 N1112 0.984 . S
H1119 N1112 0.984 . S
H1120 N1108 0.984 . S
H1121 N1108 0.985 . S
C1122 C1123 1.363 . S
C1122 C1128 1.379 . S
C1122 N1130 1.356 . S
C1123 C1122 1.363 . S
C1123 C1129 1.363 . S
C1124 C1125 1.363 . S
C1124 C1129 1.379 . S
C1124 N1131 1.356 . S
C1125 C1124 1.363 . S
C1125 C1128 1.363 . S
N1126 C1128 1.356 . S
N1126 H1138 0.984 . S
N1126 H1139 0.985 . S
N1127 C1129 1.356 . S
N1127 H1132 0.984 . S
N1127 H1133 0.985 . S
C1128 C1122 1.379 . S
C1128 C1125 1.363 . S
C1128 N1126 1.356 . S
C1129 C1123 1.363 . S
C1129 C1124 1.379 . S
C1129 N1127 1.356 . S
N1130 C1122 1.356 . S
N1130 H1136 0.984 . S
N1130 H1137 0.984 . S
N1131 C1124 1.356 . S
N1131 H1134 0.984 . S
N1131 H1135 0.985 . S
H1132 N1127 0.984 . S
H1133 N1127 0.985 . S
H1134 N1131 0.984 . S
H1135 N1131 0.985 . S
H1136 N1130 0.984 . S
H1137 N1130 0.984 . S
H1138 N1126 0.984 . S
H1139 N1126 0.985 . S
C1140 C1141 1.363 . S
C1140 C1146 1.379 . S
C1140 N1148 1.356 . S
C1141 C1140 1.363 . S
C1141 C1147 1.363 . S
C1142 C1143 1.363 . S
C1142 C1147 1.379 . S
C1142 N1149 1.356 . S
C1143 C1142 1.363 . S
C1143 C1146 1.363 . S
N1144 C1146 1.356 . S
N1144 H1156 0.984 . S
N1144 H1157 0.985 . S
N1145 C1147 1.356 . S
N1145 H1150 0.984 . S
N1145 H1151 0.985 . S
C1146 C1140 1.379 . S
C1146 C1143 1.363 . S
C1146 N1144 1.356 . S
C1147 C1141 1.363 . S
C1147 C1142 1.379 . S
C1147 N1145 1.356 . S
N1148 C1140 1.356 . S
N1148 H1154 0.984 . S
N1148 H1155 0.984 . S
N1149 C1142 1.356 . S
N1149 H1152 0.984 . S
N1149 H1153 0.985 . S
H1150 N1145 0.984 . S
H1151 N1145 0.985 . S
H1152 N1149 0.984 . S
H1153 N1149 0.985 . S
H1154 N1148 0.984 . S
H1155 N1148 0.984 . S
H1156 N1144 0.984 . S
H1157 N1144 0.985 . S
C1158 C1159 1.363 . S
C1158 C1164 1.379 . S
C1158 N1166 1.356 . S
C1159 C1158 1.363 . S
C1159 C1165 1.363 . S
C1160 C1161 1.363 . S
C1160 C1165 1.379 . S
C1160 N1167 1.356 . S
C1161 C1160 1.363 . S
C1161 C1164 1.363 . S
N1162 C1164 1.356 . S
N1162 H1174 0.984 . S
N1162 H1175 0.985 . S
N1163 C1165 1.356 . S
N1163 H1168 0.984 . S
N1163 H1169 0.985 . S
C1164 C1158 1.379 . S
C1164 C1161 1.363 . S
C1164 N1162 1.356 . S
C1165 C1159 1.363 . S
C1165 C1160 1.379 . S
C1165 N1163 1.356 . S
N1166 C1158 1.356 . S
N1166 H1172 0.984 . S
N1166 H1173 0.984 . S
N1167 C1160 1.356 . S
N1167 H1170 0.984 . S
N1167 H1171 0.985 . S
H1168 N1163 0.984 . S
H1169 N1163 0.985 . S
H1170 N1167 0.984 . S
H1171 N1167 0.985 . S
H1172 N1166 0.984 . S
H1173 N1166 0.984 . S
H1174 N1162 0.984 . S
H1175 N1162 0.985 . S
C1176 C1177 1.363 . S
C1176 C1182 1.379 . S
C1176 N1184 1.356 . S
C1177 C1176 1.363 . S
C1177 C1183 1.363 . S
C1178 C1179 1.363 . S
C1178 C1183 1.379 . S
C1178 N1185 1.356 . S
C1179 C1178 1.363 . S
C1179 C1182 1.363 . S
N1180 C1182 1.356 . S
N1180 H1192 0.984 . S
N1180 H1193 0.985 . S
N1181 C1183 1.356 . S
N1181 H1186 0.984 . S
N1181 H1187 0.985 . S
C1182 C1176 1.379 . S
C1182 C1179 1.363 . S
C1182 N1180 1.356 . S
C1183 C1177 1.363 . S
C1183 C1178 1.379 . S
C1183 N1181 1.356 . S
N1184 C1176 1.356 . S
N1184 H1190 0.984 . S
N1184 H1191 0.984 . S
N1185 C1178 1.356 . S
N1185 H1188 0.984 . S
N1185 H1189 0.985 . S
H1186 N1181 0.984 . S
H1187 N1181 0.985 . S
H1188 N1185 0.984 . S
H1189 N1185 0.985 . S
H1190 N1184 0.984 . S
H1191 N1184 0.984 . S
H1192 N1180 0.984 . S
H1193 N1180 0.985 . S
C1194 C1195 1.363 . S
C1194 C1200 1.379 . S
C1194 N1202 1.356 . S
C1195 C1194 1.363 . S
C1195 C1201 1.363 . S
C1196 C1197 1.363 . S
C1196 C1201 1.379 . S
C1196 N1203 1.356 . S
C1197 C1196 1.363 . S
C1197 C1200 1.363 . S
N1198 C1200 1.356 . S
N1198 H1210 0.984 . S
N1198 H1211 0.985 . S
N1199 C1201 1.356 . S
N1199 H1204 0.984 . S
N1199 H1205 0.985 . S
C1200 C1194 1.379 . S
C1200 C1197 1.363 . S
C1200 N1198 1.356 . S
C1201 C1195 1.363 . S
C1201 C1196 1.379 . S
C1201 N1199 1.356 . S
N1202 C1194 1.356 . S
N1202 H1208 0.984 . S
N1202 H1209 0.984 . S
N1203 C1196 1.356 . S
N1203 H1206 0.984 . S
N1203 H1207 0.985 . S
H1204 N1199 0.984 . S
H1205 N1199 0.985 . S
H1206 N1203 0.984 . S
H1207 N1203 0.985 . S
H1208 N1202 0.984 . S
H1209 N1202 0.984 . S
H1210 N1198 0.984 . S
H1211 N1198 0.985 . S
C1212 C1213 1.363 . S
C1212 C1218 1.379 . S
C1212 N1220 1.356 . S
C1213 C1212 1.363 . S
C1213 C1219 1.363 . S
C1214 C1215 1.363 . S
C1214 C1219 1.379 . S
C1214 N1221 1.356 . S
C1215 C1214 1.363 . S
C1215 C1218 1.363 . S
N1216 C1218 1.356 . S
N1216 H1228 0.984 . S
N1216 H1229 0.985 . S
N1217 C1219 1.356 . S
N1217 H1222 0.984 . S
N1217 H1223 0.985 . S
C1218 C1212 1.379 . S
C1218 C1215 1.363 . S
C1218 N1216 1.356 . S
C1219 C1213 1.363 . S
C1219 C1214 1.379 . S
C1219 N1217 1.356 . S
N1220 C1212 1.356 . S
N1220 H1226 0.984 . S
N1220 H1227 0.984 . S
N1221 C1214 1.356 . S
N1221 H1224 0.984 . S
N1221 H1225 0.985 . S
H1222 N1217 0.984 . S
H1223 N1217 0.985 . S
H1224 N1221 0.984 . S
H1225 N1221 0.985 . S
H1226 N1220 0.984 . S
H1227 N1220 0.984 . S
H1228 N1216 0.984 . S
H1229 N1216 0.985 . S
C1230 C1231 1.363 . S
C1230 C1236 1.379 . S
C1230 N1238 1.356 . S
C1231 C1230 1.363 . S
C1231 C1237 1.363 . S
C1232 C1233 1.363 . S
C1232 C1237 1.379 . S
C1232 N1239 1.356 . S
C1233 C1232 1.363 . S
C1233 C1236 1.363 . S
N1234 C1236 1.356 . S
N1234 H1246 0.984 . S
N1234 H1247 0.985 . S
N1235 C1237 1.356 . S
N1235 H1240 0.984 . S
N1235 H1241 0.985 . S
C1236 C1230 1.379 . S
C1236 C1233 1.363 . S
C1236 N1234 1.356 . S
C1237 C1231 1.363 . S
C1237 C1232 1.379 . S
C1237 N1235 1.356 . S
N1238 C1230 1.356 . S
N1238 H1244 0.984 . S
N1238 H1245 0.984 . S
N1239 C1232 1.356 . S
N1239 H1242 0.984 . S
N1239 H1243 0.985 . S
H1240 N1235 0.984 . S
H1241 N1235 0.985 . S
H1242 N1239 0.984 . S
H1243 N1239 0.985 . S
H1244 N1238 0.984 . S
H1245 N1238 0.984 . S
H1246 N1234 0.984 . S
H1247 N1234 0.985 . S
C1248 C1249 1.363 . S
C1248 C1254 1.379 . S
C1248 N1256 1.356 . S
C1249 C1248 1.363 . S
C1249 C1255 1.363 . S
C1250 C1251 1.363 . S
C1250 C1255 1.379 . S
C1250 N1257 1.356 . S
C1251 C1250 1.363 . S
C1251 C1254 1.363 . S
N1252 C1254 1.356 . S
N1252 H1264 0.984 . S
N1252 H1265 0.985 . S
N1253 C1255 1.356 . S
N1253 H1258 0.984 . S
N1253 H1259 0.985 . S
C1254 C1248 1.379 . S
C1254 C1251 1.363 . S
C1254 N1252 1.356 . S
C1255 C1249 1.363 . S
C1255 C1250 1.379 . S
C1255 N1253 1.356 . S
N1256 C1248 1.356 . S
N1256 H1262 0.984 . S
N1256 H1263 0.984 . S
N1257 C1250 1.356 . S
N1257 H1260 0.984 . S
N1257 H1261 0.985 . S
H1258 N1253 0.984 . S
H1259 N1253 0.985 . S
H1260 N1257 0.984 . S
H1261 N1257 0.985 . S
H1262 N1256 0.984 . S
H1263 N1256 0.984 . S
H1264 N1252 0.984 . S
H1265 N1252 0.985 . S
C1266 C1267 1.363 . S
C1266 C1272 1.379 . S
C1266 N1274 1.356 . S
C1267 C1266 1.363 . S
C1267 C1273 1.363 . S
C1268 C1269 1.363 . S
C1268 C1273 1.379 . S
C1268 N1275 1.356 . S
C1269 C1268 1.363 . S
C1269 C1272 1.363 . S
N1270 C1272 1.356 . S
N1270 H1282 0.984 . S
N1270 H1283 0.985 . S
N1271 C1273 1.356 . S
N1271 H1276 0.984 . S
N1271 H1277 0.985 . S
C1272 C1266 1.379 . S
C1272 C1269 1.363 . S
C1272 N1270 1.356 . S
C1273 C1267 1.363 . S
C1273 C1268 1.379 . S
C1273 N1271 1.356 . S
N1274 C1266 1.356 . S
N1274 H1280 0.984 . S
N1274 H1281 0.984 . S
N1275 C1268 1.356 . S
N1275 H1278 0.984 . S
N1275 H1279 0.985 . S
H1276 N1271 0.984 . S
H1277 N1271 0.985 . S
H1278 N1275 0.984 . S
H1279 N1275 0.985 . S
H1280 N1274 0.984 . S
H1281 N1274 0.984 . S
H1282 N1270 0.984 . S
H1283 N1270 0.985 . S
C1284 C1285 1.363 . S
C1284 C1290 1.379 . S
C1284 N1292 1.356 . S
C1285 C1284 1.363 . S
C1285 C1291 1.363 . S
C1286 C1287 1.363 . S
C1286 C1291 1.379 . S
C1286 N1293 1.356 . S
C1287 C1286 1.363 . S
C1287 C1290 1.363 . S
N1288 C1290 1.356 . S
N1288 H1300 0.984 . S
N1288 H1301 0.985 . S
N1289 C1291 1.356 . S
N1289 H1294 0.984 . S
N1289 H1295 0.985 . S
C1290 C1284 1.379 . S
C1290 C1287 1.363 . S
C1290 N1288 1.356 . S
C1291 C1285 1.363 . S
C1291 C1286 1.379 . S
C1291 N1289 1.356 . S
N1292 C1284 1.356 . S
N1292 H1298 0.984 . S
N1292 H1299 0.984 . S
N1293 C1286 1.356 . S
N1293 H1296 0.984 . S
N1293 H1297 0.985 . S
H1294 N1289 0.984 . S
H1295 N1289 0.985 . S
H1296 N1293 0.984 . S
H1297 N1293 0.985 . S
H1298 N1292 0.984 . S
H1299 N1292 0.984 . S
H1300 N1288 0.984 . S
H1301 N1288 0.985 . S
C1302 C1303 1.363 . S
C1302 C1308 1.379 . S
C1302 N1310 1.356 . S
C1303 C1302 1.363 . S
C1303 C1309 1.363 . S
C1304 C1305 1.363 . S
C1304 C1309 1.379 . S
C1304 N1311 1.356 . S
C1305 C1304 1.363 . S
C1305 C1308 1.363 . S
N1306 C1308 1.356 . S
N1306 H1318 0.984 . S
N1306 H1319 0.985 . S
N1307 C1309 1.356 . S
N1307 H1312 0.984 . S
N1307 H1313 0.985 . S
C1308 C1302 1.379 . S
C1308 C1305 1.363 . S
C1308 N1306 1.356 . S
C1309 C1303 1.363 . S
C1309 C1304 1.379 . S
C1309 N1307 1.356 . S
N1310 C1302 1.356 . S
N1310 H1316 0.984 . S
N1310 H1317 0.984 . S
N1311 C1304 1.356 . S
N1311 H1314 0.984 . S
N1311 H1315 0.985 . S
H1312 N1307 0.984 . S
H1313 N1307 0.985 . S
H1314 N1311 0.984 . S
H1315 N1311 0.985 . S
H1316 N1310 0.984 . S
H1317 N1310 0.984 . S
H1318 N1306 0.984 . S
H1319 N1306 0.985 . S
C1320 C1321 1.363 . S
C1320 C1326 1.379 . S
C1320 N1328 1.356 . S
C1321 C1320 1.363 . S
C1321 C1327 1.363 . S
C1322 C1323 1.363 . S
C1322 C1327 1.379 . S
C1322 N1329 1.356 . S
C1323 C1322 1.363 . S
C1323 C1326 1.363 . S
N1324 C1326 1.356 . S
N1324 H1336 0.984 . S
N1324 H1337 0.985 . S
N1325 C1327 1.356 . S
N1325 H1330 0.984 . S
N1325 H1331 0.985 . S
C1326 C1320 1.379 . S
C1326 C1323 1.363 . S
C1326 N1324 1.356 . S
C1327 C1321 1.363 . S
C1327 C1322 1.379 . S
C1327 N1325 1.356 . S
N1328 C1320 1.356 . S
N1328 H1334 0.984 . S
N1328 H1335 0.984 . S
N1329 C1322 1.356 . S
N1329 H1332 0.984 . S
N1329 H1333 0.985 . S
H1330 N1325 0.984 . S
H1331 N1325 0.985 . S
H1332 N1329 0.984 . S
H1333 N1329 0.985 . S
H1334 N1328 0.984 . S
H1335 N1328 0.984 . S
H1336 N1324 0.984 . S
H1337 N1324 0.985 . S
C1338 C1339 1.363 . S
C1338 C1344 1.379 . S
C1338 N1346 1.356 . S
C1339 C1338 1.363 . S
C1339 C1345 1.363 . S
C1340 C1341 1.363 . S
C1340 C1345 1.379 . S
C1340 N1347 1.356 . S
C1341 C1340 1.363 . S
C1341 C1344 1.363 . S
N1342 C1344 1.356 . S
N1342 H1354 0.984 . S
N1342 H1355 0.985 . S
N1343 C1345 1.356 . S
N1343 H1348 0.984 . S
N1343 H1349 0.985 . S
C1344 C1338 1.379 . S
C1344 C1341 1.363 . S
C1344 N1342 1.356 . S
C1345 C1339 1.363 . S
C1345 C1340 1.379 . S
C1345 N1343 1.356 . S
N1346 C1338 1.356 . S
N1346 H1352 0.984 . S
N1346 H1353 0.984 . S
N1347 C1340 1.356 . S
N1347 H1350 0.984 . S
N1347 H1351 0.985 . S
H1348 N1343 0.984 . S
H1349 N1343 0.985 . S
H1350 N1347 0.984 . S
H1351 N1347 0.985 . S
H1352 N1346 0.984 . S
H1353 N1346 0.984 . S
H1354 N1342 0.984 . S
H1355 N1342 0.985 . S
C1356 C1357 1.363 . S
C1356 C1362 1.379 . S
C1356 N1364 1.356 . S
C1357 C1356 1.363 . S
C1357 C1363 1.363 . S
C1358 C1359 1.363 . S
C1358 C1363 1.379 . S
C1358 N1365 1.356 . S
C1359 C1358 1.363 . S
C1359 C1362 1.363 . S
N1360 C1362 1.356 . S
N1360 H1372 0.984 . S
N1360 H1373 0.985 . S
N1361 C1363 1.356 . S
N1361 H1366 0.984 . S
N1361 H1367 0.985 . S
C1362 C1356 1.379 . S
C1362 C1359 1.363 . S
C1362 N1360 1.356 . S
C1363 C1357 1.363 . S
C1363 C1358 1.379 . S
C1363 N1361 1.356 . S
N1364 C1356 1.356 . S
N1364 H1370 0.984 . S
N1364 H1371 0.984 . S
N1365 C1358 1.356 . S
N1365 H1368 0.984 . S
N1365 H1369 0.985 . S
H1366 N1361 0.984 . S
H1367 N1361 0.985 . S
H1368 N1365 0.984 . S
H1369 N1365 0.985 . S
H1370 N1364 0.984 . S
H1371 N1364 0.984 . S
H1372 N1360 0.984 . S
H1373 N1360 0.985 . S
C1374 C1375 1.363 . S
C1374 C1380 1.379 . S
C1374 N1382 1.356 . S
C1375 C1374 1.363 . S
C1375 C1381 1.363 . S
C1376 C1377 1.363 . S
C1376 C1381 1.379 . S
C1376 N1383 1.356 . S
C1377 C1376 1.363 . S
C1377 C1380 1.363 . S
N1378 C1380 1.356 . S
N1378 H1390 0.984 . S
N1378 H1391 0.985 . S
N1379 C1381 1.356 . S
N1379 H1384 0.984 . S
N1379 H1385 0.985 . S
C1380 C1374 1.379 . S
C1380 C1377 1.363 . S
C1380 N1378 1.356 . S
C1381 C1375 1.363 . S
C1381 C1376 1.379 . S
C1381 N1379 1.356 . S
N1382 C1374 1.356 . S
N1382 H1388 0.984 . S
N1382 H1389 0.984 . S
N1383 C1376 1.356 . S
N1383 H1386 0.984 . S
N1383 H1387 0.985 . S
H1384 N1379 0.984 . S
H1385 N1379 0.985 . S
H1386 N1383 0.984 . S
H1387 N1383 0.985 . S
H1388 N1382 0.984 . S
H1389 N1382 0.984 . S
H1390 N1378 0.984 . S
H1391 N1378 0.985 . S
C1392 C1393 1.363 . S
C1392 C1398 1.379 . S
C1392 N1400 1.356 . S
C1393 C1392 1.363 . S
C1393 C1399 1.363 . S
C1394 C1395 1.363 . S
C1394 C1399 1.379 . S
C1394 N1401 1.356 . S
C1395 C1394 1.363 . S
C1395 C1398 1.363 . S
N1396 C1398 1.356 . S
N1396 H1408 0.984 . S
N1396 H1409 0.985 . S
N1397 C1399 1.356 . S
N1397 H1402 0.984 . S
N1397 H1403 0.985 . S
C1398 C1392 1.379 . S
C1398 C1395 1.363 . S
C1398 N1396 1.356 . S
C1399 C1393 1.363 . S
C1399 C1394 1.379 . S
C1399 N1397 1.356 . S
N1400 C1392 1.356 . S
N1400 H1406 0.984 . S
N1400 H1407 0.984 . S
N1401 C1394 1.356 . S
N1401 H1404 0.984 . S
N1401 H1405 0.985 . S
H1402 N1397 0.984 . S
H1403 N1397 0.985 . S
H1404 N1401 0.984 . S
H1405 N1401 0.985 . S
H1406 N1400 0.984 . S
H1407 N1400 0.984 . S
H1408 N1396 0.984 . S
H1409 N1396 0.985 . S
C1410 C1411 1.363 . S
C1410 C1416 1.379 . S
C1410 N1418 1.356 . S
C1411 C1410 1.363 . S
C1411 C1417 1.363 . S
C1412 C1413 1.363 . S
C1412 C1417 1.379 . S
C1412 N1419 1.356 . S
C1413 C1412 1.363 . S
C1413 C1416 1.363 . S
N1414 C1416 1.356 . S
N1414 H1426 0.984 . S
N1414 H1427 0.985 . S
N1415 C1417 1.356 . S
N1415 H1420 0.984 . S
N1415 H1421 0.985 . S
C1416 C1410 1.379 . S
C1416 C1413 1.363 . S
C1416 N1414 1.356 . S
C1417 C1411 1.363 . S
C1417 C1412 1.379 . S
C1417 N1415 1.356 . S
N1418 C1410 1.356 . S
N1418 H1424 0.984 . S
N1418 H1425 0.984 . S
N1419 C1412 1.356 . S
N1419 H1422 0.984 . S
N1419 H1423 0.985 . S
H1420 N1415 0.984 . S
H1421 N1415 0.985 . S
H1422 N1419 0.984 . S
H1423 N1419 0.985 . S
H1424 N1418 0.984 . S
H1425 N1418 0.984 . S
H1426 N1414 0.984 . S
H1427 N1414 0.985 . S
C1428 C1429 1.363 . S
C1428 C1434 1.379 . S
C1428 N1436 1.356 . S
C1429 C1428 1.363 . S
C1429 C1435 1.363 . S
C1430 C1431 1.363 . S
C1430 C1435 1.379 . S
C1430 N1437 1.356 . S
C1431 C1430 1.363 . S
C1431 C1434 1.363 . S
N1432 C1434 1.356 . S
N1432 H1444 0.984 . S
N1432 H1445 0.985 . S
N1433 C1435 1.356 . S
N1433 H1438 0.984 . S
N1433 H1439 0.985 . S
C1434 C1428 1.379 . S
C1434 C1431 1.363 . S
C1434 N1432 1.356 . S
C1435 C1429 1.363 . S
C1435 C1430 1.379 . S
C1435 N1433 1.356 . S
N1436 C1428 1.356 . S
N1436 H1442 0.984 . S
N1436 H1443 0.984 . S
N1437 C1430 1.356 . S
N1437 H1440 0.984 . S
N1437 H1441 0.985 . S
H1438 N1433 0.984 . S
H1439 N1433 0.985 . S
H1440 N1437 0.984 . S
H1441 N1437 0.985 . S
H1442 N1436 0.984 . S
H1443 N1436 0.984 . S
H1444 N1432 0.984 . S
H1445 N1432 0.985 . S
C1446 C1447 1.363 . S
C1446 C1452 1.379 . S
C1446 N1454 1.356 . S
C1447 C1446 1.363 . S
C1447 C1453 1.363 . S
C1448 C1449 1.363 . S
C1448 C1453 1.379 . S
C1448 N1455 1.356 . S
C1449 C1448 1.363 . S
C1449 C1452 1.363 . S
N1450 C1452 1.356 . S
N1450 H1462 0.984 . S
N1450 H1463 0.985 . S
N1451 C1453 1.356 . S
N1451 H1456 0.984 . S
N1451 H1457 0.985 . S
C1452 C1446 1.379 . S
C1452 C1449 1.363 . S
C1452 N1450 1.356 . S
C1453 C1447 1.363 . S
C1453 C1448 1.379 . S
C1453 N1451 1.356 . S
N1454 C1446 1.356 . S
N1454 H1460 0.984 . S
N1454 H1461 0.984 . S
N1455 C1448 1.356 . S
N1455 H1458 0.984 . S
N1455 H1459 0.985 . S
H1456 N1451 0.984 . S
H1457 N1451 0.985 . S
H1458 N1455 0.984 . S
H1459 N1455 0.985 . S
H1460 N1454 0.984 . S
H1461 N1454 0.984 . S
H1462 N1450 0.984 . S
H1463 N1450 0.985 . S
C1464 C1465 1.363 . S
C1464 C1470 1.379 . S
C1464 N1472 1.356 . S
C1465 C1464 1.363 . S
C1465 C1471 1.363 . S
C1466 C1467 1.363 . S
C1466 C1471 1.379 . S
C1466 N1473 1.356 . S
C1467 C1466 1.363 . S
C1467 C1470 1.363 . S
N1468 C1470 1.356 . S
N1468 H1480 0.984 . S
N1468 H1481 0.985 . S
N1469 C1471 1.356 . S
N1469 H1474 0.984 . S
N1469 H1475 0.985 . S
C1470 C1464 1.379 . S
C1470 C1467 1.363 . S
C1470 N1468 1.356 . S
C1471 C1465 1.363 . S
C1471 C1466 1.379 . S
C1471 N1469 1.356 . S
N1472 C1464 1.356 . S
N1472 H1478 0.984 . S
N1472 H1479 0.984 . S
N1473 C1466 1.356 . S
N1473 H1476 0.984 . S
N1473 H1477 0.985 . S
H1474 N1469 0.984 . S
H1475 N1469 0.985 . S
H1476 N1473 0.984 . S
H1477 N1473 0.985 . S
H1478 N1472 0.984 . S
H1479 N1472 0.984 . S
H1480 N1468 0.984 . S
H1481 N1468 0.985 . S
C1482 C1483 1.363 . S
C1482 C1488 1.379 . S
C1482 N1490 1.356 . S
C1483 C1482 1.363 . S
C1483 C1489 1.363 . S
C1484 C1485 1.363 . S
C1484 C1489 1.379 . S
C1484 N1491 1.356 . S
C1485 C1484 1.363 . S
C1485 C1488 1.363 . S
N1486 C1488 1.356 . S
N1486 H1498 0.984 . S
N1486 H1499 0.985 . S
N1487 C1489 1.356 . S
N1487 H1492 0.984 . S
N1487 H1493 0.985 . S
C1488 C1482 1.379 . S
C1488 C1485 1.363 . S
C1488 N1486 1.356 . S
C1489 C1483 1.363 . S
C1489 C1484 1.379 . S
C1489 N1487 1.356 . S
N1490 C1482 1.356 . S
N1490 H1496 0.984 . S
N1490 H1497 0.984 . S
N1491 C1484 1.356 . S
N1491 H1494 0.984 . S
N1491 H1495 0.985 . S
H1492 N1487 0.984 . S
H1493 N1487 0.985 . S
H1494 N1491 0.984 . S
H1495 N1491 0.985 . S
H1496 N1490 0.984 . S
H1497 N1490 0.984 . S
H1498 N1486 0.984 . S
H1499 N1486 0.985 . S
C1500 C1501 1.363 . S
C1500 C1506 1.379 . S
C1500 N1508 1.356 . S
C1501 C1500 1.363 . S
C1501 C1507 1.363 . S
C1502 C1503 1.363 . S
C1502 C1507 1.379 . S
C1502 N1509 1.356 . S
C1503 C1502 1.363 . S
C1503 C1506 1.363 . S
N1504 C1506 1.356 . S
N1504 H1516 0.984 . S
N1504 H1517 0.985 . S
N1505 C1507 1.356 . S
N1505 H1510 0.984 . S
N1505 H1511 0.985 . S
C1506 C1500 1.379 . S
C1506 C1503 1.363 . S
C1506 N1504 1.356 . S
C1507 C1501 1.363 . S
C1507 C1502 1.379 . S
C1507 N1505 1.356 . S
N1508 C1500 1.356 . S
N1508 H1514 0.984 . S
N1508 H1515 0.984 . S
N1509 C1502 1.356 . S
N1509 H1512 0.984 . S
N1509 H1513 0.985 . S
H1510 N1505 0.984 . S
H1511 N1505 0.985 . S
H1512 N1509 0.984 . S
H1513 N1509 0.985 . S
H1514 N1508 0.984 . S
H1515 N1508 0.984 . S
H1516 N1504 0.984 . S
H1517 N1504 0.985 . S
C1518 C1519 1.363 . S
C1518 C1524 1.379 . S
C1518 N1526 1.356 . S
C1519 C1518 1.363 . S
C1519 C1525 1.363 . S
C1520 C1521 1.363 . S
C1520 C1525 1.379 . S
C1520 N1527 1.356 . S
C1521 C1520 1.363 . S
C1521 C1524 1.363 . S
N1522 C1524 1.356 . S
N1522 H1534 0.984 . S
N1522 H1535 0.985 . S
N1523 C1525 1.356 . S
N1523 H1528 0.984 . S
N1523 H1529 0.985 . S
C1524 C1518 1.379 . S
C1524 C1521 1.363 . S
C1524 N1522 1.356 . S
C1525 C1519 1.363 . S
C1525 C1520 1.379 . S
C1525 N1523 1.356 . S
N1526 C1518 1.356 . S
N1526 H1532 0.984 . S
N1526 H1533 0.984 . S
N1527 C1520 1.356 . S
N1527 H1530 0.984 . S
N1527 H1531 0.985 . S
H1528 N1523 0.984 . S
H1529 N1523 0.985 . S
H1530 N1527 0.984 . S
H1531 N1527 0.985 . S
H1532 N1526 0.984 . S
H1533 N1526 0.984 . S
H1534 N1522 0.984 . S
H1535 N1522 0.985 . S
C1536 C1537 1.363 . S
C1536 C1542 1.379 . S
C1536 N1544 1.356 . S
C1537 C1536 1.363 . S
C1537 C1543 1.363 . S
C1538 C1539 1.363 . S
C1538 C1543 1.379 . S
C1538 N1545 1.356 . S
C1539 C1538 1.363 . S
C1539 C1542 1.363 . S
N1540 C1542 1.356 . S
N1540 H1552 0.984 . S
N1540 H1553 0.985 . S
N1541 C1543 1.356 . S
N1541 H1546 0.984 . S
N1541 H1547 0.985 . S
C1542 C1536 1.379 . S
C1542 C1539 1.363 . S
C1542 N1540 1.356 . S
C1543 C1537 1.363 . S
C1543 C1538 1.379 . S
C1543 N1541 1.356 . S
N1544 C1536 1.356 . S
N1544 H1550 0.984 . S
N1544 H1551 0.984 . S
N1545 C1538 1.356 . S
N1545 H1548 0.984 . S
N1545 H1549 0.985 . S
H1546 N1541 0.984 . S
H1547 N1541 0.985 . S
H1548 N1545 0.984 . S
H1549 N1545 0.985 . S
H1550 N1544 0.984 . S
H1551 N1544 0.984 . S
H1552 N1540 0.984 . S
H1553 N1540 0.985 . S
C1554 C1555 1.363 . S
C1554 C1560 1.379 . S
C1554 N1562 1.356 . S
C1555 C1554 1.363 . S
C1555 C1561 1.363 . S
C1556 C1557 1.363 . S
C1556 C1561 1.379 . S
C1556 N1563 1.356 . S
C1557 C1556 1.363 . S
C1557 C1560 1.363 . S
N1558 C1560 1.356 . S
N1558 H1570 0.984 . S
N1558 H1571 0.985 . S
N1559 C1561 1.356 . S
N1559 H1564 0.984 . S
N1559 H1565 0.985 . S
C1560 C1554 1.379 . S
C1560 C1557 1.363 . S
C1560 N1558 1.356 . S
C1561 C1555 1.363 . S
C1561 C1556 1.379 . S
C1561 N1559 1.356 . S
N1562 C1554 1.356 . S
N1562 H1568 0.984 . S
N1562 H1569 0.984 . S
N1563 C1556 1.356 . S
N1563 H1566 0.984 . S
N1563 H1567 0.985 . S
H1564 N1559 0.984 . S
H1565 N1559 0.985 . S
H1566 N1563 0.984 . S
H1567 N1563 0.985 . S
H1568 N1562 0.984 . S
H1569 N1562 0.984 . S
H1570 N1558 0.984 . S
H1571 N1558 0.985 . S
C1572 C1573 1.363 . S
C1572 C1578 1.379 . S
C1572 N1580 1.356 . S
C1573 C1572 1.363 . S
C1573 C1579 1.363 . S
C1574 C1575 1.363 . S
C1574 C1579 1.379 . S
C1574 N1581 1.356 . S
C1575 C1574 1.363 . S
C1575 C1578 1.363 . S
N1576 C1578 1.356 . S
N1576 H1588 0.984 . S
N1576 H1589 0.985 . S
N1577 C1579 1.356 . S
N1577 H1582 0.984 . S
N1577 H1583 0.985 . S
C1578 C1572 1.379 . S
C1578 C1575 1.363 . S
C1578 N1576 1.356 . S
C1579 C1573 1.363 . S
C1579 C1574 1.379 . S
C1579 N1577 1.356 . S
N1580 C1572 1.356 . S
N1580 H1586 0.984 . S
N1580 H1587 0.984 . S
N1581 C1574 1.356 . S
N1581 H1584 0.984 . S
N1581 H1585 0.985 . S
H1582 N1577 0.984 . S
H1583 N1577 0.985 . S
H1584 N1581 0.984 . S
H1585 N1581 0.985 . S
H1586 N1580 0.984 . S
H1587 N1580 0.984 . S
H1588 N1576 0.984 . S
H1589 N1576 0.985 . S
C1590 C1591 1.363 . S
C1590 C1596 1.379 . S
C1590 N1598 1.356 . S
C1591 C1590 1.363 . S
C1591 C1597 1.363 . S
C1592 C1593 1.363 . S
C1592 C1597 1.379 . S
C1592 N1599 1.356 . S
C1593 C1592 1.363 . S
C1593 C1596 1.363 . S
N1594 C1596 1.356 . S
N1594 H1606 0.984 . S
N1594 H1607 0.985 . S
N1595 C1597 1.356 . S
N1595 H1600 0.984 . S
N1595 H1601 0.985 . S
C1596 C1590 1.379 . S
C1596 C1593 1.363 . S
C1596 N1594 1.356 . S
C1597 C1591 1.363 . S
C1597 C1592 1.379 . S
C1597 N1595 1.356 . S
N1598 C1590 1.356 . S
N1598 H1604 0.984 . S
N1598 H1605 0.984 . S
N1599 C1592 1.356 . S
N1599 H1602 0.984 . S
N1599 H1603 0.985 . S
H1600 N1595 0.984 . S
H1601 N1595 0.985 . S
H1602 N1599 0.984 . S
H1603 N1599 0.985 . S
H1604 N1598 0.984 . S
H1605 N1598 0.984 . S
H1606 N1594 0.984 . S
H1607 N1594 0.985 . S
C1608 C1609 1.363 . S
C1608 C1614 1.379 . S
C1608 N1616 1.356 . S
C1609 C1608 1.363 . S
C1609 C1615 1.363 . S
C1610 C1611 1.363 . S
C1610 C1615 1.379 . S
C1610 N1617 1.356 . S
C1611 C1610 1.363 . S
C1611 C1614 1.363 . S
N1612 C1614 1.356 . S
N1612 H1624 0.984 . S
N1612 H1625 0.985 . S
N1613 C1615 1.356 . S
N1613 H1618 0.984 . S
N1613 H1619 0.985 . S
C1614 C1608 1.379 . S
C1614 C1611 1.363 . S
C1614 N1612 1.356 . S
C1615 C1609 1.363 . S
C1615 C1610 1.379 . S
C1615 N1613 1.356 . S
N1616 C1608 1.356 . S
N1616 H1622 0.984 . S
N1616 H1623 0.984 . S
N1617 C1610 1.356 . S
N1617 H1620 0.984 . S
N1617 H1621 0.985 . S
H1618 N1613 0.984 . S
H1619 N1613 0.985 . S
H1620 N1617 0.984 . S
H1621 N1617 0.985 . S
H1622 N1616 0.984 . S
H1623 N1616 0.984 . S
H1624 N1612 0.984 . S
H1625 N1612 0.985 . S
C1626 C1627 1.363 . S
C1626 C1632 1.379 . S
C1626 N1634 1.356 . S
C1627 C1626 1.363 . S
C1627 C1633 1.363 . S
C1628 C1629 1.363 . S
C1628 C1633 1.379 . S
C1628 N1635 1.356 . S
C1629 C1628 1.363 . S
C1629 C1632 1.363 . S
N1630 C1632 1.356 . S
N1630 H1642 0.984 . S
N1630 H1643 0.985 . S
N1631 C1633 1.356 . S
N1631 H1636 0.984 . S
N1631 H1637 0.985 . S
C1632 C1626 1.379 . S
C1632 C1629 1.363 . S
C1632 N1630 1.356 . S
C1633 C1627 1.363 . S
C1633 C1628 1.379 . S
C1633 N1631 1.356 . S
N1634 C1626 1.356 . S
N1634 H1640 0.984 . S
N1634 H1641 0.984 . S
N1635 C1628 1.356 . S
N1635 H1638 0.984 . S
N1635 H1639 0.985 . S
H1636 N1631 0.984 . S
H1637 N1631 0.985 . S
H1638 N1635 0.984 . S
H1639 N1635 0.985 . S
H1640 N1634 0.984 . S
H1641 N1634 0.984 . S
H1642 N1630 0.984 . S
H1643 N1630 0.985 . S
C1644 C1645 1.363 . S
C1644 C1650 1.379 . S
C1644 N1652 1.356 . S
C1645 C1644 1.363 . S
C1645 C1651 1.363 . S
C1646 C1647 1.363 . S
C1646 C1651 1.379 . S
C1646 N1653 1.356 . S
C1647 C1646 1.363 . S
C1647 C1650 1.363 . S
N1648 C1650 1.356 . S
N1648 H1660 0.984 . S
N1648 H1661 0.985 . S
N1649 C1651 1.356 . S
N1649 H1654 0.984 . S
N1649 H1655 0.985 . S
C1650 C1644 1.379 . S
C1650 C1647 1.363 . S
C1650 N1648 1.356 . S
C1651 C1645 1.363 . S
C1651 C1646 1.379 . S
C1651 N1649 1.356 . S
N1652 C1644 1.356 . S
N1652 H1658 0.984 . S
N1652 H1659 0.984 . S
N1653 C1646 1.356 . S
N1653 H1656 0.984 . S
N1653 H1657 0.985 . S
H1654 N1649 0.984 . S
H1655 N1649 0.985 . S
H1656 N1653 0.984 . S
H1657 N1653 0.985 . S
H1658 N1652 0.984 . S
H1659 N1652 0.984 . S
H1660 N1648 0.984 . S
H1661 N1648 0.985 . S
C1662 C1663 1.363 . S
C1662 C1668 1.379 . S
C1662 N1670 1.356 . S
C1663 C1662 1.363 . S
C1663 C1669 1.363 . S
C1664 C1665 1.363 . S
C1664 C1669 1.379 . S
C1664 N1671 1.356 . S
C1665 C1664 1.363 . S
C1665 C1668 1.363 . S
N1666 C1668 1.356 . S
N1666 H1678 0.984 . S
N1666 H1679 0.985 . S
N1667 C1669 1.356 . S
N1667 H1672 0.984 . S
N1667 H1673 0.985 . S
C1668 C1662 1.379 . S
C1668 C1665 1.363 . S
C1668 N1666 1.356 . S
C1669 C1663 1.363 . S
C1669 C1664 1.379 . S
C1669 N1667 1.356 . S
N1670 C1662 1.356 . S
N1670 H1676 0.984 . S
N1670 H1677 0.984 . S
N1671 C1664 1.356 . S
N1671 H1674 0.984 . S
N1671 H1675 0.985 . S
H1672 N1667 0.984 . S
H1673 N1667 0.985 . S
H1674 N1671 0.984 . S
H1675 N1671 0.985 . S
H1676 N1670 0.984 . S
H1677 N1670 0.984 . S
H1678 N1666 0.984 . S
H1679 N1666 0.985 . S
C1680 C1681 1.363 . S
C1680 C1686 1.379 . S
C1680 N1688 1.356 . S
C1681 C1680 1.363 . S
C1681 C1687 1.363 . S
C1682 C1683 1.363 1_655 S
C1682 C1687 1.379 1_655 S
C1682 N1689 1.356 . S
C1683 C1682 1.363 1_455 S
C1683 C1686 1.363 . S
N1684 C1686 1.356 . S
N1684 H1696 0.984 . S
N1684 H1697 0.985 . S
N1685 C1687 1.356 1_655 S
N1685 H1690 0.984 1_655 S
N1685 H1691 0.985 . S
C1686 C1680 1.379 . S
C1686 C1683 1.363 . S
C1686 N1684 1.356 . S
C1687 C1681 1.363 . S
C1687 C1682 1.379 1_455 S
C1687 N1685 1.356 1_455 S
N1688 C1680 1.356 . S
N1688 H1694 0.984 . S
N1688 H1695 0.984 . S
N1689 C1682 1.356 . S
N1689 H1692 0.984 . S
N1689 H1693 0.985 . S
H1690 N1685 0.984 1_455 S
H1691 N1685 0.985 . S
H1692 N1689 0.984 . S
H1693 N1689 0.985 . S
H1694 N1688 0.984 . S
H1695 N1688 0.984 . S
H1696 N1684 0.984 . S
H1697 N1684 0.985 . S
C1698 C1699 1.363 . S
C1698 C1704 1.379 . S
C1698 N1706 1.356 . S
C1699 C1698 1.363 . S
C1699 C1705 1.363 . S
C1700 C1701 1.363 1_655 S
C1700 C1705 1.379 1_655 S
C1700 N1707 1.356 . S
C1701 C1700 1.363 1_455 S
C1701 C1704 1.363 . S
N1702 C1704 1.356 . S
N1702 H1714 0.984 . S
N1702 H1715 0.985 . S
N1703 C1705 1.356 1_655 S
N1703 H1708 0.984 1_655 S
N1703 H1709 0.985 . S
C1704 C1698 1.379 . S
C1704 C1701 1.363 . S
C1704 N1702 1.356 . S
C1705 C1699 1.363 . S
C1705 C1700 1.379 1_455 S
C1705 N1703 1.356 1_455 S
N1706 C1698 1.356 . S
N1706 H1712 0.984 . S
N1706 H1713 0.984 . S
N1707 C1700 1.356 . S
N1707 H1710 0.984 . S
N1707 H1711 0.985 . S
H1708 N1703 0.984 1_455 S
H1709 N1703 0.985 . S
H1710 N1707 0.984 . S
H1711 N1707 0.985 . S
H1712 N1706 0.984 . S
H1713 N1706 0.984 . S
H1714 N1702 0.984 . S
H1715 N1702 0.985 . S
C1716 C1717 1.363 . S
C1716 C1722 1.379 . S
C1716 N1724 1.356 . S
C1717 C1716 1.363 . S
C1717 C1723 1.363 1_545 S
C1718 C1719 1.363 1_565 S
C1718 C1723 1.379 . S
C1718 N1725 1.356 . S
C1719 C1718 1.363 1_545 S
C1719 C1722 1.363 . S
N1720 C1722 1.356 . S
N1720 H1732 0.984 . S
N1720 H1733 0.985 . S
N1721 C1723 1.356 . S
N1721 H1726 0.984 . S
N1721 H1727 0.985 . S
C1722 C1716 1.379 . S
C1722 C1719 1.363 . S
C1722 N1720 1.356 . S
C1723 C1717 1.363 1_565 S
C1723 C1718 1.379 . S
C1723 N1721 1.356 . S
N1724 C1716 1.356 . S
N1724 H1730 0.984 . S
N1724 H1731 0.984 . S
N1725 C1718 1.356 . S
N1725 H1728 0.984 . S
N1725 H1729 0.985 . S
H1726 N1721 0.984 . S
H1727 N1721 0.985 . S
H1728 N1725 0.984 . S
H1729 N1725 0.985 . S
H1730 N1724 0.984 . S
H1731 N1724 0.984 . S
H1732 N1720 0.984 . S
H1733 N1720 0.985 . S
C1734 C1735 1.363 . S
C1734 C1740 1.379 . S
C1734 N1742 1.356 . S
C1735 C1734 1.363 . S
C1735 C1741 1.363 1_545 S
C1736 C1737 1.363 1_565 S
C1736 C1741 1.379 . S
C1736 N1743 1.356 . S
C1737 C1736 1.363 1_545 S
C1737 C1740 1.363 . S
N1738 C1740 1.356 . S
N1738 H1750 0.984 . S
N1738 H1751 0.985 . S
N1739 C1741 1.356 . S
N1739 H1744 0.984 . S
N1739 H1745 0.985 . S
C1740 C1734 1.379 . S
C1740 C1737 1.363 . S
C1740 N1738 1.356 . S
C1741 C1735 1.363 1_565 S
C1741 C1736 1.379 . S
C1741 N1739 1.356 . S
N1742 C1734 1.356 . S
N1742 H1748 0.984 . S
N1742 H1749 0.984 . S
N1743 C1736 1.356 . S
N1743 H1746 0.984 . S
N1743 H1747 0.985 . S
H1744 N1739 0.984 . S
H1745 N1739 0.985 . S
H1746 N1743 0.984 . S
H1747 N1743 0.985 . S
H1748 N1742 0.984 . S
H1749 N1742 0.984 . S
H1750 N1738 0.984 . S
H1751 N1738 0.985 . S
C1752 C1753 1.363 . S
C1752 C1758 1.379 . S
C1752 N1760 1.356 . S
C1753 C1752 1.363 . S
C1753 C1759 1.363 . S
C1754 C1755 1.363 1_556 S
C1754 C1759 1.379 1_556 S
C1754 N1761 1.356 . S
C1755 C1754 1.363 1_554 S
C1755 C1758 1.363 . S
N1756 C1758 1.356 . S
N1756 H1768 0.984 . S
N1756 H1769 0.985 . S
N1757 C1759 1.356 1_556 S
N1757 H1762 0.984 1_556 S
N1757 H1763 0.985 . S
C1758 C1752 1.379 . S
C1758 C1755 1.363 . S
C1758 N1756 1.356 . S
C1759 C1753 1.363 . S
C1759 C1754 1.379 1_554 S
C1759 N1757 1.356 1_554 S
N1760 C1752 1.356 . S
N1760 H1766 0.984 . S
N1760 H1767 0.984 . S
N1761 C1754 1.356 . S
N1761 H1764 0.984 . S
N1761 H1765 0.985 . S
H1762 N1757 0.984 1_554 S
H1763 N1757 0.985 . S
H1764 N1761 0.984 . S
H1765 N1761 0.985 . S
H1766 N1760 0.984 . S
H1767 N1760 0.984 . S
H1768 N1756 0.984 . S
H1769 N1756 0.985 . S
C1770 C1771 1.363 . S
C1770 C1776 1.379 . S
C1770 N1778 1.356 . S
C1771 C1770 1.363 . S
C1771 C1777 1.363 . S
C1772 C1773 1.363 1_556 S
C1772 C1777 1.379 1_556 S
C1772 N1779 1.356 . S
C1773 C1772 1.363 1_554 S
C1773 C1776 1.363 . S
N1774 C1776 1.356 . S
N1774 H1786 0.984 . S
N1774 H1787 0.985 . S
N1775 C1777 1.356 1_556 S
N1775 H1780 0.984 1_556 S
N1775 H1781 0.985 . S
C1776 C1770 1.379 . S
C1776 C1773 1.363 . S
C1776 N1774 1.356 . S
C1777 C1771 1.363 . S
C1777 C1772 1.379 1_554 S
C1777 N1775 1.356 1_554 S
N1778 C1770 1.356 . S
N1778 H1784 0.984 . S
N1778 H1785 0.984 . S
N1779 C1772 1.356 . S
N1779 H1782 0.984 . S
N1779 H1783 0.985 . S
H1780 N1775 0.984 1_554 S
H1781 N1775 0.985 . S
H1782 N1779 0.984 . S
H1783 N1779 0.985 . S
H1784 N1778 0.984 . S
H1785 N1778 0.984 . S
H1786 N1774 0.984 . S
H1787 N1774 0.985 . S
C1788 C1789 1.363 . S
C1788 C1794 1.379 . S
C1788 N1796 1.356 . S
C1789 C1788 1.363 . S
C1789 C1795 1.363 . S
C1790 C1791 1.363 . S
C1790 C1795 1.379 1_565 S
C1790 N1797 1.356 . S
C1791 C1790 1.363 . S
C1791 C1794 1.363 1_565 S
N1792 C1794 1.356 1_565 S
N1792 H1804 0.984 . S
N1792 H1805 0.985 . S
N1793 C1795 1.356 . S
N1793 H1798 0.984 . S
N1793 H1799 0.985 . S
C1794 C1788 1.379 . S
C1794 C1791 1.363 1_545 S
C1794 N1792 1.356 1_545 S
C1795 C1789 1.363 . S
C1795 C1790 1.379 1_545 S
C1795 N1793 1.356 . S
N1796 C1788 1.356 . S
N1796 H1802 0.984 . S
N1796 H1803 0.984 . S
N1797 C1790 1.356 . S
N1797 H1800 0.984 . S
N1797 H1801 0.985 . S
H1798 N1793 0.984 . S
H1799 N1793 0.985 . S
H1800 N1797 0.984 . S
H1801 N1797 0.985 . S
H1802 N1796 0.984 . S
H1803 N1796 0.984 . S
H1804 N1792 0.984 . S
H1805 N1792 0.985 . S
C1806 C1807 1.363 . S
C1806 C1812 1.379 1_565 S
C1806 N1814 1.356 . S
C1807 C1806 1.363 . S
C1807 C1813 1.363 1_565 S
C1808 C1809 1.363 . S
C1808 C1813 1.379 . S
C1808 N1815 1.356 . S
C1809 C1808 1.363 . S
C1809 C1812 1.363 . S
N1810 C1812 1.356 . S
N1810 H1822 0.984 . S
N1810 H1823 0.985 . S
N1811 C1813 1.356 1_565 S
N1811 H1816 0.984 . S
N1811 H1817 0.985 . S
C1812 C1806 1.379 1_545 S
C1812 C1809 1.363 . S
C1812 N1810 1.356 . S
C1813 C1807 1.363 1_545 S
C1813 C1808 1.379 . S
C1813 N1811 1.356 1_545 S
N1814 C1806 1.356 . S
N1814 H1820 0.984 . S
N1814 H1821 0.984 . S
N1815 C1808 1.356 . S
N1815 H1818 0.984 . S
N1815 H1819 0.985 . S
H1816 N1811 0.984 . S
H1817 N1811 0.985 . S
H1818 N1815 0.984 . S
H1819 N1815 0.985 . S
H1820 N1814 0.984 . S
H1821 N1814 0.984 . S
H1822 N1810 0.984 . S
H1823 N1810 0.985 . S
C1824 C1825 1.363 . S
C1824 C1830 1.379 1_554 S
C1824 N1832 1.356 . S
C1825 C1824 1.363 . S
C1825 C1831 1.363 . S
C1826 C1827 1.363 1_554 S
C1826 C1831 1.379 . S
C1826 N1833 1.356 1_554 S
C1827 C1826 1.363 1_556 S
C1827 C1830 1.363 . S
N1828 C1830 1.356 . S
N1828 H1840 0.984 . S
N1828 H1841 0.985 . S
N1829 C1831 1.356 . S
N1829 H1834 0.984 . S
N1829 H1835 0.985 . S
C1830 C1824 1.379 1_556 S
C1830 C1827 1.363 . S
C1830 N1828 1.356 . S
C1831 C1825 1.363 . S
C1831 C1826 1.379 . S
C1831 N1829 1.356 . S
N1832 C1824 1.356 . S
N1832 H1838 0.984 . S
N1832 H1839 0.984 . S
N1833 C1826 1.356 1_556 S
N1833 H1836 0.984 . S
N1833 H1837 0.985 . S
H1834 N1829 0.984 . S
H1835 N1829 0.985 . S
H1836 N1833 0.984 . S
H1837 N1833 0.985 . S
H1838 N1832 0.984 . S
H1839 N1832 0.984 . S
H1840 N1828 0.984 . S
H1841 N1828 0.985 . S
C1842 C1843 1.363 . S
C1842 C1848 1.379 1_556 S
C1842 N1850 1.356 . S
C1843 C1842 1.363 . S
C1843 C1849 1.363 1_556 S
C1844 C1845 1.363 . S
C1844 C1849 1.379 . S
C1844 N1851 1.356 . S
C1845 C1844 1.363 . S
C1845 C1848 1.363 . S
N1846 C1848 1.356 . S
N1846 H1858 0.984 . S
N1846 H1859 0.985 . S
N1847 C1849 1.356 1_556 S
N1847 H1852 0.984 . S
N1847 H1853 0.985 . S
C1848 C1842 1.379 1_554 S
C1848 C1845 1.363 . S
C1848 N1846 1.356 . S
C1849 C1843 1.363 1_554 S
C1849 C1844 1.379 . S
C1849 N1847 1.356 1_554 S
N1850 C1842 1.356 . S
N1850 H1856 0.984 . S
N1850 H1857 0.984 . S
N1851 C1844 1.356 . S
N1851 H1854 0.984 . S
N1851 H1855 0.985 . S
H1852 N1847 0.984 . S
H1853 N1847 0.985 . S
H1854 N1851 0.984 . S
H1855 N1851 0.985 . S
H1856 N1850 0.984 . S
H1857 N1850 0.984 . S
H1858 N1846 0.984 . S
H1859 N1846 0.985 . S
C1860 C1861 1.363 1_455 S
C1860 C1866 1.379 . S
C1860 N1868 1.356 1_455 S
C1861 C1860 1.363 1_655 S
C1861 C1867 1.363 . S
C1862 C1863 1.363 . S
C1862 C1867 1.379 1_455 S
C1862 N1869 1.356 . S
C1863 C1862 1.363 . S
C1863 C1866 1.363 . S
N1864 C1866 1.356 . S
N1864 H1876 0.984 . S
N1864 H1877 0.985 . S
N1865 C1867 1.356 . S
N1865 H1870 0.984 . S
N1865 H1871 0.985 . S
C1866 C1860 1.379 . S
C1866 C1863 1.363 . S
C1866 N1864 1.356 . S
C1867 C1861 1.363 . S
C1867 C1862 1.379 1_655 S
C1867 N1865 1.356 . S
N1868 C1860 1.356 1_655 S
N1868 H1874 0.984 . S
N1868 H1875 0.984 . S
N1869 C1862 1.356 . S
N1869 H1872 0.984 . S
N1869 H1873 0.985 . S
H1870 N1865 0.984 . S
H1871 N1865 0.985 . S
H1872 N1869 0.984 . S
H1873 N1869 0.985 . S
H1874 N1868 0.984 . S
H1875 N1868 0.984 . S
H1876 N1864 0.984 . S
H1877 N1864 0.985 . S
C1878 C1879 1.363 . S
C1878 C1884 1.379 1_455 S
C1878 N1886 1.356 . S
C1879 C1878 1.363 . S
C1879 C1885 1.363 . S
C1880 C1881 1.363 1_455 S
C1880 C1885 1.379 . S
C1880 N1887 1.356 1_455 S
C1881 C1880 1.363 1_655 S
C1881 C1884 1.363 . S
N1882 C1884 1.356 . S
N1882 H1894 0.984 . S
N1882 H1895 0.985 . S
N1883 C1885 1.356 . S
N1883 H1888 0.984 . S
N1883 H1889 0.985 . S
C1884 C1878 1.379 1_655 S
C1884 C1881 1.363 . S
C1884 N1882 1.356 . S
C1885 C1879 1.363 . S
C1885 C1880 1.379 . S
C1885 N1883 1.356 . S
N1886 C1878 1.356 . S
N1886 H1892 0.984 . S
N1886 H1893 0.984 . S
N1887 C1880 1.356 1_655 S
N1887 H1890 0.984 . S
N1887 H1891 0.985 . S
H1888 N1883 0.984 . S
H1889 N1883 0.985 . S
H1890 N1887 0.984 . S
H1891 N1887 0.985 . S
H1892 N1886 0.984 . S
H1893 N1886 0.984 . S
H1894 N1882 0.984 . S
H1895 N1882 0.985 . S
C817 C9 0.822 . S
C819 C787 0.909 . S
C835 C43 0.822 . S
C837 C685 0.910 . S
C853 C77 0.822 . S
C855 C753 0.909 . S
C871 C111 0.822 . S
C873 C719 0.910 . S
C889 C481 0.909 . S
C891 C145 0.822 . S
C907 C179 0.822 . S
C909 C515 0.910 . S
C925 C413 0.909 . S
C927 C213 0.825 . S
C943 C447 0.909 . S
C945 C247 0.822 . S
C961 C651 0.909 . S
C963 C281 0.822 . S
C979 C315 0.822 . S
C981 C583 0.910 . S
C997 C549 0.909 . S
C999 C349 0.825 . S
C1015 C383 0.822 . S
C1017 C617 0.909 . S
C1033 C88 2.345 . S
C1035 C682 2.279 . S
C1051 C122 2.345 . S
C1053 C784 2.277 . S
C1069 C716 2.279 . S
C1071 C20 2.345 . S
C1087 C750 2.279 . S
C1089 C54 2.343 . S
C1105 C410 2.279 . S
C1107 C258 2.345 . S
C1123 C444 2.279 . S
C1125 C224 2.343 . S
C1141 C478 2.279 . S
C1143 C190 2.343 . S
C1159 C156 2.345 . S
C1161 C512 2.279 . S
C1177 C394 2.345 . S
C1179 C546 2.279 . S
C1195 C614 2.279 . S
C1197 C360 2.343 . S
C1213 C326 2.345 . S
C1215 C648 2.277 . S
C1231 C580 2.279 . S
C1233 C292 2.345 . S
C1249 C417 0.822 . S
C1251 C379 0.909 . S
C1267 C277 0.909 . S
C1269 C451 0.822 . S
C1285 C345 0.909 . S
C1287 C485 0.820 . S
C1303 C311 0.909 . S
C1305 C519 0.820 . S
C1321 C73 0.909 . S
C1323 C553 0.822 . S
C1339 C107 0.909 . S
C1341 C587 0.820 . S
C1357 C5 0.909 . S
C1359 C621 0.822 . S
C1375 C655 0.822 . S
C1377 C39 0.905 . S
C1393 C689 0.822 . S
C1395 C243 0.909 . S
C1411 C723 0.822 . S
C1413 C175 0.906 . S
C1429 C141 0.909 . S
C1431 C757 0.822 . S
C1447 C791 0.822 . S
C1449 C209 0.905 . S
C1465 C274 2.279 . S
C1467 C496 2.345 . S
C1483 C376 2.279 . S
C1485 C530 2.345 . S
C1501 C308 2.279 . S
C1503 C428 2.349 . S
C1519 C462 2.346 . S
C1521 C342 2.283 . S
C1537 C2 2.279 . S
C1539 C666 2.345 . S
C1555 C36 2.279 . S
C1557 C632 2.349 . S
C1573 C70 2.279 . S
C1575 C598 2.345 . S
C1591 C564 2.345 . S
C1593 C104 2.282 . S
C1609 C802 2.345 . S
C1611 C138 2.279 . S
C1627 C768 2.346 . S
C1629 C206 2.283 . S
C1645 C240 2.279 . S
C1647 C734 2.345 . S
C1663 C700 2.345 . S
C1665 C172 2.282 . S
C1681 C33 1.633 . S
C1683 C67 1.636 . S
C1699 C101 1.633 . S
C1701 C135 1.636 . S
C1717 C169 1.633 . S
C1719 C237 1.636 . S
C1735 C271 1.633 . S
C1737 C203 1.636 . S
C1753 C305 1.633 . S
C1755 C373 1.636 . S
C1771 C407 1.633 . S
C1773 C339 1.636 . S
C1789 C475 1.633 . S
C1791 C441 1.633 . S
C1807 C543 1.633 . S
C1809 C509 1.633 . S
C1825 C645 1.633 . S
C1827 C577 1.633 . S
C1843 C611 1.633 . S
C1845 C679 1.633 . S
C1861 C713 1.633 . S
C1863 C781 1.633 . S
C1879 C815 1.633 . S
C1881 C747 1.633 . S
