# Generated by pormake.
# Topology smi, (6)-cn, num edge types: 1
# Building blocks:
#     Node 0, Type 0, BuildingBlock: IZENUY_clean_sbu_0, # of connection points: 6
#     Node 1, Type 0, BuildingBlock: IZENUY_clean_sbu_0, # of connection points: 6
#     Node 2, Type 0, BuildingBlock: IZENUY_clean_sbu_0, # of connection points: 6
#     Node 3, Type 0, BuildingBlock: IZENUY_clean_sbu_0, # of connection points: 6
#     Node 4, Type 0, BuildingBlock: IZENUY_clean_sbu_0, # of connection points: 6
#     Node 5, Type 0, BuildingBlock: IZENUY_clean_sbu_0, # of connection points: 6
#     Edge 6, Type (0, 0), BuildingBlock: FUNLAD_clean_linker_0, # of connection points: 2
#     Edge 7, Type (0, 0), BuildingBlock: FUNLAD_clean_linker_0, # of connection points: 2
#     Edge 8, Type (0, 0), BuildingBlock: FUNLAD_clean_linker_0, # of connection points: 2
#     Edge 9, Type (0, 0), BuildingBlock: FUNLAD_clean_linker_0, # of connection points: 2
#     Edge 10, Type (0, 0), BuildingBlock: FUNLAD_clean_linker_0, # of connection points: 2
#     Edge 11, Type (0, 0), BuildingBlock: FUNLAD_clean_linker_0, # of connection points: 2
#     Edge 12, Type (0, 0), BuildingBlock: FUNLAD_clean_linker_0, # of connection points: 2
#     Edge 13, Type (0, 0), BuildingBlock: FUNLAD_clean_linker_0, # of connection points: 2
#     Edge 14, Type (0, 0), BuildingBlock: FUNLAD_clean_linker_0, # of connection points: 2
#     Edge 15, Type (0, 0), BuildingBlock: FUNLAD_clean_linker_0, # of connection points: 2
#     Edge 16, Type (0, 0), BuildingBlock: FUNLAD_clean_linker_0, # of connection points: 2
#     Edge 17, Type (0, 0), BuildingBlock: FUNLAD_clean_linker_0, # of connection points: 2
#     Edge 18, Type (0, 0), BuildingBlock: FUNLAD_clean_linker_0, # of connection points: 2
#     Edge 19, Type (0, 0), BuildingBlock: FUNLAD_clean_linker_0, # of connection points: 2
#     Edge 20, Type (0, 0), BuildingBlock: FUNLAD_clean_linker_0, # of connection points: 2
#     Edge 21, Type (0, 0), BuildingBlock: FUNLAD_clean_linker_0, # of connection points: 2
#     Edge 22, Type (0, 0), BuildingBlock: FUNLAD_clean_linker_0, # of connection points: 2
#     Edge 23, Type (0, 0), BuildingBlock: FUNLAD_clean_linker_0, # of connection points: 2
# Relax obj value: 0.337
# Max RMSD: 0.277
# Mean RMSD: 0.276
data_MOF--net-smi--node1-IZENUY_clean_sbu_0--edge1-FUNLAD_clean_linker_0
_symmetry_space_group_name_H-M    P1
_symmetry_Int_Tables_number       1
_symmetry_cell_setting            triclinic
loop_
_symmetry_equiv_pos_as_xyz
'x, y, z'
_cell_length_a     31.105178
_cell_length_b     31.025305
_cell_length_c     46.193679
_cell_angle_alpha  89.999423
_cell_angle_beta   90.052039
_cell_angle_gamma 120.24247
loop_
_atom_site_label
_atom_site_type_symbol
_atom_site_fract_x
_atom_site_fract_y
_atom_site_fract_z
_atom_type_partial_charge
Fe0 Fe 0.10039 0.56711 0.11247 0.0
Fe1 Fe 0.19631 0.59757 0.07897 0.0
O2 O 0.13054 0.5649 0.08044 0.0
Fe3 Fe 0.0956 0.53034 0.04984 0.0
O4 O 0.06462 0.56625 0.04739 0.0
O5 O 0.04699 0.56484 0.09359 0.0
O6 O 0.13072 0.63513 0.11156 0.0
C7 C 0.1774 0.66287 0.11256 0.0
C8 C 0.04145 0.46857 0.09741 0.0
O9 O 0.20534 0.64664 0.10435 0.0
C10 C 0.17085 0.50935 0.04831 0.0
O11 O 0.14809 0.56871 0.13686 0.0
O12 O 0.19947 0.56005 0.10792 0.0
O13 O 0.04415 0.48074 0.07099 0.0
O14 O 0.06849 0.50002 0.11621 0.0
C15 C 0.17383 0.61981 0.02609 0.0
O16 O 0.2007 0.5548 0.05364 0.0
O17 O 0.12445 0.49171 0.04964 0.0
C18 C 0.18069 0.5562 0.13266 0.0
O19 O 0.19627 0.63664 0.04985 0.0
O20 O 0.14054 0.57423 0.02349 0.0
C21 C 0.04045 0.57212 0.06733 0.0
Fe22 Fe 0.57471 0.09628 0.22054 0.0
Fe23 Fe 0.60685 0.19781 0.24838 0.0
O24 O 0.57351 0.13187 0.25035 0.0
Fe25 Fe 0.53946 0.10218 0.28208 0.0
O26 O 0.57421 0.07077 0.28738 0.0
O27 O 0.57158 0.04512 0.24275 0.0
O28 O 0.64233 0.12577 0.22175 0.0
C29 C 0.67123 0.17232 0.22019 0.0
C30 C 0.47655 0.04076 0.23636 0.0
O31 O 0.65523 0.20201 0.22424 0.0
C32 C 0.52172 0.1791 0.28124 0.0
O33 O 0.5773 0.14076 0.19321 0.0
O34 O 0.56889 0.19657 0.2182 0.0
O35 O 0.4889 0.04819 0.26288 0.0
O36 O 0.50775 0.06459 0.21676 0.0
C37 C 0.63014 0.1834 0.30311 0.0
O38 O 0.56579 0.20696 0.27259 0.0
O39 O 0.50211 0.13234 0.27984 0.0
C40 C 0.56493 0.17399 0.19469 0.0
O41 O 0.64639 0.20228 0.27847 0.0
O42 O 0.58474 0.15039 0.30666 0.0
C43 C 0.57945 0.04318 0.26954 0.0
Fe44 Fe 0.39592 0.58638 0.41318 0.0
Fe45 Fe 0.43034 0.5233 0.44614 0.0
O46 O 0.4302 0.55508 0.41426 0.0
Fe47 Fe 0.46415 0.55548 0.3833 0.0
O48 O 0.50183 0.62316 0.38319 0.0
O49 O 0.43842 0.63527 0.38821 0.0
O50 O 0.43213 0.62732 0.44246 0.0
C51 C 0.43688 0.61267 0.46709 0.0
C52 C 0.37433 0.54294 0.3599 0.0
O53 O 0.42724 0.56816 0.47096 0.0
C54 C 0.42347 0.45836 0.40064 0.0
O55 O 0.34702 0.54359 0.43799 0.0
O56 O 0.36321 0.4834 0.44593 0.0
O57 O 0.41989 0.55613 0.35711 0.0
O58 O 0.35759 0.54721 0.38389 0.0
C59 C 0.52779 0.56504 0.43017 0.0
O60 O 0.43371 0.47281 0.42676 0.0
O61 O 0.42843 0.48844 0.38088 0.0
C62 C 0.33325 0.49951 0.44597 0.0
O63 O 0.49708 0.56104 0.44917 0.0
O64 O 0.51448 0.55417 0.40396 0.0
C65 C 0.48352 0.65132 0.38169 0.0
Fe66 Fe 0.81314 0.41405 0.57923 0.0
Fe67 Fe 0.91649 0.49079 0.5559 0.0
O68 O 0.87858 0.44665 0.58262 0.0
Fe69 Fe 0.90693 0.43545 0.61271 0.0
O70 O 0.85891 0.37014 0.61771 0.0
O71 O 0.80892 0.35353 0.58073 0.0
O72 O 0.81399 0.40923 0.53972 0.0
C73 C 0.84764 0.41434 0.52221 0.0
C74 C 0.82991 0.43933 0.63883 0.0
O75 O 0.89321 0.44303 0.52794 0.0
C76 C 0.96276 0.53945 0.60566 0.0
O77 O 0.81132 0.47142 0.57753 0.0
O78 O 0.87089 0.50937 0.54568 0.0
O79 O 0.87622 0.45586 0.63801 0.0
O80 O 0.80173 0.41374 0.61817 0.0
C81 C 0.96856 0.44098 0.5693 0.0
O82 O 0.9419 0.54115 0.58252 0.0
O83 O 0.95989 0.49913 0.61381 0.0
C84 C 0.83269 0.50442 0.55844 0.0
O85 O 0.96892 0.47988 0.56065 0.0
O86 O 0.93909 0.41407 0.58895 0.0
C87 C 0.82507 0.33895 0.60128 0.0
Fe88 Fe 0.43579 0.90547 0.71834 0.0
Fe89 Fe 0.40671 0.80849 0.75101 0.0
O90 O 0.44145 0.87428 0.74904 0.0
Fe91 Fe 0.48151 0.90864 0.77806 0.0
O92 O 0.44707 0.93994 0.78433 0.0
O93 O 0.44275 0.95985 0.73912 0.0
O94 O 0.3692 0.87795 0.72292 0.0
C95 C 0.33907 0.8317 0.72348 0.0
C96 C 0.53574 0.96215 0.72823 0.0
O97 O 0.35379 0.80152 0.7297 0.0
C98 C 0.49939 0.83165 0.77622 0.0
O99 O 0.42802 0.85656 0.69248 0.0
O100 O 0.43705 0.80281 0.7192 0.0
O101 O 0.52773 0.95998 0.75524 0.0
O102 O 0.50145 0.93492 0.71097 0.0
C103 C 0.39618 0.83261 0.80614 0.0
O104 O 0.45313 0.80264 0.77253 0.0
O105 O 0.5182 0.87831 0.77415 0.0
C106 C 0.43782 0.82157 0.69486 0.0
O107 O 0.37442 0.81074 0.78306 0.0
O108 O 0.44234 0.86432 0.80618 0.0
C109 C 0.43727 0.96381 0.76607 0.0
Fe110 Fe 0.58902 0.39591 0.92117 0.0
Fe111 Fe 0.5672 0.47475 0.94518 0.0
O112 O 0.56202 0.43381 0.91686 0.0
Fe113 Fe 0.53028 0.43078 0.88437 0.0
O114 O 0.48714 0.3643 0.88799 0.0
O115 O 0.54421 0.34498 0.89811 0.0
O116 O 0.54899 0.36409 0.95175 0.0
C117 C 0.5485 0.38638 0.97452 0.0
C118 C 0.61607 0.42836 0.86566 0.0
O119 O 0.56517 0.43312 0.97431 0.0
C120 C 0.57854 0.53135 0.89436 0.0
O121 O 0.63933 0.43948 0.94499 0.0
O122 O 0.63508 0.5079 0.94397 0.0
O123 O 0.57235 0.4204 0.86122 0.0
O124 O 0.63049 0.4259 0.89086 0.0
C125 C 0.47003 0.43684 0.92856 0.0
O126 O 0.56916 0.52349 0.92117 0.0
O127 O 0.57106 0.4963 0.87765 0.0
C128 C 0.65947 0.48611 0.94861 0.0
O129 O 0.50044 0.44407 0.94859 0.0
O130 O 0.48292 0.4411 0.90216 0.0
C131 C 0.50097 0.33254 0.88937 0.0
C132 C 0.18274 0.5406 0.18566 0.0
C133 C 0.20173 0.54336 0.1577 0.0
C134 C 0.20489 0.53217 0.20962 0.0
C135 C 0.24642 0.52598 0.2061 0.0
C136 C 0.26467 0.52766 0.17811 0.0
C137 C 0.24242 0.53592 0.15413 0.0
C138 C 0.27438 0.52254 0.23117 0.0
C139 C 0.25409 0.50614 0.2575 0.0
C140 C 0.28393 0.51053 0.28362 0.0
C141 C 0.26513 0.51268 0.31085 0.0
C142 C 0.29389 0.52181 0.33577 0.0
C143 C 0.34211 0.52882 0.33397 0.0
H144 H 0.34616 0.51114 0.26167 0.0
C145 C 0.3599 0.52395 0.30693 0.0
C146 C 0.33107 0.51466 0.28202 0.0
H147 H 0.39649 0.52809 0.30489 0.0
H148 H 0.15149 0.54623 0.18918 0.0
H149 H 0.19052 0.53268 0.23085 0.0
H150 H 0.29683 0.5234 0.17482 0.0
H151 H 0.25796 0.5377 0.13288 0.0
H152 H 0.31367 0.5362 0.22776 0.0
H153 H 0.21468 0.49225 0.26067 0.0
H154 H 0.22872 0.50902 0.31277 0.0
H155 H 0.27877 0.52472 0.35631 0.0
C156 C 0.70745 0.24995 0.32762 0.0
C157 C 0.66237 0.20427 0.32891 0.0
C158 C 0.73516 0.27157 0.3528 0.0
C159 C 0.71847 0.24753 0.37976 0.0
C160 C 0.67459 0.20082 0.38063 0.0
C161 C 0.64684 0.17951 0.3556 0.0
C162 C 0.74249 0.27077 0.40784 0.0
C163 C 0.78427 0.31549 0.41101 0.0
C164 C 0.80078 0.33965 0.43984 0.0
C165 C 0.85154 0.37245 0.44532 0.0
C166 C 0.86727 0.39655 0.47216 0.0
C167 C 0.8323 0.38877 0.49382 0.0
H168 H 0.72638 0.30896 0.45774 0.0
C169 C 0.78153 0.35634 0.48809 0.0
C170 C 0.76596 0.33233 0.46147 0.0
H171 H 0.75343 0.34965 0.50412 0.0
H172 H 0.72051 0.26989 0.30733 0.0
H173 H 0.76855 0.30759 0.35092 0.0
H174 H 0.66075 0.18125 0.40097 0.0
H175 H 0.61258 0.14397 0.35732 0.0
H176 H 0.72325 0.25032 0.42722 0.0
H177 H 0.80682 0.33544 0.39245 0.0
H178 H 0.87906 0.37928 0.42886 0.0
H179 H 0.90666 0.42146 0.47584 0.0
C180 C 0.44274 0.81542 0.64079 0.0
C181 C 0.44475 0.79822 0.66864 0.0
C182 C 0.4464 0.79113 0.61617 0.0
C183 C 0.45232 0.74919 0.61897 0.0
C184 C 0.45505 0.73262 0.64679 0.0
C185 C 0.45163 0.75693 0.6713 0.0
C186 C 0.45231 0.71949 0.59374 0.0
C187 C 0.46498 0.73767 0.56665 0.0
C188 C 0.4613 0.70631 0.54132 0.0
C189 C 0.45687 0.72202 0.51355 0.0
C190 C 0.45014 0.69225 0.48934 0.0
C191 C 0.44783 0.64602 0.49237 0.0
H192 H 0.46687 0.64849 0.56492 0.0
C193 C 0.45445 0.63125 0.51998 0.0
C194 C 0.4614 0.66113 0.54417 0.0
H195 H 0.4538 0.59631 0.52301 0.0
H196 H 0.43731 0.84702 0.63796 0.0
H197 H 0.44282 0.80435 0.59515 0.0
H198 H 0.45937 0.70031 0.6496 0.0
H199 H 0.45347 0.74263 0.69238 0.0
H200 H 0.44062 0.68073 0.59797 0.0
H201 H 0.47651 0.77643 0.56246 0.0
H202 H 0.45732 0.7569 0.51063 0.0
H203 H 0.44564 0.70505 0.46835 0.0
C204 C 0.63077 0.4327 0.81227 0.0
C205 C 0.64865 0.43568 0.84056 0.0
C206 C 0.66052 0.43795 0.78843 0.0
C207 C 0.70932 0.44702 0.79227 0.0
C208 C 0.72722 0.45008 0.82056 0.0
C209 C 0.69733 0.44466 0.84447 0.0
C210 C 0.74118 0.45029 0.76738 0.0
C211 C 0.73407 0.46146 0.74027 0.0
C212 C 0.76091 0.45798 0.71468 0.0
C213 C 0.7362 0.4456 0.68794 0.0
C214 C 0.75881 0.43972 0.66342 0.0
C215 C 0.80714 0.44699 0.66494 0.0
H216 H 0.83041 0.47733 0.73634 0.0
C217 C 0.83275 0.46115 0.69149 0.0
C218 C 0.80975 0.46637 0.71622 0.0
H219 H 0.87023 0.46748 0.69326 0.0
H220 H 0.59332 0.42539 0.80842 0.0
H221 H 0.64425 0.43332 0.76715 0.0
H222 H 0.76441 0.45648 0.82418 0.0
H223 H 0.71227 0.44713 0.86599 0.0
H224 H 0.77039 0.44165 0.77156 0.0
H225 H 0.70519 0.47047 0.73602 0.0
H226 H 0.69875 0.43937 0.68612 0.0
H227 H 0.73831 0.42947 0.64321 0.0
C228 C 0.23353 0.69935 0.00081 0.0
C229 C 0.19084 0.65165 0.99998 0.0
C230 C 0.25173 0.72744 0.97549 0.0
C231 C 0.22757 0.70825 0.94885 0.0
C232 C 0.18339 0.66193 0.94837 0.0
C233 C 0.16532 0.63376 0.97361 0.0
C234 C 0.24825 0.73421 0.92099 0.0
C235 C 0.29749 0.76327 0.91641 0.0
C236 C 0.31991 0.78308 0.8876 0.0
C237 C 0.36926 0.82265 0.88647 0.0
C238 C 0.3936 0.83951 0.85998 0.0
C239 C 0.36919 0.81682 0.83397 0.0
H240 H 0.25755 0.72952 0.8613 0.0
C241 C 0.31942 0.77792 0.83499 0.0
C242 C 0.29506 0.76103 0.8615 0.0
H243 H 0.29957 0.75957 0.81534 0.0
H244 H 0.2536 0.71458 0.02086 0.0
H245 H 0.28487 0.76388 0.97689 0.0
H246 H 0.16375 0.64658 0.92819 0.0
H247 H 0.13187 0.59748 0.97229 0.0
H248 H 0.22224 0.72566 0.90328 0.0
H249 H 0.32322 0.77138 0.93424 0.0
H250 H 0.3894 0.84012 0.9062 0.0
H251 H 0.4319 0.86974 0.85999 0.0
C252 C 0.53636 0.22618 0.16857 0.0
C253 C 0.55174 0.19066 0.16777 0.0
C254 C 0.52636 0.24357 0.14294 0.0
C255 C 0.53209 0.22615 0.11584 0.0
C256 C 0.5458 0.1894 0.11522 0.0
C257 C 0.55548 0.17184 0.1408 0.0
C258 C 0.52563 0.2457 0.08766 0.0
C259 C 0.52347 0.28784 0.08471 0.0
C260 C 0.52455 0.31069 0.05615 0.0
C261 C 0.54062 0.36184 0.05518 0.0
C262 C 0.54667 0.38606 0.02874 0.0
C263 C 0.5367 0.3596 0.00255 0.0
H264 H 0.49713 0.24375 0.02971 0.0
C265 C 0.51803 0.30788 0.00351 0.0
C266 C 0.5117 0.28358 0.03 0.0
H267 H 0.50909 0.28621 0.98375 0.0
H268 H 0.53235 0.24087 0.18903 0.0
H269 H 0.51436 0.27063 0.14472 0.0
H270 H 0.5501 0.17484 0.09478 0.0
H271 H 0.56686 0.14417 0.13932 0.0
H272 H 0.52684 0.22634 0.06841 0.0
H273 H 0.52559 0.3093 0.10371 0.0
H274 H 0.55016 0.38361 0.07494 0.0
H275 H 0.56071 0.42587 0.02885 0.0
C276 C 0.3991 0.40368 0.96312 0.0
C277 C 0.42024 0.42781 0.93684 0.0
C278 C 0.35515 0.40004 0.97327 0.0
C279 C 0.33188 0.42175 0.95773 0.0
C280 C 0.3513 0.44301 0.9305 0.0
C281 C 0.39502 0.44588 0.92007 0.0
C282 C 0.2896 0.4257 0.97004 0.0
C283 C 0.28197 0.42558 0.99883 0.0
C284 C 0.24792 0.44048 0.0122 0.0
C285 C 0.26058 0.46307 0.0396 0.0
C286 C 0.23346 0.48295 0.05193 0.0
C287 C 0.19214 0.47945 0.03753 0.0
H288 H 0.19346 0.41643 0.97747 0.0
C289 C 0.17704 0.45387 0.01102 0.0
C290 C 0.20497 0.43474 0.99829 0.0
H291 H 0.14546 0.45116 0.99945 0.0
H292 H 0.41713 0.38829 0.97617 0.0
H293 H 0.34031 0.38101 0.99359 0.0
H294 H 0.33386 0.45941 0.91783 0.0
H295 H 0.41036 0.46443 0.89964 0.0
H296 H 0.26821 0.43489 0.95528 0.0
H297 H 0.30628 0.4208 0.01368 0.0
H298 H 0.29313 0.46761 0.05094 0.0
H299 H 0.24582 0.50263 0.07237 0.0
C300 C 0.00603 0.40093 0.13465 0.0
C301 C 0.002 0.41878 0.10741 0.0
C302 C 0.96652 0.35709 0.14599 0.0
C303 C 0.92148 0.33051 0.13058 0.0
C304 C 0.91872 0.34662 0.10254 0.0
C305 C 0.95857 0.39027 0.09102 0.0
C306 C 0.87589 0.28811 0.14367 0.0
C307 C 0.86811 0.28303 0.17253 0.0
C308 C 0.81893 0.24911 0.18594 0.0
C309 C 0.80756 0.2641 0.2121 0.0
C310 C 0.76002 0.23719 0.22395 0.0
C311 C 0.72306 0.19385 0.21034 0.0
H312 H 0.79061 0.19088 0.15319 0.0
C313 C 0.73506 0.17651 0.18528 0.0
C314 C 0.78268 0.20416 0.173 0.0
H315 H 0.70695 0.14329 0.17434 0.0
H316 H 0.03948 0.42145 0.14754 0.0
H317 H 0.97132 0.34489 0.16705 0.0
H318 H 0.88481 0.32662 0.08997 0.0
H319 H 0.95442 0.40287 0.06989 0.0
H320 H 0.8456 0.26443 0.12914 0.0
H321 H 0.89675 0.30945 0.18701 0.0
H322 H 0.83481 0.29824 0.2227 0.0
H323 H 0.75157 0.25125 0.24331 0.0
C324 C 0.49937 0.73756 0.37436 0.0
C325 C 0.51153 0.70082 0.36774 0.0
C326 C 0.52015 0.78201 0.35872 0.0
C327 C 0.55344 0.79074 0.33586 0.0
C328 C 0.56642 0.75444 0.32955 0.0
C329 C 0.54616 0.71009 0.34562 0.0
C330 C 0.57123 0.83545 0.31704 0.0
C331 C 0.57942 0.8794 0.32762 0.0
C332 C 0.58798 0.92291 0.30973 0.0
C333 C 0.60689 0.96917 0.3236 0.0
C334 C 0.60703 0.00908 0.30966 0.0
C335 C 0.588 0.00376 0.28145 0.0
H336 H 0.55636 0.88307 0.26943 0.0
C337 C 0.57214 0.95857 0.26669 0.0
C338 C 0.57192 0.91832 0.28075 0.0
H339 H 0.55707 0.95328 0.24499 0.0
H340 H 0.47258 0.73132 0.39119 0.0
H341 H 0.50819 0.80845 0.36374 0.0
H342 H 0.59159 0.76005 0.31188 0.0
H343 H 0.55571 0.68212 0.3398 0.0
H344 H 0.5767 0.83162 0.29418 0.0
H345 H 0.57822 0.88345 0.35094 0.0
H346 H 0.61958 0.97389 0.34585 0.0
H347 H 0.62008 0.04359 0.32156 0.0
C348 C 0.81957 0.55349 0.51967 0.0
C349 C 0.80669 0.52981 0.54685 0.0
C350 C 0.78981 0.57001 0.50656 0.0
C351 C 0.74656 0.56323 0.52044 0.0
C352 C 0.7357 0.54263 0.54839 0.0
C353 C 0.76517 0.52584 0.56138 0.0
C354 C 0.71086 0.57549 0.50645 0.0
C355 C 0.70531 0.57678 0.4775 0.0
C356 C 0.66362 0.58041 0.46404 0.0
C357 C 0.64712 0.56064 0.43616 0.0
C358 C 0.60439 0.55798 0.42424 0.0
C359 C 0.57731 0.57504 0.44005 0.0
H360 H 0.65124 0.61871 0.4997 0.0
C361 C 0.59575 0.59789 0.46706 0.0
C362 C 0.63858 0.60097 0.47881 0.0
H363 H 0.57629 0.61238 0.47952 0.0
H364 H 0.8515 0.55748 0.50793 0.0
H365 H 0.80048 0.58731 0.48545 0.0
H366 H 0.70306 0.53758 0.55981 0.0
H367 H 0.75438 0.5082 0.58244 0.0
H368 H 0.68467 0.5782 0.52075 0.0
H369 H 0.72864 0.56968 0.46312 0.0
H370 H 0.66606 0.5452 0.42406 0.0
H371 H 0.59124 0.54034 0.40334 0.0
C372 C 0.25108 0.76284 0.71867 0.0
C373 C 0.28832 0.81157 0.71165 0.0
C374 C 0.20531 0.74048 0.7044 0.0
C375 C 0.19577 0.76628 0.68258 0.0
C376 C 0.23244 0.81555 0.67615 0.0
C377 C 0.2781 0.83829 0.69082 0.0
C378 C 0.15056 0.74019 0.66412 0.0
C379 C 0.10718 0.70304 0.67449 0.0
C380 C 0.06575 0.66546 0.65623 0.0
C381 C 0.032 0.62 0.66933 0.0
C382 C 0.99725 0.58007 0.6528 0.0
C383 C 0.99465 0.58475 0.62273 0.0
H384 H 0.08553 0.7061 0.61539 0.0
C385 C 0.02555 0.6312 0.60967 0.0
C386 C 0.06116 0.67132 0.62627 0.0
H387 H 0.02396 0.63576 0.58652 0.0
H388 H 0.25798 0.74128 0.73453 0.0
H389 H 0.17863 0.70196 0.7094 0.0
H390 H 0.22626 0.836 0.65922 0.0
H391 H 0.3063 0.87576 0.68473 0.0
H392 H 0.15485 0.74945 0.64128 0.0
H393 H 0.10399 0.69624 0.6977 0.0
H394 H 0.03414 0.61437 0.69233 0.0
H395 H 0.97327 0.54483 0.6635 0.0
C396 C 0.47919 0.24437 0.88217 0.0
C397 C 0.47231 0.28417 0.87429 0.0
C398 C 0.46139 0.20225 0.86455 0.0
C399 C 0.43643 0.19904 0.83847 0.0
C400 C 0.42776 0.23796 0.83118 0.0
C401 C 0.445 0.27993 0.84911 0.0
C402 C 0.42435 0.15819 0.81739 0.0
C403 C 0.41339 0.11234 0.82604 0.0
C404 C 0.4116 0.07294 0.80684 0.0
C405 C 0.39215 0.02495 0.81847 0.0
C406 C 0.39802 0.98882 0.80409 0.0
C407 C 0.42342 0.9996 0.77757 0.0
H408 H 0.45041 0.11964 0.76968 0.0
C409 C 0.43984 0.04632 0.76467 0.0
C410 C 0.43429 0.08296 0.77928 0.0
H411 H 0.45976 0.05561 0.7443 0.0
H412 H 0.5005 0.24684 0.90131 0.0
H413 H 0.47002 0.17375 0.87061 0.0
H414 H 0.40904 0.23661 0.81112 0.0
H415 H 0.43983 0.31041 0.84225 0.0
H416 H 0.42615 0.1668 0.7945 0.0
H417 H 0.40738 0.10357 0.84899 0.0
H418 H 0.37441 0.01599 0.83954 0.0
H419 H 0.38443 0.95287 0.81441 0.0
C420 C 0.5145 0.76082 0.78285 0.0
C421 C 0.52832 0.81046 0.78898 0.0
C422 C 0.53493 0.73693 0.79846 0.0
C423 C 0.5695 0.76206 0.82079 0.0
C424 C 0.58455 0.81224 0.82631 0.0
C425 C 0.56463 0.8365 0.81029 0.0
C426 C 0.58588 0.73484 0.84028 0.0
C427 C 0.59041 0.69625 0.83087 0.0
C428 C 0.59647 0.66102 0.84996 0.0
C429 C 0.61191 0.63005 0.83723 0.0
C430 C 0.6092 0.58999 0.85249 0.0
C431 C 0.59065 0.57959 0.88094 0.0
H432 H 0.56808 0.67534 0.88964 0.0
C433 C 0.57836 0.61251 0.89452 0.0
C434 C 0.58105 0.65283 0.87914 0.0
H435 H 0.56375 0.60537 0.91637 0.0
H436 H 0.48633 0.73976 0.76668 0.0
H437 H 0.52137 0.69789 0.79402 0.0
H438 H 0.61075 0.83229 0.84356 0.0
H439 H 0.57543 0.8746 0.81575 0.0
H440 H 0.59297 0.74614 0.86283 0.0
H441 H 0.58775 0.68868 0.80776 0.0
H442 H 0.624 0.63543 0.81486 0.0
H443 H 0.61953 0.56571 0.84146 0.0
C444 C 0.99431 0.59282 0.03056 0.0
C445 C 0.99852 0.57955 0.05912 0.0
C446 C 0.95104 0.59187 0.02127 0.0
C447 C 0.91089 0.57755 0.04038 0.0
C448 C 0.9163 0.56713 0.06933 0.0
C449 C 0.95975 0.56846 0.07869 0.0
C450 C 0.8608 0.56564 0.02998 0.0
C451 C 0.85217 0.58224 0.00488 0.0
C452 C 0.80159 0.55882 0.99187 0.0
C453 C 0.78712 0.58704 0.97491 0.0
C454 C 0.74045 0.56406 0.96115 0.0
C455 C 0.7083 0.51225 0.96347 0.0
H456 H 0.77943 0.48393 0.00645 0.0
C457 C 0.72317 0.48426 0.9803 0.0
C458 C 0.769 0.50717 0.99436 0.0
H459 H 0.6993 0.44429 0.98269 0.0
H460 H 0.02362 0.60183 0.01495 0.0
H461 H 0.94822 0.59932 0.99869 0.0
H462 H 0.88589 0.55573 0.0845 0.0
H463 H 0.96172 0.55806 0.10083 0.0
H464 H 0.82917 0.53929 0.04289 0.0
H465 H 0.88272 0.61202 0.99292 0.0
H466 H 0.81193 0.62681 0.97231 0.0
H467 H 0.73002 0.5865 0.94823 0.0
C468 C 0.40999 0.99481 0.19915 0.0
C469 C 0.42742 0.99826 0.22767 0.0
C470 C 0.36781 0.95133 0.18943 0.0
C471 C 0.34226 0.91014 0.208 0.0
C472 C 0.35823 0.91456 0.23688 0.0
C473 C 0.40005 0.95829 0.24672 0.0
C474 C 0.30422 0.86017 0.19694 0.0
C475 C 0.27686 0.85253 0.17278 0.0
C476 C 0.249 0.80256 0.15885 0.0
C477 C 0.20395 0.78746 0.14416 0.0
C478 C 0.17942 0.74143 0.12954 0.0
C479 C 0.2006 0.71072 0.12863 0.0
H480 H 0.30477 0.78221 0.16858 0.0
C481 C 0.24574 0.72619 0.14325 0.0
C482 C 0.26946 0.77125 0.15823 0.0
H483 H 0.26299 0.70333 0.14315 0.0
H484 H 0.43015 0.02502 0.18395 0.0
H485 H 0.35736 0.94915 0.16689 0.0
H486 H 0.33949 0.88331 0.25161 0.0
H487 H 0.41249 0.95961 0.26878 0.0
H488 H 0.30052 0.82797 0.20855 0.0
H489 H 0.27624 0.88356 0.16231 0.0
H490 H 0.18778 0.81128 0.14399 0.0
H491 H 0.14476 0.73048 0.1184 0.0
C492 C 0.4492 0.1813 0.30472 0.0
C493 C 0.50066 0.20174 0.30068 0.0
C494 C 0.43147 0.20405 0.32392 0.0
C495 C 0.46515 0.24671 0.33981 0.0
C496 C 0.51628 0.26589 0.33622 0.0
C497 C 0.53379 0.24418 0.31675 0.0
C498 C 0.44957 0.27356 0.35997 0.0
C499 C 0.41015 0.27943 0.35519 0.0
C500 C 0.40542 0.31958 0.36986 0.0
C501 C 0.38687 0.34509 0.35389 0.0
C502 C 0.39057 0.38889 0.36464 0.0
C503 C 0.41227 0.40781 0.39186 0.0
H504 H 0.43668 0.31649 0.4114 0.0
C505 C 0.42683 0.37995 0.409 0.0
C506 C 0.42352 0.33622 0.39809 0.0
H507 H 0.44314 0.39324 0.43019 0.0
H508 H 0.4229 0.14826 0.29289 0.0
H509 H 0.39172 0.18797 0.32657 0.0
H510 H 0.54303 0.29853 0.34822 0.0
H511 H 0.57371 0.26036 0.31472 0.0
H512 H 0.47624 0.29596 0.37662 0.0
H513 H 0.38603 0.26079 0.3368 0.0
H514 H 0.37223 0.33287 0.33226 0.0
H515 H 0.37814 0.40902 0.35109 0.0
C516 C 0.05641 0.46831 0.55738 0.0
C517 C 0.00635 0.43034 0.55792 0.0
C518 C 0.09182 0.46096 0.54321 0.0
C519 C 0.07749 0.41591 0.52864 0.0
C520 C 0.02747 0.37763 0.52956 0.0
C521 C 0.99222 0.38445 0.54458 0.0
C522 C 0.11331 0.41129 0.50966 0.0
C523 C 0.16101 0.42931 0.51746 0.0
C524 C 0.20044 0.43725 0.49655 0.0
C525 C 0.24128 0.43339 0.50596 0.0
C526 C 0.28315 0.44964 0.48828 0.0
C527 C 0.28542 0.47159 0.46131 0.0
H528 H 0.17096 0.4605 0.46106 0.0
C529 C 0.24382 0.47361 0.45138 0.0
C530 C 0.20142 0.45603 0.46869 0.0
H531 H 0.24497 0.49081 0.43076 0.0
H532 H 0.0679 0.50416 0.56732 0.0
H533 H 0.1299 0.49157 0.5423 0.0
H534 H 0.01554 0.34289 0.51815 0.0
H535 H 0.95356 0.355 0.54442 0.0
H536 H 0.10076 0.39512 0.48828 0.0
H537 H 0.17227 0.44142 0.53966 0.0
H538 H 0.24157 0.41961 0.52747 0.0
H539 H 0.3151 0.44841 0.49659 0.0
C540 C 0.59446 0.99926 0.68665 0.0
C541 C 0.58308 0.00196 0.71582 0.0
C542 C 0.63509 0.03957 0.67334 0.0
C543 C 0.66501 0.08387 0.68884 0.0
C544 C 0.65564 0.08531 0.7185 0.0
C545 C 0.61504 0.04478 0.73189 0.0
C546 C 0.70482 0.12976 0.67464 0.0
C547 C 0.70433 0.13955 0.64618 0.0
C548 C 0.73912 0.18866 0.63282 0.0
C549 C 0.72379 0.20346 0.60798 0.0
C550 C 0.75291 0.25148 0.59662 0.0
C551 C 0.79819 0.28565 0.60984 0.0
H552 H 0.80025 0.21094 0.66315 0.0
C553 C 0.81517 0.26957 0.63345 0.0
C554 C 0.78608 0.22161 0.64477 0.0
H555 H 0.85032 0.29462 0.64386 0.0
H556 H 0.57116 0.96634 0.67381 0.0
H557 H 0.6423 0.03597 0.65083 0.0
H558 H 0.67853 0.11869 0.73109 0.0
H559 H 0.60744 0.04794 0.75443 0.0
H560 H 0.73228 0.15841 0.68874 0.0
H561 H 0.67417 0.11273 0.63261 0.0
H562 H 0.68813 0.17856 0.59804 0.0
H563 H 0.73884 0.26244 0.57829 0.0
loop_
_geom_bond_atom_site_label_1
_geom_bond_atom_site_label_2
_geom_bond_distance
_geom_bond_site_symmetry_2
_ccdc_geom_bond_type
Fe0 O2 1.918 . S
Fe0 O5 1.997 . S
Fe0 O6 2.002 . S
Fe0 O11 1.976 . S
Fe0 O14 1.996 . S
Fe1 O2 1.918 . S
Fe1 O9 1.997 . S
Fe1 O12 1.996 . S
Fe1 O16 1.976 . S
Fe1 O19 2.002 . S
O2 Fe0 1.918 . S
O2 Fe1 1.918 . S
O2 Fe3 1.918 . S
Fe3 O2 1.918 . S
Fe3 O4 2.002 . S
Fe3 O13 1.976 . S
Fe3 O17 1.996 . S
Fe3 O20 1.997 . S
O4 Fe3 2.002 . S
O4 C21 1.295 . S
O5 Fe0 1.997 . S
O5 C21 1.235 . S
O6 Fe0 2.002 . S
O6 C7 1.295 . S
C7 O6 1.295 . S
C7 O9 1.235 . S
C8 O13 1.287 . S
C8 O14 1.255 . S
O9 Fe1 1.997 . S
O9 C7 1.235 . S
C10 O16 1.287 . S
C10 O17 1.255 . S
O11 Fe0 1.976 . S
O11 C18 1.287 . S
O12 Fe1 1.996 . S
O12 C18 1.255 . S
O13 Fe3 1.976 . S
O13 C8 1.287 . S
O14 Fe0 1.996 . S
O14 C8 1.255 . S
C15 O19 1.295 . S
C15 O20 1.235 . S
O16 Fe1 1.976 . S
O16 C10 1.287 . S
O17 Fe3 1.996 . S
O17 C10 1.255 . S
C18 O11 1.287 . S
C18 O12 1.255 . S
O19 Fe1 2.002 . S
O19 C15 1.295 . S
O20 Fe3 1.997 . S
O20 C15 1.235 . S
C21 O4 1.295 . S
C21 O5 1.235 . S
Fe22 O24 1.918 . S
Fe22 O27 1.997 . S
Fe22 O28 2.002 . S
Fe22 O33 1.976 . S
Fe22 O36 1.996 . S
Fe23 O24 1.918 . S
Fe23 O31 1.997 . S
Fe23 O34 1.996 . S
Fe23 O38 1.976 . S
Fe23 O41 2.002 . S
O24 Fe22 1.918 . S
O24 Fe23 1.918 . S
O24 Fe25 1.918 . S
Fe25 O24 1.918 . S
Fe25 O26 2.002 . S
Fe25 O35 1.976 . S
Fe25 O39 1.996 . S
Fe25 O42 1.997 . S
O26 Fe25 2.002 . S
O26 C43 1.295 . S
O27 Fe22 1.997 . S
O27 C43 1.235 . S
O28 Fe22 2.002 . S
O28 C29 1.295 . S
C29 O28 1.295 . S
C29 O31 1.235 . S
C30 O35 1.287 . S
C30 O36 1.255 . S
O31 Fe23 1.997 . S
O31 C29 1.235 . S
C32 O38 1.287 . S
C32 O39 1.255 . S
O33 Fe22 1.976 . S
O33 C40 1.287 . S
O34 Fe23 1.996 . S
O34 C40 1.255 . S
O35 Fe25 1.976 . S
O35 C30 1.287 . S
O36 Fe22 1.996 . S
O36 C30 1.255 . S
C37 O41 1.295 . S
C37 O42 1.235 . S
O38 Fe23 1.976 . S
O38 C32 1.287 . S
O39 Fe25 1.996 . S
O39 C32 1.255 . S
C40 O33 1.287 . S
C40 O34 1.255 . S
O41 Fe23 2.002 . S
O41 C37 1.295 . S
O42 Fe25 1.997 . S
O42 C37 1.235 . S
C43 O26 1.295 . S
C43 O27 1.235 . S
Fe44 O46 1.918 . S
Fe44 O49 1.997 . S
Fe44 O50 2.002 . S
Fe44 O55 1.976 . S
Fe44 O58 1.996 . S
Fe45 O46 1.918 . S
Fe45 O53 1.997 . S
Fe45 O56 1.996 . S
Fe45 O60 1.976 . S
Fe45 O63 2.002 . S
O46 Fe44 1.918 . S
O46 Fe45 1.918 . S
O46 Fe47 1.918 . S
Fe47 O46 1.918 . S
Fe47 O48 2.002 . S
Fe47 O57 1.976 . S
Fe47 O61 1.996 . S
Fe47 O64 1.997 . S
O48 Fe47 2.002 . S
O48 C65 1.295 . S
O49 Fe44 1.997 . S
O49 C65 1.235 . S
O50 Fe44 2.002 . S
O50 C51 1.295 . S
C51 O50 1.295 . S
C51 O53 1.235 . S
C52 O57 1.287 . S
C52 O58 1.255 . S
O53 Fe45 1.997 . S
O53 C51 1.235 . S
C54 O60 1.287 . S
C54 O61 1.255 . S
O55 Fe44 1.976 . S
O55 C62 1.287 . S
O56 Fe45 1.996 . S
O56 C62 1.255 . S
O57 Fe47 1.976 . S
O57 C52 1.287 . S
O58 Fe44 1.996 . S
O58 C52 1.255 . S
C59 O63 1.295 . S
C59 O64 1.235 . S
O60 Fe45 1.976 . S
O60 C54 1.287 . S
O61 Fe47 1.996 . S
O61 C54 1.255 . S
C62 O55 1.287 . S
C62 O56 1.255 . S
O63 Fe45 2.002 . S
O63 C59 1.295 . S
O64 Fe47 1.997 . S
O64 C59 1.235 . S
C65 O48 1.295 . S
C65 O49 1.235 . S
Fe66 O68 1.918 . S
Fe66 O71 1.997 . S
Fe66 O72 2.002 . S
Fe66 O77 1.976 . S
Fe66 O80 1.996 . S
Fe67 O68 1.918 . S
Fe67 O75 1.997 . S
Fe67 O78 1.996 . S
Fe67 O82 1.976 . S
Fe67 O85 2.002 . S
O68 Fe66 1.918 . S
O68 Fe67 1.918 . S
O68 Fe69 1.918 . S
Fe69 O68 1.918 . S
Fe69 O70 2.002 . S
Fe69 O79 1.976 . S
Fe69 O83 1.996 . S
Fe69 O86 1.997 . S
O70 Fe69 2.002 . S
O70 C87 1.295 . S
O71 Fe66 1.997 . S
O71 C87 1.235 . S
O72 Fe66 2.002 . S
O72 C73 1.295 . S
C73 O72 1.295 . S
C73 O75 1.235 . S
C74 O79 1.287 . S
C74 O80 1.255 . S
O75 Fe67 1.997 . S
O75 C73 1.235 . S
C76 O82 1.287 . S
C76 O83 1.255 . S
O77 Fe66 1.976 . S
O77 C84 1.287 . S
O78 Fe67 1.996 . S
O78 C84 1.255 . S
O79 Fe69 1.976 . S
O79 C74 1.287 . S
O80 Fe66 1.996 . S
O80 C74 1.255 . S
C81 O85 1.295 . S
C81 O86 1.235 . S
O82 Fe67 1.976 . S
O82 C76 1.287 . S
O83 Fe69 1.996 . S
O83 C76 1.255 . S
C84 O77 1.287 . S
C84 O78 1.255 . S
O85 Fe67 2.002 . S
O85 C81 1.295 . S
O86 Fe69 1.997 . S
O86 C81 1.235 . S
C87 O70 1.295 . S
C87 O71 1.235 . S
Fe88 O90 1.918 . S
Fe88 O93 1.997 . S
Fe88 O94 2.002 . S
Fe88 O99 1.976 . S
Fe88 O102 1.996 . S
Fe89 O90 1.918 . S
Fe89 O97 1.997 . S
Fe89 O100 1.996 . S
Fe89 O104 1.976 . S
Fe89 O107 2.002 . S
O90 Fe88 1.918 . S
O90 Fe89 1.918 . S
O90 Fe91 1.918 . S
Fe91 O90 1.918 . S
Fe91 O92 2.002 . S
Fe91 O101 1.976 . S
Fe91 O105 1.996 . S
Fe91 O108 1.997 . S
O92 Fe91 2.002 . S
O92 C109 1.295 . S
O93 Fe88 1.997 . S
O93 C109 1.235 . S
O94 Fe88 2.002 . S
O94 C95 1.295 . S
C95 O94 1.295 . S
C95 O97 1.235 . S
C96 O101 1.287 . S
C96 O102 1.255 . S
O97 Fe89 1.997 . S
O97 C95 1.235 . S
C98 O104 1.287 . S
C98 O105 1.255 . S
O99 Fe88 1.976 . S
O99 C106 1.287 . S
O100 Fe89 1.996 . S
O100 C106 1.255 . S
O101 Fe91 1.976 . S
O101 C96 1.287 . S
O102 Fe88 1.996 . S
O102 C96 1.255 . S
C103 O107 1.295 . S
C103 O108 1.235 . S
O104 Fe89 1.976 . S
O104 C98 1.287 . S
O105 Fe91 1.996 . S
O105 C98 1.255 . S
C106 O99 1.287 . S
C106 O100 1.255 . S
O107 Fe89 2.002 . S
O107 C103 1.295 . S
O108 Fe91 1.997 . S
O108 C103 1.235 . S
C109 O92 1.295 . S
C109 O93 1.235 . S
Fe110 O112 1.918 . S
Fe110 O115 1.997 . S
Fe110 O116 2.002 . S
Fe110 O121 1.976 . S
Fe110 O124 1.996 . S
Fe111 O112 1.918 . S
Fe111 O119 1.997 . S
Fe111 O122 1.996 . S
Fe111 O126 1.976 . S
Fe111 O129 2.002 . S
O112 Fe110 1.918 . S
O112 Fe111 1.918 . S
O112 Fe113 1.918 . S
Fe113 O112 1.918 . S
Fe113 O114 2.002 . S
Fe113 O123 1.976 . S
Fe113 O127 1.996 . S
Fe113 O130 1.997 . S
O114 Fe113 2.002 . S
O114 C131 1.295 . S
O115 Fe110 1.997 . S
O115 C131 1.235 . S
O116 Fe110 2.002 . S
O116 C117 1.295 . S
C117 O116 1.295 . S
C117 O119 1.235 . S
C118 O123 1.287 . S
C118 O124 1.255 . S
O119 Fe111 1.997 . S
O119 C117 1.235 . S
C120 O126 1.287 . S
C120 O127 1.255 . S
O121 Fe110 1.976 . S
O121 C128 1.287 . S
O122 Fe111 1.996 . S
O122 C128 1.255 . S
O123 Fe113 1.976 . S
O123 C118 1.287 . S
O124 Fe110 1.996 . S
O124 C118 1.255 . S
C125 O129 1.295 . S
C125 O130 1.235 . S
O126 Fe111 1.976 . S
O126 C120 1.287 . S
O127 Fe113 1.996 . S
O127 C120 1.255 . S
C128 O121 1.287 . S
C128 O122 1.255 . S
O129 Fe111 2.002 . S
O129 C125 1.295 . S
O130 Fe113 1.997 . S
O130 C125 1.235 . S
C131 O114 1.295 . S
C131 O115 1.235 . S
C132 C133 1.386 . S
C132 C134 1.383 . S
C132 H148 0.951 . S
C133 C132 1.386 . S
C133 C137 1.383 . S
C134 C132 1.383 . S
C134 C135 1.402 . S
C134 H149 0.951 . S
C135 C134 1.402 . S
C135 C136 1.375 . S
C135 C138 1.481 . S
C136 C135 1.375 . S
C136 C137 1.367 . S
C136 H150 0.951 . S
C137 C133 1.383 . S
C137 C136 1.367 . S
C137 H151 0.950 . S
C138 C135 1.481 . S
C138 C139 1.297 . S
C138 H152 0.950 . S
C139 C138 1.297 . S
C139 C140 1.479 . S
C139 H153 0.950 . S
C140 C139 1.479 . S
C140 C141 1.375 . S
C140 C146 1.404 . S
C141 C140 1.375 . S
C141 C142 1.369 . S
C141 H154 0.950 . S
C142 C141 1.369 . S
C142 C143 1.392 . S
C142 H155 0.951 . S
C143 C142 1.392 . S
C143 C145 1.384 . S
H144 C146 0.949 . S
C145 C143 1.384 . S
C145 C146 1.385 . S
C145 H147 0.950 . S
C146 C140 1.404 . S
C146 H144 0.949 . S
C146 C145 1.385 . S
H147 C145 0.950 . S
H148 C132 0.951 . S
H149 C134 0.951 . S
H150 C136 0.951 . S
H151 C137 0.950 . S
H152 C138 0.950 . S
H153 C139 0.950 . S
H154 C141 0.950 . S
H155 C142 0.951 . S
C156 C157 1.386 . S
C156 C158 1.383 . S
C156 H172 0.951 . S
C157 C156 1.386 . S
C157 C161 1.383 . S
C158 C156 1.383 . S
C158 C159 1.402 . S
C158 H173 0.951 . S
C159 C158 1.402 . S
C159 C160 1.375 . S
C159 C162 1.481 . S
C160 C159 1.375 . S
C160 C161 1.367 . S
C160 H174 0.951 . S
C161 C157 1.383 . S
C161 C160 1.367 . S
C161 H175 0.950 . S
C162 C159 1.481 . S
C162 C163 1.297 . S
C162 H176 0.950 . S
C163 C162 1.297 . S
C163 C164 1.479 . S
C163 H177 0.950 . S
C164 C163 1.479 . S
C164 C165 1.375 . S
C164 C170 1.404 . S
C165 C164 1.375 . S
C165 C166 1.369 . S
C165 H178 0.950 . S
C166 C165 1.369 . S
C166 C167 1.392 . S
C166 H179 0.951 . S
C167 C166 1.392 . S
C167 C169 1.384 . S
H168 C170 0.949 . S
C169 C167 1.384 . S
C169 C170 1.385 . S
C169 H171 0.950 . S
C170 C164 1.404 . S
C170 H168 0.949 . S
C170 C169 1.385 . S
H171 C169 0.950 . S
H172 C156 0.951 . S
H173 C158 0.951 . S
H174 C160 0.951 . S
H175 C161 0.950 . S
H176 C162 0.950 . S
H177 C163 0.950 . S
H178 C165 0.950 . S
H179 C166 0.951 . S
C180 C181 1.386 . S
C180 C182 1.383 . S
C180 H196 0.951 . S
C181 C180 1.386 . S
C181 C185 1.383 . S
C182 C180 1.383 . S
C182 C183 1.402 . S
C182 H197 0.951 . S
C183 C182 1.402 . S
C183 C184 1.375 . S
C183 C186 1.481 . S
C184 C183 1.375 . S
C184 C185 1.367 . S
C184 H198 0.951 . S
C185 C181 1.383 . S
C185 C184 1.367 . S
C185 H199 0.950 . S
C186 C183 1.481 . S
C186 C187 1.297 . S
C186 H200 0.950 . S
C187 C186 1.297 . S
C187 C188 1.479 . S
C187 H201 0.950 . S
C188 C187 1.479 . S
C188 C189 1.375 . S
C188 C194 1.404 . S
C189 C188 1.375 . S
C189 C190 1.369 . S
C189 H202 0.950 . S
C190 C189 1.369 . S
C190 C191 1.392 . S
C190 H203 0.951 . S
C191 C190 1.392 . S
C191 C193 1.384 . S
H192 C194 0.949 . S
C193 C191 1.384 . S
C193 C194 1.385 . S
C193 H195 0.950 . S
C194 C188 1.404 . S
C194 H192 0.949 . S
C194 C193 1.385 . S
H195 C193 0.950 . S
H196 C180 0.951 . S
H197 C182 0.951 . S
H198 C184 0.951 . S
H199 C185 0.950 . S
H200 C186 0.950 . S
H201 C187 0.950 . S
H202 C189 0.950 . S
H203 C190 0.951 . S
C204 C205 1.386 . S
C204 C206 1.383 . S
C204 H220 0.951 . S
C205 C204 1.386 . S
C205 C209 1.383 . S
C206 C204 1.383 . S
C206 C207 1.402 . S
C206 H221 0.951 . S
C207 C206 1.402 . S
C207 C208 1.375 . S
C207 C210 1.481 . S
C208 C207 1.375 . S
C208 C209 1.367 . S
C208 H222 0.951 . S
C209 C205 1.383 . S
C209 C208 1.367 . S
C209 H223 0.950 . S
C210 C207 1.481 . S
C210 C211 1.297 . S
C210 H224 0.950 . S
C211 C210 1.297 . S
C211 C212 1.479 . S
C211 H225 0.950 . S
C212 C211 1.479 . S
C212 C213 1.375 . S
C212 C218 1.404 . S
C213 C212 1.375 . S
C213 C214 1.369 . S
C213 H226 0.950 . S
C214 C213 1.369 . S
C214 C215 1.392 . S
C214 H227 0.951 . S
C215 C214 1.392 . S
C215 C217 1.384 . S
H216 C218 0.949 . S
C217 C215 1.384 . S
C217 C218 1.385 . S
C217 H219 0.950 . S
C218 C212 1.404 . S
C218 H216 0.949 . S
C218 C217 1.385 . S
H219 C217 0.950 . S
H220 C204 0.951 . S
H221 C206 0.951 . S
H222 C208 0.951 . S
H223 C209 0.950 . S
H224 C210 0.950 . S
H225 C211 0.950 . S
H226 C213 0.950 . S
H227 C214 0.951 . S
C228 C229 1.386 1_556 S
C228 C230 1.383 . S
C228 H244 0.951 1_556 S
C229 C228 1.386 1_554 S
C229 C233 1.383 1_554 S
C230 C228 1.383 . S
C230 C231 1.402 . S
C230 H245 0.951 . S
C231 C230 1.402 . S
C231 C232 1.375 . S
C231 C234 1.481 . S
C232 C231 1.375 . S
C232 C233 1.367 . S
C232 H246 0.951 . S
C233 C229 1.383 1_556 S
C233 C232 1.367 . S
C233 H247 0.950 . S
C234 C231 1.481 . S
C234 C235 1.297 . S
C234 H248 0.950 . S
C235 C234 1.297 . S
C235 C236 1.479 . S
C235 H249 0.950 . S
C236 C235 1.479 . S
C236 C237 1.375 . S
C236 C242 1.404 . S
C237 C236 1.375 . S
C237 C238 1.369 . S
C237 H250 0.950 . S
C238 C237 1.369 . S
C238 C239 1.392 . S
C238 H251 0.951 . S
C239 C238 1.392 . S
C239 C241 1.384 . S
H240 C242 0.949 . S
C241 C239 1.384 . S
C241 C242 1.385 . S
C241 H243 0.950 . S
C242 C236 1.404 . S
C242 H240 0.949 . S
C242 C241 1.385 . S
H243 C241 0.950 . S
H244 C228 0.951 1_554 S
H245 C230 0.951 . S
H246 C232 0.951 . S
H247 C233 0.950 . S
H248 C234 0.950 . S
H249 C235 0.950 . S
H250 C237 0.950 . S
H251 C238 0.951 . S
C252 C253 1.386 . S
C252 C254 1.383 . S
C252 H268 0.951 . S
C253 C252 1.386 . S
C253 C257 1.383 . S
C254 C252 1.383 . S
C254 C255 1.402 . S
C254 H269 0.951 . S
C255 C254 1.402 . S
C255 C256 1.375 . S
C255 C258 1.481 . S
C256 C255 1.375 . S
C256 C257 1.367 . S
C256 H270 0.951 . S
C257 C253 1.383 . S
C257 C256 1.367 . S
C257 H271 0.950 . S
C258 C255 1.481 . S
C258 C259 1.297 . S
C258 H272 0.950 . S
C259 C258 1.297 . S
C259 C260 1.479 . S
C259 H273 0.950 . S
C260 C259 1.479 . S
C260 C261 1.375 . S
C260 C266 1.404 . S
C261 C260 1.375 . S
C261 C262 1.369 . S
C261 H274 0.950 . S
C262 C261 1.369 . S
C262 C263 1.392 1_554 S
C262 H275 0.951 . S
C263 C262 1.392 1_556 S
C263 C265 1.384 . S
H264 C266 0.949 . S
C265 C263 1.384 . S
C265 C266 1.385 1_556 S
C265 H267 0.950 . S
C266 C260 1.404 . S
C266 H264 0.949 . S
C266 C265 1.385 1_554 S
H267 C265 0.950 . S
H268 C252 0.951 . S
H269 C254 0.951 . S
H270 C256 0.951 . S
H271 C257 0.950 . S
H272 C258 0.950 . S
H273 C259 0.950 . S
H274 C261 0.950 . S
H275 C262 0.951 . S
C276 C277 1.386 . S
C276 C278 1.383 . S
C276 H292 0.951 . S
C277 C276 1.386 . S
C277 C281 1.383 . S
C278 C276 1.383 . S
C278 C279 1.402 . S
C278 H293 0.951 1_556 S
C279 C278 1.402 . S
C279 C280 1.375 . S
C279 C282 1.481 . S
C280 C279 1.375 . S
C280 C281 1.367 . S
C280 H294 0.951 . S
C281 C277 1.383 . S
C281 C280 1.367 . S
C281 H295 0.950 . S
C282 C279 1.481 . S
C282 C283 1.297 1_556 S
C282 H296 0.950 . S
C283 C282 1.297 1_554 S
C283 C284 1.479 . S
C283 H297 0.950 . S
C284 C283 1.479 . S
C284 C285 1.375 . S
C284 C290 1.404 . S
C285 C284 1.375 . S
C285 C286 1.369 . S
C285 H298 0.950 . S
C286 C285 1.369 . S
C286 C287 1.392 . S
C286 H299 0.951 . S
C287 C286 1.392 . S
C287 C289 1.384 . S
H288 C290 0.949 1_556 S
C289 C287 1.384 . S
C289 C290 1.385 . S
C289 H291 0.950 . S
C290 C284 1.404 . S
C290 H288 0.949 1_554 S
C290 C289 1.385 . S
H291 C289 0.950 . S
H292 C276 0.951 . S
H293 C278 0.951 1_554 S
H294 C280 0.951 . S
H295 C281 0.950 . S
H296 C282 0.950 . S
H297 C283 0.950 . S
H298 C285 0.950 . S
H299 C286 0.951 . S
C300 C301 1.386 . S
C300 C302 1.383 1_455 S
C300 H316 0.951 . S
C301 C300 1.386 . S
C301 C305 1.383 1_455 S
C302 C300 1.383 1_655 S
C302 C303 1.402 . S
C302 H317 0.951 . S
C303 C302 1.402 . S
C303 C304 1.375 . S
C303 C306 1.481 . S
C304 C303 1.375 . S
C304 C305 1.367 . S
C304 H318 0.951 . S
C305 C301 1.383 1_655 S
C305 C304 1.367 . S
C305 H319 0.950 . S
C306 C303 1.481 . S
C306 C307 1.297 . S
C306 H320 0.950 . S
C307 C306 1.297 . S
C307 C308 1.479 . S
C307 H321 0.950 . S
C308 C307 1.479 . S
C308 C309 1.375 . S
C308 C314 1.404 . S
C309 C308 1.375 . S
C309 C310 1.369 . S
C309 H322 0.950 . S
C310 C309 1.369 . S
C310 C311 1.392 . S
C310 H323 0.951 . S
C311 C310 1.392 . S
C311 C313 1.384 . S
H312 C314 0.949 . S
C313 C311 1.384 . S
C313 C314 1.385 . S
C313 H315 0.950 . S
C314 C308 1.404 . S
C314 H312 0.949 . S
C314 C313 1.385 . S
H315 C313 0.950 . S
H316 C300 0.951 . S
H317 C302 0.951 . S
H318 C304 0.951 . S
H319 C305 0.950 . S
H320 C306 0.950 . S
H321 C307 0.950 . S
H322 C309 0.950 . S
H323 C310 0.951 . S
C324 C325 1.386 . S
C324 C326 1.383 . S
C324 H340 0.951 . S
C325 C324 1.386 . S
C325 C329 1.383 . S
C326 C324 1.383 . S
C326 C327 1.402 . S
C326 H341 0.951 . S
C327 C326 1.402 . S
C327 C328 1.375 . S
C327 C330 1.481 . S
C328 C327 1.375 . S
C328 C329 1.367 . S
C328 H342 0.951 . S
C329 C325 1.383 . S
C329 C328 1.367 . S
C329 H343 0.950 . S
C330 C327 1.481 . S
C330 C331 1.297 . S
C330 H344 0.950 . S
C331 C330 1.297 . S
C331 C332 1.479 . S
C331 H345 0.950 . S
C332 C331 1.479 . S
C332 C333 1.375 . S
C332 C338 1.404 . S
C333 C332 1.375 . S
C333 C334 1.369 1_565 S
C333 H346 0.950 . S
C334 C333 1.369 1_545 S
C334 C335 1.392 . S
C334 H347 0.951 . S
C335 C334 1.392 . S
C335 C337 1.384 1_545 S
H336 C338 0.949 . S
C337 C335 1.384 1_565 S
C337 C338 1.385 . S
C337 H339 0.950 . S
C338 C332 1.404 . S
C338 H336 0.949 . S
C338 C337 1.385 . S
H339 C337 0.950 . S
H340 C324 0.951 . S
H341 C326 0.951 . S
H342 C328 0.951 . S
H343 C329 0.950 . S
H344 C330 0.950 . S
H345 C331 0.950 . S
H346 C333 0.950 . S
H347 C334 0.951 . S
C348 C349 1.386 . S
C348 C350 1.383 . S
C348 H364 0.951 . S
C349 C348 1.386 . S
C349 C353 1.383 . S
C350 C348 1.383 . S
C350 C351 1.402 . S
C350 H365 0.951 . S
C351 C350 1.402 . S
C351 C352 1.375 . S
C351 C354 1.481 . S
C352 C351 1.375 . S
C352 C353 1.367 . S
C352 H366 0.951 . S
C353 C349 1.383 . S
C353 C352 1.367 . S
C353 H367 0.950 . S
C354 C351 1.481 . S
C354 C355 1.297 . S
C354 H368 0.950 . S
C355 C354 1.297 . S
C355 C356 1.479 . S
C355 H369 0.950 . S
C356 C355 1.479 . S
C356 C357 1.375 . S
C356 C362 1.404 . S
C357 C356 1.375 . S
C357 C358 1.369 . S
C357 H370 0.950 . S
C358 C357 1.369 . S
C358 C359 1.392 . S
C358 H371 0.951 . S
C359 C358 1.392 . S
C359 C361 1.384 . S
H360 C362 0.949 . S
C361 C359 1.384 . S
C361 C362 1.385 . S
C361 H363 0.950 . S
C362 C356 1.404 . S
C362 H360 0.949 . S
C362 C361 1.385 . S
H363 C361 0.950 . S
H364 C348 0.951 . S
H365 C350 0.951 . S
H366 C352 0.951 . S
H367 C353 0.950 . S
H368 C354 0.950 . S
H369 C355 0.950 . S
H370 C357 0.950 . S
H371 C358 0.951 . S
C372 C373 1.386 . S
C372 C374 1.383 . S
C372 H388 0.951 . S
C373 C372 1.386 . S
C373 C377 1.383 . S
C374 C372 1.383 . S
C374 C375 1.402 . S
C374 H389 0.951 . S
C375 C374 1.402 . S
C375 C376 1.375 . S
C375 C378 1.481 . S
C376 C375 1.375 . S
C376 C377 1.367 . S
C376 H390 0.951 . S
C377 C373 1.383 . S
C377 C376 1.367 . S
C377 H391 0.950 . S
C378 C375 1.481 . S
C378 C379 1.297 . S
C378 H392 0.950 . S
C379 C378 1.297 . S
C379 C380 1.479 . S
C379 H393 0.950 . S
C380 C379 1.479 . S
C380 C381 1.375 . S
C380 C386 1.404 . S
C381 C380 1.375 . S
C381 C382 1.369 1_455 S
C381 H394 0.950 . S
C382 C381 1.369 1_655 S
C382 C383 1.392 . S
C382 H395 0.951 . S
C383 C382 1.392 . S
C383 C385 1.384 . S
H384 C386 0.949 . S
C385 C383 1.384 . S
C385 C386 1.385 1_655 S
C385 H387 0.950 . S
C386 C380 1.404 . S
C386 H384 0.949 . S
C386 C385 1.385 1_455 S
H387 C385 0.950 . S
H388 C372 0.951 . S
H389 C374 0.951 . S
H390 C376 0.951 . S
H391 C377 0.950 . S
H392 C378 0.950 . S
H393 C379 0.950 . S
H394 C381 0.950 . S
H395 C382 0.951 . S
C396 C397 1.386 . S
C396 C398 1.383 . S
C396 H412 0.951 . S
C397 C396 1.386 . S
C397 C401 1.383 . S
C398 C396 1.383 . S
C398 C399 1.402 . S
C398 H413 0.951 . S
C399 C398 1.402 . S
C399 C400 1.375 . S
C399 C402 1.481 . S
C400 C399 1.375 . S
C400 C401 1.367 . S
C400 H414 0.951 . S
C401 C397 1.383 . S
C401 C400 1.367 . S
C401 H415 0.950 . S
C402 C399 1.481 . S
C402 C403 1.297 . S
C402 H416 0.950 . S
C403 C402 1.297 . S
C403 C404 1.479 . S
C403 H417 0.950 . S
C404 C403 1.479 . S
C404 C405 1.375 . S
C404 C410 1.404 . S
C405 C404 1.375 . S
C405 C406 1.369 1_545 S
C405 H418 0.950 . S
C406 C405 1.369 1_565 S
C406 C407 1.392 . S
C406 H419 0.951 . S
C407 C406 1.392 . S
C407 C409 1.384 1_565 S
H408 C410 0.949 . S
C409 C407 1.384 1_545 S
C409 C410 1.385 . S
C409 H411 0.950 . S
C410 C404 1.404 . S
C410 H408 0.949 . S
C410 C409 1.385 . S
H411 C409 0.950 . S
H412 C396 0.951 . S
H413 C398 0.951 . S
H414 C400 0.951 . S
H415 C401 0.950 . S
H416 C402 0.950 . S
H417 C403 0.950 . S
H418 C405 0.950 . S
H419 C406 0.951 . S
C420 C421 1.386 . S
C420 C422 1.383 . S
C420 H436 0.951 . S
C421 C420 1.386 . S
C421 C425 1.383 . S
C422 C420 1.383 . S
C422 C423 1.402 . S
C422 H437 0.951 . S
C423 C422 1.402 . S
C423 C424 1.375 . S
C423 C426 1.481 . S
C424 C423 1.375 . S
C424 C425 1.367 . S
C424 H438 0.951 . S
C425 C421 1.383 . S
C425 C424 1.367 . S
C425 H439 0.950 . S
C426 C423 1.481 . S
C426 C427 1.297 . S
C426 H440 0.950 . S
C427 C426 1.297 . S
C427 C428 1.479 . S
C427 H441 0.950 . S
C428 C427 1.479 . S
C428 C429 1.375 . S
C428 C434 1.404 . S
C429 C428 1.375 . S
C429 C430 1.369 . S
C429 H442 0.950 . S
C430 C429 1.369 . S
C430 C431 1.392 . S
C430 H443 0.951 . S
C431 C430 1.392 . S
C431 C433 1.384 . S
H432 C434 0.949 . S
C433 C431 1.384 . S
C433 C434 1.385 . S
C433 H435 0.950 . S
C434 C428 1.404 . S
C434 H432 0.949 . S
C434 C433 1.385 . S
H435 C433 0.950 . S
H436 C420 0.951 . S
H437 C422 0.951 . S
H438 C424 0.951 . S
H439 C425 0.950 . S
H440 C426 0.950 . S
H441 C427 0.950 . S
H442 C429 0.950 . S
H443 C430 0.951 . S
C444 C445 1.386 . S
C444 C446 1.383 1_455 S
C444 H460 0.951 . S
C445 C444 1.386 . S
C445 C449 1.383 1_455 S
C446 C444 1.383 1_655 S
C446 C447 1.402 . S
C446 H461 0.951 . S
C447 C446 1.402 . S
C447 C448 1.375 . S
C447 C450 1.481 . S
C448 C447 1.375 . S
C448 C449 1.367 . S
C448 H462 0.951 . S
C449 C445 1.383 1_655 S
C449 C448 1.367 . S
C449 H463 0.950 . S
C450 C447 1.481 . S
C450 C451 1.297 1_554 S
C450 H464 0.950 . S
C451 C450 1.297 1_556 S
C451 C452 1.479 . S
C451 H465 0.950 . S
C452 C451 1.479 . S
C452 C453 1.375 . S
C452 C458 1.404 . S
C453 C452 1.375 . S
C453 C454 1.369 . S
C453 H466 0.950 . S
C454 C453 1.369 . S
C454 C455 1.392 . S
C454 H467 0.951 . S
C455 C454 1.392 . S
C455 C457 1.384 . S
H456 C458 0.949 . S
C457 C455 1.384 . S
C457 C458 1.385 . S
C457 H459 0.950 . S
C458 C452 1.404 . S
C458 H456 0.949 . S
C458 C457 1.385 . S
H459 C457 0.950 . S
H460 C444 0.951 . S
H461 C446 0.951 . S
H462 C448 0.951 . S
H463 C449 0.950 . S
H464 C450 0.950 . S
H465 C451 0.950 . S
H466 C453 0.950 . S
H467 C454 0.951 . S
C468 C469 1.386 . S
C468 C470 1.383 1_545 S
C468 H484 0.951 . S
C469 C468 1.386 . S
C469 C473 1.383 . S
C470 C468 1.383 1_565 S
C470 C471 1.402 . S
C470 H485 0.951 . S
C471 C470 1.402 . S
C471 C472 1.375 . S
C471 C474 1.481 . S
C472 C471 1.375 . S
C472 C473 1.367 1_565 S
C472 H486 0.951 . S
C473 C469 1.383 . S
C473 C472 1.367 1_545 S
C473 H487 0.950 . S
C474 C471 1.481 . S
C474 C475 1.297 . S
C474 H488 0.950 . S
C475 C474 1.297 . S
C475 C476 1.479 . S
C475 H489 0.950 . S
C476 C475 1.479 . S
C476 C477 1.375 . S
C476 C482 1.404 . S
C477 C476 1.375 . S
C477 C478 1.369 . S
C477 H490 0.950 . S
C478 C477 1.369 . S
C478 C479 1.392 . S
C478 H491 0.951 . S
C479 C478 1.392 . S
C479 C481 1.384 . S
H480 C482 0.949 . S
C481 C479 1.384 . S
C481 C482 1.385 . S
C481 H483 0.950 . S
C482 C476 1.404 . S
C482 H480 0.949 . S
C482 C481 1.385 . S
H483 C481 0.950 . S
H484 C468 0.951 . S
H485 C470 0.951 . S
H486 C472 0.951 . S
H487 C473 0.950 . S
H488 C474 0.950 . S
H489 C475 0.950 . S
H490 C477 0.950 . S
H491 C478 0.951 . S
C492 C493 1.386 . S
C492 C494 1.383 . S
C492 H508 0.951 . S
C493 C492 1.386 . S
C493 C497 1.383 . S
C494 C492 1.383 . S
C494 C495 1.402 . S
C494 H509 0.951 . S
C495 C494 1.402 . S
C495 C496 1.375 . S
C495 C498 1.481 . S
C496 C495 1.375 . S
C496 C497 1.367 . S
C496 H510 0.951 . S
C497 C493 1.383 . S
C497 C496 1.367 . S
C497 H511 0.950 . S
C498 C495 1.481 . S
C498 C499 1.297 . S
C498 H512 0.950 . S
C499 C498 1.297 . S
C499 C500 1.479 . S
C499 H513 0.950 . S
C500 C499 1.479 . S
C500 C501 1.375 . S
C500 C506 1.404 . S
C501 C500 1.375 . S
C501 C502 1.369 . S
C501 H514 0.950 . S
C502 C501 1.369 . S
C502 C503 1.392 . S
C502 H515 0.951 . S
C503 C502 1.392 . S
C503 C505 1.384 . S
H504 C506 0.949 . S
C505 C503 1.384 . S
C505 C506 1.385 . S
C505 H507 0.950 . S
C506 C500 1.404 . S
C506 H504 0.949 . S
C506 C505 1.385 . S
H507 C505 0.950 . S
H508 C492 0.951 . S
H509 C494 0.951 . S
H510 C496 0.951 . S
H511 C497 0.950 . S
H512 C498 0.950 . S
H513 C499 0.950 . S
H514 C501 0.950 . S
H515 C502 0.951 . S
C516 C517 1.386 1_455 S
C516 C518 1.383 . S
C516 H532 0.951 . S
C517 C516 1.386 1_655 S
C517 C521 1.383 . S
C518 C516 1.383 . S
C518 C519 1.402 . S
C518 H533 0.951 . S
C519 C518 1.402 . S
C519 C520 1.370 1_455 S
C519 C522 1.481 . S
C520 C519 1.370 1_655 S
C520 C521 1.373 . S
C520 H534 0.950 . S
C521 C517 1.383 . S
C521 C520 1.373 . S
C521 H535 0.950 . S
C522 C519 1.481 . S
C522 C523 1.297 . S
C522 H536 0.950 . S
C523 C522 1.297 . S
C523 C524 1.479 . S
C523 H537 0.950 . S
C524 C523 1.479 . S
C524 C525 1.375 . S
C524 C530 1.404 . S
C525 C524 1.375 . S
C525 C526 1.369 . S
C525 H538 0.950 . S
C526 C525 1.369 . S
C526 C527 1.392 . S
C526 H539 0.951 . S
C527 C526 1.392 . S
C527 C529 1.384 . S
H528 C530 0.949 . S
C529 C527 1.384 . S
C529 C530 1.385 . S
C529 H531 0.950 . S
C530 C524 1.404 . S
C530 H528 0.949 . S
C530 C529 1.385 . S
H531 C529 0.950 . S
H532 C516 0.951 . S
H533 C518 0.951 . S
H534 C520 0.950 . S
H535 C521 0.950 . S
H536 C522 0.950 . S
H537 C523 0.950 . S
H538 C525 0.950 . S
H539 C526 0.951 . S
C540 C541 1.386 1_545 S
C540 C542 1.383 . S
C540 H556 0.951 . S
C541 C540 1.386 1_565 S
C541 C545 1.383 . S
C542 C540 1.383 . S
C542 C543 1.402 . S
C542 H557 0.951 . S
C543 C542 1.402 . S
C543 C544 1.375 . S
C543 C546 1.481 . S
C544 C543 1.375 . S
C544 C545 1.367 1_545 S
C544 H558 0.951 . S
C545 C541 1.383 . S
C545 C544 1.367 1_565 S
C545 H559 0.950 . S
C546 C543 1.481 . S
C546 C547 1.297 . S
C546 H560 0.950 . S
C547 C546 1.297 . S
C547 C548 1.479 . S
C547 H561 0.950 . S
C548 C547 1.479 . S
C548 C549 1.375 . S
C548 C554 1.404 . S
C549 C548 1.375 . S
C549 C550 1.369 . S
C549 H562 0.950 . S
C550 C549 1.369 . S
C550 C551 1.392 . S
C550 H563 0.951 . S
C551 C550 1.392 . S
C551 C553 1.384 . S
H552 C554 0.949 . S
C553 C551 1.384 . S
C553 C554 1.385 . S
C553 H555 0.950 . S
C554 C548 1.404 . S
C554 H552 0.949 . S
C554 C553 1.385 . S
H555 C553 0.950 . S
H556 C540 0.951 . S
H557 C542 0.951 . S
H558 C544 0.951 . S
H559 C545 0.950 . S
H560 C546 0.950 . S
H561 C547 0.950 . S
H562 C549 0.950 . S
H563 C550 0.951 . S
C133 C18 0.747 . S
C143 C52 0.742 . S
C157 C37 0.864 . S
C167 C73 0.870 . S
C181 C106 0.807 . S
C191 C51 0.828 . S
C205 C118 0.736 . S
C215 C74 0.755 . S
C229 C15 0.889 . S
C239 C103 0.859 . S
C253 C40 0.818 . S
C263 C117 0.796 . S
C277 C125 1.271 . S
C287 C10 1.269 . S
C301 C8 1.287 . S
C311 C29 1.239 . S
C325 C65 1.296 . S
C335 C43 1.362 . S
C349 C84 1.283 . S
C359 C59 1.288 . S
C373 C95 1.316 . S
C383 C76 1.272 . S
C397 C131 1.286 . S
C407 C109 1.357 . S
C421 C98 1.277 . S
C431 C120 1.301 . S
C445 C21 1.245 . S
C455 C128 1.302 . S
C469 C30 1.263 . S
C479 C7 1.321 . S
C493 C32 1.250 . S
C503 C54 1.306 . S
C517 C81 1.312 . S
C527 C62 1.303 . S
C541 C96 1.319 . S
C551 C87 1.223 . S
