# Generated by pormake.
# Topology ict, (4)-cn, num edge types: 1
# Building blocks:
#     Node 0, Type 0, BuildingBlock: AZAVOO_clean_sbu_0, # of connection points: 4
#     Node 1, Type 0, BuildingBlock: AZAVOO_clean_sbu_0, # of connection points: 4
#     Node 2, Type 0, BuildingBlock: AZAVOO_clean_sbu_0, # of connection points: 4
#     Node 3, Type 0, BuildingBlock: AZAVOO_clean_sbu_0, # of connection points: 4
#     Node 4, Type 0, BuildingBlock: AZAVOO_clean_sbu_0, # of connection points: 4
#     Node 5, Type 0, BuildingBlock: AZAVOO_clean_sbu_0, # of connection points: 4
#     Node 6, Type 0, BuildingBlock: AZAVOO_clean_sbu_0, # of connection points: 4
#     Node 7, Type 0, BuildingBlock: AZAVOO_clean_sbu_0, # of connection points: 4
#     Node 8, Type 0, BuildingBlock: AZAVOO_clean_sbu_0, # of connection points: 4
#     Node 9, Type 0, BuildingBlock: AZAVOO_clean_sbu_0, # of connection points: 4
#     Node 10, Type 0, BuildingBlock: AZAVOO_clean_sbu_0, # of connection points: 4
#     Node 11, Type 0, BuildingBlock: AZAVOO_clean_sbu_0, # of connection points: 4
#     Node 12, Type 0, BuildingBlock: AZAVOO_clean_sbu_0, # of connection points: 4
#     Node 13, Type 0, BuildingBlock: AZAVOO_clean_sbu_0, # of connection points: 4
#     Node 14, Type 0, BuildingBlock: AZAVOO_clean_sbu_0, # of connection points: 4
#     Node 15, Type 0, BuildingBlock: AZAVOO_clean_sbu_0, # of connection points: 4
#     Node 16, Type 0, BuildingBlock: AZAVOO_clean_sbu_0, # of connection points: 4
#     Node 17, Type 0, BuildingBlock: AZAVOO_clean_sbu_0, # of connection points: 4
#     Node 18, Type 0, BuildingBlock: AZAVOO_clean_sbu_0, # of connection points: 4
#     Node 19, Type 0, BuildingBlock: AZAVOO_clean_sbu_0, # of connection points: 4
#     Node 20, Type 0, BuildingBlock: AZAVOO_clean_sbu_0, # of connection points: 4
#     Node 21, Type 0, BuildingBlock: AZAVOO_clean_sbu_0, # of connection points: 4
#     Node 22, Type 0, BuildingBlock: AZAVOO_clean_sbu_0, # of connection points: 4
#     Node 23, Type 0, BuildingBlock: AZAVOO_clean_sbu_0, # of connection points: 4
#     Node 24, Type 0, BuildingBlock: AZAVOO_clean_sbu_0, # of connection points: 4
#     Node 25, Type 0, BuildingBlock: AZAVOO_clean_sbu_0, # of connection points: 4
#     Node 26, Type 0, BuildingBlock: AZAVOO_clean_sbu_0, # of connection points: 4
#     Node 27, Type 0, BuildingBlock: AZAVOO_clean_sbu_0, # of connection points: 4
#     Node 28, Type 0, BuildingBlock: AZAVOO_clean_sbu_0, # of connection points: 4
#     Node 29, Type 0, BuildingBlock: AZAVOO_clean_sbu_0, # of connection points: 4
#     Node 30, Type 0, BuildingBlock: AZAVOO_clean_sbu_0, # of connection points: 4
#     Node 31, Type 0, BuildingBlock: AZAVOO_clean_sbu_0, # of connection points: 4
#     Node 32, Type 0, BuildingBlock: AZAVOO_clean_sbu_0, # of connection points: 4
#     Node 33, Type 0, BuildingBlock: AZAVOO_clean_sbu_0, # of connection points: 4
#     Node 34, Type 0, BuildingBlock: AZAVOO_clean_sbu_0, # of connection points: 4
#     Node 35, Type 0, BuildingBlock: AZAVOO_clean_sbu_0, # of connection points: 4
#     Edge 36, Type (0, 0), BuildingBlock: CIFDUS_clean_linker_0, # of connection points: 2
#     Edge 37, Type (0, 0), BuildingBlock: CIFDUS_clean_linker_0, # of connection points: 2
#     Edge 38, Type (0, 0), BuildingBlock: CIFDUS_clean_linker_0, # of connection points: 2
#     Edge 39, Type (0, 0), BuildingBlock: CIFDUS_clean_linker_0, # of connection points: 2
#     Edge 40, Type (0, 0), BuildingBlock: CIFDUS_clean_linker_0, # of connection points: 2
#     Edge 41, Type (0, 0), BuildingBlock: CIFDUS_clean_linker_0, # of connection points: 2
#     Edge 42, Type (0, 0), BuildingBlock: CIFDUS_clean_linker_0, # of connection points: 2
#     Edge 43, Type (0, 0), BuildingBlock: CIFDUS_clean_linker_0, # of connection points: 2
#     Edge 44, Type (0, 0), BuildingBlock: CIFDUS_clean_linker_0, # of connection points: 2
#     Edge 45, Type (0, 0), BuildingBlock: CIFDUS_clean_linker_0, # of connection points: 2
#     Edge 46, Type (0, 0), BuildingBlock: CIFDUS_clean_linker_0, # of connection points: 2
#     Edge 47, Type (0, 0), BuildingBlock: CIFDUS_clean_linker_0, # of connection points: 2
#     Edge 48, Type (0, 0), BuildingBlock: CIFDUS_clean_linker_0, # of connection points: 2
#     Edge 49, Type (0, 0), BuildingBlock: CIFDUS_clean_linker_0, # of connection points: 2
#     Edge 50, Type (0, 0), BuildingBlock: CIFDUS_clean_linker_0, # of connection points: 2
#     Edge 51, Type (0, 0), BuildingBlock: CIFDUS_clean_linker_0, # of connection points: 2
#     Edge 52, Type (0, 0), BuildingBlock: CIFDUS_clean_linker_0, # of connection points: 2
#     Edge 53, Type (0, 0), BuildingBlock: CIFDUS_clean_linker_0, # of connection points: 2
#     Edge 54, Type (0, 0), BuildingBlock: CIFDUS_clean_linker_0, # of connection points: 2
#     Edge 55, Type (0, 0), BuildingBlock: CIFDUS_clean_linker_0, # of connection points: 2
#     Edge 56, Type (0, 0), BuildingBlock: CIFDUS_clean_linker_0, # of connection points: 2
#     Edge 57, Type (0, 0), BuildingBlock: CIFDUS_clean_linker_0, # of connection points: 2
#     Edge 58, Type (0, 0), BuildingBlock: CIFDUS_clean_linker_0, # of connection points: 2
#     Edge 59, Type (0, 0), BuildingBlock: CIFDUS_clean_linker_0, # of connection points: 2
#     Edge 60, Type (0, 0), BuildingBlock: CIFDUS_clean_linker_0, # of connection points: 2
#     Edge 61, Type (0, 0), BuildingBlock: CIFDUS_clean_linker_0, # of connection points: 2
#     Edge 62, Type (0, 0), BuildingBlock: CIFDUS_clean_linker_0, # of connection points: 2
#     Edge 63, Type (0, 0), BuildingBlock: CIFDUS_clean_linker_0, # of connection points: 2
#     Edge 64, Type (0, 0), BuildingBlock: CIFDUS_clean_linker_0, # of connection points: 2
#     Edge 65, Type (0, 0), BuildingBlock: CIFDUS_clean_linker_0, # of connection points: 2
#     Edge 66, Type (0, 0), BuildingBlock: CIFDUS_clean_linker_0, # of connection points: 2
#     Edge 67, Type (0, 0), BuildingBlock: CIFDUS_clean_linker_0, # of connection points: 2
#     Edge 68, Type (0, 0), BuildingBlock: CIFDUS_clean_linker_0, # of connection points: 2
#     Edge 69, Type (0, 0), BuildingBlock: CIFDUS_clean_linker_0, # of connection points: 2
#     Edge 70, Type (0, 0), BuildingBlock: CIFDUS_clean_linker_0, # of connection points: 2
#     Edge 71, Type (0, 0), BuildingBlock: CIFDUS_clean_linker_0, # of connection points: 2
#     Edge 72, Type (0, 0), BuildingBlock: CIFDUS_clean_linker_0, # of connection points: 2
#     Edge 73, Type (0, 0), BuildingBlock: CIFDUS_clean_linker_0, # of connection points: 2
#     Edge 74, Type (0, 0), BuildingBlock: CIFDUS_clean_linker_0, # of connection points: 2
#     Edge 75, Type (0, 0), BuildingBlock: CIFDUS_clean_linker_0, # of connection points: 2
#     Edge 76, Type (0, 0), BuildingBlock: CIFDUS_clean_linker_0, # of connection points: 2
#     Edge 77, Type (0, 0), BuildingBlock: CIFDUS_clean_linker_0, # of connection points: 2
#     Edge 78, Type (0, 0), BuildingBlock: CIFDUS_clean_linker_0, # of connection points: 2
#     Edge 79, Type (0, 0), BuildingBlock: CIFDUS_clean_linker_0, # of connection points: 2
#     Edge 80, Type (0, 0), BuildingBlock: CIFDUS_clean_linker_0, # of connection points: 2
#     Edge 81, Type (0, 0), BuildingBlock: CIFDUS_clean_linker_0, # of connection points: 2
#     Edge 82, Type (0, 0), BuildingBlock: CIFDUS_clean_linker_0, # of connection points: 2
#     Edge 83, Type (0, 0), BuildingBlock: CIFDUS_clean_linker_0, # of connection points: 2
#     Edge 84, Type (0, 0), BuildingBlock: CIFDUS_clean_linker_0, # of connection points: 2
#     Edge 85, Type (0, 0), BuildingBlock: CIFDUS_clean_linker_0, # of connection points: 2
#     Edge 86, Type (0, 0), BuildingBlock: CIFDUS_clean_linker_0, # of connection points: 2
#     Edge 87, Type (0, 0), BuildingBlock: CIFDUS_clean_linker_0, # of connection points: 2
#     Edge 88, Type (0, 0), BuildingBlock: CIFDUS_clean_linker_0, # of connection points: 2
#     Edge 89, Type (0, 0), BuildingBlock: CIFDUS_clean_linker_0, # of connection points: 2
#     Edge 90, Type (0, 0), BuildingBlock: CIFDUS_clean_linker_0, # of connection points: 2
#     Edge 91, Type (0, 0), BuildingBlock: CIFDUS_clean_linker_0, # of connection points: 2
#     Edge 92, Type (0, 0), BuildingBlock: CIFDUS_clean_linker_0, # of connection points: 2
#     Edge 93, Type (0, 0), BuildingBlock: CIFDUS_clean_linker_0, # of connection points: 2
#     Edge 94, Type (0, 0), BuildingBlock: CIFDUS_clean_linker_0, # of connection points: 2
#     Edge 95, Type (0, 0), BuildingBlock: CIFDUS_clean_linker_0, # of connection points: 2
#     Edge 96, Type (0, 0), BuildingBlock: CIFDUS_clean_linker_0, # of connection points: 2
#     Edge 97, Type (0, 0), BuildingBlock: CIFDUS_clean_linker_0, # of connection points: 2
#     Edge 98, Type (0, 0), BuildingBlock: CIFDUS_clean_linker_0, # of connection points: 2
#     Edge 99, Type (0, 0), BuildingBlock: CIFDUS_clean_linker_0, # of connection points: 2
#     Edge 100, Type (0, 0), BuildingBlock: CIFDUS_clean_linker_0, # of connection points: 2
#     Edge 101, Type (0, 0), BuildingBlock: CIFDUS_clean_linker_0, # of connection points: 2
#     Edge 102, Type (0, 0), BuildingBlock: CIFDUS_clean_linker_0, # of connection points: 2
#     Edge 103, Type (0, 0), BuildingBlock: CIFDUS_clean_linker_0, # of connection points: 2
#     Edge 104, Type (0, 0), BuildingBlock: CIFDUS_clean_linker_0, # of connection points: 2
#     Edge 105, Type (0, 0), BuildingBlock: CIFDUS_clean_linker_0, # of connection points: 2
#     Edge 106, Type (0, 0), BuildingBlock: CIFDUS_clean_linker_0, # of connection points: 2
#     Edge 107, Type (0, 0), BuildingBlock: CIFDUS_clean_linker_0, # of connection points: 2
# Relax obj value: 0.147
# Max RMSD: 0.167
# Mean RMSD: 0.155
data_MOF--net-ict--node1-AZAVOO_clean_sbu_0--edge1-CIFDUS_clean_linker_0
_symmetry_space_group_name_H-M    P1
_symmetry_Int_Tables_number       1
_symmetry_cell_setting            triclinic
loop_
_symmetry_equiv_pos_as_xyz
'x, y, z'
_cell_length_a     57.585682
_cell_length_b     57.273187
_cell_length_c     31.310829
_cell_angle_alpha  90.693646
_cell_angle_beta   89.978389
_cell_angle_gamma 120.27822
loop_
_atom_site_label
_atom_site_type_symbol
_atom_site_fract_x
_atom_site_fract_y
_atom_site_fract_z
_atom_type_partial_charge
Mg0 Mg 0.21781 0.21661 0.06042 0.0
O1 O 0.21336 0.17453 0.056 0.0
O2 O 0.18095 0.14818 0.10119 0.0
Mg3 Mg 0.16511 0.17295 0.13508 0.0
C4 C 0.19859 0.15167 0.07335 0.0
C5 C 0.26529 0.25328 0.00548 0.0
O6 O 0.26718 0.26834 0.0388 0.0
O7 O 0.17874 0.2021 0.02151 0.0
O8 O 0.14869 0.17849 0.07193 0.0
O9 O 0.24659 0.22809 0.11601 0.0
O10 O 0.20271 0.21019 0.12198 0.0
C11 C 0.15439 0.18836 0.03444 0.0
C12 C 0.2257 0.21945 0.14021 0.0
O13 O 0.2452 0.22942 0.00262 0.0
Mg14 Mg 0.76047 0.01617 0.05937 0.0
O15 O 0.80284 0.05475 0.06402 0.0
O16 O 0.82449 0.04704 0.11635 0.0
Mg17 Mg 0.79799 0.00535 0.14448 0.0
C18 C 0.82369 0.06213 0.0874 0.0
C19 C 0.72553 0.0214 0.99272 0.0
O20 O 0.70864 0.00243 0.01838 0.0
O21 O 0.77898 0.99376 0.02438 0.0
O22 O 0.79868 0.98665 0.08032 0.0
O23 O 0.74366 0.03094 0.11189 0.0
O24 O 0.76301 0.00658 0.12195 0.0
C25 C 0.79233 0.98366 0.04075 0.0
C26 C 0.75206 0.01937 0.13788 0.0
O27 O 0.75062 0.03133 -0.00106 0.0
Mg28 Mg 0.00279 0.79726 -0.00043 0.0
O29 O 0.00872 0.78915 0.06897 0.0
O30 O 0.97022 0.75434 0.09179 0.0
Mg31 Mg 0.93943 0.7413 0.03767 0.0
C32 C 0.99482 0.77232 0.09776 0.0
C33 C 0.05472 0.84501 0.96958 0.0
O34 O 0.03611 0.847 0.94839 0.0
O35 O 0.00451 0.7601 0.97689 0.0
O36 O 0.96459 0.72739 0.00018 0.0
O37 O 0.98831 0.82496 0.0207 0.0
O38 O 0.96164 0.78124 0.00752 0.0
C39 C 0.98687 0.73514 0.98103 0.0
C40 C 0.96428 0.80412 0.019 0.0
O41 O 0.04763 0.825 0.99397 0.0
Mg42 Mg 0.22735 0.226 0.48557 0.0
O43 O 0.22457 0.23063 0.41337 0.0
O44 O 0.21262 0.26175 0.40335 0.0
Mg45 Mg 0.21294 0.28047 0.46798 0.0
C46 C 0.2181 0.24416 0.38901 0.0
C47 C 0.22982 0.17426 0.48486 0.0
O48 O 0.20722 0.16745 0.50472 0.0
O49 O 0.26917 0.26348 0.48817 0.0
O50 O 0.25794 0.29498 0.47646 0.0
O51 O 0.18295 0.19814 0.48725 0.0
O52 O 0.20248 0.2422 0.49862 0.0
C53 C 0.27557 0.28807 0.48298 0.0
C54 C 0.18072 0.21921 0.49436 0.0
O55 O 0.24418 0.19839 0.47215 0.0
Mg56 Mg 0.7891 0.01891 0.46478 0.0
O57 O 0.79539 0.98207 0.45968 0.0
O58 O 0.82801 0.99232 0.41231 0.0
Mg59 Mg 0.84196 0.03406 0.38558 0.0
C60 C 0.81091 0.97612 0.439 0.0
C61 C 0.73871 0.99646 0.5214 0.0
O62 O 0.7311 0.00361 0.4868 0.0
O63 O 0.82839 0.0428 0.50396 0.0
O64 O 0.85795 0.05272 0.45113 0.0
O65 O 0.76018 0.0052 0.40839 0.0
O66 O 0.80399 0.03144 0.40361 0.0
C67 C 0.85258 0.05475 0.4901 0.0
C68 C 0.78102 0.0193 0.38482 0.0
O69 O 0.76255 0.0005 0.52339 0.0
Mg70 Mg 0.04612 0.81554 0.40609 0.0
O71 O 0.08832 0.85275 0.41565 0.0
O72 O 0.09314 0.88286 0.36659 0.0
Mg73 Mg 0.05517 0.86544 0.32486 0.0
C74 C 0.10219 0.87566 0.39792 0.0
C75 C 0.05107 0.77673 0.46762 0.0
O76 O 0.0473 0.76445 0.43042 0.0
O77 O 0.02535 0.83739 0.43557 0.0
O78 O 0.02813 0.86308 0.38028 0.0
O79 O 0.06052 0.79701 0.35572 0.0
O80 O 0.04571 0.82489 0.34231 0.0
C81 C 0.0191 0.85336 0.41712 0.0
C82 C 0.05525 0.8104 0.32825 0.0
O83 O 0.05077 0.7988 0.46951 0.0
Mg84 Mg 0.77696 0.8056 0.94827 0.0
O85 O 0.81585 0.80636 0.96695 0.0
O86 O 0.82496 0.81945 0.03549 0.0
Mg87 Mg 0.79236 0.82769 0.05996 0.0
C88 C 0.8304 0.81165 0.00048 0.0
C89 C 0.76406 0.7897 0.85594 0.0
O90 O 0.75542 0.80666 0.86344 0.0
O91 O 0.75325 0.76697 0.98525 0.0
O92 O 0.76102 0.78215 0.05284 0.0
O93 O 0.79854 0.84883 0.92871 0.0
O94 O 0.78435 0.83479 0.99418 0.0
C95 C 0.74934 0.76294 0.02527 0.0
C96 C 0.79655 0.85454 0.96815 0.0
O97 O 0.77384 0.78312 0.88674 0.0
Mg98 Mg 0.25056 0.00382 0.92691 0.0
O99 O 0.24319 0.03762 0.95442 0.0
O100 O 0.22095 0.0198 0.01503 0.0
Mg101 Mg 0.21473 0.97819 0.02742 0.0
C102 C 0.23125 0.03896 0.98818 0.0
C103 C 0.28263 0.01258 0.85149 0.0
O104 O 0.27178 0.98738 0.86391 0.0
O105 O 0.28446 0.01485 0.97457 0.0
O106 O 0.26039 0.99669 0.03348 0.0
O107 O 0.21071 0.98388 0.89353 0.0
O108 O 0.21746 0.97427 0.95873 0.0
C109 C 0.28291 0.00924 0.01416 0.0
C110 C 0.20099 0.97014 0.928 0.0
O111 O 0.27924 0.02906 0.87462 0.0
Mg112 Mg 0.01209 0.23538 0.95544 0.0
O113 O 0.9708 0.20036 0.97889 0.0
O114 O 0.97904 0.19316 0.04584 0.0
Mg115 Mg 0.02334 0.21904 0.06351 0.0
C116 C 0.96287 0.18809 0.01456 0.0
C117 C 0.01105 0.26597 0.87866 0.0
O118 O 0.03566 0.27995 0.894 0.0
O119 O 0.00847 0.26577 0.99836 0.0
O120 O 0.01923 0.2569 0.0624 0.0
O121 O 0.02523 0.20706 0.92899 0.0
O122 O 0.03199 0.22271 0.99526 0.0
C123 C 0.01337 0.27104 0.03819 0.0
C124 C 0.03464 0.20789 0.96685 0.0
O125 O 0.99394 0.24514 0.8987 0.0
Mg126 Mg 0.83264 0.8069 0.53224 0.0
O127 O 0.83076 0.84165 0.4988 0.0
O128 O 0.84343 0.8412 0.43145 0.0
Mg129 Mg 0.85513 0.8087 0.4229 0.0
C130 C 0.83524 0.85092 0.46087 0.0
C131 C 0.80002 0.78772 0.61271 0.0
O132 O 0.80647 0.76919 0.60407 0.0
O133 O 0.7954 0.77578 0.49668 0.0
O134 O 0.81071 0.77472 0.43156 0.0
O135 O 0.87518 0.83363 0.55374 0.0
O136 O 0.86322 0.81137 0.49207 0.0
C137 C 0.7918 0.7657 0.45908 0.0
C138 C 0.88213 0.8277 0.51771 0.0
O139 O 0.80746 0.8073 0.58727 0.0
Mg140 Mg 0.29296 0.03541 0.51964 0.0
O141 O 0.25979 0.99898 0.4805 0.0
O142 O 0.26082 0.01669 0.41675 0.0
Mg143 Mg 0.29193 0.06148 0.41441 0.0
C144 C 0.25099 0.99674 0.44219 0.0
C145 C 0.30929 0.02686 0.60288 0.0
O146 O 0.32395 0.05246 0.5926 0.0
O147 O 0.32733 0.03453 0.48516 0.0
O148 O 0.32677 0.05311 0.42308 0.0
O149 O 0.2624 0.04541 0.54102 0.0
O150 O 0.28753 0.06264 0.48371 0.0
C151 C 0.33716 0.04348 0.4484 0.0
C152 C 0.26844 0.06055 0.50778 0.0
O153 O 0.29342 0.01027 0.57472 0.0
Mg154 Mg 0.00454 0.24702 0.54971 0.0
O155 O 0.04186 0.24235 0.54003 0.0
O156 O 0.03483 0.21976 0.47797 0.0
Mg157 Mg 0.99509 0.21053 0.4483 0.0
C158 C 0.04913 0.23137 0.51113 0.0
C159 C 0.00513 0.27589 0.62948 0.0
O160 O 0.9802 0.26306 0.61527 0.0
O161 O 0.0206 0.28048 0.50015 0.0
O162 O 0.01147 0.25611 0.4398 0.0
O163 O 0.98198 0.20715 0.58256 0.0
O164 O 0.98175 0.2125 0.51283 0.0
C165 C 0.02024 0.27879 0.45937 0.0
C166 C 0.97448 0.19649 0.54486 0.0
O167 O 0.02326 0.276 0.60609 0.0
Mg168 Mg 0.89192 0.54624 0.42748 0.0
O169 O 0.88306 0.50225 0.42465 0.0
O170 O 0.85105 0.47967 0.473 0.0
Mg171 Mg 0.83965 0.50778 0.50702 0.0
C172 C 0.86703 0.48045 0.44403 0.0
C173 C 0.93738 0.58117 0.36843 0.0
O174 O 0.93948 0.59688 0.40092 0.0
O175 O 0.85242 0.53369 0.39125 0.0
O176 O 0.82318 0.5135 0.44425 0.0
O177 O 0.92215 0.55707 0.48091 0.0
O178 O 0.87873 0.5413 0.48989 0.0
C179 C 0.82844 0.52206 0.40598 0.0
C180 C 0.90188 0.54893 0.5063 0.0
O181 O 0.91774 0.55696 0.36756 0.0
Mg182 Mg 0.43964 0.35444 0.36273 0.0
O183 O 0.47849 0.39497 0.37589 0.0
O184 O 0.49922 0.38963 0.43194 0.0
Mg185 Mg 0.47375 0.34617 0.45518 0.0
C186 C 0.49819 0.40416 0.40223 0.0
C187 C 0.40801 0.36399 0.29702 0.0
O188 O 0.39061 0.34697 0.32446 0.0
O189 O 0.46516 0.33798 0.33235 0.0
O190 O 0.48283 0.33202 0.39208 0.0
O191 O 0.41591 0.3635 0.41078 0.0
O192 O 0.43769 0.34201 0.42501 0.0
C193 C 0.47969 0.33016 0.35151 0.0
C194 C 0.42265 0.35117 0.43809 0.0
O195 O 0.43267 0.37104 0.30145 0.0
Mg196 Mg 0.68636 0.11371 0.35784 0.0
O197 O 0.66684 0.11002 0.42245 0.0
O198 O 0.62373 0.09795 0.41591 0.0
Mg199 Mg 0.61464 0.08977 0.34412 0.0
C200 C 0.64453 0.10478 0.43885 0.0
C201 C 0.74385 0.13338 0.40747 0.0
O202 O 0.75783 0.12708 0.43321 0.0
O203 O 0.66746 0.06799 0.35184 0.0
O204 O 0.62389 0.05524 0.34584 0.0
O205 O 0.69152 0.15568 0.35186 0.0
O206 O 0.65688 0.11812 0.32673 0.0
C207 C 0.64275 0.04972 0.34836 0.0
C208 C 0.66848 0.14372 0.33235 0.0
O209 O 0.72061 0.11484 0.39586 0.0
Mg210 Mg 0.86289 0.54465 0.84085 0.0
O211 O 0.87823 0.55553 0.77217 0.0
O212 O 0.87799 0.59332 0.756 0.0
Mg213 Mg 0.86185 0.60582 0.81283 0.0
C214 C 0.88281 0.57447 0.74639 0.0
C215 C 0.86373 0.49643 0.8727 0.0
O216 O 0.84776 0.50019 0.89825 0.0
O217 O 0.9031 0.57835 0.86717 0.0
O218 O 0.89989 0.61437 0.84933 0.0
O219 O 0.82075 0.52086 0.81724 0.0
O220 O 0.8407 0.5641 0.83602 0.0
C221 C 0.91264 0.60387 0.86617 0.0
C222 C 0.81968 0.54281 0.82147 0.0
O223 O 0.87569 0.51328 0.84315 0.0
Mg224 Mg 0.41552 0.32804 0.76134 0.0
O225 O 0.42403 0.29287 0.7556 0.0
O226 O 0.45354 0.30216 0.70306 0.0
Mg227 Mg 0.46432 0.34318 0.67547 0.0
C228 C 0.43854 0.28673 0.73256 0.0
C229 C 0.37269 0.28634 0.8208 0.0
O230 O 0.36911 0.27205 0.78573 0.0
O231 O 0.45625 0.35374 0.79527 0.0
O232 O 0.48377 0.36336 0.73945 0.0
O233 O 0.38346 0.30979 0.71041 0.0
O234 O 0.42649 0.3386 0.6986 0.0
C235 C 0.47983 0.36575 0.77905 0.0
C236 C 0.40267 0.32335 0.68377 0.0
O237 O 0.39206 0.31065 0.82259 0.0
Mg238 Mg 0.64875 0.11009 0.77318 0.0
O239 O 0.68812 0.15055 0.78124 0.0
O240 O 0.68589 0.1805 0.7392 0.0
Mg241 Mg 0.64519 0.1593 0.7042 0.0
C242 C 0.69841 0.17434 0.76633 0.0
C243 C 0.64662 0.06961 0.841 0.0
O244 O 0.62307 0.0546 0.82252 0.0
O245 O 0.62605 0.12567 0.81404 0.0
O246 O 0.62269 0.1532 0.76758 0.0
O247 O 0.66565 0.09912 0.71726 0.0
O248 O 0.64221 0.1198 0.71177 0.0
C249 C 0.61742 0.14156 0.80379 0.0
C250 C 0.65556 0.11011 0.69334 0.0
O251 O 0.66123 0.09404 0.82969 0.0
Mg252 Mg 0.50256 0.17236 0.26803 0.0
O253 O 0.54396 0.1783 0.28907 0.0
O254 O 0.54775 0.19063 0.3581 0.0
Mg255 Mg 0.51294 0.19625 0.37946 0.0
C256 C 0.55674 0.18473 0.32484 0.0
C257 C 0.47403 0.12947 0.20032 0.0
O258 O 0.45656 0.12439 0.23087 0.0
O259 O 0.48106 0.13408 0.30783 0.0
O260 O 0.48331 0.15026 0.37393 0.0
O261 O 0.51946 0.21522 0.24626 0.0
O262 O 0.50704 0.20135 0.31208 0.0
C263 C 0.47443 0.13052 0.34715 0.0
C264 C 0.51648 0.2208 0.28533 0.0
O265 O 0.49817 0.14846 0.20622 0.0
Mg266 Mg 0.89773 0.31504 0.31298 0.0
O267 O 0.89056 0.34986 0.33449 0.0
O268 O 0.88409 0.34471 0.40505 0.0
Mg269 Mg 0.88761 0.30957 0.42897 0.0
C270 C 0.88565 0.35711 0.37064 0.0
C271 C 0.90195 0.31295 0.2176 0.0
O272 O 0.88781 0.2877 0.22984 0.0
O273 O 0.94085 0.33818 0.3399 0.0
O274 O 0.93185 0.33189 0.40965 0.0
O275 O 0.85337 0.28569 0.30547 0.0
O276 O 0.87626 0.29187 0.36493 0.0
C277 C 0.94857 0.34134 0.37892 0.0
C278 C 0.85358 0.2796 0.34506 0.0
O279 O 0.91049 0.33165 0.24593 0.0
Mg280 Mg 0.68896 0.5709 0.31038 0.0
O281 O 0.65063 0.54107 0.34713 0.0
O282 O 0.66349 0.54203 0.41473 0.0
Mg283 Mg 0.70892 0.57019 0.42108 0.0
C284 C 0.64528 0.5332 0.38581 0.0
C285 C 0.67781 0.58661 0.22405 0.0
O286 O 0.70389 0.60244 0.22929 0.0
O287 O 0.69007 0.60778 0.34091 0.0
O288 O 0.70583 0.6078 0.40619 0.0
O289 O 0.69863 0.53841 0.29449 0.0
O290 O 0.71251 0.56427 0.35263 0.0
C291 C 0.69873 0.61877 0.3776 0.0
C292 C 0.71159 0.5448 0.33045 0.0
O293 O 0.66431 0.57086 0.25404 0.0
Mg294 Mg 0.4364 0.11492 0.89843 0.0
O295 O 0.43567 0.14829 0.85946 0.0
O296 O 0.452 0.14916 0.79452 0.0
Mg297 Mg 0.46424 0.11679 0.79228 0.0
C298 C 0.44191 0.15809 0.82203 0.0
C299 C 0.40357 0.11504 0.98418 0.0
O300 O 0.38185 0.11339 0.00082 0.0
O301 O 0.40133 0.08202 0.85992 0.0
O302 O 0.41993 0.08277 0.79693 0.0
O303 O 0.47905 0.14369 0.92111 0.0
O304 O 0.46833 0.11849 0.86253 0.0
C305 C 0.3998 0.0727 0.82215 0.0
C306 C 0.4866 0.13638 0.88706 0.0
O307 O 0.40612 0.11625 0.94384 0.0
Mg308 Mg 0.89692 0.33295 0.87666 0.0
O309 O 0.85628 0.30196 0.84378 0.0
O310 O 0.85892 0.31959 0.77936 0.0
Mg311 Mg 0.8984 0.35858 0.7697 0.0
C312 C 0.84617 0.30133 0.807 0.0
C313 C 0.90658 0.32384 0.96355 0.0
O314 O 0.92247 0.34916 0.95274 0.0
O315 O 0.92028 0.31732 0.8386 0.0
O316 O 0.92191 0.33607 0.77565 0.0
O317 O 0.87934 0.35726 0.9004 0.0
O318 O 0.90033 0.36439 0.83888 0.0
C319 C 0.92812 0.32221 0.79988 0.0
C320 C 0.88738 0.37083 0.86549 0.0
O321 O 0.89133 0.30718 0.93485 0.0
Mg322 Mg 0.63407 0.54765 0.88581 0.0
O323 O 0.67316 0.5491 0.86613 0.0
O324 O 0.66986 0.53775 0.79684 0.0
Mg325 Mg 0.62878 0.52882 0.77251 0.0
C326 C 0.6829 0.545 0.83208 0.0
C327 C 0.63743 0.56561 0.97894 0.0
O328 O 0.61143 0.54966 0.97298 0.0
O329 O 0.64734 0.58691 0.85146 0.0
O330 O 0.64093 0.57352 0.78299 0.0
O331 O 0.61383 0.50374 0.90204 0.0
O332 O 0.61336 0.5194 0.83803 0.0
C333 C 0.64739 0.59183 0.81182 0.0
C334 C 0.60659 0.499 0.86228 0.0
O335 O 0.65318 0.56976 0.94787 0.0
Mg336 Mg 0.57317 0.91494 0.75403 0.0
O337 O 0.57173 0.87422 0.74744 0.0
O338 O 0.54332 0.84669 0.79655 0.0
Mg339 Mg 0.52728 0.86935 0.83591 0.0
C340 C 0.55938 0.85127 0.7655 0.0
C341 C 0.61982 0.93068 0.69185 0.0
O342 O 0.62769 0.92375 0.72641 0.0
O343 O 0.53122 0.89626 0.72198 0.0
O344 O 0.50577 0.87202 0.77672 0.0
O345 O 0.60531 0.93013 0.80597 0.0
O346 O 0.56162 0.90775 0.8174 0.0
C347 C 0.50816 0.88112 0.73894 0.0
C348 C 0.58555 0.91926 0.8325 0.0
O349 O 0.59673 0.92858 0.69154 0.0
Mg350 Mg 0.09193 0.66268 0.70899 0.0
O351 O 0.13511 0.69872 0.71353 0.0
O352 O 0.15637 0.69114 0.76626 0.0
Mg353 Mg 0.12695 0.65016 0.79574 0.0
C354 C 0.15607 0.70591 0.73631 0.0
C355 C 0.08597 0.70141 0.64824 0.0
O356 O 0.09014 0.71386 0.68537 0.0
O357 O 0.10661 0.63608 0.67668 0.0
O358 O 0.12471 0.62775 0.73354 0.0
O359 O 0.07819 0.68108 0.76014 0.0
O360 O 0.09227 0.65238 0.77246 0.0
C361 C 0.11775 0.62404 0.69416 0.0
C362 C 0.08332 0.6673 0.78709 0.0
O363 O 0.08626 0.67934 0.64623 0.0
Mg364 Mg 0.31977 0.45052 0.63268 0.0
O365 O 0.32332 0.44769 0.70454 0.0
O366 O 0.29067 0.4079 0.7277 0.0
Mg367 Mg 0.26486 0.38583 0.66905 0.0
C368 C 0.3116 0.43091 0.73437 0.0
C369 C 0.36574 0.51023 0.62787 0.0
O370 O 0.34554 0.51295 0.61494 0.0
O371 O 0.33565 0.4217 0.62031 0.0
O372 O 0.30046 0.38292 0.64208 0.0
O373 O 0.29329 0.46768 0.64312 0.0
O374 O 0.27802 0.42393 0.63399 0.0
C375 C 0.32415 0.39631 0.6267 0.0
C376 C 0.27308 0.44321 0.64122 0.0
O377 O 0.36179 0.48679 0.63556 0.0
Mg378 Mg 0.52635 0.87878 0.15356 0.0
O379 O 0.54462 0.9002 0.09079 0.0
O380 O 0.54392 0.93877 0.09029 0.0
Mg381 Mg 0.52437 0.94143 0.15259 0.0
C382 C 0.54986 0.9222 0.07287 0.0
C383 C 0.52349 0.82524 0.14885 0.0
O384 O 0.50009 0.8201 0.1639 0.0
O385 O 0.56486 0.90823 0.18953 0.0
O386 O 0.56021 0.94482 0.18994 0.0
O387 O 0.48506 0.85825 0.12535 0.0
O388 O 0.50343 0.89738 0.16018 0.0
C389 C 0.57286 0.9327 0.20027 0.0
C390 C 0.4831 0.87843 0.13991 0.0
O391 O 0.54088 0.84949 0.14017 0.0
Mg392 Mg 0.08377 0.65655 0.11628 0.0
O393 O 0.0959 0.62391 0.11609 0.0
O394 O 0.12698 0.63452 0.06583 0.0
Mg395 Mg 0.13426 0.67305 0.03272 0.0
C396 C 0.11236 0.61921 0.09574 0.0
C397 C 0.04126 0.61485 0.17722 0.0
O398 O 0.03808 0.59992 0.14312 0.0
O399 O 0.12358 0.68635 0.15045 0.0
O400 O 0.15155 0.69628 0.09518 0.0
O401 O 0.05307 0.63477 0.06392 0.0
O402 O 0.09521 0.6665 0.05319 0.0
C403 C 0.14708 0.69968 0.13407 0.0
C404 C 0.07207 0.64957 0.03763 0.0
O405 O 0.06002 0.63948 0.17772 0.0
Mg406 Mg 0.34548 0.45619 0.05924 0.0
O407 O 0.38576 0.49624 0.05772 0.0
O408 O 0.38326 0.52196 0.00702 0.0
Mg409 Mg 0.34165 0.49894 0.97586 0.0
C410 C 0.39614 0.51809 0.03662 0.0
C411 C 0.38211 0.44654 0.118 0.0
O412 O 0.39674 0.45672 0.08366 0.0
O413 O 0.32577 0.47754 0.09395 0.0
O414 O 0.32218 0.50004 0.03883 0.0
O415 O 0.35752 0.43689 0.00726 0.0
O416 O 0.33778 0.46072 0.99584 0.0
C417 C 0.31774 0.49273 0.07779 0.0
C418 C 0.34807 0.4471 0.98053 0.0
O419 O 0.35903 0.44443 0.11981 0.0
Mg420 Mg 0.08142 0.43332 0.60469 0.0
O421 O 0.122 0.43756 0.62552 0.0
O422 O 0.12805 0.45117 0.69412 0.0
Mg423 Mg 0.09214 0.454 0.71744 0.0
C424 C 0.13588 0.44479 0.6601 0.0
C425 C 0.06665 0.41544 0.51346 0.0
O426 O 0.05388 0.42832 0.52362 0.0
O427 O 0.0584 0.39353 0.63985 0.0
O428 O 0.06389 0.40803 0.70764 0.0
O429 O 0.10141 0.47691 0.58666 0.0
O430 O 0.08604 0.46169 0.65111 0.0
C431 C 0.05378 0.38895 0.67965 0.0
C432 C 0.09851 0.48196 0.62605 0.0
O433 O 0.08039 0.41226 0.54218 0.0
Mg434 Mg 0.55655 0.67503 0.62369 0.0
O435 O 0.55764 0.71015 0.66385 0.0
O436 O 0.5387 0.69003 0.72536 0.0
Mg437 Mg 0.52582 0.64553 0.72575 0.0
C438 C 0.54968 0.71092 0.70185 0.0
C439 C 0.58566 0.68309 0.5464 0.0
O440 O 0.57625 0.65856 0.56113 0.0
O441 O 0.59138 0.67772 0.66189 0.0
O442 O 0.57027 0.65736 0.72203 0.0
O443 O 0.51569 0.66241 0.59804 0.0
O444 O 0.52356 0.64634 0.65649 0.0
C445 C 0.59139 0.66882 0.69904 0.0
C446 C 0.50642 0.64629 0.63015 0.0
O447 O 0.58353 0.70028 0.56979 0.0
Mg448 Mg 0.34027 0.89094 0.65811 0.0
O449 O 0.30404 0.85329 0.68796 0.0
O450 O 0.31505 0.85446 0.75674 0.0
Mg451 Mg 0.35724 0.89003 0.77021 0.0
C452 C 0.29861 0.84342 0.72555 0.0
C453 C 0.33098 0.9066 0.57206 0.0
O454 O 0.35607 0.92421 0.58214 0.0
O455 O 0.32925 0.91961 0.69091 0.0
O456 O 0.34396 0.92127 0.75753 0.0
O457 O 0.36119 0.86813 0.64059 0.0
O458 O 0.36609 0.88935 0.70223 0.0
C459 C 0.33407 0.92948 0.72878 0.0
C460 C 0.37209 0.87481 0.67819 0.0
O461 O 0.3167 0.88854 0.59889 0.0
Mg462 Mg 0.13652 0.45018 0.19271 0.0
O463 O 0.13867 0.48903 0.16607 0.0
O464 O 0.15865 0.49506 0.10251 0.0
Mg465 Mg 0.16992 0.46291 0.08893 0.0
C466 C 0.14764 0.50217 0.13132 0.0
C467 C 0.10122 0.4245 0.26826 0.0
O468 O 0.11085 0.40878 0.25751 0.0
O469 O 0.10268 0.42429 0.14604 0.0
O470 O 0.12489 0.43072 0.08466 0.0
O471 O 0.1773 0.47305 0.22436 0.0
O472 O 0.16992 0.45776 0.15782 0.0
C473 C 0.10318 0.41923 0.10633 0.0
C474 C 0.18676 0.47064 0.18815 0.0
O475 O 0.10718 0.44496 0.24537 0.0
Mg476 Mg 0.5757 0.68123 0.20708 0.0
O477 O 0.54202 0.64242 0.17306 0.0
O478 O 0.54194 0.65641 0.10665 0.0
Mg479 Mg 0.5731 0.70047 0.0972 0.0
C480 C 0.53264 0.63798 0.1348 0.0
C481 C 0.59167 0.68078 0.29339 0.0
O482 O 0.60273 0.70545 0.27847 0.0
O483 O 0.60863 0.67677 0.17477 0.0
O484 O 0.60664 0.69078 0.10925 0.0
O485 O 0.54596 0.6934 0.22451 0.0
O486 O 0.57006 0.70586 0.16551 0.0
C487 C 0.61718 0.68238 0.13654 0.0
C488 C 0.55177 0.70615 0.18873 0.0
O489 O 0.57755 0.66106 0.26792 0.0
Mg490 Mg 0.30145 0.88797 0.23102 0.0
O491 O 0.33862 0.88534 0.21083 0.0
O492 O 0.33308 0.87277 0.14187 0.0
Mg493 Mg 0.29348 0.86768 0.11817 0.0
C494 C 0.34679 0.87953 0.17646 0.0
C495 C 0.30373 0.90276 0.32318 0.0
O496 O 0.27809 0.88728 0.31372 0.0
O497 O 0.31846 0.9278 0.1963 0.0
O498 O 0.31145 0.91353 0.1282 0.0
O499 O 0.27821 0.84437 0.2485 0.0
O500 O 0.2788 0.85993 0.18399 0.0
C501 C 0.31984 0.93247 0.15636 0.0
C502 C 0.27075 0.83957 0.20888 0.0
O503 O 0.32088 0.90875 0.29363 0.0
H504 H 0.36705 0.31391 0.88753 0.0
H505 H 0.33192 0.23432 0.8299 0.0
H506 H 0.29537 0.21707 0.88152 0.0
H507 H 0.27256 0.22489 0.94162 0.0
H508 H 0.30761 0.30463 -0.00126 0.0
H509 H 0.3448 0.32151 0.94847 0.0
C510 C 0.35156 0.29273 0.88653 0.0
C511 C 0.35223 0.27546 0.85487 0.0
C512 C 0.33037 0.28301 0.91589 0.0
C513 C 0.33189 0.24808 0.85389 0.0
C514 C 0.3109 0.2382 0.88331 0.0
C515 C 0.28827 0.24598 0.94295 0.0
C516 C 0.2872 0.26348 0.97377 0.0
C517 C 0.30975 0.25556 0.9141 0.0
C518 C 0.30788 0.29071 0.97529 0.0
C519 C 0.32922 0.3004 0.94661 0.0
H520 H 0.69872 0.08875 0.86405 0.0
H521 H 0.61814 0.02261 0.8848 0.0
H522 H 0.63562 0.00142 0.93229 0.0
H523 H 0.67365 0.00185 0.96829 0.0
H524 H 0.7544 0.0672 0.9458 0.0
H525 H 0.73696 0.08833 0.89811 0.0
C526 C 0.68495 0.0698 0.87923 0.0
C527 C 0.65713 0.05743 0.87125 0.0
C528 C 0.69517 0.05746 0.90584 0.0
C529 C 0.63962 0.03264 0.89056 0.0
C530 C 0.64959 0.02047 0.91764 0.0
C531 C 0.68748 0.02065 0.9528 0.0
C532 C 0.7153 0.03296 0.96076 0.0
C533 C 0.67733 0.03269 0.92546 0.0
C534 C 0.73292 0.05723 0.94018 0.0
C535 C 0.72294 0.06942 0.91308 0.0
H536 H 0.97402 0.68535 0.00741 0.0
H537 H 0.00361 0.73814 0.89924 0.0
H538 H 0.98814 0.69915 0.85112 0.0
H539 H 0.95456 0.65098 0.83997 0.0
H540 H 0.92405 0.59825 0.94806 0.0
H541 H 0.95213 0.63608 0.99626 0.0
C542 C 0.97818 0.68827 0.97348 0.0
C543 C 0.98922 0.71434 0.95659 0.0
C544 C 0.96855 0.66573 0.94602 0.0
C545 C 0.99495 0.71817 0.91282 0.0
C546 C 0.98578 0.69584 0.88525 0.0
C547 C 0.95511 0.64763 0.8739 0.0
C548 C 0.93697 0.62222 0.89078 0.0
C549 C 0.97078 0.66959 0.90136 0.0
C550 C 0.93785 0.61776 0.93455 0.0
C551 C 0.95364 0.63946 0.96213 0.0
H552 H 0.34219 0.40037 0.54656 0.0
H553 H 0.32854 0.35552 0.66224 0.0
H554 H 0.32218 0.31622 0.62112 0.0
H555 H 0.30296 0.29123 0.55422 0.0
H556 H 0.30748 0.33457 0.44026 0.0
H557 H 0.33577 0.37756 0.47736 0.0
C558 C 0.33932 0.38247 0.56276 0.0
C559 C 0.33504 0.38039 0.60704 0.0
C560 C 0.33313 0.35921 0.5386 0.0
C561 C 0.33145 0.35727 0.62798 0.0
C562 C 0.32743 0.33468 0.60437 0.0
C563 C 0.31148 0.31009 0.53697 0.0
C564 C 0.30262 0.30997 0.49514 0.0
C565 C 0.32549 0.33467 0.55972 0.0
C566 C 0.31378 0.33435 0.47279 0.0
C567 C 0.32962 0.35894 0.49425 0.0
H568 H 0.67116 0.94081 0.6865 0.0
H569 H 0.61036 0.94683 0.61495 0.0
H570 H 0.6418 0.96761 0.556 0.0
H571 H 0.68671 0.9847 0.52536 0.0
H572 H 0.74754 0.97896 0.59735 0.0
H573 H 0.71585 0.95747 0.65567 0.0
C574 C 0.66468 0.94654 0.65798 0.0
C575 C 0.63839 0.94225 0.65523 0.0
C576 C 0.68291 0.95864 0.62436 0.0
C577 C 0.63045 0.94988 0.61797 0.0
C578 C 0.64844 0.96181 0.58426 0.0
C579 C 0.69309 0.97877 0.55379 0.0
C580 C 0.71954 0.98352 0.55694 0.0
C581 C 0.67476 0.96642 0.58722 0.0
C582 C 0.72736 0.97562 0.59404 0.0
C583 C 0.70923 0.9633 0.62741 0.0
H584 H 0.05625 0.7322 0.47166 0.0
H585 H 0.05974 0.79659 0.5497 0.0
H586 H 0.0712 0.77911 0.61213 0.0
H587 H 0.0805 0.7458 0.64439 0.0
H588 H 0.07704 0.68145 0.56626 0.0
H589 H 0.06544 0.69885 0.50391 0.0
C590 C 0.05942 0.74241 0.50233 0.0
C591 C 0.0571 0.76569 0.50593 0.0
C592 C 0.06615 0.73235 0.53802 0.0
C593 C 0.06136 0.77864 0.54596 0.0
C594 C 0.06797 0.76868 0.58169 0.0
C595 C 0.07729 0.73558 0.61372 0.0
C596 C 0.07969 0.71234 0.61007 0.0
C597 C 0.07051 0.74562 0.57804 0.0
C598 C 0.07537 0.69937 0.57004 0.0
C599 C 0.06869 0.70929 0.53436 0.0
H600 H 0.6329 0.67458 0.05891 0.0
H601 H 0.66026 0.69732 0.18904 0.0
H602 H 0.70692 0.72026 0.16541 0.0
H603 H 0.73795 0.74405 0.10657 0.0
H604 H 0.71001 0.72257 0.9762 0.0
H605 H 0.66586 0.68842 0.00112 0.0
C606 C 0.64915 0.68364 0.0822 0.0
C607 C 0.64327 0.68508 0.12536 0.0
C608 C 0.67585 0.69757 0.06822 0.0
C609 C 0.66433 0.69625 0.1555 0.0
C610 C 0.69104 0.70969 0.14193 0.0
C611 C 0.72246 0.73133 0.08359 0.0
C612 C 0.72692 0.73667 0.03967 0.0
C613 C 0.69683 0.71216 0.09813 0.0
C614 C 0.70696 0.7194 0.01026 0.0
C615 C 0.68158 0.69991 0.02447 0.0
H616 H 0.3419 0.95584 0.08087 0.0
H617 H 0.31223 0.96968 0.19937 0.0
H618 H 0.30568 0.00412 0.16575 0.0
H619 H 0.295 0.01831 0.0984 0.0
H620 H 0.3226 0.00267 0.97933 0.0
H621 H 0.34446 0.98205 0.01751 0.0
C622 C 0.335 0.96718 0.09969 0.0
C623 C 0.32652 0.95956 0.14192 0.0
C624 C 0.33058 0.98641 0.07981 0.0
C625 C 0.3184 0.97485 0.1665 0.0
C626 C 0.31444 0.99442 0.14718 0.0
C627 C 0.30693 0.01156 0.08108 0.0
C628 C 0.30631 0.01091 0.0362 0.0
C629 C 0.31841 0.99867 0.10312 0.0
C630 C 0.32238 0.0029 0.01393 0.0
C631 C 0.33456 0.99071 0.03574 0.0
H632 H 0.06234 0.37638 0.1461 0.0
H633 H 0.09067 0.40997 0.0214 0.0
H634 H 0.05887 0.36669 0.98789 0.0
H635 H 0.03105 0.31759 0.9951 0.0
H636 H 0.00715 0.28319 0.12034 0.0
H637 H 0.02846 0.32844 0.15248 0.0
C638 C 0.06095 0.37449 0.11155 0.0
C639 C 0.07919 0.39618 0.08629 0.0
C640 C 0.04359 0.34919 0.09261 0.0
C641 C 0.07713 0.39342 0.04156 0.0
C642 C 0.05901 0.36864 0.02238 0.0
C643 C 0.02965 0.32002 0.02926 0.0
C644 C 0.01792 0.29714 0.05542 0.0
C645 C 0.04329 0.34604 0.0477 0.0
C646 C 0.01635 0.30056 0.09964 0.0
C647 C 0.0287 0.32642 0.11804 0.0
H648 H 0.70188 0.64446 0.45265 0.0
H649 H 0.71486 0.65776 0.31731 0.0
H650 H 0.74256 0.70638 0.33023 0.0
H651 H 0.77028 0.74352 0.38097 0.0
H652 H 0.75647 0.73003 0.51631 0.0
H653 H 0.72171 0.68334 0.50232 0.0
C654 C 0.71005 0.65811 0.42593 0.0
C655 C 0.70679 0.6475 0.38423 0.0
C656 C 0.72629 0.68602 0.43361 0.0
C657 C 0.71713 0.66539 0.34979 0.0
C658 C 0.73328 0.69322 0.35718 0.0
C659 C 0.75921 0.73054 0.40732 0.0
C660 C 0.76649 0.74009 0.44961 0.0
C661 C 0.73917 0.70355 0.39911 0.0
C662 C 0.75154 0.72318 0.4834 0.0
C663 C 0.7317 0.69636 0.47549 0.0
H664 H 0.35662 0.04044 0.37091 0.0
H665 H 0.37919 0.06013 0.50339 0.0
H666 H 0.42657 0.0857 0.48379 0.0
H667 H 0.45964 0.11109 0.42783 0.0
H668 H 0.43703 0.09036 0.29538 0.0
H669 H 0.39193 0.05609 0.31618 0.0
C670 C 0.37203 0.04944 0.39554 0.0
C671 C 0.36448 0.04895 0.43834 0.0
C672 C 0.39922 0.0644 0.384 0.0
C673 C 0.38452 0.06032 0.47015 0.0
C674 C 0.41164 0.07525 0.45891 0.0
C675 C 0.44511 0.09848 0.40356 0.0
C676 C 0.45144 0.10409 0.36008 0.0
C677 C 0.41901 0.07881 0.41574 0.0
C678 C 0.43262 0.08703 0.32908 0.0
C679 C 0.40666 0.06743 0.34093 0.0
H680 H 0.98289 0.33175 0.33309 0.0
H681 H 0.97699 0.3688 0.44999 0.0
H682 H 0.00883 0.35888 0.48478 0.0
H683 H 0.02366 0.32564 0.48811 0.0
H684 H 0.02548 0.2847 0.37265 0.0
H685 H 0.01102 0.31081 0.33111 0.0
C686 C 0.98973 0.33899 0.36542 0.0
C687 C 0.97675 0.34982 0.3896 0.0
C688 C 0.0067 0.3316 0.38604 0.0
C689 C 0.98618 0.35966 0.43115 0.0
C690 C 0.00412 0.35363 0.45127 0.0
C691 C 0.02196 0.32317 0.45365 0.0
C692 C 0.02413 0.30217 0.43386 0.0
C693 C 0.01229 0.33729 0.43017 0.0
C694 C 0.02285 0.29999 0.38898 0.0
C695 C 0.01444 0.31485 0.36512 0.0
H696 H 0.03574 0.64259 0.24395 0.0
H697 H 0.00136 0.56255 0.18825 0.0
H698 H 0.96597 0.54502 0.24192 0.0
H699 H 0.94404 0.55259 0.3038 0.0
H700 H 0.9785 0.63283 0.35885 0.0
H701 H 0.01434 0.65001 0.3062 0.0
C702 C 0.02066 0.62126 0.24375 0.0
C703 C 0.02125 0.60395 0.21207 0.0
C704 C 1.00015 0.61134 0.27439 0.0
C705 C 0.00142 0.57638 0.21222 0.0
C706 C 0.98109 0.56632 0.24284 0.0
C707 C 0.95932 0.57385 0.30416 0.0
C708 C 0.95846 0.59137 0.33518 0.0
C709 C 0.98008 0.58366 0.27383 0.0
C710 C 0.97859 0.61884 0.33534 0.0
C711 C 0.99917 0.62873 0.30527 0.0
H712 H 0.43887 0.40351 0.24044 0.0
H713 H 0.35688 0.35287 0.28162 0.0
H714 H 0.34186 0.37503 0.23199 0.0
H715 H 0.35178 0.40863 0.17651 0.0
H716 H 0.43343 0.45843 0.13363 0.0
H717 H 0.44878 0.43705 0.18458 0.0
C718 C 0.41771 0.39722 0.23838 0.0
C719 C 0.39908 0.37652 0.26472 0.0
C720 C 0.40912 0.4101 0.20973 0.0
C721 C 0.37171 0.36871 0.26171 0.0
C722 C 0.36306 0.38144 0.23342 0.0
C723 C 0.37296 0.415 0.17867 0.0
C724 C 0.39144 0.43515 0.1515 0.0
C725 C 0.38158 0.40223 0.2074 0.0
C726 C 0.41879 0.44294 0.15424 0.0
C727 C 0.42758 0.43067 0.18327 0.0
H728 H 0.5698 0.93424 0.28479 0.0
H729 H 0.62552 0.96534 0.1805 0.0
H730 H 0.65793 0.00296 0.22577 0.0
H731 H 0.66379 0.03277 0.28711 0.0
H732 H 0.60402 0.00446 0.38602 0.0
H733 H 0.58017 0.95973 0.35208 0.0
C734 C 0.58962 0.94859 0.27286 0.0
C735 C 0.59554 0.94723 0.2298 0.0
C736 C 0.60714 0.971 0.29813 0.0
C737 C 0.62087 0.96603 0.21386 0.0
C738 C 0.63917 0.98769 0.23958 0.0
C739 C 0.64627 0.01635 0.30217 0.0
C740 C 0.63545 0.02169 0.3387 0.0
C741 C 0.63167 0.99133 0.28073 0.0
C742 C 0.61255 0.0006 0.35782 0.0
C743 C 0.5988 0.97516 0.33816 0.0
H744 H 0.32696 0.94898 0.80445 0.0
H745 H 0.34363 0.96845 0.67116 0.0
H746 H 0.36157 0.01619 0.6879 0.0
H747 H 0.38198 0.0526 0.74207 0.0
H748 H 0.36457 0.03325 0.87527 0.0
H749 H 0.33665 0.98543 0.85672 0.0
C750 C 0.33363 0.96358 0.77894 0.0
C751 C 0.33471 0.9553 0.73687 0.0
C752 C 0.34424 0.99112 0.78881 0.0
C753 C 0.34288 0.9743 0.70394 0.0
C754 C 0.35348 0.00171 0.71352 0.0
C755 C 0.37147 0.03799 0.76693 0.0
C756 C 0.37614 0.04633 0.81004 0.0
C757 C 0.35577 0.01044 0.75612 0.0
C758 C 0.36171 0.02734 0.84183 0.0
C759 C 0.3459 -0.00011 0.83129 0.0
H760 H 0.04474 0.36665 0.75868 0.0
H761 H 0.01188 0.35156 0.63087 0.0
H762 H 0.96729 0.32051 0.65829 0.0
H763 H 0.93703 0.31042 0.71957 0.0
H764 H 0.96967 0.3263 0.84739 0.0
H765 H 0.01476 0.34315 0.81908 0.0
C766 C 0.02799 0.35576 0.73669 0.0
C767 C 0.03134 0.36241 0.69312 0.0
C768 C 0.00219 0.33845 0.75281 0.0
C769 C 0.00975 0.3474 0.66474 0.0
C770 C 0.98411 0.32979 0.68046 0.0
C771 C 0.95387 0.31639 0.74122 0.0
C772 C 0.95029 0.31821 0.7853 0.0
C773 C 0.97986 0.32703 0.72465 0.0
C774 C 0.972 0.3252 0.81322 0.0
C775 C 0.99791 0.33528 0.797 0.0
H776 H 0.65729 0.61406 0.73278 0.0
H777 H 0.64144 0.62741 0.8629 0.0
H778 H 0.62807 0.65918 0.83881 0.0
H779 H 0.60965 0.67296 0.77986 0.0
H780 H 0.62448 0.65895 0.64973 0.0
H781 H 0.65007 0.6383 0.6747 0.0
C782 C 0.65175 0.6246 0.75598 0.0
C783 C 0.64935 0.61758 0.79933 0.0
C784 C 0.64347 0.64242 0.74182 0.0
C785 C 0.64295 0.63199 0.8292 0.0
C786 C 0.63507 0.65005 0.81543 0.0
C787 C 0.61939 0.6663 0.75706 0.0
C788 C 0.61465 0.66673 0.71317 0.0
C789 C 0.63349 0.65389 0.77165 0.0
C790 C 0.6277 0.6586 0.68375 0.0
C791 C 0.64209 0.6465 0.69802 0.0
H792 H 0.20029 0.04338 0.04884 0.0
H793 H 0.25533 0.08838 0.94784 0.0
H794 H 0.25017 0.12744 0.96519 0.0
H795 H 0.23009 0.14872 0.00996 0.0
H796 H 0.17478 0.1021 0.10994 0.0
H797 H 0.18016 0.06376 0.09188 0.0
C798 C 0.21132 0.06169 0.03048 0.0
C799 C 0.22834 0.06291 0.99718 0.0
C800 C 0.2082 0.08382 0.04049 0.0
C801 C 0.24213 0.08683 0.97366 0.0
C802 C 0.2392 0.10918 0.98363 0.0
C803 C 0.21923 0.13018 0.0278 0.0
C804 C 0.20206 0.12844 0.06139 0.0
C805 C 0.22231 0.10792 0.01713 0.0
C806 C 0.18808 0.10415 0.08396 0.0
C807 C 0.19115 0.08214 0.0737 0.0
H808 H 0.93873 0.1653 0.08898 0.0
H809 H 0.92253 0.16276 0.95392 0.0
H810 H 0.87672 0.12496 0.96488 0.0
H811 H 0.84242 0.0902 0.01272 0.0
H812 H 0.8608 0.09307 0.14701 0.0
H813 H 0.90449 0.13328 0.13639 0.0
C814 C 0.92525 0.15664 0.06175 0.0
C815 C 0.93429 0.16673 0.02057 0.0
C816 C 0.89924 0.13486 0.06821 0.0
C817 C 0.91623 0.15538 0.98597 0.0
C818 C 0.89002 0.1337 0.99223 0.0
C819 C 0.85586 0.09995 0.03967 0.0
C820 C 0.84841 0.08855 0.08059 0.0
C821 C 0.88144 0.12294 0.03318 0.0
C822 C 0.86611 0.10127 0.11517 0.0
C823 C 0.89114 0.12427 0.10914 0.0
H824 H 0.87583 0.83647 0.04932 0.0
H825 H 0.83644 0.77627 0.94966 0.0
H826 H 0.87334 0.76687 0.94991 0.0
H827 H 0.91711 0.77633 0.97724 0.0
H828 H 0.9589 0.83947 0.07166 0.0
H829 H 0.92056 0.84693 0.0753 0.0
C830 C 0.87537 0.82131 0.02769 0.0
C831 C 0.85346 0.80708 -0.00048 0.0
C832 C 0.89693 0.81639 0.02738 0.0
C833 C 0.85319 0.78765 0.97138 0.0
C834 C 0.87419 0.78214 0.97169 0.0
C835 C 0.91763 0.79145 -0.00093 0.0
C836 C 0.9405 0.80707 0.02464 0.0
C837 C 0.89614 0.79639 -0.00049 0.0
C838 C 0.94132 0.82708 0.05197 0.0
C839 C 0.9195 0.83141 0.05388 0.0
H840 H 0.16777 0.2539 0.53239 0.0
H841 H 0.13421 0.17996 0.4579 0.0
H842 H 0.09039 0.17703 0.45748 0.0
H843 H 0.06199 0.19591 0.47688 0.0
H844 H 0.09446 0.26858 0.55434 0.0
H845 H 0.13838 0.27144 0.55554 0.0
C846 C 0.15083 0.23718 0.51605 0.0
C847 C 0.1542 0.21729 0.49487 0.0
C848 C 0.12557 0.23535 0.51667 0.0
C849 C 0.13208 0.19551 0.47438 0.0
C850 C 0.10705 0.19384 0.4741 0.0
C851 C 0.07866 0.21236 0.49412 0.0
C852 C 0.07509 0.23216 0.51517 0.0
C853 C 0.10363 0.2137 0.49496 0.0
C854 C 0.09673 0.25309 0.53796 0.0
C855 C 0.12184 0.25479 0.53845 0.0
H856 H 0.80855 0.87117 0.5069 0.0
H857 H 0.85341 0.88274 0.39074 0.0
H858 H 0.84866 0.92136 0.37313 0.0
H859 H 0.83327 0.95282 0.3913 0.0
H860 H 0.78778 0.94171 0.50641 0.0
H861 H 0.79101 0.90182 0.52342 0.0
C862 C 0.81728 0.88214 0.47774 0.0
C863 C 0.83148 0.87405 0.45039 0.0
C864 C 0.8143 0.9044 0.46746 0.0
C865 C 0.84238 0.88839 0.41248 0.0
C866 C 0.83971 0.91056 0.40232 0.0
C867 C 0.82392 0.94166 0.42007 0.0
C868 C 0.81046 0.95044 0.44765 0.0
C869 C 0.8259 0.91885 0.42967 0.0
C870 C 0.79824 0.93544 0.48452 0.0
C871 C 0.8002 0.91269 0.4944 0.0
H872 H 0.14444 0.91052 0.35058 0.0
H873 H 0.12228 0.88233 0.47936 0.0
H874 H 0.16762 0.91563 0.50461 0.0
H875 H 0.21257 0.95542 0.49036 0.0
H876 H 0.23409 0.98177 0.36027 0.0
H877 H 0.19029 0.94625 0.33533 0.0
C878 C 0.14956 0.91162 0.38418 0.0
C879 C 0.12995 0.89438 0.41318 0.0
C880 C 0.17565 0.93044 0.39824 0.0
C881 C 0.13703 0.89556 0.45645 0.0
C882 C 0.16294 0.91459 0.47088 0.0
C883 C 0.20788 0.95301 0.45649 0.0
C884 C 0.22658 0.97158 0.42739 0.0
C885 C 0.18234 0.93248 0.44212 0.0
C886 C 0.22007 0.96807 0.38355 0.0
C887 C 0.19493 0.94778 0.36915 0.0
H888 H 0.8182 0.95818 0.06816 0.0
H889 H 0.77924 0.96699 0.95668 0.0
H890 H 0.78169 0.92997 0.92105 0.0
H891 H 0.7887 0.89088 0.92628 0.0
H892 H 0.82223 0.87949 0.04186 0.0
H893 H 0.82831 0.92196 0.0713 0.0
C894 C 0.8105 0.95237 0.03581 0.0
C895 C 0.79811 0.96512 0.01543 0.0
C896 C 0.81085 0.93042 0.01649 0.0
C897 C 0.78866 0.95742 0.9733 0.0
C898 C 0.78995 0.93616 0.95301 0.0
C899 C 0.79798 0.89817 0.95744 0.0
C900 C 0.80507 0.8823 0.98206 0.0
C901 C 0.8001 0.92189 0.97494 0.0
C902 C 0.81659 0.89146 0.02262 0.0
C903 C 0.81998 0.91565 0.0394 0.0
H904 H 0.17846 0.9298 0.98495 0.0
H905 H 0.15932 0.96438 0.87847 0.0
H906 H 0.11211 0.92861 0.88215 0.0
H907 H 0.07667 0.88701 0.9147 0.0
H908 H 0.09656 0.8516 0.01927 0.0
H909 H 0.14328 0.8882 0.017 0.0
C910 C 0.16391 0.92968 0.96281 0.0
C911 C 0.17225 0.94976 0.93168 0.0
C912 C 0.13706 0.90879 0.96451 0.0
C913 C 0.1533 0.94913 0.90278 0.0
C914 C 0.12637 0.92867 0.90481 0.0
C915 C 0.09123 0.88728 0.93698 0.0
C916 C 0.08316 0.86661 0.96709 0.0
C917 C 0.11809 0.90828 0.93533 0.0
C918 C 0.10228 0.8672 0.99564 0.0
C919 C 0.12897 0.88816 0.99449 0.0
H920 H 0.10206 0.16551 0.05704 0.0
H921 H 0.15633 0.20849 0.95404 0.0
H922 H 0.12119 0.21383 0.91941 0.0
H923 H 0.07763 0.21256 0.92466 0.0
H924 H 0.02671 0.17487 0.03305 0.0
H925 H 0.05781 0.16089 0.05924 0.0
C926 C 0.10624 0.17569 0.02662 0.0
C927 C 0.13206 0.18693 0.00855 0.0
C928 C 0.08646 0.17977 0.00807 0.0
C929 C 0.13678 0.1998 0.96891 0.0
C930 C 0.1167 0.20298 0.94919 0.0
C931 C 0.07308 0.20057 0.95329 0.0
C932 C 0.04994 0.19445 0.97687 0.0
C933 C 0.09184 0.19395 0.96934 0.0
C934 C 0.04438 0.17957 0.01445 0.0
C935 C 0.06222 0.17175 0.02947 0.0
H936 H 0.99768 0.8432 0.49795 0.0
H937 H 0.9892 0.86977 0.37334 0.0
H938 H 0.94662 0.86543 0.39389 0.0
H939 H 0.90896 0.84899 0.44422 0.0
H940 H 0.91839 0.82624 0.57078 0.0
H941 H 0.96321 0.83424 0.5527 0.0
C942 C 0.98679 0.84858 0.47564 0.0
C943 C 0.99659 0.85637 0.43396 0.0
C944 C 0.9622 0.84638 0.48779 0.0
C945 C 0.98228 0.86359 0.40564 0.0
C946 C 0.9577 0.86095 0.41719 0.0
C947 C 0.9211 0.84626 0.46793 0.0
C948 C 0.91048 0.8368 0.50847 0.0
C949 C 0.94705 0.85154 0.45765 0.0
C950 C 0.92634 0.83358 0.53929 0.0
C951 C 0.95187 0.83803 0.52892 0.0
H952 H 0.20555 0.12329 0.51495 0.0
H953 H 0.27436 0.18069 0.44285 0.0
H954 H 0.29072 0.14876 0.43893 0.0
H955 H 0.28739 0.10618 0.46146 0.0
H956 H 0.2199 0.05034 0.53734 0.0
H957 H 0.20083 0.07988 0.53368 0.0
C958 C 0.22403 0.12879 0.49806 0.0
C959 C 0.23886 0.15442 0.47961 0.0
C960 C 0.23352 0.11059 0.49659 0.0
C961 C 0.26268 0.16115 0.45766 0.0
C962 C 0.27204 0.1429 0.45537 0.0
C963 C 0.26826 0.10028 0.47649 0.0
C964 C 0.25508 0.07623 0.49977 0.0
C965 C 0.25788 0.11778 0.47545 0.0
C966 C 0.23045 0.06887 0.51943 0.0
C967 C 0.2196 0.08577 0.51747 0.0
H968 H 0.92985 0.16198 0.58843 0.0
H969 H 0.98187 0.16567 0.48648 0.0
H970 H 0.95037 0.11852 0.46727 0.0
H971 H 0.90553 0.07944 0.47205 0.0
H972 H 0.85024 0.07735 0.56716 0.0
H973 H 0.88582 0.12011 0.59778 0.0
C974 C 0.93443 0.15213 0.56268 0.0
C975 C 0.95786 0.16711 0.53849 0.0
C976 C 0.91559 0.12537 0.55062 0.0
C977 C 0.96371 0.15449 0.50499 0.0
C978 C 0.94575 0.12757 0.49413 0.0
C979 C 0.90126 0.08801 0.5 0.0
C980 C 0.87503 0.07548 0.51664 0.0
C981 C 0.92119 0.11325 0.51558 0.0
C982 C 0.87016 0.08662 0.55345 0.0
C983 C 0.89044 0.11125 0.57067 0.0
H984 H 0.88948 0.46945 0.37487 0.0
H985 H 0.84453 0.43439 0.49016 0.0
H986 H 0.84507 0.39295 0.47571 0.0
H987 H 0.85949 0.36719 0.43265 0.0
H988 H 0.90415 0.40063 0.31693 0.0
H989 H 0.9021 0.44201 0.32889 0.0
C990 C 0.8798 0.45272 0.39677 0.0
C991 C 0.86713 0.45519 0.43371 0.0
C992 C 0.88 0.42863 0.38817 0.0
C993 C 0.85443 0.43317 0.4615 0.0
C994 C 0.85472 0.40939 0.45332 0.0
C995 C 0.86874 0.38347 0.40985 0.0
C996 C 0.8822 0.38097 0.3742 0.0
C997 C 0.86761 0.40701 0.41706 0.0
C998 C 0.89364 0.40206 0.34463 0.0
C999 C 0.89262 0.42577 0.35162 0.0
H1000 H 0.59972 0.51013 0.33577 0.0
H1001 H 0.62851 0.50742 0.46199 0.0
H1002 H 0.58493 0.46887 0.47929 0.0
H1003 H 0.5399 0.43354 0.45706 0.0
H1004 H 0.51046 0.43582 0.33133 0.0
H1005 H 0.55277 0.47702 0.31585 0.0
C1006 C 0.59641 0.5013 0.3672 0.0
C1007 C 0.61764 0.51162 0.39724 0.0
C1008 C 0.57113 0.47893 0.37714 0.0
C1009 C 0.61275 0.49996 0.43799 0.0
C1010 C 0.58777 0.47779 0.448 0.0
C1011 C 0.54256 0.44318 0.42641 0.0
C1012 C 0.52205 0.43135 0.39531 0.0
C1013 C 0.56701 0.46676 0.41756 0.0
C1014 C 0.52584 0.44439 0.35595 0.0
C1015 C 0.55014 0.46791 0.34694 0.0
H1016 H 0.58006 0.16708 0.26652 0.0
H1017 H 0.59088 0.20127 0.39363 0.0
H1018 H 0.62963 0.19573 0.40499 0.0
H1019 H 0.65729 0.17609 0.38214 0.0
H1020 H 0.64465 0.13969 0.25683 0.0
H1021 H 0.61047 0.1517 0.24115 0.0
C1022 C 0.5911 0.17369 0.29647 0.0
C1023 C 0.58219 0.18421 0.32926 0.0
C1024 C 0.61326 0.17011 0.30317 0.0
C1025 C 0.59695 0.19276 0.36785 0.0
C1026 C 0.61923 0.18966 0.37447 0.0
C1027 C 0.64765 0.17169 0.35098 0.0
C1028 C 0.65357 0.15734 0.32047 0.0
C1029 C 0.62718 0.17771 0.3428 0.0
C1030 C 0.64048 0.15099 0.28058 0.0
C1031 C 0.62078 0.15763 0.27175 0.0
H1032 H 0.80241 0.5727 0.86278 0.0
H1033 H 0.7801 0.51187 0.76398 0.0
H1034 H 0.73607 0.50834 0.75675 0.0
H1035 H 0.7031 0.52067 0.78168 0.0
H1036 H 0.72412 0.57828 0.88543 0.0
H1037 H 0.76946 0.58486 0.88788 0.0
C1038 C 0.78803 0.559 0.83921 0.0
C1039 C 0.79445 0.54275 0.81363 0.0
C1040 C 0.76245 0.55626 0.8366 0.0
C1041 C 0.77553 0.52463 0.78385 0.0
C1042 C 0.75038 0.52255 0.77986 0.0
C1043 C 0.71768 0.53477 0.80464 0.0
C1044 C 0.71031 0.54897 0.83333 0.0
C1045 C 0.74347 0.53794 0.80658 0.0
C1046 C 0.72927 0.56697 0.86323 0.0
C1047 C 0.75522 0.57082 0.86453 0.0
H1048 H 0.45718 0.18755 0.74901 0.0
H1049 H 0.41707 0.17981 0.86902 0.0
H1050 H 0.41121 0.21786 0.85098 0.0
H1051 H 0.41881 0.2544 0.80229 0.0
H1052 H 0.46001 0.26273 0.68321 0.0
H1053 H 0.46387 0.22333 0.69975 0.0
C1054 C 0.44704 0.19406 0.77122 0.0
C1055 C 0.43767 0.18077 0.81041 0.0
C1056 C 0.44391 0.21614 0.76084 0.0
C1057 C 0.42461 0.18964 0.8387 0.0
C1058 C 0.42121 0.21143 0.8284 0.0
C1059 C 0.42844 0.24749 0.77976 0.0
C1060 C 0.43915 0.26164 0.74159 0.0
C1061 C 0.43096 0.22497 0.78971 0.0
C1062 C 0.45168 0.25238 0.71293 0.0
C1063 C 0.45392 0.22981 0.72235 0.0
H1064 H 0.73023 0.22358 0.73148 0.0
H1065 H 0.72848 0.17237 0.83288 0.0
H1066 H 0.77376 0.20709 0.85538 0.0
H1067 H 0.81432 0.25227 0.84569 0.0
H1068 H 0.81525 0.30199 0.74223 0.0
H1069 H 0.77005 0.26767 0.72147 0.0
C1070 C 0.73964 0.21996 0.75863 0.0
C1071 C 0.72584 0.19538 0.78044 0.0
C1072 C 0.76572 0.23982 0.77111 0.0
C1073 C 0.73859 0.19108 0.81536 0.0
C1074 C 0.76451 0.21096 0.82832 0.0
C1075 C 0.80459 0.25557 0.81869 0.0
C1076 C 0.81838 0.27975 0.79562 0.0
C1077 C 0.77835 0.23545 0.80636 0.0
C1078 C 0.80539 0.28358 0.76054 0.0
C1079 C 0.7794 0.26396 0.74857 0.0
H1080 H 0.50161 0.25115 0.24047 0.0
H1081 H 0.53778 0.24843 0.35942 0.0
H1082 H 0.53352 0.28605 0.3877 0.0
H1083 H 0.51334 0.31431 0.38257 0.0
H1084 H 0.47224 0.31382 0.26692 0.0
H1085 H 0.48503 0.28322 0.23294 0.0
C1086 C 0.50929 0.25943 0.27207 0.0
C1087 C 0.52004 0.24722 0.29796 0.0
C1088 C 0.50546 0.28012 0.28885 0.0
C1089 C 0.52944 0.25761 0.33911 0.0
C1090 C 0.52687 0.27898 0.35528 0.0
C1091 C 0.5074 0.30787 0.3497 0.0
C1092 C 0.49137 0.31599 0.32763 0.0
C1093 C 0.51388 0.28955 0.33109 0.0
C1094 C 0.48436 0.30773 0.28483 0.0
C1095 C 0.49157 0.29012 0.26545 0.0
H1096 H 0.80723 0.241 0.30659 0.0
H1097 H 0.84635 0.26745 0.42966 0.0
H1098 H 0.81269 0.22542 0.46121 0.0
H1099 H 0.77702 0.17852 0.45152 0.0
H1100 H 0.73815 0.15046 0.32893 0.0
H1101 H 0.7664 0.19577 0.29965 0.0
C1102 C 0.80797 0.23784 0.34052 0.0
C1103 C 0.82966 0.25722 0.3655 0.0
C1104 C 0.78876 0.21314 0.35844 0.0
C1105 C 0.83023 0.25284 0.40946 0.0
C1106 C 0.81097 0.2287 0.42761 0.0
C1107 C 0.77438 0.18251 0.41861 0.0
C1108 C 0.7559 0.1613 0.39219 0.0
C1109 C 0.79094 0.20829 0.40202 0.0
C1110 C 0.75229 0.16662 0.34982 0.0
C1111 C 0.76859 0.19244 0.33303 0.0
H1112 H 0.77814 0.50627 0.43327 0.0
H1113 H 0.82874 0.53633 0.32205 0.0
H1114 H 0.79401 0.54154 0.2856 0.0
H1115 H 0.752 0.54341 0.28953 0.0
H1116 H 0.70516 0.51884 0.40474 0.0
H1117 H 0.73555 0.50525 0.4355 0.0
C1118 C 0.78158 0.51359 0.40078 0.0
C1119 C 0.80623 0.52118 0.38063 0.0
C1120 C 0.76214 0.5176 0.3809 0.0
C1121 C 0.81007 0.53051 0.33846 0.0
C1122 C 0.79024 0.53357 0.31767 0.0
C1123 C 0.74818 0.53435 0.32087 0.0
C1124 C 0.72638 0.53172 0.34488 0.0
C1125 C 0.76658 0.52801 0.33912 0.0
C1126 C 0.72177 0.52072 0.38582 0.0
C1127 C 0.7392 0.51315 0.40338 0.0
H1128 H 0.59254 0.17034 0.78872 0.0
H1129 H 0.59798 0.11823 0.88182 0.0
H1130 H 0.56011 0.11606 0.92067 0.0
H1131 H 0.52132 0.12347 0.92193 0.0
H1132 H 0.51391 0.17191 0.82477 0.0
H1133 H 0.55686 0.18136 0.79398 0.0
C1134 C 0.58583 0.15883 0.81791 0.0
C1135 C 0.59796 0.14414 0.83188 0.0
C1136 C 0.56354 0.15697 0.83927 0.0
C1137 C 0.58897 0.12957 0.87002 0.0
C1138 C 0.56721 0.12824 0.89222 0.0
C1139 C 0.5297 0.13682 0.8949 0.0
C1140 C 0.51497 0.14746 0.87592 0.0
C1141 C 0.55377 0.14109 0.87631 0.0
C1142 C 0.52533 0.16401 0.84017 0.0
C1143 C 0.54969 0.16916 0.82241 0.0
H1144 H 0.88676 0.47715 0.81704 0.0
H1145 H 0.8457 0.46082 0.93798 0.0
H1146 H 0.84803 0.41975 0.94493 0.0
H1147 H 0.86222 0.3889 0.91758 0.0
H1148 H 0.90364 0.40484 0.79712 0.0
H1149 H 0.90026 0.44541 0.78877 0.0
C1150 C 0.87844 0.46465 0.84498 0.0
C1151 C 0.86619 0.47211 0.87703 0.0
C1152 C 0.87966 0.44087 0.84869 0.0
C1153 C 0.85527 0.45558 0.91286 0.0
C1154 C 0.85654 0.43204 0.91686 0.0
C1155 C 0.87032 0.40108 0.88927 0.0
C1156 C 0.88311 0.39381 0.858 0.0
C1157 C 0.86867 0.42451 0.88501 0.0
C1158 C 0.89356 0.40989 0.82159 0.0
C1159 C 0.89178 0.4332 0.81691 0.0
H1160 H 0.5633 0.45851 0.90093 0.0
H1161 H 0.6103 0.47837 0.7859 0.0
H1162 H 0.57631 0.43608 0.75222 0.0
H1163 H 0.53109 0.39713 0.75219 0.0
H1164 H 0.48146 0.37904 0.86431 0.0
H1165 H 0.51879 0.41674 0.90278 0.0
C1166 C 0.56631 0.45313 0.8689 0.0
C1167 C 0.5891 0.47139 0.84571 0.0
C1168 C 0.54608 0.42934 0.84913 0.0
C1169 C 0.59276 0.46461 0.80407 0.0
C1170 C 0.57333 0.4405 0.78486 0.0
C1171 C 0.52839 0.40107 0.78526 0.0
C1172 C 0.50329 0.38544 0.80508 0.0
C1173 C 0.5495 0.42326 0.80654 0.0
C1174 C 0.50045 0.39085 0.84809 0.0
C1175 C 0.52178 0.41247 0.87007 0.0
H1176 H 0.57101 0.76105 0.66475 0.0
H1177 H 0.53375 0.71779 0.7804 0.0
H1178 H 0.53477 0.75742 0.81037 0.0
H1179 H 0.5441 0.80351 0.80352 0.0
H1180 H 0.58159 0.84813 0.68938 0.0
H1181 H 0.58285 0.80905 0.65959 0.0
C1182 C 0.56326 0.76036 0.69656 0.0
C1183 C 0.55212 0.73621 0.71989 0.0
C1184 C 0.56388 0.78349 0.71408 0.0
C1185 C 0.54232 0.73587 0.76129 0.0
C1186 C 0.54286 0.7586 0.77868 0.0
C1187 C 0.55267 0.80482 0.77217 0.0
C1188 C 0.5625 0.82867 0.74866 0.0
C1189 C 0.55326 0.78237 0.75524 0.0
C1190 C 0.57384 0.83001 0.70826 0.0
C1191 C 0.57447 0.80761 0.6911 0.0
H1192 H 0.20034 0.73303 0.78722 0.0
H1193 H 0.16742 0.73811 0.6662 0.0
H1194 H 0.2084 0.78096 0.65187 0.0
H1195 H 0.25402 0.81698 0.67354 0.0
H1196 H 0.28569 0.81182 0.7959 0.0
H1197 H 0.24486 0.76923 0.80962 0.0
C1198 C 0.20208 0.74343 0.75763 0.0
C1199 C 0.18081 0.73218 0.72778 0.0
C1200 C 0.22557 0.76819 0.74975 0.0
C1201 C 0.18343 0.74622 0.68982 0.0
C1202 C 0.20691 0.77076 0.68154 0.0
C1203 C 0.25198 0.80656 0.7032 0.0
C1204 C 0.27307 0.81774 0.73351 0.0
C1205 C 0.22818 0.78194 0.71125 0.0
C1206 C 0.26989 0.80391 0.77192 0.0
C1207 C 0.24651 0.77942 0.77986 0.0
H1208 H 0.25685 0.4753 0.67876 0.0
H1209 H 0.22705 0.39938 0.61113 0.0
H1210 H 0.1818 0.39327 0.60961 0.0
H1211 H 0.15099 0.41064 0.62525 0.0
H1212 H 0.18074 0.48504 0.69731 0.0
H1213 H 0.22571 0.49077 0.69911 0.0
C1214 C 0.24039 0.45732 0.664 0.0
C1215 C 0.24527 0.43792 0.64486 0.0
C1216 C 0.21447 0.45382 0.66367 0.0
C1217 C 0.22375 0.41457 0.62623 0.0
C1218 C 0.19792 0.41115 0.62509 0.0
C1219 C 0.16741 0.42807 0.6412 0.0
C1220 C 0.16275 0.44754 0.66073 0.0
C1221 C 0.19311 0.43085 0.6432 0.0
C1222 C 0.18395 0.46983 0.68203 0.0
C1223 C 0.20964 0.47312 0.68308 0.0
H1224 H 0.36568 0.85808 0.11763 0.0
H1225 H 0.38828 0.90664 0.23327 0.0
H1226 H 0.4333 0.91251 0.2297 0.0
H1227 H 0.46593 0.90326 0.19444 0.0
H1228 H 0.44247 0.85225 0.08166 0.0
H1229 H 0.39812 0.84834 0.08288 0.0
C1230 C 0.38043 0.86996 0.14209 0.0
C1231 C 0.3736 0.88191 0.17568 0.0
C1232 C 0.40616 0.87304 0.14006 0.0
C1233 C 0.39292 0.89706 0.20725 0.0
C1234 C 0.41872 0.90057 0.20509 0.0
C1235 C 0.45122 0.89161 0.16977 0.0
C1236 C 0.45747 0.87829 0.13771 0.0
C1237 C 0.42555 0.88867 0.17163 0.0
C1238 C 0.4381 0.86279 0.10648 0.0
C1239 C 0.41275 0.86046 0.10732 0.0
H1240 H 0.14757 0.60526 0.06351 0.0
H1241 H 0.08427 0.58075 0.15633 0.0
H1242 H 0.09028 0.54311 0.17725 0.0
H1243 H 0.11324 0.51657 0.16825 0.0
H1244 H 0.17617 0.54183 0.07445 0.0
H1245 H 0.17064 0.57973 0.05535 0.0
C1246 C 0.13498 0.59171 0.08828 0.0
C1247 C 0.11542 0.59589 0.1081 0.0
C1248 C 0.13856 0.57019 0.10022 0.0
C1249 C 0.09946 0.57806 0.14033 0.0
C1250 C 0.10291 0.55652 0.15242 0.0
C1251 C 0.12588 0.53052 0.14393 0.0
C1252 C 0.14503 0.5262 0.12279 0.0
C1253 C 0.12242 0.55234 0.13255 0.0
C1254 C 0.16113 0.54444 0.09111 0.0
C1255 C 0.158 0.56619 0.08007 0.0
H1256 H 0.50893 0.62338 0.05693 0.0
H1257 H 0.50246 0.59316 0.18467 0.0
H1258 H 0.46045 0.55206 0.16448 0.0
H1259 H 0.4238 0.5265 0.11168 0.0
H1260 H 0.43027 0.5593 0.98586 0.0
H1261 H 0.47414 0.59769 0.00439 0.0
C1262 C 0.49857 0.60782 0.08054 0.0
C1263 C 0.50885 0.61157 0.12246 0.0
C1264 C 0.47426 0.58475 0.06908 0.0
C1265 C 0.49505 0.59092 0.15223 0.0
C1266 C 0.47095 0.56745 0.14072 0.0
C1267 C 0.43497 0.54193 0.08822 0.0
C1268 C 0.42366 0.54011 0.04749 0.0
C1269 C 0.46009 0.56441 0.09942 0.0
C1270 C 0.43834 0.56031 0.01752 0.0
C1271 C 0.46347 0.58227 0.02806 0.0
H1272 H 0.1322 0.58958 0.72667 0.0
H1273 H 0.10564 0.60822 0.60963 0.0
H1274 H 0.10051 0.56693 0.5763 0.0
H1275 H 0.09847 0.5229 0.58358 0.0
H1276 H 0.12096 0.5033 0.70343 0.0
H1277 H 0.13277 0.54767 0.73261 0.0
C1278 C 0.12566 0.58498 0.69362 0.0
C1279 C 0.1191 0.60199 0.67086 0.0
C1280 C 0.12168 0.56078 0.67539 0.0
C1281 C 0.11074 0.59551 0.62802 0.0
C1282 C 0.10766 0.57181 0.60902 0.0
C1283 C 0.10637 0.52861 0.61584 0.0
C1284 C 0.10863 0.50986 0.64158 0.0
C1285 C 0.11228 0.55389 0.63286 0.0
C1286 C 0.11865 0.51726 0.68337 0.0
C1287 C 0.12549 0.54265 0.69996 0.0
H1288 H 0.3843 0.56131 0.59955 0.0
H1289 H 0.40709 0.51292 0.67389 0.0
H1290 H 0.45159 0.55217 0.68619 0.0
H1291 H 0.4849 0.59916 0.67185 0.0
H1292 H 0.46389 0.64692 0.59263 0.0
H1293 H 0.41756 0.60917 0.58705 0.0
C1294 C 0.39898 0.55942 0.61861 0.0
C1295 C 0.3925 0.53422 0.63548 0.0
C1296 C 0.42474 0.58198 0.62493 0.0
C1297 C 0.4117 0.53203 0.66009 0.0
C1298 C 0.4371 0.55449 0.66735 0.0
C1299 C 0.47005 0.60151 0.65408 0.0
C1300 C 0.47769 0.62575 0.63282 0.0
C1301 C 0.44394 0.57943 0.64947 0.0
C1302 C 0.45838 0.62841 0.60935 0.0
C1303 C 0.43199 0.60679 0.60593 0.0
H1304 H 0.41473 0.88103 0.63299 0.0
H1305 H 0.37559 0.85539 0.75481 0.0
H1306 H 0.41332 0.85159 0.78214 0.0
H1307 H 0.45889 0.86038 0.77398 0.0
H1308 H 0.50113 0.89133 0.65537 0.0
H1309 H 0.46058 0.88805 0.62384 0.0
C1310 C 0.41433 0.87402 0.66517 0.0
C1311 C 0.39249 0.86825 0.69194 0.0
C1312 C 0.43671 0.87321 0.68124 0.0
C1313 C 0.39224 0.85982 0.73382 0.0
C1314 C 0.4138 0.85776 0.7494 0.0
C1315 C 0.4593 0.86609 0.74097 0.0
C1316 C 0.48317 0.87621 0.71714 0.0
C1317 C 0.43642 0.86515 0.72378 0.0
C1318 C 0.48312 0.88358 0.6745 0.0
C1319 C 0.45995 0.88176 0.65652 0.0
H1320 H 0.2188 0.5038 0.12696 0.0
H1321 H 0.21809 0.45766 0.23494 0.0
H1322 H 0.26168 0.46346 0.21372 0.0
H1323 H 0.29596 0.47545 0.15745 0.0
H1324 H 0.29703 0.52371 0.05157 0.0
H1325 H 0.25789 0.52391 0.0796 0.0
C1326 C 0.22867 0.49576 0.14643 0.0
C1327 C 0.21544 0.48021 0.18209 0.0
C1328 C 0.25366 0.4993 0.13418 0.0
C1329 C 0.22818 0.46985 0.20739 0.0
C1330 C 0.25295 0.47297 0.19506 0.0
C1331 C 0.28809 0.48661 0.14111 0.0
C1332 C 0.29902 0.49876 0.10168 0.0
C1333 C 0.26536 0.48675 0.15747 0.0
C1334 C 0.28876 0.51356 0.08144 0.0
C1335 C 0.26624 0.51369 0.09736 0.0
H1336 H 0.49556 0.77522 0.18215 0.0
H1337 H 0.56626 0.82666 0.10849 0.0
H1338 H 0.57916 0.79202 0.10909 0.0
H1339 H 0.57271 0.74928 0.13687 0.0
H1340 H 0.50408 0.69986 0.21575 0.0
H1341 H 0.48766 0.73137 0.20615 0.0
C1342 C 0.51363 0.77875 0.16578 0.0
C1343 C 0.53007 0.80353 0.14565 0.0
C1344 C 0.52126 0.75912 0.16725 0.0
C1345 C 0.55342 0.80782 0.12458 0.0
C1346 C 0.56078 0.78803 0.12487 0.0
C1347 C 0.55387 0.74515 0.15119 0.0
C1348 C 0.53961 0.72241 0.17704 0.0
C1349 C 0.54519 0.76389 0.14698 0.0
C1350 C 0.51541 0.71736 0.19586 0.0
C1351 C 0.50609 0.7354 0.19051 0.0
H1352 H 0.19722 0.73348 0.10522 0.0
H1353 H 0.14797 0.71607 0.21768 0.0
H1354 H 0.18398 0.75664 0.25311 0.0
H1355 H 0.2275 0.79962 0.24872 0.0
H1356 H 0.2738 0.81801 0.13304 0.0
H1357 H 0.24081 0.77429 0.10215 0.0
C1358 C 0.19427 0.73823 0.13769 0.0
C1359 C 0.16971 0.72179 0.15856 0.0
C1360 C 0.21451 0.76192 0.15708 0.0
C1361 C 0.16657 0.72839 0.20074 0.0
C1362 C 0.18712 0.75164 0.22094 0.0
C1363 C 0.23049 0.79372 0.21706 0.0
C1364 C 0.25285 0.8119 0.19293 0.0
C1365 C 0.21089 0.76893 0.19895 0.0
C1366 C 0.25653 0.8044 0.15184 0.0
C1367 C 0.23772 0.77942 0.13426 0.0
H1368 H 0.19168 0.22416 0.19296 0.0
H1369 H 0.26475 0.2207 0.19231 0.0
H1370 H 0.26814 0.22652 0.27039 0.0
H1371 H 0.25066 0.23403 0.33858 0.0
H1372 H 0.18005 0.24196 0.33612 0.0
H1373 H 0.17526 0.23292 0.25931 0.0
C1374 C 0.20823 0.2244 0.20992 0.0
C1375 C 0.22778 0.2217 0.18717 0.0
C1376 C 0.2105 0.22871 0.25415 0.0
C1377 C 0.24942 0.22264 0.20935 0.0
C1378 C 0.25135 0.22599 0.25387 0.0
C1379 C 0.23422 0.23363 0.32107 0.0
C1380 C 0.21567 0.23856 0.34274 0.0
C1381 C 0.23208 0.22926 0.27658 0.0
C1382 C 0.19462 0.23837 0.31991 0.0
C1383 C 0.19183 0.23313 0.2761 0.0
H1384 H 0.79528 0.04291 0.18809 0.0
H1385 H 0.70886 0.00172 0.19099 0.0
H1386 H 0.70973 0.9976 0.26906 0.0
H1387 H 0.73567 0.00245 0.33554 0.0
H1388 H 0.82243 0.04489 0.32948 0.0
H1389 H 0.82083 0.05109 0.25369 0.0
C1390 C 0.77669 0.03344 0.20601 0.0
C1391 C 0.75212 0.02265 0.18436 0.0
C1392 C 0.77742 0.03067 0.25017 0.0
C1393 C 0.72805 0.01049 0.20748 0.0
C1394 C 0.72856 0.00781 0.2519 0.0
C1395 C 0.75417 0.0129 0.31752 0.0
C1396 C 0.77911 0.02231 0.33825 0.0
C1397 C 0.75319 0.01716 0.27346 0.0
C1398 C 0.80291 0.03651 0.31456 0.0
C1399 C 0.80209 0.04045 0.27105 0.0
H1400 H 0.02651 0.76333 0.28654 0.0
H1401 H 0.08136 0.84816 0.26768 0.0
H1402 H 0.06955 0.84298 0.1916 0.0
H1403 H 0.03845 0.81574 0.13371 0.0
H1404 H 0.97948 0.7321 0.15569 0.0
H1405 H 0.99782 0.73527 0.22717 0.0
C1406 C 0.0366 0.78037 0.26525 0.0
C1407 C 0.05512 0.80593 0.28206 0.0
C1408 C 0.02831 0.77755 0.22242 0.0
C1409 C 0.06741 0.82821 0.2549 0.0
C1410 C 0.06038 0.8253 0.21165 0.0
C1411 C 0.02987 0.79812 0.15394 0.0
C1412 C 0.00744 0.77382 0.13961 0.0
C1413 C 0.04 0.80031 0.19551 0.0
C1414 C 0.99649 0.75116 0.16622 0.0
C1415 C 0.00704 0.75291 0.20703 0.0
H1416 H 0.75773 0.81117 0.78338 0.0
H1417 H 0.77585 0.75127 0.8291 0.0
H1418 H 0.78564 0.74317 0.75625 0.0
H1419 H 0.79359 0.75657 0.68122 0.0
H1420 H 0.77846 0.81875 0.63664 0.0
H1421 H 0.7627 0.82233 0.70752 0.0
C1422 C 0.76342 0.79603 0.77738 0.0
C1423 C 0.7663 0.78201 0.81162 0.0
C1424 C 0.76977 0.79208 0.73571 0.0
C1425 C 0.77371 0.76249 0.80329 0.0
C1426 C 0.77935 0.75788 0.76168 0.0
C1427 C 0.7865 0.77065 0.68682 0.0
C1428 C 0.78743 0.78756 0.65386 0.0
C1429 C 0.77817 0.77311 0.72787 0.0
C1430 C 0.77817 0.80568 0.66162 0.0
C1431 C 0.76918 0.80775 0.70213 0.0
H1432 H 0.32868 0.06074 0.67133 0.0
H1433 H 0.2846 0.97598 0.63654 0.0
H1434 H 0.27517 0.9642 0.71194 0.0
H1435 H 0.27537 0.97824 0.7862 0.0
H1436 H 0.31606 0.0631 0.82004 0.0
H1437 H 0.33116 0.07468 0.74617 0.0
C1438 C 0.31732 0.03964 0.68016 0.0
C1439 C 0.30713 0.01924 0.6483 0.0
C1440 C 0.3111 0.03312 0.72325 0.0
C1441 C 0.29247 0.99204 0.66041 0.0
C1442 C 0.28696 0.98533 0.70346 0.0
C1443 C 0.28778 0.9993 0.77758 0.0
C1444 C 0.2944 0.01985 0.80841 0.0
C1445 C 0.29551 0.00574 0.73493 0.0
C1446 C 0.3105 0.04698 0.79674 0.0
C1447 C 0.31908 0.05356 0.75457 0.0
H1448 H 0.96853 0.26092 0.69283 0.0
H1449 H 0.0538 0.30775 0.66893 0.0
H1450 H 0.06282 0.31243 0.74585 0.0
H1451 H 0.04678 0.29727 0.8185 0.0
H1452 H 0.96169 0.24704 0.8414 0.0
H1453 H 0.95225 0.24999 0.76615 0.0
C1454 C 0.9891 0.27256 0.70437 0.0
C1455 C 0.01052 0.2836 0.6752 0.0
C1456 C 0.99414 0.27421 0.74842 0.0
C1457 C 0.037 0.29878 0.69075 0.0
C1458 C 0.04215 0.30136 0.7347 0.0
C1459 C 0.02612 0.28731 0.80723 0.0
C1460 C 0.00497 0.27154 0.83533 0.0
C1461 C 0.02093 0.28821 0.76368 0.0
C1462 C 0.97833 0.25894 0.82026 0.0
C1463 C 0.97294 0.26057 0.77724 0.0
H1464 H 0.92362 0.5928 0.55689 0.0
H1465 H 0.88359 0.50592 0.55848 0.0
H1466 H 0.87704 0.50634 0.63583 0.0
H1467 H 0.87708 0.53123 0.7005 0.0
H1468 H 0.91257 0.61791 0.6962 0.0
H1469 H 0.9266 0.61794 0.62265 0.0
C1470 C 0.91434 0.57411 0.57466 0.0
C1471 C 0.90459 0.54942 0.55277 0.0
C1472 C 0.9093 0.57451 0.61841 0.0
C1473 C 0.8917 0.52514 0.57529 0.0
C1474 C 0.8877 0.5254 0.61928 0.0
C1475 C 0.88826 0.55014 0.68363 0.0
C1476 C 0.89354 0.57448 0.70354 0.0
C1477 C 0.89552 0.54992 0.64086 0.0
C1478 C 0.90793 0.59885 0.6813 0.0
C1479 C 0.91604 0.59891 0.63931 0.0
H1480 H 0.41914 0.31288 0.49048 0.0
H1481 H 0.40481 0.37981 0.48524 0.0
H1482 H 0.39299 0.37427 0.56127 0.0
H1483 H 0.392 0.35344 0.63075 0.0
H1484 H 0.40684 0.28692 0.63455 0.0
H1485 H 0.41272 0.28877 0.55701 0.0
C1486 C 0.41337 0.32625 0.50592 0.0
C1487 C 0.41355 0.3472 0.48279 0.0
C1488 C 0.40649 0.32279 0.54913 0.0
C1489 C 0.40524 0.36383 0.50273 0.0
C1490 C 0.39846 0.36062 0.54608 0.0
C1491 C 0.39566 0.33887 0.61415 0.0
C1492 C 0.3987 0.31983 0.63761 0.0
C1493 C 0.39965 0.34057 0.5698 0.0
C1494 C 0.40398 0.30133 0.61656 0.0
C1495 C 0.40764 0.30264 0.57247 0.0
H1496 H 0.62369 0.11486 0.63465 0.0
H1497 H 0.69354 0.10613 0.64686 0.0
H1498 H 0.69665 0.1045 0.56906 0.0
H1499 H 0.67873 0.10416 0.49788 0.0
H1500 H 0.60715 0.10998 0.4856 0.0
H1501 H 0.60538 0.11395 0.56325 0.0
C1502 C 0.63975 0.11287 0.62024 0.0
C1503 C 0.65849 0.11081 0.6464 0.0
C1504 C 0.64093 0.11117 0.57557 0.0
C1505 C 0.67892 0.1078 0.62736 0.0
C1506 C 0.68067 0.10682 0.58292 0.0
C1507 C 0.66276 0.10639 0.51213 0.0
C1508 C 0.64311 0.10682 0.48591 0.0
C1509 C 0.66164 0.10824 0.55675 0.0
C1510 C 0.62244 0.10945 0.50501 0.0
C1511 C 0.62148 0.11182 0.5494 0.0
H1512 H 0.49315 0.15235 0.12265 0.0
H1513 H 0.43063 0.08062 0.18243 0.0
H1514 H 0.40475 0.06697 0.11604 0.0
H1515 H 0.39583 0.0803 0.04666 0.0
H1516 H 0.45666 0.15306 0.98766 0.0
H1517 H 0.48752 0.16128 0.04737 0.0
C1518 C 0.47436 0.13325 0.12059 0.0
C1519 C 0.4636 0.11769 0.1575 0.0
C1520 C 0.45909 0.12597 0.08256 0.0
C1521 C 0.43916 0.09306 0.15451 0.0
C1522 C 0.42426 0.08532 0.11664 0.0
C1523 C 0.41619 0.09744 0.04636 0.0
C1524 C 0.4242 0.11596 0.01294 0.0
C1525 C 0.43336 0.10236 0.0813 0.0
C1526 C 0.45043 0.13824 0.0127 0.0
C1527 C 0.46788 0.14312 0.04715 0.0
H1528 H 0.88086 0.27765 0.15054 0.0
H1529 H 0.93441 0.36205 0.18117 0.0
H1530 H 0.94176 0.37222 0.10515 0.0
H1531 H 0.93172 0.35756 0.03055 0.0
H1532 H 0.87683 0.2736 -0.00084 0.0
H1533 H 0.87148 0.26277 0.07529 0.0
C1534 C 0.89424 0.29828 0.14065 0.0
C1535 C 0.90702 0.3191 0.17157 0.0
C1536 C 0.89814 0.30402 0.09687 0.0
C1537 C 0.92424 0.34568 0.15811 0.0
C1538 C 0.92848 0.3515 0.11464 0.0
C1539 C 0.91871 0.3368 0.04017 0.0
C1540 C 0.90465 0.3164 0.00911 0.0
C1541 C 0.91536 0.33088 0.08382 0.0
C1542 C 0.88786 0.28968 0.02236 0.0
C1543 C 0.88475 0.28351 0.06588 0.0
H1544 H 0.70301 0.61 0.15023 0.0
H1545 H 0.62441 0.55759 0.20299 0.0
H1546 H 0.60453 0.5487 0.13151 0.0
H1547 H 0.61021 0.55216 0.05381 0.0
H1548 H 0.68923 0.60265 0.001 0.0
H1549 H 0.70817 0.61611 0.07287 0.0
C1550 C 0.68147 0.59692 0.14622 0.0
C1551 C 0.66526 0.58425 0.18184 0.0
C1552 C 0.67029 0.59137 0.10499 0.0
C1553 C 0.63738 0.56743 0.17605 0.0
C1554 C 0.626 0.56228 0.13518 0.0
C1555 C 0.63152 0.56637 0.05797 0.0
C1556 C 0.64832 0.57614 0.02211 0.0
C1557 C 0.64238 0.57356 0.09936 0.0
C1558 C 0.67589 0.59461 0.02809 0.0
C1559 C 0.68675 0.60231 0.06917 0.0
H1560 H 0.56305 0.89086 0.02403 0.0
H1561 H 0.56559 0.96755 0.02538 0.0
H1562 H 0.58255 0.97583 0.9525 0.0
H1563 H 0.59084 0.95859 0.88539 0.0
H1564 H 0.58503 0.88068 0.88222 0.0
H1565 H 0.57591 0.87581 0.95909 0.0
C1566 C 0.56758 0.90954 0.00864 0.0
C1567 C 0.56256 0.92832 0.03007 0.0
C1568 C 0.57698 0.91402 0.96642 0.0
C1569 C 0.56885 0.95253 0.00959 0.0
C1570 C 0.57864 0.95734 0.96788 0.0
C1571 C 0.58862 0.94108 0.90208 0.0
C1572 C 0.5892 0.92028 0.87887 0.0
C1573 C 0.58208 0.93792 0.94562 0.0
C1574 C 0.58538 0.8972 0.90004 0.0
C1575 C 0.57976 0.89427 0.94373 0.0
H1576 H 0.08665 0.69074 0.98423 0.0
H1577 H 0.04903 0.60396 0.98765 0.0
H1578 H 0.04847 0.60187 0.90922 0.0
H1579 H 0.062 0.62536 0.84036 0.0
H1580 H 0.09637 0.7118 0.83676 0.0
H1581 H 0.09474 0.71363 0.91504 0.0
C1582 C 0.07804 0.67138 0.96761 0.0
C1583 C 0.06814 0.64752 0.99115 0.0
C1584 C 0.07737 0.67042 0.92286 0.0
C1585 C 0.05669 0.62248 0.96983 0.0
C1586 C 0.05652 0.62136 0.92517 0.0
C1587 C 0.06888 0.64454 0.85685 0.0
C1588 C 0.07964 0.66849 0.83333 0.0
C1589 C 0.06731 0.64525 0.90147 0.0
C1590 C 0.08808 0.6932 0.85452 0.0
C1591 C 0.08723 0.69421 0.89912 0.0
H1592 H 0.35582 0.48139 0.91639 0.0
H1593 H 0.33601 0.39962 0.94164 0.0
H1594 H 0.32313 0.38708 0.86663 0.0
H1595 H 0.31326 0.39859 0.79563 0.0
H1596 H 0.33492 0.481 0.77042 0.0
H1597 H 0.35101 0.4941 0.84387 0.0
C1598 C 0.34894 0.46092 0.90532 0.0
C1599 C 0.34644 0.44134 0.93437 0.0
C1600 C 0.34149 0.45392 0.86241 0.0
C1601 C 0.33817 0.41503 0.91961 0.0
C1602 C 0.33053 0.40781 0.87691 0.0
C1603 C 0.32158 0.4194 0.80634 0.0
C1604 C 0.32249 0.43873 0.77809 0.0
C1605 C 0.33133 0.42691 0.84834 0.0
C1606 C 0.33387 0.46576 0.79181 0.0
C1607 C 0.34307 0.47326 0.83373 0.0
H1608 H 0.0546 0.43501 0.44394 0.0
H1609 H 0.08317 0.38156 0.48144 0.0
H1610 H 0.09249 0.37637 0.40677 0.0
H1611 H 0.09822 0.39197 0.33285 0.0
H1612 H 0.07355 0.4488 0.29682 0.0
H1613 H 0.05676 0.44756 0.36897 0.0
C1614 C 0.06251 0.42191 0.43576 0.0
C1615 C 0.06859 0.40901 0.46821 0.0
C1616 C 0.06879 0.4199 0.3931 0.0
C1617 C 0.07873 0.39204 0.45707 0.0
C1618 C 0.08407 0.38909 0.41441 0.0
C1619 C 0.0888 0.40378 0.34054 0.0
C1620 C 0.08745 0.42075 0.30966 0.0
C1621 C 0.0801 0.40372 0.38242 0.0
C1622 C 0.0751 0.43583 0.32015 0.0
C1623 C 0.06554 0.43515 0.3614 0.0
H1624 H 0.60989 0.71954 0.35515 0.0
H1625 H 0.57587 0.63356 0.336 0.0
H1626 H 0.57415 0.62747 0.41343 0.0
H1627 H 0.57869 0.64605 0.48572 0.0
H1628 H 0.60926 0.73151 0.50465 0.0
H1629 H 0.6163 0.73841 0.42763 0.0
C1630 C 0.60237 0.69946 0.36779 0.0
C1631 C 0.59289 0.67697 0.33981 0.0
C1632 C 0.60075 0.69606 0.41216 0.0
C1633 C 0.58315 0.65114 0.35683 0.0
C1634 C 0.58215 0.64768 0.40106 0.0
C1635 C 0.58725 0.6663 0.4732 0.0
C1636 C 0.59337 0.68827 0.50092 0.0
C1637 C 0.59037 0.66992 0.42894 0.0
C1638 C 0.60433 0.71429 0.48401 0.0
C1639 C 0.60826 0.7182 0.44 0.0
H1640 H 0.2729 0.88278 0.39356 0.0
H1641 H 0.354 0.93874 0.35368 0.0
H1642 H 0.36901 0.94684 0.42819 0.0
H1643 H 0.35979 0.93499 0.50368 0.0
H1644 H 0.27919 0.8769 0.54292 0.0
H1645 H 0.26322 0.87281 0.46942 0.0
C1646 C 0.29381 0.89701 0.40114 0.0
C1647 C 0.31236 0.91 0.36814 0.0
C1648 C 0.3024 0.90102 0.44385 0.0
C1649 C 0.33937 0.92834 0.37851 0.0
C1650 C 0.34797 0.93295 0.42108 0.0
C1651 C 0.33866 0.92165 0.49628 0.0
C1652 C 0.32073 0.9061 0.52864 0.0
C1653 C 0.32976 0.91892 0.45387 0.0
C1654 C 0.29343 0.88892 0.51852 0.0
C1655 C 0.28429 0.88657 0.47652 0.0
loop_
_geom_bond_atom_site_label_1
_geom_bond_atom_site_label_2
_geom_bond_distance
_geom_bond_site_symmetry_2
_ccdc_geom_bond_type
Mg0 O1 2.028 . S
Mg0 O7 1.986 . S
Mg0 O9 2.114 . S
Mg0 O10 2.251 . S
Mg0 O13 2.010 . S
O1 Mg0 2.028 . S
O1 C4 1.250 . S
O2 Mg3 2.028 . S
O2 C4 1.248 . S
Mg3 O2 2.028 . S
Mg3 O8 2.032 . S
Mg3 O10 2.079 . S
C4 O1 1.250 . S
C4 O2 1.248 . S
C5 O6 1.264 . S
C5 O13 1.249 . S
O6 C5 1.264 . S
O7 Mg0 1.986 . S
O7 C11 1.246 . S
O8 Mg3 2.032 . S
O8 C11 1.259 . S
O9 Mg0 2.114 . S
O9 C12 1.252 . S
O10 Mg0 2.251 . S
O10 Mg3 2.079 . S
O10 C12 1.273 . S
C11 O7 1.246 . S
C11 O8 1.259 . S
C12 O9 1.252 . S
C12 O10 1.273 . S
O13 Mg0 2.010 . S
O13 C5 1.249 . S
Mg14 O15 2.028 . S
Mg14 O21 1.986 1_545 S
Mg14 O23 2.114 . S
Mg14 O24 2.251 . S
Mg14 O27 2.010 . S
O15 Mg14 2.028 . S
O15 C18 1.250 . S
O16 Mg17 2.028 . S
O16 C18 1.248 . S
Mg17 O16 2.028 . S
Mg17 O22 2.032 1_545 S
Mg17 O24 2.079 . S
C18 O15 1.250 . S
C18 O16 1.248 . S
C19 O20 1.264 . S
C19 O27 1.249 1_556 S
O20 C19 1.264 . S
O21 Mg14 1.986 1_565 S
O21 C25 1.246 . S
O22 Mg17 2.032 1_565 S
O22 C25 1.259 . S
O23 Mg14 2.114 . S
O23 C26 1.252 . S
O24 Mg14 2.251 . S
O24 Mg17 2.079 . S
O24 C26 1.273 . S
C25 O21 1.246 . S
C25 O22 1.259 . S
C26 O23 1.252 . S
C26 O24 1.273 . S
O27 Mg14 2.010 . S
O27 C19 1.249 1_554 S
Mg28 O29 2.028 . S
Mg28 O35 1.991 . S
Mg28 O37 2.114 . S
Mg28 O38 2.251 . S
Mg28 O41 2.010 1_654 S
O29 Mg28 2.028 . S
O29 C32 1.250 . S
O30 Mg31 2.028 . S
O30 C32 1.248 . S
Mg31 O30 2.028 . S
Mg31 O36 2.032 . S
Mg31 O38 2.079 . S
C32 O29 1.250 . S
C32 O30 1.248 . S
C33 O34 1.264 . S
C33 O41 1.249 . S
O34 C33 1.264 . S
O35 Mg28 1.991 . S
O35 C39 1.247 . S
O36 Mg31 2.032 . S
O36 C39 1.259 . S
O37 Mg28 2.114 . S
O37 C40 1.252 . S
O38 Mg28 2.251 . S
O38 Mg31 2.079 . S
O38 C40 1.273 . S
C39 O35 1.247 . S
C39 O36 1.259 . S
C40 O37 1.252 . S
C40 O38 1.273 . S
O41 Mg28 2.010 1_456 S
O41 C33 1.249 . S
Mg42 O43 2.028 . S
Mg42 O49 1.986 . S
Mg42 O51 2.114 . S
Mg42 O52 2.251 . S
Mg42 O55 2.010 . S
O43 Mg42 2.028 . S
O43 C46 1.250 . S
O44 Mg45 2.028 . S
O44 C46 1.248 . S
Mg45 O44 2.028 . S
Mg45 O50 2.032 . S
Mg45 O52 2.079 . S
C46 O43 1.250 . S
C46 O44 1.248 . S
C47 O48 1.264 . S
C47 O55 1.249 . S
O48 C47 1.264 . S
O49 Mg42 1.986 . S
O49 C53 1.246 . S
O50 Mg45 2.032 . S
O50 C53 1.259 . S
O51 Mg42 2.114 . S
O51 C54 1.252 . S
O52 Mg42 2.251 . S
O52 Mg45 2.079 . S
O52 C54 1.273 . S
C53 O49 1.246 . S
C53 O50 1.259 . S
C54 O51 1.252 . S
C54 O52 1.273 . S
O55 Mg42 2.010 . S
O55 C47 1.249 . S
Mg56 O57 2.028 . S
Mg56 O63 1.986 1_565 S
Mg56 O65 2.114 . S
Mg56 O66 2.251 1_565 S
Mg56 O69 2.010 . S
O57 Mg56 2.028 . S
O57 C60 1.250 . S
O58 Mg59 2.028 1_565 S
O58 C60 1.248 . S
Mg59 O58 2.028 1_545 S
Mg59 O64 2.032 . S
Mg59 O66 2.079 . S
C60 O57 1.250 . S
C60 O58 1.248 . S
C61 O62 1.264 . S
C61 O69 1.249 . S
O62 C61 1.264 . S
O63 Mg56 1.986 1_545 S
O63 C67 1.246 . S
O64 Mg59 2.032 . S
O64 C67 1.259 . S
O65 Mg56 2.114 . S
O65 C68 1.252 . S
O66 Mg56 2.251 1_545 S
O66 Mg59 2.079 . S
O66 C68 1.273 1_545 S
C67 O63 1.246 . S
C67 O64 1.259 . S
C68 O65 1.252 . S
C68 O66 1.273 1_565 S
O69 Mg56 2.010 . S
O69 C61 1.249 . S
Mg70 O71 2.028 . S
Mg70 O77 1.986 1_455 S
Mg70 O79 2.114 . S
Mg70 O80 2.251 . S
Mg70 O83 2.010 . S
O71 Mg70 2.028 . S
O71 C74 1.250 . S
O72 Mg73 2.028 . S
O72 C74 1.248 . S
Mg73 O72 2.028 . S
Mg73 O78 2.032 1_455 S
Mg73 O80 2.079 . S
C74 O71 1.250 . S
C74 O72 1.248 . S
C75 O76 1.264 . S
C75 O83 1.249 . S
O76 C75 1.264 . S
O77 Mg70 1.986 1_655 S
O77 C81 1.246 . S
O78 Mg73 2.032 1_655 S
O78 C81 1.259 . S
O79 Mg70 2.114 . S
O79 C82 1.252 . S
O80 Mg70 2.251 . S
O80 Mg73 2.079 . S
O80 C82 1.273 . S
C81 O77 1.246 . S
C81 O78 1.259 . S
C82 O79 1.252 . S
C82 O80 1.273 . S
O83 Mg70 2.010 . S
O83 C75 1.249 . S
Mg84 O85 2.028 . S
Mg84 O91 1.986 . S
Mg84 O93 2.114 . S
Mg84 O94 2.251 1_556 S
Mg84 O97 2.010 . S
O85 Mg84 2.028 . S
O85 C88 1.250 . S
O86 Mg87 2.028 . S
O86 C88 1.248 1_554 S
Mg87 O86 2.028 . S
Mg87 O92 2.032 . S
Mg87 O94 2.079 . S
C88 O85 1.250 . S
C88 O86 1.248 1_556 S
C89 O90 1.264 . S
C89 O97 1.249 . S
O90 C89 1.264 . S
O91 Mg84 1.986 . S
O91 C95 1.246 1_556 S
O92 Mg87 2.032 . S
O92 C95 1.259 . S
O93 Mg84 2.114 . S
O93 C96 1.252 . S
O94 Mg84 2.251 1_554 S
O94 Mg87 2.079 . S
O94 C96 1.273 1_554 S
C95 O91 1.246 1_554 S
C95 O92 1.259 . S
C96 O93 1.252 . S
C96 O94 1.273 1_556 S
O97 Mg84 2.010 . S
O97 C89 1.249 . S
Mg98 O99 2.028 1_565 S
Mg98 O105 1.986 . S
Mg98 O107 2.114 . S
Mg98 O108 2.251 1_556 S
Mg98 O111 2.010 . S
O99 Mg98 2.028 1_545 S
O99 C102 1.250 1_556 S
O100 Mg101 2.028 1_545 S
O100 C102 1.248 . S
Mg101 O100 2.028 1_565 S
Mg101 O106 2.032 . S
Mg101 O108 2.079 . S
C102 O99 1.250 1_554 S
C102 O100 1.248 . S
C103 O104 1.264 . S
C103 O111 1.249 . S
O104 C103 1.264 . S
O105 Mg98 1.986 . S
O105 C109 1.246 1_556 S
O106 Mg101 2.032 . S
O106 C109 1.259 . S
O107 Mg98 2.114 . S
O107 C110 1.252 . S
O108 Mg98 2.251 1_554 S
O108 Mg101 2.079 . S
O108 C110 1.273 1_554 S
C109 O105 1.246 1_554 S
C109 O106 1.259 . S
C110 O107 1.252 . S
C110 O108 1.273 1_556 S
O111 Mg98 2.010 . S
O111 C103 1.249 . S
Mg112 O113 2.028 1_455 S
Mg112 O119 1.986 . S
Mg112 O121 2.114 . S
Mg112 O122 2.251 1_556 S
Mg112 O125 2.010 . S
O113 Mg112 2.028 1_655 S
O113 C116 1.250 1_556 S
O114 Mg115 2.028 1_655 S
O114 C116 1.248 . S
Mg115 O114 2.028 1_455 S
Mg115 O120 2.032 . S
Mg115 O122 2.079 . S
C116 O113 1.250 1_554 S
C116 O114 1.248 . S
C117 O118 1.264 . S
C117 O125 1.249 . S
O118 C117 1.264 . S
O119 Mg112 1.986 . S
O119 C123 1.246 1_556 S
O120 Mg115 2.032 . S
O120 C123 1.259 . S
O121 Mg112 2.114 . S
O121 C124 1.252 . S
O122 Mg112 2.251 1_554 S
O122 Mg115 2.079 . S
O122 C124 1.273 1_554 S
C123 O119 1.246 1_554 S
C123 O120 1.259 . S
C124 O121 1.252 . S
C124 O122 1.273 1_556 S
O125 Mg112 2.010 . S
O125 C117 1.249 . S
Mg126 O127 2.028 . S
Mg126 O133 1.986 . S
Mg126 O135 2.114 . S
Mg126 O136 2.251 . S
Mg126 O139 2.010 . S
O127 Mg126 2.028 . S
O127 C130 1.250 . S
O128 Mg129 2.028 . S
O128 C130 1.248 . S
Mg129 O128 2.028 . S
Mg129 O134 2.032 . S
Mg129 O136 2.079 . S
C130 O127 1.250 . S
C130 O128 1.248 . S
C131 O132 1.264 . S
C131 O139 1.249 . S
O132 C131 1.264 . S
O133 Mg126 1.986 . S
O133 C137 1.246 . S
O134 Mg129 2.032 . S
O134 C137 1.259 . S
O135 Mg126 2.114 . S
O135 C138 1.252 . S
O136 Mg126 2.251 . S
O136 Mg129 2.079 . S
O136 C138 1.273 . S
C137 O133 1.246 . S
C137 O134 1.259 . S
C138 O135 1.252 . S
C138 O136 1.273 . S
O139 Mg126 2.010 . S
O139 C131 1.249 . S
Mg140 O141 2.028 1_545 S
Mg140 O147 1.986 . S
Mg140 O149 2.114 . S
Mg140 O150 2.251 . S
Mg140 O153 2.010 . S
O141 Mg140 2.028 1_565 S
O141 C144 1.250 . S
O142 Mg143 2.028 1_565 S
O142 C144 1.248 . S
Mg143 O142 2.028 1_545 S
Mg143 O148 2.032 . S
Mg143 O150 2.079 . S
C144 O141 1.250 . S
C144 O142 1.248 . S
C145 O146 1.264 . S
C145 O153 1.249 . S
O146 C145 1.264 . S
O147 Mg140 1.986 . S
O147 C151 1.246 . S
O148 Mg143 2.032 . S
O148 C151 1.259 . S
O149 Mg140 2.114 . S
O149 C152 1.252 . S
O150 Mg140 2.251 . S
O150 Mg143 2.079 . S
O150 C152 1.273 . S
C151 O147 1.246 . S
C151 O148 1.259 . S
C152 O149 1.252 . S
C152 O150 1.273 . S
O153 Mg140 2.010 . S
O153 C145 1.249 . S
Mg154 O155 2.028 1_655 S
Mg154 O161 1.986 . S
Mg154 O163 2.114 . S
Mg154 O164 2.251 . S
Mg154 O167 2.010 . S
O155 Mg154 2.028 1_455 S
O155 C158 1.250 . S
O156 Mg157 2.028 1_455 S
O156 C158 1.248 . S
Mg157 O156 2.028 1_655 S
Mg157 O162 2.032 . S
Mg157 O164 2.079 . S
C158 O155 1.250 . S
C158 O156 1.248 . S
C159 O160 1.264 . S
C159 O167 1.249 . S
O160 C159 1.264 . S
O161 Mg154 1.986 . S
O161 C165 1.246 . S
O162 Mg157 2.032 . S
O162 C165 1.259 . S
O163 Mg154 2.114 . S
O163 C166 1.252 . S
O164 Mg154 2.251 . S
O164 Mg157 2.079 . S
O164 C166 1.273 . S
C165 O161 1.246 . S
C165 O162 1.259 . S
C166 O163 1.252 . S
C166 O164 1.273 . S
O167 Mg154 2.010 . S
O167 C159 1.249 . S
Mg168 O169 2.028 . S
Mg168 O175 1.986 . S
Mg168 O177 2.114 . S
Mg168 O178 2.251 . S
Mg168 O181 2.010 . S
O169 Mg168 2.028 . S
O169 C172 1.250 . S
O170 Mg171 2.028 . S
O170 C172 1.248 . S
Mg171 O170 2.028 . S
Mg171 O176 2.032 . S
Mg171 O178 2.079 . S
C172 O169 1.250 . S
C172 O170 1.248 . S
C173 O174 1.264 . S
C173 O181 1.249 . S
O174 C173 1.264 . S
O175 Mg168 1.986 . S
O175 C179 1.246 . S
O176 Mg171 2.032 . S
O176 C179 1.259 . S
O177 Mg168 2.114 . S
O177 C180 1.252 . S
O178 Mg168 2.251 . S
O178 Mg171 2.079 . S
O178 C180 1.273 . S
C179 O175 1.246 . S
C179 O176 1.259 . S
C180 O177 1.252 . S
C180 O178 1.273 . S
O181 Mg168 2.010 . S
O181 C173 1.249 . S
Mg182 O183 2.028 . S
Mg182 O189 1.986 . S
Mg182 O191 2.114 . S
Mg182 O192 2.251 . S
Mg182 O195 2.010 . S
O183 Mg182 2.028 . S
O183 C186 1.250 . S
O184 Mg185 2.028 . S
O184 C186 1.248 . S
Mg185 O184 2.028 . S
Mg185 O190 2.032 . S
Mg185 O192 2.079 . S
C186 O183 1.250 . S
C186 O184 1.248 . S
C187 O188 1.264 . S
C187 O195 1.249 . S
O188 C187 1.264 . S
O189 Mg182 1.986 . S
O189 C193 1.246 . S
O190 Mg185 2.032 . S
O190 C193 1.259 . S
O191 Mg182 2.114 . S
O191 C194 1.252 . S
O192 Mg182 2.251 . S
O192 Mg185 2.079 . S
O192 C194 1.273 . S
C193 O189 1.246 . S
C193 O190 1.259 . S
C194 O191 1.252 . S
C194 O192 1.273 . S
O195 Mg182 2.010 . S
O195 C187 1.249 . S
Mg196 O197 2.028 . S
Mg196 O203 1.986 . S
Mg196 O205 2.114 . S
Mg196 O206 2.251 . S
Mg196 O209 2.010 . S
O197 Mg196 2.028 . S
O197 C200 1.250 . S
O198 Mg199 2.028 . S
O198 C200 1.248 . S
Mg199 O198 2.028 . S
Mg199 O204 2.032 . S
Mg199 O206 2.079 . S
C200 O197 1.250 . S
C200 O198 1.248 . S
C201 O202 1.264 . S
C201 O209 1.249 . S
O202 C201 1.264 . S
O203 Mg196 1.986 . S
O203 C207 1.246 . S
O204 Mg199 2.032 . S
O204 C207 1.259 . S
O205 Mg196 2.114 . S
O205 C208 1.252 . S
O206 Mg196 2.251 . S
O206 Mg199 2.079 . S
O206 C208 1.273 . S
C207 O203 1.246 . S
C207 O204 1.259 . S
C208 O205 1.252 . S
C208 O206 1.273 . S
O209 Mg196 2.010 . S
O209 C201 1.249 . S
Mg210 O211 2.028 . S
Mg210 O217 1.986 . S
Mg210 O219 2.114 . S
Mg210 O220 2.251 . S
Mg210 O223 2.010 . S
O211 Mg210 2.028 . S
O211 C214 1.250 . S
O212 Mg213 2.028 . S
O212 C214 1.248 . S
Mg213 O212 2.028 . S
Mg213 O218 2.032 . S
Mg213 O220 2.079 . S
C214 O211 1.250 . S
C214 O212 1.248 . S
C215 O216 1.264 . S
C215 O223 1.249 . S
O216 C215 1.264 . S
O217 Mg210 1.986 . S
O217 C221 1.246 . S
O218 Mg213 2.032 . S
O218 C221 1.259 . S
O219 Mg210 2.114 . S
O219 C222 1.252 . S
O220 Mg210 2.251 . S
O220 Mg213 2.079 . S
O220 C222 1.273 . S
C221 O217 1.246 . S
C221 O218 1.259 . S
C222 O219 1.252 . S
C222 O220 1.273 . S
O223 Mg210 2.010 . S
O223 C215 1.249 . S
Mg224 O225 2.028 . S
Mg224 O231 1.986 . S
Mg224 O233 2.114 . S
Mg224 O234 2.251 . S
Mg224 O237 2.010 . S
O225 Mg224 2.028 . S
O225 C228 1.250 . S
O226 Mg227 2.028 . S
O226 C228 1.248 . S
Mg227 O226 2.028 . S
Mg227 O232 2.032 . S
Mg227 O234 2.079 . S
C228 O225 1.250 . S
C228 O226 1.248 . S
C229 O230 1.264 . S
C229 O237 1.249 . S
O230 C229 1.264 . S
O231 Mg224 1.986 . S
O231 C235 1.246 . S
O232 Mg227 2.032 . S
O232 C235 1.259 . S
O233 Mg224 2.114 . S
O233 C236 1.252 . S
O234 Mg224 2.251 . S
O234 Mg227 2.079 . S
O234 C236 1.273 . S
C235 O231 1.246 . S
C235 O232 1.259 . S
C236 O233 1.252 . S
C236 O234 1.273 . S
O237 Mg224 2.010 . S
O237 C229 1.249 . S
Mg238 O239 2.028 . S
Mg238 O245 1.986 . S
Mg238 O247 2.114 . S
Mg238 O248 2.251 . S
Mg238 O251 2.010 . S
O239 Mg238 2.028 . S
O239 C242 1.250 . S
O240 Mg241 2.028 . S
O240 C242 1.248 . S
Mg241 O240 2.028 . S
Mg241 O246 2.032 . S
Mg241 O248 2.079 . S
C242 O239 1.250 . S
C242 O240 1.248 . S
C243 O244 1.264 . S
C243 O251 1.249 . S
O244 C243 1.264 . S
O245 Mg238 1.986 . S
O245 C249 1.246 . S
O246 Mg241 2.032 . S
O246 C249 1.259 . S
O247 Mg238 2.114 . S
O247 C250 1.252 . S
O248 Mg238 2.251 . S
O248 Mg241 2.079 . S
O248 C250 1.273 . S
C249 O245 1.246 . S
C249 O246 1.259 . S
C250 O247 1.252 . S
C250 O248 1.273 . S
O251 Mg238 2.010 . S
O251 C243 1.249 . S
Mg252 O253 2.028 . S
Mg252 O259 1.986 . S
Mg252 O261 2.114 . S
Mg252 O262 2.251 . S
Mg252 O265 2.010 . S
O253 Mg252 2.028 . S
O253 C256 1.250 . S
O254 Mg255 2.028 . S
O254 C256 1.248 . S
Mg255 O254 2.028 . S
Mg255 O260 2.032 . S
Mg255 O262 2.079 . S
C256 O253 1.250 . S
C256 O254 1.248 . S
C257 O258 1.264 . S
C257 O265 1.249 . S
O258 C257 1.264 . S
O259 Mg252 1.986 . S
O259 C263 1.246 . S
O260 Mg255 2.032 . S
O260 C263 1.259 . S
O261 Mg252 2.114 . S
O261 C264 1.252 . S
O262 Mg252 2.251 . S
O262 Mg255 2.079 . S
O262 C264 1.273 . S
C263 O259 1.246 . S
C263 O260 1.259 . S
C264 O261 1.252 . S
C264 O262 1.273 . S
O265 Mg252 2.010 . S
O265 C257 1.249 . S
Mg266 O267 2.028 . S
Mg266 O273 1.986 . S
Mg266 O275 2.114 . S
Mg266 O276 2.251 . S
Mg266 O279 2.010 . S
O267 Mg266 2.028 . S
O267 C270 1.250 . S
O268 Mg269 2.028 . S
O268 C270 1.248 . S
Mg269 O268 2.028 . S
Mg269 O274 2.032 . S
Mg269 O276 2.079 . S
C270 O267 1.250 . S
C270 O268 1.248 . S
C271 O272 1.264 . S
C271 O279 1.249 . S
O272 C271 1.264 . S
O273 Mg266 1.986 . S
O273 C277 1.246 . S
O274 Mg269 2.032 . S
O274 C277 1.259 . S
O275 Mg266 2.114 . S
O275 C278 1.252 . S
O276 Mg266 2.251 . S
O276 Mg269 2.079 . S
O276 C278 1.273 . S
C277 O273 1.246 . S
C277 O274 1.259 . S
C278 O275 1.252 . S
C278 O276 1.273 . S
O279 Mg266 2.010 . S
O279 C271 1.249 . S
Mg280 O281 2.028 . S
Mg280 O287 1.986 . S
Mg280 O289 2.114 . S
Mg280 O290 2.251 . S
Mg280 O293 2.010 . S
O281 Mg280 2.028 . S
O281 C284 1.250 . S
O282 Mg283 2.028 . S
O282 C284 1.248 . S
Mg283 O282 2.028 . S
Mg283 O288 2.032 . S
Mg283 O290 2.079 . S
C284 O281 1.250 . S
C284 O282 1.248 . S
C285 O286 1.264 . S
C285 O293 1.249 . S
O286 C285 1.264 . S
O287 Mg280 1.986 . S
O287 C291 1.246 . S
O288 Mg283 2.032 . S
O288 C291 1.259 . S
O289 Mg280 2.114 . S
O289 C292 1.252 . S
O290 Mg280 2.251 . S
O290 Mg283 2.079 . S
O290 C292 1.273 . S
C291 O287 1.246 . S
C291 O288 1.259 . S
C292 O289 1.252 . S
C292 O290 1.273 . S
O293 Mg280 2.010 . S
O293 C285 1.249 . S
Mg294 O295 2.028 . S
Mg294 O301 1.986 . S
Mg294 O303 2.114 . S
Mg294 O304 2.251 . S
Mg294 O307 2.010 . S
O295 Mg294 2.028 . S
O295 C298 1.250 . S
O296 Mg297 2.028 . S
O296 C298 1.248 . S
Mg297 O296 2.028 . S
Mg297 O302 2.032 . S
Mg297 O304 2.079 . S
C298 O295 1.250 . S
C298 O296 1.248 . S
C299 O300 1.264 1_556 S
C299 O307 1.249 . S
O300 C299 1.264 1_554 S
O301 Mg294 1.986 . S
O301 C305 1.246 . S
O302 Mg297 2.032 . S
O302 C305 1.259 . S
O303 Mg294 2.114 . S
O303 C306 1.252 . S
O304 Mg294 2.251 . S
O304 Mg297 2.079 . S
O304 C306 1.273 . S
C305 O301 1.246 . S
C305 O302 1.259 . S
C306 O303 1.252 . S
C306 O304 1.273 . S
O307 Mg294 2.010 . S
O307 C299 1.249 . S
Mg308 O309 2.028 . S
Mg308 O315 1.986 . S
Mg308 O317 2.114 . S
Mg308 O318 2.251 . S
Mg308 O321 2.010 . S
O309 Mg308 2.028 . S
O309 C312 1.250 . S
O310 Mg311 2.028 . S
O310 C312 1.248 . S
Mg311 O310 2.028 . S
Mg311 O316 2.032 . S
Mg311 O318 2.079 . S
C312 O309 1.250 . S
C312 O310 1.248 . S
C313 O314 1.264 1_556 S
C313 O321 1.249 . S
O314 C313 1.264 1_554 S
O315 Mg308 1.986 . S
O315 C319 1.246 . S
O316 Mg311 2.032 . S
O316 C319 1.259 . S
O317 Mg308 2.114 . S
O317 C320 1.252 . S
O318 Mg308 2.251 . S
O318 Mg311 2.079 . S
O318 C320 1.273 . S
C319 O315 1.246 . S
C319 O316 1.259 . S
C320 O317 1.252 . S
C320 O318 1.273 . S
O321 Mg308 2.010 . S
O321 C313 1.249 . S
Mg322 O323 2.028 . S
Mg322 O329 1.986 . S
Mg322 O331 2.114 . S
Mg322 O332 2.251 . S
Mg322 O335 2.010 . S
O323 Mg322 2.028 . S
O323 C326 1.250 . S
O324 Mg325 2.028 . S
O324 C326 1.248 . S
Mg325 O324 2.028 . S
Mg325 O330 2.032 . S
Mg325 O332 2.079 . S
C326 O323 1.250 . S
C326 O324 1.248 . S
C327 O328 1.264 1_556 S
C327 O335 1.249 . S
O328 C327 1.264 1_554 S
O329 Mg322 1.986 . S
O329 C333 1.246 . S
O330 Mg325 2.032 . S
O330 C333 1.259 . S
O331 Mg322 2.114 . S
O331 C334 1.252 . S
O332 Mg322 2.251 . S
O332 Mg325 2.079 . S
O332 C334 1.273 . S
C333 O329 1.246 . S
C333 O330 1.259 . S
C334 O331 1.252 . S
C334 O332 1.273 . S
O335 Mg322 2.010 . S
O335 C327 1.249 . S
Mg336 O337 2.028 . S
Mg336 O343 1.986 . S
Mg336 O345 2.114 . S
Mg336 O346 2.251 . S
Mg336 O349 2.010 . S
O337 Mg336 2.028 . S
O337 C340 1.250 . S
O338 Mg339 2.028 . S
O338 C340 1.248 . S
Mg339 O338 2.028 . S
Mg339 O344 2.032 . S
Mg339 O346 2.079 . S
C340 O337 1.250 . S
C340 O338 1.248 . S
C341 O342 1.264 . S
C341 O349 1.249 . S
O342 C341 1.264 . S
O343 Mg336 1.986 . S
O343 C347 1.246 . S
O344 Mg339 2.032 . S
O344 C347 1.259 . S
O345 Mg336 2.114 . S
O345 C348 1.252 . S
O346 Mg336 2.251 . S
O346 Mg339 2.079 . S
O346 C348 1.273 . S
C347 O343 1.246 . S
C347 O344 1.259 . S
C348 O345 1.252 . S
C348 O346 1.273 . S
O349 Mg336 2.010 . S
O349 C341 1.249 . S
Mg350 O351 2.028 . S
Mg350 O357 1.986 . S
Mg350 O359 2.114 . S
Mg350 O360 2.251 . S
Mg350 O363 2.010 . S
O351 Mg350 2.028 . S
O351 C354 1.250 . S
O352 Mg353 2.028 . S
O352 C354 1.248 . S
Mg353 O352 2.028 . S
Mg353 O358 2.032 . S
Mg353 O360 2.079 . S
C354 O351 1.250 . S
C354 O352 1.248 . S
C355 O356 1.264 . S
C355 O363 1.249 . S
O356 C355 1.264 . S
O357 Mg350 1.986 . S
O357 C361 1.246 . S
O358 Mg353 2.032 . S
O358 C361 1.259 . S
O359 Mg350 2.114 . S
O359 C362 1.252 . S
O360 Mg350 2.251 . S
O360 Mg353 2.079 . S
O360 C362 1.273 . S
C361 O357 1.246 . S
C361 O358 1.259 . S
C362 O359 1.252 . S
C362 O360 1.273 . S
O363 Mg350 2.010 . S
O363 C355 1.249 . S
Mg364 O365 2.028 . S
Mg364 O371 1.986 . S
Mg364 O373 2.114 . S
Mg364 O374 2.251 . S
Mg364 O377 2.010 . S
O365 Mg364 2.028 . S
O365 C368 1.250 . S
O366 Mg367 2.028 . S
O366 C368 1.248 . S
Mg367 O366 2.028 . S
Mg367 O372 2.032 . S
Mg367 O374 2.079 . S
C368 O365 1.250 . S
C368 O366 1.248 . S
C369 O370 1.264 . S
C369 O377 1.249 . S
O370 C369 1.264 . S
O371 Mg364 1.986 . S
O371 C375 1.246 . S
O372 Mg367 2.032 . S
O372 C375 1.259 . S
O373 Mg364 2.114 . S
O373 C376 1.252 . S
O374 Mg364 2.251 . S
O374 Mg367 2.079 . S
O374 C376 1.273 . S
C375 O371 1.246 . S
C375 O372 1.259 . S
C376 O373 1.252 . S
C376 O374 1.273 . S
O377 Mg364 2.010 . S
O377 C369 1.249 . S
Mg378 O379 2.028 . S
Mg378 O385 1.986 . S
Mg378 O387 2.114 . S
Mg378 O388 2.251 . S
Mg378 O391 2.010 . S
O379 Mg378 2.028 . S
O379 C382 1.250 . S
O380 Mg381 2.028 . S
O380 C382 1.248 . S
Mg381 O380 2.028 . S
Mg381 O386 2.032 . S
Mg381 O388 2.079 . S
C382 O379 1.250 . S
C382 O380 1.248 . S
C383 O384 1.264 . S
C383 O391 1.249 . S
O384 C383 1.264 . S
O385 Mg378 1.986 . S
O385 C389 1.246 . S
O386 Mg381 2.032 . S
O386 C389 1.259 . S
O387 Mg378 2.114 . S
O387 C390 1.252 . S
O388 Mg378 2.251 . S
O388 Mg381 2.079 . S
O388 C390 1.273 . S
C389 O385 1.246 . S
C389 O386 1.259 . S
C390 O387 1.252 . S
C390 O388 1.273 . S
O391 Mg378 2.010 . S
O391 C383 1.249 . S
Mg392 O393 2.028 . S
Mg392 O399 1.986 . S
Mg392 O401 2.114 . S
Mg392 O402 2.251 . S
Mg392 O405 2.010 . S
O393 Mg392 2.028 . S
O393 C396 1.250 . S
O394 Mg395 2.028 . S
O394 C396 1.248 . S
Mg395 O394 2.028 . S
Mg395 O400 2.032 . S
Mg395 O402 2.079 . S
C396 O393 1.250 . S
C396 O394 1.248 . S
C397 O398 1.264 . S
C397 O405 1.249 . S
O398 C397 1.264 . S
O399 Mg392 1.986 . S
O399 C403 1.246 . S
O400 Mg395 2.032 . S
O400 C403 1.259 . S
O401 Mg392 2.114 . S
O401 C404 1.252 . S
O402 Mg392 2.251 . S
O402 Mg395 2.079 . S
O402 C404 1.273 . S
C403 O399 1.246 . S
C403 O400 1.259 . S
C404 O401 1.252 . S
C404 O402 1.273 . S
O405 Mg392 2.010 . S
O405 C397 1.249 . S
Mg406 O407 2.028 . S
Mg406 O413 1.986 . S
Mg406 O415 2.114 . S
Mg406 O416 2.251 . S
Mg406 O419 2.010 . S
O407 Mg406 2.028 . S
O407 C410 1.250 . S
O408 Mg409 2.028 . S
O408 C410 1.248 . S
Mg409 O408 2.028 . S
Mg409 O414 2.032 . S
Mg409 O416 2.079 . S
C410 O407 1.250 . S
C410 O408 1.248 . S
C411 O412 1.264 . S
C411 O419 1.249 . S
O412 C411 1.264 . S
O413 Mg406 1.986 . S
O413 C417 1.246 . S
O414 Mg409 2.032 . S
O414 C417 1.259 . S
O415 Mg406 2.114 . S
O415 C418 1.252 . S
O416 Mg406 2.251 . S
O416 Mg409 2.079 . S
O416 C418 1.273 . S
C417 O413 1.246 . S
C417 O414 1.259 . S
C418 O415 1.252 . S
C418 O416 1.273 . S
O419 Mg406 2.010 . S
O419 C411 1.249 . S
Mg420 O421 2.028 . S
Mg420 O427 1.986 . S
Mg420 O429 2.114 . S
Mg420 O430 2.251 . S
Mg420 O433 2.010 . S
O421 Mg420 2.028 . S
O421 C424 1.250 . S
O422 Mg423 2.028 . S
O422 C424 1.248 . S
Mg423 O422 2.028 . S
Mg423 O428 2.032 . S
Mg423 O430 2.079 . S
C424 O421 1.250 . S
C424 O422 1.248 . S
C425 O426 1.264 . S
C425 O433 1.249 . S
O426 C425 1.264 . S
O427 Mg420 1.986 . S
O427 C431 1.246 . S
O428 Mg423 2.032 . S
O428 C431 1.259 . S
O429 Mg420 2.114 . S
O429 C432 1.252 . S
O430 Mg420 2.251 . S
O430 Mg423 2.079 . S
O430 C432 1.273 . S
C431 O427 1.246 . S
C431 O428 1.259 . S
C432 O429 1.252 . S
C432 O430 1.273 . S
O433 Mg420 2.010 . S
O433 C425 1.249 . S
Mg434 O435 2.028 . S
Mg434 O441 1.986 . S
Mg434 O443 2.114 . S
Mg434 O444 2.251 . S
Mg434 O447 2.010 . S
O435 Mg434 2.028 . S
O435 C438 1.250 . S
O436 Mg437 2.028 . S
O436 C438 1.248 . S
Mg437 O436 2.028 . S
Mg437 O442 2.032 . S
Mg437 O444 2.079 . S
C438 O435 1.250 . S
C438 O436 1.248 . S
C439 O440 1.264 . S
C439 O447 1.249 . S
O440 C439 1.264 . S
O441 Mg434 1.986 . S
O441 C445 1.246 . S
O442 Mg437 2.032 . S
O442 C445 1.259 . S
O443 Mg434 2.114 . S
O443 C446 1.252 . S
O444 Mg434 2.251 . S
O444 Mg437 2.079 . S
O444 C446 1.273 . S
C445 O441 1.246 . S
C445 O442 1.259 . S
C446 O443 1.252 . S
C446 O444 1.273 . S
O447 Mg434 2.010 . S
O447 C439 1.249 . S
Mg448 O449 2.028 . S
Mg448 O455 1.986 . S
Mg448 O457 2.114 . S
Mg448 O458 2.251 . S
Mg448 O461 2.010 . S
O449 Mg448 2.028 . S
O449 C452 1.250 . S
O450 Mg451 2.028 . S
O450 C452 1.248 . S
Mg451 O450 2.028 . S
Mg451 O456 2.032 . S
Mg451 O458 2.079 . S
C452 O449 1.250 . S
C452 O450 1.248 . S
C453 O454 1.264 . S
C453 O461 1.249 . S
O454 C453 1.264 . S
O455 Mg448 1.986 . S
O455 C459 1.246 . S
O456 Mg451 2.032 . S
O456 C459 1.259 . S
O457 Mg448 2.114 . S
O457 C460 1.252 . S
O458 Mg448 2.251 . S
O458 Mg451 2.079 . S
O458 C460 1.273 . S
C459 O455 1.246 . S
C459 O456 1.259 . S
C460 O457 1.252 . S
C460 O458 1.273 . S
O461 Mg448 2.010 . S
O461 C453 1.249 . S
Mg462 O463 2.028 . S
Mg462 O469 1.986 . S
Mg462 O471 2.114 . S
Mg462 O472 2.251 . S
Mg462 O475 2.010 . S
O463 Mg462 2.028 . S
O463 C466 1.250 . S
O464 Mg465 2.028 . S
O464 C466 1.248 . S
Mg465 O464 2.028 . S
Mg465 O470 2.032 . S
Mg465 O472 2.079 . S
C466 O463 1.250 . S
C466 O464 1.248 . S
C467 O468 1.264 . S
C467 O475 1.249 . S
O468 C467 1.264 . S
O469 Mg462 1.986 . S
O469 C473 1.246 . S
O470 Mg465 2.032 . S
O470 C473 1.259 . S
O471 Mg462 2.114 . S
O471 C474 1.252 . S
O472 Mg462 2.251 . S
O472 Mg465 2.079 . S
O472 C474 1.273 . S
C473 O469 1.246 . S
C473 O470 1.259 . S
C474 O471 1.252 . S
C474 O472 1.273 . S
O475 Mg462 2.010 . S
O475 C467 1.249 . S
Mg476 O477 2.028 . S
Mg476 O483 1.986 . S
Mg476 O485 2.114 . S
Mg476 O486 2.251 . S
Mg476 O489 2.010 . S
O477 Mg476 2.028 . S
O477 C480 1.250 . S
O478 Mg479 2.028 . S
O478 C480 1.248 . S
Mg479 O478 2.028 . S
Mg479 O484 2.032 . S
Mg479 O486 2.079 . S
C480 O477 1.250 . S
C480 O478 1.248 . S
C481 O482 1.264 . S
C481 O489 1.249 . S
O482 C481 1.264 . S
O483 Mg476 1.986 . S
O483 C487 1.246 . S
O484 Mg479 2.032 . S
O484 C487 1.259 . S
O485 Mg476 2.114 . S
O485 C488 1.252 . S
O486 Mg476 2.251 . S
O486 Mg479 2.079 . S
O486 C488 1.273 . S
C487 O483 1.246 . S
C487 O484 1.259 . S
C488 O485 1.252 . S
C488 O486 1.273 . S
O489 Mg476 2.010 . S
O489 C481 1.249 . S
Mg490 O491 2.028 . S
Mg490 O497 1.986 . S
Mg490 O499 2.114 . S
Mg490 O500 2.251 . S
Mg490 O503 2.010 . S
O491 Mg490 2.028 . S
O491 C494 1.250 . S
O492 Mg493 2.028 . S
O492 C494 1.248 . S
Mg493 O492 2.028 . S
Mg493 O498 2.032 . S
Mg493 O500 2.079 . S
C494 O491 1.250 . S
C494 O492 1.248 . S
C495 O496 1.264 . S
C495 O503 1.249 . S
O496 C495 1.264 . S
O497 Mg490 1.986 . S
O497 C501 1.246 . S
O498 Mg493 2.032 . S
O498 C501 1.259 . S
O499 Mg490 2.114 . S
O499 C502 1.252 . S
O500 Mg490 2.251 . S
O500 Mg493 2.079 . S
O500 C502 1.273 . S
C501 O497 1.246 . S
C501 O498 1.259 . S
C502 O499 1.252 . S
C502 O500 1.273 . S
O503 Mg490 2.010 . S
O503 C495 1.249 . S
H504 C510 0.930 . S
H505 C513 0.930 . S
H506 C514 0.930 . S
H507 C515 0.930 . S
H508 C518 0.930 1_554 S
H509 C519 0.930 . S
C510 H504 0.930 . S
C510 C511 1.355 . S
C510 C512 1.415 . S
C511 C510 1.355 . S
C511 C513 1.419 . S
C512 C510 1.415 . S
C512 C517 1.425 . S
C512 C519 1.409 . S
C513 H505 0.930 . S
C513 C511 1.419 . S
C513 C514 1.362 . S
C514 H506 0.930 . S
C514 C513 1.362 . S
C514 C517 1.409 . S
C515 H507 0.930 . S
C515 C516 1.355 . S
C515 C517 1.415 . S
C516 C515 1.355 . S
C516 C518 1.419 . S
C517 C512 1.425 . S
C517 C514 1.409 . S
C517 C515 1.415 . S
C518 H508 0.930 1_556 S
C518 C516 1.419 . S
C518 C519 1.362 . S
C519 H509 0.930 . S
C519 C512 1.409 . S
C519 C518 1.362 . S
H520 C526 0.930 . S
H521 C529 0.930 . S
H522 C530 0.930 . S
H523 C531 0.930 . S
H524 C534 0.930 . S
H525 C535 0.930 . S
C526 H520 0.930 . S
C526 C527 1.355 . S
C526 C528 1.415 . S
C527 C526 1.355 . S
C527 C529 1.419 . S
C528 C526 1.415 . S
C528 C533 1.425 . S
C528 C535 1.409 . S
C529 H521 0.930 . S
C529 C527 1.419 . S
C529 C530 1.362 . S
C530 H522 0.930 . S
C530 C529 1.362 . S
C530 C533 1.409 . S
C531 H523 0.930 . S
C531 C532 1.355 . S
C531 C533 1.415 . S
C532 C531 1.355 . S
C532 C534 1.419 . S
C533 C528 1.425 . S
C533 C530 1.409 . S
C533 C531 1.415 . S
C534 H524 0.930 . S
C534 C532 1.419 . S
C534 C535 1.362 . S
C535 H525 0.930 . S
C535 C528 1.409 . S
C535 C534 1.362 . S
H536 C542 0.930 . S
H537 C545 0.930 1_455 S
H538 C546 0.930 . S
H539 C547 0.930 . S
H540 C550 0.930 . S
H541 C551 0.930 . S
C542 H536 0.930 . S
C542 C543 1.355 . S
C542 C544 1.415 . S
C543 C542 1.355 . S
C543 C545 1.419 . S
C544 C542 1.415 . S
C544 C549 1.425 . S
C544 C551 1.409 . S
C545 H537 0.930 1_655 S
C545 C543 1.419 . S
C545 C546 1.362 . S
C546 H538 0.930 . S
C546 C545 1.362 . S
C546 C549 1.409 . S
C547 H539 0.930 . S
C547 C548 1.355 . S
C547 C549 1.415 . S
C548 C547 1.355 . S
C548 C550 1.419 . S
C549 C544 1.425 . S
C549 C546 1.409 . S
C549 C547 1.415 . S
C550 H540 0.930 . S
C550 C548 1.419 . S
C550 C551 1.362 . S
C551 H541 0.930 . S
C551 C544 1.409 . S
C551 C550 1.362 . S
H552 C558 0.930 . S
H553 C561 0.930 . S
H554 C562 0.930 . S
H555 C563 0.930 . S
H556 C566 0.930 . S
H557 C567 0.930 . S
C558 H552 0.930 . S
C558 C559 1.355 . S
C558 C560 1.415 . S
C559 C558 1.355 . S
C559 C561 1.419 . S
C560 C558 1.415 . S
C560 C565 1.425 . S
C560 C567 1.409 . S
C561 H553 0.930 . S
C561 C559 1.419 . S
C561 C562 1.362 . S
C562 H554 0.930 . S
C562 C561 1.362 . S
C562 C565 1.409 . S
C563 H555 0.930 . S
C563 C564 1.355 . S
C563 C565 1.415 . S
C564 C563 1.355 . S
C564 C566 1.419 . S
C565 C560 1.425 . S
C565 C562 1.409 . S
C565 C563 1.415 . S
C566 H556 0.930 . S
C566 C564 1.419 . S
C566 C567 1.362 . S
C567 H557 0.930 . S
C567 C560 1.409 . S
C567 C566 1.362 . S
H568 C574 0.930 . S
H569 C577 0.930 . S
H570 C578 0.930 . S
H571 C579 0.930 . S
H572 C582 0.930 . S
H573 C583 0.930 . S
C574 H568 0.930 . S
C574 C575 1.355 . S
C574 C576 1.415 . S
C575 C574 1.355 . S
C575 C577 1.419 . S
C576 C574 1.415 . S
C576 C581 1.425 . S
C576 C583 1.409 . S
C577 H569 0.930 . S
C577 C575 1.419 . S
C577 C578 1.362 . S
C578 H570 0.930 . S
C578 C577 1.362 . S
C578 C581 1.409 . S
C579 H571 0.930 . S
C579 C580 1.355 . S
C579 C581 1.415 . S
C580 C579 1.355 . S
C580 C582 1.419 . S
C581 C576 1.425 . S
C581 C578 1.409 . S
C581 C579 1.415 . S
C582 H572 0.930 . S
C582 C580 1.419 . S
C582 C583 1.362 . S
C583 H573 0.930 . S
C583 C576 1.409 . S
C583 C582 1.362 . S
H584 C590 0.930 . S
H585 C593 0.930 . S
H586 C594 0.930 . S
H587 C595 0.930 . S
H588 C598 0.930 . S
H589 C599 0.930 . S
C590 H584 0.930 . S
C590 C591 1.355 . S
C590 C592 1.415 . S
C591 C590 1.355 . S
C591 C593 1.419 . S
C592 C590 1.415 . S
C592 C597 1.425 . S
C592 C599 1.409 . S
C593 H585 0.930 . S
C593 C591 1.419 . S
C593 C594 1.362 . S
C594 H586 0.930 . S
C594 C593 1.362 . S
C594 C597 1.409 . S
C595 H587 0.930 . S
C595 C596 1.355 . S
C595 C597 1.415 . S
C596 C595 1.355 . S
C596 C598 1.419 . S
C597 C592 1.425 . S
C597 C594 1.409 . S
C597 C595 1.415 . S
C598 H588 0.930 . S
C598 C596 1.419 . S
C598 C599 1.362 . S
C599 H589 0.930 . S
C599 C592 1.409 . S
C599 C598 1.362 . S
H600 C606 0.930 . S
H601 C609 0.930 . S
H602 C610 0.930 . S
H603 C611 0.930 . S
H604 C614 0.930 1_556 S
H605 C615 0.930 . S
C606 H600 0.930 . S
C606 C607 1.355 . S
C606 C608 1.415 . S
C607 C606 1.355 . S
C607 C609 1.419 . S
C608 C606 1.415 . S
C608 C613 1.425 . S
C608 C615 1.409 . S
C609 H601 0.930 . S
C609 C607 1.419 . S
C609 C610 1.362 . S
C610 H602 0.930 . S
C610 C609 1.362 . S
C610 C613 1.409 . S
C611 H603 0.930 . S
C611 C612 1.355 . S
C611 C613 1.415 . S
C612 C611 1.355 . S
C612 C614 1.419 . S
C613 C608 1.425 . S
C613 C610 1.409 . S
C613 C611 1.415 . S
C614 H604 0.930 1_554 S
C614 C612 1.419 . S
C614 C615 1.362 . S
C615 H605 0.930 . S
C615 C608 1.409 . S
C615 C614 1.362 . S
H616 C622 0.930 . S
H617 C625 0.930 . S
H618 C626 0.930 . S
H619 C627 0.930 1_545 S
H620 C630 0.930 . S
H621 C631 0.930 . S
C622 H616 0.930 . S
C622 C623 1.355 . S
C622 C624 1.415 . S
C623 C622 1.355 . S
C623 C625 1.419 . S
C624 C622 1.415 . S
C624 C629 1.425 . S
C624 C631 1.409 . S
C625 H617 0.930 . S
C625 C623 1.419 . S
C625 C626 1.362 . S
C626 H618 0.930 . S
C626 C625 1.362 . S
C626 C629 1.409 . S
C627 H619 0.930 1_565 S
C627 C628 1.355 . S
C627 C629 1.415 . S
C628 C627 1.355 . S
C628 C630 1.419 . S
C629 C624 1.425 . S
C629 C626 1.409 . S
C629 C627 1.415 . S
C630 H620 0.930 . S
C630 C628 1.419 . S
C630 C631 1.362 . S
C631 H621 0.930 . S
C631 C624 1.409 . S
C631 C630 1.362 . S
H632 C638 0.930 . S
H633 C641 0.930 . S
H634 C642 0.930 . S
H635 C643 0.930 . S
H636 C646 0.930 1_655 S
H637 C647 0.930 . S
C638 H632 0.930 . S
C638 C639 1.355 . S
C638 C640 1.415 . S
C639 C638 1.355 . S
C639 C641 1.419 . S
C640 C638 1.415 . S
C640 C645 1.425 . S
C640 C647 1.409 . S
C641 H633 0.930 . S
C641 C639 1.419 . S
C641 C642 1.362 . S
C642 H634 0.930 . S
C642 C641 1.362 . S
C642 C645 1.409 . S
C643 H635 0.930 . S
C643 C644 1.355 . S
C643 C645 1.415 . S
C644 C643 1.355 . S
C644 C646 1.419 . S
C645 C640 1.425 . S
C645 C642 1.409 . S
C645 C643 1.415 . S
C646 H636 0.930 1_455 S
C646 C644 1.419 . S
C646 C647 1.362 . S
C647 H637 0.930 . S
C647 C640 1.409 . S
C647 C646 1.362 . S
H648 C654 0.930 . S
H649 C657 0.930 . S
H650 C658 0.930 . S
H651 C659 0.930 . S
H652 C662 0.930 . S
H653 C663 0.930 . S
C654 H648 0.930 . S
C654 C655 1.355 . S
C654 C656 1.415 . S
C655 C654 1.355 . S
C655 C657 1.419 . S
C656 C654 1.415 . S
C656 C661 1.425 . S
C656 C663 1.409 . S
C657 H649 0.930 . S
C657 C655 1.419 . S
C657 C658 1.362 . S
C658 H650 0.930 . S
C658 C657 1.362 . S
C658 C661 1.409 . S
C659 H651 0.930 . S
C659 C660 1.355 . S
C659 C661 1.415 . S
C660 C659 1.355 . S
C660 C662 1.419 . S
C661 C656 1.425 . S
C661 C658 1.409 . S
C661 C659 1.415 . S
C662 H652 0.930 . S
C662 C660 1.419 . S
C662 C663 1.362 . S
C663 H653 0.930 . S
C663 C656 1.409 . S
C663 C662 1.362 . S
H664 C670 0.930 . S
H665 C673 0.930 . S
H666 C674 0.930 . S
H667 C675 0.930 . S
H668 C678 0.930 . S
H669 C679 0.930 . S
C670 H664 0.930 . S
C670 C671 1.355 . S
C670 C672 1.415 . S
C671 C670 1.355 . S
C671 C673 1.419 . S
C672 C670 1.415 . S
C672 C677 1.425 . S
C672 C679 1.409 . S
C673 H665 0.930 . S
C673 C671 1.419 . S
C673 C674 1.362 . S
C674 H666 0.930 . S
C674 C673 1.362 . S
C674 C677 1.409 . S
C675 H667 0.930 . S
C675 C676 1.355 . S
C675 C677 1.415 . S
C676 C675 1.355 . S
C676 C678 1.419 . S
C677 C672 1.425 . S
C677 C674 1.409 . S
C677 C675 1.415 . S
C678 H668 0.930 . S
C678 C676 1.419 . S
C678 C679 1.362 . S
C679 H669 0.930 . S
C679 C672 1.409 . S
C679 C678 1.362 . S
H680 C686 0.930 . S
H681 C689 0.930 . S
H682 C690 0.930 . S
H683 C691 0.930 . S
H684 C694 0.930 1_455 S
H685 C695 0.930 1_455 S
C686 H680 0.930 . S
C686 C687 1.355 . S
C686 C688 1.415 . S
C687 C686 1.355 . S
C687 C689 1.419 . S
C688 C686 1.415 . S
C688 C693 1.425 . S
C688 C695 1.409 . S
C689 H681 0.930 . S
C689 C687 1.419 . S
C689 C690 1.362 . S
C690 H682 0.930 . S
C690 C689 1.362 . S
C690 C693 1.409 . S
C691 H683 0.930 . S
C691 C692 1.355 . S
C691 C693 1.415 . S
C692 C691 1.355 . S
C692 C694 1.419 . S
C693 C688 1.425 . S
C693 C690 1.409 . S
C693 C691 1.415 . S
C694 H684 0.930 1_655 S
C694 C692 1.419 . S
C694 C695 1.362 . S
C695 H685 0.930 1_655 S
C695 C688 1.409 . S
C695 C694 1.362 . S
H696 C702 0.930 . S
H697 C705 0.930 . S
H698 C706 0.930 . S
H699 C707 0.930 . S
H700 C710 0.930 . S
H701 C711 0.930 . S
C702 H696 0.930 . S
C702 C703 1.355 . S
C702 C704 1.415 . S
C703 C702 1.355 . S
C703 C705 1.419 . S
C704 C702 1.415 . S
C704 C709 1.425 1_455 S
C704 C711 1.409 . S
C705 H697 0.930 . S
C705 C703 1.419 . S
C705 C706 1.362 1_455 S
C706 H698 0.930 . S
C706 C705 1.362 1_655 S
C706 C709 1.409 . S
C707 H699 0.930 . S
C707 C708 1.355 . S
C707 C709 1.415 . S
C708 C707 1.355 . S
C708 C710 1.419 . S
C709 C704 1.425 1_655 S
C709 C706 1.409 . S
C709 C707 1.415 . S
C710 H700 0.930 . S
C710 C708 1.419 . S
C710 C711 1.362 1_655 S
C711 H701 0.930 . S
C711 C704 1.409 . S
C711 C710 1.362 1_455 S
H712 C718 0.930 . S
H713 C721 0.930 . S
H714 C722 0.930 . S
H715 C723 0.930 . S
H716 C726 0.930 . S
H717 C727 0.930 . S
C718 H712 0.930 . S
C718 C719 1.355 . S
C718 C720 1.415 . S
C719 C718 1.355 . S
C719 C721 1.419 . S
C720 C718 1.415 . S
C720 C725 1.425 . S
C720 C727 1.409 . S
C721 H713 0.930 . S
C721 C719 1.419 . S
C721 C722 1.362 . S
C722 H714 0.930 . S
C722 C721 1.362 . S
C722 C725 1.409 . S
C723 H715 0.930 . S
C723 C724 1.355 . S
C723 C725 1.415 . S
C724 C723 1.355 . S
C724 C726 1.419 . S
C725 C720 1.425 . S
C725 C722 1.409 . S
C725 C723 1.415 . S
C726 H716 0.930 . S
C726 C724 1.419 . S
C726 C727 1.362 . S
C727 H717 0.930 . S
C727 C720 1.409 . S
C727 C726 1.362 . S
H728 C734 0.930 . S
H729 C737 0.930 . S
H730 C738 0.930 . S
H731 C739 0.930 . S
H732 C742 0.930 . S
H733 C743 0.930 1_565 S
C734 H728 0.930 . S
C734 C735 1.355 . S
C734 C736 1.417 1_565 S
C735 C734 1.355 . S
C735 C737 1.419 . S
C736 C734 1.417 1_545 S
C736 C741 1.425 . S
C736 C743 1.407 . S
C737 H729 0.930 . S
C737 C735 1.419 . S
C737 C738 1.362 1_565 S
C738 H730 0.930 . S
C738 C737 1.362 1_545 S
C738 C741 1.409 . S
C739 H731 0.930 . S
C739 C740 1.355 . S
C739 C741 1.415 . S
C740 C739 1.355 . S
C740 C742 1.419 . S
C741 C736 1.425 . S
C741 C738 1.409 . S
C741 C739 1.415 . S
C742 H732 0.930 . S
C742 C740 1.419 . S
C742 C743 1.362 . S
C743 H733 0.930 1_545 S
C743 C736 1.407 . S
C743 C742 1.362 . S
H744 C750 0.930 . S
H745 C753 0.930 . S
H746 C754 0.930 . S
H747 C755 0.930 . S
H748 C758 0.930 . S
H749 C759 0.930 . S
C750 H744 0.930 . S
C750 C751 1.355 . S
C750 C752 1.415 1_565 S
C751 C750 1.355 . S
C751 C753 1.419 . S
C752 C750 1.415 1_545 S
C752 C757 1.425 . S
C752 C759 1.409 . S
C753 H745 0.930 . S
C753 C751 1.419 . S
C753 C754 1.362 . S
C754 H746 0.930 . S
C754 C753 1.362 . S
C754 C757 1.409 1_565 S
C755 H747 0.930 . S
C755 C756 1.355 . S
C755 C757 1.415 . S
C756 C755 1.355 . S
C756 C758 1.419 . S
C757 C752 1.425 . S
C757 C754 1.409 1_545 S
C757 C755 1.415 . S
C758 H748 0.930 . S
C758 C756 1.419 . S
C758 C759 1.362 . S
C759 H749 0.930 . S
C759 C752 1.409 . S
C759 C758 1.362 . S
H760 C766 0.930 . S
H761 C769 0.930 . S
H762 C770 0.930 . S
H763 C771 0.930 . S
H764 C774 0.930 . S
H765 C775 0.930 . S
C766 H760 0.930 . S
C766 C767 1.355 . S
C766 C768 1.415 . S
C767 C766 1.355 . S
C767 C769 1.419 . S
C768 C766 1.415 . S
C768 C773 1.425 1_455 S
C768 C775 1.409 . S
C769 H761 0.930 . S
C769 C767 1.419 . S
C769 C770 1.362 1_455 S
C770 H762 0.930 . S
C770 C769 1.362 1_655 S
C770 C773 1.409 . S
C771 H763 0.930 . S
C771 C772 1.355 . S
C771 C773 1.415 . S
C772 C771 1.355 . S
C772 C774 1.419 . S
C773 C768 1.425 1_655 S
C773 C770 1.409 . S
C773 C771 1.415 . S
C774 H764 0.930 . S
C774 C772 1.419 . S
C774 C775 1.362 1_655 S
C775 H765 0.930 . S
C775 C768 1.409 . S
C775 C774 1.362 1_455 S
H776 C782 0.930 . S
H777 C785 0.930 . S
H778 C786 0.930 . S
H779 C787 0.930 . S
H780 C790 0.930 . S
H781 C791 0.930 . S
C782 H776 0.930 . S
C782 C783 1.355 . S
C782 C784 1.415 . S
C783 C782 1.355 . S
C783 C785 1.419 . S
C784 C782 1.415 . S
C784 C789 1.425 . S
C784 C791 1.409 . S
C785 H777 0.930 . S
C785 C783 1.419 . S
C785 C786 1.362 . S
C786 H778 0.930 . S
C786 C785 1.362 . S
C786 C789 1.409 . S
C787 H779 0.930 . S
C787 C788 1.355 . S
C787 C789 1.415 . S
C788 C787 1.355 . S
C788 C790 1.419 . S
C789 C784 1.425 . S
C789 C786 1.409 . S
C789 C787 1.415 . S
C790 H780 0.930 . S
C790 C788 1.419 . S
C790 C791 1.362 . S
C791 H781 0.930 . S
C791 C784 1.409 . S
C791 C790 1.362 . S
H792 C798 0.930 . S
H793 C801 0.934 . S
H794 C802 0.930 . S
H795 C803 0.930 . S
H796 C806 0.930 . S
H797 C807 0.930 . S
C798 H792 0.930 . S
C798 C799 1.355 . S
C798 C800 1.415 . S
C799 C798 1.355 . S
C799 C801 1.419 . S
C800 C798 1.415 . S
C800 C805 1.425 . S
C800 C807 1.409 . S
C801 H793 0.934 . S
C801 C799 1.419 . S
C801 C802 1.362 . S
C802 H794 0.930 . S
C802 C801 1.362 . S
C802 C805 1.409 . S
C803 H795 0.930 . S
C803 C804 1.355 . S
C803 C805 1.415 . S
C804 C803 1.355 . S
C804 C806 1.419 . S
C805 C800 1.425 . S
C805 C802 1.409 . S
C805 C803 1.415 . S
C806 H796 0.930 . S
C806 C804 1.419 . S
C806 C807 1.362 . S
C807 H797 0.930 . S
C807 C800 1.409 . S
C807 C806 1.362 . S
H808 C814 0.930 . S
H809 C817 0.930 . S
H810 C818 0.930 . S
H811 C819 0.930 1_556 S
H812 C822 0.930 . S
H813 C823 0.930 . S
C814 H808 0.930 . S
C814 C815 1.355 . S
C814 C816 1.415 . S
C815 C814 1.355 . S
C815 C817 1.419 1_554 S
C816 C814 1.415 . S
C816 C821 1.425 . S
C816 C823 1.409 . S
C817 H809 0.930 . S
C817 C815 1.419 1_556 S
C817 C818 1.362 . S
C818 H810 0.930 . S
C818 C817 1.362 . S
C818 C821 1.409 1_556 S
C819 H811 0.930 1_554 S
C819 C820 1.355 . S
C819 C821 1.415 . S
C820 C819 1.355 . S
C820 C822 1.419 . S
C821 C816 1.425 . S
C821 C818 1.409 1_554 S
C821 C819 1.415 . S
C822 H812 0.930 . S
C822 C820 1.419 . S
C822 C823 1.362 . S
C823 H813 0.930 . S
C823 C816 1.409 . S
C823 C822 1.362 . S
H824 C830 0.930 . S
H825 C833 0.930 . S
H826 C834 0.930 . S
H827 C835 0.930 . S
H828 C838 0.930 . S
H829 C839 0.930 . S
C830 H824 0.930 . S
C830 C831 1.355 1_554 S
C830 C832 1.415 . S
C831 C830 1.355 1_556 S
C831 C833 1.419 . S
C832 C830 1.415 . S
C832 C837 1.425 1_554 S
C832 C839 1.409 . S
C833 H825 0.930 . S
C833 C831 1.419 . S
C833 C834 1.362 . S
C834 H826 0.930 . S
C834 C833 1.362 . S
C834 C837 1.409 . S
C835 H827 0.930 . S
C835 C836 1.355 1_556 S
C835 C837 1.415 . S
C836 C835 1.355 1_554 S
C836 C838 1.419 . S
C837 C832 1.425 1_556 S
C837 C834 1.409 . S
C837 C835 1.415 . S
C838 H828 0.930 . S
C838 C836 1.419 . S
C838 C839 1.362 . S
C839 H829 0.930 . S
C839 C832 1.409 . S
C839 C838 1.362 . S
H840 C846 0.930 . S
H841 C849 0.930 . S
H842 C850 0.930 . S
H843 C851 0.930 . S
H844 C854 0.930 . S
H845 C855 0.930 . S
C846 H840 0.930 . S
C846 C847 1.355 . S
C846 C848 1.415 . S
C847 C846 1.355 . S
C847 C849 1.419 . S
C848 C846 1.415 . S
C848 C853 1.425 . S
C848 C855 1.409 . S
C849 H841 0.930 . S
C849 C847 1.419 . S
C849 C850 1.362 . S
C850 H842 0.930 . S
C850 C849 1.362 . S
C850 C853 1.409 . S
C851 H843 0.930 . S
C851 C852 1.355 . S
C851 C853 1.415 . S
C852 C851 1.355 . S
C852 C854 1.419 . S
C853 C848 1.425 . S
C853 C850 1.409 . S
C853 C851 1.415 . S
C854 H844 0.930 . S
C854 C852 1.419 . S
C854 C855 1.362 . S
C855 H845 0.930 . S
C855 C848 1.409 . S
C855 C854 1.362 . S
H856 C862 0.930 . S
H857 C865 0.930 . S
H858 C866 0.930 . S
H859 C867 0.930 . S
H860 C870 0.930 . S
H861 C871 0.930 . S
C862 H856 0.930 . S
C862 C863 1.355 . S
C862 C864 1.415 . S
C863 C862 1.355 . S
C863 C865 1.419 . S
C864 C862 1.415 . S
C864 C869 1.425 . S
C864 C871 1.409 . S
C865 H857 0.930 . S
C865 C863 1.419 . S
C865 C866 1.362 . S
C866 H858 0.930 . S
C866 C865 1.362 . S
C866 C869 1.409 . S
C867 H859 0.930 . S
C867 C868 1.355 . S
C867 C869 1.415 . S
C868 C867 1.355 . S
C868 C870 1.419 . S
C869 C864 1.425 . S
C869 C866 1.409 . S
C869 C867 1.415 . S
C870 H860 0.930 . S
C870 C868 1.419 . S
C870 C871 1.362 . S
C871 H861 0.930 . S
C871 C864 1.409 . S
C871 C870 1.362 . S
H872 C878 0.930 . S
H873 C881 0.930 . S
H874 C882 0.930 . S
H875 C883 0.930 . S
H876 C886 0.930 . S
H877 C887 0.930 . S
C878 H872 0.930 . S
C878 C879 1.355 . S
C878 C880 1.415 . S
C879 C878 1.355 . S
C879 C881 1.419 . S
C880 C878 1.415 . S
C880 C885 1.425 . S
C880 C887 1.409 . S
C881 H873 0.930 . S
C881 C879 1.419 . S
C881 C882 1.362 . S
C882 H874 0.930 . S
C882 C881 1.362 . S
C882 C885 1.409 . S
C883 H875 0.930 . S
C883 C884 1.355 . S
C883 C885 1.415 . S
C884 C883 1.355 . S
C884 C886 1.419 . S
C885 C880 1.425 . S
C885 C882 1.409 . S
C885 C883 1.415 . S
C886 H876 0.930 . S
C886 C884 1.419 . S
C886 C887 1.362 . S
C887 H877 0.930 . S
C887 C880 1.409 . S
C887 C886 1.362 . S
H888 C894 0.931 . S
H889 C897 0.930 . S
H890 C898 0.930 . S
H891 C899 0.930 . S
H892 C902 0.930 . S
H893 C903 0.930 . S
C894 H888 0.931 . S
C894 C895 1.353 1_556 S
C894 C896 1.415 . S
C895 C894 1.353 1_554 S
C895 C897 1.419 . S
C896 C894 1.415 . S
C896 C901 1.425 . S
C896 C903 1.409 . S
C897 H889 0.930 . S
C897 C895 1.419 . S
C897 C898 1.362 . S
C898 H890 0.930 . S
C898 C897 1.362 . S
C898 C901 1.409 1_554 S
C899 H891 0.930 . S
C899 C900 1.355 . S
C899 C901 1.415 . S
C900 C899 1.355 . S
C900 C902 1.419 . S
C901 C896 1.425 . S
C901 C898 1.409 1_556 S
C901 C899 1.415 . S
C902 H892 0.930 . S
C902 C900 1.419 . S
C902 C903 1.362 . S
C903 H893 0.930 . S
C903 C896 1.409 . S
C903 C902 1.362 . S
H904 C910 0.930 . S
H905 C913 0.930 . S
H906 C914 0.931 . S
H907 C915 0.930 . S
H908 C918 0.930 . S
H909 C919 0.931 . S
C910 H904 0.930 . S
C910 C911 1.355 . S
C910 C912 1.415 . S
C911 C910 1.355 . S
C911 C913 1.419 . S
C912 C910 1.415 . S
C912 C917 1.425 1_556 S
C912 C919 1.409 . S
C913 H905 0.930 . S
C913 C911 1.419 . S
C913 C914 1.361 1_556 S
C914 H906 0.931 . S
C914 C913 1.361 1_554 S
C914 C917 1.410 . S
C915 H907 0.930 . S
C915 C916 1.355 . S
C915 C917 1.415 . S
C916 C915 1.355 . S
C916 C918 1.419 . S
C917 C912 1.425 1_554 S
C917 C914 1.410 . S
C917 C915 1.415 . S
C918 H908 0.930 . S
C918 C916 1.419 . S
C918 C919 1.362 1_554 S
C919 H909 0.931 . S
C919 C912 1.409 . S
C919 C918 1.362 1_556 S
H920 C926 0.930 . S
H921 C929 0.930 . S
H922 C930 0.930 . S
H923 C931 0.930 . S
H924 C934 0.930 . S
H925 C935 0.930 . S
C926 H920 0.930 . S
C926 C927 1.355 . S
C926 C928 1.415 . S
C927 C926 1.355 . S
C927 C929 1.419 1_554 S
C928 C926 1.415 . S
C928 C933 1.425 1_554 S
C928 C935 1.409 . S
C929 H921 0.930 . S
C929 C927 1.419 1_556 S
C929 C930 1.362 . S
C930 H922 0.930 . S
C930 C929 1.362 . S
C930 C933 1.409 . S
C931 H923 0.930 . S
C931 C932 1.355 1_556 S
C931 C933 1.415 . S
C932 C931 1.355 1_554 S
C932 C934 1.419 . S
C933 C928 1.425 1_556 S
C933 C930 1.409 . S
C933 C931 1.415 . S
C934 H924 0.930 . S
C934 C932 1.419 . S
C934 C935 1.362 . S
C935 H925 0.930 . S
C935 C928 1.409 . S
C935 C934 1.362 . S
H936 C942 0.930 . S
H937 C945 0.930 . S
H938 C946 0.930 . S
H939 C947 0.930 . S
H940 C950 0.930 . S
H941 C951 0.930 . S
C942 H936 0.930 . S
C942 C943 1.355 . S
C942 C944 1.415 . S
C943 C942 1.355 . S
C943 C945 1.419 . S
C944 C942 1.415 . S
C944 C949 1.425 . S
C944 C951 1.409 . S
C945 H937 0.930 . S
C945 C943 1.419 . S
C945 C946 1.362 . S
C946 H938 0.930 . S
C946 C945 1.362 . S
C946 C949 1.409 . S
C947 H939 0.930 . S
C947 C948 1.355 . S
C947 C949 1.415 . S
C948 C947 1.355 . S
C948 C950 1.419 . S
C949 C944 1.425 . S
C949 C946 1.409 . S
C949 C947 1.415 . S
C950 H940 0.930 . S
C950 C948 1.419 . S
C950 C951 1.362 . S
C951 H941 0.930 . S
C951 C944 1.409 . S
C951 C950 1.362 . S
H952 C958 0.930 . S
H953 C961 0.930 . S
H954 C962 0.930 . S
H955 C963 0.930 . S
H956 C966 0.930 . S
H957 C967 0.930 . S
C958 H952 0.930 . S
C958 C959 1.355 . S
C958 C960 1.415 . S
C959 C958 1.355 . S
C959 C961 1.419 . S
C960 C958 1.415 . S
C960 C965 1.425 . S
C960 C967 1.409 . S
C961 H953 0.930 . S
C961 C959 1.419 . S
C961 C962 1.362 . S
C962 H954 0.930 . S
C962 C961 1.362 . S
C962 C965 1.409 . S
C963 H955 0.930 . S
C963 C964 1.355 . S
C963 C965 1.415 . S
C964 C963 1.355 . S
C964 C966 1.419 . S
C965 C960 1.425 . S
C965 C962 1.409 . S
C965 C963 1.415 . S
C966 H956 0.930 . S
C966 C964 1.419 . S
C966 C967 1.362 . S
C967 H957 0.930 . S
C967 C960 1.409 . S
C967 C966 1.362 . S
H968 C974 0.930 . S
H969 C977 0.930 . S
H970 C978 0.930 . S
H971 C979 0.930 . S
H972 C982 0.930 . S
H973 C983 0.930 . S
C974 H968 0.930 . S
C974 C975 1.355 . S
C974 C976 1.415 . S
C975 C974 1.355 . S
C975 C977 1.419 . S
C976 C974 1.415 . S
C976 C981 1.425 . S
C976 C983 1.409 . S
C977 H969 0.930 . S
C977 C975 1.419 . S
C977 C978 1.362 . S
C978 H970 0.930 . S
C978 C977 1.362 . S
C978 C981 1.409 . S
C979 H971 0.930 . S
C979 C980 1.355 . S
C979 C981 1.415 . S
C980 C979 1.355 . S
C980 C982 1.419 . S
C981 C976 1.425 . S
C981 C978 1.409 . S
C981 C979 1.415 . S
C982 H972 0.930 . S
C982 C980 1.419 . S
C982 C983 1.362 . S
C983 H973 0.930 . S
C983 C976 1.409 . S
C983 C982 1.362 . S
H984 C990 0.930 . S
H985 C993 0.930 . S
H986 C994 0.930 . S
H987 C995 0.930 . S
H988 C998 0.930 . S
H989 C999 0.930 . S
C990 H984 0.930 . S
C990 C991 1.355 . S
C990 C992 1.415 . S
C991 C990 1.355 . S
C991 C993 1.419 . S
C992 C990 1.415 . S
C992 C997 1.425 . S
C992 C999 1.409 . S
C993 H985 0.930 . S
C993 C991 1.419 . S
C993 C994 1.362 . S
C994 H986 0.930 . S
C994 C993 1.362 . S
C994 C997 1.409 . S
C995 H987 0.930 . S
C995 C996 1.355 . S
C995 C997 1.415 . S
C996 C995 1.355 . S
C996 C998 1.419 . S
C997 C992 1.425 . S
C997 C994 1.409 . S
C997 C995 1.415 . S
C998 H988 0.930 . S
C998 C996 1.419 . S
C998 C999 1.362 . S
C999 H989 0.930 . S
C999 C992 1.409 . S
C999 C998 1.362 . S
H1000 C1006 0.930 . S
H1001 C1009 0.930 . S
H1002 C1010 0.930 . S
H1003 C1011 0.930 . S
H1004 C1014 0.930 . S
H1005 C1015 0.930 . S
C1006 H1000 0.930 . S
C1006 C1007 1.355 . S
C1006 C1008 1.415 . S
C1007 C1006 1.355 . S
C1007 C1009 1.419 . S
C1008 C1006 1.415 . S
C1008 C1013 1.425 . S
C1008 C1015 1.409 . S
C1009 H1001 0.930 . S
C1009 C1007 1.419 . S
C1009 C1010 1.362 . S
C1010 H1002 0.930 . S
C1010 C1009 1.362 . S
C1010 C1013 1.409 . S
C1011 H1003 0.930 . S
C1011 C1012 1.355 . S
C1011 C1013 1.415 . S
C1012 C1011 1.355 . S
C1012 C1014 1.419 . S
C1013 C1008 1.425 . S
C1013 C1010 1.409 . S
C1013 C1011 1.415 . S
C1014 H1004 0.930 . S
C1014 C1012 1.419 . S
C1014 C1015 1.362 . S
C1015 H1005 0.930 . S
C1015 C1008 1.409 . S
C1015 C1014 1.362 . S
H1016 C1022 0.930 . S
H1017 C1025 0.930 . S
H1018 C1026 0.930 . S
H1019 C1027 0.930 . S
H1020 C1030 0.930 . S
H1021 C1031 0.930 . S
C1022 H1016 0.930 . S
C1022 C1023 1.355 . S
C1022 C1024 1.415 . S
C1023 C1022 1.355 . S
C1023 C1025 1.419 . S
C1024 C1022 1.415 . S
C1024 C1029 1.425 . S
C1024 C1031 1.409 . S
C1025 H1017 0.930 . S
C1025 C1023 1.419 . S
C1025 C1026 1.362 . S
C1026 H1018 0.930 . S
C1026 C1025 1.362 . S
C1026 C1029 1.409 . S
C1027 H1019 0.930 . S
C1027 C1028 1.355 . S
C1027 C1029 1.415 . S
C1028 C1027 1.355 . S
C1028 C1030 1.419 . S
C1029 C1024 1.425 . S
C1029 C1026 1.409 . S
C1029 C1027 1.415 . S
C1030 H1020 0.930 . S
C1030 C1028 1.419 . S
C1030 C1031 1.362 . S
C1031 H1021 0.930 . S
C1031 C1024 1.409 . S
C1031 C1030 1.362 . S
H1032 C1038 0.930 . S
H1033 C1041 0.930 . S
H1034 C1042 0.930 . S
H1035 C1043 0.930 . S
H1036 C1046 0.930 . S
H1037 C1047 0.930 . S
C1038 H1032 0.930 . S
C1038 C1039 1.355 . S
C1038 C1040 1.415 . S
C1039 C1038 1.355 . S
C1039 C1041 1.419 . S
C1040 C1038 1.415 . S
C1040 C1045 1.425 . S
C1040 C1047 1.409 . S
C1041 H1033 0.930 . S
C1041 C1039 1.419 . S
C1041 C1042 1.362 . S
C1042 H1034 0.930 . S
C1042 C1041 1.362 . S
C1042 C1045 1.409 . S
C1043 H1035 0.930 . S
C1043 C1044 1.355 . S
C1043 C1045 1.415 . S
C1044 C1043 1.355 . S
C1044 C1046 1.419 . S
C1045 C1040 1.425 . S
C1045 C1042 1.409 . S
C1045 C1043 1.415 . S
C1046 H1036 0.930 . S
C1046 C1044 1.419 . S
C1046 C1047 1.362 . S
C1047 H1037 0.930 . S
C1047 C1040 1.409 . S
C1047 C1046 1.362 . S
H1048 C1054 0.930 . S
H1049 C1057 0.930 . S
H1050 C1058 0.930 . S
H1051 C1059 0.930 . S
H1052 C1062 0.930 . S
H1053 C1063 0.930 . S
C1054 H1048 0.930 . S
C1054 C1055 1.355 . S
C1054 C1056 1.415 . S
C1055 C1054 1.355 . S
C1055 C1057 1.419 . S
C1056 C1054 1.415 . S
C1056 C1061 1.425 . S
C1056 C1063 1.409 . S
C1057 H1049 0.930 . S
C1057 C1055 1.419 . S
C1057 C1058 1.362 . S
C1058 H1050 0.930 . S
C1058 C1057 1.362 . S
C1058 C1061 1.409 . S
C1059 H1051 0.930 . S
C1059 C1060 1.355 . S
C1059 C1061 1.415 . S
C1060 C1059 1.355 . S
C1060 C1062 1.419 . S
C1061 C1056 1.425 . S
C1061 C1058 1.409 . S
C1061 C1059 1.415 . S
C1062 H1052 0.930 . S
C1062 C1060 1.419 . S
C1062 C1063 1.362 . S
C1063 H1053 0.930 . S
C1063 C1056 1.409 . S
C1063 C1062 1.362 . S
H1064 C1070 0.930 . S
H1065 C1073 0.930 . S
H1066 C1074 0.930 . S
H1067 C1075 0.930 . S
H1068 C1078 0.930 . S
H1069 C1079 0.930 . S
C1070 H1064 0.930 . S
C1070 C1071 1.355 . S
C1070 C1072 1.415 . S
C1071 C1070 1.355 . S
C1071 C1073 1.419 . S
C1072 C1070 1.415 . S
C1072 C1077 1.425 . S
C1072 C1079 1.409 . S
C1073 H1065 0.930 . S
C1073 C1071 1.419 . S
C1073 C1074 1.362 . S
C1074 H1066 0.930 . S
C1074 C1073 1.362 . S
C1074 C1077 1.409 . S
C1075 H1067 0.930 . S
C1075 C1076 1.355 . S
C1075 C1077 1.415 . S
C1076 C1075 1.355 . S
C1076 C1078 1.419 . S
C1077 C1072 1.425 . S
C1077 C1074 1.409 . S
C1077 C1075 1.415 . S
C1078 H1068 0.930 . S
C1078 C1076 1.419 . S
C1078 C1079 1.362 . S
C1079 H1069 0.930 . S
C1079 C1072 1.409 . S
C1079 C1078 1.362 . S
H1080 C1086 0.930 . S
H1081 C1089 0.930 . S
H1082 C1090 0.930 . S
H1083 C1091 0.930 . S
H1084 C1094 0.930 . S
H1085 C1095 0.930 . S
C1086 H1080 0.930 . S
C1086 C1087 1.355 . S
C1086 C1088 1.415 . S
C1087 C1086 1.355 . S
C1087 C1089 1.419 . S
C1088 C1086 1.415 . S
C1088 C1093 1.425 . S
C1088 C1095 1.409 . S
C1089 H1081 0.930 . S
C1089 C1087 1.419 . S
C1089 C1090 1.362 . S
C1090 H1082 0.930 . S
C1090 C1089 1.362 . S
C1090 C1093 1.409 . S
C1091 H1083 0.930 . S
C1091 C1092 1.355 . S
C1091 C1093 1.415 . S
C1092 C1091 1.355 . S
C1092 C1094 1.419 . S
C1093 C1088 1.425 . S
C1093 C1090 1.409 . S
C1093 C1091 1.415 . S
C1094 H1084 0.930 . S
C1094 C1092 1.419 . S
C1094 C1095 1.362 . S
C1095 H1085 0.930 . S
C1095 C1088 1.409 . S
C1095 C1094 1.362 . S
H1096 C1102 0.930 . S
H1097 C1105 0.930 . S
H1098 C1106 0.930 . S
H1099 C1107 0.930 . S
H1100 C1110 0.930 . S
H1101 C1111 0.930 . S
C1102 H1096 0.930 . S
C1102 C1103 1.355 . S
C1102 C1104 1.415 . S
C1103 C1102 1.355 . S
C1103 C1105 1.419 . S
C1104 C1102 1.415 . S
C1104 C1109 1.425 . S
C1104 C1111 1.409 . S
C1105 H1097 0.930 . S
C1105 C1103 1.419 . S
C1105 C1106 1.362 . S
C1106 H1098 0.930 . S
C1106 C1105 1.362 . S
C1106 C1109 1.409 . S
C1107 H1099 0.930 . S
C1107 C1108 1.355 . S
C1107 C1109 1.415 . S
C1108 C1107 1.355 . S
C1108 C1110 1.419 . S
C1109 C1104 1.425 . S
C1109 C1106 1.409 . S
C1109 C1107 1.415 . S
C1110 H1100 0.930 . S
C1110 C1108 1.419 . S
C1110 C1111 1.362 . S
C1111 H1101 0.930 . S
C1111 C1104 1.409 . S
C1111 C1110 1.362 . S
H1112 C1118 0.930 . S
H1113 C1121 0.930 . S
H1114 C1122 0.930 . S
H1115 C1123 0.930 . S
H1116 C1126 0.930 . S
H1117 C1127 0.930 . S
C1118 H1112 0.930 . S
C1118 C1119 1.355 . S
C1118 C1120 1.415 . S
C1119 C1118 1.355 . S
C1119 C1121 1.419 . S
C1120 C1118 1.415 . S
C1120 C1125 1.425 . S
C1120 C1127 1.409 . S
C1121 H1113 0.930 . S
C1121 C1119 1.419 . S
C1121 C1122 1.362 . S
C1122 H1114 0.930 . S
C1122 C1121 1.362 . S
C1122 C1125 1.409 . S
C1123 H1115 0.930 . S
C1123 C1124 1.355 . S
C1123 C1125 1.415 . S
C1124 C1123 1.355 . S
C1124 C1126 1.419 . S
C1125 C1120 1.425 . S
C1125 C1122 1.409 . S
C1125 C1123 1.415 . S
C1126 H1116 0.930 . S
C1126 C1124 1.419 . S
C1126 C1127 1.362 . S
C1127 H1117 0.930 . S
C1127 C1120 1.409 . S
C1127 C1126 1.362 . S
H1128 C1134 0.930 . S
H1129 C1137 0.930 . S
H1130 C1138 0.930 . S
H1131 C1139 0.930 . S
H1132 C1142 0.930 . S
H1133 C1143 0.930 . S
C1134 H1128 0.930 . S
C1134 C1135 1.355 . S
C1134 C1136 1.415 . S
C1135 C1134 1.355 . S
C1135 C1137 1.419 . S
C1136 C1134 1.415 . S
C1136 C1141 1.425 . S
C1136 C1143 1.409 . S
C1137 H1129 0.930 . S
C1137 C1135 1.419 . S
C1137 C1138 1.362 . S
C1138 H1130 0.930 . S
C1138 C1137 1.362 . S
C1138 C1141 1.409 . S
C1139 H1131 0.930 . S
C1139 C1140 1.355 . S
C1139 C1141 1.415 . S
C1140 C1139 1.355 . S
C1140 C1142 1.419 . S
C1141 C1136 1.425 . S
C1141 C1138 1.409 . S
C1141 C1139 1.415 . S
C1142 H1132 0.930 . S
C1142 C1140 1.419 . S
C1142 C1143 1.362 . S
C1143 H1133 0.930 . S
C1143 C1136 1.409 . S
C1143 C1142 1.362 . S
H1144 C1150 0.930 . S
H1145 C1153 0.930 . S
H1146 C1154 0.930 . S
H1147 C1155 0.930 . S
H1148 C1158 0.930 . S
H1149 C1159 0.930 . S
C1150 H1144 0.930 . S
C1150 C1151 1.355 . S
C1150 C1152 1.415 . S
C1151 C1150 1.355 . S
C1151 C1153 1.419 . S
C1152 C1150 1.415 . S
C1152 C1157 1.425 . S
C1152 C1159 1.409 . S
C1153 H1145 0.930 . S
C1153 C1151 1.419 . S
C1153 C1154 1.362 . S
C1154 H1146 0.930 . S
C1154 C1153 1.362 . S
C1154 C1157 1.409 . S
C1155 H1147 0.930 . S
C1155 C1156 1.355 . S
C1155 C1157 1.415 . S
C1156 C1155 1.355 . S
C1156 C1158 1.419 . S
C1157 C1152 1.425 . S
C1157 C1154 1.409 . S
C1157 C1155 1.415 . S
C1158 H1148 0.930 . S
C1158 C1156 1.419 . S
C1158 C1159 1.362 . S
C1159 H1149 0.930 . S
C1159 C1152 1.409 . S
C1159 C1158 1.362 . S
H1160 C1166 0.930 . S
H1161 C1169 0.930 . S
H1162 C1170 0.930 . S
H1163 C1171 0.930 . S
H1164 C1174 0.930 . S
H1165 C1175 0.930 . S
C1166 H1160 0.930 . S
C1166 C1167 1.355 . S
C1166 C1168 1.415 . S
C1167 C1166 1.355 . S
C1167 C1169 1.419 . S
C1168 C1166 1.415 . S
C1168 C1173 1.425 . S
C1168 C1175 1.409 . S
C1169 H1161 0.930 . S
C1169 C1167 1.419 . S
C1169 C1170 1.362 . S
C1170 H1162 0.930 . S
C1170 C1169 1.362 . S
C1170 C1173 1.409 . S
C1171 H1163 0.930 . S
C1171 C1172 1.355 . S
C1171 C1173 1.415 . S
C1172 C1171 1.355 . S
C1172 C1174 1.419 . S
C1173 C1168 1.425 . S
C1173 C1170 1.409 . S
C1173 C1171 1.415 . S
C1174 H1164 0.930 . S
C1174 C1172 1.419 . S
C1174 C1175 1.362 . S
C1175 H1165 0.930 . S
C1175 C1168 1.409 . S
C1175 C1174 1.362 . S
H1176 C1182 0.930 . S
H1177 C1185 0.930 . S
H1178 C1186 0.930 . S
H1179 C1187 0.930 . S
H1180 C1190 0.930 . S
H1181 C1191 0.930 . S
C1182 H1176 0.930 . S
C1182 C1183 1.355 . S
C1182 C1184 1.415 . S
C1183 C1182 1.355 . S
C1183 C1185 1.419 . S
C1184 C1182 1.415 . S
C1184 C1189 1.425 . S
C1184 C1191 1.409 . S
C1185 H1177 0.930 . S
C1185 C1183 1.419 . S
C1185 C1186 1.362 . S
C1186 H1178 0.930 . S
C1186 C1185 1.362 . S
C1186 C1189 1.409 . S
C1187 H1179 0.930 . S
C1187 C1188 1.355 . S
C1187 C1189 1.415 . S
C1188 C1187 1.355 . S
C1188 C1190 1.419 . S
C1189 C1184 1.425 . S
C1189 C1186 1.409 . S
C1189 C1187 1.415 . S
C1190 H1180 0.930 . S
C1190 C1188 1.419 . S
C1190 C1191 1.362 . S
C1191 H1181 0.930 . S
C1191 C1184 1.409 . S
C1191 C1190 1.362 . S
H1192 C1198 0.930 . S
H1193 C1201 0.930 . S
H1194 C1202 0.930 . S
H1195 C1203 0.930 . S
H1196 C1206 0.930 . S
H1197 C1207 0.930 . S
C1198 H1192 0.930 . S
C1198 C1199 1.355 . S
C1198 C1200 1.415 . S
C1199 C1198 1.355 . S
C1199 C1201 1.419 . S
C1200 C1198 1.415 . S
C1200 C1205 1.425 . S
C1200 C1207 1.409 . S
C1201 H1193 0.930 . S
C1201 C1199 1.419 . S
C1201 C1202 1.362 . S
C1202 H1194 0.930 . S
C1202 C1201 1.362 . S
C1202 C1205 1.409 . S
C1203 H1195 0.930 . S
C1203 C1204 1.355 . S
C1203 C1205 1.415 . S
C1204 C1203 1.355 . S
C1204 C1206 1.419 . S
C1205 C1200 1.425 . S
C1205 C1202 1.409 . S
C1205 C1203 1.415 . S
C1206 H1196 0.930 . S
C1206 C1204 1.419 . S
C1206 C1207 1.362 . S
C1207 H1197 0.930 . S
C1207 C1200 1.409 . S
C1207 C1206 1.362 . S
H1208 C1214 0.930 . S
H1209 C1217 0.930 . S
H1210 C1218 0.930 . S
H1211 C1219 0.930 . S
H1212 C1222 0.930 . S
H1213 C1223 0.930 . S
C1214 H1208 0.930 . S
C1214 C1215 1.355 . S
C1214 C1216 1.415 . S
C1215 C1214 1.355 . S
C1215 C1217 1.419 . S
C1216 C1214 1.415 . S
C1216 C1221 1.425 . S
C1216 C1223 1.409 . S
C1217 H1209 0.930 . S
C1217 C1215 1.419 . S
C1217 C1218 1.362 . S
C1218 H1210 0.930 . S
C1218 C1217 1.362 . S
C1218 C1221 1.409 . S
C1219 H1211 0.930 . S
C1219 C1220 1.355 . S
C1219 C1221 1.415 . S
C1220 C1219 1.355 . S
C1220 C1222 1.419 . S
C1221 C1216 1.425 . S
C1221 C1218 1.409 . S
C1221 C1219 1.415 . S
C1222 H1212 0.930 . S
C1222 C1220 1.419 . S
C1222 C1223 1.362 . S
C1223 H1213 0.930 . S
C1223 C1216 1.409 . S
C1223 C1222 1.362 . S
H1224 C1230 0.930 . S
H1225 C1233 0.930 . S
H1226 C1234 0.930 . S
H1227 C1235 0.930 . S
H1228 C1238 0.930 . S
H1229 C1239 0.930 . S
C1230 H1224 0.930 . S
C1230 C1231 1.355 . S
C1230 C1232 1.415 . S
C1231 C1230 1.355 . S
C1231 C1233 1.419 . S
C1232 C1230 1.415 . S
C1232 C1237 1.425 . S
C1232 C1239 1.409 . S
C1233 H1225 0.930 . S
C1233 C1231 1.419 . S
C1233 C1234 1.362 . S
C1234 H1226 0.930 . S
C1234 C1233 1.362 . S
C1234 C1237 1.409 . S
C1235 H1227 0.930 . S
C1235 C1236 1.355 . S
C1235 C1237 1.415 . S
C1236 C1235 1.355 . S
C1236 C1238 1.419 . S
C1237 C1232 1.425 . S
C1237 C1234 1.409 . S
C1237 C1235 1.415 . S
C1238 H1228 0.930 . S
C1238 C1236 1.419 . S
C1238 C1239 1.362 . S
C1239 H1229 0.930 . S
C1239 C1232 1.409 . S
C1239 C1238 1.362 . S
H1240 C1246 0.930 . S
H1241 C1249 0.930 . S
H1242 C1250 0.930 . S
H1243 C1251 0.930 . S
H1244 C1254 0.930 . S
H1245 C1255 0.930 . S
C1246 H1240 0.930 . S
C1246 C1247 1.355 . S
C1246 C1248 1.415 . S
C1247 C1246 1.355 . S
C1247 C1249 1.419 . S
C1248 C1246 1.415 . S
C1248 C1253 1.425 . S
C1248 C1255 1.409 . S
C1249 H1241 0.930 . S
C1249 C1247 1.419 . S
C1249 C1250 1.362 . S
C1250 H1242 0.930 . S
C1250 C1249 1.362 . S
C1250 C1253 1.409 . S
C1251 H1243 0.930 . S
C1251 C1252 1.355 . S
C1251 C1253 1.415 . S
C1252 C1251 1.355 . S
C1252 C1254 1.419 . S
C1253 C1248 1.425 . S
C1253 C1250 1.409 . S
C1253 C1251 1.415 . S
C1254 H1244 0.930 . S
C1254 C1252 1.419 . S
C1254 C1255 1.362 . S
C1255 H1245 0.930 . S
C1255 C1248 1.409 . S
C1255 C1254 1.362 . S
H1256 C1262 0.930 . S
H1257 C1265 0.930 . S
H1258 C1266 0.930 . S
H1259 C1267 0.930 . S
H1260 C1270 0.930 . S
H1261 C1271 0.930 . S
C1262 H1256 0.930 . S
C1262 C1263 1.355 . S
C1262 C1264 1.415 . S
C1263 C1262 1.355 . S
C1263 C1265 1.419 . S
C1264 C1262 1.415 . S
C1264 C1269 1.425 . S
C1264 C1271 1.409 . S
C1265 H1257 0.930 . S
C1265 C1263 1.419 . S
C1265 C1266 1.362 . S
C1266 H1258 0.930 . S
C1266 C1265 1.362 . S
C1266 C1269 1.409 . S
C1267 H1259 0.930 . S
C1267 C1268 1.355 . S
C1267 C1269 1.415 . S
C1268 C1267 1.355 . S
C1268 C1270 1.419 . S
C1269 C1264 1.425 . S
C1269 C1266 1.409 . S
C1269 C1267 1.415 . S
C1270 H1260 0.930 . S
C1270 C1268 1.419 . S
C1270 C1271 1.362 . S
C1271 H1261 0.930 . S
C1271 C1264 1.409 . S
C1271 C1270 1.362 . S
H1272 C1278 0.930 . S
H1273 C1281 0.930 . S
H1274 C1282 0.930 . S
H1275 C1283 0.930 . S
H1276 C1286 0.930 . S
H1277 C1287 0.930 . S
C1278 H1272 0.930 . S
C1278 C1279 1.355 . S
C1278 C1280 1.415 . S
C1279 C1278 1.355 . S
C1279 C1281 1.419 . S
C1280 C1278 1.415 . S
C1280 C1285 1.425 . S
C1280 C1287 1.409 . S
C1281 H1273 0.930 . S
C1281 C1279 1.419 . S
C1281 C1282 1.362 . S
C1282 H1274 0.930 . S
C1282 C1281 1.362 . S
C1282 C1285 1.409 . S
C1283 H1275 0.930 . S
C1283 C1284 1.355 . S
C1283 C1285 1.415 . S
C1284 C1283 1.355 . S
C1284 C1286 1.419 . S
C1285 C1280 1.425 . S
C1285 C1282 1.409 . S
C1285 C1283 1.415 . S
C1286 H1276 0.930 . S
C1286 C1284 1.419 . S
C1286 C1287 1.362 . S
C1287 H1277 0.930 . S
C1287 C1280 1.409 . S
C1287 C1286 1.362 . S
H1288 C1294 0.930 . S
H1289 C1297 0.930 . S
H1290 C1298 0.930 . S
H1291 C1299 0.930 . S
H1292 C1302 0.930 . S
H1293 C1303 0.930 . S
C1294 H1288 0.930 . S
C1294 C1295 1.355 . S
C1294 C1296 1.415 . S
C1295 C1294 1.355 . S
C1295 C1297 1.419 . S
C1296 C1294 1.415 . S
C1296 C1301 1.425 . S
C1296 C1303 1.409 . S
C1297 H1289 0.930 . S
C1297 C1295 1.419 . S
C1297 C1298 1.362 . S
C1298 H1290 0.930 . S
C1298 C1297 1.362 . S
C1298 C1301 1.409 . S
C1299 H1291 0.930 . S
C1299 C1300 1.355 . S
C1299 C1301 1.415 . S
C1300 C1299 1.355 . S
C1300 C1302 1.419 . S
C1301 C1296 1.425 . S
C1301 C1298 1.409 . S
C1301 C1299 1.415 . S
C1302 H1292 0.930 . S
C1302 C1300 1.419 . S
C1302 C1303 1.362 . S
C1303 H1293 0.930 . S
C1303 C1296 1.409 . S
C1303 C1302 1.362 . S
H1304 C1310 0.930 . S
H1305 C1313 0.930 . S
H1306 C1314 0.930 . S
H1307 C1315 0.930 . S
H1308 C1318 0.930 . S
H1309 C1319 0.930 . S
C1310 H1304 0.930 . S
C1310 C1311 1.355 . S
C1310 C1312 1.415 . S
C1311 C1310 1.355 . S
C1311 C1313 1.419 . S
C1312 C1310 1.415 . S
C1312 C1317 1.425 . S
C1312 C1319 1.409 . S
C1313 H1305 0.930 . S
C1313 C1311 1.419 . S
C1313 C1314 1.362 . S
C1314 H1306 0.930 . S
C1314 C1313 1.362 . S
C1314 C1317 1.409 . S
C1315 H1307 0.930 . S
C1315 C1316 1.355 . S
C1315 C1317 1.415 . S
C1316 C1315 1.355 . S
C1316 C1318 1.419 . S
C1317 C1312 1.425 . S
C1317 C1314 1.409 . S
C1317 C1315 1.415 . S
C1318 H1308 0.930 . S
C1318 C1316 1.419 . S
C1318 C1319 1.362 . S
C1319 H1309 0.930 . S
C1319 C1312 1.409 . S
C1319 C1318 1.362 . S
H1320 C1326 0.930 . S
H1321 C1329 0.930 . S
H1322 C1330 0.930 . S
H1323 C1331 0.930 . S
H1324 C1334 0.930 . S
H1325 C1335 0.930 . S
C1326 H1320 0.930 . S
C1326 C1327 1.355 . S
C1326 C1328 1.415 . S
C1327 C1326 1.355 . S
C1327 C1329 1.419 . S
C1328 C1326 1.415 . S
C1328 C1333 1.425 . S
C1328 C1335 1.409 . S
C1329 H1321 0.930 . S
C1329 C1327 1.419 . S
C1329 C1330 1.362 . S
C1330 H1322 0.930 . S
C1330 C1329 1.362 . S
C1330 C1333 1.409 . S
C1331 H1323 0.930 . S
C1331 C1332 1.355 . S
C1331 C1333 1.415 . S
C1332 C1331 1.355 . S
C1332 C1334 1.419 . S
C1333 C1328 1.425 . S
C1333 C1330 1.409 . S
C1333 C1331 1.415 . S
C1334 H1324 0.930 . S
C1334 C1332 1.419 . S
C1334 C1335 1.362 . S
C1335 H1325 0.930 . S
C1335 C1328 1.409 . S
C1335 C1334 1.362 . S
H1336 C1342 0.930 . S
H1337 C1345 0.930 . S
H1338 C1346 0.930 . S
H1339 C1347 0.930 . S
H1340 C1350 0.930 . S
H1341 C1351 0.930 . S
C1342 H1336 0.930 . S
C1342 C1343 1.355 . S
C1342 C1344 1.415 . S
C1343 C1342 1.355 . S
C1343 C1345 1.419 . S
C1344 C1342 1.415 . S
C1344 C1349 1.425 . S
C1344 C1351 1.409 . S
C1345 H1337 0.930 . S
C1345 C1343 1.419 . S
C1345 C1346 1.362 . S
C1346 H1338 0.930 . S
C1346 C1345 1.362 . S
C1346 C1349 1.409 . S
C1347 H1339 0.930 . S
C1347 C1348 1.355 . S
C1347 C1349 1.415 . S
C1348 C1347 1.355 . S
C1348 C1350 1.419 . S
C1349 C1344 1.425 . S
C1349 C1346 1.409 . S
C1349 C1347 1.415 . S
C1350 H1340 0.930 . S
C1350 C1348 1.419 . S
C1350 C1351 1.362 . S
C1351 H1341 0.930 . S
C1351 C1344 1.409 . S
C1351 C1350 1.362 . S
H1352 C1358 0.930 . S
H1353 C1361 0.930 . S
H1354 C1362 0.930 . S
H1355 C1363 0.930 . S
H1356 C1366 0.930 . S
H1357 C1367 0.930 . S
C1358 H1352 0.930 . S
C1358 C1359 1.355 . S
C1358 C1360 1.415 . S
C1359 C1358 1.355 . S
C1359 C1361 1.419 . S
C1360 C1358 1.415 . S
C1360 C1365 1.425 . S
C1360 C1367 1.409 . S
C1361 H1353 0.930 . S
C1361 C1359 1.419 . S
C1361 C1362 1.362 . S
C1362 H1354 0.930 . S
C1362 C1361 1.362 . S
C1362 C1365 1.409 . S
C1363 H1355 0.930 . S
C1363 C1364 1.355 . S
C1363 C1365 1.415 . S
C1364 C1363 1.355 . S
C1364 C1366 1.419 . S
C1365 C1360 1.425 . S
C1365 C1362 1.409 . S
C1365 C1363 1.415 . S
C1366 H1356 0.930 . S
C1366 C1364 1.419 . S
C1366 C1367 1.362 . S
C1367 H1357 0.930 . S
C1367 C1360 1.409 . S
C1367 C1366 1.362 . S
H1368 C1374 0.930 . S
H1369 C1377 0.930 . S
H1370 C1378 0.930 . S
H1371 C1379 0.930 . S
H1372 C1382 0.930 . S
H1373 C1383 0.930 . S
C1374 H1368 0.930 . S
C1374 C1375 1.355 . S
C1374 C1376 1.415 . S
C1375 C1374 1.355 . S
C1375 C1377 1.419 . S
C1376 C1374 1.415 . S
C1376 C1381 1.425 . S
C1376 C1383 1.409 . S
C1377 H1369 0.930 . S
C1377 C1375 1.419 . S
C1377 C1378 1.362 . S
C1378 H1370 0.930 . S
C1378 C1377 1.362 . S
C1378 C1381 1.409 . S
C1379 H1371 0.930 . S
C1379 C1380 1.355 . S
C1379 C1381 1.415 . S
C1380 C1379 1.355 . S
C1380 C1382 1.419 . S
C1381 C1376 1.425 . S
C1381 C1378 1.409 . S
C1381 C1379 1.415 . S
C1382 H1372 0.930 . S
C1382 C1380 1.419 . S
C1382 C1383 1.362 . S
C1383 H1373 0.930 . S
C1383 C1376 1.409 . S
C1383 C1382 1.362 . S
H1384 C1390 0.930 . S
H1385 C1393 0.930 . S
H1386 C1394 0.930 . S
H1387 C1395 0.930 . S
H1388 C1398 0.930 . S
H1389 C1399 0.930 . S
C1390 H1384 0.930 . S
C1390 C1391 1.355 . S
C1390 C1392 1.415 . S
C1391 C1390 1.355 . S
C1391 C1393 1.419 1_545 S
C1392 C1390 1.415 . S
C1392 C1397 1.425 1_545 S
C1392 C1399 1.409 . S
C1393 H1385 0.930 . S
C1393 C1391 1.419 1_565 S
C1393 C1394 1.362 . S
C1394 H1386 0.930 . S
C1394 C1393 1.362 . S
C1394 C1397 1.409 . S
C1395 H1387 0.930 . S
C1395 C1396 1.355 . S
C1395 C1397 1.415 . S
C1396 C1395 1.355 . S
C1396 C1398 1.419 1_565 S
C1397 C1392 1.425 1_565 S
C1397 C1394 1.409 . S
C1397 C1395 1.415 . S
C1398 H1388 0.930 . S
C1398 C1396 1.419 1_545 S
C1398 C1399 1.362 . S
C1399 H1389 0.930 . S
C1399 C1392 1.409 . S
C1399 C1398 1.362 . S
H1400 C1406 0.930 1_655 S
H1401 C1409 0.930 . S
H1402 C1410 0.930 . S
H1403 C1411 0.930 . S
H1404 C1414 0.930 . S
H1405 C1415 0.930 . S
C1406 H1400 0.930 1_455 S
C1406 C1407 1.355 . S
C1406 C1408 1.415 . S
C1407 C1406 1.355 . S
C1407 C1409 1.419 . S
C1408 C1406 1.415 . S
C1408 C1413 1.425 . S
C1408 C1415 1.409 1_455 S
C1409 H1401 0.930 . S
C1409 C1407 1.419 . S
C1409 C1410 1.362 . S
C1410 H1402 0.930 . S
C1410 C1409 1.362 . S
C1410 C1413 1.409 . S
C1411 H1403 0.930 . S
C1411 C1412 1.355 1_455 S
C1411 C1413 1.415 . S
C1412 C1411 1.355 1_655 S
C1412 C1414 1.419 . S
C1413 C1408 1.425 . S
C1413 C1410 1.409 . S
C1413 C1411 1.415 . S
C1414 H1404 0.930 . S
C1414 C1412 1.419 . S
C1414 C1415 1.362 . S
C1415 H1405 0.930 . S
C1415 C1408 1.409 1_655 S
C1415 C1414 1.362 . S
H1416 C1422 0.930 . S
H1417 C1425 0.930 . S
H1418 C1426 0.930 . S
H1419 C1427 0.930 . S
H1420 C1430 0.930 . S
H1421 C1431 0.930 . S
C1422 H1416 0.930 . S
C1422 C1423 1.355 . S
C1422 C1424 1.415 . S
C1423 C1422 1.355 . S
C1423 C1425 1.419 . S
C1424 C1422 1.415 . S
C1424 C1429 1.425 . S
C1424 C1431 1.409 . S
C1425 H1417 0.930 . S
C1425 C1423 1.419 . S
C1425 C1426 1.362 . S
C1426 H1418 0.930 . S
C1426 C1425 1.362 . S
C1426 C1429 1.409 . S
C1427 H1419 0.930 . S
C1427 C1428 1.355 . S
C1427 C1429 1.415 . S
C1428 C1427 1.355 . S
C1428 C1430 1.419 . S
C1429 C1424 1.425 . S
C1429 C1426 1.409 . S
C1429 C1427 1.415 . S
C1430 H1420 0.930 . S
C1430 C1428 1.419 . S
C1430 C1431 1.362 . S
C1431 H1421 0.930 . S
C1431 C1424 1.409 . S
C1431 C1430 1.362 . S
H1432 C1438 0.930 . S
H1433 C1441 0.930 . S
H1434 C1442 0.930 . S
H1435 C1443 0.930 . S
H1436 C1446 0.930 . S
H1437 C1447 0.930 . S
C1438 H1432 0.930 . S
C1438 C1439 1.355 1_565 S
C1438 C1440 1.415 . S
C1439 C1438 1.355 1_545 S
C1439 C1441 1.419 . S
C1440 C1438 1.415 . S
C1440 C1445 1.423 1_565 S
C1440 C1447 1.412 . S
C1441 H1433 0.930 . S
C1441 C1439 1.419 . S
C1441 C1442 1.362 . S
C1442 H1434 0.930 . S
C1442 C1441 1.362 . S
C1442 C1445 1.409 . S
C1443 H1435 0.930 . S
C1443 C1444 1.355 . S
C1443 C1445 1.415 . S
C1444 C1443 1.355 . S
C1444 C1446 1.419 1_545 S
C1445 C1440 1.423 1_545 S
C1445 C1442 1.409 . S
C1445 C1443 1.415 . S
C1446 H1436 0.930 . S
C1446 C1444 1.419 1_565 S
C1446 C1447 1.362 . S
C1447 H1437 0.930 . S
C1447 C1440 1.412 . S
C1447 C1446 1.362 . S
H1448 C1454 0.900 1_655 S
H1449 C1457 0.930 . S
H1450 C1458 0.930 . S
H1451 C1459 0.930 . S
H1452 C1462 0.913 1_655 S
H1453 C1463 0.930 . S
C1454 H1448 0.900 1_455 S
C1454 C1455 1.378 . S
C1454 C1456 1.423 . S
C1455 C1454 1.378 . S
C1455 C1457 1.419 . S
C1456 C1454 1.423 . S
C1456 C1461 1.425 . S
C1456 C1463 1.409 1_455 S
C1457 H1449 0.930 . S
C1457 C1455 1.419 . S
C1457 C1458 1.362 . S
C1458 H1450 0.930 . S
C1458 C1457 1.362 . S
C1458 C1461 1.409 . S
C1459 H1451 0.930 . S
C1459 C1460 1.355 . S
C1459 C1461 1.415 . S
C1460 C1459 1.355 . S
C1460 C1462 1.443 . S
C1461 C1456 1.425 . S
C1461 C1458 1.409 . S
C1461 C1459 1.415 . S
C1462 H1452 0.913 1_455 S
C1462 C1460 1.443 . S
C1462 C1463 1.356 1_455 S
C1463 H1453 0.930 . S
C1463 C1456 1.409 1_655 S
C1463 C1462 1.356 1_655 S
H1464 C1470 0.930 . S
H1465 C1473 0.930 . S
H1466 C1474 0.930 . S
H1467 C1475 0.930 . S
H1468 C1478 0.930 . S
H1469 C1479 0.930 . S
C1470 H1464 0.930 . S
C1470 C1471 1.355 . S
C1470 C1472 1.415 . S
C1471 C1470 1.355 . S
C1471 C1473 1.419 . S
C1472 C1470 1.415 . S
C1472 C1477 1.425 . S
C1472 C1479 1.409 . S
C1473 H1465 0.930 . S
C1473 C1471 1.419 . S
C1473 C1474 1.362 . S
C1474 H1466 0.930 . S
C1474 C1473 1.362 . S
C1474 C1477 1.409 . S
C1475 H1467 0.930 . S
C1475 C1476 1.355 . S
C1475 C1477 1.415 . S
C1476 C1475 1.355 . S
C1476 C1478 1.419 . S
C1477 C1472 1.425 . S
C1477 C1474 1.409 . S
C1477 C1475 1.415 . S
C1478 H1468 0.930 . S
C1478 C1476 1.419 . S
C1478 C1479 1.362 . S
C1479 H1469 0.930 . S
C1479 C1472 1.409 . S
C1479 C1478 1.362 . S
H1480 C1486 0.930 . S
H1481 C1489 0.930 . S
H1482 C1490 0.930 . S
H1483 C1491 0.930 . S
H1484 C1494 0.930 . S
H1485 C1495 0.930 . S
C1486 H1480 0.930 . S
C1486 C1487 1.355 . S
C1486 C1488 1.415 . S
C1487 C1486 1.355 . S
C1487 C1489 1.419 . S
C1488 C1486 1.415 . S
C1488 C1493 1.425 . S
C1488 C1495 1.409 . S
C1489 H1481 0.930 . S
C1489 C1487 1.419 . S
C1489 C1490 1.362 . S
C1490 H1482 0.930 . S
C1490 C1489 1.362 . S
C1490 C1493 1.409 . S
C1491 H1483 0.930 . S
C1491 C1492 1.355 . S
C1491 C1493 1.415 . S
C1492 C1491 1.355 . S
C1492 C1494 1.419 . S
C1493 C1488 1.425 . S
C1493 C1490 1.409 . S
C1493 C1491 1.415 . S
C1494 H1484 0.930 . S
C1494 C1492 1.419 . S
C1494 C1495 1.362 . S
C1495 H1485 0.930 . S
C1495 C1488 1.409 . S
C1495 C1494 1.362 . S
H1496 C1502 0.930 . S
H1497 C1505 0.930 . S
H1498 C1506 0.930 . S
H1499 C1507 0.930 . S
H1500 C1510 0.930 . S
H1501 C1511 0.930 . S
C1502 H1496 0.930 . S
C1502 C1503 1.355 . S
C1502 C1504 1.415 . S
C1503 C1502 1.355 . S
C1503 C1505 1.419 . S
C1504 C1502 1.415 . S
C1504 C1509 1.425 . S
C1504 C1511 1.409 . S
C1505 H1497 0.930 . S
C1505 C1503 1.419 . S
C1505 C1506 1.362 . S
C1506 H1498 0.930 . S
C1506 C1505 1.362 . S
C1506 C1509 1.409 . S
C1507 H1499 0.930 . S
C1507 C1508 1.355 . S
C1507 C1509 1.415 . S
C1508 C1507 1.355 . S
C1508 C1510 1.419 . S
C1509 C1504 1.425 . S
C1509 C1506 1.409 . S
C1509 C1507 1.415 . S
C1510 H1500 0.930 . S
C1510 C1508 1.419 . S
C1510 C1511 1.362 . S
C1511 H1501 0.930 . S
C1511 C1504 1.409 . S
C1511 C1510 1.362 . S
H1512 C1518 0.930 . S
H1513 C1521 0.930 . S
H1514 C1522 0.930 . S
H1515 C1523 0.930 . S
H1516 C1526 0.930 1_556 S
H1517 C1527 0.930 . S
C1518 H1512 0.930 . S
C1518 C1519 1.355 . S
C1518 C1520 1.415 . S
C1519 C1518 1.355 . S
C1519 C1521 1.419 . S
C1520 C1518 1.415 . S
C1520 C1525 1.425 . S
C1520 C1527 1.409 . S
C1521 H1513 0.930 . S
C1521 C1519 1.419 . S
C1521 C1522 1.362 . S
C1522 H1514 0.930 . S
C1522 C1521 1.362 . S
C1522 C1525 1.409 . S
C1523 H1515 0.930 . S
C1523 C1524 1.355 1_554 S
C1523 C1525 1.415 . S
C1524 C1523 1.355 1_556 S
C1524 C1526 1.419 1_556 S
C1525 C1520 1.425 . S
C1525 C1522 1.409 . S
C1525 C1523 1.415 . S
C1526 H1516 0.930 1_554 S
C1526 C1524 1.419 1_554 S
C1526 C1527 1.362 . S
C1527 H1517 0.930 . S
C1527 C1520 1.409 . S
C1527 C1526 1.362 . S
H1528 C1534 0.930 . S
H1529 C1537 0.930 . S
H1530 C1538 0.930 . S
H1531 C1539 0.930 . S
H1532 C1542 0.930 1_556 S
H1533 C1543 0.930 . S
C1534 H1528 0.930 . S
C1534 C1535 1.355 . S
C1534 C1536 1.415 . S
C1535 C1534 1.355 . S
C1535 C1537 1.419 . S
C1536 C1534 1.415 . S
C1536 C1541 1.425 . S
C1536 C1543 1.409 . S
C1537 H1529 0.930 . S
C1537 C1535 1.419 . S
C1537 C1538 1.362 . S
C1538 H1530 0.930 . S
C1538 C1537 1.362 . S
C1538 C1541 1.409 . S
C1539 H1531 0.930 . S
C1539 C1540 1.355 . S
C1539 C1541 1.415 . S
C1540 C1539 1.355 . S
C1540 C1542 1.419 . S
C1541 C1536 1.425 . S
C1541 C1538 1.409 . S
C1541 C1539 1.415 . S
C1542 H1532 0.930 1_554 S
C1542 C1540 1.419 . S
C1542 C1543 1.362 . S
C1543 H1533 0.930 . S
C1543 C1536 1.409 . S
C1543 C1542 1.362 . S
H1544 C1550 0.930 . S
H1545 C1553 0.930 . S
H1546 C1554 0.930 . S
H1547 C1555 0.930 . S
H1548 C1558 0.913 1_556 S
H1549 C1559 0.930 . S
C1550 H1544 0.930 . S
C1550 C1551 1.355 . S
C1550 C1552 1.415 . S
C1551 C1550 1.355 . S
C1551 C1553 1.419 . S
C1552 C1550 1.415 . S
C1552 C1557 1.425 . S
C1552 C1559 1.409 . S
C1553 H1545 0.930 . S
C1553 C1551 1.419 . S
C1553 C1554 1.362 . S
C1554 H1546 0.930 . S
C1554 C1553 1.362 . S
C1554 C1557 1.409 . S
C1555 H1547 0.930 . S
C1555 C1556 1.355 . S
C1555 C1557 1.415 . S
C1556 C1555 1.355 . S
C1556 C1558 1.419 . S
C1557 C1552 1.425 . S
C1557 C1554 1.409 . S
C1557 C1555 1.415 . S
C1558 H1548 0.913 1_554 S
C1558 C1556 1.419 . S
C1558 C1559 1.362 . S
C1559 H1549 0.930 . S
C1559 C1552 1.409 . S
C1559 C1558 1.362 . S
H1560 C1566 0.930 1_554 S
H1561 C1569 0.923 1_554 S
H1562 C1570 0.930 . S
H1563 C1571 0.930 . S
H1564 C1574 0.930 . S
H1565 C1575 0.930 . S
C1566 H1560 0.930 1_556 S
C1566 C1567 1.355 1_556 S
C1566 C1568 1.415 . S
C1567 C1566 1.355 1_554 S
C1567 C1569 1.419 1_554 S
C1568 C1566 1.415 . S
C1568 C1573 1.425 . S
C1568 C1575 1.409 . S
C1569 H1561 0.923 1_556 S
C1569 C1567 1.419 1_556 S
C1569 C1570 1.362 . S
C1570 H1562 0.930 . S
C1570 C1569 1.362 . S
C1570 C1573 1.409 . S
C1571 H1563 0.930 . S
C1571 C1572 1.355 . S
C1571 C1573 1.415 . S
C1572 C1571 1.355 . S
C1572 C1574 1.419 . S
C1573 C1568 1.425 . S
C1573 C1570 1.409 . S
C1573 C1571 1.415 . S
C1574 H1564 0.930 . S
C1574 C1572 1.419 . S
C1574 C1575 1.362 . S
C1575 H1565 0.930 . S
C1575 C1568 1.409 . S
C1575 C1574 1.362 . S
H1576 C1582 0.930 . S
H1577 C1585 0.930 1_554 S
H1578 C1586 0.930 . S
H1579 C1587 0.930 . S
H1580 C1590 0.930 . S
H1581 C1591 0.930 . S
C1582 H1576 0.930 . S
C1582 C1583 1.355 . S
C1582 C1584 1.415 . S
C1583 C1582 1.355 . S
C1583 C1585 1.419 . S
C1584 C1582 1.415 . S
C1584 C1589 1.425 . S
C1584 C1591 1.409 . S
C1585 H1577 0.930 1_556 S
C1585 C1583 1.419 . S
C1585 C1586 1.362 . S
C1586 H1578 0.930 . S
C1586 C1585 1.362 . S
C1586 C1589 1.409 . S
C1587 H1579 0.930 . S
C1587 C1588 1.355 . S
C1587 C1589 1.415 . S
C1588 C1587 1.355 . S
C1588 C1590 1.419 . S
C1589 C1584 1.425 . S
C1589 C1586 1.409 . S
C1589 C1587 1.415 . S
C1590 H1580 0.930 . S
C1590 C1588 1.419 . S
C1590 C1591 1.362 . S
C1591 H1581 0.930 . S
C1591 C1584 1.409 . S
C1591 C1590 1.362 . S
H1592 C1598 0.930 . S
H1593 C1601 0.930 . S
H1594 C1602 0.930 . S
H1595 C1603 0.930 . S
H1596 C1606 0.930 . S
H1597 C1607 0.930 . S
C1598 H1592 0.930 . S
C1598 C1599 1.355 . S
C1598 C1600 1.415 . S
C1599 C1598 1.355 . S
C1599 C1601 1.419 . S
C1600 C1598 1.415 . S
C1600 C1605 1.425 . S
C1600 C1607 1.409 . S
C1601 H1593 0.930 . S
C1601 C1599 1.419 . S
C1601 C1602 1.362 . S
C1602 H1594 0.930 . S
C1602 C1601 1.362 . S
C1602 C1605 1.409 . S
C1603 H1595 0.930 . S
C1603 C1604 1.355 . S
C1603 C1605 1.415 . S
C1604 C1603 1.355 . S
C1604 C1606 1.419 . S
C1605 C1600 1.425 . S
C1605 C1602 1.409 . S
C1605 C1603 1.415 . S
C1606 H1596 0.930 . S
C1606 C1604 1.419 . S
C1606 C1607 1.362 . S
C1607 H1597 0.930 . S
C1607 C1600 1.409 . S
C1607 C1606 1.362 . S
H1608 C1614 0.930 . S
H1609 C1617 0.930 . S
H1610 C1618 0.930 . S
H1611 C1619 0.930 . S
H1612 C1622 0.930 . S
H1613 C1623 0.930 . S
C1614 H1608 0.930 . S
C1614 C1615 1.355 . S
C1614 C1616 1.415 . S
C1615 C1614 1.355 . S
C1615 C1617 1.419 . S
C1616 C1614 1.415 . S
C1616 C1621 1.425 . S
C1616 C1623 1.409 . S
C1617 H1609 0.930 . S
C1617 C1615 1.419 . S
C1617 C1618 1.362 . S
C1618 H1610 0.930 . S
C1618 C1617 1.362 . S
C1618 C1621 1.409 . S
C1619 H1611 0.930 . S
C1619 C1620 1.355 . S
C1619 C1621 1.415 . S
C1620 C1619 1.355 . S
C1620 C1622 1.419 . S
C1621 C1616 1.425 . S
C1621 C1618 1.409 . S
C1621 C1619 1.415 . S
C1622 H1612 0.930 . S
C1622 C1620 1.419 . S
C1622 C1623 1.362 . S
C1623 H1613 0.930 . S
C1623 C1616 1.409 . S
C1623 C1622 1.362 . S
H1624 C1630 0.930 . S
H1625 C1633 0.930 . S
H1626 C1634 0.930 . S
H1627 C1635 0.930 . S
H1628 C1638 0.930 . S
H1629 C1639 0.930 . S
C1630 H1624 0.930 . S
C1630 C1631 1.355 . S
C1630 C1632 1.415 . S
C1631 C1630 1.355 . S
C1631 C1633 1.419 . S
C1632 C1630 1.415 . S
C1632 C1637 1.425 . S
C1632 C1639 1.409 . S
C1633 H1625 0.930 . S
C1633 C1631 1.419 . S
C1633 C1634 1.362 . S
C1634 H1626 0.930 . S
C1634 C1633 1.362 . S
C1634 C1637 1.409 . S
C1635 H1627 0.930 . S
C1635 C1636 1.355 . S
C1635 C1637 1.415 . S
C1636 C1635 1.355 . S
C1636 C1638 1.419 . S
C1637 C1632 1.425 . S
C1637 C1634 1.409 . S
C1637 C1635 1.415 . S
C1638 H1628 0.930 . S
C1638 C1636 1.419 . S
C1638 C1639 1.362 . S
C1639 H1629 0.930 . S
C1639 C1632 1.409 . S
C1639 C1638 1.362 . S
H1640 C1646 0.930 . S
H1641 C1649 0.930 . S
H1642 C1650 0.930 . S
H1643 C1651 0.930 . S
H1644 C1654 0.930 . S
H1645 C1655 0.930 . S
C1646 H1640 0.930 . S
C1646 C1647 1.355 . S
C1646 C1648 1.415 . S
C1647 C1646 1.355 . S
C1647 C1649 1.419 . S
C1648 C1646 1.415 . S
C1648 C1653 1.425 . S
C1648 C1655 1.409 . S
C1649 H1641 0.930 . S
C1649 C1647 1.419 . S
C1649 C1650 1.362 . S
C1650 H1642 0.930 . S
C1650 C1649 1.362 . S
C1650 C1653 1.409 . S
C1651 H1643 0.930 . S
C1651 C1652 1.355 . S
C1651 C1653 1.415 . S
C1652 C1651 1.355 . S
C1652 C1654 1.419 . S
C1653 C1648 1.425 . S
C1653 C1650 1.409 . S
C1653 C1651 1.415 . S
C1654 H1644 0.930 . S
C1654 C1652 1.419 . S
C1654 C1655 1.362 . S
C1655 H1645 0.930 . S
C1655 C1648 1.409 . S
C1655 C1654 1.362 . S
C511 C229 1.392 . S
C516 C5 1.301 1_556 S
C527 C243 1.295 . S
C532 C19 1.402 . S
C543 C39 1.507 1_556 S
C548 C221 1.445 . S
C559 C375 1.444 . S
C564 C53 1.507 . S
C575 C341 1.301 . S
C580 C61 1.407 . S
C591 C75 1.363 . S
C596 C355 1.359 . S
C607 C487 1.305 . S
C612 C95 1.277 . S
C623 C501 1.277 . S
C628 C109 1.221 . S
C639 C473 1.229 . S
C644 C123 1.281 . S
C655 C291 1.289 . S
C660 C137 1.294 . S
C671 C151 1.298 . S
C676 C263 1.295 . S
C687 C277 1.219 . S
C692 C165 1.271 . S
C703 C397 1.371 . S
C708 C173 1.317 . S
C719 C187 1.327 . S
C724 C411 1.360 . S
C735 C389 1.493 . S
C740 C207 1.459 . S
C751 C459 1.240 . S
C756 C305 1.293 . S
C767 C431 1.307 . S
C772 C319 1.277 . S
C783 C333 1.306 . S
C788 C445 1.283 . S
C799 C102 1.449 . S
C804 C4 1.506 . S
C815 C116 1.437 . S
C820 C18 1.461 . S
C831 C88 1.395 . S
C836 C40 1.397 . S
C847 C54 1.378 . S
C852 C158 1.347 . S
C863 C130 1.427 . S
C868 C60 1.471 . S
C879 C74 1.503 . S
C884 C144 1.463 . S
C895 C25 1.196 . S
C900 C96 1.216 . S
C911 C110 1.192 . S
C916 C33 1.094 1_554 S
C927 C11 1.285 . S
C932 C124 1.296 1_554 S
C943 C81 1.253 . S
C948 C138 1.299 . S
C959 C47 0.992 . S
C964 C152 1.195 . S
C975 C166 1.216 . S
C980 C67 1.195 . S
C991 C172 1.483 . S
C996 C270 1.496 . S
C1007 C284 1.424 . S
C1012 C186 1.473 . S
C1023 C256 1.358 . S
C1028 C208 1.386 . S
C1039 C222 1.400 . S
C1044 C326 1.398 . S
C1055 C298 1.470 . S
C1060 C228 1.434 . S
C1071 C242 1.510 . S
C1076 C312 1.445 . S
C1087 C264 1.188 . S
C1092 C193 1.134 . S
C1103 C278 1.160 . S
C1108 C201 0.974 . S
C1119 C179 1.277 . S
C1124 C292 1.311 . S
C1135 C249 1.264 . S
C1140 C306 1.305 . S
C1151 C215 0.972 . S
C1156 C320 1.189 . S
C1167 C334 1.203 . S
C1172 C235 1.161 . S
C1183 C438 1.445 . S
C1188 C340 1.510 . S
C1199 C354 1.466 . S
C1204 C452 1.434 . S
C1215 C376 1.371 . S
C1220 C424 1.351 . S
C1231 C494 1.382 . S
C1236 C390 1.386 . S
C1247 C396 1.473 . S
C1252 C466 1.423 . S
C1263 C480 1.498 . S
C1268 C410 1.478 . S
C1279 C361 1.201 . S
C1284 C432 1.217 . S
C1295 C369 1.004 . S
C1300 C446 1.197 . S
C1311 C460 1.317 . S
C1316 C347 1.291 . S
C1327 C474 1.273 . S
C1332 C417 1.232 . S
C1343 C383 1.123 . S
C1348 C488 1.163 . S
C1359 C403 1.122 . S
C1364 C502 1.169 . S
C1375 C12 1.440 . S
C1380 C46 1.422 . S
C1391 C26 1.340 . S
C1396 C68 1.339 . S
C1407 C82 1.444 . S
C1412 C32 1.419 . S
C1423 C89 1.113 . S
C1428 C131 1.130 . S
C1439 C145 1.025 . S
C1444 C103 1.044 1_545 S
C1455 C159 1.118 1_455 S
C1460 C117 1.072 . S
C1471 C180 1.446 . S
C1476 C214 1.417 . S
C1487 C194 1.369 . S
C1492 C236 1.354 . S
C1503 C250 1.452 . S
C1508 C200 1.416 . S
C1519 C257 0.973 . S
C1524 C299 0.991 . S
C1535 C271 1.123 . S
C1540 C313 1.160 1_554 S
C1551 C285 1.058 . S
C1556 C327 1.107 1_554 S
C1567 C382 1.417 . S
C1572 C348 1.447 . S
C1583 C404 1.346 1_556 S
C1588 C362 1.362 . S
C1599 C418 1.427 1_556 S
C1604 C368 1.450 . S
C1615 C425 1.140 . S
C1620 C467 1.111 . S
C1631 C481 1.171 . S
C1636 C439 1.192 . S
C1647 C495 1.011 . S
C1652 C453 1.046 . S
