# Generated by pormake.
# Topology ukt, (4)-cn, num edge types: 1
# Building blocks:
#     Node 0, Type 0, BuildingBlock: GALJAG_clean_sbu_0, # of connection points: 4
#     Node 1, Type 0, BuildingBlock: GALJAG_clean_sbu_0, # of connection points: 4
#     Node 2, Type 0, BuildingBlock: GALJAG_clean_sbu_0, # of connection points: 4
#     Node 3, Type 0, BuildingBlock: GALJAG_clean_sbu_0, # of connection points: 4
#     Node 4, Type 0, BuildingBlock: GALJAG_clean_sbu_0, # of connection points: 4
#     Node 5, Type 0, BuildingBlock: GALJAG_clean_sbu_0, # of connection points: 4
#     Node 6, Type 0, BuildingBlock: GALJAG_clean_sbu_0, # of connection points: 4
#     Node 7, Type 0, BuildingBlock: GALJAG_clean_sbu_0, # of connection points: 4
#     Node 8, Type 0, BuildingBlock: GALJAG_clean_sbu_0, # of connection points: 4
#     Node 9, Type 0, BuildingBlock: GALJAG_clean_sbu_0, # of connection points: 4
#     Node 10, Type 0, BuildingBlock: GALJAG_clean_sbu_0, # of connection points: 4
#     Node 11, Type 0, BuildingBlock: GALJAG_clean_sbu_0, # of connection points: 4
#     Node 12, Type 0, BuildingBlock: GALJAG_clean_sbu_0, # of connection points: 4
#     Node 13, Type 0, BuildingBlock: GALJAG_clean_sbu_0, # of connection points: 4
#     Node 14, Type 0, BuildingBlock: GALJAG_clean_sbu_0, # of connection points: 4
#     Node 15, Type 0, BuildingBlock: GALJAG_clean_sbu_0, # of connection points: 4
#     Edge 16, Type (0, 0), BuildingBlock: XUDNAN_clean_linker_2, # of connection points: 2
#     Edge 17, Type (0, 0), BuildingBlock: XUDNAN_clean_linker_2, # of connection points: 2
#     Edge 18, Type (0, 0), BuildingBlock: XUDNAN_clean_linker_2, # of connection points: 2
#     Edge 19, Type (0, 0), BuildingBlock: XUDNAN_clean_linker_2, # of connection points: 2
#     Edge 20, Type (0, 0), BuildingBlock: XUDNAN_clean_linker_2, # of connection points: 2
#     Edge 21, Type (0, 0), BuildingBlock: XUDNAN_clean_linker_2, # of connection points: 2
#     Edge 22, Type (0, 0), BuildingBlock: XUDNAN_clean_linker_2, # of connection points: 2
#     Edge 23, Type (0, 0), BuildingBlock: XUDNAN_clean_linker_2, # of connection points: 2
#     Edge 24, Type (0, 0), BuildingBlock: XUDNAN_clean_linker_2, # of connection points: 2
#     Edge 25, Type (0, 0), BuildingBlock: XUDNAN_clean_linker_2, # of connection points: 2
#     Edge 26, Type (0, 0), BuildingBlock: XUDNAN_clean_linker_2, # of connection points: 2
#     Edge 27, Type (0, 0), BuildingBlock: XUDNAN_clean_linker_2, # of connection points: 2
#     Edge 28, Type (0, 0), BuildingBlock: XUDNAN_clean_linker_2, # of connection points: 2
#     Edge 29, Type (0, 0), BuildingBlock: XUDNAN_clean_linker_2, # of connection points: 2
#     Edge 30, Type (0, 0), BuildingBlock: XUDNAN_clean_linker_2, # of connection points: 2
#     Edge 31, Type (0, 0), BuildingBlock: XUDNAN_clean_linker_2, # of connection points: 2
#     Edge 32, Type (0, 0), BuildingBlock: XUDNAN_clean_linker_2, # of connection points: 2
#     Edge 33, Type (0, 0), BuildingBlock: XUDNAN_clean_linker_2, # of connection points: 2
#     Edge 34, Type (0, 0), BuildingBlock: XUDNAN_clean_linker_2, # of connection points: 2
#     Edge 35, Type (0, 0), BuildingBlock: XUDNAN_clean_linker_2, # of connection points: 2
#     Edge 36, Type (0, 0), BuildingBlock: XUDNAN_clean_linker_2, # of connection points: 2
#     Edge 37, Type (0, 0), BuildingBlock: XUDNAN_clean_linker_2, # of connection points: 2
#     Edge 38, Type (0, 0), BuildingBlock: XUDNAN_clean_linker_2, # of connection points: 2
#     Edge 39, Type (0, 0), BuildingBlock: XUDNAN_clean_linker_2, # of connection points: 2
#     Edge 40, Type (0, 0), BuildingBlock: XUDNAN_clean_linker_2, # of connection points: 2
#     Edge 41, Type (0, 0), BuildingBlock: XUDNAN_clean_linker_2, # of connection points: 2
#     Edge 42, Type (0, 0), BuildingBlock: XUDNAN_clean_linker_2, # of connection points: 2
#     Edge 43, Type (0, 0), BuildingBlock: XUDNAN_clean_linker_2, # of connection points: 2
#     Edge 44, Type (0, 0), BuildingBlock: XUDNAN_clean_linker_2, # of connection points: 2
#     Edge 45, Type (0, 0), BuildingBlock: XUDNAN_clean_linker_2, # of connection points: 2
#     Edge 46, Type (0, 0), BuildingBlock: XUDNAN_clean_linker_2, # of connection points: 2
#     Edge 47, Type (0, 0), BuildingBlock: XUDNAN_clean_linker_2, # of connection points: 2
# Relax obj value: 0.210
# Max RMSD: 0.110
# Mean RMSD: 0.110
data_MOF--net-ukt--node1-GALJAG_clean_sbu_0--edge1-XUDNAN_clean_linker_2
_symmetry_space_group_name_H-M    P1
_symmetry_Int_Tables_number       1
_symmetry_cell_setting            triclinic
loop_
_symmetry_equiv_pos_as_xyz
'x, y, z'
_cell_length_a     42.223541
_cell_length_b     42.247362
_cell_length_c     34.526859
_cell_angle_alpha  90.073305
_cell_angle_beta   90.01536
_cell_angle_gamma 90.019329
loop_
_atom_site_label
_atom_site_type_symbol
_atom_site_fract_x
_atom_site_fract_y
_atom_site_fract_z
_atom_type_partial_charge
In0 In 0.58063 0.12712 0.09773 0.0
O1 O 0.63065 0.11561 0.11962 0.0
O2 O 0.61739 0.10138 0.06267 0.0
C3 C 0.55696 0.15827 0.15951 0.0
C4 C 0.55108 0.07128 0.08989 0.0
C5 C 0.58566 0.17398 0.04535 0.0
O6 O 0.58526 0.1488 0.15769 0.0
O7 O 0.54009 0.15105 0.13064 0.0
O8 O 0.56199 0.15567 0.0459 0.0
O9 O 0.60578 0.16901 0.07156 0.0
C10 C 0.6386 0.10215 0.08834 0.0
O11 O 0.54893 0.09301 0.06494 0.0
O12 O 0.56607 0.07873 0.12022 0.0
In13 In 0.32838 0.51911 0.0343 0.0
O14 O 0.34406 0.56868 0.05289 0.0
O15 O 0.37504 0.54194 0.01709 0.0
C16 C 0.29729 0.50562 0.10087 0.0
C17 C 0.36903 0.47341 0.01277 0.0
C18 C 0.28455 0.53833 0.98235 0.0
O19 O 0.3195 0.52542 0.0989 0.0
O20 O 0.29161 0.49133 0.06957 0.0
O21 O 0.29014 0.50946 0.98855 0.0
O22 O 0.30099 0.55718 0.0022 0.0
C23 C 0.3702 0.56735 0.0352 0.0
O24 O 0.3483 0.48459 0.99026 0.0
O25 O 0.36739 0.48347 0.04722 0.0
In26 In 0.9211 0.37027 0.09511 0.0
O27 O 0.87107 0.36688 0.11979 0.0
O28 O 0.89156 0.41253 0.11415 0.0
C29 C 0.95021 0.33036 0.14499 0.0
C30 C 0.9561 0.4201 0.07223 0.0
C31 C 0.90274 0.33591 0.03312 0.0
O32 O 0.93354 0.35333 0.15629 0.0
O33 O 0.9526 0.32793 0.1088 0.0
O34 O 0.9315 0.3414 0.04053 0.0
O35 O 0.88339 0.34799 0.05666 0.0
C36 C 0.86749 0.39646 0.12302 0.0
O37 O 0.93553 0.40722 0.05099 0.0
O38 O 0.9601 0.40698 0.10468 0.0
In39 In 0.1594 0.9731 0.09377 0.0
O40 O 0.14728 0.01106 0.04901 0.0
O41 O 0.11186 -0.00134 0.08952 0.0
C42 C 0.21683 0.96084 0.0644 0.0
C43 C 0.13098 0.91786 0.07541 0.0
C44 C 0.17477 0.98814 0.16779 0.0
O45 O 0.20344 0.98738 0.06016 0.0
O46 O 0.20139 0.94082 0.08392 0.0
O47 O 0.15101 0.97158 0.15908 0.0
O48 O 0.18986 -0.00131 0.13912 0.0
C49 C 0.11901 0.01432 0.05978 0.0
O50 O 0.13253 0.92792 0.10979 0.0
O51 O 0.14396 0.93544 0.05059 0.0
In52 In 0.54066 0.3321 0.44775 0.0
O53 O 0.57517 0.36579 0.41773 0.0
O54 O 0.57845 0.36018 0.47889 0.0
C55 C 0.53068 0.30224 0.37972 0.0
C56 C 0.49939 0.37358 0.47802 0.0
C57 C 0.55402 0.28138 0.49164 0.0
O58 O 0.55768 0.30809 0.39341 0.0
O59 O 0.50786 0.31257 0.3998 0.0
O60 O 0.52589 0.2894 0.48402 0.0
O61 O 0.57506 0.29916 0.47757 0.0
C62 C 0.58864 0.3738 0.44889 0.0
O63 O 0.50674 0.34815 0.49484 0.0
O64 O 0.5102 0.37635 0.4441 0.0
In65 In 0.13515 0.57089 0.39051 0.0
O66 O 0.10984 0.61507 0.3681 0.0
O67 O 0.14983 0.62153 0.40442 0.0
C68 C 0.16403 0.54777 0.32644 0.0
C69 C 0.07637 0.5516 0.41036 0.0
C70 C 0.17304 0.55586 0.45037 0.0
O71 O 0.14101 0.53396 0.34236 0.0
O72 O 0.17199 0.57344 0.3423 0.0
O73 O 0.16845 0.53716 0.42232 0.0
O74 O 0.15795 0.58158 0.44846 0.0
C75 C 0.12741 0.63426 0.38604 0.0
O76 O 0.10021 0.54667 0.43143 0.0
O77 O 0.0824 0.56484 0.37854 0.0
In78 In 0.93252 0.15496 0.41523 0.0
O79 O 0.94735 0.1374 0.47448 0.0
O80 O 0.97301 0.12009 0.42607 0.0
C81 C 0.90454 0.20127 0.45651 0.0
C82 C 0.88557 0.1157 0.39262 0.0
C83 C 0.96289 0.18317 0.35554 0.0
O84 O 0.93424 0.1982 0.45452 0.0
O85 O 0.8889 0.18081 0.4379 0.0
O86 O 0.95266 0.1552 0.35342 0.0
O87 O 0.959 0.19612 0.38799 0.0
C88 C 0.96844 0.11889 0.46218 0.0
O89 O 0.88764 0.14375 0.38022 0.0
O90 O 0.90728 0.10768 0.41561 0.0
In91 In 0.34156 0.91229 0.44343 0.0
O92 O 0.37536 0.88215 0.40679 0.0
O93 O 0.33646 0.85938 0.43361 0.0
C94 C 0.30177 0.93905 0.3915 0.0
C95 C 0.39629 0.9322 0.47516 0.0
C96 C 0.30536 0.91517 0.50718 0.0
O97 O 0.29557 0.91442 0.41038 0.0
O98 O 0.32905 0.95039 0.39753 0.0
O99 O 0.31466 0.93987 0.48985 0.0
O100 O 0.31493 0.88942 0.49267 0.0
C101 C 0.36122 0.8565 0.41361 0.0
O102 O 0.37729 0.91378 0.49191 0.0
O103 O 0.38721 0.94199 0.44233 0.0
In104 In 0.45949 0.8285 0.94168 0.0
O105 O 0.43169 0.87455 0.93828 0.0
O106 O 0.41199 0.83641 0.97063 0.0
C107 C 0.45478 0.8119 0.86622 0.0
C108 C 0.50339 0.86628 0.97451 0.0
C109 C 0.45851 0.77141 0.97555 0.0
O110 O 0.43256 0.82426 0.88517 0.0
O111 O 0.48028 0.80867 0.88488 0.0
O112 O 0.48172 0.78051 0.95528 0.0
O113 O 0.43638 0.79127 0.97897 0.0
C114 C 0.40929 0.86469 0.95927 0.0
O115 O 0.49101 0.84324 0.9919 0.0
O116 O 0.49567 0.86867 0.93933 0.0
In117 In 0.65037 0.4325 0.93338 0.0
O118 O 0.66466 0.38103 0.94058 0.0
O119 O 0.62352 0.3907 0.90725 0.0
C120 C 0.68932 0.45628 0.87835 0.0
C121 C 0.58932 0.45045 0.93877 0.0
C122 C 0.67912 0.44227 0.00212 0.0
O123 O 0.68972 0.42775 0.88878 0.0
O124 O 0.66884 0.47304 0.89526 0.0
O125 O 0.67579 0.46423 0.97763 0.0
O126 O 0.66717 0.41617 0.9922 0.0
C127 C 0.64134 0.37005 0.92205 0.0
O128 O 0.60718 0.44823 0.96792 0.0
O129 O 0.60287 0.44579 0.90672 0.0
In130 In 0.04158 0.66909 0.91666 0.0
O131 O 0.07014 0.62924 0.88907 0.0
O132 O 0.09535 0.66917 0.90995 0.0
C133 C 0.0066 0.68851 0.85543 0.0
C134 C 0.01924 0.62477 0.96553 0.0
C135 C 0.05187 0.72214 0.95751 0.0
O136 O 0.02498 0.66512 0.85377 0.0
O137 O 0.00497 0.70143 0.88822 0.0
O138 O 0.03144 0.7018 0.96739 0.0
O139 O 0.0668 0.71586 0.92668 0.0
C140 C 0.09667 0.64204 0.89477 0.0
O141 O 0.044 0.6405 0.97183 0.0
O142 O 0.00461 0.63221 0.93495 0.0
In143 In 0.87123 0.0812 0.88875 0.0
O144 O 0.90541 0.05264 0.92551 0.0
O145 O 0.92463 0.07842 0.87826 0.0
C146 C 0.83179 0.06969 0.94858 0.0
C147 C 0.86941 0.14512 0.88899 0.0
C148 C 0.8513 0.05481 0.8215 0.0
O149 O 0.85765 0.08423 0.95249 0.0
O150 O 0.82607 0.06035 0.91455 0.0
O151 O 0.854 0.08426 0.82634 0.0
O152 O 0.85997 0.0384 0.85008 0.0
C153 C 0.92988 0.0613 0.9075 0.0
O154 O 0.89489 0.1297 0.88657 0.0
O155 O 0.84474 0.12831 0.88959 0.0
In156 In 0.41737 0.62986 0.58603 0.0
O157 O 0.45766 0.59989 0.56341 0.0
O158 O 0.43709 0.58693 0.61746 0.0
C159 C 0.42031 0.66455 0.5204 0.0
C160 C 0.36362 0.59548 0.58338 0.0
C161 C 0.42212 0.67341 0.64325 0.0
O162 O 0.44413 0.66075 0.54197 0.0
O163 O 0.39575 0.65045 0.53164 0.0
O164 O 0.39806 0.67024 0.62208 0.0
O165 O 0.44401 0.65381 0.63654 0.0
C166 C 0.45612 0.57986 0.59052 0.0
O167 O 0.3664 0.61924 0.60535 0.0
O168 O 0.38767 0.58931 0.56326 0.0
In169 In 0.83106 0.46748 0.57552 0.0
O170 O 0.85026 0.5061 0.53628 0.0
O171 O 0.88324 0.48125 0.5713 0.0
C172 C 0.77881 0.47426 0.53173 0.0
C173 C 0.84009 0.40465 0.5652 0.0
C174 C 0.81996 0.48281 0.65034 0.0
O175 O 0.80549 0.46763 0.51742 0.0
O176 O 0.77878 0.47847 0.56792 0.0
O177 O 0.82913 0.45579 0.63975 0.0
O178 O 0.81813 0.50284 0.62338 0.0
C179 C 0.87884 0.50175 0.54531 0.0
O180 O 0.86266 0.42421 0.56513 0.0
O181 O 0.81329 0.41667 0.57139 0.0
In182 In 0.04956 0.85685 0.58612 0.0
O183 O 0.03809 0.89575 0.54299 0.0
O184 O 0.01641 0.89818 0.59849 0.0
C185 C 0.06446 0.82115 0.52396 0.0
C186 C 0.10623 0.87676 0.61312 0.0
C187 C 0.01516 0.82102 0.63558 0.0
O188 O 0.03799 0.83491 0.52702 0.0
O189 O 0.0831 0.82562 0.55197 0.0
O190 O 0.03322 0.84292 0.64679 0.0
O191 O 0.01389 0.81756 0.59941 0.0
C192 C 0.02062 0.91108 0.56594 0.0
O193 O 0.09891 0.84786 0.61106 0.0
O194 O 0.08457 0.89547 0.60299 0.0
In195 In 0.66785 0.01991 0.54438 0.0
O196 O 0.66548 0.0733 0.53808 0.0
O197 O 0.62891 0.05099 0.5703 0.0
C198 C 0.70977 0.01424 0.6031 0.0
C199 C 0.61724 0.98158 0.53596 0.0
C200 C 0.70278 0.01752 0.47904 0.0
O201 O 0.70083 0.04041 0.58951 0.0
O202 O 0.69716 0.99028 0.58743 0.0
O203 O 0.7085 1e-05 0.50783 0.0
O204 O 0.67884 0.03502 0.48284 0.0
C205 C 0.64009 0.0764 0.55691 0.0
O206 O 0.63028 0.9955 0.50794 0.0
O207 O 0.63103 0.98526 0.5681 0.0
H208 H 0.63794 0.21042 0.03601 0.0
H209 H 0.54379 0.19441 0.98966 0.0
H210 H 0.55161 0.23883 0.94377 0.0
H211 H 0.63484 0.29156 0.03687 0.0
H212 H 0.67573 0.29752 0.02381 0.0
H213 H 0.66409 0.26195 0.04839 0.0
H214 H 0.68855 0.2284 0.99297 0.0
H215 H 0.70003 0.26405 0.96801 0.0
H216 H 0.67593 0.23492 0.94374 0.0
H217 H 0.56745 0.28907 0.90924 0.0
H218 H 0.58852 0.34171 0.89164 0.0
H219 H 0.67267 0.32328 0.96004 0.0
C220 C 0.61912 0.21588 0.01578 0.0
C221 C 0.59025 0.19909 0.0163 0.0
C222 C 0.56613 0.20702 0.98958 0.0
C223 C 0.57045 0.23205 0.96332 0.0
C224 C 0.59917 0.24843 0.96393 0.0
C225 C 0.62312 0.24051 0.98943 0.0
C226 C 0.65059 0.26335 0.98699 0.0
C227 C 0.65663 0.27955 0.02633 0.0
C228 C 0.68055 0.24668 0.97202 0.0
C229 C 0.63781 0.28633 0.9574 0.0
C230 C 0.6084 0.27707 0.94381 0.0
C231 C 0.59072 0.29622 0.91906 0.0
C232 C 0.60291 0.32604 0.90914 0.0
C233 C 0.63231 0.33641 0.9243 0.0
C234 C 0.6504 0.31576 0.94747 0.0
H235 H 0.1554 0.66106 0.91762 0.0
H236 H 0.10492 0.58265 0.86493 0.0
H237 H 0.15233 0.549 0.87207 0.0
H238 H 0.23758 0.63933 0.88056 0.0
H239 H 0.25519 0.65165 0.9257 0.0
H240 H 0.22035 0.67146 0.90772 0.0
H241 H 0.19169 0.65983 0.97251 0.0
H242 H 0.22608 0.63964 0.99045 0.0
H243 H 0.18845 0.61949 0.98908 0.0
H244 H 0.20047 0.5213 0.89703 0.0
H245 H 0.2464 0.50261 0.93516 0.0
H246 H 0.26536 0.59911 0.97143 0.0
C247 C 0.15478 0.63722 0.90606 0.0
C248 C 0.12664 0.62448 0.89052 0.0
C249 C 0.12639 0.59294 0.87665 0.0
C250 C 0.15322 0.57366 0.88054 0.0
C251 C 0.18014 0.58643 0.89795 0.0
C252 C 0.18129 0.61769 0.90992 0.0
C253 C 0.21132 0.62459 0.9323 0.0
C254 C 0.23236 0.64815 0.91024 0.0
C255 C 0.20392 0.63656 0.9735 0.0
C256 C 0.22601 0.59196 0.93298 0.0
C257 C 0.20803 0.57036 0.91241 0.0
C258 C 0.2152 0.53813 0.91236 0.0
C259 C 0.24119 0.5277 0.93424 0.0
C260 C 0.25946 0.54946 0.95599 0.0
C261 C 0.25209 0.582 0.95458 0.0
H262 H 0.91984 0.18355 0.90378 0.0
H263 H 0.81741 0.18338 0.89448 0.0
H264 H 0.8158 0.23765 0.92096 0.0
H265 H 0.92337 0.21663 0.99207 0.0
H266 H 0.95827 0.24041 0.98447 0.0
H267 H 0.95232 0.20513 0.95634 0.0
H268 H 0.95707 0.23743 0.89286 0.0
H269 H 0.96344 0.27293 0.92085 0.0
H270 H 0.93203 0.27145 0.88552 0.0
H271 H 0.82436 0.2866 0.95977 0.0
H272 H 0.84259 0.32721 0.00619 0.0
H273 H 0.93953 0.29587 0.99031 0.0
C274 C 0.89718 0.19544 0.90583 0.0
C275 C 0.86877 0.17944 0.89681 0.0
C276 C 0.83948 0.19537 0.9009 0.0
C277 C 0.83835 0.22622 0.91585 0.0
C278 C 0.86673 0.24084 0.9262 0.0
C279 C 0.89567 0.22613 0.9209 0.0
C280 C 0.92231 0.24512 0.93893 0.0
C281 C 0.94008 0.22566 0.96978 0.0
C282 C 0.94505 0.25747 0.90767 0.0
C283 C 0.90366 0.2719 0.95702 0.0
C284 C 0.87171 0.26933 0.94874 0.0
C285 C 0.84939 0.28935 0.96563 0.0
C286 C 0.85994 0.31224 0.99209 0.0
C287 C 0.89247 0.31479 0.00148 0.0
C288 C 0.9146 0.29486 0.98299 0.0
H289 H 0.3588 0.84792 0.00389 0.0
H290 H 0.39941 0.92691 0.9408 0.0
H291 H 0.35484 0.96087 0.9618 0.0
H292 H 0.27747 0.86511 0.98252 0.0
H293 H 0.26353 0.85307 0.02959 0.0
H294 H 0.29861 0.8353 0.00944 0.0
H295 H 0.33037 0.85158 0.07062 0.0
H296 H 0.29541 0.86953 0.09088 0.0
H297 H 0.33108 0.89253 0.08534 0.0
H298 H 0.30561 0.98597 0.98984 0.0
H299 H 0.25505 -3e-05 0.02181 0.0
H300 H 0.24769 0.90428 0.06653 0.0
C301 C 0.35829 0.87234 0.99439 0.0
C302 C 0.38243 0.88484 0.97069 0.0
C303 C 0.38102 0.9169 0.9589 0.0
C304 C 0.35588 0.93634 0.97073 0.0
C305 C 0.33251 0.92328 0.99429 0.0
C306 C 0.33349 0.892 0.00591 0.0
C307 C 0.30546 0.88362 0.0311 0.0
C308 C 0.28507 0.85775 0.01201 0.0
C309 C 0.31624 0.87374 0.0719 0.0
C310 C 0.28848 0.91507 0.03183 0.0
C311 C 0.30441 0.93769 0.0105 0.0
C312 C 0.29295 0.96847 0.00667 0.0
C313 C 0.26429 0.9762 0.02493 0.0
C314 C 0.24759 0.95321 0.04665 0.0
C315 C 0.26003 0.92238 0.05025 0.0
H316 H 0.61203 0.25419 0.49766 0.0
H317 H 0.51386 0.24218 0.53154 0.0
H318 H 0.52711 0.19036 0.56077 0.0
H319 H 0.62304 0.17781 0.4666 0.0
H320 H 0.66354 0.17449 0.48258 0.0
H321 H 0.6475 0.21264 0.4707 0.0
H322 H 0.66267 0.23356 0.53886 0.0
H323 H 0.6789 0.19537 0.55096 0.0
H324 H 0.64891 0.21291 0.58131 0.0
H325 H 0.55008 0.13754 0.57968 0.0
H326 H 0.58005 0.08734 0.58372 0.0
H327 H 0.66251 0.13409 0.53535 0.0
C328 C 0.59347 0.24107 0.51217 0.0
C329 C 0.56201 0.2522 0.51274 0.0
C330 C 0.53818 0.23405 0.53108 0.0
C331 C 0.54552 0.20471 0.54787 0.0
C332 C 0.57674 0.19405 0.54602 0.0
C333 C 0.60032 0.21174 0.52861 0.0
C334 C 0.63115 0.19367 0.52639 0.0
C335 C 0.64191 0.1894 0.48407 0.0
C336 C 0.65693 0.20984 0.55085 0.0
C337 C 0.62103 0.16262 0.54414 0.0
C338 C 0.58976 0.16343 0.556 0.0
C339 C 0.5747 0.13677 0.57103 0.0
C340 C 0.59188 0.1084 0.57322 0.0
C341 C 0.62356 0.10697 0.55992 0.0
C342 C 0.63839 0.1346 0.54602 0.0
H343 H 0.30398 0.61915 0.58968 0.0
H344 H 0.35654 0.53444 0.56044 0.0
H345 H 0.30767 0.50962 0.5357 0.0
H346 H 0.22355 0.57894 0.60959 0.0
H347 H 0.20305 0.61129 0.58663 0.0
H348 H 0.23927 0.61853 0.61291 0.0
H349 H 0.26327 0.64509 0.55202 0.0
H350 H 0.22747 0.63773 0.52556 0.0
H351 H 0.26471 0.62326 0.50714 0.0
H352 H 0.25764 0.49895 0.50119 0.0
H353 H 0.2108 0.5037 0.45882 0.0
H354 H 0.19044 0.59579 0.50852 0.0
C355 C 0.3047 0.59479 0.57992 0.0
C356 C 0.33368 0.57842 0.57745 0.0
C357 C 0.33433 0.54712 0.56291 0.0
C358 C 0.30667 0.53281 0.54898 0.0
C359 C 0.27861 0.55016 0.54979 0.0
C360 C 0.27734 0.58043 0.56521 0.0
C361 C 0.24594 0.59615 0.55631 0.0
C362 C 0.22682 0.60153 0.59359 0.0
C363 C 0.25066 0.62736 0.53391 0.0
C364 C 0.23076 0.57094 0.53124 0.0
C365 C 0.24953 0.5442 0.52882 0.0
C366 C 0.24229 0.51936 0.50367 0.0
C367 C 0.21571 0.5223 0.4796 0.0
C368 C 0.197 0.55004 0.48059 0.0
C369 C 0.20405 0.57408 0.50768 0.0
H370 H 0.89539 0.37355 0.54871 0.0
H371 H 0.79388 0.35977 0.5591 0.0
H372 H 0.79982 0.30458 0.53671 0.0
H373 H 0.9052 0.33105 0.46285 0.0
H374 H 0.94284 0.31389 0.47567 0.0
H375 H 0.93113 0.35125 0.49622 0.0
H376 H 0.93884 0.32868 0.56536 0.0
H377 H 0.95077 0.29124 0.545 0.0
H378 H 0.9185 0.29289 0.57911 0.0
H379 H 0.81603 0.25294 0.50698 0.0
H380 H 0.84187 0.20756 0.47459 0.0
H381 H 0.93289 0.25451 0.48514 0.0
C382 C 0.87451 0.35872 0.54699 0.0
C383 C 0.84419 0.37084 0.55574 0.0
C384 C 0.81736 0.35087 0.55271 0.0
C385 C 0.82049 0.3195 0.54003 0.0
C386 C 0.85064 0.30844 0.53086 0.0
C387 C 0.87723 0.32732 0.53454 0.0
C388 C 0.90669 0.31017 0.52099 0.0
C389 C 0.92237 0.32763 0.48691 0.0
C390 C 0.93008 0.30546 0.55463 0.0
C391 C 0.89239 0.27901 0.5082 0.0
C392 C 0.86005 0.27843 0.51427 0.0
C393 C 0.84141 0.2529 0.50262 0.0
C394 C 0.85625 0.22731 0.48416 0.0
C395 C 0.88935 0.22748 0.4777 0.0
C396 C 0.9076 0.25355 0.49024 0.0
H397 H 0.15962 0.84119 0.60896 0.0
H398 H 0.12645 0.93721 0.62593 0.0
H399 H 0.18061 0.9572 0.61541 0.0
H400 H 0.24564 0.85428 0.64573 0.0
H401 H 0.26022 0.82838 0.60823 0.0
H402 H 0.2222 0.82092 0.63022 0.0
H403 H 0.1962 0.82125 0.56228 0.0
H404 H 0.23373 0.82918 0.54018 0.0
H405 H 0.20088 0.85553 0.53172 0.0
H406 H 0.23286 0.96758 0.58594 0.0
H407 H 0.27888 0.9672 0.54184 0.0
H408 H 0.27854 0.86459 0.54293 0.0
C409 C 0.16418 0.86624 0.61261 0.0
C410 C 0.13907 0.88766 0.61856 0.0
C411 C 0.14553 0.92041 0.62175 0.0
C412 C 0.17626 0.93196 0.61591 0.0
C413 C 0.20024 0.9104 0.60723 0.0
C414 C 0.19466 0.87809 0.60625 0.0
C415 C 0.22259 0.8604 0.58929 0.0
C416 C 0.23862 0.83978 0.62022 0.0
C417 C 0.21274 0.84047 0.55378 0.0
C418 C 0.24354 0.88791 0.57793 0.0
C419 C 0.23076 0.91651 0.58959 0.0
C420 C 0.24366 0.94534 0.57773 0.0
C421 C 0.26971 0.94492 0.55253 0.0
C422 C 0.28228 0.91586 0.5392 0.0
C423 C 0.26972 0.88714 0.55324 0.0
H424 H 0.41149 0.74855 0.02138 0.0
H425 H 0.49861 0.72135 0.96372 0.0
H426 H 0.48908 0.66556 0.98193 0.0
H427 H 0.415 0.68772 0.10094 0.0
H428 H 0.37269 0.68217 0.09926 0.0
H429 H 0.38953 0.72033 0.08821 0.0
H430 H 0.36058 0.72007 0.022 0.0
H431 H 0.34391 0.68195 0.03261 0.0
H432 H 0.36679 0.68749 0.98907 0.0
H433 H 0.46561 0.61257 0.99652 0.0
H434 H 0.43075 0.56655 0.00772 0.0
H435 H 0.35925 0.62855 0.05655 0.0
C436 C 0.42906 0.73099 0.01359 0.0
C437 C 0.45582 0.73915 0.99128 0.0
C438 C 0.47806 0.71553 0.98109 0.0
C439 C 0.47287 0.68384 0.99137 0.0
C440 C 0.4456 0.6764 0.01226 0.0
C441 C 0.42426 0.69939 0.02367 0.0
C442 C 0.39519 0.68502 0.04228 0.0
C443 C 0.39299 0.69436 0.08523 0.0
C444 C 0.36485 0.69417 0.02015 0.0
C445 C 0.40271 0.65025 0.03773 0.0
C446 C 0.43212 0.64574 0.02095 0.0
C447 C 0.44289 0.61576 0.01047 0.0
C448 C 0.42287 0.58981 0.01677 0.0
C449 C 0.39245 0.59411 0.03321 0.0
C450 C 0.38263 0.62459 0.04461 0.0
H451 H 0.69661 0.39489 0.05037 0.0
H452 H 0.70931 0.49523 0.02976 0.0
H453 H 0.75288 0.49618 0.07745 0.0
H454 H 0.72596 0.3936 0.15674 0.0
H455 H 0.74531 0.35625 0.14798 0.0
H456 H 0.70867 0.36547 0.1236 0.0
H457 H 0.73553 0.3548 0.05738 0.0
H458 H 0.77197 0.34569 0.08136 0.0
H459 H 0.77106 0.3762 0.04492 0.0
H460 H 0.80235 0.48391 0.11235 0.0
H461 H 0.85385 0.45955 0.12743 0.0
H462 H 0.81041 0.36666 0.12471 0.0
C463 C 0.70758 0.41737 0.05729 0.0
C464 C 0.69953 0.44503 0.03666 0.0
C465 C 0.71495 0.47383 0.04557 0.0
C466 C 0.73962 0.47458 0.0728 0.0
C467 C 0.74837 0.44639 0.091 0.0
C468 C 0.73252 0.41831 0.08385 0.0
C469 C 0.7501 0.39025 0.10062 0.0
C470 C 0.73139 0.37553 0.13424 0.0
C471 C 0.75762 0.36534 0.06919 0.0
C472 C 0.77973 0.40652 0.1152 0.0
C473 C 0.77772 0.43905 0.11087 0.0
C474 C 0.80386 0.45862 0.11695 0.0
C475 C 0.83309 0.44456 0.12548 0.0
C476 C 0.83601 0.41122 0.12727 0.0
C477 C 0.80866 0.39222 0.12429 0.0
H478 H 0.08904 0.77254 0.93771 0.0
H479 H 0.02996 0.73577 0.03013 0.0
H480 H 0.04328 0.78228 0.07053 0.0
H481 H 0.15041 0.80344 0.99718 0.0
H482 H 0.15687 0.83811 0.96787 0.0
H483 H 0.14205 0.80235 0.94599 0.0
H484 H 0.09356 0.83298 0.91927 0.0
H485 H 0.10831 0.86889 0.94091 0.0
H486 H 0.06893 0.85521 0.95214 0.0
H487 H 0.06532 0.83156 0.10192 0.0
H488 H 0.09195 0.88156 0.12044 0.0
H489 H 0.13491 0.88657 0.00646 0.0
C490 C 0.07878 0.77436 0.96638 0.0
C491 C 0.05854 0.75059 0.9809 0.0
C492 C 0.04549 0.7538 0.01847 0.0
C493 C 0.05295 0.78007 0.04163 0.0
C494 C 0.07326 0.80296 0.02658 0.0
C495 C 0.08574 0.80051 0.98969 0.0
C496 C 0.10694 0.82833 0.98032 0.0
C497 C 0.14109 0.81739 0.97239 0.0
C498 C 0.09363 0.84749 0.94614 0.0
C499 C 0.10471 0.84667 0.01786 0.0
C500 C 0.08528 0.83163 0.04426 0.0
C501 C 0.08038 0.84369 0.08138 0.0
C502 C 0.09565 0.87199 0.09168 0.0
C503 C 0.11531 0.8879 0.06481 0.0
C504 C 0.11979 0.87502 0.02748 0.0
H505 H 0.6574 0.06803 0.02599 0.0
H506 H 0.69249 0.1113 0.13156 0.0
H507 H 0.74744 0.09905 0.11146 0.0
H508 H 0.72055 0.00548 0.01654 0.0
H509 H 0.72101 0.00979 0.96461 0.0
H510 H 0.68477 0.01602 0.99115 0.0
H511 H 0.67954 0.07182 0.96068 0.0
H512 H 0.71571 0.06591 0.93435 0.0
H513 H 0.71161 0.09969 0.9659 0.0
H514 H 0.79802 0.0908 0.07443 0.0
H515 H 0.83968 0.08679 0.02442 0.0
H516 H 0.771 0.04855 0.94349 0.0
C517 C 0.67659 0.07407 0.04548 0.0
C518 C 0.67083 0.09052 0.08034 0.0
C519 C 0.69648 0.09843 0.10486 0.0
C520 C 0.72771 0.09151 0.09369 0.0
C521 C 0.73265 0.07629 0.05828 0.0
C522 C 0.70769 0.06732 0.03479 0.0
C523 C 0.71909 0.05466 0.99626 0.0
C524 C 0.71087 0.01939 0.9919 0.0
C525 C 0.7057 0.0742 0.96233 0.0
C526 C 0.75435 0.05944 0.0008 0.0
C527 C 0.76182 0.07139 0.03701 0.0
C528 C 0.79255 0.08074 0.04637 0.0
C529 C 0.81602 0.07847 0.01776 0.0
C530 C 0.80853 0.06714 0.98024 0.0
C531 C 0.77751 0.05672 0.97215 0.0
H532 H 0.36845 0.68387 0.481 0.0
H533 H 0.46999 0.69738 0.48837 0.0
H534 H 0.46599 0.74266 0.44334 0.0
H535 H 0.35655 0.71612 0.3778 0.0
H536 H 0.32014 0.73479 0.39264 0.0
H537 H 0.33202 0.69775 0.41412 0.0
H538 H 0.32779 0.72293 0.48242 0.0
H539 H 0.31599 0.75975 0.4613 0.0
H540 H 0.34992 0.75843 0.49297 0.0
H541 H 0.4499 0.7925 0.41062 0.0
H542 H 0.42355 0.84377 0.39952 0.0
H543 H 0.33215 0.79932 0.41626 0.0
C544 C 0.39003 0.69548 0.47176 0.0
C545 C 0.41955 0.68704 0.48779 0.0
C546 C 0.44717 0.70333 0.47604 0.0
C547 C 0.4451 0.72895 0.45028 0.0
C548 C 0.41528 0.73779 0.4365 0.0
C549 C 0.3882 0.72135 0.44678 0.0
C550 C 0.35854 0.73892 0.43488 0.0
C551 C 0.34077 0.72081 0.40295 0.0
C552 C 0.33685 0.7454 0.46997 0.0
C553 C 0.37302 0.76902 0.4192 0.0
C554 C 0.40577 0.76739 0.41871 0.0
C555 C 0.42431 0.79376 0.40991 0.0
C556 C 0.40913 0.82282 0.40353 0.0
C557 C 0.37584 0.82531 0.40699 0.0
C558 C 0.35761 0.79781 0.4129 0.0
H559 H 0.71921 0.46932 0.56022 0.0
H560 H 0.77248 0.47071 0.45295 0.0
H561 H 0.72466 0.45388 0.41716 0.0
H562 H 0.68424 0.40034 0.54435 0.0
H563 H 0.64642 0.40923 0.56601 0.0
H564 H 0.68114 0.43017 0.58157 0.0
H565 H 0.65446 0.4838 0.56549 0.0
H566 H 0.61924 0.46302 0.55036 0.0
H567 H 0.63833 0.49034 0.51782 0.0
H568 H 0.67459 0.42752 0.3953 0.0
H569 H 0.62731 0.39309 0.38975 0.0
H570 H 0.6085 0.40622 0.51215 0.0
C571 C 0.72041 0.4675 0.52896 0.0
C572 C 0.74932 0.47161 0.50921 0.0
C573 C 0.75037 0.46796 0.4685 0.0
C574 C 0.72331 0.45851 0.44795 0.0
C575 C 0.69549 0.45292 0.46861 0.0
C576 C 0.69381 0.45758 0.50825 0.0
C577 C 0.66309 0.44504 0.52472 0.0
C578 C 0.66911 0.4197 0.55596 0.0
C579 C 0.64257 0.47217 0.54052 0.0
C580 C 0.64865 0.43084 0.48865 0.0
C581 C 0.66711 0.43647 0.45632 0.0
C582 C 0.65964 0.4235 0.42026 0.0
C583 C 0.63287 0.40392 0.41739 0.0
C584 C 0.61455 0.39701 0.45059 0.0
C585 C 0.6222 0.41119 0.48633 0.0
H586 H 0.15655 0.67725 0.43286 0.0
H587 H 0.07818 0.66641 0.35274 0.0
H588 H 0.05745 0.71859 0.37274 0.0
H589 H 0.11375 0.70542 0.50704 0.0
H590 H 0.14251 0.73324 0.5253 0.0
H591 H 0.15542 0.69917 0.49849 0.0
H592 H 0.18494 0.7352 0.44974 0.0
H593 H 0.17248 0.76955 0.47679 0.0
H594 H 0.16382 0.76667 0.42578 0.0
H595 H 0.03997 0.76643 0.41015 0.0
H596 H 0.02847 0.80689 0.46009 0.0
H597 H 0.1182 0.78619 0.51574 0.0
C598 C 0.13575 0.68644 0.41835 0.0
C599 C 0.11909 0.66795 0.39105 0.0
C600 C 0.09148 0.68037 0.37345 0.0
C601 C 0.07954 0.71 0.38463 0.0
C602 C 0.09568 0.72698 0.41312 0.0
C603 C 0.1235 0.71585 0.42933 0.0
C604 C 0.13421 0.73653 0.46268 0.0
C605 C 0.13658 0.71744 0.50059 0.0
C606 C 0.16573 0.75297 0.45316 0.0
C607 C 0.10724 0.76005 0.46404 0.0
C608 C 0.08551 0.75456 0.43483 0.0
C609 C 0.05718 0.77145 0.43257 0.0
C610 C 0.05077 0.79427 0.46112 0.0
C611 C 0.07251 0.79975 0.4916 0.0
C612 C 0.10132 0.78282 0.49247 0.0
H613 H 0.76404 -0.00216 0.47611 0.0
H614 H 0.69313 0.05011 0.41196 0.0
H615 H 0.73467 0.07161 0.36942 0.0
H616 H 0.81389 0.05524 0.48524 0.0
H617 H 0.8505 0.03369 0.4801 0.0
H618 H 0.81559 0.01351 0.49607 0.0
H619 H 0.82078 0.97326 0.43979 0.0
H620 H 0.85624 0.99315 0.42379 0.0
H621 H 0.82378 0.98727 0.39064 0.0
H622 H 0.78302 0.09905 0.34765 0.0
H623 H 0.83377 0.12811 0.34716 0.0
H624 H 0.87411 0.0582 0.42456 0.0
C625 C 0.75716 0.01238 0.45172 0.0
C626 C 0.72548 0.02221 0.44713 0.0
C627 C 0.71731 0.04212 0.41577 0.0
C628 C 0.74077 0.05437 0.39134 0.0
C629 C 0.77223 0.04619 0.3984 0.0
C630 C 0.78043 0.02506 0.4274 0.0
C631 C 0.8159 0.02458 0.43382 0.0
C632 C 0.82442 0.03225 0.47628 0.0
C633 C 0.83 0.99267 0.42124 0.0
C634 C 0.82597 0.0508 0.40665 0.0
C635 C 0.80065 0.06228 0.38552 0.0
C636 C 0.80327 0.08958 0.36297 0.0
C637 C 0.83213 0.10605 0.36297 0.0
C638 C 0.85782 0.09526 0.38567 0.0
C639 C 0.855 0.06663 0.40637 0.0
H640 H 0.51188 0.92703 0.95026 0.0
H641 H 0.52696 0.86452 0.04812 0.0
H642 H 0.54054 0.91062 0.08905 0.0
H643 H 0.57403 0.98575 0.97464 0.0
H644 H 0.54978 0.01824 0.95846 0.0
H645 H 0.5457 0.97987 0.93622 0.0
H646 H 0.48568 0.98079 0.95202 0.0
H647 H 0.48972 0.01869 0.97537 0.0
H648 H 0.47303 0.98577 0.00152 0.0
H649 H 0.54777 0.96394 0.12053 0.0
H650 H 0.55342 0.02032 0.13863 0.0
H651 H 0.53107 0.04754 0.02057 0.0
C652 C 0.51916 0.92291 0.97991 0.0
C653 C 0.51877 0.89222 0.99597 0.0
C654 C 0.52749 0.88787 0.03521 0.0
C655 C 0.53502 0.9139 0.05871 0.0
C656 C 0.53359 0.94403 0.04247 0.0
C657 C 0.52633 0.94863 0.00383 0.0
C658 C 0.52459 0.98347 0.994 0.0
C659 C 0.55005 0.99235 0.96407 0.0
C660 C 0.49128 0.9927 0.9799 0.0
C661 C 0.53168 -0.00223 0.03322 0.0
C662 C 0.53687 0.97467 0.0608 0.0
C663 C 0.54391 0.98224 0.09914 0.0
C664 C 0.5468 0.01429 0.10922 0.0
C665 C 0.54245 0.03825 0.08108 0.0
C666 C 0.53415 0.02977 0.04284 0.0
H667 H 0.42535 0.46565 0.05014 0.0
H668 H 0.37853 0.4502 0.93985 0.0
H669 H 0.43041 0.44074 0.90899 0.0
H670 H 0.48593 0.50999 0.0149 0.0
H671 H 0.51657 0.49496 0.04624 0.0
H672 H 0.47596 0.49435 0.0619 0.0
H673 H 0.47867 0.43383 0.07345 0.0
H674 H 0.51971 0.43432 0.05914 0.0
H675 H 0.49222 0.40821 0.03508 0.0
H676 H 0.48732 0.44154 0.88834 0.0
H677 H 0.54544 0.44471 0.88104 0.0
H678 H 0.55492 0.46041 0.00477 0.0
C679 C 0.42587 0.45886 0.01988 0.0
C680 C 0.39793 0.4584 0.99742 0.0
C681 C 0.39966 0.45035 0.95765 0.0
C682 C 0.42903 0.44515 0.93982 0.0
C683 C 0.45631 0.4479 0.96229 0.0
C684 C 0.45497 0.45385 0.00164 0.0
C685 C 0.48776 0.45815 0.0186 0.0
C686 C 0.49177 0.49133 0.03645 0.0
C687 C 0.49502 0.43206 0.04832 0.0
C688 C 0.50769 0.45443 0.98251 0.0
C689 C 0.48913 0.44852 0.95033 0.0
C690 C 0.50215 0.44563 0.91342 0.0
C691 C 0.53512 0.44782 0.90951 0.0
C692 C 0.55462 0.45282 0.94234 0.0
C693 C 0.5406 0.45656 0.97916 0.0
H694 H 0.97722 0.5774 0.94851 0.0
H695 H 0.04313 0.60994 0.03645 0.0
H696 H 0.03461 0.56066 0.07334 0.0
H697 H 0.92241 0.53689 0.01414 0.0
H698 H 0.91538 0.50503 0.98045 0.0
H699 H 0.92497 0.54395 0.96275 0.0
H700 H 0.97184 0.52024 0.92386 0.0
H701 H 0.96275 0.48135 0.94199 0.0
H702 H 0.00178 0.49772 0.94886 0.0
H703 H 0.02096 0.50683 0.099 0.0
H704 H 0.0004 0.45331 0.11356 0.0
H705 H 0.94468 0.45566 0.00792 0.0
C706 C 0.9893 0.57443 0.97594 0.0
C707 C 0.01065 0.59748 0.98982 0.0
C708 C 0.02654 0.59255 0.02545 0.0
C709 C 0.02194 0.56464 0.04653 0.0
C710 C 0.00146 0.54193 0.0315 0.0
C711 C 0.98518 0.5466 0.99721 0.0
C712 C 0.96535 0.51801 0.9868 0.0
C713 C 0.92993 0.52648 0.98601 0.0
C714 C 0.97609 0.50348 0.94809 0.0
C715 C 0.97318 0.49651 0.02046 0.0
C716 C 0.99402 0.51072 0.04595 0.0
C717 C 0.00457 0.49545 0.07931 0.0
C718 C 0.99292 0.46505 0.08723 0.0
C719 C 0.97111 0.45037 0.06179 0.0
C720 C 0.96153 0.46621 0.02777 0.0
H721 H 0.05489 0.01162 0.06835 0.0
H722 H 0.12873 0.04975 0.99453 0.0
H723 H 0.08819 0.06632 0.94696 0.0
H724 H 0.00978 0.97849 0.99441 0.0
H725 H 0.97182 0.98723 0.01577 0.0
H726 H 0.00597 0.98187 0.04626 0.0
H727 H 0.99724 0.03716 0.07712 0.0
H728 H 0.96259 0.0424 0.04737 0.0
H729 H 0.99389 0.0714 0.04628 0.0
H730 H 0.03965 0.07497 0.90525 0.0
H731 H 0.98658 0.07858 0.87508 0.0
H732 H 0.94548 0.03281 0.97568 0.0
C733 C 0.06249 0.02428 0.04273 0.0
C734 C 0.0949 0.0297 0.03525 0.0
C735 C 0.10395 0.04567 0.00096 0.0
C736 C 0.08113 0.05501 0.97371 0.0
C737 C 0.04944 0.04813 0.98125 0.0
C738 C 0.0401 0.03346 0.01515 0.0
C739 C 0.00482 0.02726 0.01551 0.0
C740 C 0.9977 0.9916 0.01813 0.0
C741 C 0.98869 0.04566 0.04852 0.0
C742 C 0.99578 0.04038 0.97633 0.0
C743 C 0.02177 0.05242 0.957 0.0
C744 C 0.01912 0.06573 0.9202 0.0
C745 C 0.98896 0.06748 0.90319 0.0
C746 C 0.962 0.05579 0.92294 0.0
C747 C 0.96568 0.0417 0.95971 0.0
H748 H 0.48712 0.55612 0.52778 0.0
H749 H 0.44971 0.52982 0.64027 0.0
H750 H 0.45605 0.4733 0.6234 0.0
H751 H 0.44725 0.50016 0.47533 0.0
H752 H 0.47852 0.49164 0.44134 0.0
H753 H 0.47645 0.52991 0.46411 0.0
H754 H 0.53362 0.5238 0.49053 0.0
H755 H 0.53636 0.486 0.46659 0.0
H756 H 0.54399 0.48896 0.51782 0.0
H757 H 0.4612 0.41973 0.59127 0.0
H758 H 0.47109 0.37322 0.54933 0.0
H759 H 0.50209 0.43559 0.45706 0.0
C760 C 0.48135 0.53854 0.54946 0.0
C761 C 0.46809 0.54733 0.58542 0.0
C762 C 0.46023 0.52358 0.61269 0.0
C763 C 0.4635 0.49143 0.60324 0.0
C764 C 0.47475 0.48358 0.56652 0.0
C765 C 0.48417 0.50647 0.54037 0.0
C766 C 0.49371 0.49201 0.50201 0.0
C767 C 0.47272 0.50416 0.46876 0.0
C768 C 0.52901 0.49804 0.49377 0.0
C769 C 0.48743 0.45747 0.51028 0.0
C770 C 0.47672 0.453 0.5477 0.0
C771 C 0.4697 0.42296 0.56197 0.0
C772 C 0.47504 0.39674 0.53784 0.0
C773 C 0.48693 0.40086 0.49983 0.0
C774 C 0.49238 0.43171 0.4857 0.0
H775 H 0.05767 0.51962 0.47537 0.0
H776 H 0.02162 0.57128 0.37611 0.0
H777 H 0.96732 0.56669 0.40204 0.0
H778 H 0.99185 0.46474 0.48227 0.0
H779 H 0.9927 0.46388 0.53445 0.0
H780 H 0.02857 0.4712 0.50774 0.0
H781 H 0.03671 0.52335 0.54611 0.0
H782 H 0.00056 0.51645 0.5725 0.0
H783 H 0.00586 0.55286 0.54611 0.0
H784 H 0.91744 0.5582 0.43972 0.0
H785 H 0.87419 0.54088 0.48282 0.0
H786 H 0.94254 0.49369 0.55684 0.0
C787 C 0.0383 0.5297 0.45893 0.0
C788 C 0.04376 0.54581 0.42376 0.0
C789 C 0.01788 0.5587 0.40304 0.0
C790 C 0.98701 0.55641 0.41765 0.0
C791 C 0.9825 0.54098 0.45284 0.0
C792 C 0.00732 0.52741 0.47293 0.0
C793 C 0.99591 0.51148 0.50962 0.0
C794 C 0.00265 0.47571 0.50843 0.0
C795 C 0.01064 0.52697 0.54571 0.0
C796 C 0.96078 0.51827 0.50704 0.0
C797 C 0.95361 0.5356 0.47426 0.0
C798 C 0.92272 0.54457 0.46544 0.0
C799 C 0.89835 0.53477 0.4902 0.0
C800 C 0.90505 0.51602 0.52317 0.0
C801 C 0.93675 0.50819 0.53199 0.0
H802 H 0.0267 0.94318 0.49771 0.0
H803 H 0.99126 0.95237 0.61519 0.0
H804 H 0.97907 0.0087 0.60307 0.0
H805 H 0.06309 0.01976 0.49128 0.0
H806 H 0.05188 0.02597 0.44148 0.0
H807 H 0.05812 0.98638 0.45926 0.0
H808 H 0.00164 0.97019 0.43726 0.0
H809 H 0.99555 0.00949 0.41866 0.0
H810 H 0.96813 0.99317 0.4533 0.0
H811 H 0.97109 0.0638 0.57834 0.0
H812 H 0.96131 0.11216 0.54019 0.0
H813 H 0.00201 0.06692 0.43884 0.0
C814 C 0.01615 0.95699 0.52079 0.0
C815 C 0.00991 0.9435 0.55739 0.0
C816 C 0.99609 0.96227 0.58688 0.0
C817 C 0.98937 0.99431 0.58039 0.0
C818 C 0.99658 0.00709 0.54427 0.0
C819 C 0.00922 0.98893 0.51479 0.0
C820 C 0.0136 0.00809 0.47818 0.0
C821 C 0.04877 0.01017 0.4669 0.0
C822 C 0.99352 0.99443 0.4449 0.0
C823 C 0.00115 0.03984 0.49156 0.0
C824 C 0.99183 0.03885 0.52993 0.0
C825 C 0.9784 0.06492 0.54833 0.0
C826 C 0.97311 0.09233 0.52649 0.0
C827 C 0.98108 0.0933 0.48665 0.0
C828 C 0.99617 0.06704 0.46939 0.0
H829 H 0.57847 0.98205 0.47268 0.0
H830 H 0.58389 0.9502 0.59197 0.0
H831 H 0.52765 0.93404 0.58909 0.0
H832 H 0.50304 0.01591 0.47921 0.0
H833 H 0.49028 0.00437 0.43141 0.0
H834 H 0.53173 0.01043 0.44113 0.0
H835 H 0.54444 0.95371 0.41706 0.0
H836 H 0.50308 0.94768 0.40651 0.0
H837 H 0.52371 0.9205 0.43782 0.0
H838 H 0.47029 0.92477 0.57465 0.0
H839 H 0.41626 0.91944 0.54835 0.0
H840 H 0.44781 0.95873 0.43885 0.0
C841 C 0.56806 0.97095 0.49791 0.0
C842 C 0.58556 0.96711 0.53249 0.0
C843 C 0.57095 0.95308 0.56511 0.0
C844 C 0.53902 0.94398 0.56379 0.0
C845 C 0.52215 0.94913 0.52966 0.0
C846 C 0.53622 0.96197 0.49717 0.0
C847 C 0.51249 0.96624 0.46465 0.0
C848 C 0.5092 0.00132 0.45346 0.0
C849 C 0.52147 0.94581 0.42943 0.0
C850 C 0.48276 0.9541 0.48406 0.0
C851 C 0.4889 0.94429 0.52152 0.0
C852 C 0.46523 0.93222 0.54532 0.0
C853 C 0.4346 0.92943 0.53016 0.0
C854 C 0.42786 0.9388 0.49163 0.0
C855 C 0.45222 0.95168 0.4685 0.0
H856 H 0.57737 0.27263 0.33992 0.0
H857 H 0.47561 0.28673 0.34093 0.0
H858 H 0.47055 0.25084 0.28423 0.0
H859 H 0.58753 0.26912 0.23656 0.0
H860 H 0.61771 0.23905 0.23943 0.0
H861 H 0.61274 0.26677 0.27861 0.0
H862 H 0.60588 0.2201 0.3266 0.0
H863 H 0.61053 0.19223 0.28754 0.0
H864 H 0.57569 0.19081 0.31764 0.0
H865 H 0.47755 0.21274 0.22684 0.0
H866 H 0.4957 0.17629 0.17505 0.0
H867 H 0.59244 0.18652 0.21547 0.0
C868 C 0.55398 0.26849 0.32808 0.0
C869 C 0.52687 0.2826 0.34461 0.0
C870 C 0.49669 0.27625 0.32849 0.0
C871 C 0.49362 0.25588 0.2964 0.0
C872 C 0.52095 0.24203 0.28113 0.0
C873 C 0.55051 0.24815 0.29658 0.0
C874 C 0.57623 0.22993 0.27588 0.0
C875 C 0.59994 0.25257 0.25646 0.0
C876 C 0.59306 0.2069 0.30357 0.0
C877 C 0.55663 0.21242 0.24624 0.0
C878 C 0.52481 0.21974 0.24941 0.0
C879 C 0.50239 0.20679 0.22428 0.0
C880 C 0.51288 0.18609 0.19504 0.0
C881 C 0.54542 0.1784 0.19152 0.0
C882 C 0.56737 0.19163 0.21771 0.0
H883 H 0.21879 0.56969 0.29417 0.0
H884 H 0.14779 0.496 0.28283 0.0
H885 H 0.17651 0.47424 0.22624 0.0
H886 H 0.2302 0.58344 0.19425 0.0
H887 H 0.27225 0.58999 0.19835 0.0
H888 H 0.24673 0.59855 0.23874 0.0
H889 H 0.28029 0.5614 0.28217 0.0
H890 H 0.30581 0.55257 0.24176 0.0
H891 H 0.28649 0.5209 0.26752 0.0
H892 H 0.21154 0.46273 0.16831 0.0
H893 H 0.24964 0.46277 0.1138 0.0
H894 H 0.29833 0.54288 0.16528 0.0
C895 C 0.20932 0.5489 0.27988 0.0
C896 C 0.18103 0.53456 0.29273 0.0
C897 C 0.16945 0.50735 0.27336 0.0
C898 C 0.18563 0.49478 0.24131 0.0
C899 C 0.21351 0.50954 0.22935 0.0
C900 C 0.22529 0.53594 0.24817 0.0
C901 C 0.2552 0.54793 0.22909 0.0
C902 C 0.25081 0.58199 0.21422 0.0
C903 C 0.28362 0.54555 0.25679 0.0
C904 C 0.25809 0.52459 0.19605 0.0
C905 C 0.23394 0.5025 0.19673 0.0
C906 C 0.23077 0.47966 0.16777 0.0
C907 C 0.25252 0.47982 0.13698 0.0
C908 C 0.27707 0.50262 0.13555 0.0
C909 C 0.28013 0.52482 0.1659 0.0
H910 H 0.95384 0.33368 0.22389 0.0
H911 H 0.97501 0.27274 0.12611 0.0
H912 H 0.98945 0.22963 0.17094 0.0
H913 H 0.01733 0.30088 0.29007 0.0
H914 H 0.99194 0.30488 0.33176 0.0
H915 H 0.9887 0.33248 0.29216 0.0
H916 H 0.92888 0.31953 0.28599 0.0
H917 H 0.93197 0.29197 0.32534 0.0
H918 H 0.91667 0.27899 0.27923 0.0
H919 H 0.99116 0.19062 0.22539 0.0
H920 H 0.98289 0.15989 0.28555 0.0
H921 H 0.9643 0.24699 0.34803 0.0
C922 C 0.96241 0.31156 0.21199 0.0
C923 C 0.96334 0.30649 0.17164 0.0
C924 C 0.97432 0.27715 0.157 0.0
C925 C 0.98264 0.25255 0.18224 0.0
C926 C 0.98052 0.25794 0.22197 0.0
C927 C 0.97122 0.28693 0.23678 0.0
C928 C 0.96822 0.28583 0.28041 0.0
C929 C 0.99304 0.30729 0.29973 0.0
C930 C 0.93444 0.29457 0.29347 0.0
C931 C 0.97541 0.25126 0.28759 0.0
C932 C 0.98283 0.23559 0.25362 0.0
C933 C 0.98637 0.20275 0.25238 0.0
C934 C 0.98157 0.18548 0.28659 0.0
C935 C 0.97351 0.20117 0.32142 0.0
C936 C 0.97137 0.23449 0.32203 0.0
H937 H 0.31119 0.97187 0.32341 0.0
H938 H 0.23844 0.93711 0.40109 0.0
H939 H 0.19713 0.95518 0.3559 0.0
H940 H 0.26496 0.04117 0.28337 0.0
H941 H 0.28017 0.03489 0.23519 0.0
H942 H 0.30411 0.02504 0.27673 0.0
H943 H 0.31059 0.9678 0.25086 0.0
H944 H 0.28681 0.9775 0.20936 0.0
H945 H 0.27575 0.94475 0.23992 0.0
H946 H 0.16426 0.96928 0.29963 0.0
H947 H 0.14201 0.97656 0.23419 0.0
H948 H 0.23509 0.0021 0.19127 0.0
C949 C 0.28652 0.96907 0.33128 0.0
C950 C 0.27789 0.95343 0.3658 0.0
C951 C 0.24546 0.94915 0.37477 0.0
C952 C 0.22183 0.95954 0.34943 0.0
C953 C 0.23095 0.97413 0.31509 0.0
C954 C 0.26249 0.97894 0.30585 0.0
C955 C 0.26578 0.9915 0.26489 0.0
C956 C 0.27958 0.02516 0.26507 0.0
C957 C 0.28591 0.96904 0.23979 0.0
C958 C 0.23137 0.99161 0.25216 0.0
C959 C 0.21166 0.98214 0.28191 0.0
C960 C 0.1793 0.9774 0.2763 0.0
C961 C 0.16687 0.98156 0.23904 0.0
C962 C 0.18674 0.99028 0.20788 0.0
C963 C 0.21921 0.99627 0.21482 0.0
H964 H 0.48884 0.7658 0.8285 0.0
H965 H 0.40802 0.82842 0.81638 0.0
H966 H 0.39353 0.80195 0.75526 0.0
H967 H 0.50683 0.75814 0.72264 0.0
H968 H 0.51703 0.71689 0.72725 0.0
H969 H 0.52382 0.74365 0.76712 0.0
H970 H 0.49051 0.70735 0.81173 0.0
H971 H 0.48324 0.68073 0.77198 0.0
H972 H 0.45042 0.69762 0.79821 0.0
H973 H 0.38395 0.76547 0.70068 0.0
H974 H 0.38121 0.72232 0.65286 0.0
H975 H 0.46804 0.68234 0.69917 0.0
C976 C 0.46872 0.77453 0.81226 0.0
C977 C 0.44968 0.79932 0.82687 0.0
C978 C 0.42299 0.80958 0.80551 0.0
C979 C 0.41458 0.79471 0.77078 0.0
C980 C 0.43314 0.76964 0.75778 0.0
C981 C 0.45983 0.75973 0.77753 0.0
C982 C 0.47411 0.73059 0.75862 0.0
C983 C 0.50742 0.73776 0.74297 0.0
C984 C 0.47458 0.70242 0.78682 0.0
C985 C 0.45073 0.72522 0.7259 0.0
C986 C 0.42747 0.74822 0.72591 0.0
C987 C 0.40227 0.74757 0.69996 0.0
C988 C 0.40083 0.72283 0.67306 0.0
C989 C 0.42444 0.69903 0.67225 0.0
C990 C 0.44981 0.70036 0.69894 0.0
H991 H 0.81439 0.44017 0.70895 0.0
H992 H 0.7944 0.53777 0.67885 0.0
H993 H 0.76297 0.54362 0.73888 0.0
H994 H 0.74019 0.42174 0.73919 0.0
H995 H 0.75163 0.39601 0.77838 0.0
H996 H 0.7776 0.40119 0.73766 0.0
H997 H 0.82296 0.41901 0.78333 0.0
H998 H 0.79726 0.41338 0.82442 0.0
H999 H 0.81634 0.45105 0.8169 0.0
H1000 H 0.72727 0.53618 0.79692 0.0
H1001 H 0.69223 0.51665 0.84922 0.0
H1002 H 0.73526 0.42373 0.83985 0.0
C1003 C 0.80437 0.46312 0.71564 0.0
C1004 C 0.80702 0.4886 0.68945 0.0
C1005 C 0.79292 0.51804 0.69877 0.0
C1006 C 0.77499 0.52156 0.73276 0.0
C1007 C 0.77164 0.49547 0.75715 0.0
C1008 C 0.78632 0.46693 0.74922 0.0
C1009 C 0.77652 0.44159 0.77772 0.0
C1010 C 0.76053 0.4135 0.75698 0.0
C1011 C 0.80496 0.43062 0.80204 0.0
C1012 C 0.75309 0.45994 0.80203 0.0
C1013 C 0.75087 0.49109 0.79017 0.0
C1014 C 0.72922 0.51197 0.80687 0.0
C1015 C 0.70933 0.50066 0.83639 0.0
C1016 C 0.71109 0.46872 0.84856 0.0
C1017 C 0.73351 0.44833 0.83133 0.0
H1018 H 0.00464 0.82996 0.71263 0.0
H1019 H 0.99323 0.76161 0.61996 0.0
H1020 H 0.97839 0.72079 0.66773 0.0
H1021 H 0.0418 0.78348 0.77523 0.0
H1022 H 0.02324 0.7976 0.81898 0.0
H1023 H 0.02552 0.82291 0.77742 0.0
H1024 H 0.96457 0.83017 0.77846 0.0
H1025 H 0.9621 0.80486 0.82039 0.0
H1026 H 0.93918 0.79586 0.77772 0.0
H1027 H 0.97886 0.68532 0.72522 0.0
H1028 H 0.99002 0.65918 0.78783 0.0
H1029 H 0.99619 0.75086 0.84355 0.0
C1030 C -0.00217 0.8067 0.70237 0.0
C1031 C 4e-05 0.79884 0.66278 0.0
C1032 C 0.9914 0.76813 0.65023 0.0
C1033 C 0.98289 0.74482 0.67716 0.0
C1034 C 0.98229 0.75291 0.71632 0.0
C1035 C 0.98875 0.78337 0.72882 0.0
C1036 C 0.98985 0.7852 0.77257 0.0
C1037 C 0.02201 0.79802 0.78685 0.0
C1038 C 0.96227 0.80521 0.7882 0.0
C1039 C 0.98557 0.75063 0.78265 0.0
C1040 C 0.98075 0.73238 0.74985 0.0
C1041 C 0.98133 0.69937 0.75127 0.0
C1042 C 0.98777 0.68471 0.78685 0.0
C1043 C 0.99318 0.70309 0.82044 0.0
C1044 C 0.9909 0.73633 0.81851 0.0
H1045 H 0.74192 0.06332 0.63552 0.0
H1046 H 0.73102 0.96135 0.64178 0.0
H1047 H 0.76991 0.95972 0.69562 0.0
H1048 H 0.82641 0.06573 0.65679 0.0
H1049 H 0.82305 0.10162 0.68477 0.0
H1050 H 0.79596 0.09416 0.64548 0.0
H1051 H 0.7484 0.10109 0.69223 0.0
H1052 H 0.77529 0.1087 0.73156 0.0
H1053 H 0.74643 0.07743 0.73558 0.0
H1054 H 0.80776 0.97033 0.75184 0.0
H1055 H 0.84001 0.9921 0.80557 0.0
H1056 H 0.82602 0.08684 0.76041 0.0
C1057 C 0.74784 0.04056 0.64797 0.0
C1058 C 0.73345 0.01244 0.63455 0.0
C1059 C 0.74182 0.98317 0.65166 0.0
C1060 C 0.76392 0.98203 0.68213 0.0
C1061 C 0.77755 0.01034 0.6948 0.0
C1062 C 0.76982 0.03902 0.67808 0.0
C1063 C 0.78665 0.06625 0.6977 0.0
C1064 C 0.80937 0.08291 0.6695 0.0
C1065 C 0.76277 0.08973 0.71531 0.0
C1066 C 0.80461 0.0486 0.72875 0.0
C1067 C 0.79933 0.01634 0.72653 0.0
C1068 C 0.81231 0.9955 0.75353 0.0
C1069 C 0.83063 0.00806 0.78389 0.0
C1070 C 0.83569 0.04112 0.78698 0.0
C1071 C 0.82292 0.06143 0.75858 0.0
loop_
_geom_bond_atom_site_label_1
_geom_bond_atom_site_label_2
_geom_bond_distance
_geom_bond_site_symmetry_2
_ccdc_geom_bond_type
In0 O1 2.294 . S
In0 O2 2.326 . S
In0 O6 2.266 . S
In0 O7 2.326 . S
In0 O8 2.266 . S
In0 O9 2.326 . S
In0 O11 2.294 . S
In0 O12 2.326 . S
O1 In0 2.294 . S
O1 C10 1.240 . S
O2 In0 2.326 . S
O2 C10 1.252 . S
C3 O6 1.252 . S
C3 O7 1.260 . S
C4 O11 1.240 . S
C4 O12 1.252 . S
C5 O8 1.252 . S
C5 O9 1.260 . S
O6 In0 2.266 . S
O6 C3 1.252 . S
O7 In0 2.326 . S
O7 C3 1.260 . S
O8 In0 2.266 . S
O8 C5 1.252 . S
O9 In0 2.326 . S
O9 C5 1.260 . S
C10 O1 1.240 . S
C10 O2 1.252 . S
O11 In0 2.294 . S
O11 C4 1.240 . S
O12 In0 2.326 . S
O12 C4 1.252 . S
In13 O14 2.294 . S
In13 O15 2.326 . S
In13 O19 2.266 . S
In13 O20 2.326 . S
In13 O21 2.266 . S
In13 O22 2.326 . S
In13 O24 2.294 . S
In13 O25 2.326 . S
O14 In13 2.294 . S
O14 C23 1.240 . S
O15 In13 2.326 . S
O15 C23 1.252 . S
C16 O19 1.252 . S
C16 O20 1.260 . S
C17 O24 1.240 . S
C17 O25 1.252 . S
C18 O21 1.252 . S
C18 O22 1.260 . S
O19 In13 2.266 . S
O19 C16 1.252 . S
O20 In13 2.326 . S
O20 C16 1.260 . S
O21 In13 2.266 . S
O21 C18 1.252 . S
O22 In13 2.326 . S
O22 C18 1.260 . S
C23 O14 1.240 . S
C23 O15 1.252 . S
O24 In13 2.294 . S
O24 C17 1.240 . S
O25 In13 2.326 . S
O25 C17 1.252 . S
In26 O27 2.294 . S
In26 O28 2.326 . S
In26 O32 2.266 . S
In26 O33 2.326 1_655 S
In26 O34 2.266 . S
In26 O35 2.326 . S
In26 O37 2.294 1_655 S
In26 O38 2.326 . S
O27 In26 2.294 . S
O27 C36 1.240 . S
O28 In26 2.326 . S
O28 C36 1.252 . S
C29 O32 1.252 . S
C29 O33 1.260 1_655 S
C30 O37 1.240 . S
C30 O38 1.252 1_455 S
C31 O34 1.252 . S
C31 O35 1.260 . S
O32 In26 2.266 . S
O32 C29 1.252 . S
O33 In26 2.326 1_455 S
O33 C29 1.260 1_455 S
O34 In26 2.266 . S
O34 C31 1.252 . S
O35 In26 2.326 . S
O35 C31 1.260 . S
C36 O27 1.240 . S
C36 O28 1.252 . S
O37 In26 2.294 1_455 S
O37 C30 1.240 . S
O38 In26 2.326 . S
O38 C30 1.252 1_655 S
In39 O40 2.294 1_565 S
In39 O41 2.326 . S
In39 O45 2.266 . S
In39 O46 2.326 . S
In39 O47 2.266 . S
In39 O48 2.326 1_565 S
In39 O50 2.294 . S
In39 O51 2.326 . S
O40 In39 2.294 1_545 S
O40 C49 1.240 . S
O41 In39 2.326 . S
O41 C49 1.252 1_565 S
C42 O45 1.252 . S
C42 O46 1.260 . S
C43 O50 1.240 . S
C43 O51 1.252 . S
C44 O47 1.252 . S
C44 O48 1.260 1_565 S
O45 In39 2.266 . S
O45 C42 1.252 . S
O46 In39 2.326 . S
O46 C42 1.260 . S
O47 In39 2.266 . S
O47 C44 1.252 . S
O48 In39 2.326 1_545 S
O48 C44 1.260 1_545 S
C49 O40 1.240 . S
C49 O41 1.252 1_545 S
O50 In39 2.294 . S
O50 C43 1.240 . S
O51 In39 2.326 . S
O51 C43 1.252 . S
In52 O53 2.294 . S
In52 O54 2.326 . S
In52 O58 2.266 . S
In52 O59 2.326 . S
In52 O60 2.266 . S
In52 O61 2.326 . S
In52 O63 2.294 . S
In52 O64 2.326 . S
O53 In52 2.294 . S
O53 C62 1.240 . S
O54 In52 2.326 . S
O54 C62 1.252 . S
C55 O58 1.252 . S
C55 O59 1.260 . S
C56 O63 1.240 . S
C56 O64 1.252 . S
C57 O60 1.252 . S
C57 O61 1.260 . S
O58 In52 2.266 . S
O58 C55 1.252 . S
O59 In52 2.326 . S
O59 C55 1.260 . S
O60 In52 2.266 . S
O60 C57 1.252 . S
O61 In52 2.326 . S
O61 C57 1.260 . S
C62 O53 1.240 . S
C62 O54 1.252 . S
O63 In52 2.294 . S
O63 C56 1.240 . S
O64 In52 2.326 . S
O64 C56 1.252 . S
In65 O66 2.294 . S
In65 O67 2.326 . S
In65 O71 2.266 . S
In65 O72 2.326 . S
In65 O73 2.266 . S
In65 O74 2.326 . S
In65 O76 2.294 . S
In65 O77 2.326 . S
O66 In65 2.294 . S
O66 C75 1.240 . S
O67 In65 2.326 . S
O67 C75 1.252 . S
C68 O71 1.252 . S
C68 O72 1.260 . S
C69 O76 1.240 . S
C69 O77 1.252 . S
C70 O73 1.252 . S
C70 O74 1.260 . S
O71 In65 2.266 . S
O71 C68 1.252 . S
O72 In65 2.326 . S
O72 C68 1.260 . S
O73 In65 2.266 . S
O73 C70 1.252 . S
O74 In65 2.326 . S
O74 C70 1.260 . S
C75 O66 1.240 . S
C75 O67 1.252 . S
O76 In65 2.294 . S
O76 C69 1.240 . S
O77 In65 2.326 . S
O77 C69 1.252 . S
In78 O79 2.294 1_655 S
In78 O80 2.326 . S
In78 O84 2.266 . S
In78 O85 2.326 . S
In78 O86 2.266 . S
In78 O87 2.326 1_655 S
In78 O89 2.294 . S
In78 O90 2.326 . S
O79 In78 2.294 1_455 S
O79 C88 1.240 . S
O80 In78 2.326 . S
O80 C88 1.252 1_655 S
C81 O84 1.252 . S
C81 O85 1.260 . S
C82 O89 1.240 . S
C82 O90 1.252 . S
C83 O86 1.252 . S
C83 O87 1.260 1_655 S
O84 In78 2.266 . S
O84 C81 1.252 . S
O85 In78 2.326 . S
O85 C81 1.260 . S
O86 In78 2.266 . S
O86 C83 1.252 . S
O87 In78 2.326 1_455 S
O87 C83 1.260 1_455 S
C88 O79 1.240 . S
C88 O80 1.252 1_455 S
O89 In78 2.294 . S
O89 C82 1.240 . S
O90 In78 2.326 . S
O90 C82 1.252 . S
In91 O92 2.294 . S
In91 O93 2.326 . S
In91 O97 2.266 . S
In91 O98 2.326 1_565 S
In91 O99 2.266 . S
In91 O100 2.326 . S
In91 O102 2.294 1_565 S
In91 O103 2.326 . S
O92 In91 2.294 . S
O92 C101 1.240 . S
O93 In91 2.326 . S
O93 C101 1.252 . S
C94 O97 1.252 . S
C94 O98 1.260 1_565 S
C95 O102 1.240 . S
C95 O103 1.252 1_545 S
C96 O99 1.252 . S
C96 O100 1.260 . S
O97 In91 2.266 . S
O97 C94 1.252 . S
O98 In91 2.326 1_545 S
O98 C94 1.260 1_545 S
O99 In91 2.266 . S
O99 C96 1.252 . S
O100 In91 2.326 . S
O100 C96 1.260 . S
C101 O92 1.240 . S
C101 O93 1.252 . S
O102 In91 2.294 1_545 S
O102 C95 1.240 . S
O103 In91 2.326 . S
O103 C95 1.252 1_565 S
In104 O105 2.294 . S
In104 O106 2.326 . S
In104 O110 2.266 . S
In104 O111 2.326 . S
In104 O112 2.266 . S
In104 O113 2.326 . S
In104 O115 2.294 . S
In104 O116 2.326 . S
O105 In104 2.294 . S
O105 C114 1.240 . S
O106 In104 2.326 . S
O106 C114 1.252 . S
C107 O110 1.252 . S
C107 O111 1.260 . S
C108 O115 1.240 . S
C108 O116 1.252 . S
C109 O112 1.252 . S
C109 O113 1.260 . S
O110 In104 2.266 . S
O110 C107 1.252 . S
O111 In104 2.326 . S
O111 C107 1.260 . S
O112 In104 2.266 . S
O112 C109 1.252 . S
O113 In104 2.326 . S
O113 C109 1.260 . S
C114 O105 1.240 . S
C114 O106 1.252 . S
O115 In104 2.294 . S
O115 C108 1.240 . S
O116 In104 2.326 . S
O116 C108 1.252 . S
In117 O118 2.294 . S
In117 O119 2.326 . S
In117 O123 2.266 . S
In117 O124 2.326 . S
In117 O125 2.266 . S
In117 O126 2.326 . S
In117 O128 2.294 . S
In117 O129 2.326 . S
O118 In117 2.294 . S
O118 C127 1.240 . S
O119 In117 2.326 . S
O119 C127 1.252 . S
C120 O123 1.252 . S
C120 O124 1.260 . S
C121 O128 1.240 . S
C121 O129 1.252 . S
C122 O125 1.252 . S
C122 O126 1.260 . S
O123 In117 2.266 . S
O123 C120 1.252 . S
O124 In117 2.326 . S
O124 C120 1.260 . S
O125 In117 2.266 . S
O125 C122 1.252 . S
O126 In117 2.326 . S
O126 C122 1.260 . S
C127 O118 1.240 . S
C127 O119 1.252 . S
O128 In117 2.294 . S
O128 C121 1.240 . S
O129 In117 2.326 . S
O129 C121 1.252 . S
In130 O131 2.294 . S
In130 O132 2.326 . S
In130 O136 2.266 . S
In130 O137 2.326 1_455 S
In130 O138 2.266 . S
In130 O139 2.326 . S
In130 O141 2.294 1_455 S
In130 O142 2.326 . S
O131 In130 2.294 . S
O131 C140 1.240 . S
O132 In130 2.326 . S
O132 C140 1.252 . S
C133 O136 1.252 . S
C133 O137 1.260 1_455 S
C134 O141 1.240 . S
C134 O142 1.252 1_655 S
C135 O138 1.252 . S
C135 O139 1.260 . S
O136 In130 2.266 . S
O136 C133 1.252 . S
O137 In130 2.326 1_655 S
O137 C133 1.260 1_655 S
O138 In130 2.266 . S
O138 C135 1.252 . S
O139 In130 2.326 . S
O139 C135 1.260 . S
C140 O131 1.240 . S
C140 O132 1.252 . S
O141 In130 2.294 1_655 S
O141 C134 1.240 . S
O142 In130 2.326 . S
O142 C134 1.252 1_455 S
In143 O144 2.294 1_545 S
In143 O145 2.326 . S
In143 O149 2.266 . S
In143 O150 2.326 . S
In143 O151 2.266 . S
In143 O152 2.326 1_545 S
In143 O154 2.294 . S
In143 O155 2.326 . S
O144 In143 2.294 1_565 S
O144 C153 1.240 . S
O145 In143 2.326 . S
O145 C153 1.252 1_545 S
C146 O149 1.252 . S
C146 O150 1.260 . S
C147 O154 1.240 . S
C147 O155 1.252 . S
C148 O151 1.252 . S
C148 O152 1.260 1_545 S
O149 In143 2.266 . S
O149 C146 1.252 . S
O150 In143 2.326 . S
O150 C146 1.260 . S
O151 In143 2.266 . S
O151 C148 1.252 . S
O152 In143 2.326 1_565 S
O152 C148 1.260 1_565 S
C153 O144 1.240 . S
C153 O145 1.252 1_565 S
O154 In143 2.294 . S
O154 C147 1.240 . S
O155 In143 2.326 . S
O155 C147 1.252 . S
In156 O157 2.294 . S
In156 O158 2.326 . S
In156 O162 2.266 . S
In156 O163 2.326 . S
In156 O164 2.266 . S
In156 O165 2.326 . S
In156 O167 2.294 . S
In156 O168 2.326 . S
O157 In156 2.294 . S
O157 C166 1.240 . S
O158 In156 2.326 . S
O158 C166 1.252 . S
C159 O162 1.252 . S
C159 O163 1.260 . S
C160 O167 1.240 . S
C160 O168 1.252 . S
C161 O164 1.252 . S
C161 O165 1.260 . S
O162 In156 2.266 . S
O162 C159 1.252 . S
O163 In156 2.326 . S
O163 C159 1.260 . S
O164 In156 2.266 . S
O164 C161 1.252 . S
O165 In156 2.326 . S
O165 C161 1.260 . S
C166 O157 1.240 . S
C166 O158 1.252 . S
O167 In156 2.294 . S
O167 C160 1.240 . S
O168 In156 2.326 . S
O168 C160 1.252 . S
In169 O170 2.294 . S
In169 O171 2.326 . S
In169 O175 2.266 . S
In169 O176 2.326 . S
In169 O177 2.266 . S
In169 O178 2.326 . S
In169 O180 2.294 . S
In169 O181 2.326 . S
O170 In169 2.294 . S
O170 C179 1.240 . S
O171 In169 2.326 . S
O171 C179 1.252 . S
C172 O175 1.252 . S
C172 O176 1.260 . S
C173 O180 1.240 . S
C173 O181 1.252 . S
C174 O177 1.252 . S
C174 O178 1.260 . S
O175 In169 2.266 . S
O175 C172 1.252 . S
O176 In169 2.326 . S
O176 C172 1.260 . S
O177 In169 2.266 . S
O177 C174 1.252 . S
O178 In169 2.326 . S
O178 C174 1.260 . S
C179 O170 1.240 . S
C179 O171 1.252 . S
O180 In169 2.294 . S
O180 C173 1.240 . S
O181 In169 2.326 . S
O181 C173 1.252 . S
In182 O183 2.294 1_455 S
In182 O184 2.326 . S
In182 O188 2.266 . S
In182 O189 2.326 . S
In182 O190 2.266 . S
In182 O191 2.326 1_455 S
In182 O193 2.294 . S
In182 O194 2.326 . S
O183 In182 2.294 1_655 S
O183 C192 1.240 . S
O184 In182 2.326 . S
O184 C192 1.252 1_455 S
C185 O188 1.252 . S
C185 O189 1.260 . S
C186 O193 1.240 . S
C186 O194 1.252 . S
C187 O190 1.252 . S
C187 O191 1.260 1_455 S
O188 In182 2.266 . S
O188 C185 1.252 . S
O189 In182 2.326 . S
O189 C185 1.260 . S
O190 In182 2.266 . S
O190 C187 1.252 . S
O191 In182 2.326 1_655 S
O191 C187 1.260 1_655 S
C192 O183 1.240 . S
C192 O184 1.252 1_655 S
O193 In182 2.294 . S
O193 C186 1.240 . S
O194 In182 2.326 . S
O194 C186 1.252 . S
In195 O196 2.294 . S
In195 O197 2.326 . S
In195 O201 2.266 . S
In195 O202 2.326 1_545 S
In195 O203 2.266 . S
In195 O204 2.326 . S
In195 O206 2.294 1_545 S
In195 O207 2.326 . S
O196 In195 2.294 . S
O196 C205 1.240 . S
O197 In195 2.326 . S
O197 C205 1.252 . S
C198 O201 1.252 . S
C198 O202 1.260 1_545 S
C199 O206 1.240 . S
C199 O207 1.252 1_565 S
C200 O203 1.252 . S
C200 O204 1.260 . S
O201 In195 2.266 . S
O201 C198 1.252 . S
O202 In195 2.326 1_565 S
O202 C198 1.260 1_565 S
O203 In195 2.266 . S
O203 C200 1.252 . S
O204 In195 2.326 . S
O204 C200 1.260 . S
C205 O196 1.240 . S
C205 O197 1.252 . S
O206 In195 2.294 1_565 S
O206 C199 1.240 . S
O207 In195 2.326 . S
O207 C199 1.252 1_545 S
H208 C220 0.930 . S
H209 C222 0.930 . S
H210 C223 0.930 . S
H211 C227 0.959 . S
H212 C227 0.959 . S
H213 C227 0.961 . S
H214 C228 0.960 . S
H215 C228 0.961 . S
H216 C228 0.959 . S
H217 C231 0.929 . S
H218 C232 0.931 . S
H219 C234 0.930 . S
C220 H208 0.930 . S
C220 C221 1.399 1_556 S
C220 C225 1.399 . S
C221 C220 1.399 1_554 S
C221 C222 1.376 . S
C222 H209 0.930 . S
C222 C221 1.376 . S
C222 C223 1.388 . S
C223 H210 0.930 . S
C223 C222 1.388 . S
C223 C224 1.390 . S
C224 C223 1.390 . S
C224 C225 1.394 1_554 S
C224 C230 1.465 . S
C225 C220 1.399 . S
C225 C224 1.394 1_556 S
C225 C226 1.516 . S
C226 C225 1.516 . S
C226 C227 1.502 . S
C226 C228 1.561 . S
C226 C229 1.526 . S
C227 H211 0.959 . S
C227 H212 0.959 . S
C227 H213 0.961 . S
C227 C226 1.502 . S
C228 H214 0.960 . S
C228 H215 0.961 . S
C228 H216 0.959 . S
C228 C226 1.561 . S
C229 C226 1.526 . S
C229 C230 1.396 1_556 S
C229 C234 1.390 . S
C230 C224 1.465 . S
C230 C229 1.396 1_554 S
C230 C231 1.399 . S
C231 H217 0.929 . S
C231 C230 1.399 . S
C231 C232 1.385 . S
C232 H218 0.931 . S
C232 C231 1.385 . S
C232 C233 1.389 1_554 S
C233 C232 1.389 1_556 S
C233 C234 1.387 . S
C234 H219 0.930 . S
C234 C229 1.390 . S
C234 C233 1.387 . S
H235 C247 0.930 . S
H236 C249 0.930 . S
H237 C250 0.930 . S
H238 C254 0.959 . S
H239 C254 0.959 . S
H240 C254 0.961 . S
H241 C255 0.960 . S
H242 C255 0.961 . S
H243 C255 0.959 1_556 S
H244 C258 0.929 . S
H245 C259 0.931 . S
H246 C261 0.930 . S
C247 H235 0.930 . S
C247 C248 1.399 1_554 S
C247 C252 1.399 . S
C248 C247 1.399 1_556 S
C248 C249 1.376 . S
C249 H236 0.930 . S
C249 C248 1.376 . S
C249 C250 1.388 . S
C250 H237 0.930 . S
C250 C249 1.388 . S
C250 C251 1.390 . S
C251 C250 1.390 . S
C251 C252 1.394 1_556 S
C251 C257 1.465 . S
C252 C247 1.399 . S
C252 C251 1.394 1_554 S
C252 C253 1.516 . S
C253 C252 1.516 . S
C253 C254 1.502 . S
C253 C255 1.561 . S
C253 C256 1.526 . S
C254 H238 0.959 . S
C254 H239 0.959 . S
C254 H240 0.961 . S
C254 C253 1.502 . S
C255 H241 0.960 . S
C255 H242 0.961 . S
C255 H243 0.959 1_554 S
C255 C253 1.561 . S
C256 C253 1.526 . S
C256 C257 1.396 1_554 S
C256 C261 1.390 . S
C257 C251 1.465 . S
C257 C256 1.396 1_556 S
C257 C258 1.399 . S
C258 H244 0.929 . S
C258 C257 1.399 . S
C258 C259 1.385 . S
C259 H245 0.931 . S
C259 C258 1.385 . S
C259 C260 1.389 1_556 S
C260 C259 1.389 1_554 S
C260 C261 1.387 . S
C261 H246 0.930 . S
C261 C256 1.390 . S
C261 C260 1.387 . S
H262 C274 0.930 . S
H263 C276 0.930 . S
H264 C277 0.930 . S
H265 C281 0.959 . S
H266 C281 0.959 . S
H267 C281 0.961 . S
H268 C282 0.960 . S
H269 C282 0.961 . S
H270 C282 0.959 . S
H271 C285 0.929 . S
H272 C286 0.931 . S
H273 C288 0.930 . S
C274 H262 0.930 . S
C274 C275 1.399 . S
C274 C279 1.399 . S
C275 C274 1.399 . S
C275 C276 1.376 1_556 S
C276 H263 0.930 . S
C276 C275 1.376 1_554 S
C276 C277 1.388 . S
C277 H264 0.930 . S
C277 C276 1.388 . S
C277 C278 1.390 . S
C278 C277 1.390 . S
C278 C279 1.394 1_554 S
C278 C284 1.465 . S
C279 C274 1.399 . S
C279 C278 1.394 1_556 S
C279 C280 1.516 . S
C280 C279 1.516 . S
C280 C281 1.502 . S
C280 C282 1.561 . S
C280 C283 1.526 . S
C281 H265 0.959 . S
C281 H266 0.959 . S
C281 H267 0.961 . S
C281 C280 1.502 . S
C282 H268 0.960 . S
C282 H269 0.961 . S
C282 H270 0.959 . S
C282 C280 1.561 . S
C283 C280 1.526 . S
C283 C284 1.396 1_556 S
C283 C288 1.390 . S
C284 C278 1.465 . S
C284 C283 1.396 1_554 S
C284 C285 1.399 . S
C285 H271 0.929 . S
C285 C284 1.399 . S
C285 C286 1.385 . S
C286 H272 0.931 . S
C286 C285 1.385 . S
C286 C287 1.389 . S
C287 C286 1.389 . S
C287 C288 1.387 1_554 S
C288 H273 0.930 . S
C288 C283 1.390 . S
C288 C287 1.387 1_556 S
H289 C301 0.930 . S
H290 C303 0.930 . S
H291 C304 0.930 . S
H292 C308 0.959 . S
H293 C308 0.959 . S
H294 C308 0.961 . S
H295 C309 0.960 . S
H296 C309 0.961 . S
H297 C309 0.959 . S
H298 C312 0.929 . S
H299 C313 0.931 . S
H300 C315 0.930 . S
C301 H289 0.930 . S
C301 C302 1.399 1_554 S
C301 C306 1.399 . S
C302 C301 1.399 1_556 S
C302 C303 1.376 . S
C303 H290 0.930 . S
C303 C302 1.376 . S
C303 C304 1.388 . S
C304 H291 0.930 . S
C304 C303 1.388 . S
C304 C305 1.390 . S
C305 C304 1.390 . S
C305 C306 1.394 1_556 S
C305 C311 1.465 . S
C306 C301 1.399 . S
C306 C305 1.394 1_554 S
C306 C307 1.516 . S
C307 C306 1.516 . S
C307 C308 1.502 . S
C307 C309 1.561 . S
C307 C310 1.526 . S
C308 H292 0.959 . S
C308 H293 0.959 . S
C308 H294 0.961 . S
C308 C307 1.502 . S
C309 H295 0.960 . S
C309 H296 0.961 . S
C309 H297 0.959 . S
C309 C307 1.561 . S
C310 C307 1.526 . S
C310 C311 1.396 1_554 S
C310 C315 1.390 . S
C311 C305 1.465 . S
C311 C310 1.396 1_556 S
C311 C312 1.399 . S
C312 H298 0.929 . S
C312 C311 1.399 . S
C312 C313 1.385 . S
C313 H299 0.931 . S
C313 C312 1.385 . S
C313 C314 1.389 1_556 S
C314 C313 1.389 1_554 S
C314 C315 1.387 . S
C315 H300 0.930 . S
C315 C310 1.390 . S
C315 C314 1.387 . S
H316 C328 0.930 . S
H317 C330 0.930 . S
H318 C331 0.930 . S
H319 C335 0.959 . S
H320 C335 0.959 . S
H321 C335 0.961 . S
H322 C336 0.960 . S
H323 C336 0.961 . S
H324 C336 0.959 . S
H325 C339 0.929 . S
H326 C340 0.931 . S
H327 C342 0.930 . S
C328 H316 0.930 . S
C328 C329 1.399 . S
C328 C333 1.399 . S
C329 C328 1.399 . S
C329 C330 1.376 . S
C330 H317 0.930 . S
C330 C329 1.376 . S
C330 C331 1.388 . S
C331 H318 0.930 . S
C331 C330 1.388 . S
C331 C332 1.390 . S
C332 C331 1.390 . S
C332 C333 1.394 . S
C332 C338 1.465 . S
C333 C328 1.399 . S
C333 C332 1.394 . S
C333 C334 1.516 . S
C334 C333 1.516 . S
C334 C335 1.502 . S
C334 C336 1.561 . S
C334 C337 1.526 . S
C335 H319 0.959 . S
C335 H320 0.959 . S
C335 H321 0.961 . S
C335 C334 1.502 . S
C336 H322 0.960 . S
C336 H323 0.961 . S
C336 H324 0.959 . S
C336 C334 1.561 . S
C337 C334 1.526 . S
C337 C338 1.396 . S
C337 C342 1.390 . S
C338 C332 1.465 . S
C338 C337 1.396 . S
C338 C339 1.399 . S
C339 H325 0.929 . S
C339 C338 1.399 . S
C339 C340 1.385 . S
C340 H326 0.931 . S
C340 C339 1.385 . S
C340 C341 1.389 . S
C341 C340 1.389 . S
C341 C342 1.387 . S
C342 H327 0.930 . S
C342 C337 1.390 . S
C342 C341 1.387 . S
H343 C355 0.930 . S
H344 C357 0.930 . S
H345 C358 0.930 . S
H346 C362 0.959 . S
H347 C362 0.959 . S
H348 C362 0.961 . S
H349 C363 0.960 . S
H350 C363 0.961 . S
H351 C363 0.959 . S
H352 C366 0.929 . S
H353 C367 0.931 . S
H354 C369 0.930 . S
C355 H343 0.930 . S
C355 C356 1.399 . S
C355 C360 1.399 . S
C356 C355 1.399 . S
C356 C357 1.376 . S
C357 H344 0.930 . S
C357 C356 1.376 . S
C357 C358 1.388 . S
C358 H345 0.930 . S
C358 C357 1.388 . S
C358 C359 1.390 . S
C359 C358 1.390 . S
C359 C360 1.394 . S
C359 C365 1.465 . S
C360 C355 1.399 . S
C360 C359 1.394 . S
C360 C361 1.516 . S
C361 C360 1.516 . S
C361 C362 1.502 . S
C361 C363 1.561 . S
C361 C364 1.526 . S
C362 H346 0.959 . S
C362 H347 0.959 . S
C362 H348 0.961 . S
C362 C361 1.502 . S
C363 H349 0.960 . S
C363 H350 0.961 . S
C363 H351 0.959 . S
C363 C361 1.561 . S
C364 C361 1.526 . S
C364 C365 1.396 . S
C364 C369 1.390 . S
C365 C359 1.465 . S
C365 C364 1.396 . S
C365 C366 1.399 . S
C366 H352 0.929 . S
C366 C365 1.399 . S
C366 C367 1.385 . S
C367 H353 0.931 . S
C367 C366 1.385 . S
C367 C368 1.389 . S
C368 C367 1.389 . S
C368 C369 1.387 . S
C369 H354 0.930 . S
C369 C364 1.390 . S
C369 C368 1.387 . S
H370 C382 0.930 . S
H371 C384 0.930 . S
H372 C385 0.930 . S
H373 C389 0.959 . S
H374 C389 0.959 . S
H375 C389 0.961 . S
H376 C390 0.960 . S
H377 C390 0.961 . S
H378 C390 0.959 . S
H379 C393 0.929 . S
H380 C394 0.931 . S
H381 C396 0.930 . S
C382 H370 0.930 . S
C382 C383 1.399 . S
C382 C387 1.399 . S
C383 C382 1.399 . S
C383 C384 1.376 . S
C384 H371 0.930 . S
C384 C383 1.376 . S
C384 C385 1.388 . S
C385 H372 0.930 . S
C385 C384 1.388 . S
C385 C386 1.390 . S
C386 C385 1.390 . S
C386 C387 1.394 . S
C386 C392 1.465 . S
C387 C382 1.399 . S
C387 C386 1.394 . S
C387 C388 1.516 . S
C388 C387 1.516 . S
C388 C389 1.502 . S
C388 C390 1.561 . S
C388 C391 1.526 . S
C389 H373 0.959 . S
C389 H374 0.959 . S
C389 H375 0.961 . S
C389 C388 1.502 . S
C390 H376 0.960 . S
C390 H377 0.961 . S
C390 H378 0.959 . S
C390 C388 1.561 . S
C391 C388 1.526 . S
C391 C392 1.396 . S
C391 C396 1.390 . S
C392 C386 1.465 . S
C392 C391 1.396 . S
C392 C393 1.399 . S
C393 H379 0.929 . S
C393 C392 1.399 . S
C393 C394 1.385 . S
C394 H380 0.931 . S
C394 C393 1.385 . S
C394 C395 1.389 . S
C395 C394 1.389 . S
C395 C396 1.387 . S
C396 H381 0.930 . S
C396 C391 1.390 . S
C396 C395 1.387 . S
H397 C409 0.930 . S
H398 C411 0.930 . S
H399 C412 0.930 . S
H400 C416 0.959 . S
H401 C416 0.959 . S
H402 C416 0.961 . S
H403 C417 0.960 . S
H404 C417 0.961 . S
H405 C417 0.959 . S
H406 C420 0.929 . S
H407 C421 0.931 . S
H408 C423 0.930 . S
C409 H397 0.930 . S
C409 C410 1.399 . S
C409 C414 1.399 . S
C410 C409 1.399 . S
C410 C411 1.376 . S
C411 H398 0.930 . S
C411 C410 1.376 . S
C411 C412 1.388 . S
C412 H399 0.930 . S
C412 C411 1.388 . S
C412 C413 1.390 . S
C413 C412 1.390 . S
C413 C414 1.394 . S
C413 C419 1.465 . S
C414 C409 1.399 . S
C414 C413 1.394 . S
C414 C415 1.516 . S
C415 C414 1.516 . S
C415 C416 1.502 . S
C415 C417 1.561 . S
C415 C418 1.526 . S
C416 H400 0.959 . S
C416 H401 0.959 . S
C416 H402 0.961 . S
C416 C415 1.502 . S
C417 H403 0.960 . S
C417 H404 0.961 . S
C417 H405 0.959 . S
C417 C415 1.561 . S
C418 C415 1.526 . S
C418 C419 1.396 . S
C418 C423 1.390 . S
C419 C413 1.465 . S
C419 C418 1.396 . S
C419 C420 1.399 . S
C420 H406 0.929 . S
C420 C419 1.399 . S
C420 C421 1.385 . S
C421 H407 0.931 . S
C421 C420 1.385 . S
C421 C422 1.389 . S
C422 C421 1.389 . S
C422 C423 1.387 . S
C423 H408 0.930 . S
C423 C418 1.390 . S
C423 C422 1.387 . S
H424 C436 0.930 . S
H425 C438 0.930 . S
H426 C439 0.930 . S
H427 C443 0.959 . S
H428 C443 0.959 . S
H429 C443 0.961 . S
H430 C444 0.960 . S
H431 C444 0.961 . S
H432 C444 0.959 . S
H433 C447 0.929 . S
H434 C448 0.931 . S
H435 C450 0.930 . S
C436 H424 0.930 . S
C436 C437 1.399 1_554 S
C436 C441 1.399 . S
C437 C436 1.399 1_556 S
C437 C438 1.376 . S
C438 H425 0.930 . S
C438 C437 1.376 . S
C438 C439 1.388 . S
C439 H426 0.930 . S
C439 C438 1.388 . S
C439 C440 1.390 . S
C440 C439 1.390 . S
C440 C441 1.394 1_556 S
C440 C446 1.465 . S
C441 C436 1.399 . S
C441 C440 1.394 1_554 S
C441 C442 1.516 . S
C442 C441 1.516 . S
C442 C443 1.502 . S
C442 C444 1.561 . S
C442 C445 1.526 . S
C443 H427 0.959 . S
C443 H428 0.959 . S
C443 H429 0.961 . S
C443 C442 1.502 . S
C444 H430 0.960 . S
C444 H431 0.961 . S
C444 H432 0.959 . S
C444 C442 1.561 . S
C445 C442 1.526 . S
C445 C446 1.396 1_554 S
C445 C450 1.390 . S
C446 C440 1.465 . S
C446 C445 1.396 1_556 S
C446 C447 1.399 . S
C447 H433 0.929 . S
C447 C446 1.399 . S
C447 C448 1.385 . S
C448 H434 0.931 . S
C448 C447 1.385 . S
C448 C449 1.389 1_556 S
C449 C448 1.389 1_554 S
C449 C450 1.387 . S
C450 H435 0.930 . S
C450 C445 1.390 . S
C450 C449 1.387 . S
H451 C463 0.930 . S
H452 C465 0.930 . S
H453 C466 0.930 . S
H454 C470 0.945 1_554 S
H455 C470 0.959 . S
H456 C470 0.961 . S
H457 C471 0.960 . S
H458 C471 0.961 . S
H459 C471 0.959 . S
H460 C474 0.929 . S
H461 C475 0.931 . S
H462 C477 0.930 . S
C463 H451 0.930 . S
C463 C464 1.399 . S
C463 C468 1.399 . S
C464 C463 1.399 . S
C464 C465 1.376 1_556 S
C465 H452 0.930 . S
C465 C464 1.376 1_554 S
C465 C466 1.388 . S
C466 H453 0.930 . S
C466 C465 1.388 . S
C466 C467 1.390 . S
C467 C466 1.390 . S
C467 C468 1.394 1_554 S
C467 C473 1.465 . S
C468 C463 1.399 . S
C468 C467 1.394 1_556 S
C468 C469 1.516 . S
C469 C468 1.516 . S
C469 C470 1.502 . S
C469 C471 1.561 . S
C469 C472 1.526 . S
C470 H454 0.945 1_556 S
C470 H455 0.959 . S
C470 H456 0.961 . S
C470 C469 1.502 . S
C471 H457 0.960 . S
C471 H458 0.961 . S
C471 H459 0.959 . S
C471 C469 1.561 . S
C472 C469 1.526 . S
C472 C473 1.396 1_556 S
C472 C477 1.390 . S
C473 C467 1.465 . S
C473 C472 1.396 1_554 S
C473 C474 1.399 . S
C474 H460 0.929 . S
C474 C473 1.399 . S
C474 C475 1.385 . S
C475 H461 0.931 . S
C475 C474 1.385 . S
C475 C476 1.389 . S
C476 C475 1.389 . S
C476 C477 1.387 1_554 S
C477 H462 0.930 . S
C477 C472 1.390 . S
C477 C476 1.387 1_556 S
H478 C490 0.930 . S
H479 C492 0.930 . S
H480 C493 0.930 . S
H481 C497 0.959 . S
H482 C497 0.959 . S
H483 C497 0.961 . S
H484 C498 0.960 . S
H485 C498 0.961 . S
H486 C498 0.959 . S
H487 C501 0.929 . S
H488 C502 0.931 . S
H489 C504 0.930 . S
C490 H478 0.930 . S
C490 C491 1.399 . S
C490 C495 1.399 . S
C491 C490 1.399 . S
C491 C492 1.376 1_556 S
C492 H479 0.930 . S
C492 C491 1.376 1_554 S
C492 C493 1.388 . S
C493 H480 0.930 . S
C493 C492 1.388 . S
C493 C494 1.390 . S
C494 C493 1.390 . S
C494 C495 1.394 1_554 S
C494 C500 1.465 . S
C495 C490 1.399 . S
C495 C494 1.394 1_556 S
C495 C496 1.516 . S
C496 C495 1.516 . S
C496 C497 1.502 . S
C496 C498 1.561 . S
C496 C499 1.526 . S
C497 H481 0.959 . S
C497 H482 0.959 . S
C497 H483 0.961 . S
C497 C496 1.502 . S
C498 H484 0.960 . S
C498 H485 0.961 . S
C498 H486 0.959 . S
C498 C496 1.561 . S
C499 C496 1.526 . S
C499 C500 1.396 1_556 S
C499 C504 1.390 . S
C500 C494 1.465 . S
C500 C499 1.396 1_554 S
C500 C501 1.399 . S
C501 H487 0.929 . S
C501 C500 1.399 . S
C501 C502 1.385 . S
C502 H488 0.931 . S
C502 C501 1.385 . S
C502 C503 1.389 . S
C503 C502 1.389 . S
C503 C504 1.387 1_554 S
C504 H489 0.930 . S
C504 C499 1.390 . S
C504 C503 1.387 1_556 S
H505 C517 0.930 . S
H506 C519 0.930 . S
H507 C520 0.930 . S
H508 C524 0.959 . S
H509 C524 0.959 . S
H510 C524 0.961 . S
H511 C525 0.960 . S
H512 C525 0.961 . S
H513 C525 0.959 . S
H514 C528 0.929 . S
H515 C529 0.931 . S
H516 C531 0.930 . S
C517 H505 0.930 . S
C517 C518 1.399 1_556 S
C517 C522 1.399 . S
C518 C517 1.399 1_554 S
C518 C519 1.376 . S
C519 H506 0.930 . S
C519 C518 1.376 . S
C519 C520 1.388 . S
C520 H507 0.930 . S
C520 C519 1.388 . S
C520 C521 1.390 . S
C521 C520 1.390 . S
C521 C522 1.394 1_554 S
C521 C527 1.465 . S
C522 C517 1.399 . S
C522 C521 1.394 1_556 S
C522 C523 1.516 . S
C523 C522 1.516 . S
C523 C524 1.502 . S
C523 C525 1.561 . S
C523 C526 1.526 . S
C524 H508 0.959 . S
C524 H509 0.959 . S
C524 H510 0.961 . S
C524 C523 1.502 . S
C525 H511 0.960 . S
C525 H512 0.961 . S
C525 H513 0.959 . S
C525 C523 1.561 . S
C526 C523 1.526 . S
C526 C527 1.396 1_556 S
C526 C531 1.390 . S
C527 C521 1.465 . S
C527 C526 1.396 1_554 S
C527 C528 1.399 . S
C528 H514 0.929 . S
C528 C527 1.399 . S
C528 C529 1.385 . S
C529 H515 0.931 . S
C529 C528 1.385 . S
C529 C530 1.389 1_554 S
C530 C529 1.389 1_556 S
C530 C531 1.387 . S
C531 H516 0.930 . S
C531 C526 1.390 . S
C531 C530 1.387 . S
H532 C544 0.930 . S
H533 C546 0.930 . S
H534 C547 0.930 . S
H535 C551 0.959 . S
H536 C551 0.959 . S
H537 C551 0.961 . S
H538 C552 0.960 . S
H539 C552 0.961 . S
H540 C552 0.959 . S
H541 C555 0.929 . S
H542 C556 0.931 . S
H543 C558 0.930 . S
C544 H532 0.930 . S
C544 C545 1.399 . S
C544 C549 1.399 . S
C545 C544 1.399 . S
C545 C546 1.376 . S
C546 H533 0.930 . S
C546 C545 1.376 . S
C546 C547 1.388 . S
C547 H534 0.930 . S
C547 C546 1.388 . S
C547 C548 1.390 . S
C548 C547 1.390 . S
C548 C549 1.394 . S
C548 C554 1.465 . S
C549 C544 1.399 . S
C549 C548 1.394 . S
C549 C550 1.516 . S
C550 C549 1.516 . S
C550 C551 1.502 . S
C550 C552 1.561 . S
C550 C553 1.526 . S
C551 H535 0.959 . S
C551 H536 0.959 . S
C551 H537 0.961 . S
C551 C550 1.502 . S
C552 H538 0.960 . S
C552 H539 0.961 . S
C552 H540 0.959 . S
C552 C550 1.561 . S
C553 C550 1.526 . S
C553 C554 1.396 . S
C553 C558 1.390 . S
C554 C548 1.465 . S
C554 C553 1.396 . S
C554 C555 1.399 . S
C555 H541 0.929 . S
C555 C554 1.399 . S
C555 C556 1.385 . S
C556 H542 0.931 . S
C556 C555 1.385 . S
C556 C557 1.389 . S
C557 C556 1.389 . S
C557 C558 1.387 . S
C558 H543 0.930 . S
C558 C553 1.390 . S
C558 C557 1.387 . S
H559 C571 0.930 . S
H560 C573 0.930 . S
H561 C574 0.930 . S
H562 C578 0.959 . S
H563 C578 0.959 . S
H564 C578 0.961 . S
H565 C579 0.960 . S
H566 C579 0.961 . S
H567 C579 0.959 . S
H568 C582 0.929 . S
H569 C583 0.931 . S
H570 C585 0.930 . S
C571 H559 0.930 . S
C571 C572 1.399 . S
C571 C576 1.399 . S
C572 C571 1.399 . S
C572 C573 1.376 . S
C573 H560 0.930 . S
C573 C572 1.376 . S
C573 C574 1.388 . S
C574 H561 0.930 . S
C574 C573 1.388 . S
C574 C575 1.390 . S
C575 C574 1.390 . S
C575 C576 1.394 . S
C575 C581 1.465 . S
C576 C571 1.399 . S
C576 C575 1.394 . S
C576 C577 1.516 . S
C577 C576 1.516 . S
C577 C578 1.502 . S
C577 C579 1.561 . S
C577 C580 1.526 . S
C578 H562 0.959 . S
C578 H563 0.959 . S
C578 H564 0.961 . S
C578 C577 1.502 . S
C579 H565 0.960 . S
C579 H566 0.961 . S
C579 H567 0.959 . S
C579 C577 1.561 . S
C580 C577 1.526 . S
C580 C581 1.396 . S
C580 C585 1.390 . S
C581 C575 1.465 . S
C581 C580 1.396 . S
C581 C582 1.399 . S
C582 H568 0.929 . S
C582 C581 1.399 . S
C582 C583 1.385 . S
C583 H569 0.931 . S
C583 C582 1.385 . S
C583 C584 1.389 . S
C584 C583 1.389 . S
C584 C585 1.387 . S
C585 H570 0.930 . S
C585 C580 1.390 . S
C585 C584 1.387 . S
H586 C598 0.930 . S
H587 C600 0.930 . S
H588 C601 0.930 . S
H589 C605 0.959 . S
H590 C605 0.959 . S
H591 C605 0.961 . S
H592 C606 0.960 . S
H593 C606 0.961 . S
H594 C606 0.959 . S
H595 C609 0.929 . S
H596 C610 0.931 . S
H597 C612 0.930 . S
C598 H586 0.930 . S
C598 C599 1.399 . S
C598 C603 1.399 . S
C599 C598 1.399 . S
C599 C600 1.376 . S
C600 H587 0.930 . S
C600 C599 1.376 . S
C600 C601 1.388 . S
C601 H588 0.930 . S
C601 C600 1.388 . S
C601 C602 1.390 . S
C602 C601 1.390 . S
C602 C603 1.394 . S
C602 C608 1.465 . S
C603 C598 1.399 . S
C603 C602 1.394 . S
C603 C604 1.516 . S
C604 C603 1.516 . S
C604 C605 1.502 . S
C604 C606 1.561 . S
C604 C607 1.526 . S
C605 H589 0.959 . S
C605 H590 0.959 . S
C605 H591 0.961 . S
C605 C604 1.502 . S
C606 H592 0.960 . S
C606 H593 0.961 . S
C606 H594 0.959 . S
C606 C604 1.561 . S
C607 C604 1.526 . S
C607 C608 1.396 . S
C607 C612 1.390 . S
C608 C602 1.465 . S
C608 C607 1.396 . S
C608 C609 1.399 . S
C609 H595 0.929 . S
C609 C608 1.399 . S
C609 C610 1.385 . S
C610 H596 0.931 . S
C610 C609 1.385 . S
C610 C611 1.389 . S
C611 C610 1.389 . S
C611 C612 1.387 . S
C612 H597 0.930 . S
C612 C607 1.390 . S
C612 C611 1.387 . S
H613 C625 0.930 . S
H614 C627 0.930 . S
H615 C628 0.930 . S
H616 C632 0.959 . S
H617 C632 0.959 . S
H618 C632 0.961 . S
H619 C633 0.960 . S
H620 C633 0.961 . S
H621 C633 0.959 . S
H622 C636 0.929 . S
H623 C637 0.931 . S
H624 C639 0.930 . S
C625 H613 0.930 . S
C625 C626 1.399 . S
C625 C630 1.399 . S
C626 C625 1.399 . S
C626 C627 1.376 . S
C627 H614 0.930 . S
C627 C626 1.376 . S
C627 C628 1.388 . S
C628 H615 0.930 . S
C628 C627 1.388 . S
C628 C629 1.390 . S
C629 C628 1.390 . S
C629 C630 1.394 . S
C629 C635 1.465 . S
C630 C625 1.399 . S
C630 C629 1.394 . S
C630 C631 1.516 . S
C631 C630 1.516 . S
C631 C632 1.502 . S
C631 C633 1.561 . S
C631 C634 1.526 . S
C632 H616 0.959 . S
C632 H617 0.959 . S
C632 H618 0.961 . S
C632 C631 1.502 . S
C633 H619 0.960 . S
C633 H620 0.961 . S
C633 H621 0.959 . S
C633 C631 1.561 . S
C634 C631 1.526 . S
C634 C635 1.396 . S
C634 C639 1.390 . S
C635 C629 1.465 . S
C635 C634 1.396 . S
C635 C636 1.399 . S
C636 H622 0.929 . S
C636 C635 1.399 . S
C636 C637 1.385 . S
C637 H623 0.931 . S
C637 C636 1.385 . S
C637 C638 1.389 . S
C638 C637 1.389 . S
C638 C639 1.387 . S
C639 H624 0.930 . S
C639 C634 1.390 . S
C639 C638 1.387 . S
H640 C652 0.930 . S
H641 C654 0.930 . S
H642 C655 0.930 . S
H643 C659 0.959 . S
H644 C659 0.959 . S
H645 C659 0.961 . S
H646 C660 0.960 1_565 S
H647 C660 0.961 . S
H648 C660 0.959 . S
H649 C663 0.929 . S
H650 C664 0.931 . S
H651 C666 0.930 . S
C652 H640 0.930 . S
C652 C653 1.399 . S
C652 C657 1.399 . S
C653 C652 1.399 . S
C653 C654 1.376 1_556 S
C654 H641 0.930 . S
C654 C653 1.376 1_554 S
C654 C655 1.388 . S
C655 H642 0.930 . S
C655 C654 1.388 . S
C655 C656 1.390 . S
C656 C655 1.390 . S
C656 C657 1.394 1_554 S
C656 C662 1.465 1_565 S
C657 C652 1.399 . S
C657 C656 1.394 1_556 S
C657 C658 1.516 1_565 S
C658 C657 1.516 1_545 S
C658 C659 1.502 . S
C658 C660 1.561 . S
C658 C661 1.526 . S
C659 H643 0.959 . S
C659 H644 0.959 . S
C659 H645 0.961 . S
C659 C658 1.502 . S
C660 H646 0.960 1_545 S
C660 H647 0.961 . S
C660 H648 0.959 . S
C660 C658 1.561 . S
C661 C658 1.526 . S
C661 C662 1.396 1_556 S
C661 C666 1.390 . S
C662 C656 1.465 1_545 S
C662 C661 1.396 1_554 S
C662 C663 1.399 . S
C663 H649 0.929 . S
C663 C662 1.399 . S
C663 C664 1.385 . S
C664 H650 0.931 . S
C664 C663 1.385 . S
C664 C665 1.389 . S
C665 C664 1.389 . S
C665 C666 1.387 1_554 S
C666 H651 0.930 . S
C666 C661 1.390 . S
C666 C665 1.387 1_556 S
H667 C679 0.930 . S
H668 C681 0.930 . S
H669 C682 0.930 . S
H670 C686 0.959 . S
H671 C686 0.959 . S
H672 C686 0.961 . S
H673 C687 0.960 . S
H674 C687 0.961 . S
H675 C687 0.959 . S
H676 C690 0.929 . S
H677 C691 0.931 . S
H678 C693 0.930 . S
C679 H667 0.930 . S
C679 C680 1.399 . S
C679 C684 1.399 . S
C680 C679 1.399 . S
C680 C681 1.376 . S
C681 H668 0.930 . S
C681 C680 1.376 . S
C681 C682 1.388 . S
C682 H669 0.930 . S
C682 C681 1.388 . S
C682 C683 1.390 . S
C683 C682 1.390 . S
C683 C684 1.394 . S
C683 C689 1.465 1_554 S
C684 C679 1.399 . S
C684 C683 1.394 . S
C684 C685 1.516 . S
C685 C684 1.516 . S
C685 C686 1.502 1_554 S
C685 C687 1.561 . S
C685 C688 1.526 1_554 S
C686 H670 0.959 . S
C686 H671 0.959 . S
C686 H672 0.961 . S
C686 C685 1.502 1_556 S
C687 H673 0.960 . S
C687 H674 0.961 . S
C687 H675 0.959 . S
C687 C685 1.561 . S
C688 C685 1.526 1_556 S
C688 C689 1.396 . S
C688 C693 1.390 . S
C689 C683 1.465 1_556 S
C689 C688 1.396 . S
C689 C690 1.399 . S
C690 H676 0.929 . S
C690 C689 1.399 . S
C690 C691 1.385 . S
C691 H677 0.931 . S
C691 C690 1.385 . S
C691 C692 1.389 . S
C692 C691 1.389 . S
C692 C693 1.387 . S
C693 H678 0.930 . S
C693 C688 1.390 . S
C693 C692 1.387 . S
H694 C706 0.930 . S
H695 C708 0.930 . S
H696 C709 0.930 . S
H697 C713 0.959 . S
H698 C713 0.959 . S
H699 C713 0.961 . S
H700 C714 0.960 . S
H701 C714 0.961 . S
H702 C714 0.959 . S
H703 C717 0.929 . S
H704 C718 0.931 . S
H705 C720 0.930 1_655 S
C706 H694 0.930 . S
C706 C707 1.399 . S
C706 C711 1.399 . S
C707 C706 1.399 . S
C707 C708 1.376 1_656 S
C708 H695 0.930 . S
C708 C707 1.376 1_454 S
C708 C709 1.388 . S
C709 H696 0.930 . S
C709 C708 1.388 . S
C709 C710 1.390 . S
C710 C709 1.390 . S
C710 C711 1.394 1_454 S
C710 C716 1.465 . S
C711 C706 1.399 . S
C711 C710 1.394 1_656 S
C711 C712 1.516 . S
C712 C711 1.516 . S
C712 C713 1.502 . S
C712 C714 1.561 1_655 S
C712 C715 1.517 1_655 S
C713 H697 0.959 . S
C713 H698 0.959 . S
C713 H699 0.961 . S
C713 C712 1.502 . S
C714 H700 0.960 . S
C714 H701 0.961 . S
C714 H702 0.959 . S
C714 C712 1.561 1_455 S
C715 C712 1.517 1_455 S
C715 C716 1.407 1_556 S
C715 C720 1.391 . S
C716 C710 1.465 . S
C716 C715 1.407 1_554 S
C716 C717 1.399 . S
C717 H703 0.929 . S
C717 C716 1.399 . S
C717 C718 1.385 . S
C718 H704 0.931 . S
C718 C717 1.385 . S
C718 C719 1.389 . S
C719 C718 1.389 . S
C719 C720 1.387 1_554 S
C720 H705 0.930 1_455 S
C720 C715 1.391 . S
C720 C719 1.387 1_556 S
H721 C733 0.930 . S
H722 C735 0.930 . S
H723 C736 0.930 . S
H724 C740 0.959 . S
H725 C740 0.959 1_655 S
H726 C740 0.961 . S
H727 C741 0.960 1_455 S
H728 C741 0.961 . S
H729 C741 0.959 . S
H730 C744 0.929 . S
H731 C745 0.931 . S
H732 C747 0.930 . S
C733 H721 0.930 . S
C733 C734 1.399 1_565 S
C733 C738 1.399 . S
C734 C733 1.399 1_545 S
C734 C735 1.376 . S
C735 H722 0.930 . S
C735 C734 1.376 . S
C735 C736 1.388 . S
C736 H723 0.930 . S
C736 C735 1.388 . S
C736 C737 1.390 . S
C737 C736 1.390 . S
C737 C738 1.394 1_545 S
C737 C743 1.465 1_454 S
C738 C733 1.399 . S
C738 C737 1.394 1_565 S
C738 C739 1.516 . S
C739 C738 1.516 . S
C739 C740 1.502 1_554 S
C739 C741 1.561 1_455 S
C739 C742 1.526 1_454 S
C740 H724 0.959 . S
C740 H725 0.959 1_455 S
C740 H726 0.961 . S
C740 C739 1.502 1_556 S
C741 H727 0.960 1_655 S
C741 H728 0.961 . S
C741 H729 0.959 . S
C741 C739 1.561 1_655 S
C742 C739 1.526 1_656 S
C742 C743 1.396 1_565 S
C742 C747 1.390 . S
C743 C737 1.465 1_656 S
C743 C742 1.396 1_545 S
C743 C744 1.399 . S
C744 H730 0.929 . S
C744 C743 1.399 . S
C744 C745 1.385 . S
C745 H731 0.931 . S
C745 C744 1.385 . S
C745 C746 1.389 1_545 S
C746 C745 1.389 1_565 S
C746 C747 1.387 . S
C747 H732 0.930 . S
C747 C742 1.390 . S
C747 C746 1.387 . S
H748 C760 0.930 . S
H749 C762 0.930 . S
H750 C763 0.930 . S
H751 C767 0.959 . S
H752 C767 0.959 . S
H753 C767 0.961 . S
H754 C768 0.960 . S
H755 C768 0.961 . S
H756 C768 0.959 . S
H757 C771 0.929 . S
H758 C772 0.931 . S
H759 C774 0.930 . S
C760 H748 0.930 . S
C760 C761 1.399 . S
C760 C765 1.399 . S
C761 C760 1.399 . S
C761 C762 1.376 . S
C762 H749 0.930 . S
C762 C761 1.376 . S
C762 C763 1.388 . S
C763 H750 0.930 . S
C763 C762 1.388 . S
C763 C764 1.390 . S
C764 C763 1.390 . S
C764 C765 1.394 . S
C764 C770 1.465 . S
C765 C760 1.399 . S
C765 C764 1.394 . S
C765 C766 1.516 . S
C766 C765 1.516 . S
C766 C767 1.502 . S
C766 C768 1.561 . S
C766 C769 1.526 . S
C767 H751 0.959 . S
C767 H752 0.959 . S
C767 H753 0.961 . S
C767 C766 1.502 . S
C768 H754 0.960 . S
C768 H755 0.961 . S
C768 H756 0.959 . S
C768 C766 1.561 . S
C769 C766 1.526 . S
C769 C770 1.396 . S
C769 C774 1.390 . S
C770 C764 1.465 . S
C770 C769 1.396 . S
C770 C771 1.399 . S
C771 H757 0.929 . S
C771 C770 1.399 . S
C771 C772 1.385 . S
C772 H758 0.931 . S
C772 C771 1.385 . S
C772 C773 1.389 . S
C773 C772 1.389 . S
C773 C774 1.387 . S
C774 H759 0.930 . S
C774 C769 1.390 . S
C774 C773 1.387 . S
H775 C787 0.930 . S
H776 C789 0.930 . S
H777 C790 0.930 . S
H778 C794 0.959 . S
H779 C794 0.959 . S
H780 C794 0.961 1_455 S
H781 C795 0.960 . S
H782 C795 0.961 1_655 S
H783 C795 0.959 . S
H784 C798 0.929 . S
H785 C799 0.931 . S
H786 C801 0.930 . S
C787 H775 0.930 . S
C787 C788 1.399 . S
C787 C792 1.399 . S
C788 C787 1.399 . S
C788 C789 1.376 . S
C789 H776 0.930 . S
C789 C788 1.376 . S
C789 C790 1.388 . S
C790 H777 0.930 . S
C790 C789 1.388 . S
C790 C791 1.390 . S
C791 C790 1.390 . S
C791 C792 1.394 . S
C791 C797 1.465 1_455 S
C792 C787 1.399 . S
C792 C791 1.394 . S
C792 C793 1.516 1_455 S
C793 C792 1.516 1_655 S
C793 C794 1.502 . S
C793 C795 1.561 1_655 S
C793 C796 1.526 . S
C794 H778 0.959 . S
C794 H779 0.959 . S
C794 H780 0.961 1_655 S
C794 C793 1.502 . S
C795 H781 0.960 . S
C795 H782 0.961 1_455 S
C795 H783 0.959 . S
C795 C793 1.561 1_455 S
C796 C793 1.526 . S
C796 C797 1.396 . S
C796 C801 1.390 . S
C797 C791 1.465 1_655 S
C797 C796 1.396 . S
C797 C798 1.399 . S
C798 H784 0.929 . S
C798 C797 1.399 . S
C798 C799 1.385 . S
C799 H785 0.931 . S
C799 C798 1.385 . S
C799 C800 1.389 . S
C800 C799 1.389 . S
C800 C801 1.387 . S
C801 H786 0.930 . S
C801 C796 1.390 . S
C801 C800 1.387 . S
H802 C814 0.930 . S
H803 C816 0.930 . S
H804 C817 0.930 . S
H805 C821 0.959 . S
H806 C821 0.959 . S
H807 C821 0.961 . S
H808 C822 0.960 . S
H809 C822 0.961 1_455 S
H810 C822 0.959 . S
H811 C825 0.929 . S
H812 C826 0.931 . S
H813 C828 0.930 . S
C814 H802 0.930 . S
C814 C815 1.399 1_455 S
C814 C819 1.399 . S
C815 C814 1.399 1_655 S
C815 C816 1.376 . S
C816 H803 0.930 . S
C816 C815 1.376 . S
C816 C817 1.388 . S
C817 H804 0.930 . S
C817 C816 1.388 . S
C817 C818 1.390 . S
C818 C817 1.390 . S
C818 C819 1.394 1_655 S
C818 C824 1.465 1_565 S
C819 C814 1.399 . S
C819 C818 1.394 1_455 S
C819 C820 1.516 . S
C820 C819 1.516 . S
C820 C821 1.502 . S
C820 C822 1.561 1_455 S
C820 C823 1.526 1_565 S
C821 H805 0.959 . S
C821 H806 0.959 . S
C821 H807 0.961 . S
C821 C820 1.502 . S
C822 H808 0.960 . S
C822 H809 0.961 1_655 S
C822 H810 0.959 . S
C822 C820 1.561 1_655 S
C823 C820 1.526 1_545 S
C823 C824 1.396 1_455 S
C823 C828 1.390 . S
C824 C818 1.465 1_545 S
C824 C823 1.396 1_655 S
C824 C825 1.399 . S
C825 H811 0.929 . S
C825 C824 1.399 . S
C825 C826 1.385 . S
C826 H812 0.931 . S
C826 C825 1.385 . S
C826 C827 1.389 1_655 S
C827 C826 1.389 1_455 S
C827 C828 1.387 . S
C828 H813 0.930 . S
C828 C823 1.390 . S
C828 C827 1.387 . S
H829 C841 0.930 . S
H830 C843 0.930 . S
H831 C844 0.930 . S
H832 C848 0.959 . S
H833 C848 0.959 . S
H834 C848 0.961 . S
H835 C849 0.960 . S
H836 C849 0.961 . S
H837 C849 0.959 . S
H838 C852 0.929 . S
H839 C853 0.931 . S
H840 C855 0.930 . S
C841 H829 0.930 . S
C841 C842 1.399 . S
C841 C846 1.399 . S
C842 C841 1.399 . S
C842 C843 1.376 1_565 S
C843 H830 0.930 . S
C843 C842 1.376 1_545 S
C843 C844 1.388 . S
C844 H831 0.930 . S
C844 C843 1.388 . S
C844 C845 1.390 . S
C845 C844 1.390 . S
C845 C846 1.394 1_545 S
C845 C851 1.465 . S
C846 C841 1.399 . S
C846 C845 1.394 1_565 S
C846 C847 1.516 . S
C847 C846 1.516 . S
C847 C848 1.502 . S
C847 C849 1.561 . S
C847 C850 1.526 . S
C848 H832 0.959 . S
C848 H833 0.959 . S
C848 H834 0.961 . S
C848 C847 1.502 . S
C849 H835 0.960 . S
C849 H836 0.961 . S
C849 H837 0.959 . S
C849 C847 1.561 . S
C850 C847 1.526 . S
C850 C851 1.396 1_565 S
C850 C855 1.390 . S
C851 C845 1.465 . S
C851 C850 1.396 1_545 S
C851 C852 1.399 . S
C852 H838 0.929 . S
C852 C851 1.399 . S
C852 C853 1.385 . S
C853 H839 0.931 . S
C853 C852 1.385 . S
C853 C854 1.389 . S
C854 C853 1.389 . S
C854 C855 1.387 1_545 S
C855 H840 0.930 . S
C855 C850 1.390 . S
C855 C854 1.387 1_565 S
H856 C868 0.930 . S
H857 C870 0.930 . S
H858 C871 0.930 . S
H859 C875 0.959 . S
H860 C875 0.959 . S
H861 C875 0.961 . S
H862 C876 0.960 . S
H863 C876 0.961 . S
H864 C876 0.959 . S
H865 C879 0.929 . S
H866 C880 0.931 . S
H867 C882 0.930 . S
C868 H856 0.930 . S
C868 C869 1.399 . S
C868 C873 1.399 . S
C869 C868 1.399 . S
C869 C870 1.376 . S
C870 H857 0.930 . S
C870 C869 1.376 . S
C870 C871 1.388 . S
C871 H858 0.930 . S
C871 C870 1.388 . S
C871 C872 1.390 . S
C872 C871 1.390 . S
C872 C873 1.394 . S
C872 C878 1.465 . S
C873 C868 1.399 . S
C873 C872 1.394 . S
C873 C874 1.516 . S
C874 C873 1.516 . S
C874 C875 1.502 . S
C874 C876 1.561 . S
C874 C877 1.526 . S
C875 H859 0.959 . S
C875 H860 0.959 . S
C875 H861 0.961 . S
C875 C874 1.502 . S
C876 H862 0.960 . S
C876 H863 0.961 . S
C876 H864 0.959 . S
C876 C874 1.561 . S
C877 C874 1.526 . S
C877 C878 1.396 . S
C877 C882 1.390 . S
C878 C872 1.465 . S
C878 C877 1.396 . S
C878 C879 1.399 . S
C879 H865 0.929 . S
C879 C878 1.399 . S
C879 C880 1.385 . S
C880 H866 0.931 . S
C880 C879 1.385 . S
C880 C881 1.389 . S
C881 C880 1.389 . S
C881 C882 1.387 . S
C882 H867 0.930 . S
C882 C877 1.390 . S
C882 C881 1.387 . S
H883 C895 0.930 . S
H884 C897 0.930 . S
H885 C898 0.930 . S
H886 C902 0.959 . S
H887 C902 0.959 . S
H888 C902 0.961 . S
H889 C903 0.960 . S
H890 C903 0.961 . S
H891 C903 0.959 . S
H892 C906 0.929 . S
H893 C907 0.931 . S
H894 C909 0.930 . S
C895 H883 0.930 . S
C895 C896 1.399 . S
C895 C900 1.399 . S
C896 C895 1.399 . S
C896 C897 1.376 . S
C897 H884 0.930 . S
C897 C896 1.376 . S
C897 C898 1.388 . S
C898 H885 0.930 . S
C898 C897 1.388 . S
C898 C899 1.390 . S
C899 C898 1.390 . S
C899 C900 1.394 . S
C899 C905 1.465 . S
C900 C895 1.399 . S
C900 C899 1.394 . S
C900 C901 1.516 . S
C901 C900 1.516 . S
C901 C902 1.502 . S
C901 C903 1.561 . S
C901 C904 1.526 . S
C902 H886 0.959 . S
C902 H887 0.959 . S
C902 H888 0.961 . S
C902 C901 1.502 . S
C903 H889 0.960 . S
C903 H890 0.961 . S
C903 H891 0.959 . S
C903 C901 1.561 . S
C904 C901 1.526 . S
C904 C905 1.396 . S
C904 C909 1.390 . S
C905 C899 1.465 . S
C905 C904 1.396 . S
C905 C906 1.399 . S
C906 H892 0.929 . S
C906 C905 1.399 . S
C906 C907 1.385 . S
C907 H893 0.931 . S
C907 C906 1.385 . S
C907 C908 1.389 . S
C908 C907 1.389 . S
C908 C909 1.387 . S
C909 H894 0.930 . S
C909 C904 1.390 . S
C909 C908 1.387 . S
H910 C922 0.930 1_455 S
H911 C924 0.930 . S
H912 C925 0.930 . S
H913 C929 0.959 . S
H914 C929 0.959 . S
H915 C929 0.961 . S
H916 C930 0.960 . S
H917 C930 0.961 . S
H918 C930 0.959 . S
H919 C933 0.929 . S
H920 C934 0.931 . S
H921 C936 0.930 1_455 S
C922 H910 0.930 1_655 S
C922 C923 1.399 . S
C922 C927 1.399 . S
C923 C922 1.399 . S
C923 C924 1.376 . S
C924 H911 0.930 . S
C924 C923 1.376 . S
C924 C925 1.388 . S
C925 H912 0.930 . S
C925 C924 1.388 . S
C925 C926 1.390 . S
C926 C925 1.390 . S
C926 C927 1.394 . S
C926 C932 1.465 . S
C927 C922 1.399 . S
C927 C926 1.394 . S
C927 C928 1.517 . S
C928 C927 1.517 . S
C928 C929 1.497 1_655 S
C928 C930 1.565 . S
C928 C931 1.526 . S
C929 H913 0.959 . S
C929 H914 0.959 . S
C929 H915 0.961 . S
C929 C928 1.497 1_455 S
C930 H916 0.960 . S
C930 H917 0.961 . S
C930 H918 0.959 . S
C930 C928 1.565 . S
C931 C928 1.526 . S
C931 C932 1.396 . S
C931 C936 1.390 . S
C932 C926 1.465 . S
C932 C931 1.396 . S
C932 C933 1.399 . S
C933 H919 0.929 . S
C933 C932 1.399 . S
C933 C934 1.385 . S
C934 H920 0.931 . S
C934 C933 1.385 . S
C934 C935 1.389 . S
C935 C934 1.389 . S
C935 C936 1.387 . S
C936 H921 0.930 1_655 S
C936 C931 1.390 . S
C936 C935 1.387 . S
H937 C949 0.930 . S
H938 C951 0.930 . S
H939 C952 0.930 . S
H940 C956 0.959 . S
H941 C956 0.959 . S
H942 C956 0.961 . S
H943 C957 0.960 . S
H944 C957 0.961 . S
H945 C957 0.959 . S
H946 C960 0.929 . S
H947 C961 0.931 . S
H948 C963 0.930 . S
C949 H937 0.930 . S
C949 C950 1.399 1_545 S
C949 C954 1.399 . S
C950 C949 1.399 1_565 S
C950 C951 1.376 . S
C951 H938 0.930 . S
C951 C950 1.376 . S
C951 C952 1.388 . S
C952 H939 0.930 . S
C952 C951 1.388 . S
C952 C953 1.390 . S
C953 C952 1.390 . S
C953 C954 1.394 1_565 S
C953 C959 1.465 . S
C954 C949 1.399 . S
C954 C953 1.394 1_545 S
C954 C955 1.516 . S
C955 C954 1.516 . S
C955 C956 1.502 . S
C955 C957 1.561 . S
C955 C958 1.526 . S
C956 H940 0.959 . S
C956 H941 0.959 . S
C956 H942 0.961 . S
C956 C955 1.502 . S
C957 H943 0.960 . S
C957 H944 0.961 . S
C957 H945 0.959 . S
C957 C955 1.561 . S
C958 C955 1.526 . S
C958 C959 1.396 1_545 S
C958 C963 1.390 . S
C959 C953 1.465 . S
C959 C958 1.396 1_565 S
C959 C960 1.399 . S
C960 H946 0.929 . S
C960 C959 1.399 . S
C960 C961 1.385 . S
C961 H947 0.931 . S
C961 C960 1.385 . S
C961 C962 1.389 . S
C962 C961 1.389 . S
C962 C963 1.387 1_565 S
C963 H948 0.930 . S
C963 C958 1.390 . S
C963 C962 1.387 1_545 S
H964 C976 0.930 . S
H965 C978 0.930 . S
H966 C979 0.930 . S
H967 C983 0.959 . S
H968 C983 0.959 . S
H969 C983 0.961 . S
H970 C984 0.960 . S
H971 C984 0.961 . S
H972 C984 0.959 . S
H973 C987 0.929 . S
H974 C988 0.931 . S
H975 C990 0.930 . S
C976 H964 0.930 . S
C976 C977 1.399 . S
C976 C981 1.399 . S
C977 C976 1.399 . S
C977 C978 1.376 . S
C978 H965 0.930 . S
C978 C977 1.376 . S
C978 C979 1.388 . S
C979 H966 0.930 . S
C979 C978 1.388 . S
C979 C980 1.390 . S
C980 C979 1.390 . S
C980 C981 1.394 . S
C980 C986 1.465 . S
C981 C976 1.399 . S
C981 C980 1.394 . S
C981 C982 1.516 . S
C982 C981 1.516 . S
C982 C983 1.502 . S
C982 C984 1.561 . S
C982 C985 1.526 . S
C983 H967 0.959 . S
C983 H968 0.959 . S
C983 H969 0.961 . S
C983 C982 1.502 . S
C984 H970 0.960 . S
C984 H971 0.961 . S
C984 H972 0.959 . S
C984 C982 1.561 . S
C985 C982 1.526 . S
C985 C986 1.396 . S
C985 C990 1.390 . S
C986 C980 1.465 . S
C986 C985 1.396 . S
C986 C987 1.399 . S
C987 H973 0.929 . S
C987 C986 1.399 . S
C987 C988 1.385 . S
C988 H974 0.931 . S
C988 C987 1.385 . S
C988 C989 1.389 . S
C989 C988 1.389 . S
C989 C990 1.387 . S
C990 H975 0.930 . S
C990 C985 1.390 . S
C990 C989 1.387 . S
H991 C1003 0.930 . S
H992 C1005 0.930 . S
H993 C1006 0.930 . S
H994 C1010 0.959 . S
H995 C1010 0.959 . S
H996 C1010 0.961 . S
H997 C1011 0.960 . S
H998 C1011 0.961 . S
H999 C1011 0.959 . S
H1000 C1014 0.929 . S
H1001 C1015 0.931 . S
H1002 C1017 0.930 . S
C1003 H991 0.930 . S
C1003 C1004 1.399 . S
C1003 C1008 1.399 . S
C1004 C1003 1.399 . S
C1004 C1005 1.376 . S
C1005 H992 0.930 . S
C1005 C1004 1.376 . S
C1005 C1006 1.388 . S
C1006 H993 0.930 . S
C1006 C1005 1.388 . S
C1006 C1007 1.390 . S
C1007 C1006 1.390 . S
C1007 C1008 1.394 . S
C1007 C1013 1.465 . S
C1008 C1003 1.399 . S
C1008 C1007 1.394 . S
C1008 C1009 1.516 . S
C1009 C1008 1.516 . S
C1009 C1010 1.502 . S
C1009 C1011 1.561 . S
C1009 C1012 1.526 . S
C1010 H994 0.959 . S
C1010 H995 0.959 . S
C1010 H996 0.961 . S
C1010 C1009 1.502 . S
C1011 H997 0.960 . S
C1011 H998 0.961 . S
C1011 H999 0.959 . S
C1011 C1009 1.561 . S
C1012 C1009 1.526 . S
C1012 C1013 1.396 . S
C1012 C1017 1.390 . S
C1013 C1007 1.465 . S
C1013 C1012 1.396 . S
C1013 C1014 1.399 . S
C1014 H1000 0.929 . S
C1014 C1013 1.399 . S
C1014 C1015 1.385 . S
C1015 H1001 0.931 . S
C1015 C1014 1.385 . S
C1015 C1016 1.389 . S
C1016 C1015 1.389 . S
C1016 C1017 1.387 . S
C1017 H1002 0.930 . S
C1017 C1012 1.390 . S
C1017 C1016 1.387 . S
H1018 C1030 0.930 . S
H1019 C1032 0.930 . S
H1020 C1033 0.930 . S
H1021 C1037 0.959 . S
H1022 C1037 0.959 . S
H1023 C1037 0.961 . S
H1024 C1038 0.960 . S
H1025 C1038 0.961 . S
H1026 C1038 0.959 . S
H1027 C1041 0.929 . S
H1028 C1042 0.931 . S
H1029 C1044 0.930 . S
C1030 H1018 0.930 . S
C1030 C1031 1.399 . S
C1030 C1035 1.399 . S
C1031 C1030 1.399 . S
C1031 C1032 1.376 . S
C1032 H1019 0.930 . S
C1032 C1031 1.376 . S
C1032 C1033 1.388 . S
C1033 H1020 0.930 . S
C1033 C1032 1.388 . S
C1033 C1034 1.390 . S
C1034 C1033 1.390 . S
C1034 C1035 1.394 . S
C1034 C1040 1.465 . S
C1035 C1030 1.399 . S
C1035 C1034 1.394 . S
C1035 C1036 1.516 1_455 S
C1036 C1035 1.516 1_655 S
C1036 C1037 1.502 1_655 S
C1036 C1038 1.561 . S
C1036 C1039 1.526 1_655 S
C1037 H1021 0.959 . S
C1037 H1022 0.959 . S
C1037 H1023 0.961 . S
C1037 C1036 1.502 1_455 S
C1038 H1024 0.960 . S
C1038 H1025 0.961 . S
C1038 H1026 0.959 . S
C1038 C1036 1.561 . S
C1039 C1036 1.526 1_455 S
C1039 C1040 1.396 . S
C1039 C1044 1.390 . S
C1040 C1034 1.465 . S
C1040 C1039 1.396 . S
C1040 C1041 1.399 . S
C1041 H1027 0.929 . S
C1041 C1040 1.399 . S
C1041 C1042 1.385 . S
C1042 H1028 0.931 . S
C1042 C1041 1.385 . S
C1042 C1043 1.389 . S
C1043 C1042 1.389 . S
C1043 C1044 1.387 . S
C1044 H1029 0.930 . S
C1044 C1039 1.390 . S
C1044 C1043 1.387 . S
H1045 C1057 0.930 . S
H1046 C1059 0.930 . S
H1047 C1060 0.930 . S
H1048 C1064 0.959 . S
H1049 C1064 0.959 . S
H1050 C1064 0.961 . S
H1051 C1065 0.960 . S
H1052 C1065 0.961 . S
H1053 C1065 0.959 . S
H1054 C1068 0.929 . S
H1055 C1069 0.931 . S
H1056 C1071 0.930 . S
C1057 H1045 0.930 . S
C1057 C1058 1.399 . S
C1057 C1062 1.399 . S
C1058 C1057 1.399 . S
C1058 C1059 1.376 1_545 S
C1059 H1046 0.930 . S
C1059 C1058 1.376 1_565 S
C1059 C1060 1.388 . S
C1060 H1047 0.930 . S
C1060 C1059 1.388 . S
C1060 C1061 1.390 . S
C1061 C1060 1.390 . S
C1061 C1062 1.394 1_565 S
C1061 C1067 1.465 . S
C1062 C1057 1.399 . S
C1062 C1061 1.394 1_545 S
C1062 C1063 1.516 . S
C1063 C1062 1.516 . S
C1063 C1064 1.502 . S
C1063 C1065 1.561 . S
C1063 C1066 1.526 . S
C1064 H1048 0.959 . S
C1064 H1049 0.959 . S
C1064 H1050 0.961 . S
C1064 C1063 1.502 . S
C1065 H1051 0.960 . S
C1065 H1052 0.961 . S
C1065 H1053 0.959 . S
C1065 C1063 1.561 . S
C1066 C1063 1.526 . S
C1066 C1067 1.396 1_545 S
C1066 C1071 1.390 . S
C1067 C1061 1.465 . S
C1067 C1066 1.396 1_565 S
C1067 C1068 1.399 . S
C1068 H1054 0.929 . S
C1068 C1067 1.399 . S
C1068 C1069 1.385 . S
C1069 H1055 0.931 . S
C1069 C1068 1.385 . S
C1069 C1070 1.389 1_565 S
C1070 C1069 1.389 1_545 S
C1070 C1071 1.387 . S
C1071 H1056 0.930 . S
C1071 C1066 1.390 . S
C1071 C1070 1.387 . S
C221 C5 1.203 . S
C233 C127 1.243 . S
C248 C140 1.218 . S
C260 C18 1.192 . S
C275 C147 1.245 . S
C287 C31 1.168 . S
C302 C114 1.217 . S
C314 C42 1.222 . S
C329 C57 1.202 . S
C341 C205 1.243 . S
C356 C160 1.245 . S
C368 C70 1.171 . S
C383 C173 1.244 . S
C395 C81 1.162 . S
C410 C186 1.243 . S
C422 C96 1.160 . S
C437 C109 1.165 . S
C449 C23 1.245 . S
C464 C122 1.239 . S
C476 C36 1.221 . S
C491 C135 1.237 . S
C503 C43 1.217 . S
C518 C10 1.219 . S
C530 C146 1.216 . S
C545 C159 1.240 . S
C557 C101 1.221 . S
C572 C172 1.239 . S
C584 C62 1.218 . S
C599 C75 1.224 . S
C611 C185 1.195 . S
C626 C200 1.175 . S
C638 C82 1.230 . S
C653 C108 1.612 . S
C665 C4 1.662 . S
C680 C17 1.685 . S
C692 C121 1.598 . S
C707 C134 1.610 . S
C719 C30 1.664 . S
C734 C49 1.686 . S
C746 C153 1.597 . S
C761 C166 1.603 . S
C773 C56 1.687 . S
C788 C69 1.602 . S
C800 C179 1.687 . S
C815 C192 1.680 . S
C827 C88 1.616 . S
C842 C199 1.613 . S
C854 C95 1.681 . S
C869 C55 1.737 . S
C881 C3 1.720 . S
C896 C68 1.721 . S
C908 C16 1.701 . S
C923 C29 1.699 . S
C935 C83 1.718 . S
C950 C94 1.707 . S
C962 C44 1.698 . S
C977 C107 1.704 . S
C989 C161 1.699 . S
C1004 C174 1.732 . S
C1016 C120 1.723 . S
C1031 C187 1.715 . S
C1043 C133 1.726 . S
C1058 C198 1.735 . S
C1070 C148 1.728 . S
