# Generated by pormake.
# Topology uof, (4)-cn, num edge types: 1
# Building blocks:
#     Node 0, Type 0, BuildingBlock: ICAMEG_clean_sbu_1, # of connection points: 4
#     Node 1, Type 0, BuildingBlock: ICAMEG_clean_sbu_1, # of connection points: 4
#     Node 2, Type 0, BuildingBlock: ICAMEG_clean_sbu_1, # of connection points: 4
#     Node 3, Type 0, BuildingBlock: ICAMEG_clean_sbu_1, # of connection points: 4
#     Node 4, Type 0, BuildingBlock: ICAMEG_clean_sbu_1, # of connection points: 4
#     Node 5, Type 0, BuildingBlock: ICAMEG_clean_sbu_1, # of connection points: 4
#     Node 6, Type 0, BuildingBlock: ICAMEG_clean_sbu_1, # of connection points: 4
#     Node 7, Type 0, BuildingBlock: ICAMEG_clean_sbu_1, # of connection points: 4
#     Node 8, Type 0, BuildingBlock: ICAMEG_clean_sbu_1, # of connection points: 4
#     Node 9, Type 0, BuildingBlock: ICAMEG_clean_sbu_1, # of connection points: 4
#     Node 10, Type 0, BuildingBlock: ICAMEG_clean_sbu_1, # of connection points: 4
#     Node 11, Type 0, BuildingBlock: ICAMEG_clean_sbu_1, # of connection points: 4
#     Edge 12, Type (0, 0), BuildingBlock: AJUNOK_clean_linker_0, # of connection points: 2
#     Edge 13, Type (0, 0), BuildingBlock: AJUNOK_clean_linker_0, # of connection points: 2
#     Edge 14, Type (0, 0), BuildingBlock: AJUNOK_clean_linker_0, # of connection points: 2
#     Edge 15, Type (0, 0), BuildingBlock: AJUNOK_clean_linker_0, # of connection points: 2
#     Edge 16, Type (0, 0), BuildingBlock: AJUNOK_clean_linker_0, # of connection points: 2
#     Edge 17, Type (0, 0), BuildingBlock: AJUNOK_clean_linker_0, # of connection points: 2
#     Edge 18, Type (0, 0), BuildingBlock: AJUNOK_clean_linker_0, # of connection points: 2
#     Edge 19, Type (0, 0), BuildingBlock: AJUNOK_clean_linker_0, # of connection points: 2
#     Edge 20, Type (0, 0), BuildingBlock: AJUNOK_clean_linker_0, # of connection points: 2
#     Edge 21, Type (0, 0), BuildingBlock: AJUNOK_clean_linker_0, # of connection points: 2
#     Edge 22, Type (0, 0), BuildingBlock: AJUNOK_clean_linker_0, # of connection points: 2
#     Edge 23, Type (0, 0), BuildingBlock: AJUNOK_clean_linker_0, # of connection points: 2
#     Edge 24, Type (0, 0), BuildingBlock: AJUNOK_clean_linker_0, # of connection points: 2
#     Edge 25, Type (0, 0), BuildingBlock: AJUNOK_clean_linker_0, # of connection points: 2
#     Edge 26, Type (0, 0), BuildingBlock: AJUNOK_clean_linker_0, # of connection points: 2
#     Edge 27, Type (0, 0), BuildingBlock: AJUNOK_clean_linker_0, # of connection points: 2
#     Edge 28, Type (0, 0), BuildingBlock: AJUNOK_clean_linker_0, # of connection points: 2
#     Edge 29, Type (0, 0), BuildingBlock: AJUNOK_clean_linker_0, # of connection points: 2
#     Edge 30, Type (0, 0), BuildingBlock: AJUNOK_clean_linker_0, # of connection points: 2
#     Edge 31, Type (0, 0), BuildingBlock: AJUNOK_clean_linker_0, # of connection points: 2
#     Edge 32, Type (0, 0), BuildingBlock: AJUNOK_clean_linker_0, # of connection points: 2
#     Edge 33, Type (0, 0), BuildingBlock: AJUNOK_clean_linker_0, # of connection points: 2
#     Edge 34, Type (0, 0), BuildingBlock: AJUNOK_clean_linker_0, # of connection points: 2
#     Edge 35, Type (0, 0), BuildingBlock: AJUNOK_clean_linker_0, # of connection points: 2
# Relax obj value: 0.215
# Max RMSD: 0.165
# Mean RMSD: 0.165
data_MOF--net-uof--node1-ICAMEG_clean_sbu_1--edge1-AJUNOK_clean_linker_0
_symmetry_space_group_name_H-M    P1
_symmetry_Int_Tables_number       1
_symmetry_cell_setting            triclinic
loop_
_symmetry_equiv_pos_as_xyz
'x, y, z'
_cell_length_a     24.757323
_cell_length_b     24.739708
_cell_length_c     54.555114
_cell_angle_alpha  89.960929
_cell_angle_beta   89.97355
_cell_angle_gamma 120.00507
loop_
_atom_site_label
_atom_site_type_symbol
_atom_site_fract_x
_atom_site_fract_y
_atom_site_fract_z
_atom_type_partial_charge
Co0 Co 0.26521 0.31287 0.20996 0.0
Co1 Co 0.17755 0.19774 0.25041 0.0
O2 O 0.23942 0.28582 0.24379 0.0
C3 C 0.39972 0.37469 0.22746 0.0
O4 O 0.39598 0.32009 0.22967 0.0
C5 C 0.18454 0.26375 0.29682 0.0
O6 O 0.22396 0.31976 0.28849 0.0
O7 O 0.11613 0.2093 0.22999 0.0
O8 O 0.17878 0.25124 0.19737 0.0
H9 H 1.00558 0.98478 0.22553 0.0
H10 H 0.28351 0.4064 0.24762 0.0
O11 O 0.35161 0.37806 0.22141 0.0
H12 H 0.15483 0.42792 0.18364 0.0
H13 H 0.37828 0.46787 0.14231 0.0
H14 H 0.24747 0.24514 0.16337 0.0
H15 H 0.18943 0.35067 0.17926 0.0
H16 H 0.34191 0.43566 0.18475 0.0
O17 O 0.14984 0.22107 0.28167 0.0
H18 H 0.08732 0.09396 0.21871 0.0
H19 H 0.12983 0.11479 0.2946 0.0
H20 H 0.28303 0.27525 0.12069 0.0
H21 H 0.25051 0.48481 0.25262 0.0
H22 H 0.34867 0.38733 0.10993 0.0
H23 H 0.18562 0.49586 0.22048 0.0
O24 O 0.29172 0.24916 0.20726 0.0
H25 H 0.37721 0.27157 0.29884 0.0
H26 H 0.20049 0.09037 0.25995 0.0
H27 H 0.27927 0.0767 0.28136 0.0
H28 H 0.36855 0.16741 0.30136 0.0
H29 H 0.29772 0.28373 0.27745 0.0
H30 H 0.04587 0.00701 0.30242 0.0
H31 H 0.98361 0.9407 0.26752 0.0
O32 O 0.20315 0.16947 0.22072 0.0
C33 C 0.1243 0.22425 0.20715 0.0
C34 C 0.03212 0.01329 0.24081 0.0
C35 C 0.05448 0.0258 0.284 0.0
N36 N 0.1131 0.11139 0.25635 0.0
C37 C 0.07871 0.07521 0.2371 0.0
C38 C 0.10118 0.08732 0.27957 0.0
C39 C 0.01979 0.98857 0.26442 0.0
C40 C 0.25553 0.4112 0.23352 0.0
N41 N 0.23869 0.37425 0.21314 0.0
C42 C 0.23688 0.45556 0.23646 0.0
C43 C 0.20044 0.46171 0.21843 0.0
C44 C 0.18314 0.42359 0.19776 0.0
C45 C 0.20275 0.37982 0.19541 0.0
C46 C 0.34945 0.41887 0.14675 0.0
C47 C 0.27576 0.294 0.15878 0.0
C48 C 0.32875 0.40036 0.17075 0.0
N49 N 0.29207 0.33857 0.17646 0.0
C50 C 0.29582 0.31075 0.13461 0.0
C51 C 0.3328 0.37367 0.12859 0.0
C52 C 0.25761 0.19121 0.21188 0.0
C53 C 0.33766 0.23125 0.29077 0.0
C54 C 0.23737 0.13019 0.26913 0.0
C55 C 0.28275 0.12208 0.28103 0.0
C56 C 0.33292 0.17294 0.29213 0.0
N57 N 0.24024 0.18702 0.26876 0.0
C58 C 0.29134 0.23756 0.27872 0.0
Co59 Co 0.94545 0.26368 0.53995 0.0
Co60 Co 0.99603 0.19246 0.57992 0.0
O61 O 0.95603 0.24291 0.57372 0.0
C62 C 1.00766 0.39513 0.55956 0.0
O63 O 0.05645 0.39039 0.56552 0.0
C64 C 0.93561 0.19024 0.62726 0.0
O65 O 0.90782 0.22026 0.6193 0.0
O66 O 0.92706 0.12235 0.56032 0.0
O67 O 0.92941 0.17947 0.52788 0.0
H68 H 0.09234 0.0659 0.55181 0.0
H69 H 0.87066 0.27537 0.57963 0.0
O70 O 0.95924 0.34796 0.55069 0.0
H71 H 0.71703 0.12543 0.52114 0.0
H72 H 0.87081 0.35359 0.47405 0.0
H73 H 0.99119 0.24855 0.49179 0.0
H74 H 0.82979 0.17333 0.51309 0.0
H75 H 0.8806 0.32483 0.51646 0.0
O76 O 0.94906 0.15962 0.61195 0.0
H77 H 0.03268 0.12015 0.54693 0.0
H78 H 0.0423 0.15293 0.62348 0.0
H79 H 0.98233 0.27608 0.44912 0.0
H80 H 0.75821 0.22897 0.58832 0.0
H81 H 0.92176 0.32902 0.44002 0.0
H82 H 0.68057 0.15334 0.55896 0.0
O83 O 0.0367 0.3015 0.53414 0.0
H84 H 0.09623 0.39613 0.62736 0.0
H85 H 0.1336 0.23765 0.58961 0.0
H86 H 0.21874 0.32607 0.61033 0.0
H87 H 0.20096 0.40648 0.62976 0.0
H88 H 0.01164 0.30699 0.6067 0.0
H89 H 0.09536 0.09258 0.62961 0.0
H90 H 0.12285 0.05036 0.59351 0.0
O91 O 0.04585 0.22369 0.54962 0.0
C92 C 0.91334 0.12662 0.53788 0.0
C93 C 0.08089 0.08431 0.56773 0.0
C94 C 0.08192 0.09861 0.61138 0.0
N95 N 0.03358 0.1401 0.585 0.0
C96 C 0.04705 0.11527 0.5651 0.0
C97 C 0.04982 0.13106 0.60795 0.0
C98 C 0.09793 0.07552 0.59108 0.0
C99 C 0.83707 0.2427 0.56674 0.0
N100 N 0.85672 0.22716 0.54589 0.0
C101 C 0.77351 0.2165 0.57177 0.0
C102 C 0.72998 0.17403 0.55529 0.0
C103 C 0.7504 0.15833 0.53408 0.0
C104 C 0.81432 0.18547 0.52966 0.0
C105 C 0.89725 0.33047 0.47778 0.0
C106 C 0.96448 0.27127 0.48796 0.0
C107 C 0.90308 0.31423 0.50176 0.0
N108 N 0.93618 0.28479 0.50657 0.0
C109 C 0.95975 0.28688 0.46377 0.0
C110 C 0.92583 0.31664 0.45869 0.0
C111 C 0.06889 0.27568 0.53866 0.0
C112 C 0.10429 0.36067 0.61946 0.0
C113 C 0.12353 0.27064 0.59817 0.0
C114 C 0.17293 0.32153 0.60988 0.0
C115 C 0.16305 0.36664 0.62072 0.0
N116 N 0.0648 0.26325 0.59761 0.0
C117 C 0.0559 0.30896 0.60771 0.0
Co118 Co 0.65965 0.90957 0.87857 0.0
Co119 Co 0.80138 1.00238 0.90641 0.0
O120 O 0.71001 0.95197 0.90772 0.0
C121 C 0.59743 0.97854 0.89605 0.0
O122 O 0.65347 0.02779 0.89671 0.0
C123 C 0.77041 0.96001 0.95864 0.0
O124 O 0.71147 0.92165 0.9536 0.0
O125 O 0.80556 0.929 0.89225 0.0
O126 O 0.72709 0.89373 0.86507 0.0
H127 H 1.00852 0.08673 0.86393 0.0
H128 H 0.60048 0.86825 0.92733 0.0
O129 O 0.59124 0.92552 0.8905 0.0
H130 H 0.59532 0.6835 0.89074 0.0
H131 H 0.45961 0.76711 0.83433 0.0
H132 H 0.68563 0.91123 0.82537 0.0
H133 H 0.64017 0.78276 0.86791 0.0
H134 H 0.52466 0.81954 0.87049 0.0
O135 O 0.81057 0.97954 0.94134 0.0
H136 H 0.89389 0.02716 0.86705 0.0
H137 H 0.90412 0.08221 0.9415 0.0
H138 H 0.62251 0.85943 0.78875 0.0
H139 H 0.55462 0.76971 0.95075 0.0
H140 H 0.50858 0.78675 0.79311 0.0
H141 H 0.552 0.67649 0.93246 0.0
O142 O 0.69728 0.98945 0.86038 0.0
H143 H 0.71635 0.11368 0.95767 0.0
H144 H 0.8722 0.13928 0.89574 0.0
H145 H 0.87271 0.23199 0.91207 0.0
H146 H 0.79452 0.21982 0.94335 0.0
H147 H 0.71773 0.02255 0.94108 0.0
H148 H 0.01875 0.13861 0.93955 0.0
H149 H 0.07136 0.13997 0.90076 0.0
O150 O 0.79648 0.03038 0.87294 0.0
C151 C 0.77843 0.89883 0.87265 0.0
C152 C 0.98582 0.08584 0.88102 0.0
C153 C 0.9916 0.11469 0.92351 0.0
N154 N 0.89197 0.05064 0.90449 0.0
C155 C 0.92088 0.05233 0.8829 0.0
C156 C 0.92658 0.08183 0.92459 0.0
C157 C 0.02119 0.11619 0.90162 0.0
C158 C 0.59924 0.82778 0.91924 0.0
N159 N 0.6231 0.83126 0.89635 0.0
C160 C 0.57334 0.77216 0.93259 0.0
C161 C 0.57193 0.7199 0.92232 0.0
C162 C 0.59629 0.72381 0.89893 0.0
C163 C 0.62187 0.78023 0.88613 0.0
C164 C 0.50922 0.79856 0.8322 0.0
C165 C 0.63622 0.87938 0.82744 0.0
C166 C 0.54627 0.82847 0.8526 0.0
N167 N 0.60901 0.86802 0.85006 0.0
C168 C 0.60065 0.85031 0.80663 0.0
C169 C 0.53673 0.80959 0.80908 0.0
C170 C 0.75464 0.03067 0.8595 0.0
C171 C 0.75168 0.11982 0.94449 0.0
C172 C 0.83912 0.13319 0.90991 0.0
C173 C 0.83919 0.1861 0.91886 0.0
C174 C 0.79532 0.17927 0.93637 0.0
N175 N 0.79806 0.07496 0.91878 0.0
C176 C 0.75345 0.06806 0.93529 0.0
Co177 Co 0.78141 0.66413 0.21137 0.0
Co178 Co 0.81341 0.80377 0.23929 0.0
O179 O 0.78155 0.71355 0.23953 0.0
C180 C 0.64578 0.60134 0.22347 0.0
O181 O 0.65154 0.65698 0.2226 0.0
C182 C 0.83304 0.77493 0.29116 0.0
O183 O 0.81128 0.71565 0.28634 0.0
O184 O 0.89449 0.8199 0.2232 0.0
O185 O 0.8679 0.73172 0.20189 0.0
H186 H 0.90737 0.01688 0.20023 0.0
H187 H 0.74733 0.60334 0.26022 0.0
O188 O 0.69382 0.59579 0.21997 0.0
H189 H 0.93479 0.59597 0.23492 0.0
H190 H 0.73254 0.46353 0.1694 0.0
H191 H 0.82828 0.69127 0.16005 0.0
H192 H 0.88953 0.64306 0.20793 0.0
H193 H 0.73446 0.52843 0.20402 0.0
O194 O 0.84921 0.81423 0.27363 0.0
H195 H 0.85934 0.90248 0.20039 0.0
H196 H 0.8303 0.89868 0.27728 0.0
H197 H 0.82785 0.62839 0.12499 0.0
H198 H 0.79053 0.55512 0.28768 0.0
H199 H 0.77959 0.51349 0.12953 0.0
H200 H 0.88506 0.55139 0.27509 0.0
O201 O 0.74676 0.70334 0.18902 0.0
H202 H 0.61335 0.68893 0.28848 0.0
H203 H 0.73429 0.86165 0.23112 0.0
H204 H 0.63384 0.84444 0.24641 0.0
H205 H 0.57249 0.75782 0.27554 0.0
H206 H 0.71386 0.70771 0.27283 0.0
H207 H 0.87969 0.01271 0.27799 0.0
H208 H 0.92074 0.07257 0.23964 0.0
O209 O 0.77788 0.79659 0.20662 0.0
C210 C 0.90633 0.78887 0.20716 0.0
C211 C 0.89125 0.99114 0.21725 0.0
C212 C 0.87583 0.98883 0.2609 0.0
N213 N 0.84544 0.89362 0.239 0.0
C214 C 0.86451 0.92628 0.2175 0.0
C215 C 0.84888 0.9241 0.2604 0.0
C216 C 0.89811 0.02246 0.23924 0.0
C217 C 0.78831 0.60164 0.25458 0.0
N218 N 0.8161 0.62628 0.23257 0.0
C219 C 0.81264 0.5744 0.27022 0.0
C220 C 0.86572 0.57239 0.26316 0.0
C221 C 0.89369 0.59747 0.24064 0.0
C222 C 0.86809 0.6244 0.2255 0.0
C223 C 0.75351 0.51352 0.16716 0.0
C224 C 0.80709 0.64149 0.16216 0.0
C225 C 0.75446 0.55052 0.18667 0.0
N226 N 0.781 0.61373 0.184 0.0
C227 C 0.80703 0.60601 0.14224 0.0
C228 C 0.77996 0.54157 0.1448 0.0
C229 C 0.75159 0.75711 0.18961 0.0
C230 C 0.64069 0.72827 0.27652 0.0
C231 C 0.70971 0.82538 0.24455 0.0
C232 C 0.65201 0.81526 0.25286 0.0
C233 C 0.61755 0.76661 0.26912 0.0
N234 N 0.7338 0.78935 0.25271 0.0
C235 C 0.69878 0.74006 0.26794 0.0
Co236 Co 0.0892 0.77692 0.54402 0.0
Co237 Co 0.03619 0.84777 0.58324 0.0
O238 O 0.0751 0.79648 0.57729 0.0
C239 C 0.02886 0.6389 0.54539 0.0
O240 O 0.9963 0.64003 0.52662 0.0
C241 C 0.08914 0.84222 0.63132 0.0
O242 O 0.11405 0.80947 0.6234 0.0
O243 O 0.10766 0.91842 0.56474 0.0
O244 O 0.10972 0.86308 0.53227 0.0
H245 H 0.94591 0.97985 0.55561 0.0
H246 H 0.15594 0.7576 0.58499 0.0
O247 O 0.06904 0.69037 0.55539 0.0
H248 H 0.32083 0.9096 0.53032 0.0
H249 H 0.17017 0.68819 0.48004 0.0
H250 H 0.05138 0.79626 0.49487 0.0
H251 H 0.20985 0.86714 0.52006 0.0
H252 H 0.15497 0.7147 0.52213 0.0
O253 O 0.07979 0.87609 0.61613 0.0
H254 H 1.0033 0.92364 0.5506 0.0
H255 H 0.99165 0.88857 0.62719 0.0
H256 H 0.0653 0.77057 0.45251 0.0
H257 H 0.26639 0.79824 0.59581 0.0
H258 H 0.12509 0.71613 0.44489 0.0
H259 H 0.34971 0.8749 0.56838 0.0
O260 O 0.99942 0.74326 0.5365 0.0
H261 H 0.92193 0.63502 0.62419 0.0
H262 H 0.89924 0.80708 0.59104 0.0
H263 H 0.80936 0.71757 0.60909 0.0
H264 H 0.81961 0.63015 0.6261 0.0
H265 H 0.01191 0.72617 0.60698 0.0
H266 H 0.94019 0.9504 0.63331 0.0
H267 H 0.91455 0.99461 0.59726 0.0
O268 O 0.98943 0.82042 0.55219 0.0
C269 C 0.12264 0.91514 0.54234 0.0
C270 C 0.95606 0.96024 0.57149 0.0
C271 C 0.95357 0.94435 0.61508 0.0
N272 N 1.00052 0.90167 0.58856 0.0
C273 C 0.98859 0.92804 0.56876 0.0
C274 C 0.98444 0.91069 0.61158 0.0
C275 C 0.93875 0.96871 0.59484 0.0
C276 C 0.19197 0.79063 0.5729 0.0
N277 N 0.17649 0.80971 0.55188 0.0
C278 C 0.25441 0.81363 0.57915 0.0
C279 C 0.30113 0.85668 0.56376 0.0
C280 C 0.28496 0.8762 0.54242 0.0
C281 C 0.22203 0.85216 0.53675 0.0
C282 C 0.14415 0.71203 0.48312 0.0
C283 C 0.07768 0.77282 0.49168 0.0
C284 C 0.13546 0.7272 0.50689 0.0
N285 N 0.10255 0.75724 0.51091 0.0
C286 C 0.08533 0.7583 0.46766 0.0
C287 C 0.11883 0.72771 0.46341 0.0
C288 C 0.96808 0.77033 0.54003 0.0
C289 C 0.91728 0.67373 0.61757 0.0
C290 C 0.90648 0.77165 0.59915 0.0
C291 C 0.8542 0.7199 0.6091 0.0
C292 C 0.85984 0.6708 0.61852 0.0
N293 N 0.96409 0.77624 0.59922 0.0
C294 C 0.96878 0.72659 0.60776 0.0
Co295 Co 0.31399 0.07545 0.87704 0.0
Co296 Co 0.18864 0.03068 0.91459 0.0
O297 O 0.27877 0.06337 0.91016 0.0
C298 C 0.37443 1.00382 0.89643 0.0
O299 O 0.31912 0.9542 0.89919 0.0
C300 C 0.24702 0.08758 0.96252 0.0
O301 O 0.30427 0.11003 0.95447 0.0
O302 O 0.19815 0.10533 0.89594 0.0
O303 O 0.25112 0.0981 0.86389 0.0
H304 H 0.97357 0.96095 0.88173 0.0
H305 H 0.39803 0.14311 0.91836 0.0
O306 O 0.37936 0.05519 0.88907 0.0
H307 H 0.42072 0.30675 0.86067 0.0
H308 H 0.48599 0.14503 0.81451 0.0
H309 H 0.25849 0.03723 0.82765 0.0
H310 H 0.35022 0.19554 0.85122 0.0
H311 H 0.44274 0.13408 0.85614 0.0
O312 O 0.20254 0.07324 0.94742 0.0
H313 H 0.08639 1.00299 0.87916 0.0
H314 H 0.09726 1.00055 0.95697 0.0
H315 H 0.29969 0.04747 0.78571 0.0
H316 H 0.46961 0.25379 0.92845 0.0
H317 H 0.41427 0.10172 0.77893 0.0
H318 H 0.48121 0.33648 0.89949 0.0
O319 O 0.25623 0.98569 0.87009 0.0
H320 H 0.26723 0.90798 0.96227 0.0
H321 H 0.08305 0.89764 0.92355 0.0
H322 H 0.07334 0.80533 0.94355 0.0
H323 H 0.16551 0.80939 0.9633 0.0
H324 H 0.2759 0.99984 0.94228 0.0
H325 H 0.98576 0.96402 0.96015 0.0
H326 H 0.9224 0.94267 0.92243 0.0
O327 O 0.17049 0.98346 0.88341 0.0
C328 C 0.21687 0.11771 0.87359 0.0
C329 C 1.00061 0.9697 0.89834 0.0
C330 C 1.00749 0.97155 0.9423 0.0
N331 N 0.0994 1.0022 0.91784 0.0
C332 C 0.0648 0.99278 0.89704 0.0
C333 C 0.07132 0.99296 0.94032 0.0
C334 C 0.97191 0.95939 0.92115 0.0
C335 C 0.40304 0.17887 0.90566 0.0
N336 N 0.37008 0.16291 0.88425 0.0
C337 C 0.44354 0.24143 0.91147 0.0
C338 C 0.45 0.2878 0.89522 0.0
C339 C 0.41605 0.27116 0.87344 0.0
C340 C 0.37604 0.20811 0.86823 0.0
C341 C 0.436 0.12144 0.81722 0.0
C342 C 0.30839 0.06129 0.82483 0.0
C343 C 0.41124 0.11502 0.84075 0.0
N344 N 0.34816 0.08553 0.84428 0.0
C345 C 0.33145 0.06677 0.80104 0.0
C346 C 0.39572 0.09714 0.79726 0.0
C347 C 0.1976 0.95703 0.87347 0.0
C348 C 0.22656 0.90563 0.95383 0.0
C349 C 0.124 0.90151 0.93198 0.0
C350 C 0.11793 0.84817 0.94337 0.0
C351 C 0.16958 0.85038 0.95441 0.0
N352 N 0.17993 0.9564 0.93162 0.0
C353 C 0.23097 0.95808 0.94225 0.0
Co354 Co 0.67734 0.77359 0.46391 0.0
Co355 Co 0.81903 0.84186 0.43432 0.0
O356 O 0.72772 0.79123 0.43406 0.0
C357 C 0.62559 0.64584 0.44349 0.0
O358 O 0.6834 0.65775 0.44188 0.0
C359 C 0.77661 0.85426 0.38426 0.0
O360 O 0.71868 0.8315 0.39143 0.0
O361 O 0.81328 0.91161 0.45099 0.0
O362 O 0.73936 0.85716 0.47903 0.0
H363 H 0.02529 0.98155 0.47501 0.0
H364 H 0.61204 0.75573 0.41653 0.0
O365 O 0.61476 0.6888 0.4505 0.0
H366 H 0.59068 0.91916 0.45967 0.0
H367 H 0.47503 0.69124 0.51007 0.0
H368 H 0.70257 0.78371 0.51733 0.0
H369 H 0.64629 0.87084 0.47897 0.0
H370 H 0.54096 0.71734 0.47315 0.0
O371 O 0.82022 0.87582 0.40021 0.0
H372 H 0.91125 0.91285 0.47332 0.0
H373 H 0.92195 0.88466 0.39699 0.0
H374 H 0.63888 0.75927 0.55482 0.0
H375 H 0.55535 0.80225 0.39665 0.0
H376 H 0.52401 0.71261 0.5513 0.0
H377 H 0.54456 0.88475 0.41823 0.0
O378 O 0.72371 0.73654 0.47913 0.0
H379 H 0.75034 0.65361 0.37975 0.0
H380 H 0.90746 0.79285 0.43946 0.0
H381 H 0.91982 0.71076 0.4195 0.0
H382 H 0.841 0.64026 0.38932 0.0
H383 H 0.74055 0.73701 0.39979 0.0
H384 H 0.03539 0.95617 0.39768 0.0
H385 H 0.08782 1.00537 0.43679 0.0
O386 O 0.82106 0.80623 0.46681 0.0
C387 C 0.78707 0.90787 0.47173 0.0
C388 C 1.00283 0.96068 0.45779 0.0
C389 C 1.0085 0.94657 0.41439 0.0
N390 N 0.90951 0.89457 0.43509 0.0
C391 C 0.93823 0.92137 0.45673 0.0
C392 C 0.94397 0.90659 0.41409 0.0
C393 C 0.03797 0.97388 0.43639 0.0
C394 C 0.60735 0.79146 0.42606 0.0
N395 N 0.63284 0.81086 0.44878 0.0
C396 C 0.5753 0.8177 0.4147 0.0
C397 C 0.56932 0.86403 0.42681 0.0
C398 C 0.59527 0.88343 0.45004 0.0
C399 C 0.62706 0.85617 0.46081 0.0
C400 C 0.52506 0.71205 0.51186 0.0
C401 C 0.65303 0.76457 0.5157 0.0
C402 C 0.56268 0.72703 0.49101 0.0
N403 N 0.62598 0.75374 0.49311 0.0
C404 C 0.61699 0.75029 0.53697 0.0
C405 C 0.55256 0.72401 0.53498 0.0
C406 C 0.78243 0.7588 0.47926 0.0
C407 C 0.78591 0.68501 0.39239 0.0
C408 C 0.87399 0.76419 0.4257 0.0
C409 C 0.88085 0.71699 0.4147 0.0
C410 C 0.83659 0.67737 0.39783 0.0
N411 N 0.82573 0.77354 0.41941 0.0
C412 C 0.78107 0.73321 0.40354 0.0
Co413 Co 0.89791 0.66579 0.80246 0.0
Co414 Co 0.99018 0.80559 0.77273 0.0
O415 O 0.93678 0.71465 0.7727 0.0
C416 C 0.96467 0.60301 0.78356 0.0
O417 O 0.01386 0.65903 0.7826 0.0
C418 C 0.94024 0.77296 0.72166 0.0
O419 O 0.90143 0.71427 0.72707 0.0
O420 O 0.9215 0.8144 0.78942 0.0
O421 O 0.88405 0.73427 0.81618 0.0
H422 H 0.09826 0.01552 0.81323 0.0
H423 H 0.85129 0.60436 0.75439 0.0
O424 O 0.91226 0.59683 0.79007 0.0
H425 H 0.67135 0.6025 0.79406 0.0
H426 H 0.75712 0.46717 0.84813 0.0
H427 H 0.90809 0.69176 0.85582 0.0
H428 H 0.77283 0.64793 0.81519 0.0
H429 H 0.80634 0.53148 0.8114 0.0
O430 O 0.96118 0.81353 0.73879 0.0
H431 H 0.02562 0.90259 0.81103 0.0
H432 H 0.06683 0.90301 0.73538 0.0
H433 H 0.85953 0.62974 0.89307 0.0
H434 H 0.75048 0.55786 0.73267 0.0
H435 H 0.78334 0.51638 0.88933 0.0
H436 H 0.65966 0.55687 0.75252 0.0
O437 O 0.97971 0.7039 0.81948 0.0
H438 H 0.08417 0.7059 0.7194 0.0
H439 H 0.12913 0.87282 0.77876 0.0
H440 H 0.21577 0.86677 0.75976 0.0
H441 H 0.19385 0.78297 0.72974 0.0
H442 H 0.99911 0.71426 0.73837 0.0
H443 H 0.13828 0.01636 0.73657 0.0
H444 H 0.157 0.07298 0.77576 0.0
O445 O 0.02406 0.80196 0.80509 0.0
C446 C 0.89113 0.7869 0.80903 0.0
C447 C 0.09169 0.99137 0.79603 0.0
C448 C 0.11358 0.99178 0.75297 0.0
N449 N 0.04208 0.89592 0.77314 0.0
C450 C 0.05034 0.92725 0.79467 0.0
C451 C 0.0722 0.92763 0.75234 0.0
C452 C 0.1239 0.0236 0.77504 0.0
C453 C 0.81189 0.60384 0.76316 0.0
N454 N 0.81794 0.62893 0.78597 0.0
C455 C 0.75497 0.57757 0.75077 0.0
C456 C 0.70406 0.5771 0.76191 0.0
C457 C 0.7106 0.60275 0.7852 0.0
C458 C 0.76826 0.62868 0.79703 0.0
C459 C 0.7899 0.51658 0.84999 0.0
C460 C 0.87435 0.64291 0.85407 0.0
C461 C 0.81791 0.55325 0.82927 0.0
N462 N 0.85906 0.61577 0.83147 0.0
C463 C 0.84728 0.60781 0.87522 0.0
C464 C 0.80464 0.54422 0.87311 0.0
C465 C 0.0234 0.76047 0.81904 0.0
C466 C 0.09447 0.74391 0.73183 0.0
C467 C 0.11862 0.8376 0.76498 0.0
C468 C 0.16822 0.83386 0.75457 0.0
C469 C 0.15594 0.78685 0.73776 0.0
N470 N 0.05824 0.79746 0.75808 0.0
C471 C 0.04615 0.7497 0.74236 0.0
Co472 Co 0.25257 0.89682 0.13826 0.0
Co473 Co 0.22734 0.01191 0.11391 0.0
O474 O 0.25534 0.95078 0.11129 0.0
C475 C 0.38759 0.96484 0.12641 0.0
O476 O 0.38495 0.01598 0.12971 0.0
C477 C 0.21025 0.97705 0.05983 0.0
O478 O 0.23121 0.93799 0.06209 0.0
O479 O 0.14308 0.94504 0.12736 0.0
O480 O 0.16807 0.88195 0.14846 0.0
H481 H 0.13679 0.12709 0.15799 0.0
H482 H 0.28232 0.87362 0.0881 0.0
O483 O 0.33803 0.91187 0.12876 0.0
H484 H 0.08975 0.68118 0.11154 0.0
H485 H 0.28614 0.73029 0.17609 0.0
H486 H 0.21031 0.87799 0.19009 0.0
H487 H 0.14016 0.76979 0.14023 0.0
H488 H 0.28895 0.79919 0.14281 0.0
O489 O 0.19693 0.99848 0.07872 0.0
H490 H 0.17424 0.0526 0.15432 0.0
H491 H 0.22064 0.10351 0.07965 0.0
H492 H 0.20595 0.80943 0.22379 0.0
H493 H 0.23396 0.78592 0.0589 0.0
H494 H 0.24412 0.73495 0.2169 0.0
H495 H 0.13684 0.68889 0.07055 0.0
O496 O 0.29165 0.9679 0.16195 0.0
H497 H 0.43381 0.09831 0.06928 0.0
H498 H 0.31011 0.1464 0.12664 0.0
H499 H 0.41448 0.22911 0.11461 0.0
H500 H 0.47768 0.20551 0.0859 0.0
H501 H 0.32842 0.01771 0.08066 0.0
H502 H 0.18258 0.17709 0.08232 0.0
H503 H 0.14049 0.18999 0.12116 0.0
O504 O 0.25849 0.03113 0.14748 0.0
C505 C 0.13008 0.90118 0.14317 0.0
C506 C 0.15482 0.12198 0.14063 0.0
C507 C 0.18033 0.14974 0.09819 0.0
N508 N 0.19877 0.07219 0.11663 0.0
C509 C 0.17618 0.07961 0.13845 0.0
C510 C 0.20138 0.10721 0.09675 0.0
C511 C 0.15672 0.15696 0.12022 0.0
C512 C 0.24021 0.83145 0.09332 0.0
N513 N 0.21389 0.8269 0.11579 0.0
C514 C 0.21297 0.78199 0.0767 0.0
C515 C 0.15845 0.72759 0.08324 0.0
C516 C 0.13196 0.72327 0.10622 0.0
C517 C 0.16048 0.77371 0.12235 0.0
C518 C 0.26936 0.76253 0.17932 0.0
C519 C 0.22671 0.84548 0.1869 0.0
C520 C 0.27106 0.80182 0.16057 0.0
N521 N 0.24967 0.84244 0.16448 0.0
C522 C 0.22426 0.80688 0.20608 0.0
C523 C 0.24574 0.76514 0.20221 0.0
C524 C 0.28588 0.01609 0.16334 0.0
C525 C 0.4063 0.10955 0.08146 0.0
C526 C 0.33549 0.13578 0.11321 0.0
C527 C 0.39542 0.18289 0.10684 0.0
C528 C 0.43095 0.1696 0.09081 0.0
N529 N 0.31012 0.07733 0.10317 0.0
C530 C 0.34576 0.06384 0.08791 0.0
Co531 Co 0.35691 0.26456 0.46655 0.0
Co532 Co 0.21377 0.20654 0.43872 0.0
O533 O 0.30496 0.24857 0.43727 0.0
C534 C 0.41437 0.39127 0.44475 0.0
O535 O 0.3577 0.38281 0.44367 0.0
C536 C 0.2445 0.18219 0.38834 0.0
O537 O 0.30354 0.20416 0.39365 0.0
O538 O 0.2115 0.13379 0.45652 0.0
O539 O 0.29193 0.1834 0.48254 0.0
H540 H 1.00673 0.08413 0.48136 0.0
H541 H 0.41565 0.27466 0.41818 0.0
O542 O 0.42252 0.34682 0.45213 0.0
H543 H 0.42721 0.10583 0.46159 0.0
H544 H 0.56069 0.33504 0.51007 0.0
H545 H 0.33612 0.25816 0.52025 0.0
H546 H 0.38019 0.16192 0.48154 0.0
H547 H 0.49258 0.31197 0.47401 0.0
O548 O 0.20464 0.16551 0.40566 0.0
H549 H 0.12163 0.14285 0.47869 0.0
H550 H 0.1113 0.17836 0.4032 0.0
H551 H 0.40203 0.27963 0.5569 0.0
H552 H 0.46377 0.22031 0.39763 0.0
H553 H 0.51537 0.31843 0.5519 0.0
H554 H 0.4696 0.13509 0.41935 0.0
O555 O 0.3177 0.30842 0.48243 0.0
H556 H 0.29469 0.38773 0.37921 0.0
H557 H 0.1412 0.27284 0.44416 0.0
H558 H 0.13806 0.35857 0.42272 0.0
H559 H 0.21496 0.41671 0.38988 0.0
H560 H 0.29591 0.30167 0.40081 0.0
H561 H 0.99666 0.1171 0.40468 0.0
H562 H 0.94394 0.06929 0.44378 0.0
O563 O 0.21835 0.24768 0.47038 0.0
C564 C 0.24027 0.13525 0.47631 0.0
C565 C 0.02942 0.10442 0.46409 0.0
C566 C 0.02372 0.12261 0.42102 0.0
N567 N 0.12327 0.16312 0.44067 0.0
C568 C 0.09443 0.13779 0.46247 0.0
C569 C 0.08868 0.15638 0.42019 0.0
C570 C 0.99409 0.0962 0.44309 0.0
C571 C 0.41826 0.2378 0.42777 0.0
N572 N 0.3949 0.22129 0.45096 0.0
C573 C 0.44545 0.20711 0.41603 0.0
C574 C 0.44864 0.15926 0.42822 0.0
C575 C 0.42479 0.14277 0.45191 0.0
C576 C 0.3979 0.17446 0.46306 0.0
C577 C 0.51131 0.31769 0.5125 0.0
C578 C 0.38498 0.27393 0.51799 0.0
C579 C 0.47248 0.30449 0.49214 0.0
N580 N 0.40997 0.28212 0.49506 0.0
C581 C 0.42228 0.28652 0.53878 0.0
C582 C 0.48586 0.30839 0.53596 0.0
C583 C 0.2604 0.29281 0.48268 0.0
C584 C 0.25991 0.36182 0.39308 0.0
C585 C 0.17384 0.29637 0.42941 0.0
C586 C 0.17225 0.34559 0.41753 0.0
C587 C 0.2154 0.37823 0.39914 0.0
N588 N 0.21556 0.27815 0.42253 0.0
C589 C 0.25964 0.31192 0.40519 0.0
Co590 Co 0.06648 0.3255 0.80257 0.0
Co591 Co 0.02814 0.20187 0.76492 0.0
O592 O 0.05804 0.29131 0.76954 0.0
C593 C 0.99202 0.38186 0.78236 0.0
O594 O 0.94317 0.3259 0.77991 0.0
C595 C 0.08431 0.26308 0.71763 0.0
O596 O 0.11061 0.32057 0.72586 0.0
O597 O 0.1018 0.21276 0.78464 0.0
O598 O 0.09154 0.26492 0.81627 0.0
H599 H 0.97133 0.98896 0.79677 0.0
H600 H 0.13433 0.41074 0.7615 0.0
O601 O 0.04381 0.38849 0.78995 0.0
H602 H 0.29679 0.44135 0.82115 0.0
H603 H 0.12648 0.49588 0.86513 0.0
H604 H 0.02489 0.26874 0.85164 0.0
H605 H 0.18595 0.36725 0.82971 0.0
H606 H 0.11998 0.45371 0.82358 0.0
O607 O 0.07442 0.21914 0.73256 0.0
H608 H 1.00908 0.10132 0.79974 0.0
H609 H 0.9906 0.1112 0.72284 0.0
H610 H 0.03055 0.30883 0.89349 0.0
H611 H 0.2446 0.48598 0.75227 0.0
H612 H 0.0818 0.42323 0.90045 0.0
H613 H 0.32674 0.50158 0.78221 0.0
O614 O 0.97693 0.26471 0.80868 0.0
H615 H 0.90393 0.27649 0.71586 0.0
H616 H 0.89569 0.09531 0.75658 0.0
H617 H 0.80354 0.08296 0.73553 0.0
H618 H 0.80673 0.1736 0.71463 0.0
H619 H 0.99553 0.28752 0.7369 0.0
H620 H 0.95858 1.00013 0.71869 0.0
H621 H 0.94703 0.93759 0.756 0.0
O622 O 0.97882 0.18088 0.79553 0.0
C623 C 0.11191 0.23069 0.80716 0.0
C624 C 0.97659 0.01574 0.78034 0.0
C625 C 0.96959 0.02205 0.73656 0.0
N626 N 1.00224 0.11354 0.76139 0.0
C627 C 0.99747 0.07953 0.7819 0.0
C628 C 0.98922 0.08549 0.7389 0.0
C629 C 0.96289 0.98694 0.75748 0.0
C630 C 0.16981 0.4174 0.77462 0.0
N631 N 0.15371 0.38452 0.79608 0.0
C632 C 0.23217 0.46001 0.76929 0.0
C633 C 0.27823 0.46871 0.7861 0.0
C634 C 0.26146 0.4349 0.80794 0.0
C635 C 0.19862 0.39274 0.81264 0.0
C636 C 0.10428 0.44597 0.86235 0.0
C637 C 0.04754 0.31858 0.85455 0.0
C638 C 0.10043 0.42183 0.83887 0.0
N639 N 0.07283 0.35886 0.83526 0.0
C640 C 0.05047 0.341 0.87828 0.0
C641 C 0.07918 0.40517 0.88216 0.0
C642 C 0.9503 0.20615 0.80517 0.0
C643 C 0.90223 0.23625 0.72448 0.0
C644 C 0.89936 0.13529 0.74729 0.0
C645 C 0.84604 0.12785 0.73547 0.0
C646 C 0.84772 0.17865 0.72383 0.0
N647 N 0.95399 0.19148 0.74721 0.0
C648 C 0.95466 0.24193 0.73647 0.0
Co649 Co 0.76798 0.07029 0.13652 0.0
Co650 Co 0.85696 0.04634 0.09511 0.0
O651 O 0.79283 0.06857 0.10273 0.0
C652 C 0.63509 0.99061 0.11873 0.0
O653 O 0.64412 0.94331 0.11504 0.0
C654 C 0.84257 0.10519 0.05003 0.0
O655 O 0.80707 0.12493 0.05979 0.0
O656 O 0.9178 0.11911 0.11611 0.0
O657 O 0.85537 0.09986 0.14867 0.0
H658 H 0.04225 0.02351 0.11654 0.0
H659 H 0.74156 0.13803 0.09809 0.0
O660 O 0.68015 0.0432 0.12565 0.0
H661 H 0.86625 0.29745 0.15989 0.0
H662 H 0.65345 0.10922 0.20441 0.0
H663 H 0.79166 0.02593 0.18346 0.0
H664 H 0.83831 0.1878 0.16585 0.0
H665 H 0.68728 0.11154 0.16169 0.0
O666 O 0.88037 0.09829 0.06391 0.0
H667 H 0.95256 0.03789 0.12524 0.0
H668 H 0.90647 0.01766 0.04967 0.0
H669 H 0.75935 0.02306 0.2264 0.0
H670 H 0.76774 0.2471 0.09142 0.0
H671 H 0.6898 0.06504 0.23713 0.0
H672 H 0.83067 0.32776 0.12244 0.0
O673 O 0.74702 0.98201 0.14014 0.0
H674 H 0.65503 0.9154 0.04864 0.0
H675 H 0.84058 0.91952 0.08279 0.0
H676 H 0.76295 0.82652 0.06141 0.0
H677 H 0.66917 0.82361 0.04379 0.0
H678 H 0.73373 0.00803 0.06981 0.0
H679 H 0.99608 1.00396 0.04019 0.0
H680 H 0.06465 1.00642 0.07393 0.0
O681 O 0.83423 0.99102 0.1244 0.0
C682 C 0.90985 0.12497 0.13912 0.0
C683 C 0.01255 0.0221 0.1018 0.0
C684 C 0.98698 0.01156 0.05891 0.0
N685 N 0.9241 0.02902 0.08793 0.0
C686 C 0.96161 0.03023 0.10656 0.0
C687 C 0.93666 0.02019 0.06432 0.0
C688 C 0.02527 0.01273 0.07782 0.0
C689 C 0.76903 0.17287 0.11165 0.0
N690 N 0.78896 0.1566 0.13225 0.0
C691 C 0.78368 0.23455 0.10778 0.0
C692 C 0.819 0.27978 0.12519 0.0
C693 C 0.83904 0.26283 0.14618 0.0
C694 C 0.82349 0.20068 0.14941 0.0
C695 C 0.68394 0.091 0.19998 0.0
C696 C 0.76161 0.04453 0.18799 0.0
C697 C 0.70319 0.09213 0.17582 0.0
N698 N 0.74205 0.06961 0.17014 0.0
C699 C 0.74336 0.04266 0.21234 0.0
C700 C 0.70433 0.06619 0.21833 0.0
C701 C 0.78213 0.95939 0.13532 0.0
C702 C 0.69647 0.91661 0.05568 0.0
C703 C 0.8015 0.92062 0.07481 0.0
C704 C 0.75691 0.86681 0.06283 0.0
C705 C 0.70426 0.86507 0.05304 0.0
N706 N 0.79542 0.97262 0.07654 0.0
C707 C 0.7422 0.96972 0.0677 0.0
C708 C 0.02591 0.17542 0.14835 0.0
C709 C 0.96491 0.15609 0.15643 0.0
C710 C 0.0767 0.19975 0.16481 0.0
C711 C 0.06924 0.20359 0.19027 0.0
H712 H 0.03455 0.17132 0.12918 0.0
H713 H 0.12273 0.21545 0.15763 0.0
S714 S 0.92337 0.17685 0.22012 0.0
N715 N 0.90301 0.15492 0.19147 0.0
N716 N 0.99799 0.19818 0.22191 0.0
C717 C 0.00957 0.18869 0.19842 0.0
C718 C 0.9578 0.16535 0.18167 0.0
C719 C 0.87928 0.0762 0.49595 0.0
C720 C 0.87976 0.06946 0.52174 0.0
C721 C 0.84822 0.02436 0.48013 0.0
C722 C 0.81617 0.96284 0.48909 0.0
H723 H 0.9034 0.12219 0.48771 0.0
H724 H 0.84848 0.03255 0.46064 0.0
S725 S 0.79792 0.91844 0.55504 0.0
N726 N 0.84088 0.99533 0.55541 0.0
N727 N 0.78447 0.89864 0.52586 0.0
C728 C 0.81482 0.95537 0.51484 0.0
C729 C 0.84624 0.00821 0.53103 0.0
C730 C 0.80624 0.87355 0.83092 0.0
C731 C 0.80891 0.87144 0.85683 0.0
C732 C 0.83425 0.8482 0.81553 0.0
C733 C 0.86475 0.81777 0.82529 0.0
H734 H 0.78268 0.8956 0.82239 0.0
H735 H 0.83064 0.85116 0.79585 0.0
S736 S 0.88673 0.80098 0.89178 0.0
N737 N 0.84677 0.83803 0.89128 0.0
N738 N 0.89758 0.7896 0.86281 0.0
C739 C 0.86815 0.81601 0.85115 0.0
C740 C 0.84089 0.84296 0.86675 0.0
C741 C 0.9959 0.78766 0.18519 0.0
C742 C 0.96541 0.82058 0.19204 0.0
C743 C 0.04743 0.81338 0.16902 0.0
C744 C 0.07032 0.87275 0.15803 0.0
H745 H 0.98004 0.74144 0.19253 0.0
H746 H 0.06955 0.78609 0.16515 0.0
S747 S 1.00508 0.97726 0.16861 0.0
N748 N 0.96148 0.91558 0.18579 0.0
N749 N 0.05614 0.96276 0.15508 0.0
C750 C 0.03928 0.90554 0.16429 0.0
C751 C 0.98774 0.87992 0.1813 0.0
C752 C 0.17244 0.01888 0.48463 0.0
C753 C 0.21125 0.07982 0.49354 0.0
C754 C 0.14445 0.96668 0.50049 0.0
C755 C 0.15296 0.97255 0.52622 0.0
H756 H 0.16433 0.01118 0.46513 0.0
H757 H 0.11532 0.92113 0.49241 0.0
S758 S 0.24943 0.12163 0.55928 0.0
N759 N 0.25575 0.14246 0.5302 0.0
N760 N 0.20378 0.04503 0.55968 0.0
C761 C 0.19128 0.03317 0.53541 0.0
C762 C 0.22023 0.08634 0.51923 0.0
C763 C 0.18549 0.13657 0.83178 0.0
C764 C 0.19335 0.15021 0.85709 0.0
C765 C 0.1604 0.16343 0.81587 0.0
C766 C 0.14284 0.2062 0.82428 0.0
H767 H 0.19782 0.10377 0.82417 0.0
H768 H 0.15416 0.15017 0.79679 0.0
S769 S 0.16632 0.26804 0.88805 0.0
N770 N 0.18986 0.21629 0.88911 0.0
N771 N 0.14288 0.26661 0.85962 0.0
C772 C 0.15392 0.22302 0.84939 0.0
C773 C 0.17911 0.19524 0.86562 0.0
C774 C 0.57622 0.48449 0.22642 0.0
C775 C 0.58282 0.5445 0.22677 0.0
C776 C 0.51722 0.43014 0.2276 0.0
C777 C 0.46191 0.43311 0.22906 0.0
H778 H 0.61691 0.47919 0.22469 0.0
H779 H 0.51505 0.38537 0.22658 0.0
S780 S 0.45304 0.57845 0.23282 0.0
N781 N 0.52833 0.60324 0.23044 0.0
N782 N 0.41807 0.50154 0.23244 0.0
C783 C 0.46786 0.49278 0.23031 0.0
C784 C 0.52799 0.54819 0.22924 0.0
C785 C 0.9684 0.52225 0.54544 0.0
C786 C 0.02205 0.5777 0.55275 0.0
C787 C 0.96304 0.46361 0.54892 0.0
C788 C 0.01138 0.4574 0.55966 0.0
H789 H 0.93049 0.52408 0.53631 0.0
H790 H 0.9213 0.42301 0.54224 0.0
S791 S 0.15954 0.58767 0.58427 0.0
N792 N 0.12273 0.62238 0.57301 0.0
N793 N 0.11309 0.51224 0.57947 0.0
C794 C 0.06413 0.51228 0.56824 0.0
C795 C 0.06934 0.57228 0.56483 0.0
C796 C 0.42726 0.93938 0.89811 0.0
C797 C 0.43163 0.99839 0.89912 0.0
C798 C 0.4808 0.93325 0.89789 0.0
C799 C 0.54123 0.98583 0.89893 0.0
H800 H 0.38211 0.89743 0.89659 0.0
H801 H 0.47463 0.88685 0.89632 0.0
S802 S 0.57829 0.15085 0.90423 0.0
N803 N 0.50145 0.11029 0.90283 0.0
N804 N 0.60168 0.09907 0.90275 0.0
C805 C 0.54614 0.04502 0.90108 0.0
C806 C 0.49159 0.05122 0.90106 0.0
C807 C 0.5108 0.56851 0.44114 0.0
C808 C 0.57275 0.58064 0.44042 0.0
C809 C 0.46004 0.50723 0.44132 0.0
C810 C 0.46884 0.45517 0.44105 0.0
H811 H 0.50125 0.60666 0.44226 0.0
H812 H 0.41356 0.50086 0.44267 0.0
S813 S 0.6212 0.46074 0.43672 0.0
N814 N 0.63964 0.53473 0.43747 0.0
N815 N 0.54434 0.41994 0.43809 0.0
C816 C 0.53035 0.46647 0.4392 0.0
C817 C 0.58216 0.52898 0.43879 0.0
C818 C 0.91974 0.48643 0.78248 0.0
C819 C 0.97173 0.54693 0.78008 0.0
C820 C 0.92631 0.43316 0.78202 0.0
C821 C 0.98523 0.43807 0.77941 0.0
H822 H 0.87364 0.48006 0.78543 0.0
H823 H 0.88507 0.38795 0.78477 0.0
S824 S 0.13555 0.58472 0.76975 0.0
N825 N 0.08381 0.60776 0.77281 0.0
N826 N 0.0959 0.508 0.77236 0.0
C827 C 0.03721 0.49795 0.7759 0.0
C828 C 0.03053 0.55218 0.77611 0.0
C829 C 0.50397 0.02845 0.12247 0.0
C830 C 0.44931 0.96952 0.12189 0.0
C831 C 0.5633 0.03467 0.12048 0.0
C832 C 0.57104 0.98231 0.11769 0.0
H833 H 0.50129 0.07044 0.12513 0.0
H834 H 0.60355 0.08115 0.12173 0.0
S835 S 0.4429 0.81762 0.11274 0.0
N836 N 0.40674 0.85782 0.11657 0.0
N837 N 0.51816 0.86945 0.11281 0.0
C838 C 0.51673 0.92321 0.11595 0.0
C839 C 0.45604 0.91684 0.11807 0.0
C840 C 0.25086 0.03684 0.2011 0.0
C841 C 0.30172 0.05359 0.18549 0.0
C842 C 0.23799 0.08208 0.20998 0.0
C843 C 0.27781 0.14608 0.20495 0.0
H844 H 0.21509 0.98819 0.20297 0.0
H845 H 0.19389 0.06583 0.21924 0.0
S846 S 0.42841 0.21392 0.17163 0.0
N847 N 0.39915 0.13766 0.16964 0.0
N848 N 0.3779 0.22397 0.18794 0.0
C849 C 0.33433 0.16373 0.19277 0.0
C850 C 0.34628 0.11713 0.18312 0.0
C851 C 0.16705 0.27266 0.536 0.0
C852 C 0.13155 0.29957 0.52805 0.0
C853 C 0.21967 0.28209 0.52339 0.0
C854 C 0.23725 0.31669 0.50176 0.0
H855 H 0.15112 0.23883 0.55059 0.0
H856 H 0.24052 0.25431 0.52857 0.0
S857 S 0.17127 0.41002 0.47628 0.0
N858 N 0.12634 0.37352 0.50007 0.0
N859 N 0.22462 0.3885 0.4753 0.0
C860 C 0.20778 0.35052 0.49522 0.0
C861 C 0.15463 0.34225 0.50854 0.0
C862 C 0.8586 0.09998 0.80876 0.0
C863 C 0.88733 0.16383 0.81485 0.0
C864 C 0.80418 0.05593 0.82021 0.0
C865 C 0.77834 0.07371 0.83909 0.0
H866 H 0.88074 0.08249 0.79662 0.0
H867 H 0.78803 0.00698 0.81687 0.0
S868 S 0.82598 0.23469 0.85855 0.0
N869 N 0.87807 0.24347 0.83764 0.0
N870 N 0.77712 0.15876 0.86068 0.0
C871 C 0.80165 0.13741 0.84353 0.0
C872 C 0.85638 0.18303 0.83122 0.0
C873 C 0.7109 0.8625 0.1589 0.0
C874 C 0.7649 0.89642 0.14451 0.0
C875 C 0.69871 0.80711 0.17059 0.0
C876 C 0.73945 0.78343 0.16789 0.0
H877 H 0.68021 0.88093 0.16263 0.0
H878 H 0.66139 0.78672 0.18398 0.0
S879 S 0.88096 0.84769 0.12925 0.0
N880 N 0.85564 0.89759 0.12634 0.0
N881 N 0.82997 0.79209 0.1473 0.0
C882 C 0.78869 0.81225 0.1512 0.0
C883 C 0.80261 0.8696 0.13996 0.0
C884 C 0.823 0.76986 0.52038 0.0
C885 C 0.80951 0.7384 0.49806 0.0
C886 C 0.8718 0.7756 0.53471 0.0
C887 C 0.90856 0.74969 0.52729 0.0
H888 H 0.80066 0.7962 0.5255 0.0
H889 H 0.88376 0.80532 0.5506 0.0
S890 S 0.88066 0.64971 0.4728 0.0
N891 N 0.8277 0.67156 0.47087 0.0
N892 N 0.92023 0.6816 0.49818 0.0
C893 C 0.89027 0.71141 0.50641 0.0
C894 C 0.84039 0.70599 0.49166 0.0
C895 C 0.09432 0.86105 0.87062 0.0
C896 C 0.15733 0.89411 0.86329 0.0
C897 C 0.05143 0.80626 0.85905 0.0
C898 C 0.06901 0.78471 0.83867 0.0
H899 H 0.0762 0.87992 0.88397 0.0
H900 H 1.00275 0.7863 0.8638 0.0
S901 S 0.22947 0.84447 0.81539 0.0
N902 N 0.23734 0.89332 0.83757 0.0
N903 N 0.15436 0.79198 0.81428 0.0
C904 C 0.1326 0.81245 0.83283 0.0
C905 C 0.17731 0.86733 0.84533 0.0
C906 C 0.27317 0.25136 0.35138 0.0
C907 C 0.22795 0.19856 0.36421 0.0
C908 C 0.25758 0.27444 0.33071 0.0
C909 C 0.1965 0.2445 0.32124 0.0
H910 H 0.32096 0.27657 0.35777 0.0
H911 H 0.29452 0.31509 0.32162 0.0
S912 S 0.06 0.10547 0.3482 0.0
N913 N 0.11898 0.11709 0.3659 0.0
N914 N 0.08951 0.16131 0.3273 0.0
C915 C 0.15049 0.19224 0.33406 0.0
C916 C 0.16633 0.16877 0.35527 0.0
C917 C 0.98874 0.16893 0.66235 0.0
C918 C 0.96869 0.2075 0.65147 0.0
C919 C 0.02912 0.18879 0.68266 0.0
C920 C 0.04896 0.24694 0.69391 0.0
H921 H 0.97382 0.12306 0.65486 0.0
H922 H 0.04529 0.1583 0.68948 0.0
S923 S 1.00648 0.36457 0.67376 0.0
N924 N 0.9699 0.30628 0.65433 0.0
N925 N 0.04452 0.34304 0.69253 0.0
C926 C 0.02845 0.28578 0.68345 0.0
C927 C 0.98767 0.2657 0.66263 0.0
C928 C 0.86789 0.06261 0.01218 0.0
C929 C 0.82511 0.07279 0.02562 0.0
C930 C 0.84975 0.025 0.99097 0.0
C931 C 0.7878 0.99533 0.98234 0.0
H932 H 0.91599 0.08403 0.01808 0.0
H933 H 0.88459 0.01898 0.98128 0.0
S934 S 0.65896 0.01259 0.00897 0.0
N935 N 0.71911 0.055 0.02694 0.0
N936 N 0.68458 0.9825 0.98815 0.0
C937 C 0.74497 0.00657 0.9952 0.0
C938 C 0.76385 0.04619 0.01635 0.0
C939 C 0.86139 0.85286 0.32565 0.0
C940 C 0.82063 0.7936 0.31563 0.0
C941 C 0.8469 0.87286 0.34768 0.0
C942 C 0.78937 0.83605 0.35971 0.0
H943 H 0.90509 0.88371 0.31652 0.0
H944 H 0.8807 0.91772 0.35523 0.0
S945 S 0.66511 0.67807 0.34044 0.0
N946 N 0.72126 0.69754 0.32014 0.0
N947 N 0.69034 0.73835 0.35907 0.0
C948 C 0.74731 0.77776 0.34925 0.0
C949 C 0.76392 0.75569 0.32794 0.0
C950 C 0.04263 0.86814 0.66767 0.0
C951 C 0.0547 0.82533 0.65524 0.0
C952 C 1.00427 0.85064 0.68868 0.0
C953 C 0.975 0.7891 0.69784 0.0
H954 H 0.06313 0.91573 0.66112 0.0
H955 H 0.99739 0.88562 0.6978 0.0
S956 S 0.99401 0.65965 0.67302 0.0
N957 N 0.03797 0.71964 0.65514 0.0
N958 N 0.96184 0.68544 0.69283 0.0
C959 C 0.98658 0.74581 0.68552 0.0
C960 C 0.02781 0.76436 0.66488 0.0
C961 C 0.17802 0.97299 0.0159 0.0
C962 C 0.21539 0.00748 0.03572 0.0
C963 C 0.18557 1.00048 0.99262 0.0
C964 C 0.23222 0.06292 0.98801 0.0
H965 H 0.14324 0.92426 0.01831 0.0
H966 H 0.15651 0.97124 0.97798 0.0
S967 S 0.34128 0.17395 0.0338 0.0
N968 N 0.29903 0.10867 0.04927 0.0
N969 N 0.31483 0.15861 1.00543 0.0
C970 C 0.26913 0.09799 0.00774 0.0
C971 C 0.26034 0.07071 0.03157 0.0
loop_
_geom_bond_atom_site_label_1
_geom_bond_atom_site_label_2
_geom_bond_distance
_geom_bond_site_symmetry_2
_ccdc_geom_bond_type
Co0 O2 2.143 . S
Co0 O8 2.074 . S
Co0 O11 2.093 . S
Co0 O24 2.097 . S
Co0 N41 2.151 . S
Co0 N49 2.214 . S
Co1 O2 2.160 . S
Co1 O7 2.058 . S
Co1 O17 2.057 . S
Co1 O32 2.037 . S
Co1 N36 2.145 . S
Co1 N57 2.257 . S
O2 Co0 2.143 . S
O2 Co1 2.160 . S
C3 O4 1.278 . S
C3 O11 1.224 . S
O4 C3 1.278 . S
C5 O6 1.245 . S
C5 O17 1.232 . S
O6 C5 1.245 . S
O7 Co1 2.058 . S
O7 C33 1.269 . S
O8 Co0 2.074 . S
O8 C33 1.257 . S
H9 C34 0.930 . S
H10 C40 0.930 . S
O11 Co0 2.093 . S
O11 C3 1.224 . S
H12 C44 0.929 . S
H13 C46 0.930 . S
H14 C47 0.930 . S
H15 C45 0.929 . S
H16 C48 0.928 . S
O17 Co1 2.057 . S
O17 C5 1.232 . S
H18 C37 0.929 . S
H19 C38 0.929 . S
H20 C50 0.931 . S
H21 C42 0.929 . S
H22 C51 0.930 . S
H23 C43 0.931 . S
O24 Co0 2.097 . S
O24 C52 1.214 . S
H25 C53 0.929 . S
H26 C54 0.929 . S
H27 C55 0.930 . S
H28 C56 0.929 . S
H29 C58 0.930 . S
H30 C35 0.928 1_565 S
H31 C39 0.930 . S
O32 Co1 2.037 . S
O32 C52 1.234 . S
C33 O7 1.269 . S
C33 O8 1.257 . S
C34 H9 0.930 . S
C34 C37 1.388 1_565 S
C34 C39 1.418 . S
C35 H30 0.928 1_545 S
C35 C38 1.404 . S
C35 C39 1.353 1_545 S
N36 Co1 2.145 . S
N36 C37 1.397 . S
N36 C38 1.334 . S
C37 H18 0.929 . S
C37 C34 1.388 1_545 S
C37 N36 1.397 . S
C38 H19 0.929 . S
C38 C35 1.404 . S
C38 N36 1.334 . S
C39 H31 0.930 . S
C39 C34 1.418 . S
C39 C35 1.353 1_565 S
C40 H10 0.930 . S
C40 N41 1.330 . S
C40 C42 1.446 . S
N41 Co0 2.151 . S
N41 C40 1.330 . S
N41 C45 1.418 . S
C42 H21 0.929 . S
C42 C40 1.446 . S
C42 C43 1.332 . S
C43 H23 0.931 . S
C43 C42 1.332 . S
C43 C44 1.267 . S
C44 H12 0.929 . S
C44 C43 1.267 . S
C44 C45 1.251 . S
C45 H15 0.929 . S
C45 N41 1.418 . S
C45 C44 1.251 . S
C46 H13 0.930 . S
C46 C48 1.406 . S
C46 C51 1.261 . S
C47 H14 0.930 . S
C47 N49 1.325 . S
C47 C50 1.357 . S
C48 H16 0.928 . S
C48 C46 1.406 . S
C48 N49 1.261 . S
N49 Co0 2.214 . S
N49 C47 1.325 . S
N49 C48 1.261 . S
C50 H20 0.931 . S
C50 C47 1.357 . S
C50 C51 1.312 . S
C51 H22 0.930 . S
C51 C46 1.261 . S
C51 C50 1.312 . S
C52 O24 1.214 . S
C52 O32 1.234 . S
C53 H25 0.929 . S
C53 C56 1.391 . S
C53 C58 1.391 . S
C54 H26 0.929 . S
C54 C55 1.390 . S
C54 N57 1.391 . S
C55 H27 0.930 . S
C55 C54 1.390 . S
C55 C56 1.392 . S
C56 H28 0.929 . S
C56 C53 1.391 . S
C56 C55 1.392 . S
N57 Co1 2.257 . S
N57 C54 1.391 . S
N57 C58 1.388 . S
C58 H29 0.930 . S
C58 C53 1.391 . S
C58 N57 1.388 . S
Co59 O61 2.143 . S
Co59 O67 2.074 . S
Co59 O70 2.093 . S
Co59 O83 2.097 1_655 S
Co59 N100 2.151 . S
Co59 N108 2.214 . S
Co60 O61 2.160 1_455 S
Co60 O66 2.058 1_455 S
Co60 O76 2.057 1_455 S
Co60 O91 2.037 . S
Co60 N95 2.145 . S
Co60 N116 2.257 . S
O61 Co59 2.143 . S
O61 Co60 2.160 1_655 S
C62 O63 1.278 1_655 S
C62 O70 1.224 . S
O63 C62 1.278 1_455 S
C64 O65 1.245 . S
C64 O76 1.232 . S
O65 C64 1.245 . S
O66 Co60 2.058 1_655 S
O66 C92 1.269 . S
O67 Co59 2.074 . S
O67 C92 1.257 . S
H68 C93 0.930 . S
H69 C99 0.930 . S
O70 Co59 2.093 . S
O70 C62 1.224 . S
H71 C103 0.929 . S
H72 C105 0.930 . S
H73 C106 0.930 . S
H74 C104 0.929 . S
H75 C107 0.928 . S
O76 Co60 2.057 1_655 S
O76 C64 1.232 . S
H77 C96 0.929 . S
H78 C97 0.929 . S
H79 C109 0.931 . S
H80 C101 0.929 . S
H81 C110 0.930 . S
H82 C102 0.931 . S
O83 Co59 2.097 1_455 S
O83 C111 1.214 . S
H84 C112 0.929 . S
H85 C113 0.929 . S
H86 C114 0.930 . S
H87 C115 0.929 . S
H88 C117 0.930 . S
H89 C94 0.930 . S
H90 C98 0.930 . S
O91 Co60 2.037 . S
O91 C111 1.234 . S
C92 O66 1.269 . S
C92 O67 1.257 . S
C93 H68 0.930 . S
C93 C96 1.388 . S
C93 C98 1.418 . S
C94 H89 0.930 . S
C94 C97 1.404 . S
C94 C98 1.353 . S
N95 Co60 2.145 . S
N95 C96 1.397 . S
N95 C97 1.334 . S
C96 H77 0.929 . S
C96 C93 1.388 . S
C96 N95 1.397 . S
C97 H78 0.929 . S
C97 C94 1.404 . S
C97 N95 1.334 . S
C98 H90 0.930 . S
C98 C93 1.418 . S
C98 C94 1.353 . S
C99 H69 0.930 . S
C99 N100 1.330 . S
C99 C101 1.446 . S
N100 Co59 2.151 . S
N100 C99 1.330 . S
N100 C104 1.418 . S
C101 H80 0.929 . S
C101 C99 1.446 . S
C101 C102 1.332 . S
C102 H82 0.931 . S
C102 C101 1.332 . S
C102 C103 1.267 . S
C103 H71 0.929 . S
C103 C102 1.267 . S
C103 C104 1.251 . S
C104 H74 0.929 . S
C104 N100 1.418 . S
C104 C103 1.251 . S
C105 H72 0.930 . S
C105 C107 1.406 . S
C105 C110 1.261 . S
C106 H73 0.930 . S
C106 N108 1.325 . S
C106 C109 1.357 . S
C107 H75 0.928 . S
C107 C105 1.406 . S
C107 N108 1.261 . S
N108 Co59 2.214 . S
N108 C106 1.325 . S
N108 C107 1.261 . S
C109 H79 0.931 . S
C109 C106 1.357 . S
C109 C110 1.312 . S
C110 H81 0.930 . S
C110 C105 1.261 . S
C110 C109 1.312 . S
C111 O83 1.214 . S
C111 O91 1.234 . S
C112 H84 0.929 . S
C112 C115 1.391 . S
C112 C117 1.391 . S
C113 H85 0.929 . S
C113 C114 1.390 . S
C113 N116 1.391 . S
C114 H86 0.930 . S
C114 C113 1.390 . S
C114 C115 1.392 . S
C115 H87 0.929 . S
C115 C112 1.391 . S
C115 C114 1.392 . S
N116 Co60 2.257 . S
N116 C113 1.391 . S
N116 C117 1.388 . S
C117 H88 0.930 . S
C117 C112 1.391 . S
C117 N116 1.388 . S
Co118 O120 2.143 . S
Co118 O126 2.074 . S
Co118 O129 2.093 . S
Co118 O142 2.097 1_565 S
Co118 N159 2.151 . S
Co118 N167 2.214 . S
Co119 O120 2.160 1_545 S
Co119 O125 2.058 1_545 S
Co119 O135 2.057 1_545 S
Co119 O150 2.037 . S
Co119 N154 2.145 . S
Co119 N175 2.257 . S
O120 Co118 2.143 . S
O120 Co119 2.160 1_565 S
C121 O122 1.278 1_565 S
C121 O129 1.224 . S
O122 C121 1.278 1_545 S
C123 O124 1.245 . S
C123 O135 1.232 . S
O124 C123 1.245 . S
O125 Co119 2.058 1_565 S
O125 C151 1.269 . S
O126 Co118 2.074 . S
O126 C151 1.257 . S
H127 C152 0.930 . S
H128 C158 0.930 . S
O129 Co118 2.093 . S
O129 C121 1.224 . S
H130 C162 0.929 . S
H131 C164 0.930 . S
H132 C165 0.930 . S
H133 C163 0.929 . S
H134 C166 0.928 . S
O135 Co119 2.057 1_565 S
O135 C123 1.232 . S
H136 C155 0.929 . S
H137 C156 0.929 . S
H138 C168 0.931 . S
H139 C160 0.929 . S
H140 C169 0.930 . S
H141 C161 0.931 . S
O142 Co118 2.097 1_545 S
O142 C170 1.214 . S
H143 C171 0.929 . S
H144 C172 0.929 . S
H145 C173 0.930 . S
H146 C174 0.929 . S
H147 C176 0.930 . S
H148 C153 0.927 1_455 S
H149 C157 0.930 . S
O150 Co119 2.037 . S
O150 C170 1.234 . S
C151 O125 1.269 . S
C151 O126 1.257 . S
C152 H127 0.930 . S
C152 C155 1.388 1_455 S
C152 C157 1.418 . S
C153 H148 0.927 1_655 S
C153 C156 1.404 . S
C153 C157 1.353 1_655 S
N154 Co119 2.145 . S
N154 C155 1.397 . S
N154 C156 1.334 . S
C155 H136 0.929 . S
C155 C152 1.388 1_655 S
C155 N154 1.397 . S
C156 H137 0.929 . S
C156 C153 1.404 . S
C156 N154 1.334 . S
C157 H149 0.930 . S
C157 C152 1.418 . S
C157 C153 1.353 1_455 S
C158 H128 0.930 . S
C158 N159 1.330 . S
C158 C160 1.446 . S
N159 Co118 2.151 . S
N159 C158 1.330 . S
N159 C163 1.418 . S
C160 H139 0.929 . S
C160 C158 1.446 . S
C160 C161 1.332 . S
C161 H141 0.931 . S
C161 C160 1.332 . S
C161 C162 1.267 . S
C162 H130 0.929 . S
C162 C161 1.267 . S
C162 C163 1.251 . S
C163 H133 0.929 . S
C163 N159 1.418 . S
C163 C162 1.251 . S
C164 H131 0.930 . S
C164 C166 1.406 . S
C164 C169 1.261 . S
C165 H132 0.930 . S
C165 N167 1.325 . S
C165 C168 1.357 . S
C166 H134 0.928 . S
C166 C164 1.406 . S
C166 N167 1.261 . S
N167 Co118 2.214 . S
N167 C165 1.325 . S
N167 C166 1.261 . S
C168 H138 0.931 . S
C168 C165 1.357 . S
C168 C169 1.312 . S
C169 H140 0.930 . S
C169 C164 1.261 . S
C169 C168 1.312 . S
C170 O142 1.214 . S
C170 O150 1.234 . S
C171 H143 0.929 . S
C171 C174 1.391 . S
C171 C176 1.391 . S
C172 H144 0.929 . S
C172 C173 1.390 . S
C172 N175 1.391 . S
C173 H145 0.930 . S
C173 C172 1.390 . S
C173 C174 1.392 . S
C174 H146 0.929 . S
C174 C171 1.391 . S
C174 C173 1.392 . S
N175 Co119 2.257 . S
N175 C172 1.391 . S
N175 C176 1.388 . S
C176 H147 0.930 . S
C176 C171 1.391 . S
C176 N175 1.388 . S
Co177 O179 2.143 . S
Co177 O185 2.074 . S
Co177 O188 2.093 . S
Co177 O201 2.097 . S
Co177 N218 2.151 . S
Co177 N226 2.214 . S
Co178 O179 2.160 . S
Co178 O184 2.058 . S
Co178 O194 2.057 . S
Co178 O209 2.037 . S
Co178 N213 2.145 . S
Co178 N234 2.257 . S
O179 Co177 2.143 . S
O179 Co178 2.160 . S
C180 O181 1.278 . S
C180 O188 1.224 . S
O181 C180 1.278 . S
C182 O183 1.245 . S
C182 O194 1.232 . S
O183 C182 1.245 . S
O184 Co178 2.058 . S
O184 C210 1.269 . S
O185 Co177 2.074 . S
O185 C210 1.257 . S
H186 C211 0.930 . S
H187 C217 0.930 . S
O188 Co177 2.093 . S
O188 C180 1.224 . S
H189 C221 0.929 . S
H190 C223 0.930 . S
H191 C224 0.930 . S
H192 C222 0.929 . S
H193 C225 0.928 . S
O194 Co178 2.057 . S
O194 C182 1.232 . S
H195 C214 0.929 . S
H196 C215 0.929 . S
H197 C227 0.931 . S
H198 C219 0.929 . S
H199 C228 0.930 . S
H200 C220 0.931 . S
O201 Co177 2.097 . S
O201 C229 1.214 . S
H202 C230 0.929 . S
H203 C231 0.929 . S
H204 C232 0.930 . S
H205 C233 0.929 . S
H206 C235 0.930 . S
H207 C212 0.927 1_545 S
H208 C216 0.930 . S
O209 Co178 2.037 . S
O209 C229 1.234 . S
C210 O184 1.269 . S
C210 O185 1.257 . S
C211 H186 0.930 . S
C211 C214 1.388 1_545 S
C211 C216 1.418 . S
C212 H207 0.927 1_565 S
C212 C215 1.404 . S
C212 C216 1.353 1_565 S
N213 Co178 2.145 . S
N213 C214 1.397 . S
N213 C215 1.334 . S
C214 H195 0.929 . S
C214 C211 1.388 1_565 S
C214 N213 1.397 . S
C215 H196 0.929 . S
C215 C212 1.404 . S
C215 N213 1.334 . S
C216 H208 0.930 . S
C216 C211 1.418 . S
C216 C212 1.353 1_545 S
C217 H187 0.930 . S
C217 N218 1.330 . S
C217 C219 1.446 . S
N218 Co177 2.151 . S
N218 C217 1.330 . S
N218 C222 1.418 . S
C219 H198 0.929 . S
C219 C217 1.446 . S
C219 C220 1.332 . S
C220 H200 0.931 . S
C220 C219 1.332 . S
C220 C221 1.267 . S
C221 H189 0.929 . S
C221 C220 1.267 . S
C221 C222 1.251 . S
C222 H192 0.929 . S
C222 N218 1.418 . S
C222 C221 1.251 . S
C223 H190 0.930 . S
C223 C225 1.406 . S
C223 C228 1.261 . S
C224 H191 0.930 . S
C224 N226 1.325 . S
C224 C227 1.357 . S
C225 H193 0.928 . S
C225 C223 1.406 . S
C225 N226 1.261 . S
N226 Co177 2.214 . S
N226 C224 1.325 . S
N226 C225 1.261 . S
C227 H197 0.931 . S
C227 C224 1.357 . S
C227 C228 1.312 . S
C228 H199 0.930 . S
C228 C223 1.261 . S
C228 C227 1.312 . S
C229 O201 1.214 . S
C229 O209 1.234 . S
C230 H202 0.929 . S
C230 C233 1.391 . S
C230 C235 1.391 . S
C231 H203 0.929 . S
C231 C232 1.390 . S
C231 N234 1.391 . S
C232 H204 0.930 . S
C232 C231 1.390 . S
C232 C233 1.392 . S
C233 H205 0.929 . S
C233 C230 1.391 . S
C233 C232 1.392 . S
N234 Co178 2.257 . S
N234 C231 1.391 . S
N234 C235 1.388 . S
C235 H206 0.930 . S
C235 C230 1.391 . S
C235 N234 1.388 . S
Co236 O238 2.143 . S
Co236 O244 2.074 . S
Co236 O247 2.093 . S
Co236 O260 2.097 1_455 S
Co236 N277 2.151 . S
Co236 N285 2.214 . S
Co237 O238 2.160 1_655 S
Co237 O243 2.058 1_655 S
Co237 O253 2.057 1_655 S
Co237 O268 2.037 . S
Co237 N272 2.145 . S
Co237 N293 2.257 . S
O238 Co236 2.143 . S
O238 Co237 2.160 1_455 S
C239 O240 1.278 1_455 S
C239 O247 1.224 . S
O240 C239 1.278 1_655 S
C241 O242 1.245 . S
C241 O253 1.232 . S
O242 C241 1.245 . S
O243 Co237 2.058 1_455 S
O243 C269 1.269 . S
O244 Co236 2.074 . S
O244 C269 1.257 . S
H245 C270 0.930 . S
H246 C276 0.930 . S
O247 Co236 2.093 . S
O247 C239 1.224 . S
H248 C280 0.929 . S
H249 C282 0.930 . S
H250 C283 0.930 . S
H251 C281 0.929 . S
H252 C284 0.928 . S
O253 Co237 2.057 1_455 S
O253 C241 1.232 . S
H254 C273 0.929 . S
H255 C274 0.929 . S
H256 C286 0.931 . S
H257 C278 0.929 . S
H258 C287 0.930 . S
H259 C279 0.931 . S
O260 Co236 2.097 1_655 S
O260 C288 1.214 . S
H261 C289 0.929 . S
H262 C290 0.929 . S
H263 C291 0.930 . S
H264 C292 0.929 . S
H265 C294 0.930 . S
H266 C271 0.930 . S
H267 C275 0.930 . S
O268 Co237 2.037 . S
O268 C288 1.234 . S
C269 O243 1.269 . S
C269 O244 1.257 . S
C270 H245 0.930 . S
C270 C273 1.388 . S
C270 C275 1.418 . S
C271 H266 0.930 . S
C271 C274 1.404 . S
C271 C275 1.353 . S
N272 Co237 2.145 . S
N272 C273 1.397 . S
N272 C274 1.334 . S
C273 H254 0.929 . S
C273 C270 1.388 . S
C273 N272 1.397 . S
C274 H255 0.929 . S
C274 C271 1.404 . S
C274 N272 1.334 . S
C275 H267 0.930 . S
C275 C270 1.418 . S
C275 C271 1.353 . S
C276 H246 0.930 . S
C276 N277 1.330 . S
C276 C278 1.446 . S
N277 Co236 2.151 . S
N277 C276 1.330 . S
N277 C281 1.418 . S
C278 H257 0.929 . S
C278 C276 1.446 . S
C278 C279 1.332 . S
C279 H259 0.931 . S
C279 C278 1.332 . S
C279 C280 1.267 . S
C280 H248 0.929 . S
C280 C279 1.267 . S
C280 C281 1.251 . S
C281 H251 0.929 . S
C281 N277 1.418 . S
C281 C280 1.251 . S
C282 H249 0.930 . S
C282 C284 1.406 . S
C282 C287 1.261 . S
C283 H250 0.930 . S
C283 N285 1.325 . S
C283 C286 1.357 . S
C284 H252 0.928 . S
C284 C282 1.406 . S
C284 N285 1.261 . S
N285 Co236 2.214 . S
N285 C283 1.325 . S
N285 C284 1.261 . S
C286 H256 0.931 . S
C286 C283 1.357 . S
C286 C287 1.312 . S
C287 H258 0.930 . S
C287 C282 1.261 . S
C287 C286 1.312 . S
C288 O260 1.214 . S
C288 O268 1.234 . S
C289 H261 0.929 . S
C289 C292 1.391 . S
C289 C294 1.391 . S
C290 H262 0.929 . S
C290 C291 1.390 . S
C290 N293 1.391 . S
C291 H263 0.930 . S
C291 C290 1.390 . S
C291 C292 1.392 . S
C292 H264 0.929 . S
C292 C289 1.391 . S
C292 C291 1.392 . S
N293 Co237 2.257 . S
N293 C290 1.391 . S
N293 C294 1.388 . S
C294 H265 0.930 . S
C294 C289 1.391 . S
C294 N293 1.388 . S
Co295 O297 2.143 . S
Co295 O303 2.074 . S
Co295 O306 2.093 . S
Co295 O319 2.097 1_545 S
Co295 N336 2.151 . S
Co295 N344 2.214 . S
Co296 O297 2.160 1_565 S
Co296 O302 2.058 1_565 S
Co296 O312 2.057 1_565 S
Co296 O327 2.037 . S
Co296 N331 2.145 . S
Co296 N352 2.257 . S
O297 Co295 2.143 . S
O297 Co296 2.160 1_545 S
C298 O299 1.278 1_545 S
C298 O306 1.224 . S
O299 C298 1.278 1_565 S
C300 O301 1.245 . S
C300 O312 1.232 . S
O301 C300 1.245 . S
O302 Co296 2.058 1_545 S
O302 C328 1.269 . S
O303 Co295 2.074 . S
O303 C328 1.257 . S
H304 C329 0.930 . S
H305 C335 0.930 . S
O306 Co295 2.093 . S
O306 C298 1.224 . S
H307 C339 0.929 . S
H308 C341 0.930 . S
H309 C342 0.930 . S
H310 C340 0.929 . S
H311 C343 0.928 . S
O312 Co296 2.057 1_545 S
O312 C300 1.232 . S
H313 C332 0.929 . S
H314 C333 0.929 . S
H315 C345 0.931 . S
H316 C337 0.929 . S
H317 C346 0.930 . S
H318 C338 0.931 . S
O319 Co295 2.097 1_565 S
O319 C347 1.214 . S
H320 C348 0.929 . S
H321 C349 0.929 . S
H322 C350 0.930 . S
H323 C351 0.929 . S
H324 C353 0.930 . S
H325 C330 0.926 1_655 S
H326 C334 0.930 . S
O327 Co296 2.037 . S
O327 C347 1.234 . S
C328 O302 1.269 . S
C328 O303 1.257 . S
C329 H304 0.930 . S
C329 C332 1.388 1_655 S
C329 C334 1.418 . S
C330 H325 0.926 1_455 S
C330 C333 1.404 . S
C330 C334 1.353 1_455 S
N331 Co296 2.145 . S
N331 C332 1.397 . S
N331 C333 1.334 . S
C332 H313 0.929 . S
C332 C329 1.388 1_455 S
C332 N331 1.397 . S
C333 H314 0.929 . S
C333 C330 1.404 . S
C333 N331 1.334 . S
C334 H326 0.930 . S
C334 C329 1.418 . S
C334 C330 1.353 1_655 S
C335 H305 0.930 . S
C335 N336 1.330 . S
C335 C337 1.446 . S
N336 Co295 2.151 . S
N336 C335 1.330 . S
N336 C340 1.418 . S
C337 H316 0.929 . S
C337 C335 1.446 . S
C337 C338 1.332 . S
C338 H318 0.931 . S
C338 C337 1.332 . S
C338 C339 1.267 . S
C339 H307 0.929 . S
C339 C338 1.267 . S
C339 C340 1.251 . S
C340 H310 0.929 . S
C340 N336 1.418 . S
C340 C339 1.251 . S
C341 H308 0.930 . S
C341 C343 1.406 . S
C341 C346 1.261 . S
C342 H309 0.930 . S
C342 N344 1.325 . S
C342 C345 1.357 . S
C343 H311 0.928 . S
C343 C341 1.406 . S
C343 N344 1.261 . S
N344 Co295 2.214 . S
N344 C342 1.325 . S
N344 C343 1.261 . S
C345 H315 0.931 . S
C345 C342 1.357 . S
C345 C346 1.312 . S
C346 H317 0.930 . S
C346 C341 1.261 . S
C346 C345 1.312 . S
C347 O319 1.214 . S
C347 O327 1.234 . S
C348 H320 0.929 . S
C348 C351 1.391 . S
C348 C353 1.391 . S
C349 H321 0.929 . S
C349 C350 1.390 . S
C349 N352 1.391 . S
C350 H322 0.930 . S
C350 C349 1.390 . S
C350 C351 1.392 . S
C351 H323 0.929 . S
C351 C348 1.391 . S
C351 C350 1.392 . S
N352 Co296 2.257 . S
N352 C349 1.391 . S
N352 C353 1.388 . S
C353 H324 0.930 . S
C353 C348 1.391 . S
C353 N352 1.388 . S
Co354 O356 2.143 . S
Co354 O362 2.074 . S
Co354 O365 2.093 . S
Co354 O378 2.097 . S
Co354 N395 2.151 . S
Co354 N403 2.214 . S
Co355 O356 2.160 . S
Co355 O361 2.058 . S
Co355 O371 2.057 . S
Co355 O386 2.037 . S
Co355 N390 2.145 . S
Co355 N411 2.257 . S
O356 Co354 2.143 . S
O356 Co355 2.160 . S
C357 O358 1.278 . S
C357 O365 1.224 . S
O358 C357 1.278 . S
C359 O360 1.245 . S
C359 O371 1.232 . S
O360 C359 1.245 . S
O361 Co355 2.058 . S
O361 C387 1.269 . S
O362 Co354 2.074 . S
O362 C387 1.257 . S
H363 C388 0.930 . S
H364 C394 0.930 . S
O365 Co354 2.093 . S
O365 C357 1.224 . S
H366 C398 0.929 . S
H367 C400 0.930 . S
H368 C401 0.930 . S
H369 C399 0.929 . S
H370 C402 0.928 . S
O371 Co355 2.057 . S
O371 C359 1.232 . S
H372 C391 0.929 . S
H373 C392 0.929 . S
H374 C404 0.931 . S
H375 C396 0.929 . S
H376 C405 0.930 . S
H377 C397 0.931 . S
O378 Co354 2.097 . S
O378 C406 1.214 . S
H379 C407 0.929 . S
H380 C408 0.929 . S
H381 C409 0.930 . S
H382 C410 0.929 . S
H383 C412 0.930 . S
H384 C389 0.928 1_455 S
H385 C393 0.930 . S
O386 Co355 2.037 . S
O386 C406 1.234 . S
C387 O361 1.269 . S
C387 O362 1.257 . S
C388 H363 0.930 . S
C388 C391 1.388 1_455 S
C388 C393 1.418 . S
C389 H384 0.928 1_655 S
C389 C392 1.404 . S
C389 C393 1.353 1_655 S
N390 Co355 2.145 . S
N390 C391 1.397 . S
N390 C392 1.334 . S
C391 H372 0.929 . S
C391 C388 1.388 1_655 S
C391 N390 1.397 . S
C392 H373 0.929 . S
C392 C389 1.404 . S
C392 N390 1.334 . S
C393 H385 0.930 . S
C393 C388 1.418 . S
C393 C389 1.353 1_455 S
C394 H364 0.930 . S
C394 N395 1.330 . S
C394 C396 1.446 . S
N395 Co354 2.151 . S
N395 C394 1.330 . S
N395 C399 1.418 . S
C396 H375 0.929 . S
C396 C394 1.446 . S
C396 C397 1.332 . S
C397 H377 0.931 . S
C397 C396 1.332 . S
C397 C398 1.267 . S
C398 H366 0.929 . S
C398 C397 1.267 . S
C398 C399 1.251 . S
C399 H369 0.929 . S
C399 N395 1.418 . S
C399 C398 1.251 . S
C400 H367 0.930 . S
C400 C402 1.406 . S
C400 C405 1.261 . S
C401 H368 0.930 . S
C401 N403 1.325 . S
C401 C404 1.357 . S
C402 H370 0.928 . S
C402 C400 1.406 . S
C402 N403 1.261 . S
N403 Co354 2.214 . S
N403 C401 1.325 . S
N403 C402 1.261 . S
C404 H374 0.931 . S
C404 C401 1.357 . S
C404 C405 1.312 . S
C405 H376 0.930 . S
C405 C400 1.261 . S
C405 C404 1.312 . S
C406 O378 1.214 . S
C406 O386 1.234 . S
C407 H379 0.929 . S
C407 C410 1.391 . S
C407 C412 1.391 . S
C408 H380 0.929 . S
C408 C409 1.390 . S
C408 N411 1.391 . S
C409 H381 0.930 . S
C409 C408 1.390 . S
C409 C410 1.392 . S
C410 H382 0.929 . S
C410 C407 1.391 . S
C410 C409 1.392 . S
N411 Co355 2.257 . S
N411 C408 1.391 . S
N411 C412 1.388 . S
C412 H383 0.930 . S
C412 C407 1.391 . S
C412 N411 1.388 . S
Co413 O415 2.143 . S
Co413 O421 2.074 . S
Co413 O424 2.093 . S
Co413 O437 2.097 1_655 S
Co413 N454 2.151 . S
Co413 N462 2.214 . S
Co414 O415 2.160 1_455 S
Co414 O420 2.058 1_455 S
Co414 O430 2.057 1_455 S
Co414 O445 2.037 . S
Co414 N449 2.145 . S
Co414 N470 2.257 . S
O415 Co413 2.143 . S
O415 Co414 2.160 1_655 S
C416 O417 1.278 1_655 S
C416 O424 1.224 . S
O417 C416 1.278 1_455 S
C418 O419 1.245 . S
C418 O430 1.232 . S
O419 C418 1.245 . S
O420 Co414 2.058 1_655 S
O420 C446 1.269 . S
O421 Co413 2.074 . S
O421 C446 1.257 . S
H422 C447 0.930 . S
H423 C453 0.930 . S
O424 Co413 2.093 . S
O424 C416 1.224 . S
H425 C457 0.929 . S
H426 C459 0.930 . S
H427 C460 0.930 . S
H428 C458 0.929 . S
H429 C461 0.928 . S
O430 Co414 2.057 1_655 S
O430 C418 1.232 . S
H431 C450 0.929 . S
H432 C451 0.929 . S
H433 C463 0.931 . S
H434 C455 0.929 . S
H435 C464 0.930 . S
H436 C456 0.931 . S
O437 Co413 2.097 1_455 S
O437 C465 1.214 . S
H438 C466 0.929 . S
H439 C467 0.929 . S
H440 C468 0.930 . S
H441 C469 0.929 . S
H442 C471 0.930 . S
H443 C448 0.926 1_545 S
H444 C452 0.930 . S
O445 Co414 2.037 . S
O445 C465 1.234 . S
C446 O420 1.269 . S
C446 O421 1.257 . S
C447 H422 0.930 . S
C447 C450 1.388 1_545 S
C447 C452 1.418 . S
C448 H443 0.926 1_565 S
C448 C451 1.404 . S
C448 C452 1.353 1_565 S
N449 Co414 2.145 . S
N449 C450 1.397 . S
N449 C451 1.334 . S
C450 H431 0.929 . S
C450 C447 1.388 1_565 S
C450 N449 1.397 . S
C451 H432 0.929 . S
C451 C448 1.404 . S
C451 N449 1.334 . S
C452 H444 0.930 . S
C452 C447 1.418 . S
C452 C448 1.353 1_545 S
C453 H423 0.930 . S
C453 N454 1.330 . S
C453 C455 1.446 . S
N454 Co413 2.151 . S
N454 C453 1.330 . S
N454 C458 1.418 . S
C455 H434 0.929 . S
C455 C453 1.446 . S
C455 C456 1.332 . S
C456 H436 0.931 . S
C456 C455 1.332 . S
C456 C457 1.267 . S
C457 H425 0.929 . S
C457 C456 1.267 . S
C457 C458 1.251 . S
C458 H428 0.929 . S
C458 N454 1.418 . S
C458 C457 1.251 . S
C459 H426 0.930 . S
C459 C461 1.406 . S
C459 C464 1.261 . S
C460 H427 0.930 . S
C460 N462 1.325 . S
C460 C463 1.357 . S
C461 H429 0.928 . S
C461 C459 1.406 . S
C461 N462 1.261 . S
N462 Co413 2.214 . S
N462 C460 1.325 . S
N462 C461 1.261 . S
C463 H433 0.931 . S
C463 C460 1.357 . S
C463 C464 1.312 . S
C464 H435 0.930 . S
C464 C459 1.261 . S
C464 C463 1.312 . S
C465 O437 1.214 . S
C465 O445 1.234 . S
C466 H438 0.929 . S
C466 C469 1.391 . S
C466 C471 1.391 . S
C467 H439 0.929 . S
C467 C468 1.390 . S
C467 N470 1.391 . S
C468 H440 0.930 . S
C468 C467 1.390 . S
C468 C469 1.392 . S
C469 H441 0.929 . S
C469 C466 1.391 . S
C469 C468 1.392 . S
N470 Co414 2.257 . S
N470 C467 1.391 . S
N470 C471 1.388 . S
C471 H442 0.930 . S
C471 C466 1.391 . S
C471 N470 1.388 . S
Co472 O474 2.143 . S
Co472 O480 2.074 . S
Co472 O483 2.093 . S
Co472 O496 2.097 1_565 S
Co472 N513 2.151 . S
Co472 N521 2.214 . S
Co473 O474 2.160 1_545 S
Co473 O479 2.058 1_545 S
Co473 O489 2.057 1_545 S
Co473 O504 2.037 . S
Co473 N508 2.145 . S
Co473 N529 2.257 . S
O474 Co472 2.143 . S
O474 Co473 2.160 1_565 S
C475 O476 1.278 1_565 S
C475 O483 1.224 . S
O476 C475 1.278 1_545 S
C477 O478 1.245 . S
C477 O489 1.232 . S
O478 C477 1.245 . S
O479 Co473 2.058 1_565 S
O479 C505 1.269 . S
O480 Co472 2.074 . S
O480 C505 1.257 . S
H481 C506 0.930 . S
H482 C512 0.930 . S
O483 Co472 2.093 . S
O483 C475 1.224 . S
H484 C516 0.929 . S
H485 C518 0.930 . S
H486 C519 0.930 . S
H487 C517 0.929 . S
H488 C520 0.928 . S
O489 Co473 2.057 1_565 S
O489 C477 1.232 . S
H490 C509 0.929 . S
H491 C510 0.929 . S
H492 C522 0.931 . S
H493 C514 0.929 . S
H494 C523 0.930 . S
H495 C515 0.931 . S
O496 Co472 2.097 1_545 S
O496 C524 1.214 . S
H497 C525 0.929 . S
H498 C526 0.929 . S
H499 C527 0.930 . S
H500 C528 0.929 . S
H501 C530 0.930 . S
H502 C507 0.930 . S
H503 C511 0.930 . S
O504 Co473 2.037 . S
O504 C524 1.234 . S
C505 O479 1.269 . S
C505 O480 1.257 . S
C506 H481 0.930 . S
C506 C509 1.388 . S
C506 C511 1.418 . S
C507 H502 0.930 . S
C507 C510 1.404 . S
C507 C511 1.353 . S
N508 Co473 2.145 . S
N508 C509 1.397 . S
N508 C510 1.334 . S
C509 H490 0.929 . S
C509 C506 1.388 . S
C509 N508 1.397 . S
C510 H491 0.929 . S
C510 C507 1.404 . S
C510 N508 1.334 . S
C511 H503 0.930 . S
C511 C506 1.418 . S
C511 C507 1.353 . S
C512 H482 0.930 . S
C512 N513 1.330 . S
C512 C514 1.446 . S
N513 Co472 2.151 . S
N513 C512 1.330 . S
N513 C517 1.418 . S
C514 H493 0.929 . S
C514 C512 1.446 . S
C514 C515 1.332 . S
C515 H495 0.931 . S
C515 C514 1.332 . S
C515 C516 1.267 . S
C516 H484 0.929 . S
C516 C515 1.267 . S
C516 C517 1.251 . S
C517 H487 0.929 . S
C517 N513 1.418 . S
C517 C516 1.251 . S
C518 H485 0.930 . S
C518 C520 1.406 . S
C518 C523 1.261 . S
C519 H486 0.930 . S
C519 N521 1.325 . S
C519 C522 1.357 . S
C520 H488 0.928 . S
C520 C518 1.406 . S
C520 N521 1.261 . S
N521 Co472 2.214 . S
N521 C519 1.325 . S
N521 C520 1.261 . S
C522 H492 0.931 . S
C522 C519 1.357 . S
C522 C523 1.312 . S
C523 H494 0.930 . S
C523 C518 1.261 . S
C523 C522 1.312 . S
C524 O496 1.214 . S
C524 O504 1.234 . S
C525 H497 0.929 . S
C525 C528 1.391 . S
C525 C530 1.391 . S
C526 H498 0.929 . S
C526 C527 1.390 . S
C526 N529 1.391 . S
C527 H499 0.930 . S
C527 C526 1.390 . S
C527 C528 1.392 . S
C528 H500 0.929 . S
C528 C525 1.391 . S
C528 C527 1.392 . S
N529 Co473 2.257 . S
N529 C526 1.391 . S
N529 C530 1.388 . S
C530 H501 0.930 . S
C530 C525 1.391 . S
C530 N529 1.388 . S
Co531 O533 2.143 . S
Co531 O539 2.074 . S
Co531 O542 2.093 . S
Co531 O555 2.097 . S
Co531 N572 2.151 . S
Co531 N580 2.214 . S
Co532 O533 2.160 . S
Co532 O538 2.058 . S
Co532 O548 2.057 . S
Co532 O563 2.037 . S
Co532 N567 2.145 . S
Co532 N588 2.257 . S
O533 Co531 2.143 . S
O533 Co532 2.160 . S
C534 O535 1.278 . S
C534 O542 1.224 . S
O535 C534 1.278 . S
C536 O537 1.245 . S
C536 O548 1.232 . S
O537 C536 1.245 . S
O538 Co532 2.058 . S
O538 C564 1.269 . S
O539 Co531 2.074 . S
O539 C564 1.257 . S
H540 C565 0.930 . S
H541 C571 0.930 . S
O542 Co531 2.093 . S
O542 C534 1.224 . S
H543 C575 0.929 . S
H544 C577 0.930 . S
H545 C578 0.930 . S
H546 C576 0.929 . S
H547 C579 0.928 . S
O548 Co532 2.057 . S
O548 C536 1.232 . S
H549 C568 0.929 . S
H550 C569 0.929 . S
H551 C581 0.931 . S
H552 C573 0.929 . S
H553 C582 0.930 . S
H554 C574 0.931 . S
O555 Co531 2.097 . S
O555 C583 1.214 . S
H556 C584 0.929 . S
H557 C585 0.929 . S
H558 C586 0.930 . S
H559 C587 0.929 . S
H560 C589 0.930 . S
H561 C566 0.927 1_655 S
H562 C570 0.930 . S
O563 Co532 2.037 . S
O563 C583 1.234 . S
C564 O538 1.269 . S
C564 O539 1.257 . S
C565 H540 0.930 . S
C565 C568 1.388 1_655 S
C565 C570 1.418 . S
C566 H561 0.927 1_455 S
C566 C569 1.404 . S
C566 C570 1.353 1_455 S
N567 Co532 2.145 . S
N567 C568 1.397 . S
N567 C569 1.334 . S
C568 H549 0.929 . S
C568 C565 1.388 1_455 S
C568 N567 1.397 . S
C569 H550 0.929 . S
C569 C566 1.404 . S
C569 N567 1.334 . S
C570 H562 0.930 . S
C570 C565 1.418 . S
C570 C566 1.353 1_655 S
C571 H541 0.930 . S
C571 N572 1.330 . S
C571 C573 1.446 . S
N572 Co531 2.151 . S
N572 C571 1.330 . S
N572 C576 1.418 . S
C573 H552 0.929 . S
C573 C571 1.446 . S
C573 C574 1.332 . S
C574 H554 0.931 . S
C574 C573 1.332 . S
C574 C575 1.267 . S
C575 H543 0.929 . S
C575 C574 1.267 . S
C575 C576 1.251 . S
C576 H546 0.929 . S
C576 N572 1.418 . S
C576 C575 1.251 . S
C577 H544 0.930 . S
C577 C579 1.406 . S
C577 C582 1.261 . S
C578 H545 0.930 . S
C578 N580 1.325 . S
C578 C581 1.357 . S
C579 H547 0.928 . S
C579 C577 1.406 . S
C579 N580 1.261 . S
N580 Co531 2.214 . S
N580 C578 1.325 . S
N580 C579 1.261 . S
C581 H551 0.931 . S
C581 C578 1.357 . S
C581 C582 1.312 . S
C582 H553 0.930 . S
C582 C577 1.261 . S
C582 C581 1.312 . S
C583 O555 1.214 . S
C583 O563 1.234 . S
C584 H556 0.929 . S
C584 C587 1.391 . S
C584 C589 1.391 . S
C585 H557 0.929 . S
C585 C586 1.390 . S
C585 N588 1.391 . S
C586 H558 0.930 . S
C586 C585 1.390 . S
C586 C587 1.392 . S
C587 H559 0.929 . S
C587 C584 1.391 . S
C587 C586 1.392 . S
N588 Co532 2.257 . S
N588 C585 1.391 . S
N588 C589 1.388 . S
C589 H560 0.930 . S
C589 C584 1.391 . S
C589 N588 1.388 . S
Co590 O592 2.143 . S
Co590 O598 2.074 . S
Co590 O601 2.093 . S
Co590 O614 2.097 1_455 S
Co590 N631 2.151 . S
Co590 N639 2.214 . S
Co591 O592 2.160 1_655 S
Co591 O597 2.058 1_655 S
Co591 O607 2.057 1_655 S
Co591 O622 2.037 . S
Co591 N626 2.145 . S
Co591 N647 2.257 . S
O592 Co590 2.143 . S
O592 Co591 2.160 1_455 S
C593 O594 1.278 1_455 S
C593 O601 1.224 . S
O594 C593 1.278 1_655 S
C595 O596 1.245 . S
C595 O607 1.232 . S
O596 C595 1.245 . S
O597 Co591 2.058 1_455 S
O597 C623 1.269 . S
O598 Co590 2.074 . S
O598 C623 1.257 . S
H599 C624 0.930 . S
H600 C630 0.930 . S
O601 Co590 2.093 . S
O601 C593 1.224 . S
H602 C634 0.929 . S
H603 C636 0.930 . S
H604 C637 0.930 . S
H605 C635 0.929 . S
H606 C638 0.928 . S
O607 Co591 2.057 1_455 S
O607 C595 1.232 . S
H608 C627 0.929 . S
H609 C628 0.929 . S
H610 C640 0.931 . S
H611 C632 0.929 . S
H612 C641 0.930 . S
H613 C633 0.931 . S
O614 Co590 2.097 1_655 S
O614 C642 1.214 . S
H615 C643 0.929 . S
H616 C644 0.929 . S
H617 C645 0.930 . S
H618 C646 0.929 . S
H619 C648 0.930 . S
H620 C625 0.927 1_565 S
H621 C629 0.930 . S
O622 Co591 2.037 . S
O622 C642 1.234 . S
C623 O597 1.269 . S
C623 O598 1.257 . S
C624 H599 0.930 . S
C624 C627 1.388 1_565 S
C624 C629 1.418 . S
C625 H620 0.927 1_545 S
C625 C628 1.404 . S
C625 C629 1.353 1_545 S
N626 Co591 2.145 . S
N626 C627 1.397 . S
N626 C628 1.334 . S
C627 H608 0.929 . S
C627 C624 1.388 1_545 S
C627 N626 1.397 . S
C628 H609 0.929 . S
C628 C625 1.404 . S
C628 N626 1.334 . S
C629 H621 0.930 . S
C629 C624 1.418 . S
C629 C625 1.353 1_565 S
C630 H600 0.930 . S
C630 N631 1.330 . S
C630 C632 1.446 . S
N631 Co590 2.151 . S
N631 C630 1.330 . S
N631 C635 1.418 . S
C632 H611 0.929 . S
C632 C630 1.446 . S
C632 C633 1.332 . S
C633 H613 0.931 . S
C633 C632 1.332 . S
C633 C634 1.267 . S
C634 H602 0.929 . S
C634 C633 1.267 . S
C634 C635 1.251 . S
C635 H605 0.929 . S
C635 N631 1.418 . S
C635 C634 1.251 . S
C636 H603 0.930 . S
C636 C638 1.406 . S
C636 C641 1.261 . S
C637 H604 0.930 . S
C637 N639 1.325 . S
C637 C640 1.357 . S
C638 H606 0.928 . S
C638 C636 1.406 . S
C638 N639 1.261 . S
N639 Co590 2.214 . S
N639 C637 1.325 . S
N639 C638 1.261 . S
C640 H610 0.931 . S
C640 C637 1.357 . S
C640 C641 1.312 . S
C641 H612 0.930 . S
C641 C636 1.261 . S
C641 C640 1.312 . S
C642 O614 1.214 . S
C642 O622 1.234 . S
C643 H615 0.929 . S
C643 C646 1.391 . S
C643 C648 1.391 . S
C644 H616 0.929 . S
C644 C645 1.390 . S
C644 N647 1.391 . S
C645 H617 0.930 . S
C645 C644 1.390 . S
C645 C646 1.392 . S
C646 H618 0.929 . S
C646 C643 1.391 . S
C646 C645 1.392 . S
N647 Co591 2.257 . S
N647 C644 1.391 . S
N647 C648 1.388 . S
C648 H619 0.930 . S
C648 C643 1.391 . S
C648 N647 1.388 . S
Co649 O651 2.143 . S
Co649 O657 2.074 . S
Co649 O660 2.093 . S
Co649 O673 2.097 1_545 S
Co649 N690 2.151 . S
Co649 N698 2.214 . S
Co650 O651 2.160 1_565 S
Co650 O656 2.058 1_565 S
Co650 O666 2.057 1_565 S
Co650 O681 2.037 . S
Co650 N685 2.145 . S
Co650 N706 2.257 . S
O651 Co649 2.143 . S
O651 Co650 2.160 1_545 S
C652 O653 1.278 1_545 S
C652 O660 1.224 . S
O653 C652 1.278 1_565 S
C654 O655 1.245 . S
C654 O666 1.232 . S
O655 C654 1.245 . S
O656 Co650 2.058 1_545 S
O656 C682 1.269 . S
O657 Co649 2.074 . S
O657 C682 1.257 . S
H658 C683 0.930 . S
H659 C689 0.930 . S
O660 Co649 2.093 . S
O660 C652 1.224 . S
H661 C693 0.929 . S
H662 C695 0.930 . S
H663 C696 0.930 . S
H664 C694 0.929 . S
H665 C697 0.928 . S
O666 Co650 2.057 1_545 S
O666 C654 1.232 . S
H667 C686 0.929 . S
H668 C687 0.929 . S
H669 C699 0.931 . S
H670 C691 0.929 . S
H671 C700 0.930 . S
H672 C692 0.931 . S
O673 Co649 2.097 1_565 S
O673 C701 1.214 . S
H674 C702 0.929 . S
H675 C703 0.929 . S
H676 C704 0.930 . S
H677 C705 0.929 . S
H678 C707 0.930 . S
H679 C684 0.930 . S
H680 C688 0.930 . S
O681 Co650 2.037 . S
O681 C701 1.234 . S
C682 O656 1.269 . S
C682 O657 1.257 . S
C683 H658 0.930 . S
C683 C686 1.388 . S
C683 C688 1.418 . S
C684 H679 0.930 . S
C684 C687 1.404 . S
C684 C688 1.353 . S
N685 Co650 2.145 . S
N685 C686 1.397 . S
N685 C687 1.334 . S
C686 H667 0.929 . S
C686 C683 1.388 . S
C686 N685 1.397 . S
C687 H668 0.929 . S
C687 C684 1.404 . S
C687 N685 1.334 . S
C688 H680 0.930 . S
C688 C683 1.418 . S
C688 C684 1.353 . S
C689 H659 0.930 . S
C689 N690 1.330 . S
C689 C691 1.446 . S
N690 Co649 2.151 . S
N690 C689 1.330 . S
N690 C694 1.418 . S
C691 H670 0.929 . S
C691 C689 1.446 . S
C691 C692 1.332 . S
C692 H672 0.931 . S
C692 C691 1.332 . S
C692 C693 1.267 . S
C693 H661 0.929 . S
C693 C692 1.267 . S
C693 C694 1.251 . S
C694 H664 0.929 . S
C694 N690 1.418 . S
C694 C693 1.251 . S
C695 H662 0.930 . S
C695 C697 1.406 . S
C695 C700 1.261 . S
C696 H663 0.930 . S
C696 N698 1.325 . S
C696 C699 1.357 . S
C697 H665 0.928 . S
C697 C695 1.406 . S
C697 N698 1.261 . S
N698 Co649 2.214 . S
N698 C696 1.325 . S
N698 C697 1.261 . S
C699 H669 0.931 . S
C699 C696 1.357 . S
C699 C700 1.312 . S
C700 H671 0.930 . S
C700 C695 1.261 . S
C700 C699 1.312 . S
C701 O673 1.214 . S
C701 O681 1.234 . S
C702 H674 0.929 . S
C702 C705 1.391 . S
C702 C707 1.391 . S
C703 H675 0.929 . S
C703 C704 1.390 . S
C703 N706 1.391 . S
C704 H676 0.930 . S
C704 C703 1.390 . S
C704 C705 1.392 . S
C705 H677 0.929 . S
C705 C702 1.391 . S
C705 C704 1.392 . S
N706 Co650 2.257 . S
N706 C703 1.391 . S
N706 C707 1.388 . S
C707 H678 0.930 . S
C707 C702 1.391 . S
C707 N706 1.388 . S
C708 C709 1.369 1_455 S
C708 C710 1.419 . S
C708 H712 0.930 . S
C709 C708 1.369 1_655 S
C709 C718 1.429 . S
C710 C708 1.419 . S
C710 C711 1.363 . S
C710 H713 0.929 . S
C711 C710 1.363 . S
C711 C717 1.428 1_455 S
H712 C708 0.930 . S
H713 C710 0.929 . S
S714 N715 1.613 . S
S714 N716 1.610 . S
N715 S714 1.613 . S
N715 C718 1.350 . S
N716 S714 1.610 . S
N716 C717 1.351 . S
C717 C711 1.428 1_655 S
C717 N716 1.351 . S
C717 C718 1.434 . S
C718 C709 1.429 . S
C718 N715 1.350 . S
C718 C717 1.434 . S
C719 C720 1.369 . S
C719 C721 1.419 1_545 S
C719 H723 0.930 . S
C720 C719 1.369 . S
C720 C729 1.429 . S
C721 C719 1.419 1_565 S
C721 C722 1.363 . S
C721 H724 0.929 . S
C722 C721 1.363 . S
C722 C728 1.428 . S
H723 C719 0.930 . S
H724 C721 0.929 . S
S725 N726 1.613 . S
S725 N727 1.610 1_545 S
N726 S725 1.613 . S
N726 C729 1.350 . S
N727 S725 1.610 1_565 S
N727 C728 1.351 . S
C728 C722 1.428 . S
C728 N727 1.351 . S
C728 C729 1.434 1_565 S
C729 C720 1.429 . S
C729 N726 1.350 . S
C729 C728 1.434 1_545 S
C730 C731 1.369 . S
C730 C732 1.419 . S
C730 H734 0.930 . S
C731 C730 1.369 . S
C731 C740 1.429 . S
C732 C730 1.419 . S
C732 C733 1.363 . S
C732 H735 0.929 . S
C733 C732 1.363 . S
C733 C739 1.428 . S
H734 C730 0.930 . S
H735 C732 0.929 . S
S736 N737 1.613 . S
S736 N738 1.610 . S
N737 S736 1.613 . S
N737 C740 1.350 . S
N738 S736 1.610 . S
N738 C739 1.351 . S
C739 C733 1.428 . S
C739 N738 1.351 . S
C739 C740 1.434 . S
C740 C731 1.429 . S
C740 N737 1.350 . S
C740 C739 1.434 . S
C741 C742 1.369 . S
C741 C743 1.419 1_655 S
C741 H745 0.930 . S
C742 C741 1.369 . S
C742 C751 1.429 . S
C743 C741 1.419 1_455 S
C743 C744 1.363 . S
C743 H746 0.929 . S
C744 C743 1.363 . S
C744 C750 1.428 . S
H745 C741 0.930 . S
H746 C743 0.929 . S
S747 N748 1.613 1_455 S
S747 N749 1.610 . S
N748 S747 1.613 1_655 S
N748 C751 1.350 . S
N749 S747 1.610 . S
N749 C750 1.351 . S
C750 C744 1.428 . S
C750 N749 1.351 . S
C750 C751 1.434 1_455 S
C751 C742 1.429 . S
C751 N748 1.350 . S
C751 C750 1.434 1_655 S
C752 C753 1.369 1_565 S
C752 C754 1.419 . S
C752 H756 0.930 . S
C753 C752 1.369 1_545 S
C753 C762 1.429 . S
C754 C752 1.419 . S
C754 C755 1.363 . S
C754 H757 0.929 . S
C755 C754 1.363 . S
C755 C761 1.428 1_565 S
H756 C752 0.930 . S
H757 C754 0.929 . S
S758 N759 1.613 . S
S758 N760 1.610 . S
N759 S758 1.613 . S
N759 C762 1.350 . S
N760 S758 1.610 . S
N760 C761 1.351 . S
C761 C755 1.428 1_545 S
C761 N760 1.351 . S
C761 C762 1.434 . S
C762 C753 1.429 . S
C762 N759 1.350 . S
C762 C761 1.434 . S
C763 C764 1.369 . S
C763 C765 1.419 . S
C763 H767 0.930 . S
C764 C763 1.369 . S
C764 C773 1.429 . S
C765 C763 1.419 . S
C765 C766 1.363 . S
C765 H768 0.929 . S
C766 C765 1.363 . S
C766 C772 1.428 . S
H767 C763 0.930 . S
H768 C765 0.929 . S
S769 N770 1.613 . S
S769 N771 1.610 . S
N770 S769 1.613 . S
N770 C773 1.350 . S
N771 S769 1.610 . S
N771 C772 1.351 . S
C772 C766 1.428 . S
C772 N771 1.351 . S
C772 C773 1.434 . S
C773 C764 1.429 . S
C773 N770 1.350 . S
C773 C772 1.434 . S
C774 C775 1.369 . S
C774 C776 1.419 . S
C774 H778 0.930 . S
C775 C774 1.369 . S
C775 C784 1.429 . S
C776 C774 1.419 . S
C776 C777 1.363 . S
C776 H779 0.929 . S
C777 C776 1.363 . S
C777 C783 1.428 . S
H778 C774 0.930 . S
H779 C776 0.929 . S
S780 N781 1.613 . S
S780 N782 1.610 . S
N781 S780 1.613 . S
N781 C784 1.350 . S
N782 S780 1.610 . S
N782 C783 1.351 . S
C783 C777 1.428 . S
C783 N782 1.351 . S
C783 C784 1.434 . S
C784 C775 1.429 . S
C784 N781 1.350 . S
C784 C783 1.434 . S
C785 C786 1.369 1_655 S
C785 C787 1.419 . S
C785 H789 0.930 . S
C786 C785 1.369 1_455 S
C786 C795 1.429 . S
C787 C785 1.419 . S
C787 C788 1.363 . S
C787 H790 0.929 . S
C788 C787 1.363 . S
C788 C794 1.428 1_655 S
H789 C785 0.930 . S
H790 C787 0.929 . S
S791 N792 1.613 . S
S791 N793 1.610 . S
N792 S791 1.613 . S
N792 C795 1.350 . S
N793 S791 1.610 . S
N793 C794 1.351 . S
C794 C788 1.428 1_455 S
C794 N793 1.351 . S
C794 C795 1.434 . S
C795 C786 1.429 . S
C795 N792 1.350 . S
C795 C794 1.434 . S
C796 C797 1.369 1_565 S
C796 C798 1.419 . S
C796 H800 0.930 . S
C797 C796 1.369 1_545 S
C797 C806 1.429 . S
C798 C796 1.419 . S
C798 C799 1.363 . S
C798 H801 0.929 . S
C799 C798 1.363 . S
C799 C805 1.428 1_565 S
H800 C796 0.930 . S
H801 C798 0.929 . S
S802 N803 1.613 . S
S802 N804 1.610 . S
N803 S802 1.613 . S
N803 C806 1.350 . S
N804 S802 1.610 . S
N804 C805 1.351 . S
C805 C799 1.428 1_545 S
C805 N804 1.351 . S
C805 C806 1.434 . S
C806 C797 1.429 . S
C806 N803 1.350 . S
C806 C805 1.434 . S
C807 C808 1.369 . S
C807 C809 1.419 . S
C807 H811 0.930 . S
C808 C807 1.369 . S
C808 C817 1.429 . S
C809 C807 1.419 . S
C809 C810 1.363 . S
C809 H812 0.929 . S
C810 C809 1.363 . S
C810 C816 1.428 . S
H811 C807 0.930 . S
H812 C809 0.929 . S
S813 N814 1.613 . S
S813 N815 1.610 . S
N814 S813 1.613 . S
N814 C817 1.350 . S
N815 S813 1.610 . S
N815 C816 1.351 . S
C816 C810 1.428 . S
C816 N815 1.351 . S
C816 C817 1.434 . S
C817 C808 1.429 . S
C817 N814 1.350 . S
C817 C816 1.434 . S
C818 C819 1.369 . S
C818 C820 1.419 . S
C818 H822 0.930 . S
C819 C818 1.369 . S
C819 C828 1.429 1_655 S
C820 C818 1.419 . S
C820 C821 1.363 1_655 S
C820 H823 0.929 . S
C821 C820 1.363 1_455 S
C821 C827 1.428 . S
H822 C818 0.930 . S
H823 C820 0.929 . S
S824 N825 1.613 . S
S824 N826 1.610 . S
N825 S824 1.613 . S
N825 C828 1.350 . S
N826 S824 1.610 . S
N826 C827 1.351 . S
C827 C821 1.428 . S
C827 N826 1.351 . S
C827 C828 1.434 . S
C828 C819 1.429 1_455 S
C828 N825 1.350 . S
C828 C827 1.434 . S
C829 C830 1.369 1_545 S
C829 C831 1.419 . S
C829 H833 0.930 . S
C830 C829 1.369 1_565 S
C830 C839 1.429 . S
C831 C829 1.419 . S
C831 C832 1.363 . S
C831 H834 0.929 . S
C832 C831 1.363 . S
C832 C838 1.428 1_545 S
H833 C829 0.930 . S
H834 C831 0.929 . S
S835 N836 1.613 . S
S835 N837 1.610 . S
N836 S835 1.613 . S
N836 C839 1.350 . S
N837 S835 1.610 . S
N837 C838 1.351 . S
C838 C832 1.428 1_565 S
C838 N837 1.351 . S
C838 C839 1.434 . S
C839 C830 1.429 . S
C839 N836 1.350 . S
C839 C838 1.434 . S
C840 C841 1.369 . S
C840 C842 1.419 . S
C840 H844 0.930 . S
C841 C840 1.369 . S
C841 C850 1.429 . S
C842 C840 1.419 . S
C842 C843 1.363 . S
C842 H845 0.929 . S
C843 C842 1.363 . S
C843 C849 1.428 . S
H844 C840 0.930 . S
H845 C842 0.929 . S
S846 N847 1.613 . S
S846 N848 1.610 . S
N847 S846 1.613 . S
N847 C850 1.350 . S
N848 S846 1.610 . S
N848 C849 1.351 . S
C849 C843 1.428 . S
C849 N848 1.351 . S
C849 C850 1.434 . S
C850 C841 1.429 . S
C850 N847 1.350 . S
C850 C849 1.434 . S
C851 C852 1.369 . S
C851 C853 1.419 . S
C851 H855 0.930 . S
C852 C851 1.369 . S
C852 C861 1.429 . S
C853 C851 1.419 . S
C853 C854 1.363 . S
C853 H856 0.929 . S
C854 C853 1.363 . S
C854 C860 1.428 . S
H855 C851 0.930 . S
H856 C853 0.929 . S
S857 N858 1.613 . S
S857 N859 1.610 . S
N858 S857 1.613 . S
N858 C861 1.350 . S
N859 S857 1.610 . S
N859 C860 1.351 . S
C860 C854 1.428 . S
C860 N859 1.351 . S
C860 C861 1.434 . S
C861 C852 1.429 . S
C861 N858 1.350 . S
C861 C860 1.434 . S
C862 C863 1.369 . S
C862 C864 1.419 . S
C862 H866 0.930 . S
C863 C862 1.369 . S
C863 C872 1.429 . S
C864 C862 1.419 . S
C864 C865 1.363 . S
C864 H867 0.929 . S
C865 C864 1.363 . S
C865 C871 1.428 . S
H866 C862 0.930 . S
H867 C864 0.929 . S
S868 N869 1.613 . S
S868 N870 1.610 . S
N869 S868 1.613 . S
N869 C872 1.350 . S
N870 S868 1.610 . S
N870 C871 1.351 . S
C871 C865 1.428 . S
C871 N870 1.351 . S
C871 C872 1.434 . S
C872 C863 1.429 . S
C872 N869 1.350 . S
C872 C871 1.434 . S
C873 C874 1.369 . S
C873 C875 1.419 . S
C873 H877 0.930 . S
C874 C873 1.369 . S
C874 C883 1.429 . S
C875 C873 1.419 . S
C875 C876 1.363 . S
C875 H878 0.929 . S
C876 C875 1.363 . S
C876 C882 1.428 . S
H877 C873 0.930 . S
H878 C875 0.929 . S
S879 N880 1.613 . S
S879 N881 1.610 . S
N880 S879 1.613 . S
N880 C883 1.350 . S
N881 S879 1.610 . S
N881 C882 1.351 . S
C882 C876 1.428 . S
C882 N881 1.351 . S
C882 C883 1.434 . S
C883 C874 1.429 . S
C883 N880 1.350 . S
C883 C882 1.434 . S
C884 C885 1.369 . S
C884 C886 1.419 . S
C884 H888 0.930 . S
C885 C884 1.369 . S
C885 C894 1.429 . S
C886 C884 1.419 . S
C886 C887 1.363 . S
C886 H889 0.929 . S
C887 C886 1.363 . S
C887 C893 1.428 . S
H888 C884 0.930 . S
H889 C886 0.929 . S
S890 N891 1.613 . S
S890 N892 1.610 . S
N891 S890 1.613 . S
N891 C894 1.350 . S
N892 S890 1.610 . S
N892 C893 1.351 . S
C893 C887 1.428 . S
C893 N892 1.351 . S
C893 C894 1.434 . S
C894 C885 1.429 . S
C894 N891 1.350 . S
C894 C893 1.434 . S
C895 C896 1.369 . S
C895 C897 1.419 . S
C895 H899 0.930 . S
C896 C895 1.369 . S
C896 C905 1.429 . S
C897 C895 1.419 . S
C897 C898 1.363 . S
C897 H900 0.929 . S
C898 C897 1.363 . S
C898 C904 1.428 . S
H899 C895 0.930 . S
H900 C897 0.929 . S
S901 N902 1.613 . S
S901 N903 1.610 . S
N902 S901 1.613 . S
N902 C905 1.350 . S
N903 S901 1.610 . S
N903 C904 1.351 . S
C904 C898 1.428 . S
C904 N903 1.351 . S
C904 C905 1.434 . S
C905 C896 1.429 . S
C905 N902 1.350 . S
C905 C904 1.434 . S
C906 C907 1.369 . S
C906 C908 1.419 . S
C906 H910 0.930 . S
C907 C906 1.369 . S
C907 C916 1.429 . S
C908 C906 1.419 . S
C908 C909 1.363 . S
C908 H911 0.929 . S
C909 C908 1.363 . S
C909 C915 1.428 . S
H910 C906 0.930 . S
H911 C908 0.929 . S
S912 N913 1.613 . S
S912 N914 1.610 . S
N913 S912 1.613 . S
N913 C916 1.350 . S
N914 S912 1.610 . S
N914 C915 1.351 . S
C915 C909 1.428 . S
C915 N914 1.351 . S
C915 C916 1.434 . S
C916 C907 1.429 . S
C916 N913 1.350 . S
C916 C915 1.434 . S
C917 C918 1.369 . S
C917 C919 1.419 . S
C917 H921 0.930 . S
C918 C917 1.369 . S
C918 C927 1.429 1_655 S
C919 C917 1.419 . S
C919 C920 1.363 1_655 S
C919 H922 0.929 . S
C920 C919 1.363 1_455 S
C920 C926 1.428 . S
H921 C917 0.930 . S
H922 C919 0.929 . S
S923 N924 1.613 . S
S923 N925 1.610 . S
N924 S923 1.613 . S
N924 C927 1.350 . S
N925 S923 1.610 . S
N925 C926 1.351 . S
C926 C920 1.428 . S
C926 N925 1.351 . S
C926 C927 1.434 . S
C927 C918 1.429 1_455 S
C927 N924 1.350 . S
C927 C926 1.434 . S
C928 C929 1.369 . S
C928 C930 1.419 1_544 S
C928 H932 0.930 . S
C929 C928 1.369 . S
C929 C938 1.429 . S
C930 C928 1.419 1_566 S
C930 C931 1.363 . S
C930 H933 0.929 . S
C931 C930 1.363 . S
C931 C937 1.428 . S
H932 C928 0.930 . S
H933 C930 0.929 . S
S934 N935 1.613 . S
S934 N936 1.610 1_554 S
N935 S934 1.613 . S
N935 C938 1.350 1_565 S
N936 S934 1.610 1_556 S
N936 C937 1.351 . S
C937 C931 1.428 . S
C937 N936 1.351 . S
C937 C938 1.434 1_566 S
C938 C929 1.429 . S
C938 N935 1.350 1_545 S
C938 C937 1.434 1_544 S
C939 C940 1.369 . S
C939 C941 1.419 . S
C939 H943 0.930 . S
C940 C939 1.369 . S
C940 C949 1.429 . S
C941 C939 1.419 . S
C941 C942 1.363 . S
C941 H944 0.929 . S
C942 C941 1.363 . S
C942 C948 1.428 . S
H943 C939 0.930 . S
H944 C941 0.929 . S
S945 N946 1.613 . S
S945 N947 1.610 . S
N946 S945 1.613 . S
N946 C949 1.350 . S
N947 S945 1.610 . S
N947 C948 1.351 . S
C948 C942 1.428 . S
C948 N947 1.351 . S
C948 C949 1.434 . S
C949 C940 1.429 . S
C949 N946 1.350 . S
C949 C948 1.434 . S
C950 C951 1.369 . S
C950 C952 1.419 . S
C950 H954 0.930 . S
C951 C950 1.369 . S
C951 C960 1.429 1_455 S
C952 C950 1.419 . S
C952 C953 1.363 1_455 S
C952 H955 0.929 . S
C953 C952 1.363 1_655 S
C953 C959 1.428 . S
H954 C950 0.930 . S
H955 C952 0.929 . S
S956 N957 1.613 . S
S956 N958 1.610 . S
N957 S956 1.613 . S
N957 C960 1.350 . S
N958 S956 1.610 . S
N958 C959 1.351 . S
C959 C953 1.428 . S
C959 N958 1.351 . S
C959 C960 1.434 . S
C960 C951 1.429 1_655 S
C960 N957 1.350 . S
C960 C959 1.434 . S
C961 C962 1.369 . S
C961 C963 1.419 1_554 S
C961 H965 0.930 . S
C962 C961 1.369 . S
C962 C971 1.429 1_565 S
C963 C961 1.419 1_556 S
C963 C964 1.363 1_565 S
C963 H966 0.929 . S
C964 C963 1.363 1_545 S
C964 C970 1.428 . S
H965 C961 0.930 . S
H966 C963 0.929 . S
S967 N968 1.613 . S
S967 N969 1.610 1_554 S
N968 S967 1.613 . S
N968 C971 1.350 . S
N969 S967 1.610 1_556 S
N969 C970 1.351 . S
C970 C964 1.428 . S
C970 N969 1.351 . S
C970 C971 1.434 1_556 S
C971 C962 1.429 1_545 S
C971 N968 1.350 . S
C971 C970 1.434 1_554 S
C709 C682 1.814 . S
C711 C33 1.820 . S
C720 C92 1.819 . S
C722 C387 1.818 . S
C731 C151 1.820 . S
C733 C446 1.815 . S
C742 C210 1.815 . S
C744 C505 1.816 . S
C753 C564 1.815 . S
C755 C269 1.819 . S
C764 C328 1.820 . S
C766 C623 1.816 . S
C775 C180 1.428 . S
C777 C3 1.429 . S
C786 C239 1.429 . S
C788 C62 1.427 . S
C797 C298 1.429 . S
C799 C121 1.427 . S
C808 C357 1.426 . S
C810 C534 1.428 . S
C819 C416 1.428 . S
C821 C593 1.429 . S
C830 C475 1.428 . S
C832 C652 1.427 . S
C841 C524 0.633 . S
C843 C52 0.627 . S
C852 C111 0.640 . S
C854 C583 0.621 . S
C863 C642 0.640 . S
C865 C170 0.622 . S
C874 C701 0.618 . S
C876 C229 0.637 . S
C885 C406 0.621 . S
C887 C288 0.636 . S
C896 C347 0.641 . S
C898 C465 0.621 . S
C907 C536 1.687 . S
C909 C5 1.688 . S
C918 C64 1.684 . S
C920 C595 1.690 . S
C929 C654 1.685 . S
C931 C123 1.689 . S
C940 C182 1.687 . S
C942 C359 1.686 . S
C951 C241 1.684 . S
C953 C418 1.690 . S
C962 C477 1.685 . S
C964 C300 1.690 . S
