# Generated by pormake.
# Topology pcb, (4)-cn, num edge types: 1
# Building blocks:
#     Node 0, Type 0, BuildingBlock: NAHDIM_clean_sbu_0, # of connection points: 4
#     Node 1, Type 0, BuildingBlock: NAHDIM_clean_sbu_0, # of connection points: 4
#     Node 2, Type 0, BuildingBlock: NAHDIM_clean_sbu_0, # of connection points: 4
#     Node 3, Type 0, BuildingBlock: NAHDIM_clean_sbu_0, # of connection points: 4
#     Node 4, Type 0, BuildingBlock: NAHDIM_clean_sbu_0, # of connection points: 4
#     Node 5, Type 0, BuildingBlock: NAHDIM_clean_sbu_0, # of connection points: 4
#     Node 6, Type 0, BuildingBlock: NAHDIM_clean_sbu_0, # of connection points: 4
#     Node 7, Type 0, BuildingBlock: NAHDIM_clean_sbu_0, # of connection points: 4
#     Node 8, Type 0, BuildingBlock: NAHDIM_clean_sbu_0, # of connection points: 4
#     Node 9, Type 0, BuildingBlock: NAHDIM_clean_sbu_0, # of connection points: 4
#     Node 10, Type 0, BuildingBlock: NAHDIM_clean_sbu_0, # of connection points: 4
#     Node 11, Type 0, BuildingBlock: NAHDIM_clean_sbu_0, # of connection points: 4
#     Node 12, Type 0, BuildingBlock: NAHDIM_clean_sbu_0, # of connection points: 4
#     Node 13, Type 0, BuildingBlock: NAHDIM_clean_sbu_0, # of connection points: 4
#     Node 14, Type 0, BuildingBlock: NAHDIM_clean_sbu_0, # of connection points: 4
#     Node 15, Type 0, BuildingBlock: NAHDIM_clean_sbu_0, # of connection points: 4
#     Edge 16, Type (0, 0), BuildingBlock: AJUNOK_clean_linker_0, # of connection points: 2
#     Edge 17, Type (0, 0), BuildingBlock: AJUNOK_clean_linker_0, # of connection points: 2
#     Edge 18, Type (0, 0), BuildingBlock: AJUNOK_clean_linker_0, # of connection points: 2
#     Edge 19, Type (0, 0), BuildingBlock: AJUNOK_clean_linker_0, # of connection points: 2
#     Edge 20, Type (0, 0), BuildingBlock: AJUNOK_clean_linker_0, # of connection points: 2
#     Edge 21, Type (0, 0), BuildingBlock: AJUNOK_clean_linker_0, # of connection points: 2
#     Edge 22, Type (0, 0), BuildingBlock: AJUNOK_clean_linker_0, # of connection points: 2
#     Edge 23, Type (0, 0), BuildingBlock: AJUNOK_clean_linker_0, # of connection points: 2
#     Edge 24, Type (0, 0), BuildingBlock: AJUNOK_clean_linker_0, # of connection points: 2
#     Edge 25, Type (0, 0), BuildingBlock: AJUNOK_clean_linker_0, # of connection points: 2
#     Edge 26, Type (0, 0), BuildingBlock: AJUNOK_clean_linker_0, # of connection points: 2
#     Edge 27, Type (0, 0), BuildingBlock: AJUNOK_clean_linker_0, # of connection points: 2
#     Edge 28, Type (0, 0), BuildingBlock: AJUNOK_clean_linker_0, # of connection points: 2
#     Edge 29, Type (0, 0), BuildingBlock: AJUNOK_clean_linker_0, # of connection points: 2
#     Edge 30, Type (0, 0), BuildingBlock: AJUNOK_clean_linker_0, # of connection points: 2
#     Edge 31, Type (0, 0), BuildingBlock: AJUNOK_clean_linker_0, # of connection points: 2
#     Edge 32, Type (0, 0), BuildingBlock: AJUNOK_clean_linker_0, # of connection points: 2
#     Edge 33, Type (0, 0), BuildingBlock: AJUNOK_clean_linker_0, # of connection points: 2
#     Edge 34, Type (0, 0), BuildingBlock: AJUNOK_clean_linker_0, # of connection points: 2
#     Edge 35, Type (0, 0), BuildingBlock: AJUNOK_clean_linker_0, # of connection points: 2
#     Edge 36, Type (0, 0), BuildingBlock: AJUNOK_clean_linker_0, # of connection points: 2
#     Edge 37, Type (0, 0), BuildingBlock: AJUNOK_clean_linker_0, # of connection points: 2
#     Edge 38, Type (0, 0), BuildingBlock: AJUNOK_clean_linker_0, # of connection points: 2
#     Edge 39, Type (0, 0), BuildingBlock: AJUNOK_clean_linker_0, # of connection points: 2
#     Edge 40, Type (0, 0), BuildingBlock: AJUNOK_clean_linker_0, # of connection points: 2
#     Edge 41, Type (0, 0), BuildingBlock: AJUNOK_clean_linker_0, # of connection points: 2
#     Edge 42, Type (0, 0), BuildingBlock: AJUNOK_clean_linker_0, # of connection points: 2
#     Edge 43, Type (0, 0), BuildingBlock: AJUNOK_clean_linker_0, # of connection points: 2
#     Edge 44, Type (0, 0), BuildingBlock: AJUNOK_clean_linker_0, # of connection points: 2
#     Edge 45, Type (0, 0), BuildingBlock: AJUNOK_clean_linker_0, # of connection points: 2
#     Edge 46, Type (0, 0), BuildingBlock: AJUNOK_clean_linker_0, # of connection points: 2
#     Edge 47, Type (0, 0), BuildingBlock: AJUNOK_clean_linker_0, # of connection points: 2
# Relax obj value: 0.188
# Max RMSD: 0.099
# Mean RMSD: 0.079
data_MOF--net-pcb--node1-NAHDIM_clean_sbu_0--edge1-AJUNOK_clean_linker_0
_symmetry_space_group_name_H-M    P1
_symmetry_Int_Tables_number       1
_symmetry_cell_setting            triclinic
loop_
_symmetry_equiv_pos_as_xyz
'x, y, z'
_cell_length_a     33.171603
_cell_length_b     35.022957
_cell_length_c     36.738763
_cell_angle_alpha  90.241335
_cell_angle_beta   90.945005
_cell_angle_gamma 92.477352
loop_
_atom_site_label
_atom_site_type_symbol
_atom_site_fract_x
_atom_site_fract_y
_atom_site_fract_z
_atom_type_partial_charge
C0 C 0.19326 0.2018 0.1939 0.0
O1 O 0.17071 0.17642 0.21141 0.0
O2 O 0.16558 0.11474 0.13873 0.0
Zn3 Zn 0.14937 0.16913 0.13377 0.0
O4 O 0.09417 0.17372 0.15418 0.0
C5 C 0.17596 0.17264 0.06042 0.0
O6 O 0.20635 0.15462 0.07461 0.0
O7 O 0.18919 0.20418 0.15962 0.0
C8 C 0.07013 0.19861 0.14322 0.0
O9 O 0.08219 0.22328 0.11841 0.0
C10 C 0.14975 0.09251 0.16227 0.0
O11 O 0.12322 0.10589 0.18462 0.0
O12 O 0.14767 0.18223 0.08093 0.0
C13 C 0.78161 0.17745 0.2108 0.0
O14 O 0.7995 0.14604 0.21977 0.0
O15 O 0.87521 0.1841 0.14701 0.0
Zn16 Zn 0.81845 0.16189 0.14314 0.0
O17 O 0.81973 0.10619 0.15565 0.0
C18 C 0.82658 0.16197 0.06732 0.0
O19 O 0.86326 0.15483 0.07857 0.0
O20 O 0.78443 0.1897 0.17837 0.0
C21 C 0.79002 0.08279 0.14973 0.0
O22 O 0.7567 0.09539 0.13521 0.0
C23 C 0.89977 0.17281 0.17113 0.0
O24 O 0.88675 0.14799 0.19541 0.0
O25 O 0.79941 0.16632 0.09082 0.0
C26 C 0.77422 0.80988 0.20515 0.0
O27 O 0.78704 0.84167 0.22148 0.0
O28 O 0.79888 0.89621 0.15256 0.0
Zn29 Zn 0.81878 0.84306 0.14658 0.0
O30 O 0.87633 0.84121 0.16438 0.0
C31 C 0.83996 0.85408 0.07403 0.0
O32 O 0.86093 0.88213 0.09028 0.0
O33 O 0.78396 0.80427 0.17236 0.0
C34 C 0.89961 0.81663 0.15189 0.0
O35 O 0.885 0.79102 0.12839 0.0
C36 C 0.81857 0.92168 0.17105 0.0
O37 O 0.85134 0.91231 0.18884 0.0
O38 O 0.81794 0.83182 0.09322 0.0
C39 C 0.18033 0.78599 0.18337 0.0
O40 O 0.15279 0.76819 0.16267 0.0
O41 O 0.17566 0.84836 0.09447 0.0
Zn42 Zn 0.15279 0.85092 0.14469 0.0
O43 O 0.09501 0.83114 0.14419 0.0
C44 C 0.17898 0.93065 0.14928 0.0
O45 O 0.20881 0.91957 0.12924 0.0
O46 O 0.18583 0.82193 0.18027 0.0
C47 C 0.07322 0.83977 0.17088 0.0
O48 O 0.09 0.85909 0.1983 0.0
C49 C 0.16657 0.82186 0.07172 0.0
O50 O 0.14157 0.79374 0.08139 0.0
O51 O 0.1525 0.90597 0.15961 0.0
C52 C 0.21158 0.77311 0.81393 0.0
O53 O 0.19995 0.7574 0.84465 0.0
O54 O 0.11838 0.83728 0.82985 0.0
Zn55 Zn 0.17705 0.84068 0.84367 0.0
O56 O 0.18195 0.8237 0.89582 0.0
C57 C 0.1841 0.91559 0.813 0.0
O58 O 0.16077 0.89931 0.78762 0.0
O59 O 0.20631 0.80836 0.80881 0.0
C60 C 0.2042 0.84219 0.91887 0.0
O61 O 0.22722 0.87105 0.90755 0.0
C62 C 0.09673 0.80743 0.83656 0.0
O63 O 0.11354 0.77839 0.85233 0.0
O64 O 0.19597 0.89557 0.8395 0.0
C65 C 0.18291 0.20805 0.77785 0.0
O66 O 0.14474 0.20532 0.7677 0.0
O67 O 0.09979 0.16569 0.82604 0.0
Zn68 Zn 0.15788 0.1524 0.8316 0.0
O69 O 0.16471 0.09824 0.81595 0.0
C70 C 0.15816 0.18345 0.90337 0.0
O71 O 0.13654 0.20907 0.88704 0.0
O72 O 0.19484 0.18799 0.80429 0.0
C73 C 0.19527 0.08064 0.82696 0.0
O74 O 0.22294 0.09917 0.84695 0.0
C75 C 0.07396 0.1466 0.80671 0.0
O76 O 0.0858 0.11767 0.78732 0.0
O77 O 0.17182 0.1565 0.88464 0.0
C78 C 0.78743 0.19232 0.8023 0.0
O79 O 0.81417 0.21166 0.82264 0.0
O80 O 0.87852 0.13395 0.82054 0.0
Zn81 Zn 0.82157 0.12863 0.83859 0.0
O82 O 0.82178 0.14874 0.88982 0.0
C83 C 0.8164 0.0515 0.8134 0.0
O84 O 0.83507 0.06727 0.78563 0.0
O85 O 0.78452 0.15622 0.80527 0.0
C86 C 0.79354 0.14388 0.91246 0.0
O87 O 0.75958 0.12627 0.90176 0.0
C88 C 0.90276 0.16057 0.83202 0.0
O89 O 0.88962 0.18589 0.85493 0.0
O90 O 0.80596 0.07274 0.83941 0.0
C91 C 0.7984 0.78496 0.78445 0.0
O92 O 0.81847 0.81358 0.76911 0.0
O93 O 0.90002 0.79952 0.83846 0.0
Zn94 Zn 0.84286 0.81426 0.84508 0.0
O95 O 0.83661 0.86794 0.82767 0.0
C96 C 0.85478 0.83639 0.91735 0.0
O97 O 0.88221 0.85785 0.90074 0.0
O98 O 0.80432 0.77875 0.81809 0.0
C99 C 0.8081 0.88789 0.83861 0.0
O100 O 0.78182 0.87276 0.86134 0.0
C101 C 0.92355 0.81747 0.81693 0.0
O102 O 0.90934 0.84488 0.79677 0.0
O103 O 0.8323 0.81343 0.89844 0.0
C104 C 0.68477 0.68458 0.70328 0.0
O105 O 0.67168 0.65249 0.71827 0.0
O106 O 0.66247 0.6022 0.6447 0.0
Zn107 Zn 0.64032 0.6545 0.64113 0.0
O108 O 0.5825 0.65286 0.65641 0.0
C109 C 0.67268 0.66383 0.5697 0.0
O110 O 0.70313 0.64619 0.58427 0.0
O111 O 0.67425 0.69167 0.67075 0.0
C112 C 0.55834 0.67667 0.64345 0.0
O113 O 0.57235 0.70346 0.62152 0.0
C114 C 0.6486 0.57685 0.66629 0.0
O115 O 0.61892 0.58515 0.68778 0.0
O116 O 0.64248 0.67055 0.58911 0.0
C117 C 0.27426 0.67639 0.70063 0.0
O118 O 0.28868 0.64341 0.70993 0.0
O119 O 0.36199 0.66655 0.63265 0.0
Zn120 Zn 0.30232 0.65373 0.63114 0.0
O121 O 0.2942 0.59817 0.64333 0.0
C122 C 0.29785 0.68515 0.55872 0.0
O123 O 0.32731 0.70795 0.57144 0.0
O124 O 0.27558 0.68657 0.66751 0.0
C125 C 0.30648 0.57484 0.61986 0.0
O126 O 0.32244 0.58846 0.58984 0.0
C127 C 0.38464 0.65143 0.65627 0.0
O128 O 0.36833 0.6278 0.68006 0.0
O129 O 0.2811 0.66111 0.58011 0.0
C130 C 0.30384 0.30095 0.70181 0.0
O131 O 0.33924 0.30851 0.7174 0.0
O132 O 0.33082 0.3912 0.63183 0.0
Zn133 Zn 0.34132 0.33603 0.63929 0.0
O134 O 0.3968 0.33176 0.66107 0.0
C135 C 0.31179 0.31946 0.56791 0.0
O136 O 0.28226 0.34001 0.57939 0.0
O137 O 0.29823 0.31038 0.66889 0.0
C138 C 0.41778 0.30351 0.65301 0.0
O139 O 0.4014 0.2759 0.63264 0.0
C140 C 0.31474 0.41343 0.65416 0.0
O141 O 0.30406 0.4005 0.68627 0.0
O142 O 0.34061 0.31263 0.58972 0.0
C143 C 0.69589 0.27374 0.69289 0.0
O144 O 0.66713 0.25691 0.67284 0.0
O145 O 0.69248 0.33456 0.60184 0.0
Zn146 Zn 0.67093 0.33806 0.65263 0.0
O147 O 0.61357 0.31749 0.6523 0.0
C148 C 0.69327 0.41877 0.65299 0.0
O149 O 0.72128 0.40813 0.63071 0.0
O150 O 0.70378 0.30924 0.6886 0.0
C151 C 0.59011 0.32592 0.67779 0.0
O152 O 0.60426 0.34745 0.70488 0.0
C153 C 0.67921 0.30913 0.57939 0.0
O154 O 0.65271 0.28296 0.5905 0.0
O155 O 0.66964 0.39341 0.66669 0.0
C156 C 0.70834 0.27135 0.32038 0.0
O157 O 0.68853 0.25662 0.348 0.0
O158 O 0.6224 0.33977 0.33458 0.0
Zn159 Zn 0.68052 0.34062 0.35032 0.0
O160 O 0.68341 0.32209 0.40206 0.0
C161 C 0.69079 0.41416 0.3192 0.0
O162 O 0.67131 0.39605 0.29243 0.0
O163 O 0.71003 0.30738 0.31633 0.0
C164 C 0.70793 0.3364 0.42582 0.0
O165 O 0.73395 0.36371 0.41617 0.0
C166 C 0.59621 0.31503 0.3453 0.0
O167 O 0.60739 0.28799 0.36748 0.0
O168 O 0.70058 0.39539 0.34728 0.0
C169 C 0.68534 0.68799 0.28076 0.0
O170 O 0.67643 0.65567 0.26356 0.0
O171 O 0.59068 0.6521 0.3428 0.0
Zn172 Zn 0.65075 0.64816 0.34236 0.0
O173 O 0.66375 0.59643 0.32315 0.0
C174 C 0.65662 0.67972 0.41334 0.0
O175 O 0.63404 0.70502 0.39765 0.0
O176 O 0.67689 0.69085 0.31417 0.0
C177 C 0.69364 0.57884 0.33566 0.0
O178 O 0.71767 0.59591 0.36005 0.0
C179 C 0.56728 0.65268 0.31513 0.0
O180 O 0.58264 0.65129 0.28246 0.0
O181 O 0.66919 0.6525 0.39428 0.0
C182 C 0.27773 0.70742 0.29052 0.0
O183 O 0.30502 0.72744 0.3097 0.0
O184 O 0.3681 0.65606 0.31783 0.0
Zn185 Zn 0.31021 0.64757 0.33209 0.0
O186 O 0.30384 0.67 0.38203 0.0
C187 C 0.31303 0.56977 0.30959 0.0
O188 O 0.33341 0.5859 0.28298 0.0
O189 O 0.27391 0.67167 0.29574 0.0
C190 C 0.27691 0.65741 0.40359 0.0
O191 O 0.25106 0.63031 0.39215 0.0
C192 C 0.39449 0.64742 0.34147 0.0
O193 O 0.38242 0.63486 0.37331 0.0
O194 O 0.29853 0.59093 0.33385 0.0
C195 C 0.30613 0.3011 0.277 0.0
O196 O 0.32795 0.32889 0.26217 0.0
O197 O 0.40066 0.31862 0.34008 0.0
Zn198 Zn 0.34261 0.33213 0.34202 0.0
O199 O 0.33726 0.3862 0.3255 0.0
C200 C 0.33617 0.30063 0.41341 0.0
O201 O 0.35817 0.27429 0.39914 0.0
O202 O 0.308 0.29672 0.31124 0.0
C203 C 0.30841 0.40608 0.33581 0.0
O204 O 0.28114 0.39062 0.35741 0.0
C205 C 0.42522 0.33524 0.31855 0.0
O206 O 0.41173 0.36062 0.29568 0.0
O207 O 0.32514 0.32804 0.39362 0.0
C208 C 0.25358 0.24809 0.27195 0.0
C209 C 0.27848 0.27585 0.25469 0.0
C210 C 0.22634 0.22432 0.25202 0.0
C211 C 0.22281 0.22724 0.21396 0.0
H212 H 0.25482 0.24472 0.30123 0.0
H213 H 0.20779 0.20361 0.26675 0.0
S214 S 0.28179 0.29462 0.15535 0.0
N215 N 0.29836 0.30446 0.19708 0.0
N216 N 0.24713 0.25974 0.15954 0.0
C217 C 0.24778 0.25463 0.1962 0.0
C218 C 0.27559 0.27892 0.21657 0.0
C219 C 0.73751 0.26156 0.25899 0.0
C220 C 0.72663 0.24646 0.29307 0.0
C221 C 0.75437 0.23879 0.23233 0.0
C222 C 0.76152 0.20009 0.2388 0.0
H223 H 0.73279 0.29123 0.25266 0.0
H224 H 0.76249 0.25191 0.20667 0.0
S225 S 0.73801 0.14644 0.32335 0.0
N226 N 0.72372 0.19014 0.33167 0.0
N227 N 0.75576 0.14739 0.28164 0.0
C228 C 0.75061 0.1845 0.27268 0.0
C229 C 0.73308 0.20765 0.29976 0.0
C230 C 0.74059 0.74469 0.20773 0.0
C231 C 0.75014 0.78009 0.22479 0.0
C232 C 0.71921 0.71538 0.22587 0.0
C233 C 0.70644 0.72019 0.26184 0.0
H234 H 0.75009 0.73924 0.1802 0.0
H235 H 0.71313 0.68857 0.21159 0.0
S236 S 0.7218 0.80817 0.31823 0.0
N237 N 0.74379 0.81882 0.27939 0.0
N238 N 0.70359 0.76381 0.3135 0.0
C239 C 0.71506 0.75574 0.27905 0.0
C240 C 0.7369 0.78563 0.26054 0.0
C241 C 0.25553 0.7663 0.25924 0.0
C242 C 0.25224 0.72636 0.26304 0.0
C243 C 0.2322 0.78515 0.23345 0.0
C244 C 0.20454 0.76489 0.2103 0.0
H245 H 0.2763 0.78336 0.27634 0.0
H246 H 0.23596 0.81597 0.23178 0.0
S247 S 0.18461 0.65969 0.20882 0.0
N248 N 0.21922 0.66695 0.24118 0.0
N249 N 0.17538 0.7024 0.1927 0.0
C250 C 0.2009 0.72487 0.21372 0.0
C251 C 0.22471 0.70562 0.24006 0.0
C252 C 0.25296 0.68827 0.7645 0.0
C253 C 0.25806 0.70175 0.72875 0.0
C254 C 0.23824 0.71162 0.79185 0.0
C255 C 0.22828 0.74951 0.78467 0.0
H256 H 0.26023 0.65933 0.77152 0.0
H257 H 0.2347 0.69977 0.81885 0.0
S258 S 0.23631 0.79889 0.69555 0.0
N259 N 0.25207 0.75564 0.68765 0.0
N260 N 0.22459 0.79955 0.73901 0.0
C261 C 0.23342 0.76349 0.74906 0.0
C262 C 0.2482 0.73962 0.72113 0.0
C263 C 0.25219 0.238 0.77215 0.0
C264 C 0.21229 0.23348 0.7586 0.0
C265 C 0.28125 0.26059 0.75406 0.0
C266 C 0.27172 0.27941 0.72154 0.0
H267 H 0.26134 0.22372 0.79685 0.0
H268 H 0.31163 0.2626 0.76537 0.0
S269 S 0.1711 0.27881 0.67554 0.0
N270 N 0.16435 0.25113 0.71136 0.0
N271 N 0.21903 0.29353 0.67728 0.0
C272 C 0.23172 0.2759 0.70804 0.0
C273 C 0.20201 0.25298 0.72659 0.0
C274 C 0.7688 0.25186 0.77 0.0
C275 C 0.76272 0.21223 0.77488 0.0
C276 C 0.74711 0.27136 0.74346 0.0
C277 C 0.71832 0.25208 0.72068 0.0
H278 H 0.79076 0.26811 0.78661 0.0
H279 H 0.75311 0.30186 0.74085 0.0
S280 S 0.69036 0.14824 0.72264 0.0
N281 N 0.72529 0.15432 0.75489 0.0
N282 N 0.68454 0.19096 0.70505 0.0
C283 C 0.71163 0.21245 0.72542 0.0
C284 C 0.73378 0.19254 0.75248 0.0
C285 C 0.75164 0.72727 0.77906 0.0
C286 C 0.7692 0.76033 0.76313 0.0
C287 C 0.72416 0.70322 0.75961 0.0
C288 C 0.71296 0.7113 0.72346 0.0
H289 H 0.75935 0.71961 0.80677 0.0
H290 H 0.7118 0.678 0.77309 0.0
S291 S 0.74939 0.795 0.66939 0.0
N292 N 0.77281 0.80034 0.70916 0.0
N293 N 0.72113 0.75526 0.6726 0.0
C294 C 0.72995 0.74453 0.70726 0.0
C295 C 0.75807 0.76898 0.72707 0.0
C296 C 0.19318 0.16082 0.9594 0.0
C297 C 0.16424 0.18401 0.94338 0.0
C298 C 0.19762 0.15835 -0.00275 0.0
C299 C 0.17299 0.17864 0.02062 0.0
H300 H 0.21227 0.14394 0.94261 0.0
H301 H 0.21979 0.13948 0.00818 0.0
S302 S 0.09409 0.24513 -0.00748 0.0
N303 N 0.11177 0.22911 0.95387 0.0
N304 N 0.11994 0.22428 0.02504 0.0
C305 C 0.14469 0.20283 0.00501 0.0
C306 C 0.14039 0.20559 0.9664 0.0
C307 C 0.7706 0.14606 0.97722 0.0
C308 C 0.80101 0.15344 0.95152 0.0
C309 C 0.77845 0.15058 0.01471 0.0
C310 C 0.81711 0.16222 0.02784 0.0
H311 H 0.74077 0.13563 0.96848 0.0
H312 H 0.75455 0.14332 0.03353 0.0
S313 S 0.90598 0.18973 0.97216 0.0
N314 N 0.87044 0.17662 0.94216 0.0
N315 N 0.88506 0.18449 0.01237 0.0
C316 C 0.84721 0.1715 0.00249 0.0
C317 C 0.83919 0.16731 0.9644 0.0
C318 C 0.87314 0.86793 0.97664 0.0
C319 C 0.85007 0.83975 0.95724 0.0
C320 C 0.8695 0.87225 0.01427 0.0
C321 C 0.84271 0.84853 0.03417 0.0
H322 H 0.89423 0.88704 0.96273 0.0
H323 H 0.88802 0.89445 0.02777 0.0
S324 S 0.77542 0.77 -0.00356 0.0
N325 N 0.79945 0.7875 0.9608 0.0
N326 N 0.79263 0.7956 0.03164 0.0
C327 C 0.81944 0.82009 0.01519 0.0
C328 C 0.82309 0.81573 0.97673 0.0
C329 C 0.16354 0.80013 0.00671 0.0
C330 C 0.1806 0.82485 0.03361 0.0
C331 C 0.17274 0.80496 0.96988 0.0
C332 C 0.1995 0.83466 0.95838 0.0
H333 H 0.14178 0.77757 0.01387 0.0
H334 H 0.15768 0.78589 0.9502 0.0
S335 S 0.25598 0.90457 0.01853 0.0
N336 N 0.2283 0.87818 0.04654 0.0
N337 N 0.24561 0.88724 0.97743 0.0
C338 C 0.21848 0.85834 0.98522 0.0
C339 C 0.20901 0.85347 0.02277 0.0
C340 C -0.00204 0.21397 0.13333 0.0
C341 C 0.02741 0.19614 0.15442 0.0
C342 C 0.9568 0.20762 0.14006 0.0
C343 C 0.94341 0.18334 0.16828 0.0
H344 H 0.00655 0.23166 0.11038 0.0
H345 H 0.93535 0.22084 0.12206 0.0
S346 S 0.00875 0.13421 0.23473 0.0
N347 N 0.04062 0.15641 0.20711 0.0
N348 N 0.9633 0.14456 0.21988 0.0
C349 C 0.97266 0.16731 0.19107 0.0
C350 C 0.01463 0.17367 0.1841 0.0
C351 C 0.83551 0.99103 0.18182 0.0
C352 C 0.80802 0.96235 0.16858 0.0
C353 C 0.82882 0.02977 0.17634 0.0
C354 C 0.79422 0.04159 0.15756 0.0
H355 H 0.86318 0.9836 0.19561 0.0
H356 H 0.85149 0.05057 0.18639 0.0
S357 S 0.7109 0.978 0.12026 0.0
N358 N 0.74337 0.94853 0.13791 0.0
N359 N 0.73073 0.02142 0.12771 0.0
C360 C 0.76554 0.01332 0.14553 0.0
C361 C 0.77246 0.97373 0.15099 0.0
C362 C 0.97047 0.80098 0.13766 0.0
C363 C 0.94355 0.81983 0.16005 0.0
C364 C 0.01231 0.80675 0.14207 0.0
C365 C 0.029 0.83134 0.16929 0.0
H366 H 0.95923 0.78255 0.11566 0.0
H367 H 0.03168 0.79237 0.12347 0.0
S368 S 0.97163 0.88501 0.23721 0.0
N369 N 0.93659 0.86225 0.21198 0.0
N370 N 0.01518 0.87297 0.22046 0.0
C371 C 0.00246 0.84908 0.19295 0.0
C372 C 0.95978 0.84339 0.18826 0.0
C373 C 0.18952 0.03836 0.13992 0.0
C374 C 0.15898 0.05145 0.16238 0.0
C375 C 0.19678 -0.00061 0.13697 0.0
C376 C 0.17363 0.97185 0.15617 0.0
H377 H 0.20757 0.05827 0.12382 0.0
H378 H 0.21994 0.99082 0.11855 0.0
S379 S 0.09206 0.99119 0.22099 0.0
N380 N 0.10697 0.03376 0.20597 0.0
N381 N 0.12054 0.96056 0.20035 0.0
C382 C 0.14399 0.98459 0.17984 0.0
C383 C 0.13671 0.02435 0.18298 0.0
C384 C -0.00551 0.83929 0.8041 0.0
C385 C 0.96748 0.8115 0.81859 0.0
C386 C 0.03621 0.83708 0.80923 0.0
C387 C 0.0527 0.80684 0.82881 0.0
H388 H 0.98339 0.86379 0.78978 0.0
H389 H 0.05559 0.85982 0.79836 0.0
S390 S -0.00486 0.72447 0.86897 0.0
N391 N 0.96026 0.75116 0.85095 0.0
N392 N 0.03873 0.74688 0.86045 0.0
C393 C 0.02614 0.77781 0.8419 0.0
C394 C 0.98355 0.78018 0.83684 0.0
C395 C 0.16676 0.9808 0.79247 0.0
C396 C 0.19153 0.95759 0.81354 0.0
C397 C 0.16929 0.02064 0.79605 0.0
C398 C 0.19698 0.03892 0.82056 0.0
H399 H 0.14399 0.96815 0.77412 0.0
H400 H 0.14854 0.03714 0.78011 0.0
S401 S 0.27209 0.99123 0.87888 0.0
N402 N 0.24708 0.95583 0.8575 0.0
N403 N 0.2521 0.03075 0.86406 0.0
C404 C 0.22358 0.01615 0.84027 0.0
C405 C 0.22076 0.9755 0.83682 0.0
C406 C 0.00142 0.12768 0.79439 0.0
C407 C 0.03037 0.15373 0.80985 0.0
C408 C 0.96017 0.13096 0.80064 0.0
C409 C 0.9461 0.16048 0.82259 0.0
H410 H 0.01065 0.10371 0.77827 0.0
H411 H 0.93931 0.10943 0.78898 0.0
S412 S 0.00918 0.23871 0.8662 0.0
N413 N 0.04178 0.212 0.84565 0.0
N414 N 0.96435 0.21814 0.85742 0.0
C415 C 0.97456 0.18788 0.83673 0.0
C416 C 0.01662 0.18453 0.83036 0.0
C417 C 0.78585 0.95387 0.85076 0.0
C418 C 0.80719 0.92884 0.82898 0.0
C419 C 0.788 -0.00665 0.84474 0.0
C420 C 0.81126 0.00936 0.81647 0.0
H421 H 0.76844 0.94313 0.87352 0.0
H422 H 0.77195 0.0115 0.86298 0.0
S423 S 0.86956 0.9556 0.7493 0.0
N424 N 0.84996 0.92244 0.77633 0.0
N425 N 0.85385 -0.00341 0.7648 0.0
C426 C 0.8312 0.98443 0.79335 0.0
C427 C 0.82924 0.9442 0.79968 0.0
C428 C 0.69169 0.65558 0.46876 0.0
C429 C 0.66357 0.68001 0.45326 0.0
C430 C 0.69572 0.65182 0.50654 0.0
C431 C 0.67146 0.67201 0.53027 0.0
H432 H 0.71012 0.63843 0.45159 0.0
H433 H 0.7169 0.63176 0.51709 0.0
S434 S 0.59603 0.74256 0.50384 0.0
N435 N 0.61324 0.72701 0.46482 0.0
N436 N 0.62063 0.71966 0.53583 0.0
C437 C 0.64452 0.69786 0.51527 0.0
C438 C 0.64066 0.70197 0.47677 0.0
C439 C 0.26095 0.65442 0.50552 0.0
C440 C 0.28862 0.68288 0.51902 0.0
C441 C 0.2559 0.64769 0.46808 0.0
C442 C 0.2784 0.66905 0.44252 0.0
H443 H 0.24405 0.63606 0.524 0.0
H444 H 0.23539 0.62442 0.4593 0.0
S445 S 0.35059 0.75058 0.46324 0.0
N446 N 0.33567 0.73536 0.5035 0.0
N447 N 0.32626 0.72263 0.43317 0.0
C448 C 0.30431 0.69919 0.45547 0.0
C449 C 0.30938 0.70614 0.49367 0.0
C450 C 0.29763 0.32476 0.46579 0.0
C451 C 0.32715 0.30074 0.45271 0.0
C452 C 0.29142 0.32903 0.50311 0.0
C453 C 0.31478 0.30978 0.52886 0.0
H454 H 0.27979 0.34122 0.44709 0.0
H455 H 0.26928 0.34889 0.51176 0.0
S456 S 0.39333 0.24064 0.50883 0.0
N457 N 0.37789 0.25513 0.46844 0.0
N458 N 0.36638 0.26339 0.5387 0.0
C459 C 0.34304 0.28421 0.51617 0.0
C460 C 0.34916 0.27961 0.47807 0.0
C461 C 0.72344 0.34851 0.49184 0.0
C462 C 0.70389 0.32572 0.4647 0.0
C463 C 0.71647 0.34195 0.52884 0.0
C464 C 0.68976 0.3122 0.54032 0.0
H465 H 0.74326 0.37256 0.48454 0.0
H466 H 0.73131 0.36118 0.54851 0.0
S467 S 0.63463 0.24136 0.48019 0.0
N468 N 0.65935 0.27004 0.45195 0.0
N469 N 0.6463 0.25763 0.52143 0.0
C470 C 0.67167 0.28787 0.51353 0.0
C471 C 0.67868 0.29466 0.47578 0.0
C472 C 0.48726 0.69242 0.62836 0.0
C473 C 0.51436 0.67183 0.64968 0.0
C474 C 0.44547 0.68609 0.6312 0.0
C475 C 0.42898 0.65905 0.65565 0.0
H476 H 0.4983 0.71298 0.60854 0.0
H477 H 0.42602 0.70221 0.61361 0.0
S478 S 0.48685 0.5995 0.71969 0.0
N479 N 0.52169 0.62465 0.69754 0.0
N480 N 0.44318 0.61282 0.703 0.0
C481 C 0.4557 0.63914 0.67807 0.0
C482 C 0.49834 0.6455 0.67505 0.0
C483 C 0.29945 0.51991 0.66301 0.0
C484 C 0.30571 0.53331 0.62738 0.0
C485 C 0.30151 0.481 0.67133 0.0
C486 C 0.30989 0.454 0.64433 0.0
H487 H 0.29391 0.5397 0.68493 0.0
H488 H 0.29744 0.47222 0.69931 0.0
S489 S 0.32419 0.47379 0.54594 0.0
N490 N 0.31756 0.51607 0.56435 0.0
N491 N 0.32132 0.4431 0.57984 0.0
C492 C 0.31468 0.46686 0.6083 0.0
C493 C 0.31262 0.50644 0.59987 0.0
C494 C 0.51878 0.33694 0.69414 0.0
C495 C 0.5464 0.31586 0.67455 0.0
C496 C 0.47714 0.33159 0.68805 0.0
C497 C 0.46143 0.30464 0.66244 0.0
H498 H 0.52935 0.35895 0.71324 0.0
H499 H 0.45718 0.34953 0.70285 0.0
S500 S 0.52094 0.23892 0.60718 0.0
N501 N 0.55512 0.26468 0.63078 0.0
N502 N 0.47685 0.25435 0.6195 0.0
C503 C 0.48865 0.28175 0.64423 0.0
C504 C 0.53112 0.28747 0.6502 0.0
C505 C 0.64327 0.5082 0.6846 0.0
C506 C 0.66346 0.53752 0.66513 0.0
C507 C 0.65415 0.47017 0.68149 0.0
C508 C 0.68577 0.45981 0.65884 0.0
H509 H 0.61802 0.51438 0.70167 0.0
H510 H 0.63681 0.44863 0.69633 0.0
S511 S 0.751 0.52632 0.60475 0.0
N512 N 0.71867 0.55402 0.6244 0.0
N513 N 0.73912 0.48256 0.61857 0.0
C514 C 0.70748 0.48908 0.64047 0.0
C515 C 0.69632 0.52789 0.64359 0.0
C516 C 0.4823 0.30028 0.34601 0.0
C517 C 0.46896 0.32847 0.32196 0.0
C518 C 0.52345 0.29539 0.35248 0.0
C519 C 0.55304 0.31859 0.3353 0.0
H520 H 0.46081 0.28223 0.36064 0.0
H521 H 0.53199 0.27387 0.37188 0.0
S522 S 0.5343 0.39477 0.26772 0.0
N523 N 0.48885 0.37853 0.27923 0.0
N524 N 0.56617 0.36939 0.29141 0.0
C525 C 0.54021 0.346 0.31014 0.0
C526 C 0.49823 0.35091 0.30345 0.0
C527 C 0.7188 0.47508 0.34723 0.0
C528 C 0.69596 0.45646 0.31925 0.0
C529 C 0.71967 0.51491 0.35109 0.0
C530 C 0.69741 0.53772 0.32735 0.0
H531 H 0.73515 0.45872 0.36711 0.0
H532 H 0.73647 0.52765 0.37393 0.0
S533 S 0.63663 0.50368 0.24694 0.0
N534 N 0.65354 0.46439 0.26527 0.0
N535 N 0.65499 0.53918 0.27278 0.0
C536 C 0.6763 0.51974 0.29802 0.0
C537 C 0.67565 0.47915 0.29389 0.0
C538 C 0.50784 0.65038 0.35599 0.0
C539 C 0.52301 0.653 0.32046 0.0
C540 C 0.46637 0.64901 0.36233 0.0
C541 C 0.43814 0.65049 0.33348 0.0
H542 H 0.5281 0.64889 0.37932 0.0
H543 H 0.45645 0.64666 0.39021 0.0
S544 S 0.46171 0.65822 0.23526 0.0
N545 N 0.50626 0.65764 0.25591 0.0
N546 N 0.42813 0.65526 0.26791 0.0
C547 C 0.4527 0.65377 0.29779 0.0
C548 C 0.49513 0.65493 0.29127 0.0
C549 C 0.28354 0.47151 0.34622 0.0
C550 C 0.30756 0.4471 0.32623 0.0
C551 C 0.28479 0.51096 0.33998 0.0
C552 C 0.30982 0.52759 0.31326 0.0
H553 H 0.26444 0.46031 0.36766 0.0
H554 H 0.26642 0.52859 0.35674 0.0
S555 S 0.37619 0.47568 0.25131 0.0
N556 N 0.35536 0.44202 0.27707 0.0
N557 N 0.35758 0.51609 0.26518 0.0
C558 C 0.33283 0.50329 0.29205 0.0
C559 C 0.33175 0.4631 0.29859 0.0
loop_
_geom_bond_atom_site_label_1
_geom_bond_atom_site_label_2
_geom_bond_distance
_geom_bond_site_symmetry_2
_ccdc_geom_bond_type
C0 O1 1.160 . S
C0 O7 1.185 . S
O1 C0 1.160 . S
O2 Zn3 1.899 . S
O2 C10 1.284 . S
Zn3 O2 1.899 . S
Zn3 O4 2.032 . S
Zn3 O7 2.086 . S
Zn3 O12 1.977 . S
O4 Zn3 2.032 . S
O4 C8 1.278 . S
C5 O6 1.203 . S
C5 O12 1.267 . S
O6 C5 1.203 . S
O7 C0 1.185 . S
O7 Zn3 2.086 . S
C8 O4 1.278 . S
C8 O9 1.211 . S
O9 C8 1.211 . S
C10 O2 1.284 . S
C10 O11 1.273 . S
O11 C10 1.273 . S
O12 Zn3 1.977 . S
O12 C5 1.267 . S
C13 O14 1.160 . S
C13 O20 1.185 . S
O14 C13 1.160 . S
O15 Zn16 1.899 . S
O15 C23 1.284 . S
Zn16 O15 1.899 . S
Zn16 O17 2.032 . S
Zn16 O20 2.086 . S
Zn16 O25 1.977 . S
O17 Zn16 2.032 . S
O17 C21 1.278 . S
C18 O19 1.203 . S
C18 O25 1.267 . S
O19 C18 1.203 . S
O20 C13 1.185 . S
O20 Zn16 2.086 . S
C21 O17 1.278 . S
C21 O22 1.211 . S
O22 C21 1.211 . S
C23 O15 1.284 . S
C23 O24 1.273 . S
O24 C23 1.273 . S
O25 Zn16 1.977 . S
O25 C18 1.267 . S
C26 O27 1.160 . S
C26 O33 1.185 . S
O27 C26 1.160 . S
O28 Zn29 1.899 . S
O28 C36 1.284 . S
Zn29 O28 1.899 . S
Zn29 O30 2.032 . S
Zn29 O33 2.086 . S
Zn29 O38 1.977 . S
O30 Zn29 2.032 . S
O30 C34 1.278 . S
C31 O32 1.203 . S
C31 O38 1.267 . S
O32 C31 1.203 . S
O33 C26 1.185 . S
O33 Zn29 2.086 . S
C34 O30 1.278 . S
C34 O35 1.211 . S
O35 C34 1.211 . S
C36 O28 1.284 . S
C36 O37 1.273 . S
O37 C36 1.273 . S
O38 Zn29 1.977 . S
O38 C31 1.267 . S
C39 O40 1.160 . S
C39 O46 1.185 . S
O40 C39 1.160 . S
O41 Zn42 1.899 . S
O41 C49 1.284 . S
Zn42 O41 1.899 . S
Zn42 O43 2.032 . S
Zn42 O46 2.086 . S
Zn42 O51 1.977 . S
O43 Zn42 2.032 . S
O43 C47 1.278 . S
C44 O45 1.203 . S
C44 O51 1.267 . S
O45 C44 1.203 . S
O46 C39 1.185 . S
O46 Zn42 2.086 . S
C47 O43 1.278 . S
C47 O48 1.211 . S
O48 C47 1.211 . S
C49 O41 1.284 . S
C49 O50 1.273 . S
O50 C49 1.273 . S
O51 Zn42 1.977 . S
O51 C44 1.267 . S
C52 O53 1.160 . S
C52 O59 1.185 . S
O53 C52 1.160 . S
O54 Zn55 1.899 . S
O54 C62 1.284 . S
Zn55 O54 1.899 . S
Zn55 O56 2.032 . S
Zn55 O59 2.086 . S
Zn55 O64 1.977 . S
O56 Zn55 2.032 . S
O56 C60 1.278 . S
C57 O58 1.203 . S
C57 O64 1.267 . S
O58 C57 1.203 . S
O59 C52 1.185 . S
O59 Zn55 2.086 . S
C60 O56 1.278 . S
C60 O61 1.211 . S
O61 C60 1.211 . S
C62 O54 1.284 . S
C62 O63 1.273 . S
O63 C62 1.273 . S
O64 Zn55 1.977 . S
O64 C57 1.267 . S
C65 O66 1.160 . S
C65 O72 1.185 . S
O66 C65 1.160 . S
O67 Zn68 1.899 . S
O67 C75 1.284 . S
Zn68 O67 1.899 . S
Zn68 O69 2.032 . S
Zn68 O72 2.086 . S
Zn68 O77 1.977 . S
O69 Zn68 2.032 . S
O69 C73 1.278 . S
C70 O71 1.203 . S
C70 O77 1.267 . S
O71 C70 1.203 . S
O72 C65 1.185 . S
O72 Zn68 2.086 . S
C73 O69 1.278 . S
C73 O74 1.211 . S
O74 C73 1.211 . S
C75 O67 1.284 . S
C75 O76 1.273 . S
O76 C75 1.273 . S
O77 Zn68 1.977 . S
O77 C70 1.267 . S
C78 O79 1.160 . S
C78 O85 1.185 . S
O79 C78 1.160 . S
O80 Zn81 1.899 . S
O80 C88 1.284 . S
Zn81 O80 1.899 . S
Zn81 O82 2.032 . S
Zn81 O85 2.086 . S
Zn81 O90 1.977 . S
O82 Zn81 2.032 . S
O82 C86 1.278 . S
C83 O84 1.203 . S
C83 O90 1.267 . S
O84 C83 1.203 . S
O85 C78 1.185 . S
O85 Zn81 2.086 . S
C86 O82 1.278 . S
C86 O87 1.211 . S
O87 C86 1.211 . S
C88 O80 1.284 . S
C88 O89 1.273 . S
O89 C88 1.273 . S
O90 Zn81 1.977 . S
O90 C83 1.267 . S
C91 O92 1.160 . S
C91 O98 1.185 . S
O92 C91 1.160 . S
O93 Zn94 1.899 . S
O93 C101 1.284 . S
Zn94 O93 1.899 . S
Zn94 O95 2.032 . S
Zn94 O98 2.086 . S
Zn94 O103 1.977 . S
O95 Zn94 2.032 . S
O95 C99 1.278 . S
C96 O97 1.203 . S
C96 O103 1.267 . S
O97 C96 1.203 . S
O98 C91 1.185 . S
O98 Zn94 2.086 . S
C99 O95 1.278 . S
C99 O100 1.211 . S
O100 C99 1.211 . S
C101 O93 1.284 . S
C101 O102 1.273 . S
O102 C101 1.273 . S
O103 Zn94 1.977 . S
O103 C96 1.267 . S
C104 O105 1.160 . S
C104 O111 1.185 . S
O105 C104 1.160 . S
O106 Zn107 1.899 . S
O106 C114 1.284 . S
Zn107 O106 1.899 . S
Zn107 O108 2.032 . S
Zn107 O111 2.086 . S
Zn107 O116 1.977 . S
O108 Zn107 2.032 . S
O108 C112 1.278 . S
C109 O110 1.203 . S
C109 O116 1.267 . S
O110 C109 1.203 . S
O111 C104 1.185 . S
O111 Zn107 2.086 . S
C112 O108 1.278 . S
C112 O113 1.211 . S
O113 C112 1.211 . S
C114 O106 1.284 . S
C114 O115 1.273 . S
O115 C114 1.273 . S
O116 Zn107 1.977 . S
O116 C109 1.267 . S
C117 O118 1.160 . S
C117 O124 1.185 . S
O118 C117 1.160 . S
O119 Zn120 1.899 . S
O119 C127 1.284 . S
Zn120 O119 1.899 . S
Zn120 O121 2.032 . S
Zn120 O124 2.086 . S
Zn120 O129 1.977 . S
O121 Zn120 2.032 . S
O121 C125 1.278 . S
C122 O123 1.203 . S
C122 O129 1.267 . S
O123 C122 1.203 . S
O124 C117 1.185 . S
O124 Zn120 2.086 . S
C125 O121 1.278 . S
C125 O126 1.211 . S
O126 C125 1.211 . S
C127 O119 1.284 . S
C127 O128 1.273 . S
O128 C127 1.273 . S
O129 Zn120 1.977 . S
O129 C122 1.267 . S
C130 O131 1.160 . S
C130 O137 1.185 . S
O131 C130 1.160 . S
O132 Zn133 1.899 . S
O132 C140 1.284 . S
Zn133 O132 1.899 . S
Zn133 O134 2.032 . S
Zn133 O137 2.086 . S
Zn133 O142 1.977 . S
O134 Zn133 2.032 . S
O134 C138 1.278 . S
C135 O136 1.203 . S
C135 O142 1.267 . S
O136 C135 1.203 . S
O137 C130 1.185 . S
O137 Zn133 2.086 . S
C138 O134 1.278 . S
C138 O139 1.211 . S
O139 C138 1.211 . S
C140 O132 1.284 . S
C140 O141 1.273 . S
O141 C140 1.273 . S
O142 Zn133 1.977 . S
O142 C135 1.267 . S
C143 O144 1.160 . S
C143 O150 1.185 . S
O144 C143 1.160 . S
O145 Zn146 1.899 . S
O145 C153 1.284 . S
Zn146 O145 1.899 . S
Zn146 O147 2.032 . S
Zn146 O150 2.086 . S
Zn146 O155 1.977 . S
O147 Zn146 2.032 . S
O147 C151 1.278 . S
C148 O149 1.203 . S
C148 O155 1.267 . S
O149 C148 1.203 . S
O150 C143 1.185 . S
O150 Zn146 2.086 . S
C151 O147 1.278 . S
C151 O152 1.211 . S
O152 C151 1.211 . S
C153 O145 1.284 . S
C153 O154 1.273 . S
O154 C153 1.273 . S
O155 Zn146 1.977 . S
O155 C148 1.267 . S
C156 O157 1.160 . S
C156 O163 1.185 . S
O157 C156 1.160 . S
O158 Zn159 1.899 . S
O158 C166 1.284 . S
Zn159 O158 1.899 . S
Zn159 O160 2.032 . S
Zn159 O163 2.086 . S
Zn159 O168 1.977 . S
O160 Zn159 2.032 . S
O160 C164 1.278 . S
C161 O162 1.203 . S
C161 O168 1.267 . S
O162 C161 1.203 . S
O163 C156 1.185 . S
O163 Zn159 2.086 . S
C164 O160 1.278 . S
C164 O165 1.211 . S
O165 C164 1.211 . S
C166 O158 1.284 . S
C166 O167 1.273 . S
O167 C166 1.273 . S
O168 Zn159 1.977 . S
O168 C161 1.267 . S
C169 O170 1.160 . S
C169 O176 1.185 . S
O170 C169 1.160 . S
O171 Zn172 1.899 . S
O171 C179 1.284 . S
Zn172 O171 1.899 . S
Zn172 O173 2.032 . S
Zn172 O176 2.086 . S
Zn172 O181 1.977 . S
O173 Zn172 2.032 . S
O173 C177 1.278 . S
C174 O175 1.203 . S
C174 O181 1.267 . S
O175 C174 1.203 . S
O176 C169 1.185 . S
O176 Zn172 2.086 . S
C177 O173 1.278 . S
C177 O178 1.211 . S
O178 C177 1.211 . S
C179 O171 1.284 . S
C179 O180 1.273 . S
O180 C179 1.273 . S
O181 Zn172 1.977 . S
O181 C174 1.267 . S
C182 O183 1.160 . S
C182 O189 1.185 . S
O183 C182 1.160 . S
O184 Zn185 1.899 . S
O184 C192 1.284 . S
Zn185 O184 1.899 . S
Zn185 O186 2.032 . S
Zn185 O189 2.086 . S
Zn185 O194 1.977 . S
O186 Zn185 2.032 . S
O186 C190 1.278 . S
C187 O188 1.203 . S
C187 O194 1.267 . S
O188 C187 1.203 . S
O189 C182 1.185 . S
O189 Zn185 2.086 . S
C190 O186 1.278 . S
C190 O191 1.211 . S
O191 C190 1.211 . S
C192 O184 1.284 . S
C192 O193 1.273 . S
O193 C192 1.273 . S
O194 Zn185 1.977 . S
O194 C187 1.267 . S
C195 O196 1.160 . S
C195 O202 1.185 . S
O196 C195 1.160 . S
O197 Zn198 1.899 . S
O197 C205 1.284 . S
Zn198 O197 1.899 . S
Zn198 O199 2.032 . S
Zn198 O202 2.086 . S
Zn198 O207 1.977 . S
O199 Zn198 2.032 . S
O199 C203 1.278 . S
C200 O201 1.203 . S
C200 O207 1.267 . S
O201 C200 1.203 . S
O202 C195 1.185 . S
O202 Zn198 2.086 . S
C203 O199 1.278 . S
C203 O204 1.211 . S
O204 C203 1.211 . S
C205 O197 1.284 . S
C205 O206 1.273 . S
O206 C205 1.273 . S
O207 Zn198 1.977 . S
O207 C200 1.267 . S
C208 C209 1.369 . S
C208 C210 1.419 . S
C208 H212 0.930 . S
C209 C208 1.369 . S
C209 C218 1.429 . S
C210 C208 1.419 . S
C210 C211 1.363 . S
C210 H213 0.929 . S
C211 C210 1.363 . S
C211 C217 1.428 . S
H212 C208 0.930 . S
H213 C210 0.929 . S
S214 N215 1.613 . S
S214 N216 1.610 . S
N215 S214 1.613 . S
N215 C218 1.350 . S
N216 S214 1.610 . S
N216 C217 1.351 . S
C217 C211 1.428 . S
C217 N216 1.351 . S
C217 C218 1.434 . S
C218 C209 1.429 . S
C218 N215 1.350 . S
C218 C217 1.434 . S
C219 C220 1.369 . S
C219 C221 1.419 . S
C219 H223 0.930 . S
C220 C219 1.369 . S
C220 C229 1.429 . S
C221 C219 1.419 . S
C221 C222 1.363 . S
C221 H224 0.929 . S
C222 C221 1.363 . S
C222 C228 1.428 . S
H223 C219 0.930 . S
H224 C221 0.929 . S
S225 N226 1.613 . S
S225 N227 1.610 . S
N226 S225 1.613 . S
N226 C229 1.350 . S
N227 S225 1.610 . S
N227 C228 1.351 . S
C228 C222 1.428 . S
C228 N227 1.351 . S
C228 C229 1.434 . S
C229 C220 1.429 . S
C229 N226 1.350 . S
C229 C228 1.434 . S
C230 C231 1.369 . S
C230 C232 1.419 . S
C230 H234 0.930 . S
C231 C230 1.369 . S
C231 C240 1.429 . S
C232 C230 1.419 . S
C232 C233 1.363 . S
C232 H235 0.929 . S
C233 C232 1.363 . S
C233 C239 1.428 . S
H234 C230 0.930 . S
H235 C232 0.929 . S
S236 N237 1.613 . S
S236 N238 1.610 . S
N237 S236 1.613 . S
N237 C240 1.350 . S
N238 S236 1.610 . S
N238 C239 1.351 . S
C239 C233 1.428 . S
C239 N238 1.351 . S
C239 C240 1.434 . S
C240 C231 1.429 . S
C240 N237 1.350 . S
C240 C239 1.434 . S
C241 C242 1.369 . S
C241 C243 1.419 . S
C241 H245 0.930 . S
C242 C241 1.369 . S
C242 C251 1.429 . S
C243 C241 1.419 . S
C243 C244 1.363 . S
C243 H246 0.929 . S
C244 C243 1.363 . S
C244 C250 1.428 . S
H245 C241 0.930 . S
H246 C243 0.929 . S
S247 N248 1.613 . S
S247 N249 1.610 . S
N248 S247 1.613 . S
N248 C251 1.350 . S
N249 S247 1.610 . S
N249 C250 1.351 . S
C250 C244 1.428 . S
C250 N249 1.351 . S
C250 C251 1.434 . S
C251 C242 1.429 . S
C251 N248 1.350 . S
C251 C250 1.434 . S
C252 C253 1.369 . S
C252 C254 1.419 . S
C252 H256 0.930 . S
C253 C252 1.369 . S
C253 C262 1.429 . S
C254 C252 1.419 . S
C254 C255 1.363 . S
C254 H257 0.929 . S
C255 C254 1.363 . S
C255 C261 1.428 . S
H256 C252 0.930 . S
H257 C254 0.929 . S
S258 N259 1.613 . S
S258 N260 1.610 . S
N259 S258 1.613 . S
N259 C262 1.350 . S
N260 S258 1.610 . S
N260 C261 1.351 . S
C261 C255 1.428 . S
C261 N260 1.351 . S
C261 C262 1.434 . S
C262 C253 1.429 . S
C262 N259 1.350 . S
C262 C261 1.434 . S
C263 C264 1.369 . S
C263 C265 1.419 . S
C263 H267 0.930 . S
C264 C263 1.369 . S
C264 C273 1.429 . S
C265 C263 1.419 . S
C265 C266 1.363 . S
C265 H268 0.929 . S
C266 C265 1.363 . S
C266 C272 1.428 . S
H267 C263 0.930 . S
H268 C265 0.929 . S
S269 N270 1.613 . S
S269 N271 1.610 . S
N270 S269 1.613 . S
N270 C273 1.350 . S
N271 S269 1.610 . S
N271 C272 1.351 . S
C272 C266 1.428 . S
C272 N271 1.351 . S
C272 C273 1.434 . S
C273 C264 1.429 . S
C273 N270 1.350 . S
C273 C272 1.434 . S
C274 C275 1.369 . S
C274 C276 1.419 . S
C274 H278 0.930 . S
C275 C274 1.369 . S
C275 C284 1.429 . S
C276 C274 1.419 . S
C276 C277 1.363 . S
C276 H279 0.929 . S
C277 C276 1.363 . S
C277 C283 1.428 . S
H278 C274 0.930 . S
H279 C276 0.929 . S
S280 N281 1.613 . S
S280 N282 1.610 . S
N281 S280 1.613 . S
N281 C284 1.350 . S
N282 S280 1.610 . S
N282 C283 1.351 . S
C283 C277 1.428 . S
C283 N282 1.351 . S
C283 C284 1.434 . S
C284 C275 1.429 . S
C284 N281 1.350 . S
C284 C283 1.434 . S
C285 C286 1.369 . S
C285 C287 1.419 . S
C285 H289 0.930 . S
C286 C285 1.369 . S
C286 C295 1.429 . S
C287 C285 1.419 . S
C287 C288 1.363 . S
C287 H290 0.929 . S
C288 C287 1.363 . S
C288 C294 1.428 . S
H289 C285 0.930 . S
H290 C287 0.929 . S
S291 N292 1.613 . S
S291 N293 1.610 . S
N292 S291 1.613 . S
N292 C295 1.350 . S
N293 S291 1.610 . S
N293 C294 1.351 . S
C294 C288 1.428 . S
C294 N293 1.351 . S
C294 C295 1.434 . S
C295 C286 1.429 . S
C295 N292 1.350 . S
C295 C294 1.434 . S
C296 C297 1.369 . S
C296 C298 1.419 1_556 S
C296 H300 0.930 . S
C297 C296 1.369 . S
C297 C306 1.429 . S
C298 C296 1.419 1_554 S
C298 C299 1.363 . S
C298 H301 0.929 . S
C299 C298 1.363 . S
C299 C305 1.428 . S
H300 C296 0.930 . S
H301 C298 0.929 . S
S302 N303 1.613 . S
S302 N304 1.610 1_556 S
N303 S302 1.613 . S
N303 C306 1.350 . S
N304 S302 1.610 1_554 S
N304 C305 1.351 . S
C305 C299 1.428 . S
C305 N304 1.351 . S
C305 C306 1.434 1_554 S
C306 C297 1.429 . S
C306 N303 1.350 . S
C306 C305 1.434 1_556 S
C307 C308 1.369 . S
C307 C309 1.419 1_556 S
C307 H311 0.930 . S
C308 C307 1.369 . S
C308 C317 1.429 . S
C309 C307 1.419 1_554 S
C309 C310 1.363 . S
C309 H312 0.929 . S
C310 C309 1.363 . S
C310 C316 1.428 . S
H311 C307 0.930 . S
H312 C309 0.929 . S
S313 N314 1.613 . S
S313 N315 1.610 1_556 S
N314 S313 1.613 . S
N314 C317 1.350 . S
N315 S313 1.610 1_554 S
N315 C316 1.351 . S
C316 C310 1.428 . S
C316 N315 1.351 . S
C316 C317 1.434 1_554 S
C317 C308 1.429 . S
C317 N314 1.350 . S
C317 C316 1.434 1_556 S
C318 C319 1.369 . S
C318 C320 1.419 1_556 S
C318 H322 0.930 . S
C319 C318 1.369 . S
C319 C328 1.429 . S
C320 C318 1.419 1_554 S
C320 C321 1.363 . S
C320 H323 0.929 . S
C321 C320 1.363 . S
C321 C327 1.428 . S
H322 C318 0.930 . S
H323 C320 0.929 . S
S324 N325 1.613 1_554 S
S324 N326 1.610 . S
N325 S324 1.613 1_556 S
N325 C328 1.350 . S
N326 S324 1.610 . S
N326 C327 1.351 . S
C327 C321 1.428 . S
C327 N326 1.351 . S
C327 C328 1.434 1_554 S
C328 C319 1.429 . S
C328 N325 1.350 . S
C328 C327 1.434 1_556 S
C329 C330 1.369 . S
C329 C331 1.419 1_554 S
C329 H333 0.930 . S
C330 C329 1.369 . S
C330 C339 1.429 . S
C331 C329 1.419 1_556 S
C331 C332 1.363 . S
C331 H334 0.929 . S
C332 C331 1.363 . S
C332 C338 1.428 . S
H333 C329 0.930 . S
H334 C331 0.929 . S
S335 N336 1.590 1_556 S
S335 N337 1.632 . S
N336 S335 1.590 1_554 S
N336 C339 1.350 . S
N337 S335 1.632 . S
N337 C338 1.351 . S
C338 C332 1.428 . S
C338 N337 1.351 . S
C338 C339 1.434 1_556 S
C339 C330 1.429 . S
C339 N336 1.350 . S
C339 C338 1.434 1_554 S
C340 C341 1.369 . S
C340 C342 1.419 1_455 S
C340 H344 0.930 . S
C341 C340 1.369 . S
C341 C350 1.429 . S
C342 C340 1.419 1_655 S
C342 C343 1.363 . S
C342 H345 0.929 . S
C343 C342 1.363 . S
C343 C349 1.428 . S
H344 C340 0.930 . S
H345 C342 0.929 . S
S346 N347 1.613 1_655 S
S346 N348 1.610 . S
N347 S346 1.613 1_455 S
N347 C350 1.350 . S
N348 S346 1.610 . S
N348 C349 1.351 . S
C349 C343 1.428 . S
C349 N348 1.351 . S
C349 C350 1.434 1_655 S
C350 C341 1.429 . S
C350 N347 1.350 . S
C350 C349 1.434 1_455 S
C351 C352 1.369 . S
C351 C353 1.419 1_565 S
C351 H355 0.930 . S
C352 C351 1.369 . S
C352 C361 1.429 . S
C353 C351 1.419 1_545 S
C353 C354 1.363 . S
C353 H356 0.929 . S
C354 C353 1.363 . S
C354 C360 1.428 . S
H355 C351 0.930 . S
H356 C353 0.929 . S
S357 N358 1.613 . S
S357 N359 1.610 1_565 S
N358 S357 1.613 . S
N358 C361 1.350 . S
N359 S357 1.610 1_545 S
N359 C360 1.351 . S
C360 C354 1.428 . S
C360 N359 1.351 . S
C360 C361 1.434 1_545 S
C361 C352 1.429 . S
C361 N358 1.350 . S
C361 C360 1.434 1_565 S
C362 C363 1.369 . S
C362 C364 1.419 1_655 S
C362 H366 0.930 . S
C363 C362 1.369 . S
C363 C372 1.429 . S
C364 C362 1.419 1_455 S
C364 C365 1.363 . S
C364 H367 0.929 . S
C365 C364 1.363 . S
C365 C371 1.428 . S
H366 C362 0.930 . S
H367 C364 0.929 . S
S368 N369 1.613 1_455 S
S368 N370 1.610 . S
N369 S368 1.613 1_655 S
N369 C372 1.350 . S
N370 S368 1.610 . S
N370 C371 1.351 . S
C371 C365 1.428 . S
C371 N370 1.351 . S
C371 C372 1.434 1_455 S
C372 C363 1.429 . S
C372 N369 1.350 . S
C372 C371 1.434 1_655 S
C373 C374 1.369 . S
C373 C375 1.419 1_545 S
C373 H377 0.930 . S
C374 C373 1.369 . S
C374 C383 1.429 . S
C375 C373 1.419 1_565 S
C375 C376 1.363 . S
C375 H378 0.929 . S
C376 C375 1.363 . S
C376 C382 1.428 . S
H377 C373 0.930 . S
H378 C375 0.929 . S
S379 N380 1.630 . S
S379 N381 1.595 1_545 S
N380 S379 1.630 . S
N380 C383 1.350 . S
N381 S379 1.595 1_565 S
N381 C382 1.351 . S
C382 C376 1.428 . S
C382 N381 1.351 . S
C382 C383 1.434 1_565 S
C383 C374 1.429 . S
C383 N380 1.350 . S
C383 C382 1.434 1_545 S
C384 C385 1.369 . S
C384 C386 1.419 1_655 S
C384 H388 0.930 . S
C385 C384 1.369 . S
C385 C394 1.429 . S
C386 C384 1.419 1_455 S
C386 C387 1.363 . S
C386 H389 0.929 . S
C387 C386 1.363 . S
C387 C393 1.428 . S
H388 C384 0.930 . S
H389 C386 0.929 . S
S390 N391 1.613 1_455 S
S390 N392 1.610 . S
N391 S390 1.613 1_655 S
N391 C394 1.350 . S
N392 S390 1.610 . S
N392 C393 1.351 . S
C393 C387 1.428 . S
C393 N392 1.351 . S
C393 C394 1.434 1_455 S
C394 C385 1.429 . S
C394 N391 1.350 . S
C394 C393 1.434 1_655 S
C395 C396 1.369 . S
C395 C397 1.419 1_565 S
C395 H399 0.930 . S
C396 C395 1.369 . S
C396 C405 1.429 . S
C397 C395 1.419 1_545 S
C397 C398 1.363 . S
C397 H400 0.929 . S
C398 C397 1.363 . S
C398 C404 1.428 . S
H399 C395 0.930 . S
H400 C397 0.929 . S
S401 N402 1.613 1_545 S
S401 N403 1.610 . S
N402 S401 1.613 1_565 S
N402 C405 1.350 . S
N403 S401 1.610 . S
N403 C404 1.351 . S
C404 C398 1.428 . S
C404 N403 1.351 . S
C404 C405 1.434 1_545 S
C405 C396 1.429 . S
C405 N402 1.350 . S
C405 C404 1.434 1_565 S
C406 C407 1.369 . S
C406 C408 1.419 1_455 S
C406 H410 0.930 . S
C407 C406 1.369 . S
C407 C416 1.429 . S
C408 C406 1.419 1_655 S
C408 C409 1.363 . S
C408 H411 0.929 . S
C409 C408 1.363 . S
C409 C415 1.428 . S
H410 C406 0.930 . S
H411 C408 0.929 . S
S412 N413 1.613 1_655 S
S412 N414 1.610 . S
N413 S412 1.613 1_455 S
N413 C416 1.350 . S
N414 S412 1.610 . S
N414 C415 1.351 . S
C415 C409 1.428 . S
C415 N414 1.351 . S
C415 C416 1.434 1_655 S
C416 C407 1.429 . S
C416 N413 1.350 . S
C416 C415 1.434 1_455 S
C417 C418 1.369 . S
C417 C419 1.419 1_565 S
C417 H421 0.930 . S
C418 C417 1.369 . S
C418 C427 1.429 . S
C419 C417 1.419 1_545 S
C419 C420 1.363 . S
C419 H422 0.929 . S
C420 C419 1.363 . S
C420 C426 1.428 . S
H421 C417 0.930 . S
H422 C419 0.929 . S
S423 N424 1.613 . S
S423 N425 1.610 1_565 S
N424 S423 1.613 . S
N424 C427 1.350 . S
N425 S423 1.610 1_545 S
N425 C426 1.351 . S
C426 C420 1.428 . S
C426 N425 1.351 . S
C426 C427 1.434 1_545 S
C427 C418 1.429 . S
C427 N424 1.350 . S
C427 C426 1.434 1_565 S
C428 C429 1.369 . S
C428 C430 1.419 . S
C428 H432 0.930 . S
C429 C428 1.369 . S
C429 C438 1.429 . S
C430 C428 1.419 . S
C430 C431 1.363 . S
C430 H433 0.929 . S
C431 C430 1.363 . S
C431 C437 1.428 . S
H432 C428 0.930 . S
H433 C430 0.929 . S
S434 N435 1.613 . S
S434 N436 1.610 . S
N435 S434 1.613 . S
N435 C438 1.350 . S
N436 S434 1.610 . S
N436 C437 1.351 . S
C437 C431 1.428 . S
C437 N436 1.351 . S
C437 C438 1.434 . S
C438 C429 1.429 . S
C438 N435 1.350 . S
C438 C437 1.434 . S
C439 C440 1.369 . S
C439 C441 1.419 . S
C439 H443 0.930 . S
C440 C439 1.369 . S
C440 C449 1.429 . S
C441 C439 1.419 . S
C441 C442 1.363 . S
C441 H444 0.929 . S
C442 C441 1.363 . S
C442 C448 1.428 . S
H443 C439 0.930 . S
H444 C441 0.929 . S
S445 N446 1.613 . S
S445 N447 1.610 . S
N446 S445 1.613 . S
N446 C449 1.350 . S
N447 S445 1.610 . S
N447 C448 1.351 . S
C448 C442 1.428 . S
C448 N447 1.351 . S
C448 C449 1.434 . S
C449 C440 1.429 . S
C449 N446 1.350 . S
C449 C448 1.434 . S
C450 C451 1.369 . S
C450 C452 1.419 . S
C450 H454 0.930 . S
C451 C450 1.369 . S
C451 C460 1.429 . S
C452 C450 1.419 . S
C452 C453 1.363 . S
C452 H455 0.929 . S
C453 C452 1.363 . S
C453 C459 1.428 . S
H454 C450 0.930 . S
H455 C452 0.929 . S
S456 N457 1.613 . S
S456 N458 1.610 . S
N457 S456 1.613 . S
N457 C460 1.350 . S
N458 S456 1.610 . S
N458 C459 1.351 . S
C459 C453 1.428 . S
C459 N458 1.351 . S
C459 C460 1.434 . S
C460 C451 1.429 . S
C460 N457 1.350 . S
C460 C459 1.434 . S
C461 C462 1.369 . S
C461 C463 1.419 . S
C461 H465 0.930 . S
C462 C461 1.369 . S
C462 C471 1.429 . S
C463 C461 1.419 . S
C463 C464 1.363 . S
C463 H466 0.929 . S
C464 C463 1.363 . S
C464 C470 1.428 . S
H465 C461 0.930 . S
H466 C463 0.929 . S
S467 N468 1.613 . S
S467 N469 1.610 . S
N468 S467 1.613 . S
N468 C471 1.350 . S
N469 S467 1.610 . S
N469 C470 1.351 . S
C470 C464 1.428 . S
C470 N469 1.351 . S
C470 C471 1.434 . S
C471 C462 1.429 . S
C471 N468 1.350 . S
C471 C470 1.434 . S
C472 C473 1.369 . S
C472 C474 1.419 . S
C472 H476 0.930 . S
C473 C472 1.369 . S
C473 C482 1.429 . S
C474 C472 1.419 . S
C474 C475 1.363 . S
C474 H477 0.929 . S
C475 C474 1.363 . S
C475 C481 1.428 . S
H476 C472 0.930 . S
H477 C474 0.929 . S
S478 N479 1.613 . S
S478 N480 1.610 . S
N479 S478 1.613 . S
N479 C482 1.350 . S
N480 S478 1.610 . S
N480 C481 1.351 . S
C481 C475 1.428 . S
C481 N480 1.351 . S
C481 C482 1.434 . S
C482 C473 1.429 . S
C482 N479 1.350 . S
C482 C481 1.434 . S
C483 C484 1.369 . S
C483 C485 1.419 . S
C483 H487 0.930 . S
C484 C483 1.369 . S
C484 C493 1.429 . S
C485 C483 1.419 . S
C485 C486 1.363 . S
C485 H488 0.929 . S
C486 C485 1.363 . S
C486 C492 1.428 . S
H487 C483 0.930 . S
H488 C485 0.929 . S
S489 N490 1.613 . S
S489 N491 1.610 . S
N490 S489 1.613 . S
N490 C493 1.350 . S
N491 S489 1.610 . S
N491 C492 1.351 . S
C492 C486 1.428 . S
C492 N491 1.351 . S
C492 C493 1.434 . S
C493 C484 1.429 . S
C493 N490 1.350 . S
C493 C492 1.434 . S
C494 C495 1.369 . S
C494 C496 1.419 . S
C494 H498 0.930 . S
C495 C494 1.369 . S
C495 C504 1.429 . S
C496 C494 1.419 . S
C496 C497 1.363 . S
C496 H499 0.929 . S
C497 C496 1.363 . S
C497 C503 1.428 . S
H498 C494 0.930 . S
H499 C496 0.929 . S
S500 N501 1.613 . S
S500 N502 1.610 . S
N501 S500 1.613 . S
N501 C504 1.350 . S
N502 S500 1.610 . S
N502 C503 1.351 . S
C503 C497 1.428 . S
C503 N502 1.351 . S
C503 C504 1.434 . S
C504 C495 1.429 . S
C504 N501 1.350 . S
C504 C503 1.434 . S
C505 C506 1.369 . S
C505 C507 1.419 . S
C505 H509 0.930 . S
C506 C505 1.369 . S
C506 C515 1.429 . S
C507 C505 1.419 . S
C507 C508 1.363 . S
C507 H510 0.929 . S
C508 C507 1.363 . S
C508 C514 1.428 . S
H509 C505 0.930 . S
H510 C507 0.929 . S
S511 N512 1.613 . S
S511 N513 1.610 . S
N512 S511 1.613 . S
N512 C515 1.350 . S
N513 S511 1.610 . S
N513 C514 1.351 . S
C514 C508 1.428 . S
C514 N513 1.351 . S
C514 C515 1.434 . S
C515 C506 1.429 . S
C515 N512 1.350 . S
C515 C514 1.434 . S
C516 C517 1.369 . S
C516 C518 1.419 . S
C516 H520 0.930 . S
C517 C516 1.369 . S
C517 C526 1.429 . S
C518 C516 1.419 . S
C518 C519 1.363 . S
C518 H521 0.929 . S
C519 C518 1.363 . S
C519 C525 1.428 . S
H520 C516 0.930 . S
H521 C518 0.929 . S
S522 N523 1.613 . S
S522 N524 1.610 . S
N523 S522 1.613 . S
N523 C526 1.350 . S
N524 S522 1.610 . S
N524 C525 1.351 . S
C525 C519 1.428 . S
C525 N524 1.351 . S
C525 C526 1.434 . S
C526 C517 1.429 . S
C526 N523 1.350 . S
C526 C525 1.434 . S
C527 C528 1.369 . S
C527 C529 1.419 . S
C527 H531 0.930 . S
C528 C527 1.369 . S
C528 C537 1.429 . S
C529 C527 1.419 . S
C529 C530 1.363 . S
C529 H532 0.929 . S
C530 C529 1.363 . S
C530 C536 1.428 . S
H531 C527 0.930 . S
H532 C529 0.929 . S
S533 N534 1.613 . S
S533 N535 1.610 . S
N534 S533 1.613 . S
N534 C537 1.350 . S
N535 S533 1.610 . S
N535 C536 1.351 . S
C536 C530 1.428 . S
C536 N535 1.351 . S
C536 C537 1.434 . S
C537 C528 1.429 . S
C537 N534 1.350 . S
C537 C536 1.434 . S
C538 C539 1.369 . S
C538 C540 1.419 . S
C538 H542 0.930 . S
C539 C538 1.369 . S
C539 C548 1.429 . S
C540 C538 1.419 . S
C540 C541 1.363 . S
C540 H543 0.929 . S
C541 C540 1.363 . S
C541 C547 1.428 . S
H542 C538 0.930 . S
H543 C540 0.929 . S
S544 N545 1.613 . S
S544 N546 1.610 . S
N545 S544 1.613 . S
N545 C548 1.350 . S
N546 S544 1.610 . S
N546 C547 1.351 . S
C547 C541 1.428 . S
C547 N546 1.351 . S
C547 C548 1.434 . S
C548 C539 1.429 . S
C548 N545 1.350 . S
C548 C547 1.434 . S
C549 C550 1.369 . S
C549 C551 1.419 . S
C549 H553 0.930 . S
C550 C549 1.369 . S
C550 C559 1.429 . S
C551 C549 1.419 . S
C551 C552 1.363 . S
C551 H554 0.929 . S
C552 C551 1.363 . S
C552 C558 1.428 . S
H553 C549 0.930 . S
H554 C551 0.929 . S
S555 N556 1.613 . S
S555 N557 1.610 . S
N556 S555 1.613 . S
N556 C559 1.350 . S
N557 S555 1.610 . S
N557 C558 1.351 . S
C558 C552 1.428 . S
C558 N557 1.351 . S
C558 C559 1.434 . S
C559 C550 1.429 . S
C559 N556 1.350 . S
C559 C558 1.434 . S
C209 C195 1.044 . S
C211 C0 1.038 . S
C220 C156 1.177 . S
C222 C13 1.173 . S
C231 C26 1.086 . S
C233 C169 1.080 . S
C242 C182 1.128 . S
C244 C39 1.170 . S
C253 C117 1.179 . S
C255 C52 1.168 . S
C264 C65 1.078 . S
C266 C130 1.088 . S
C275 C78 1.130 . S
C277 C143 1.169 . S
C286 C91 1.046 . S
C288 C104 1.041 . S
C297 C70 1.235 . S
C299 C5 1.229 . S
C308 C86 1.452 . S
C310 C18 1.475 . S
C319 C96 1.335 . S
C321 C31 1.337 . S
C330 C49 1.531 . S
C332 C60 1.468 . S
C341 C8 1.403 . S
C343 C23 1.430 . S
C352 C36 1.548 . S
C354 C21 1.494 . S
C363 C34 1.445 . S
C365 C47 1.449 . S
C374 C10 1.457 . S
C376 C44 1.417 . S
C385 C101 1.441 . S
C387 C62 1.437 . S
C396 C57 1.381 . S
C398 C73 1.353 . S
C407 C75 1.416 . S
C409 C88 1.415 . S
C418 C99 1.315 . S
C420 C83 1.305 . S
C429 C174 1.232 . S
C431 C109 1.227 . S
C440 C122 1.479 . S
C442 C190 1.461 . S
C451 C200 1.329 . S
C453 C135 1.334 . S
C462 C164 1.466 . S
C464 C153 1.531 . S
C473 C112 1.397 . S
C475 C127 1.426 . S
C484 C125 1.488 . S
C486 C140 1.545 . S
C495 C151 1.457 . S
C497 C138 1.446 . S
C506 C114 1.461 . S
C508 C148 1.416 . S
C517 C205 1.437 . S
C519 C166 1.440 . S
C528 C161 1.386 . S
C530 C177 1.361 . S
C539 C179 1.415 . S
C541 C192 1.417 . S
C550 C203 1.315 . S
C552 C187 1.304 . S
