# Generated by pormake.
# Topology vcb, (5)-cn, num edge types: 1
# Building blocks:
#     Node 0, Type 0, BuildingBlock: XOMCOT_clean_sbu_1, # of connection points: 5
#     Node 1, Type 0, BuildingBlock: XOMCOT_clean_sbu_1, # of connection points: 5
#     Node 2, Type 0, BuildingBlock: XOMCOT_clean_sbu_1, # of connection points: 5
#     Node 3, Type 0, BuildingBlock: XOMCOT_clean_sbu_1, # of connection points: 5
#     Node 4, Type 0, BuildingBlock: XOMCOT_clean_sbu_1, # of connection points: 5
#     Node 5, Type 0, BuildingBlock: XOMCOT_clean_sbu_1, # of connection points: 5
#     Node 6, Type 0, BuildingBlock: XOMCOT_clean_sbu_1, # of connection points: 5
#     Node 7, Type 0, BuildingBlock: XOMCOT_clean_sbu_1, # of connection points: 5
#     Node 8, Type 0, BuildingBlock: XOMCOT_clean_sbu_1, # of connection points: 5
#     Node 9, Type 0, BuildingBlock: XOMCOT_clean_sbu_1, # of connection points: 5
#     Node 10, Type 0, BuildingBlock: XOMCOT_clean_sbu_1, # of connection points: 5
#     Node 11, Type 0, BuildingBlock: XOMCOT_clean_sbu_1, # of connection points: 5
#     Node 12, Type 0, BuildingBlock: XOMCOT_clean_sbu_1, # of connection points: 5
#     Node 13, Type 0, BuildingBlock: XOMCOT_clean_sbu_1, # of connection points: 5
#     Node 14, Type 0, BuildingBlock: XOMCOT_clean_sbu_1, # of connection points: 5
#     Node 15, Type 0, BuildingBlock: XOMCOT_clean_sbu_1, # of connection points: 5
#     Node 16, Type 0, BuildingBlock: XOMCOT_clean_sbu_1, # of connection points: 5
#     Node 17, Type 0, BuildingBlock: XOMCOT_clean_sbu_1, # of connection points: 5
#     Node 18, Type 0, BuildingBlock: XOMCOT_clean_sbu_1, # of connection points: 5
#     Node 19, Type 0, BuildingBlock: XOMCOT_clean_sbu_1, # of connection points: 5
#     Node 20, Type 0, BuildingBlock: XOMCOT_clean_sbu_1, # of connection points: 5
#     Node 21, Type 0, BuildingBlock: XOMCOT_clean_sbu_1, # of connection points: 5
#     Node 22, Type 0, BuildingBlock: XOMCOT_clean_sbu_1, # of connection points: 5
#     Node 23, Type 0, BuildingBlock: XOMCOT_clean_sbu_1, # of connection points: 5
#     Node 24, Type 0, BuildingBlock: XOMCOT_clean_sbu_1, # of connection points: 5
#     Node 25, Type 0, BuildingBlock: XOMCOT_clean_sbu_1, # of connection points: 5
#     Node 26, Type 0, BuildingBlock: XOMCOT_clean_sbu_1, # of connection points: 5
#     Node 27, Type 0, BuildingBlock: XOMCOT_clean_sbu_1, # of connection points: 5
#     Node 28, Type 0, BuildingBlock: XOMCOT_clean_sbu_1, # of connection points: 5
#     Node 29, Type 0, BuildingBlock: XOMCOT_clean_sbu_1, # of connection points: 5
#     Node 30, Type 0, BuildingBlock: XOMCOT_clean_sbu_1, # of connection points: 5
#     Node 31, Type 0, BuildingBlock: XOMCOT_clean_sbu_1, # of connection points: 5
#     Edge 32, Type (0, 0), None
#     Edge 33, Type (0, 0), None
#     Edge 34, Type (0, 0), None
#     Edge 35, Type (0, 0), None
#     Edge 36, Type (0, 0), None
#     Edge 37, Type (0, 0), None
#     Edge 38, Type (0, 0), None
#     Edge 39, Type (0, 0), None
#     Edge 40, Type (0, 0), None
#     Edge 41, Type (0, 0), None
#     Edge 42, Type (0, 0), None
#     Edge 43, Type (0, 0), None
#     Edge 44, Type (0, 0), None
#     Edge 45, Type (0, 0), None
#     Edge 46, Type (0, 0), None
#     Edge 47, Type (0, 0), None
#     Edge 48, Type (0, 0), None
#     Edge 49, Type (0, 0), None
#     Edge 50, Type (0, 0), None
#     Edge 51, Type (0, 0), None
#     Edge 52, Type (0, 0), None
#     Edge 53, Type (0, 0), None
#     Edge 54, Type (0, 0), None
#     Edge 55, Type (0, 0), None
#     Edge 56, Type (0, 0), None
#     Edge 57, Type (0, 0), None
#     Edge 58, Type (0, 0), None
#     Edge 59, Type (0, 0), None
#     Edge 60, Type (0, 0), None
#     Edge 61, Type (0, 0), None
#     Edge 62, Type (0, 0), None
#     Edge 63, Type (0, 0), None
#     Edge 64, Type (0, 0), None
#     Edge 65, Type (0, 0), None
#     Edge 66, Type (0, 0), None
#     Edge 67, Type (0, 0), None
#     Edge 68, Type (0, 0), None
#     Edge 69, Type (0, 0), None
#     Edge 70, Type (0, 0), None
#     Edge 71, Type (0, 0), None
#     Edge 72, Type (0, 0), None
#     Edge 73, Type (0, 0), None
#     Edge 74, Type (0, 0), None
#     Edge 75, Type (0, 0), None
#     Edge 76, Type (0, 0), None
#     Edge 77, Type (0, 0), None
#     Edge 78, Type (0, 0), None
#     Edge 79, Type (0, 0), None
#     Edge 80, Type (0, 0), None
#     Edge 81, Type (0, 0), None
#     Edge 82, Type (0, 0), None
#     Edge 83, Type (0, 0), None
#     Edge 84, Type (0, 0), None
#     Edge 85, Type (0, 0), None
#     Edge 86, Type (0, 0), None
#     Edge 87, Type (0, 0), None
#     Edge 88, Type (0, 0), None
#     Edge 89, Type (0, 0), None
#     Edge 90, Type (0, 0), None
#     Edge 91, Type (0, 0), None
#     Edge 92, Type (0, 0), None
#     Edge 93, Type (0, 0), None
#     Edge 94, Type (0, 0), None
#     Edge 95, Type (0, 0), None
#     Edge 96, Type (0, 0), None
#     Edge 97, Type (0, 0), None
#     Edge 98, Type (0, 0), None
#     Edge 99, Type (0, 0), None
#     Edge 100, Type (0, 0), None
#     Edge 101, Type (0, 0), None
#     Edge 102, Type (0, 0), None
#     Edge 103, Type (0, 0), None
#     Edge 104, Type (0, 0), None
#     Edge 105, Type (0, 0), None
#     Edge 106, Type (0, 0), None
#     Edge 107, Type (0, 0), None
#     Edge 108, Type (0, 0), None
#     Edge 109, Type (0, 0), None
#     Edge 110, Type (0, 0), None
#     Edge 111, Type (0, 0), None
# Relax obj value: 0.083
# Max RMSD: 0.118
# Mean RMSD: 0.117
data_MOF--net-vcb--node1-XOMCOT_clean_sbu_1--edge1-none
_symmetry_space_group_name_H-M    P1
_symmetry_Int_Tables_number       1
_symmetry_cell_setting            triclinic
loop_
_symmetry_equiv_pos_as_xyz
'x, y, z'
_cell_length_a     36.383725
_cell_length_b     53.237715
_cell_length_c     12.153091
_cell_angle_alpha  90.040152
_cell_angle_beta   89.953664
_cell_angle_gamma 90.019691
loop_
_atom_site_label
_atom_site_type_symbol
_atom_site_fract_x
_atom_site_fract_y
_atom_site_fract_z
_atom_type_partial_charge
C0 C 0.97328 0.06895 0.24942 0.0
C1 C 0.93589 0.06869 0.26377 0.0
N2 N 0.92926 0.06634 0.37185 0.0
N3 N 0.99024 0.06719 0.3482 0.0
C4 C 0.96237 0.06536 0.42183 0.0
H5 H 0.98692 0.06981 0.17073 0.0
Co6 Co 0.04145 0.0666 0.36704 0.0
C7 C 0.05516 0.08638 0.59487 0.0
O8 O 0.07974 0.06864 0.6095 0.0
N9 N 0.09285 0.06657 0.38207 0.0
C10 C 0.15308 0.05913 0.37021 0.0
C11 C 0.11839 0.04876 0.36045 0.0
C12 C 0.11258 0.08754 0.40334 0.0
N13 N 0.14891 0.08342 0.39774 0.0
O14 O 0.04598 0.0952 0.27618 0.0
H15 H 0.1125 0.02973 0.3352 0.0
H16 H 0.10047 0.10577 0.41871 0.0
O17 O 1.03751 0.08776 0.50332 0.0
C18 C 0.05436 0.08803 0.17888 0.0
O19 O 0.0582 0.06398 0.15802 0.0
N20 N 1.03728 0.03637 0.44026 0.0
C21 C 1.03468 -0.01404 0.49995 0.0
C22 C 1.02882 0.00508 0.57849 0.0
C23 C 1.02866 0.03019 0.54587 0.0
C24 C 0.04098 0.01821 0.36235 0.0
C25 C 0.03956 -0.00701 0.38986 0.0
H26 H 1.02126 0.04427 0.60549 0.0
H27 H 0.04525 0.0235 0.27746 0.0
H28 H 0.96616 0.06324 0.50959 0.0
H29 H 0.91526 0.06916 0.19969 0.0
H30 H 0.17905 0.04971 0.35685 0.0
H31 H 1.02442 0.00103 0.6646 0.0
H32 H 0.04203 -0.0207 0.32448 0.0
C33 C 0.34767 0.14337 0.26399 0.0
C34 C 0.38551 0.1422 0.26868 0.0
N35 N 0.39449 0.12832 0.35686 0.0
N36 N 0.33309 0.13018 0.3485 0.0
C37 C 0.36251 0.1213 0.40408 0.0
H38 H 0.33182 0.15375 0.20417 0.0
Co39 Co 0.28267 0.12613 0.37643 0.0
C40 C 0.28252 0.10862 0.61127 0.0
O41 O 0.26615 0.12929 0.64349 0.0
N42 N 0.23127 0.12112 0.40467 0.0
C43 C 0.17407 0.12261 0.47288 0.0
C44 C 0.20766 0.13443 0.46886 0.0
C45 C 0.21116 0.10083 0.37344 0.0
N46 N 0.17668 0.10152 0.41316 0.0
O47 O 0.28342 0.09751 0.28772 0.0
H48 H 0.21436 0.15119 0.51468 0.0
H49 H 0.22138 0.08545 0.32424 0.0
O50 O 0.2917 0.10572 0.51006 0.0
C51 C 0.27798 0.10468 0.18889 0.0
O52 O 0.27224 0.12855 0.16806 0.0
N53 N 0.28265 0.15673 0.44711 0.0
C54 C 0.28591 0.20753 0.49828 0.0
C55 C 0.30878 0.19013 0.55244 0.0
C56 C 0.30695 0.16473 0.52483 0.0
C57 C 0.26233 0.17355 0.38867 0.0
C58 C 0.26238 0.19882 0.41562 0.0
H59 H 0.32582 0.15167 0.56277 0.0
H60 H 0.24576 0.16715 0.32028 0.0
H61 H 0.36069 0.11038 0.47888 0.0
H62 H 0.40477 0.15174 0.21521 0.0
H63 H 0.15018 0.12852 0.51923 0.0
H64 H 0.32872 0.19608 0.61315 0.0
H65 H 0.2442 0.21128 0.37121 0.0
C66 C 0.97842 0.13139 1.0201 0.0
C67 C 0.9409 0.13139 1.00734 0.0
N68 N 0.93377 0.12966 0.8993 0.0
N69 N 0.99489 0.12926 0.92068 0.0
C70 C 0.96669 0.12853 0.84795 0.0
H71 H 0.99258 0.13316 0.09768 0.0
Co72 Co 0.04602 0.12762 0.89932 0.0
C73 C 0.05616 0.10773 0.67161 0.0
O74 O 0.0816 0.12482 0.65528 0.0
N75 N 0.09774 0.12535 0.88057 0.0
C76 C 0.15846 0.1315 0.87466 0.0
C77 C 0.12454 0.143 0.88195 0.0
C78 C 0.11619 0.10332 0.87217 0.0
N79 N 0.15293 0.10656 0.86888 0.0
O80 O 0.04787 0.099 0.99043 0.0
H81 H 0.12026 0.16296 0.89071 0.0
H82 H 0.10283 0.08518 0.8713 0.0
O83 O 0.03945 0.10665 0.76464 0.0
C84 C 0.05591 0.10579 0.08841 0.0
O85 O 0.06264 0.12954 0.10941 0.0
N86 N 0.04401 0.15796 0.82633 0.0
C87 C 0.04041 0.20861 0.77221 0.0
C88 C 1.03173 0.18999 0.69384 0.0
C89 C 1.03246 0.16467 0.72386 0.0
C90 C 0.0508 0.17574 0.9041 0.0
C91 C 0.04932 0.20108 0.87909 0.0
H92 H 1.02295 0.15084 0.66565 0.0
H93 H 0.05739 0.17005 0.9871 0.0
H94 H 0.97011 0.12712 0.75973 0.0
H95 H 0.92053 0.13329 0.07177 0.0
H96 H 0.18494 0.14074 0.87668 0.0
H97 H 1.02416 0.19477 0.61039 0.0
H98 H 0.05447 0.21456 0.94399 0.0
C99 C 0.35317 0.05652 0.03065 0.0
C100 C 0.3908 0.05685 1.01854 0.0
N101 N 0.39817 0.06302 0.91373 0.0
N102 N 0.33702 0.06272 0.9342 0.0
C103 C 0.36535 0.06635 0.86391 0.0
H104 H 0.33864 0.05171 0.1052 0.0
Co105 Co 0.28626 0.06532 0.91029 0.0
C106 C 0.27928 0.08661 0.6835 0.0
O107 O 0.25396 0.0699 0.65967 0.0
N108 N 0.23481 0.06845 0.88833 0.0
C109 C 0.17423 0.06258 0.87369 0.0
C110 C 0.20787 0.05093 0.88461 0.0
C111 C 0.2167 0.09062 0.87949 0.0
N112 N 0.18002 0.08752 0.87078 0.0
O113 O 0.28505 0.09374 1.00108 0.0
H114 H 0.21182 0.03091 0.89145 0.0
H115 H 0.23021 0.10871 0.88144 0.0
O116 O 0.29439 0.08664 0.77876 0.0
C117 C 0.27778 0.08681 0.09911 0.0
O118 O 0.27102 0.06306 0.11984 0.0
N119 N 0.28767 0.03509 0.83623 0.0
C120 C 0.28825 -0.01559 0.78056 0.0
C121 C 0.29781 0.00294 0.70254 0.0
C122 C 0.29874 0.02823 0.73345 0.0
C123 C 0.28031 0.01739 0.91381 0.0
C124 C 0.28039 -0.00794 0.88814 0.0
H125 H 0.30895 0.0419 0.67561 0.0
H126 H 0.27413 0.02313 0.99706 0.0
H127 H 0.36205 0.07124 0.77812 0.0
H128 H 0.411 0.05227 0.08067 0.0
H129 H 0.14772 0.05341 0.8707 0.0
H130 H 0.30476 -0.00186 0.61858 0.0
H131 H 0.27483 -0.0213 0.95313 0.0
C132 C 0.09699 0.88711 0.77636 0.0
C133 C 0.13467 0.88659 0.76629 0.0
N134 N 0.1426 0.87978 0.66265 0.0
N135 N 0.08134 0.88035 0.67984 0.0
C136 C 0.11013 0.87617 0.61144 0.0
H137 H 0.08208 0.89249 0.84948 0.0
Co138 Co 1.03043 0.87766 0.65616 0.0
C139 C 1.02366 0.86031 0.42507 0.0
O140 O 1.00205 0.87953 0.4059 0.0
N141 N 0.9785 0.874 0.6328 0.0
C142 C 0.91855 0.87811 0.59495 0.0
C143 C 0.95178 0.89036 0.60197 0.0
C144 C 0.96047 0.85174 0.64102 0.0
N145 N 0.92429 0.85388 0.6198 0.0
O146 O 1.02991 0.84887 0.74602 0.0
H147 H 0.95553 0.90992 0.58232 0.0
H148 H 0.97355 0.83416 0.66172 0.0
O149 O 1.03784 0.85738 0.52093 0.0
C150 C 1.02247 0.85572 0.84433 0.0
O151 O 1.01547 0.87944 0.86512 0.0
N152 N 1.0316 0.90823 0.58546 0.0
C153 C 1.03461 0.95892 0.53099 0.0
C154 C 0.0534 0.94082 0.46733 0.0
C155 C 0.05161 0.91548 0.49619 0.0
C156 C 1.01644 0.92565 0.65355 0.0
C157 C 1.01599 0.95084 0.62548 0.0
H158 H 0.06704 0.90193 0.44889 0.0
H159 H 1.00342 0.9197 0.7292 0.0
H160 H 0.10752 0.87066 0.52612 0.0
H161 H 0.15459 0.89172 0.82848 0.0
H162 H 0.89246 0.88633 0.57219 0.0
H163 H 0.07011 0.94604 0.39734 0.0
H164 H 1.00087 0.96354 0.67803 0.0
C165 C 0.72433 0.80765 0.78983 0.0
C166 C 0.68673 0.80911 0.77987 0.0
N167 N 0.67918 0.8161 0.67619 0.0
N168 N 0.74031 0.81393 0.6932 0.0
C169 C 0.7119 0.81881 0.62487 0.0
H170 H 0.73897 0.80195 0.86291 0.0
Co171 Co 0.79104 0.81488 0.66901 0.0
C172 C 0.80028 0.83371 0.43856 0.0
O173 O 0.82392 0.81554 0.42032 0.0
N174 N 0.84242 0.81637 0.64772 0.0
C175 C 0.90309 0.81016 0.64422 0.0
C176 C 0.8692 0.79884 0.65666 0.0
C177 C 0.86077 0.83812 0.63014 0.0
N178 N 0.89743 0.83482 0.62754 0.0
O179 O 0.79412 0.84365 0.75793 0.0
H180 H 0.8649 0.77921 0.67457 0.0
H181 H 0.84742 0.85619 0.62318 0.0
O182 O 0.78466 0.83555 0.53311 0.0
C183 C 0.80135 0.83655 0.85593 0.0
O184 O 0.80696 0.81267 0.87653 0.0
N185 N 0.78767 0.78438 0.59859 0.0
C186 C 0.78127 0.7334 0.55409 0.0
C187 C 0.77208 0.75142 0.47356 0.0
C188 C 0.77424 0.77702 0.49902 0.0
C189 C 0.7947 0.76721 0.67853 0.0
C190 C 0.7917 0.74176 0.65848 0.0
H191 H 0.76441 0.79058 0.44009 0.0
H192 H 0.80245 0.77345 0.75977 0.0
H193 H 0.71507 0.82403 0.5394 0.0
H194 H 0.66663 0.80465 0.84258 0.0
H195 H 0.92962 0.80107 0.6497 0.0
H196 H 0.76313 0.74595 0.39213 0.0
H197 H 0.79707 0.72886 0.72537 0.0
C198 C 0.10116 0.81432 1.00788 0.0
C199 C 0.13853 0.81346 0.02277 0.0
N200 N 0.14497 0.81326 0.13143 0.0
N201 N 0.08405 0.81511 0.10674 0.0
C202 C 0.11176 0.81411 0.18117 0.0
H203 H 0.08758 0.81396 0.92906 0.0
Co204 Co 1.03281 0.81666 0.12597 0.0
C205 C 1.02087 0.83891 0.34935 0.0
O206 O 0.99404 0.82288 0.36636 0.0
N207 N 0.9812 0.81868 0.14249 0.0
C208 C 0.92079 0.81167 0.1519 0.0
C209 C 0.95498 0.80065 0.14206 0.0
C210 C 0.96221 0.84047 0.15164 0.0
N211 N 0.92565 0.83669 0.15796 0.0
O212 O 1.03084 0.84487 0.03223 0.0
H213 H 0.95996 0.78076 0.13349 0.0
H214 H 0.97508 0.85878 0.15282 0.0
O215 O 0.03884 0.83849 0.25832 0.0
C216 C 1.02288 0.83786 0.93454 0.0
O217 O 1.01712 0.81396 0.91399 0.0
N218 N 1.03466 0.78678 0.20278 0.0
C219 C 1.03342 0.73668 0.26904 0.0
C220 C 0.03923 0.75625 0.34568 0.0
C221 C 0.04146 0.78108 0.30997 0.0
C222 C 1.03075 0.76821 0.1268 0.0
C223 C 1.03037 0.74314 0.15757 0.0
H224 H 0.04901 0.79531 0.36866 0.0
H225 H 1.02764 0.77307 0.04095 0.0
H226 H 0.10775 0.81404 0.26939 0.0
H227 H 0.15925 0.81225 0.95904 0.0
H228 H 0.8946 0.80205 0.15255 0.0
H229 H 0.04214 0.75286 0.43278 0.0
H230 H 1.02803 0.72917 0.09341 0.0
C231 C 0.72344 0.88076 1.01483 0.0
C232 C 0.68586 0.88045 0.02672 0.0
N233 N 0.6784 0.87659 0.13357 0.0
N234 N 0.73962 0.87681 0.11347 0.0
C235 C 0.71123 0.87456 0.18494 0.0
H236 H 0.7379 0.8841 0.93865 0.0
Co237 Co 0.79067 0.87546 0.13537 0.0
C238 C 0.80099 0.85524 0.36258 0.0
O239 O 0.82586 0.87265 0.38027 0.0
N240 N 0.84239 0.87353 0.1543 0.0
C241 C 0.90292 0.88036 0.16077 0.0
C242 C 0.86874 0.8915 0.15563 0.0
C243 C 0.86138 0.85166 0.15927 0.0
N244 N 0.89801 0.85533 0.16248 0.0
O245 O 0.793 0.84706 0.04396 0.0
H246 H 0.864 0.91146 0.15027 0.0
H247 H 0.84851 0.83335 0.15769 0.0
O248 O 0.78439 0.85424 0.26943 0.0
C249 C 0.8011 0.8542 0.94657 0.0
O250 O 0.80732 0.87805 0.92677 0.0
N251 N 0.78817 0.90573 0.20855 0.0
C252 C 0.78508 0.9565 0.26016 0.0
C253 C 0.77611 0.93817 0.33957 0.0
C254 C 0.77674 0.91271 0.3109 0.0
C255 C 0.7948 0.92327 0.12971 0.0
C256 C 0.79367 0.94865 0.15354 0.0
H257 H 0.76744 0.89899 0.36989 0.0
H258 H 0.8013 0.91737 0.04695 0.0
H259 H 0.71453 0.87166 0.27248 0.0
H260 H 0.66572 0.88363 0.96275 0.0
H261 H 0.92914 0.88993 0.16016 0.0
H262 H 0.76853 0.94334 0.42267 0.0
H263 H 0.79899 0.96195 0.08805 0.0
C264 C 0.97536 0.56959 0.77575 0.0
C265 C 0.93794 0.56808 0.78998 0.0
N266 N 0.93156 0.56455 0.89753 0.0
N267 N 0.99245 0.56737 0.87427 0.0
C268 C 0.9647 0.56407 0.9472 0.0
H269 H 0.98892 0.57167 0.69736 0.0
Co270 Co 0.04351 0.56853 0.89911 0.0
C271 C 0.05113 0.58921 0.1275 0.0
O272 O 0.07691 0.57264 0.14819 0.0
N273 N 0.09495 0.57034 0.92217 0.0
C274 C 0.15527 0.56308 0.93284 0.0
C275 C 0.12094 0.55218 0.92582 0.0
C276 C 0.11426 0.59209 0.92791 0.0
N277 N 0.1508 0.58816 0.93354 0.0
O278 O 0.04683 0.59716 0.80846 0.0
H279 H 0.11581 0.53225 0.92037 0.0
H280 H 0.10172 0.61048 0.92445 0.0
O281 O 1.03566 0.5896 0.03264 0.0
C282 C 0.0559 0.59014 0.71156 0.0
O283 O 0.06159 0.56623 0.69151 0.0
N284 N 0.04052 0.53799 0.97112 0.0
C285 C 1.03796 0.48698 1.01918 0.0
C286 C 1.0306 0.50503 0.10125 0.0
C287 C 1.0311 0.53059 0.07473 0.0
C288 C 0.04604 0.5207 0.89024 0.0
C289 C 0.04508 0.49521 0.91222 0.0
H290 H 1.02306 0.54402 0.13657 0.0
H291 H 0.05151 0.52689 0.80728 0.0
H292 H 0.96858 0.56135 0.03458 0.0
H293 H 0.91719 0.56852 0.72622 0.0
H294 H 0.18132 0.55331 0.93365 0.0
H295 H 1.02437 0.49956 0.18497 0.0
H296 H 0.04938 0.48213 0.84516 0.0
C297 C 0.35308 0.62386 0.75348 0.0
C298 C 0.39066 0.62445 0.76397 0.0
N299 N 0.39842 0.6266 0.87137 0.0
N300 N 0.33712 0.62526 0.85403 0.0
C301 C 0.36581 0.6272 0.92467 0.0
H302 H 0.33861 0.62305 0.67617 0.0
Co303 Co 0.28598 0.62495 0.88031 0.0
C304 C 0.27681 0.60488 0.10802 0.0
O305 O 0.25282 0.62267 0.12906 0.0
N306 N 0.23449 0.62397 0.90431 0.0
C307 C 0.17432 0.63156 0.91875 0.0
C308 C 0.20859 0.64222 0.90442 0.0
C309 C 0.21517 0.60244 0.91835 0.0
N310 N 0.17876 0.60656 0.92733 0.0
O311 O 0.2815 0.5962 0.79092 0.0
H312 H 0.21373 0.66199 0.89244 0.0
H313 H 0.22766 0.58401 0.91983 0.0
O314 O 0.29267 0.60389 1.01369 0.0
C315 C 0.27234 0.60316 0.69428 0.0
O316 O 0.26713 0.62712 0.67391 0.0
N317 N 0.2902 0.65537 0.9526 0.0
C318 C 0.29223 0.70594 1.00918 0.0
C319 C 0.30112 0.68727 0.08697 0.0
C320 C 0.3011 0.66201 0.05585 0.0
C321 C 0.28387 0.67324 0.87493 0.0
C322 C 0.28456 0.69856 0.9012 0.0
H323 H 0.31021 0.64815 0.11434 0.0
H324 H 0.27761 0.66764 0.79156 0.0
H325 H 0.36297 0.62913 1.01285 0.0
H326 H 0.41063 0.62441 0.69791 0.0
H327 H 0.14832 0.6414 0.91993 0.0
H328 H 0.30791 0.69196 0.17116 0.0
H329 H 0.27933 0.71215 0.83687 0.0
C330 C 0.97464 0.63051 0.56482 0.0
C331 C 0.93696 0.62942 0.55738 0.0
N332 N 0.92832 0.62735 0.45054 0.0
N333 N 0.98969 0.62885 0.46314 0.0
C334 C 0.96042 0.62712 0.39472 0.0
H335 H 0.98987 0.63288 0.64026 0.0
Co336 Co 0.04055 0.62892 0.43439 0.0
C337 C 0.04791 0.61078 0.20288 0.0
O338 O 0.06886 0.6303 0.18234 0.0
N339 N 0.09202 0.62806 0.40846 0.0
C340 C 0.15288 0.63374 0.40581 0.0
C341 C 0.1193 0.64516 0.42163 0.0
C342 C 0.10997 0.60642 0.38503 0.0
N343 N 0.14664 0.60945 0.38264 0.0
O344 O 0.04581 0.60036 0.52394 0.0
H345 H 0.1159 0.66448 0.44601 0.0
H346 H 0.09645 0.58845 0.37546 0.0
O347 O 1.0338 0.608 0.2992 0.0
C348 C 0.05507 0.60764 0.62025 0.0
O349 O 0.06022 0.63165 0.6395 0.0
N350 N 1.03553 0.65928 0.36255 0.0
C351 C 1.0323 0.70978 0.3035 0.0
C352 C 1.01583 0.69109 0.23714 0.0
C353 C 1.01779 0.66584 0.2682 0.0
C354 C 0.04752 0.67724 0.43323 0.0
C355 C 0.04791 0.70231 0.40364 0.0
H356 H 1.00466 0.65184 0.21743 0.0
H357 H 0.05794 0.67188 0.51305 0.0
H358 H 0.9624 0.62578 0.30617 0.0
H359 H 0.91745 0.63117 0.62424 0.0
H360 H 0.17962 0.64243 0.41386 0.0
H361 H 1.00115 0.69568 0.16253 0.0
H362 H 0.06095 0.71529 0.45954 0.0
C363 C 0.34361 0.54942 0.52972 0.0
C364 C 0.38142 0.55012 0.52059 0.0
N365 N 0.38956 0.56167 0.42545 0.0
N366 N 0.32831 0.5606 0.44095 0.0
C367 C 0.35723 0.56782 0.37871 0.0
H368 H 0.32832 0.54068 0.59564 0.0
Co369 Co 0.27792 0.56445 0.41318 0.0
C370 C 0.27709 0.58302 0.18147 0.0
O371 O 0.25763 0.56343 0.15152 0.0
N372 N 0.22655 0.56938 0.38458 0.0
C373 C 0.16815 0.56757 0.3262 0.0
C374 C 0.20106 0.5549 0.33291 0.0
C375 C 0.20828 0.59111 0.40496 0.0
N376 N 0.1731 0.59029 0.37145 0.0
O377 O 0.27812 0.59261 0.50551 0.0
H378 H 0.20585 0.53663 0.29724 0.0
H379 H 0.2204 0.60755 0.44219 0.0
O380 O 0.28743 0.58545 0.28179 0.0
C381 C 0.27156 0.58543 0.60378 0.0
O382 O 0.26517 0.5616 0.62385 0.0
N383 N 0.27848 0.53428 0.33917 0.0
C384 C 0.28312 0.4837 0.28441 0.0
C385 C 0.30424 0.50176 0.22784 0.0
C386 C 0.30169 0.52703 0.25705 0.0
C387 C 0.26002 0.51687 0.39977 0.0
C388 C 0.26062 0.4917 0.37109 0.0
H389 H 0.31931 0.54053 0.21682 0.0
H390 H 0.24435 0.52274 0.47097 0.0
H391 H 0.35485 0.57685 0.29939 0.0
H392 H 0.40117 0.54177 0.57613 0.0
H393 H 0.14306 0.56094 0.28826 0.0
H394 H 0.32348 0.49645 0.16399 0.0
H395 H 0.24366 0.4788 0.41743 0.0
C396 C 0.10022 0.39599 0.26636 0.0
C397 C 0.13808 0.39473 0.2597 0.0
N398 N 0.14653 0.38008 0.17329 0.0
N399 N 0.08518 0.38212 0.18468 0.0
C400 C 0.11431 0.3727 0.12919 0.0
H401 H 0.08468 0.4069 0.32526 0.0
Co402 Co 1.03482 0.37763 0.15582 0.0
C403 C 0.04004 0.35921 0.92117 0.0
O404 O 1.02701 0.38005 0.87893 0.0
N405 N 0.98376 0.37204 0.12475 0.0
C406 C 0.92855 0.37173 0.04299 0.0
C407 C 0.96203 0.38366 0.04951 0.0
C408 C 0.96273 0.35261 0.16054 0.0
N409 N 0.92941 0.3522 0.11245 0.0
O410 O 1.03592 0.34893 0.2433 0.0
H411 H 0.97025 0.39919 0.99786 0.0
H412 H 0.97167 0.33847 0.21825 0.0
O413 O 0.04504 0.35721 0.02493 0.0
C414 C 1.03125 0.35603 0.34249 0.0
O415 O 1.02571 0.3799 0.36411 0.0
N416 N 1.03418 0.40841 0.08558 0.0
C417 C 1.03701 0.45968 0.04272 0.0
C418 C 0.06093 0.44292 0.98855 0.0
C419 C 0.05935 0.41727 1.01216 0.0
C420 C 1.01212 0.42456 0.14235 0.0
C421 C 1.01221 0.45008 0.11989 0.0
H422 H 0.07935 0.40479 0.97559 0.0
H423 H 0.99464 0.41754 0.2075 0.0
H424 H 0.11218 0.36118 0.05623 0.0
H425 H 0.15769 0.40472 0.31037 0.0
H426 H 0.90615 0.37623 0.98788 0.0
H427 H 0.0816 0.4496 0.93149 0.0
H428 H 0.99322 0.46211 0.1638 0.0
C429 C 0.7265 0.31554 0.27188 0.0
C430 C 0.68904 0.31536 0.25861 0.0
N431 N 0.68209 0.31452 0.15029 0.0
N432 N 0.74317 0.31525 0.17231 0.0
C433 C 0.71509 0.31434 0.09915 0.0
H434 H 0.74043 0.31543 0.35016 0.0
Co435 Co 0.79441 0.31554 0.15248 0.0
C436 C 0.80604 0.33516 0.92328 0.0
O437 O 0.83084 0.31765 0.90644 0.0
N438 N 0.84597 0.31635 0.13681 0.0
C439 C 0.90617 0.31002 0.15933 0.0
C440 C 0.87171 0.29927 0.16628 0.0
C441 C 0.86547 0.33733 0.11314 0.0
N442 N 0.90182 0.33386 0.12564 0.0
O443 O 0.79787 0.34439 0.24197 0.0
H444 H 0.86607 0.28062 0.1967 0.0
H445 H 0.85313 0.35524 0.09315 0.0
O446 O 0.78933 0.3364 1.01639 0.0
C447 C 0.80636 0.3376 0.33956 0.0
O448 O 0.81155 0.3137 0.36104 0.0
N449 N 0.7912 0.28506 0.08027 0.0
C450 C 0.78874 0.2345 0.02331 0.0
C451 C 0.78106 0.25328 0.94485 0.0
C452 C 0.78114 0.27851 0.97615 0.0
C453 C 0.79658 0.26713 0.15825 0.0
C454 C 0.79561 0.24182 0.13188 0.0
H455 H 0.77256 0.29241 0.91715 0.0
H456 H 0.80167 0.27266 0.24244 0.0
H457 H 0.71866 0.31356 1.01085 0.0
H458 H 0.66858 0.31496 0.32329 0.0
H459 H 0.93211 0.30125 0.17975 0.0
H460 H 0.77497 0.24871 0.86007 0.0
H461 H 0.79976 0.22821 0.19682 0.0
C462 C 0.10052 0.2989 0.50807 0.0
C463 C 0.13839 0.29958 0.51512 0.0
N464 N 0.14716 0.31359 0.60317 0.0
N465 N 0.0858 0.31253 0.59108 0.0
C466 C 0.11513 0.32121 0.64779 0.0
H467 H 0.08476 0.2884 0.44832 0.0
Co468 Co 1.03551 0.31697 0.62077 0.0
C469 C 0.0397 0.33642 0.85297 0.0
O470 O 1.02537 0.31592 0.89475 0.0
N471 N 0.98438 0.32241 0.65213 0.0
C472 C 0.92869 0.32215 0.73126 0.0
C473 C 0.96239 0.3105 0.72597 0.0
C474 C 0.96326 0.34175 0.61604 0.0
N475 N 0.92965 0.34179 0.66247 0.0
O476 O 1.03618 0.34525 0.53067 0.0
H477 H 0.97045 0.29491 0.77736 0.0
H478 H 0.97226 0.35602 0.55894 0.0
O479 O 0.04587 0.3381 0.7496 0.0
C480 C 1.0313 0.33808 0.43172 0.0
O481 O 1.02557 0.31421 0.4105 0.0
N482 N 1.03542 0.28663 0.69431 0.0
C483 C 0.03894 0.23575 0.74493 0.0
C484 C 0.06257 0.25311 0.79654 0.0
C485 C 0.06054 0.27853 0.76943 0.0
C486 C 1.0138 0.26989 0.63949 0.0
C487 C 1.01408 0.24459 0.6662 0.0
H488 H 0.08011 0.29147 0.80497 0.0
H489 H 0.99634 0.27629 0.57318 0.0
H490 H 0.11324 0.3322 0.72241 0.0
H491 H 0.15774 0.28949 0.46383 0.0
H492 H 0.906 0.31732 0.78489 0.0
H493 H 0.08337 0.24709 0.85444 0.0
H494 H 0.99517 0.23218 0.62418 0.0
C495 C 0.72597 0.37666 0.49982 0.0
C496 C 0.68852 0.37668 0.51351 0.0
N497 N 0.68167 0.37685 0.62197 0.0
N498 N 0.7427 0.37642 0.59924 0.0
C499 C 0.71466 0.37675 0.6727 0.0
H500 H 0.73985 0.37739 0.42146 0.0
Co501 Co 0.79386 0.37677 0.61925 0.0
C502 C 0.80577 0.35662 0.84707 0.0
O503 O 0.8296 0.37468 0.8652 0.0
N504 N 0.84544 0.3766 0.63507 0.0
C505 C 0.90559 0.3837 0.61489 0.0
C506 C 0.87089 0.39404 0.60698 0.0
C507 C 0.86537 0.35582 0.65859 0.0
N508 N 0.90167 0.35976 0.64769 0.0
O509 O 0.79823 0.34841 0.52748 0.0
H510 H 0.86497 0.41269 0.5772 0.0
H511 H 0.8534 0.33773 0.6777 0.0
O512 O 0.78933 0.35521 0.75364 0.0
C513 C 0.80615 0.35546 0.42981 0.0
O514 O 0.81054 0.37946 0.40868 0.0
N515 N 0.78956 0.40679 0.69458 0.0
C516 C 0.78306 0.45664 0.75873 0.0
C517 C 0.77499 0.43709 0.83283 0.0
C518 C 0.77733 0.4122 0.79796 0.0
C519 C 0.7954 0.42549 0.62036 0.0
C520 C 0.79266 0.45053 0.65064 0.0
H521 H 0.76853 0.39763 0.85351 0.0
H522 H 0.80201 0.4208 0.53609 0.0
H523 H 0.7182 0.37702 0.761 0.0
H524 H 0.668 0.37757 0.44919 0.0
H525 H 0.93142 0.39283 0.59602 0.0
H526 H 0.76691 0.44088 0.91695 0.0
H527 H 0.79753 0.4649 0.58932 0.0
C528 C 0.47774 0.0617 0.74282 0.0
C529 C 0.44023 0.06157 0.75601 0.0
N530 N 0.43316 0.06395 0.86391 0.0
N531 N 0.49425 0.06449 0.84179 0.0
C532 C 0.46614 0.06563 0.91463 0.0
H533 H 0.4919 0.05938 0.66544 0.0
Co534 Co 0.54528 0.06526 0.86279 0.0
C535 C 0.55634 0.08662 0.09003 0.0
O536 O 0.58198 0.06978 0.10828 0.0
N537 N 0.59675 0.06635 0.87929 0.0
C538 C 0.65702 0.05931 0.86335 0.0
C539 C 0.62243 0.0488 0.85507 0.0
C540 C 0.61638 0.08739 0.90079 0.0
N541 N 0.6528 0.08348 0.89249 0.0
O542 O 0.54851 0.09347 0.77069 0.0
H543 H 0.61668 0.02987 0.82825 0.0
H544 H 0.60413 0.10552 0.91742 0.0
O545 O 0.53955 0.08701 0.99692 0.0
C546 C 0.55642 0.0864 0.67303 0.0
O547 O 0.5619 0.06248 0.65237 0.0
N548 N 0.54216 0.03531 0.93842 0.0
C549 C 0.54015 -0.0148 1.00449 0.0
C550 C 0.53369 0.0049 0.08012 0.0
C551 C 0.53302 0.02973 0.04415 0.0
C552 C 0.54661 0.01668 0.86307 0.0
C553 C 0.54542 -0.00838 0.89367 0.0
H554 H 0.52466 0.04407 0.10134 0.0
H555 H 0.55103 0.02146 0.77763 0.0
H556 H 0.46975 0.06744 1.00262 0.0
H557 H 0.41989 0.05912 0.69197 0.0
H558 H 0.68299 0.05009 0.84746 0.0
H559 H 0.529 0.00168 0.16661 0.0
H560 H 0.54822 -0.02235 0.82967 0.0
C561 C 0.85202 0.14234 0.74779 0.0
C562 C 0.88987 0.14218 0.7558 0.0
N563 N 0.89865 0.13075 0.85064 0.0
N564 N 0.83725 0.13088 0.83679 0.0
C565 C 0.86661 0.12409 0.89826 0.0
H566 H 0.83634 0.15092 0.68241 0.0
Co567 Co 0.78679 0.12646 0.86587 0.0
C568 C 0.78913 0.10666 0.09672 0.0
O569 O 0.77275 0.12667 0.13632 0.0
N570 N 0.73544 0.12107 0.89645 0.0
C571 C 0.67881 0.12223 0.96949 0.0
C572 C 0.71249 0.13394 0.96449 0.0
C573 C 0.71484 0.1011 0.86388 0.0
N574 N 0.68067 0.10161 0.90646 0.0
O575 O 0.78734 0.09826 0.77492 0.0
H576 H 0.71978 0.15029 1.01234 0.0
H577 H 0.7246 0.08607 0.81187 0.0
O578 O 0.79709 0.10523 0.99433 0.0
C579 C 0.78096 0.10539 0.67669 0.0
O580 O 0.77425 0.12917 0.65651 0.0
N581 N 0.7867 0.1567 0.93985 0.0
C582 C 0.78844 0.20744 0.99396 0.0
C583 C 0.81131 0.1901 0.04862 0.0
C584 C 0.81022 0.16473 1.01966 0.0
C585 C 0.76619 0.17347 0.88169 0.0
C586 C 0.76551 0.19867 0.90993 0.0
H587 H 0.82908 0.15179 0.0583 0.0
H588 H 0.75002 0.16708 0.81246 0.0
H589 H 0.8647 0.11499 0.97756 0.0
H590 H 0.9092 0.15079 0.69959 0.0
H591 H 0.65544 0.12779 1.019 0.0
H592 H 0.83074 0.19609 0.11072 0.0
H593 H 0.74722 0.21102 0.86533 0.0
C594 C 0.47518 0.12475 0.5207 0.0
C595 C 0.43765 0.12451 0.50997 0.0
N596 N 0.42989 0.12558 0.40225 0.0
N597 N 0.49115 0.12556 0.42012 0.0
C598 C 0.46251 0.12631 0.34895 0.0
H599 H 0.48963 0.12494 0.59813 0.0
Co600 Co 0.54233 0.12628 0.3981 0.0
C601 C 0.55426 0.10802 0.16665 0.0
O602 O 0.57778 0.1264 0.15124 0.0
N603 N 0.59386 0.12644 0.3809 0.0
C604 C 0.65392 0.13315 0.40531 0.0
C605 C 0.61925 0.14357 0.41279 0.0
C606 C 0.61378 0.10579 0.35513 0.0
N607 N 0.65001 0.10949 0.36874 0.0
O608 O 0.54722 0.09724 0.48543 0.0
H609 H 0.61324 0.16193 0.44584 0.0
H610 H 0.60181 0.08784 0.33358 0.0
O611 O 0.53782 0.10582 0.25997 0.0
C612 C 0.55595 0.10416 0.5827 0.0
O613 O 0.56045 0.12814 0.60415 0.0
N614 N 0.53772 0.15692 0.32824 0.0
C615 C 0.53473 0.20751 0.27345 0.0
C616 C 0.52606 0.1889 0.19509 0.0
C617 C 0.52651 0.16361 0.22539 0.0
C618 C 0.54354 0.17472 0.40662 0.0
C619 C 0.54244 0.20005 0.38123 0.0
H620 H 0.51755 0.14975 0.16657 0.0
H621 H 0.54934 0.16907 0.49018 0.0
H622 H 0.46542 0.12755 0.26054 0.0
H623 H 0.41768 0.12463 0.57603 0.0
H624 H 0.67967 0.14196 0.42762 0.0
H625 H 0.51913 0.19367 0.11111 0.0
H626 H 0.54731 0.2136 0.44609 0.0
C627 C 0.84787 0.04634 0.50922 0.0
C628 C 0.88575 0.04756 0.50306 0.0
N629 N 0.89434 0.06309 0.41987 0.0
N630 N 0.83302 0.0611 0.43039 0.0
C631 C 0.86223 0.07105 0.37732 0.0
H632 H 0.83218 0.03478 0.56532 0.0
Co633 Co 0.78282 0.06575 0.40045 0.0
C634 C 0.78992 0.0839 0.16495 0.0
O635 O 0.77846 0.06278 0.12123 0.0
N636 N 0.73204 0.07151 0.36808 0.0
C637 C 0.6777 0.07253 0.28155 0.0
C638 C 0.71114 0.0606 0.28873 0.0
C639 C 0.7106 0.09053 0.40586 0.0
N640 N 0.67781 0.09136 0.35472 0.0
O641 O 0.78401 0.09454 0.48783 0.0
H642 H 0.71997 0.04561 0.23491 0.0
H643 H 0.71892 0.10407 0.46716 0.0
O644 O 0.79343 0.08606 0.26927 0.0
C645 C 0.78013 0.08745 0.58732 0.0
O646 O 0.77492 0.06357 0.60928 0.0
N647 N 0.78204 0.03492 0.33026 0.0
C648 C 0.78442 -0.01629 0.28563 0.0
C649 C 0.80939 0.00034 0.23519 0.0
C650 C 0.80797 0.02593 0.2595 0.0
C651 C 0.75899 0.01886 0.384 0.0
C652 C 0.75888 -0.00664 0.36048 0.0
H653 H 0.82864 0.03828 0.2256 0.0
H654 H 0.7409 0.0259 0.44759 0.0
H655 H 0.86025 0.0833 0.30669 0.0
H656 H 0.90525 0.03689 0.55133 0.0
H657 H 0.65588 0.06854 0.22362 0.0
H658 H 0.83068 -0.0064 0.18034 0.0
H659 H 0.73913 -0.01859 0.40171 0.0
C660 C 0.59775 0.88392 0.29732 0.0
C661 C 0.63543 0.88297 0.28719 0.0
N662 N 0.64321 0.87696 0.18244 0.0
N663 N 0.58191 0.87832 0.19967 0.0
C664 C 0.61055 0.87419 0.13088 0.0
H665 H 0.58296 0.88897 0.37115 0.0
Co666 Co 0.53097 0.87785 0.17427 0.0
C667 C 0.52403 0.85877 0.94315 0.0
O668 O 0.50284 0.87797 0.91949 0.0
N669 N 0.47921 0.87675 0.15266 0.0
C670 C 0.41853 0.88211 0.17054 0.0
C671 C 0.45245 0.89328 0.18117 0.0
C672 C 0.46051 0.8556 0.12547 0.0
N673 N 0.42392 0.85852 0.13553 0.0
O674 O 0.52672 0.84953 0.26419 0.0
H675 H 0.45656 0.91181 0.21445 0.0
H676 H 0.47352 0.83787 0.10615 0.0
O677 O 0.53738 0.85654 0.04047 0.0
C678 C 0.51854 0.85685 0.36119 0.0
O679 O 0.51368 0.88086 0.38101 0.0
N680 N 0.53527 0.90793 0.10043 0.0
C681 C 0.53987 0.95827 0.03913 0.0
C682 C 0.55603 0.93921 0.97391 0.0
C683 C 0.55344 0.91407 1.00621 0.0
C684 C 0.52368 0.9262 0.17016 0.0
C685 C 0.5238 0.95116 0.13927 0.0
H686 H 0.56688 0.89983 0.95737 0.0
H687 H 0.51419 0.92125 0.25149 0.0
H688 H 0.60762 0.86957 0.04468 0.0
H689 H 0.65541 0.8873 0.35034 0.0
H690 H 0.39218 0.89039 0.19047 0.0
H691 H 0.57126 0.94341 0.89982 0.0
H692 H 0.5112 0.96436 0.19508 0.0
C693 C 0.22591 0.79664 0.27961 0.0
C694 C 0.18804 0.7975 0.27128 0.0
N695 N 0.17979 0.81092 0.18115 0.0
N696 N 0.24114 0.8096 0.1954 0.0
C697 C 0.21209 0.81803 0.13669 0.0
H698 H 0.2413 0.78657 0.3415 0.0
Co699 Co 0.2916 0.81411 0.16656 0.0
C700 C 0.28642 0.83362 0.93376 0.0
O701 O 0.30004 0.81306 0.89045 0.0
N702 N 0.34273 0.81969 0.13512 0.0
C703 C 0.39797 0.82038 0.0528 0.0
C704 C 0.36456 0.8083 0.05916 0.0
C705 C 0.36364 0.83911 0.17149 0.0
N706 N 0.39694 0.83975 0.12311 0.0
O707 O 0.29082 0.84241 0.25769 0.0
H708 H 0.35642 0.79292 1.00655 0.0
H709 H 0.35456 0.85316 0.22951 0.0
O710 O 0.28128 0.83528 0.03768 0.0
C711 C 0.29586 0.83534 0.35679 0.0
O712 O 0.30128 0.81147 0.37829 0.0
N713 N 0.29208 0.78372 0.09298 0.0
C714 C 0.29182 0.73297 0.03867 0.0
C715 C 0.26721 0.74979 0.98785 0.0
C716 C 0.26752 0.77516 1.01712 0.0
C717 C 0.31436 0.76739 0.14768 0.0
C718 C 0.3157 0.74221 0.11922 0.0
H719 H 0.24733 0.78766 0.98188 0.0
H720 H 0.33129 0.77406 0.21474 0.0
H721 H 0.21434 0.8286 0.06108 0.0
H722 H 0.16835 0.78801 0.32352 0.0
H723 H 0.42032 0.81617 0.99691 0.0
H724 H 0.24707 0.74336 0.92869 0.0
H725 H 0.33518 0.73019 0.161 0.0
C726 C 0.59859 0.81647 0.51008 0.0
C727 C 0.6362 0.81646 0.52071 0.0
N728 N 0.64399 0.818 0.62845 0.0
N729 N 0.58278 0.8183 0.61056 0.0
C730 C 0.61137 0.81909 0.68151 0.0
H731 H 0.58391 0.8145 0.43345 0.0
Co732 Co 0.53203 0.81765 0.63676 0.0
C733 C 0.52337 0.83713 0.86755 0.0
O734 O 0.50046 0.81876 0.88986 0.0
N735 N 0.48066 0.81735 0.65885 0.0
C736 C 0.42063 0.80948 0.6417 0.0
C737 C 0.45552 0.79955 0.63274 0.0
C738 C 0.46031 0.83791 0.68316 0.0
N739 N 0.42403 0.83353 0.6735 0.0
O740 O 0.52645 0.84634 0.54897 0.0
H741 H 0.46176 0.78097 0.60259 0.0
H742 H 0.47195 0.85619 0.70053 0.0
O743 O 0.53799 0.83868 0.77157 0.0
C744 C 0.51804 0.83926 0.45185 0.0
O745 O 0.51318 0.81529 0.43113 0.0
N746 N 0.53766 0.78728 0.70763 0.0
C747 C 0.54526 0.73665 0.75629 0.0
C748 C 0.55348 0.75504 0.83593 0.0
C749 C 0.55047 0.78049 0.80875 0.0
C750 C 0.53213 0.7697 0.62816 0.0
C751 C 0.53548 0.74436 0.65055 0.0
H752 H 0.55917 0.79437 0.86786 0.0
H753 H 0.52506 0.77553 0.54578 0.0
H754 H 0.60836 0.81998 0.76996 0.0
H755 H 0.6561 0.81445 0.45506 0.0
H756 H 0.39502 0.80006 0.62303 0.0
H757 H 0.56206 0.74992 0.91816 0.0
H758 H 0.5307 0.73097 0.58493 0.0
C759 C 0.22477 0.88899 0.50866 0.0
C760 C 0.18693 0.88898 0.51591 0.0
N761 N 0.17785 0.87955 0.61465 0.0
N762 N 0.23928 0.87938 0.60206 0.0
C763 C 0.20972 0.87392 0.66547 0.0
H764 H 0.24058 0.89624 0.44048 0.0
Co765 Co 0.28969 0.87542 0.63337 0.0
C766 C 0.28596 0.85648 0.8661 0.0
O767 O 0.30096 0.8769 0.90651 0.0
N768 N 0.34088 0.87052 0.66711 0.0
C769 C 0.39647 0.87215 0.74652 0.0
C770 C 0.36276 0.88363 0.73731 0.0
C771 C 0.36212 0.85065 0.63738 0.0
N772 N 0.39569 0.85143 0.68402 0.0
O773 O 0.28987 0.84667 0.54473 0.0
H774 H 0.35462 0.89998 0.78397 0.0
H775 H 0.35319 0.8355 0.58468 0.0
O776 O 0.27904 0.85474 0.76317 0.0
C777 C 0.29644 0.85341 0.44598 0.0
O778 O 0.30379 0.87705 0.42449 0.0
N779 N 0.28919 0.90614 0.70396 0.0
C780 C 0.28785 0.95723 0.75253 0.0
C781 C 0.2645 0.94027 0.80811 0.0
C782 C 0.2655 0.91472 0.78223 0.0
C783 C 0.31001 0.9225 0.64441 0.0
C784 C 0.31089 0.94786 0.66993 0.0
H785 H 0.24651 0.90209 0.82226 0.0
H786 H 0.32641 0.91565 0.57646 0.0
H787 H 0.21133 0.8665 0.74814 0.0
H788 H 0.16777 0.89646 0.45627 0.0
H789 H 0.41911 0.87793 0.79847 0.0
H790 H 0.24488 0.94664 0.86896 0.0
H791 H 0.32956 0.95982 0.62463 0.0
C792 C 0.46824 0.56128 0.25166 0.0
C793 C 0.43084 0.56101 0.26656 0.0
N794 N 0.42434 0.56297 0.37488 0.0
N795 N 0.48523 0.56384 0.35002 0.0
C796 C 0.45748 0.56451 0.42435 0.0
H797 H 0.48195 0.55927 0.17344 0.0
Co798 Co 0.53633 0.56533 0.36826 0.0
C799 C 0.54415 0.58689 0.59766 0.0
O800 O 0.56824 0.56978 0.62673 0.0
N801 N 0.58815 0.56706 0.38221 0.0
C802 C 0.64814 0.56094 0.35222 0.0
C803 C 0.6134 0.55099 0.34018 0.0
C804 C 0.60834 0.58689 0.41755 0.0
N805 N 0.64465 0.58343 0.40112 0.0
O806 O 0.53796 0.59408 0.28035 0.0
H807 H 0.60724 0.5336 0.29847 0.0
H808 H 0.59663 0.60406 0.44968 0.0
O809 O 0.53024 0.5866 0.50082 0.0
C810 C 0.54462 0.58776 0.18126 0.0
O811 O 0.55078 0.56408 0.15707 0.0
N812 N 0.53463 0.53503 0.44167 0.0
C813 C 0.53419 0.48463 0.50046 0.0
C814 C 0.52505 0.50336 0.57779 0.0
C815 C 0.52418 0.52853 0.54548 0.0
C816 C 0.54106 0.51705 0.36452 0.0
C817 C 0.5413 0.49182 0.39194 0.0
H818 H 0.51429 0.54235 0.60305 0.0
H819 H 0.5457 0.52246 0.27996 0.0
H820 H 0.46138 0.56607 0.51233 0.0
H821 H 0.41013 0.5587 0.20345 0.0
H822 H 0.67375 0.5525 0.32596 0.0
H823 H 0.51843 0.49876 0.66222 0.0
H824 H 0.54637 0.47812 0.32781 0.0
C825 C 0.84517 0.64405 0.31573 0.0
C826 C 0.883 0.64384 0.3205 0.0
N827 N 0.89274 0.62937 0.40599 0.0
N828 N 0.83132 0.62957 0.39724 0.0
C829 C 0.86122 0.621 0.45172 0.0
H830 H 0.82877 0.65461 0.25786 0.0
Co831 Co 0.78084 0.62381 0.42044 0.0
C832 C 0.78525 0.6061 0.65808 0.0
O833 O 0.7726 0.62695 0.70138 0.0
N834 N 0.72951 0.61734 0.4428 0.0
C835 C 0.67224 0.61726 0.51061 0.0
C836 C 0.70685 0.62752 0.51954 0.0
C837 C 0.7079 0.60031 0.39036 0.0
N838 N 0.67327 0.60005 0.43017 0.0
O839 O 0.78524 0.59456 0.33757 0.0
H840 H 0.71484 0.64135 0.58006 0.0
H841 H 0.71718 0.58804 0.32523 0.0
O842 O 0.79005 0.60419 0.55414 0.0
C843 C 0.78388 0.60076 0.23662 0.0
O844 O 0.77634 0.62408 0.20968 0.0
N845 N 0.77743 0.65473 0.48911 0.0
C846 C 0.77966 0.70604 0.53186 0.0
C847 C 0.80411 0.68945 0.58454 0.0
C848 C 0.80255 0.66385 0.56194 0.0
C849 C 0.75448 0.67064 0.43429 0.0
C850 C 0.75425 0.6962 0.45698 0.0
H851 H 0.82292 0.65159 0.59789 0.0
H852 H 0.73691 0.66351 0.36965 0.0
H853 H 0.86006 0.60933 0.52445 0.0
H854 H 0.90174 0.65444 0.26917 0.0
H855 H 0.6486 0.62144 0.56135 0.0
H856 H 0.82536 0.69618 0.6394 0.0
H857 H 0.73479 0.70806 0.41428 0.0
C858 C 0.47991 0.64834 1.00264 0.0
C859 C 0.44211 0.6469 0.99696 0.0
N860 N 0.43363 0.63071 0.91611 0.0
N861 N 0.49496 0.63301 0.92608 0.0
C862 C 0.46585 0.62255 0.87419 0.0
H863 H 0.49547 0.66022 0.05774 0.0
Co864 Co 0.54569 0.628 0.90485 0.0
C865 C 0.54037 0.60943 0.66682 0.0
O866 O 0.54819 0.63116 0.62202 0.0
N867 N 0.59682 0.62193 0.88445 0.0
C868 C 0.65228 0.61711 0.80776 0.0
C869 C 0.61827 0.62829 0.79758 0.0
C870 C 0.61863 0.60687 0.94599 0.0
N871 N 0.65202 0.60352 0.9007 0.0
O872 O 0.54236 0.59945 0.99356 0.0
H873 H 0.60954 0.63974 0.72906 0.0
H874 H 0.61005 0.59762 0.02042 0.0
O875 O 0.5379 0.60715 0.77163 0.0
C876 C 0.54419 0.60623 0.0941 0.0
O877 O 0.54856 0.63006 0.11865 0.0
N878 N 0.54864 0.65856 0.83142 0.0
C879 C 0.54686 0.70951 0.78146 0.0
C880 C 0.521 0.69291 0.73568 0.0
C881 C 0.52215 0.66753 0.76258 0.0
C882 C 0.57329 0.67458 0.87879 0.0
C883 C 0.57352 0.69999 0.85285 0.0
H884 H 0.50069 0.65534 0.73224 0.0
H885 H 0.59201 0.66787 0.94122 0.0
H886 H 0.46807 0.6096 0.80594 0.0
H887 H 0.42251 0.65769 0.04452 0.0
H888 H 0.67486 0.61828 0.75019 0.0
H889 H 0.49905 0.69959 0.6832 0.0
H890 H 0.5939 0.71207 0.89048 0.0
C891 C 0.8527 0.54056 0.03566 0.0
C892 C 0.89032 0.54222 0.02393 0.0
N893 N 0.89717 0.55936 0.94554 0.0
N894 N 0.83622 0.55666 0.96532 0.0
C895 C 0.86425 0.56788 0.91113 0.0
H896 H 0.8382 0.52813 0.09105 0.0
Co897 Co 0.78534 0.56174 0.95665 0.0
C898 C 0.78475 0.58312 0.72508 0.0
O899 O 0.76961 0.56298 0.68254 0.0
N900 N 0.7341 0.5677 0.95546 0.0
C901 C 0.67842 0.57287 0.02965 0.0
C902 C 0.71194 0.56133 0.04057 0.0
C903 C 0.71341 0.58371 0.89481 0.0
N904 N 0.67962 0.58699 0.93821 0.0
O905 O 0.78978 0.58903 0.0508 0.0
H906 H 0.72024 0.54993 0.10979 0.0
H907 H 0.72331 0.59417 0.8251 0.0
O908 O 0.79139 0.58433 0.82848 0.0
C909 C 0.7884 0.58222 0.15096 0.0
O910 O 0.78746 0.55824 0.17596 0.0
N911 N 0.78064 0.53245 0.87161 0.0
C912 C 0.78119 0.48323 0.79335 0.0
C913 C 0.80655 0.50093 0.75364 0.0
C914 C 0.80592 0.52542 0.79424 0.0
C915 C 0.75598 0.51531 0.91058 0.0
C916 C 0.75508 0.49093 0.87055 0.0
H917 H 0.82668 0.53844 0.76638 0.0
H918 H 0.73818 0.51967 0.97827 0.0
H919 H 0.86079 0.58175 0.847 0.0
H920 H 0.91085 0.53111 0.06608 0.0
H921 H 0.65573 0.57176 0.08703 0.0
H922 H 0.8278 0.4957 0.69558 0.0
H923 H 0.7348 0.47804 0.90322 0.0
C924 C 0.60045 0.3945 0.76628 0.0
C925 C 0.6383 0.39351 0.7589 0.0
N926 N 0.64676 0.37942 0.67075 0.0
N927 N 0.58545 0.38098 0.68341 0.0
C928 C 0.61459 0.37208 0.62639 0.0
H929 H 0.5849 0.40502 0.82649 0.0
Co930 Co 0.53515 0.37636 0.65493 0.0
C931 C 0.54016 0.35753 0.42119 0.0
O932 O 0.52667 0.3782 0.37877 0.0
N933 N 0.48412 0.37064 0.62421 0.0
C934 C 0.42889 0.37017 0.54263 0.0
C935 C 0.46242 0.38203 0.54815 0.0
C936 C 0.46299 0.3514 0.66151 0.0
N937 N 0.42967 0.35092 0.61353 0.0
O938 O 0.53634 0.34787 0.7437 0.0
H939 H 0.47066 0.39734 0.49537 0.0
H940 H 0.47185 0.33749 0.72036 0.0
O941 O 0.54543 0.35566 0.5249 0.0
C942 C 0.5316 0.35504 0.84276 0.0
O943 O 0.52581 0.3789 0.864 0.0
N944 N 0.53442 0.40689 0.58307 0.0
C945 C 0.53484 0.45767 0.53037 0.0
C946 C 0.55959 0.44094 0.47952 0.0
C947 C 0.55919 0.41556 0.508 0.0
C948 C 0.51202 0.42315 0.63801 0.0
C949 C 0.5108 0.44837 0.61039 0.0
H950 H 0.57948 0.40309 0.47277 0.0
H951 H 0.49492 0.41638 0.70455 0.0
H952 H 0.61252 0.361 0.55209 0.0
H953 H 0.65788 0.40335 0.81024 0.0
H954 H 0.40647 0.37454 0.48735 0.0
H955 H 0.57982 0.44745 0.42072 0.0
H956 H 0.49122 0.46035 0.65216 0.0
C957 C 0.22622 0.316 0.77476 0.0
C958 C 0.18879 0.31625 0.76067 0.0
N959 N 0.18211 0.31564 0.65216 0.0
N960 N 0.2431 0.31564 0.67551 0.0
C961 C 0.2152 0.31517 0.60175 0.0
H962 H 0.23998 0.31564 0.85331 0.0
Co963 Co 0.29427 0.31541 0.65598 0.0
C964 C 0.30625 0.33486 0.42674 0.0
O965 O 0.33066 0.3171 0.41002 0.0
N966 N 0.34581 0.31572 0.64049 0.0
C967 C 0.40593 0.30902 0.66291 0.0
C968 C 0.37131 0.29851 0.67043 0.0
C969 C 0.36559 0.33652 0.61612 0.0
N970 N 0.40187 0.33281 0.62844 0.0
O971 O 0.29831 0.34411 0.74578 0.0
H972 H 0.3654 0.27995 0.70141 0.0
H973 H 0.35351 0.35448 0.59561 0.0
O974 O 0.28966 0.33636 0.51996 0.0
C975 C 0.30649 0.33707 0.84328 0.0
O976 O 0.31114 0.31309 0.86419 0.0
N977 N 0.29045 0.28506 0.58351 0.0
C978 C 0.28681 0.23457 0.52711 0.0
C979 C 0.27938 0.25335 0.44853 0.0
C980 C 0.28007 0.27859 0.47958 0.0
C981 C 0.29556 0.26713 0.66161 0.0
C982 C 0.294 0.24185 0.63551 0.0
H983 H 0.27169 0.29254 0.42059 0.0
H984 H 0.30086 0.27264 0.74568 0.0
H985 H 0.21896 0.31447 0.51351 0.0
H986 H 0.16816 0.31598 0.82488 0.0
H987 H 0.43178 0.30011 0.68327 0.0
H988 H 0.27301 0.24876 0.36394 0.0
H989 H 0.29795 0.22822 0.70052 0.0
C990 C 0.60031 0.29747 1.00733 0.0
C991 C 0.6382 0.29819 1.01408 0.0
N992 N 0.64702 0.31213 0.1023 0.0
N993 N 0.58561 0.31104 0.0906 0.0
C994 C 0.61499 0.31969 0.14725 0.0
H995 H 0.58453 0.28709 0.94726 0.0
Co996 Co 0.53528 0.31582 0.11998 0.0
C997 C 0.54012 0.33473 0.35325 0.0
O998 O 0.52609 0.31417 0.39528 0.0
N999 N 0.48423 0.32165 0.15146 0.0
C1000 C 0.4289 0.32186 0.23272 0.0
C1001 C 0.46246 0.31007 0.22688 0.0
C1002 C 0.46311 0.34097 0.11494 0.0
N1003 N 0.4297 0.34128 0.16271 0.0
O1004 O 0.53649 0.34429 0.03109 0.0
H1005 H 0.4706 0.29462 0.27895 0.0
H1006 H 0.47201 0.35501 0.05662 0.0
O1007 O 0.54585 0.33654 0.24971 0.0
C1008 C 0.53157 0.33713 0.93212 0.0
O1009 O 0.52557 0.31329 0.91098 0.0
N1010 N 0.53448 0.28533 0.19207 0.0
C1011 C 0.53493 0.23455 0.24483 0.0
C1012 C 0.55957 0.25133 0.29586 0.0
C1013 C 0.55915 0.27671 0.26738 0.0
C1014 C 0.51212 0.26905 0.13718 0.0
C1015 C 0.51089 0.24383 0.16489 0.0
H1016 H 0.57939 0.2892 0.30265 0.0
H1017 H 0.49507 0.2758 0.07057 0.0
H1018 H 0.61315 0.33074 0.2217 0.0
H1019 H 0.65754 0.28825 0.96221 0.0
H1020 H 0.4064 0.31728 0.28751 0.0
H1021 H 0.57982 0.24485 0.35453 0.0
H1022 H 0.4914 0.23182 0.12299 0.0
C1023 C 0.22577 0.3748 1.00346 0.0
C1024 C 0.18835 0.3752 1.01717 0.0
N1025 N 0.18151 0.37696 0.12536 0.0
N1026 N 0.24257 0.37587 0.10268 0.0
C1027 C 0.21455 0.37742 0.17601 0.0
H1028 H 0.23956 0.37435 0.92493 0.0
Co1029 Co 0.29387 0.37621 0.12208 0.0
C1030 C 0.30635 0.35623 0.35008 0.0
O1031 O 0.33092 0.3739 0.36673 0.0
N1032 N 0.34544 0.37606 0.13713 0.0
C1033 C 0.40551 0.38318 0.11504 0.0
C1034 C 0.37075 0.39351 0.10825 0.0
C1035 C 0.36544 0.35529 0.16007 0.0
N1036 N 0.4017 0.35924 0.14797 0.0
O1037 O 0.29812 0.34768 0.03133 0.0
H1038 H 0.3646 0.41216 0.07873 0.0
H1039 H 0.35355 0.33721 0.17973 0.0
O1040 O 0.2894 0.35498 0.25743 0.0
C1041 C 0.3064 0.35478 0.93395 0.0
O1042 O 0.31082 0.3788 0.91319 0.0
N1043 N 0.28985 0.40638 0.1958 0.0
C1044 C 0.2849 0.45673 0.25432 0.0
C1045 C 0.27865 0.43767 0.33259 0.0
C1046 C 0.27991 0.41252 0.30053 0.0
C1047 C 0.29417 0.42453 0.11822 0.0
C1048 C 0.29181 0.44974 0.14527 0.0
H1049 H 0.27216 0.39838 0.35944 0.0
H1050 H 0.29931 0.41925 0.03374 0.0
H1051 H 0.21819 0.37897 0.26406 0.0
H1052 H 0.16784 0.37522 0.95269 0.0
H1053 H 0.43127 0.39231 0.09549 0.0
H1054 H 0.27271 0.44192 0.41778 0.0
H1055 H 0.29489 0.46351 0.08042 0.0
loop_
_geom_bond_atom_site_label_1
_geom_bond_atom_site_label_2
_geom_bond_distance
_geom_bond_site_symmetry_2
_ccdc_geom_bond_type
C0 C1 1.351 . S
C0 N3 1.368 . S
C0 H5 0.931 . S
C1 C0 1.351 . S
C1 N2 1.373 . S
C1 H29 0.930 . S
N2 C1 1.373 . S
N2 C4 1.340 . S
N3 C0 1.368 . S
N3 C4 1.321 . S
N3 Co6 2.135 . S
C4 N2 1.340 . S
C4 N3 1.321 . S
C4 H28 0.930 . S
H5 C0 0.931 . S
Co6 N3 2.135 . S
Co6 N9 2.121 1_655 S
Co6 O14 2.055 1_655 S
Co6 O17 2.039 . S
Co6 N20 2.140 1_655 S
C7 O8 1.227 . S
C7 O17 1.265 . S
O8 C7 1.227 . S
N9 Co6 2.121 1_455 S
N9 C11 1.375 . S
N9 C12 1.313 . S
C10 C11 1.338 . S
C10 N13 1.377 . S
C10 H30 0.930 . S
C11 N9 1.375 . S
C11 C10 1.338 . S
C11 H15 0.931 . S
C12 N9 1.313 . S
C12 N13 1.344 . S
C12 H16 0.930 . S
N13 C10 1.377 . S
N13 C12 1.344 . S
O14 Co6 2.055 1_455 S
O14 C18 1.252 . S
H15 C11 0.931 . S
H16 C12 0.930 . S
O17 Co6 2.039 . S
O17 C7 1.265 . S
C18 O14 1.252 . S
C18 O19 1.227 . S
O19 C18 1.227 . S
N20 Co6 2.140 1_455 S
N20 C23 1.346 1_455 S
N20 C24 1.345 . S
C21 C22 1.387 1_455 S
C21 C25 1.391 . S
C22 C21 1.387 1_655 S
C22 C23 1.369 . S
C22 H31 0.929 . S
C23 N20 1.346 1_655 S
C23 C22 1.369 . S
C23 H26 0.928 . S
C24 N20 1.345 . S
C24 C25 1.371 . S
C24 H27 0.931 . S
C25 C21 1.391 . S
C25 C24 1.371 . S
C25 H32 0.930 . S
H26 C23 0.928 . S
H27 C24 0.931 . S
H28 C4 0.930 . S
H29 C1 0.930 . S
H30 C10 0.930 . S
H31 C22 0.929 . S
H32 C25 0.930 . S
C33 C34 1.351 . S
C33 N36 1.368 . S
C33 H38 0.931 . S
C34 C33 1.351 . S
C34 N35 1.373 . S
C34 H62 0.930 . S
N35 C34 1.373 . S
N35 C37 1.340 . S
N36 C33 1.368 . S
N36 C37 1.321 . S
N36 Co39 2.135 . S
C37 N35 1.340 . S
C37 N36 1.321 . S
C37 H61 0.930 . S
H38 C33 0.931 . S
Co39 N36 2.135 . S
Co39 N42 2.121 . S
Co39 O47 2.055 . S
Co39 O50 2.039 . S
Co39 N53 2.140 . S
C40 O41 1.227 . S
C40 O50 1.265 . S
O41 C40 1.227 . S
N42 Co39 2.121 . S
N42 C44 1.375 . S
N42 C45 1.313 . S
C43 C44 1.338 . S
C43 N46 1.377 . S
C43 H63 0.930 . S
C44 N42 1.375 . S
C44 C43 1.338 . S
C44 H48 0.931 . S
C45 N42 1.313 . S
C45 N46 1.344 . S
C45 H49 0.930 . S
N46 C43 1.377 . S
N46 C45 1.344 . S
O47 Co39 2.055 . S
O47 C51 1.253 . S
H48 C44 0.931 . S
H49 C45 0.930 . S
O50 Co39 2.039 . S
O50 C40 1.265 . S
C51 O47 1.253 . S
C51 O52 1.227 . S
O52 C51 1.227 . S
N53 Co39 2.140 . S
N53 C56 1.346 . S
N53 C57 1.345 . S
C54 C55 1.387 . S
C54 C58 1.391 . S
C55 C54 1.387 . S
C55 C56 1.369 . S
C55 H64 0.929 . S
C56 N53 1.346 . S
C56 C55 1.369 . S
C56 H59 0.928 . S
C57 N53 1.345 . S
C57 C58 1.371 . S
C57 H60 0.931 . S
C58 C54 1.391 . S
C58 C57 1.371 . S
C58 H65 0.930 . S
H59 C56 0.928 . S
H60 C57 0.931 . S
H61 C37 0.930 . S
H62 C34 0.930 . S
H63 C43 0.930 . S
H64 C55 0.929 . S
H65 C58 0.930 . S
C66 C67 1.351 . S
C66 N69 1.368 . S
C66 H71 0.931 1_556 S
C67 C66 1.351 . S
C67 N68 1.373 . S
C67 H95 0.930 1_556 S
N68 C67 1.373 . S
N68 C70 1.340 . S
N69 C66 1.368 . S
N69 C70 1.321 . S
N69 Co72 2.135 . S
C70 N68 1.340 . S
C70 N69 1.321 . S
C70 H94 0.930 . S
H71 C66 0.931 1_554 S
Co72 N69 2.135 . S
Co72 N75 2.121 1_655 S
Co72 O80 2.055 1_556 S
Co72 O83 2.039 . S
Co72 N86 2.140 1_655 S
C73 O74 1.227 . S
C73 O83 1.265 . S
O74 C73 1.227 . S
N75 Co72 2.121 1_455 S
N75 C77 1.375 . S
N75 C78 1.313 . S
C76 C77 1.338 . S
C76 N79 1.377 . S
C76 H96 0.930 . S
C77 N75 1.375 . S
C77 C76 1.338 . S
C77 H81 0.931 . S
C78 N75 1.313 . S
C78 N79 1.344 . S
C78 H82 0.930 . S
N79 C76 1.377 . S
N79 C78 1.344 . S
O80 Co72 2.055 1_554 S
O80 C84 1.253 1_655 S
H81 C77 0.931 . S
H82 C78 0.930 . S
O83 Co72 2.039 . S
O83 C73 1.265 . S
C84 O80 1.253 1_455 S
C84 O85 1.227 . S
O85 C84 1.227 . S
N86 Co72 2.140 1_455 S
N86 C89 1.346 1_455 S
N86 C90 1.345 . S
C87 C88 1.387 1_455 S
C87 C91 1.391 . S
C88 C87 1.387 1_655 S
C88 C89 1.369 . S
C88 H97 0.929 . S
C89 N86 1.346 1_655 S
C89 C88 1.369 . S
C89 H92 0.928 . S
C90 N86 1.345 . S
C90 C91 1.371 . S
C90 H93 0.931 . S
C91 C87 1.391 . S
C91 C90 1.371 . S
C91 H98 0.930 . S
H92 C89 0.928 . S
H93 C90 0.931 . S
H94 C70 0.930 . S
H95 C67 0.930 1_554 S
H96 C76 0.930 . S
H97 C88 0.929 . S
H98 C91 0.930 . S
C99 C100 1.351 . S
C99 N102 1.368 . S
C99 H104 0.931 1_556 S
C100 C99 1.351 . S
C100 N101 1.373 . S
C100 H128 0.930 1_556 S
N101 C100 1.373 . S
N101 C103 1.340 . S
N102 C99 1.368 . S
N102 C103 1.321 . S
N102 Co105 2.135 . S
C103 N101 1.340 . S
C103 N102 1.321 . S
C103 H127 0.930 . S
H104 C99 0.931 1_554 S
Co105 N102 2.135 . S
Co105 N108 2.121 . S
Co105 O113 2.055 1_556 S
Co105 O116 2.039 . S
Co105 N119 2.140 . S
C106 O107 1.227 . S
C106 O116 1.265 . S
O107 C106 1.227 . S
N108 Co105 2.121 . S
N108 C110 1.375 . S
N108 C111 1.313 . S
C109 C110 1.338 . S
C109 N112 1.377 . S
C109 H129 0.930 . S
C110 N108 1.375 . S
C110 C109 1.338 . S
C110 H114 0.931 . S
C111 N108 1.313 . S
C111 N112 1.344 . S
C111 H115 0.930 . S
N112 C109 1.377 . S
N112 C111 1.344 . S
O113 Co105 2.055 1_554 S
O113 C117 1.253 . S
H114 C110 0.931 . S
H115 C111 0.930 . S
O116 Co105 2.039 . S
O116 C106 1.265 . S
C117 O113 1.253 . S
C117 O118 1.227 . S
O118 C117 1.227 . S
N119 Co105 2.140 . S
N119 C122 1.346 . S
N119 C123 1.345 . S
C120 C121 1.387 . S
C120 C124 1.391 . S
C121 C120 1.387 . S
C121 C122 1.369 . S
C121 H130 0.929 . S
C122 N119 1.346 . S
C122 C121 1.369 . S
C122 H125 0.928 . S
C123 N119 1.345 . S
C123 C124 1.371 . S
C123 H126 0.931 . S
C124 C120 1.391 . S
C124 C123 1.371 . S
C124 H131 0.930 . S
H125 C122 0.928 . S
H126 C123 0.931 . S
H127 C103 0.930 . S
H128 C100 0.930 1_554 S
H129 C109 0.930 . S
H130 C121 0.929 . S
H131 C124 0.930 . S
C132 C133 1.351 . S
C132 N135 1.368 . S
C132 H137 0.931 . S
C133 C132 1.351 . S
C133 N134 1.373 . S
C133 H161 0.930 . S
N134 C133 1.373 . S
N134 C136 1.340 . S
N135 C132 1.368 . S
N135 C136 1.321 . S
N135 Co138 2.135 . S
C136 N134 1.340 . S
C136 N135 1.321 . S
C136 H160 0.930 . S
H137 C132 0.931 . S
Co138 N135 2.135 . S
Co138 N141 2.121 1_455 S
Co138 O146 2.055 1_455 S
Co138 O149 2.039 . S
Co138 N152 2.140 1_455 S
C139 O140 1.227 . S
C139 O149 1.265 . S
O140 C139 1.227 . S
N141 Co138 2.121 1_655 S
N141 C143 1.375 . S
N141 C144 1.313 . S
C142 C143 1.338 . S
C142 N145 1.377 . S
C142 H162 0.930 . S
C143 N141 1.375 . S
C143 C142 1.338 . S
C143 H147 0.931 . S
C144 N141 1.313 . S
C144 N145 1.344 . S
C144 H148 0.930 . S
N145 C142 1.377 . S
N145 C144 1.344 . S
O146 Co138 2.055 1_655 S
O146 C150 1.252 . S
H147 C143 0.931 . S
H148 C144 0.930 . S
O149 Co138 2.039 . S
O149 C139 1.265 . S
C150 O146 1.252 . S
C150 O151 1.227 . S
O151 C150 1.227 . S
N152 Co138 2.140 1_655 S
N152 C155 1.346 1_655 S
N152 C156 1.345 . S
C153 C154 1.387 1_655 S
C153 C157 1.391 . S
C154 C153 1.387 1_455 S
C154 C155 1.369 . S
C154 H163 0.929 . S
C155 N152 1.346 1_455 S
C155 C154 1.369 . S
C155 H158 0.928 . S
C156 N152 1.345 . S
C156 C157 1.371 . S
C156 H159 0.931 . S
C157 C153 1.391 . S
C157 C156 1.371 . S
C157 H164 0.930 . S
H158 C155 0.928 . S
H159 C156 0.931 . S
H160 C136 0.930 . S
H161 C133 0.930 . S
H162 C142 0.930 . S
H163 C154 0.929 . S
H164 C157 0.930 . S
C165 C166 1.351 . S
C165 N168 1.368 . S
C165 H170 0.931 . S
C166 C165 1.351 . S
C166 N167 1.373 . S
C166 H194 0.930 . S
N167 C166 1.373 . S
N167 C169 1.340 . S
N168 C165 1.368 . S
N168 C169 1.321 . S
N168 Co171 2.135 . S
C169 N167 1.340 . S
C169 N168 1.321 . S
C169 H193 0.930 . S
H170 C165 0.931 . S
Co171 N168 2.135 . S
Co171 N174 2.121 . S
Co171 O179 2.055 . S
Co171 O182 2.039 . S
Co171 N185 2.140 . S
C172 O173 1.227 . S
C172 O182 1.265 . S
O173 C172 1.227 . S
N174 Co171 2.121 . S
N174 C176 1.375 . S
N174 C177 1.313 . S
C175 C176 1.338 . S
C175 N178 1.377 . S
C175 H195 0.930 . S
C176 N174 1.375 . S
C176 C175 1.338 . S
C176 H180 0.931 . S
C177 N174 1.313 . S
C177 N178 1.344 . S
C177 H181 0.930 . S
N178 C175 1.377 . S
N178 C177 1.344 . S
O179 Co171 2.055 . S
O179 C183 1.253 . S
H180 C176 0.931 . S
H181 C177 0.930 . S
O182 Co171 2.039 . S
O182 C172 1.265 . S
C183 O179 1.253 . S
C183 O184 1.227 . S
O184 C183 1.227 . S
N185 Co171 2.140 . S
N185 C188 1.346 . S
N185 C189 1.345 . S
C186 C187 1.387 . S
C186 C190 1.391 . S
C187 C186 1.387 . S
C187 C188 1.369 . S
C187 H196 0.929 . S
C188 N185 1.346 . S
C188 C187 1.369 . S
C188 H191 0.928 . S
C189 N185 1.345 . S
C189 C190 1.371 . S
C189 H192 0.931 . S
C190 C186 1.391 . S
C190 C189 1.371 . S
C190 H197 0.930 . S
H191 C188 0.928 . S
H192 C189 0.931 . S
H193 C169 0.930 . S
H194 C166 0.930 . S
H195 C175 0.930 . S
H196 C187 0.929 . S
H197 C190 0.930 . S
C198 C199 1.351 . S
C198 N201 1.368 . S
C198 H203 0.931 1_554 S
C199 C198 1.351 . S
C199 N200 1.373 . S
C199 H227 0.930 1_554 S
N200 C199 1.373 . S
N200 C202 1.340 . S
N201 C198 1.368 . S
N201 C202 1.321 . S
N201 Co204 2.135 . S
C202 N200 1.340 . S
C202 N201 1.321 . S
C202 H226 0.930 . S
H203 C198 0.931 1_556 S
Co204 N201 2.135 . S
Co204 N207 2.121 1_455 S
Co204 O212 2.055 1_554 S
Co204 O215 2.039 . S
Co204 N218 2.140 1_455 S
C205 O206 1.227 . S
C205 O215 1.265 . S
O206 C205 1.227 . S
N207 Co204 2.121 1_655 S
N207 C209 1.375 . S
N207 C210 1.313 . S
C208 C209 1.338 . S
C208 N211 1.377 . S
C208 H228 0.930 . S
C209 N207 1.375 . S
C209 C208 1.338 . S
C209 H213 0.931 . S
C210 N207 1.313 . S
C210 N211 1.344 . S
C210 H214 0.930 . S
N211 C208 1.377 . S
N211 C210 1.344 . S
O212 Co204 2.055 1_556 S
O212 C216 1.253 1_455 S
H213 C209 0.931 . S
H214 C210 0.930 . S
O215 Co204 2.039 . S
O215 C205 1.265 . S
C216 O212 1.253 1_655 S
C216 O217 1.227 . S
O217 C216 1.227 . S
N218 Co204 2.140 1_655 S
N218 C221 1.346 1_655 S
N218 C222 1.345 . S
C219 C220 1.387 1_655 S
C219 C223 1.391 . S
C220 C219 1.387 1_455 S
C220 C221 1.369 . S
C220 H229 0.929 . S
C221 N218 1.346 1_455 S
C221 C220 1.369 . S
C221 H224 0.928 . S
C222 N218 1.345 . S
C222 C223 1.371 . S
C222 H225 0.931 . S
C223 C219 1.391 . S
C223 C222 1.371 . S
C223 H230 0.930 . S
H224 C221 0.928 . S
H225 C222 0.931 . S
H226 C202 0.930 . S
H227 C199 0.930 1_556 S
H228 C208 0.930 . S
H229 C220 0.929 . S
H230 C223 0.930 . S
C231 C232 1.351 . S
C231 N234 1.368 . S
C231 H236 0.931 1_554 S
C232 C231 1.351 . S
C232 N233 1.373 . S
C232 H260 0.930 1_554 S
N233 C232 1.373 . S
N233 C235 1.340 . S
N234 C231 1.368 . S
N234 C235 1.321 . S
N234 Co237 2.135 . S
C235 N233 1.340 . S
C235 N234 1.321 . S
C235 H259 0.930 . S
H236 C231 0.931 1_556 S
Co237 N234 2.135 . S
Co237 N240 2.121 . S
Co237 O245 2.055 1_554 S
Co237 O248 2.039 . S
Co237 N251 2.140 . S
C238 O239 1.227 . S
C238 O248 1.265 . S
O239 C238 1.227 . S
N240 Co237 2.121 . S
N240 C242 1.375 . S
N240 C243 1.313 . S
C241 C242 1.338 . S
C241 N244 1.377 . S
C241 H261 0.930 . S
C242 N240 1.375 . S
C242 C241 1.338 . S
C242 H246 0.931 . S
C243 N240 1.313 . S
C243 N244 1.344 . S
C243 H247 0.930 . S
N244 C241 1.377 . S
N244 C243 1.344 . S
O245 Co237 2.055 1_556 S
O245 C249 1.253 . S
H246 C242 0.931 . S
H247 C243 0.930 . S
O248 Co237 2.039 . S
O248 C238 1.265 . S
C249 O245 1.253 . S
C249 O250 1.227 . S
O250 C249 1.227 . S
N251 Co237 2.140 . S
N251 C254 1.346 . S
N251 C255 1.345 . S
C252 C253 1.387 . S
C252 C256 1.391 . S
C253 C252 1.387 . S
C253 C254 1.369 . S
C253 H262 0.929 . S
C254 N251 1.346 . S
C254 C253 1.369 . S
C254 H257 0.928 . S
C255 N251 1.345 . S
C255 C256 1.371 . S
C255 H258 0.931 . S
C256 C252 1.391 . S
C256 C255 1.371 . S
C256 H263 0.930 . S
H257 C254 0.928 . S
H258 C255 0.931 . S
H259 C235 0.930 . S
H260 C232 0.930 1_556 S
H261 C241 0.930 . S
H262 C253 0.929 . S
H263 C256 0.930 . S
C264 C265 1.351 . S
C264 N267 1.368 . S
C264 H269 0.931 . S
C265 C264 1.351 . S
C265 N266 1.373 . S
C265 H293 0.930 . S
N266 C265 1.373 . S
N266 C268 1.340 . S
N267 C264 1.368 . S
N267 C268 1.321 . S
N267 Co270 2.135 . S
C268 N266 1.340 . S
C268 N267 1.321 . S
C268 H292 0.930 . S
H269 C264 0.931 . S
Co270 N267 2.135 . S
Co270 N273 2.121 1_655 S
Co270 O278 2.055 1_655 S
Co270 O281 2.039 . S
Co270 N284 2.140 1_655 S
C271 O272 1.227 . S
C271 O281 1.265 1_554 S
O272 C271 1.227 . S
N273 Co270 2.121 1_455 S
N273 C275 1.375 . S
N273 C276 1.313 . S
C274 C275 1.338 . S
C274 N277 1.377 . S
C274 H294 0.930 1_556 S
C275 N273 1.375 . S
C275 C274 1.338 . S
C275 H279 0.931 1_556 S
C276 N273 1.313 . S
C276 N277 1.344 . S
C276 H280 0.930 . S
N277 C274 1.377 . S
N277 C276 1.344 . S
O278 Co270 2.055 1_455 S
O278 C282 1.252 . S
H279 C275 0.931 1_554 S
H280 C276 0.930 . S
O281 Co270 2.039 . S
O281 C271 1.265 1_556 S
C282 O278 1.252 . S
C282 O283 1.227 . S
O283 C282 1.227 . S
N284 Co270 2.140 1_455 S
N284 C287 1.346 1_455 S
N284 C288 1.345 . S
C285 C286 1.387 1_455 S
C285 C289 1.391 . S
C286 C285 1.387 1_655 S
C286 C287 1.369 . S
C286 H295 0.929 1_556 S
C287 N284 1.346 1_655 S
C287 C286 1.369 . S
C287 H290 0.928 . S
C288 N284 1.345 . S
C288 C289 1.371 . S
C288 H291 0.931 . S
C289 C285 1.391 . S
C289 C288 1.371 . S
C289 H296 0.930 . S
H290 C287 0.928 . S
H291 C288 0.931 . S
H292 C268 0.930 . S
H293 C265 0.930 . S
H294 C274 0.930 1_554 S
H295 C286 0.929 1_554 S
H296 C289 0.930 . S
C297 C298 1.351 . S
C297 N300 1.368 . S
C297 H302 0.931 . S
C298 C297 1.351 . S
C298 N299 1.373 . S
C298 H326 0.930 . S
N299 C298 1.373 . S
N299 C301 1.340 . S
N300 C297 1.368 . S
N300 C301 1.321 . S
N300 Co303 2.135 . S
C301 N299 1.340 . S
C301 N300 1.321 . S
C301 H325 0.930 . S
H302 C297 0.931 . S
Co303 N300 2.135 . S
Co303 N306 2.121 . S
Co303 O311 2.055 . S
Co303 O314 2.039 . S
Co303 N317 2.140 . S
C304 O305 1.227 . S
C304 O314 1.265 1_554 S
O305 C304 1.227 . S
N306 Co303 2.121 . S
N306 C308 1.375 . S
N306 C309 1.313 . S
C307 C308 1.338 . S
C307 N310 1.377 . S
C307 H327 0.930 1_556 S
C308 N306 1.375 . S
C308 C307 1.338 . S
C308 H312 0.931 1_556 S
C309 N306 1.313 . S
C309 N310 1.344 . S
C309 H313 0.930 . S
N310 C307 1.377 . S
N310 C309 1.344 . S
O311 Co303 2.055 . S
O311 C315 1.253 . S
H312 C308 0.931 1_554 S
H313 C309 0.930 . S
O314 Co303 2.039 . S
O314 C304 1.265 1_556 S
C315 O311 1.253 . S
C315 O316 1.227 . S
O316 C315 1.227 . S
N317 Co303 2.140 . S
N317 C320 1.346 . S
N317 C321 1.345 . S
C318 C319 1.387 . S
C318 C322 1.391 . S
C319 C318 1.387 . S
C319 C320 1.369 . S
C319 H328 0.929 1_556 S
C320 N317 1.346 . S
C320 C319 1.369 . S
C320 H323 0.928 . S
C321 N317 1.345 . S
C321 C322 1.371 . S
C321 H324 0.931 . S
C322 C318 1.391 . S
C322 C321 1.371 . S
C322 H329 0.930 . S
H323 C320 0.928 . S
H324 C321 0.931 . S
H325 C301 0.930 . S
H326 C298 0.930 . S
H327 C307 0.930 1_554 S
H328 C319 0.929 1_554 S
H329 C322 0.930 . S
C330 C331 1.351 . S
C330 N333 1.368 . S
C330 H335 0.931 . S
C331 C330 1.351 . S
C331 N332 1.373 . S
C331 H359 0.930 . S
N332 C331 1.373 . S
N332 C334 1.340 . S
N333 C330 1.368 . S
N333 C334 1.321 . S
N333 Co336 2.135 . S
C334 N332 1.340 . S
C334 N333 1.321 . S
C334 H358 0.930 . S
H335 C330 0.931 . S
Co336 N333 2.135 . S
Co336 N339 2.121 1_655 S
Co336 O344 2.055 . S
Co336 O347 2.039 . S
Co336 N350 2.140 1_655 S
C337 O338 1.227 . S
C337 O347 1.265 . S
O338 C337 1.227 . S
N339 Co336 2.121 1_455 S
N339 C341 1.375 . S
N339 C342 1.313 . S
C340 C341 1.338 . S
C340 N343 1.377 . S
C340 H360 0.930 . S
C341 N339 1.375 . S
C341 C340 1.338 . S
C341 H345 0.931 . S
C342 N339 1.313 . S
C342 N343 1.344 . S
C342 H346 0.930 . S
N343 C340 1.377 . S
N343 C342 1.344 . S
O344 Co336 2.055 . S
O344 C348 1.253 1_655 S
H345 C341 0.931 . S
H346 C342 0.930 . S
O347 Co336 2.039 . S
O347 C337 1.265 . S
C348 O344 1.253 1_455 S
C348 O349 1.227 . S
O349 C348 1.227 . S
N350 Co336 2.140 1_455 S
N350 C353 1.346 1_455 S
N350 C354 1.345 . S
C351 C352 1.387 1_455 S
C351 C355 1.391 . S
C352 C351 1.387 1_655 S
C352 C353 1.369 . S
C352 H361 0.929 . S
C353 N350 1.346 1_655 S
C353 C352 1.369 . S
C353 H356 0.928 . S
C354 N350 1.345 . S
C354 C355 1.371 . S
C354 H357 0.931 . S
C355 C351 1.391 . S
C355 C354 1.371 . S
C355 H362 0.930 . S
H356 C353 0.928 . S
H357 C354 0.931 . S
H358 C334 0.930 . S
H359 C331 0.930 . S
H360 C340 0.930 . S
H361 C352 0.929 . S
H362 C355 0.930 . S
C363 C364 1.351 . S
C363 N366 1.368 . S
C363 H368 0.931 . S
C364 C363 1.351 . S
C364 N365 1.373 . S
C364 H392 0.930 . S
N365 C364 1.373 . S
N365 C367 1.340 . S
N366 C363 1.368 . S
N366 C367 1.321 . S
N366 Co369 2.135 . S
C367 N365 1.340 . S
C367 N366 1.321 . S
C367 H391 0.930 . S
H368 C363 0.931 . S
Co369 N366 2.135 . S
Co369 N372 2.121 . S
Co369 O377 2.055 . S
Co369 O380 2.039 . S
Co369 N383 2.140 . S
C370 O371 1.227 . S
C370 O380 1.265 . S
O371 C370 1.227 . S
N372 Co369 2.121 . S
N372 C374 1.375 . S
N372 C375 1.313 . S
C373 C374 1.338 . S
C373 N376 1.377 . S
C373 H393 0.930 . S
C374 N372 1.375 . S
C374 C373 1.338 . S
C374 H378 0.931 . S
C375 N372 1.313 . S
C375 N376 1.344 . S
C375 H379 0.930 . S
N376 C373 1.377 . S
N376 C375 1.344 . S
O377 Co369 2.055 . S
O377 C381 1.253 . S
H378 C374 0.931 . S
H379 C375 0.930 . S
O380 Co369 2.039 . S
O380 C370 1.265 . S
C381 O377 1.253 . S
C381 O382 1.227 . S
O382 C381 1.227 . S
N383 Co369 2.140 . S
N383 C386 1.346 . S
N383 C387 1.345 . S
C384 C385 1.387 . S
C384 C388 1.391 . S
C385 C384 1.387 . S
C385 C386 1.369 . S
C385 H394 0.929 . S
C386 N383 1.346 . S
C386 C385 1.369 . S
C386 H389 0.928 . S
C387 N383 1.345 . S
C387 C388 1.371 . S
C387 H390 0.931 . S
C388 C384 1.391 . S
C388 C387 1.371 . S
C388 H395 0.930 . S
H389 C386 0.928 . S
H390 C387 0.931 . S
H391 C367 0.930 . S
H392 C364 0.930 . S
H393 C373 0.930 . S
H394 C385 0.929 . S
H395 C388 0.930 . S
C396 C397 1.351 . S
C396 N399 1.368 . S
C396 H401 0.931 . S
C397 C396 1.351 . S
C397 N398 1.373 . S
C397 H425 0.930 . S
N398 C397 1.373 . S
N398 C400 1.340 . S
N399 C396 1.368 . S
N399 C400 1.321 . S
N399 Co402 2.135 . S
C400 N398 1.340 . S
C400 N399 1.321 . S
C400 H424 0.930 . S
H401 C396 0.931 . S
Co402 N399 2.135 . S
Co402 N405 2.121 1_455 S
Co402 O410 2.055 1_455 S
Co402 O413 2.039 . S
Co402 N416 2.140 1_455 S
C403 O404 1.227 . S
C403 O413 1.265 1_556 S
O404 C403 1.227 . S
N405 Co402 2.121 1_655 S
N405 C407 1.375 . S
N405 C408 1.313 . S
C406 C407 1.338 . S
C406 N409 1.377 . S
C406 H426 0.930 1_554 S
C407 N405 1.375 . S
C407 C406 1.338 . S
C407 H411 0.931 1_554 S
C408 N405 1.313 . S
C408 N409 1.344 . S
C408 H412 0.930 . S
N409 C406 1.377 . S
N409 C408 1.344 . S
O410 Co402 2.055 1_655 S
O410 C414 1.252 . S
H411 C407 0.931 1_556 S
H412 C408 0.930 . S
O413 Co402 2.039 . S
O413 C403 1.265 1_554 S
C414 O410 1.252 . S
C414 O415 1.227 . S
O415 C414 1.227 . S
N416 Co402 2.140 1_655 S
N416 C419 1.346 1_655 S
N416 C420 1.345 . S
C417 C418 1.387 1_655 S
C417 C421 1.391 . S
C418 C417 1.387 1_455 S
C418 C419 1.369 . S
C418 H427 0.929 1_554 S
C419 N416 1.346 1_455 S
C419 C418 1.369 . S
C419 H422 0.928 . S
C420 N416 1.345 . S
C420 C421 1.371 . S
C420 H423 0.931 . S
C421 C417 1.391 . S
C421 C420 1.371 . S
C421 H428 0.930 . S
H422 C419 0.928 . S
H423 C420 0.931 . S
H424 C400 0.930 . S
H425 C397 0.930 . S
H426 C406 0.930 1_556 S
H427 C418 0.929 1_556 S
H428 C421 0.930 . S
C429 C430 1.351 . S
C429 N432 1.368 . S
C429 H434 0.931 . S
C430 C429 1.351 . S
C430 N431 1.373 . S
C430 H458 0.930 . S
N431 C430 1.373 . S
N431 C433 1.340 . S
N432 C429 1.368 . S
N432 C433 1.321 . S
N432 Co435 2.135 . S
C433 N431 1.340 . S
C433 N432 1.321 . S
C433 H457 0.930 . S
H434 C429 0.931 . S
Co435 N432 2.135 . S
Co435 N438 2.121 . S
Co435 O443 2.055 . S
Co435 O446 2.039 . S
Co435 N449 2.140 . S
C436 O437 1.227 . S
C436 O446 1.265 1_556 S
O437 C436 1.227 . S
N438 Co435 2.121 . S
N438 C440 1.375 . S
N438 C441 1.313 . S
C439 C440 1.338 . S
C439 N442 1.377 . S
C439 H459 0.930 1_554 S
C440 N438 1.375 . S
C440 C439 1.338 . S
C440 H444 0.931 1_554 S
C441 N438 1.313 . S
C441 N442 1.344 . S
C441 H445 0.930 . S
N442 C439 1.377 . S
N442 C441 1.344 . S
O443 Co435 2.055 . S
O443 C447 1.253 . S
H444 C440 0.931 1_556 S
H445 C441 0.930 . S
O446 Co435 2.039 . S
O446 C436 1.265 1_554 S
C447 O443 1.253 . S
C447 O448 1.227 . S
O448 C447 1.227 . S
N449 Co435 2.140 . S
N449 C452 1.346 . S
N449 C453 1.345 . S
C450 C451 1.387 . S
C450 C454 1.391 . S
C451 C450 1.387 . S
C451 C452 1.369 . S
C451 H460 0.929 1_554 S
C452 N449 1.346 . S
C452 C451 1.369 . S
C452 H455 0.928 . S
C453 N449 1.345 . S
C453 C454 1.371 . S
C453 H456 0.931 . S
C454 C450 1.391 . S
C454 C453 1.371 . S
C454 H461 0.930 . S
H455 C452 0.928 . S
H456 C453 0.931 . S
H457 C433 0.930 . S
H458 C430 0.930 . S
H459 C439 0.930 1_556 S
H460 C451 0.929 1_556 S
H461 C454 0.930 . S
C462 C463 1.351 . S
C462 N465 1.368 . S
C462 H467 0.931 . S
C463 C462 1.351 . S
C463 N464 1.373 . S
C463 H491 0.930 . S
N464 C463 1.373 . S
N464 C466 1.340 . S
N465 C462 1.368 . S
N465 C466 1.321 . S
N465 Co468 2.135 . S
C466 N464 1.340 . S
C466 N465 1.321 . S
C466 H490 0.930 . S
H467 C462 0.931 . S
Co468 N465 2.135 . S
Co468 N471 2.121 1_455 S
Co468 O476 2.055 . S
Co468 O479 2.039 . S
Co468 N482 2.140 1_455 S
C469 O470 1.227 . S
C469 O479 1.265 . S
O470 C469 1.227 . S
N471 Co468 2.121 1_655 S
N471 C473 1.375 . S
N471 C474 1.313 . S
C472 C473 1.338 . S
C472 N475 1.377 . S
C472 H492 0.930 . S
C473 N471 1.375 . S
C473 C472 1.338 . S
C473 H477 0.931 . S
C474 N471 1.313 . S
C474 N475 1.344 . S
C474 H478 0.930 . S
N475 C472 1.377 . S
N475 C474 1.344 . S
O476 Co468 2.055 . S
O476 C480 1.253 1_455 S
H477 C473 0.931 . S
H478 C474 0.930 . S
O479 Co468 2.039 . S
O479 C469 1.265 . S
C480 O476 1.253 1_655 S
C480 O481 1.227 . S
O481 C480 1.227 . S
N482 Co468 2.140 1_655 S
N482 C485 1.346 1_655 S
N482 C486 1.345 . S
C483 C484 1.387 1_655 S
C483 C487 1.391 . S
C484 C483 1.387 1_455 S
C484 C485 1.369 . S
C484 H493 0.929 . S
C485 N482 1.346 1_455 S
C485 C484 1.369 . S
C485 H488 0.928 . S
C486 N482 1.345 . S
C486 C487 1.371 . S
C486 H489 0.931 . S
C487 C483 1.391 . S
C487 C486 1.371 . S
C487 H494 0.930 . S
H488 C485 0.928 . S
H489 C486 0.931 . S
H490 C466 0.930 . S
H491 C463 0.930 . S
H492 C472 0.930 . S
H493 C484 0.929 . S
H494 C487 0.930 . S
C495 C496 1.351 . S
C495 N498 1.368 . S
C495 H500 0.931 . S
C496 C495 1.351 . S
C496 N497 1.373 . S
C496 H524 0.930 . S
N497 C496 1.373 . S
N497 C499 1.340 . S
N498 C495 1.368 . S
N498 C499 1.321 . S
N498 Co501 2.135 . S
C499 N497 1.340 . S
C499 N498 1.321 . S
C499 H523 0.930 . S
H500 C495 0.931 . S
Co501 N498 2.135 . S
Co501 N504 2.121 . S
Co501 O509 2.055 . S
Co501 O512 2.039 . S
Co501 N515 2.140 . S
C502 O503 1.227 . S
C502 O512 1.265 . S
O503 C502 1.227 . S
N504 Co501 2.121 . S
N504 C506 1.375 . S
N504 C507 1.313 . S
C505 C506 1.338 . S
C505 N508 1.377 . S
C505 H525 0.930 . S
C506 N504 1.375 . S
C506 C505 1.338 . S
C506 H510 0.931 . S
C507 N504 1.313 . S
C507 N508 1.344 . S
C507 H511 0.930 . S
N508 C505 1.377 . S
N508 C507 1.344 . S
O509 Co501 2.055 . S
O509 C513 1.253 . S
H510 C506 0.931 . S
H511 C507 0.930 . S
O512 Co501 2.039 . S
O512 C502 1.265 . S
C513 O509 1.253 . S
C513 O514 1.227 . S
O514 C513 1.227 . S
N515 Co501 2.140 . S
N515 C518 1.346 . S
N515 C519 1.345 . S
C516 C517 1.387 . S
C516 C520 1.391 . S
C517 C516 1.387 . S
C517 C518 1.369 . S
C517 H526 0.929 . S
C518 N515 1.346 . S
C518 C517 1.369 . S
C518 H521 0.928 . S
C519 N515 1.345 . S
C519 C520 1.371 . S
C519 H522 0.931 . S
C520 C516 1.391 . S
C520 C519 1.371 . S
C520 H527 0.930 . S
H521 C518 0.928 . S
H522 C519 0.931 . S
H523 C499 0.930 . S
H524 C496 0.930 . S
H525 C505 0.930 . S
H526 C517 0.929 . S
H527 C520 0.930 . S
C528 C529 1.351 . S
C528 N531 1.368 . S
C528 H533 0.931 . S
C529 C528 1.351 . S
C529 N530 1.373 . S
C529 H557 0.930 . S
N530 C529 1.373 . S
N530 C532 1.340 . S
N531 C528 1.368 . S
N531 C532 1.321 . S
N531 Co534 2.135 . S
C532 N530 1.340 . S
C532 N531 1.321 . S
C532 H556 0.930 . S
H533 C528 0.931 . S
Co534 N531 2.135 . S
Co534 N537 2.121 . S
Co534 O542 2.055 . S
Co534 O545 2.039 . S
Co534 N548 2.140 . S
C535 O536 1.227 . S
C535 O545 1.265 1_554 S
O536 C535 1.227 . S
N537 Co534 2.121 . S
N537 C539 1.375 . S
N537 C540 1.313 . S
C538 C539 1.338 . S
C538 N541 1.377 . S
C538 H558 0.930 1_556 S
C539 N537 1.375 . S
C539 C538 1.338 . S
C539 H543 0.931 1_556 S
C540 N537 1.313 . S
C540 N541 1.344 . S
C540 H544 0.930 . S
N541 C538 1.377 . S
N541 C540 1.344 . S
O542 Co534 2.055 . S
O542 C546 1.253 . S
H543 C539 0.931 1_554 S
H544 C540 0.930 . S
O545 Co534 2.039 . S
O545 C535 1.265 1_556 S
C546 O542 1.253 . S
C546 O547 1.227 . S
O547 C546 1.227 . S
N548 Co534 2.140 . S
N548 C551 1.346 . S
N548 C552 1.345 . S
C549 C550 1.387 . S
C549 C553 1.391 . S
C550 C549 1.387 . S
C550 C551 1.369 . S
C550 H559 0.929 1_556 S
C551 N548 1.346 . S
C551 C550 1.369 . S
C551 H554 0.928 . S
C552 N548 1.345 . S
C552 C553 1.371 . S
C552 H555 0.931 . S
C553 C549 1.391 . S
C553 C552 1.371 . S
C553 H560 0.930 . S
H554 C551 0.928 . S
H555 C552 0.931 . S
H556 C532 0.930 . S
H557 C529 0.930 . S
H558 C538 0.930 1_554 S
H559 C550 0.929 1_554 S
H560 C553 0.930 . S
C561 C562 1.351 . S
C561 N564 1.368 . S
C561 H566 0.931 . S
C562 C561 1.351 . S
C562 N563 1.373 . S
C562 H590 0.930 . S
N563 C562 1.373 . S
N563 C565 1.340 . S
N564 C561 1.368 . S
N564 C565 1.321 . S
N564 Co567 2.135 . S
C565 N563 1.340 . S
C565 N564 1.321 . S
C565 H589 0.930 . S
H566 C561 0.931 . S
Co567 N564 2.135 . S
Co567 N570 2.121 . S
Co567 O575 2.055 . S
Co567 O578 2.039 . S
Co567 N581 2.140 . S
C568 O569 1.227 . S
C568 O578 1.265 1_554 S
O569 C568 1.227 . S
N570 Co567 2.121 . S
N570 C572 1.375 . S
N570 C573 1.313 . S
C571 C572 1.338 . S
C571 N574 1.377 . S
C571 H591 0.930 1_556 S
C572 N570 1.375 . S
C572 C571 1.338 . S
C572 H576 0.931 1_556 S
C573 N570 1.313 . S
C573 N574 1.344 . S
C573 H577 0.930 . S
N574 C571 1.377 . S
N574 C573 1.344 . S
O575 Co567 2.055 . S
O575 C579 1.253 . S
H576 C572 0.931 1_554 S
H577 C573 0.930 . S
O578 Co567 2.039 . S
O578 C568 1.265 1_556 S
C579 O575 1.253 . S
C579 O580 1.227 . S
O580 C579 1.227 . S
N581 Co567 2.140 . S
N581 C584 1.346 . S
N581 C585 1.345 . S
C582 C583 1.387 . S
C582 C586 1.391 . S
C583 C582 1.387 . S
C583 C584 1.369 . S
C583 H592 0.929 1_556 S
C584 N581 1.346 . S
C584 C583 1.369 . S
C584 H587 0.928 . S
C585 N581 1.345 . S
C585 C586 1.371 . S
C585 H588 0.931 . S
C586 C582 1.391 . S
C586 C585 1.371 . S
C586 H593 0.930 . S
H587 C584 0.928 . S
H588 C585 0.931 . S
H589 C565 0.930 . S
H590 C562 0.930 . S
H591 C571 0.930 1_554 S
H592 C583 0.929 1_554 S
H593 C586 0.930 . S
C594 C595 1.351 . S
C594 N597 1.368 . S
C594 H599 0.931 . S
C595 C594 1.351 . S
C595 N596 1.373 . S
C595 H623 0.930 . S
N596 C595 1.373 . S
N596 C598 1.340 . S
N597 C594 1.368 . S
N597 C598 1.321 . S
N597 Co600 2.135 . S
C598 N596 1.340 . S
C598 N597 1.321 . S
C598 H622 0.930 . S
H599 C594 0.931 . S
Co600 N597 2.135 . S
Co600 N603 2.121 . S
Co600 O608 2.055 . S
Co600 O611 2.039 . S
Co600 N614 2.140 . S
C601 O602 1.227 . S
C601 O611 1.265 . S
O602 C601 1.227 . S
N603 Co600 2.121 . S
N603 C605 1.375 . S
N603 C606 1.313 . S
C604 C605 1.338 . S
C604 N607 1.377 . S
C604 H624 0.930 . S
C605 N603 1.375 . S
C605 C604 1.338 . S
C605 H609 0.931 . S
C606 N603 1.313 . S
C606 N607 1.344 . S
C606 H610 0.930 . S
N607 C604 1.377 . S
N607 C606 1.344 . S
O608 Co600 2.055 . S
O608 C612 1.253 . S
H609 C605 0.931 . S
H610 C606 0.930 . S
O611 Co600 2.039 . S
O611 C601 1.265 . S
C612 O608 1.253 . S
C612 O613 1.227 . S
O613 C612 1.227 . S
N614 Co600 2.140 . S
N614 C617 1.346 . S
N614 C618 1.345 . S
C615 C616 1.387 . S
C615 C619 1.391 . S
C616 C615 1.387 . S
C616 C617 1.369 . S
C616 H625 0.929 . S
C617 N614 1.346 . S
C617 C616 1.369 . S
C617 H620 0.928 . S
C618 N614 1.345 . S
C618 C619 1.371 . S
C618 H621 0.931 . S
C619 C615 1.391 . S
C619 C618 1.371 . S
C619 H626 0.930 . S
H620 C617 0.928 . S
H621 C618 0.931 . S
H622 C598 0.930 . S
H623 C595 0.930 . S
H624 C604 0.930 . S
H625 C616 0.929 . S
H626 C619 0.930 . S
C627 C628 1.351 . S
C627 N630 1.368 . S
C627 H632 0.931 . S
C628 C627 1.351 . S
C628 N629 1.373 . S
C628 H656 0.930 . S
N629 C628 1.373 . S
N629 C631 1.340 . S
N630 C627 1.368 . S
N630 C631 1.321 . S
N630 Co633 2.135 . S
C631 N629 1.340 . S
C631 N630 1.321 . S
C631 H655 0.930 . S
H632 C627 0.931 . S
Co633 N630 2.135 . S
Co633 N636 2.121 . S
Co633 O641 2.055 . S
Co633 O644 2.039 . S
Co633 N647 2.140 . S
C634 O635 1.227 . S
C634 O644 1.265 . S
O635 C634 1.227 . S
N636 Co633 2.121 . S
N636 C638 1.375 . S
N636 C639 1.313 . S
C637 C638 1.338 . S
C637 N640 1.377 . S
C637 H657 0.930 . S
C638 N636 1.375 . S
C638 C637 1.338 . S
C638 H642 0.931 . S
C639 N636 1.313 . S
C639 N640 1.344 . S
C639 H643 0.930 . S
N640 C637 1.377 . S
N640 C639 1.344 . S
O641 Co633 2.055 . S
O641 C645 1.253 . S
H642 C638 0.931 . S
H643 C639 0.930 . S
O644 Co633 2.039 . S
O644 C634 1.265 . S
C645 O641 1.253 . S
C645 O646 1.227 . S
O646 C645 1.227 . S
N647 Co633 2.140 . S
N647 C650 1.346 . S
N647 C651 1.345 . S
C648 C649 1.387 . S
C648 C652 1.391 . S
C649 C648 1.387 . S
C649 C650 1.369 . S
C649 H658 0.929 . S
C650 N647 1.346 . S
C650 C649 1.369 . S
C650 H653 0.928 . S
C651 N647 1.345 . S
C651 C652 1.371 . S
C651 H654 0.931 . S
C652 C648 1.391 . S
C652 C651 1.371 . S
C652 H659 0.930 . S
H653 C650 0.928 . S
H654 C651 0.931 . S
H655 C631 0.930 . S
H656 C628 0.930 . S
H657 C637 0.930 . S
H658 C649 0.929 . S
H659 C652 0.930 . S
C660 C661 1.351 . S
C660 N663 1.368 . S
C660 H665 0.931 . S
C661 C660 1.351 . S
C661 N662 1.373 . S
C661 H689 0.930 . S
N662 C661 1.373 . S
N662 C664 1.340 . S
N663 C660 1.368 . S
N663 C664 1.321 . S
N663 Co666 2.135 . S
C664 N662 1.340 . S
C664 N663 1.321 . S
C664 H688 0.930 . S
H665 C660 0.931 . S
Co666 N663 2.135 . S
Co666 N669 2.121 . S
Co666 O674 2.055 . S
Co666 O677 2.039 . S
Co666 N680 2.140 . S
C667 O668 1.227 . S
C667 O677 1.265 1_556 S
O668 C667 1.227 . S
N669 Co666 2.121 . S
N669 C671 1.375 . S
N669 C672 1.313 . S
C670 C671 1.338 . S
C670 N673 1.377 . S
C670 H690 0.930 1_554 S
C671 N669 1.375 . S
C671 C670 1.338 . S
C671 H675 0.931 1_554 S
C672 N669 1.313 . S
C672 N673 1.344 . S
C672 H676 0.930 . S
N673 C670 1.377 . S
N673 C672 1.344 . S
O674 Co666 2.055 . S
O674 C678 1.253 . S
H675 C671 0.931 1_556 S
H676 C672 0.930 . S
O677 Co666 2.039 . S
O677 C667 1.265 1_554 S
C678 O674 1.253 . S
C678 O679 1.227 . S
O679 C678 1.227 . S
N680 Co666 2.140 . S
N680 C683 1.346 . S
N680 C684 1.345 . S
C681 C682 1.387 . S
C681 C685 1.391 . S
C682 C681 1.387 . S
C682 C683 1.369 . S
C682 H691 0.929 1_554 S
C683 N680 1.346 . S
C683 C682 1.369 . S
C683 H686 0.928 . S
C684 N680 1.345 . S
C684 C685 1.371 . S
C684 H687 0.931 . S
C685 C681 1.391 . S
C685 C684 1.371 . S
C685 H692 0.930 . S
H686 C683 0.928 . S
H687 C684 0.931 . S
H688 C664 0.930 . S
H689 C661 0.930 . S
H690 C670 0.930 1_556 S
H691 C682 0.929 1_556 S
H692 C685 0.930 . S
C693 C694 1.351 . S
C693 N696 1.368 . S
C693 H698 0.931 . S
C694 C693 1.351 . S
C694 N695 1.373 . S
C694 H722 0.930 . S
N695 C694 1.373 . S
N695 C697 1.340 . S
N696 C693 1.368 . S
N696 C697 1.321 . S
N696 Co699 2.135 . S
C697 N695 1.340 . S
C697 N696 1.321 . S
C697 H721 0.930 . S
H698 C693 0.931 . S
Co699 N696 2.135 . S
Co699 N702 2.121 . S
Co699 O707 2.055 . S
Co699 O710 2.039 . S
Co699 N713 2.140 . S
C700 O701 1.227 . S
C700 O710 1.265 1_556 S
O701 C700 1.227 . S
N702 Co699 2.121 . S
N702 C704 1.375 . S
N702 C705 1.313 . S
C703 C704 1.338 . S
C703 N706 1.377 . S
C703 H723 0.930 1_554 S
C704 N702 1.375 . S
C704 C703 1.338 . S
C704 H708 0.931 1_554 S
C705 N702 1.313 . S
C705 N706 1.344 . S
C705 H709 0.930 . S
N706 C703 1.377 . S
N706 C705 1.344 . S
O707 Co699 2.055 . S
O707 C711 1.253 . S
H708 C704 0.931 1_556 S
H709 C705 0.930 . S
O710 Co699 2.039 . S
O710 C700 1.265 1_554 S
C711 O707 1.253 . S
C711 O712 1.227 . S
O712 C711 1.227 . S
N713 Co699 2.140 . S
N713 C716 1.346 . S
N713 C717 1.345 . S
C714 C715 1.387 . S
C714 C718 1.391 . S
C715 C714 1.387 . S
C715 C716 1.369 . S
C715 H724 0.929 1_554 S
C716 N713 1.346 . S
C716 C715 1.369 . S
C716 H719 0.928 . S
C717 N713 1.345 . S
C717 C718 1.371 . S
C717 H720 0.931 . S
C718 C714 1.391 . S
C718 C717 1.371 . S
C718 H725 0.930 . S
H719 C716 0.928 . S
H720 C717 0.931 . S
H721 C697 0.930 . S
H722 C694 0.930 . S
H723 C703 0.930 1_556 S
H724 C715 0.929 1_556 S
H725 C718 0.930 . S
C726 C727 1.351 . S
C726 N729 1.368 . S
C726 H731 0.931 . S
C727 C726 1.351 . S
C727 N728 1.373 . S
C727 H755 0.930 . S
N728 C727 1.373 . S
N728 C730 1.340 . S
N729 C726 1.368 . S
N729 C730 1.321 . S
N729 Co732 2.135 . S
C730 N728 1.340 . S
C730 N729 1.321 . S
C730 H754 0.930 . S
H731 C726 0.931 . S
Co732 N729 2.135 . S
Co732 N735 2.121 . S
Co732 O740 2.055 . S
Co732 O743 2.039 . S
Co732 N746 2.140 . S
C733 O734 1.227 . S
C733 O743 1.265 . S
O734 C733 1.227 . S
N735 Co732 2.121 . S
N735 C737 1.375 . S
N735 C738 1.313 . S
C736 C737 1.338 . S
C736 N739 1.377 . S
C736 H756 0.930 . S
C737 N735 1.375 . S
C737 C736 1.338 . S
C737 H741 0.931 . S
C738 N735 1.313 . S
C738 N739 1.344 . S
C738 H742 0.930 . S
N739 C736 1.377 . S
N739 C738 1.344 . S
O740 Co732 2.055 . S
O740 C744 1.253 . S
H741 C737 0.931 . S
H742 C738 0.930 . S
O743 Co732 2.039 . S
O743 C733 1.265 . S
C744 O740 1.253 . S
C744 O745 1.227 . S
O745 C744 1.227 . S
N746 Co732 2.140 . S
N746 C749 1.346 . S
N746 C750 1.345 . S
C747 C748 1.387 . S
C747 C751 1.391 . S
C748 C747 1.387 . S
C748 C749 1.369 . S
C748 H757 0.929 . S
C749 N746 1.346 . S
C749 C748 1.369 . S
C749 H752 0.928 . S
C750 N746 1.345 . S
C750 C751 1.371 . S
C750 H753 0.931 . S
C751 C747 1.391 . S
C751 C750 1.371 . S
C751 H758 0.930 . S
H752 C749 0.928 . S
H753 C750 0.931 . S
H754 C730 0.930 . S
H755 C727 0.930 . S
H756 C736 0.930 . S
H757 C748 0.929 . S
H758 C751 0.930 . S
C759 C760 1.351 . S
C759 N762 1.368 . S
C759 H764 0.931 . S
C760 C759 1.351 . S
C760 N761 1.373 . S
C760 H788 0.930 . S
N761 C760 1.373 . S
N761 C763 1.340 . S
N762 C759 1.368 . S
N762 C763 1.321 . S
N762 Co765 2.135 . S
C763 N761 1.340 . S
C763 N762 1.321 . S
C763 H787 0.930 . S
H764 C759 0.931 . S
Co765 N762 2.135 . S
Co765 N768 2.121 . S
Co765 O773 2.055 . S
Co765 O776 2.039 . S
Co765 N779 2.140 . S
C766 O767 1.227 . S
C766 O776 1.265 . S
O767 C766 1.227 . S
N768 Co765 2.121 . S
N768 C770 1.375 . S
N768 C771 1.313 . S
C769 C770 1.338 . S
C769 N772 1.377 . S
C769 H789 0.930 . S
C770 N768 1.375 . S
C770 C769 1.338 . S
C770 H774 0.931 . S
C771 N768 1.313 . S
C771 N772 1.344 . S
C771 H775 0.930 . S
N772 C769 1.377 . S
N772 C771 1.344 . S
O773 Co765 2.055 . S
O773 C777 1.253 . S
H774 C770 0.931 . S
H775 C771 0.930 . S
O776 Co765 2.039 . S
O776 C766 1.265 . S
C777 O773 1.253 . S
C777 O778 1.227 . S
O778 C777 1.227 . S
N779 Co765 2.140 . S
N779 C782 1.346 . S
N779 C783 1.345 . S
C780 C781 1.387 . S
C780 C784 1.391 . S
C781 C780 1.387 . S
C781 C782 1.369 . S
C781 H790 0.929 . S
C782 N779 1.346 . S
C782 C781 1.369 . S
C782 H785 0.928 . S
C783 N779 1.345 . S
C783 C784 1.371 . S
C783 H786 0.931 . S
C784 C780 1.391 . S
C784 C783 1.371 . S
C784 H791 0.930 . S
H785 C782 0.928 . S
H786 C783 0.931 . S
H787 C763 0.930 . S
H788 C760 0.930 . S
H789 C769 0.930 . S
H790 C781 0.929 . S
H791 C784 0.930 . S
C792 C793 1.351 . S
C792 N795 1.368 . S
C792 H797 0.931 . S
C793 C792 1.351 . S
C793 N794 1.373 . S
C793 H821 0.930 . S
N794 C793 1.373 . S
N794 C796 1.340 . S
N795 C792 1.368 . S
N795 C796 1.321 . S
N795 Co798 2.135 . S
C796 N794 1.340 . S
C796 N795 1.321 . S
C796 H820 0.930 . S
H797 C792 0.931 . S
Co798 N795 2.135 . S
Co798 N801 2.121 . S
Co798 O806 2.055 . S
Co798 O809 2.039 . S
Co798 N812 2.140 . S
C799 O800 1.227 . S
C799 O809 1.265 . S
O800 C799 1.227 . S
N801 Co798 2.121 . S
N801 C803 1.375 . S
N801 C804 1.313 . S
C802 C803 1.338 . S
C802 N805 1.377 . S
C802 H822 0.930 . S
C803 N801 1.375 . S
C803 C802 1.338 . S
C803 H807 0.931 . S
C804 N801 1.313 . S
C804 N805 1.344 . S
C804 H808 0.930 . S
N805 C802 1.377 . S
N805 C804 1.344 . S
O806 Co798 2.055 . S
O806 C810 1.253 . S
H807 C803 0.931 . S
H808 C804 0.930 . S
O809 Co798 2.039 . S
O809 C799 1.265 . S
C810 O806 1.253 . S
C810 O811 1.227 . S
O811 C810 1.227 . S
N812 Co798 2.140 . S
N812 C815 1.346 . S
N812 C816 1.345 . S
C813 C814 1.387 . S
C813 C817 1.391 . S
C814 C813 1.387 . S
C814 C815 1.369 . S
C814 H823 0.929 . S
C815 N812 1.346 . S
C815 C814 1.369 . S
C815 H818 0.928 . S
C816 N812 1.345 . S
C816 C817 1.371 . S
C816 H819 0.931 . S
C817 C813 1.391 . S
C817 C816 1.371 . S
C817 H824 0.930 . S
H818 C815 0.928 . S
H819 C816 0.931 . S
H820 C796 0.930 . S
H821 C793 0.930 . S
H822 C802 0.930 . S
H823 C814 0.929 . S
H824 C817 0.930 . S
C825 C826 1.351 . S
C825 N828 1.368 . S
C825 H830 0.931 . S
C826 C825 1.351 . S
C826 N827 1.373 . S
C826 H854 0.930 . S
N827 C826 1.373 . S
N827 C829 1.340 . S
N828 C825 1.368 . S
N828 C829 1.321 . S
N828 Co831 2.135 . S
C829 N827 1.340 . S
C829 N828 1.321 . S
C829 H853 0.930 . S
H830 C825 0.931 . S
Co831 N828 2.135 . S
Co831 N834 2.121 . S
Co831 O839 2.055 . S
Co831 O842 2.039 . S
Co831 N845 2.140 . S
C832 O833 1.227 . S
C832 O842 1.265 . S
O833 C832 1.227 . S
N834 Co831 2.121 . S
N834 C836 1.375 . S
N834 C837 1.313 . S
C835 C836 1.338 . S
C835 N838 1.377 . S
C835 H855 0.930 . S
C836 N834 1.375 . S
C836 C835 1.338 . S
C836 H840 0.931 . S
C837 N834 1.313 . S
C837 N838 1.344 . S
C837 H841 0.930 . S
N838 C835 1.377 . S
N838 C837 1.344 . S
O839 Co831 2.055 . S
O839 C843 1.253 . S
H840 C836 0.931 . S
H841 C837 0.930 . S
O842 Co831 2.039 . S
O842 C832 1.265 . S
C843 O839 1.253 . S
C843 O844 1.227 . S
O844 C843 1.227 . S
N845 Co831 2.140 . S
N845 C848 1.346 . S
N845 C849 1.345 . S
C846 C847 1.387 . S
C846 C850 1.391 . S
C847 C846 1.387 . S
C847 C848 1.369 . S
C847 H856 0.929 . S
C848 N845 1.346 . S
C848 C847 1.369 . S
C848 H851 0.928 . S
C849 N845 1.345 . S
C849 C850 1.371 . S
C849 H852 0.931 . S
C850 C846 1.391 . S
C850 C849 1.371 . S
C850 H857 0.930 . S
H851 C848 0.928 . S
H852 C849 0.931 . S
H853 C829 0.930 . S
H854 C826 0.930 . S
H855 C835 0.930 . S
H856 C847 0.929 . S
H857 C850 0.930 . S
C858 C859 1.351 . S
C858 N861 1.368 . S
C858 H863 0.931 1_556 S
C859 C858 1.351 . S
C859 N860 1.373 . S
C859 H887 0.930 1_556 S
N860 C859 1.373 . S
N860 C862 1.340 . S
N861 C858 1.368 . S
N861 C862 1.321 . S
N861 Co864 2.135 . S
C862 N860 1.340 . S
C862 N861 1.321 . S
C862 H886 0.930 . S
H863 C858 0.931 1_554 S
Co864 N861 2.135 . S
Co864 N867 2.121 . S
Co864 O872 2.055 1_556 S
Co864 O875 2.039 . S
Co864 N878 2.140 . S
C865 O866 1.227 . S
C865 O875 1.265 . S
O866 C865 1.227 . S
N867 Co864 2.121 . S
N867 C869 1.375 . S
N867 C870 1.313 . S
C868 C869 1.338 . S
C868 N871 1.377 . S
C868 H888 0.930 . S
C869 N867 1.375 . S
C869 C868 1.338 . S
C869 H873 0.931 . S
C870 N867 1.313 . S
C870 N871 1.344 . S
C870 H874 0.930 . S
N871 C868 1.377 . S
N871 C870 1.344 . S
O872 Co864 2.055 1_554 S
O872 C876 1.253 . S
H873 C869 0.931 . S
H874 C870 0.930 . S
O875 Co864 2.039 . S
O875 C865 1.265 . S
C876 O872 1.253 . S
C876 O877 1.227 . S
O877 C876 1.227 . S
N878 Co864 2.140 . S
N878 C881 1.346 . S
N878 C882 1.345 . S
C879 C880 1.387 . S
C879 C883 1.391 . S
C880 C879 1.387 . S
C880 C881 1.369 . S
C880 H889 0.929 . S
C881 N878 1.346 . S
C881 C880 1.369 . S
C881 H884 0.928 . S
C882 N878 1.345 . S
C882 C883 1.371 . S
C882 H885 0.931 . S
C883 C879 1.391 . S
C883 C882 1.371 . S
C883 H890 0.930 . S
H884 C881 0.928 . S
H885 C882 0.931 . S
H886 C862 0.930 . S
H887 C859 0.930 1_554 S
H888 C868 0.930 . S
H889 C880 0.929 . S
H890 C883 0.930 . S
C891 C892 1.351 . S
C891 N894 1.368 . S
C891 H896 0.931 1_556 S
C892 C891 1.351 . S
C892 N893 1.373 . S
C892 H920 0.930 1_556 S
N893 C892 1.373 . S
N893 C895 1.340 . S
N894 C891 1.368 . S
N894 C895 1.321 . S
N894 Co897 2.135 . S
C895 N893 1.340 . S
C895 N894 1.321 . S
C895 H919 0.930 . S
H896 C891 0.931 1_554 S
Co897 N894 2.135 . S
Co897 N900 2.121 . S
Co897 O905 2.055 1_556 S
Co897 O908 2.039 . S
Co897 N911 2.140 . S
C898 O899 1.227 . S
C898 O908 1.265 . S
O899 C898 1.227 . S
N900 Co897 2.121 . S
N900 C902 1.375 . S
N900 C903 1.313 . S
C901 C902 1.338 . S
C901 N904 1.377 . S
C901 H921 0.930 . S
C902 N900 1.375 . S
C902 C901 1.338 . S
C902 H906 0.931 . S
C903 N900 1.313 . S
C903 N904 1.344 . S
C903 H907 0.930 . S
N904 C901 1.377 . S
N904 C903 1.344 . S
O905 Co897 2.055 1_554 S
O905 C909 1.253 . S
H906 C902 0.931 . S
H907 C903 0.930 . S
O908 Co897 2.039 . S
O908 C898 1.265 . S
C909 O905 1.253 . S
C909 O910 1.227 . S
O910 C909 1.227 . S
N911 Co897 2.140 . S
N911 C914 1.346 . S
N911 C915 1.345 . S
C912 C913 1.387 . S
C912 C916 1.391 . S
C913 C912 1.387 . S
C913 C914 1.369 . S
C913 H922 0.929 . S
C914 N911 1.346 . S
C914 C913 1.369 . S
C914 H917 0.928 . S
C915 N911 1.345 . S
C915 C916 1.371 . S
C915 H918 0.931 . S
C916 C912 1.391 . S
C916 C915 1.371 . S
C916 H923 0.930 . S
H917 C914 0.928 . S
H918 C915 0.931 . S
H919 C895 0.930 . S
H920 C892 0.930 1_554 S
H921 C901 0.930 . S
H922 C913 0.929 . S
H923 C916 0.930 . S
C924 C925 1.351 . S
C924 N927 1.368 . S
C924 H929 0.931 . S
C925 C924 1.351 . S
C925 N926 1.373 . S
C925 H953 0.930 . S
N926 C925 1.373 . S
N926 C928 1.340 . S
N927 C924 1.368 . S
N927 C928 1.321 . S
N927 Co930 2.135 . S
C928 N926 1.340 . S
C928 N927 1.321 . S
C928 H952 0.930 . S
H929 C924 0.931 . S
Co930 N927 2.135 . S
Co930 N933 2.121 . S
Co930 O938 2.055 . S
Co930 O941 2.039 . S
Co930 N944 2.140 . S
C931 O932 1.227 . S
C931 O941 1.265 . S
O932 C931 1.227 . S
N933 Co930 2.121 . S
N933 C935 1.375 . S
N933 C936 1.313 . S
C934 C935 1.338 . S
C934 N937 1.377 . S
C934 H954 0.930 . S
C935 N933 1.375 . S
C935 C934 1.338 . S
C935 H939 0.931 . S
C936 N933 1.313 . S
C936 N937 1.344 . S
C936 H940 0.930 . S
N937 C934 1.377 . S
N937 C936 1.344 . S
O938 Co930 2.055 . S
O938 C942 1.253 . S
H939 C935 0.931 . S
H940 C936 0.930 . S
O941 Co930 2.039 . S
O941 C931 1.265 . S
C942 O938 1.253 . S
C942 O943 1.227 . S
O943 C942 1.227 . S
N944 Co930 2.140 . S
N944 C947 1.346 . S
N944 C948 1.345 . S
C945 C946 1.387 . S
C945 C949 1.391 . S
C946 C945 1.387 . S
C946 C947 1.369 . S
C946 H955 0.929 . S
C947 N944 1.346 . S
C947 C946 1.369 . S
C947 H950 0.928 . S
C948 N944 1.345 . S
C948 C949 1.371 . S
C948 H951 0.931 . S
C949 C945 1.391 . S
C949 C948 1.371 . S
C949 H956 0.930 . S
H950 C947 0.928 . S
H951 C948 0.931 . S
H952 C928 0.930 . S
H953 C925 0.930 . S
H954 C934 0.930 . S
H955 C946 0.929 . S
H956 C949 0.930 . S
C957 C958 1.351 . S
C957 N960 1.368 . S
C957 H962 0.931 . S
C958 C957 1.351 . S
C958 N959 1.373 . S
C958 H986 0.930 . S
N959 C958 1.373 . S
N959 C961 1.340 . S
N960 C957 1.368 . S
N960 C961 1.321 . S
N960 Co963 2.135 . S
C961 N959 1.340 . S
C961 N960 1.321 . S
C961 H985 0.930 . S
H962 C957 0.931 . S
Co963 N960 2.135 . S
Co963 N966 2.121 . S
Co963 O971 2.055 . S
Co963 O974 2.039 . S
Co963 N977 2.140 . S
C964 O965 1.227 . S
C964 O974 1.265 . S
O965 C964 1.227 . S
N966 Co963 2.121 . S
N966 C968 1.375 . S
N966 C969 1.313 . S
C967 C968 1.338 . S
C967 N970 1.377 . S
C967 H987 0.930 . S
C968 N966 1.375 . S
C968 C967 1.338 . S
C968 H972 0.931 . S
C969 N966 1.313 . S
C969 N970 1.344 . S
C969 H973 0.930 . S
N970 C967 1.377 . S
N970 C969 1.344 . S
O971 Co963 2.055 . S
O971 C975 1.253 . S
H972 C968 0.931 . S
H973 C969 0.930 . S
O974 Co963 2.039 . S
O974 C964 1.265 . S
C975 O971 1.253 . S
C975 O976 1.227 . S
O976 C975 1.227 . S
N977 Co963 2.140 . S
N977 C980 1.346 . S
N977 C981 1.345 . S
C978 C979 1.387 . S
C978 C982 1.391 . S
C979 C978 1.387 . S
C979 C980 1.369 . S
C979 H988 0.929 . S
C980 N977 1.346 . S
C980 C979 1.369 . S
C980 H983 0.928 . S
C981 N977 1.345 . S
C981 C982 1.371 . S
C981 H984 0.931 . S
C982 C978 1.391 . S
C982 C981 1.371 . S
C982 H989 0.930 . S
H983 C980 0.928 . S
H984 C981 0.931 . S
H985 C961 0.930 . S
H986 C958 0.930 . S
H987 C967 0.930 . S
H988 C979 0.929 . S
H989 C982 0.930 . S
C990 C991 1.351 . S
C990 N993 1.368 . S
C990 H995 0.931 1_554 S
C991 C990 1.351 . S
C991 N992 1.373 . S
C991 H1019 0.930 1_554 S
N992 C991 1.373 . S
N992 C994 1.340 . S
N993 C990 1.368 . S
N993 C994 1.321 . S
N993 Co996 2.135 . S
C994 N992 1.340 . S
C994 N993 1.321 . S
C994 H1018 0.930 . S
H995 C990 0.931 1_556 S
Co996 N993 2.135 . S
Co996 N999 2.121 . S
Co996 O1004 2.055 1_554 S
Co996 O1007 2.039 . S
Co996 N1010 2.140 . S
C997 O998 1.227 . S
C997 O1007 1.265 . S
O998 C997 1.227 . S
N999 Co996 2.121 . S
N999 C1001 1.375 . S
N999 C1002 1.313 . S
C1000 C1001 1.338 . S
C1000 N1003 1.377 . S
C1000 H1020 0.930 . S
C1001 N999 1.375 . S
C1001 C1000 1.338 . S
C1001 H1005 0.931 . S
C1002 N999 1.313 . S
C1002 N1003 1.344 . S
C1002 H1006 0.930 . S
N1003 C1000 1.377 . S
N1003 C1002 1.344 . S
O1004 Co996 2.055 1_556 S
O1004 C1008 1.253 . S
H1005 C1001 0.931 . S
H1006 C1002 0.930 . S
O1007 Co996 2.039 . S
O1007 C997 1.265 . S
C1008 O1004 1.253 . S
C1008 O1009 1.227 . S
O1009 C1008 1.227 . S
N1010 Co996 2.140 . S
N1010 C1013 1.346 . S
N1010 C1014 1.345 . S
C1011 C1012 1.387 . S
C1011 C1015 1.391 . S
C1012 C1011 1.387 . S
C1012 C1013 1.369 . S
C1012 H1021 0.929 . S
C1013 N1010 1.346 . S
C1013 C1012 1.369 . S
C1013 H1016 0.928 . S
C1014 N1010 1.345 . S
C1014 C1015 1.371 . S
C1014 H1017 0.931 . S
C1015 C1011 1.391 . S
C1015 C1014 1.371 . S
C1015 H1022 0.930 . S
H1016 C1013 0.928 . S
H1017 C1014 0.931 . S
H1018 C994 0.930 . S
H1019 C991 0.930 1_556 S
H1020 C1000 0.930 . S
H1021 C1012 0.929 . S
H1022 C1015 0.930 . S
C1023 C1024 1.351 . S
C1023 N1026 1.368 . S
C1023 H1028 0.931 1_554 S
C1024 C1023 1.351 . S
C1024 N1025 1.373 . S
C1024 H1052 0.930 1_554 S
N1025 C1024 1.373 . S
N1025 C1027 1.340 . S
N1026 C1023 1.368 . S
N1026 C1027 1.321 . S
N1026 Co1029 2.135 . S
C1027 N1025 1.340 . S
C1027 N1026 1.321 . S
C1027 H1051 0.930 . S
H1028 C1023 0.931 1_556 S
Co1029 N1026 2.135 . S
Co1029 N1032 2.121 . S
Co1029 O1037 2.055 1_554 S
Co1029 O1040 2.039 . S
Co1029 N1043 2.140 . S
C1030 O1031 1.227 . S
C1030 O1040 1.265 . S
O1031 C1030 1.227 . S
N1032 Co1029 2.121 . S
N1032 C1034 1.375 . S
N1032 C1035 1.313 . S
C1033 C1034 1.338 . S
C1033 N1036 1.377 . S
C1033 H1053 0.930 . S
C1034 N1032 1.375 . S
C1034 C1033 1.338 . S
C1034 H1038 0.931 . S
C1035 N1032 1.313 . S
C1035 N1036 1.344 . S
C1035 H1039 0.930 . S
N1036 C1033 1.377 . S
N1036 C1035 1.344 . S
O1037 Co1029 2.055 1_556 S
O1037 C1041 1.253 . S
H1038 C1034 0.931 . S
H1039 C1035 0.930 . S
O1040 Co1029 2.039 . S
O1040 C1030 1.265 . S
C1041 O1037 1.253 . S
C1041 O1042 1.227 . S
O1042 C1041 1.227 . S
N1043 Co1029 2.140 . S
N1043 C1046 1.346 . S
N1043 C1047 1.345 . S
C1044 C1045 1.387 . S
C1044 C1048 1.391 . S
C1045 C1044 1.387 . S
C1045 C1046 1.369 . S
C1045 H1054 0.929 . S
C1046 N1043 1.346 . S
C1046 C1045 1.369 . S
C1046 H1049 0.928 . S
C1047 N1043 1.345 . S
C1047 C1048 1.371 . S
C1047 H1050 0.931 . S
C1048 C1044 1.391 . S
C1048 C1047 1.371 . S
C1048 H1055 0.930 . S
H1049 C1046 0.928 . S
H1050 C1047 0.931 . S
H1051 C1027 0.930 . S
H1052 C1024 0.930 1_556 S
H1053 C1033 0.930 . S
H1054 C1045 0.929 . S
H1055 C1048 0.930 . S
C7 C73 1.032 . S
C40 C106 1.026 . S
C139 C205 1.032 . S
C172 C238 1.026 . S
C337 C271 1.032 . S
C304 C370 1.026 . S
C403 C469 1.032 . S
C436 C502 1.026 . S
C601 C535 1.031 . S
C634 C568 1.026 . S
C667 C733 1.031 . S
C766 C700 1.026 . S
C865 C799 1.031 . S
C898 C832 1.026 . S
C997 C931 1.031 . S
C964 C1030 1.026 . S
N13 N46 1.709 . S
N79 N112 1.709 . S
N178 N145 1.709 . S
N211 N244 1.709 . S
N310 N277 1.709 . S
N343 N376 1.709 . S
N409 N442 1.709 . S
N475 N508 1.709 . S
N541 N574 1.721 . S
N640 N607 1.721 . S
N706 N673 1.721 . S
N739 N772 1.721 . S
N805 N838 1.721 . S
N871 N904 1.721 . S
N937 N970 1.721 . S
N1036 N1003 1.721 . S
C153 C21 2.052 1_665 S
C54 C978 2.037 . S
C483 C87 2.052 1_655 S
C780 C120 2.037 1_565 S
C846 C186 2.037 . S
C351 C219 2.052 1_455 S
C252 C648 2.037 1_565 S
C417 C285 2.052 1_654 S
C318 C714 2.037 1_556 S
C384 C1044 2.037 . S
C582 C450 2.037 1_556 S
C912 C516 2.037 . S
C549 C681 2.045 1_546 S
C615 C1011 2.045 . S
C879 C747 2.045 . S
C813 C945 2.045 . S
N2 N629 1.089 . S
N596 N35 1.072 . S
N68 N563 1.089 . S
N101 N530 1.072 . S
N761 N134 1.089 . S
N167 N728 1.072 . S
N695 N200 1.089 . S
N233 N662 1.072 . S
N266 N893 1.089 . S
N299 N860 1.072 . S
N332 N827 1.089 . S
N365 N794 1.072 . S
N398 N1025 1.089 . S
N992 N431 1.072 . S
N959 N464 1.089 . S
N926 N497 1.072 . S
C18 C84 1.278 . S
C117 C51 1.276 . S
C216 C150 1.278 . S
C183 C249 1.276 . S
C282 C348 1.278 . S
C315 C381 1.276 . S
C480 C414 1.278 . S
C447 C513 1.276 . S
C546 C612 1.277 . S
C579 C645 1.275 . S
C744 C678 1.277 . S
C777 C711 1.275 . S
C876 C810 1.277 . S
C843 C909 1.275 . S
C1008 C942 1.277 . S
C975 C1041 1.275 . S
