# Generated by pormake.
# Topology why, (6)-cn, num edge types: 1
# Building blocks:
#     Node 0, Type 0, BuildingBlock: GEDQOX_clean_sbu_0, # of connection points: 6
#     Node 1, Type 0, BuildingBlock: GEDQOX_clean_sbu_0, # of connection points: 6
#     Node 2, Type 0, BuildingBlock: GEDQOX_clean_sbu_0, # of connection points: 6
#     Node 3, Type 0, BuildingBlock: GEDQOX_clean_sbu_0, # of connection points: 6
#     Node 4, Type 0, BuildingBlock: GEDQOX_clean_sbu_0, # of connection points: 6
#     Node 5, Type 0, BuildingBlock: GEDQOX_clean_sbu_0, # of connection points: 6
#     Node 6, Type 0, BuildingBlock: GEDQOX_clean_sbu_0, # of connection points: 6
#     Node 7, Type 0, BuildingBlock: GEDQOX_clean_sbu_0, # of connection points: 6
#     Node 8, Type 0, BuildingBlock: GEDQOX_clean_sbu_0, # of connection points: 6
#     Node 9, Type 0, BuildingBlock: GEDQOX_clean_sbu_0, # of connection points: 6
#     Node 10, Type 0, BuildingBlock: GEDQOX_clean_sbu_0, # of connection points: 6
#     Node 11, Type 0, BuildingBlock: GEDQOX_clean_sbu_0, # of connection points: 6
#     Node 12, Type 0, BuildingBlock: GEDQOX_clean_sbu_0, # of connection points: 6
#     Node 13, Type 0, BuildingBlock: GEDQOX_clean_sbu_0, # of connection points: 6
#     Node 14, Type 0, BuildingBlock: GEDQOX_clean_sbu_0, # of connection points: 6
#     Node 15, Type 0, BuildingBlock: GEDQOX_clean_sbu_0, # of connection points: 6
#     Edge 16, Type (0, 0), BuildingBlock: AJUNOK_clean_linker_0, # of connection points: 2
#     Edge 17, Type (0, 0), BuildingBlock: AJUNOK_clean_linker_0, # of connection points: 2
#     Edge 18, Type (0, 0), BuildingBlock: AJUNOK_clean_linker_0, # of connection points: 2
#     Edge 19, Type (0, 0), BuildingBlock: AJUNOK_clean_linker_0, # of connection points: 2
#     Edge 20, Type (0, 0), BuildingBlock: AJUNOK_clean_linker_0, # of connection points: 2
#     Edge 21, Type (0, 0), BuildingBlock: AJUNOK_clean_linker_0, # of connection points: 2
#     Edge 22, Type (0, 0), BuildingBlock: AJUNOK_clean_linker_0, # of connection points: 2
#     Edge 23, Type (0, 0), BuildingBlock: AJUNOK_clean_linker_0, # of connection points: 2
#     Edge 24, Type (0, 0), BuildingBlock: AJUNOK_clean_linker_0, # of connection points: 2
#     Edge 25, Type (0, 0), BuildingBlock: AJUNOK_clean_linker_0, # of connection points: 2
#     Edge 26, Type (0, 0), BuildingBlock: AJUNOK_clean_linker_0, # of connection points: 2
#     Edge 27, Type (0, 0), BuildingBlock: AJUNOK_clean_linker_0, # of connection points: 2
#     Edge 28, Type (0, 0), BuildingBlock: AJUNOK_clean_linker_0, # of connection points: 2
#     Edge 29, Type (0, 0), BuildingBlock: AJUNOK_clean_linker_0, # of connection points: 2
#     Edge 30, Type (0, 0), BuildingBlock: AJUNOK_clean_linker_0, # of connection points: 2
#     Edge 31, Type (0, 0), BuildingBlock: AJUNOK_clean_linker_0, # of connection points: 2
#     Edge 32, Type (0, 0), BuildingBlock: AJUNOK_clean_linker_0, # of connection points: 2
#     Edge 33, Type (0, 0), BuildingBlock: AJUNOK_clean_linker_0, # of connection points: 2
#     Edge 34, Type (0, 0), BuildingBlock: AJUNOK_clean_linker_0, # of connection points: 2
#     Edge 35, Type (0, 0), BuildingBlock: AJUNOK_clean_linker_0, # of connection points: 2
#     Edge 36, Type (0, 0), BuildingBlock: AJUNOK_clean_linker_0, # of connection points: 2
#     Edge 37, Type (0, 0), BuildingBlock: AJUNOK_clean_linker_0, # of connection points: 2
#     Edge 38, Type (0, 0), BuildingBlock: AJUNOK_clean_linker_0, # of connection points: 2
#     Edge 39, Type (0, 0), BuildingBlock: AJUNOK_clean_linker_0, # of connection points: 2
#     Edge 40, Type (0, 0), BuildingBlock: AJUNOK_clean_linker_0, # of connection points: 2
#     Edge 41, Type (0, 0), BuildingBlock: AJUNOK_clean_linker_0, # of connection points: 2
#     Edge 42, Type (0, 0), BuildingBlock: AJUNOK_clean_linker_0, # of connection points: 2
#     Edge 43, Type (0, 0), BuildingBlock: AJUNOK_clean_linker_0, # of connection points: 2
#     Edge 44, Type (0, 0), BuildingBlock: AJUNOK_clean_linker_0, # of connection points: 2
#     Edge 45, Type (0, 0), BuildingBlock: AJUNOK_clean_linker_0, # of connection points: 2
#     Edge 46, Type (0, 0), BuildingBlock: AJUNOK_clean_linker_0, # of connection points: 2
#     Edge 47, Type (0, 0), BuildingBlock: AJUNOK_clean_linker_0, # of connection points: 2
#     Edge 48, Type (0, 0), BuildingBlock: AJUNOK_clean_linker_0, # of connection points: 2
#     Edge 49, Type (0, 0), BuildingBlock: AJUNOK_clean_linker_0, # of connection points: 2
#     Edge 50, Type (0, 0), BuildingBlock: AJUNOK_clean_linker_0, # of connection points: 2
#     Edge 51, Type (0, 0), BuildingBlock: AJUNOK_clean_linker_0, # of connection points: 2
#     Edge 52, Type (0, 0), BuildingBlock: AJUNOK_clean_linker_0, # of connection points: 2
#     Edge 53, Type (0, 0), BuildingBlock: AJUNOK_clean_linker_0, # of connection points: 2
#     Edge 54, Type (0, 0), BuildingBlock: AJUNOK_clean_linker_0, # of connection points: 2
#     Edge 55, Type (0, 0), BuildingBlock: AJUNOK_clean_linker_0, # of connection points: 2
#     Edge 56, Type (0, 0), BuildingBlock: AJUNOK_clean_linker_0, # of connection points: 2
#     Edge 57, Type (0, 0), BuildingBlock: AJUNOK_clean_linker_0, # of connection points: 2
#     Edge 58, Type (0, 0), BuildingBlock: AJUNOK_clean_linker_0, # of connection points: 2
#     Edge 59, Type (0, 0), BuildingBlock: AJUNOK_clean_linker_0, # of connection points: 2
#     Edge 60, Type (0, 0), BuildingBlock: AJUNOK_clean_linker_0, # of connection points: 2
#     Edge 61, Type (0, 0), BuildingBlock: AJUNOK_clean_linker_0, # of connection points: 2
#     Edge 62, Type (0, 0), BuildingBlock: AJUNOK_clean_linker_0, # of connection points: 2
#     Edge 63, Type (0, 0), BuildingBlock: AJUNOK_clean_linker_0, # of connection points: 2
# Relax obj value: 0.295
# Max RMSD: 0.270
# Mean RMSD: 0.222
data_MOF--net-why--node1-GEDQOX_clean_sbu_0--edge1-AJUNOK_clean_linker_0
_symmetry_space_group_name_H-M    P1
_symmetry_Int_Tables_number       1
_symmetry_cell_setting            triclinic
loop_
_symmetry_equiv_pos_as_xyz
'x, y, z'
_cell_length_a     44.811209
_cell_length_b     46.80505
_cell_length_c     25.176781
_cell_angle_alpha  62.101432
_cell_angle_beta   104.96816
_cell_angle_gamma 94.750951
loop_
_atom_site_label
_atom_site_type_symbol
_atom_site_fract_x
_atom_site_fract_y
_atom_site_fract_z
_atom_type_partial_charge
Nd0 Nd 0.37783 0.2136 1.00589 0.0
Nd1 Nd 0.40325 0.18839 0.94296 0.0
C2 C 0.35409 0.21629 0.088 0.0
C3 C 0.34778 0.23161 0.12282 0.0
C4 C 0.35341 0.21305 0.18732 0.0
C5 C 0.34424 0.22499 0.22202 0.0
C6 C 0.32923 0.25553 0.19225 0.0
C7 C 0.32358 0.27427 0.1278 0.0
C8 C 0.33295 0.26241 0.09299 0.0
C9 C 0.39407 0.26934 0.91021 0.0
C10 C 0.32684 0.18376 0.92958 0.0
C11 C 0.43039 0.17064 0.88117 0.0
C12 C 0.46322 0.16306 0.88888 0.0
C13 C 0.48313 0.18749 0.86179 0.0
C14 C 0.51326 0.17941 0.86531 0.0
C15 C 0.52385 0.14688 0.89641 0.0
C16 C 0.5048 0.12277 0.92684 0.0
C17 C 0.47477 0.13072 0.92304 0.0
C18 C 0.40713 0.14273 0.06264 0.0
C19 C 0.4503 0.21094 0.03699 0.0
O20 O 0.38186 0.20361 0.10256 0.0
O21 O 0.33978 0.22819 0.02909 0.0
O22 O 0.37966 0.26903 0.94874 0.0
O23 O 0.39824 0.24061 0.91996 0.0
O24 O 0.33222 0.20015 0.96091 0.0
O25 O 0.35005 0.17792 0.9113 0.0
O26 O 0.42192 0.20078 0.86124 0.0
O27 O 0.4179 0.1504 0.9254 0.0
O28 O 0.43058 0.15226 0.03856 0.0
O29 O 0.38352 0.16107 0.02549 0.0
O30 O 0.4462 0.20905 0.98497 0.0
O31 O 0.42732 0.20778 0.06202 0.0
H32 H 0.36436 0.18901 0.2107 0.0
H33 H 0.34875 0.21044 0.27194 0.0
H34 H 0.31224 0.2981 0.10475 0.0
H35 H 0.32819 0.27698 0.04308 0.0
H36 H 0.47508 0.21264 0.83577 0.0
H37 H 0.52757 0.19829 0.84071 0.0
H38 H 0.51252 0.09751 0.95024 0.0
H39 H 0.46022 0.11131 0.94495 0.0
Nd40 Nd 0.63308 0.64734 0.36052 0.0
Nd41 Nd 0.64776 0.60439 0.32028 0.0
C42 C 0.60341 0.69314 0.3613 0.0
C43 C 0.6023 0.72688 0.3497 0.0
C44 C 0.59392 0.75201 0.28847 0.0
C45 C 0.58176 0.78145 0.27645 0.0
C46 C 0.57779 0.78605 0.32543 0.0
C47 C 0.59006 0.76263 0.38689 0.0
C48 C 0.60225 0.73314 0.39895 0.0
C49 C 0.69812 0.64182 0.40164 0.0
C50 C 0.66728 0.68022 0.25119 0.0
C51 C 0.66321 0.5592 0.2941 0.0
C52 C 0.6688 0.53454 0.27448 0.0
C53 C 0.69415 0.51194 0.30631 0.0
C54 C 0.69887 0.48932 0.28633 0.0
C55 C 0.67815 0.48824 0.23442 0.0
C56 C 0.65287 0.51093 0.20281 0.0
C57 C 0.64832 0.5336 0.22235 0.0
C58 C 0.59436 0.6402 0.24358 0.0
C59 C 0.60722 0.57653 0.43408 0.0
O60 O 0.5994 0.6882 0.31296 0.0
O61 O 0.62248 0.67188 0.41133 0.0
O62 O 0.67953 0.65542 0.41558 0.0
O63 O 0.68245 0.62772 0.3709 0.0
O64 O 0.64439 0.68462 0.27043 0.0
O65 O 0.67666 0.64986 0.27031 0.0
O66 O 0.6744 0.5577 0.34898 0.0
O67 O 0.64509 0.58462 0.25509 0.0
O68 O 0.61733 0.63669 0.22467 0.0
O69 O 0.60056 0.62596 0.3028 0.0
O70 O 0.61981 0.56992 0.39772 0.0
O71 O 0.61173 0.60504 0.43199 0.0
H72 H 0.59394 0.74802 0.24942 0.0
H73 H 0.57284 0.79945 0.22869 0.0
H74 H 0.58719 0.76558 0.42549 0.0
H75 H 0.60864 0.71417 0.44651 0.0
H76 H 0.71047 0.51184 0.3465 0.0
H77 H 0.7186 0.47233 0.31212 0.0
H78 H 0.63666 0.51154 0.16205 0.0
H79 H 0.62852 0.5505 0.19633 0.0
Nd80 Nd 0.18297 0.84084 0.63277 0.0
Nd81 Nd 0.21527 0.8812 0.55287 0.0
C82 C 0.14286 0.80246 0.69096 0.0
C83 C 0.11675 0.78517 0.67366 0.0
C84 C 0.1169 0.7735 0.63156 0.0
C85 C 0.09114 0.75873 0.61251 0.0
C86 C 0.0646 0.75624 0.63396 0.0
C87 C 0.06462 0.76769 0.67653 0.0
C88 C 0.09062 0.78209 0.69628 0.0
C89 C 0.19734 0.89364 0.65587 0.0
C90 C 0.14508 0.88441 0.48687 0.0
C91 C 0.25685 0.91965 0.50115 0.0
C92 C 0.28465 0.91259 0.48754 0.0
C93 C 0.31375 0.92157 0.5109 0.0
C94 C 0.33978 0.91699 0.49429 0.0
C95 C 0.33691 0.90397 0.45294 0.0
C96 C 0.30807 0.89292 0.4334 0.0
C97 C 0.28235 0.89686 0.45097 0.0
C98 C 0.20393 0.82709 0.53447 0.0
C99 C 0.25575 0.8233 0.68487 0.0
O100 O 0.17014 0.79233 0.69572 0.0
O101 O 0.13916 0.8339 0.66167 0.0
O102 O 0.20276 0.86361 0.69681 0.0
O103 O 0.1875 0.89557 0.60208 0.0
O104 O 0.14713 0.85609 0.53686 0.0
O105 O 0.1683 0.9036 0.48536 0.0
O106 O 0.25764 0.90888 0.55964 0.0
O107 O 0.23032 0.91568 0.46922 0.0
O108 O 0.20325 0.85631 0.49061 0.0
O109 O 0.21149 0.82673 0.58654 0.0
O110 O 0.25636 0.85095 0.63523 0.0
O111 O 0.22883 0.81205 0.6952 0.0
H112 H 0.13668 0.77624 0.61266 0.0
H113 H 0.09184 0.74955 0.5805 0.0
H114 H 1.04431 0.7662 0.69335 0.0
H115 H 0.09014 0.79142 0.72818 0.0
H116 H 0.31619 0.93279 0.54083 0.0
H117 H 0.36187 0.92453 0.51235 0.0
H118 H 0.30481 0.88277 0.40158 0.0
H119 H 0.26043 0.88865 0.43378 0.0
Nd120 Nd 0.97955 0.44457 0.77623 0.0
Nd121 Nd 0.93022 0.43162 0.68222 0.0
C122 C 1.01825 0.45118 0.8655 0.0
C123 C 1.02158 0.47963 0.87485 0.0
C124 C 0.9957 0.49563 0.87261 0.0
C125 C 0.99997 0.52003 0.89007 0.0
C126 C 1.03006 0.52825 0.90938 0.0
C127 C 1.05507 0.51646 0.90001 0.0
C128 C 1.05087 0.49174 0.88378 0.0
C129 C 0.99611 0.45918 0.66839 0.0
C130 C 0.93245 0.50277 0.67814 0.0
C131 C 0.89853 0.4203 0.59078 0.0
C132 C 0.90315 0.39894 0.56549 0.0
C133 C 0.93297 0.3881 0.57349 0.0
C134 C 0.93716 0.3644 0.55691 0.0
C135 C 0.91153 0.34989 0.53501 0.0
C136 C 0.88161 0.36099 0.52678 0.0
C137 C 0.87749 0.3854 0.54171 0.0
C138 C 0.90492 0.42124 0.77866 0.0
C139 C 0.98357 0.37518 0.78339 0.0
O140 O 0.99261 0.43607 0.87315 0.0
O141 O 1.02633 0.4548 0.8166 0.0
O142 O 0.99909 0.47838 0.69334 0.0
O143 O 0.98177 0.43496 0.6975 0.0
O144 O 0.94807 0.489 0.73655 0.0
O145 O 0.92686 0.4871 0.64443 0.0
O146 O 0.91635 0.4451 0.58178 0.0
O147 O 0.89514 0.40473 0.64739 0.0
O148 O 0.8904 0.4179 0.73074 0.0
O149 O 0.93171 0.42977 0.77408 0.0
O150 O 0.96352 0.38683 0.72854 0.0
O151 O 0.98868 0.39061 0.8167 0.0
H152 H 0.9725 0.48809 0.86108 0.0
H153 H 0.98038 0.52964 0.89545 0.0
H154 H 0.07854 0.52302 0.91345 0.0
H155 H 0.07073 0.48073 0.88211 0.0
H156 H 0.95295 0.397 0.59492 0.0
H157 H 0.9605 0.3569 0.56272 0.0
H158 H 0.86139 0.35002 0.51085 0.0
H159 H 0.85428 0.39276 0.53716 0.0
Nd160 Nd 0.72149 0.87613 0.08402 0.0
Nd161 Nd 0.74604 0.85362 0.01422 0.0
C162 C 0.69638 0.89185 0.15091 0.0
C163 C 0.66367 0.90046 0.14233 0.0
C164 C 0.64269 0.87653 0.16611 0.0
C165 C 0.61247 0.88523 0.16085 0.0
C166 C 0.60283 0.91797 0.13151 0.0
C167 C 0.62298 0.94174 0.10431 0.0
C168 C 0.65309 0.93312 0.1097 0.0
C169 C 0.71253 0.92279 0.96389 0.0
C170 C 0.6735 0.85496 0.9914 0.0
C171 C 0.75892 0.85456 0.91732 0.0
C172 C 0.77376 0.8401 0.89035 0.0
C173 C 0.76999 0.85653 0.82618 0.0
C174 C 0.78147 0.8427 0.79692 0.0
C175 C 0.7973 0.81236 0.83173 0.0
C176 C 0.80166 0.79615 0.89658 0.0
C177 C 0.78981 0.80997 0.9259 0.0
C178 C 0.73341 0.79659 0.11243 0.0
C179 C 0.79854 0.87893 0.09504 0.0
O180 O 0.70345 0.86182 0.16713 0.0
O181 O 0.71012 0.91254 0.1092 0.0
O182 O 0.69099 0.91247 0.9932 0.0
O183 O 0.73733 0.90549 0.99664 0.0
O184 O 0.67849 0.8544 0.04573 0.0
O185 O 0.69555 0.8622 0.96259 0.0
O186 O 0.77643 0.86733 0.95015 0.0
O187 O 0.73524 0.84014 0.93851 0.0
O188 O 0.74879 0.7977 0.07444 0.0
O189 O 0.72868 0.82512 0.10302 0.0
O190 O 0.79362 0.86269 0.06297 0.0
O191 O 0.775 0.88601 0.11108 0.0
H192 H 0.64995 0.8512 0.19089 0.0
H193 H 0.59734 0.86656 0.18296 0.0
H194 H 0.616 0.96715 0.0822 0.0
H195 H 0.66839 0.95222 0.0901 0.0
H196 H 0.75731 0.8797 0.79837 0.0
H197 H 0.77694 0.85528 0.74679 0.0
H198 H 0.81375 0.77268 0.92422 0.0
H199 H 0.79261 0.79703 0.97567 0.0
Nd200 Nd 0.47877 0.46175 0.70308 0.0
Nd201 Nd 0.49404 0.41938 0.6662 0.0
C202 C 0.46233 0.50633 0.72977 0.0
C203 C 0.45613 0.53087 0.74902 0.0
C204 C 0.42839 0.54977 0.72224 0.0
C205 C 0.42233 0.57151 0.74299 0.0
C206 C 0.44429 0.57618 0.78986 0.0
C207 C 0.47213 0.55707 0.81637 0.0
C208 C 0.47777 0.53471 0.7968 0.0
C209 C 0.53077 0.42574 0.78687 0.0
C210 C 0.52108 0.48928 0.59293 0.0
C211 C 0.52402 0.37338 0.66633 0.0
C212 C 0.52514 0.33931 0.67968 0.0
C213 C 0.53497 0.31501 0.7414 0.0
C214 C 0.5469 0.28534 0.75413 0.0
C215 C 0.54933 0.27971 0.70539 0.0
C216 C 0.53561 0.30218 0.64391 0.0
C217 C 0.52359 0.33193 0.63111 0.0
C218 C 0.42898 0.42422 0.6222 0.0
C219 C 0.45943 0.38593 0.77285 0.0
O220 O 0.45109 0.5076 0.67509 0.0
O221 O 0.48136 0.48164 0.76823 0.0
O222 O 0.50592 0.42922 0.80043 0.0
O223 O 0.52667 0.43907 0.72781 0.0
O224 O 0.50825 0.49617 0.62854 0.0
O225 O 0.51575 0.46098 0.59459 0.0
O226 O 0.52827 0.37903 0.71384 0.0
O227 O 0.50465 0.39421 0.6163 0.0
O228 O 0.44838 0.41058 0.61009 0.0
O229 O 0.44368 0.43871 0.65291 0.0
O230 O 0.48286 0.38162 0.75519 0.0
O231 O 0.44941 0.41631 0.75175 0.0
H232 H 0.41091 0.54716 0.68618 0.0
H233 H 0.39988 0.58397 0.72284 0.0
H234 H 0.48996 0.55953 0.85209 0.0
H235 H 0.4994 0.5205 0.81902 0.0
H236 H 0.53636 0.31985 0.78 0.0
H237 H 0.55699 0.26809 0.80193 0.0
H238 H 0.53722 0.29834 0.60551 0.0
H239 H 0.51604 0.35022 0.58318 0.0
Nd240 Nd 0.90891 0.18615 0.47267 0.0
Nd241 Nd 0.94173 0.22703 0.39188 0.0
C242 C 0.86707 0.14686 0.52221 0.0
C243 C 0.83716 0.15306 0.5291 0.0
C244 C 0.81789 0.12742 0.55164 0.0
C245 C 0.79282 0.13141 0.5713 0.0
C246 C 0.78697 0.16111 0.56881 0.0
C247 C 0.8041 0.18786 0.53902 0.0
C248 C 0.82929 0.18379 0.51979 0.0
C249 C 0.92201 0.23969 0.49212 0.0
C250 C 0.86956 0.24486 0.34025 0.0
C251 C 0.98218 0.26483 0.33415 0.0
C252 C 1.00943 0.28047 0.35273 0.0
C253 C 1.01126 0.29028 0.3983 0.0
C254 C 1.03754 0.30503 0.41575 0.0
C255 C 1.06229 0.30956 0.38854 0.0
C256 C 1.06081 0.29887 0.34441 0.0
C257 C 1.03435 0.28454 0.3263 0.0
C258 C 0.9261 0.17366 0.3712 0.0
C259 C 0.97949 0.18241 0.53661 0.0
O260 O 0.86888 0.15571 0.46572 0.0
O261 O 0.89101 0.15464 0.5544 0.0
O262 O 0.92273 0.21046 0.53606 0.0
O263 O 0.91337 0.24031 0.43985 0.0
O264 O 0.86841 0.21639 0.38778 0.0
O265 O 0.89652 0.25685 0.33237 0.0
O266 O 0.95571 0.27558 0.33187 0.0
O267 O 0.98466 0.23337 0.36022 0.0
O268 O 0.92049 0.20348 0.32893 0.0
O269 O 0.9373 0.17256 0.42389 0.0
O270 O 0.97766 0.21091 0.48728 0.0
O271 O 0.956 0.16345 0.53877 0.0
H272 H 0.82348 0.10374 0.55812 0.0
H273 H 0.77984 0.11048 0.5936 0.0
H274 H 0.79954 0.21121 0.53521 0.0
H275 H 0.84376 0.20405 0.50146 0.0
H276 H 0.99244 0.28654 0.42032 0.0
H277 H 1.03876 0.31253 0.45094 0.0
H278 H 0.08001 0.30186 0.32373 0.0
H279 H 1.03333 0.27652 0.29188 0.0
Nd280 Nd 0.19554 0.63206 0.34619 0.0
Nd281 Nd 0.15164 0.62743 0.23643 0.0
C282 C 0.22715 0.64822 0.43146 0.0
C283 C 0.22392 0.67005 0.45685 0.0
C284 C 0.19539 0.67596 0.46426 0.0
C285 C 0.19262 0.69914 0.4833 0.0
C286 C 0.21817 0.71696 0.49414 0.0
C287 C 0.24672 0.71057 0.48767 0.0
C288 C 0.24959 0.68716 0.46953 0.0
C289 C 0.21927 0.6416 0.24971 0.0
C290 C 0.13996 0.68806 0.24801 0.0
C291 C 0.13321 0.61954 0.13885 0.0
C292 C 0.12039 0.58984 0.13942 0.0
C293 C 0.13817 0.56907 0.13248 0.0
C294 C 0.12469 0.54263 0.12643 0.0
C295 C 0.09292 0.53907 0.1221 0.0
C296 C 0.0777 0.55458 0.14409 0.0
C297 C 0.0912 0.58063 0.15134 0.0
C298 C 0.11928 0.60972 0.32591 0.0
C299 C 0.19115 0.56241 0.35054 0.0
O300 O 0.20987 0.62299 0.44409 0.0
O301 O 0.22944 0.66256 0.37401 0.0
O302 O 0.23238 0.62205 0.30693 0.0
O303 O 0.19446 0.65408 0.24505 0.0
O304 O 0.15741 0.67228 0.30535 0.0
O305 O 0.14015 0.67938 0.20563 0.0
O306 O 0.16254 0.61664 0.16736 0.0
O307 O 0.1162 0.63636 0.15069 0.0
O308 O 0.10848 0.60874 0.27379 0.0
O309 O 0.14702 0.61761 0.33049 0.0
O310 O 0.17691 0.57758 0.29132 0.0
O311 O 0.19798 0.577 0.38586 0.0
H312 H 0.17517 0.66333 0.45384 0.0
H313 H 0.17029 0.70407 0.48717 0.0
H314 H 0.26665 0.72417 0.49551 0.0
H315 H 0.2717 0.68307 0.46361 0.0
H316 H 0.16153 0.57454 0.12726 0.0
H317 H 0.13705 0.52961 0.11205 0.0
H318 H 1.05347 0.55096 0.14381 0.0
H319 H 0.07778 0.59484 0.16145 0.0
Nd320 Nd 0.88188 0.70969 0.51289 0.0
Nd321 Nd 0.9004 0.69315 0.43703 0.0
C322 C 0.85725 0.72252 0.58316 0.0
C323 C 0.84303 0.73044 0.621 0.0
C324 C 0.85222 0.71325 0.686 0.0
C325 C 0.84298 0.72465 0.72173 0.0
C326 C 0.82466 0.75334 0.69264 0.0
C327 C 0.81384 0.76926 0.62789 0.0
C328 C 0.82301 0.75792 0.59225 0.0
C329 C 0.90228 0.76465 0.4234 0.0
C330 C 0.82738 0.68632 0.42769 0.0
C331 C 0.93406 0.68268 0.37451 0.0
C332 C 0.96698 0.67261 0.38827 0.0
C333 C 0.98666 0.69369 0.35307 0.0
C334 C 1.01604 0.68257 0.35884 0.0
C335 C 1.02611 0.65018 0.39982 0.0
C336 C 1.00775 0.63011 0.43926 0.0
C337 C 0.9785 0.64117 0.43358 0.0
C338 C 0.89343 0.63778 0.54067 0.0
C339 C 0.95296 0.70421 0.54427 0.0
O340 O 0.87485 0.69649 0.60587 0.0
O341 O 0.852 0.74074 0.52324 0.0
O342 O 0.90816 0.75635 0.48169 0.0
O343 O 0.88501 0.74409 0.41123 0.0
O344 O 0.83664 0.68788 0.48025 0.0
O345 O 0.84735 0.69301 0.39296 0.0
O346 O 0.92827 0.71136 0.36665 0.0
O347 O 0.91659 0.66131 0.40595 0.0
O348 O 0.88014 0.64416 0.48414 0.0
O349 O 0.90692 0.66247 0.54136 0.0
O350 O 0.94635 0.70482 0.48968 0.0
O351 O 0.93094 0.70034 0.57202 0.0
H352 H 0.86777 0.69205 0.7091 0.0
H353 H 0.85147 0.71209 0.77177 0.0
H354 H 0.79926 0.79119 0.60482 0.0
H355 H 0.81553 0.77153 0.54216 0.0
H356 H 0.97867 0.71821 0.31862 0.0
H357 H 1.02979 0.69852 0.32785 0.0
H358 H 1.01516 0.60511 0.47149 0.0
H359 H 0.9644 0.6244 0.46253 0.0
Nd360 Nd 0.13223 0.14802 0.8646 0.0
Nd361 Nd 0.14708 0.10392 0.81866 0.0
C362 C 0.10417 0.19145 0.87493 0.0
C363 C 0.10218 0.22633 0.85338 0.0
C364 C 0.0897 0.24753 0.79034 0.0
C365 C 0.07712 0.27767 0.77326 0.0
C366 C 0.07741 0.28687 0.81891 0.0
C367 C 0.09423 0.26786 0.88022 0.0
C368 C 0.1065 0.23752 0.89749 0.0
C369 C 0.19672 0.13918 0.90553 0.0
C370 C 0.16582 0.18256 0.75463 0.0
C371 C 0.17453 0.06204 0.79962 0.0
C372 C 0.17281 0.03649 0.77851 0.0
C373 C 0.18915 1.00657 0.81844 0.0
C374 C 0.19168 0.98393 0.79746 0.0
C375 C 0.178 0.99034 0.73554 0.0
C376 C 0.16135 1.02018 0.6956 0.0
C377 C 0.15874 0.04285 0.7167 0.0
C378 C 0.09035 0.13211 0.74162 0.0
C379 C 0.10482 0.07629 0.93029 0.0
O380 O 0.09288 0.18154 0.83336 0.0
O381 O 0.12915 0.17511 0.91582 0.0
O382 O 0.17923 0.15285 0.92142 0.0
O383 O 0.17962 0.12625 0.87386 0.0
O384 O 0.14603 0.18738 0.78022 0.0
O385 O 0.17204 0.15254 0.76531 0.0
O386 O 0.16972 0.05504 0.85369 0.0
O387 O 0.16564 0.0918 0.7578 0.0
O388 O 0.10579 0.11157 0.73733 0.0
O389 O 0.10537 0.13784 0.78576 0.0
O390 O 0.11779 0.0696 0.89431 0.0
O391 O 0.11012 0.10421 0.93059 0.0
H392 H 0.08677 0.23972 0.7551 0.0
H393 H 0.06452 0.29235 0.72556 0.0
H394 H 0.09474 0.27472 0.91602 0.0
H395 H 0.11645 0.22162 0.94618 0.0
H396 H 0.20088 1.00101 0.86579 0.0
H397 H 0.20522 0.96165 0.82961 0.0
H398 H 0.15031 1.02606 0.64783 0.0
H399 H 0.14624 0.06571 0.68404 0.0
Nd400 Nd 0.68227 0.33863 0.13354 0.0
Nd401 Nd 0.71565 0.37933 0.05285 0.0
C402 C 0.64309 0.29929 0.19304 0.0
C403 C 0.61651 0.28239 0.1765 0.0
C404 C 0.61384 0.27437 0.1283 0.0
C405 C 0.58733 0.26012 0.11029 0.0
C406 C 0.56337 0.25403 0.14003 0.0
C407 C 0.56611 0.26179 0.18843 0.0
C408 C 0.59272 0.27589 0.20674 0.0
C409 C 0.69794 0.39228 0.15411 0.0
C410 C 0.64556 0.38356 0.98744 0.0
C411 C 0.75709 0.41848 1.00193 0.0
C412 C 0.78684 0.41224 0.99486 0.0
C413 C 0.80724 0.43727 0.97757 0.0
C414 C 0.8328 0.43362 0.95902 0.0
C415 C 0.83825 0.40473 0.958 0.0
C416 C 0.8194 0.37852 0.98147 0.0
C417 C 0.79372 0.38228 0.99958 0.0
C418 C 0.70291 0.32472 0.03658 0.0
C419 C 0.75467 0.32197 0.18688 0.0
O420 O 0.66976 0.28952 0.19418 0.0
O421 O 0.63942 0.33071 0.16592 0.0
O422 O 0.70186 0.36244 0.19661 0.0
O423 O 0.68731 0.39319 0.10138 0.0
O424 O 0.64667 0.35523 0.03706 0.0
O425 O 0.66899 0.40242 0.98627 0.0
O426 O 0.7556 0.41 0.05845 0.0
O427 O 0.73308 0.41041 0.97041 0.0
O428 O 0.70202 0.35363 0.99155 0.0
O429 O 0.71162 0.32507 0.08789 0.0
O430 O 0.75587 0.35029 0.13905 0.0
O431 O 0.72778 0.30955 0.19383 0.0
H432 H 0.6319 0.27974 0.10387 0.0
H433 H 0.58507 0.2547 0.07206 0.0
H434 H 0.5474 0.2577 0.21081 0.0
H435 H 0.59448 0.2824 0.24343 0.0
H436 H 0.80228 0.46035 0.97445 0.0
H437 H 0.84659 0.45442 0.94043 0.0
H438 H 0.82328 0.35591 0.98168 0.0
H439 H 0.77827 0.36251 0.01372 0.0
Nd440 Nd 0.47846 0.94609 0.27829 0.0
Nd441 Nd 0.4291 0.93281 0.17986 0.0
C442 C 0.5115 0.95304 0.37116 0.0
C443 C 0.51427 0.98341 0.37443 0.0
C444 C 0.49195 0.9935 0.3932 0.0
C445 C 0.49757 1.01951 0.40599 0.0
C446 C 0.52622 0.03365 0.4034 0.0
C447 C 0.54429 1.02924 0.3699 0.0
C448 C 0.53896 1.00318 0.35736 0.0
C449 C 0.49677 0.95988 0.17273 0.0
C450 C 0.43002 1.00462 0.17669 0.0
C451 C 0.39893 0.92219 0.08667 0.0
C452 C 0.40242 0.90038 0.06127 0.0
C453 C 0.43089 0.89513 0.05278 0.0
C454 C 0.43429 0.87105 0.03631 0.0
C455 C 0.40946 0.85172 0.02919 0.0
C456 C 0.38094 0.8574 0.03658 0.0
C457 C 0.3774 0.8817 0.05205 0.0
C458 C 0.40613 0.92102 0.28025 0.0
C459 C 0.48359 0.87685 0.28358 0.0
O460 O 0.48431 0.94039 0.3722 0.0
O461 O 0.52404 0.95189 0.33058 0.0
O462 O 0.5002 0.97893 0.19825 0.0
O463 O 0.481 0.93654 0.19977 0.0
O464 O 0.44788 0.99152 0.23349 0.0
O465 O 0.4227 0.98837 0.14385 0.0
O466 O 0.41802 0.94588 0.07969 0.0
O467 O 0.39361 0.90743 0.14189 0.0
O468 O 0.39066 0.91555 0.2352 0.0
O469 O 0.43154 0.93095 0.26971 0.0
O470 O 0.46368 0.88851 0.22816 0.0
O471 O 0.48807 0.89216 0.31724 0.0
H472 H 0.47173 0.97973 0.40351 0.0
H473 H 0.4829 1.02372 0.43001 0.0
H474 H 0.56597 0.04118 0.36549 0.0
H475 H 0.55556 0.99701 0.33935 0.0
H476 H 0.45068 0.90883 0.06071 0.0
H477 H 0.45656 0.86671 0.0314 0.0
H478 H 0.36161 0.84255 0.03166 0.0
H479 H 0.35539 0.88512 0.05915 0.0
Nd480 Nd 0.22527 0.37365 0.58506 0.0
Nd481 Nd 0.24417 0.35565 0.51294 0.0
C482 C 0.19348 0.38343 0.65115 0.0
C483 C 0.16178 0.3957 0.63972 0.0
C484 C 0.13658 0.37523 0.64668 0.0
C485 C 0.10746 0.38684 0.6411 0.0
C486 C 0.10322 0.41902 0.62846 0.0
C487 C 0.12789 0.43973 0.6184 0.0
C488 C 0.15685 0.42819 0.62434 0.0
C489 C 0.23094 0.42855 0.47934 0.0
C490 C 0.17298 0.3627 0.47625 0.0
C491 C 0.26766 0.34051 0.44459 0.0
C492 C 0.28097 0.33063 0.40852 0.0
C493 C 0.28001 0.35204 0.34621 0.0
C494 C 0.28882 0.34093 0.30976 0.0
C495 C 0.29858 0.30851 0.33569 0.0
C496 C 0.30041 0.28737 0.39814 0.0
C497 C 0.29156 0.29836 0.43448 0.0
C498 C 0.22341 0.30168 0.60329 0.0
C499 C 0.2989 0.38055 0.59357 0.0
O500 O 0.19662 0.3554 0.65371 0.0
O501 O 0.21192 0.40424 0.62161 0.0
O502 O 0.24356 0.42368 0.53522 0.0
O503 O 0.21834 0.40316 0.48068 0.0
O504 O 0.17851 0.36319 0.52995 0.0
O505 O 0.19586 0.36454 0.4519 0.0
O506 O 0.2528 0.36831 0.42134 0.0
O507 O 0.27141 0.32213 0.50414 0.0
O508 O 0.2174 0.30967 0.54523 0.0
O509 O 0.24094 0.32228 0.6148 0.0
O510 O 0.28999 0.37664 0.5436 0.0
O511 O 0.27855 0.37585 0.62676 0.0
H512 H 0.1396 0.35005 0.65851 0.0
H513 H 0.08879 0.37032 0.64982 0.0
H514 H 0.12504 0.46466 0.60841 0.0
H515 H 0.17563 0.44464 0.6184 0.0
H516 H 0.27164 0.37695 0.32532 0.0
H517 H 0.28755 0.35735 0.26135 0.0
H518 H 0.30796 0.26224 0.41824 0.0
H519 H 0.29206 0.28131 0.48222 0.0
Nd520 Nd 0.97851 0.96109 0.20592 0.0
Nd521 Nd 0.99199 0.92046 0.16334 0.0
C522 C 0.96372 1.00634 0.23276 0.0
C523 C 0.95685 1.03067 0.25218 0.0
C524 C 0.93766 0.05861 0.21102 0.0
C525 C 0.93238 0.08158 0.22968 0.0
C526 C 0.9456 0.07721 0.29076 0.0
C527 C 0.96497 0.04919 0.33152 0.0
C528 C 0.97056 1.02656 0.3126 0.0
C529 C 1.03101 0.92417 0.2847 0.0
C530 C 1.0187 0.98988 0.09083 0.0
C531 C 1.02183 0.8749 0.16204 0.0
C532 C 1.02485 0.83997 0.18372 0.0
C533 C 1.04629 0.82175 0.23981 0.0
C534 C 1.05751 0.79192 0.2533 0.0
C535 C 1.04683 0.77852 0.21227 0.0
C536 C 1.0216 0.79471 0.1608 0.0
C537 C 1.01134 0.82572 0.14554 0.0
C538 C 0.92735 0.9264 0.12087 0.0
C539 C 0.9576 0.88546 0.2716 0.0
O540 O 0.95315 1.00822 0.17747 0.0
O541 O 0.981 0.98036 0.27226 0.0
O542 O 1.00741 0.92738 0.30222 0.0
O543 O 1.02564 0.93907 0.22545 0.0
O544 O 1.00745 0.99565 0.12978 0.0
O545 O 1.01246 0.96226 0.0901 0.0
O546 O 1.02948 0.88409 0.2052 0.0
O547 O 0.99883 0.89229 0.11578 0.0
O548 O 0.94626 0.91489 0.10387 0.0
O549 O 0.94227 0.93934 0.15448 0.0
O550 O 0.9795 0.88108 0.25013 0.0
O551 O 0.94939 0.91573 0.25567 0.0
H552 H 0.92698 0.06301 0.16391 0.0
H553 H 0.91841 0.10315 0.19526 0.0
H554 H 0.9757 0.04433 0.37884 0.0
H555 H 0.98578 1.00564 0.34581 0.0
H556 H 1.05693 0.83176 0.27094 0.0
H557 H 0.07674 0.78132 0.29357 0.0
H558 H 1.01052 0.78448 0.13051 0.0
H559 H 0.9941 0.83905 0.10257 0.0
Nd560 Nd 0.4107 0.68573 0.97558 0.0
Nd561 Nd 0.44271 0.7253 0.89508 0.0
C562 C 0.3692 0.64779 0.02815 0.0
C563 C 0.34118 0.65531 0.04029 0.0
C564 C 0.31232 0.64603 0.01673 0.0
C565 C 0.28612 0.65038 0.03294 0.0
C566 C 0.28862 0.66354 0.07388 0.0
C567 C 0.31699 0.67544 0.09279 0.0
C568 C 0.34299 0.67155 0.07588 0.0
C569 C 0.42274 0.74008 0.99299 0.0
C570 C 0.3702 0.74344 0.84282 0.0
C571 C 0.48232 0.76352 0.83505 0.0
C572 C 0.50802 0.78119 0.85194 0.0
C573 C 0.51286 0.78297 0.9075 0.0
C574 C 0.5384 0.79826 0.92563 0.0
C575 C 0.55911 0.81254 0.88781 0.0
C576 C 0.55371 0.81123 0.8314 0.0
C577 C 0.52831 0.79548 0.81372 0.0
C578 C 0.42629 0.67262 0.87237 0.0
C579 C 0.48105 0.68196 0.04055 0.0
O580 O 0.36864 0.65758 0.97004 0.0
O581 O 0.39554 0.65235 0.05976 0.0
O582 O 0.42377 0.71095 0.03736 0.0
O583 O 0.41476 0.74019 0.94116 0.0
O584 O 0.36927 0.71637 0.89348 0.0
O585 O 0.39723 0.75413 0.8326 0.0
O586 O 0.45516 0.77362 0.83081 0.0
O587 O 0.48626 0.73209 0.86538 0.0
O588 O 0.42121 0.70266 0.83149 0.0
O589 O 0.43752 0.67072 0.92583 0.0
O590 O 0.47856 0.71036 0.99068 0.0
O591 O 0.45781 0.66277 0.04231 0.0
H592 H 0.31027 0.63441 0.98756 0.0
H593 H 0.26428 0.64194 0.01604 0.0
H594 H 0.31968 0.68578 0.12421 0.0
H595 H 0.36474 0.68003 0.09308 0.0
H596 H 0.49722 0.77198 0.93744 0.0
H597 H 0.54242 0.79788 0.97024 0.0
H598 H 0.56926 0.82208 0.80128 0.0
H599 H 0.52466 0.79418 0.77066 0.0
Nd600 Nd 0.69645 0.13156 0.84896 0.0
Nd601 Nd 0.64857 0.12186 0.74632 0.0
C602 C 0.72539 0.14211 0.94293 0.0
C603 C 0.72121 0.16399 0.96772 0.0
C604 C 0.69215 0.17007 0.9727 0.0
C605 C 0.6882 0.19425 0.98849 0.0
C606 C 0.71313 0.21294 0.99877 0.0
C607 C 0.74229 0.20622 0.99513 0.0
C608 C 0.74626 0.18201 0.97968 0.0
C609 C 0.72309 0.14519 0.75245 0.0
C610 C 0.64339 0.18955 0.74482 0.0
C611 C 0.61507 0.116 0.65228 0.0
C612 C 0.61219 0.08589 0.64789 0.0
C613 C 0.63464 0.07604 0.62903 0.0
C614 C 0.62968 0.04957 0.61764 0.0
C615 C 0.6015 0.03454 0.62158 0.0
C616 C 0.58303 0.03926 0.6541 0.0
C617 C 0.58775 0.06578 0.66538 0.0
C618 C 0.62894 0.10588 0.85177 0.0
C619 C 0.6947 0.06138 0.84711 0.0
O620 O 0.70642 0.11837 0.94912 0.0
O621 O 0.73124 0.15692 0.88823 0.0
O622 O 0.7372 0.14699 0.80229 0.0
O623 O 0.69634 0.13641 0.75622 0.0
O624 O 0.66253 0.17655 0.80108 0.0
O625 O 0.63939 0.17551 0.70914 0.0
O626 O 0.64225 0.12862 0.6515 0.0
O627 O 0.60279 0.11664 0.69358 0.0
O628 O 0.62579 0.08782 0.82433 0.0
O629 O 0.64475 0.12941 0.82616 0.0
O630 O 0.678 0.07586 0.78949 0.0
O631 O 0.702 0.07616 0.88256 0.0
H632 H 0.67238 0.15683 0.96278 0.0
H633 H 0.66555 0.19871 0.99168 0.0
H634 H 0.7618 0.22046 1.00215 0.0
H635 H 0.76873 0.17808 0.97494 0.0
H636 H 0.65472 0.09004 0.61848 0.0
H637 H 0.64458 0.04525 0.59413 0.0
H638 H 0.56162 1.02685 0.65918 0.0
H639 H 0.57103 0.07181 0.68332 0.0
C640 C 0.50191 0.1991 0.11187 0.0
C641 C 0.47937 0.22158 0.06268 0.0
C642 C 0.52924 0.20969 0.13801 0.0
C643 C 0.53423 0.24289 0.11563 0.0
H644 H 0.49838 0.17338 0.13003 0.0
H645 H 0.54657 0.19201 0.17539 0.0
S646 S 0.48092 0.31087 0.99194 0.0
N647 N 0.46268 0.27801 0.99625 0.0
N648 N 0.51431 0.29796 0.04431 0.0
C649 C 0.51153 0.26542 0.06776 0.0
C650 C 0.48389 0.25469 0.04154 0.0
C651 C 0.52544 0.81297 0.27505 0.0
C652 C 0.55524 0.81104 0.31283 0.0
C653 C 0.50207 0.83338 0.2679 0.0
C654 C 0.50751 0.85246 0.29865 0.0
H655 H 0.51987 0.79796 0.25191 0.0
H656 H 0.47958 0.83427 0.23782 0.0
S657 S 0.5828 0.85836 0.39831 0.0
N658 N 0.58975 0.8312 0.37809 0.0
N659 N 0.54594 0.86971 0.36534 0.0
C660 C 0.53754 0.85118 0.33585 0.0
C661 C 0.56137 0.83045 0.34273 0.0
C662 C 1.02122 0.71862 0.65232 0.0
C663 C 1.03669 0.74241 0.61062 0.0
C664 C 0.99456 0.70539 0.63081 0.0
C665 C 0.98289 0.71522 0.56707 0.0
H666 H 1.02976 0.71024 0.70181 0.0
H667 H 0.98289 0.68757 0.66418 0.0
S668 S 1.01286 0.77949 0.43875 0.0
N669 N 1.03694 0.77726 0.50261 0.0
N670 N 0.98742 0.75176 0.46233 0.0
C671 C 0.99803 0.73918 0.52497 0.0
C672 C 1.02481 0.75296 0.54672 0.0
C673 C 0.99988 0.3268 0.78031 0.0
C674 C 1.00765 0.35184 0.79635 0.0
C675 C 1.02291 0.30653 0.78588 0.0
C676 C 1.05438 0.31109 0.80656 0.0
H677 H 0.9759 0.32286 0.76348 0.0
H678 H 1.01601 0.28671 0.77508 0.0
S679 S 0.08702 0.3759 0.84597 0.0
N680 N 1.04918 0.38205 0.82834 0.0
N681 N 0.09237 0.34356 0.83865 0.0
C682 C 1.06256 0.33657 0.82095 0.0
C683 C 1.03917 0.35711 0.81577 0.0
C684 C 0.64354 0.82912 0.92956 0.0
C685 C 0.64378 0.84642 0.96264 0.0
C686 C 0.61592 0.81901 0.90406 0.0
C687 C 0.5875 0.82646 0.90967 0.0
H688 H 0.66498 0.82235 0.92513 0.0
H689 H 0.61702 0.80435 0.88166 0.0
S690 S 0.57565 0.87584 0.98336 0.0
N691 N 0.61354 0.87316 0.9951 0.0
N692 N 0.56107 0.8555 0.94451 0.0
C693 C 0.58736 0.84532 0.93979 0.0
C694 C 0.61565 0.85499 0.96696 0.0
C695 C 0.60241 0.25452 0.75157 0.0
C696 C 0.57197 0.25492 0.71752 0.0
C697 C 0.62564 0.23403 0.75842 0.0
C698 C 0.61938 0.21351 0.73081 0.0
H699 H 0.60856 0.27073 0.77202 0.0
H700 H 0.64868 0.2343 0.78553 0.0
S701 S 0.54232 0.20287 0.64286 0.0
N702 N 0.53605 0.23152 0.65993 0.0
N703 N 0.5796 0.1928 0.67231 0.0
C704 C 0.58871 0.21311 0.69771 0.0
C705 C 0.56504 0.2339 0.69116 0.0
C706 C 0.1181 0.30592 0.43837 0.0
C707 C 0.09019 0.32433 0.40821 0.0
C708 C 0.14467 0.31889 0.46024 0.0
C709 C 0.14409 0.35054 0.45301 0.0
H710 H 0.11925 0.28123 0.44585 0.0
H711 H 0.16574 0.30385 0.48331 0.0
S712 S 0.07746 0.40968 0.36979 0.0
N713 N 0.06375 0.37637 0.36712 0.0
N714 N 0.11417 0.40092 0.40863 0.0
C715 C 0.11657 0.36955 0.42117 0.0
C716 C 0.08942 0.35632 0.3987 0.0
C717 C 0.10994 0.71331 0.28612 0.0
C718 C 0.11498 0.7106 0.236 0.0
C719 C 0.08492 0.73152 0.27901 0.0
C720 C 0.06552 0.75105 0.22009 0.0
H721 H 0.12517 0.70088 0.33207 0.0
H722 H 0.08178 0.73103 0.32058 0.0
S723 S 0.06518 0.74738 0.07506 0.0
N724 N 0.09479 0.72338 0.12745 0.0
N725 N 1.05037 0.76199 0.11141 0.0
C726 C 0.06911 0.74707 0.16964 0.0
C727 C 0.09353 0.72635 0.17805 0.0
C728 C 0.24966 0.14713 0.87462 0.0
C729 C 0.23135 0.1458 0.91418 0.0
C730 C 0.28059 0.15855 0.87948 0.0
C731 C 0.29455 0.16972 0.9234 0.0
H732 H 0.23974 0.14032 0.83837 0.0
H733 H 0.29325 0.15943 0.84752 0.0
S734 S 0.2574 0.16916 0.04091 0.0
N735 N 0.231 0.15527 1.00084 0.0
N736 N 0.28709 0.17612 1.00998 0.0
C737 C 0.27651 0.16743 0.96402 0.0
C738 C 0.24567 0.15579 0.95933 0.0
C739 C 0.71657 0.43609 0.18574 0.0
C740 C 0.69212 0.41841 0.16947 0.0
C741 C 0.71202 0.45834 0.20677 0.0
C742 C 0.6828 0.4639 0.21283 0.0
H743 H 0.73953 0.43243 0.18284 0.0
H744 H 0.73159 0.47146 0.21807 0.0
S745 S 0.61194 0.421 0.18248 0.0
N746 N 0.63814 0.40645 0.16477 0.0
N747 N 0.62955 0.4476 0.20434 0.0
C748 C 0.65834 0.4458 0.19763 0.0
C749 C 0.66301 0.42326 0.17617 0.0
C750 C 0.38179 0.88499 0.36471 0.0
C751 C 0.39594 0.91415 0.33581 0.0
C752 C 0.36568 0.88032 0.40869 0.0
C753 C 0.36211 0.90523 0.42337 0.0
H754 H 0.38198 0.86619 0.35117 0.0
H755 H 0.3541 0.85785 0.428 0.0
S756 S 0.39858 0.98479 0.36556 0.0
N757 N 0.40932 0.96661 0.33046 0.0
N758 N 0.37722 0.95897 0.40998 0.0
C759 C 0.3785 0.93355 0.39845 0.0
C760 C 0.39577 0.93781 0.35506 0.0
C761 C 0.92048 0.58976 0.55605 0.0
C762 C 0.90714 0.60477 0.58201 0.0
C763 C 0.92884 0.55685 0.58803 0.0
C764 C 0.92446 0.53764 0.64761 0.0
H765 H 0.92332 0.60331 0.50932 0.0
H766 H 0.93851 0.54632 0.56553 0.0
S767 S 0.89339 0.56561 0.73926 0.0
N768 N 0.89188 0.59852 0.67252 0.0
N769 N 0.90836 0.53614 0.73409 0.0
C770 C 0.91299 0.55256 0.67612 0.0
C771 C 0.90412 0.58632 0.64293 0.0
C772 C 0.8564 0.87494 0.1072 0.0
C773 C 0.8312 0.89073 0.10836 0.0
C774 C 0.88659 0.88679 0.11155 0.0
C775 C 0.89397 0.91537 0.11734 0.0
H776 H 0.85279 0.85311 0.10204 0.0
H777 H 0.9045 0.87309 0.11032 0.0
S778 S 0.83661 0.96743 0.11996 0.0
N779 N 0.81592 0.93769 0.11387 0.0
N780 N 0.87251 0.95952 0.12312 0.0
C781 C 0.86915 0.93142 0.11931 0.0
C782 C 0.83803 0.91932 0.11448 0.0
C783 C 0.44622 0.61747 0.89389 0.0
C784 C 0.42894 0.64685 0.85333 0.0
C785 C 0.45078 0.5949 0.87348 0.0
C786 C 0.43848 0.60052 0.81124 0.0
H787 H 0.45678 0.61203 0.94163 0.0
H788 H 0.46406 0.57272 0.90729 0.0
S789 S 0.39153 0.67437 0.68615 0.0
N790 N 0.39882 0.67994 0.74819 0.0
N791 N 0.40872 0.63924 0.70927 0.0
C792 C 0.42111 0.63001 0.77049 0.0
C793 C 0.41608 0.65259 0.79157 0.0
C794 C 0.72347 0.1439 0.65369 0.0
C795 C 0.73706 0.15272 0.70062 0.0
C796 C 0.73887 0.14831 0.60843 0.0
C797 C 0.76811 0.16194 0.60857 0.0
H798 H 0.70153 0.13237 0.65337 0.0
H799 H 0.72835 0.14011 0.57438 0.0
S800 S 0.81275 0.18985 0.7208 0.0
N801 N 0.78059 0.17675 0.74298 0.0
N802 N 0.80961 0.18455 0.65931 0.0
C803 C 0.78122 0.17186 0.65406 0.0
C804 C 0.76567 0.16732 0.69978 0.0
C805 C 0.23397 0.48458 0.39698 0.0
C806 C 0.21684 0.46104 0.43499 0.0
C807 C 0.22496 0.51758 0.36779 0.0
C808 C 0.19916 0.52783 0.37755 0.0
H809 H 0.25517 0.47757 0.39215 0.0
H810 H 0.23896 0.53523 0.33966 0.0
S811 S 0.1446 0.47574 0.46624 0.0
N812 N 0.17109 0.45012 0.47546 0.0
N813 N 0.15487 0.51224 0.4219 0.0
C814 C 0.18094 0.50454 0.41242 0.0
C815 C 0.18965 0.47103 0.44097 0.0
C816 C 0.75744 0.63122 0.42625 0.0
C817 C 0.73137 0.6528 0.4018 0.0
C818 C 0.78836 0.64217 0.43179 0.0
C819 C 0.79483 0.67534 0.41161 0.0
H820 H 0.75404 0.60553 0.44368 0.0
H821 H 0.80742 0.62435 0.45388 0.0
S822 S 0.73553 0.74201 0.34207 0.0
N823 N 0.71508 0.70936 0.35629 0.0
N824 N 0.77212 0.72932 0.3653 0.0
C825 C 0.76905 0.697 0.38588 0.0
C826 C 0.73782 0.68596 0.38116 0.0
C827 C 0.18969 0.97515 0.65701 0.0
C828 C 0.18131 0.96596 0.71324 0.0
C829 C 0.1943 0.95208 0.63771 0.0
C830 C 0.1909 0.91873 0.67388 0.0
H831 H 0.19341 1.00033 0.62826 0.0
H832 H 0.20128 0.96036 0.5949 0.0
S833 S 0.1648 0.88243 0.82014 0.0
N834 N 0.16669 0.92128 0.80096 0.0
N835 N 0.17562 0.87842 0.766 0.0
C836 C 0.18144 0.90951 0.72894 0.0
C837 C 0.17662 0.93288 0.74821 0.0
C838 C 0.8471 0.39417 0.87547 0.0
C839 C 0.85883 0.40444 0.92082 0.0
C840 C 0.86297 0.39904 0.83135 0.0
C841 C 0.89121 0.41446 0.83043 0.0
H842 H 0.8246 0.38378 0.87174 0.0
H843 H 0.85242 0.39143 0.79642 0.0
S844 S 0.9333 0.44309 0.94308 0.0
N845 N 0.9016 0.42809 0.96602 0.0
N846 N 0.93128 0.43831 0.88121 0.0
C847 C 0.90402 0.42361 0.87716 0.0
C848 C 0.88783 0.41836 0.92275 0.0
C849 C 0.43034 0.05668 0.18334 0.0
C850 C 0.41964 0.03926 0.14928 0.0
C851 C 0.4238 0.09008 0.15697 0.0
C852 C 0.40547 0.10725 0.09628 0.0
H853 H 0.44512 0.04484 0.22995 0.0
H854 H 0.4344 0.10282 0.18314 0.0
S855 S 0.37158 0.07396 0.98721 0.0
N856 N 0.38973 0.04245 0.05108 0.0
N857 N 0.37658 0.1048 1.00287 0.0
C858 C 0.39356 0.0901 0.06269 0.0
C859 C 0.40082 0.05626 0.08881 0.0
C860 C 0.35676 0.37363 0.61077 0.0
C861 C 0.33185 0.39099 0.60878 0.0
C862 C 0.38734 0.38466 0.61555 0.0
C863 C 0.39523 0.41412 0.61777 0.0
H864 H 0.3525 0.35125 0.60774 0.0
H865 H 0.40511 0.3697 0.61725 0.0
S866 S 0.33806 0.47117 0.6066 0.0
N867 N 0.31698 0.4408 0.60464 0.0
N868 N 0.37409 0.46135 0.61408 0.0
C869 C 0.37045 0.432 0.61533 0.0
C870 C 0.33906 0.42062 0.61049 0.0
C871 C 0.9582 0.12943 0.37706 0.0
C872 C 0.93004 0.14743 0.35464 0.0
C873 C 0.96303 0.10728 0.35602 0.0
C874 C 0.93976 0.10146 0.31225 0.0
H875 H 0.97709 0.13329 0.40955 0.0
H876 H 0.9856 0.09512 0.37356 0.0
S877 S 0.86077 0.1411 0.24319 0.0
N878 N 0.87841 0.15767 0.2875 0.0
N879 N 0.88631 0.115 0.25115 0.0
C880 C 0.91118 0.11897 0.29096 0.0
C881 C 0.90665 0.14206 0.31131 0.0
C882 C 0.241 0.67932 0.16196 0.0
C883 C 0.23158 0.64818 0.19678 0.0
C884 C 0.25732 0.68511 0.11759 0.0
C885 C 0.26406 0.66 0.10593 0.0
H886 H 0.23742 0.69881 0.17177 0.0
H887 H 0.26617 0.7089 0.0947 0.0
S888 S 0.23841 0.57575 0.17657 0.0
N889 N 0.22626 0.59307 0.21166 0.0
N890 N 0.25593 0.60401 0.12676 0.0
C891 C 0.2519 0.62955 0.13633 0.0
C892 C 0.23601 0.62354 0.18251 0.0
C893 C 0.67742 1.00697 0.86217 0.0
C894 C 0.70149 1.02633 0.87314 0.0
C895 C 0.68219 0.97352 0.88696 0.0
C896 C 0.71134 0.95809 0.92293 0.0
H897 H 0.65435 1.01759 0.83621 0.0
H898 H 0.66245 0.95935 0.88076 0.0
S899 S 0.78305 0.99877 0.95587 0.0
N900 N 0.7562 1.02844 0.91602 0.0
N901 N 0.7654 0.96532 0.96212 0.0
C902 C 0.73612 0.97749 0.93032 0.0
C903 C 0.7311 1.01166 0.90585 0.0
C904 C 0.58115 0.13607 0.92109 0.0
C905 C 0.55108 0.13704 0.88538 0.0
C906 C 0.60641 0.12444 0.91203 0.0
C907 C 0.60208 0.1128 0.86822 0.0
H908 H 0.5851 0.1443 0.95593 0.0
H909 H 0.62947 0.1248 0.93891 0.0
S910 S 0.5278 0.11365 0.75946 0.0
N911 N 0.51848 0.12789 0.80214 0.0
N912 N 0.56544 0.10555 0.78573 0.0
C913 C 0.572 0.11426 0.83184 0.0
C914 C 0.54662 0.12651 0.84035 0.0
C915 C 0.70641 0.70863 0.18578 0.0
C916 C 0.68387 0.70993 0.21477 0.0
C917 C 0.72242 0.73644 0.15368 0.0
C918 C 0.71722 0.76688 0.14987 0.0
H919 H 0.71165 0.68599 0.18752 0.0
H920 H 0.73907 0.73402 0.13145 0.0
S921 S 0.66049 0.78394 0.21716 0.0
N922 N 0.65705 0.74524 0.23608 0.0
N923 N 0.68723 0.79626 0.17768 0.0
C924 C 0.69468 0.7685 0.17845 0.0
C925 C 0.67808 0.74049 0.2102 0.0
C926 C 1.06176 0.88831 0.39273 0.0
C927 C 1.06161 0.91178 0.33149 0.0
C928 C 0.0888 0.8792 0.44164 0.0
C929 C 0.1171 0.89368 0.43239 0.0
H930 H 1.04044 0.87721 0.40342 0.0
H931 H 0.08719 0.8613 0.48764 0.0
S932 S 0.13002 0.95471 0.27987 0.0
N933 N 0.09285 0.94777 0.26362 0.0
N934 N 0.14356 0.93142 0.3552 0.0
C935 C 0.11757 0.91651 0.37083 0.0
C936 C 0.08997 0.9253 0.32061 0.0
C937 C 0.90027 0.29463 0.45922 0.0
C938 C 0.92108 0.26833 0.5019 0.0
C939 C 0.89757 0.32108 0.46979 0.0
C940 C 0.91579 0.3223 0.52334 0.0
H941 H 0.88527 0.29426 0.4184 0.0
H942 H 0.88098 0.34066 0.43586 0.0
S943 S 0.97425 0.25951 0.64894 0.0
N944 N 0.96061 0.24522 0.59894 0.0
N945 N 0.95543 0.29458 0.61965 0.0
C946 C 0.937 0.29622 0.56604 0.0
C947 C 0.93961 0.2693 0.55521 0.0
C948 C 0.54525 0.92793 0.10678 0.0
C949 C 0.57532 0.92802 0.14154 0.0
C950 C 0.51972 0.93955 0.11521 0.0
C951 C 0.52376 0.95216 0.15751 0.0
H952 H 0.54151 0.91894 0.07309 0.0
H953 H 0.49672 0.93849 0.08895 0.0
S954 S 0.59784 0.95315 0.26513 0.0
N955 N 0.60751 0.93848 0.22343 0.0
N956 N 0.56014 0.96071 0.23876 0.0
C957 C 0.55382 0.95141 0.19346 0.0
C958 C 0.57945 0.93923 0.18552 0.0
C959 C 0.4158 0.35821 0.82524 0.0
C960 C 0.44318 0.35611 0.80938 0.0
C961 C 0.39988 0.33023 0.85645 0.0
C962 C 0.40998 0.2988 0.87186 0.0
H963 H 0.40654 0.38165 0.81355 0.0
H964 H 0.37933 0.33328 0.86865 0.0
S965 S 0.48177 0.27909 0.84569 0.0
N966 N 0.48083 0.31885 0.81629 0.0
N967 N 0.45024 0.26744 0.87121 0.0
C968 C 0.43733 0.29633 0.85635 0.0
C969 C 0.45404 0.32456 0.82632 0.0
C970 C 1.03275 0.14617 0.70205 0.0
C971 C 1.06255 0.15045 0.69136 0.0
C972 C 1.00586 0.15672 0.65208 0.0
C973 C 1.0078 0.17237 0.58961 0.0
H974 H 1.03017 0.13314 0.74914 0.0
H975 H 0.98341 0.15227 0.6624 0.0
S976 S 0.08021 0.19029 0.53692 0.0
N977 N 0.0921 0.17178 0.61342 0.0
N978 N 1.04208 0.19246 0.52066 0.0
C979 C 1.03744 0.1779 0.57872 0.0
C980 C 0.06461 0.16666 0.6292 0.0
C981 C 0.21573 0.8024 0.47276 0.0
C982 C 0.20733 0.79842 0.52588 0.0
C983 C 0.21961 0.77578 0.4636 0.0
C984 C 0.21455 0.74427 0.50645 0.0
H985 H 0.21973 0.82625 0.43823 0.0
H986 H 0.22623 0.77991 0.42218 0.0
S987 S 0.19283 0.72056 0.65348 0.0
N988 N 0.19516 0.76029 0.62302 0.0
N989 N 0.20107 0.71031 0.60417 0.0
C990 C 0.2061 0.73983 0.55967 0.0
C991 C 0.2029 0.7669 0.56984 0.0
C992 C 0.08224 0.6459 0.4015 0.0
C993 C 1.05181 0.63561 0.39203 0.0
C994 C 0.10545 0.63441 0.38672 0.0
C995 C 0.09849 0.61356 0.35945 0.0
H996 H 0.0879 0.66346 0.41881 0.0
H997 H 0.12839 0.64346 0.39314 0.0
S998 S 1.02319 0.57742 0.33102 0.0
N999 N 1.01685 0.60108 0.35952 0.0
N1000 N 1.05994 0.5808 0.32954 0.0
C1001 C 0.06868 0.60182 0.35334 0.0
C1002 C 1.04541 0.61272 0.36976 0.0
C1003 C 0.19201 0.216 0.66649 0.0
C1004 C 0.18316 0.21163 0.71938 0.0
C1005 C 0.20586 0.24468 0.63106 0.0
C1006 C 0.21261 0.27004 0.64772 0.0
H1007 H 0.18714 0.19771 0.65091 0.0
H1008 H 0.21096 0.24719 0.58934 0.0
S1009 S 0.19471 0.27056 0.78295 0.0
N1010 N 0.18239 0.23558 0.78669 0.0
N1011 N 0.20937 0.28813 0.7218 0.0
C1012 C 0.20469 0.26553 0.70145 0.0
C1013 C 0.1898 0.23679 0.73664 0.0
C1014 C 0.58868 0.40872 0.8271 0.0
C1015 C 0.56092 0.4157 0.83628 0.0
C1016 C 0.6163 0.39853 0.87568 0.0
C1017 C 0.61705 0.39474 0.93519 0.0
H1018 H 0.58901 0.4108 0.78256 0.0
H1019 H 0.63705 0.39315 0.86691 0.0
S1020 S 0.55212 0.41172 0.98308 0.0
N1021 N 0.5373 0.41936 0.91035 0.0
N1022 N 0.58847 0.39996 0.99946 0.0
C1023 C 0.58984 0.4019 0.94454 0.0
C1024 C 0.56203 0.41243 0.89577 0.0
C1025 C 0.41893 0.76547 0.05918 0.0
C1026 C 0.42052 0.76913 1.00121 0.0
C1027 C 0.41538 0.79242 0.06768 0.0
C1028 C 0.41378 0.82396 0.01883 0.0
H1029 H 0.41993 0.7416 0.09816 0.0
H1030 H 0.41388 0.7886 0.11281 0.0
S1031 S 0.41682 0.84698 0.85831 0.0
N1032 N 0.42006 0.80703 0.89407 0.0
N1033 N 0.41394 0.85767 0.9108 0.0
C1034 C 0.41563 0.82813 0.96092 0.0
C1035 C 0.41887 0.80069 0.95193 0.0
C1036 C 0.07823 0.4416 0.67849 0.0
C1037 C 0.07505 0.43021 0.63475 0.0
C1038 C 1.05259 0.45291 0.68608 0.0
C1039 C 1.02271 0.45337 0.65006 0.0
H1040 H 0.10076 0.44115 0.70806 0.0
H1041 H 1.05613 0.46008 0.72233 0.0
S1042 S 1.00215 0.42805 0.52655 0.0
N1043 N 1.04 0.42106 0.55332 0.0
N1044 N 0.99145 0.44275 0.56743 0.0
C1045 C 1.01918 0.44252 0.6055 0.0
C1046 C 1.04543 0.43079 0.59788 0.0
C1047 C 0.93003 0.85197 0.35758 0.0
C1048 C 0.94076 0.85595 0.30681 0.0
C1049 C 0.91685 0.82279 0.39338 0.0
C1050 C 0.91261 0.7966 0.37891 0.0
H1051 H 0.93291 0.87097 0.3713 0.0
H1052 H 0.91021 0.8206 0.43351 0.0
S1053 S 0.93695 0.79452 0.25076 0.0
N1054 N 0.94671 0.83048 0.24486 0.0
N1055 N 0.92068 0.77721 0.30969 0.0
C1056 C 0.92261 0.80068 0.32744 0.0
C1057 C 0.93693 0.82984 0.29222 0.0
C1058 C 0.50983 0.64542 0.15326 0.0
C1059 C 0.50907 0.67281 0.09516 0.0
C1060 C 0.53654 0.63603 0.20378 0.0
C1061 C 0.56367 0.65357 0.19821 0.0
H1062 H 0.48984 0.63067 0.15949 0.0
H1063 H 0.53646 0.61402 0.24617 0.0
S1064 S 0.5737 0.7281 0.05926 0.0
N1065 N 0.53804 0.71816 0.03805 0.0
N1066 N 0.58749 0.70042 0.13158 0.0
C1067 C 0.56277 0.6815 0.14161 0.0
C1068 C 0.53577 0.69115 0.09065 0.0
C1069 C 0.72612 0.27026 0.07017 0.0
C1070 C 0.70378 0.29539 0.02896 0.0
C1071 C 0.72878 0.24342 0.0606 0.0
C1072 C 0.7087 0.24043 1.01041 0.0
H1073 H 0.74228 0.27183 0.1089 0.0
H1074 H 0.74678 0.22495 0.09249 0.0
S1075 S 0.6452 0.29888 0.89161 0.0
N1076 N 0.66068 0.31521 0.93757 0.0
N1077 N 0.66521 0.26454 0.92017 0.0
C1078 C 0.68569 0.26498 0.97007 0.0
C1079 C 0.68338 0.29254 0.97918 0.0
C1080 C 0.29046 0.2728 0.22717 0.0
C1081 C 0.32147 0.26883 0.22909 0.0
C1082 C 0.28301 0.28628 0.26148 0.0
C1083 C 0.30647 0.29618 0.29763 0.0
H1084 H 0.27207 0.26529 0.19945 0.0
H1085 H 0.25898 0.28877 0.26026 0.0
S1086 S 0.39072 0.29104 0.31686 0.0
N1087 N 0.37547 0.27558 0.26932 0.0
N1088 N 0.36132 0.3014 0.33354 0.0
C1089 C 0.33738 0.29232 0.29978 0.0
C1090 C 0.34495 0.27843 0.26541 0.0
C1091 C 0.56482 0.56553 0.49504 0.0
C1092 C 0.58585 0.55346 0.47533 0.0
C1093 C 0.5444 0.54549 0.5323 0.0
C1094 C 0.54329 0.51166 0.55285 0.0
H1095 H 0.56378 0.59119 0.48094 0.0
H1096 H 0.52908 0.55685 0.54453 0.0
S1097 S 0.59544 0.4663 0.52097 0.0
N1098 N 0.60492 0.5042 0.48417 0.0
N1099 N 0.56775 0.46708 0.55275 0.0
C1100 C 0.5647 0.4992 0.53447 0.0
C1101 C 0.5854 0.51968 0.4965 0.0
C1102 C 0.28615 0.77696 0.78366 0.0
C1103 C 0.28521 0.80342 0.72481 0.0
C1104 C 0.31343 0.75749 0.8209 0.0
C1105 C 0.34105 0.76344 0.80098 0.0
H1106 H 0.26568 0.7713 0.80143 0.0
H1107 H 0.31288 0.73783 0.8661 0.0
S1108 S 0.35041 0.82798 0.64847 0.0
N1109 N 0.31424 0.83326 0.64719 0.0
N1110 N 0.36501 0.79696 0.71659 0.0
C1111 C 0.34025 0.78946 0.74176 0.0
C1112 C 0.31255 0.8093 0.70396 0.0
C1113 C 0.079 0.5596 1.00943 0.0
C1114 C 0.07448 0.53679 0.0677 0.0
C1115 C 1.06056 0.56053 0.95518 0.0
C1116 C 1.03744 0.5383 0.95777 0.0
H1117 H 0.09719 0.57671 1.00568 0.0
H1118 H 0.06625 0.57659 0.91158 0.0
S1119 S 1.01251 0.47866 0.098 0.0
N1120 N 1.04244 0.49551 0.12461 0.0
N1121 N 1.00765 0.49634 0.02198 0.0
C1122 C 1.03063 0.51766 0.0152 0.0
C1123 C 1.04946 0.51687 0.07056 0.0
C1124 C 0.799 0.76482 0.81308 0.0
C1125 C 0.80692 0.79682 0.79935 0.0
C1126 C 0.80506 0.75063 0.77869 0.0
C1127 C 0.81893 0.76817 0.72929 0.0
H1128 H 0.78718 0.75101 0.84936 0.0
H1129 H 0.79823 0.72612 0.78979 0.0
S1130 S 0.8465 0.85153 0.67808 0.0
N1131 N 0.83136 0.84472 0.73594 0.0
N1132 N 0.84216 0.81817 0.67042 0.0
C1133 C 0.82765 0.79982 0.71601 0.0
C1134 C 0.82179 0.81414 0.75131 0.0
C1135 C 0.78568 0.26906 0.24673 0.0
C1136 C 0.78371 0.30249 0.22795 0.0
C1137 C 0.81353 0.25057 0.28264 0.0
C1138 C 0.84054 0.26487 0.30052 0.0
H1139 H 0.76569 0.2572 0.23266 0.0
H1140 H 0.81403 0.22498 0.29582 0.0
S1141 S 0.84636 0.35056 0.26989 0.0
N1142 N 0.81029 0.34835 0.23472 0.0
N1143 N 0.86268 0.3141 0.30035 0.0
C1144 C 0.83862 0.29815 0.28285 0.0
C1145 C 0.81022 0.31682 0.24703 0.0
C1146 C 0.08227 1.01983 0.99408 0.0
C1147 C 0.08246 0.05393 0.97028 0.0
C1148 C 1.06201 1.00005 0.03213 0.0
C1149 C 1.04031 1.01262 0.04974 0.0
H1150 H 0.09824 1.00807 0.98393 0.0
H1151 H 0.06369 0.97418 0.04864 0.0
S1152 S 1.02805 0.10044 0.99521 0.0
N1153 N 1.05622 0.09917 0.96494 0.0
N1154 N 1.01954 0.0625 0.03522 0.0
C1155 C 1.03987 0.0466 0.02544 0.0
C1156 C 1.06031 0.06683 0.9865 0.0
C1157 C 0.57399 0.06246 0.51223 0.0
C1158 C 0.58427 1.03291 0.56611 0.0
C1159 C 0.5541 0.06298 0.45939 0.0
C1160 C 0.54388 0.03398 0.45994 0.0
H1161 H 0.58102 0.08534 0.51155 0.0
H1162 H 0.54684 0.08589 0.41818 0.0
S1163 S 0.56532 0.95059 0.58837 0.0
N1164 N 0.58366 0.97446 0.6168 0.0
N1165 N 0.54622 0.97491 0.51668 0.0
C1166 C 0.55426 1.00425 0.51336 0.0
C1167 C 0.57451 1.00383 0.56697 0.0
loop_
_geom_bond_atom_site_label_1
_geom_bond_atom_site_label_2
_geom_bond_distance
_geom_bond_site_symmetry_2
_ccdc_geom_bond_type
Nd0 C2 2.836 . S
Nd0 O20 2.500 . S
Nd0 O21 2.492 . S
Nd0 O22 2.487 1_554 S
Nd0 O23 2.682 1_554 S
Nd0 O24 2.410 . S
Nd0 O29 2.414 . S
Nd0 O31 2.424 . S
Nd1 C11 2.836 . S
Nd1 O23 2.414 . S
Nd1 O25 2.424 . S
Nd1 O26 2.500 . S
Nd1 O27 2.492 . S
Nd1 O28 2.487 1_556 S
Nd1 O29 2.682 1_556 S
Nd1 O30 2.410 1_556 S
C2 Nd0 2.836 . S
C2 C3 1.498 . S
C2 O20 1.258 . S
C2 O21 1.239 . S
C3 C2 1.498 . S
C3 C4 1.366 . S
C3 C8 1.407 . S
C4 C3 1.366 . S
C4 C5 1.392 . S
C4 H32 0.930 . S
C5 C4 1.392 . S
C5 C6 1.398 . S
C5 H33 0.929 . S
C6 C5 1.398 . S
C6 C7 1.352 . S
C7 C6 1.352 . S
C7 C8 1.384 . S
C7 H34 0.930 . S
C8 C3 1.407 . S
C8 C7 1.384 . S
C8 H35 0.929 . S
C9 O22 1.241 . S
C9 O23 1.273 . S
C10 O24 1.251 1_556 S
C10 O25 1.268 . S
C11 Nd1 2.836 . S
C11 C12 1.498 . S
C11 O26 1.258 . S
C11 O27 1.239 . S
C12 C11 1.498 . S
C12 C13 1.366 . S
C12 C17 1.407 . S
C13 C12 1.366 . S
C13 C14 1.392 . S
C13 H36 0.930 . S
C14 C13 1.392 . S
C14 C15 1.398 . S
C14 H37 0.929 . S
C15 C14 1.398 . S
C15 C16 1.352 . S
C16 C15 1.352 . S
C16 C17 1.384 . S
C16 H38 0.930 . S
C17 C12 1.407 . S
C17 C16 1.384 . S
C17 H39 0.929 . S
C18 O28 1.241 . S
C18 O29 1.273 . S
C19 O30 1.251 . S
C19 O31 1.268 . S
O20 Nd0 2.500 . S
O20 C2 1.258 . S
O21 Nd0 2.492 . S
O21 C2 1.239 . S
O22 Nd0 2.487 1_556 S
O22 C9 1.241 . S
O23 Nd0 2.682 1_556 S
O23 Nd1 2.414 . S
O23 C9 1.273 . S
O24 Nd0 2.410 . S
O24 C10 1.251 1_554 S
O25 Nd1 2.424 . S
O25 C10 1.268 . S
O26 Nd1 2.500 . S
O26 C11 1.258 . S
O27 Nd1 2.492 . S
O27 C11 1.239 . S
O28 Nd1 2.487 1_554 S
O28 C18 1.241 . S
O29 Nd0 2.414 . S
O29 Nd1 2.682 1_554 S
O29 C18 1.273 . S
O30 Nd1 2.410 1_554 S
O30 C19 1.251 . S
O31 Nd0 2.424 . S
O31 C19 1.268 . S
H32 C4 0.930 . S
H33 C5 0.929 . S
H34 C7 0.930 . S
H35 C8 0.929 . S
H36 C13 0.930 . S
H37 C14 0.929 . S
H38 C16 0.930 . S
H39 C17 0.929 . S
Nd40 C42 2.836 . S
Nd40 O60 2.500 . S
Nd40 O61 2.492 . S
Nd40 O62 2.487 . S
Nd40 O63 2.682 . S
Nd40 O64 2.410 . S
Nd40 O69 2.414 . S
Nd40 O71 2.424 . S
Nd41 C51 2.836 . S
Nd41 O63 2.414 . S
Nd41 O65 2.424 . S
Nd41 O66 2.500 . S
Nd41 O67 2.492 . S
Nd41 O68 2.487 . S
Nd41 O69 2.682 . S
Nd41 O70 2.410 . S
C42 Nd40 2.836 . S
C42 C43 1.498 . S
C42 O60 1.258 . S
C42 O61 1.239 . S
C43 C42 1.498 . S
C43 C44 1.366 . S
C43 C48 1.407 . S
C44 C43 1.366 . S
C44 C45 1.392 . S
C44 H72 0.930 . S
C45 C44 1.392 . S
C45 C46 1.398 . S
C45 H73 0.929 . S
C46 C45 1.398 . S
C46 C47 1.352 . S
C47 C46 1.352 . S
C47 C48 1.384 . S
C47 H74 0.930 . S
C48 C43 1.407 . S
C48 C47 1.384 . S
C48 H75 0.929 . S
C49 O62 1.241 . S
C49 O63 1.273 . S
C50 O64 1.251 . S
C50 O65 1.268 . S
C51 Nd41 2.836 . S
C51 C52 1.498 . S
C51 O66 1.258 . S
C51 O67 1.239 . S
C52 C51 1.498 . S
C52 C53 1.366 . S
C52 C57 1.407 . S
C53 C52 1.366 . S
C53 C54 1.392 . S
C53 H76 0.930 . S
C54 C53 1.392 . S
C54 C55 1.398 . S
C54 H77 0.929 . S
C55 C54 1.398 . S
C55 C56 1.352 . S
C56 C55 1.352 . S
C56 C57 1.384 . S
C56 H78 0.930 . S
C57 C52 1.407 . S
C57 C56 1.384 . S
C57 H79 0.929 . S
C58 O68 1.241 . S
C58 O69 1.273 . S
C59 O70 1.251 . S
C59 O71 1.268 . S
O60 Nd40 2.500 . S
O60 C42 1.258 . S
O61 Nd40 2.492 . S
O61 C42 1.239 . S
O62 Nd40 2.487 . S
O62 C49 1.241 . S
O63 Nd40 2.682 . S
O63 Nd41 2.414 . S
O63 C49 1.273 . S
O64 Nd40 2.410 . S
O64 C50 1.251 . S
O65 Nd41 2.424 . S
O65 C50 1.268 . S
O66 Nd41 2.500 . S
O66 C51 1.258 . S
O67 Nd41 2.492 . S
O67 C51 1.239 . S
O68 Nd41 2.487 . S
O68 C58 1.241 . S
O69 Nd40 2.414 . S
O69 Nd41 2.682 . S
O69 C58 1.273 . S
O70 Nd41 2.410 . S
O70 C59 1.251 . S
O71 Nd40 2.424 . S
O71 C59 1.268 . S
H72 C44 0.930 . S
H73 C45 0.929 . S
H74 C47 0.930 . S
H75 C48 0.929 . S
H76 C53 0.930 . S
H77 C54 0.929 . S
H78 C56 0.930 . S
H79 C57 0.929 . S
Nd80 C82 2.836 . S
Nd80 O100 2.500 . S
Nd80 O101 2.492 . S
Nd80 O102 2.487 . S
Nd80 O103 2.682 . S
Nd80 O104 2.410 . S
Nd80 O109 2.414 . S
Nd80 O111 2.424 . S
Nd81 C91 2.836 . S
Nd81 O103 2.414 . S
Nd81 O105 2.424 . S
Nd81 O106 2.500 . S
Nd81 O107 2.492 . S
Nd81 O108 2.487 . S
Nd81 O109 2.682 . S
Nd81 O110 2.410 . S
C82 Nd80 2.836 . S
C82 C83 1.498 . S
C82 O100 1.258 . S
C82 O101 1.239 . S
C83 C82 1.498 . S
C83 C84 1.366 . S
C83 C88 1.407 . S
C84 C83 1.366 . S
C84 C85 1.392 . S
C84 H112 0.930 . S
C85 C84 1.392 . S
C85 C86 1.398 1_455 S
C85 H113 0.929 1_455 S
C86 C85 1.398 1_655 S
C86 C87 1.352 1_655 S
C87 C86 1.352 1_455 S
C87 C88 1.384 . S
C87 H114 0.930 1_455 S
C88 C83 1.407 . S
C88 C87 1.384 . S
C88 H115 0.929 . S
C89 O102 1.241 . S
C89 O103 1.273 . S
C90 O104 1.251 . S
C90 O105 1.268 . S
C91 Nd81 2.836 . S
C91 C92 1.498 . S
C91 O106 1.258 . S
C91 O107 1.239 . S
C92 C91 1.498 . S
C92 C93 1.366 . S
C92 C97 1.407 . S
C93 C92 1.366 . S
C93 C94 1.392 . S
C93 H116 0.930 . S
C94 C93 1.392 . S
C94 C95 1.398 . S
C94 H117 0.929 . S
C95 C94 1.398 . S
C95 C96 1.352 . S
C96 C95 1.352 . S
C96 C97 1.384 . S
C96 H118 0.930 . S
C97 C92 1.407 . S
C97 C96 1.384 . S
C97 H119 0.929 . S
C98 O108 1.241 . S
C98 O109 1.273 . S
C99 O110 1.251 . S
C99 O111 1.268 . S
O100 Nd80 2.500 . S
O100 C82 1.258 . S
O101 Nd80 2.492 . S
O101 C82 1.239 . S
O102 Nd80 2.487 . S
O102 C89 1.241 . S
O103 Nd80 2.682 . S
O103 Nd81 2.414 . S
O103 C89 1.273 . S
O104 Nd80 2.410 . S
O104 C90 1.251 . S
O105 Nd81 2.424 . S
O105 C90 1.268 . S
O106 Nd81 2.500 . S
O106 C91 1.258 . S
O107 Nd81 2.492 . S
O107 C91 1.239 . S
O108 Nd81 2.487 . S
O108 C98 1.241 . S
O109 Nd80 2.414 . S
O109 Nd81 2.682 . S
O109 C98 1.273 . S
O110 Nd81 2.410 . S
O110 C99 1.251 . S
O111 Nd80 2.424 . S
O111 C99 1.268 . S
H112 C84 0.930 . S
H113 C85 0.929 1_655 S
H114 C87 0.930 1_655 S
H115 C88 0.929 . S
H116 C93 0.930 . S
H117 C94 0.929 . S
H118 C96 0.930 . S
H119 C97 0.929 . S
Nd120 C122 2.836 . S
Nd120 O140 2.500 . S
Nd120 O141 2.492 . S
Nd120 O142 2.487 . S
Nd120 O143 2.682 . S
Nd120 O144 2.410 . S
Nd120 O149 2.414 . S
Nd120 O151 2.424 . S
Nd121 C131 2.836 . S
Nd121 O143 2.414 . S
Nd121 O145 2.424 . S
Nd121 O146 2.500 . S
Nd121 O147 2.492 . S
Nd121 O148 2.487 . S
Nd121 O149 2.682 . S
Nd121 O150 2.410 . S
C122 Nd120 2.836 . S
C122 C123 1.498 . S
C122 O140 1.258 . S
C122 O141 1.239 . S
C123 C122 1.498 . S
C123 C124 1.366 . S
C123 C128 1.407 . S
C124 C123 1.366 . S
C124 C125 1.392 . S
C124 H152 0.930 . S
C125 C124 1.392 . S
C125 C126 1.398 . S
C125 H153 0.929 . S
C126 C125 1.398 . S
C126 C127 1.352 . S
C127 C126 1.352 . S
C127 C128 1.384 . S
C127 H154 0.963 . S
C128 C123 1.407 . S
C128 C127 1.384 . S
C128 H155 0.929 . S
C129 O142 1.241 . S
C129 O143 1.273 . S
C130 O144 1.251 . S
C130 O145 1.268 . S
C131 Nd121 2.836 . S
C131 C132 1.498 . S
C131 O146 1.258 . S
C131 O147 1.239 . S
C132 C131 1.498 . S
C132 C133 1.366 . S
C132 C137 1.407 . S
C133 C132 1.366 . S
C133 C134 1.392 . S
C133 H156 0.930 . S
C134 C133 1.392 . S
C134 C135 1.398 . S
C134 H157 0.929 . S
C135 C134 1.398 . S
C135 C136 1.352 . S
C136 C135 1.352 . S
C136 C137 1.384 . S
C136 H158 0.930 . S
C137 C132 1.407 . S
C137 C136 1.384 . S
C137 H159 0.929 . S
C138 O148 1.241 . S
C138 O149 1.273 . S
C139 O150 1.251 . S
C139 O151 1.268 . S
O140 Nd120 2.500 . S
O140 C122 1.258 . S
O141 Nd120 2.492 . S
O141 C122 1.239 . S
O142 Nd120 2.487 . S
O142 C129 1.241 . S
O143 Nd120 2.682 . S
O143 Nd121 2.414 . S
O143 C129 1.273 . S
O144 Nd120 2.410 . S
O144 C130 1.251 . S
O145 Nd121 2.424 . S
O145 C130 1.268 . S
O146 Nd121 2.500 . S
O146 C131 1.258 . S
O147 Nd121 2.492 . S
O147 C131 1.239 . S
O148 Nd121 2.487 . S
O148 C138 1.241 . S
O149 Nd120 2.414 . S
O149 Nd121 2.682 . S
O149 C138 1.273 . S
O150 Nd121 2.410 . S
O150 C139 1.251 . S
O151 Nd120 2.424 . S
O151 C139 1.268 . S
H152 C124 0.930 . S
H153 C125 0.929 . S
H154 C127 0.963 . S
H155 C128 0.929 . S
H156 C133 0.930 . S
H157 C134 0.929 . S
H158 C136 0.930 . S
H159 C137 0.929 . S
Nd160 C162 2.836 . S
Nd160 O180 2.500 . S
Nd160 O181 2.492 . S
Nd160 O182 2.487 1_554 S
Nd160 O183 2.682 1_554 S
Nd160 O184 2.410 1_554 S
Nd160 O189 2.414 . S
Nd160 O191 2.424 . S
Nd161 C171 2.836 . S
Nd161 O183 2.414 . S
Nd161 O185 2.424 . S
Nd161 O186 2.500 . S
Nd161 O187 2.492 . S
Nd161 O188 2.487 1_556 S
Nd161 O189 2.682 1_556 S
Nd161 O190 2.410 . S
C162 Nd160 2.836 . S
C162 C163 1.498 . S
C162 O180 1.258 . S
C162 O181 1.239 . S
C163 C162 1.498 . S
C163 C164 1.366 . S
C163 C168 1.407 . S
C164 C163 1.366 . S
C164 C165 1.392 . S
C164 H192 0.930 . S
C165 C164 1.392 . S
C165 C166 1.398 . S
C165 H193 0.929 . S
C166 C165 1.398 . S
C166 C167 1.352 . S
C167 C166 1.352 . S
C167 C168 1.384 . S
C167 H194 0.930 . S
C168 C163 1.407 . S
C168 C167 1.384 . S
C168 H195 0.929 . S
C169 O182 1.241 . S
C169 O183 1.273 . S
C170 O184 1.251 . S
C170 O185 1.268 . S
C171 Nd161 2.836 . S
C171 C172 1.498 . S
C171 O186 1.258 . S
C171 O187 1.239 . S
C172 C171 1.498 . S
C172 C173 1.366 . S
C172 C177 1.407 . S
C173 C172 1.366 . S
C173 C174 1.392 . S
C173 H196 0.930 . S
C174 C173 1.392 . S
C174 C175 1.398 . S
C174 H197 0.929 . S
C175 C174 1.398 . S
C175 C176 1.352 . S
C176 C175 1.352 . S
C176 C177 1.384 . S
C176 H198 0.930 . S
C177 C172 1.407 . S
C177 C176 1.384 . S
C177 H199 0.929 . S
C178 O188 1.241 . S
C178 O189 1.273 . S
C179 O190 1.251 1_554 S
C179 O191 1.268 . S
O180 Nd160 2.500 . S
O180 C162 1.258 . S
O181 Nd160 2.492 . S
O181 C162 1.239 . S
O182 Nd160 2.487 1_556 S
O182 C169 1.241 . S
O183 Nd160 2.682 1_556 S
O183 Nd161 2.414 . S
O183 C169 1.273 . S
O184 Nd160 2.410 1_556 S
O184 C170 1.251 . S
O185 Nd161 2.424 . S
O185 C170 1.268 . S
O186 Nd161 2.500 . S
O186 C171 1.258 . S
O187 Nd161 2.492 . S
O187 C171 1.239 . S
O188 Nd161 2.487 1_554 S
O188 C178 1.241 . S
O189 Nd160 2.414 . S
O189 Nd161 2.682 1_554 S
O189 C178 1.273 . S
O190 Nd161 2.410 . S
O190 C179 1.251 1_556 S
O191 Nd160 2.424 . S
O191 C179 1.268 . S
H192 C164 0.930 . S
H193 C165 0.929 . S
H194 C167 0.930 . S
H195 C168 0.929 . S
H196 C173 0.930 . S
H197 C174 0.929 . S
H198 C176 0.930 . S
H199 C177 0.929 . S
Nd200 C202 2.836 . S
Nd200 O220 2.500 . S
Nd200 O221 2.492 . S
Nd200 O222 2.487 . S
Nd200 O223 2.682 . S
Nd200 O224 2.410 . S
Nd200 O229 2.414 . S
Nd200 O231 2.424 . S
Nd201 C211 2.836 . S
Nd201 O223 2.414 . S
Nd201 O225 2.424 . S
Nd201 O226 2.500 . S
Nd201 O227 2.492 . S
Nd201 O228 2.487 . S
Nd201 O229 2.682 . S
Nd201 O230 2.410 . S
C202 Nd200 2.836 . S
C202 C203 1.498 . S
C202 O220 1.258 . S
C202 O221 1.239 . S
C203 C202 1.498 . S
C203 C204 1.366 . S
C203 C208 1.407 . S
C204 C203 1.366 . S
C204 C205 1.392 . S
C204 H232 0.930 . S
C205 C204 1.392 . S
C205 C206 1.398 . S
C205 H233 0.929 . S
C206 C205 1.398 . S
C206 C207 1.352 . S
C207 C206 1.352 . S
C207 C208 1.384 . S
C207 H234 0.930 . S
C208 C203 1.407 . S
C208 C207 1.384 . S
C208 H235 0.929 . S
C209 O222 1.241 . S
C209 O223 1.273 . S
C210 O224 1.251 . S
C210 O225 1.268 . S
C211 Nd201 2.836 . S
C211 C212 1.498 . S
C211 O226 1.258 . S
C211 O227 1.239 . S
C212 C211 1.498 . S
C212 C213 1.366 . S
C212 C217 1.407 . S
C213 C212 1.366 . S
C213 C214 1.392 . S
C213 H236 0.930 . S
C214 C213 1.392 . S
C214 C215 1.398 . S
C214 H237 0.929 . S
C215 C214 1.398 . S
C215 C216 1.352 . S
C216 C215 1.352 . S
C216 C217 1.384 . S
C216 H238 0.930 . S
C217 C212 1.407 . S
C217 C216 1.384 . S
C217 H239 0.929 . S
C218 O228 1.241 . S
C218 O229 1.273 . S
C219 O230 1.251 . S
C219 O231 1.268 . S
O220 Nd200 2.500 . S
O220 C202 1.258 . S
O221 Nd200 2.492 . S
O221 C202 1.239 . S
O222 Nd200 2.487 . S
O222 C209 1.241 . S
O223 Nd200 2.682 . S
O223 Nd201 2.414 . S
O223 C209 1.273 . S
O224 Nd200 2.410 . S
O224 C210 1.251 . S
O225 Nd201 2.424 . S
O225 C210 1.268 . S
O226 Nd201 2.500 . S
O226 C211 1.258 . S
O227 Nd201 2.492 . S
O227 C211 1.239 . S
O228 Nd201 2.487 . S
O228 C218 1.241 . S
O229 Nd200 2.414 . S
O229 Nd201 2.682 . S
O229 C218 1.273 . S
O230 Nd201 2.410 . S
O230 C219 1.251 . S
O231 Nd200 2.424 . S
O231 C219 1.268 . S
H232 C204 0.930 . S
H233 C205 0.929 . S
H234 C207 0.930 . S
H235 C208 0.929 . S
H236 C213 0.930 . S
H237 C214 0.929 . S
H238 C216 0.930 . S
H239 C217 0.929 . S
Nd240 C242 2.836 . S
Nd240 O260 2.500 . S
Nd240 O261 2.492 . S
Nd240 O262 2.487 . S
Nd240 O263 2.682 . S
Nd240 O264 2.410 . S
Nd240 O269 2.414 . S
Nd240 O271 2.424 . S
Nd241 C251 2.836 . S
Nd241 O263 2.414 . S
Nd241 O265 2.424 . S
Nd241 O266 2.500 . S
Nd241 O267 2.492 . S
Nd241 O268 2.487 . S
Nd241 O269 2.682 . S
Nd241 O270 2.410 . S
C242 Nd240 2.836 . S
C242 C243 1.498 . S
C242 O260 1.258 . S
C242 O261 1.239 . S
C243 C242 1.498 . S
C243 C244 1.366 . S
C243 C248 1.407 . S
C244 C243 1.366 . S
C244 C245 1.392 . S
C244 H272 0.930 . S
C245 C244 1.392 . S
C245 C246 1.398 . S
C245 H273 0.929 . S
C246 C245 1.398 . S
C246 C247 1.352 . S
C247 C246 1.352 . S
C247 C248 1.384 . S
C247 H274 0.930 . S
C248 C243 1.407 . S
C248 C247 1.384 . S
C248 H275 0.929 . S
C249 O262 1.241 . S
C249 O263 1.273 . S
C250 O264 1.251 . S
C250 O265 1.268 . S
C251 Nd241 2.836 . S
C251 C252 1.498 . S
C251 O266 1.258 . S
C251 O267 1.239 . S
C252 C251 1.498 . S
C252 C253 1.366 . S
C252 C257 1.407 . S
C253 C252 1.366 . S
C253 C254 1.392 . S
C253 H276 0.930 . S
C254 C253 1.392 . S
C254 C255 1.398 1_655 S
C254 H277 0.929 1_655 S
C255 C254 1.398 1_455 S
C255 C256 1.352 1_455 S
C256 C255 1.352 1_655 S
C256 C257 1.384 . S
C256 H278 0.930 1_655 S
C257 C252 1.407 . S
C257 C256 1.384 . S
C257 H279 0.929 . S
C258 O268 1.241 . S
C258 O269 1.273 . S
C259 O270 1.251 . S
C259 O271 1.268 . S
O260 Nd240 2.500 . S
O260 C242 1.258 . S
O261 Nd240 2.492 . S
O261 C242 1.239 . S
O262 Nd240 2.487 . S
O262 C249 1.241 . S
O263 Nd240 2.682 . S
O263 Nd241 2.414 . S
O263 C249 1.273 . S
O264 Nd240 2.410 . S
O264 C250 1.251 . S
O265 Nd241 2.424 . S
O265 C250 1.268 . S
O266 Nd241 2.500 . S
O266 C251 1.258 . S
O267 Nd241 2.492 . S
O267 C251 1.239 . S
O268 Nd241 2.487 . S
O268 C258 1.241 . S
O269 Nd240 2.414 . S
O269 Nd241 2.682 . S
O269 C258 1.273 . S
O270 Nd241 2.410 . S
O270 C259 1.251 . S
O271 Nd240 2.424 . S
O271 C259 1.268 . S
H272 C244 0.930 . S
H273 C245 0.929 . S
H274 C247 0.930 . S
H275 C248 0.929 . S
H276 C253 0.930 . S
H277 C254 0.929 1_455 S
H278 C256 0.930 1_455 S
H279 C257 0.929 . S
Nd280 C282 2.836 . S
Nd280 O300 2.500 . S
Nd280 O301 2.492 . S
Nd280 O302 2.487 . S
Nd280 O303 2.682 . S
Nd280 O304 2.410 . S
Nd280 O309 2.414 . S
Nd280 O311 2.424 . S
Nd281 C291 2.836 . S
Nd281 O303 2.414 . S
Nd281 O305 2.424 . S
Nd281 O306 2.500 . S
Nd281 O307 2.492 . S
Nd281 O308 2.487 . S
Nd281 O309 2.682 . S
Nd281 O310 2.410 . S
C282 Nd280 2.836 . S
C282 C283 1.498 . S
C282 O300 1.258 . S
C282 O301 1.239 . S
C283 C282 1.498 . S
C283 C284 1.366 . S
C283 C288 1.407 . S
C284 C283 1.366 . S
C284 C285 1.392 . S
C284 H312 0.930 . S
C285 C284 1.392 . S
C285 C286 1.398 . S
C285 H313 0.929 . S
C286 C285 1.398 . S
C286 C287 1.352 . S
C287 C286 1.352 . S
C287 C288 1.384 . S
C287 H314 0.930 . S
C288 C283 1.407 . S
C288 C287 1.384 . S
C288 H315 0.929 . S
C289 O302 1.241 . S
C289 O303 1.273 . S
C290 O304 1.251 . S
C290 O305 1.268 . S
C291 Nd281 2.836 . S
C291 C292 1.498 . S
C291 O306 1.258 . S
C291 O307 1.239 . S
C292 C291 1.498 . S
C292 C293 1.366 . S
C292 C297 1.407 . S
C293 C292 1.366 . S
C293 C294 1.392 . S
C293 H316 0.930 . S
C294 C293 1.392 . S
C294 C295 1.398 . S
C294 H317 0.929 . S
C295 C294 1.398 . S
C295 C296 1.352 . S
C296 C295 1.352 . S
C296 C297 1.384 . S
C296 H318 0.963 . S
C297 C292 1.407 . S
C297 C296 1.384 . S
C297 H319 0.929 . S
C298 O308 1.241 . S
C298 O309 1.273 . S
C299 O310 1.251 . S
C299 O311 1.268 . S
O300 Nd280 2.500 . S
O300 C282 1.258 . S
O301 Nd280 2.492 . S
O301 C282 1.239 . S
O302 Nd280 2.487 . S
O302 C289 1.241 . S
O303 Nd280 2.682 . S
O303 Nd281 2.414 . S
O303 C289 1.273 . S
O304 Nd280 2.410 . S
O304 C290 1.251 . S
O305 Nd281 2.424 . S
O305 C290 1.268 . S
O306 Nd281 2.500 . S
O306 C291 1.258 . S
O307 Nd281 2.492 . S
O307 C291 1.239 . S
O308 Nd281 2.487 . S
O308 C298 1.241 . S
O309 Nd280 2.414 . S
O309 Nd281 2.682 . S
O309 C298 1.273 . S
O310 Nd281 2.410 . S
O310 C299 1.251 . S
O311 Nd280 2.424 . S
O311 C299 1.268 . S
H312 C284 0.930 . S
H313 C285 0.929 . S
H314 C287 0.930 . S
H315 C288 0.929 . S
H316 C293 0.930 . S
H317 C294 0.929 . S
H318 C296 0.963 . S
H319 C297 0.929 . S
Nd320 C322 2.836 . S
Nd320 O340 2.500 . S
Nd320 O341 2.492 . S
Nd320 O342 2.487 . S
Nd320 O343 2.682 . S
Nd320 O344 2.410 . S
Nd320 O349 2.414 . S
Nd320 O351 2.424 . S
Nd321 C331 2.836 . S
Nd321 O343 2.414 . S
Nd321 O345 2.424 . S
Nd321 O346 2.500 . S
Nd321 O347 2.492 . S
Nd321 O348 2.487 . S
Nd321 O349 2.682 . S
Nd321 O350 2.410 . S
C322 Nd320 2.836 . S
C322 C323 1.498 . S
C322 O340 1.258 . S
C322 O341 1.239 . S
C323 C322 1.498 . S
C323 C324 1.366 . S
C323 C328 1.407 . S
C324 C323 1.366 . S
C324 C325 1.392 . S
C324 H352 0.930 . S
C325 C324 1.392 . S
C325 C326 1.398 . S
C325 H353 0.929 . S
C326 C325 1.398 . S
C326 C327 1.352 . S
C327 C326 1.352 . S
C327 C328 1.384 . S
C327 H354 0.930 . S
C328 C323 1.407 . S
C328 C327 1.384 . S
C328 H355 0.929 . S
C329 O342 1.241 . S
C329 O343 1.273 . S
C330 O344 1.251 . S
C330 O345 1.268 . S
C331 Nd321 2.836 . S
C331 C332 1.498 . S
C331 O346 1.258 . S
C331 O347 1.239 . S
C332 C331 1.498 . S
C332 C333 1.366 . S
C332 C337 1.407 . S
C333 C332 1.366 . S
C333 C334 1.392 . S
C333 H356 0.930 . S
C334 C333 1.392 . S
C334 C335 1.398 . S
C334 H357 0.929 . S
C335 C334 1.398 . S
C335 C336 1.352 . S
C336 C335 1.352 . S
C336 C337 1.384 . S
C336 H358 0.930 . S
C337 C332 1.407 . S
C337 C336 1.384 . S
C337 H359 0.929 . S
C338 O348 1.241 . S
C338 O349 1.273 . S
C339 O350 1.251 . S
C339 O351 1.268 . S
O340 Nd320 2.500 . S
O340 C322 1.258 . S
O341 Nd320 2.492 . S
O341 C322 1.239 . S
O342 Nd320 2.487 . S
O342 C329 1.241 . S
O343 Nd320 2.682 . S
O343 Nd321 2.414 . S
O343 C329 1.273 . S
O344 Nd320 2.410 . S
O344 C330 1.251 . S
O345 Nd321 2.424 . S
O345 C330 1.268 . S
O346 Nd321 2.500 . S
O346 C331 1.258 . S
O347 Nd321 2.492 . S
O347 C331 1.239 . S
O348 Nd321 2.487 . S
O348 C338 1.241 . S
O349 Nd320 2.414 . S
O349 Nd321 2.682 . S
O349 C338 1.273 . S
O350 Nd321 2.410 . S
O350 C339 1.251 . S
O351 Nd320 2.424 . S
O351 C339 1.268 . S
H352 C324 0.930 . S
H353 C325 0.929 . S
H354 C327 0.930 . S
H355 C328 0.929 . S
H356 C333 0.930 . S
H357 C334 0.929 . S
H358 C336 0.930 . S
H359 C337 0.929 . S
Nd360 C362 2.836 . S
Nd360 O380 2.500 . S
Nd360 O381 2.492 . S
Nd360 O382 2.487 . S
Nd360 O383 2.682 . S
Nd360 O384 2.410 . S
Nd360 O389 2.414 . S
Nd360 O391 2.424 . S
Nd361 C371 2.836 . S
Nd361 O383 2.414 . S
Nd361 O385 2.424 . S
Nd361 O386 2.500 . S
Nd361 O387 2.492 . S
Nd361 O388 2.487 . S
Nd361 O389 2.682 . S
Nd361 O390 2.410 . S
C362 Nd360 2.836 . S
C362 C363 1.498 . S
C362 O380 1.258 . S
C362 O381 1.239 . S
C363 C362 1.498 . S
C363 C364 1.366 . S
C363 C368 1.407 . S
C364 C363 1.366 . S
C364 C365 1.392 . S
C364 H392 0.930 . S
C365 C364 1.392 . S
C365 C366 1.398 . S
C365 H393 0.929 . S
C366 C365 1.398 . S
C366 C367 1.352 . S
C367 C366 1.352 . S
C367 C368 1.384 . S
C367 H394 0.930 . S
C368 C363 1.407 . S
C368 C367 1.384 . S
C368 H395 0.929 . S
C369 O382 1.241 . S
C369 O383 1.273 . S
C370 O384 1.251 . S
C370 O385 1.268 . S
C371 Nd361 2.836 . S
C371 C372 1.498 . S
C371 O386 1.258 . S
C371 O387 1.239 . S
C372 C371 1.498 . S
C372 C373 1.366 1_545 S
C372 C377 1.407 1_545 S
C373 C372 1.366 1_565 S
C373 C374 1.392 . S
C373 H396 0.930 . S
C374 C373 1.392 . S
C374 C375 1.398 . S
C374 H397 0.929 . S
C375 C374 1.398 . S
C375 C376 1.352 . S
C376 C375 1.352 . S
C376 C377 1.384 . S
C376 H398 0.930 . S
C377 C372 1.407 1_565 S
C377 C376 1.384 . S
C377 H399 0.929 1_565 S
C378 O388 1.241 . S
C378 O389 1.273 . S
C379 O390 1.251 . S
C379 O391 1.268 . S
O380 Nd360 2.500 . S
O380 C362 1.258 . S
O381 Nd360 2.492 . S
O381 C362 1.239 . S
O382 Nd360 2.487 . S
O382 C369 1.241 . S
O383 Nd360 2.682 . S
O383 Nd361 2.414 . S
O383 C369 1.273 . S
O384 Nd360 2.410 . S
O384 C370 1.251 . S
O385 Nd361 2.424 . S
O385 C370 1.268 . S
O386 Nd361 2.500 . S
O386 C371 1.258 . S
O387 Nd361 2.492 . S
O387 C371 1.239 . S
O388 Nd361 2.487 . S
O388 C378 1.241 . S
O389 Nd360 2.414 . S
O389 Nd361 2.682 . S
O389 C378 1.273 . S
O390 Nd361 2.410 . S
O390 C379 1.251 . S
O391 Nd360 2.424 . S
O391 C379 1.268 . S
H392 C364 0.930 . S
H393 C365 0.929 . S
H394 C367 0.930 . S
H395 C368 0.929 . S
H396 C373 0.930 . S
H397 C374 0.929 . S
H398 C376 0.930 . S
H399 C377 0.929 1_545 S
Nd400 C402 2.836 . S
Nd400 O420 2.500 . S
Nd400 O421 2.492 . S
Nd400 O422 2.487 . S
Nd400 O423 2.682 . S
Nd400 O424 2.410 . S
Nd400 O429 2.414 . S
Nd400 O431 2.424 . S
Nd401 C411 2.836 . S
Nd401 O423 2.414 . S
Nd401 O425 2.424 1_554 S
Nd401 O426 2.500 . S
Nd401 O427 2.492 1_554 S
Nd401 O428 2.481 1_554 S
Nd401 O429 2.682 . S
Nd401 O430 2.410 . S
C402 Nd400 2.836 . S
C402 C403 1.498 . S
C402 O420 1.258 . S
C402 O421 1.239 . S
C403 C402 1.498 . S
C403 C404 1.366 . S
C403 C408 1.407 . S
C404 C403 1.366 . S
C404 C405 1.392 . S
C404 H432 0.930 . S
C405 C404 1.392 . S
C405 C406 1.398 . S
C405 H433 0.929 . S
C406 C405 1.398 . S
C406 C407 1.352 . S
C407 C406 1.352 . S
C407 C408 1.384 . S
C407 H434 0.930 . S
C408 C403 1.407 . S
C408 C407 1.384 . S
C408 H435 0.929 . S
C409 O422 1.241 . S
C409 O423 1.273 . S
C410 O424 1.251 1_556 S
C410 O425 1.268 . S
C411 Nd401 2.836 . S
C411 C412 1.498 . S
C411 O426 1.258 . S
C411 O427 1.239 1_554 S
C412 C411 1.498 . S
C412 C413 1.366 . S
C412 C417 1.407 1_554 S
C413 C412 1.366 . S
C413 C414 1.392 . S
C413 H436 0.930 . S
C414 C413 1.392 . S
C414 C415 1.398 . S
C414 H437 0.929 . S
C415 C414 1.398 . S
C415 C416 1.352 1_554 S
C416 C415 1.352 1_556 S
C416 C417 1.384 . S
C416 H438 0.930 . S
C417 C412 1.407 1_556 S
C417 C416 1.384 . S
C417 H439 0.929 . S
C418 O428 1.236 1_554 S
C418 O429 1.273 . S
C419 O430 1.251 . S
C419 O431 1.268 . S
O420 Nd400 2.500 . S
O420 C402 1.258 . S
O421 Nd400 2.492 . S
O421 C402 1.239 . S
O422 Nd400 2.487 . S
O422 C409 1.241 . S
O423 Nd400 2.682 . S
O423 Nd401 2.414 . S
O423 C409 1.273 . S
O424 Nd400 2.410 . S
O424 C410 1.251 1_554 S
O425 Nd401 2.424 1_556 S
O425 C410 1.268 . S
O426 Nd401 2.500 . S
O426 C411 1.258 . S
O427 Nd401 2.492 1_556 S
O427 C411 1.239 1_556 S
O428 Nd401 2.481 1_556 S
O428 C418 1.236 1_556 S
O429 Nd400 2.414 . S
O429 Nd401 2.682 . S
O429 C418 1.273 . S
O430 Nd401 2.410 . S
O430 C419 1.251 . S
O431 Nd400 2.424 . S
O431 C419 1.268 . S
H432 C404 0.930 . S
H433 C405 0.929 . S
H434 C407 0.930 . S
H435 C408 0.929 . S
H436 C413 0.930 . S
H437 C414 0.929 . S
H438 C416 0.930 . S
H439 C417 0.929 . S
Nd440 C442 2.836 . S
Nd440 O460 2.500 . S
Nd440 O461 2.492 . S
Nd440 O462 2.487 . S
Nd440 O463 2.682 . S
Nd440 O464 2.410 . S
Nd440 O469 2.414 . S
Nd440 O471 2.424 . S
Nd441 C451 2.836 . S
Nd441 O463 2.414 . S
Nd441 O465 2.424 . S
Nd441 O466 2.500 . S
Nd441 O467 2.492 . S
Nd441 O468 2.487 . S
Nd441 O469 2.682 . S
Nd441 O470 2.410 . S
C442 Nd440 2.836 . S
C442 C443 1.498 . S
C442 O460 1.258 . S
C442 O461 1.239 . S
C443 C442 1.498 . S
C443 C444 1.366 . S
C443 C448 1.407 . S
C444 C443 1.366 . S
C444 C445 1.392 . S
C444 H472 0.930 . S
C445 C444 1.392 . S
C445 C446 1.398 1_565 S
C445 H473 0.929 1_565 S
C446 C445 1.398 1_545 S
C446 C447 1.352 1_545 S
C447 C446 1.352 1_565 S
C447 C448 1.384 . S
C447 H474 0.930 1_565 S
C448 C443 1.407 . S
C448 C447 1.384 . S
C448 H475 0.929 . S
C449 O462 1.241 . S
C449 O463 1.273 . S
C450 O464 1.251 . S
C450 O465 1.268 . S
C451 Nd441 2.836 . S
C451 C452 1.498 . S
C451 O466 1.258 . S
C451 O467 1.239 . S
C452 C451 1.498 . S
C452 C453 1.366 . S
C452 C457 1.407 . S
C453 C452 1.366 . S
C453 C454 1.392 . S
C453 H476 0.930 . S
C454 C453 1.392 . S
C454 C455 1.398 . S
C454 H477 0.929 . S
C455 C454 1.398 . S
C455 C456 1.352 . S
C456 C455 1.352 . S
C456 C457 1.384 . S
C456 H478 0.930 . S
C457 C452 1.407 . S
C457 C456 1.384 . S
C457 H479 0.929 . S
C458 O468 1.241 . S
C458 O469 1.273 . S
C459 O470 1.251 . S
C459 O471 1.268 . S
O460 Nd440 2.500 . S
O460 C442 1.258 . S
O461 Nd440 2.492 . S
O461 C442 1.239 . S
O462 Nd440 2.487 . S
O462 C449 1.241 . S
O463 Nd440 2.682 . S
O463 Nd441 2.414 . S
O463 C449 1.273 . S
O464 Nd440 2.410 . S
O464 C450 1.251 . S
O465 Nd441 2.424 . S
O465 C450 1.268 . S
O466 Nd441 2.500 . S
O466 C451 1.258 . S
O467 Nd441 2.492 . S
O467 C451 1.239 . S
O468 Nd441 2.487 . S
O468 C458 1.241 . S
O469 Nd440 2.414 . S
O469 Nd441 2.682 . S
O469 C458 1.273 . S
O470 Nd441 2.410 . S
O470 C459 1.251 . S
O471 Nd440 2.424 . S
O471 C459 1.268 . S
H472 C444 0.930 . S
H473 C445 0.929 1_545 S
H474 C447 0.930 1_545 S
H475 C448 0.929 . S
H476 C453 0.930 . S
H477 C454 0.929 . S
H478 C456 0.930 . S
H479 C457 0.929 . S
Nd480 C482 2.836 . S
Nd480 O500 2.500 . S
Nd480 O501 2.492 . S
Nd480 O502 2.487 . S
Nd480 O503 2.682 . S
Nd480 O504 2.410 . S
Nd480 O509 2.414 . S
Nd480 O511 2.424 . S
Nd481 C491 2.836 . S
Nd481 O503 2.414 . S
Nd481 O505 2.424 . S
Nd481 O506 2.500 . S
Nd481 O507 2.492 . S
Nd481 O508 2.487 . S
Nd481 O509 2.682 . S
Nd481 O510 2.410 . S
C482 Nd480 2.836 . S
C482 C483 1.498 . S
C482 O500 1.258 . S
C482 O501 1.239 . S
C483 C482 1.498 . S
C483 C484 1.366 . S
C483 C488 1.407 . S
C484 C483 1.366 . S
C484 C485 1.392 . S
C484 H512 0.930 . S
C485 C484 1.392 . S
C485 C486 1.398 . S
C485 H513 0.929 . S
C486 C485 1.398 . S
C486 C487 1.352 . S
C487 C486 1.352 . S
C487 C488 1.384 . S
C487 H514 0.930 . S
C488 C483 1.407 . S
C488 C487 1.384 . S
C488 H515 0.929 . S
C489 O502 1.241 . S
C489 O503 1.273 . S
C490 O504 1.251 . S
C490 O505 1.268 . S
C491 Nd481 2.836 . S
C491 C492 1.498 . S
C491 O506 1.258 . S
C491 O507 1.239 . S
C492 C491 1.498 . S
C492 C493 1.366 . S
C492 C497 1.407 . S
C493 C492 1.366 . S
C493 C494 1.392 . S
C493 H516 0.930 . S
C494 C493 1.392 . S
C494 C495 1.398 . S
C494 H517 0.929 . S
C495 C494 1.398 . S
C495 C496 1.352 . S
C496 C495 1.352 . S
C496 C497 1.384 . S
C496 H518 0.930 . S
C497 C492 1.407 . S
C497 C496 1.384 . S
C497 H519 0.929 . S
C498 O508 1.241 . S
C498 O509 1.273 . S
C499 O510 1.251 . S
C499 O511 1.268 . S
O500 Nd480 2.500 . S
O500 C482 1.258 . S
O501 Nd480 2.492 . S
O501 C482 1.239 . S
O502 Nd480 2.487 . S
O502 C489 1.241 . S
O503 Nd480 2.682 . S
O503 Nd481 2.414 . S
O503 C489 1.273 . S
O504 Nd480 2.410 . S
O504 C490 1.251 . S
O505 Nd481 2.424 . S
O505 C490 1.268 . S
O506 Nd481 2.500 . S
O506 C491 1.258 . S
O507 Nd481 2.492 . S
O507 C491 1.239 . S
O508 Nd481 2.487 . S
O508 C498 1.241 . S
O509 Nd480 2.414 . S
O509 Nd481 2.682 . S
O509 C498 1.273 . S
O510 Nd481 2.410 . S
O510 C499 1.251 . S
O511 Nd480 2.424 . S
O511 C499 1.268 . S
H512 C484 0.930 . S
H513 C485 0.929 . S
H514 C487 0.930 . S
H515 C488 0.929 . S
H516 C493 0.930 . S
H517 C494 0.929 . S
H518 C496 0.930 . S
H519 C497 0.929 . S
Nd520 C522 2.836 . S
Nd520 O540 2.500 . S
Nd520 O541 2.492 . S
Nd520 O542 2.487 . S
Nd520 O543 2.682 . S
Nd520 O544 2.410 . S
Nd520 O549 2.414 . S
Nd520 O551 2.424 . S
Nd521 C531 2.836 . S
Nd521 O543 2.414 . S
Nd521 O545 2.424 . S
Nd521 O546 2.500 . S
Nd521 O547 2.492 . S
Nd521 O548 2.487 . S
Nd521 O549 2.682 . S
Nd521 O550 2.410 . S
C522 Nd520 2.836 . S
C522 C523 1.498 . S
C522 O540 1.258 . S
C522 O541 1.239 . S
C523 C522 1.498 . S
C523 C524 1.366 1_565 S
C523 C528 1.407 1_565 S
C524 C523 1.366 1_545 S
C524 C525 1.392 . S
C524 H552 0.930 . S
C525 C524 1.392 . S
C525 C526 1.398 . S
C525 H553 0.929 . S
C526 C525 1.398 . S
C526 C527 1.352 . S
C527 C526 1.352 . S
C527 C528 1.384 . S
C527 H554 0.930 . S
C528 C523 1.407 1_545 S
C528 C527 1.384 . S
C528 H555 0.929 1_545 S
C529 O542 1.241 . S
C529 O543 1.273 . S
C530 O544 1.251 . S
C530 O545 1.268 . S
C531 Nd521 2.836 . S
C531 C532 1.498 . S
C531 O546 1.258 . S
C531 O547 1.239 . S
C532 C531 1.498 . S
C532 C533 1.366 . S
C532 C537 1.407 . S
C533 C532 1.366 . S
C533 C534 1.392 . S
C533 H556 0.930 . S
C534 C533 1.392 . S
C534 C535 1.398 . S
C534 H557 0.929 . S
C535 C534 1.398 . S
C535 C536 1.352 . S
C536 C535 1.352 . S
C536 C537 1.384 . S
C536 H558 0.930 . S
C537 C532 1.407 . S
C537 C536 1.384 . S
C537 H559 0.929 . S
C538 O548 1.241 . S
C538 O549 1.273 . S
C539 O550 1.251 . S
C539 O551 1.268 . S
O540 Nd520 2.500 . S
O540 C522 1.258 . S
O541 Nd520 2.492 . S
O541 C522 1.239 . S
O542 Nd520 2.487 . S
O542 C529 1.241 . S
O543 Nd520 2.682 . S
O543 Nd521 2.414 . S
O543 C529 1.273 . S
O544 Nd520 2.410 . S
O544 C530 1.251 . S
O545 Nd521 2.424 . S
O545 C530 1.268 . S
O546 Nd521 2.500 . S
O546 C531 1.258 . S
O547 Nd521 2.492 . S
O547 C531 1.239 . S
O548 Nd521 2.487 . S
O548 C538 1.241 . S
O549 Nd520 2.414 . S
O549 Nd521 2.682 . S
O549 C538 1.273 . S
O550 Nd521 2.410 . S
O550 C539 1.251 . S
O551 Nd520 2.424 . S
O551 C539 1.268 . S
H552 C524 0.930 . S
H553 C525 0.929 . S
H554 C527 0.930 . S
H555 C528 0.929 1_565 S
H556 C533 0.930 . S
H557 C534 0.929 . S
H558 C536 0.930 . S
H559 C537 0.929 . S
Nd560 C562 2.836 . S
Nd560 O580 2.500 . S
Nd560 O581 2.492 1_556 S
Nd560 O582 2.481 1_556 S
Nd560 O583 2.682 . S
Nd560 O584 2.410 . S
Nd560 O589 2.414 . S
Nd560 O591 2.424 1_556 S
Nd561 C571 2.836 . S
Nd561 O583 2.414 . S
Nd561 O585 2.424 . S
Nd561 O586 2.500 . S
Nd561 O587 2.492 . S
Nd561 O588 2.487 . S
Nd561 O589 2.682 . S
Nd561 O590 2.410 . S
C562 Nd560 2.836 . S
C562 C563 1.498 . S
C562 O580 1.258 . S
C562 O581 1.239 1_556 S
C563 C562 1.498 . S
C563 C564 1.366 . S
C563 C568 1.407 1_556 S
C564 C563 1.366 . S
C564 C565 1.392 . S
C564 H592 0.930 . S
C565 C564 1.392 . S
C565 C566 1.398 . S
C565 H593 0.929 . S
C566 C565 1.398 . S
C566 C567 1.352 1_556 S
C567 C566 1.352 1_554 S
C567 C568 1.384 . S
C567 H594 0.930 . S
C568 C563 1.407 1_554 S
C568 C567 1.384 . S
C568 H595 0.929 . S
C569 O582 1.236 1_556 S
C569 O583 1.273 . S
C570 O584 1.251 . S
C570 O585 1.268 . S
C571 Nd561 2.836 . S
C571 C572 1.498 . S
C571 O586 1.258 . S
C571 O587 1.239 . S
C572 C571 1.498 . S
C572 C573 1.366 . S
C572 C577 1.407 . S
C573 C572 1.366 . S
C573 C574 1.392 . S
C573 H596 0.930 . S
C574 C573 1.392 . S
C574 C575 1.398 . S
C574 H597 0.929 . S
C575 C574 1.398 . S
C575 C576 1.352 . S
C576 C575 1.352 . S
C576 C577 1.384 . S
C576 H598 0.930 . S
C577 C572 1.407 . S
C577 C576 1.384 . S
C577 H599 0.929 . S
C578 O588 1.241 . S
C578 O589 1.273 . S
C579 O590 1.251 1_554 S
C579 O591 1.268 . S
O580 Nd560 2.500 . S
O580 C562 1.258 . S
O581 Nd560 2.492 1_554 S
O581 C562 1.239 1_554 S
O582 Nd560 2.481 1_554 S
O582 C569 1.236 1_554 S
O583 Nd560 2.682 . S
O583 Nd561 2.414 . S
O583 C569 1.273 . S
O584 Nd560 2.410 . S
O584 C570 1.251 . S
O585 Nd561 2.424 . S
O585 C570 1.268 . S
O586 Nd561 2.500 . S
O586 C571 1.258 . S
O587 Nd561 2.492 . S
O587 C571 1.239 . S
O588 Nd561 2.487 . S
O588 C578 1.241 . S
O589 Nd560 2.414 . S
O589 Nd561 2.682 . S
O589 C578 1.273 . S
O590 Nd561 2.410 . S
O590 C579 1.251 1_556 S
O591 Nd560 2.424 1_554 S
O591 C579 1.268 . S
H592 C564 0.930 . S
H593 C565 0.929 . S
H594 C567 0.930 . S
H595 C568 0.929 . S
H596 C573 0.930 . S
H597 C574 0.929 . S
H598 C576 0.930 . S
H599 C577 0.929 . S
Nd600 C602 2.836 . S
Nd600 O620 2.500 . S
Nd600 O621 2.492 . S
Nd600 O622 2.487 . S
Nd600 O623 2.682 . S
Nd600 O624 2.410 . S
Nd600 O629 2.414 . S
Nd600 O631 2.424 . S
Nd601 C611 2.836 . S
Nd601 O623 2.414 . S
Nd601 O625 2.424 . S
Nd601 O626 2.500 . S
Nd601 O627 2.492 . S
Nd601 O628 2.487 . S
Nd601 O629 2.682 . S
Nd601 O630 2.410 . S
C602 Nd600 2.836 . S
C602 C603 1.498 . S
C602 O620 1.258 . S
C602 O621 1.239 . S
C603 C602 1.498 . S
C603 C604 1.366 . S
C603 C608 1.407 . S
C604 C603 1.366 . S
C604 C605 1.392 . S
C604 H632 0.930 . S
C605 C604 1.392 . S
C605 C606 1.398 . S
C605 H633 0.929 . S
C606 C605 1.398 . S
C606 C607 1.352 . S
C607 C606 1.352 . S
C607 C608 1.384 . S
C607 H634 0.930 . S
C608 C603 1.407 . S
C608 C607 1.384 . S
C608 H635 0.929 . S
C609 O622 1.241 . S
C609 O623 1.273 . S
C610 O624 1.251 . S
C610 O625 1.268 . S
C611 Nd601 2.836 . S
C611 C612 1.498 . S
C611 O626 1.258 . S
C611 O627 1.239 . S
C612 C611 1.498 . S
C612 C613 1.366 . S
C612 C617 1.407 . S
C613 C612 1.366 . S
C613 C614 1.392 . S
C613 H636 0.930 . S
C614 C613 1.392 . S
C614 C615 1.398 1_545 S
C614 H637 0.929 1_545 S
C615 C614 1.398 1_565 S
C615 C616 1.352 1_565 S
C616 C615 1.352 1_545 S
C616 C617 1.384 . S
C616 H638 0.930 1_545 S
C617 C612 1.407 . S
C617 C616 1.384 . S
C617 H639 0.929 . S
C618 O628 1.241 . S
C618 O629 1.273 . S
C619 O630 1.251 . S
C619 O631 1.268 . S
O620 Nd600 2.500 . S
O620 C602 1.258 . S
O621 Nd600 2.492 . S
O621 C602 1.239 . S
O622 Nd600 2.487 . S
O622 C609 1.241 . S
O623 Nd600 2.682 . S
O623 Nd601 2.414 . S
O623 C609 1.273 . S
O624 Nd600 2.410 . S
O624 C610 1.251 . S
O625 Nd601 2.424 . S
O625 C610 1.268 . S
O626 Nd601 2.500 . S
O626 C611 1.258 . S
O627 Nd601 2.492 . S
O627 C611 1.239 . S
O628 Nd601 2.487 . S
O628 C618 1.241 . S
O629 Nd600 2.414 . S
O629 Nd601 2.682 . S
O629 C618 1.273 . S
O630 Nd601 2.410 . S
O630 C619 1.251 . S
O631 Nd600 2.424 . S
O631 C619 1.268 . S
H632 C604 0.930 . S
H633 C605 0.929 . S
H634 C607 0.930 . S
H635 C608 0.929 . S
H636 C613 0.930 . S
H637 C614 0.929 1_565 S
H638 C616 0.930 1_565 S
H639 C617 0.929 . S
C640 C641 1.369 . S
C640 C642 1.419 . S
C640 H644 0.930 . S
C641 C640 1.369 . S
C641 C650 1.429 . S
C642 C640 1.419 . S
C642 C643 1.363 . S
C642 H645 0.929 . S
C643 C642 1.363 . S
C643 C649 1.428 . S
H644 C640 0.930 . S
H645 C642 0.929 . S
S646 N647 1.613 . S
S646 N648 1.610 1_556 S
N647 S646 1.613 . S
N647 C650 1.350 1_556 S
N648 S646 1.610 1_554 S
N648 C649 1.351 . S
C649 C643 1.428 . S
C649 N648 1.351 . S
C649 C650 1.434 . S
C650 C641 1.429 . S
C650 N647 1.350 1_554 S
C650 C649 1.434 . S
C651 C652 1.369 . S
C651 C653 1.419 . S
C651 H655 0.930 . S
C652 C651 1.369 . S
C652 C661 1.429 . S
C653 C651 1.419 . S
C653 C654 1.363 . S
C653 H656 0.929 . S
C654 C653 1.363 . S
C654 C660 1.428 . S
H655 C651 0.930 . S
H656 C653 0.929 . S
S657 N658 1.613 . S
S657 N659 1.610 . S
N658 S657 1.613 . S
N658 C661 1.350 . S
N659 S657 1.610 . S
N659 C660 1.351 . S
C660 C654 1.428 . S
C660 N659 1.351 . S
C660 C661 1.434 . S
C661 C652 1.429 . S
C661 N658 1.350 . S
C661 C660 1.434 . S
C662 C663 1.369 . S
C662 C664 1.419 . S
C662 H666 0.930 . S
C663 C662 1.369 . S
C663 C672 1.429 . S
C664 C662 1.419 . S
C664 C665 1.363 . S
C664 H667 0.929 . S
C665 C664 1.363 . S
C665 C671 1.428 . S
H666 C662 0.930 . S
H667 C664 0.929 . S
S668 N669 1.613 . S
S668 N670 1.610 . S
N669 S668 1.613 . S
N669 C672 1.350 . S
N670 S668 1.610 . S
N670 C671 1.351 . S
C671 C665 1.428 . S
C671 N670 1.351 . S
C671 C672 1.434 . S
C672 C663 1.429 . S
C672 N669 1.350 . S
C672 C671 1.434 . S
C673 C674 1.369 . S
C673 C675 1.419 . S
C673 H677 0.930 . S
C674 C673 1.369 . S
C674 C683 1.429 . S
C675 C673 1.419 . S
C675 C676 1.363 1_655 S
C675 H678 0.929 . S
C676 C675 1.363 1_455 S
C676 C682 1.428 1_455 S
H677 C673 0.930 . S
H678 C675 0.929 . S
S679 N680 1.613 . S
S679 N681 1.610 1_655 S
N680 S679 1.613 . S
N680 C683 1.350 . S
N681 S679 1.610 1_455 S
N681 C682 1.351 1_455 S
C682 C676 1.428 1_655 S
C682 N681 1.351 1_655 S
C682 C683 1.434 . S
C683 C674 1.429 . S
C683 N680 1.350 . S
C683 C682 1.434 . S
C684 C685 1.369 . S
C684 C686 1.419 . S
C684 H688 0.930 . S
C685 C684 1.369 . S
C685 C694 1.429 . S
C686 C684 1.419 . S
C686 C687 1.363 . S
C686 H689 0.929 . S
C687 C686 1.363 . S
C687 C693 1.428 . S
H688 C684 0.930 . S
H689 C686 0.929 . S
S690 N691 1.613 . S
S690 N692 1.610 . S
N691 S690 1.613 . S
N691 C694 1.350 . S
N692 S690 1.610 . S
N692 C693 1.351 . S
C693 C687 1.428 . S
C693 N692 1.351 . S
C693 C694 1.434 . S
C694 C685 1.429 . S
C694 N691 1.350 . S
C694 C693 1.434 . S
C695 C696 1.369 . S
C695 C697 1.419 . S
C695 H699 0.930 . S
C696 C695 1.369 . S
C696 C705 1.429 . S
C697 C695 1.419 . S
C697 C698 1.363 . S
C697 H700 0.929 . S
C698 C697 1.363 . S
C698 C704 1.428 . S
H699 C695 0.930 . S
H700 C697 0.929 . S
S701 N702 1.613 . S
S701 N703 1.610 . S
N702 S701 1.613 . S
N702 C705 1.350 . S
N703 S701 1.610 . S
N703 C704 1.351 . S
C704 C698 1.428 . S
C704 N703 1.351 . S
C704 C705 1.434 . S
C705 C696 1.429 . S
C705 N702 1.350 . S
C705 C704 1.434 . S
C706 C707 1.369 . S
C706 C708 1.419 . S
C706 H710 0.930 . S
C707 C706 1.369 . S
C707 C716 1.429 . S
C708 C706 1.419 . S
C708 C709 1.363 . S
C708 H711 0.929 . S
C709 C708 1.363 . S
C709 C715 1.428 . S
H710 C706 0.930 . S
H711 C708 0.929 . S
S712 N713 1.613 . S
S712 N714 1.610 1_655 S
N713 S712 1.613 . S
N713 C716 1.350 1_655 S
N714 S712 1.610 1_455 S
N714 C715 1.351 . S
C715 C709 1.428 . S
C715 N714 1.351 . S
C715 C716 1.434 . S
C716 C707 1.429 . S
C716 N713 1.350 1_455 S
C716 C715 1.434 . S
C717 C718 1.369 . S
C717 C719 1.419 . S
C717 H721 0.930 . S
C718 C717 1.369 . S
C718 C727 1.429 . S
C719 C717 1.419 . S
C719 C720 1.363 1_455 S
C719 H722 0.929 . S
C720 C719 1.363 1_655 S
C720 C726 1.428 1_655 S
H721 C717 0.930 . S
H722 C719 0.929 . S
S723 N724 1.613 . S
S723 N725 1.610 1_455 S
N724 S723 1.613 . S
N724 C727 1.350 . S
N725 S723 1.610 1_655 S
N725 C726 1.351 1_655 S
C726 C720 1.428 1_455 S
C726 N725 1.351 1_455 S
C726 C727 1.434 . S
C727 C718 1.429 . S
C727 N724 1.350 . S
C727 C726 1.434 . S
C728 C729 1.369 . S
C728 C730 1.419 . S
C728 H732 0.930 . S
C729 C728 1.369 . S
C729 C738 1.429 . S
C730 C728 1.419 . S
C730 C731 1.363 . S
C730 H733 0.929 . S
C731 C730 1.363 . S
C731 C737 1.428 . S
H732 C728 0.930 . S
H733 C730 0.929 . S
S734 N735 1.613 . S
S734 N736 1.610 . S
N735 S734 1.613 . S
N735 C738 1.350 1_554 S
N736 S734 1.610 . S
N736 C737 1.351 1_554 S
C737 C731 1.428 . S
C737 N736 1.351 1_556 S
C737 C738 1.434 . S
C738 C729 1.429 . S
C738 N735 1.350 1_556 S
C738 C737 1.434 . S
C739 C740 1.369 . S
C739 C741 1.419 . S
C739 H743 0.930 . S
C740 C739 1.369 . S
C740 C749 1.429 . S
C741 C739 1.419 . S
C741 C742 1.363 . S
C741 H744 0.929 . S
C742 C741 1.363 . S
C742 C748 1.428 . S
H743 C739 0.930 . S
H744 C741 0.929 . S
S745 N746 1.613 . S
S745 N747 1.610 . S
N746 S745 1.613 . S
N746 C749 1.350 . S
N747 S745 1.610 . S
N747 C748 1.351 . S
C748 C742 1.428 . S
C748 N747 1.351 . S
C748 C749 1.434 . S
C749 C740 1.429 . S
C749 N746 1.350 . S
C749 C748 1.434 . S
C750 C751 1.369 . S
C750 C752 1.419 . S
C750 H754 0.930 . S
C751 C750 1.369 . S
C751 C760 1.429 . S
C752 C750 1.419 . S
C752 C753 1.363 . S
C752 H755 0.929 . S
C753 C752 1.363 . S
C753 C759 1.428 . S
H754 C750 0.930 . S
H755 C752 0.929 . S
S756 N757 1.613 . S
S756 N758 1.610 . S
N757 S756 1.613 . S
N757 C760 1.350 . S
N758 S756 1.610 . S
N758 C759 1.351 . S
C759 C753 1.428 . S
C759 N758 1.351 . S
C759 C760 1.434 . S
C760 C751 1.429 . S
C760 N757 1.350 . S
C760 C759 1.434 . S
C761 C762 1.369 . S
C761 C763 1.419 . S
C761 H765 0.930 . S
C762 C761 1.369 . S
C762 C771 1.429 . S
C763 C761 1.419 . S
C763 C764 1.363 . S
C763 H766 0.929 . S
C764 C763 1.363 . S
C764 C770 1.428 . S
H765 C761 0.930 . S
H766 C763 0.929 . S
S767 N768 1.613 . S
S767 N769 1.610 . S
N768 S767 1.613 . S
N768 C771 1.350 . S
N769 S767 1.610 . S
N769 C770 1.351 . S
C770 C764 1.428 . S
C770 N769 1.351 . S
C770 C771 1.434 . S
C771 C762 1.429 . S
C771 N768 1.350 . S
C771 C770 1.434 . S
C772 C773 1.369 . S
C772 C774 1.419 . S
C772 H776 0.930 . S
C773 C772 1.369 . S
C773 C782 1.429 . S
C774 C772 1.419 . S
C774 C775 1.363 . S
C774 H777 0.929 . S
C775 C774 1.363 . S
C775 C781 1.428 . S
H776 C772 0.930 . S
H777 C774 0.929 . S
S778 N779 1.613 . S
S778 N780 1.610 . S
N779 S778 1.613 . S
N779 C782 1.350 . S
N780 S778 1.610 . S
N780 C781 1.351 . S
C781 C775 1.428 . S
C781 N780 1.351 . S
C781 C782 1.434 . S
C782 C773 1.429 . S
C782 N779 1.350 . S
C782 C781 1.434 . S
C783 C784 1.369 . S
C783 C785 1.419 . S
C783 H787 0.930 . S
C784 C783 1.369 . S
C784 C793 1.429 . S
C785 C783 1.419 . S
C785 C786 1.363 . S
C785 H788 0.929 . S
C786 C785 1.363 . S
C786 C792 1.428 . S
H787 C783 0.930 . S
H788 C785 0.929 . S
S789 N790 1.613 . S
S789 N791 1.610 . S
N790 S789 1.613 . S
N790 C793 1.350 . S
N791 S789 1.610 . S
N791 C792 1.351 . S
C792 C786 1.428 . S
C792 N791 1.351 . S
C792 C793 1.434 . S
C793 C784 1.429 . S
C793 N790 1.350 . S
C793 C792 1.434 . S
C794 C795 1.369 . S
C794 C796 1.419 . S
C794 H798 0.930 . S
C795 C794 1.369 . S
C795 C804 1.429 . S
C796 C794 1.419 . S
C796 C797 1.363 . S
C796 H799 0.929 . S
C797 C796 1.363 . S
C797 C803 1.428 . S
H798 C794 0.930 . S
H799 C796 0.929 . S
S800 N801 1.613 . S
S800 N802 1.610 . S
N801 S800 1.613 . S
N801 C804 1.350 . S
N802 S800 1.610 . S
N802 C803 1.351 . S
C803 C797 1.428 . S
C803 N802 1.351 . S
C803 C804 1.434 . S
C804 C795 1.429 . S
C804 N801 1.350 . S
C804 C803 1.434 . S
C805 C806 1.369 . S
C805 C807 1.419 . S
C805 H809 0.930 . S
C806 C805 1.369 . S
C806 C815 1.429 . S
C807 C805 1.419 . S
C807 C808 1.363 . S
C807 H810 0.929 . S
C808 C807 1.363 . S
C808 C814 1.428 . S
H809 C805 0.930 . S
H810 C807 0.929 . S
S811 N812 1.613 . S
S811 N813 1.610 . S
N812 S811 1.613 . S
N812 C815 1.350 . S
N813 S811 1.610 . S
N813 C814 1.351 . S
C814 C808 1.428 . S
C814 N813 1.351 . S
C814 C815 1.434 . S
C815 C806 1.429 . S
C815 N812 1.350 . S
C815 C814 1.434 . S
C816 C817 1.369 . S
C816 C818 1.419 . S
C816 H820 0.930 . S
C817 C816 1.369 . S
C817 C826 1.429 . S
C818 C816 1.419 . S
C818 C819 1.363 . S
C818 H821 0.929 . S
C819 C818 1.363 . S
C819 C825 1.428 . S
H820 C816 0.930 . S
H821 C818 0.929 . S
S822 N823 1.613 . S
S822 N824 1.610 . S
N823 S822 1.613 . S
N823 C826 1.350 . S
N824 S822 1.610 . S
N824 C825 1.351 . S
C825 C819 1.428 . S
C825 N824 1.351 . S
C825 C826 1.434 . S
C826 C817 1.429 . S
C826 N823 1.350 . S
C826 C825 1.434 . S
C827 C828 1.369 . S
C827 C829 1.419 . S
C827 H831 0.930 . S
C828 C827 1.369 . S
C828 C837 1.429 . S
C829 C827 1.419 . S
C829 C830 1.363 . S
C829 H832 0.929 . S
C830 C829 1.363 . S
C830 C836 1.428 . S
H831 C827 0.930 . S
H832 C829 0.929 . S
S833 N834 1.613 . S
S833 N835 1.610 . S
N834 S833 1.613 . S
N834 C837 1.350 . S
N835 S833 1.610 . S
N835 C836 1.351 . S
C836 C830 1.428 . S
C836 N835 1.351 . S
C836 C837 1.434 . S
C837 C828 1.429 . S
C837 N834 1.350 . S
C837 C836 1.434 . S
C838 C839 1.369 . S
C838 C840 1.419 . S
C838 H842 0.930 . S
C839 C838 1.369 . S
C839 C848 1.429 . S
C840 C838 1.419 . S
C840 C841 1.363 . S
C840 H843 0.929 . S
C841 C840 1.363 . S
C841 C847 1.428 . S
H842 C838 0.930 . S
H843 C840 0.929 . S
S844 N845 1.613 . S
S844 N846 1.610 . S
N845 S844 1.613 . S
N845 C848 1.350 . S
N846 S844 1.610 . S
N846 C847 1.351 . S
C847 C841 1.428 . S
C847 N846 1.351 . S
C847 C848 1.434 . S
C848 C839 1.429 . S
C848 N845 1.350 . S
C848 C847 1.434 . S
C849 C850 1.369 . S
C849 C851 1.419 . S
C849 H853 0.920 1_545 S
C850 C849 1.369 . S
C850 C859 1.429 . S
C851 C849 1.419 . S
C851 C852 1.363 . S
C851 H854 0.929 . S
C852 C851 1.363 . S
C852 C858 1.428 . S
H853 C849 0.920 1_565 S
H854 C851 0.929 . S
S855 N856 1.613 1_556 S
S855 N857 1.610 1_556 S
N856 S855 1.613 1_554 S
N856 C859 1.350 . S
N857 S855 1.610 1_554 S
N857 C858 1.351 . S
C858 C852 1.428 . S
C858 N857 1.351 . S
C858 C859 1.434 . S
C859 C850 1.429 . S
C859 N856 1.350 . S
C859 C858 1.434 . S
C860 C861 1.369 . S
C860 C862 1.419 . S
C860 H864 0.930 . S
C861 C860 1.369 . S
C861 C870 1.429 . S
C862 C860 1.419 . S
C862 C863 1.363 . S
C862 H865 0.929 . S
C863 C862 1.363 . S
C863 C869 1.428 . S
H864 C860 0.930 . S
H865 C862 0.929 . S
S866 N867 1.613 . S
S866 N868 1.610 . S
N867 S866 1.613 . S
N867 C870 1.350 . S
N868 S866 1.610 . S
N868 C869 1.351 . S
C869 C863 1.428 . S
C869 N868 1.351 . S
C869 C870 1.434 . S
C870 C861 1.429 . S
C870 N867 1.350 . S
C870 C869 1.434 . S
C871 C872 1.369 . S
C871 C873 1.419 . S
C871 H875 0.930 . S
C872 C871 1.369 . S
C872 C881 1.429 . S
C873 C871 1.419 . S
C873 C874 1.363 . S
C873 H876 0.929 . S
C874 C873 1.363 . S
C874 C880 1.428 . S
H875 C871 0.930 . S
H876 C873 0.929 . S
S877 N878 1.613 . S
S877 N879 1.610 . S
N878 S877 1.613 . S
N878 C881 1.350 . S
N879 S877 1.610 . S
N879 C880 1.351 . S
C880 C874 1.428 . S
C880 N879 1.351 . S
C880 C881 1.434 . S
C881 C872 1.429 . S
C881 N878 1.350 . S
C881 C880 1.434 . S
C882 C883 1.369 . S
C882 C884 1.419 . S
C882 H886 0.930 . S
C883 C882 1.369 . S
C883 C892 1.429 . S
C884 C882 1.419 . S
C884 C885 1.363 . S
C884 H887 0.929 . S
C885 C884 1.363 . S
C885 C891 1.428 . S
H886 C882 0.930 . S
H887 C884 0.929 . S
S888 N889 1.613 . S
S888 N890 1.610 . S
N889 S888 1.613 . S
N889 C892 1.350 . S
N890 S888 1.610 . S
N890 C891 1.351 . S
C891 C885 1.428 . S
C891 N890 1.351 . S
C891 C892 1.434 . S
C892 C883 1.429 . S
C892 N889 1.350 . S
C892 C891 1.434 . S
C893 C894 1.369 . S
C893 C895 1.419 . S
C893 H897 0.930 . S
C894 C893 1.369 . S
C894 C903 1.429 . S
C895 C893 1.419 . S
C895 C896 1.363 . S
C895 H898 0.929 . S
C896 C895 1.363 . S
C896 C902 1.428 . S
H897 C893 0.930 . S
H898 C895 0.929 . S
S899 N900 1.613 . S
S899 N901 1.610 . S
N900 S899 1.613 . S
N900 C903 1.350 . S
N901 S899 1.610 . S
N901 C902 1.351 . S
C902 C896 1.428 . S
C902 N901 1.351 . S
C902 C903 1.434 . S
C903 C894 1.429 . S
C903 N900 1.350 . S
C903 C902 1.434 . S
C904 C905 1.369 . S
C904 C906 1.419 . S
C904 H908 0.930 . S
C905 C904 1.369 . S
C905 C914 1.429 . S
C906 C904 1.419 . S
C906 C907 1.363 . S
C906 H909 0.929 . S
C907 C906 1.363 . S
C907 C913 1.428 . S
H908 C904 0.930 . S
H909 C906 0.929 . S
S910 N911 1.613 . S
S910 N912 1.610 . S
N911 S910 1.613 . S
N911 C914 1.350 . S
N912 S910 1.610 . S
N912 C913 1.351 . S
C913 C907 1.428 . S
C913 N912 1.351 . S
C913 C914 1.434 . S
C914 C905 1.429 . S
C914 N911 1.350 . S
C914 C913 1.434 . S
C915 C916 1.369 . S
C915 C917 1.419 . S
C915 H919 0.930 . S
C916 C915 1.369 . S
C916 C925 1.429 . S
C917 C915 1.419 . S
C917 C918 1.363 . S
C917 H920 0.929 . S
C918 C917 1.363 . S
C918 C924 1.428 . S
H919 C915 0.930 . S
H920 C917 0.929 . S
S921 N922 1.613 . S
S921 N923 1.610 . S
N922 S921 1.613 . S
N922 C925 1.350 . S
N923 S921 1.610 . S
N923 C924 1.351 . S
C924 C918 1.428 . S
C924 N923 1.351 . S
C924 C925 1.434 . S
C925 C916 1.429 . S
C925 N922 1.350 . S
C925 C924 1.434 . S
C926 C927 1.369 . S
C926 C928 1.419 . S
C926 H930 0.930 1_455 S
C927 C926 1.369 . S
C927 C936 1.429 . S
C928 C926 1.419 . S
C928 C929 1.363 . S
C928 H931 0.929 . S
C929 C928 1.363 . S
C929 C935 1.428 . S
H930 C926 0.930 1_655 S
H931 C928 0.929 . S
S932 N933 1.613 . S
S932 N934 1.610 . S
N933 S932 1.613 . S
N933 C936 1.350 . S
N934 S932 1.610 . S
N934 C935 1.351 . S
C935 C929 1.428 . S
C935 N934 1.351 . S
C935 C936 1.434 . S
C936 C927 1.429 . S
C936 N933 1.350 . S
C936 C935 1.434 . S
C937 C938 1.369 . S
C937 C939 1.419 . S
C937 H941 0.930 . S
C938 C937 1.369 . S
C938 C947 1.429 . S
C939 C937 1.419 . S
C939 C940 1.363 . S
C939 H942 0.929 . S
C940 C939 1.363 . S
C940 C946 1.428 . S
H941 C937 0.930 . S
H942 C939 0.929 . S
S943 N944 1.613 . S
S943 N945 1.610 . S
N944 S943 1.613 . S
N944 C947 1.350 . S
N945 S943 1.610 . S
N945 C946 1.351 . S
C946 C940 1.428 . S
C946 N945 1.351 . S
C946 C947 1.434 . S
C947 C938 1.429 . S
C947 N944 1.350 . S
C947 C946 1.434 . S
C948 C949 1.369 . S
C948 C950 1.419 . S
C948 H952 0.930 . S
C949 C948 1.369 . S
C949 C958 1.429 . S
C950 C948 1.419 . S
C950 C951 1.363 . S
C950 H953 0.929 . S
C951 C950 1.363 . S
C951 C957 1.428 . S
H952 C948 0.930 . S
H953 C950 0.929 . S
S954 N955 1.613 . S
S954 N956 1.610 . S
N955 S954 1.613 . S
N955 C958 1.350 . S
N956 S954 1.610 . S
N956 C957 1.351 . S
C957 C951 1.428 . S
C957 N956 1.351 . S
C957 C958 1.434 . S
C958 C949 1.429 . S
C958 N955 1.350 . S
C958 C957 1.434 . S
C959 C960 1.369 . S
C959 C961 1.419 . S
C959 H963 0.930 . S
C960 C959 1.369 . S
C960 C969 1.429 . S
C961 C959 1.419 . S
C961 C962 1.363 . S
C961 H964 0.929 . S
C962 C961 1.363 . S
C962 C968 1.428 . S
H963 C959 0.930 . S
H964 C961 0.929 . S
S965 N966 1.613 . S
S965 N967 1.610 . S
N966 S965 1.613 . S
N966 C969 1.350 . S
N967 S965 1.610 . S
N967 C968 1.351 . S
C968 C962 1.428 . S
C968 N967 1.351 . S
C968 C969 1.434 . S
C969 C960 1.429 . S
C969 N966 1.350 . S
C969 C968 1.434 . S
C970 C971 1.369 . S
C970 C972 1.419 . S
C970 H974 0.930 . S
C971 C970 1.369 . S
C971 C980 1.429 . S
C972 C970 1.419 . S
C972 C973 1.363 . S
C972 H975 0.929 . S
C973 C972 1.363 . S
C973 C979 1.428 . S
H974 C970 0.930 . S
H975 C972 0.929 . S
S976 N977 1.613 . S
S976 N978 1.610 1_455 S
N977 S976 1.613 . S
N977 C980 1.350 1_455 S
N978 S976 1.610 1_655 S
N978 C979 1.351 . S
C979 C973 1.428 . S
C979 N978 1.351 . S
C979 C980 1.434 . S
C980 C971 1.429 . S
C980 N977 1.350 1_655 S
C980 C979 1.434 . S
C981 C982 1.369 . S
C981 C983 1.419 . S
C981 H985 0.930 . S
C982 C981 1.369 . S
C982 C991 1.429 . S
C983 C981 1.419 . S
C983 C984 1.363 . S
C983 H986 0.929 . S
C984 C983 1.363 . S
C984 C990 1.428 . S
H985 C981 0.930 . S
H986 C983 0.929 . S
S987 N988 1.613 . S
S987 N989 1.610 . S
N988 S987 1.613 . S
N988 C991 1.350 . S
N989 S987 1.610 . S
N989 C990 1.351 . S
C990 C984 1.428 . S
C990 N989 1.351 . S
C990 C991 1.434 . S
C991 C982 1.429 . S
C991 N988 1.350 . S
C991 C990 1.434 . S
C992 C993 1.369 . S
C992 C994 1.419 . S
C992 H996 0.930 . S
C993 C992 1.369 . S
C993 C1002 1.429 1_455 S
C994 C992 1.419 . S
C994 C995 1.363 . S
C994 H997 0.929 . S
C995 C994 1.363 . S
C995 C1001 1.428 . S
H996 C992 0.930 . S
H997 C994 0.929 . S
S998 N999 1.613 . S
S998 N1000 1.610 1_655 S
N999 S998 1.613 . S
N999 C1002 1.350 . S
N1000 S998 1.610 1_455 S
N1000 C1001 1.351 . S
C1001 C995 1.428 . S
C1001 N1000 1.351 . S
C1001 C1002 1.434 1_455 S
C1002 C993 1.429 1_655 S
C1002 N999 1.350 . S
C1002 C1001 1.434 1_655 S
C1003 C1004 1.369 . S
C1003 C1005 1.419 . S
C1003 H1007 0.930 . S
C1004 C1003 1.369 . S
C1004 C1013 1.429 . S
C1005 C1003 1.419 . S
C1005 C1006 1.363 . S
C1005 H1008 0.929 . S
C1006 C1005 1.363 . S
C1006 C1012 1.428 . S
H1007 C1003 0.930 . S
H1008 C1005 0.929 . S
S1009 N1010 1.613 . S
S1009 N1011 1.610 . S
N1010 S1009 1.613 . S
N1010 C1013 1.350 . S
N1011 S1009 1.610 . S
N1011 C1012 1.351 . S
C1012 C1006 1.428 . S
C1012 N1011 1.351 . S
C1012 C1013 1.434 . S
C1013 C1004 1.429 . S
C1013 N1010 1.350 . S
C1013 C1012 1.434 . S
C1014 C1015 1.369 . S
C1014 C1016 1.419 . S
C1014 H1018 0.930 . S
C1015 C1014 1.369 . S
C1015 C1024 1.429 . S
C1016 C1014 1.419 . S
C1016 C1017 1.363 . S
C1016 H1019 0.929 . S
C1017 C1016 1.363 . S
C1017 C1023 1.428 . S
H1018 C1014 0.930 . S
H1019 C1016 0.929 . S
S1020 N1021 1.613 . S
S1020 N1022 1.610 . S
N1021 S1020 1.613 . S
N1021 C1024 1.350 . S
N1022 S1020 1.610 . S
N1022 C1023 1.351 . S
C1023 C1017 1.428 . S
C1023 N1022 1.351 . S
C1023 C1024 1.434 . S
C1024 C1015 1.429 . S
C1024 N1021 1.350 . S
C1024 C1023 1.434 . S
C1025 C1026 1.369 1_554 S
C1025 C1027 1.419 . S
C1025 H1029 0.930 . S
C1026 C1025 1.369 1_556 S
C1026 C1035 1.429 . S
C1027 C1025 1.419 . S
C1027 C1028 1.363 1_554 S
C1027 H1030 0.929 . S
C1028 C1027 1.363 1_556 S
C1028 C1034 1.428 . S
H1029 C1025 0.930 . S
H1030 C1027 0.929 . S
S1031 N1032 1.613 . S
S1031 N1033 1.610 . S
N1032 S1031 1.613 . S
N1032 C1035 1.350 . S
N1033 S1031 1.610 . S
N1033 C1034 1.351 . S
C1034 C1028 1.428 . S
C1034 N1033 1.351 . S
C1034 C1035 1.434 . S
C1035 C1026 1.429 . S
C1035 N1032 1.350 . S
C1035 C1034 1.434 . S
C1036 C1037 1.369 1_455 S
C1036 C1038 1.422 1_455 S
C1036 H1040 0.927 . S
C1037 C1036 1.369 1_655 S
C1037 C1046 1.429 . S
C1038 C1036 1.422 1_655 S
C1038 C1039 1.363 . S
C1038 H1041 0.929 . S
C1039 C1038 1.363 . S
C1039 C1045 1.428 . S
H1040 C1036 0.927 . S
H1041 C1038 0.929 . S
S1042 N1043 1.613 . S
S1042 N1044 1.610 . S
N1043 S1042 1.613 . S
N1043 C1046 1.350 . S
N1044 S1042 1.610 . S
N1044 C1045 1.351 . S
C1045 C1039 1.428 . S
C1045 N1044 1.351 . S
C1045 C1046 1.434 . S
C1046 C1037 1.429 . S
C1046 N1043 1.350 . S
C1046 C1045 1.434 . S
C1047 C1048 1.369 . S
C1047 C1049 1.419 . S
C1047 H1051 0.930 . S
C1048 C1047 1.369 . S
C1048 C1057 1.429 . S
C1049 C1047 1.419 . S
C1049 C1050 1.363 . S
C1049 H1052 0.929 . S
C1050 C1049 1.363 . S
C1050 C1056 1.428 . S
H1051 C1047 0.930 . S
H1052 C1049 0.929 . S
S1053 N1054 1.613 . S
S1053 N1055 1.610 . S
N1054 S1053 1.613 . S
N1054 C1057 1.350 . S
N1055 S1053 1.610 . S
N1055 C1056 1.351 . S
C1056 C1050 1.428 . S
C1056 N1055 1.351 . S
C1056 C1057 1.434 . S
C1057 C1048 1.429 . S
C1057 N1054 1.350 . S
C1057 C1056 1.434 . S
C1058 C1059 1.369 . S
C1058 C1060 1.419 . S
C1058 H1062 0.930 . S
C1059 C1058 1.369 . S
C1059 C1068 1.429 . S
C1060 C1058 1.419 . S
C1060 C1061 1.363 . S
C1060 H1063 0.929 . S
C1061 C1060 1.363 . S
C1061 C1067 1.428 . S
H1062 C1058 0.930 . S
H1063 C1060 0.929 . S
S1064 N1065 1.613 . S
S1064 N1066 1.610 . S
N1065 S1064 1.613 . S
N1065 C1068 1.350 . S
N1066 S1064 1.610 . S
N1066 C1067 1.351 . S
C1067 C1061 1.428 . S
C1067 N1066 1.351 . S
C1067 C1068 1.434 . S
C1068 C1059 1.429 . S
C1068 N1065 1.350 . S
C1068 C1067 1.434 . S
C1069 C1070 1.369 . S
C1069 C1071 1.419 . S
C1069 H1073 0.930 . S
C1070 C1069 1.369 . S
C1070 C1079 1.429 1_554 S
C1071 C1069 1.419 . S
C1071 C1072 1.363 . S
C1071 H1074 0.929 . S
C1072 C1071 1.363 . S
C1072 C1078 1.428 1_554 S
H1073 C1069 0.930 . S
H1074 C1071 0.929 . S
S1075 N1076 1.613 . S
S1075 N1077 1.610 . S
N1076 S1075 1.613 . S
N1076 C1079 1.350 . S
N1077 S1075 1.610 . S
N1077 C1078 1.351 . S
C1078 C1072 1.428 1_556 S
C1078 N1077 1.351 . S
C1078 C1079 1.434 . S
C1079 C1070 1.429 1_556 S
C1079 N1076 1.350 . S
C1079 C1078 1.434 . S
C1080 C1081 1.369 . S
C1080 C1082 1.419 . S
C1080 H1084 0.930 . S
C1081 C1080 1.369 . S
C1081 C1090 1.429 . S
C1082 C1080 1.419 . S
C1082 C1083 1.363 . S
C1082 H1085 0.929 . S
C1083 C1082 1.363 . S
C1083 C1089 1.428 . S
H1084 C1080 0.930 . S
H1085 C1082 0.929 . S
S1086 N1087 1.613 . S
S1086 N1088 1.610 . S
N1087 S1086 1.613 . S
N1087 C1090 1.350 . S
N1088 S1086 1.610 . S
N1088 C1089 1.351 . S
C1089 C1083 1.428 . S
C1089 N1088 1.351 . S
C1089 C1090 1.434 . S
C1090 C1081 1.429 . S
C1090 N1087 1.350 . S
C1090 C1089 1.434 . S
C1091 C1092 1.369 . S
C1091 C1093 1.419 . S
C1091 H1095 0.930 . S
C1092 C1091 1.369 . S
C1092 C1101 1.429 . S
C1093 C1091 1.419 . S
C1093 C1094 1.363 . S
C1093 H1096 0.929 . S
C1094 C1093 1.363 . S
C1094 C1100 1.428 . S
H1095 C1091 0.930 . S
H1096 C1093 0.929 . S
S1097 N1098 1.613 . S
S1097 N1099 1.610 . S
N1098 S1097 1.613 . S
N1098 C1101 1.350 . S
N1099 S1097 1.610 . S
N1099 C1100 1.351 . S
C1100 C1094 1.428 . S
C1100 N1099 1.351 . S
C1100 C1101 1.434 . S
C1101 C1092 1.429 . S
C1101 N1098 1.350 . S
C1101 C1100 1.434 . S
C1102 C1103 1.369 . S
C1102 C1104 1.419 . S
C1102 H1106 0.930 . S
C1103 C1102 1.369 . S
C1103 C1112 1.429 . S
C1104 C1102 1.419 . S
C1104 C1105 1.363 . S
C1104 H1107 0.929 . S
C1105 C1104 1.363 . S
C1105 C1111 1.428 . S
H1106 C1102 0.930 . S
H1107 C1104 0.929 . S
S1108 N1109 1.613 . S
S1108 N1110 1.610 . S
N1109 S1108 1.613 . S
N1109 C1112 1.350 . S
N1110 S1108 1.610 . S
N1110 C1111 1.351 . S
C1111 C1105 1.428 . S
C1111 N1110 1.351 . S
C1111 C1112 1.434 . S
C1112 C1103 1.429 . S
C1112 N1109 1.350 . S
C1112 C1111 1.434 . S
C1113 C1114 1.369 1_556 S
C1113 C1115 1.419 . S
C1113 H1117 0.930 . S
C1114 C1113 1.369 1_554 S
C1114 C1123 1.429 1_455 S
C1115 C1113 1.419 . S
C1115 C1116 1.363 1_455 S
C1115 H1118 0.929 . S
C1116 C1115 1.363 1_655 S
C1116 C1122 1.428 1_556 S
H1117 C1113 0.930 . S
H1118 C1115 0.929 . S
S1119 N1120 1.613 . S
S1119 N1121 1.610 . S
N1120 S1119 1.613 . S
N1120 C1123 1.350 . S
N1121 S1119 1.610 . S
N1121 C1122 1.351 . S
C1122 C1116 1.428 1_554 S
C1122 N1121 1.351 . S
C1122 C1123 1.434 . S
C1123 C1114 1.429 1_655 S
C1123 N1120 1.350 . S
C1123 C1122 1.434 . S
C1124 C1125 1.369 . S
C1124 C1126 1.419 . S
C1124 H1128 0.930 . S
C1125 C1124 1.369 . S
C1125 C1134 1.429 . S
C1126 C1124 1.419 . S
C1126 C1127 1.363 . S
C1126 H1129 0.929 . S
C1127 C1126 1.363 . S
C1127 C1133 1.428 . S
H1128 C1124 0.930 . S
H1129 C1126 0.929 . S
S1130 N1131 1.613 . S
S1130 N1132 1.610 . S
N1131 S1130 1.613 . S
N1131 C1134 1.350 . S
N1132 S1130 1.610 . S
N1132 C1133 1.351 . S
C1133 C1127 1.428 . S
C1133 N1132 1.351 . S
C1133 C1134 1.434 . S
C1134 C1125 1.429 . S
C1134 N1131 1.350 . S
C1134 C1133 1.434 . S
C1135 C1136 1.369 . S
C1135 C1137 1.419 . S
C1135 H1139 0.930 . S
C1136 C1135 1.369 . S
C1136 C1145 1.429 . S
C1137 C1135 1.419 . S
C1137 C1138 1.363 . S
C1137 H1140 0.929 . S
C1138 C1137 1.363 . S
C1138 C1144 1.428 . S
H1139 C1135 0.930 . S
H1140 C1137 0.929 . S
S1141 N1142 1.613 . S
S1141 N1143 1.610 . S
N1142 S1141 1.613 . S
N1142 C1145 1.350 . S
N1143 S1141 1.610 . S
N1143 C1144 1.351 . S
C1144 C1138 1.428 . S
C1144 N1143 1.351 . S
C1144 C1145 1.434 . S
C1145 C1136 1.429 . S
C1145 N1142 1.350 . S
C1145 C1144 1.434 . S
C1146 C1147 1.369 1_564 S
C1146 C1148 1.419 . S
C1146 H1150 0.930 . S
C1147 C1146 1.369 1_546 S
C1147 C1156 1.429 1_455 S
C1148 C1146 1.419 . S
C1148 C1149 1.363 1_455 S
C1148 H1151 0.929 . S
C1149 C1148 1.363 1_655 S
C1149 C1155 1.428 1_564 S
H1150 C1146 0.930 . S
H1151 C1148 0.929 . S
S1152 N1153 1.613 . S
S1152 N1154 1.610 . S
N1153 S1152 1.613 . S
N1153 C1156 1.350 . S
N1154 S1152 1.610 . S
N1154 C1155 1.351 . S
C1155 C1149 1.428 1_546 S
C1155 N1154 1.351 . S
C1155 C1156 1.434 . S
C1156 C1147 1.429 1_655 S
C1156 N1153 1.350 . S
C1156 C1155 1.434 . S
C1157 C1158 1.369 1_545 S
C1157 C1159 1.419 . S
C1157 H1161 0.930 . S
C1158 C1157 1.369 1_565 S
C1158 C1167 1.429 . S
C1159 C1157 1.419 . S
C1159 C1160 1.363 . S
C1159 H1162 0.929 . S
C1160 C1159 1.363 . S
C1160 C1166 1.428 1_545 S
H1161 C1157 0.930 . S
H1162 C1159 0.929 . S
S1163 N1164 1.613 . S
S1163 N1165 1.610 . S
N1164 S1163 1.613 . S
N1164 C1167 1.350 . S
N1165 S1163 1.610 . S
N1165 C1166 1.351 . S
C1166 C1160 1.428 1_565 S
C1166 N1165 1.351 . S
C1166 C1167 1.434 . S
C1167 C1158 1.429 . S
C1167 N1164 1.350 . S
C1167 C1166 1.434 . S
C641 C19 1.657 . S
C643 C406 1.636 . S
C652 C46 1.671 . S
C654 C459 1.722 . S
C663 C86 1.636 . S
C665 C339 1.657 . S
C674 C139 1.719 . S
C676 C366 1.674 . S
C685 C170 1.661 . S
C687 C575 1.633 . S
C696 C215 1.676 . S
C698 C610 1.720 . S
C707 C255 1.635 . S
C709 C490 1.659 . S
C718 C290 1.724 . S
C720 C535 1.670 . S
C729 C369 3.355 . S
C731 C10 3.514 . S
C740 C409 2.725 . S
C742 C55 2.786 . S
C751 C458 2.531 . S
C753 C95 2.260 . S
C762 C338 1.484 . S
C764 C130 1.678 . S
C773 C179 3.513 . S
C775 C538 3.359 . S
C784 C578 2.727 . S
C786 C206 2.788 . S
C795 C609 2.531 . S
C797 C246 2.253 . S
C806 C489 1.471 . S
C808 C299 1.675 . S
C817 C49 3.355 . S
C819 C330 3.513 . S
C828 C375 2.789 . S
C830 C89 2.723 . S
C839 C415 2.260 1_556 S
C841 C138 2.531 . S
C850 C450 1.676 1_545 S
C852 C18 1.472 . S
C861 C499 3.513 . S
C863 C218 3.359 . S
C872 C258 2.729 . S
C874 C526 2.786 . S
C883 C289 2.531 . S
C885 C566 2.258 1_554 S
C894 C619 1.679 1_565 S
C896 C169 1.479 . S
C905 C15 0.934 . S
C907 C618 0.887 . S
C916 C50 2.071 . S
C918 C178 2.078 . S
C927 C529 1.770 1_455 S
C929 C90 1.793 . S
C938 C249 0.790 . S
C940 C135 0.784 . S
C949 C166 0.939 . S
C951 C449 0.883 . S
C960 C219 2.071 . S
C962 C9 2.078 . S
C971 C378 1.765 1_655 S
C973 C259 1.795 . S
C982 C98 0.795 . S
C984 C286 0.791 . S
C993 C335 0.931 1_455 S
C995 C298 0.892 . S
C1004 C370 2.070 . S
C1006 C498 2.080 . S
C1015 C209 1.764 . S
C1017 C410 1.793 . S
C1026 C569 0.798 . S
C1028 C455 0.789 1_556 S
C1037 C486 0.932 1_655 S
C1039 C129 0.898 . S
C1048 C539 2.068 . S
C1050 C329 2.081 . S
C1059 C579 1.796 . S
C1061 C58 1.765 . S
C1070 C418 0.798 . S
C1072 C606 0.783 1_554 S
C1081 C6 2.716 . S
C1083 C495 2.722 . S
C1092 C59 3.648 . S
C1094 C210 3.643 . S
C1103 C99 1.315 . S
C1105 C570 1.314 . S
C1114 C295 1.113 . S
C1116 C126 1.114 . S
C1125 C175 2.721 . S
C1127 C326 2.717 . S
C1136 C419 1.320 . S
C1138 C250 1.311 . S
C1147 C379 3.643 . S
C1149 C530 3.647 . S
C1158 C615 1.124 . S
C1160 C446 1.105 . S
