# Generated by pormake.
# Topology ukf, (4)-cn, num edge types: 1
# Building blocks:
#     Node 0, Type 0, BuildingBlock: CEKHIL_clean_sbu_0, # of connection points: 4
#     Node 1, Type 0, BuildingBlock: CEKHIL_clean_sbu_0, # of connection points: 4
#     Node 2, Type 0, BuildingBlock: CEKHIL_clean_sbu_0, # of connection points: 4
#     Node 3, Type 0, BuildingBlock: CEKHIL_clean_sbu_0, # of connection points: 4
#     Node 4, Type 0, BuildingBlock: CEKHIL_clean_sbu_0, # of connection points: 4
#     Node 5, Type 0, BuildingBlock: CEKHIL_clean_sbu_0, # of connection points: 4
#     Node 6, Type 0, BuildingBlock: CEKHIL_clean_sbu_0, # of connection points: 4
#     Node 7, Type 0, BuildingBlock: CEKHIL_clean_sbu_0, # of connection points: 4
#     Node 8, Type 0, BuildingBlock: CEKHIL_clean_sbu_0, # of connection points: 4
#     Node 9, Type 0, BuildingBlock: CEKHIL_clean_sbu_0, # of connection points: 4
#     Node 10, Type 0, BuildingBlock: CEKHIL_clean_sbu_0, # of connection points: 4
#     Node 11, Type 0, BuildingBlock: CEKHIL_clean_sbu_0, # of connection points: 4
#     Edge 12, Type (0, 0), BuildingBlock: KIFKEQ_clean_linker_1, # of connection points: 2
#     Edge 13, Type (0, 0), BuildingBlock: KIFKEQ_clean_linker_1, # of connection points: 2
#     Edge 14, Type (0, 0), BuildingBlock: KIFKEQ_clean_linker_1, # of connection points: 2
#     Edge 15, Type (0, 0), BuildingBlock: KIFKEQ_clean_linker_1, # of connection points: 2
#     Edge 16, Type (0, 0), BuildingBlock: KIFKEQ_clean_linker_1, # of connection points: 2
#     Edge 17, Type (0, 0), BuildingBlock: KIFKEQ_clean_linker_1, # of connection points: 2
#     Edge 18, Type (0, 0), BuildingBlock: KIFKEQ_clean_linker_1, # of connection points: 2
#     Edge 19, Type (0, 0), BuildingBlock: KIFKEQ_clean_linker_1, # of connection points: 2
#     Edge 20, Type (0, 0), BuildingBlock: KIFKEQ_clean_linker_1, # of connection points: 2
#     Edge 21, Type (0, 0), BuildingBlock: KIFKEQ_clean_linker_1, # of connection points: 2
#     Edge 22, Type (0, 0), BuildingBlock: KIFKEQ_clean_linker_1, # of connection points: 2
#     Edge 23, Type (0, 0), BuildingBlock: KIFKEQ_clean_linker_1, # of connection points: 2
#     Edge 24, Type (0, 0), BuildingBlock: KIFKEQ_clean_linker_1, # of connection points: 2
#     Edge 25, Type (0, 0), BuildingBlock: KIFKEQ_clean_linker_1, # of connection points: 2
#     Edge 26, Type (0, 0), BuildingBlock: KIFKEQ_clean_linker_1, # of connection points: 2
#     Edge 27, Type (0, 0), BuildingBlock: KIFKEQ_clean_linker_1, # of connection points: 2
#     Edge 28, Type (0, 0), BuildingBlock: KIFKEQ_clean_linker_1, # of connection points: 2
#     Edge 29, Type (0, 0), BuildingBlock: KIFKEQ_clean_linker_1, # of connection points: 2
#     Edge 30, Type (0, 0), BuildingBlock: KIFKEQ_clean_linker_1, # of connection points: 2
#     Edge 31, Type (0, 0), BuildingBlock: KIFKEQ_clean_linker_1, # of connection points: 2
#     Edge 32, Type (0, 0), BuildingBlock: KIFKEQ_clean_linker_1, # of connection points: 2
#     Edge 33, Type (0, 0), BuildingBlock: KIFKEQ_clean_linker_1, # of connection points: 2
#     Edge 34, Type (0, 0), BuildingBlock: KIFKEQ_clean_linker_1, # of connection points: 2
#     Edge 35, Type (0, 0), BuildingBlock: KIFKEQ_clean_linker_1, # of connection points: 2
# Relax obj value: 0.105
# Max RMSD: 0.082
# Mean RMSD: 0.082
data_MOF--net-ukf--node1-CEKHIL_clean_sbu_0--edge1-KIFKEQ_clean_linker_1
_symmetry_space_group_name_H-M    P1
_symmetry_Int_Tables_number       1
_symmetry_cell_setting            triclinic
loop_
_symmetry_equiv_pos_as_xyz
'x, y, z'
_cell_length_a     32.804144
_cell_length_b     32.830047
_cell_length_c     64.76356
_cell_angle_alpha  90.012891
_cell_angle_beta   90.000825
_cell_angle_gamma 120.14585
loop_
_atom_site_label
_atom_site_type_symbol
_atom_site_fract_x
_atom_site_fract_y
_atom_site_fract_z
_atom_type_partial_charge
Co0 Co 0.44175 0.25524 0.04266 0.0
O1 O 0.48789 0.31664 0.05269 0.0
O2 O 0.416 0.29773 0.04325 0.0
C3 C 0.49208 0.24988 0.02082 0.0
O4 O 0.38572 0.19445 0.03065 0.0
Co5 Co 0.46056 0.17096 0.04861 0.0
O6 O 0.40773 0.13931 0.029 0.0
C7 C 0.43001 0.20686 0.08384 0.0
C8 C 0.45756 0.33016 0.04958 0.0
C9 C 0.37895 0.1536 0.02507 0.0
O10 O 0.42063 0.23263 0.07191 0.0
O11 O 0.44974 0.18394 0.07757 0.0
O12 O 0.47098 0.27258 0.0152 0.0
O13 O 0.48463 0.23455 0.03947 0.0
Co14 Co 0.18468 0.42916 0.37716 0.0
O15 O 0.16777 0.47324 0.38817 0.0
O16 O 0.11673 0.4048 0.37457 0.0
C17 C 0.24633 0.48509 0.35929 0.0
O18 O 0.19099 0.37563 0.36354 0.0
Co19 Co 0.28465 0.44267 0.38589 0.0
O20 O 0.26834 0.39838 0.36266 0.0
C21 C 0.20895 0.39984 0.41761 0.0
C22 C 0.12479 0.44465 0.38256 0.0
C23 C 0.22574 0.37047 0.3575 0.0
O24 O 0.17799 0.4001 0.40538 0.0
O25 O 0.2525 0.41734 0.4129 0.0
O26 O 0.20427 0.46523 0.35139 0.0
O27 O 0.24922 0.47204 0.37769 0.0
Co28 Co 0.75987 0.19098 0.71178 0.0
O29 O 0.69868 0.17407 0.72269 0.0
O30 O 0.71714 0.12255 0.71086 0.0
C31 C 0.76375 0.24936 0.69208 0.0
O32 O 0.8202 0.19742 0.69853 0.0
Co33 Co 0.84476 0.29377 0.7184 0.0
O34 O 0.87452 0.27498 0.69685 0.0
C35 C 0.81147 0.22358 0.7525 0.0
C36 C 0.68487 0.13069 0.71819 0.0
C37 C 0.86029 0.23211 0.69243 0.0
O38 O 0.78373 0.18934 0.74046 0.0
O39 O 0.83459 0.2667 0.74674 0.0
O40 O 0.74186 0.20636 0.68523 0.0
O41 O 0.7801 0.25481 0.7105 0.0
Co42 Co 0.58306 0.75557 0.0476 0.0
O43 O 0.54058 0.69406 0.05873 0.0
O44 O 0.60839 0.71313 0.04404 0.0
C45 C 0.52514 0.75971 0.03086 0.0
O46 O 0.63504 0.81639 0.03373 0.0
Co47 Co 0.56808 0.84042 0.05763 0.0
O48 O 0.61164 0.87038 0.03431 0.0
C49 C 0.61603 0.81001 0.08774 0.0
C50 C 0.56935 0.68062 0.05243 0.0
C51 C 0.63962 0.8565 0.02838 0.0
O52 O 0.61402 0.77812 0.07546 0.0
O53 O 0.59808 0.83589 0.0837 0.0
O54 O 0.54536 0.73857 0.02235 0.0
O55 O 0.53908 0.77566 0.0492 0.0
Co56 Co 0.82997 0.5763 0.37642 0.0
O57 O 0.84674 0.53236 0.38771 0.0
O58 O 0.89789 0.6005 0.37391 0.0
C59 C 0.76835 0.52063 0.35853 0.0
O60 O 0.82361 0.62964 0.36257 0.0
Co61 Co 0.73012 0.5632 0.38537 0.0
O62 O 0.7462 0.6068 0.3619 0.0
C63 C 0.80677 0.60843 0.41646 0.0
C64 C 0.88974 0.56078 0.38207 0.0
C65 C 0.7887 0.63469 0.35661 0.0
O66 O 0.83701 0.60624 0.40445 0.0
O67 O 0.7632 0.59144 0.41193 0.0
O68 O 0.81053 0.53963 0.35083 0.0
O69 O 0.76529 0.53373 0.37691 0.0
Co70 Co 0.25784 0.83183 0.71257 0.0
O71 O 0.31882 0.85047 0.72424 0.0
O72 O 0.30104 0.89985 0.70941 0.0
C73 C 0.25424 0.77002 0.69585 0.0
O74 O 0.1977 0.82323 0.69809 0.0
Co75 Co 0.17216 0.73146 0.72174 0.0
O76 O 0.14388 0.74552 0.69795 0.0
C77 C 0.20283 0.80866 0.75261 0.0
C78 C 0.33301 0.89292 0.71803 0.0
C79 C 0.15803 0.78757 0.69218 0.0
O80 O 0.23411 0.83942 0.7403 0.0
O81 O 0.17761 0.7648 0.74826 0.0
O82 O 0.27589 0.81158 0.68748 0.0
O83 O 0.23737 0.76768 0.714 0.0
Co84 Co 0.7592 0.57974 0.60626 0.0
O85 O 0.69757 0.53713 0.59522 0.0
O86 O 0.71683 0.60526 0.60957 0.0
C87 C 0.76321 0.52221 0.62337 0.0
O88 O 0.82019 0.63182 0.62007 0.0
Co89 Co 0.84386 0.56413 0.59649 0.0
O90 O 0.87408 0.60822 0.61962 0.0
C91 C 0.8134 0.61124 0.56598 0.0
C92 C 0.68419 0.56606 0.60134 0.0
C93 C 0.8603 0.63633 0.62546 0.0
O94 O 0.7818 0.60995 0.57827 0.0
O95 O 0.83908 0.59314 0.57018 0.0
O96 O 0.74211 0.54267 0.63168 0.0
O97 O 0.77912 0.53563 0.60498 0.0
Co98 Co 0.19182 0.75531 0.94371 0.0
O99 O 0.17491 0.69411 0.93285 0.0
O100 O 0.12334 0.71268 0.94457 0.0
C101 C 0.25033 0.75939 0.96345 0.0
O102 O 0.19811 0.8156 0.95689 0.0
Co103 Co 0.29466 0.84032 0.9372 0.0
O104 O 0.27567 0.86998 0.95872 0.0
C105 C 0.22482 0.80607 0.90294 0.0
C106 C 0.13145 0.68041 0.93724 0.0
C107 C 0.23271 0.85567 0.96305 0.0
O108 O 0.19031 0.77902 0.91499 0.0
O109 O 0.26794 0.82902 0.90876 0.0
O110 O 0.20729 0.73744 0.97031 0.0
O111 O 0.2557 0.77568 0.94504 0.0
Co112 Co 0.43606 0.18296 0.27709 0.0
O113 O 0.48144 0.16728 0.26653 0.0
O114 O 0.41124 0.11488 0.27816 0.0
C115 C 0.48895 0.24211 0.29696 0.0
O116 O 0.38096 0.18779 0.28997 0.0
Co117 Co 0.45074 0.28389 0.26961 0.0
O118 O 0.40308 0.26493 0.29158 0.0
C119 C 0.41305 0.21219 0.23622 0.0
C120 C 0.45202 0.12372 0.27097 0.0
C121 C 0.37489 0.22197 0.29604 0.0
O122 O 0.41053 0.17975 0.24832 0.0
O123 O 0.4306 0.25532 0.24161 0.0
O124 O 0.46901 0.19907 0.30368 0.0
O125 O 0.47859 0.24743 0.27839 0.0
Co126 Co 0.25845 0.44048 0.60972 0.0
O127 O 0.31999 0.48516 0.59923 0.0
O128 O 0.30095 0.41469 0.61073 0.0
C129 C 0.25389 0.4945 0.62949 0.0
O130 O 0.19763 0.38608 0.62252 0.0
Co131 Co 0.17393 0.45848 0.60256 0.0
O132 O 0.14276 0.40851 0.62346 0.0
C133 C 0.20984 0.42434 0.5685 0.0
C134 C 0.33348 0.45532 0.60359 0.0
C135 C 0.15704 0.38008 0.62809 0.0
O136 O 0.23569 0.41587 0.58082 0.0
O137 O 0.18708 0.4447 0.57415 0.0
O138 O 0.27558 0.47336 0.63646 0.0
O139 O 0.2382 0.4839 0.61097 0.0
Co140 Co 0.83227 0.25394 0.94303 0.0
O141 O 0.85004 0.31453 0.93116 0.0
O142 O 0.90025 0.29749 0.94576 0.0
C143 C 0.77047 0.24938 0.96016 0.0
O144 O 0.825 0.19454 0.95765 0.0
Co145 Co 0.73207 0.16694 0.93444 0.0
O146 O 0.7475 0.13991 0.95825 0.0
C147 C 0.80826 0.19849 0.90304 0.0
C148 C 0.89278 0.32907 0.93715 0.0
C149 C 0.78987 0.15477 0.96378 0.0
O150 O 0.83931 0.22972 0.9153 0.0
O151 O 0.76451 0.17315 0.9076 0.0
O152 O 0.81239 0.2725 0.96815 0.0
O153 O 0.76783 0.2322 0.94206 0.0
Co154 Co 0.57919 0.82565 0.2766 0.0
O155 O 0.53609 0.84355 0.26532 0.0
O156 O 0.60412 0.89357 0.27958 0.0
C157 C 0.52215 0.76367 0.29388 0.0
O158 O 0.63179 0.81812 0.29049 0.0
Co159 Co 0.56497 0.72566 0.26734 0.0
O160 O 0.60806 0.74059 0.29097 0.0
C161 C 0.61219 0.80318 0.23671 0.0
C162 C 0.56482 0.88624 0.27121 0.0
C163 C 0.63628 0.7829 0.2964 0.0
O164 O 0.60977 0.83328 0.24871 0.0
O165 O 0.59473 0.75951 0.24109 0.0
O166 O 0.54192 0.80545 0.30204 0.0
O167 O 0.53581 0.76128 0.27553 0.0
H168 H 0.24408 0.87634 0.00382 0.0
H169 H 0.20938 0.91658 0.94608 0.0
H170 H 0.2625 0.95182 0.01884 0.0
H171 H 0.22797 0.99263 0.96097 0.0
H172 H 0.29876 0.08915 0.0439 0.0
H173 H 0.24262 0.012 0.02951 0.0
H174 H 0.30773 0.05824 0.96964 0.0
H175 H 0.36351 0.13503 0.98417 0.0
C176 C 0.23786 0.90039 -0.00528 0.0
C177 C 0.22433 0.89024 0.97395 0.0
C178 C 0.24871 0.94391 0.00325 0.0
C179 C 0.24715 0.97866 0.99107 0.0
C180 C 0.22982 0.96685 0.97075 0.0
C181 C 0.21847 0.92302 0.9623 0.0
C182 C 0.29919 0.08358 0.02743 0.0
C183 C 0.33482 0.11836 0.01504 0.0
C184 C 0.26753 0.03913 0.01924 0.0
C185 C 0.27094 0.02857 -0.00154 0.0
C186 C 0.30361 0.0651 0.98564 0.0
C187 C 0.33547 0.10939 -0.0061 0.0
H188 H 0.23788 0.3615 0.31671 0.0
H189 H 0.2024 0.28642 0.37446 0.0
H190 H 0.25725 0.30482 0.30197 0.0
H191 H 0.2224 0.22976 0.35992 0.0
H192 H 0.36222 0.22944 0.33691 0.0
H193 H 0.30548 0.24919 0.35129 0.0
H194 H 0.23605 0.22195 0.2921 0.0
H195 H 0.29275 0.20164 0.27789 0.0
C196 C 0.23168 0.33128 0.32586 0.0
C197 C 0.21765 0.3277 0.34655 0.0
C198 C 0.2431 0.29889 0.3175 0.0
C199 C 0.24174 0.26289 0.32983 0.0
C200 C 0.22394 0.25712 0.35004 0.0
C201 C 0.21184 0.28915 0.35828 0.0
C202 C 0.33308 0.22489 0.32736 0.0
C203 C 0.33121 0.21302 0.30644 0.0
C204 C 0.3007 0.23657 0.33553 0.0
C205 C 0.26642 0.23759 0.32278 0.0
C206 C 0.2621 0.22169 0.30229 0.0
C207 C 0.29412 0.20937 0.29423 0.0
H208 H 0.8788 0.24044 0.65143 0.0
H209 H 0.92371 0.21256 0.70957 0.0
H210 H 0.95441 0.26012 0.63604 0.0
H211 H 0.99981 0.23241 0.69431 0.0
H212 H 0.09256 0.29806 0.61051 0.0
H213 H 0.01623 0.24193 0.62566 0.0
H214 H 0.06309 0.31257 0.68444 0.0
H215 H 0.13902 0.36837 0.66915 0.0
C216 C 0.90393 0.23594 0.66058 0.0
C217 C 0.89504 0.22399 0.68154 0.0
C218 C 0.94753 0.24755 0.65183 0.0
C219 C 0.98354 0.24833 0.66399 0.0
C220 C 0.97305 0.23248 0.68454 0.0
C221 C 0.9292 0.22039 0.69321 0.0
C222 C 0.08732 0.29984 0.62693 0.0
C223 C 0.122 0.3369 0.63878 0.0
C224 C 0.04335 0.26816 0.63555 0.0
C225 C 0.03321 0.27294 0.65623 0.0
C226 C 0.06969 0.30735 0.66854 0.0
C227 C 0.11346 0.33925 0.65985 0.0
H228 H 0.64918 0.8764 0.98735 0.0
H229 H 0.72199 0.92082 0.04556 0.0
H230 H 0.70498 0.95274 0.97223 0.0
H231 H 0.77759 0.99763 0.03065 0.0
H232 H 0.77806 0.13577 0.00482 0.0
H233 H 0.75684 0.05973 0.02027 0.0
H234 H 0.78893 0.01525 0.96282 0.0
H235 H 0.8109 0.09186 0.94757 0.0
C236 C 0.67871 0.90162 -0.00344 0.0
C237 C 0.68199 0.89234 0.01745 0.0
C238 C 0.71054 0.94557 0.98799 0.0
C239 C 0.74562 0.98149 0.00029 0.0
C240 C 0.75096 0.97082 0.02079 0.0
C241 C 0.71954 0.92663 0.02925 0.0
C242 C 0.78329 0.11079 -0.00407 0.0
C243 C 0.79722 0.12011 0.97518 0.0
C244 C 0.77073 0.06697 0.00469 0.0
C245 C 0.77078 0.03118 0.99271 0.0
C246 C 0.78835 0.04196 0.97243 0.0
C247 C 0.80164 0.08608 0.96379 0.0
H248 H 0.6457 0.76927 0.33704 0.0
H249 H 0.7199 0.80596 0.27903 0.0
H250 H 0.70275 0.7496 0.35122 0.0
H251 H 0.77669 0.78541 0.29299 0.0
H252 H 0.80983 0.71735 0.37428 0.0
H253 H 0.78769 0.77288 0.36033 0.0
H254 H 0.75638 0.7011 0.30164 0.0
H255 H 0.77766 0.64527 0.3158 0.0
C256 C 0.67576 0.77559 0.32772 0.0
C257 C 0.67908 0.7902 0.30713 0.0
C258 C 0.70832 0.76399 0.33575 0.0
C259 C 0.74415 0.76563 0.32317 0.0
C260 C 0.74951 0.78373 0.30305 0.0
C261 C 0.7174 0.79612 0.29515 0.0
C262 C 0.80075 0.71517 0.35806 0.0
C263 C 0.79646 0.67768 0.34596 0.0
C264 C 0.7874 0.74653 0.35017 0.0
C265 C 0.76994 0.74125 0.32993 0.0
C266 C 0.77019 0.70656 0.31721 0.0
C267 C 0.78278 0.67473 0.32524 0.0
H268 H 0.926 0.71841 0.60857 0.0
H269 H 0.8787 0.6456 0.66663 0.0
H270 H 1.00236 0.77354 0.62403 0.0
H271 H 0.95464 0.70083 0.68228 0.0
H272 H 0.09307 0.80624 0.70801 0.0
H273 H 0.01676 0.78367 0.6922 0.0
H274 H 0.06435 0.75392 0.63503 0.0
H275 H 0.14016 0.7759 0.65103 0.0
C276 C 0.9311 0.71584 0.62495 0.0
C277 C 0.89608 0.67847 0.63655 0.0
C278 C 0.97506 0.74697 0.63373 0.0
C279 C 0.98482 0.74149 0.65436 0.0
C280 C 0.94821 0.70652 0.66643 0.0
C281 C 0.90447 0.67501 0.65754 0.0
C282 C 0.08799 0.79729 0.69175 0.0
C283 C 0.1229 0.79389 0.68058 0.0
C284 C 0.04404 0.78366 0.68278 0.0
C285 C 0.03423 0.76662 0.6624 0.0
C286 C 0.0708 0.76737 0.65068 0.0
C287 C 0.11449 0.78036 0.65976 0.0
H288 H 0.7667 0.31046 0.98755 0.0
H289 H 0.67982 0.18149 0.95392 0.0
H290 H 0.69544 0.30966 -0.00025 0.0
H291 H 0.60906 0.18036 0.96638 0.0
H292 H 0.50639 0.17591 0.01925 0.0
H293 H 0.57367 0.17455 0.00395 0.0
H294 H 0.62478 0.3144 0.97964 0.0
H295 H 0.55647 0.31536 -0.00534 0.0
C296 C 0.73244 0.28165 0.98309 0.0
C297 C 0.72853 0.24599 0.96989 0.0
C298 C 0.69191 0.28153 0.9898 0.0
C299 C 0.64716 0.24526 0.9837 0.0
C300 C 0.64331 0.20876 0.97114 0.0
C301 C 0.6837 0.20937 0.96412 0.0
C302 C 0.53139 0.20585 0.01021 0.0
C303 C 0.5265 0.24569 0.00802 0.0
C304 C 0.56981 0.20511 0.00154 0.0
C305 C 0.60437 0.24461 0.99094 0.0
C306 C 0.59856 0.28377 0.98797 0.0
C307 C 0.55941 0.28409 -0.00371 0.0
H308 H 0.3339 0.53723 0.37549 0.0
H309 H 0.25299 0.51861 0.32001 0.0
H310 H 0.40214 0.60409 0.35985 0.0
H311 H 0.32185 0.58582 0.3043 0.0
H312 H 0.47105 0.67625 0.27745 0.0
H313 H 0.40488 0.60718 0.293 0.0
H314 H 0.42139 0.68647 0.34867 0.0
H315 H 0.4879 0.7561 0.33307 0.0
C316 C 0.33081 0.54719 0.35987 0.0
C317 C 0.28814 0.52282 0.34893 0.0
C318 C 0.36979 0.58565 0.35102 0.0
C319 C 0.36702 0.60016 0.33099 0.0
C320 C 0.3248 0.57507 0.31978 0.0
C321 C 0.2855 0.53676 0.32874 0.0
C322 C 0.46081 0.67895 0.29306 0.0
C323 C 0.48452 0.72153 0.30409 0.0
C324 C 0.42276 0.63949 0.30186 0.0
C325 C 0.40801 0.64172 0.32192 0.0
C326 C 0.43236 0.68393 0.33318 0.0
C327 C 0.47026 0.72367 0.32428 0.0
H328 H 0.8044 0.33938 0.70545 0.0
H329 H 0.73189 0.25065 0.65303 0.0
H330 H 0.80549 0.40579 0.68846 0.0
H331 H 0.73326 0.31801 0.63589 0.0
H332 H 0.7935 0.46669 0.60622 0.0
H333 H 0.79493 0.39999 0.62199 0.0
H334 H 0.74077 0.4237 0.67873 0.0
H335 H 0.7391 0.49052 0.66294 0.0
C336 C 0.789 0.33412 0.69019 0.0
C337 C 0.76782 0.28977 0.68055 0.0
C338 C 0.78941 0.37214 0.68057 0.0
C339 C 0.76901 0.36673 0.66105 0.0
C340 C 0.74925 0.32289 0.651 0.0
C341 C 0.74845 0.28449 0.66075 0.0
C342 C 0.78211 0.45783 0.6221 0.0
C343 C 0.7663 0.48378 0.63343 0.0
C344 C 0.7826 0.41948 0.63102 0.0
C345 C 0.76785 0.40682 0.65148 0.0
C346 C 0.75259 0.43309 0.66292 0.0
C347 C 0.7516 0.47119 0.65392 0.0
H348 H 0.25197 0.72672 0.00232 0.0
H349 H 0.34055 0.80151 0.9502 0.0
H350 H 0.31981 0.72839 0.01923 0.0
H351 H 0.40734 0.80287 0.96694 0.0
H352 H 0.49294 0.7364 0.9913 0.0
H353 H 0.42561 0.73796 0.97595 0.0
H354 H 0.40207 0.79024 0.03327 0.0
H355 H 0.46932 0.78898 0.04861 0.0
C356 C 0.28587 0.74386 -0.00538 0.0
C357 C 0.29096 0.76373 0.97495 0.0
C358 C 0.32453 0.74482 0.00425 0.0
C359 C 0.36843 0.76525 -0.00581 0.0
C360 C 0.37365 0.78625 0.97483 0.0
C361 C 0.3354 0.78568 0.96535 0.0
C362 C 0.47353 0.74846 0.00054 0.0
C363 C 0.48635 0.7627 0.02107 0.0
C364 C 0.43514 0.74938 0.9918 0.0
C365 C 0.40877 0.76408 0.00352 0.0
C366 C 0.42162 0.77834 0.02403 0.0
C367 C 0.4603 0.77795 0.03269 0.0
H368 H 0.55209 0.24284 0.32438 0.0
H369 H 0.50783 0.33225 0.29489 0.0
H370 H 0.62074 0.31282 0.33886 0.0
H371 H 0.57548 0.40174 0.30981 0.0
H372 H 0.67764 0.49863 0.3639 0.0
H373 H 0.60707 0.43037 0.35001 0.0
H374 H 0.69425 0.38853 0.31686 0.0
H375 H 0.76523 0.4577 0.33032 0.0
C376 C 0.55647 0.2773 0.32145 0.0
C377 C 0.52495 0.28244 0.30859 0.0
C378 C 0.59578 0.31712 0.32951 0.0
C379 C 0.60317 0.36223 0.32517 0.0
C380 C 0.57031 0.36715 0.31323 0.0
C381 C 0.53173 0.32752 0.30479 0.0
C382 C 0.68172 0.47523 0.35341 0.0
C383 C 0.72666 0.48325 0.34809 0.0
C384 C 0.64148 0.43629 0.34557 0.0
C385 C 0.64567 0.40431 0.33269 0.0
C386 C 0.69053 0.41273 0.32699 0.0
C387 C 0.73089 0.45235 0.33447 0.0
H388 H 0.28627 0.529 0.66839 0.0
H389 H 0.21242 0.54276 0.61595 0.0
H390 H 0.28522 0.5957 0.68505 0.0
H391 H 0.21176 0.60874 0.63242 0.0
H392 H 0.27914 0.76132 0.65655 0.0
H393 H 0.27767 0.69223 0.64147 0.0
H394 H 0.22307 0.61627 0.69863 0.0
H395 H 0.22418 0.68488 0.71368 0.0
C396 C 0.26946 0.54586 0.66057 0.0
C397 C 0.24968 0.53093 0.64088 0.0
C398 C 0.26888 0.58387 0.67005 0.0
C399 C 0.24896 0.6075 0.6598 0.0
C400 C 0.22802 0.59156 0.64044 0.0
C401 C 0.22818 0.55356 0.63111 0.0
C402 C 0.26661 0.72978 0.66581 0.0
C403 C 0.2516 0.7283 0.6862 0.0
C404 C 0.26577 0.69038 0.65723 0.0
C405 C 0.2504 0.64921 0.66899 0.0
C406 C 0.23548 0.6478 0.68937 0.0
C407 C 0.23578 0.68692 0.69786 0.0
H408 H 0.46356 0.17472 0.11416 0.0
H409 H 0.36906 0.22862 0.10379 0.0
H410 H 0.44542 0.16683 0.15049 0.0
H411 H 0.34966 0.21939 0.14067 0.0
H412 H 0.39576 0.2652 0.20921 0.0
H413 H 0.38904 0.25708 0.17206 0.0
H414 H 0.38761 0.12497 0.1764 0.0
H415 H 0.39648 0.13418 0.21384 0.0
C416 C 0.43827 0.18431 0.11959 0.0
C417 C 0.41784 0.20248 0.10602 0.0
C418 C 0.4274 0.17918 0.14049 0.0
C419 C 0.39553 0.19177 0.14851 0.0
C420 C 0.37449 0.20947 0.13496 0.0
C421 C 0.38568 0.21493 0.11388 0.0
C422 C 0.39338 0.234 0.20232 0.0
C423 C 0.39811 0.20099 0.21443 0.0
C424 C 0.38893 0.22911 0.18096 0.0
C425 C 0.38879 0.19091 0.1712 0.0
C426 C 0.38882 0.15547 0.18347 0.0
C427 C 0.39356 0.16051 0.20492 0.0
H428 H 0.13221 0.38703 0.43991 0.0
H429 H 0.25636 0.37336 0.44375 0.0
H430 H 0.12336 0.37845 0.47734 0.0
H431 H 0.24876 0.36694 0.48097 0.0
H432 H 0.22376 0.35635 0.55008 0.0
H433 H 0.21095 0.33285 0.51356 0.0
H434 H 0.17267 0.43883 0.5014 0.0
H435 H 0.1844 0.46127 0.53722 0.0
C436 C 0.15686 0.38102 0.44864 0.0
C437 C 0.19581 0.38243 0.43898 0.0
C438 C 0.15205 0.37644 0.47009 0.0
C439 C 0.18627 0.37354 0.48216 0.0
C440 C 0.22195 0.36938 0.47221 0.0
C441 C 0.22657 0.37363 0.45082 0.0
C442 C 0.21258 0.37439 0.53951 0.0
C443 C 0.20495 0.41049 0.54655 0.0
C444 C 0.20493 0.3608 0.51868 0.0
C445 C 0.18975 0.38327 0.50465 0.0
C446 C 0.18261 0.41951 0.51183 0.0
C447 C 0.19 0.43283 0.53243 0.0
H448 H 0.8887 0.25855 0.88153 0.0
H449 H 0.75764 0.12634 0.87638 0.0
H450 H 0.8996 0.25828 0.84425 0.0
H451 H 0.76707 0.12742 0.83938 0.0
H452 H 0.78981 0.13928 0.77108 0.0
H453 H 0.80198 0.12714 0.80741 0.0
H454 H 0.85898 0.27579 0.81898 0.0
H455 H 0.84838 0.2879 0.78328 0.0
C456 C 0.86278 0.229 0.87255 0.0
C457 C 0.82157 0.19336 0.8818 0.0
C458 C 0.86876 0.22896 0.85117 0.0
C459 C 0.83338 0.19361 0.83872 0.0
C460 C 0.79496 0.15533 0.84835 0.0
C461 C 0.78928 0.15509 0.86966 0.0
C462 C 0.80519 0.16922 0.78145 0.0
C463 C 0.81792 0.21443 0.77427 0.0
C464 C 0.81238 0.16239 0.80221 0.0
C465 C 0.83202 0.20061 0.81613 0.0
C466 C 0.84519 0.24571 0.80872 0.0
C467 C 0.8384 0.25252 0.78815 0.0
H468 H 0.66516 0.89161 0.10899 0.0
H469 H 0.61325 0.74222 0.11302 0.0
H470 H 0.68264 0.89998 0.14581 0.0
H471 H 0.62913 0.75005 0.15 0.0
H472 H 0.66072 0.76958 0.21588 0.0
H473 H 0.68032 0.77938 0.17928 0.0
H474 H 0.62926 0.8775 0.17433 0.0
H475 H 0.61122 0.86874 0.21112 0.0
C476 C 0.65844 0.86072 0.11774 0.0
C477 C 0.6372 0.81612 0.10834 0.0
C478 C 0.66821 0.86548 0.13882 0.0
C479 C 0.65635 0.82562 0.15094 0.0
C480 C 0.63901 0.78162 0.14112 0.0
C481 C 0.62978 0.77697 0.11993 0.0
C482 C 0.65488 0.79418 0.20702 0.0
C483 C 0.63376 0.81788 0.21616 0.0
C484 C 0.6659 0.79961 0.18606 0.0
C485 C 0.6555 0.82842 0.17378 0.0
C486 C 0.63809 0.85523 0.18334 0.0
C487 C 0.62758 0.8502 0.20442 0.0
H488 H 0.74566 0.6087 0.54067 0.0
H489 H 0.89485 0.65877 0.54446 0.0
H490 H 0.75326 0.62398 0.50364 0.0
H491 H 0.90302 0.67569 0.5076 0.0
H492 H 0.87157 0.60587 0.44206 0.0
H493 H 0.88003 0.6228 0.47896 0.0
H494 H 0.78278 0.67506 0.47441 0.0
H495 H 0.77323 0.65652 0.43769 0.0
C496 C 0.78033 0.62466 0.53369 0.0
C497 C 0.81947 0.6318 0.54526 0.0
C498 C 0.78485 0.63355 0.51247 0.0
C499 C 0.82872 0.65027 0.50258 0.0
C500 C 0.8686 0.66171 0.51464 0.0
C501 C 0.86395 0.65229 0.53575 0.0
C502 C 0.85313 0.62221 0.44888 0.0
C503 C 0.82116 0.62911 0.4372 0.0
C504 C 0.85799 0.63208 0.47002 0.0
C505 C 0.83137 0.64957 0.47972 0.0
C506 C 0.80284 0.66055 0.46752 0.0
C507 C 0.79757 0.65015 0.4465 0.0
H508 H 0.14242 0.7912 0.88457 0.0
H509 H 0.2882 0.83525 0.87185 0.0
H510 H 0.13179 0.8053 0.84824 0.0
H511 H 0.27754 0.84807 0.83618 0.0
H512 H 0.26573 0.88654 0.77469 0.0
H513 H 0.26538 0.89581 0.81208 0.0
H514 H 0.12882 0.76926 0.81561 0.0
H515 H 0.12816 0.7614 0.77844 0.0
C516 C 0.172 0.80371 0.87406 0.0
C517 C 0.21608 0.81214 0.88109 0.0
C518 C 0.16608 0.81209 0.85334 0.0
C519 C 0.2041 0.82875 0.83937 0.0
C520 C 0.24791 0.83694 0.84656 0.0
C521 C 0.25383 0.82889 0.86707 0.0
C522 C 0.23495 0.86178 0.78339 0.0
C523 C 0.19775 0.82239 0.77374 0.0
C524 C 0.23484 0.86679 0.80482 0.0
C525 C 0.19777 0.8323 0.81688 0.0
C526 C 0.15808 0.79629 0.80688 0.0
C527 C 0.158 0.79152 0.78552 0.0
H528 H 0.48752 0.60841 0.06768 0.0
H529 H 0.61789 0.63706 0.03875 0.0
H530 H 0.46004 0.5245 0.06727 0.0
H531 H 0.59004 0.55234 0.03825 0.0
H532 H 0.54396 0.40238 0.06061 0.0
H533 H 0.57156 0.4863 0.06149 0.0
H534 H 0.43339 0.45847 0.04308 0.0
H535 H 0.40546 0.37376 0.04229 0.0
C536 C 0.51057 0.59687 0.0613 0.0
C537 C 0.55515 0.62976 0.05331 0.0
C538 C 0.49447 0.5485 0.0609 0.0
C539 C 0.52253 0.53135 0.05262 0.0
C540 C 0.56754 0.56424 0.04491 0.0
C541 C 0.58359 0.61286 0.04518 0.0
C542 C 0.51918 0.41392 0.05686 0.0
C543 C 0.47228 0.38104 0.05145 0.0
C544 C 0.53528 0.4623 0.05719 0.0
C545 C 0.50495 0.47946 0.05224 0.0
C546 C 0.45773 0.44657 0.04715 0.0
C547 C 0.44163 0.39795 0.04668 0.0
H548 H 0.98395 0.60989 0.37113 0.0
H549 H 0.87623 0.4762 0.39539 0.0
H550 H 0.03992 0.58097 0.3713 0.0
H551 H 0.93173 0.4476 0.39557 0.0
H552 H 0.03063 0.39538 0.37149 0.0
H553 H 0.97462 0.42425 0.37143 0.0
H554 H 0.08258 0.55783 0.39565 0.0
H555 H 0.13811 0.52928 0.39571 0.0
C556 C 0.9723 0.57458 0.37666 0.0
C557 C 0.92559 0.54558 0.38332 0.0
C558 C 1.00434 0.55793 0.37677 0.0
C559 C 0.99031 0.51173 0.38335 0.0
C560 C 0.94368 0.48302 0.39012 0.0
C561 C 0.91192 0.49973 0.39018 0.0
C562 C 0.04222 0.43072 0.37696 0.0
C563 C 0.08889 0.4598 0.38367 0.0
C564 C 1.01015 0.44734 0.37694 0.0
C565 C 0.02411 0.4936 0.38343 0.0
C566 C 0.07069 0.52237 0.39026 0.0
C567 C 0.10247 0.50569 0.39046 0.0
H568 H 0.64055 0.0358 0.70848 0.0
H569 H 0.61283 0.14371 0.73049 0.0
H570 H 0.55554 0.97919 0.70845 0.0
H571 H 0.52864 0.0876 0.73046 0.0
H572 H 0.37792 0.98649 0.70598 0.0
H573 H 0.46296 0.04304 0.70615 0.0
H574 H 0.48871 0.93722 0.73243 0.0
H575 H 0.40453 0.8812 0.73227 0.0
C576 C 0.6165 0.04736 0.7135 0.0
C577 C 0.63378 0.09434 0.71956 0.0
C578 C 0.56771 0.01495 0.71348 0.0
C579 C 0.535 0.02884 0.71932 0.0
C580 C 0.55251 0.07571 0.72555 0.0
C581 C 0.60104 0.10784 0.72575 0.0
C582 C 0.40173 0.9755 0.71195 0.0
C583 C 0.38413 0.92928 0.71919 0.0
C584 C 0.45053 0.00788 0.71206 0.0
C585 C 0.48293 0.99468 0.71921 0.0
C586 C 0.46511 0.94854 0.72654 0.0
C587 C 0.41656 0.91648 0.72661 0.0
H588 H 0.64095 0.61569 0.61397 0.0
H589 H 0.61146 0.48308 0.58728 0.0
H590 H 0.55619 0.58807 0.61449 0.0
H591 H 0.52751 0.45578 0.58776 0.0
H592 H 0.37696 0.40382 0.61267 0.0
H593 H 0.46172 0.43143 0.61212 0.0
H594 H 0.48989 0.56781 0.59092 0.0
H595 H 0.40595 0.54054 0.5915 0.0
C596 C 0.61655 0.58092 0.60805 0.0
C597 C 0.63325 0.55183 0.60052 0.0
C598 C 0.56791 0.565 0.60833 0.0
C599 C 0.53478 0.51945 0.60127 0.0
C600 C 0.55171 0.49068 0.59362 0.0
C601 C 0.60011 0.50666 0.59317 0.0
C602 C 0.40124 0.43952 0.60773 0.0
C603 C 0.3844 0.46976 0.60206 0.0
C604 C 0.44988 0.45543 0.60741 0.0
C605 C 0.48288 0.50208 0.60158 0.0
C606 C 0.4658 0.532 0.59579 0.0
C607 C 0.41741 0.51607 0.59595 0.0
H608 H 0.03653 0.63637 0.94696 0.0
H609 H 0.144 0.6084 0.92449 0.0
H610 H 0.97955 0.55152 0.94672 0.0
H611 H 0.08751 0.52436 0.92422 0.0
H612 H 0.98664 0.37391 0.94863 0.0
H613 H 0.04327 0.45879 0.94837 0.0
H614 H 0.93683 0.48471 0.92286 0.0
H615 H 0.88062 0.40053 0.92314 0.0
C616 C 0.04791 0.6123 0.94178 0.0
C617 C 0.0949 0.62945 0.93569 0.0
C618 C 0.01527 0.5636 0.94163 0.0
C619 C 0.02894 0.53085 0.93558 0.0
C620 C 0.07579 0.54825 0.92929 0.0
C621 C 0.10815 0.5967 0.92927 0.0
C622 C 0.97551 0.3977 0.9428 0.0
C623 C 0.92906 0.38015 0.93582 0.0
C624 C 1.00795 0.44642 0.94264 0.0
C625 C 0.99464 0.47884 0.93567 0.0
C626 C 0.94826 0.46108 0.92859 0.0
C627 C 0.91609 0.41256 0.92858 0.0
H628 H 0.61414 0.97977 0.28316 0.0
H629 H 0.48186 0.87472 0.25661 0.0
H630 H 0.58623 0.03651 0.28283 0.0
H631 H 0.4543 0.93099 0.25624 0.0
H632 H 0.40121 0.02884 0.2803 0.0
H633 H 0.42947 0.97244 0.28019 0.0
H634 H 0.56565 0.08153 0.25879 0.0
H635 H 0.53768 0.13755 0.25896 0.0
C636 C 0.57938 0.96888 0.27709 0.0
C637 C 0.55042 0.92266 0.26988 0.0
C638 C 0.56331 1.00138 0.27689 0.0
C639 C 0.51776 0.9883 0.26962 0.0
C640 C 0.48918 0.9422 0.26224 0.0
C641 C 0.5053 0.90999 0.2623 0.0
C642 C 0.437 0.04062 0.2754 0.0
C643 C 0.46698 0.08775 0.26957 0.0
C644 C 0.45328 0.00831 0.27533 0.0
C645 C 0.50005 0.02243 0.26958 0.0
C646 C 0.52974 0.06947 0.26359 0.0
C647 C 0.51342 0.10154 0.26352 0.0
loop_
_geom_bond_atom_site_label_1
_geom_bond_atom_site_label_2
_geom_bond_distance
_geom_bond_site_symmetry_2
_ccdc_geom_bond_type
Co0 O1 2.216 . S
Co0 O2 2.091 . S
Co0 O4 2.004 . S
Co0 O10 2.021 . S
Co0 O12 2.137 . S
Co0 O13 2.244 . S
O1 Co0 2.216 . S
O1 C8 1.247 . S
O2 Co0 2.091 . S
O2 C8 1.261 . S
C3 O12 1.247 . S
C3 O13 1.272 . S
O4 Co0 2.004 . S
O4 C9 1.259 . S
Co5 O6 2.061 . S
Co5 O11 2.052 . S
Co5 O13 2.135 . S
O6 Co5 2.061 . S
O6 C9 1.235 . S
C7 O10 1.238 . S
C7 O11 1.241 . S
C8 O1 1.247 . S
C8 O2 1.261 . S
C9 O4 1.259 . S
C9 O6 1.235 . S
O10 Co0 2.021 . S
O10 C7 1.238 . S
O11 Co5 2.052 . S
O11 C7 1.241 . S
O12 Co0 2.137 . S
O12 C3 1.247 . S
O13 Co0 2.244 . S
O13 C3 1.272 . S
O13 Co5 2.135 . S
Co14 O15 2.216 . S
Co14 O16 2.091 . S
Co14 O18 2.004 . S
Co14 O24 2.021 . S
Co14 O26 2.137 . S
Co14 O27 2.244 . S
O15 Co14 2.216 . S
O15 C22 1.247 . S
O16 Co14 2.091 . S
O16 C22 1.261 . S
C17 O26 1.247 . S
C17 O27 1.272 . S
O18 Co14 2.004 . S
O18 C23 1.259 . S
Co19 O20 2.061 . S
Co19 O25 2.052 . S
Co19 O27 2.135 . S
O20 Co19 2.061 . S
O20 C23 1.235 . S
C21 O24 1.238 . S
C21 O25 1.241 . S
C22 O15 1.247 . S
C22 O16 1.261 . S
C23 O18 1.259 . S
C23 O20 1.235 . S
O24 Co14 2.021 . S
O24 C21 1.238 . S
O25 Co19 2.052 . S
O25 C21 1.241 . S
O26 Co14 2.137 . S
O26 C17 1.247 . S
O27 Co14 2.244 . S
O27 C17 1.272 . S
O27 Co19 2.135 . S
Co28 O29 2.216 . S
Co28 O30 2.091 . S
Co28 O32 2.004 . S
Co28 O38 2.021 . S
Co28 O40 2.137 . S
Co28 O41 2.244 . S
O29 Co28 2.216 . S
O29 C36 1.247 . S
O30 Co28 2.091 . S
O30 C36 1.261 . S
C31 O40 1.247 . S
C31 O41 1.272 . S
O32 Co28 2.004 . S
O32 C37 1.259 . S
Co33 O34 2.061 . S
Co33 O39 2.052 . S
Co33 O41 2.135 . S
O34 Co33 2.061 . S
O34 C37 1.235 . S
C35 O38 1.238 . S
C35 O39 1.241 . S
C36 O29 1.247 . S
C36 O30 1.261 . S
C37 O32 1.259 . S
C37 O34 1.235 . S
O38 Co28 2.021 . S
O38 C35 1.238 . S
O39 Co33 2.052 . S
O39 C35 1.241 . S
O40 Co28 2.137 . S
O40 C31 1.247 . S
O41 Co28 2.244 . S
O41 C31 1.272 . S
O41 Co33 2.135 . S
Co42 O43 2.216 . S
Co42 O44 2.091 . S
Co42 O46 2.004 . S
Co42 O52 2.021 . S
Co42 O54 2.137 . S
Co42 O55 2.244 . S
O43 Co42 2.216 . S
O43 C50 1.247 . S
O44 Co42 2.091 . S
O44 C50 1.261 . S
C45 O54 1.247 . S
C45 O55 1.272 . S
O46 Co42 2.004 . S
O46 C51 1.259 . S
Co47 O48 2.061 . S
Co47 O53 2.052 . S
Co47 O55 2.135 . S
O48 Co47 2.061 . S
O48 C51 1.235 . S
C49 O52 1.238 . S
C49 O53 1.241 . S
C50 O43 1.247 . S
C50 O44 1.261 . S
C51 O46 1.259 . S
C51 O48 1.235 . S
O52 Co42 2.021 . S
O52 C49 1.238 . S
O53 Co47 2.052 . S
O53 C49 1.241 . S
O54 Co42 2.137 . S
O54 C45 1.247 . S
O55 Co42 2.244 . S
O55 C45 1.272 . S
O55 Co47 2.135 . S
Co56 O57 2.216 . S
Co56 O58 2.091 . S
Co56 O60 2.004 . S
Co56 O66 2.021 . S
Co56 O68 2.137 . S
Co56 O69 2.244 . S
O57 Co56 2.216 . S
O57 C64 1.247 . S
O58 Co56 2.091 . S
O58 C64 1.261 . S
C59 O68 1.247 . S
C59 O69 1.272 . S
O60 Co56 2.004 . S
O60 C65 1.259 . S
Co61 O62 2.061 . S
Co61 O67 2.052 . S
Co61 O69 2.135 . S
O62 Co61 2.061 . S
O62 C65 1.235 . S
C63 O66 1.238 . S
C63 O67 1.241 . S
C64 O57 1.247 . S
C64 O58 1.261 . S
C65 O60 1.259 . S
C65 O62 1.235 . S
O66 Co56 2.021 . S
O66 C63 1.238 . S
O67 Co61 2.052 . S
O67 C63 1.241 . S
O68 Co56 2.137 . S
O68 C59 1.247 . S
O69 Co56 2.244 . S
O69 C59 1.272 . S
O69 Co61 2.135 . S
Co70 O71 2.216 . S
Co70 O72 2.091 . S
Co70 O74 2.004 . S
Co70 O80 2.021 . S
Co70 O82 2.137 . S
Co70 O83 2.244 . S
O71 Co70 2.216 . S
O71 C78 1.247 . S
O72 Co70 2.091 . S
O72 C78 1.261 . S
C73 O82 1.247 . S
C73 O83 1.272 . S
O74 Co70 2.004 . S
O74 C79 1.259 . S
Co75 O76 2.061 . S
Co75 O81 2.052 . S
Co75 O83 2.135 . S
O76 Co75 2.061 . S
O76 C79 1.235 . S
C77 O80 1.238 . S
C77 O81 1.241 . S
C78 O71 1.247 . S
C78 O72 1.261 . S
C79 O74 1.259 . S
C79 O76 1.235 . S
O80 Co70 2.021 . S
O80 C77 1.238 . S
O81 Co75 2.052 . S
O81 C77 1.241 . S
O82 Co70 2.137 . S
O82 C73 1.247 . S
O83 Co70 2.244 . S
O83 C73 1.272 . S
O83 Co75 2.135 . S
Co84 O85 2.216 . S
Co84 O86 2.091 . S
Co84 O88 2.004 . S
Co84 O94 2.021 . S
Co84 O96 2.137 . S
Co84 O97 2.244 . S
O85 Co84 2.216 . S
O85 C92 1.247 . S
O86 Co84 2.091 . S
O86 C92 1.261 . S
C87 O96 1.247 . S
C87 O97 1.272 . S
O88 Co84 2.004 . S
O88 C93 1.259 . S
Co89 O90 2.061 . S
Co89 O95 2.052 . S
Co89 O97 2.135 . S
O90 Co89 2.061 . S
O90 C93 1.235 . S
C91 O94 1.238 . S
C91 O95 1.241 . S
C92 O85 1.247 . S
C92 O86 1.261 . S
C93 O88 1.259 . S
C93 O90 1.235 . S
O94 Co84 2.021 . S
O94 C91 1.238 . S
O95 Co89 2.052 . S
O95 C91 1.241 . S
O96 Co84 2.137 . S
O96 C87 1.247 . S
O97 Co84 2.244 . S
O97 C87 1.272 . S
O97 Co89 2.135 . S
Co98 O99 2.216 . S
Co98 O100 2.091 . S
Co98 O102 2.004 . S
Co98 O108 2.021 . S
Co98 O110 2.137 . S
Co98 O111 2.244 . S
O99 Co98 2.216 . S
O99 C106 1.247 . S
O100 Co98 2.091 . S
O100 C106 1.261 . S
C101 O110 1.247 . S
C101 O111 1.272 . S
O102 Co98 2.004 . S
O102 C107 1.259 . S
Co103 O104 2.061 . S
Co103 O109 2.052 . S
Co103 O111 2.135 . S
O104 Co103 2.061 . S
O104 C107 1.235 . S
C105 O108 1.238 . S
C105 O109 1.241 . S
C106 O99 1.247 . S
C106 O100 1.261 . S
C107 O102 1.259 . S
C107 O104 1.235 . S
O108 Co98 2.021 . S
O108 C105 1.238 . S
O109 Co103 2.052 . S
O109 C105 1.241 . S
O110 Co98 2.137 . S
O110 C101 1.247 . S
O111 Co98 2.244 . S
O111 C101 1.272 . S
O111 Co103 2.135 . S
Co112 O113 2.216 . S
Co112 O114 2.091 . S
Co112 O116 2.004 . S
Co112 O122 2.021 . S
Co112 O124 2.137 . S
Co112 O125 2.244 . S
O113 Co112 2.216 . S
O113 C120 1.247 . S
O114 Co112 2.091 . S
O114 C120 1.261 . S
C115 O124 1.247 . S
C115 O125 1.272 . S
O116 Co112 2.004 . S
O116 C121 1.259 . S
Co117 O118 2.061 . S
Co117 O123 2.052 . S
Co117 O125 2.135 . S
O118 Co117 2.061 . S
O118 C121 1.235 . S
C119 O122 1.238 . S
C119 O123 1.241 . S
C120 O113 1.247 . S
C120 O114 1.261 . S
C121 O116 1.259 . S
C121 O118 1.235 . S
O122 Co112 2.021 . S
O122 C119 1.238 . S
O123 Co117 2.052 . S
O123 C119 1.241 . S
O124 Co112 2.137 . S
O124 C115 1.247 . S
O125 Co112 2.244 . S
O125 C115 1.272 . S
O125 Co117 2.135 . S
Co126 O127 2.216 . S
Co126 O128 2.091 . S
Co126 O130 2.004 . S
Co126 O136 2.021 . S
Co126 O138 2.137 . S
Co126 O139 2.244 . S
O127 Co126 2.216 . S
O127 C134 1.247 . S
O128 Co126 2.091 . S
O128 C134 1.261 . S
C129 O138 1.247 . S
C129 O139 1.272 . S
O130 Co126 2.004 . S
O130 C135 1.259 . S
Co131 O132 2.061 . S
Co131 O137 2.052 . S
Co131 O139 2.135 . S
O132 Co131 2.061 . S
O132 C135 1.235 . S
C133 O136 1.238 . S
C133 O137 1.241 . S
C134 O127 1.247 . S
C134 O128 1.261 . S
C135 O130 1.259 . S
C135 O132 1.235 . S
O136 Co126 2.021 . S
O136 C133 1.238 . S
O137 Co131 2.052 . S
O137 C133 1.241 . S
O138 Co126 2.137 . S
O138 C129 1.247 . S
O139 Co126 2.244 . S
O139 C129 1.272 . S
O139 Co131 2.135 . S
Co140 O141 2.216 . S
Co140 O142 2.091 . S
Co140 O144 2.004 . S
Co140 O150 2.021 . S
Co140 O152 2.137 . S
Co140 O153 2.244 . S
O141 Co140 2.216 . S
O141 C148 1.247 . S
O142 Co140 2.091 . S
O142 C148 1.261 . S
C143 O152 1.247 . S
C143 O153 1.272 . S
O144 Co140 2.004 . S
O144 C149 1.259 . S
Co145 O146 2.061 . S
Co145 O151 2.052 . S
Co145 O153 2.135 . S
O146 Co145 2.061 . S
O146 C149 1.235 . S
C147 O150 1.238 . S
C147 O151 1.241 . S
C148 O141 1.247 . S
C148 O142 1.261 . S
C149 O144 1.259 . S
C149 O146 1.235 . S
O150 Co140 2.021 . S
O150 C147 1.238 . S
O151 Co145 2.052 . S
O151 C147 1.241 . S
O152 Co140 2.137 . S
O152 C143 1.247 . S
O153 Co140 2.244 . S
O153 C143 1.272 . S
O153 Co145 2.135 . S
Co154 O155 2.216 . S
Co154 O156 2.091 . S
Co154 O158 2.004 . S
Co154 O164 2.021 . S
Co154 O166 2.137 . S
Co154 O167 2.244 . S
O155 Co154 2.216 . S
O155 C162 1.247 . S
O156 Co154 2.091 . S
O156 C162 1.261 . S
C157 O166 1.247 . S
C157 O167 1.272 . S
O158 Co154 2.004 . S
O158 C163 1.259 . S
Co159 O160 2.061 . S
Co159 O165 2.052 . S
Co159 O167 2.135 . S
O160 Co159 2.061 . S
O160 C163 1.235 . S
C161 O164 1.238 . S
C161 O165 1.241 . S
C162 O155 1.247 . S
C162 O156 1.261 . S
C163 O158 1.259 . S
C163 O160 1.235 . S
O164 Co154 2.021 . S
O164 C161 1.238 . S
O165 Co159 2.052 . S
O165 C161 1.241 . S
O166 Co154 2.137 . S
O166 C157 1.247 . S
O167 Co154 2.244 . S
O167 C157 1.272 . S
O167 Co159 2.135 . S
H168 C176 0.950 . S
H169 C181 0.950 . S
H170 C178 0.950 . S
H171 C180 0.950 1_554 S
H172 C182 0.950 . S
H173 C184 0.950 . S
H174 C186 0.950 1_556 S
H175 C187 0.950 . S
C176 H168 0.950 . S
C176 C177 1.386 . S
C176 C178 1.391 . S
C177 C176 1.386 . S
C177 C181 1.393 . S
C178 H170 0.950 . S
C178 C176 1.391 . S
C178 C179 1.400 . S
C179 C178 1.400 . S
C179 C180 1.398 . S
C179 C185 1.491 1_566 S
C180 H171 0.950 1_556 S
C180 C179 1.398 . S
C180 C181 1.391 . S
C181 H169 0.950 . S
C181 C177 1.393 . S
C181 C180 1.391 . S
C182 H172 0.950 . S
C182 C183 1.386 . S
C182 C184 1.391 . S
C183 C182 1.386 . S
C183 C187 1.393 . S
C184 H173 0.950 . S
C184 C182 1.391 . S
C184 C185 1.400 . S
C185 C179 1.491 1_544 S
C185 C184 1.400 . S
C185 C186 1.398 . S
C186 H174 0.950 1_554 S
C186 C185 1.398 . S
C186 C187 1.391 . S
C187 H175 0.950 . S
C187 C183 1.393 . S
C187 C186 1.391 . S
H188 C196 0.950 . S
H189 C201 0.950 . S
H190 C198 0.950 . S
H191 C200 0.950 . S
H192 C202 0.950 . S
H193 C204 0.950 . S
H194 C206 0.950 . S
H195 C207 0.950 . S
C196 H188 0.950 . S
C196 C197 1.386 . S
C196 C198 1.391 . S
C197 C196 1.386 . S
C197 C201 1.393 . S
C198 H190 0.950 . S
C198 C196 1.391 . S
C198 C199 1.400 . S
C199 C198 1.400 . S
C199 C200 1.398 . S
C199 C205 1.491 . S
C200 H191 0.950 . S
C200 C199 1.398 . S
C200 C201 1.391 . S
C201 H189 0.950 . S
C201 C197 1.393 . S
C201 C200 1.391 . S
C202 H192 0.950 . S
C202 C203 1.386 . S
C202 C204 1.391 . S
C203 C202 1.386 . S
C203 C207 1.393 . S
C204 H193 0.950 . S
C204 C202 1.391 . S
C204 C205 1.400 . S
C205 C199 1.491 . S
C205 C204 1.400 . S
C205 C206 1.398 . S
C206 H194 0.950 . S
C206 C205 1.398 . S
C206 C207 1.391 . S
C207 H195 0.950 . S
C207 C203 1.393 . S
C207 C206 1.391 . S
H208 C216 0.950 . S
H209 C221 0.950 . S
H210 C218 0.950 . S
H211 C220 0.950 . S
H212 C222 0.950 . S
H213 C224 0.950 . S
H214 C226 0.950 . S
H215 C227 0.950 . S
C216 H208 0.950 . S
C216 C217 1.386 . S
C216 C218 1.391 . S
C217 C216 1.386 . S
C217 C221 1.393 . S
C218 H210 0.950 . S
C218 C216 1.391 . S
C218 C219 1.400 . S
C219 C218 1.400 . S
C219 C220 1.398 . S
C219 C225 1.491 1_655 S
C220 H211 0.950 . S
C220 C219 1.398 . S
C220 C221 1.391 . S
C221 H209 0.950 . S
C221 C217 1.393 . S
C221 C220 1.391 . S
C222 H212 0.950 . S
C222 C223 1.386 . S
C222 C224 1.391 . S
C223 C222 1.386 . S
C223 C227 1.393 . S
C224 H213 0.950 . S
C224 C222 1.391 . S
C224 C225 1.400 . S
C225 C219 1.491 1_455 S
C225 C224 1.400 . S
C225 C226 1.398 . S
C226 H214 0.950 . S
C226 C225 1.398 . S
C226 C227 1.391 . S
C227 H215 0.950 . S
C227 C223 1.393 . S
C227 C226 1.391 . S
H228 C236 0.950 1_556 S
H229 C241 0.950 . S
H230 C238 0.950 . S
H231 C240 0.950 . S
H232 C242 0.950 1_554 S
H233 C244 0.950 . S
H234 C246 0.950 . S
H235 C247 0.950 . S
C236 H228 0.950 1_554 S
C236 C237 1.386 . S
C236 C238 1.391 1_554 S
C237 C236 1.386 . S
C237 C241 1.393 . S
C238 H230 0.950 . S
C238 C236 1.391 1_556 S
C238 C239 1.400 1_556 S
C239 C238 1.400 1_554 S
C239 C240 1.398 . S
C239 C245 1.491 1_564 S
C240 H231 0.950 . S
C240 C239 1.398 . S
C240 C241 1.391 . S
C241 H229 0.950 . S
C241 C237 1.393 . S
C241 C240 1.391 . S
C242 H232 0.950 1_556 S
C242 C243 1.386 . S
C242 C244 1.391 1_556 S
C243 C242 1.386 . S
C243 C247 1.393 . S
C244 H233 0.950 . S
C244 C242 1.391 1_554 S
C244 C245 1.400 1_554 S
C245 C239 1.491 1_546 S
C245 C244 1.400 1_556 S
C245 C246 1.398 . S
C246 H234 0.950 . S
C246 C245 1.398 . S
C246 C247 1.391 . S
C247 H235 0.950 . S
C247 C243 1.393 . S
C247 C246 1.391 . S
H248 C256 0.950 . S
H249 C261 0.950 . S
H250 C258 0.950 . S
H251 C260 0.950 . S
H252 C262 0.950 . S
H253 C264 0.950 . S
H254 C266 0.950 . S
H255 C267 0.950 . S
C256 H248 0.950 . S
C256 C257 1.386 . S
C256 C258 1.391 . S
C257 C256 1.386 . S
C257 C261 1.393 . S
C258 H250 0.950 . S
C258 C256 1.391 . S
C258 C259 1.400 . S
C259 C258 1.400 . S
C259 C260 1.398 . S
C259 C265 1.491 . S
C260 H251 0.950 . S
C260 C259 1.398 . S
C260 C261 1.391 . S
C261 H249 0.950 . S
C261 C257 1.393 . S
C261 C260 1.391 . S
C262 H252 0.950 . S
C262 C263 1.386 . S
C262 C264 1.391 . S
C263 C262 1.386 . S
C263 C267 1.393 . S
C264 H253 0.950 . S
C264 C262 1.391 . S
C264 C265 1.400 . S
C265 C259 1.491 . S
C265 C264 1.400 . S
C265 C266 1.398 . S
C266 H254 0.950 . S
C266 C265 1.398 . S
C266 C267 1.391 . S
C267 H255 0.950 . S
C267 C263 1.393 . S
C267 C266 1.391 . S
H268 C276 0.950 . S
H269 C281 0.950 . S
H270 C278 0.950 . S
H271 C280 0.950 . S
H272 C282 0.950 . S
H273 C284 0.950 . S
H274 C286 0.950 . S
H275 C287 0.950 . S
C276 H268 0.950 . S
C276 C277 1.386 . S
C276 C278 1.391 . S
C277 C276 1.386 . S
C277 C281 1.393 . S
C278 H270 0.950 . S
C278 C276 1.391 . S
C278 C279 1.400 . S
C279 C278 1.400 . S
C279 C280 1.398 . S
C279 C285 1.491 1_655 S
C280 H271 0.950 . S
C280 C279 1.398 . S
C280 C281 1.391 . S
C281 H269 0.950 . S
C281 C277 1.393 . S
C281 C280 1.391 . S
C282 H272 0.950 . S
C282 C283 1.386 . S
C282 C284 1.391 . S
C283 C282 1.386 . S
C283 C287 1.393 . S
C284 H273 0.950 . S
C284 C282 1.391 . S
C284 C285 1.400 . S
C285 C279 1.491 1_455 S
C285 C284 1.400 . S
C285 C286 1.398 . S
C286 H274 0.950 . S
C286 C285 1.398 . S
C286 C287 1.391 . S
C287 H275 0.950 . S
C287 C283 1.393 . S
C287 C286 1.391 . S
H288 C296 0.950 . S
H289 C301 0.950 . S
H290 C298 0.950 1_554 S
H291 C300 0.950 . S
H292 C302 0.950 . S
H293 C304 0.950 1_556 S
H294 C306 0.950 . S
H295 C307 0.950 . S
C296 H288 0.950 . S
C296 C297 1.386 . S
C296 C298 1.391 . S
C297 C296 1.386 . S
C297 C301 1.393 . S
C298 H290 0.950 1_556 S
C298 C296 1.391 . S
C298 C299 1.400 . S
C299 C298 1.400 . S
C299 C300 1.398 . S
C299 C305 1.491 1_556 S
C300 H291 0.950 . S
C300 C299 1.398 . S
C300 C301 1.391 . S
C301 H289 0.950 . S
C301 C297 1.393 . S
C301 C300 1.391 . S
C302 H292 0.950 . S
C302 C303 1.386 . S
C302 C304 1.391 . S
C303 C302 1.386 . S
C303 C307 1.393 . S
C304 H293 0.950 1_554 S
C304 C302 1.391 . S
C304 C305 1.400 . S
C305 C299 1.491 1_554 S
C305 C304 1.400 . S
C305 C306 1.398 . S
C306 H294 0.950 . S
C306 C305 1.398 . S
C306 C307 1.391 . S
C307 H295 0.950 . S
C307 C303 1.393 . S
C307 C306 1.391 . S
H308 C316 0.950 . S
H309 C321 0.950 . S
H310 C318 0.950 . S
H311 C320 0.950 . S
H312 C322 0.950 . S
H313 C324 0.950 . S
H314 C326 0.950 . S
H315 C327 0.950 . S
C316 H308 0.950 . S
C316 C317 1.386 . S
C316 C318 1.391 . S
C317 C316 1.386 . S
C317 C321 1.393 . S
C318 H310 0.950 . S
C318 C316 1.391 . S
C318 C319 1.400 . S
C319 C318 1.400 . S
C319 C320 1.398 . S
C319 C325 1.491 . S
C320 H311 0.950 . S
C320 C319 1.398 . S
C320 C321 1.391 . S
C321 H309 0.950 . S
C321 C317 1.393 . S
C321 C320 1.391 . S
C322 H312 0.950 . S
C322 C323 1.386 . S
C322 C324 1.391 . S
C323 C322 1.386 . S
C323 C327 1.393 . S
C324 H313 0.950 . S
C324 C322 1.391 . S
C324 C325 1.400 . S
C325 C319 1.491 . S
C325 C324 1.400 . S
C325 C326 1.398 . S
C326 H314 0.950 . S
C326 C325 1.398 . S
C326 C327 1.391 . S
C327 H315 0.950 . S
C327 C323 1.393 . S
C327 C326 1.391 . S
H328 C336 0.950 . S
H329 C341 0.950 . S
H330 C338 0.950 . S
H331 C340 0.950 . S
H332 C342 0.950 . S
H333 C344 0.950 . S
H334 C346 0.950 . S
H335 C347 0.950 . S
C336 H328 0.950 . S
C336 C337 1.386 . S
C336 C338 1.391 . S
C337 C336 1.386 . S
C337 C341 1.393 . S
C338 H330 0.950 . S
C338 C336 1.391 . S
C338 C339 1.400 . S
C339 C338 1.400 . S
C339 C340 1.398 . S
C339 C345 1.491 . S
C340 H331 0.950 . S
C340 C339 1.398 . S
C340 C341 1.391 . S
C341 H329 0.950 . S
C341 C337 1.393 . S
C341 C340 1.391 . S
C342 H332 0.950 . S
C342 C343 1.386 . S
C342 C344 1.391 . S
C343 C342 1.386 . S
C343 C347 1.393 . S
C344 H333 0.950 . S
C344 C342 1.391 . S
C344 C345 1.400 . S
C345 C339 1.491 . S
C345 C344 1.400 . S
C345 C346 1.398 . S
C346 H334 0.950 . S
C346 C345 1.398 . S
C346 C347 1.391 . S
C347 H335 0.950 . S
C347 C343 1.393 . S
C347 C346 1.391 . S
H348 C356 0.950 1_554 S
H349 C361 0.950 . S
H350 C358 0.950 . S
H351 C360 0.950 . S
H352 C362 0.950 1_556 S
H353 C364 0.950 . S
H354 C366 0.950 . S
H355 C367 0.950 . S
C356 H348 0.950 1_556 S
C356 C357 1.386 . S
C356 C358 1.391 1_556 S
C357 C356 1.386 . S
C357 C361 1.393 . S
C358 H350 0.950 . S
C358 C356 1.391 1_554 S
C358 C359 1.400 1_554 S
C359 C358 1.400 1_556 S
C359 C360 1.398 . S
C359 C365 1.491 1_556 S
C360 H351 0.950 . S
C360 C359 1.398 . S
C360 C361 1.391 . S
C361 H349 0.950 . S
C361 C357 1.393 . S
C361 C360 1.391 . S
C362 H352 0.950 1_554 S
C362 C363 1.386 . S
C362 C364 1.391 1_554 S
C363 C362 1.386 . S
C363 C367 1.393 . S
C364 H353 0.950 . S
C364 C362 1.391 1_556 S
C364 C365 1.400 1_556 S
C365 C359 1.491 1_554 S
C365 C364 1.400 1_554 S
C365 C366 1.398 . S
C366 H354 0.950 . S
C366 C365 1.398 . S
C366 C367 1.391 . S
C367 H355 0.950 . S
C367 C363 1.393 . S
C367 C366 1.391 . S
H368 C376 0.950 . S
H369 C381 0.950 . S
H370 C378 0.950 . S
H371 C380 0.950 . S
H372 C382 0.950 . S
H373 C384 0.950 . S
H374 C386 0.950 . S
H375 C387 0.950 . S
C376 H368 0.950 . S
C376 C377 1.386 . S
C376 C378 1.391 . S
C377 C376 1.386 . S
C377 C381 1.393 . S
C378 H370 0.950 . S
C378 C376 1.391 . S
C378 C379 1.400 . S
C379 C378 1.400 . S
C379 C380 1.398 . S
C379 C385 1.491 . S
C380 H371 0.950 . S
C380 C379 1.398 . S
C380 C381 1.391 . S
C381 H369 0.950 . S
C381 C377 1.393 . S
C381 C380 1.391 . S
C382 H372 0.950 . S
C382 C383 1.386 . S
C382 C384 1.391 . S
C383 C382 1.386 . S
C383 C387 1.393 . S
C384 H373 0.950 . S
C384 C382 1.391 . S
C384 C385 1.400 . S
C385 C379 1.491 . S
C385 C384 1.400 . S
C385 C386 1.398 . S
C386 H374 0.950 . S
C386 C385 1.398 . S
C386 C387 1.391 . S
C387 H375 0.950 . S
C387 C383 1.393 . S
C387 C386 1.391 . S
H388 C396 0.950 . S
H389 C401 0.950 . S
H390 C398 0.950 . S
H391 C400 0.950 . S
H392 C402 0.950 . S
H393 C404 0.950 . S
H394 C406 0.950 . S
H395 C407 0.950 . S
C396 H388 0.950 . S
C396 C397 1.386 . S
C396 C398 1.391 . S
C397 C396 1.386 . S
C397 C401 1.393 . S
C398 H390 0.950 . S
C398 C396 1.391 . S
C398 C399 1.400 . S
C399 C398 1.400 . S
C399 C400 1.398 . S
C399 C405 1.491 . S
C400 H391 0.950 . S
C400 C399 1.398 . S
C400 C401 1.391 . S
C401 H389 0.950 . S
C401 C397 1.393 . S
C401 C400 1.391 . S
C402 H392 0.950 . S
C402 C403 1.386 . S
C402 C404 1.391 . S
C403 C402 1.386 . S
C403 C407 1.393 . S
C404 H393 0.950 . S
C404 C402 1.391 . S
C404 C405 1.400 . S
C405 C399 1.491 . S
C405 C404 1.400 . S
C405 C406 1.398 . S
C406 H394 0.950 . S
C406 C405 1.398 . S
C406 C407 1.391 . S
C407 H395 0.950 . S
C407 C403 1.393 . S
C407 C406 1.391 . S
H408 C416 0.950 . S
H409 C421 0.950 . S
H410 C418 0.950 . S
H411 C420 0.950 . S
H412 C422 0.950 . S
H413 C424 0.950 . S
H414 C426 0.950 . S
H415 C427 0.950 . S
C416 H408 0.950 . S
C416 C417 1.386 . S
C416 C418 1.391 . S
C417 C416 1.386 . S
C417 C421 1.393 . S
C418 H410 0.950 . S
C418 C416 1.391 . S
C418 C419 1.400 . S
C419 C418 1.400 . S
C419 C420 1.398 . S
C419 C425 1.491 . S
C420 H411 0.950 . S
C420 C419 1.398 . S
C420 C421 1.391 . S
C421 H409 0.950 . S
C421 C417 1.393 . S
C421 C420 1.391 . S
C422 H412 0.950 . S
C422 C423 1.386 . S
C422 C424 1.391 . S
C423 C422 1.386 . S
C423 C427 1.393 . S
C424 H413 0.950 . S
C424 C422 1.391 . S
C424 C425 1.400 . S
C425 C419 1.491 . S
C425 C424 1.400 . S
C425 C426 1.398 . S
C426 H414 0.950 . S
C426 C425 1.398 . S
C426 C427 1.391 . S
C427 H415 0.950 . S
C427 C423 1.393 . S
C427 C426 1.391 . S
H428 C436 0.950 . S
H429 C441 0.950 . S
H430 C438 0.950 . S
H431 C440 0.950 . S
H432 C442 0.950 . S
H433 C444 0.950 . S
H434 C446 0.950 . S
H435 C447 0.950 . S
C436 H428 0.950 . S
C436 C437 1.386 . S
C436 C438 1.391 . S
C437 C436 1.386 . S
C437 C441 1.393 . S
C438 H430 0.950 . S
C438 C436 1.391 . S
C438 C439 1.400 . S
C439 C438 1.400 . S
C439 C440 1.398 . S
C439 C445 1.491 . S
C440 H431 0.950 . S
C440 C439 1.398 . S
C440 C441 1.391 . S
C441 H429 0.950 . S
C441 C437 1.393 . S
C441 C440 1.391 . S
C442 H432 0.950 . S
C442 C443 1.386 . S
C442 C444 1.391 . S
C443 C442 1.386 . S
C443 C447 1.393 . S
C444 H433 0.950 . S
C444 C442 1.391 . S
C444 C445 1.400 . S
C445 C439 1.491 . S
C445 C444 1.400 . S
C445 C446 1.398 . S
C446 H434 0.950 . S
C446 C445 1.398 . S
C446 C447 1.391 . S
C447 H435 0.950 . S
C447 C443 1.393 . S
C447 C446 1.391 . S
H448 C456 0.950 . S
H449 C461 0.950 . S
H450 C458 0.950 . S
H451 C460 0.950 . S
H452 C462 0.950 . S
H453 C464 0.950 . S
H454 C466 0.950 . S
H455 C467 0.950 . S
C456 H448 0.950 . S
C456 C457 1.386 . S
C456 C458 1.391 . S
C457 C456 1.386 . S
C457 C461 1.393 . S
C458 H450 0.950 . S
C458 C456 1.391 . S
C458 C459 1.400 . S
C459 C458 1.400 . S
C459 C460 1.398 . S
C459 C465 1.491 . S
C460 H451 0.950 . S
C460 C459 1.398 . S
C460 C461 1.391 . S
C461 H449 0.950 . S
C461 C457 1.393 . S
C461 C460 1.391 . S
C462 H452 0.950 . S
C462 C463 1.386 . S
C462 C464 1.391 . S
C463 C462 1.386 . S
C463 C467 1.393 . S
C464 H453 0.950 . S
C464 C462 1.391 . S
C464 C465 1.400 . S
C465 C459 1.491 . S
C465 C464 1.400 . S
C465 C466 1.398 . S
C466 H454 0.950 . S
C466 C465 1.398 . S
C466 C467 1.391 . S
C467 H455 0.950 . S
C467 C463 1.393 . S
C467 C466 1.391 . S
H468 C476 0.950 . S
H469 C481 0.950 . S
H470 C478 0.950 . S
H471 C480 0.950 . S
H472 C482 0.950 . S
H473 C484 0.950 . S
H474 C486 0.950 . S
H475 C487 0.950 . S
C476 H468 0.950 . S
C476 C477 1.386 . S
C476 C478 1.391 . S
C477 C476 1.386 . S
C477 C481 1.393 . S
C478 H470 0.950 . S
C478 C476 1.391 . S
C478 C479 1.400 . S
C479 C478 1.400 . S
C479 C480 1.398 . S
C479 C485 1.491 . S
C480 H471 0.950 . S
C480 C479 1.398 . S
C480 C481 1.391 . S
C481 H469 0.950 . S
C481 C477 1.393 . S
C481 C480 1.391 . S
C482 H472 0.950 . S
C482 C483 1.386 . S
C482 C484 1.391 . S
C483 C482 1.386 . S
C483 C487 1.393 . S
C484 H473 0.950 . S
C484 C482 1.391 . S
C484 C485 1.400 . S
C485 C479 1.491 . S
C485 C484 1.400 . S
C485 C486 1.398 . S
C486 H474 0.950 . S
C486 C485 1.398 . S
C486 C487 1.391 . S
C487 H475 0.950 . S
C487 C483 1.393 . S
C487 C486 1.391 . S
H488 C496 0.950 . S
H489 C501 0.950 . S
H490 C498 0.950 . S
H491 C500 0.950 . S
H492 C502 0.950 . S
H493 C504 0.950 . S
H494 C506 0.950 . S
H495 C507 0.950 . S
C496 H488 0.950 . S
C496 C497 1.386 . S
C496 C498 1.391 . S
C497 C496 1.386 . S
C497 C501 1.393 . S
C498 H490 0.950 . S
C498 C496 1.391 . S
C498 C499 1.400 . S
C499 C498 1.400 . S
C499 C500 1.398 . S
C499 C505 1.491 . S
C500 H491 0.950 . S
C500 C499 1.398 . S
C500 C501 1.391 . S
C501 H489 0.950 . S
C501 C497 1.393 . S
C501 C500 1.391 . S
C502 H492 0.950 . S
C502 C503 1.386 . S
C502 C504 1.391 . S
C503 C502 1.386 . S
C503 C507 1.393 . S
C504 H493 0.950 . S
C504 C502 1.391 . S
C504 C505 1.400 . S
C505 C499 1.491 . S
C505 C504 1.400 . S
C505 C506 1.398 . S
C506 H494 0.950 . S
C506 C505 1.398 . S
C506 C507 1.391 . S
C507 H495 0.950 . S
C507 C503 1.393 . S
C507 C506 1.391 . S
H508 C516 0.950 . S
H509 C521 0.950 . S
H510 C518 0.950 . S
H511 C520 0.950 . S
H512 C522 0.950 . S
H513 C524 0.950 . S
H514 C526 0.950 . S
H515 C527 0.950 . S
C516 H508 0.950 . S
C516 C517 1.386 . S
C516 C518 1.391 . S
C517 C516 1.386 . S
C517 C521 1.393 . S
C518 H510 0.950 . S
C518 C516 1.391 . S
C518 C519 1.400 . S
C519 C518 1.400 . S
C519 C520 1.398 . S
C519 C525 1.491 . S
C520 H511 0.950 . S
C520 C519 1.398 . S
C520 C521 1.391 . S
C521 H509 0.950 . S
C521 C517 1.393 . S
C521 C520 1.391 . S
C522 H512 0.950 . S
C522 C523 1.386 . S
C522 C524 1.391 . S
C523 C522 1.386 . S
C523 C527 1.393 . S
C524 H513 0.950 . S
C524 C522 1.391 . S
C524 C525 1.400 . S
C525 C519 1.491 . S
C525 C524 1.400 . S
C525 C526 1.398 . S
C526 H514 0.950 . S
C526 C525 1.398 . S
C526 C527 1.391 . S
C527 H515 0.950 . S
C527 C523 1.393 . S
C527 C526 1.391 . S
H528 C536 0.950 . S
H529 C541 0.950 . S
H530 C538 0.950 . S
H531 C540 0.950 . S
H532 C542 0.950 . S
H533 C544 0.950 . S
H534 C546 0.950 . S
H535 C547 0.950 . S
C536 H528 0.950 . S
C536 C537 1.386 . S
C536 C538 1.391 . S
C537 C536 1.386 . S
C537 C541 1.393 . S
C538 H530 0.950 . S
C538 C536 1.391 . S
C538 C539 1.400 . S
C539 C538 1.400 . S
C539 C540 1.398 . S
C539 C545 1.491 . S
C540 H531 0.950 . S
C540 C539 1.398 . S
C540 C541 1.391 . S
C541 H529 0.950 . S
C541 C537 1.393 . S
C541 C540 1.391 . S
C542 H532 0.950 . S
C542 C543 1.386 . S
C542 C544 1.391 . S
C543 C542 1.386 . S
C543 C547 1.393 . S
C544 H533 0.950 . S
C544 C542 1.391 . S
C544 C545 1.400 . S
C545 C539 1.491 . S
C545 C544 1.400 . S
C545 C546 1.398 . S
C546 H534 0.950 . S
C546 C545 1.398 . S
C546 C547 1.391 . S
C547 H535 0.950 . S
C547 C543 1.393 . S
C547 C546 1.391 . S
H548 C556 0.950 . S
H549 C561 0.950 . S
H550 C558 0.965 . S
H551 C560 0.950 . S
H552 C562 0.950 . S
H553 C564 0.965 . S
H554 C566 0.950 . S
H555 C567 0.950 . S
C556 H548 0.950 . S
C556 C557 1.386 . S
C556 C558 1.373 1_655 S
C557 C556 1.386 . S
C557 C561 1.393 . S
C558 H550 0.965 . S
C558 C556 1.373 1_455 S
C558 C559 1.403 1_455 S
C559 C558 1.403 1_655 S
C559 C560 1.398 . S
C559 C565 1.491 1_655 S
C560 H551 0.950 . S
C560 C559 1.398 . S
C560 C561 1.391 . S
C561 H549 0.950 . S
C561 C557 1.393 . S
C561 C560 1.391 . S
C562 H552 0.950 . S
C562 C563 1.386 . S
C562 C564 1.373 1_455 S
C563 C562 1.386 . S
C563 C567 1.393 . S
C564 H553 0.965 . S
C564 C562 1.373 1_655 S
C564 C565 1.403 1_655 S
C565 C559 1.491 1_455 S
C565 C564 1.403 1_455 S
C565 C566 1.398 . S
C566 H554 0.950 . S
C566 C565 1.398 . S
C566 C567 1.391 . S
C567 H555 0.950 . S
C567 C563 1.393 . S
C567 C566 1.391 . S
H568 C576 0.950 . S
H569 C581 0.950 . S
H570 C578 0.950 . S
H571 C580 0.950 . S
H572 C582 0.950 . S
H573 C584 0.950 . S
H574 C586 0.950 . S
H575 C587 0.950 . S
C576 H568 0.950 . S
C576 C577 1.386 . S
C576 C578 1.391 1_545 S
C577 C576 1.386 . S
C577 C581 1.393 . S
C578 H570 0.950 . S
C578 C576 1.391 1_565 S
C578 C579 1.400 1_565 S
C579 C578 1.400 1_545 S
C579 C580 1.398 . S
C579 C585 1.491 1_545 S
C580 H571 0.950 . S
C580 C579 1.398 . S
C580 C581 1.391 . S
C581 H569 0.950 . S
C581 C577 1.393 . S
C581 C580 1.391 . S
C582 H572 0.950 . S
C582 C583 1.386 . S
C582 C584 1.391 1_565 S
C583 C582 1.386 . S
C583 C587 1.393 . S
C584 H573 0.950 . S
C584 C582 1.391 1_545 S
C584 C585 1.400 1_545 S
C585 C579 1.491 1_565 S
C585 C584 1.400 1_565 S
C585 C586 1.398 . S
C586 H574 0.950 . S
C586 C585 1.398 . S
C586 C587 1.391 . S
C587 H575 0.950 . S
C587 C583 1.393 . S
C587 C586 1.391 . S
H588 C596 0.950 . S
H589 C601 0.950 . S
H590 C598 0.950 . S
H591 C600 0.950 . S
H592 C602 0.950 . S
H593 C604 0.950 . S
H594 C606 0.950 . S
H595 C607 0.950 . S
C596 H588 0.950 . S
C596 C597 1.386 . S
C596 C598 1.391 . S
C597 C596 1.386 . S
C597 C601 1.393 . S
C598 H590 0.950 . S
C598 C596 1.391 . S
C598 C599 1.400 . S
C599 C598 1.400 . S
C599 C600 1.398 . S
C599 C605 1.491 . S
C600 H591 0.950 . S
C600 C599 1.398 . S
C600 C601 1.391 . S
C601 H589 0.950 . S
C601 C597 1.393 . S
C601 C600 1.391 . S
C602 H592 0.950 . S
C602 C603 1.386 . S
C602 C604 1.391 . S
C603 C602 1.386 . S
C603 C607 1.393 . S
C604 H593 0.950 . S
C604 C602 1.391 . S
C604 C605 1.400 . S
C605 C599 1.491 . S
C605 C604 1.400 . S
C605 C606 1.398 . S
C606 H594 0.950 . S
C606 C605 1.398 . S
C606 C607 1.391 . S
C607 H595 0.950 . S
C607 C603 1.393 . S
C607 C606 1.391 . S
H608 C616 0.950 . S
H609 C621 0.950 . S
H610 C618 0.950 1_655 S
H611 C620 0.950 . S
H612 C622 0.950 . S
H613 C624 0.950 1_455 S
H614 C626 0.950 . S
H615 C627 0.950 . S
C616 H608 0.950 . S
C616 C617 1.386 . S
C616 C618 1.391 . S
C617 C616 1.386 . S
C617 C621 1.393 . S
C618 H610 0.950 1_455 S
C618 C616 1.391 . S
C618 C619 1.400 . S
C619 C618 1.400 . S
C619 C620 1.398 . S
C619 C625 1.491 1_455 S
C620 H611 0.950 . S
C620 C619 1.398 . S
C620 C621 1.391 . S
C621 H609 0.950 . S
C621 C617 1.393 . S
C621 C620 1.391 . S
C622 H612 0.950 . S
C622 C623 1.386 . S
C622 C624 1.391 . S
C623 C622 1.386 . S
C623 C627 1.393 . S
C624 H613 0.950 1_655 S
C624 C622 1.391 . S
C624 C625 1.400 . S
C625 C619 1.491 1_655 S
C625 C624 1.400 . S
C625 C626 1.398 . S
C626 H614 0.950 . S
C626 C625 1.398 . S
C626 C627 1.391 . S
C627 H615 0.950 . S
C627 C623 1.393 . S
C627 C626 1.391 . S
H628 C636 0.950 . S
H629 C641 0.950 . S
H630 C638 0.950 . S
H631 C640 0.950 . S
H632 C642 0.950 . S
H633 C644 0.950 . S
H634 C646 0.950 . S
H635 C647 0.950 . S
C636 H628 0.950 . S
C636 C637 1.386 . S
C636 C638 1.391 1_565 S
C637 C636 1.386 . S
C637 C641 1.393 . S
C638 H630 0.950 . S
C638 C636 1.391 1_545 S
C638 C639 1.400 1_545 S
C639 C638 1.400 1_565 S
C639 C640 1.398 . S
C639 C645 1.491 1_565 S
C640 H631 0.950 . S
C640 C639 1.398 . S
C640 C641 1.391 . S
C641 H629 0.950 . S
C641 C637 1.393 . S
C641 C640 1.391 . S
C642 H632 0.950 . S
C642 C643 1.386 . S
C642 C644 1.391 1_545 S
C643 C642 1.386 . S
C643 C647 1.393 . S
C644 H633 0.950 . S
C644 C642 1.391 1_565 S
C644 C645 1.400 1_565 S
C645 C639 1.491 1_545 S
C645 C644 1.400 1_545 S
C645 C646 1.398 . S
C646 H634 0.950 . S
C646 C645 1.398 . S
C646 C647 1.391 . S
C647 H635 0.950 . S
C647 C643 1.393 . S
C647 C646 1.391 . S
C177 C107 1.349 . S
C183 C9 1.331 . S
C197 C23 1.327 . S
C203 C121 1.356 . S
C217 C37 1.340 . S
C223 C135 1.339 . S
C237 C51 1.330 . S
C243 C149 1.355 . S
C257 C163 1.347 . S
C263 C65 1.333 . S
C277 C93 1.356 . S
C283 C79 1.328 . S
C297 C143 1.390 . S
C303 C3 1.390 . S
C317 C17 1.390 . S
C323 C157 1.391 . S
C337 C31 1.391 . S
C343 C87 1.394 . S
C357 C101 1.391 . S
C363 C45 1.390 . S
C377 C115 1.390 . S
C383 C59 1.391 . S
C397 C129 1.393 . S
C403 C73 1.391 . S
C417 C7 1.639 . S
C423 C119 1.644 . S
C437 C21 1.643 . S
C443 C133 1.634 . S
C457 C147 1.641 . S
C463 C35 1.631 . S
C477 C49 1.623 . S
C483 C161 1.633 . S
C497 C91 1.629 . S
C503 C63 1.621 . S
C517 C105 1.629 . S
C523 C77 1.621 . S
C537 C50 1.391 . S
C543 C8 1.392 . S
C557 C64 1.396 . S
C563 C22 1.395 . S
C577 C36 1.394 . S
C583 C78 1.393 . S
C597 C92 1.386 . S
C603 C134 1.386 . S
C617 C106 1.396 . S
C623 C148 1.396 . S
C637 C162 1.386 . S
C643 C120 1.386 . S
