# Generated by pormake.
# Topology wlu, (5)-cn, num edge types: 1
# Building blocks:
#     Node 0, Type 0, BuildingBlock: XOMCOT_clean_sbu_0, # of connection points: 5
#     Node 1, Type 0, BuildingBlock: XOMCOT_clean_sbu_0, # of connection points: 5
#     Node 2, Type 0, BuildingBlock: XOMCOT_clean_sbu_0, # of connection points: 5
#     Node 3, Type 0, BuildingBlock: XOMCOT_clean_sbu_0, # of connection points: 5
#     Node 4, Type 0, BuildingBlock: XOMCOT_clean_sbu_0, # of connection points: 5
#     Node 5, Type 0, BuildingBlock: XOMCOT_clean_sbu_0, # of connection points: 5
#     Node 6, Type 0, BuildingBlock: XOMCOT_clean_sbu_0, # of connection points: 5
#     Node 7, Type 0, BuildingBlock: XOMCOT_clean_sbu_0, # of connection points: 5
#     Node 8, Type 0, BuildingBlock: XOMCOT_clean_sbu_0, # of connection points: 5
#     Node 9, Type 0, BuildingBlock: XOMCOT_clean_sbu_0, # of connection points: 5
#     Node 10, Type 0, BuildingBlock: XOMCOT_clean_sbu_0, # of connection points: 5
#     Node 11, Type 0, BuildingBlock: XOMCOT_clean_sbu_0, # of connection points: 5
#     Node 12, Type 0, BuildingBlock: XOMCOT_clean_sbu_0, # of connection points: 5
#     Node 13, Type 0, BuildingBlock: XOMCOT_clean_sbu_0, # of connection points: 5
#     Node 14, Type 0, BuildingBlock: XOMCOT_clean_sbu_0, # of connection points: 5
#     Node 15, Type 0, BuildingBlock: XOMCOT_clean_sbu_0, # of connection points: 5
#     Node 16, Type 0, BuildingBlock: XOMCOT_clean_sbu_0, # of connection points: 5
#     Node 17, Type 0, BuildingBlock: XOMCOT_clean_sbu_0, # of connection points: 5
#     Node 18, Type 0, BuildingBlock: XOMCOT_clean_sbu_0, # of connection points: 5
#     Node 19, Type 0, BuildingBlock: XOMCOT_clean_sbu_0, # of connection points: 5
#     Node 20, Type 0, BuildingBlock: XOMCOT_clean_sbu_0, # of connection points: 5
#     Node 21, Type 0, BuildingBlock: XOMCOT_clean_sbu_0, # of connection points: 5
#     Node 22, Type 0, BuildingBlock: XOMCOT_clean_sbu_0, # of connection points: 5
#     Node 23, Type 0, BuildingBlock: XOMCOT_clean_sbu_0, # of connection points: 5
#     Node 24, Type 0, BuildingBlock: XOMCOT_clean_sbu_0, # of connection points: 5
#     Node 25, Type 0, BuildingBlock: XOMCOT_clean_sbu_0, # of connection points: 5
#     Node 26, Type 0, BuildingBlock: XOMCOT_clean_sbu_0, # of connection points: 5
#     Node 27, Type 0, BuildingBlock: XOMCOT_clean_sbu_0, # of connection points: 5
#     Node 28, Type 0, BuildingBlock: XOMCOT_clean_sbu_0, # of connection points: 5
#     Node 29, Type 0, BuildingBlock: XOMCOT_clean_sbu_0, # of connection points: 5
#     Node 30, Type 0, BuildingBlock: XOMCOT_clean_sbu_0, # of connection points: 5
#     Node 31, Type 0, BuildingBlock: XOMCOT_clean_sbu_0, # of connection points: 5
#     Node 32, Type 0, BuildingBlock: XOMCOT_clean_sbu_0, # of connection points: 5
#     Node 33, Type 0, BuildingBlock: XOMCOT_clean_sbu_0, # of connection points: 5
#     Node 34, Type 0, BuildingBlock: XOMCOT_clean_sbu_0, # of connection points: 5
#     Node 35, Type 0, BuildingBlock: XOMCOT_clean_sbu_0, # of connection points: 5
#     Edge 36, Type (0, 0), BuildingBlock: UVAHIK_clean_linker_0, # of connection points: 2
#     Edge 37, Type (0, 0), BuildingBlock: UVAHIK_clean_linker_0, # of connection points: 2
#     Edge 38, Type (0, 0), BuildingBlock: UVAHIK_clean_linker_0, # of connection points: 2
#     Edge 39, Type (0, 0), BuildingBlock: UVAHIK_clean_linker_0, # of connection points: 2
#     Edge 40, Type (0, 0), BuildingBlock: UVAHIK_clean_linker_0, # of connection points: 2
#     Edge 41, Type (0, 0), BuildingBlock: UVAHIK_clean_linker_0, # of connection points: 2
#     Edge 42, Type (0, 0), BuildingBlock: UVAHIK_clean_linker_0, # of connection points: 2
#     Edge 43, Type (0, 0), BuildingBlock: UVAHIK_clean_linker_0, # of connection points: 2
#     Edge 44, Type (0, 0), BuildingBlock: UVAHIK_clean_linker_0, # of connection points: 2
#     Edge 45, Type (0, 0), BuildingBlock: UVAHIK_clean_linker_0, # of connection points: 2
#     Edge 46, Type (0, 0), BuildingBlock: UVAHIK_clean_linker_0, # of connection points: 2
#     Edge 47, Type (0, 0), BuildingBlock: UVAHIK_clean_linker_0, # of connection points: 2
#     Edge 48, Type (0, 0), BuildingBlock: UVAHIK_clean_linker_0, # of connection points: 2
#     Edge 49, Type (0, 0), BuildingBlock: UVAHIK_clean_linker_0, # of connection points: 2
#     Edge 50, Type (0, 0), BuildingBlock: UVAHIK_clean_linker_0, # of connection points: 2
#     Edge 51, Type (0, 0), BuildingBlock: UVAHIK_clean_linker_0, # of connection points: 2
#     Edge 52, Type (0, 0), BuildingBlock: UVAHIK_clean_linker_0, # of connection points: 2
#     Edge 53, Type (0, 0), BuildingBlock: UVAHIK_clean_linker_0, # of connection points: 2
#     Edge 54, Type (0, 0), BuildingBlock: UVAHIK_clean_linker_0, # of connection points: 2
#     Edge 55, Type (0, 0), BuildingBlock: UVAHIK_clean_linker_0, # of connection points: 2
#     Edge 56, Type (0, 0), BuildingBlock: UVAHIK_clean_linker_0, # of connection points: 2
#     Edge 57, Type (0, 0), BuildingBlock: UVAHIK_clean_linker_0, # of connection points: 2
#     Edge 58, Type (0, 0), BuildingBlock: UVAHIK_clean_linker_0, # of connection points: 2
#     Edge 59, Type (0, 0), BuildingBlock: UVAHIK_clean_linker_0, # of connection points: 2
#     Edge 60, Type (0, 0), BuildingBlock: UVAHIK_clean_linker_0, # of connection points: 2
#     Edge 61, Type (0, 0), BuildingBlock: UVAHIK_clean_linker_0, # of connection points: 2
#     Edge 62, Type (0, 0), BuildingBlock: UVAHIK_clean_linker_0, # of connection points: 2
#     Edge 63, Type (0, 0), BuildingBlock: UVAHIK_clean_linker_0, # of connection points: 2
#     Edge 64, Type (0, 0), BuildingBlock: UVAHIK_clean_linker_0, # of connection points: 2
#     Edge 65, Type (0, 0), BuildingBlock: UVAHIK_clean_linker_0, # of connection points: 2
#     Edge 66, Type (0, 0), BuildingBlock: UVAHIK_clean_linker_0, # of connection points: 2
#     Edge 67, Type (0, 0), BuildingBlock: UVAHIK_clean_linker_0, # of connection points: 2
#     Edge 68, Type (0, 0), BuildingBlock: UVAHIK_clean_linker_0, # of connection points: 2
#     Edge 69, Type (0, 0), BuildingBlock: UVAHIK_clean_linker_0, # of connection points: 2
#     Edge 70, Type (0, 0), BuildingBlock: UVAHIK_clean_linker_0, # of connection points: 2
#     Edge 71, Type (0, 0), BuildingBlock: UVAHIK_clean_linker_0, # of connection points: 2
#     Edge 72, Type (0, 0), BuildingBlock: UVAHIK_clean_linker_0, # of connection points: 2
#     Edge 73, Type (0, 0), BuildingBlock: UVAHIK_clean_linker_0, # of connection points: 2
#     Edge 74, Type (0, 0), BuildingBlock: UVAHIK_clean_linker_0, # of connection points: 2
#     Edge 75, Type (0, 0), BuildingBlock: UVAHIK_clean_linker_0, # of connection points: 2
#     Edge 76, Type (0, 0), BuildingBlock: UVAHIK_clean_linker_0, # of connection points: 2
#     Edge 77, Type (0, 0), BuildingBlock: UVAHIK_clean_linker_0, # of connection points: 2
#     Edge 78, Type (0, 0), BuildingBlock: UVAHIK_clean_linker_0, # of connection points: 2
#     Edge 79, Type (0, 0), BuildingBlock: UVAHIK_clean_linker_0, # of connection points: 2
#     Edge 80, Type (0, 0), BuildingBlock: UVAHIK_clean_linker_0, # of connection points: 2
#     Edge 81, Type (0, 0), BuildingBlock: UVAHIK_clean_linker_0, # of connection points: 2
#     Edge 82, Type (0, 0), BuildingBlock: UVAHIK_clean_linker_0, # of connection points: 2
#     Edge 83, Type (0, 0), BuildingBlock: UVAHIK_clean_linker_0, # of connection points: 2
#     Edge 84, Type (0, 0), BuildingBlock: UVAHIK_clean_linker_0, # of connection points: 2
#     Edge 85, Type (0, 0), BuildingBlock: UVAHIK_clean_linker_0, # of connection points: 2
#     Edge 86, Type (0, 0), BuildingBlock: UVAHIK_clean_linker_0, # of connection points: 2
#     Edge 87, Type (0, 0), BuildingBlock: UVAHIK_clean_linker_0, # of connection points: 2
#     Edge 88, Type (0, 0), BuildingBlock: UVAHIK_clean_linker_0, # of connection points: 2
#     Edge 89, Type (0, 0), BuildingBlock: UVAHIK_clean_linker_0, # of connection points: 2
#     Edge 90, Type (0, 0), BuildingBlock: UVAHIK_clean_linker_0, # of connection points: 2
#     Edge 91, Type (0, 0), BuildingBlock: UVAHIK_clean_linker_0, # of connection points: 2
#     Edge 92, Type (0, 0), BuildingBlock: UVAHIK_clean_linker_0, # of connection points: 2
#     Edge 93, Type (0, 0), BuildingBlock: UVAHIK_clean_linker_0, # of connection points: 2
#     Edge 94, Type (0, 0), BuildingBlock: UVAHIK_clean_linker_0, # of connection points: 2
#     Edge 95, Type (0, 0), BuildingBlock: UVAHIK_clean_linker_0, # of connection points: 2
#     Edge 96, Type (0, 0), BuildingBlock: UVAHIK_clean_linker_0, # of connection points: 2
#     Edge 97, Type (0, 0), BuildingBlock: UVAHIK_clean_linker_0, # of connection points: 2
#     Edge 98, Type (0, 0), BuildingBlock: UVAHIK_clean_linker_0, # of connection points: 2
#     Edge 99, Type (0, 0), BuildingBlock: UVAHIK_clean_linker_0, # of connection points: 2
#     Edge 100, Type (0, 0), BuildingBlock: UVAHIK_clean_linker_0, # of connection points: 2
#     Edge 101, Type (0, 0), BuildingBlock: UVAHIK_clean_linker_0, # of connection points: 2
#     Edge 102, Type (0, 0), BuildingBlock: UVAHIK_clean_linker_0, # of connection points: 2
#     Edge 103, Type (0, 0), BuildingBlock: UVAHIK_clean_linker_0, # of connection points: 2
#     Edge 104, Type (0, 0), BuildingBlock: UVAHIK_clean_linker_0, # of connection points: 2
#     Edge 105, Type (0, 0), BuildingBlock: UVAHIK_clean_linker_0, # of connection points: 2
#     Edge 106, Type (0, 0), BuildingBlock: UVAHIK_clean_linker_0, # of connection points: 2
#     Edge 107, Type (0, 0), BuildingBlock: UVAHIK_clean_linker_0, # of connection points: 2
#     Edge 108, Type (0, 0), BuildingBlock: UVAHIK_clean_linker_0, # of connection points: 2
#     Edge 109, Type (0, 0), BuildingBlock: UVAHIK_clean_linker_0, # of connection points: 2
#     Edge 110, Type (0, 0), BuildingBlock: UVAHIK_clean_linker_0, # of connection points: 2
#     Edge 111, Type (0, 0), BuildingBlock: UVAHIK_clean_linker_0, # of connection points: 2
#     Edge 112, Type (0, 0), BuildingBlock: UVAHIK_clean_linker_0, # of connection points: 2
#     Edge 113, Type (0, 0), BuildingBlock: UVAHIK_clean_linker_0, # of connection points: 2
#     Edge 114, Type (0, 0), BuildingBlock: UVAHIK_clean_linker_0, # of connection points: 2
#     Edge 115, Type (0, 0), BuildingBlock: UVAHIK_clean_linker_0, # of connection points: 2
#     Edge 116, Type (0, 0), BuildingBlock: UVAHIK_clean_linker_0, # of connection points: 2
#     Edge 117, Type (0, 0), BuildingBlock: UVAHIK_clean_linker_0, # of connection points: 2
#     Edge 118, Type (0, 0), BuildingBlock: UVAHIK_clean_linker_0, # of connection points: 2
#     Edge 119, Type (0, 0), BuildingBlock: UVAHIK_clean_linker_0, # of connection points: 2
#     Edge 120, Type (0, 0), BuildingBlock: UVAHIK_clean_linker_0, # of connection points: 2
#     Edge 121, Type (0, 0), BuildingBlock: UVAHIK_clean_linker_0, # of connection points: 2
#     Edge 122, Type (0, 0), BuildingBlock: UVAHIK_clean_linker_0, # of connection points: 2
#     Edge 123, Type (0, 0), BuildingBlock: UVAHIK_clean_linker_0, # of connection points: 2
#     Edge 124, Type (0, 0), BuildingBlock: UVAHIK_clean_linker_0, # of connection points: 2
#     Edge 125, Type (0, 0), BuildingBlock: UVAHIK_clean_linker_0, # of connection points: 2
# Relax obj value: 0.119
# Max RMSD: 0.163
# Mean RMSD: 0.161
data_MOF--net-wlu--node1-XOMCOT_clean_sbu_0--edge1-UVAHIK_clean_linker_0
_symmetry_space_group_name_H-M    P1
_symmetry_Int_Tables_number       1
_symmetry_cell_setting            triclinic
loop_
_symmetry_equiv_pos_as_xyz
'x, y, z'
_cell_length_a     83.502351
_cell_length_b     83.567102
_cell_length_c     70.893385
_cell_angle_alpha  90.003898
_cell_angle_beta   90.005605
_cell_angle_gamma 119.96104
loop_
_atom_site_label
_atom_site_type_symbol
_atom_site_fract_x
_atom_site_fract_y
_atom_site_fract_z
_atom_type_partial_charge
Co0 Co 0.28395 0.19671 0.0271 0.0
C1 C 0.26363 0.15619 0.0191 0.0
C2 C 0.24882 0.16962 0.01009 0.0
C3 C 0.2396 0.1517 0.0037 0.0
N4 N 0.26377 0.17243 0.02005 0.0
N5 N 0.24895 0.14322 0.00925 0.0
H6 H 0.27449 0.15412 0.02451 0.0
H7 H 0.24551 0.18024 0.00662 0.0
C8 C 0.24996 0.19467 0.04394 0.0
O9 O 0.24482 0.17796 0.05011 0.0
N10 N 0.30416 0.22094 0.03351 0.0
C11 C 0.32198 0.22549 0.03565 0.0
C12 C 0.33213 0.24382 0.04063 0.0
C13 C 0.30365 0.23651 0.03739 0.0
N14 N 0.32059 0.25068 0.04177 0.0
C15 C 0.29527 0.17828 0.05338 0.0
C16 C 0.29007 0.19364 0.08564 0.0
C17 C 0.29934 0.18355 0.08713 0.0
C18 C 0.30155 0.17554 0.07067 0.0
C19 C 0.28411 0.19616 0.06801 0.0
N20 N 0.28659 0.18842 0.05207 0.0
H21 H 0.29879 0.17339 0.04087 0.0
H22 H 0.27871 0.20546 0.06718 0.0
H23 H 0.32721 0.21605 0.03404 0.0
H24 H 0.29125 0.23752 0.03705 0.0
O25 O 0.30079 0.19159 0.01303 0.0
O26 O 0.28526 0.20438 1.00123 0.0
O27 O 0.26561 0.2042 0.03585 0.0
C28 C 0.2968 0.19844 0.99849 0.0
H29 H 0.22762 0.14585 0.99456 0.0
H30 H 0.34678 0.25137 0.04374 0.0
H31 H 0.28806 0.20018 0.09788 0.0
H32 H 0.30917 0.16819 0.07083 0.0
Co33 Co 0.82257 0.0895 0.02713 0.0
C34 C 0.8623 0.11077 0.01739 0.0
C35 C 0.85049 0.0818 0.01164 0.0
C36 C 0.86819 0.09096 0.00451 0.0
N37 N 0.8468 0.09421 0.01968 0.0
N38 N 0.87555 0.10913 0.00811 0.0
H39 H 0.86339 0.12382 0.02115 0.0
H40 H 0.84061 0.06727 0.00998 0.0
C41 C 0.80567 0.05284 0.04873 0.0
O42 O 0.79616 0.05738 0.06011 0.0
N43 N 0.79815 0.08501 0.03404 0.0
C44 C 0.79401 0.09772 0.04042 0.0
C45 C 0.77519 0.08955 0.04263 0.0
C46 C 0.78164 0.06941 0.03178 0.0
N47 N 0.76748 0.07174 0.03738 0.0
C48 C 0.8382 0.12089 0.05165 0.0
C49 C 0.83749 0.10301 0.08462 0.0
C50 C 0.84136 0.12137 0.08557 0.0
C51 C 0.84243 0.1305 0.06868 0.0
C52 C 0.83365 0.09396 0.06714 0.0
N53 N 0.83273 0.1025 0.05105 0.0
H54 H 0.8384 0.12819 0.03905 0.0
H55 H 0.83127 0.0801 0.06687 0.0
H56 H 0.80386 0.11205 0.04313 0.0
H57 H 0.78 0.05656 0.02637 0.0
O58 O 0.82587 0.11009 0.01173 0.0
O59 O 0.81375 0.08124 1.00182 0.0
O60 O 0.81719 0.06452 0.03696 0.0
C61 C 0.81869 0.0983 0.998 0.0
H62 H 0.8749 0.08483 0.99666 0.0
H63 H 0.76777 0.09605 0.04822 0.0
H64 H 0.83724 0.09565 0.09729 0.0
H65 H 0.84554 0.14473 0.06866 0.0
Co66 Co 0.92324 0.73285 0.02166 0.0
C67 C 0.90455 0.75475 0.01406 0.0
C68 C 0.93261 0.76828 0.00448 0.0
C69 C 0.92441 0.77794 0.99785 0.0
N70 N 0.92025 0.75379 0.01483 0.0
N71 N 0.90677 0.76938 0.00388 0.0
H72 H 0.89129 0.74419 0.01915 0.0
H73 H 0.94628 0.7709 1.00079 0.0
C74 C 0.95644 0.76574 0.03802 0.0
O75 O 0.94545 0.77124 0.04511 0.0
N76 N 0.92617 0.71187 0.02793 0.0
C77 C 0.91227 0.69439 0.0302 0.0
C78 C 0.91946 0.68371 0.03642 0.0
C79 C 0.94167 0.71161 0.03288 0.0
N80 N 0.93795 0.69454 0.03826 0.0
C81 C 0.89497 0.72418 0.04916 0.0
C82 C 0.9161 0.72748 0.08046 0.0
C83 C 0.89699 0.72001 0.08272 0.0
C84 C 0.88649 0.71877 0.06679 0.0
C85 C 0.92405 0.73278 0.06253 0.0
N86 N 0.91356 0.73126 0.04708 0.0
H87 H 0.88618 0.72117 0.03703 0.0
H88 H 0.93844 0.73685 0.06104 0.0
H89 H 0.89778 0.68977 0.02806 0.0
H90 H 0.95526 0.72375 0.03333 0.0
O91 O 0.9004 0.71662 0.00863 0.0
O92 O 0.92817 0.73065 0.99547 0.0
O93 O 0.94963 0.75031 0.02935 0.0
C94 C 0.91043 0.71981 0.99357 0.0
H95 H 0.93064 0.78979 0.98854 0.0
H96 H 0.91156 0.66911 0.03955 0.0
H97 H 0.92477 0.72854 0.09231 0.0
H98 H 0.8716 0.71245 0.06763 0.0
Co99 Co 0.20014 0.27101 0.46557 0.0
C100 C 0.2389 0.29122 0.45234 0.0
C101 C 0.23697 0.29026 0.48259 0.0
C102 C 0.25537 0.29923 0.47762 0.0
N103 N 0.22672 0.28528 0.46674 0.0
N104 N 0.25652 0.29983 0.45862 0.0
H105 H 0.23495 0.28895 0.43761 0.0
H106 H 0.23143 0.28736 0.49676 0.0
C107 C 0.19021 0.29623 0.4875 0.0
O108 O 0.17876 0.29559 0.47441 0.0
N109 N 0.17323 0.25623 0.4649 0.0
C110 C 0.1627 0.24399 0.45154 0.0
C111 C 0.1445 0.23541 0.45706 0.0
C112 C 0.16121 0.25419 0.47878 0.0
N113 N 0.14347 0.24192 0.47418 0.0
C114 C 0.19444 0.27881 0.42748 0.0
C115 C 0.20728 0.31608 0.43229 0.0
C116 C 0.19962 0.30799 0.41478 0.0
C117 C 0.19376 0.28917 0.41238 0.0
C118 C 0.20802 0.30522 0.44692 0.0
N119 N 0.20045 0.28656 0.44483 0.0
H120 H 0.19044 0.26459 0.42505 0.0
H121 H 0.21466 0.31189 0.45997 0.0
H122 H 0.16777 0.24069 0.43901 0.0
H123 H 0.16541 0.26119 0.49217 0.0
O124 O 0.20218 0.25213 0.45149 0.0
O125 O 0.20047 0.25332 0.48263 0.0
O126 O 0.19915 0.28765 0.48545 0.0
C127 C 0.20215 0.24504 0.46788 0.0
H128 H 0.26701 0.30501 0.48722 0.0
H129 H 0.13304 0.22473 0.44921 0.0
H130 H 0.21244 0.33061 0.43488 0.0
H131 H 0.18883 0.28243 0.39888 0.0
Co132 Co 0.74881 0.93628 0.46952 0.0
C133 C 0.72967 0.95623 0.45609 0.0
C134 C 0.73067 0.95496 0.4863 0.0
C135 C 0.72149 0.9642 0.48156 0.0
N136 N 0.73567 0.94986 0.47038 0.0
N137 N 0.72071 0.96492 0.46256 0.0
H138 H 0.73146 0.95415 0.44135 0.0
H139 H 0.73353 0.95215 0.50042 0.0
C140 C 0.72057 0.90188 0.49078 0.0
O141 O 0.71987 0.89052 0.47756 0.0
N142 N 0.76256 0.92295 0.46928 0.0
C143 C 0.77663 0.92622 0.45758 0.0
C144 C 0.78406 0.9155 0.46282 0.0
C145 C 0.7623 0.91075 0.48205 0.0
N146 N 0.77499 0.9056 0.47818 0.0
C147 C 0.74093 0.91983 0.43254 0.0
C148 C 0.70284 0.90132 0.43568 0.0
C149 C 0.71087 0.8984 0.41966 0.0
C150 C 0.73016 0.90815 0.418 0.0
C151 C 0.71419 0.91293 0.45007 0.0
N152 N 0.73303 0.92131 0.44879 0.0
H153 H 0.75565 0.92772 0.43062 0.0
H154 H 0.70779 0.91496 0.46239 0.0
H155 H 0.78186 0.93634 0.44638 0.0
H156 H 0.7535 0.90616 0.4943 0.0
O157 O 0.76852 0.95658 0.45552 0.0
O158 O 0.76679 0.95376 0.48667 0.0
O159 O 0.73126 0.91928 0.48919 0.0
C160 C 0.7757 0.96339 0.47198 0.0
H161 H 0.71597 0.97006 0.49146 0.0
H162 H 0.79577 0.91562 0.45616 0.0
H163 H 0.68797 0.89431 0.43733 0.0
H164 H 0.73686 0.90682 0.4055 0.0
Co165 Co 0.08026 0.81257 0.46884 0.0
C166 C 0.0607 0.7733 0.4565 0.0
C167 C 0.06044 0.77628 0.48657 0.0
C168 C 0.05132 0.75777 0.48227 0.0
N169 N 0.06636 0.78598 0.47045 0.0
N170 N 0.05154 0.75585 0.46336 0.0
H171 H 0.06355 0.7768 0.44173 0.0
H172 H 0.06266 0.78229 0.50051 0.0
C173 C 0.11424 0.8224 0.49262 0.0
O174 O 0.12521 0.83587 0.48125 0.0
N175 N 0.09404 0.83942 0.4679 0.0
C176 C 0.09772 0.8507 0.45293 0.0
C177 C 0.10757 0.86875 0.45896 0.0
C178 C 0.10107 0.85086 0.4829 0.0
N179 N 0.10982 0.86883 0.4778 0.0
C180 C 0.09249 0.81445 0.4305 0.0
C181 C 0.11836 0.80382 0.43767 0.0
C182 C 0.1168 0.8091 0.41935 0.0
C183 C 0.10327 0.81392 0.41569 0.0
C184 C 0.10702 0.80415 0.45196 0.0
N185 N 0.09515 0.81066 0.4486 0.0
H186 H 0.0819 0.81785 0.42735 0.0
H187 H 0.10767 0.79883 0.4656 0.0
H188 H 0.09348 0.8464 0.4386 0.0
H189 H 0.09987 0.84609 0.4973 0.0
O190 O 0.06036 0.81211 0.45419 0.0
O191 O 0.06275 0.81404 0.48537 0.0
O192 O 0.097 0.81241 0.48913 0.0
C193 C 0.05344 0.81311 0.47033 0.0
H194 H 0.04489 0.74663 0.49239 0.0
H195 H 0.113 0.88088 0.45006 0.0
H196 H 0.12808 0.79917 0.44085 0.0
H197 H 0.10128 0.81758 0.40157 0.0
Co198 Co 0.73647 0.81898 0.97393 0.0
C199 C 0.75132 0.85665 0.99033 0.0
C200 C 0.7704 0.84664 0.99297 0.0
C201 C 0.77838 0.86407 1.00062 0.0
N202 N 0.75353 0.84204 0.98628 0.0
N203 N 0.7664 0.87037 0.99895 0.0
H204 H 0.73906 0.85733 0.98698 0.0
H205 H 0.77654 0.83793 0.99253 0.0
C206 C 0.76117 0.80624 0.95468 0.0
O207 O 0.74924 0.79698 0.94126 0.0
N208 N 0.71924 0.7958 0.96175 0.0
C209 C 0.7069 0.79337 0.94814 0.0
C210 C 0.69848 0.77539 0.94202 0.0
C211 C 0.7175 0.77894 0.96429 0.0
N212 N 0.70518 0.76639 0.95211 0.0
C213 C 0.72489 0.83957 0.95122 0.0
C214 C 0.74161 0.83861 0.91801 0.0
C215 C 0.728 0.84377 0.91739 0.0
C216 C 0.72032 0.8451 0.93447 0.0
C217 C 0.746 0.83342 0.93521 0.0
N218 N 0.73671 0.83269 0.95136 0.0
H219 H 0.71765 0.8395 0.96381 0.0
H220 H 0.75634 0.82941 0.9351 0.0
H221 H 0.70438 0.80391 0.94257 0.0
H222 H 0.72593 0.77622 0.97391 0.0
O223 O 0.71598 0.81852 0.98727 0.0
O224 O 0.73242 0.80618 0.99766 0.0
O225 O 0.75842 0.81645 0.96614 0.0
C226 C 0.71907 0.80963 1.00051 0.0
H227 H 0.79186 0.87143 0.00721 0.0
H228 H 0.6885 0.76944 0.9307 0.0
H229 H 0.7484 0.83801 0.90523 0.0
H230 H 0.7098 0.84905 0.93479 0.0
Co231 Co 0.19842 0.92297 0.98046 0.0
C232 C 0.15958 0.90023 0.99388 0.0
C233 C 0.16847 0.92914 0.99357 0.0
C234 C 0.1507 0.91971 1.00032 0.0
N235 N 0.17408 0.91697 0.98941 0.0
N236 N 0.14509 0.90152 1.00058 0.0
H237 H 0.15979 0.88743 0.99277 0.0
H238 H 0.17668 0.94391 0.99207 0.0
C239 C 0.21386 0.96091 0.9611 0.0
O240 O 0.22474 0.95855 0.94945 0.0
N241 N 0.22271 0.92863 0.97182 0.0
C242 C 0.22667 0.91692 0.96259 0.0
C243 C 0.24543 0.92543 0.95976 0.0
C244 C 0.23923 0.94394 0.97501 0.0
N245 N 0.25326 0.94244 0.96741 0.0
C246 C 0.17981 0.89108 0.95692 0.0
C247 C 0.185 0.90909 0.92291 0.0
C248 C 0.17851 0.89004 0.92282 0.0
C249 C 0.17522 0.88095 0.94017 0.0
C250 C 0.18914 0.9187 0.94006 0.0
N251 N 0.18752 0.90987 0.95679 0.0
H252 H 0.17814 0.88377 0.96994 0.0
H253 H 0.19404 0.93322 0.93953 0.0
H254 H 0.21668 0.90306 0.95827 0.0
H255 H 0.24094 0.95599 0.98249 0.0
O256 O 0.19724 0.90278 0.99511 0.0
O257 O 0.20827 0.93136 0.00544 0.0
O258 O 0.20219 0.94767 0.97148 0.0
C259 C 0.20469 0.91461 0.0088 0.0
H260 H 0.14251 0.92584 0.00457 0.0
H261 H 0.25272 0.91975 0.9522 0.0
H262 H 0.18723 0.91658 0.90981 0.0
H263 H 0.17019 0.86624 0.94083 0.0
Co264 Co 0.09442 0.27581 0.97008 0.0
C265 C 0.11541 0.25889 0.9865 0.0
C266 C 0.08649 0.2434 0.99294 0.0
C267 C 0.09513 0.23495 1.00145 0.0
N268 N 0.09915 0.25832 0.98341 0.0
N269 N 0.11335 0.24467 0.9974 0.0
H270 H 0.12849 0.26954 0.98108 0.0
H271 H 0.072 0.23917 0.99403 0.0
C272 C 0.05646 0.25188 0.95146 0.0
O273 O 0.05926 0.2636 0.9378 0.0
N274 N 0.08988 0.2936 0.95705 0.0
C275 C 0.1019 0.30716 0.94556 0.0
C276 C 0.0944 0.31774 0.94003 0.0
C277 C 0.07539 0.2965 0.95879 0.0
N278 N 0.07772 0.31101 0.94825 0.0
C279 C 0.12634 0.28518 0.94765 0.0
C280 C 0.10809 0.26943 0.91438 0.0
C281 C 0.12712 0.2821 0.91381 0.0
C282 C 0.13637 0.28922 0.93088 0.0
C283 C 0.0986 0.26542 0.9316 0.0
N284 N 0.10752 0.27424 0.94781 0.0
H285 H 0.13372 0.29231 0.9602 0.0
H286 H 0.08402 0.2559 0.93145 0.0
H287 H 0.11539 0.30955 0.94162 0.0
H288 H 0.06345 0.28822 0.96757 0.0
O289 O 0.11495 0.29608 0.98316 0.0
O290 O 0.08601 0.28116 0.9933 0.0
O291 O 0.06948 0.25435 0.96269 0.0
C292 C 0.10301 0.29404 0.99606 0.0
H293 H 0.0885 0.22285 0.01037 0.0
H294 H 0.10069 0.32941 0.9305 0.0
H295 H 0.10049 0.26322 0.90153 0.0
H296 H 0.15106 0.29908 0.93115 0.0
Co297 Co 0.81824 0.74028 0.53231 0.0
C298 C 0.85768 0.76099 0.5201 0.0
C299 C 0.84468 0.77736 0.51718 0.0
C300 C 0.86254 0.78746 0.51061 0.0
N301 N 0.84178 0.76098 0.5239 0.0
N302 N 0.8706 0.77706 0.51239 0.0
H303 H 0.85965 0.7493 0.52197 0.0
H304 H 0.83431 0.78146 0.51622 0.0
C305 C 0.81862 0.77297 0.55038 0.0
O306 O 0.83499 0.77785 0.55743 0.0
N307 N 0.79491 0.71949 0.54008 0.0
C308 C 0.79231 0.70261 0.54415 0.0
C309 C 0.77416 0.69126 0.54904 0.0
C310 C 0.77832 0.71829 0.54276 0.0
N311 N 0.76538 0.70109 0.54818 0.0
C312 C 0.84116 0.73408 0.55813 0.0
C313 C 0.82373 0.73554 0.59066 0.0
C314 C 0.83714 0.73018 0.59195 0.0
C315 C 0.84613 0.72983 0.57542 0.0
C316 C 0.81933 0.73992 0.57307 0.0
N317 N 0.82813 0.73937 0.55701 0.0
H318 H 0.84679 0.73162 0.54557 0.0
H319 H 0.80798 0.74262 0.5723 0.0
H320 H 0.80297 0.69885 0.54375 0.0
H321 H 0.7757 0.72961 0.54066 0.0
O322 O 0.82366 0.72348 0.51859 0.0
O323 O 0.80923 0.73744 0.50681 0.0
O324 O 0.80983 0.7579 0.54111 0.0
C325 C 0.8155 0.72614 0.50427 0.0
H326 H 0.86883 0.80099 0.50413 0.0
H327 H 0.76795 0.67694 0.5533 0.0
H328 H 0.8162 0.7357 0.60304 0.0
H329 H 0.85604 0.72505 0.57564 0.0
Co330 Co 0.27033 0.07832 0.53645 0.0
C331 C 0.25557 0.09982 0.51675 0.0
C332 C 0.23398 0.07482 0.52891 0.0
C333 C 0.2263 0.08478 0.52194 0.0
N334 N 0.25238 0.08416 0.52568 0.0
N335 N 0.23986 0.10052 0.51441 0.0
H336 H 0.26917 0.1111 0.51327 0.0
H337 H 0.22656 0.06227 0.53696 0.0
C338 C 0.24696 0.03996 0.55468 0.0
O339 O 0.26017 0.04161 0.56595 0.0
N340 N 0.2885 0.07298 0.54735 0.0
C341 C 0.3009 0.08303 0.56083 0.0
C342 C 0.31061 0.07442 0.56578 0.0
C343 C 0.29154 0.05884 0.54357 0.0
N344 N 0.30467 0.05923 0.55503 0.0
C345 C 0.27926 0.11011 0.55836 0.0
C346 C 0.26721 0.09312 0.59296 0.0
C347 C 0.27757 0.11252 0.59227 0.0
C348 C 0.28312 0.12092 0.57452 0.0
C349 C 0.26373 0.08276 0.57635 0.0
N350 N 0.27039 0.0913 0.55939 0.0
H351 H 0.28431 0.11704 0.54504 0.0
H352 H 0.25632 0.06799 0.57745 0.0
H353 H 0.30267 0.09563 0.56698 0.0
H354 H 0.28355 0.04791 0.53359 0.0
O355 O 0.29031 0.09868 0.52294 0.0
O356 O 0.27376 0.07016 0.51206 0.0
O357 O 0.249 0.05356 0.5446 0.0
C358 C 0.28699 0.08702 0.5093 0.0
H359 H 0.21196 0.08115 0.52318 0.0
H360 H 0.32104 0.07877 0.5767 0.0
H361 H 0.26217 0.08594 0.60624 0.0
H362 H 0.29128 0.13577 0.57306 0.0
Co363 Co 0.9366 0.19697 0.53764 0.0
C364 C 0.91919 0.15799 0.52458 0.0
C365 C 0.94738 0.17385 0.51576 0.0
C366 C 0.93974 0.15658 0.50763 0.0
N367 N 0.93455 0.17465 0.52667 0.0
N368 N 0.92194 0.14669 0.5131 0.0
H369 H 0.90598 0.1543 0.53057 0.0
H370 H 0.96109 0.18535 0.51313 0.0
C371 C 0.96841 0.19432 0.55296 0.0
O372 O 0.95667 0.17707 0.55743 0.0
N373 N 0.93827 0.21911 0.54807 0.0
C374 C 0.92348 0.22069 0.55267 0.0
C375 C 0.92945 0.23754 0.56095 0.0
C376 C 0.95317 0.23511 0.55363 0.0
N377 N 0.94808 0.2466 0.5617 0.0
C378 C 0.90624 0.17319 0.56158 0.0
C379 C 0.92503 0.18565 0.5953 0.0
C380 C 0.90584 0.17386 0.59567 0.0
C381 C 0.89652 0.16728 0.57854 0.0
C382 C 0.9343 0.19097 0.578 0.0
N383 N 0.92498 0.18464 0.56131 0.0
H384 H 0.8983 0.16979 0.54876 0.0
H385 H 0.94874 0.20136 0.57815 0.0
H386 H 0.90923 0.21012 0.55051 0.0
H387 H 0.96729 0.23806 0.55233 0.0
O388 O 0.9148 0.19242 0.52362 0.0
O389 O 0.94363 0.20862 0.51324 0.0
O390 O 0.9624 0.20466 0.54662 0.0
C391 C 0.9261 0.20208 0.51016 0.0
H392 H 0.94647 0.15205 0.49766 0.0
H393 H 0.92067 0.24272 0.56604 0.0
H394 H 0.93269 0.19139 0.60823 0.0
H395 H 0.88159 0.1588 0.57815 0.0
Co396 Co 0.94724 0.52565 0.3629 0.0
C397 C 0.9256 0.48525 0.35404 0.0
C398 C 0.9115 0.49974 0.3462 0.0
C399 C 0.90171 0.48206 0.33925 0.0
N400 N 0.92638 0.50178 0.35578 0.0
N401 N 0.91062 0.47299 0.34413 0.0
H402 H 0.93646 0.48261 0.35826 0.0
H403 H 0.90863 0.51076 0.34326 0.0
C404 C 0.91422 0.52611 0.37932 0.0
O405 O 0.90837 0.50958 0.38644 0.0
N406 N 0.96801 0.54951 0.36935 0.0
C407 C 0.98514 0.553 0.3738 0.0
C408 C 0.99569 0.57132 0.3787 0.0
C409 C 0.96833 0.5657 0.37161 0.0
N410 N 0.9851 0.57928 0.37739 0.0
C411 C 0.95543 0.50547 0.3902 0.0
C412 C 0.95259 0.52342 0.42164 0.0
C413 C 0.95977 0.51151 0.42381 0.0
C414 C 0.96078 0.50221 0.4078 0.0
C415 C 0.94737 0.52629 0.40374 0.0
N416 N 0.9487 0.51728 0.38823 0.0
H417 H 0.9582 0.49958 0.37801 0.0
H418 H 0.94351 0.53676 0.40231 0.0
H419 H 0.9895 0.5428 0.374 0.0
H420 H 0.95652 0.5675 0.36928 0.0
O421 O 0.96379 0.51947 0.3498 0.0
O422 O 0.94949 0.53304 0.33684 0.0
O423 O 0.92972 0.53448 0.37074 0.0
C424 C 0.96058 0.52645 0.33484 0.0
H425 H 0.88945 0.47657 0.33052 0.0
H426 H 0.00985 0.57805 0.3836 0.0
H427 H 0.95165 0.53104 0.43353 0.0
H428 H 0.96683 0.49339 0.40857 0.0
Co429 Co 0.4874 0.42165 0.36031 0.0
C430 C 0.5277 0.44078 0.35179 0.0
C431 C 0.5146 0.41168 0.34693 0.0
C432 C 0.53254 0.41971 0.34059 0.0
N433 N 0.5116 0.42481 0.35439 0.0
N434 N 0.54076 0.43806 0.34357 0.0
H435 H 0.52943 0.45429 0.35409 0.0
H436 H 0.50414 0.39737 0.34499 0.0
C437 C 0.48688 0.38915 0.37938 0.0
O438 O 0.503 0.40028 0.38712 0.0
N439 N 0.46329 0.41856 0.36562 0.0
C440 C 0.45927 0.43226 0.36705 0.0
C441 C 0.44082 0.42468 0.37133 0.0
C442 C 0.44729 0.40284 0.36924 0.0
N443 N 0.43336 0.40623 0.37276 0.0
C444 C 0.50684 0.45133 0.38644 0.0
C445 C 0.48841 0.43206 0.41844 0.0
C446 C 0.50001 0.45126 0.41964 0.0
C447 C 0.50961 0.46079 0.40343 0.0
C448 C 0.48599 0.4231 0.40109 0.0
N449 N 0.49521 0.43269 0.3853 0.0
H450 H 0.51298 0.45938 0.37396 0.0
H451 H 0.47561 0.40868 0.4002 0.0
H452 H 0.46913 0.44681 0.36545 0.0
H453 H 0.4458 0.38922 0.36936 0.0
O454 O 0.49359 0.44367 0.34584 0.0
O455 O 0.48039 0.41523 0.33433 0.0
O456 O 0.47871 0.39575 0.36955 0.0
C457 C 0.48671 0.43273 0.33138 0.0
H458 H 0.53874 0.41263 0.33358 0.0
H459 H 0.43357 0.4322 0.37382 0.0
H460 H 0.48032 0.4242 0.43048 0.0
H461 H 0.51863 0.47564 0.40365 0.0
Co462 Co 0.59396 0.06743 0.35839 0.0
C463 C 0.57306 0.08696 0.34948 0.0
C464 C 0.60193 0.10353 0.3434 0.0
C465 C 0.59321 0.11294 0.33754 0.0
N466 N 0.58943 0.08743 0.35147 0.0
N467 N 0.57504 0.10245 0.34126 0.0
H468 H 0.55982 0.07526 0.35294 0.0
H469 H 0.61629 0.10776 0.34098 0.0
C470 C 0.62526 0.10111 0.3764 0.0
O471 O 0.61331 0.10558 0.383 0.0
N472 N 0.5984 0.04745 0.36469 0.0
C473 C 0.58525 0.02984 0.36806 0.0
C474 C 0.59366 0.01991 0.37307 0.0
C475 C 0.61466 0.04804 0.36777 0.0
N476 N 0.61214 0.03134 0.37294 0.0
C477 C 0.56405 0.05647 0.38444 0.0
C478 C 0.58407 0.0603 0.41681 0.0
C479 C 0.56477 0.05191 0.41813 0.0
C480 C 0.55483 0.05035 0.40164 0.0
C481 C 0.59279 0.06625 0.39927 0.0
N482 N 0.58283 0.06449 0.3833 0.0
H483 H 0.55579 0.05331 0.37189 0.0
H484 H 0.60741 0.07111 0.39848 0.0
H485 H 0.57053 0.02468 0.36741 0.0
H486 H 0.62801 0.06039 0.36641 0.0
O487 O 0.57219 0.05041 0.34427 0.0
O488 O 0.6005 0.06642 0.3325 0.0
O489 O 0.61961 0.08594 0.36747 0.0
C490 C 0.58308 0.05465 0.32974 0.0
H491 H 0.59956 0.12597 0.33004 0.0
H492 H 0.58666 0.00551 0.3772 0.0
H493 H 0.59237 0.06169 0.4291 0.0
H494 H 0.53987 0.04334 0.40172 0.0
Co495 Co 0.86609 0.59888 0.79825 0.0
C496 C 0.905 0.61839 0.78462 0.0
C497 C 0.90299 0.61936 0.81478 0.0
C498 C 0.92138 0.6283 0.80988 0.0
N499 N 0.89276 0.61321 0.79897 0.0
N500 N 0.92264 0.62771 0.79094 0.0
H501 H 0.90107 0.61524 0.76996 0.0
H502 H 0.89743 0.61738 0.82891 0.0
C503 C 0.85735 0.62577 0.81835 0.0
O504 O 0.8467 0.62546 0.80454 0.0
N505 N 0.83908 0.58396 0.79829 0.0
C506 C 0.82845 0.56952 0.78688 0.0
C507 C 0.81039 0.56115 0.79291 0.0
C508 C 0.82723 0.58351 0.81163 0.0
N509 N 0.80964 0.57003 0.80844 0.0
C510 C 0.85662 0.60541 0.76102 0.0
C511 C 0.87493 0.64352 0.76344 0.0
C512 C 0.86409 0.63495 0.74749 0.0
C513 C 0.8552 0.61565 0.74621 0.0
C514 C 0.87578 0.6327 0.77806 0.0
N515 N 0.86593 0.61383 0.77715 0.0
H516 H 0.85028 0.5907 0.75939 0.0
H517 H 0.8841 0.63953 0.79032 0.0
H518 H 0.83345 0.5647 0.7754 0.0
H519 H 0.83136 0.59201 0.82412 0.0
O520 O 0.8679 0.57959 0.78473 0.0
O521 O 0.86675 0.5818 0.81584 0.0
O522 O 0.8654 0.61621 0.81745 0.0
C523 C 0.86804 0.57297 0.80136 0.0
H524 H 0.93294 0.63499 0.81951 0.0
H525 H 0.79875 0.54929 0.7865 0.0
H526 H 0.88229 0.65841 0.76487 0.0
H527 H 0.8473 0.60852 0.73378 0.0
Co528 Co 0.41291 0.26931 0.79868 0.0
C529 C 0.39454 0.28976 0.78521 0.0
C530 C 0.39628 0.28961 0.81544 0.0
C531 C 0.38778 0.29948 0.81041 0.0
N532 N 0.4005 0.28355 0.79964 0.0
N533 N 0.38665 0.29951 0.79143 0.0
H534 H 0.39606 0.28736 0.7705 0.0
H535 H 0.39916 0.28698 0.82962 0.0
C536 C 0.38782 0.23478 0.82093 0.0
O537 O 0.39113 0.22444 0.80945 0.0
N538 N 0.42572 0.25519 0.79822 0.0
C539 C 0.4317 0.24978 0.78312 0.0
C540 C 0.43865 0.23882 0.78915 0.0
C541 C 0.43007 0.24816 0.81332 0.0
N542 N 0.4376 0.23783 0.80808 0.0
C543 C 0.404 0.25857 0.75964 0.0
C544 C 0.3674 0.23222 0.76533 0.0
C545 C 0.37491 0.23425 0.74727 0.0
C546 C 0.39329 0.24809 0.74433 0.0
C547 C 0.37848 0.24322 0.78011 0.0
N548 N 0.39695 0.2552 0.77753 0.0
H549 H 0.41808 0.26928 0.75711 0.0
H550 H 0.37195 0.24215 0.7935 0.0
H551 H 0.431 0.25318 0.76863 0.0
H552 H 0.42673 0.2496 0.82774 0.0
O553 O 0.4334 0.28946 0.78525 0.0
O554 O 0.43099 0.28613 0.81629 0.0
O555 O 0.3949 0.2521 0.81802 0.0
C556 C 0.44034 0.29591 0.80187 0.0
H557 H 0.38248 0.30581 0.82 0.0
H558 H 0.44365 0.23169 0.78029 0.0
H559 H 0.35297 0.22233 0.76797 0.0
H560 H 0.39946 0.2505 0.73044 0.0
Co561 Co 0.74248 0.14329 0.79936 0.0
C562 C 0.72313 0.10609 0.78167 0.0
C563 C 0.72253 0.10481 0.81196 0.0
C564 C 0.71281 0.08709 0.80499 0.0
N565 N 0.72897 0.11667 0.79734 0.0
N566 N 0.71328 0.08794 0.78599 0.0
H567 H 0.72585 0.11153 0.76745 0.0
H568 H 0.72467 0.10881 0.82666 0.0
C569 C 0.77698 0.14952 0.81977 0.0
O570 O 0.78774 0.16307 0.80837 0.0
N571 N 0.75561 0.17018 0.80192 0.0
C572 C 0.75377 0.18219 0.79063 0.0
C573 C 0.76371 0.19967 0.798 0.0
C574 C 0.76595 0.18063 0.81662 0.0
N575 N 0.77145 0.19872 0.81431 0.0
C576 C 0.75882 0.15423 0.76222 0.0
C577 C 0.77854 0.13575 0.76371 0.0
C578 C 0.78085 0.14698 0.74811 0.0
C579 C 0.77055 0.15603 0.7473 0.0
C580 C 0.76689 0.13458 0.77844 0.0
N581 N 0.75788 0.14449 0.77803 0.0
H582 H 0.75031 0.16044 0.76084 0.0
H583 H 0.7651 0.12563 0.7902 0.0
H584 H 0.74506 0.17859 0.77832 0.0
H585 H 0.76876 0.17514 0.82918 0.0
O586 O 0.72236 0.14406 0.78636 0.0
O587 O 0.72467 0.14191 0.81731 0.0
O588 O 0.75944 0.141 0.81788 0.0
C589 C 0.71522 0.14259 0.80309 0.0
H590 H 0.70617 0.07452 0.81325 0.0
H591 H 0.76502 0.2121 0.79182 0.0
H592 H 0.78594 0.12821 0.76471 0.0
H593 H 0.77136 0.16422 0.73512 0.0
Co594 Co 0.4063 0.15225 0.3078 0.0
C595 C 0.42223 0.18971 0.325 0.0
C596 C 0.43992 0.17814 0.32836 0.0
C597 C 0.44816 0.19521 0.33687 0.0
N598 N 0.42376 0.17475 0.32072 0.0
N599 N 0.43704 0.20252 0.33481 0.0
H600 H 0.41033 0.19097 0.32153 0.0
H601 H 0.44529 0.16875 0.32806 0.0
C602 C 0.43033 0.13911 0.28773 0.0
O603 O 0.4176 0.12911 0.27527 0.0
N604 N 0.38847 0.12962 0.29515 0.0
C605 C 0.37551 0.12798 0.2827 0.0
C606 C 0.36623 0.11022 0.27602 0.0
C607 C 0.38615 0.11243 0.29661 0.0
N608 N 0.37307 0.1005 0.28453 0.0
C609 C 0.39555 0.17425 0.28613 0.0
C610 C 0.41107 0.17256 0.25236 0.0
C611 C 0.39811 0.17856 0.2523 0.0
C612 C 0.39106 0.18027 0.26962 0.0
C613 C 0.41542 0.16694 0.26927 0.0
N614 N 0.40676 0.16667 0.28574 0.0
H615 H 0.38861 0.17427 0.29893 0.0
H616 H 0.4251 0.16208 0.26865 0.0
H617 H 0.37297 0.1389 0.27845 0.0
H618 H 0.3947 0.10906 0.30533 0.0
O619 O 0.38604 0.15179 0.32164 0.0
O620 O 0.40213 0.13879 0.33113 0.0
O621 O 0.42813 0.14971 0.29917 0.0
C622 C 0.38894 0.14238 0.33446 0.0
H623 H 0.46141 0.2017 0.34394 0.0
H624 H 0.35542 0.10492 0.26546 0.0
H625 H 0.41729 0.17155 0.23933 0.0
H626 H 0.38102 0.18485 0.27029 0.0
Co627 Co 0.86375 0.25585 0.30787 0.0
C628 C 0.82412 0.23667 0.32026 0.0
C629 C 0.84015 0.26378 0.33206 0.0
C630 C 0.82282 0.25549 0.34003 0.0
N631 N 0.84101 0.25205 0.31957 0.0
N632 N 0.81277 0.23844 0.33262 0.0
H633 H 0.82037 0.22403 0.31284 0.0
H634 H 0.85163 0.27722 0.33566 0.0
C635 C 0.85799 0.28635 0.29396 0.0
O636 O 0.84048 0.27416 0.29119 0.0
N637 N 0.88642 0.25942 0.29671 0.0
C638 C 0.88941 0.24563 0.29156 0.0
C639 C 0.90647 0.25308 0.28325 0.0
C640 C 0.90177 0.27518 0.29151 0.0
N641 N 0.91425 0.27165 0.28309 0.0
C642 C 0.84197 0.22443 0.28452 0.0
C643 C 0.85183 0.24319 0.25062 0.0
C644 C 0.84321 0.22384 0.25037 0.0
C645 C 0.83771 0.21448 0.26766 0.0
C646 C 0.85595 0.25264 0.26782 0.0
N647 N 0.85123 0.24331 0.28461 0.0
H648 H 0.83923 0.21683 0.29753 0.0
H649 H 0.8644 0.26746 0.26744 0.0
H650 H 0.87972 0.23109 0.29351 0.0
H651 H 0.90361 0.28884 0.29344 0.0
O652 O 0.86148 0.23495 0.32204 0.0
O653 O 0.87607 0.26402 0.33184 0.0
O654 O 0.86932 0.28101 0.29878 0.0
C655 C 0.87099 0.24684 0.33514 0.0
H656 H 0.8181 0.2614 0.35075 0.0
H657 H 0.9127 0.24535 0.27785 0.0
H658 H 0.8563 0.25109 0.23767 0.0
H659 H 0.83146 0.19961 0.26835 0.0
Co660 Co 0.7584 0.60655 0.30422 0.0
C661 C 0.77821 0.58867 0.32153 0.0
C662 C 0.75648 0.57048 0.30285 0.0
C663 C 0.76575 0.56171 0.3089 0.0
N664 N 0.7642 0.58739 0.31079 0.0
N665 N 0.77946 0.57316 0.32057 0.0
H666 H 0.788 0.60099 0.32901 0.0
H667 H 0.74544 0.5651 0.29258 0.0
C668 C 0.71915 0.58531 0.28719 0.0
O669 O 0.72046 0.59966 0.27823 0.0
N670 N 0.75328 0.62607 0.29759 0.0
C671 C 0.76522 0.64168 0.28844 0.0
C672 C 0.75778 0.65304 0.28729 0.0
C673 C 0.73895 0.62846 0.30252 0.0
N674 N 0.74123 0.64464 0.29595 0.0
C675 C 0.78878 0.61602 0.27972 0.0
C676 C 0.7706 0.61232 0.24606 0.0
C677 C 0.78996 0.62096 0.24597 0.0
C678 C 0.79898 0.62212 0.26302 0.0
C679 C 0.76094 0.60638 0.26308 0.0
N680 N 0.7701 0.60903 0.27976 0.0
H681 H 0.79609 0.61791 0.29284 0.0
H682 H 0.74627 0.60052 0.2627 0.0
H683 H 0.77854 0.64468 0.28301 0.0
H684 H 0.727 0.61847 0.3104 0.0
O685 O 0.77966 0.62491 0.31813 0.0
O686 O 0.75156 0.60759 0.32996 0.0
O687 O 0.73307 0.58625 0.29581 0.0
C688 C 0.76858 0.62059 0.33254 0.0
H689 H 0.76294 0.54812 0.30459 0.0
H690 H 0.76379 0.66622 0.28011 0.0
H691 H 0.763 0.61069 0.23315 0.0
H692 H 0.8139 0.62866 0.26369 0.0
Co693 Co 0.48211 0.07475 0.86841 0.0
C694 C 0.52184 0.09668 0.85758 0.0
C695 C 0.5059 0.10817 0.84651 0.0
C696 C 0.52354 0.11798 0.83929 0.0
N697 N 0.50485 0.09487 0.85811 0.0
N698 N 0.53352 0.11069 0.84627 0.0
H699 H 0.52545 0.08733 0.86422 0.0
H700 H 0.49438 0.1101 0.84294 0.0
C701 C 0.4854 0.10963 0.88407 0.0
O702 O 0.50292 0.11573 0.88788 0.0
N703 N 0.45943 0.05446 0.87834 0.0
C704 C 0.45605 0.03701 0.88031 0.0
C705 C 0.43962 0.02684 0.88966 0.0
C706 C 0.44496 0.05469 0.88665 0.0
N707 N 0.43267 0.03794 0.89379 0.0
C708 C 0.50389 0.06479 0.89115 0.0
C709 C 0.49459 0.07311 0.92572 0.0
C710 C 0.50404 0.06322 0.92511 0.0
C711 C 0.50901 0.05941 0.90761 0.0
C712 C 0.4895 0.0781 0.90881 0.0
N713 N 0.49419 0.07398 0.89171 0.0
H714 H 0.50669 0.06032 0.87793 0.0
H715 H 0.48061 0.08398 0.90966 0.0
H716 H 0.46519 0.03208 0.87581 0.0
H717 H 0.44378 0.06694 0.88815 0.0
O718 O 0.48585 0.05755 0.85333 0.0
O719 O 0.47069 0.07153 0.84392 0.0
O720 O 0.47513 0.09307 0.87831 0.0
C721 C 0.47666 0.06021 0.8401 0.0
H722 H 0.52848 0.12926 0.82931 0.0
H723 H 0.43338 0.01237 0.8933 0.0
H724 H 0.49007 0.07581 0.93906 0.0
H725 H 0.51602 0.05147 0.90662 0.0
Co726 Co 0.93394 0.40829 0.87712 0.0
C727 C 0.91538 0.4254 0.85591 0.0
C728 C 0.8966 0.40309 0.87364 0.0
C729 C 0.88746 0.41149 0.86622 0.0
N730 N 0.91413 0.41171 0.86716 0.0
N731 N 0.89931 0.4256 0.8552 0.0
H732 H 0.9281 0.43599 0.84966 0.0
H733 H 0.89113 0.39242 0.88427 0.0
C734 C 0.9133 0.36825 0.89277 0.0
O735 O 0.92728 0.36967 0.90256 0.0
N736 N 0.95412 0.40567 0.88721 0.0
C737 C 0.96774 0.41856 0.89802 0.0
C738 C 0.98048 0.41318 0.90164 0.0
C739 C 0.95924 0.39292 0.88369 0.0
N740 N 0.97509 0.39701 0.89279 0.0
C741 C 0.93587 0.43672 0.9007 0.0
C742 C 0.93303 0.41948 0.93481 0.0
C743 C 0.93814 0.43822 0.93475 0.0
C744 C 0.93885 0.44663 0.91743 0.0
C745 C 0.92996 0.40999 0.91774 0.0
N746 N 0.93212 0.41884 0.90094 0.0
H747 H 0.93772 0.44379 0.88744 0.0
H748 H 0.92716 0.39599 0.91812 0.0
H749 H 0.96846 0.43116 0.9029 0.0
H750 H 0.9515 0.3809 0.87485 0.0
O751 O 0.95234 0.43065 0.86472 0.0
O752 O 0.93898 0.40251 0.85231 0.0
O753 O 0.91432 0.3822 0.88417 0.0
C754 C 0.95075 0.42005 0.85052 0.0
H755 H 0.87347 0.40811 0.86956 0.0
H756 H 0.99255 0.42039 0.91055 0.0
H757 H 0.93215 0.4124 0.9479 0.0
H758 H 0.94287 0.46111 0.91669 0.0
Co759 Co 0.60196 0.52856 0.87359 0.0
C760 C 0.58351 0.48997 0.85788 0.0
C761 C 0.60936 0.50813 0.84453 0.0
C762 C 0.60155 0.49125 0.83559 0.0
N763 N 0.5981 0.50736 0.85858 0.0
N764 N 0.58529 0.47986 0.84402 0.0
H765 H 0.57145 0.48479 0.8667 0.0
H766 H 0.62228 0.52028 0.84082 0.0
C767 C 0.63253 0.52145 0.88352 0.0
O768 O 0.62018 0.50381 0.88492 0.0
N769 N 0.6058 0.5498 0.88804 0.0
C770 C 0.59278 0.55104 0.89812 0.0
C771 C 0.60081 0.56791 0.90699 0.0
C772 C 0.62155 0.56607 0.89061 0.0
N773 N 0.61886 0.57734 0.90228 0.0
C774 C 0.57089 0.50357 0.89564 0.0
C775 C 0.58948 0.50875 0.92929 0.0
C776 C 0.57005 0.4993 0.92949 0.0
C777 C 0.56085 0.49639 0.9122 0.0
C778 C 0.59905 0.51588 0.91232 0.0
N779 N 0.58977 0.5133 0.89568 0.0
H780 H 0.56326 0.50244 0.88296 0.0
H781 H 0.61386 0.52464 0.91296 0.0
H782 H 0.57841 0.54041 0.89898 0.0
H783 H 0.63468 0.5695 0.88429 0.0
O784 O 0.5807 0.52757 0.86153 0.0
O785 O 0.60946 0.54342 0.85095 0.0
O786 O 0.62732 0.53329 0.88097 0.0
C787 C 0.5921 0.53826 0.84865 0.0
H788 H 0.60734 0.48768 0.82375 0.0
H789 H 0.59383 0.57301 0.91594 0.0
H790 H 0.59729 0.51141 0.94223 0.0
H791 H 0.54594 0.48979 0.91149 0.0
Co792 Co 0.60905 0.85766 0.69441 0.0
C793 C 0.59051 0.8176 0.6857 0.0
C794 C 0.57229 0.82859 0.68258 0.0
C795 C 0.56313 0.81045 0.67685 0.0
N796 N 0.5894 0.83305 0.68826 0.0
N797 N 0.57458 0.8035 0.67873 0.0
H798 H 0.60291 0.81693 0.6883 0.0
H799 H 0.56711 0.83811 0.68165 0.0
C800 C 0.58944 0.87567 0.7147 0.0
O801 O 0.60394 0.88678 0.72486 0.0
N802 N 0.62905 0.88237 0.70007 0.0
C803 C 0.64581 0.88666 0.70687 0.0
C804 C 0.65659 0.90554 0.70815 0.0
C805 C 0.63014 0.89881 0.69662 0.0
N806 N 0.64666 0.91313 0.7019 0.0
C807 C 0.62479 0.84207 0.71898 0.0
C808 C 0.61141 0.84712 0.75267 0.0
C809 C 0.62503 0.84197 0.75311 0.0
C810 C 0.63117 0.83878 0.7359 0.0
C811 C 0.60526 0.85014 0.73532 0.0
N812 N 0.6128 0.84873 0.71872 0.0
H813 H 0.63048 0.8402 0.70609 0.0
H814 H 0.59467 0.85382 0.73559 0.0
H815 H 0.65007 0.87683 0.71062 0.0
H816 H 0.61897 0.90029 0.69076 0.0
O817 O 0.62607 0.85388 0.67911 0.0
O818 O 0.60873 0.86511 0.66863 0.0
O819 O 0.58952 0.86324 0.70422 0.0
C820 C 0.62091 0.86018 0.66502 0.0
H821 H 0.54941 0.80331 0.67079 0.0
H822 H 0.67044 0.9131 0.71389 0.0
H823 H 0.60572 0.84907 0.76563 0.0
H824 H 0.64161 0.83472 0.7354 0.0
Co825 Co 0.15586 0.75609 0.6981 0.0
C826 C 0.19612 0.77475 0.68872 0.0
C827 C 0.1818 0.74607 0.68142 0.0
C828 C 0.19962 0.75389 0.67479 0.0
N829 N 0.17963 0.75902 0.69055 0.0
N830 N 0.20864 0.77198 0.67928 0.0
H831 H 0.19872 0.78815 0.69318 0.0
H832 H 0.17084 0.73213 0.67863 0.0
C833 C 0.15573 0.72283 0.71469 0.0
O834 O 0.17213 0.73352 0.72209 0.0
N835 N 0.13215 0.75321 0.70507 0.0
C836 C 0.1289 0.76713 0.70879 0.0
C837 C 0.11076 0.7598 0.71414 0.0
C838 C 0.11593 0.73756 0.70824 0.0
N839 N 0.10256 0.74118 0.71392 0.0
C840 C 0.17616 0.7852 0.72457 0.0
C841 C 0.15952 0.76493 0.75666 0.0
C842 C 0.17077 0.78416 0.75829 0.0
C843 C 0.17944 0.79421 0.74193 0.0
C844 C 0.15649 0.75645 0.73896 0.0
N845 N 0.16484 0.76653 0.72311 0.0
H846 H 0.18154 0.7936 0.71214 0.0
H847 H 0.14633 0.74198 0.73797 0.0
H848 H 0.1391 0.78165 0.70795 0.0
H849 H 0.11409 0.72385 0.70689 0.0
O850 O 0.16174 0.77849 0.68444 0.0
O851 O 0.14769 0.75026 0.67236 0.0
O852 O 0.14723 0.72991 0.70626 0.0
C853 C 0.15414 0.76784 0.6699 0.0
H854 H 0.20508 0.74701 0.66621 0.0
H855 H 0.10419 0.7677 0.7179 0.0
H856 H 0.15244 0.7565 0.76881 0.0
H857 H 0.18771 0.80913 0.74221 0.0
Co858 Co 0.25961 0.40325 0.69145 0.0
C859 C 0.23904 0.4233 0.68374 0.0
C860 C 0.26793 0.43985 0.67792 0.0
C861 C 0.25931 0.44936 0.67215 0.0
N862 N 0.25535 0.42367 0.68573 0.0
N863 N 0.24105 0.4389 0.67565 0.0
H864 H 0.22581 0.41131 0.68652 0.0
H865 H 0.28227 0.44406 0.67545 0.0
C866 C 0.29174 0.43614 0.70947 0.0
O867 O 0.28009 0.4405 0.71711 0.0
N868 N 0.26379 0.38283 0.6965 0.0
C869 C 0.25059 0.3649 0.69773 0.0
C870 C 0.25876 0.35461 0.7022 0.0
C871 C 0.27983 0.38323 0.70048 0.0
N872 N 0.2771 0.36614 0.704 0.0
C873 C 0.23085 0.39261 0.7188 0.0
C874 C 0.2516 0.39449 0.74993 0.0
C875 C 0.23236 0.38638 0.75197 0.0
C876 C 0.22208 0.38587 0.73611 0.0
C877 C 0.25983 0.40097 0.73227 0.0
N878 N 0.24951 0.40009 0.7169 0.0
H879 H 0.22225 0.39032 0.70666 0.0
H880 H 0.27434 0.40552 0.73082 0.0
H881 H 0.23594 0.35965 0.69594 0.0
H882 H 0.29319 0.39568 0.70096 0.0
O883 O 0.23716 0.38673 0.6781 0.0
O884 O 0.26488 0.40242 0.66501 0.0
O885 O 0.28571 0.42133 0.69979 0.0
C886 C 0.24728 0.3909 0.66299 0.0
H887 H 0.26603 0.46265 0.66521 0.0
H888 H 0.25168 0.33985 0.70463 0.0
H889 H 0.2602 0.3952 0.76169 0.0
H890 H 0.20715 0.37918 0.73665 0.0
Co891 Co 0.53613 0.9347 0.13246 0.0
C892 C 0.57407 0.95351 0.11664 0.0
C893 C 0.57403 0.95262 0.14693 0.0
C894 C 0.59207 0.96111 0.14075 0.0
N895 N 0.5628 0.94786 0.13181 0.0
N896 N 0.59204 0.9617 0.12174 0.0
H897 H 0.56927 0.95148 0.10219 0.0
H898 H 0.56939 0.95003 0.16143 0.0
C899 C 0.52731 0.96081 0.15366 0.0
O900 O 0.5134 0.95705 0.14235 0.0
N901 N 0.50922 0.92105 0.13357 0.0
C902 C 0.49735 0.91046 0.11996 0.0
C903 C 0.47962 0.90231 0.12685 0.0
C904 C 0.49845 0.91845 0.14885 0.0
N905 N 0.4803 0.90744 0.14498 0.0
C906 C 0.53033 0.94095 0.09366 0.0
C907 C 0.54198 0.97809 0.09727 0.0
C908 C 0.53451 0.96942 0.07995 0.0
C909 C 0.52922 0.95068 0.07814 0.0
C910 C 0.54308 0.96788 0.11231 0.0
N911 N 0.53603 0.94922 0.11085 0.0
H912 H 0.52689 0.9268 0.0917 0.0
H913 H 0.54982 0.97517 0.12505 0.0
H914 H 0.50108 0.90817 0.1061 0.0
H915 H 0.50379 0.92433 0.16259 0.0
O916 O 0.5359 0.91398 0.11965 0.0
O917 O 0.53652 0.91782 0.15061 0.0
O918 O 0.53734 0.95342 0.15114 0.0
C919 C 0.53643 0.90791 0.13646 0.0
H920 H 0.60429 0.96671 0.14955 0.0
H921 H 0.46716 0.89344 0.119 0.0
H922 H 0.54674 0.9926 0.09941 0.0
H923 H 0.52441 0.94356 0.06479 0.0
Co924 Co 0.07715 0.60227 0.13426 0.0
C925 C 0.0589 0.62286 0.12139 0.0
C926 C 0.05974 0.62167 0.15162 0.0
C927 C 0.05095 0.6313 0.14668 0.0
N928 N 0.06462 0.61636 0.13576 0.0
N929 N 0.05038 0.63199 0.12767 0.0
H930 H 0.06095 0.62094 0.10668 0.0
H931 H 0.06224 0.6186 0.16577 0.0
C932 C 0.05232 0.56826 0.15728 0.0
O933 O 0.05277 0.55737 0.14416 0.0
N934 N 0.09007 0.58823 0.13326 0.0
C935 C 0.09777 0.58471 0.11823 0.0
C936 C 0.1048 0.57369 0.12381 0.0
C937 C 0.09357 0.58011 0.148 0.0
N938 N 0.10209 0.57078 0.14249 0.0
C939 C 0.06628 0.58867 0.09632 0.0
C940 C 0.02916 0.56583 0.10375 0.0
C941 C 0.0358 0.56538 0.08569 0.0
C942 C 0.0546 0.57747 0.08195 0.0
C943 C 0.0414 0.57713 0.11773 0.0
N944 N 0.05996 0.58734 0.11432 0.0
H945 H 0.08038 0.59859 0.09285 0.0
H946 H 0.0358 0.57777 0.13125 0.0
H947 H 0.09869 0.58991 0.10416 0.0
H948 H 0.08949 0.58055 0.16239 0.0
O949 O 0.09648 0.622 0.11933 0.0
O950 O 0.09621 0.61978 0.15052 0.0
O951 O 0.06063 0.58573 0.15489 0.0
C952 C 0.10443 0.62909 0.13544 0.0
H953 H 0.04501 0.63692 0.15637 0.0
H954 H 0.1115 0.56829 0.11485 0.0
H955 H 0.01459 0.55763 0.10709 0.0
H956 H 0.06042 0.57815 0.06813 0.0
Co957 Co 0.41341 0.48351 0.13299 0.0
C958 C 0.39243 0.44458 0.1201 0.0
C959 C 0.39126 0.44698 0.15017 0.0
C960 C 0.38132 0.42856 0.14539 0.0
N961 N 0.3982 0.45697 0.13432 0.0
N962 N 0.38216 0.4271 0.1265 0.0
H963 H 0.39564 0.44824 0.1054 0.0
H964 H 0.39346 0.4527 0.16424 0.0
C965 C 0.44704 0.49153 0.15645 0.0
O966 O 0.45828 0.50513 0.14536 0.0
N967 N 0.42851 0.51032 0.13209 0.0
C968 C 0.43421 0.52138 0.11676 0.0
C969 C 0.44562 0.5393 0.12243 0.0
C970 C 0.43582 0.52193 0.14697 0.0
N971 N 0.44668 0.53959 0.14137 0.0
C972 C 0.42466 0.48427 0.09429 0.0
C973 C 0.45001 0.47294 0.10134 0.0
C974 C 0.44866 0.47845 0.08306 0.0
C975 C 0.43529 0.4835 0.07942 0.0
C976 C 0.43889 0.47359 0.11566 0.0
N977 N 0.42745 0.48063 0.11241 0.0
H978 H 0.41431 0.48805 0.09124 0.0
H979 H 0.43942 0.46812 0.12924 0.0
H980 H 0.43057 0.51706 0.10236 0.0
H981 H 0.43409 0.51742 0.16152 0.0
O982 O 0.39394 0.48457 0.11889 0.0
O983 O 0.39686 0.48595 0.14999 0.0
O984 O 0.42976 0.48205 0.15292 0.0
C985 C 0.38747 0.48569 0.13529 0.0
H986 H 0.37448 0.41709 0.1551 0.0
H987 H 0.45287 0.55121 0.11332 0.0
H988 H 0.4595 0.46801 0.10451 0.0
H989 H 0.43341 0.4873 0.06533 0.0
Co990 Co 0.06772 0.48341 0.6493 0.0
C991 C 0.08812 0.52329 0.66014 0.0
C992 C 0.10416 0.51015 0.66493 0.0
C993 C 0.11416 0.52814 0.67113 0.0
N994 N 0.08804 0.50722 0.65743 0.0
N995 N 0.10399 0.53631 0.66818 0.0
H996 H 0.07665 0.52538 0.65712 0.0
H997 H 0.10811 0.49973 0.66659 0.0
C998 C 0.10114 0.48508 0.63101 0.0
O999 O 0.10623 0.50167 0.62451 0.0
N1000 N 0.04741 0.45971 0.6417 0.0
C1001 C 0.03004 0.45607 0.6383 0.0
C1002 C 0.01956 0.43797 0.63276 0.0
C1003 C 0.04736 0.44382 0.63803 0.0
N1004 N 0.03044 0.4303 0.63256 0.0
C1005 C 0.05809 0.50428 0.62424 0.0
C1006 C 0.06156 0.48868 0.59125 0.0
C1007 C 0.05358 0.49998 0.59043 0.0
C1008 C 0.05227 0.50814 0.6072 0.0
C1009 C 0.06724 0.48522 0.60858 0.0
N1010 N 0.06562 0.49306 0.62489 0.0
H1011 H 0.05502 0.50913 0.63704 0.0
H1012 H 0.07164 0.47509 0.60893 0.0
H1013 H 0.02538 0.466 0.63948 0.0
H1014 H 0.05934 0.44213 0.63935 0.0
O1015 O 0.05071 0.48787 0.664 0.0
O1016 O 0.0659 0.47422 0.67454 0.0
O1017 O 0.08582 0.47594 0.63979 0.0
C1018 C 0.05411 0.47973 0.67782 0.0
H1019 H 0.12745 0.53444 0.67814 0.0
H1020 H 1.00514 0.4311 0.62869 0.0
H1021 H 0.06271 0.48193 0.57871 0.0
H1022 H 0.04562 0.51643 0.60742 0.0
Co1023 Co 0.53113 0.58869 0.64355 0.0
C1024 C 0.49132 0.57057 0.65528 0.0
C1025 C 0.50767 0.59782 0.66662 0.0
C1026 C 0.49021 0.59003 0.67429 0.0
N1027 N 0.50842 0.58566 0.65464 0.0
N1028 N 0.47998 0.5729 0.66713 0.0
H1029 H 0.48732 0.55773 0.64819 0.0
H1030 H 0.51928 0.61122 0.6701 0.0
C1031 C 0.52587 0.61878 0.62743 0.0
O1032 O 0.50833 0.60666 0.62472 0.0
N1033 N 0.55375 0.59155 0.63299 0.0
C1034 C 0.55665 0.57748 0.62888 0.0
C1035 C 0.57363 0.58446 0.62045 0.0
C1036 C 0.56905 0.60698 0.62706 0.0
N1037 N 0.58142 0.60299 0.61919 0.0
C1038 C 0.50876 0.5563 0.62162 0.0
C1039 C 0.51883 0.57327 0.58679 0.0
C1040 C 0.50915 0.55389 0.58757 0.0
C1041 C 0.5036 0.54549 0.60532 0.0
C1042 C 0.52354 0.5836 0.60348 0.0
N1043 N 0.51859 0.57514 0.62071 0.0
H1044 H 0.50594 0.54932 0.63503 0.0
H1045 H 0.53256 0.59833 0.60241 0.0
H1046 H 0.54693 0.56306 0.63153 0.0
H1047 H 0.5709 0.62073 0.62801 0.0
O1048 O 0.52863 0.56841 0.65904 0.0
O1049 O 0.54344 0.59792 0.66736 0.0
O1050 O 0.53698 0.61343 0.63301 0.0
C1051 C 0.53821 0.5809 0.67165 0.0
H1052 H 0.48553 0.59631 0.68463 0.0
H1053 H 0.57978 0.57644 0.61566 0.0
H1054 H 0.5239 0.58044 0.57351 0.0
H1055 H 0.49605 0.5306 0.60673 0.0
Co1056 Co 0.42409 0.94273 0.63821 0.0
C1057 C 0.44511 0.92483 0.6526 0.0
C1058 C 0.41668 0.91032 0.66099 0.0
C1059 C 0.42542 0.90172 0.66901 0.0
N1060 N 0.42889 0.92457 0.65027 0.0
N1061 N 0.44332 0.91093 0.66379 0.0
H1062 H 0.45813 0.93515 0.64681 0.0
H1063 H 0.40247 0.90675 0.6633 0.0
C1064 C 0.39378 0.90596 0.62428 0.0
O1065 O 0.40605 0.90084 0.62091 0.0
N1066 N 0.41949 0.96098 0.62659 0.0
C1067 C 0.43265 0.97704 0.61913 0.0
C1068 C 0.42427 0.98531 0.60982 0.0
C1069 C 0.40322 0.95978 0.62198 0.0
N1070 N 0.40583 0.97446 0.6116 0.0
C1071 C 0.45544 0.95199 0.61476 0.0
C1072 C 0.43652 0.9427 0.58092 0.0
C1073 C 0.4559 0.95278 0.58062 0.0
C1074 C 0.46533 0.9569 0.59785 0.0
C1075 C 0.42713 0.93788 0.59818 0.0
N1076 N 0.43655 0.94262 0.61492 0.0
H1077 H 0.46313 0.95737 0.62763 0.0
H1078 H 0.41231 0.93182 0.59789 0.0
H1079 H 0.44734 0.98208 0.61983 0.0
H1080 H 0.38982 0.94814 0.62541 0.0
O1081 O 0.44481 0.96226 0.6518 0.0
O1082 O 0.41593 0.94688 0.66214 0.0
O1083 O 0.39905 0.92247 0.62958 0.0
C1084 C 0.43297 0.95961 0.66509 0.0
H1085 H 0.41928 0.8901 0.67861 0.0
H1086 H 0.43117 0.99821 0.6021 0.0
H1087 H 0.42865 0.93937 0.56795 0.0
H1088 H 0.48027 0.96519 0.59836 0.0
Co1089 Co 0.15166 0.41062 0.19811 0.0
C1090 C 0.19128 0.43247 0.18708 0.0
C1091 C 0.17569 0.44478 0.17722 0.0
C1092 C 0.19332 0.4546 0.16996 0.0
N1093 N 0.17445 0.43102 0.18819 0.0
N1094 N 0.20309 0.44673 0.17608 0.0
H1095 H 0.19473 0.42295 0.19354 0.0
H1096 H 0.16428 0.44699 0.17399 0.0
C1097 C 0.15371 0.44488 0.214 0.0
O1098 O 0.17113 0.45121 0.21843 0.0
N1099 N 0.129 0.39008 0.20753 0.0
C1100 C 0.12674 0.37338 0.21182 0.0
C1101 C 0.1088 0.36199 0.21737 0.0
C1102 C 0.1124 0.38874 0.21067 0.0
N1103 N 0.09979 0.37161 0.21664 0.0
C1104 C 0.17369 0.40148 0.22163 0.0
C1105 C 0.16327 0.40935 0.25581 0.0
C1106 C 0.17338 0.40012 0.25565 0.0
C1107 C 0.17888 0.39651 0.23832 0.0
C1108 C 0.15811 0.4139 0.23869 0.0
N1109 N 0.16343 0.4101 0.22178 0.0
H1110 H 0.17681 0.39703 0.20858 0.0
H1111 H 0.14867 0.41916 0.23922 0.0
H1112 H 0.13742 0.36968 0.21086 0.0
H1113 H 0.10949 0.39982 0.20828 0.0
O1114 O 0.15608 0.39367 0.18334 0.0
O1115 O 0.14059 0.40721 0.17345 0.0
O1116 O 0.14391 0.42846 0.20769 0.0
C1117 C 0.14684 0.39605 0.16994 0.0
H1118 H 0.19822 0.46598 0.16012 0.0
H1119 H 0.10283 0.34774 0.22176 0.0
H1120 H 0.1583 0.41184 0.26898 0.0
H1121 H 0.18636 0.38902 0.23765 0.0
Co1122 Co 0.60853 0.74648 0.20616 0.0
C1123 C 0.58728 0.76428 0.19318 0.0
C1124 C 0.57475 0.73613 0.18417 0.0
C1125 C 0.56524 0.74397 0.17614 0.0
N1126 N 0.58842 0.74879 0.19514 0.0
N1127 N 0.57327 0.76175 0.18173 0.0
H1128 H 0.5969 0.7774 0.19925 0.0
H1129 H 0.5724 0.72239 0.18144 0.0
C1130 C 0.57377 0.71416 0.22095 0.0
O1131 O 0.5675 0.72533 0.22527 0.0
N1132 N 0.62886 0.74455 0.21676 0.0
C1133 C 0.64558 0.75916 0.22065 0.0
C1134 C 0.65604 0.75309 0.22972 0.0
C1135 C 0.62934 0.72968 0.2236 0.0
N1136 N 0.64584 0.73459 0.23174 0.0
C1137 C 0.61554 0.77699 0.23007 0.0
C1138 C 0.60754 0.75789 0.26373 0.0
C1139 C 0.61536 0.77712 0.26419 0.0
C1140 C 0.61899 0.78662 0.24705 0.0
C1141 C 0.60404 0.74873 0.2464 0.0
N1142 N 0.60783 0.75821 0.22974 0.0
H1143 H 0.62049 0.78494 0.21729 0.0
H1144 H 0.5996 0.73421 0.2466 0.0
H1145 H 0.64975 0.77339 0.21757 0.0
H1146 H 0.61773 0.71573 0.22326 0.0
O1147 O 0.62593 0.76809 0.19189 0.0
O1148 O 0.61301 0.73915 0.18189 0.0
O1149 O 0.59036 0.72076 0.21509 0.0
C1150 C 0.62411 0.75658 0.17858 0.0
H1151 H 0.55398 0.7374 0.16616 0.0
H1152 H 0.67011 0.76173 0.23454 0.0
H1153 H 0.60491 0.75006 0.27667 0.0
H1154 H 0.62573 0.80156 0.24675 0.0
Co1155 Co 0.27126 0.8606 0.20924 0.0
C1156 C 0.25135 0.82536 0.18738 0.0
C1157 C 0.27497 0.82797 0.20209 0.0
C1158 C 0.26556 0.81065 0.19433 0.0
N1159 N 0.26622 0.83737 0.1977 0.0
N1160 N 0.25063 0.80893 0.18524 0.0
H1161 H 0.24045 0.82792 0.1829 0.0
H1162 H 0.28647 0.83256 0.21166 0.0
C1163 C 0.31049 0.87621 0.22629 0.0
O1164 O 0.30923 0.88768 0.23803 0.0
N1165 N 0.27563 0.88342 0.22102 0.0
C1166 C 0.26426 0.88459 0.23378 0.0
C1167 C 0.27207 0.90245 0.24004 0.0
C1168 C 0.28976 0.90093 0.21886 0.0
N1169 N 0.28811 0.91265 0.23079 0.0
C1170 C 0.24047 0.83561 0.23118 0.0
C1171 C 0.25797 0.84271 0.26573 0.0
C1172 C 0.23856 0.83234 0.26519 0.0
C1173 C 0.22993 0.82834 0.24747 0.0
C1174 C 0.26802 0.84991 0.24903 0.0
N1175 N 0.25916 0.84695 0.23211 0.0
H1176 H 0.23338 0.83299 0.21784 0.0
H1177 H 0.28274 0.85853 0.25002 0.0
H1178 H 0.25132 0.87317 0.23862 0.0
H1179 H 0.30155 0.90477 0.20977 0.0
O1180 O 0.2501 0.85947 0.19665 0.0
O1181 O 0.27853 0.87284 0.18511 0.0
O1182 O 0.29661 0.86481 0.21642 0.0
C1183 C 0.26138 0.86852 0.18292 0.0
H1184 H 0.26883 0.79975 0.19624 0.0
H1185 H 0.26668 0.90751 0.25097 0.0
H1186 H 0.26537 0.84578 0.27899 0.0
H1187 H 0.21504 0.82057 0.2461 0.0
C1188 C 0.3738 0.21087 0.84639 0.0
C1189 C 0.37547 0.22656 0.83728 0.0
C1190 C 0.36341 0.20434 0.86299 0.0
C1191 C 0.32659 0.20522 0.89044 0.0
H1192 H 0.35241 0.20252 0.93471 0.0
C1193 C 0.30246 0.20922 0.96508 0.0
C1194 C 0.30466 0.19913 0.97967 0.0
C1195 C 0.30978 0.20989 0.94721 0.0
C1196 C 0.34481 0.20282 0.92247 0.0
H1197 H 0.367 0.24722 0.83781 0.0
H1198 H 0.34859 0.23559 0.86643 0.0
H1199 H 0.36689 0.20745 0.90374 0.0
H1200 H 0.31599 0.18159 0.98699 0.0
H1201 H 0.32845 0.18239 0.95562 0.0
H1202 H 0.30455 0.20068 0.90899 0.0
C1203 C 0.35538 0.22842 0.86089 0.0
C1204 C 0.35314 0.20566 0.90473 0.0
C1205 C 0.36601 0.23514 0.84459 0.0
C1206 C 0.31421 0.1896 0.97602 0.0
C1207 C 0.3214 0.19011 0.95806 0.0
C1208 C 0.31817 0.20216 0.9081 0.0
C1209 C 0.35422 0.21316 0.87043 0.0
C1210 C 0.3443 0.20737 0.88865 0.0
C1211 C 0.3193 0.2003 0.94343 0.0
C1212 C 0.32739 0.20145 0.92442 0.0
H1213 H 0.38105 0.20407 0.84108 0.0
H1214 H 0.36269 0.19252 0.87011 0.0
H1215 H 0.31941 0.20628 0.8782 0.0
H1216 H 0.29525 0.21679 0.96749 0.0
H1217 H 0.30824 0.21822 0.93645 0.0
C1218 C 0.80522 0.0906 0.96562 0.0
C1219 C 0.81625 0.10397 0.97901 0.0
C1220 C 0.80249 0.09592 0.94779 0.0
C1221 C 0.82179 0.13326 0.91302 0.0
H1222 H 0.77111 0.11127 0.89571 0.0
C1223 C 0.80004 0.15786 0.84589 0.0
C1224 C 0.78472 0.14445 0.83583 0.0
C1225 C 0.8054 0.15316 0.86278 0.0
C1226 C 0.78539 0.11732 0.90011 0.0
H1227 H 0.83349 0.13336 0.98415 0.0
H1228 H 0.82885 0.14264 0.95279 0.0
H1229 H 0.77759 0.10255 0.92623 0.0
H1230 H 0.76384 0.11548 0.83458 0.0
H1231 H 0.77364 0.1071 0.86337 0.0
H1232 H 0.82963 0.14782 0.88671 0.0
C1233 C 0.82229 0.12808 0.95616 0.0
C1234 C 0.78906 0.11237 0.91767 0.0
C1235 C 0.82483 0.12276 0.97412 0.0
C1236 C 0.77556 0.12613 0.84225 0.0
C1237 C 0.78109 0.12138 0.85885 0.0
C1238 C 0.81814 0.13807 0.89527 0.0
C1239 C 0.81092 0.1147 0.94292 0.0
C1240 C 0.80728 0.12022 0.92428 0.0
C1241 C 0.79567 0.13492 0.8697 0.0
C1242 C 0.79987 0.13006 0.88855 0.0
H1243 H 0.79846 0.07602 0.96899 0.0
H1244 H 0.79378 0.08533 0.93777 0.0
H1245 H 0.83598 0.13945 0.91779 0.0
H1246 H 0.80723 0.17211 0.84125 0.0
H1247 H 0.81663 0.16397 0.8708 0.0
C1248 C 0.85501 0.65032 0.83671 0.0
C1249 C 0.85912 0.63595 0.83598 0.0
C1250 C 0.85746 0.66013 0.85353 0.0
C1251 C 0.86121 0.65659 0.90496 0.0
H1252 H 0.89253 0.70987 0.90444 0.0
C1253 C 0.88305 0.69905 0.9737 0.0
C1254 C 0.90208 0.71165 0.97516 0.0
C1255 C 0.87527 0.69091 0.95637 0.0
C1256 C 0.88368 0.695 0.90478 0.0
H1257 H 0.86854 0.62027 0.85241 0.0
H1258 H 0.87257 0.63713 0.8815 0.0
H1259 H 0.88281 0.69289 0.8746 0.0
H1260 H 0.9278 0.72603 0.95955 0.0
H1261 H 0.91425 0.71172 0.92935 0.0
H1262 H 0.86265 0.65849 0.93504 0.0
C1263 C 0.86749 0.64088 0.86918 0.0
C1264 C 0.87798 0.68533 0.88772 0.0
C1265 C 0.86532 0.63133 0.85243 0.0
C1266 C 0.9131 0.71631 0.95888 0.0
C1267 C 0.9053 0.70824 0.94154 0.0
C1268 C 0.86679 0.66623 0.92197 0.0
C1269 C 0.8637 0.65544 0.86991 0.0
C1270 C 0.86714 0.66598 0.88768 0.0
C1271 C 0.88634 0.6953 0.94013 0.0
C1272 C 0.8785 0.68549 0.92208 0.0
H1273 H 0.85024 0.65419 0.82424 0.0
H1274 H 0.85445 0.67133 0.85376 0.0
H1275 H 0.85272 0.64167 0.90531 0.0
H1276 H 0.87419 0.69528 0.986 0.0
H1277 H 0.86059 0.68109 0.95569 0.0
C1278 C 0.19974 0.30187 0.52118 0.0
C1279 C 0.19261 0.30633 0.50534 0.0
C1280 C 0.20279 0.31154 0.53801 0.0
C1281 C 0.21391 0.35601 0.5572 0.0
H1282 H 0.20046 0.32927 0.60463 0.0
C1283 C 0.25 0.38781 0.62815 0.0
C1284 C 0.23906 0.38282 0.6445 0.0
C1285 C 0.24223 0.37962 0.61081 0.0
C1286 C 0.20411 0.33698 0.59154 0.0
H1287 H 0.18297 0.32438 0.49476 0.0
H1288 H 0.18869 0.34169 0.52443 0.0
H1289 H 0.18975 0.31235 0.57504 0.0
H1290 H 0.2113 0.36577 0.65545 0.0
H1291 H 0.19778 0.35146 0.62523 0.0
H1292 H 0.22871 0.38064 0.57377 0.0
C1293 C 0.19177 0.33055 0.52366 0.0
C1294 C 0.19807 0.32728 0.5746 0.0
C1295 C 0.18842 0.32062 0.50677 0.0
C1296 C 0.22013 0.36981 0.64311 0.0
C1297 C 0.21238 0.36158 0.62582 0.0
C1298 C 0.22009 0.36574 0.57419 0.0
C1299 C 0.19897 0.32605 0.53943 0.0
C1300 C 0.20322 0.33664 0.55726 0.0
C1301 C 0.22338 0.36623 0.60952 0.0
C1302 C 0.21552 0.35629 0.59152 0.0
H1303 H 0.20304 0.29088 0.52059 0.0
H1304 H 0.20857 0.30792 0.54984 0.0
H1305 H 0.21816 0.36355 0.54402 0.0
H1306 H 0.26462 0.39784 0.62877 0.0
H1307 H 0.25111 0.38333 0.59854 0.0
C1308 C 0.64241 0.85705 0.64275 0.0
C1309 C 0.62859 0.86166 0.64592 0.0
C1310 C 0.65012 0.85899 0.62483 0.0
C1311 C 0.65894 0.8569 0.58356 0.0
H1312 H 0.67083 0.90192 0.55675 0.0
C1313 C 0.69496 0.87639 0.50977 0.0
C1314 C 0.70896 0.89494 0.50794 0.0
C1315 C 0.68358 0.87053 0.5258 0.0
C1316 C 0.66762 0.88928 0.56406 0.0
H1317 H 0.61159 0.87135 0.63269 0.0
H1318 H 0.6249 0.87455 0.60134 0.0
H1319 H 0.65377 0.89484 0.5862 0.0
H1320 H 0.72237 0.92171 0.52185 0.0
H1321 H 0.70285 0.91152 0.54952 0.0
H1322 H 0.67355 0.85181 0.56163 0.0
C1323 C 0.63 0.86972 0.61277 0.0
C1324 C 0.65763 0.8851 0.58084 0.0
C1325 C 0.62233 0.86784 0.63072 0.0
C1326 C 0.7116 0.90736 0.52261 0.0
C1327 C 0.70031 0.90154 0.53849 0.0
C1328 C 0.66899 0.8611 0.5667 0.0
C1329 C 0.64415 0.86554 0.60966 0.0
C1330 C 0.65341 0.86902 0.59098 0.0
C1331 C 0.686 0.88316 0.54018 0.0
C1332 C 0.67376 0.87754 0.55699 0.0
H1333 H 0.64751 0.85223 0.6542 0.0
H1334 H 0.66116 0.85588 0.623 0.0
H1335 H 0.6557 0.84427 0.5909 0.0
H1336 H 0.69259 0.8665 0.49872 0.0
H1337 H 0.67264 0.85627 0.52673 0.0
C1338 C 0.13689 0.83204 0.51942 0.0
C1339 C 0.12153 0.81822 0.50971 0.0
C1340 C 0.14216 0.82811 0.53682 0.0
C1341 C 0.12202 0.79423 0.5758 0.0
H1342 H 0.17279 0.81338 0.59176 0.0
C1343 C 0.14082 0.76294 0.63758 0.0
C1344 C 0.15238 0.77515 0.65155 0.0
C1345 C 0.13836 0.76966 0.62048 0.0
C1346 C 0.15857 0.8081 0.5875 0.0
H1347 H 0.10043 0.78926 0.50983 0.0
H1348 H 0.10991 0.78229 0.53958 0.0
H1349 H 0.16635 0.82236 0.56097 0.0
H1350 H 0.1709 0.80395 0.65841 0.0
H1351 H 0.16675 0.81574 0.62816 0.0
H1352 H 0.11423 0.77959 0.60198 0.0
C1353 C 0.11751 0.79631 0.5343 0.0
C1354 C 0.15487 0.81325 0.56993 0.0
C1355 C 0.11214 0.80027 0.51716 0.0
C1356 C 0.16183 0.79424 0.6479 0.0
C1357 C 0.15955 0.80097 0.63061 0.0
C1358 C 0.12572 0.78897 0.59316 0.0
C1359 C 0.13222 0.81026 0.54464 0.0
C1360 C 0.13652 0.80606 0.56374 0.0
C1361 C 0.14756 0.78873 0.61689 0.0
C1362 C 0.14399 0.79559 0.59905 0.0
H1363 H 0.14432 0.84601 0.51398 0.0
H1364 H 0.15355 0.83917 0.54444 0.0
H1365 H 0.10773 0.78888 0.57176 0.0
H1366 H 0.13338 0.74816 0.63995 0.0
H1367 H 0.12919 0.75992 0.61003 0.0
C1368 C 0.70728 0.78968 0.02912 0.0
C1369 C 0.70834 0.80419 0.01818 0.0
C1370 C 0.69747 0.78475 0.04609 0.0
C1371 C 0.68383 0.80275 0.08514 0.0
H1372 H 0.64474 0.75231 0.0934 0.0
C1373 C 0.64027 0.78075 0.15377 0.0
C1374 C 0.63402 0.76279 0.16047 0.0
C1375 C 0.64894 0.78618 0.13615 0.0
C1376 C 0.65583 0.76639 0.09154 0.0
H1377 H 0.70025 0.82508 0.01642 0.0
H1378 H 0.68353 0.81677 0.04653 0.0
H1379 H 0.66079 0.76095 0.06322 0.0
H1380 H 0.63243 0.73662 0.15445 0.0
H1381 H 0.64832 0.74627 0.12435 0.0
H1382 H 0.67961 0.80815 0.11364 0.0
C1383 C 0.69007 0.8091 0.04176 0.0
C1384 C 0.66489 0.77133 0.07415 0.0
C1385 C 0.69952 0.81375 0.02455 0.0
C1386 C 0.63693 0.7505 0.14951 0.0
C1387 C 0.64592 0.75602 0.13213 0.0
C1388 C 0.67504 0.79774 0.10271 0.0
C1389 C 0.68893 0.79452 0.05263 0.0
C1390 C 0.67898 0.78952 0.07083 0.0
C1391 C 0.65184 0.77386 0.12505 0.0
C1392 C 0.66096 0.77945 0.10619 0.0
H1393 H 0.71394 0.78207 0.0245 0.0
H1394 H 0.69683 0.7735 0.0543 0.0
H1395 H 0.69479 0.81685 0.08291 0.0
H1396 H 0.63806 0.79044 0.16191 0.0
H1397 H 0.65303 0.79993 0.13113 0.0
C1398 C 0.20624 0.89155 0.03023 0.0
C1399 C 0.20928 0.90947 0.02713 0.0
C1400 C 0.21117 0.88696 0.04741 0.0
C1401 C 0.24189 0.90833 0.08848 0.0
H1402 H 0.21113 0.86052 0.11174 0.0
C1403 C 0.23633 0.86816 0.16309 0.0
C1404 C 0.255 0.87331 0.16547 0.0
C1405 C 0.23034 0.8725 0.14642 0.0
C1406 C 0.2198 0.87399 0.10552 0.0
H1407 H 0.21956 0.93651 0.03973 0.0
H1408 H 0.22794 0.92845 0.06971 0.0
H1409 H 0.20105 0.86822 0.08252 0.0
H1410 H 0.28201 0.88697 0.15222 0.0
H1411 H 0.27157 0.89436 0.12314 0.0
H1412 H 0.26049 0.91425 0.11159 0.0
C1413 C 0.22203 0.91802 0.0588 0.0
C1414 C 0.21413 0.87832 0.08864 0.0
C1415 C 0.21712 0.92261 0.04164 0.0
C1416 C 0.26755 0.88288 0.15086 0.0
C1417 C 0.26157 0.88722 0.13422 0.0
C1418 C 0.24756 0.90401 0.10532 0.0
C1419 C 0.21925 0.90018 0.06185 0.0
C1420 C 0.22512 0.89555 0.0799 0.0
C1421 C 0.2429 0.88209 0.13179 0.0
C1422 C 0.23662 0.88676 0.11403 0.0
H1423 H 0.20025 0.88113 0.0193 0.0
H1424 H 0.20902 0.87315 0.04921 0.0
H1425 H 0.25081 0.92164 0.08203 0.0
H1426 H 0.22632 0.86077 0.1741 0.0
H1427 H 0.2159 0.86854 0.1451 0.0
C1428 C 0.0951 0.30769 0.02324 0.0
C1429 C 0.10838 0.30555 0.0132 0.0
C1430 C 0.09989 0.31808 0.03981 0.0
C1431 C 0.14051 0.35207 0.06817 0.0
H1432 H 0.1035 0.33673 0.10758 0.0
C1433 C 0.15449 0.3792 0.14565 0.0
C1434 C 0.14328 0.38631 0.15175 0.0
C1435 C 0.15093 0.36982 0.12844 0.0
C1436 C 0.11393 0.34117 0.09665 0.0
H1437 H 0.13706 0.3125 0.01253 0.0
H1438 H 0.14534 0.32995 0.04197 0.0
H1439 H 0.09608 0.31918 0.07834 0.0
H1440 H 0.11953 0.38915 0.14481 0.0
H1441 H 0.11297 0.37222 0.11501 0.0
H1442 H 0.15853 0.37367 0.08711 0.0
C1443 C 0.13133 0.32416 0.0368 0.0
C1444 C 0.10967 0.33123 0.0798 0.0
C1445 C 0.12659 0.31407 0.01996 0.0
C1446 C 0.12843 0.38385 0.1404 0.0
C1447 C 0.12463 0.37413 0.12343 0.0
C1448 C 0.14487 0.36178 0.08523 0.0
C1449 C 0.11801 0.32624 0.04702 0.0
C1450 C 0.12282 0.33664 0.0652 0.0
C1451 C 0.13585 0.36706 0.11731 0.0
C1452 C 0.13154 0.35651 0.0995 0.0
H1453 H 0.08099 0.30143 0.0182 0.0
H1454 H 0.08934 0.31975 0.04691 0.0
H1455 H 0.15094 0.35688 0.05724 0.0
H1456 H 0.16607 0.38097 0.15412 0.0
H1457 H 0.15971 0.3644 0.124 0.0
C1458 C 0.80375 0.71936 0.47114 0.0
C1459 C 0.81275 0.71623 0.48623 0.0
C1460 C 0.8001 0.70924 0.45445 0.0
C1461 C 0.78293 0.67751 0.42678 0.0
H1462 H 0.81818 0.66574 0.4044 0.0
C1463 C 0.7623 0.62554 0.36585 0.0
C1464 C 0.77474 0.63046 0.35073 0.0
C1465 C 0.76763 0.63561 0.38265 0.0
C1466 C 0.80823 0.669 0.41043 0.0
H1467 H 0.82536 0.70034 0.49551 0.0
H1468 H 0.81883 0.68253 0.46638 0.0
H1469 H 0.82664 0.68492 0.43276 0.0
H1470 H 0.8027 0.6495 0.3415 0.0
H1471 H 0.81199 0.66723 0.37082 0.0
H1472 H 0.76464 0.66193 0.40436 0.0
C1473 C 0.81475 0.69293 0.4674 0.0
C1474 C 0.81301 0.67983 0.42677 0.0
C1475 C 0.81841 0.70307 0.48412 0.0
C1476 C 0.7928 0.64537 0.35292 0.0
C1477 C 0.79815 0.65547 0.36975 0.0
C1478 C 0.77815 0.66668 0.41051 0.0
C1479 C 0.80533 0.69573 0.45246 0.0
C1480 C 0.80042 0.68425 0.4351 0.0
C1481 C 0.78553 0.65086 0.38471 0.0
C1482 C 0.79072 0.66227 0.40214 0.0
H1483 H 0.79931 0.72948 0.47228 0.0
H1484 H 0.79312 0.71198 0.4431 0.0
H1485 H 0.77281 0.68044 0.43296 0.0
H1486 H 0.74831 0.61405 0.36465 0.0
H1487 H 0.75768 0.63149 0.39401 0.0
C1488 C 0.31177 0.11095 0.48869 0.0
C1489 C 0.2975 0.09267 0.49141 0.0
C1490 C 0.32154 0.11629 0.47167 0.0
C1491 C 0.33253 0.09729 0.42956 0.0
H1492 H 0.34619 0.14497 0.40773 0.0
C1493 C 0.36379 0.14028 0.35544 0.0
C1494 C 0.37806 0.13636 0.35211 0.0
C1495 C 0.35377 0.13486 0.37232 0.0
C1496 C 0.34235 0.13154 0.41355 0.0
H1497 H 0.28224 0.06564 0.47838 0.0
H1498 H 0.29909 0.07497 0.44865 0.0
H1499 H 0.3289 0.13564 0.43723 0.0
H1500 H 0.39304 0.12369 0.36387 0.0
H1501 H 0.37576 0.11444 0.39335 0.0
H1502 H 0.34563 0.09302 0.40569 0.0
C1503 C 0.30295 0.08515 0.45974 0.0
C1504 C 0.33264 0.12629 0.4306 0.0
C1505 C 0.29321 0.07982 0.47676 0.0
C1506 C 0.38207 0.12685 0.36597 0.0
C1507 C 0.37208 0.12146 0.38284 0.0
C1508 C 0.34223 0.10254 0.41251 0.0
C1509 C 0.31724 0.10346 0.45697 0.0
C1510 C 0.32761 0.10909 0.43883 0.0
C1511 C 0.35782 0.1254 0.38625 0.0
C1512 C 0.34729 0.11975 0.4043 0.0
H1513 H 0.31542 0.12117 0.49972 0.0
H1514 H 0.33261 0.13043 0.47012 0.0
H1515 H 0.32907 0.08404 0.43558 0.0
H1516 H 0.36034 0.14756 0.34501 0.0
H1517 H 0.34272 0.13791 0.37436 0.0
C1518 C 0.93139 0.22082 0.48109 0.0
C1519 C 0.91943 0.20567 0.4923 0.0
C1520 C 0.92508 0.22454 0.46434 0.0
C1521 C 0.8929 0.204 0.4261 0.0
H1522 H 0.89765 0.25227 0.41976 0.0
C1523 C 0.86574 0.22295 0.35942 0.0
C1524 C 0.87583 0.24125 0.35299 0.0
C1525 C 0.8701 0.21796 0.37669 0.0
C1526 C 0.89648 0.23882 0.4211 0.0
H1527 H 0.89167 0.18226 0.49471 0.0
H1528 H 0.88078 0.18851 0.46493 0.0
H1529 H 0.9074 0.24472 0.4492 0.0
H1530 H 0.89868 0.26856 0.35918 0.0
H1531 H 0.90689 0.25979 0.38871 0.0
H1532 H 0.8828 0.19828 0.39776 0.0
C1533 C 0.89493 0.19759 0.46933 0.0
C1534 C 0.90193 0.23449 0.43805 0.0
C1535 C 0.90113 0.19409 0.48633 0.0
C1536 C 0.89054 0.25439 0.36391 0.0
C1537 C 0.89513 0.24935 0.38096 0.0
C1538 C 0.88777 0.20845 0.40896 0.0
C1539 C 0.90683 0.21294 0.45831 0.0
C1540 C 0.90028 0.2171 0.44064 0.0
C1541 C 0.88486 0.23112 0.38772 0.0
C1542 C 0.88962 0.22599 0.40617 0.0
H1543 H 0.94556 0.22998 0.48539 0.0
H1544 H 0.93451 0.23641 0.45598 0.0
H1545 H 0.89162 0.19053 0.42779 0.0
H1546 H 0.85424 0.21258 0.35129 0.0
H1547 H 0.8617 0.20386 0.38151 0.0
C1548 C 0.98311 0.52236 0.31502 0.0
C1549 C 0.96905 0.52688 0.31643 0.0
C1550 C 0.99155 0.52347 0.29764 0.0
C1551 C 0.98586 0.52544 0.24612 0.0
H1552 H 0.03944 0.55355 0.24537 0.0
C1553 C 0.0297 0.54175 0.17743 0.0
C1554 C 0.04267 0.56062 0.17536 0.0
C1555 C 0.02052 0.53495 0.19465 0.0
C1556 C 0.02447 0.54555 0.24539 0.0
H1557 H 0.9524 0.53554 0.30071 0.0
H1558 H 0.9671 0.53745 0.27043 0.0
H1559 H 0.02314 0.54616 0.2755 0.0
H1560 H 0.05645 0.58708 0.1898 0.0
H1561 H 0.04067 0.57521 0.21966 0.0
H1562 H 0.98727 0.52538 0.21591 0.0
C1563 C 0.97156 0.53299 0.2827 0.0
C1564 C 0.01515 0.5412 0.26263 0.0
C1565 C 0.96326 0.53205 0.30008 0.0
C1566 C 0.04648 0.57247 0.19087 0.0
C1567 C 0.03756 0.56566 0.20806 0.0
C1568 C 0.99521 0.52964 0.22886 0.0
C1569 C 0.98594 0.52891 0.28133 0.0
C1570 C 0.99574 0.53149 0.26316 0.0
C1571 C 0.02444 0.54687 0.21013 0.0
C1572 C 0.01459 0.54014 0.22833 0.0
H1573 H 0.98781 0.51827 0.32738 0.0
H1574 H 1.00252 0.52015 0.29698 0.0
H1575 H 0.97089 0.51778 0.24613 0.0
H1576 H 0.02648 0.5323 0.16571 0.0
H1577 H 0.01046 0.52039 0.19592 0.0
C1578 C 0.46972 0.49937 0.18294 0.0
C1579 C 0.45418 0.48625 0.1729 0.0
C1580 C 0.475 0.49438 0.19971 0.0
C1581 C 0.45493 0.4582 0.23674 0.0
H1582 H 0.50579 0.4781 0.25278 0.0
C1583 C 0.47441 0.42723 0.29854 0.0
C1584 C 0.48539 0.43968 0.31265 0.0
C1585 C 0.47205 0.43371 0.28122 0.0
C1586 C 0.49154 0.47255 0.24846 0.0
H1587 H 0.43275 0.45745 0.17169 0.0
H1588 H 0.44233 0.44861 0.20027 0.0
H1589 H 0.49915 0.48784 0.22256 0.0
H1590 H 0.50312 0.46864 0.31949 0.0
H1591 H 0.49917 0.47998 0.28893 0.0
H1592 H 0.44735 0.44262 0.26235 0.0
C1593 C 0.45003 0.4629 0.19582 0.0
C1594 C 0.48772 0.47815 0.23122 0.0
C1595 C 0.44461 0.46793 0.17933 0.0
C1596 C 0.4945 0.45874 0.30888 0.0
C1597 C 0.49234 0.46522 0.29141 0.0
C1598 C 0.45876 0.45246 0.25375 0.0
C1599 C 0.46495 0.47614 0.20654 0.0
C1600 C 0.46934 0.47086 0.22507 0.0
C1601 C 0.48081 0.45275 0.27757 0.0
C1602 C 0.47707 0.45944 0.25971 0.0
H1603 H 0.47729 0.51361 0.17827 0.0
H1604 H 0.48651 0.50495 0.20764 0.0
H1605 H 0.4406 0.45272 0.23279 0.0
H1606 H 0.46724 0.41247 0.30102 0.0
H1607 H 0.46323 0.42382 0.2707 0.0
C1608 C 0.51772 0.97537 0.17885 0.0
C1609 C 0.53166 0.9736 0.16965 0.0
C1610 C 0.5218 0.98609 0.19523 0.0
C1611 C 0.55984 0.02341 0.22195 0.0
H1612 H 0.5317 0.99832 0.26663 0.0
C1613 C 0.58827 0.04887 0.29635 0.0
C1614 C 0.57598 0.04671 0.31092 0.0
C1615 C 0.58162 0.04132 0.27855 0.0
C1616 C 0.5395 0.00572 0.25427 0.0
H1617 H 0.56084 0.98223 0.16975 0.0
H1618 H 0.56799 1.00122 0.19799 0.0
H1619 H 0.52193 0.98337 0.23591 0.0
H1620 H 0.5471 0.0353 0.31824 0.0
H1621 H 0.53544 0.02248 0.28702 0.0
H1622 H 0.57745 0.04574 0.24014 0.0
C1623 C 0.55394 0.99426 0.1927 0.0
C1624 C 0.53388 0.99712 0.23667 0.0
C1625 C 0.54982 0.98331 0.17661 0.0
C1626 C 0.55689 0.03703 0.3073 0.0
C1627 C 0.55022 0.02963 0.28942 0.0
C1628 C 0.56533 0.03211 0.23948 0.0
C1629 C 0.53993 0.99551 0.20236 0.0
C1630 C 0.54427 0.0057 0.22044 0.0
C1631 C 0.5625 0.03162 0.27482 0.0
C1632 C 0.55552 0.02318 0.25594 0.0
H1633 H 0.50359 0.96792 0.17382 0.0
H1634 H 0.51077 0.98687 0.20245 0.0
H1635 H 0.56797 0.03039 0.20959 0.0
H1636 H 0.60306 0.05619 0.29876 0.0
H1637 H 0.5915 0.0428 0.26782 0.0
C1638 C 0.42533 0.96631 0.69709 0.0
C1639 C 0.43841 0.9705 0.68271 0.0
C1640 C 0.4302 0.97663 0.7137 0.0
C1641 C 0.44067 0.00708 0.74222 0.0
H1642 H 0.48784 0.02254 0.76637 0.0
C1643 C 0.46452 0.05506 0.80709 0.0
C1644 C 0.4732 0.05084 0.82165 0.0
C1645 C 0.46108 0.04607 0.78969 0.0
C1646 C 0.47456 0.01823 0.75986 0.0
H1647 H 0.4669 0.98871 0.6745 0.0
H1648 H 0.47538 0.00697 0.70351 0.0
H1649 H 0.48016 1.00492 0.73706 0.0
H1650 H 0.48519 0.03397 0.82942 0.0
H1651 H 0.47888 0.01802 0.79919 0.0
H1652 H 0.4348 0.01984 0.76526 0.0
C1653 C 0.4614 0.99554 0.702 0.0
C1654 C 0.47026 0.00833 0.74294 0.0
C1655 C 0.45653 0.98515 0.68535 0.0
C1656 C 0.47851 0.03755 0.81844 0.0
C1657 C 0.475 0.0285 0.80107 0.0
C1658 C 0.44496 0.01693 0.75913 0.0
C1659 C 0.44825 0.99144 0.71634 0.0
C1660 C 0.4532 1.00252 0.73399 0.0
C1661 C 0.46618 0.03259 0.7865 0.0
C1662 C 0.46191 0.02255 0.76822 0.0
H1663 H 0.41128 0.95501 0.69554 0.0
H1664 H 0.41982 0.97286 0.72458 0.0
H1665 H 0.42752 1.00306 0.73557 0.0
H1666 H 0.46039 0.06535 0.8091 0.0
H1667 H 0.45452 0.04977 0.7787 0.0
C1668 C 0.04295 0.46144 0.70746 0.0
C1669 C 0.04419 0.47571 0.69597 0.0
C1670 C 0.03263 0.45663 0.72408 0.0
C1671 C 0.01669 0.47251 0.76237 0.0
H1672 H 0.97527 0.4225 0.76541 0.0
C1673 C 0.96886 0.4461 0.82805 0.0
C1674 C 0.96155 0.42748 0.83304 0.0
C1675 C 0.97855 0.45283 0.8111 0.0
C1676 C 0.98695 0.43642 0.765 0.0
H1677 H 0.03611 0.49654 0.6931 0.0
H1678 H 0.01846 0.48844 0.72275 0.0
H1679 H 0.99347 0.43301 0.73658 0.0
H1680 H 0.95909 0.40143 0.82464 0.0
H1681 H 0.9767 0.41324 0.7957 0.0
H1682 H 0.01091 0.47575 0.79107 0.0
C1683 C 0.02531 0.48089 0.71861 0.0
C1684 C 0.99723 0.44245 0.74838 0.0
C1685 C 0.03533 0.48545 0.70169 0.0
C1686 C 0.9644 0.41581 0.82102 0.0
C1687 C 0.97438 0.42259 0.80431 0.0
C1688 C 1.00663 0.46636 0.7792 0.0
C1689 C 0.02369 0.46625 0.72974 0.0
C1690 C 0.01224 0.46047 0.74699 0.0
C1691 C 0.98143 0.44115 0.79895 0.0
C1692 C 0.99171 0.44814 0.78082 0.0
H1693 H 0.04955 0.45363 0.70336 0.0
H1694 H 0.03158 0.44533 0.73251 0.0
H1695 H 0.02832 0.48645 0.76158 0.0
H1696 H 0.96673 0.45536 0.83703 0.0
H1697 H 0.9835 0.46712 0.80741 0.0
C1698 C 0.5671 0.53241 0.82567 0.0
C1699 C 0.58552 0.54333 0.83162 0.0
C1700 C 0.56118 0.53637 0.80877 0.0
C1701 C 0.56975 0.57297 0.776 0.0
H1702 H 0.5493 0.53495 0.73751 0.0
C1703 C 0.55797 0.58969 0.70038 0.0
C1704 C 0.54303 0.57615 0.69 0.0
C1705 C 0.5626 0.58544 0.71785 0.0
C1706 C 0.55463 0.54564 0.74818 0.0
H1707 H 0.61204 0.56721 0.82495 0.0
H1708 H 0.60146 0.57451 0.79566 0.0
H1709 H 0.55784 0.52815 0.76814 0.0
H1710 H 0.52104 0.54761 0.68974 0.0
H1711 H 0.52853 0.54029 0.72067 0.0
H1712 H 0.56607 0.59035 0.75653 0.0
C1713 C 0.59174 0.56277 0.80398 0.0
C1714 C 0.55961 0.54174 0.76568 0.0
C1715 C 0.59778 0.55858 0.82067 0.0
C1716 C 0.53272 0.55827 0.69742 0.0
C1717 C 0.53712 0.55408 0.71511 0.0
C1718 C 0.56443 0.57678 0.75866 0.0
C1719 C 0.57346 0.55155 0.79779 0.0
C1720 C 0.56739 0.55544 0.77963 0.0
C1721 C 0.55214 0.56762 0.72558 0.0
C1722 C 0.55702 0.56325 0.74439 0.0
H1723 H 0.5574 0.5205 0.8338 0.0
H1724 H 0.547 0.52758 0.80427 0.0
H1725 H 0.57556 0.58369 0.78666 0.0
H1726 H 0.56627 0.60357 0.69488 0.0
H1727 H 0.57454 0.59614 0.72515 0.0
C1728 C 0.38418 0.40907 0.09989 0.0
C1729 C 0.3747 0.41026 0.11572 0.0
C1730 C 0.37761 0.39234 0.09024 0.0
C1731 C 0.33628 0.34717 0.08153 0.0
H1732 H 0.37139 0.33041 0.07295 0.0
C1733 C 0.31343 0.2721 0.05895 0.0
C1734 C 0.32543 0.26907 0.04759 0.0
C1735 C 0.31888 0.28978 0.06591 0.0
C1736 C 0.36142 0.33496 0.07485 0.0
H1737 H 0.35056 0.39508 0.13341 0.0
H1738 H 0.33896 0.36586 0.11642 0.0
H1739 H 0.38182 0.36056 0.08704 0.0
H1740 H 0.35207 0.28223 0.03375 0.0
H1741 H 0.36139 0.31314 0.04521 0.0
H1742 H 0.31589 0.32171 0.06913 0.0
C1743 C 0.35151 0.37785 0.11155 0.0
C1744 C 0.36743 0.35226 0.08302 0.0
C1745 C 0.35822 0.39451 0.12135 0.0
C1746 C 0.34268 0.28415 0.04273 0.0
C1747 C 0.34803 0.30185 0.04942 0.0
C1748 C 0.33029 0.32993 0.0731 0.0
C1749 C 0.36129 0.37652 0.09607 0.0
C1750 C 0.35492 0.35849 0.08657 0.0
C1751 C 0.33638 0.30487 0.06143 0.0
C1752 C 0.34275 0.32352 0.06976 0.0
H1753 H 0.39698 0.42093 0.09532 0.0
H1754 H 0.38537 0.39174 0.07828 0.0
H1755 H 0.32637 0.35171 0.08397 0.0
H1756 H 0.30012 0.26067 0.06306 0.0
H1757 H 0.30959 0.29144 0.0753 0.0
C1758 C 0.73433 0.06178 0.03615 0.0
C1759 C 0.74846 0.05784 0.04014 0.0
C1760 C 0.71609 0.04947 0.04142 0.0
C1761 C 0.68506 1.00206 0.06142 0.0
H1762 H 0.65762 0.02519 0.07945 0.0
C1763 C 0.62377 0.96885 0.11413 0.0
C1764 C 0.608 0.97002 0.10963 0.0
C1765 C 0.63972 0.97786 0.10306 0.0
C1766 C 0.66502 0.01851 0.07426 0.0
H1767 H 0.75464 0.03781 0.05227 0.0
H1768 H 0.72301 0.0166 0.06227 0.0
H1769 H 0.68766 0.04403 0.06483 0.0
H1770 H 0.59644 0.98133 0.08995 0.0
H1771 H 0.62458 0.99757 0.07079 0.0
H1772 H 0.66263 0.97666 0.07207 0.0
C1773 C 0.72573 0.02887 0.05453 0.0
C1774 C 0.68226 0.02928 0.06573 0.0
C1775 C 0.74392 0.04103 0.04884 0.0
C1776 C 0.60837 0.98012 0.09363 0.0
C1777 C 0.62446 0.98946 0.08277 0.0
C1778 C 0.66795 0.99134 0.07031 0.0
C1779 C 0.71159 0.03311 0.05129 0.0
C1780 C 0.69263 0.02127 0.05927 0.0
C1781 C 0.64033 0.98852 0.08747 0.0
C1782 C 0.65784 0.9995 0.0769 0.0
H1783 H 0.73753 0.07462 0.0293 0.0
H1784 H 0.7056 0.05303 0.0381 0.0
H1785 H 0.69236 0.99524 0.05636 0.0
H1786 H 0.62378 0.96104 0.12631 0.0
H1787 H 0.6518 0.97702 0.10707 0.0
C1788 C 0.94416 0.67328 0.05713 0.0
C1789 C 0.95066 0.68911 0.04573 0.0
C1790 C 0.95629 0.66787 0.06434 0.0
C1791 C 1.00501 0.68512 0.07648 0.0
H1792 H 0.98959 0.63297 0.07727 0.0
C1793 C 0.03948 0.65443 0.12378 0.0
C1794 C 0.04156 0.6399 0.11656 0.0
C1795 C 0.02998 0.66139 0.11352 0.0
C1796 C 0.99423 0.64761 0.07698 0.0
H1797 H 0.97525 0.71166 0.03307 0.0
H1798 H 0.99649 0.70226 0.04587 0.0
H1799 H 0.97004 0.64317 0.06213 0.0
H1800 H 0.03551 0.62152 0.09269 0.0
H1801 H 0.01913 0.63379 0.07471 0.0
H1802 H 0.0292 0.68951 0.09142 0.0
C1803 C 0.98192 0.6941 0.04923 0.0
C1804 C 0.98292 0.65344 0.06848 0.0
C1805 C 0.96974 0.6995 0.04191 0.0
C1806 C 0.03429 0.63279 0.09863 0.0
C1807 C 0.02473 0.63971 0.0884 0.0
C1808 C 0.01631 0.67927 0.08507 0.0
C1809 C 0.9753 0.67815 0.06045 0.0
C1810 C 0.98804 0.67223 0.06834 0.0
C1811 C 0.02227 0.65395 0.09582 0.0
C1812 C 0.01096 0.66041 0.08561 0.0
H1813 H 0.9297 0.66513 0.06081 0.0
H1814 H 0.95077 0.65574 0.07326 0.0
H1815 H 0.00931 0.69968 0.0767 0.0
H1816 H 0.04509 0.66038 0.13743 0.0
H1817 H 0.02822 0.67225 0.11974 0.0
C1818 C 0.2741 0.31738 0.43061 0.0
C1819 C 0.27317 0.3082 0.44753 0.0
C1820 C 0.29069 0.32655 0.4205 0.0
C1821 C 0.33537 0.32905 0.41296 0.0
H1822 H 0.35329 0.38048 0.4009 0.0
C1823 C 0.41102 0.37854 0.39045 0.0
C1824 C 0.41471 0.39323 0.37829 0.0
C1825 C 0.3931 0.36696 0.39719 0.0
C1826 C 0.3484 0.36604 0.40375 0.0
H1827 H 0.28855 0.30074 0.46673 0.0
H1828 H 0.31747 0.31654 0.44894 0.0
H1829 H 0.32298 0.36216 0.41525 0.0
H1830 H 0.40251 0.40677 0.36279 0.0
H1831 H 0.37112 0.3862 0.37384 0.0
H1832 H 0.36062 0.33276 0.40128 0.0
C1833 C 0.30543 0.31676 0.44357 0.0
C1834 C 0.33102 0.35557 0.41207 0.0
C1835 C 0.28896 0.30786 0.45383 0.0
C1836 C 0.40004 0.39569 0.37238 0.0
C1837 C 0.38208 0.38395 0.37884 0.0
C1838 C 0.35267 0.33944 0.40437 0.0
C1839 C 0.30654 0.32642 0.42696 0.0
C1840 C 0.32443 0.33705 0.41696 0.0
C1841 C 0.3784 0.36965 0.39166 0.0
C1842 C 0.35953 0.35816 0.39984 0.0
H1843 H 0.26217 0.31794 0.42552 0.0
H1844 H 0.29116 0.33383 0.40769 0.0
H1845 H 0.33053 0.31473 0.41645 0.0
H1846 H 0.42214 0.37648 0.39536 0.0
H1847 H 0.39094 0.35631 0.40724 0.0
C1848 C 0.71626 0.97803 0.43279 0.0
C1849 C 0.71161 0.9728 0.45177 0.0
C1850 C 0.70747 0.98586 0.42259 0.0
C1851 C 0.68095 0.01011 0.42934 0.0
H1852 H 0.66269 0.9932 0.37876 0.0
C1853 C 0.64249 0.03993 0.38726 0.0
C1854 C 0.62595 0.02672 0.37865 0.0
C1855 C 0.65502 0.0349 0.39435 0.0
C1856 C 0.66773 0.99809 0.39287 0.0
H1857 H 0.69347 0.97122 0.47454 0.0
H1858 H 0.6785 0.98495 0.45696 0.0
H1859 H 0.68042 0.98129 0.39501 0.0
H1860 H 0.61011 0.99811 0.36985 0.0
H1861 H 0.63179 0.9893 0.38232 0.0
H1862 H 0.66782 0.02645 0.4275 0.0
C1863 C 0.68917 0.98334 0.45004 0.0
C1864 C 0.67803 0.99139 0.40211 0.0
C1865 C 0.69783 0.97545 0.46016 0.0
C1866 C 0.62259 0.00856 0.37663 0.0
C1867 C 0.63514 1.00356 0.38359 0.0
C1868 C 0.67075 0.01688 0.42009 0.0
C1869 C 0.69392 0.98873 0.43117 0.0
C1870 C 0.68445 0.99705 0.4206 0.0
C1871 C 0.65137 0.01658 0.39284 0.0
C1872 C 0.66374 0.01072 0.40186 0.0
H1873 H 0.72687 0.97634 0.42586 0.0
H1874 H 0.7115 0.98994 0.40808 0.0
H1875 H 0.6859 0.01494 0.44349 0.0
H1876 H 0.64546 0.05401 0.38914 0.0
H1877 H 0.66748 0.04532 0.40123 0.0
C1878 C 0.00889 0.61209 0.38173 0.0
C1879 C 0.99032 0.59793 0.38274 0.0
C1880 C 0.01426 0.62984 0.38832 0.0
C1881 C 1.00017 0.65353 0.42235 0.0
H1882 H 0.03821 0.69798 0.39813 0.0
C1883 C 0.04057 0.72232 0.46211 0.0
C1884 C 0.04399 0.73868 0.45297 0.0
C1885 C 0.03302 0.70563 0.45231 0.0
C1886 C 0.02744 0.68572 0.40497 0.0
H1887 H 0.96275 0.59153 0.39106 0.0
H1888 H 0.97211 0.62255 0.40242 0.0
H1889 H 0.02644 0.66809 0.38246 0.0
H1890 H 0.04213 0.75011 0.42611 0.0
H1891 H 0.02916 0.72091 0.40892 0.0
H1892 H 1.00126 0.67107 0.44491 0.0
C1893 C 0.98254 0.61986 0.39665 0.0
C1894 C 0.02082 0.66858 0.39608 0.0
C1895 C 0.97714 0.60211 0.38996 0.0
C1896 C 0.03987 0.73788 0.43361 0.0
C1897 C 0.03239 0.72113 0.42375 0.0
C1898 C 1.00686 0.67061 0.43126 0.0
C1899 C 1.00121 0.63387 0.39615 0.0
C1900 C 1.00726 0.65226 0.40478 0.0
C1901 C 0.02877 0.70479 0.43304 0.0
C1902 C 0.02076 0.68688 0.42281 0.0
H1903 H 0.01933 0.6094 0.37604 0.0
H1904 H 0.02877 0.64025 0.38785 0.0
H1905 H 0.98986 0.64124 0.42953 0.0
H1906 H 0.04393 0.72235 0.47684 0.0
H1907 H 0.03078 0.69338 0.4598 0.0
C1908 C 0.63077 0.60197 0.92631 0.0
C1909 C 0.632 0.59585 0.90819 0.0
C1910 C 0.64215 0.62041 0.93154 0.0
C1911 C 0.66539 0.66622 0.91083 0.0
H1912 H 0.68894 0.68225 0.95972 0.0
C1913 C 0.70356 0.74317 0.92986 0.0
C1914 C 0.70164 0.74804 0.9483 0.0
C1915 C 0.69811 0.72489 0.92535 0.0
C1916 C 0.68229 0.67803 0.94608 0.0
H1917 H 0.6465 0.60408 0.88152 0.0
H1918 H 0.66631 0.63655 0.89054 0.0
H1919 H 0.67395 0.64959 0.95113 0.0
H1920 H 0.6931 0.73798 0.97665 0.0
H1921 H 0.68271 0.70567 0.96876 0.0
H1922 H 0.67272 0.69423 0.90596 0.0
C1923 C 0.65654 0.62699 0.90072 0.0
C1924 C 0.67381 0.65931 0.94113 0.0
C1925 C 0.64533 0.60842 0.89559 0.0
C1926 C 0.69477 0.73445 0.96237 0.0
C1927 C 0.68891 0.71599 0.95779 0.0
C1928 C 0.67361 0.68484 0.91585 0.0
C1929 C 0.65486 0.63323 0.91866 0.0
C1930 C 0.66519 0.65321 0.92348 0.0
C1931 C 0.69012 0.71089 0.93908 0.0
C1932 C 0.68213 0.69106 0.93358 0.0
H1933 H 0.62074 0.59251 0.93635 0.0
H1934 H 0.64043 0.62481 0.9454 0.0
H1935 H 0.65856 0.6619 0.89727 0.0
H1936 H 0.70905 0.75355 0.91887 0.0
H1937 H 0.69985 0.72172 0.91095 0.0
C1938 C 0.28622 0.95171 0.96705 0.0
C1939 C 0.27236 0.95648 0.96561 0.0
C1940 C 0.30454 0.96456 0.96271 0.0
C1941 C 0.33129 1.00333 0.93178 0.0
H1942 H 0.37294 0.00783 0.96034 0.0
C1943 C 0.40607 0.04213 0.90204 0.0
C1944 C 0.41611 0.03288 0.90452 0.0
C1945 C 0.38944 0.03636 0.91179 0.0
C1946 C 0.36148 0.00669 0.95213 0.0
H1947 H 0.26676 0.9785 0.95898 0.0
H1948 H 0.29897 1.00106 0.95099 0.0
H1949 H 0.34195 0.99114 0.97381 0.0
H1950 H 0.41693 0.01089 0.91998 0.0
H1951 H 0.38799 1.00055 0.93635 0.0
H1952 H 0.35059 0.01796 0.90966 0.0
C1953 C 0.29561 0.98739 0.95567 0.0
C1954 C 0.34375 0.99721 0.95992 0.0
C1955 C 0.27727 0.97458 0.96038 0.0
C1956 C 0.40943 0.01814 0.9174 0.0
C1957 C 0.39291 0.01238 0.92708 0.0
C1958 C 0.34903 0.01267 0.92389 0.0
C1959 C 0.30937 0.98239 0.95653 0.0
C1960 C 0.32841 0.995 0.94962 0.0
C1961 C 0.38257 0.02127 0.92432 0.0
C1962 C 0.36427 0.01398 0.93375 0.0
H1963 H 0.28274 0.93784 0.97106 0.0
H1964 H 0.3148 0.96025 0.96334 0.0
H1965 H 0.31969 1.00172 0.92346 0.0
H1966 H 0.4108 0.05352 0.89221 0.0
H1967 H 0.38193 0.04363 0.90944 0.0
C1968 C 0.04596 0.30576 0.94415 0.0
C1969 C 0.06513 0.31787 0.94545 0.0
C1970 C 0.0341 0.31246 0.93927 0.0
C1971 C 0.03196 0.35568 0.93712 0.0
H1972 H 0.99613 0.33156 0.89707 0.0
C1973 C 1.00301 0.39463 0.89725 0.0
C1974 C 0.98377 0.38594 0.89493 0.0
C1975 C 0.01136 0.38458 0.90299 0.0
C1976 C 1.00592 0.33831 0.90841 0.0
H1977 H 0.08678 0.34648 0.94352 0.0
H1978 H 0.06629 0.35816 0.93509 0.0
H1979 H 0.01317 0.31703 0.90966 0.0
H1980 H 0.95827 0.35966 0.89563 0.0
H1981 H 0.97297 0.34187 0.90562 0.0
H1982 H 0.0251 0.37709 0.93572 0.0
C1983 C 0.06031 0.34351 0.93779 0.0
C1984 C 0.01563 0.32998 0.91566 0.0
C1985 C 0.0721 0.33682 0.94247 0.0
C1986 C 0.97315 0.36667 0.89721 0.0
C1987 C 0.98155 0.35654 0.90301 0.0
C1988 C 0.02235 0.36397 0.92988 0.0
C1989 C 0.0412 0.33143 0.93589 0.0
C1990 C 0.02909 0.33882 0.9298 0.0
C1991 C 1.00068 0.36554 0.9066 0.0
C1992 C 0.00957 0.35565 0.91512 0.0
H1993 H 0.04027 0.29106 0.94622 0.0
H1994 H 0.01941 0.30283 0.93803 0.0
H1995 H 0.04191 0.36265 0.94829 0.0
H1996 H 0.01155 0.40939 0.89526 0.0
H1997 H 0.02619 0.39184 0.90511 0.0
C1998 C 0.60971 0.63389 0.61677 0.0
C1999 C 0.59908 0.61544 0.61073 0.0
C2000 C 0.62755 0.6453 0.60953 0.0
C2001 C 0.66557 0.64117 0.58903 0.0
H2002 H 0.68533 0.6914 0.57112 0.0
C2003 C 0.73309 0.67592 0.54815 0.0
C2004 C 0.74624 0.69418 0.55275 0.0
C2005 C 0.71498 0.66809 0.55466 0.0
C2006 C 0.68005 0.67746 0.57627 0.0
H2007 H 0.59834 0.59505 0.59126 0.0
H2008 H 0.62924 0.6147 0.57893 0.0
H2009 H 0.65382 0.67456 0.58402 0.0
H2010 H 0.75057 0.71894 0.56699 0.0
H2011 H 0.7187 0.70511 0.57876 0.0
H2012 H 0.69154 0.64385 0.58158 0.0
C2013 C 0.62403 0.62026 0.58955 0.0
C2014 C 0.66204 0.66784 0.58364 0.0
C2015 C 0.60632 0.60897 0.59668 0.0
C2016 C 0.74065 0.70483 0.56322 0.0
C2017 C 0.72243 0.69691 0.56994 0.0
C2018 C 0.68346 0.65073 0.58182 0.0
C2019 C 0.63503 0.6384 0.59618 0.0
C2020 C 0.65451 0.64945 0.58971 0.0
C2021 C 0.70954 0.67825 0.56618 0.0
C2022 C 0.69082 0.66884 0.57494 0.0
H2023 H 0.60453 0.63929 0.62757 0.0
H2024 H 0.63573 0.65924 0.61489 0.0
H2025 H 0.66032 0.62718 0.59404 0.0
H2026 H 0.73696 0.66754 0.53979 0.0
H2027 H 0.70529 0.65388 0.55099 0.0
C2028 C 0.39448 0.9845 0.58465 0.0
C2029 C 0.39209 0.97778 0.60317 0.0
C2030 C 0.38222 0.98948 0.57688 0.0
C2031 C 0.33707 0.98797 0.58527 0.0
H2032 H 0.35975 0.03181 0.55384 0.0
C2033 C 0.30941 0.03837 0.5756 0.0
C2034 C 0.30983 0.04535 0.55749 0.0
C2035 C 0.31659 0.02669 0.57878 0.0
C2036 C 0.35313 0.01937 0.56232 0.0
H2037 H 0.37484 0.97046 0.62798 0.0
H2038 H 0.35377 0.97995 0.61487 0.0
H2039 H 0.37799 0.01821 0.56432 0.0
H2040 H 0.31745 0.04531 0.52839 0.0
H2041 H 0.33064 0.02511 0.534 0.0
H2042 H 0.3125 0.99008 0.58412 0.0
C2043 C 0.36476 0.9809 0.60601 0.0
C2044 C 0.36357 0.01147 0.56833 0.0
C2045 C 0.37686 0.97553 0.61362 0.0
C2046 C 0.31693 0.03995 0.54242 0.0
C2047 C 0.32451 0.02853 0.54567 0.0
C2048 C 0.32671 0.99608 0.5795 0.0
C2049 C 0.36748 0.98829 0.58762 0.0
C2050 C 0.35579 0.99577 0.5801 0.0
C2051 C 0.32466 0.02204 0.56397 0.0
C2052 C 0.33472 0.01199 0.56815 0.0
H2053 H 0.40599 0.98605 0.57623 0.0
H2054 H 0.38451 0.99453 0.56251 0.0
H2055 H 0.33042 0.97569 0.59397 0.0
H2056 H 0.30395 0.0424 0.58738 0.0
H2057 H 0.31666 0.02206 0.59304 0.0
C2058 C 1.00682 0.39741 0.63038 0.0
C2059 C 0.02492 0.4117 0.62687 0.0
C2060 C 1.00067 0.37969 0.62341 0.0
C2061 C 0.01538 0.34815 0.6031 0.0
H2062 H 0.96514 0.32355 0.584 0.0
C2063 C 0.97753 0.27661 0.56316 0.0
C2064 C 0.95959 0.2646 0.56993 0.0
C2065 C 0.98766 0.2948 0.56995 0.0
C2066 C 0.97918 0.33023 0.58932 0.0
H2067 H 0.05102 0.41848 0.61386 0.0
H2068 H 0.04017 0.38736 0.60132 0.0
H2069 H 0.97874 0.35488 0.596 0.0
H2070 H 0.93894 0.26182 0.59029 0.0
H2071 H 0.95631 0.29335 0.60174 0.0
H2072 H 0.0156 0.3232 0.5961 0.0
C2073 C 0.03079 0.38988 0.60967 0.0
C2074 C 0.98696 0.34815 0.5963 0.0
C2075 C 0.03701 0.40769 0.61683 0.0
C2076 C 0.95245 0.27084 0.58432 0.0
C2077 C 0.96244 0.28889 0.59096 0.0
C2078 C 1.00757 0.33013 0.59591 0.0
C2079 C 0.01239 0.37578 0.61253 0.0
C2080 C 1.00498 0.35721 0.60374 0.0
C2081 C 0.97992 0.30122 0.58354 0.0
C2082 C 0.98923 0.32088 0.58938 0.0
H2083 H 0.99733 0.40001 0.63842 0.0
H2084 H 0.9866 0.36905 0.6264 0.0
H2085 H 0.02929 0.35473 0.60871 0.0
H2086 H 0.9834 0.2722 0.5521 0.0
H2087 H 1.00115 0.30406 0.56404 0.0
C2088 C 0.94022 0.64337 0.76205 0.0
C2089 C 0.93948 0.63596 0.78004 0.0
C2090 C 0.95703 0.65286 0.75232 0.0
C2091 C 0.99625 0.68359 0.74301 0.0
H2092 H 0.03277 0.66782 0.74408 0.0
C2093 C 0.07361 0.73392 0.7306 0.0
C2094 C 0.08374 0.72815 0.71943 0.0
C2095 C 0.05541 0.72152 0.73587 0.0
C2096 C 0.02266 0.67233 0.74347 0.0
H2097 H 0.9556 0.63185 0.80146 0.0
H2098 H 0.98485 0.6484 0.7846 0.0
H2099 H 1.00175 0.64748 0.75652 0.0
H2100 H 0.08234 0.70452 0.70511 0.0
H2101 H 0.0506 0.6828 0.71463 0.0
H2102 H 0.01721 0.70854 0.73024 0.0
C2103 C 0.97249 0.64692 0.77797 0.0
C2104 C 1.00494 0.66074 0.75074 0.0
C2105 C 0.95576 0.63761 0.78773 0.0
C2106 C 0.07513 0.70949 0.71385 0.0
C2107 C 0.05689 0.69702 0.71926 0.0
C2108 C 0.01399 0.69521 0.73588 0.0
C2109 C 0.97342 0.65494 0.76028 0.0
C2110 C 0.99162 0.66636 0.75086 0.0
C2111 C 0.0468 0.70294 0.73026 0.0
C2112 C 0.0275 0.68985 0.7363 0.0
H2113 H 0.92793 0.6424 0.75581 0.0
H2114 H 0.95726 0.65876 0.73865 0.0
H2115 H 0.98639 0.68842 0.74302 0.0
H2116 H 0.07975 0.74798 0.73561 0.0
H2117 H 0.04818 0.72645 0.74468 0.0
C2118 C 0.36844 0.29898 0.76368 0.0
C2119 C 0.378 0.30756 0.78034 0.0
C2120 C 0.35894 0.30612 0.75367 0.0
C2121 C 0.35566 0.34799 0.74608 0.0
H2122 H 0.3045 0.31364 0.73366 0.0
C2123 C 0.30488 0.3724 0.72224 0.0
C2124 C 0.29049 0.36109 0.70987 0.0
C2125 C 0.31674 0.36652 0.72939 0.0
C2126 C 0.31886 0.32343 0.73663 0.0
H2127 H 0.38576 0.33073 0.79914 0.0
H2128 H 0.36934 0.34332 0.78156 0.0
H2129 H 0.32327 0.30229 0.74824 0.0
H2130 H 0.27785 0.33533 0.69443 0.0
H2131 H 0.29886 0.32534 0.7062 0.0
H2132 H 0.35139 0.36915 0.73429 0.0
C2133 C 0.3691 0.33102 0.7763 0.0
C2134 C 0.3296 0.31688 0.74509 0.0
C2135 C 0.37836 0.32374 0.78645 0.0
C2136 C 0.28866 0.34417 0.70417 0.0
C2137 C 0.30066 0.33842 0.71105 0.0
C2138 C 0.34499 0.35454 0.73738 0.0
C2139 C 0.35905 0.32214 0.75996 0.0
C2140 C 0.34806 0.32909 0.75005 0.0
C2141 C 0.31462 0.34931 0.72409 0.0
C2142 C 0.32637 0.34237 0.73266 0.0
H2143 H 0.36782 0.28644 0.75871 0.0
H2144 H 0.3514 0.29904 0.74106 0.0
H2145 H 0.36992 0.35771 0.74962 0.0
H2146 H 0.30647 0.38542 0.72701 0.0
H2147 H 0.32713 0.37522 0.73956 0.0
C2148 C 0.71524 0.07237 0.75717 0.0
C2149 C 0.70544 0.07247 0.77324 0.0
C2150 C 0.70841 0.05655 0.74587 0.0
C2151 C 0.66669 0.01343 0.73266 0.0
H2152 H 0.69929 0.99318 0.72743 0.0
C2153 C 0.63969 0.93717 0.7122 0.0
C2154 C 0.65185 0.93225 0.70385 0.0
C2155 C 0.64589 0.9555 0.71743 0.0
C2156 C 0.69005 0.99874 0.72824 0.0
H2157 H 0.6805 0.05656 0.78958 0.0
H2158 H 0.66832 0.02905 0.76957 0.0
H2159 H 0.71069 0.02325 0.74202 0.0
H2160 H 0.67951 0.94264 0.6931 0.0
H2161 H 0.69013 0.97481 0.70106 0.0
H2162 H 0.64607 0.98912 0.7187 0.0
C2163 C 0.68134 0.04111 0.76583 0.0
C2164 C 0.69663 0.016 0.73674 0.0
C2165 C 0.68834 0.05676 0.77733 0.0
C2166 C 0.66994 0.94614 0.69967 0.0
C2167 C 0.67604 0.96453 0.70447 0.0
C2168 C 0.66018 0.9963 0.72379 0.0
C2169 C 0.69147 0.04071 0.7502 0.0
C2170 C 0.68493 0.02336 0.73935 0.0
C2171 C 0.66432 0.96941 0.71407 0.0
C2172 C 0.67166 0.98851 0.72177 0.0
H2173 H 0.72851 0.08427 0.75382 0.0
H2174 H 0.71648 0.05659 0.73388 0.0
H2175 H 0.65742 0.01888 0.73439 0.0
H2176 H 0.62574 0.92664 0.71578 0.0
H2177 H 0.63643 0.95851 0.72497 0.0
C2178 C 0.36429 0.0759 0.26088 0.0
C2179 C 0.36873 0.08203 0.27963 0.0
C2180 C 0.35908 0.05777 0.25601 0.0
C2181 C 0.33717 0.01148 0.27596 0.0
H2182 H 0.35245 0.99886 0.22924 0.0
C2183 C 0.30687 0.93573 0.25459 0.0
C2184 C 0.30174 0.93124 0.23565 0.0
C2185 C 0.31808 0.95406 0.2601 0.0
C2186 C 0.34792 1.00213 0.24226 0.0
H2187 H 0.37178 0.07415 0.30789 0.0
H2188 H 0.36238 0.04212 0.29943 0.0
H2189 H 0.36673 0.03116 0.239 0.0
H2190 H 0.30475 0.94209 0.20744 0.0
H2191 H 0.32401 0.97449 0.21703 0.0
H2192 H 0.31785 0.98273 0.27895 0.0
C2193 C 0.36294 0.05145 0.28852 0.0
C2194 C 0.35618 0.02064 0.24789 0.0
C2195 C 0.36839 0.06975 0.29336 0.0
C2196 C 0.30867 0.94533 0.2221 0.0
C2197 C 0.31971 0.96382 0.22765 0.0
C2198 C 0.32882 0.99304 0.27027 0.0
C2199 C 0.35805 0.04524 0.2698 0.0
C2200 C 0.35074 0.02553 0.26471 0.0
C2201 C 0.32415 0.96844 0.24684 0.0
C2202 C 0.33395 0.98809 0.25325 0.0
H2203 H 0.36475 0.08514 0.24993 0.0
H2204 H 0.35527 0.05341 0.24152 0.0
H2205 H 0.33244 0.01482 0.28881 0.0
H2206 H 0.30181 0.92497 0.2652 0.0
H2207 H 0.32163 0.95697 0.27488 0.0
C2208 C 0.07481 0.37507 0.23151 0.0
C2209 C 0.08062 0.36448 0.22127 0.0
C2210 C 0.05653 0.36703 0.23808 0.0
C2211 C 0.01735 0.32067 0.24948 0.0
H2212 H 0.98765 0.34448 0.25081 0.0
C2213 C 0.93971 0.2788 0.2609 0.0
C2214 C 0.9321 0.28455 0.27527 0.0
C2215 C 0.95765 0.29037 0.25449 0.0
C2216 C 0.9959 0.33778 0.25067 0.0
H2217 H 0.07168 0.33779 0.20857 0.0
H2218 H 0.03991 0.32395 0.21944 0.0
H2219 H 0.0195 0.36148 0.23877 0.0
H2220 H 0.93716 0.3075 0.2934 0.0
H2221 H 0.96875 0.32799 0.28191 0.0
H2222 H 0.99382 0.29693 0.26094 0.0
C2223 C 0.04947 0.33819 0.22311 0.0
C2224 C 0.01411 0.34748 0.24381 0.0
C2225 C 0.06765 0.34613 0.21678 0.0
C2226 C 0.94261 0.30265 0.28234 0.0
C2227 C 0.96067 0.31436 0.27579 0.0
C2228 C 0.99925 0.31102 0.25614 0.0
C2229 C 0.04379 0.34832 0.23437 0.0
C2230 C 0.0249 0.33887 0.24277 0.0
C2231 C 0.9685 0.3081 0.26215 0.0
C2232 C 0.9882 0.3193 0.25648 0.0
H2233 H 0.0846 0.38924 0.23519 0.0
H2234 H 0.05262 0.37522 0.2467 0.0
H2235 H 0.02541 0.31378 0.24948 0.0
H2236 H 0.93186 0.2652 0.25469 0.0
H2237 H 0.96318 0.28533 0.24367 0.0
C2238 C 0.71026 0.63957 0.28807 0.0
C2239 C 0.72807 0.65094 0.29538 0.0
C2240 C 0.699 0.64703 0.28343 0.0
C2241 C 0.70454 0.6926 0.27089 0.0
H2242 H 0.65096 0.66695 0.27209 0.0
C2243 C 0.66538 0.73063 0.25524 0.0
C2244 C 0.65166 0.72304 0.24122 0.0
C2245 C 0.67262 0.72032 0.26314 0.0
C2246 C 0.66592 0.67418 0.2716 0.0
H2247 H 0.74755 0.67842 0.30505 0.0
H2248 H 0.72767 0.6913 0.29806 0.0
H2249 H 0.66743 0.65185 0.28478 0.0
H2250 H 0.63399 0.69817 0.22536 0.0
H2251 H 0.64665 0.67993 0.23944 0.0
H2252 H 0.70311 0.71496 0.258 0.0
C2253 C 0.72256 0.67684 0.29506 0.0
C2254 C 0.67537 0.66556 0.27884 0.0
C2255 C 0.73389 0.66947 0.29932 0.0
C2256 C 0.64456 0.70443 0.2361 0.0
C2257 C 0.65179 0.694 0.24415 0.0
C2258 C 0.69515 0.70121 0.2639 0.0
C2259 C 0.7053 0.66595 0.28625 0.0
C2260 C 0.69485 0.67477 0.27874 0.0
C2261 C 0.66626 0.70207 0.25737 0.0
C2262 C 0.67577 0.69221 0.2643 0.0
H2263 H 0.70562 0.62526 0.28473 0.0
H2264 H 0.68585 0.6382 0.27664 0.0
H2265 H 0.71947 0.69993 0.2699 0.0
H2266 H 0.67078 0.74471 0.25999 0.0
H2267 H 0.68349 0.72678 0.2736 0.0
C2268 C 0.30951 0.16711 0.10988 0.0
C2269 C 0.30818 0.18278 0.10519 0.0
C2270 C 0.3194 0.1671 0.12582 0.0
C2271 C 0.33752 0.18958 0.17167 0.0
H2272 H 0.37273 0.1726 0.16523 0.0
C2273 C 0.38699 0.19579 0.23196 0.0
C2274 C 0.39042 0.18107 0.23432 0.0
C2275 C 0.37786 0.19687 0.21584 0.0
C2276 C 0.3628 0.17717 0.1674 0.0
H2277 H 0.31613 0.21067 0.11404 0.0
H2278 H 0.33283 0.21036 0.14209 0.0
H2279 H 0.354 0.17193 0.13855 0.0
H2280 H 0.38696 0.15596 0.22158 0.0
H2281 H 0.37083 0.15761 0.19377 0.0
H2282 H 0.3459 0.19441 0.20059 0.0
C2283 C 0.3262 0.1981 0.13336 0.0
C2284 C 0.35208 0.17681 0.15206 0.0
C2285 C 0.3165 0.1982 0.11729 0.0
C2286 C 0.38486 0.16768 0.22003 0.0
C2287 C 0.37557 0.16864 0.20404 0.0
C2288 C 0.34808 0.18975 0.18709 0.0
C2289 C 0.32802 0.18266 0.13762 0.0
C2290 C 0.3393 0.18298 0.15402 0.0
C2291 C 0.37173 0.18313 0.20179 0.0
C2292 C 0.36087 0.18352 0.18519 0.0
H2293 H 0.30303 0.15485 0.10114 0.0
H2294 H 0.3203 0.15488 0.12891 0.0
H2295 H 0.32767 0.19428 0.17365 0.0
H2296 H 0.39121 0.20638 0.24267 0.0
H2297 H 0.37553 0.20845 0.21448 0.0
C2298 C 0.85683 0.14926 0.10662 0.0
C2299 C 0.8431 0.13072 0.10393 0.0
C2300 C 0.85707 0.15874 0.12299 0.0
C2301 C 0.82611 0.15885 0.15969 0.0
H2302 H 0.87155 0.19198 0.18591 0.0
C2303 C 0.82702 0.19569 0.22943 0.0
C2304 C 0.84192 0.21361 0.23262 0.0
C2305 C 0.82688 0.18542 0.21375 0.0
C2306 C 0.85874 0.18301 0.17861 0.0
H2307 H 0.81909 0.10748 0.1165 0.0
H2308 H 0.81953 0.12404 0.14514 0.0
H2309 H 0.87234 0.17408 0.15915 0.0
H2310 H 0.86826 0.23479 0.22137 0.0
H2311 H 0.8676 0.2173 0.19377 0.0
H2312 H 0.81253 0.168 0.17885 0.0
C2313 C 0.83007 0.13125 0.13453 0.0
C2314 C 0.85921 0.17267 0.16331 0.0
C2315 C 0.82995 0.12171 0.11824 0.0
C2316 C 0.85639 0.22117 0.21934 0.0
C2317 C 0.85618 0.21097 0.20362 0.0
C2318 C 0.82566 0.16931 0.1749 0.0
C2319 C 0.84347 0.14995 0.13697 0.0
C2320 C 0.84291 0.16049 0.15365 0.0
C2321 C 0.84159 0.19282 0.20076 0.0
C2322 C 0.84198 0.18159 0.18455 0.0
H2323 H 0.86719 0.15656 0.09589 0.0
H2324 H 0.86753 0.17316 0.12438 0.0
H2325 H 0.81334 0.14979 0.15237 0.0
H2326 H 0.81554 0.18945 0.23921 0.0
H2327 H 0.81545 0.17146 0.21214 0.0
C2328 C 0.79549 0.64035 0.21705 0.0
C2329 C 0.80072 0.63005 0.2286 0.0
C2330 C 0.80618 0.65002 0.20146 0.0
C2331 C 0.85342 0.6699 0.18177 0.0
H2332 H 0.82973 0.67266 0.13582 0.0
C2333 C 0.8931 0.70128 0.11193 0.0
C2334 C 0.88766 0.71181 0.10099 0.0
C2335 C 0.88311 0.69192 0.12803 0.0
C2336 C 0.83657 0.67222 0.14863 0.0
H2337 H 0.82112 0.62152 0.2325 0.0
H2338 H 0.83971 0.63826 0.2051 0.0
H2339 H 0.81084 0.65431 0.16222 0.0
H2340 H 0.86792 0.72143 0.09902 0.0
H2341 H 0.8505 0.70507 0.12706 0.0
H2342 H 0.87917 0.68773 0.16802 0.0
C2343 C 0.82748 0.63911 0.20833 0.0
C2344 C 0.82573 0.66167 0.16378 0.0
C2345 C 0.81679 0.62946 0.224 0.0
C2346 C 0.87233 0.71322 0.10693 0.0
C2347 C 0.86232 0.70381 0.12299 0.0
C2348 C 0.86427 0.68041 0.16656 0.0
C2349 C 0.82238 0.64963 0.19694 0.0
C2350 C 0.834 0.66043 0.18059 0.0
C2351 C 0.86741 0.69281 0.13355 0.0
C2352 C 0.85597 0.68176 0.14984 0.0
H2353 H 0.78342 0.64145 0.2204 0.0
H2354 H 0.80198 0.65823 0.19324 0.0
H2355 H 0.86026 0.66951 0.19459 0.0
H2356 H 0.90462 0.69961 0.10764 0.0
H2357 H 0.8873 0.68343 0.13574 0.0
C2358 C 0.18285 0.31036 0.3863 0.0
C2359 C 0.1977 0.31891 0.39909 0.0
C2360 C 0.18114 0.32026 0.37133 0.0
C2361 C 0.19145 0.36552 0.35534 0.0
H2362 H 0.18725 0.34555 0.30507 0.0
C2363 C 0.1868 0.40318 0.28812 0.0
C2364 C 0.17616 0.39204 0.27306 0.0
C2365 C 0.19017 0.3952 0.30394 0.0
C2366 C 0.18807 0.35122 0.319 0.0
H2367 H 0.22229 0.34496 0.406 0.0
H2368 H 0.2187 0.36237 0.38024 0.0
H2369 H 0.19141 0.3299 0.33193 0.0
H2370 H 0.15995 0.36397 0.26296 0.0
H2371 H 0.16496 0.34995 0.29072 0.0
H2372 H 0.18733 0.38643 0.3426 0.0
C2373 C 0.20856 0.34787 0.38187 0.0
C2374 C 0.19062 0.34229 0.33437 0.0
C2375 C 0.21052 0.33787 0.39669 0.0
C2376 C 0.16843 0.37284 0.27432 0.0
C2377 C 0.17148 0.36486 0.29019 0.0
C2378 C 0.18854 0.37432 0.33996 0.0
C2379 C 0.19397 0.33908 0.36894 0.0
C2380 C 0.19219 0.34925 0.35269 0.0
C2381 C 0.18269 0.3759 0.30511 0.0
C2382 C 0.18661 0.36717 0.32156 0.0
H2383 H 0.17238 0.29598 0.38787 0.0
H2384 H 0.16962 0.31322 0.36167 0.0
H2385 H 0.19255 0.37111 0.36938 0.0
H2386 H 0.19291 0.41804 0.28739 0.0
H2387 H 0.19898 0.40421 0.31502 0.0
C2388 C 0.68423 0.8855 0.39687 0.0
C2389 C 0.69938 0.88503 0.40486 0.0
C2390 C 0.67393 0.87321 0.38239 0.0
C2391 C 0.67705 0.84186 0.34689 0.0
H2392 H 0.6244 0.82301 0.34149 0.0
C2393 C 0.63259 0.78369 0.29472 0.0
C2394 C 0.62191 0.78754 0.28217 0.0
C2395 C 0.64075 0.79486 0.31051 0.0
C2396 C 0.63911 0.82824 0.34283 0.0
H2397 H 0.71515 0.87089 0.40465 0.0
H2398 H 0.6969 0.84905 0.38006 0.0
H2399 H 0.64119 0.84381 0.36761 0.0
H2400 H 0.61078 0.8056 0.27673 0.0
H2401 H 0.62483 0.82499 0.30464 0.0
H2402 H 0.67483 0.82592 0.32237 0.0
C2403 C 0.69329 0.8593 0.3843 0.0
C2404 C 0.64879 0.84024 0.35772 0.0
C2405 C 0.70373 0.87175 0.3985 0.0
C2406 C 0.61897 0.80235 0.28616 0.0
C2407 C 0.62693 0.81337 0.30214 0.0
C2408 C 0.66734 0.82967 0.33224 0.0
C2409 C 0.6784 0.86 0.37581 0.0
C2410 C 0.66791 0.84721 0.35998 0.0
C2411 C 0.63824 0.80997 0.31423 0.0
C2412 C 0.64828 0.82273 0.33004 0.0
H2413 H 0.68065 0.89568 0.40147 0.0
H2414 H 0.66275 0.87438 0.3761 0.0
H2415 H 0.69181 0.84726 0.34777 0.0
H2416 H 0.6353 0.77252 0.29191 0.0
H2417 H 0.6493 0.79186 0.31968 0.0
C2418 C 0.1485 0.8196 0.40675 0.0
C2419 C 0.12927 0.80963 0.40418 0.0
C2420 C 0.1604 0.82069 0.39229 0.0
C2421 C 0.16114 0.81292 0.34039 0.0
H2422 H 0.20902 0.81846 0.35216 0.0
C2423 C 0.20968 0.81098 0.28348 0.0
C2424 C 0.22722 0.82705 0.28283 0.0
C2425 C 0.19795 0.80745 0.29892 0.0
C2426 C 0.19567 0.81691 0.34871 0.0
H2427 H 0.10732 0.79256 0.38476 0.0
H2428 H 0.12793 0.79362 0.3598 0.0
H2429 H 0.18773 0.8145 0.37768 0.0
H2430 H 0.24631 0.85155 0.29862 0.0
H2431 H 0.22613 0.84483 0.32586 0.0
H2432 H 0.16904 0.8148 0.31135 0.0
C2433 C 0.134 0.80124 0.37266 0.0
C2434 C 0.18349 0.81479 0.36332 0.0
C2435 C 0.12212 0.80048 0.387 0.0
C2436 C 0.23309 0.8389 0.29861 0.0
C2437 C 0.22148 0.83515 0.31421 0.0
C2438 C 0.17317 0.81465 0.32581 0.0
C2439 C 0.15334 0.81151 0.375 0.0
C2440 C 0.16609 0.81297 0.3594 0.0
C2441 C 0.20364 0.81965 0.31429 0.0
C2442 C 0.19061 0.81683 0.32983 0.0
H2443 H 0.15435 0.82693 0.41983 0.0
H2444 H 0.17513 0.82908 0.39461 0.0
H2445 H 0.14812 0.81199 0.33668 0.0
H2446 H 0.20479 0.80125 0.27188 0.0
H2447 H 0.18433 0.79527 0.29877 0.0
C2448 C 0.63852 0.8547 0.78506 0.0
C2449 C 0.63377 0.84107 0.77113 0.0
C2450 C 0.64873 0.85519 0.80096 0.0
C2451 C 0.68121 0.84004 0.81697 0.0
H2452 H 0.67128 0.85228 0.86672 0.0
C2453 C 0.71625 0.83307 0.88455 0.0
C2454 C 0.72037 0.84592 0.89917 0.0
C2455 C 0.70659 0.83332 0.86852 0.0
C2456 C 0.67443 0.84911 0.85287 0.0
H2457 H 0.63518 0.81665 0.76359 0.0
H2458 H 0.6529 0.81748 0.79129 0.0
H2459 H 0.65175 0.85031 0.84024 0.0
H2460 H 0.71846 0.86978 0.90787 0.0
H2461 H 0.70185 0.87039 0.8798 0.0
H2462 H 0.7039 0.83887 0.82956 0.0
C2463 C 0.64909 0.82805 0.78972 0.0
C2464 C 0.66317 0.84793 0.83769 0.0
C2465 C 0.63888 0.82754 0.77386 0.0
C2466 C 0.7153 0.85953 0.89698 0.0
C2467 C 0.70568 0.85981 0.88093 0.0
C2468 C 0.69249 0.84127 0.83214 0.0
C2469 C 0.65444 0.84207 0.80331 0.0
C2470 C 0.66637 0.8433 0.81955 0.0
C2471 C 0.70084 0.84646 0.86666 0.0
C2472 C 0.68923 0.84577 0.85032 0.0
H2473 H 0.63506 0.86549 0.78332 0.0
H2474 H 0.65273 0.86628 0.81105 0.0
H2475 H 0.68429 0.83679 0.80313 0.0
H2476 H 0.71967 0.82221 0.88589 0.0
H2477 H 0.70296 0.82269 0.85795 0.0
C2478 C 0.19068 0.88725 0.89137 0.0
C2479 C 0.17651 0.87988 0.90494 0.0
C2480 C 0.18988 0.87691 0.8755 0.0
C2481 C 0.15825 0.83772 0.84555 0.0
H2482 H 0.20204 0.83491 0.83331 0.0
C2483 C 0.15654 0.78779 0.78822 0.0
C2484 C 0.17205 0.79396 0.77637 0.0
C2485 C 0.15719 0.79786 0.80427 0.0
C2486 C 0.18975 0.83571 0.83631 0.0
H2487 H 0.15006 0.85615 0.91212 0.0
H2488 H 0.14853 0.83817 0.88424 0.0
H2489 H 0.20271 0.85388 0.85975 0.0
H2490 H 0.20067 0.81537 0.77272 0.0
H2491 H 0.20159 0.83322 0.80019 0.0
H2492 H 0.14536 0.81992 0.82195 0.0
C2493 C 0.16031 0.85192 0.88595 0.0
C2494 C 0.19014 0.84658 0.85152 0.0
C2495 C 0.16122 0.86217 0.90195 0.0
C2496 C 0.18836 0.81027 0.78132 0.0
C2497 C 0.18896 0.82043 0.79727 0.0
C2498 C 0.15791 0.827 0.83021 0.0
C2499 C 0.17478 0.85904 0.87271 0.0
C2500 C 0.17439 0.84769 0.85634 0.0
C2501 C 0.17331 0.81449 0.80887 0.0
C2502 C 0.17364 0.8258 0.82538 0.0
H2503 H 0.20274 0.90076 0.89336 0.0
H2504 H 0.20115 0.88285 0.86545 0.0
H2505 H 0.14595 0.83845 0.84879 0.0
H2506 H 0.14363 0.77547 0.78482 0.0
H2507 H 0.14495 0.79261 0.81299 0.0
C2508 C 0.20645 0.37661 0.77552 0.0
C2509 C 0.22277 0.37696 0.76985 0.0
C2510 C 0.19639 0.36618 0.79112 0.0
C2511 C 0.19028 0.32712 0.82165 0.0
H2512 H 0.16254 0.34289 0.85279 0.0
C2513 C 0.15483 0.29258 0.89271 0.0
C2514 C 0.13693 0.28972 0.89567 0.0
C2515 C 0.16506 0.30223 0.87682 0.0
C2516 C 0.17009 0.33823 0.84411 0.0
H2517 H 0.24145 0.36679 0.77673 0.0
H2518 H 0.22452 0.3495 0.8044 0.0
H2519 H 0.18168 0.36268 0.82724 0.0
H2520 H 0.11562 0.29444 0.88408 0.0
H2521 H 0.13351 0.31134 0.85639 0.0
H2522 H 0.17898 0.30287 0.83903 0.0
C2523 C 0.21915 0.35685 0.79645 0.0
C2524 C 0.18105 0.34956 0.8294 0.0
C2525 C 0.2291 0.36711 0.7807 0.0
C2526 C 0.12928 0.29621 0.88208 0.0
C2527 C 0.1396 0.30608 0.86635 0.0
C2528 C 0.17951 0.31591 0.83655 0.0
C2529 C 0.20247 0.35596 0.80171 0.0
C2530 C 0.19123 0.34413 0.81784 0.0
C2531 C 0.15772 0.30948 0.86371 0.0
C2532 C 0.16919 0.32129 0.84785 0.0
H2533 H 0.20123 0.3842 0.76774 0.0
H2534 H 0.18355 0.36577 0.79453 0.0
H2535 H 0.19759 0.32224 0.81291 0.0
H2536 H 0.16108 0.28773 0.90294 0.0
H2537 H 0.17901 0.30468 0.87518 0.0
C2538 C 0.87696 0.66192 0.72508 0.0
C2539 C 0.86173 0.64592 0.73237 0.0
C2540 C 0.87458 0.67195 0.71059 0.0
C2541 C 0.8408 0.66724 0.6735 0.0
H2542 H 0.87091 0.7206 0.67098 0.0
C2543 C 0.82529 0.71015 0.62073 0.0
C2544 C 0.84036 0.72302 0.60991 0.0
C2545 C 0.82811 0.70176 0.63647 0.0
C2546 C 0.86246 0.70569 0.67148 0.0
H2547 H 0.83201 0.62826 0.7307 0.0
H2548 H 0.82774 0.64592 0.70592 0.0
H2549 H 0.87534 0.70391 0.6969 0.0
H2550 H 0.87022 0.73773 0.60758 0.0
H2551 H 0.87515 0.72319 0.63526 0.0
H2552 H 0.82773 0.66909 0.64826 0.0
C2553 C 0.84164 0.65048 0.71085 0.0
C2554 C 0.86505 0.69609 0.68628 0.0
C2555 C 0.84406 0.64036 0.72513 0.0
C2556 C 0.85835 0.72781 0.6156 0.0
C2557 C 0.86117 0.71957 0.63149 0.0
C2558 C 0.83808 0.67685 0.65888 0.0
C2559 C 0.85687 0.66633 0.70321 0.0
C2560 C 0.85424 0.67671 0.68749 0.0
C2561 C 0.84605 0.70618 0.64186 0.0
C2562 C 0.84887 0.69617 0.65769 0.0
H2563 H 0.89077 0.66646 0.7303 0.0
H2564 H 0.88669 0.6839 0.70493 0.0
H2565 H 0.83249 0.65232 0.67363 0.0
H2566 H 0.81126 0.706 0.61661 0.0
H2567 H 0.8162 0.69162 0.64429 0.0
C2568 C 0.36227 0.22901 0.71427 0.0
C2569 C 0.36363 0.22184 0.73172 0.0
C2570 C 0.35152 0.21716 0.69973 0.0
C2571 C 0.31515 0.16792 0.69028 0.0
H2572 H 0.3308 0.18176 0.63848 0.0
C2573 C 0.28883 0.11773 0.626 0.0
C2574 C 0.28382 0.124 0.60981 0.0
C2575 C 0.29685 0.12938 0.64156 0.0
C2576 C 0.32619 0.17779 0.65288 0.0
H2577 H 0.35516 0.19673 0.74757 0.0
H2578 H 0.33714 0.17603 0.72208 0.0
H2579 H 0.34871 0.20264 0.66392 0.0
H2580 H 0.2823 0.14723 0.59805 0.0
H2581 H 0.29696 0.16766 0.62488 0.0
H2582 H 0.29308 0.14262 0.67901 0.0
C2583 C 0.34371 0.19076 0.71968 0.0
C2584 C 0.33639 0.18981 0.66752 0.0
C2585 C 0.35416 0.20262 0.73431 0.0
C2586 C 0.28639 0.142 0.60998 0.0
C2587 C 0.29471 0.15373 0.62539 0.0
C2588 C 0.30516 0.15575 0.67563 0.0
C2589 C 0.34215 0.19782 0.70216 0.0
C2590 C 0.33104 0.18508 0.68648 0.0
C2591 C 0.3003 0.14764 0.64119 0.0
C2592 C 0.31057 0.1606 0.65679 0.0
H2593 H 0.3693 0.2438 0.71199 0.0
H2594 H 0.35043 0.22323 0.68666 0.0
H2595 H 0.31027 0.16385 0.70459 0.0
H2596 H 0.28734 0.10411 0.62638 0.0
H2597 H 0.30112 0.12437 0.65355 0.0
C2598 C 0.8807 0.15253 0.61783 0.0
C2599 C 0.89517 0.17034 0.61343 0.0
C2600 C 0.86928 0.14969 0.63342 0.0
C2601 C 0.85115 0.17363 0.66133 0.0
H2602 H 0.83746 0.13441 0.69789 0.0
C2603 C 0.80667 0.16711 0.7262 0.0
C2604 C 0.79402 0.14937 0.73283 0.0
C2605 C 0.81942 0.16952 0.71214 0.0
C2606 C 0.84089 0.14526 0.68765 0.0
H2607 H 0.90918 0.19908 0.62202 0.0
H2608 H 0.88914 0.19412 0.64913 0.0
H2609 H 0.8592 0.13865 0.67271 0.0
H2610 H 0.78456 0.12021 0.72977 0.0
H2611 H 0.80635 0.12428 0.70474 0.0
H2612 H 0.8325 0.17994 0.67564 0.0
C2613 C 0.88671 0.18237 0.64058 0.0
C2614 C 0.85344 0.14773 0.6733 0.0
C2615 C 0.89828 0.18516 0.62519 0.0
C2616 C 0.79428 0.13406 0.72502 0.0
C2617 C 0.80686 0.13643 0.71075 0.0
C2618 C 0.83842 0.171 0.67547 0.0
C2619 C 0.87193 0.16465 0.64469 0.0
C2620 C 0.85876 0.162 0.66006 0.0
C2621 C 0.81967 0.15422 0.70413 0.0
C2622 C 0.83315 0.15684 0.68892 0.0
H2623 H 0.878 0.14087 0.60899 0.0
H2624 H 0.85794 0.13591 0.63621 0.0
H2625 H 0.85478 0.18455 0.65111 0.0
H2626 H 0.80695 0.17918 0.73217 0.0
H2627 H 0.82927 0.18346 0.70778 0.0
C2628 C 0.03458 0.48628 0.56111 0.0
C2629 C 0.04499 0.50178 0.57268 0.0
C2630 C 0.02536 0.48752 0.5452 0.0
C2631 C 0.02392 0.52075 0.51165 0.0
H2632 H 0.97411 0.48081 0.502 0.0
C2633 C 0.97835 0.52589 0.45326 0.0
C2634 C 0.96781 0.51009 0.44212 0.0
C2635 C 0.98724 0.52492 0.4696 0.0
C2636 C 0.98808 0.492 0.50435 0.0
H2637 H 0.05418 0.53087 0.57621 0.0
H2638 H 0.03796 0.53302 0.5485 0.0
H2639 H 0.99112 0.47917 0.52918 0.0
H2640 H 0.95794 0.48073 0.43989 0.0
H2641 H 0.9737 0.47911 0.46813 0.0
H2642 H 0.02095 0.53353 0.48675 0.0
C2643 C 0.03702 0.5199 0.55171 0.0
C2644 C 0.99785 0.49106 0.51995 0.0
C2645 C 0.0462 0.51864 0.56769 0.0
C2646 C 0.96606 0.49321 0.44801 0.0
C2647 C 0.97497 0.49225 0.46434 0.0
C2648 C 0.01417 0.52168 0.49601 0.0
C2649 C 0.02631 0.5043 0.54038 0.0
C2650 C 0.01592 0.5054 0.52378 0.0
C2651 C 0.98588 0.50814 0.47524 0.0
C2652 C 0.99612 0.5073 0.49213 0.0
H2653 H 0.0331 0.473 0.56464 0.0
H2654 H 0.01744 0.47529 0.53666 0.0
H2655 H 0.03789 0.53193 0.51402 0.0
H2656 H 0.98024 0.53918 0.44908 0.0
H2657 H 0.99529 0.53739 0.47776 0.0
C2658 C 0.50297 0.54784 0.55264 0.0
C2659 C 0.50651 0.54257 0.57031 0.0
C2660 C 0.50159 0.5377 0.53637 0.0
C2661 C 0.49331 0.49208 0.52011 0.0
H2662 H 0.51911 0.51874 0.47505 0.0
C2663 C 0.50194 0.45501 0.45503 0.0
C2664 C 0.5008 0.46155 0.4371 0.0
C2665 C 0.50243 0.46473 0.47133 0.0
C2666 C 0.5116 0.51104 0.48741 0.0
H2667 H 0.5116 0.52248 0.58448 0.0
H2668 H 0.50883 0.50474 0.5563 0.0
H2669 H 0.51958 0.53581 0.5031 0.0
H2670 H 0.49863 0.48311 0.42232 0.0
H2671 H 0.49925 0.49987 0.45058 0.0
H2672 H 0.48519 0.4673 0.50442 0.0
C2673 C 0.50689 0.51658 0.55506 0.0
C2674 C 0.51189 0.52086 0.50351 0.0
C2675 C 0.5084 0.52676 0.57127 0.0
C2676 C 0.49995 0.47791 0.43588 0.0
C2677 C 0.50032 0.48754 0.45213 0.0
C2678 C 0.49292 0.48224 0.50397 0.0
C2679 C 0.50361 0.52199 0.53739 0.0
C2680 C 0.50279 0.5115 0.52008 0.0
C2681 C 0.50163 0.48115 0.4701 0.0
C2682 C 0.50209 0.49159 0.48739 0.0
H2683 H 0.50124 0.5598 0.55136 0.0
H2684 H 0.49884 0.54211 0.52299 0.0
H2685 H 0.48599 0.48445 0.53259 0.0
H2686 H 0.5027 0.4425 0.45643 0.0
H2687 H 0.50369 0.4595 0.48489 0.0
C2688 C 0.56066 0.03356 0.44775 0.0
C2689 C 0.5548 0.04326 0.43605 0.0
C2690 C 0.55035 0.02399 0.46362 0.0
C2691 C 0.51305 0.01939 0.49586 0.0
H2692 H 0.50749 0.97133 0.50641 0.0
C2693 C 0.46001 0.96955 0.55002 0.0
C2694 C 0.46623 0.96096 0.5628 0.0
C2695 C 0.47069 0.97911 0.53435 0.0
C2696 C 0.50903 0.98479 0.50375 0.0
H2697 H 0.53375 0.05098 0.43241 0.0
H2698 H 0.51557 0.03396 0.45973 0.0
H2699 H 0.52677 0.98957 0.48008 0.0
H2700 H 0.4883 0.95516 0.56871 0.0
H2701 H 0.50697 0.97186 0.54131 0.0
H2702 H 0.49512 0.01448 0.51941 0.0
C2703 C 0.52825 0.03389 0.45678 0.0
C2704 C 0.52015 0.9953 0.48868 0.0
C2705 C 0.5386 0.04351 0.44096 0.0
C2706 C 0.48315 0.96169 0.55918 0.0
C2707 C 0.49379 0.97116 0.54343 0.0
C2708 C 0.50186 0.00883 0.51084 0.0
C2709 C 0.53386 0.02379 0.4682 0.0
C2710 C 0.5223 0.01275 0.48451 0.0
C2711 C 0.48783 0.98026 0.53101 0.0
C2712 C 0.49968 0.99139 0.51496 0.0
H2713 H 0.57292 0.03283 0.44433 0.0
H2714 H 0.55527 0.01663 0.47223 0.0
H2715 H 0.51461 0.03287 0.49331 0.0
H2716 H 0.44718 0.96949 0.55249 0.0
H2717 H 0.46559 0.98577 0.52494 0.0
C2718 C 0.51709 0.97082 0.05155 0.0
C2719 C 0.53219 0.97978 0.06398 0.0
C2720 C 0.51461 0.98049 0.03682 0.0
C2721 C 0.52467 0.02642 0.02195 0.0
H2722 H 0.5152 0.00562 0.97159 0.0
C2723 C 0.51885 0.06543 0.95659 0.0
C2724 C 0.50664 0.05469 0.94224 0.0
C2725 C 0.52228 0.05691 0.97188 0.0
C2726 C 0.51751 0.01153 0.9856 0.0
H2727 H 0.55669 0.00611 0.07021 0.0
H2728 H 0.5519 0.02303 0.04487 0.0
H2729 H 0.52047 0.98951 0.99729 0.0
H2730 H 0.48779 0.02685 0.93284 0.0
H2731 H 0.493 0.01195 0.95975 0.0
H2732 H 0.52116 0.04817 0.01045 0.0
C2733 C 0.54202 0.00848 0.04666 0.0
C2734 C 0.52064 1.00231 1.0003 0.0
C2735 C 0.54469 0.99875 0.06124 0.0
C2736 C 0.49742 0.03539 0.9437 0.0
C2737 C 0.50058 0.02689 0.95905 0.0
C2738 C 0.52125 0.03555 0.00727 0.0
C2739 C 0.52699 0.99943 0.03427 0.0
C2740 C 0.52418 0.0096 0.01864 0.0
C2741 C 0.51335 0.03748 0.97318 0.0
C2742 C 0.51749 0.02815 0.98889 0.0
H2743 H 0.50692 0.95637 0.05337 0.0
H2744 H 0.50277 0.97321 0.0276 0.0
H2745 H 0.52725 0.03228 0.03601 0.0
H2746 H 0.52616 0.08037 0.95565 0.0
H2747 H 0.53232 0.06555 0.98237 0.0
C2748 C 0.93963 0.46285 0.95635 0.0
C2749 C 0.94464 0.44947 0.95227 0.0
C2750 C 0.9473 0.47464 0.97187 0.0
C2751 C 0.97437 0.48134 0.01609 0.0
H2752 H 0.98775 0.53257 0.00945 0.0
C2753 C 0.00913 0.53453 0.07598 0.0
C2754 C 0.02328 0.55234 0.07097 0.0
C2755 C 0.99794 0.52192 0.06219 0.0
C2756 C 0.98426 0.51835 0.01152 0.0
H2757 H 0.9616 0.43797 0.96128 0.0
H2758 H 0.97519 0.45862 0.98803 0.0
H2759 H 0.97138 0.51044 0.98443 0.0
H2760 H 0.0362 0.57094 0.04733 0.0
H2761 H 0.0173 0.54877 0.02331 0.0
H2762 H 0.98809 0.4894 0.04274 0.0
C2763 C 0.96498 0.45977 0.97963 0.0
C2764 C 0.97457 0.50555 0.99725 0.0
C2765 C 0.95718 0.44789 0.96425 0.0
C2766 C 0.02569 0.55728 0.05177 0.0
C2767 C 0.01461 0.54461 0.03796 0.0
C2768 C 0.98421 0.49416 0.03028 0.0
C2769 C 0.96033 0.47347 0.98355 0.0
C2770 C 0.96963 0.48689 0.99926 0.0
C2771 C 1.00066 0.52669 0.04295 0.0
C2772 C 0.98943 0.51289 0.02815 0.0
H2773 H 0.9299 0.4643 0.94744 0.0
H2774 H 0.9431 0.48476 0.97462 0.0
H2775 H 0.97059 0.46706 0.01832 0.0
H2776 H 1.00694 0.53009 0.09056 0.0
H2777 H 0.98717 0.50839 0.06665 0.0
C2778 C 0.48059 0.4887 0.07134 0.0
C2779 C 0.46143 0.47923 0.06808 0.0
C2780 C 0.49282 0.48992 0.05722 0.0
C2781 C 0.49721 0.46724 0.01543 0.0
H2782 H 0.53649 0.51584 1.00082 0.0
C2783 C 0.5413 0.47905 0.94843 0.0
C2784 C 0.55932 0.49437 0.94752 0.0
C2785 C 0.53008 0.47617 0.96416 0.0
C2786 C 0.52592 0.5021 0.00494 0.0
H2787 H 0.43999 0.46333 0.04765 0.0
H2788 H 0.46147 0.46506 0.02299 0.0
H2789 H 0.51548 0.51281 0.02613 0.0
H2790 H 0.57991 0.51802 0.96329 0.0
H2791 H 0.5609 0.51229 0.99109 0.0
H2792 H 0.50784 0.45637 0.99474 0.0
C2793 C 0.46695 0.47166 0.03646 0.0
C2794 C 0.51376 0.50042 0.01937 0.0
C2795 C 0.4547 0.47077 0.05048 0.0
C2796 C 0.5662 0.506 0.96338 0.0
C2797 C 0.55509 0.50291 0.97927 0.0
C2798 C 0.5096 0.46886 1.00123 0.0
C2799 C 0.48613 0.48139 0.03966 0.0
C2800 C 0.4992 0.483 0.02463 0.0
C2801 C 0.53664 0.48831 0.97966 0.0
C2802 C 0.52405 0.48635 0.99563 0.0
H2803 H 0.48612 0.49544 0.08475 0.0
H2804 H 0.50754 0.49744 0.06005 0.0
H2805 H 0.4862 0.45363 0.01939 0.0
H2806 H 0.5356 0.46952 0.93672 0.0
H2807 H 0.51598 0.46482 0.96374 0.0
C2808 C 0.25899 0.12005 0.00422 0.0
C2809 C 0.24509 0.12491 0.00383 0.0
C2810 C 0.25527 0.10251 0.99838 0.0
C2811 C 0.2163 0.05492 0.98978 0.0
H2812 H 0.25382 0.04889 0.96383 0.0
C2813 C 0.2095 0.98355 0.98029 0.0
C2814 C 0.21612 0.97957 0.96374 0.0
C2815 C 0.21257 1.00128 0.98378 0.0
C2816 C 0.24309 0.05033 0.97083 0.0
H2817 H 0.2162 0.11468 0.99716 0.0
H2818 H 0.20995 0.08456 0.98644 0.0
H2819 H 0.26012 0.07974 0.97245 0.0
H2820 H 0.2313 0.99131 0.93786 0.0
H2821 H 0.23639 0.02241 0.94377 0.0
H2822 H 0.1991 0.02563 0.98776 0.0
C2823 C 0.22369 0.09419 0.99154 0.0
C2824 C 0.24681 0.06803 0.97606 0.0
C2825 C 0.22736 0.11165 0.9975 0.0
C2826 C 0.2259 0.99387 0.95069 0.0
C2827 C 0.22893 0.01172 0.95416 0.0
C2828 C 0.21255 0.03728 0.98445 0.0
C2829 C 0.23758 0.08934 0.99189 0.0
C2830 C 0.23352 0.07056 0.98578 0.0
C2831 C 0.22234 0.01566 0.97082 0.0
C2832 C 0.22596 0.03468 0.97513 0.0
H2833 H 0.27286 0.12982 0.00878 0.0
H2834 H 0.26627 0.09923 0.99915 0.0
H2835 H 0.20577 0.05621 0.9974 0.0
H2836 H 0.20249 0.97312 0.99099 0.0
H2837 H 0.20771 1.00382 0.997 0.0
C2838 C 0.90422 0.13897 0.0129 0.0
C2839 C 0.89301 0.12383 1.00136 0.0
C2840 C 0.92147 0.15292 0.00649 0.0
C2841 C 0.95663 0.16296 0.96844 0.0
H2842 H 0.97738 0.21289 0.98757 0.0
C2843 C 0.02416 0.22847 0.94115 0.0
C2844 C 0.03754 0.23654 0.95544 0.0
C2845 C 1.00609 0.21456 0.94553 0.0
C2846 C 0.97168 0.199 0.98207 0.0
H2847 H 0.89057 0.1117 0.97381 0.0
H2848 H 0.92007 0.13634 0.96216 0.0
H2849 H 0.94645 0.18936 0.99731 0.0
H2850 H 0.04232 0.2367 0.98555 0.0
H2851 H 0.01081 0.21287 0.99314 0.0
H2852 H 0.98188 0.17307 0.95274 0.0
C2853 C 0.91614 0.13723 0.9765 0.0
C2854 C 0.95401 0.1854 0.9878 0.0
C2855 C 0.89912 0.1231 0.9831 0.0
C2856 C 0.03246 0.23054 0.97416 0.0
C2857 C 0.01438 0.21703 0.97856 0.0
C2858 C 0.97414 0.17669 0.96239 0.0
C2859 C 0.92773 0.15229 0.98815 0.0
C2860 C 0.94628 0.16707 0.98131 0.0
C2861 C 1.00104 0.20892 0.96433 0.0
C2862 C 0.9819 0.19475 0.96936 0.0
H2863 H 0.89982 0.13975 0.02708 0.0
H2864 H 0.93 0.16399 0.01612 0.0
H2865 H 0.95148 0.14904 0.96334 0.0
H2866 H 0.02767 0.23289 0.92663 0.0
H2867 H 0.99597 0.20848 0.93433 0.0
C2868 C 0.78439 0.80564 0.97636 0.0
C2869 C 0.7772 0.80356 0.95801 0.0
C2870 C 0.79849 0.80176 0.98024 0.0
C2871 C 0.83788 0.80075 0.96156 0.0
H2872 H 0.82809 0.76372 0.99972 0.0
C2873 C 0.89175 0.77869 0.97965 0.0
C2874 C 0.89251 0.7733 0.99824 0.0
C2875 C 0.8776 0.78199 0.974 0.0
C2876 C 0.83127 0.77434 0.98928 0.0
H2877 H 0.77942 0.7961 0.92926 0.0
H2878 H 0.80477 0.78994 0.93599 0.0
H2879 H 0.80401 0.77071 0.99109 0.0
H2880 H 0.87936 0.76745 0.02557 0.0
H2881 H 0.85519 0.77412 0.01617 0.0
H2882 H 0.86539 0.8052 0.96032 0.0
C2883 C 0.79921 0.79439 0.94733 0.0
C2884 C 0.81735 0.77818 0.98421 0.0
C2885 C 0.78474 0.79788 0.9435 0.0
C2886 C 0.87896 0.77146 0.01113 0.0
C2887 C 0.86503 0.77515 0.00562 0.0
C2888 C 0.85198 0.79721 0.96691 0.0
C2889 C 0.80599 0.79604 0.96581 0.0
C2890 C 0.82054 0.79144 0.97036 0.0
C2891 C 0.86403 0.78035 0.98691 0.0
C2892 C 0.84892 0.78398 0.98092 0.0
H2893 H 0.77871 0.80969 0.98793 0.0
H2894 H 0.80353 0.80319 0.99457 0.0
H2895 H 0.84071 0.81117 0.95096 0.0
H2896 H 0.90187 0.77991 0.96935 0.0
H2897 H 0.8772 0.78553 0.9594 0.0
C2898 C 0.99484 0.18812 0.55443 0.0
C2899 C 0.98843 0.20061 0.55149 0.0
C2900 C 0.01295 0.19292 0.54964 0.0
C2901 C 0.04474 0.20112 0.52323 0.0
H2902 H 0.08772 0.24982 0.52932 0.0
C2903 C 0.10931 0.22716 0.4765 0.0
C2904 C 0.12688 0.23693 0.48501 0.0
C2905 C 0.09328 0.22256 0.48671 0.0
C2906 C 0.07589 0.2361 0.52767 0.0
H2907 H 0.99651 0.22845 0.54245 0.0
H2908 H 0.02805 0.23679 0.53412 0.0
H2909 H 0.05861 0.24248 0.54478 0.0
H2910 H 0.14092 0.2494 0.51138 0.0
H2911 H 0.11292 0.24158 0.52899 0.0
H2912 H 0.06186 0.1948 0.50593 0.0
C2913 C 0.01909 0.22327 0.54013 0.0
C2914 C 0.05918 0.23194 0.5364 0.0
C2915 C 1.00095 0.21846 0.54485 0.0
C2916 C 0.12782 0.24203 0.50412 0.0
C2917 C 0.11172 0.23754 0.51431 0.0
C2918 C 0.06136 0.20532 0.51442 0.0
C2919 C 0.02512 0.21036 0.54189 0.0
C2920 C 0.04335 0.21445 0.5341 0.0
C2921 C 0.09427 0.2277 0.50572 0.0
C2922 C 0.07706 0.22292 0.51631 0.0
H2923 H 0.98564 0.1743 0.5596 0.0
H2924 H 0.01727 0.18277 0.55148 0.0
H2925 H 0.03279 0.18759 0.52096 0.0
H2926 H 0.1078 0.22326 0.4618 0.0
H2927 H 0.08007 0.21526 0.47956 0.0
C2928 C 0.7948 0.7816 0.54154 0.0
C2929 C 0.81212 0.78657 0.54947 0.0
C2930 C 0.78996 0.79505 0.53755 0.0
C2931 C 0.78063 0.82614 0.53576 0.0
H2932 H 0.8194 0.86871 0.50973 0.0
C2933 C 0.77198 0.88689 0.50678 0.0
C2934 C 0.77856 0.89261 0.48829 0.0
C2935 C 0.77568 0.87441 0.51641 0.0
C2936 C 0.80843 0.85693 0.517 0.0
H2937 H 0.83743 0.80948 0.56053 0.0
H2938 H 0.82894 0.83289 0.55364 0.0
H2939 H 0.82614 0.84607 0.52365 0.0
H2940 H 0.79369 0.88888 0.46537 0.0
H2941 H 0.80038 0.8677 0.4822 0.0
H2942 H 0.76281 0.83688 0.52858 0.0
C2943 C 0.81921 0.81861 0.55028 0.0
C2944 C 0.81234 0.84404 0.52517 0.0
C2945 C 0.82401 0.80515 0.55437 0.0
C2946 C 0.78876 0.88533 0.4797 0.0
C2947 C 0.79259 0.87306 0.48936 0.0
C2948 C 0.77675 0.83916 0.52771 0.0
C2949 C 0.80235 0.81379 0.54133 0.0
C2950 C 0.79844 0.82833 0.5344 0.0
C2951 C 0.78619 0.86751 0.50784 0.0
C2952 C 0.79054 0.85451 0.51792 0.0
H2953 H 0.78527 0.76741 0.53764 0.0
H2954 H 0.77691 0.79085 0.53057 0.0
H2955 H 0.76965 0.81425 0.54287 0.0
H2956 H 0.76418 0.89217 0.51401 0.0
H2957 H 0.77062 0.87044 0.53068 0.0
C2958 C 0.22784 0.00583 0.56138 0.0
C2959 C 0.23003 0.02166 0.55204 0.0
C2960 C 0.21293 0.9883 0.55701 0.0
C2961 C 0.16722 0.96458 0.53266 0.0
H2962 H 0.17897 0.92583 0.52368 0.0
C2963 C 0.12309 0.9021 0.48467 0.0
C2964 C 0.1207 0.88475 0.48958 0.0
C2965 C 0.13476 0.91782 0.49521 0.0
C2966 C 0.17533 0.93637 0.52642 0.0
H2967 H 0.21789 0.0313 0.531 0.0
H2968 H 0.19216 1.0011 0.52357 0.0
H2969 H 0.20224 0.95506 0.53739 0.0
H2970 H 0.12857 0.87031 0.50964 0.0
H2971 H 0.14886 0.89776 0.52815 0.0
H2972 H 0.14049 0.94608 0.52118 0.0
C2973 C 0.20175 1.00214 0.53445 0.0
C2974 C 0.18869 0.95315 0.53432 0.0
C2975 C 0.21662 0.01957 0.53873 0.0
C2976 C 0.12995 0.88343 0.50557 0.0
C2977 C 0.14174 0.89919 0.51607 0.0
C2978 C 0.15389 0.94784 0.52474 0.0
C2979 C 0.19985 0.98624 0.54328 0.0
C2980 C 0.18494 0.96762 0.53716 0.0
C2981 C 0.14443 0.91662 0.51089 0.0
C2982 C 0.15791 0.93366 0.52115 0.0
H2983 H 0.2379 0.00688 0.57167 0.0
H2984 H 0.21179 0.97635 0.56421 0.0
H2985 H 0.16373 0.97529 0.53498 0.0
H2986 H 0.11605 0.90357 0.47255 0.0
H2987 H 0.13665 0.93103 0.49068 0.0
C2988 C 0.81484 0.02955 0.03977 0.0
C2989 C 0.80192 0.03354 0.04801 0.0
C2990 C 0.81051 0.01128 0.03682 0.0
C2991 C 0.77114 0.96526 0.02819 0.0
H2992 H 0.80633 0.94885 0.03796 0.0
C2993 C 0.75478 0.89036 0.01162 0.0
C2994 C 0.76944 0.88817 0.00504 0.0
C2995 C 0.75805 0.90757 0.01824 0.0
C2996 C 0.7964 0.95323 0.03489 0.0
H2997 H 0.77441 0.0214 0.05999 0.0
H2998 H 0.76675 0.98938 0.05463 0.0
H2999 H 0.81352 0.97971 0.04761 0.0
H3000 H 0.79887 0.90246 0.99952 0.0
H3001 H 0.80454 0.93239 0.01048 0.0
H3002 H 0.75427 0.93907 0.01486 0.0
C3003 C 0.78026 1.00047 0.05051 0.0
C3004 C 0.8005 0.97091 0.04055 0.0
C3005 C 0.78472 0.01879 0.05374 0.0
C3006 C 0.78734 0.90361 0.00484 0.0
C3007 C 0.79059 0.92079 0.01123 0.0
C3008 C 0.7671 0.94761 0.02232 0.0
C3009 C 0.79304 0.99653 0.04181 0.0
C3010 C 0.78802 0.97721 0.0371 0.0
C3011 C 0.77605 0.92302 0.01824 0.0
C3012 C 0.77978 0.94142 0.02537 0.0
H3013 H 0.82821 0.04059 0.03521 0.0
H3014 H 0.8206 0.00871 0.02997 0.0
H3015 H 0.76132 0.96979 0.02514 0.0
H3016 H 0.74086 0.87868 0.0121 0.0
H3017 H 0.74651 0.90864 0.02368 0.0
C3018 C 0.98462 0.79587 0.04637 0.0
C3019 C 0.97677 0.77832 0.03799 0.0
C3020 C 1.00351 0.80851 0.04442 0.0
C3021 C 0.04859 0.81313 0.02981 0.0
H3022 H 0.06122 0.86361 0.01922 0.0
C3023 C 0.11981 0.8688 0.99965 0.0
C3024 C 0.12728 0.88684 0.00681 0.0
C3025 C 0.10199 0.85498 0.00484 0.0
C3026 C 0.058 0.84963 0.02238 0.0
H3027 H 0.98284 0.76004 0.02161 0.0
H3028 H 0.01561 0.78212 0.01797 0.0
H3029 H 0.02937 0.84068 0.02629 0.0
H3030 H 0.1222 0.9041 0.02592 0.0
H3031 H 0.09129 0.88018 0.03481 0.0
H3032 H 0.07731 0.82216 0.02549 0.0
C3033 C 1.00727 0.7861 0.02625 0.0
C3034 C 0.0397 0.83646 0.0265 0.0
C3035 C 0.9884 0.77344 0.02826 0.0
C3036 C 0.11675 0.89053 0.01974 0.0
C3037 C 0.099 0.87678 0.02487 0.0
C3038 C 0.06693 0.82633 0.02559 0.0
C3039 C 0.01501 0.80394 0.03397 0.0
C3040 C 0.03472 0.81802 0.03028 0.0
C3041 C 0.09126 0.85891 0.01727 0.0
C3042 C 0.07185 0.84474 0.02185 0.0
H3043 H 0.97611 0.80006 0.05407 0.0
H3044 H 0.00906 0.82199 0.05091 0.0
H3045 H 0.04532 0.79911 0.03284 0.0
H3046 H 0.12747 0.8655 0.98959 0.0
H3047 H 0.09639 0.84138 0.99863 0.0
C3048 C 0.24243 0.21982 0.03829 0.0
C3049 C 0.23662 0.20151 0.04362 0.0
C3050 C 0.22956 0.22565 0.03541 0.0
C3051 C 0.18026 0.21256 0.04314 0.0
H3052 H 0.18866 0.24357 0.99933 0.0
C3053 C 0.12284 0.22285 0.00973 0.0
C3054 C 0.12754 0.24072 0.00364 0.0
C3055 C 0.13646 0.21896 0.01582 0.0
C3056 C 0.1862 0.2351 0.01175 0.0
H3057 H 0.21271 0.17517 0.05079 0.0
H3058 H 0.19025 0.18522 0.04549 0.0
H3059 H 0.21175 0.23534 0.00834 0.0
H3060 H 0.15051 0.26853 0.99953 0.0
H3061 H 0.17423 0.26163 0.0099 0.0
H3062 H 0.15446 0.21202 0.04621 0.0
C3063 C 0.20479 0.1952 0.04378 0.0
C3064 C 0.19949 0.2304 0.01698 0.0
C3065 C 0.21769 0.1894 0.04679 0.0
C3066 C 0.1463 0.25456 0.00381 0.0
C3067 C 0.15995 0.25062 0.00981 0.0
C3068 C 0.16692 0.21718 0.03784 0.0
C3069 C 0.21051 0.2133 0.03765 0.0
C3070 C 0.19667 0.21898 0.03269 0.0
C3071 C 0.15519 0.23277 0.01591 0.0
C3072 C 0.16968 0.22842 0.02201 0.0
H3073 H 0.25692 0.22958 0.03587 0.0
H3074 H 0.23455 0.23981 0.03113 0.0
H3075 H 0.17771 0.20398 0.05549 0.0
H3076 H 0.10865 0.21172 0.00952 0.0
H3077 H 0.13234 0.20498 0.02012 0.0
C3078 C 0.89204 0.76867 0.49724 0.0
C3079 C 0.88891 0.78176 0.50642 0.0
C3080 C 0.90992 0.7732 0.49174 0.0
C3081 C 0.95705 0.79951 0.50546 0.0
H3082 H 0.9709 0.799 0.45336 0.0
C3083 C 0.03212 0.82115 0.48688 0.0
C3084 C 0.03539 0.81219 0.47192 0.0
C3085 C 0.01454 0.81885 0.48977 0.0
C3086 C 0.96727 0.79894 0.46803 0.0
H3087 H 0.90184 0.80971 0.51715 0.0
H3088 H 0.93333 0.81743 0.50817 0.0
H3089 H 0.93935 0.79152 0.46098 0.0
H3090 H 0.02301 0.79394 0.44807 0.0
H3091 H 0.99202 0.789 0.4536 0.0
H3092 H 0.9843 0.80581 0.5129 0.0
C3093 C 0.92187 0.80383 0.50493 0.0
C3094 C 0.94921 0.79478 0.47232 0.0
C3095 C 0.90394 0.79945 0.51 0.0
C3096 C 0.02085 0.80116 0.45961 0.0
C3097 C 1.00309 0.79842 0.46279 0.0
C3098 C 0.97493 0.80322 0.50126 0.0
C3099 C 0.92499 0.79074 0.49575 0.0
C3100 C 0.94402 0.79514 0.49106 0.0
C3101 C 0.99958 0.80701 0.47812 0.0
C3102 C 0.98041 0.80313 0.48246 0.0
H3103 H 0.88063 0.755 0.4942 0.0
H3104 H 0.91204 0.76288 0.48475 0.0
H3105 H 0.95325 0.79965 0.52005 0.0
H3106 H 0.04317 0.82988 0.49648 0.0
H3107 H 0.01272 0.82625 0.50133 0.0
C3108 C 0.24783 0.12668 0.49268 0.0
C3109 C 0.23811 0.11603 0.50842 0.0
C3110 C 0.24541 0.14134 0.48667 0.0
C3111 C 0.23223 0.17428 0.50413 0.0
H3112 H 0.21588 0.17589 0.45332 0.0
C3113 C 0.2009 0.21964 0.48729 0.0
C3114 C 0.20526 0.22922 0.4701 0.0
C3115 C 0.20563 0.20606 0.49054 0.0
C3116 C 0.22072 0.17583 0.46748 0.0
H3117 H 0.21881 0.1127 0.53056 0.0
H3118 H 0.21487 0.13836 0.52037 0.0
H3119 H 0.2242 0.1525 0.46166 0.0
H3120 H 0.21754 0.23176 0.44256 0.0
H3121 H 0.22623 0.20818 0.44836 0.0
H3122 H 0.22899 0.19752 0.51011 0.0
C3123 C 0.22415 0.1353 0.51251 0.0
C3124 C 0.22548 0.16244 0.47222 0.0
C3125 C 0.22629 0.12053 0.51826 0.0
C3126 C 0.21392 0.2245 0.45592 0.0
C3127 C 0.21889 0.211 0.45926 0.0
C3128 C 0.22771 0.18773 0.49937 0.0
C3129 C 0.23359 0.14581 0.49662 0.0
C3130 C 0.23085 0.16129 0.49073 0.0
C3131 C 0.21514 0.20188 0.47679 0.0
C3132 C 0.22141 0.18841 0.48113 0.0
H3133 H 0.25698 0.12341 0.48488 0.0
H3134 H 0.25289 0.1493 0.47441 0.0
H3135 H 0.2366 0.17386 0.51843 0.0
H3136 H 0.19404 0.22283 0.49842 0.0
H3137 H 0.20197 0.19896 0.50398 0.0
C3138 C 0.80104 0.99351 0.45897 0.0
C3139 C 0.79272 0.9815 0.4743 0.0
C3140 C 0.81621 0.01126 0.46187 0.0
C3141 C 0.8366 0.04628 0.49925 0.0
H3142 H 0.8798 0.07 0.46697 0.0
C3143 C 0.91321 0.1155 0.50101 0.0
C3144 C 0.90817 0.12849 0.50679 0.0
C3145 C 0.89968 0.09764 0.49562 0.0
C3146 C 0.86784 0.06349 0.47614 0.0
H3147 H 0.79433 0.9783 0.50451 0.0
H3148 H 0.82066 0.00896 0.50948 0.0
H3149 H 0.85541 0.03822 0.46026 0.0
H3150 H 0.88495 0.1331 0.5103 0.0
H3151 H 0.86155 0.10211 0.5012 0.0
H3152 H 0.84891 0.07129 0.51524 0.0
C3153 C 0.81533 1.0049 0.49529 0.0
C3154 C 0.85383 0.04539 0.4722 0.0
C3155 C 0.80027 0.98728 0.49241 0.0
C3156 C 0.88936 0.12336 0.50651 0.0
C3157 C 0.8759 0.10558 0.50119 0.0
C3158 C 0.85047 0.06432 0.50309 0.0
C3159 C 0.82324 0.01726 0.48016 0.0
C3160 C 0.83811 0.03656 0.48381 0.0
C3161 C 0.88085 0.09242 0.49594 0.0
C3162 C 0.86625 0.07316 0.49161 0.0
H3163 H 0.79553 0.98942 0.44486 0.0
H3164 H 0.82199 0.0205 0.44994 0.0
H3165 H 0.82457 0.03998 0.50834 0.0
H3166 H 0.92754 0.11897 0.50113 0.0
H3167 H 0.90392 0.08776 0.49175 0.0
C3168 C 0.85101 0.31212 0.297 0.0
C3169 C 0.86406 0.30632 0.29479 0.0
C3170 C 0.8567 0.33065 0.30069 0.0
C3171 C 0.89722 0.37365 0.31893 0.0
H3172 H 0.86796 0.39549 0.30315 0.0
C3173 C 0.90962 0.44325 0.34953 0.0
C3174 C 0.90637 0.45487 0.33782 0.0
C3175 C 0.90502 0.42548 0.34351 0.0
C3176 C 0.8765 0.38978 0.30751 0.0
H3177 H 0.89337 0.31564 0.29371 0.0
H3178 H 0.90333 0.34807 0.29932 0.0
H3179 H 0.8595 0.36466 0.29256 0.0
H3180 H 0.89649 0.45733 0.31033 0.0
H3181 H 0.88906 0.42675 0.29956 0.0
H3182 H 0.91466 0.39906 0.33327 0.0
C3183 C 0.88866 0.33823 0.29888 0.0
C3184 C 0.87144 0.37188 0.30164 0.0
C3185 C 0.88295 0.31964 0.29545 0.0
C3186 C 0.89881 0.44853 0.31982 0.0
C3187 C 0.89448 0.43093 0.31368 0.0
C3188 C 0.90243 0.39166 0.3246 0.0
C3189 C 0.87561 0.34395 0.30201 0.0
C3190 C 0.88161 0.36346 0.3074 0.0
C3191 C 0.89733 0.41903 0.3255 0.0
C3192 C 0.89207 0.39995 0.3191 0.0
H3193 H 0.83634 0.3022 0.29678 0.0
H3194 H 0.84618 0.33435 0.30326 0.0
H3195 H 0.90529 0.36763 0.32395 0.0
H3196 H 0.91533 0.44777 0.36351 0.0
H3197 H 0.90718 0.41671 0.35318 0.0
C3198 C 0.5674 0.44881 0.32173 0.0
C3199 C 0.55881 0.4521 0.33714 0.0
C3200 C 0.58461 0.4626 0.31517 0.0
C3201 C 0.61585 0.51326 0.31563 0.0
H3202 H 0.65298 0.50097 0.30021 0.0
C3203 C 0.68476 0.56781 0.2823 0.0
C3204 C 0.70081 0.56838 0.28926 0.0
C3205 C 0.66726 0.55288 0.28647 0.0
C3206 C 0.64279 0.50465 0.30451 0.0
H3207 H 0.56193 0.47245 0.35797 0.0
H3208 H 0.59196 0.49649 0.34658 0.0
H3209 H 0.62309 0.47669 0.31171 0.0
H3210 H 0.71097 0.55323 0.30544 0.0
H3211 H 0.68054 0.52733 0.31275 0.0
H3212 H 0.63569 0.54127 0.30891 0.0
C3213 C 0.58521 0.48332 0.33935 0.0
C3214 C 0.62558 0.4907 0.31094 0.0
C3215 C 0.56799 0.46952 0.34591 0.0
C3216 C 0.69894 0.55328 0.2998 0.0
C3217 C 0.68145 0.53835 0.30395 0.0
C3218 C 0.63304 0.5272 0.30917 0.0
C3219 C 0.59371 0.48006 0.32384 0.0
C3220 C 0.61193 0.49484 0.31669 0.0
C3221 C 0.66537 0.53814 0.29768 0.0
C3222 C 0.64677 0.5231 0.30363 0.0
H3223 H 0.56066 0.43571 0.3144 0.0
H3224 H 0.59062 0.45969 0.30304 0.0
H3225 H 0.6056 0.51692 0.31971 0.0
H3226 H 0.68565 0.57917 0.27411 0.0
H3227 H 0.65517 0.55302 0.28113 0.0
C3228 C 0.44605 0.12037 0.2846 0.0
C3229 C 0.4468 0.13693 0.28989 0.0
C3230 C 0.46055 0.11717 0.28911 0.0
C3231 C 0.50057 0.13368 0.32211 0.0
H3232 H 0.51258 0.10282 0.29123 0.0
C3233 C 0.56392 0.12449 0.33604 0.0
C3234 C 0.56068 0.1063 0.33573 0.0
C3235 C 0.55023 0.1284 0.33021 0.0
C3236 C 0.50928 0.11137 0.30005 0.0
H3237 H 0.46385 0.16359 0.30305 0.0
H3238 H 0.48944 0.15843 0.3102 0.0
H3239 H 0.48917 0.11007 0.28047 0.0
H3240 H 0.54062 0.07796 0.3288 0.0
H3241 H 0.51671 0.08481 0.3184 0.0
H3242 H 0.52105 0.13526 0.34144 0.0
C3243 C 0.47738 0.14753 0.30322 0.0
C3244 C 0.49581 0.1155 0.29392 0.0
C3245 C 0.46276 0.15059 0.29897 0.0
C3246 C 0.54344 0.09208 0.32941 0.0
C3247 C 0.52983 0.09603 0.32328 0.0
C3248 C 0.51421 0.12975 0.32807 0.0
C3249 C 0.47631 0.13059 0.29879 0.0
C3250 C 0.49117 0.12666 0.30491 0.0
C3251 C 0.53308 0.11423 0.32364 0.0
C3252 C 0.51866 0.11848 0.31717 0.0
H3253 H 0.43386 0.10947 0.27777 0.0
H3254 H 0.45901 0.10386 0.28563 0.0
H3255 H 0.49716 0.14194 0.33123 0.0
H3256 H 0.57705 0.13569 0.34092 0.0
H3257 H 0.55317 0.14258 0.33055 0.0
C3258 C 0.65783 0.51409 0.87813 0.0
C3259 C 0.65241 0.52727 0.88156 0.0
C3260 C 0.6761 0.51959 0.87328 0.0
C3261 C 0.71787 0.55975 0.85296 0.0
H3262 H 0.74036 0.52996 0.86427 0.0
C3263 C 0.79191 0.57998 0.82846 0.0
C3264 C 0.79345 0.56583 0.81942 0.0
C3265 C 0.77574 0.57604 0.83819 0.0
C3266 C 0.73423 0.5384 0.86097 0.0
H3267 H 0.66226 0.55663 0.88369 0.0
H3268 H 0.69426 0.56623 0.87592 0.0
H3269 H 0.71062 0.52202 0.87832 0.0
H3270 H 0.77949 0.53637 0.81409 0.0
H3271 H 0.75135 0.52947 0.83117 0.0
H3272 H 0.7416 0.57614 0.83567 0.0
C3273 C 0.68428 0.55161 0.87636 0.0
C3274 C 0.71714 0.53382 0.86897 0.0
C3275 C 0.66593 0.5461 0.88101 0.0
C3276 C 0.77866 0.54759 0.82075 0.0
C3277 C 0.76261 0.54362 0.83068 0.0
C3278 C 0.73506 0.56444 0.84516 0.0
C3279 C 0.68953 0.53844 0.87193 0.0
C3280 C 0.70854 0.54424 0.86483 0.0
C3281 C 0.76087 0.55782 0.83932 0.0
C3282 C 0.7433 0.55365 0.84883 0.0
H3283 H 0.64777 0.49947 0.87828 0.0
H3284 H 0.67945 0.50899 0.86976 0.0
H3285 H 0.71163 0.56795 0.84911 0.0
H3286 H 0.80302 0.59417 0.82758 0.0
H3287 H 0.77485 0.58726 0.84479 0.0
C3288 C 0.4305 0.20632 0.81548 0.0
C3289 C 0.44038 0.22525 0.81951 0.0
C3290 C 0.43412 0.19401 0.82531 0.0
C3291 C 0.45922 0.18938 0.86696 0.0
H3292 H 0.45556 0.1488 0.83709 0.0
C3293 C 0.48996 0.14175 0.88619 0.0
C3294 C 0.47836 0.12277 0.88261 0.0
C3295 C 0.48436 0.1545 0.88135 0.0
C3296 C 0.45648 0.15996 0.84568 0.0
H3297 H 0.46144 0.2463 0.83714 0.0
H3298 H 0.46855 0.2249 0.85398 0.0
H3299 H 0.44815 0.17067 0.82282 0.0
H3300 H 0.45121 0.10228 0.87238 0.0
H3301 H 0.44168 0.12448 0.8638 0.0
H3302 H 0.46843 0.17878 0.8896 0.0
C3303 C 0.45761 0.21939 0.84356 0.0
C3304 C 0.45211 0.1725 0.83754 0.0
C3305 C 0.45365 0.23169 0.83392 0.0
C3306 C 0.4606 0.11677 0.87523 0.0
C3307 C 0.45513 0.12949 0.87022 0.0
C3308 C 0.4639 0.17692 0.87504 0.0
C3309 C 0.44812 0.20039 0.83912 0.0
C3310 C 0.45318 0.18729 0.84807 0.0
C3311 C 0.46715 0.14852 0.87269 0.0
C3312 C 0.46237 0.16197 0.86451 0.0
H3313 H 0.42004 0.20112 0.80455 0.0
H3314 H 0.42604 0.17948 0.82186 0.0
H3315 H 0.46009 0.20046 0.8756 0.0
H3316 H 0.50371 0.14686 0.89188 0.0
H3317 H 0.49391 0.1691 0.88339 0.0
C3318 C 0.78215 0.23019 0.82642 0.0
C3319 C 0.78351 0.21409 0.82624 0.0
C3320 C 0.79505 0.2459 0.83617 0.0
C3321 C 0.83203 0.26369 0.87237 0.0
H3322 H 0.85011 0.30923 0.84413 0.0
C3323 C 0.89703 0.33348 0.89364 0.0
C3324 C 0.89671 0.34982 0.88965 0.0
C3325 C 0.88237 0.31626 0.88803 0.0
C3326 C 0.84504 0.29672 0.8524 0.0
H3327 H 0.7991 0.20166 0.8369 0.0
H3328 H 0.82177 0.22923 0.85398 0.0
H3329 H 0.82618 0.28047 0.83068 0.0
H3330 H 0.88011 0.36061 0.87765 0.0
H3331 H 0.85455 0.3308 0.86845 0.0
H3332 H 0.85111 0.28013 0.89409 0.0
C3333 C 0.8106 0.22961 0.84661 0.0
C3334 C 0.8313 0.28018 0.84464 0.0
C3335 C 0.79761 0.21381 0.83684 0.0
C3336 C 0.88097 0.34841 0.88085 0.0
C3337 C 0.86632 0.33126 0.8754 0.0
C3338 C 0.84582 0.28035 0.88021 0.0
C3339 C 0.80972 0.24599 0.84599 0.0
C3340 C 0.8245 0.26346 0.85454 0.0
C3341 C 0.86705 0.315 0.87837 0.0
C3342 C 0.8524 0.29711 0.87035 0.0
H3343 H 0.77121 0.23075 0.8188 0.0
H3344 H 0.79368 0.25812 0.83577 0.0
H3345 H 0.82704 0.25105 0.88039 0.0
H3346 H 0.90897 0.33404 0.90033 0.0
H3347 H 0.88345 0.30404 0.8905 0.0
C3348 C 0.43126 0.22896 0.33372 0.0
C3349 C 0.44046 0.2203 0.34163 0.0
C3350 C 0.43514 0.24647 0.3399 0.0
C3351 C 0.47182 0.28855 0.3625 0.0
H3352 H 0.43305 0.3005 0.37039 0.0
C3353 C 0.48903 0.36106 0.38806 0.0
C3354 C 0.47947 0.36886 0.37921 0.0
C3355 C 0.48325 0.34229 0.38572 0.0
C3356 C 0.44408 0.29748 0.36809 0.0
H3357 H 0.46053 0.22329 0.36286 0.0
H3358 H 0.46745 0.25378 0.37329 0.0
H3359 H 0.42496 0.26916 0.3614 0.0
H3360 H 0.45583 0.36276 0.36157 0.0
H3361 H 0.44607 0.33037 0.35721 0.0
H3362 H 0.49099 0.31688 0.36862 0.0
C3363 C 0.45738 0.24709 0.36215 0.0
C3364 C 0.43942 0.27948 0.36295 0.0
C3365 C 0.45342 0.22956 0.35609 0.0
C3366 C 0.46356 0.35727 0.36863 0.0
C3367 C 0.45787 0.33858 0.36619 0.0
C3368 C 0.4765 0.30657 0.36748 0.0
C3369 C 0.44841 0.25583 0.35404 0.0
C3370 C 0.45324 0.27482 0.36 0.0
C3371 C 0.46783 0.33087 0.37439 0.0
C3372 C 0.46271 0.31134 0.37025 0.0
H3373 H 0.42136 0.22245 0.32244 0.0
H3374 H 0.42811 0.25291 0.33322 0.0
H3375 H 0.48283 0.28549 0.36009 0.0
H3376 H 0.50128 0.36954 0.39638 0.0
H3377 H 0.49107 0.33679 0.39257 0.0
C3378 C 0.78831 0.22339 0.35675 0.0
C3379 C 0.79436 0.22448 0.33805 0.0
C3380 C 0.77051 0.20982 0.36211 0.0
C3381 C 0.73024 0.16513 0.34621 0.0
H3382 H 0.7044 0.17669 0.38444 0.0
C3383 C 0.65838 0.10944 0.37254 0.0
C3384 C 0.64527 0.11493 0.37613 0.0
C3385 C 0.67699 0.12261 0.36966 0.0
C3386 C 0.71129 0.17322 0.37361 0.0
H3387 H 0.7864 0.21235 0.31026 0.0
H3388 H 0.7551 0.18903 0.31934 0.0
H3389 H 0.73531 0.20004 0.37497 0.0
H3390 H 0.64151 0.13857 0.37995 0.0
H3391 H 0.67373 0.1615 0.3744 0.0
H3392 H 0.70587 0.13865 0.3441 0.0
C3393 C 0.76425 0.19829 0.33009 0.0
C3394 C 0.72924 0.18659 0.36836 0.0
C3395 C 0.78217 0.21171 0.32481 0.0
C3396 C 0.65129 0.13388 0.37742 0.0
C3397 C 0.66985 0.14706 0.37425 0.0
C3398 C 0.71222 0.15184 0.35128 0.0
C3399 C 0.75814 0.1971 0.34885 0.0
C3400 C 0.739 0.18276 0.35455 0.0
C3401 C 0.68293 0.14163 0.36997 0.0
C3402 C 0.70244 0.15567 0.36506 0.0
H3403 H 0.7975 0.23283 0.36736 0.0
H3404 H 0.76658 0.20917 0.37676 0.0
H3405 H 0.73732 0.16147 0.33575 0.0
H3406 H 0.6542 0.09494 0.37159 0.0
H3407 H 0.68665 0.11782 0.36692 0.0
C3408 C 0.80178 0.57773 0.346 0.0
C3409 C 0.79365 0.57011 0.32847 0.0
C3410 C 0.81544 0.57452 0.3536 0.0
C3411 C 0.85056 0.5626 0.33945 0.0
H3412 H 0.84787 0.54571 0.39094 0.0
C3413 C 0.90776 0.55122 0.36978 0.0
C3414 C 0.90172 0.53396 0.37838 0.0
C3415 C 0.89537 0.55747 0.36609 0.0
C3416 C 0.8488 0.55046 0.37655 0.0
H3417 H 0.79379 0.55353 0.30503 0.0
H3418 H 0.81756 0.54804 0.31816 0.0
H3419 H 0.82459 0.55307 0.37936 0.0
H3420 H 0.87805 0.51029 0.39091 0.0
H3421 H 0.85639 0.52126 0.38448 0.0
H3422 H 0.87448 0.55974 0.33641 0.0
C3423 C 0.81335 0.55641 0.3261 0.0
C3424 C 0.83558 0.5548 0.36997 0.0
C3425 C 0.79959 0.5594 0.31865 0.0
C3426 C 0.88318 0.52363 0.38425 0.0
C3427 C 0.87076 0.52994 0.3806 0.0
C3428 C 0.86384 0.55848 0.34606 0.0
C3429 C 0.82145 0.56391 0.34364 0.0
C3430 C 0.83617 0.56064 0.35125 0.0
C3431 C 0.87662 0.54668 0.37097 0.0
C3432 C 0.86303 0.55216 0.36461 0.0
H3433 H 0.7974 0.58596 0.35391 0.0
H3434 H 0.8215 0.58054 0.36712 0.0
H3435 H 0.85147 0.56722 0.32501 0.0
H3436 H 0.92197 0.55966 0.36522 0.0
H3437 H 0.90038 0.57058 0.35895 0.0
C3438 C 0.56325 0.1127 0.85423 0.0
C3439 C 0.55212 0.11543 0.84128 0.0
C3440 C 0.58092 0.11632 0.84916 0.0
C3441 C 0.61832 0.14051 0.81374 0.0
H3442 H 0.63404 0.10699 0.83262 0.0
C3443 C 0.68658 0.14221 0.79114 0.0
C3444 C 0.69686 0.14083 0.80612 0.0
C3445 C 0.66885 0.13961 0.79435 0.0
C3446 C 0.62989 0.11653 0.82731 0.0
H3447 H 0.55088 0.12423 0.81282 0.0
H3448 H 0.58164 0.13034 0.80383 0.0
H3449 H 0.60334 0.10156 0.84031 0.0
H3450 H 0.69673 0.13597 0.83622 0.0
H3451 H 0.66602 0.13139 0.84169 0.0
H3452 H 0.645 0.15533 0.80057 0.0
C3453 C 0.57685 0.1257 0.81805 0.0
C3454 C 0.61231 0.11348 0.83179 0.0
C3455 C 0.5592 0.12219 0.8232 0.0
C3456 C 0.68919 0.13708 0.82434 0.0
C3457 C 0.67152 0.13434 0.82748 0.0
C3458 C 0.63592 0.14348 0.80912 0.0
C3459 C 0.58787 0.12262 0.83091 0.0
C3460 C 0.60637 0.12558 0.82534 0.0
C3461 C 0.66106 0.13538 0.81253 0.0
C3462 C 0.64198 0.13167 0.81612 0.0
H3463 H 0.5583 0.1078 0.86836 0.0
H3464 H 0.58915 0.11422 0.8596 0.0
H3465 H 0.61428 0.15019 0.80863 0.0
H3466 H 0.69214 0.14509 0.77696 0.0
H3467 H 0.66106 0.14045 0.78255 0.0
C3468 C 0.86563 0.54759 0.82164 0.0
C3469 C 0.87027 0.55666 0.80415 0.0
C3470 C 0.8692 0.53329 0.82535 0.0
C3471 C 0.88088 0.50001 0.80349 0.0
H3472 H 0.89699 0.49865 0.85449 0.0
C3473 C 0.90528 0.44925 0.83083 0.0
C3474 C 0.89646 0.43999 0.84756 0.0
C3475 C 0.90285 0.46362 0.82388 0.0
C3476 C 0.89248 0.49884 0.8402 0.0
H3477 H 0.88184 0.55754 0.77657 0.0
H3478 H 0.88854 0.53266 0.7832 0.0
H3479 H 0.89138 0.52343 0.84524 0.0
H3480 H 0.87842 0.43873 0.87022 0.0
H3481 H 0.87436 0.46376 0.85826 0.0
H3482 H 0.88229 0.47535 0.7986 0.0
C3483 C 0.88187 0.53647 0.79397 0.0
C3484 C 0.88914 0.51297 0.8349 0.0
C3485 C 0.87807 0.55073 0.79017 0.0
C3486 C 0.88519 0.44537 0.85716 0.0
C3487 C 0.883 0.45983 0.85041 0.0
C3488 C 0.88445 0.48591 0.80878 0.0
C3489 C 0.87781 0.52783 0.81178 0.0
C3490 C 0.88282 0.51351 0.81663 0.0
C3491 C 0.89187 0.46918 0.83379 0.0
C3492 C 0.88987 0.48498 0.82733 0.0
H3493 H 0.85937 0.55168 0.83262 0.0
H3494 H 0.86533 0.52661 0.839 0.0
H3495 H 0.876 0.49996 0.78933 0.0
H3496 H 0.914 0.44533 0.82315 0.0
H3497 H 0.90988 0.47066 0.81105 0.0
C3498 C 0.4672 0.32531 0.78931 0.0
C3499 C 0.45733 0.31403 0.80464 0.0
C3500 C 0.48254 0.34292 0.79237 0.0
C3501 C 0.516 0.37215 0.82975 0.0
H3502 H 0.52171 0.41293 0.7988 0.0
C3503 C 0.56068 0.44833 0.85248 0.0
C3504 C 0.57213 0.46109 0.8388 0.0
C3505 C 0.5478 0.43018 0.84742 0.0
C3506 C 0.52043 0.40165 0.80743 0.0
H3507 H 0.45594 0.31231 0.83519 0.0
H3508 H 0.4822 0.34284 0.84049 0.0
H3509 H 0.49747 0.38151 0.79133 0.0
H3510 H 0.57885 0.46482 0.80901 0.0
H3511 H 0.55629 0.43311 0.80015 0.0
H3512 H 0.53861 0.39239 0.84616 0.0
C3513 C 0.47848 0.33811 0.82608 0.0
C3514 C 0.50656 0.38361 0.80312 0.0
C3515 C 0.46328 0.32058 0.82303 0.0
C3516 C 0.57037 0.45528 0.81991 0.0
C3517 C 0.55733 0.43717 0.81481 0.0
C3518 C 0.52972 0.39017 0.83414 0.0
C3519 C 0.48829 0.3496 0.81083 0.0
C3520 C 0.50399 0.36864 0.81438 0.0
C3521 C 0.54592 0.4244 0.82852 0.0
C3522 C 0.53196 0.40516 0.82318 0.0
H3523 H 0.46295 0.32065 0.77497 0.0
H3524 H 0.48987 0.35129 0.78027 0.0
H3525 H 0.51474 0.36097 0.8385 0.0
H3526 H 0.5618 0.45233 0.86715 0.0
H3527 H 0.53909 0.42072 0.85829 0.0
C3528 C 0.55107 0.65191 0.62965 0.0
C3529 C 0.5322 0.63884 0.62752 0.0
C3530 C 0.55681 0.67054 0.63284 0.0
C3531 C 0.5408 0.70509 0.63209 0.0
H3532 H 0.57875 0.72955 0.6702 0.0
C3533 C 0.55252 0.7709 0.67048 0.0
C3534 C 0.57085 0.78536 0.67285 0.0
C3535 C 0.54877 0.75363 0.6638 0.0
C3536 C 0.56829 0.723 0.65938 0.0
H3537 H 0.50467 0.63529 0.62628 0.0
H3538 H 0.51459 0.6676 0.63213 0.0
H3539 H 0.57054 0.69861 0.65968 0.0
H3540 H 0.59961 0.79262 0.67018 0.0
H3541 H 0.59299 0.76233 0.6589 0.0
H3542 H 0.53821 0.72934 0.63227 0.0
C3543 C 0.52504 0.66359 0.63108 0.0
C3544 C 0.56361 0.70526 0.65326 0.0
C3545 C 0.51932 0.64499 0.62774 0.0
C3546 C 0.58533 0.78186 0.66876 0.0
C3547 C 0.58155 0.76449 0.66221 0.0
C3548 C 0.54538 0.72276 0.63833 0.0
C3549 C 0.54383 0.67656 0.63412 0.0
C3550 C 0.54967 0.69597 0.63965 0.0
C3551 C 0.56322 0.75024 0.65946 0.0
C3552 C 0.55905 0.73185 0.65218 0.0
H3553 H 0.56139 0.64767 0.62944 0.0
H3554 H 0.57142 0.68016 0.63466 0.0
H3555 H 0.53025 0.69857 0.62136 0.0
H3556 H 0.54097 0.77283 0.67385 0.0
H3557 H 0.53449 0.74284 0.66221 0.0
C3558 C 0.36067 0.89757 0.62852 0.0
C3559 C 0.3738 0.89199 0.62539 0.0
C3560 C 0.34226 0.88457 0.63255 0.0
C3561 C 0.30763 0.83427 0.63188 0.0
H3562 H 0.28512 0.84752 0.67229 0.0
C3563 C 0.24026 0.78046 0.66894 0.0
C3564 C 0.22704 0.78566 0.67326 0.0
C3565 C 0.25784 0.79346 0.66237 0.0
C3566 C 0.29109 0.84366 0.66083 0.0
H3567 H 0.37759 0.86821 0.62322 0.0
H3568 H 0.34553 0.84555 0.6304 0.0
H3569 H 0.31594 0.86991 0.66125 0.0
H3570 H 0.22215 0.80884 0.67389 0.0
H3571 H 0.2528 0.83148 0.66262 0.0
H3572 H 0.2828 0.8079 0.63168 0.0
C3573 C 0.34942 0.85998 0.62958 0.0
C3574 C 0.30878 0.85653 0.65445 0.0
C3575 C 0.36785 0.873 0.62547 0.0
C3576 C 0.23199 0.80431 0.67103 0.0
C3577 C 0.2496 0.81733 0.6645 0.0
C3578 C 0.28993 0.82137 0.6383 0.0
C3579 C 0.33648 0.86564 0.63364 0.0
C3580 C 0.31733 0.85202 0.63991 0.0
C3581 C 0.26272 0.81205 0.65999 0.0
C3582 C 0.28145 0.82588 0.65291 0.0
H3583 H 0.36471 0.91206 0.62843 0.0
H3584 H 0.33261 0.88942 0.63515 0.0
H3585 H 0.31365 0.83037 0.62051 0.0
H3586 H 0.23709 0.76631 0.67075 0.0
H3587 H 0.26769 0.78895 0.65938 0.0
C3588 C 0.13256 0.48898 0.62458 0.0
C3589 C 0.11442 0.47816 0.63142 0.0
C3590 C 0.14578 0.48358 0.62762 0.0
C3591 C 0.15641 0.45692 0.66131 0.0
H3592 H 0.19201 0.46052 0.62406 0.0
C3593 C 0.20862 0.43245 0.67761 0.0
C3594 C 0.22657 0.44272 0.6701 0.0
C3595 C 0.19461 0.43602 0.67206 0.0
C3596 C 0.18233 0.45965 0.63473 0.0
H3597 H 0.09575 0.4526 0.64589 0.0
H3598 H 0.11875 0.44331 0.65116 0.0
H3599 H 0.16827 0.46805 0.61521 0.0
H3600 H 0.24353 0.46489 0.65059 0.0
H3601 H 0.2195 0.47151 0.64164 0.0
H3602 H 0.17063 0.44907 0.681 0.0
C3603 C 0.12281 0.45607 0.64367 0.0
C3604 C 0.16868 0.46391 0.6296 0.0
C3605 C 0.1096 0.46138 0.64053 0.0
C3606 C 0.23005 0.45672 0.65693 0.0
C3607 C 0.2161 0.46039 0.65152 0.0
C3608 C 0.17014 0.45286 0.66649 0.0
C3609 C 0.14115 0.46731 0.63766 0.0
C3610 C 0.15555 0.46255 0.64283 0.0
C3611 C 0.19815 0.45008 0.65896 0.0
C3612 C 0.18332 0.45416 0.65329 0.0
H3613 H 0.13676 0.50198 0.61752 0.0
H3614 H 0.15982 0.49255 0.62285 0.0
H3615 H 0.14668 0.45605 0.67193 0.0
H3616 H 0.20531 0.4217 0.68791 0.0
H3617 H 0.18092 0.4276 0.67795 0.0
C3618 C 0.34525 0.89296 0.2291 0.0
C3619 C 0.32873 0.8777 0.22264 0.0
C3620 C 0.36246 0.89565 0.22315 0.0
C3621 C 0.38234 0.88304 0.18319 0.0
H3622 H 0.42658 0.90259 0.21392 0.0
C3623 C 0.44788 0.88649 0.15426 0.0
C3624 C 0.46466 0.903 0.15699 0.0
C3625 C 0.43205 0.88303 0.16422 0.0
C3626 C 0.41436 0.89724 0.20514 0.0
H3627 H 0.31756 0.85278 0.2057 0.0
H3628 H 0.34723 0.85711 0.19592 0.0
H3629 H 0.39747 0.89711 0.22807 0.0
H3630 H 0.47813 0.92853 0.17294 0.0
H3631 H 0.45035 0.92251 0.19038 0.0
H3632 H 0.39902 0.88323 0.16028 0.0
C3633 C 0.34698 0.86732 0.20515 0.0
C3634 C 0.39769 0.89412 0.21324 0.0
C3635 C 0.32988 0.86472 0.21095 0.0
C3636 C 0.46544 0.91562 0.17061 0.0
C3637 C 0.44952 0.91217 0.18059 0.0
C3638 C 0.39889 0.88612 0.17515 0.0
C3639 C 0.36348 0.88309 0.21067 0.0
C3640 C 0.38143 0.8868 0.20237 0.0
C3641 C 0.43252 0.89603 0.17715 0.0
C3642 C 0.41508 0.89309 0.18603 0.0
H3643 H 0.34491 0.90329 0.23807 0.0
H3644 H 0.37489 0.90797 0.22765 0.0
H3645 H 0.37026 0.87791 0.17423 0.0
H3646 H 0.44691 0.87631 0.14418 0.0
H3647 H 0.41931 0.87024 0.16156 0.0
C3648 C 0.10193 0.54144 0.14643 0.0
C3649 C 0.10595 0.55871 0.15365 0.0
C3650 C 0.10584 0.52968 0.15694 0.0
C3651 C 0.13766 0.52847 0.18921 0.0
H3652 H 0.09926 0.47842 0.20062 0.0
C3653 C 0.15617 0.47571 0.22025 0.0
C3654 C 0.14618 0.45765 0.21308 0.0
C3655 C 0.1502 0.48845 0.21692 0.0
C3656 C 0.11024 0.49227 0.19739 0.0
H3657 H 0.11722 0.57728 0.17743 0.0
H3658 H 0.12484 0.55683 0.19569 0.0
H3659 H 0.09104 0.50004 0.18672 0.0
H3660 H 0.12167 0.43865 0.19732 0.0
H3661 H 0.11173 0.46075 0.19095 0.0
H3662 H 0.15705 0.52054 0.19849 0.0
C3663 C 0.11834 0.55238 0.182 0.0
C3664 C 0.10545 0.50468 0.1896 0.0
C3665 C 0.11396 0.564 0.17164 0.0
C3666 C 0.1297 0.45241 0.20317 0.0
C3667 C 0.1239 0.46516 0.1996 0.0
C3668 C 0.14253 0.51594 0.19663 0.0
C3669 C 0.11424 0.5351 0.17472 0.0
C3670 C 0.11913 0.52278 0.18516 0.0
C3671 C 0.13421 0.4835 0.20611 0.0
C3672 C 0.12891 0.49751 0.20046 0.0
H3673 H 0.09561 0.53702 0.13266 0.0
H3674 H 0.10264 0.51646 0.151 0.0
H3675 H 0.14846 0.54234 0.18574 0.0
H3676 H 0.16888 0.48018 0.22803 0.0
H3677 H 0.15833 0.50227 0.22255 0.0
C3678 C 0.56669 0.68278 0.21019 0.0
C3679 C 0.56076 0.69403 0.21896 0.0
C3680 C 0.55394 0.66476 0.20474 0.0
C3681 C 0.50786 0.62503 0.2103 0.0
H3682 H 0.51041 0.6195 0.15627 0.0
C3683 C 0.45308 0.56024 0.16882 0.0
C3684 C 0.45918 0.55517 0.15265 0.0
C3685 C 0.46513 0.57643 0.17868 0.0
C3686 C 0.50964 0.62054 0.17143 0.0
H3687 H 0.53686 0.69454 0.23023 0.0
H3688 H 0.51458 0.66273 0.22101 0.0
H3689 H 0.53222 0.64834 0.17134 0.0
H3690 H 0.48272 0.56207 0.13481 0.0
H3691 H 0.50398 0.58958 0.15235 0.0
H3692 H 0.48558 0.59698 0.2105 0.0
C3693 C 0.52914 0.66809 0.21822 0.0
C3694 C 0.52212 0.63719 0.18003 0.0
C3695 C 0.5419 0.68629 0.22346 0.0
C3696 C 0.47765 0.56596 0.14703 0.0
C3697 C 0.48976 0.58182 0.15705 0.0
C3698 C 0.49551 0.60813 0.20172 0.0
C3699 C 0.535 0.65743 0.2082 0.0
C3700 C 0.52144 0.63959 0.19952 0.0
C3701 C 0.4836 0.58763 0.17271 0.0
C3702 C 0.49634 0.60561 0.18215 0.0
H3703 H 0.58109 0.68818 0.20657 0.0
H3704 H 0.55881 0.65674 0.19718 0.0
H3705 H 0.50706 0.6266 0.22538 0.0
H3706 H 0.43884 0.55205 0.17335 0.0
H3707 H 0.45979 0.58044 0.19058 0.0
C3708 C 0.13477 0.69241 0.69939 0.0
C3709 C 0.14838 0.70264 0.713 0.0
C3710 C 0.12943 0.67398 0.6958 0.0
C3711 C 0.12511 0.63188 0.71434 0.0
H3712 H 0.13332 0.62148 0.663 0.0
C3713 C 0.09536 0.55818 0.68187 0.0
C3714 C 0.10869 0.55472 0.67376 0.0
C3715 C 0.10013 0.57604 0.68769 0.0
C3716 C 0.13096 0.6242 0.67737 0.0
H3717 H 0.16637 0.70117 0.73414 0.0
H3718 H 0.15645 0.66855 0.72823 0.0
H3719 H 0.14127 0.65295 0.67185 0.0
H3720 H 0.13729 0.56712 0.66514 0.0
H3721 H 0.14551 0.59852 0.67471 0.0
H3722 H 0.11429 0.60295 0.71968 0.0
C3723 C 0.15021 0.67505 0.72022 0.0
C3724 C 0.13544 0.64214 0.68241 0.0
C3725 C 0.15587 0.69369 0.72357 0.0
C3726 C 0.12681 0.56945 0.67142 0.0
C3727 C 0.13148 0.58736 0.67683 0.0
C3728 C 0.12021 0.6138 0.70918 0.0
C3729 C 0.13727 0.6652 0.70599 0.0
C3730 C 0.13261 0.64615 0.70094 0.0
C3731 C 0.11821 0.59081 0.6851 0.0
C3732 C 0.12318 0.60984 0.69066 0.0
H3733 H 0.12873 0.69883 0.69092 0.0
H3734 H 0.11936 0.66662 0.68483 0.0
H3735 H 0.12275 0.63466 0.7287 0.0
H3736 H 0.08134 0.54702 0.68398 0.0
H3737 H 0.08965 0.57839 0.69396 0.0
C3738 C 0.32472 0.44425 0.70483 0.0
C3739 C 0.31179 0.4498 0.70907 0.0
C3740 C 0.34338 0.45736 0.7021 0.0
C3741 C 0.37804 0.50782 0.70745 0.0
H3742 H 0.40406 0.49667 0.66907 0.0
C3743 C 0.45521 0.55817 0.691 0.0
C3744 C 0.46138 0.55927 0.67236 0.0
C3745 C 0.43732 0.54466 0.69621 0.0
C3746 C 0.39699 0.50019 0.67966 0.0
H3747 H 0.30836 0.47349 0.71411 0.0
H3748 H 0.34061 0.49634 0.70871 0.0
H3749 H 0.37254 0.47386 0.67701 0.0
H3750 H 0.45356 0.54735 0.64448 0.0
H3751 H 0.4221 0.52425 0.65325 0.0
H3752 H 0.40212 0.53456 0.70929 0.0
C3753 C 0.3366 0.48188 0.708 0.0
C3754 C 0.37891 0.48687 0.68452 0.0
C3755 C 0.31801 0.46874 0.71107 0.0
C3756 C 0.44921 0.54668 0.65899 0.0
C3757 C 0.4312 0.53336 0.6641 0.0
C3758 C 0.39603 0.52125 0.70238 0.0
C3759 C 0.34954 0.47641 0.70317 0.0
C3760 C 0.36912 0.49047 0.69848 0.0
C3761 C 0.42499 0.53206 0.68284 0.0
C3762 C 0.40579 0.51766 0.68838 0.0
H3763 H 0.32037 0.42974 0.70333 0.0
H3764 H 0.3529 0.4525 0.69893 0.0
H3765 H 0.37116 0.51111 0.71845 0.0
H3766 H 0.46439 0.56751 0.70168 0.0
H3767 H 0.43331 0.54395 0.71084 0.0
C3768 C 0.55593 0.86397 0.70818 0.0
C3769 C 0.5733 0.8785 0.7137 0.0
C3770 C 0.54127 0.86714 0.70458 0.0
C3771 C 0.52608 0.90229 0.70943 0.0
H3772 H 0.49399 0.8748 0.66775 0.0
C3773 C 0.47579 0.92184 0.673 0.0
C3774 C 0.45768 0.90728 0.66988 0.0
C3775 C 0.4896 0.91826 0.67927 0.0
C3776 C 0.50274 0.88248 0.67952 0.0
H3777 H 0.58879 0.9077 0.72026 0.0
H3778 H 0.56347 0.91342 0.71346 0.0
H3779 H 0.51837 0.86869 0.67744 0.0
H3780 H 0.43995 0.87758 0.67065 0.0
H3781 H 0.46413 0.87127 0.6813 0.0
H3782 H 0.51066 0.91651 0.71092 0.0
C3783 C 0.56092 0.89943 0.71231 0.0
C3784 C 0.5167 0.87892 0.6852 0.0
C3785 C 0.57551 0.89617 0.71621 0.0
C3786 C 0.45374 0.88907 0.67304 0.0
C3787 C 0.4676 0.88546 0.67902 0.0
C3788 C 0.51226 0.90603 0.70355 0.0
C3789 C 0.54368 0.88502 0.70606 0.0
C3790 C 0.52856 0.88871 0.7003 0.0
C3791 C 0.48568 0.90002 0.68227 0.0
C3792 C 0.5004 0.89613 0.68856 0.0
H3793 H 0.55373 0.85014 0.70633 0.0
H3794 H 0.52811 0.85555 0.70037 0.0
H3795 H 0.53469 0.90995 0.72128 0.0
H3796 H 0.47921 0.93603 0.67089 0.0
H3797 H 0.50343 0.92975 0.68154 0.0
C3798 C 0.22727 0.43816 0.17134 0.0
C3799 C 0.22164 0.45147 0.17066 0.0
C3800 C 0.24524 0.44274 0.16635 0.0
C3801 C 0.28671 0.47654 0.14013 0.0
H3802 H 0.31164 0.45864 0.17277 0.0
C3803 C 0.36404 0.48734 0.15571 0.0
C3804 C 0.36955 0.4851 0.13763 0.0
C3805 C 0.34635 0.48459 0.15878 0.0
C3806 C 0.30494 0.46386 0.16356 0.0
H3807 H 0.23068 0.48005 0.16391 0.0
H3808 H 0.26209 0.48801 0.15509 0.0
H3809 H 0.28015 0.4511 0.17997 0.0
H3810 H 0.36106 0.47904 0.10839 0.0
H3811 H 0.32991 0.47419 0.11379 0.0
H3812 H 0.31172 0.48942 0.12381 0.0
C3813 C 0.25245 0.47398 0.1594 0.0
C3814 C 0.2868 0.45936 0.16758 0.0
C3815 C 0.23445 0.46941 0.16449 0.0
C3816 C 0.35722 0.48088 0.12248 0.0
C3817 C 0.33941 0.47813 0.12557 0.0
C3818 C 0.30489 0.48095 0.13602 0.0
C3819 C 0.2581 0.46072 0.16045 0.0
C3820 C 0.27745 0.46564 0.15595 0.0
C3821 C 0.33365 0.47952 0.14386 0.0
C3822 C 0.31425 0.47475 0.14778 0.0
H3823 H 0.21776 0.42409 0.17553 0.0
H3824 H 0.24904 0.4321 0.16698 0.0
H3825 H 0.27982 0.48147 0.13082 0.0
H3826 H 0.37325 0.49076 0.16767 0.0
H3827 H 0.34249 0.48615 0.17296 0.0
C3828 C 0.55094 0.77079 0.16992 0.0
C3829 C 0.56897 0.77565 0.17553 0.0
C3830 C 0.54674 0.78441 0.16444 0.0
C3831 C 0.54422 0.81579 0.14454 0.0
H3832 H 0.56585 0.86055 0.17456 0.0
C3833 C 0.54043 0.88167 0.12466 0.0
C3834 C 0.5378 0.89112 0.13967 0.0
C3835 C 0.54319 0.8667 0.12822 0.0
C3836 C 0.55958 0.8481 0.16609 0.0
H3837 H 0.59691 0.79864 0.17879 0.0
H3838 H 0.58962 0.82221 0.1694 0.0
H3839 H 0.57259 0.83619 0.18226 0.0
H3840 H 0.53522 0.89178 0.17008 0.0
H3841 H 0.5398 0.86575 0.1762 0.0
H3842 H 0.53098 0.82775 0.12855 0.0
C3843 C 0.5786 0.80794 0.16963 0.0
C3844 C 0.56363 0.8342 0.17037 0.0
C3845 C 0.58277 0.79438 0.17508 0.0
C3846 C 0.53738 0.88493 0.15819 0.0
C3847 C 0.54012 0.87005 0.16173 0.0
C3848 C 0.54021 0.82979 0.1402 0.0
C3849 C 0.5605 0.80317 0.16445 0.0
C3850 C 0.55602 0.81786 0.15968 0.0
C3851 C 0.54341 0.86095 0.14685 0.0
C3852 C 0.54777 0.84607 0.15101 0.0
H3853 H 0.53997 0.75652 0.1702 0.0
H3854 H 0.53263 0.78027 0.16068 0.0
H3855 H 0.53825 0.80343 0.13593 0.0
H3856 H 0.54083 0.88612 0.11024 0.0
H3857 H 0.54577 0.86003 0.11645 0.0
C3858 C 0.13126 0.6524 0.15393 0.0
C3859 C 0.12103 0.64757 0.13711 0.0
C3860 C 0.14524 0.67053 0.15712 0.0
C3861 C 0.17555 0.71606 0.1349 0.0
H3862 H 0.17717 0.733 0.18619 0.0
C3863 C 0.22546 0.79153 0.16214 0.0
C3864 C 0.2354 0.7919 0.1783 0.0
C3865 C 0.21086 0.77473 0.15544 0.0
C3866 C 0.17687 0.72848 0.17181 0.0
H3867 H 0.11792 0.65776 0.11006 0.0
H3868 H 0.14236 0.68975 0.11575 0.0
H3869 H 0.15338 0.70203 0.17723 0.0
H3870 H 0.23752 0.77513 0.2004 0.0
H3871 H 0.21213 0.74607 0.18894 0.0
H3872 H 0.19922 0.74281 0.12967 0.0
C3873 C 0.13964 0.67941 0.1264 0.0
C3874 C 0.16333 0.71068 0.16668 0.0
C3875 C 0.12567 0.6611 0.12312 0.0
C3876 C 0.23031 0.77527 0.18776 0.0
C3877 C 0.21565 0.75864 0.18129 0.0
C3878 C 0.18909 0.73404 0.14004 0.0
C3879 C 0.14923 0.68441 0.14369 0.0
C3880 C 0.16279 0.70402 0.14832 0.0
C3881 C 0.20577 0.75815 0.16508 0.0
C3882 C 0.19014 0.74021 0.15869 0.0
H3883 H 0.12814 0.64223 0.16489 0.0
H3884 H 0.15271 0.67373 0.17035 0.0
H3885 H 0.17551 0.71139 0.12065 0.0
H3886 H 0.22916 0.80418 0.1546 0.0
H3887 H 0.2034 0.7747 0.14293 0.0
loop_
_geom_bond_atom_site_label_1
_geom_bond_atom_site_label_2
_geom_bond_distance
_geom_bond_site_symmetry_2
_ccdc_geom_bond_type
Co0 N4 2.148 . S
Co0 N10 2.128 . S
Co0 N20 2.194 . S
Co0 O25 2.351 . S
Co0 O26 2.150 . S
Co0 O27 2.096 . S
C1 N4 1.301 . S
C1 N5 1.328 . S
C1 H6 0.930 . S
C2 C3 1.333 . S
C2 N4 1.317 . S
C2 H7 0.930 . S
C3 C2 1.333 . S
C3 N5 1.350 . S
C3 H29 0.931 . S
N4 Co0 2.148 . S
N4 C1 1.301 . S
N4 C2 1.317 . S
N5 C1 1.328 . S
N5 C3 1.350 . S
H6 C1 0.930 . S
H7 C2 0.930 . S
C8 O9 1.224 . S
C8 O27 1.247 . S
O9 C8 1.224 . S
N10 Co0 2.128 . S
N10 C11 1.355 . S
N10 C13 1.311 . S
C11 N10 1.355 . S
C11 C12 1.363 . S
C11 H23 0.929 . S
C12 C11 1.363 . S
C12 N14 1.375 . S
C12 H30 0.931 . S
C13 N10 1.311 . S
C13 N14 1.347 . S
C13 H24 0.929 . S
N14 C12 1.375 . S
N14 C13 1.347 . S
C15 C18 1.365 . S
C15 N20 1.328 . S
C15 H21 0.929 . S
C16 C17 1.362 . S
C16 C19 1.378 . S
C16 H31 0.929 . S
C17 C16 1.362 . S
C17 C18 1.366 . S
C18 C15 1.365 . S
C18 C17 1.366 . S
C18 H32 0.930 . S
C19 C16 1.378 . S
C19 N20 1.315 . S
C19 H22 0.930 . S
N20 Co0 2.194 . S
N20 C15 1.328 . S
N20 C19 1.315 . S
H21 C15 0.929 . S
H22 C19 0.930 . S
H23 C11 0.929 . S
H24 C13 0.929 . S
O25 Co0 2.351 . S
O25 C28 1.244 . S
O26 Co0 2.150 . S
O26 C28 1.239 . S
O27 Co0 2.096 . S
O27 C8 1.247 . S
C28 O25 1.244 . S
C28 O26 1.239 . S
H29 C3 0.931 . S
H30 C12 0.931 . S
H31 C16 0.929 . S
H32 C18 0.930 . S
Co33 N37 2.148 . S
Co33 N43 2.128 . S
Co33 N53 2.194 . S
Co33 O58 2.351 . S
Co33 O59 2.151 . S
Co33 O60 2.096 . S
C34 N37 1.301 . S
C34 N38 1.328 . S
C34 H39 0.930 . S
C35 C36 1.333 . S
C35 N37 1.317 . S
C35 H40 0.930 . S
C36 C35 1.333 . S
C36 N38 1.350 . S
C36 H62 0.931 . S
N37 Co33 2.148 . S
N37 C34 1.301 . S
N37 C35 1.317 . S
N38 C34 1.328 . S
N38 C36 1.350 . S
H39 C34 0.930 . S
H40 C35 0.930 . S
C41 O42 1.224 . S
C41 O60 1.247 . S
O42 C41 1.224 . S
N43 Co33 2.128 . S
N43 C44 1.355 . S
N43 C46 1.311 . S
C44 N43 1.355 . S
C44 C45 1.363 . S
C44 H56 0.929 . S
C45 C44 1.363 . S
C45 N47 1.375 . S
C45 H63 0.931 . S
C46 N43 1.311 . S
C46 N47 1.347 . S
C46 H57 0.929 . S
N47 C45 1.375 . S
N47 C46 1.347 . S
C48 C51 1.365 . S
C48 N53 1.328 . S
C48 H54 0.929 . S
C49 C50 1.362 . S
C49 C52 1.378 . S
C49 H64 0.929 . S
C50 C49 1.362 . S
C50 C51 1.366 . S
C51 C48 1.365 . S
C51 C50 1.366 . S
C51 H65 0.930 . S
C52 C49 1.378 . S
C52 N53 1.315 . S
C52 H55 0.930 . S
N53 Co33 2.194 . S
N53 C48 1.328 . S
N53 C52 1.315 . S
H54 C48 0.929 . S
H55 C52 0.930 . S
H56 C44 0.929 . S
H57 C46 0.929 . S
O58 Co33 2.351 . S
O58 C61 1.244 . S
O59 Co33 2.151 . S
O59 C61 1.239 . S
O60 Co33 2.096 . S
O60 C41 1.247 . S
C61 O58 1.244 . S
C61 O59 1.239 . S
H62 C36 0.931 . S
H63 C45 0.931 . S
H64 C49 0.929 . S
H65 C51 0.930 . S
Co66 N70 2.148 . S
Co66 N76 2.128 . S
Co66 N86 2.194 . S
Co66 O91 2.351 . S
Co66 O92 2.151 . S
Co66 O93 2.096 . S
C67 N70 1.301 . S
C67 N71 1.328 . S
C67 H72 0.930 . S
C68 C69 1.333 . S
C68 N70 1.317 . S
C68 H73 0.930 . S
C69 C68 1.333 . S
C69 N71 1.350 . S
C69 H95 0.931 . S
N70 Co66 2.148 . S
N70 C67 1.301 . S
N70 C68 1.317 . S
N71 C67 1.328 . S
N71 C69 1.350 . S
H72 C67 0.930 . S
H73 C68 0.930 . S
C74 O75 1.224 . S
C74 O93 1.247 . S
O75 C74 1.224 . S
N76 Co66 2.128 . S
N76 C77 1.355 . S
N76 C79 1.311 . S
C77 N76 1.355 . S
C77 C78 1.363 . S
C77 H89 0.929 . S
C78 C77 1.363 . S
C78 N80 1.375 . S
C78 H96 0.931 . S
C79 N76 1.311 . S
C79 N80 1.347 . S
C79 H90 0.929 . S
N80 C78 1.375 . S
N80 C79 1.347 . S
C81 C84 1.365 . S
C81 N86 1.328 . S
C81 H87 0.929 . S
C82 C83 1.362 . S
C82 C85 1.378 . S
C82 H97 0.929 . S
C83 C82 1.362 . S
C83 C84 1.366 . S
C84 C81 1.365 . S
C84 C83 1.366 . S
C84 H98 0.930 . S
C85 C82 1.378 . S
C85 N86 1.315 . S
C85 H88 0.930 . S
N86 Co66 2.194 . S
N86 C81 1.328 . S
N86 C85 1.315 . S
H87 C81 0.929 . S
H88 C85 0.930 . S
H89 C77 0.929 . S
H90 C79 0.929 . S
O91 Co66 2.351 . S
O91 C94 1.244 . S
O92 Co66 2.151 . S
O92 C94 1.239 . S
O93 Co66 2.096 . S
O93 C74 1.247 . S
C94 O91 1.244 . S
C94 O92 1.239 . S
H95 C69 0.931 . S
H96 C78 0.931 . S
H97 C82 0.929 . S
H98 C84 0.930 . S
Co99 N103 2.148 . S
Co99 N109 2.128 . S
Co99 N119 2.194 . S
Co99 O124 2.351 . S
Co99 O125 2.155 . S
Co99 O126 2.096 . S
C100 N103 1.301 . S
C100 N104 1.328 . S
C100 H105 0.930 . S
C101 C102 1.333 . S
C101 N103 1.317 . S
C101 H106 0.930 . S
C102 C101 1.333 . S
C102 N104 1.350 . S
C102 H128 0.931 . S
N103 Co99 2.148 . S
N103 C100 1.301 . S
N103 C101 1.317 . S
N104 C100 1.328 . S
N104 C102 1.350 . S
H105 C100 0.930 . S
H106 C101 0.930 . S
C107 O108 1.224 . S
C107 O126 1.247 . S
O108 C107 1.224 . S
N109 Co99 2.128 . S
N109 C110 1.355 . S
N109 C112 1.311 . S
C110 N109 1.355 . S
C110 C111 1.363 . S
C110 H122 0.929 . S
C111 C110 1.363 . S
C111 N113 1.375 . S
C111 H129 0.931 . S
C112 N109 1.311 . S
C112 N113 1.347 . S
C112 H123 0.929 . S
N113 C111 1.375 . S
N113 C112 1.347 . S
C114 C117 1.365 . S
C114 N119 1.328 . S
C114 H120 0.929 . S
C115 C116 1.362 . S
C115 C118 1.378 . S
C115 H130 0.929 . S
C116 C115 1.362 . S
C116 C117 1.366 . S
C117 C114 1.365 . S
C117 C116 1.366 . S
C117 H131 0.930 . S
C118 C115 1.378 . S
C118 N119 1.315 . S
C118 H121 0.930 . S
N119 Co99 2.194 . S
N119 C114 1.328 . S
N119 C118 1.315 . S
H120 C114 0.929 . S
H121 C118 0.930 . S
H122 C110 0.929 . S
H123 C112 0.929 . S
O124 Co99 2.351 . S
O124 C127 1.244 . S
O125 Co99 2.155 . S
O125 C127 1.240 . S
O126 Co99 2.096 . S
O126 C107 1.247 . S
C127 O124 1.244 . S
C127 O125 1.240 . S
H128 C102 0.931 . S
H129 C111 0.931 . S
H130 C115 0.929 . S
H131 C117 0.930 . S
Co132 N136 2.148 . S
Co132 N142 2.128 . S
Co132 N152 2.194 . S
Co132 O157 2.351 . S
Co132 O158 2.155 . S
Co132 O159 2.096 . S
C133 N136 1.301 . S
C133 N137 1.328 . S
C133 H138 0.930 . S
C134 C135 1.333 . S
C134 N136 1.317 . S
C134 H139 0.930 . S
C135 C134 1.333 . S
C135 N137 1.350 . S
C135 H161 0.931 . S
N136 Co132 2.148 . S
N136 C133 1.301 . S
N136 C134 1.317 . S
N137 C133 1.328 . S
N137 C135 1.350 . S
H138 C133 0.930 . S
H139 C134 0.930 . S
C140 O141 1.224 . S
C140 O159 1.247 . S
O141 C140 1.224 . S
N142 Co132 2.128 . S
N142 C143 1.355 . S
N142 C145 1.311 . S
C143 N142 1.355 . S
C143 C144 1.363 . S
C143 H155 0.929 . S
C144 C143 1.363 . S
C144 N146 1.375 . S
C144 H162 0.931 . S
C145 N142 1.311 . S
C145 N146 1.347 . S
C145 H156 0.929 . S
N146 C144 1.375 . S
N146 C145 1.347 . S
C147 C150 1.365 . S
C147 N152 1.328 . S
C147 H153 0.929 . S
C148 C149 1.362 . S
C148 C151 1.378 . S
C148 H163 0.929 . S
C149 C148 1.362 . S
C149 C150 1.366 . S
C150 C147 1.365 . S
C150 C149 1.366 . S
C150 H164 0.930 . S
C151 C148 1.378 . S
C151 N152 1.315 . S
C151 H154 0.930 . S
N152 Co132 2.194 . S
N152 C147 1.328 . S
N152 C151 1.315 . S
H153 C147 0.929 . S
H154 C151 0.930 . S
H155 C143 0.929 . S
H156 C145 0.929 . S
O157 Co132 2.351 . S
O157 C160 1.244 . S
O158 Co132 2.155 . S
O158 C160 1.240 . S
O159 Co132 2.096 . S
O159 C140 1.247 . S
C160 O157 1.244 . S
C160 O158 1.240 . S
H161 C135 0.931 . S
H162 C144 0.931 . S
H163 C148 0.929 . S
H164 C150 0.930 . S
Co165 N169 2.148 . S
Co165 N175 2.128 . S
Co165 N185 2.194 . S
Co165 O190 2.351 . S
Co165 O191 2.155 . S
Co165 O192 2.096 . S
C166 N169 1.301 . S
C166 N170 1.328 . S
C166 H171 0.930 . S
C167 C168 1.333 . S
C167 N169 1.317 . S
C167 H172 0.930 . S
C168 C167 1.333 . S
C168 N170 1.350 . S
C168 H194 0.931 . S
N169 Co165 2.148 . S
N169 C166 1.301 . S
N169 C167 1.317 . S
N170 C166 1.328 . S
N170 C168 1.350 . S
H171 C166 0.930 . S
H172 C167 0.930 . S
C173 O174 1.224 . S
C173 O192 1.247 . S
O174 C173 1.224 . S
N175 Co165 2.128 . S
N175 C176 1.355 . S
N175 C178 1.311 . S
C176 N175 1.355 . S
C176 C177 1.363 . S
C176 H188 0.929 . S
C177 C176 1.363 . S
C177 N179 1.375 . S
C177 H195 0.931 . S
C178 N175 1.311 . S
C178 N179 1.347 . S
C178 H189 0.929 . S
N179 C177 1.375 . S
N179 C178 1.347 . S
C180 C183 1.365 . S
C180 N185 1.328 . S
C180 H186 0.929 . S
C181 C182 1.362 . S
C181 C184 1.378 . S
C181 H196 0.929 . S
C182 C181 1.362 . S
C182 C183 1.366 . S
C183 C180 1.365 . S
C183 C182 1.366 . S
C183 H197 0.930 . S
C184 C181 1.378 . S
C184 N185 1.315 . S
C184 H187 0.930 . S
N185 Co165 2.194 . S
N185 C180 1.328 . S
N185 C184 1.315 . S
H186 C180 0.929 . S
H187 C184 0.930 . S
H188 C176 0.929 . S
H189 C178 0.929 . S
O190 Co165 2.351 . S
O190 C193 1.244 . S
O191 Co165 2.155 . S
O191 C193 1.240 . S
O192 Co165 2.096 . S
O192 C173 1.247 . S
C193 O190 1.244 . S
C193 O191 1.240 . S
H194 C168 0.931 . S
H195 C177 0.931 . S
H196 C181 0.929 . S
H197 C183 0.930 . S
Co198 N202 2.148 . S
Co198 N208 2.128 . S
Co198 N218 2.194 . S
Co198 O223 2.351 . S
Co198 O224 2.155 . S
Co198 O225 2.096 . S
C199 N202 1.301 . S
C199 N203 1.328 . S
C199 H204 0.930 . S
C200 C201 1.333 . S
C200 N202 1.317 . S
C200 H205 0.930 . S
C201 C200 1.333 . S
C201 N203 1.350 . S
C201 H227 0.931 . S
N202 Co198 2.148 . S
N202 C199 1.301 . S
N202 C200 1.317 . S
N203 C199 1.328 . S
N203 C201 1.350 . S
H204 C199 0.930 . S
H205 C200 0.930 . S
C206 O207 1.224 . S
C206 O225 1.247 . S
O207 C206 1.224 . S
N208 Co198 2.128 . S
N208 C209 1.355 . S
N208 C211 1.311 . S
C209 N208 1.355 . S
C209 C210 1.363 . S
C209 H221 0.929 . S
C210 C209 1.363 . S
C210 N212 1.375 . S
C210 H228 0.931 . S
C211 N208 1.311 . S
C211 N212 1.347 . S
C211 H222 0.929 . S
N212 C210 1.375 . S
N212 C211 1.347 . S
C213 C216 1.365 . S
C213 N218 1.328 . S
C213 H219 0.929 . S
C214 C215 1.362 . S
C214 C217 1.378 . S
C214 H229 0.929 . S
C215 C214 1.362 . S
C215 C216 1.366 . S
C216 C213 1.365 . S
C216 C215 1.366 . S
C216 H230 0.930 . S
C217 C214 1.378 . S
C217 N218 1.315 . S
C217 H220 0.930 . S
N218 Co198 2.194 . S
N218 C213 1.328 . S
N218 C217 1.315 . S
H219 C213 0.929 . S
H220 C217 0.930 . S
H221 C209 0.929 . S
H222 C211 0.929 . S
O223 Co198 2.351 . S
O223 C226 1.244 . S
O224 Co198 2.155 . S
O224 C226 1.240 . S
O225 Co198 2.096 . S
O225 C206 1.247 . S
C226 O223 1.244 . S
C226 O224 1.240 . S
H227 C201 0.931 . S
H228 C210 0.931 . S
H229 C214 0.929 . S
H230 C216 0.930 . S
Co231 N235 2.148 . S
Co231 N241 2.128 . S
Co231 N251 2.194 . S
Co231 O256 2.351 . S
Co231 O257 2.155 . S
Co231 O258 2.096 . S
C232 N235 1.301 . S
C232 N236 1.328 . S
C232 H237 0.930 . S
C233 C234 1.333 . S
C233 N235 1.317 . S
C233 H238 0.930 . S
C234 C233 1.333 . S
C234 N236 1.350 . S
C234 H260 0.931 . S
N235 Co231 2.148 . S
N235 C232 1.301 . S
N235 C233 1.317 . S
N236 C232 1.328 . S
N236 C234 1.350 . S
H237 C232 0.930 . S
H238 C233 0.930 . S
C239 O240 1.224 . S
C239 O258 1.247 . S
O240 C239 1.224 . S
N241 Co231 2.128 . S
N241 C242 1.355 . S
N241 C244 1.311 . S
C242 N241 1.355 . S
C242 C243 1.363 . S
C242 H254 0.929 . S
C243 C242 1.363 . S
C243 N245 1.375 . S
C243 H261 0.931 . S
C244 N241 1.311 . S
C244 N245 1.347 . S
C244 H255 0.929 . S
N245 C243 1.375 . S
N245 C244 1.347 . S
C246 C249 1.365 . S
C246 N251 1.328 . S
C246 H252 0.929 . S
C247 C248 1.362 . S
C247 C250 1.378 . S
C247 H262 0.929 . S
C248 C247 1.362 . S
C248 C249 1.366 . S
C249 C246 1.365 . S
C249 C248 1.366 . S
C249 H263 0.930 . S
C250 C247 1.378 . S
C250 N251 1.315 . S
C250 H253 0.930 . S
N251 Co231 2.194 . S
N251 C246 1.328 . S
N251 C250 1.315 . S
H252 C246 0.929 . S
H253 C250 0.930 . S
H254 C242 0.929 . S
H255 C244 0.929 . S
O256 Co231 2.351 . S
O256 C259 1.244 . S
O257 Co231 2.155 . S
O257 C259 1.240 . S
O258 Co231 2.096 . S
O258 C239 1.247 . S
C259 O256 1.244 . S
C259 O257 1.240 . S
H260 C234 0.931 . S
H261 C243 0.931 . S
H262 C247 0.929 . S
H263 C249 0.930 . S
Co264 N268 2.148 . S
Co264 N274 2.128 . S
Co264 N284 2.194 . S
Co264 O289 2.351 . S
Co264 O290 2.155 . S
Co264 O291 2.096 . S
C265 N268 1.301 . S
C265 N269 1.328 . S
C265 H270 0.930 . S
C266 C267 1.333 . S
C266 N268 1.317 . S
C266 H271 0.930 . S
C267 C266 1.333 . S
C267 N269 1.350 . S
C267 H293 0.931 . S
N268 Co264 2.148 . S
N268 C265 1.301 . S
N268 C266 1.317 . S
N269 C265 1.328 . S
N269 C267 1.350 . S
H270 C265 0.930 . S
H271 C266 0.930 . S
C272 O273 1.224 . S
C272 O291 1.247 . S
O273 C272 1.224 . S
N274 Co264 2.128 . S
N274 C275 1.355 . S
N274 C277 1.311 . S
C275 N274 1.355 . S
C275 C276 1.363 . S
C275 H287 0.929 . S
C276 C275 1.363 . S
C276 N278 1.375 . S
C276 H294 0.931 . S
C277 N274 1.311 . S
C277 N278 1.347 . S
C277 H288 0.929 . S
N278 C276 1.375 . S
N278 C277 1.347 . S
C279 C282 1.365 . S
C279 N284 1.328 . S
C279 H285 0.929 . S
C280 C281 1.362 . S
C280 C283 1.378 . S
C280 H295 0.929 . S
C281 C280 1.362 . S
C281 C282 1.366 . S
C282 C279 1.365 . S
C282 C281 1.366 . S
C282 H296 0.930 . S
C283 C280 1.378 . S
C283 N284 1.315 . S
C283 H286 0.930 . S
N284 Co264 2.194 . S
N284 C279 1.328 . S
N284 C283 1.315 . S
H285 C279 0.929 . S
H286 C283 0.930 . S
H287 C275 0.929 . S
H288 C277 0.929 . S
O289 Co264 2.351 . S
O289 C292 1.244 . S
O290 Co264 2.155 . S
O290 C292 1.240 . S
O291 Co264 2.096 . S
O291 C272 1.247 . S
C292 O289 1.244 . S
C292 O290 1.240 . S
H293 C267 0.931 . S
H294 C276 0.931 . S
H295 C280 0.929 . S
H296 C282 0.930 . S
Co297 N301 2.148 . S
Co297 N307 2.128 . S
Co297 N317 2.194 . S
Co297 O322 2.351 . S
Co297 O323 2.155 . S
Co297 O324 2.096 . S
C298 N301 1.301 . S
C298 N302 1.328 . S
C298 H303 0.930 . S
C299 C300 1.333 . S
C299 N301 1.317 . S
C299 H304 0.930 . S
C300 C299 1.333 . S
C300 N302 1.350 . S
C300 H326 0.931 . S
N301 Co297 2.148 . S
N301 C298 1.301 . S
N301 C299 1.317 . S
N302 C298 1.328 . S
N302 C300 1.350 . S
H303 C298 0.930 . S
H304 C299 0.930 . S
C305 O306 1.224 . S
C305 O324 1.247 . S
O306 C305 1.224 . S
N307 Co297 2.128 . S
N307 C308 1.355 . S
N307 C310 1.311 . S
C308 N307 1.355 . S
C308 C309 1.363 . S
C308 H320 0.929 . S
C309 C308 1.363 . S
C309 N311 1.375 . S
C309 H327 0.931 . S
C310 N307 1.311 . S
C310 N311 1.347 . S
C310 H321 0.929 . S
N311 C309 1.375 . S
N311 C310 1.347 . S
C312 C315 1.365 . S
C312 N317 1.328 . S
C312 H318 0.929 . S
C313 C314 1.362 . S
C313 C316 1.378 . S
C313 H328 0.929 . S
C314 C313 1.362 . S
C314 C315 1.366 . S
C315 C312 1.365 . S
C315 C314 1.366 . S
C315 H329 0.930 . S
C316 C313 1.378 . S
C316 N317 1.315 . S
C316 H319 0.930 . S
N317 Co297 2.194 . S
N317 C312 1.328 . S
N317 C316 1.315 . S
H318 C312 0.929 . S
H319 C316 0.930 . S
H320 C308 0.929 . S
H321 C310 0.929 . S
O322 Co297 2.351 . S
O322 C325 1.244 . S
O323 Co297 2.155 . S
O323 C325 1.240 . S
O324 Co297 2.096 . S
O324 C305 1.247 . S
C325 O322 1.244 . S
C325 O323 1.240 . S
H326 C300 0.931 . S
H327 C309 0.931 . S
H328 C313 0.929 . S
H329 C315 0.930 . S
Co330 N334 2.148 . S
Co330 N340 2.128 . S
Co330 N350 2.194 . S
Co330 O355 2.351 . S
Co330 O356 2.155 . S
Co330 O357 2.096 . S
C331 N334 1.301 . S
C331 N335 1.328 . S
C331 H336 0.930 . S
C332 C333 1.333 . S
C332 N334 1.317 . S
C332 H337 0.930 . S
C333 C332 1.333 . S
C333 N335 1.350 . S
C333 H359 0.931 . S
N334 Co330 2.148 . S
N334 C331 1.301 . S
N334 C332 1.317 . S
N335 C331 1.328 . S
N335 C333 1.350 . S
H336 C331 0.930 . S
H337 C332 0.930 . S
C338 O339 1.224 . S
C338 O357 1.247 . S
O339 C338 1.224 . S
N340 Co330 2.128 . S
N340 C341 1.355 . S
N340 C343 1.311 . S
C341 N340 1.355 . S
C341 C342 1.363 . S
C341 H353 0.929 . S
C342 C341 1.363 . S
C342 N344 1.375 . S
C342 H360 0.931 . S
C343 N340 1.311 . S
C343 N344 1.347 . S
C343 H354 0.929 . S
N344 C342 1.375 . S
N344 C343 1.347 . S
C345 C348 1.365 . S
C345 N350 1.328 . S
C345 H351 0.929 . S
C346 C347 1.362 . S
C346 C349 1.378 . S
C346 H361 0.929 . S
C347 C346 1.362 . S
C347 C348 1.366 . S
C348 C345 1.365 . S
C348 C347 1.366 . S
C348 H362 0.930 . S
C349 C346 1.378 . S
C349 N350 1.315 . S
C349 H352 0.930 . S
N350 Co330 2.194 . S
N350 C345 1.328 . S
N350 C349 1.315 . S
H351 C345 0.929 . S
H352 C349 0.930 . S
H353 C341 0.929 . S
H354 C343 0.929 . S
O355 Co330 2.351 . S
O355 C358 1.244 . S
O356 Co330 2.155 . S
O356 C358 1.240 . S
O357 Co330 2.096 . S
O357 C338 1.247 . S
C358 O355 1.244 . S
C358 O356 1.240 . S
H359 C333 0.931 . S
H360 C342 0.931 . S
H361 C346 0.929 . S
H362 C348 0.930 . S
Co363 N367 2.148 . S
Co363 N373 2.128 . S
Co363 N383 2.194 . S
Co363 O388 2.351 . S
Co363 O389 2.155 . S
Co363 O390 2.096 . S
C364 N367 1.301 . S
C364 N368 1.328 . S
C364 H369 0.930 . S
C365 C366 1.333 . S
C365 N367 1.317 . S
C365 H370 0.930 . S
C366 C365 1.333 . S
C366 N368 1.350 . S
C366 H392 0.931 . S
N367 Co363 2.148 . S
N367 C364 1.301 . S
N367 C365 1.317 . S
N368 C364 1.328 . S
N368 C366 1.350 . S
H369 C364 0.930 . S
H370 C365 0.930 . S
C371 O372 1.224 . S
C371 O390 1.247 . S
O372 C371 1.224 . S
N373 Co363 2.128 . S
N373 C374 1.355 . S
N373 C376 1.311 . S
C374 N373 1.355 . S
C374 C375 1.363 . S
C374 H386 0.929 . S
C375 C374 1.363 . S
C375 N377 1.375 . S
C375 H393 0.931 . S
C376 N373 1.311 . S
C376 N377 1.347 . S
C376 H387 0.929 . S
N377 C375 1.375 . S
N377 C376 1.347 . S
C378 C381 1.365 . S
C378 N383 1.328 . S
C378 H384 0.929 . S
C379 C380 1.362 . S
C379 C382 1.378 . S
C379 H394 0.929 . S
C380 C379 1.362 . S
C380 C381 1.366 . S
C381 C378 1.365 . S
C381 C380 1.366 . S
C381 H395 0.930 . S
C382 C379 1.378 . S
C382 N383 1.315 . S
C382 H385 0.930 . S
N383 Co363 2.194 . S
N383 C378 1.328 . S
N383 C382 1.315 . S
H384 C378 0.929 . S
H385 C382 0.930 . S
H386 C374 0.929 . S
H387 C376 0.929 . S
O388 Co363 2.351 . S
O388 C391 1.244 . S
O389 Co363 2.155 . S
O389 C391 1.240 . S
O390 Co363 2.096 . S
O390 C371 1.247 . S
C391 O388 1.244 . S
C391 O389 1.240 . S
H392 C366 0.931 . S
H393 C375 0.931 . S
H394 C379 0.929 . S
H395 C381 0.930 . S
Co396 N400 2.148 . S
Co396 N406 2.128 . S
Co396 N416 2.194 . S
Co396 O421 2.351 . S
Co396 O422 2.155 . S
Co396 O423 2.096 . S
C397 N400 1.301 . S
C397 N401 1.328 . S
C397 H402 0.930 . S
C398 C399 1.333 . S
C398 N400 1.317 . S
C398 H403 0.930 . S
C399 C398 1.333 . S
C399 N401 1.350 . S
C399 H425 0.931 . S
N400 Co396 2.148 . S
N400 C397 1.301 . S
N400 C398 1.317 . S
N401 C397 1.328 . S
N401 C399 1.350 . S
H402 C397 0.930 . S
H403 C398 0.930 . S
C404 O405 1.224 . S
C404 O423 1.247 . S
O405 C404 1.224 . S
N406 Co396 2.128 . S
N406 C407 1.355 . S
N406 C409 1.311 . S
C407 N406 1.355 . S
C407 C408 1.363 . S
C407 H419 0.929 . S
C408 C407 1.363 . S
C408 N410 1.375 . S
C408 H426 0.931 . S
C409 N406 1.311 . S
C409 N410 1.347 . S
C409 H420 0.929 . S
N410 C408 1.375 . S
N410 C409 1.347 . S
C411 C414 1.365 . S
C411 N416 1.328 . S
C411 H417 0.929 . S
C412 C413 1.362 . S
C412 C415 1.378 . S
C412 H427 0.929 . S
C413 C412 1.362 . S
C413 C414 1.366 . S
C414 C411 1.365 . S
C414 C413 1.366 . S
C414 H428 0.930 . S
C415 C412 1.378 . S
C415 N416 1.315 . S
C415 H418 0.930 . S
N416 Co396 2.194 . S
N416 C411 1.328 . S
N416 C415 1.315 . S
H417 C411 0.929 . S
H418 C415 0.930 . S
H419 C407 0.929 . S
H420 C409 0.929 . S
O421 Co396 2.351 . S
O421 C424 1.244 . S
O422 Co396 2.155 . S
O422 C424 1.240 . S
O423 Co396 2.096 . S
O423 C404 1.247 . S
C424 O421 1.244 . S
C424 O422 1.240 . S
H425 C399 0.931 . S
H426 C408 0.931 . S
H427 C412 0.929 . S
H428 C414 0.930 . S
Co429 N433 2.148 . S
Co429 N439 2.128 . S
Co429 N449 2.194 . S
Co429 O454 2.351 . S
Co429 O455 2.155 . S
Co429 O456 2.096 . S
C430 N433 1.301 . S
C430 N434 1.328 . S
C430 H435 0.930 . S
C431 C432 1.333 . S
C431 N433 1.317 . S
C431 H436 0.930 . S
C432 C431 1.333 . S
C432 N434 1.350 . S
C432 H458 0.931 . S
N433 Co429 2.148 . S
N433 C430 1.301 . S
N433 C431 1.317 . S
N434 C430 1.328 . S
N434 C432 1.350 . S
H435 C430 0.930 . S
H436 C431 0.930 . S
C437 O438 1.224 . S
C437 O456 1.247 . S
O438 C437 1.224 . S
N439 Co429 2.128 . S
N439 C440 1.355 . S
N439 C442 1.311 . S
C440 N439 1.355 . S
C440 C441 1.363 . S
C440 H452 0.929 . S
C441 C440 1.363 . S
C441 N443 1.375 . S
C441 H459 0.931 . S
C442 N439 1.311 . S
C442 N443 1.347 . S
C442 H453 0.929 . S
N443 C441 1.375 . S
N443 C442 1.347 . S
C444 C447 1.365 . S
C444 N449 1.328 . S
C444 H450 0.929 . S
C445 C446 1.362 . S
C445 C448 1.378 . S
C445 H460 0.929 . S
C446 C445 1.362 . S
C446 C447 1.366 . S
C447 C444 1.365 . S
C447 C446 1.366 . S
C447 H461 0.930 . S
C448 C445 1.378 . S
C448 N449 1.315 . S
C448 H451 0.930 . S
N449 Co429 2.194 . S
N449 C444 1.328 . S
N449 C448 1.315 . S
H450 C444 0.929 . S
H451 C448 0.930 . S
H452 C440 0.929 . S
H453 C442 0.929 . S
O454 Co429 2.351 . S
O454 C457 1.244 . S
O455 Co429 2.155 . S
O455 C457 1.240 . S
O456 Co429 2.096 . S
O456 C437 1.247 . S
C457 O454 1.244 . S
C457 O455 1.240 . S
H458 C432 0.931 . S
H459 C441 0.931 . S
H460 C445 0.929 . S
H461 C447 0.930 . S
Co462 N466 2.148 . S
Co462 N472 2.128 . S
Co462 N482 2.194 . S
Co462 O487 2.351 . S
Co462 O488 2.155 . S
Co462 O489 2.096 . S
C463 N466 1.301 . S
C463 N467 1.328 . S
C463 H468 0.930 . S
C464 C465 1.333 . S
C464 N466 1.317 . S
C464 H469 0.930 . S
C465 C464 1.333 . S
C465 N467 1.350 . S
C465 H491 0.931 . S
N466 Co462 2.148 . S
N466 C463 1.301 . S
N466 C464 1.317 . S
N467 C463 1.328 . S
N467 C465 1.350 . S
H468 C463 0.930 . S
H469 C464 0.930 . S
C470 O471 1.224 . S
C470 O489 1.247 . S
O471 C470 1.224 . S
N472 Co462 2.128 . S
N472 C473 1.355 . S
N472 C475 1.311 . S
C473 N472 1.355 . S
C473 C474 1.363 . S
C473 H485 0.929 . S
C474 C473 1.363 . S
C474 N476 1.375 . S
C474 H492 0.931 . S
C475 N472 1.311 . S
C475 N476 1.347 . S
C475 H486 0.929 . S
N476 C474 1.375 . S
N476 C475 1.347 . S
C477 C480 1.365 . S
C477 N482 1.328 . S
C477 H483 0.929 . S
C478 C479 1.362 . S
C478 C481 1.378 . S
C478 H493 0.929 . S
C479 C478 1.362 . S
C479 C480 1.366 . S
C480 C477 1.365 . S
C480 C479 1.366 . S
C480 H494 0.930 . S
C481 C478 1.378 . S
C481 N482 1.315 . S
C481 H484 0.930 . S
N482 Co462 2.194 . S
N482 C477 1.328 . S
N482 C481 1.315 . S
H483 C477 0.929 . S
H484 C481 0.930 . S
H485 C473 0.929 . S
H486 C475 0.929 . S
O487 Co462 2.351 . S
O487 C490 1.244 . S
O488 Co462 2.155 . S
O488 C490 1.240 . S
O489 Co462 2.096 . S
O489 C470 1.247 . S
C490 O487 1.244 . S
C490 O488 1.240 . S
H491 C465 0.931 . S
H492 C474 0.931 . S
H493 C478 0.929 . S
H494 C480 0.930 . S
Co495 N499 2.148 . S
Co495 N505 2.128 . S
Co495 N515 2.194 . S
Co495 O520 2.351 . S
Co495 O521 2.155 . S
Co495 O522 2.096 . S
C496 N499 1.301 . S
C496 N500 1.328 . S
C496 H501 0.930 . S
C497 C498 1.333 . S
C497 N499 1.317 . S
C497 H502 0.930 . S
C498 C497 1.333 . S
C498 N500 1.350 . S
C498 H524 0.931 . S
N499 Co495 2.148 . S
N499 C496 1.301 . S
N499 C497 1.317 . S
N500 C496 1.328 . S
N500 C498 1.350 . S
H501 C496 0.930 . S
H502 C497 0.930 . S
C503 O504 1.224 . S
C503 O522 1.247 . S
O504 C503 1.224 . S
N505 Co495 2.128 . S
N505 C506 1.355 . S
N505 C508 1.311 . S
C506 N505 1.355 . S
C506 C507 1.363 . S
C506 H518 0.929 . S
C507 C506 1.363 . S
C507 N509 1.375 . S
C507 H525 0.931 . S
C508 N505 1.311 . S
C508 N509 1.347 . S
C508 H519 0.929 . S
N509 C507 1.375 . S
N509 C508 1.347 . S
C510 C513 1.365 . S
C510 N515 1.328 . S
C510 H516 0.929 . S
C511 C512 1.362 . S
C511 C514 1.378 . S
C511 H526 0.929 . S
C512 C511 1.362 . S
C512 C513 1.366 . S
C513 C510 1.365 . S
C513 C512 1.366 . S
C513 H527 0.930 . S
C514 C511 1.378 . S
C514 N515 1.315 . S
C514 H517 0.930 . S
N515 Co495 2.194 . S
N515 C510 1.328 . S
N515 C514 1.315 . S
H516 C510 0.929 . S
H517 C514 0.930 . S
H518 C506 0.929 . S
H519 C508 0.929 . S
O520 Co495 2.351 . S
O520 C523 1.244 . S
O521 Co495 2.155 . S
O521 C523 1.240 . S
O522 Co495 2.096 . S
O522 C503 1.247 . S
C523 O520 1.244 . S
C523 O521 1.240 . S
H524 C498 0.931 . S
H525 C507 0.931 . S
H526 C511 0.929 . S
H527 C513 0.930 . S
Co528 N532 2.148 . S
Co528 N538 2.128 . S
Co528 N548 2.194 . S
Co528 O553 2.351 . S
Co528 O554 2.155 . S
Co528 O555 2.096 . S
C529 N532 1.301 . S
C529 N533 1.328 . S
C529 H534 0.930 . S
C530 C531 1.333 . S
C530 N532 1.317 . S
C530 H535 0.930 . S
C531 C530 1.333 . S
C531 N533 1.350 . S
C531 H557 0.931 . S
N532 Co528 2.148 . S
N532 C529 1.301 . S
N532 C530 1.317 . S
N533 C529 1.328 . S
N533 C531 1.350 . S
H534 C529 0.930 . S
H535 C530 0.930 . S
C536 O537 1.224 . S
C536 O555 1.247 . S
O537 C536 1.224 . S
N538 Co528 2.128 . S
N538 C539 1.355 . S
N538 C541 1.311 . S
C539 N538 1.355 . S
C539 C540 1.363 . S
C539 H551 0.929 . S
C540 C539 1.363 . S
C540 N542 1.375 . S
C540 H558 0.931 . S
C541 N538 1.311 . S
C541 N542 1.347 . S
C541 H552 0.929 . S
N542 C540 1.375 . S
N542 C541 1.347 . S
C543 C546 1.365 . S
C543 N548 1.328 . S
C543 H549 0.929 . S
C544 C545 1.362 . S
C544 C547 1.378 . S
C544 H559 0.929 . S
C545 C544 1.362 . S
C545 C546 1.366 . S
C546 C543 1.365 . S
C546 C545 1.366 . S
C546 H560 0.930 . S
C547 C544 1.378 . S
C547 N548 1.315 . S
C547 H550 0.930 . S
N548 Co528 2.194 . S
N548 C543 1.328 . S
N548 C547 1.315 . S
H549 C543 0.929 . S
H550 C547 0.930 . S
H551 C539 0.929 . S
H552 C541 0.929 . S
O553 Co528 2.351 . S
O553 C556 1.244 . S
O554 Co528 2.155 . S
O554 C556 1.240 . S
O555 Co528 2.096 . S
O555 C536 1.247 . S
C556 O553 1.244 . S
C556 O554 1.240 . S
H557 C531 0.931 . S
H558 C540 0.931 . S
H559 C544 0.929 . S
H560 C546 0.930 . S
Co561 N565 2.148 . S
Co561 N571 2.128 . S
Co561 N581 2.194 . S
Co561 O586 2.351 . S
Co561 O587 2.155 . S
Co561 O588 2.096 . S
C562 N565 1.301 . S
C562 N566 1.328 . S
C562 H567 0.930 . S
C563 C564 1.333 . S
C563 N565 1.317 . S
C563 H568 0.930 . S
C564 C563 1.333 . S
C564 N566 1.350 . S
C564 H590 0.931 . S
N565 Co561 2.148 . S
N565 C562 1.301 . S
N565 C563 1.317 . S
N566 C562 1.328 . S
N566 C564 1.350 . S
H567 C562 0.930 . S
H568 C563 0.930 . S
C569 O570 1.224 . S
C569 O588 1.247 . S
O570 C569 1.224 . S
N571 Co561 2.128 . S
N571 C572 1.355 . S
N571 C574 1.311 . S
C572 N571 1.355 . S
C572 C573 1.363 . S
C572 H584 0.929 . S
C573 C572 1.363 . S
C573 N575 1.375 . S
C573 H591 0.931 . S
C574 N571 1.311 . S
C574 N575 1.347 . S
C574 H585 0.929 . S
N575 C573 1.375 . S
N575 C574 1.347 . S
C576 C579 1.365 . S
C576 N581 1.328 . S
C576 H582 0.929 . S
C577 C578 1.362 . S
C577 C580 1.378 . S
C577 H592 0.929 . S
C578 C577 1.362 . S
C578 C579 1.366 . S
C579 C576 1.365 . S
C579 C578 1.366 . S
C579 H593 0.930 . S
C580 C577 1.378 . S
C580 N581 1.315 . S
C580 H583 0.930 . S
N581 Co561 2.194 . S
N581 C576 1.328 . S
N581 C580 1.315 . S
H582 C576 0.929 . S
H583 C580 0.930 . S
H584 C572 0.929 . S
H585 C574 0.929 . S
O586 Co561 2.351 . S
O586 C589 1.244 . S
O587 Co561 2.155 . S
O587 C589 1.240 . S
O588 Co561 2.096 . S
O588 C569 1.247 . S
C589 O586 1.244 . S
C589 O587 1.240 . S
H590 C564 0.931 . S
H591 C573 0.931 . S
H592 C577 0.929 . S
H593 C579 0.930 . S
Co594 N598 2.148 . S
Co594 N604 2.128 . S
Co594 N614 2.194 . S
Co594 O619 2.351 . S
Co594 O620 2.155 . S
Co594 O621 2.096 . S
C595 N598 1.301 . S
C595 N599 1.328 . S
C595 H600 0.930 . S
C596 C597 1.333 . S
C596 N598 1.317 . S
C596 H601 0.930 . S
C597 C596 1.333 . S
C597 N599 1.350 . S
C597 H623 0.931 . S
N598 Co594 2.148 . S
N598 C595 1.301 . S
N598 C596 1.317 . S
N599 C595 1.328 . S
N599 C597 1.350 . S
H600 C595 0.930 . S
H601 C596 0.930 . S
C602 O603 1.224 . S
C602 O621 1.247 . S
O603 C602 1.224 . S
N604 Co594 2.128 . S
N604 C605 1.355 . S
N604 C607 1.311 . S
C605 N604 1.355 . S
C605 C606 1.363 . S
C605 H617 0.929 . S
C606 C605 1.363 . S
C606 N608 1.375 . S
C606 H624 0.931 . S
C607 N604 1.311 . S
C607 N608 1.347 . S
C607 H618 0.929 . S
N608 C606 1.375 . S
N608 C607 1.347 . S
C609 C612 1.365 . S
C609 N614 1.328 . S
C609 H615 0.929 . S
C610 C611 1.362 . S
C610 C613 1.378 . S
C610 H625 0.929 . S
C611 C610 1.362 . S
C611 C612 1.366 . S
C612 C609 1.365 . S
C612 C611 1.366 . S
C612 H626 0.930 . S
C613 C610 1.378 . S
C613 N614 1.315 . S
C613 H616 0.930 . S
N614 Co594 2.194 . S
N614 C609 1.328 . S
N614 C613 1.315 . S
H615 C609 0.929 . S
H616 C613 0.930 . S
H617 C605 0.929 . S
H618 C607 0.929 . S
O619 Co594 2.351 . S
O619 C622 1.244 . S
O620 Co594 2.155 . S
O620 C622 1.240 . S
O621 Co594 2.096 . S
O621 C602 1.247 . S
C622 O619 1.244 . S
C622 O620 1.240 . S
H623 C597 0.931 . S
H624 C606 0.931 . S
H625 C610 0.929 . S
H626 C612 0.930 . S
Co627 N631 2.148 . S
Co627 N637 2.128 . S
Co627 N647 2.194 . S
Co627 O652 2.351 . S
Co627 O653 2.155 . S
Co627 O654 2.096 . S
C628 N631 1.301 . S
C628 N632 1.328 . S
C628 H633 0.930 . S
C629 C630 1.333 . S
C629 N631 1.317 . S
C629 H634 0.930 . S
C630 C629 1.333 . S
C630 N632 1.350 . S
C630 H656 0.931 . S
N631 Co627 2.148 . S
N631 C628 1.301 . S
N631 C629 1.317 . S
N632 C628 1.328 . S
N632 C630 1.350 . S
H633 C628 0.930 . S
H634 C629 0.930 . S
C635 O636 1.224 . S
C635 O654 1.247 . S
O636 C635 1.224 . S
N637 Co627 2.128 . S
N637 C638 1.355 . S
N637 C640 1.311 . S
C638 N637 1.355 . S
C638 C639 1.363 . S
C638 H650 0.929 . S
C639 C638 1.363 . S
C639 N641 1.375 . S
C639 H657 0.931 . S
C640 N637 1.311 . S
C640 N641 1.347 . S
C640 H651 0.929 . S
N641 C639 1.375 . S
N641 C640 1.347 . S
C642 C645 1.365 . S
C642 N647 1.328 . S
C642 H648 0.929 . S
C643 C644 1.362 . S
C643 C646 1.378 . S
C643 H658 0.929 . S
C644 C643 1.362 . S
C644 C645 1.366 . S
C645 C642 1.365 . S
C645 C644 1.366 . S
C645 H659 0.930 . S
C646 C643 1.378 . S
C646 N647 1.315 . S
C646 H649 0.930 . S
N647 Co627 2.194 . S
N647 C642 1.328 . S
N647 C646 1.315 . S
H648 C642 0.929 . S
H649 C646 0.930 . S
H650 C638 0.929 . S
H651 C640 0.929 . S
O652 Co627 2.351 . S
O652 C655 1.244 . S
O653 Co627 2.155 . S
O653 C655 1.240 . S
O654 Co627 2.096 . S
O654 C635 1.247 . S
C655 O652 1.244 . S
C655 O653 1.240 . S
H656 C630 0.931 . S
H657 C639 0.931 . S
H658 C643 0.929 . S
H659 C645 0.930 . S
Co660 N664 2.148 . S
Co660 N670 2.128 . S
Co660 N680 2.194 . S
Co660 O685 2.351 . S
Co660 O686 2.155 . S
Co660 O687 2.096 . S
C661 N664 1.301 . S
C661 N665 1.328 . S
C661 H666 0.930 . S
C662 C663 1.333 . S
C662 N664 1.317 . S
C662 H667 0.930 . S
C663 C662 1.333 . S
C663 N665 1.350 . S
C663 H689 0.931 . S
N664 Co660 2.148 . S
N664 C661 1.301 . S
N664 C662 1.317 . S
N665 C661 1.328 . S
N665 C663 1.350 . S
H666 C661 0.930 . S
H667 C662 0.930 . S
C668 O669 1.224 . S
C668 O687 1.247 . S
O669 C668 1.224 . S
N670 Co660 2.128 . S
N670 C671 1.355 . S
N670 C673 1.311 . S
C671 N670 1.355 . S
C671 C672 1.363 . S
C671 H683 0.929 . S
C672 C671 1.363 . S
C672 N674 1.375 . S
C672 H690 0.931 . S
C673 N670 1.311 . S
C673 N674 1.347 . S
C673 H684 0.929 . S
N674 C672 1.375 . S
N674 C673 1.347 . S
C675 C678 1.365 . S
C675 N680 1.328 . S
C675 H681 0.929 . S
C676 C677 1.362 . S
C676 C679 1.378 . S
C676 H691 0.929 . S
C677 C676 1.362 . S
C677 C678 1.366 . S
C678 C675 1.365 . S
C678 C677 1.366 . S
C678 H692 0.930 . S
C679 C676 1.378 . S
C679 N680 1.315 . S
C679 H682 0.930 . S
N680 Co660 2.194 . S
N680 C675 1.328 . S
N680 C679 1.315 . S
H681 C675 0.929 . S
H682 C679 0.930 . S
H683 C671 0.929 . S
H684 C673 0.929 . S
O685 Co660 2.351 . S
O685 C688 1.244 . S
O686 Co660 2.155 . S
O686 C688 1.240 . S
O687 Co660 2.096 . S
O687 C668 1.247 . S
C688 O685 1.244 . S
C688 O686 1.240 . S
H689 C663 0.931 . S
H690 C672 0.931 . S
H691 C676 0.929 . S
H692 C678 0.930 . S
Co693 N697 2.148 . S
Co693 N703 2.128 . S
Co693 N713 2.194 . S
Co693 O718 2.351 . S
Co693 O719 2.155 . S
Co693 O720 2.096 . S
C694 N697 1.301 . S
C694 N698 1.328 . S
C694 H699 0.930 . S
C695 C696 1.333 . S
C695 N697 1.317 . S
C695 H700 0.930 . S
C696 C695 1.333 . S
C696 N698 1.350 . S
C696 H722 0.931 . S
N697 Co693 2.148 . S
N697 C694 1.301 . S
N697 C695 1.317 . S
N698 C694 1.328 . S
N698 C696 1.350 . S
H699 C694 0.930 . S
H700 C695 0.930 . S
C701 O702 1.224 . S
C701 O720 1.247 . S
O702 C701 1.224 . S
N703 Co693 2.128 . S
N703 C704 1.355 . S
N703 C706 1.311 . S
C704 N703 1.355 . S
C704 C705 1.363 . S
C704 H716 0.929 . S
C705 C704 1.363 . S
C705 N707 1.375 . S
C705 H723 0.931 . S
C706 N703 1.311 . S
C706 N707 1.347 . S
C706 H717 0.929 . S
N707 C705 1.375 . S
N707 C706 1.347 . S
C708 C711 1.365 . S
C708 N713 1.328 . S
C708 H714 0.929 . S
C709 C710 1.362 . S
C709 C712 1.378 . S
C709 H724 0.929 . S
C710 C709 1.362 . S
C710 C711 1.366 . S
C711 C708 1.365 . S
C711 C710 1.366 . S
C711 H725 0.930 . S
C712 C709 1.378 . S
C712 N713 1.315 . S
C712 H715 0.930 . S
N713 Co693 2.194 . S
N713 C708 1.328 . S
N713 C712 1.315 . S
H714 C708 0.929 . S
H715 C712 0.930 . S
H716 C704 0.929 . S
H717 C706 0.929 . S
O718 Co693 2.351 . S
O718 C721 1.244 . S
O719 Co693 2.155 . S
O719 C721 1.240 . S
O720 Co693 2.096 . S
O720 C701 1.247 . S
C721 O718 1.244 . S
C721 O719 1.240 . S
H722 C696 0.931 . S
H723 C705 0.931 . S
H724 C709 0.929 . S
H725 C711 0.930 . S
Co726 N730 2.148 . S
Co726 N736 2.128 . S
Co726 N746 2.194 . S
Co726 O751 2.351 . S
Co726 O752 2.155 . S
Co726 O753 2.096 . S
C727 N730 1.301 . S
C727 N731 1.328 . S
C727 H732 0.930 . S
C728 C729 1.333 . S
C728 N730 1.317 . S
C728 H733 0.930 . S
C729 C728 1.333 . S
C729 N731 1.350 . S
C729 H755 0.931 . S
N730 Co726 2.148 . S
N730 C727 1.301 . S
N730 C728 1.317 . S
N731 C727 1.328 . S
N731 C729 1.350 . S
H732 C727 0.930 . S
H733 C728 0.930 . S
C734 O735 1.224 . S
C734 O753 1.247 . S
O735 C734 1.224 . S
N736 Co726 2.128 . S
N736 C737 1.355 . S
N736 C739 1.311 . S
C737 N736 1.355 . S
C737 C738 1.363 . S
C737 H749 0.929 . S
C738 C737 1.363 . S
C738 N740 1.375 . S
C738 H756 0.931 . S
C739 N736 1.311 . S
C739 N740 1.347 . S
C739 H750 0.929 . S
N740 C738 1.375 . S
N740 C739 1.347 . S
C741 C744 1.365 . S
C741 N746 1.328 . S
C741 H747 0.929 . S
C742 C743 1.362 . S
C742 C745 1.378 . S
C742 H757 0.929 . S
C743 C742 1.362 . S
C743 C744 1.366 . S
C744 C741 1.365 . S
C744 C743 1.366 . S
C744 H758 0.930 . S
C745 C742 1.378 . S
C745 N746 1.315 . S
C745 H748 0.930 . S
N746 Co726 2.194 . S
N746 C741 1.328 . S
N746 C745 1.315 . S
H747 C741 0.929 . S
H748 C745 0.930 . S
H749 C737 0.929 . S
H750 C739 0.929 . S
O751 Co726 2.351 . S
O751 C754 1.244 . S
O752 Co726 2.155 . S
O752 C754 1.240 . S
O753 Co726 2.096 . S
O753 C734 1.247 . S
C754 O751 1.244 . S
C754 O752 1.240 . S
H755 C729 0.931 . S
H756 C738 0.931 . S
H757 C742 0.929 . S
H758 C744 0.930 . S
Co759 N763 2.148 . S
Co759 N769 2.128 . S
Co759 N779 2.194 . S
Co759 O784 2.351 . S
Co759 O785 2.155 . S
Co759 O786 2.096 . S
C760 N763 1.301 . S
C760 N764 1.328 . S
C760 H765 0.930 . S
C761 C762 1.333 . S
C761 N763 1.317 . S
C761 H766 0.930 . S
C762 C761 1.333 . S
C762 N764 1.350 . S
C762 H788 0.931 . S
N763 Co759 2.148 . S
N763 C760 1.301 . S
N763 C761 1.317 . S
N764 C760 1.328 . S
N764 C762 1.350 . S
H765 C760 0.930 . S
H766 C761 0.930 . S
C767 O768 1.224 . S
C767 O786 1.247 . S
O768 C767 1.224 . S
N769 Co759 2.128 . S
N769 C770 1.355 . S
N769 C772 1.311 . S
C770 N769 1.355 . S
C770 C771 1.363 . S
C770 H782 0.929 . S
C771 C770 1.363 . S
C771 N773 1.375 . S
C771 H789 0.931 . S
C772 N769 1.311 . S
C772 N773 1.347 . S
C772 H783 0.929 . S
N773 C771 1.375 . S
N773 C772 1.347 . S
C774 C777 1.365 . S
C774 N779 1.328 . S
C774 H780 0.929 . S
C775 C776 1.362 . S
C775 C778 1.378 . S
C775 H790 0.929 . S
C776 C775 1.362 . S
C776 C777 1.366 . S
C777 C774 1.365 . S
C777 C776 1.366 . S
C777 H791 0.930 . S
C778 C775 1.378 . S
C778 N779 1.315 . S
C778 H781 0.930 . S
N779 Co759 2.194 . S
N779 C774 1.328 . S
N779 C778 1.315 . S
H780 C774 0.929 . S
H781 C778 0.930 . S
H782 C770 0.929 . S
H783 C772 0.929 . S
O784 Co759 2.351 . S
O784 C787 1.244 . S
O785 Co759 2.155 . S
O785 C787 1.240 . S
O786 Co759 2.096 . S
O786 C767 1.247 . S
C787 O784 1.244 . S
C787 O785 1.240 . S
H788 C762 0.931 . S
H789 C771 0.931 . S
H790 C775 0.929 . S
H791 C777 0.930 . S
Co792 N796 2.148 . S
Co792 N802 2.128 . S
Co792 N812 2.194 . S
Co792 O817 2.351 . S
Co792 O818 2.155 . S
Co792 O819 2.096 . S
C793 N796 1.301 . S
C793 N797 1.328 . S
C793 H798 0.930 . S
C794 C795 1.333 . S
C794 N796 1.317 . S
C794 H799 0.930 . S
C795 C794 1.333 . S
C795 N797 1.350 . S
C795 H821 0.931 . S
N796 Co792 2.148 . S
N796 C793 1.301 . S
N796 C794 1.317 . S
N797 C793 1.328 . S
N797 C795 1.350 . S
H798 C793 0.930 . S
H799 C794 0.930 . S
C800 O801 1.224 . S
C800 O819 1.247 . S
O801 C800 1.224 . S
N802 Co792 2.128 . S
N802 C803 1.355 . S
N802 C805 1.311 . S
C803 N802 1.355 . S
C803 C804 1.363 . S
C803 H815 0.929 . S
C804 C803 1.363 . S
C804 N806 1.375 . S
C804 H822 0.931 . S
C805 N802 1.311 . S
C805 N806 1.347 . S
C805 H816 0.929 . S
N806 C804 1.375 . S
N806 C805 1.347 . S
C807 C810 1.365 . S
C807 N812 1.328 . S
C807 H813 0.929 . S
C808 C809 1.362 . S
C808 C811 1.378 . S
C808 H823 0.929 . S
C809 C808 1.362 . S
C809 C810 1.366 . S
C810 C807 1.365 . S
C810 C809 1.366 . S
C810 H824 0.930 . S
C811 C808 1.378 . S
C811 N812 1.315 . S
C811 H814 0.930 . S
N812 Co792 2.194 . S
N812 C807 1.328 . S
N812 C811 1.315 . S
H813 C807 0.929 . S
H814 C811 0.930 . S
H815 C803 0.929 . S
H816 C805 0.929 . S
O817 Co792 2.351 . S
O817 C820 1.244 . S
O818 Co792 2.155 . S
O818 C820 1.240 . S
O819 Co792 2.096 . S
O819 C800 1.247 . S
C820 O817 1.244 . S
C820 O818 1.240 . S
H821 C795 0.931 . S
H822 C804 0.931 . S
H823 C808 0.929 . S
H824 C810 0.930 . S
Co825 N829 2.148 . S
Co825 N835 2.128 . S
Co825 N845 2.194 . S
Co825 O850 2.351 . S
Co825 O851 2.155 . S
Co825 O852 2.096 . S
C826 N829 1.301 . S
C826 N830 1.328 . S
C826 H831 0.930 . S
C827 C828 1.333 . S
C827 N829 1.317 . S
C827 H832 0.930 . S
C828 C827 1.333 . S
C828 N830 1.350 . S
C828 H854 0.931 . S
N829 Co825 2.148 . S
N829 C826 1.301 . S
N829 C827 1.317 . S
N830 C826 1.328 . S
N830 C828 1.350 . S
H831 C826 0.930 . S
H832 C827 0.930 . S
C833 O834 1.224 . S
C833 O852 1.247 . S
O834 C833 1.224 . S
N835 Co825 2.128 . S
N835 C836 1.355 . S
N835 C838 1.311 . S
C836 N835 1.355 . S
C836 C837 1.363 . S
C836 H848 0.929 . S
C837 C836 1.363 . S
C837 N839 1.375 . S
C837 H855 0.931 . S
C838 N835 1.311 . S
C838 N839 1.347 . S
C838 H849 0.929 . S
N839 C837 1.375 . S
N839 C838 1.347 . S
C840 C843 1.365 . S
C840 N845 1.328 . S
C840 H846 0.929 . S
C841 C842 1.362 . S
C841 C844 1.378 . S
C841 H856 0.929 . S
C842 C841 1.362 . S
C842 C843 1.366 . S
C843 C840 1.365 . S
C843 C842 1.366 . S
C843 H857 0.930 . S
C844 C841 1.378 . S
C844 N845 1.315 . S
C844 H847 0.930 . S
N845 Co825 2.194 . S
N845 C840 1.328 . S
N845 C844 1.315 . S
H846 C840 0.929 . S
H847 C844 0.930 . S
H848 C836 0.929 . S
H849 C838 0.929 . S
O850 Co825 2.351 . S
O850 C853 1.244 . S
O851 Co825 2.155 . S
O851 C853 1.240 . S
O852 Co825 2.096 . S
O852 C833 1.247 . S
C853 O850 1.244 . S
C853 O851 1.240 . S
H854 C828 0.931 . S
H855 C837 0.931 . S
H856 C841 0.929 . S
H857 C843 0.930 . S
Co858 N862 2.148 . S
Co858 N868 2.128 . S
Co858 N878 2.194 . S
Co858 O883 2.351 . S
Co858 O884 2.155 . S
Co858 O885 2.096 . S
C859 N862 1.301 . S
C859 N863 1.328 . S
C859 H864 0.930 . S
C860 C861 1.333 . S
C860 N862 1.317 . S
C860 H865 0.930 . S
C861 C860 1.333 . S
C861 N863 1.350 . S
C861 H887 0.931 . S
N862 Co858 2.148 . S
N862 C859 1.301 . S
N862 C860 1.317 . S
N863 C859 1.328 . S
N863 C861 1.350 . S
H864 C859 0.930 . S
H865 C860 0.930 . S
C866 O867 1.224 . S
C866 O885 1.247 . S
O867 C866 1.224 . S
N868 Co858 2.128 . S
N868 C869 1.355 . S
N868 C871 1.311 . S
C869 N868 1.355 . S
C869 C870 1.363 . S
C869 H881 0.929 . S
C870 C869 1.363 . S
C870 N872 1.375 . S
C870 H888 0.931 . S
C871 N868 1.311 . S
C871 N872 1.347 . S
C871 H882 0.929 . S
N872 C870 1.375 . S
N872 C871 1.347 . S
C873 C876 1.365 . S
C873 N878 1.328 . S
C873 H879 0.929 . S
C874 C875 1.362 . S
C874 C877 1.378 . S
C874 H889 0.929 . S
C875 C874 1.362 . S
C875 C876 1.366 . S
C876 C873 1.365 . S
C876 C875 1.366 . S
C876 H890 0.930 . S
C877 C874 1.378 . S
C877 N878 1.315 . S
C877 H880 0.930 . S
N878 Co858 2.194 . S
N878 C873 1.328 . S
N878 C877 1.315 . S
H879 C873 0.929 . S
H880 C877 0.930 . S
H881 C869 0.929 . S
H882 C871 0.929 . S
O883 Co858 2.351 . S
O883 C886 1.244 . S
O884 Co858 2.155 . S
O884 C886 1.240 . S
O885 Co858 2.096 . S
O885 C866 1.247 . S
C886 O883 1.244 . S
C886 O884 1.240 . S
H887 C861 0.931 . S
H888 C870 0.931 . S
H889 C874 0.929 . S
H890 C876 0.930 . S
Co891 N895 2.148 . S
Co891 N901 2.128 . S
Co891 N911 2.194 . S
Co891 O916 2.351 . S
Co891 O917 2.155 . S
Co891 O918 2.096 . S
C892 N895 1.301 . S
C892 N896 1.328 . S
C892 H897 0.930 . S
C893 C894 1.333 . S
C893 N895 1.317 . S
C893 H898 0.930 . S
C894 C893 1.333 . S
C894 N896 1.350 . S
C894 H920 0.931 . S
N895 Co891 2.148 . S
N895 C892 1.301 . S
N895 C893 1.317 . S
N896 C892 1.328 . S
N896 C894 1.350 . S
H897 C892 0.930 . S
H898 C893 0.930 . S
C899 O900 1.224 . S
C899 O918 1.247 . S
O900 C899 1.224 . S
N901 Co891 2.128 . S
N901 C902 1.355 . S
N901 C904 1.311 . S
C902 N901 1.355 . S
C902 C903 1.363 . S
C902 H914 0.929 . S
C903 C902 1.363 . S
C903 N905 1.375 . S
C903 H921 0.931 . S
C904 N901 1.311 . S
C904 N905 1.347 . S
C904 H915 0.929 . S
N905 C903 1.375 . S
N905 C904 1.347 . S
C906 C909 1.365 . S
C906 N911 1.328 . S
C906 H912 0.929 . S
C907 C908 1.362 . S
C907 C910 1.378 . S
C907 H922 0.929 . S
C908 C907 1.362 . S
C908 C909 1.366 . S
C909 C906 1.365 . S
C909 C908 1.366 . S
C909 H923 0.930 . S
C910 C907 1.378 . S
C910 N911 1.315 . S
C910 H913 0.930 . S
N911 Co891 2.194 . S
N911 C906 1.328 . S
N911 C910 1.315 . S
H912 C906 0.929 . S
H913 C910 0.930 . S
H914 C902 0.929 . S
H915 C904 0.929 . S
O916 Co891 2.351 . S
O916 C919 1.244 . S
O917 Co891 2.155 . S
O917 C919 1.240 . S
O918 Co891 2.096 . S
O918 C899 1.247 . S
C919 O916 1.244 . S
C919 O917 1.240 . S
H920 C894 0.931 . S
H921 C903 0.931 . S
H922 C907 0.929 . S
H923 C909 0.930 . S
Co924 N928 2.148 . S
Co924 N934 2.128 . S
Co924 N944 2.194 . S
Co924 O949 2.351 . S
Co924 O950 2.155 . S
Co924 O951 2.096 . S
C925 N928 1.301 . S
C925 N929 1.328 . S
C925 H930 0.930 . S
C926 C927 1.333 . S
C926 N928 1.317 . S
C926 H931 0.930 . S
C927 C926 1.333 . S
C927 N929 1.350 . S
C927 H953 0.931 . S
N928 Co924 2.148 . S
N928 C925 1.301 . S
N928 C926 1.317 . S
N929 C925 1.328 . S
N929 C927 1.350 . S
H930 C925 0.930 . S
H931 C926 0.930 . S
C932 O933 1.224 . S
C932 O951 1.247 . S
O933 C932 1.224 . S
N934 Co924 2.128 . S
N934 C935 1.355 . S
N934 C937 1.311 . S
C935 N934 1.355 . S
C935 C936 1.363 . S
C935 H947 0.929 . S
C936 C935 1.363 . S
C936 N938 1.375 . S
C936 H954 0.931 . S
C937 N934 1.311 . S
C937 N938 1.347 . S
C937 H948 0.929 . S
N938 C936 1.375 . S
N938 C937 1.347 . S
C939 C942 1.365 . S
C939 N944 1.328 . S
C939 H945 0.929 . S
C940 C941 1.362 . S
C940 C943 1.378 . S
C940 H955 0.929 . S
C941 C940 1.362 . S
C941 C942 1.366 . S
C942 C939 1.365 . S
C942 C941 1.366 . S
C942 H956 0.930 . S
C943 C940 1.378 . S
C943 N944 1.315 . S
C943 H946 0.930 . S
N944 Co924 2.194 . S
N944 C939 1.328 . S
N944 C943 1.315 . S
H945 C939 0.929 . S
H946 C943 0.930 . S
H947 C935 0.929 . S
H948 C937 0.929 . S
O949 Co924 2.351 . S
O949 C952 1.244 . S
O950 Co924 2.155 . S
O950 C952 1.240 . S
O951 Co924 2.096 . S
O951 C932 1.247 . S
C952 O949 1.244 . S
C952 O950 1.240 . S
H953 C927 0.931 . S
H954 C936 0.931 . S
H955 C940 0.929 . S
H956 C942 0.930 . S
Co957 N961 2.148 . S
Co957 N967 2.128 . S
Co957 N977 2.194 . S
Co957 O982 2.351 . S
Co957 O983 2.155 . S
Co957 O984 2.096 . S
C958 N961 1.301 . S
C958 N962 1.328 . S
C958 H963 0.930 . S
C959 C960 1.333 . S
C959 N961 1.317 . S
C959 H964 0.930 . S
C960 C959 1.333 . S
C960 N962 1.350 . S
C960 H986 0.931 . S
N961 Co957 2.148 . S
N961 C958 1.301 . S
N961 C959 1.317 . S
N962 C958 1.328 . S
N962 C960 1.350 . S
H963 C958 0.930 . S
H964 C959 0.930 . S
C965 O966 1.224 . S
C965 O984 1.247 . S
O966 C965 1.224 . S
N967 Co957 2.128 . S
N967 C968 1.355 . S
N967 C970 1.311 . S
C968 N967 1.355 . S
C968 C969 1.363 . S
C968 H980 0.929 . S
C969 C968 1.363 . S
C969 N971 1.375 . S
C969 H987 0.931 . S
C970 N967 1.311 . S
C970 N971 1.347 . S
C970 H981 0.929 . S
N971 C969 1.375 . S
N971 C970 1.347 . S
C972 C975 1.365 . S
C972 N977 1.328 . S
C972 H978 0.929 . S
C973 C974 1.362 . S
C973 C976 1.378 . S
C973 H988 0.929 . S
C974 C973 1.362 . S
C974 C975 1.366 . S
C975 C972 1.365 . S
C975 C974 1.366 . S
C975 H989 0.930 . S
C976 C973 1.378 . S
C976 N977 1.315 . S
C976 H979 0.930 . S
N977 Co957 2.194 . S
N977 C972 1.328 . S
N977 C976 1.315 . S
H978 C972 0.929 . S
H979 C976 0.930 . S
H980 C968 0.929 . S
H981 C970 0.929 . S
O982 Co957 2.351 . S
O982 C985 1.244 . S
O983 Co957 2.155 . S
O983 C985 1.240 . S
O984 Co957 2.096 . S
O984 C965 1.247 . S
C985 O982 1.244 . S
C985 O983 1.240 . S
H986 C960 0.931 . S
H987 C969 0.931 . S
H988 C973 0.929 . S
H989 C975 0.930 . S
Co990 N994 2.148 . S
Co990 N1000 2.128 . S
Co990 N1010 2.194 . S
Co990 O1015 2.351 . S
Co990 O1016 2.155 . S
Co990 O1017 2.096 . S
C991 N994 1.301 . S
C991 N995 1.328 . S
C991 H996 0.930 . S
C992 C993 1.333 . S
C992 N994 1.317 . S
C992 H997 0.930 . S
C993 C992 1.333 . S
C993 N995 1.350 . S
C993 H1019 0.931 . S
N994 Co990 2.148 . S
N994 C991 1.301 . S
N994 C992 1.317 . S
N995 C991 1.328 . S
N995 C993 1.350 . S
H996 C991 0.930 . S
H997 C992 0.930 . S
C998 O999 1.224 . S
C998 O1017 1.247 . S
O999 C998 1.224 . S
N1000 Co990 2.128 . S
N1000 C1001 1.355 . S
N1000 C1003 1.311 . S
C1001 N1000 1.355 . S
C1001 C1002 1.363 . S
C1001 H1013 0.929 . S
C1002 C1001 1.363 . S
C1002 N1004 1.375 . S
C1002 H1020 0.931 . S
C1003 N1000 1.311 . S
C1003 N1004 1.347 . S
C1003 H1014 0.929 . S
N1004 C1002 1.375 . S
N1004 C1003 1.347 . S
C1005 C1008 1.365 . S
C1005 N1010 1.328 . S
C1005 H1011 0.929 . S
C1006 C1007 1.362 . S
C1006 C1009 1.378 . S
C1006 H1021 0.929 . S
C1007 C1006 1.362 . S
C1007 C1008 1.366 . S
C1008 C1005 1.365 . S
C1008 C1007 1.366 . S
C1008 H1022 0.930 . S
C1009 C1006 1.378 . S
C1009 N1010 1.315 . S
C1009 H1012 0.930 . S
N1010 Co990 2.194 . S
N1010 C1005 1.328 . S
N1010 C1009 1.315 . S
H1011 C1005 0.929 . S
H1012 C1009 0.930 . S
H1013 C1001 0.929 . S
H1014 C1003 0.929 . S
O1015 Co990 2.351 . S
O1015 C1018 1.244 . S
O1016 Co990 2.155 . S
O1016 C1018 1.240 . S
O1017 Co990 2.096 . S
O1017 C998 1.247 . S
C1018 O1015 1.244 . S
C1018 O1016 1.240 . S
H1019 C993 0.931 . S
H1020 C1002 0.931 . S
H1021 C1006 0.929 . S
H1022 C1008 0.930 . S
Co1023 N1027 2.148 . S
Co1023 N1033 2.128 . S
Co1023 N1043 2.194 . S
Co1023 O1048 2.351 . S
Co1023 O1049 2.155 . S
Co1023 O1050 2.096 . S
C1024 N1027 1.301 . S
C1024 N1028 1.328 . S
C1024 H1029 0.930 . S
C1025 C1026 1.333 . S
C1025 N1027 1.317 . S
C1025 H1030 0.930 . S
C1026 C1025 1.333 . S
C1026 N1028 1.350 . S
C1026 H1052 0.931 . S
N1027 Co1023 2.148 . S
N1027 C1024 1.301 . S
N1027 C1025 1.317 . S
N1028 C1024 1.328 . S
N1028 C1026 1.350 . S
H1029 C1024 0.930 . S
H1030 C1025 0.930 . S
C1031 O1032 1.224 . S
C1031 O1050 1.247 . S
O1032 C1031 1.224 . S
N1033 Co1023 2.128 . S
N1033 C1034 1.355 . S
N1033 C1036 1.311 . S
C1034 N1033 1.355 . S
C1034 C1035 1.363 . S
C1034 H1046 0.929 . S
C1035 C1034 1.363 . S
C1035 N1037 1.375 . S
C1035 H1053 0.931 . S
C1036 N1033 1.311 . S
C1036 N1037 1.347 . S
C1036 H1047 0.929 . S
N1037 C1035 1.375 . S
N1037 C1036 1.347 . S
C1038 C1041 1.365 . S
C1038 N1043 1.328 . S
C1038 H1044 0.929 . S
C1039 C1040 1.362 . S
C1039 C1042 1.378 . S
C1039 H1054 0.929 . S
C1040 C1039 1.362 . S
C1040 C1041 1.366 . S
C1041 C1038 1.365 . S
C1041 C1040 1.366 . S
C1041 H1055 0.930 . S
C1042 C1039 1.378 . S
C1042 N1043 1.315 . S
C1042 H1045 0.930 . S
N1043 Co1023 2.194 . S
N1043 C1038 1.328 . S
N1043 C1042 1.315 . S
H1044 C1038 0.929 . S
H1045 C1042 0.930 . S
H1046 C1034 0.929 . S
H1047 C1036 0.929 . S
O1048 Co1023 2.351 . S
O1048 C1051 1.244 . S
O1049 Co1023 2.155 . S
O1049 C1051 1.240 . S
O1050 Co1023 2.096 . S
O1050 C1031 1.247 . S
C1051 O1048 1.244 . S
C1051 O1049 1.240 . S
H1052 C1026 0.931 . S
H1053 C1035 0.931 . S
H1054 C1039 0.929 . S
H1055 C1041 0.930 . S
Co1056 N1060 2.148 . S
Co1056 N1066 2.128 . S
Co1056 N1076 2.194 . S
Co1056 O1081 2.351 . S
Co1056 O1082 2.155 . S
Co1056 O1083 2.096 . S
C1057 N1060 1.301 . S
C1057 N1061 1.328 . S
C1057 H1062 0.930 . S
C1058 C1059 1.333 . S
C1058 N1060 1.317 . S
C1058 H1063 0.930 . S
C1059 C1058 1.333 . S
C1059 N1061 1.350 . S
C1059 H1085 0.931 . S
N1060 Co1056 2.148 . S
N1060 C1057 1.301 . S
N1060 C1058 1.317 . S
N1061 C1057 1.328 . S
N1061 C1059 1.350 . S
H1062 C1057 0.930 . S
H1063 C1058 0.930 . S
C1064 O1065 1.224 . S
C1064 O1083 1.247 . S
O1065 C1064 1.224 . S
N1066 Co1056 2.128 . S
N1066 C1067 1.355 . S
N1066 C1069 1.311 . S
C1067 N1066 1.355 . S
C1067 C1068 1.363 . S
C1067 H1079 0.929 . S
C1068 C1067 1.363 . S
C1068 N1070 1.375 . S
C1068 H1086 0.931 . S
C1069 N1066 1.311 . S
C1069 N1070 1.347 . S
C1069 H1080 0.929 . S
N1070 C1068 1.375 . S
N1070 C1069 1.347 . S
C1071 C1074 1.365 . S
C1071 N1076 1.328 . S
C1071 H1077 0.929 . S
C1072 C1073 1.362 . S
C1072 C1075 1.378 . S
C1072 H1087 0.929 . S
C1073 C1072 1.362 . S
C1073 C1074 1.366 . S
C1074 C1071 1.365 . S
C1074 C1073 1.366 . S
C1074 H1088 0.930 . S
C1075 C1072 1.378 . S
C1075 N1076 1.315 . S
C1075 H1078 0.930 . S
N1076 Co1056 2.194 . S
N1076 C1071 1.328 . S
N1076 C1075 1.315 . S
H1077 C1071 0.929 . S
H1078 C1075 0.930 . S
H1079 C1067 0.929 . S
H1080 C1069 0.929 . S
O1081 Co1056 2.351 . S
O1081 C1084 1.244 . S
O1082 Co1056 2.155 . S
O1082 C1084 1.240 . S
O1083 Co1056 2.096 . S
O1083 C1064 1.247 . S
C1084 O1081 1.244 . S
C1084 O1082 1.240 . S
H1085 C1059 0.931 . S
H1086 C1068 0.931 . S
H1087 C1072 0.929 . S
H1088 C1074 0.930 . S
Co1089 N1093 2.148 . S
Co1089 N1099 2.128 . S
Co1089 N1109 2.194 . S
Co1089 O1114 2.351 . S
Co1089 O1115 2.155 . S
Co1089 O1116 2.096 . S
C1090 N1093 1.301 . S
C1090 N1094 1.328 . S
C1090 H1095 0.930 . S
C1091 C1092 1.333 . S
C1091 N1093 1.317 . S
C1091 H1096 0.930 . S
C1092 C1091 1.333 . S
C1092 N1094 1.350 . S
C1092 H1118 0.931 . S
N1093 Co1089 2.148 . S
N1093 C1090 1.301 . S
N1093 C1091 1.317 . S
N1094 C1090 1.328 . S
N1094 C1092 1.350 . S
H1095 C1090 0.930 . S
H1096 C1091 0.930 . S
C1097 O1098 1.224 . S
C1097 O1116 1.247 . S
O1098 C1097 1.224 . S
N1099 Co1089 2.128 . S
N1099 C1100 1.355 . S
N1099 C1102 1.311 . S
C1100 N1099 1.355 . S
C1100 C1101 1.363 . S
C1100 H1112 0.929 . S
C1101 C1100 1.363 . S
C1101 N1103 1.375 . S
C1101 H1119 0.931 . S
C1102 N1099 1.311 . S
C1102 N1103 1.347 . S
C1102 H1113 0.929 . S
N1103 C1101 1.375 . S
N1103 C1102 1.347 . S
C1104 C1107 1.365 . S
C1104 N1109 1.328 . S
C1104 H1110 0.929 . S
C1105 C1106 1.362 . S
C1105 C1108 1.378 . S
C1105 H1120 0.929 . S
C1106 C1105 1.362 . S
C1106 C1107 1.366 . S
C1107 C1104 1.365 . S
C1107 C1106 1.366 . S
C1107 H1121 0.930 . S
C1108 C1105 1.378 . S
C1108 N1109 1.315 . S
C1108 H1111 0.930 . S
N1109 Co1089 2.194 . S
N1109 C1104 1.328 . S
N1109 C1108 1.315 . S
H1110 C1104 0.929 . S
H1111 C1108 0.930 . S
H1112 C1100 0.929 . S
H1113 C1102 0.929 . S
O1114 Co1089 2.351 . S
O1114 C1117 1.244 . S
O1115 Co1089 2.155 . S
O1115 C1117 1.240 . S
O1116 Co1089 2.096 . S
O1116 C1097 1.247 . S
C1117 O1114 1.244 . S
C1117 O1115 1.240 . S
H1118 C1092 0.931 . S
H1119 C1101 0.931 . S
H1120 C1105 0.929 . S
H1121 C1107 0.930 . S
Co1122 N1126 2.148 . S
Co1122 N1132 2.128 . S
Co1122 N1142 2.194 . S
Co1122 O1147 2.351 . S
Co1122 O1148 2.155 . S
Co1122 O1149 2.096 . S
C1123 N1126 1.301 . S
C1123 N1127 1.328 . S
C1123 H1128 0.930 . S
C1124 C1125 1.333 . S
C1124 N1126 1.317 . S
C1124 H1129 0.930 . S
C1125 C1124 1.333 . S
C1125 N1127 1.350 . S
C1125 H1151 0.931 . S
N1126 Co1122 2.148 . S
N1126 C1123 1.301 . S
N1126 C1124 1.317 . S
N1127 C1123 1.328 . S
N1127 C1125 1.350 . S
H1128 C1123 0.930 . S
H1129 C1124 0.930 . S
C1130 O1131 1.224 . S
C1130 O1149 1.247 . S
O1131 C1130 1.224 . S
N1132 Co1122 2.128 . S
N1132 C1133 1.355 . S
N1132 C1135 1.311 . S
C1133 N1132 1.355 . S
C1133 C1134 1.363 . S
C1133 H1145 0.929 . S
C1134 C1133 1.363 . S
C1134 N1136 1.375 . S
C1134 H1152 0.931 . S
C1135 N1132 1.311 . S
C1135 N1136 1.347 . S
C1135 H1146 0.929 . S
N1136 C1134 1.375 . S
N1136 C1135 1.347 . S
C1137 C1140 1.365 . S
C1137 N1142 1.328 . S
C1137 H1143 0.929 . S
C1138 C1139 1.362 . S
C1138 C1141 1.378 . S
C1138 H1153 0.929 . S
C1139 C1138 1.362 . S
C1139 C1140 1.366 . S
C1140 C1137 1.365 . S
C1140 C1139 1.366 . S
C1140 H1154 0.930 . S
C1141 C1138 1.378 . S
C1141 N1142 1.315 . S
C1141 H1144 0.930 . S
N1142 Co1122 2.194 . S
N1142 C1137 1.328 . S
N1142 C1141 1.315 . S
H1143 C1137 0.929 . S
H1144 C1141 0.930 . S
H1145 C1133 0.929 . S
H1146 C1135 0.929 . S
O1147 Co1122 2.351 . S
O1147 C1150 1.244 . S
O1148 Co1122 2.155 . S
O1148 C1150 1.240 . S
O1149 Co1122 2.096 . S
O1149 C1130 1.247 . S
C1150 O1147 1.244 . S
C1150 O1148 1.240 . S
H1151 C1125 0.931 . S
H1152 C1134 0.931 . S
H1153 C1138 0.929 . S
H1154 C1140 0.930 . S
Co1155 N1159 2.148 . S
Co1155 N1165 2.128 . S
Co1155 N1175 2.194 . S
Co1155 O1180 2.351 . S
Co1155 O1181 2.155 . S
Co1155 O1182 2.096 . S
C1156 N1159 1.301 . S
C1156 N1160 1.328 . S
C1156 H1161 0.930 . S
C1157 C1158 1.333 . S
C1157 N1159 1.317 . S
C1157 H1162 0.930 . S
C1158 C1157 1.333 . S
C1158 N1160 1.350 . S
C1158 H1184 0.931 . S
N1159 Co1155 2.148 . S
N1159 C1156 1.301 . S
N1159 C1157 1.317 . S
N1160 C1156 1.328 . S
N1160 C1158 1.350 . S
H1161 C1156 0.930 . S
H1162 C1157 0.930 . S
C1163 O1164 1.224 . S
C1163 O1182 1.247 . S
O1164 C1163 1.224 . S
N1165 Co1155 2.128 . S
N1165 C1166 1.355 . S
N1165 C1168 1.311 . S
C1166 N1165 1.355 . S
C1166 C1167 1.363 . S
C1166 H1178 0.929 . S
C1167 C1166 1.363 . S
C1167 N1169 1.375 . S
C1167 H1185 0.931 . S
C1168 N1165 1.311 . S
C1168 N1169 1.347 . S
C1168 H1179 0.929 . S
N1169 C1167 1.375 . S
N1169 C1168 1.347 . S
C1170 C1173 1.365 . S
C1170 N1175 1.328 . S
C1170 H1176 0.929 . S
C1171 C1172 1.362 . S
C1171 C1174 1.378 . S
C1171 H1186 0.929 . S
C1172 C1171 1.362 . S
C1172 C1173 1.366 . S
C1173 C1170 1.365 . S
C1173 C1172 1.366 . S
C1173 H1187 0.930 . S
C1174 C1171 1.378 . S
C1174 N1175 1.315 . S
C1174 H1177 0.930 . S
N1175 Co1155 2.194 . S
N1175 C1170 1.328 . S
N1175 C1174 1.315 . S
H1176 C1170 0.929 . S
H1177 C1174 0.930 . S
H1178 C1166 0.929 . S
H1179 C1168 0.929 . S
O1180 Co1155 2.351 . S
O1180 C1183 1.244 . S
O1181 Co1155 2.155 . S
O1181 C1183 1.240 . S
O1182 Co1155 2.096 . S
O1182 C1163 1.247 . S
C1183 O1180 1.244 . S
C1183 O1181 1.240 . S
H1184 C1158 0.931 . S
H1185 C1167 0.931 . S
H1186 C1171 0.929 . S
H1187 C1173 0.930 . S
C1188 C1189 1.349 . S
C1188 C1190 1.327 . S
C1188 H1213 0.950 . S
C1189 C1188 1.349 . S
C1189 C1205 1.349 . S
C1190 C1188 1.327 . S
C1190 C1209 1.429 . S
C1190 H1214 0.950 . S
C1191 C1208 1.574 . S
C1191 C1210 1.368 . S
C1191 H1215 0.949 . S
H1192 C1196 0.949 . S
C1193 C1194 1.349 . S
C1193 C1195 1.327 . S
C1193 H1216 0.950 . S
C1194 C1193 1.349 . S
C1194 C1206 1.349 . S
C1195 C1193 1.327 . S
C1195 C1211 1.429 . S
C1195 H1217 0.950 . S
C1196 H1192 0.949 . S
C1196 C1204 1.574 . S
C1196 C1212 1.368 . S
H1197 C1205 0.950 . S
H1198 C1203 0.950 . S
H1199 C1204 0.949 . S
H1200 C1206 0.950 . S
H1201 C1207 0.950 . S
H1202 C1208 0.949 . S
C1203 H1198 0.950 . S
C1203 C1205 1.327 . S
C1203 C1209 1.429 . S
C1204 C1196 1.574 . S
C1204 H1199 0.949 . S
C1204 C1210 1.368 . S
C1205 C1189 1.349 . S
C1205 H1197 0.950 . S
C1205 C1203 1.327 . S
C1206 C1194 1.349 . S
C1206 H1200 0.950 . S
C1206 C1207 1.327 . S
C1207 H1201 0.950 . S
C1207 C1206 1.327 . S
C1207 C1211 1.429 . S
C1208 C1191 1.574 . S
C1208 H1202 0.949 . S
C1208 C1212 1.368 . S
C1209 C1190 1.429 . S
C1209 C1203 1.429 . S
C1209 C1210 1.523 . S
C1210 C1191 1.368 . S
C1210 C1204 1.368 . S
C1210 C1209 1.523 . S
C1211 C1195 1.429 . S
C1211 C1207 1.429 . S
C1211 C1212 1.523 . S
C1212 C1196 1.368 . S
C1212 C1208 1.368 . S
C1212 C1211 1.523 . S
H1213 C1188 0.950 . S
H1214 C1190 0.950 . S
H1215 C1191 0.949 . S
H1216 C1193 0.950 . S
H1217 C1195 0.950 . S
C1218 C1219 1.349 . S
C1218 C1220 1.327 . S
C1218 H1243 0.950 . S
C1219 C1218 1.349 . S
C1219 C1235 1.349 . S
C1220 C1218 1.327 . S
C1220 C1239 1.429 . S
C1220 H1244 0.950 . S
C1221 C1238 1.574 . S
C1221 C1240 1.368 . S
C1221 H1245 0.949 . S
H1222 C1226 0.949 . S
C1223 C1224 1.349 . S
C1223 C1225 1.327 . S
C1223 H1246 0.950 . S
C1224 C1223 1.349 . S
C1224 C1236 1.349 . S
C1225 C1223 1.327 . S
C1225 C1241 1.429 . S
C1225 H1247 0.950 . S
C1226 H1222 0.949 . S
C1226 C1234 1.574 . S
C1226 C1242 1.368 . S
H1227 C1235 0.950 . S
H1228 C1233 0.950 . S
H1229 C1234 0.949 . S
H1230 C1236 0.950 . S
H1231 C1237 0.950 . S
H1232 C1238 0.949 . S
C1233 H1228 0.950 . S
C1233 C1235 1.327 . S
C1233 C1239 1.429 . S
C1234 C1226 1.574 . S
C1234 H1229 0.949 . S
C1234 C1240 1.368 . S
C1235 C1219 1.349 . S
C1235 H1227 0.950 . S
C1235 C1233 1.327 . S
C1236 C1224 1.349 . S
C1236 H1230 0.950 . S
C1236 C1237 1.327 . S
C1237 H1231 0.950 . S
C1237 C1236 1.327 . S
C1237 C1241 1.429 . S
C1238 C1221 1.574 . S
C1238 H1232 0.949 . S
C1238 C1242 1.368 . S
C1239 C1220 1.429 . S
C1239 C1233 1.429 . S
C1239 C1240 1.523 . S
C1240 C1221 1.368 . S
C1240 C1234 1.368 . S
C1240 C1239 1.523 . S
C1241 C1225 1.429 . S
C1241 C1237 1.429 . S
C1241 C1242 1.523 . S
C1242 C1226 1.368 . S
C1242 C1238 1.368 . S
C1242 C1241 1.523 . S
H1243 C1218 0.950 . S
H1244 C1220 0.950 . S
H1245 C1221 0.949 . S
H1246 C1223 0.950 . S
H1247 C1225 0.950 . S
C1248 C1249 1.349 . S
C1248 C1250 1.327 . S
C1248 H1273 0.950 . S
C1249 C1248 1.349 . S
C1249 C1265 1.349 . S
C1250 C1248 1.327 . S
C1250 C1269 1.429 . S
C1250 H1274 0.950 . S
C1251 C1268 1.574 . S
C1251 C1270 1.368 . S
C1251 H1275 0.949 . S
H1252 C1256 0.949 . S
C1253 C1254 1.349 . S
C1253 C1255 1.327 . S
C1253 H1276 0.950 . S
C1254 C1253 1.349 . S
C1254 C1266 1.349 . S
C1255 C1253 1.327 . S
C1255 C1271 1.429 . S
C1255 H1277 0.950 . S
C1256 H1252 0.949 . S
C1256 C1264 1.574 . S
C1256 C1272 1.368 . S
H1257 C1265 0.950 . S
H1258 C1263 0.950 . S
H1259 C1264 0.949 . S
H1260 C1266 0.950 . S
H1261 C1267 0.950 . S
H1262 C1268 0.949 . S
C1263 H1258 0.950 . S
C1263 C1265 1.327 . S
C1263 C1269 1.429 . S
C1264 C1256 1.574 . S
C1264 H1259 0.949 . S
C1264 C1270 1.368 . S
C1265 C1249 1.349 . S
C1265 H1257 0.950 . S
C1265 C1263 1.327 . S
C1266 C1254 1.349 . S
C1266 H1260 0.950 . S
C1266 C1267 1.327 . S
C1267 H1261 0.950 . S
C1267 C1266 1.327 . S
C1267 C1271 1.429 . S
C1268 C1251 1.574 . S
C1268 H1262 0.949 . S
C1268 C1272 1.368 . S
C1269 C1250 1.429 . S
C1269 C1263 1.429 . S
C1269 C1270 1.523 . S
C1270 C1251 1.368 . S
C1270 C1264 1.368 . S
C1270 C1269 1.523 . S
C1271 C1255 1.429 . S
C1271 C1267 1.429 . S
C1271 C1272 1.523 . S
C1272 C1256 1.368 . S
C1272 C1268 1.368 . S
C1272 C1271 1.523 . S
H1273 C1248 0.950 . S
H1274 C1250 0.950 . S
H1275 C1251 0.949 . S
H1276 C1253 0.950 . S
H1277 C1255 0.950 . S
C1278 C1279 1.349 . S
C1278 C1280 1.327 . S
C1278 H1303 0.950 . S
C1279 C1278 1.349 . S
C1279 C1295 1.349 . S
C1280 C1278 1.327 . S
C1280 C1299 1.429 . S
C1280 H1304 0.950 . S
C1281 C1298 1.574 . S
C1281 C1300 1.368 . S
C1281 H1305 0.949 . S
H1282 C1286 0.949 . S
C1283 C1284 1.349 . S
C1283 C1285 1.327 . S
C1283 H1306 0.950 . S
C1284 C1283 1.349 . S
C1284 C1296 1.349 . S
C1285 C1283 1.327 . S
C1285 C1301 1.429 . S
C1285 H1307 0.950 . S
C1286 H1282 0.949 . S
C1286 C1294 1.574 . S
C1286 C1302 1.368 . S
H1287 C1295 0.950 . S
H1288 C1293 0.950 . S
H1289 C1294 0.949 . S
H1290 C1296 0.950 . S
H1291 C1297 0.950 . S
H1292 C1298 0.949 . S
C1293 H1288 0.950 . S
C1293 C1295 1.327 . S
C1293 C1299 1.429 . S
C1294 C1286 1.574 . S
C1294 H1289 0.949 . S
C1294 C1300 1.368 . S
C1295 C1279 1.349 . S
C1295 H1287 0.950 . S
C1295 C1293 1.327 . S
C1296 C1284 1.349 . S
C1296 H1290 0.950 . S
C1296 C1297 1.327 . S
C1297 H1291 0.950 . S
C1297 C1296 1.327 . S
C1297 C1301 1.429 . S
C1298 C1281 1.574 . S
C1298 H1292 0.949 . S
C1298 C1302 1.368 . S
C1299 C1280 1.429 . S
C1299 C1293 1.429 . S
C1299 C1300 1.523 . S
C1300 C1281 1.368 . S
C1300 C1294 1.368 . S
C1300 C1299 1.523 . S
C1301 C1285 1.429 . S
C1301 C1297 1.429 . S
C1301 C1302 1.523 . S
C1302 C1286 1.368 . S
C1302 C1298 1.368 . S
C1302 C1301 1.523 . S
H1303 C1278 0.950 . S
H1304 C1280 0.950 . S
H1305 C1281 0.949 . S
H1306 C1283 0.950 . S
H1307 C1285 0.950 . S
C1308 C1309 1.349 . S
C1308 C1310 1.327 . S
C1308 H1333 0.950 . S
C1309 C1308 1.349 . S
C1309 C1325 1.349 . S
C1310 C1308 1.327 . S
C1310 C1329 1.429 . S
C1310 H1334 0.950 . S
C1311 C1328 1.574 . S
C1311 C1330 1.368 . S
C1311 H1335 0.949 . S
H1312 C1316 0.949 . S
C1313 C1314 1.349 . S
C1313 C1315 1.327 . S
C1313 H1336 0.950 . S
C1314 C1313 1.349 . S
C1314 C1326 1.349 . S
C1315 C1313 1.327 . S
C1315 C1331 1.429 . S
C1315 H1337 0.950 . S
C1316 H1312 0.949 . S
C1316 C1324 1.574 . S
C1316 C1332 1.368 . S
H1317 C1325 0.950 . S
H1318 C1323 0.950 . S
H1319 C1324 0.949 . S
H1320 C1326 0.950 . S
H1321 C1327 0.950 . S
H1322 C1328 0.949 . S
C1323 H1318 0.950 . S
C1323 C1325 1.327 . S
C1323 C1329 1.429 . S
C1324 C1316 1.574 . S
C1324 H1319 0.949 . S
C1324 C1330 1.368 . S
C1325 C1309 1.349 . S
C1325 H1317 0.950 . S
C1325 C1323 1.327 . S
C1326 C1314 1.349 . S
C1326 H1320 0.950 . S
C1326 C1327 1.327 . S
C1327 H1321 0.950 . S
C1327 C1326 1.327 . S
C1327 C1331 1.429 . S
C1328 C1311 1.574 . S
C1328 H1322 0.949 . S
C1328 C1332 1.368 . S
C1329 C1310 1.429 . S
C1329 C1323 1.429 . S
C1329 C1330 1.523 . S
C1330 C1311 1.368 . S
C1330 C1324 1.368 . S
C1330 C1329 1.523 . S
C1331 C1315 1.429 . S
C1331 C1327 1.429 . S
C1331 C1332 1.523 . S
C1332 C1316 1.368 . S
C1332 C1328 1.368 . S
C1332 C1331 1.523 . S
H1333 C1308 0.950 . S
H1334 C1310 0.950 . S
H1335 C1311 0.949 . S
H1336 C1313 0.950 . S
H1337 C1315 0.950 . S
C1338 C1339 1.349 . S
C1338 C1340 1.327 . S
C1338 H1363 0.950 . S
C1339 C1338 1.349 . S
C1339 C1355 1.349 . S
C1340 C1338 1.327 . S
C1340 C1359 1.429 . S
C1340 H1364 0.950 . S
C1341 C1358 1.574 . S
C1341 C1360 1.368 . S
C1341 H1365 0.949 . S
H1342 C1346 0.949 . S
C1343 C1344 1.349 . S
C1343 C1345 1.327 . S
C1343 H1366 0.950 . S
C1344 C1343 1.349 . S
C1344 C1356 1.349 . S
C1345 C1343 1.327 . S
C1345 C1361 1.429 . S
C1345 H1367 0.950 . S
C1346 H1342 0.949 . S
C1346 C1354 1.574 . S
C1346 C1362 1.368 . S
H1347 C1355 0.950 . S
H1348 C1353 0.950 . S
H1349 C1354 0.949 . S
H1350 C1356 0.950 . S
H1351 C1357 0.950 . S
H1352 C1358 0.949 . S
C1353 H1348 0.950 . S
C1353 C1355 1.327 . S
C1353 C1359 1.429 . S
C1354 C1346 1.574 . S
C1354 H1349 0.949 . S
C1354 C1360 1.368 . S
C1355 C1339 1.349 . S
C1355 H1347 0.950 . S
C1355 C1353 1.327 . S
C1356 C1344 1.349 . S
C1356 H1350 0.950 . S
C1356 C1357 1.327 . S
C1357 H1351 0.950 . S
C1357 C1356 1.327 . S
C1357 C1361 1.429 . S
C1358 C1341 1.574 . S
C1358 H1352 0.949 . S
C1358 C1362 1.368 . S
C1359 C1340 1.429 . S
C1359 C1353 1.429 . S
C1359 C1360 1.523 . S
C1360 C1341 1.368 . S
C1360 C1354 1.368 . S
C1360 C1359 1.523 . S
C1361 C1345 1.429 . S
C1361 C1357 1.429 . S
C1361 C1362 1.523 . S
C1362 C1346 1.368 . S
C1362 C1358 1.368 . S
C1362 C1361 1.523 . S
H1363 C1338 0.950 . S
H1364 C1340 0.950 . S
H1365 C1341 0.949 . S
H1366 C1343 0.950 . S
H1367 C1345 0.950 . S
C1368 C1369 1.349 . S
C1368 C1370 1.327 . S
C1368 H1393 0.950 . S
C1369 C1368 1.349 . S
C1369 C1385 1.349 . S
C1370 C1368 1.327 . S
C1370 C1389 1.429 . S
C1370 H1394 0.950 . S
C1371 C1388 1.574 . S
C1371 C1390 1.368 . S
C1371 H1395 0.949 . S
H1372 C1376 0.949 . S
C1373 C1374 1.349 . S
C1373 C1375 1.327 . S
C1373 H1396 0.950 . S
C1374 C1373 1.349 . S
C1374 C1386 1.349 . S
C1375 C1373 1.327 . S
C1375 C1391 1.429 . S
C1375 H1397 0.950 . S
C1376 H1372 0.949 . S
C1376 C1384 1.574 . S
C1376 C1392 1.368 . S
H1377 C1385 0.950 . S
H1378 C1383 0.950 . S
H1379 C1384 0.949 . S
H1380 C1386 0.950 . S
H1381 C1387 0.950 . S
H1382 C1388 0.949 . S
C1383 H1378 0.950 . S
C1383 C1385 1.327 . S
C1383 C1389 1.429 . S
C1384 C1376 1.574 . S
C1384 H1379 0.949 . S
C1384 C1390 1.368 . S
C1385 C1369 1.349 . S
C1385 H1377 0.950 . S
C1385 C1383 1.327 . S
C1386 C1374 1.349 . S
C1386 H1380 0.950 . S
C1386 C1387 1.327 . S
C1387 H1381 0.950 . S
C1387 C1386 1.327 . S
C1387 C1391 1.429 . S
C1388 C1371 1.574 . S
C1388 H1382 0.949 . S
C1388 C1392 1.368 . S
C1389 C1370 1.429 . S
C1389 C1383 1.429 . S
C1389 C1390 1.523 . S
C1390 C1371 1.368 . S
C1390 C1384 1.368 . S
C1390 C1389 1.523 . S
C1391 C1375 1.429 . S
C1391 C1387 1.429 . S
C1391 C1392 1.523 . S
C1392 C1376 1.368 . S
C1392 C1388 1.368 . S
C1392 C1391 1.523 . S
H1393 C1368 0.950 . S
H1394 C1370 0.950 . S
H1395 C1371 0.949 . S
H1396 C1373 0.950 . S
H1397 C1375 0.950 . S
C1398 C1399 1.349 . S
C1398 C1400 1.327 . S
C1398 H1423 0.950 . S
C1399 C1398 1.349 . S
C1399 C1415 1.349 . S
C1400 C1398 1.327 . S
C1400 C1419 1.429 . S
C1400 H1424 0.950 . S
C1401 C1418 1.574 . S
C1401 C1420 1.368 . S
C1401 H1425 0.949 . S
H1402 C1406 0.949 . S
C1403 C1404 1.349 . S
C1403 C1405 1.327 . S
C1403 H1426 0.950 . S
C1404 C1403 1.349 . S
C1404 C1416 1.349 . S
C1405 C1403 1.327 . S
C1405 C1421 1.429 . S
C1405 H1427 0.950 . S
C1406 H1402 0.949 . S
C1406 C1414 1.574 . S
C1406 C1422 1.368 . S
H1407 C1415 0.950 . S
H1408 C1413 0.950 . S
H1409 C1414 0.949 . S
H1410 C1416 0.950 . S
H1411 C1417 0.950 . S
H1412 C1418 0.949 . S
C1413 H1408 0.950 . S
C1413 C1415 1.327 . S
C1413 C1419 1.429 . S
C1414 C1406 1.574 . S
C1414 H1409 0.949 . S
C1414 C1420 1.368 . S
C1415 C1399 1.349 . S
C1415 H1407 0.950 . S
C1415 C1413 1.327 . S
C1416 C1404 1.349 . S
C1416 H1410 0.950 . S
C1416 C1417 1.327 . S
C1417 H1411 0.950 . S
C1417 C1416 1.327 . S
C1417 C1421 1.429 . S
C1418 C1401 1.574 . S
C1418 H1412 0.949 . S
C1418 C1422 1.368 . S
C1419 C1400 1.429 . S
C1419 C1413 1.429 . S
C1419 C1420 1.523 . S
C1420 C1401 1.368 . S
C1420 C1414 1.368 . S
C1420 C1419 1.523 . S
C1421 C1405 1.429 . S
C1421 C1417 1.429 . S
C1421 C1422 1.523 . S
C1422 C1406 1.368 . S
C1422 C1418 1.368 . S
C1422 C1421 1.523 . S
H1423 C1398 0.950 . S
H1424 C1400 0.950 . S
H1425 C1401 0.949 . S
H1426 C1403 0.950 . S
H1427 C1405 0.950 . S
C1428 C1429 1.349 . S
C1428 C1430 1.327 . S
C1428 H1453 0.950 . S
C1429 C1428 1.349 . S
C1429 C1445 1.349 . S
C1430 C1428 1.327 . S
C1430 C1449 1.429 . S
C1430 H1454 0.950 . S
C1431 C1448 1.574 . S
C1431 C1450 1.368 . S
C1431 H1455 0.949 . S
H1432 C1436 0.949 . S
C1433 C1434 1.349 . S
C1433 C1435 1.327 . S
C1433 H1456 0.950 . S
C1434 C1433 1.349 . S
C1434 C1446 1.349 . S
C1435 C1433 1.327 . S
C1435 C1451 1.429 . S
C1435 H1457 0.950 . S
C1436 H1432 0.949 . S
C1436 C1444 1.574 . S
C1436 C1452 1.368 . S
H1437 C1445 0.950 . S
H1438 C1443 0.950 . S
H1439 C1444 0.949 . S
H1440 C1446 0.950 . S
H1441 C1447 0.950 . S
H1442 C1448 0.949 . S
C1443 H1438 0.950 . S
C1443 C1445 1.327 . S
C1443 C1449 1.429 . S
C1444 C1436 1.574 . S
C1444 H1439 0.949 . S
C1444 C1450 1.368 . S
C1445 C1429 1.349 . S
C1445 H1437 0.950 . S
C1445 C1443 1.327 . S
C1446 C1434 1.349 . S
C1446 H1440 0.950 . S
C1446 C1447 1.327 . S
C1447 H1441 0.950 . S
C1447 C1446 1.327 . S
C1447 C1451 1.429 . S
C1448 C1431 1.574 . S
C1448 H1442 0.949 . S
C1448 C1452 1.368 . S
C1449 C1430 1.429 . S
C1449 C1443 1.429 . S
C1449 C1450 1.523 . S
C1450 C1431 1.368 . S
C1450 C1444 1.368 . S
C1450 C1449 1.523 . S
C1451 C1435 1.429 . S
C1451 C1447 1.429 . S
C1451 C1452 1.523 . S
C1452 C1436 1.368 . S
C1452 C1448 1.368 . S
C1452 C1451 1.523 . S
H1453 C1428 0.950 . S
H1454 C1430 0.950 . S
H1455 C1431 0.949 . S
H1456 C1433 0.950 . S
H1457 C1435 0.950 . S
C1458 C1459 1.349 . S
C1458 C1460 1.327 . S
C1458 H1483 0.950 . S
C1459 C1458 1.349 . S
C1459 C1475 1.349 . S
C1460 C1458 1.327 . S
C1460 C1479 1.429 . S
C1460 H1484 0.950 . S
C1461 C1478 1.574 . S
C1461 C1480 1.368 . S
C1461 H1485 0.949 . S
H1462 C1466 0.949 . S
C1463 C1464 1.349 . S
C1463 C1465 1.327 . S
C1463 H1486 0.950 . S
C1464 C1463 1.349 . S
C1464 C1476 1.349 . S
C1465 C1463 1.327 . S
C1465 C1481 1.429 . S
C1465 H1487 0.950 . S
C1466 H1462 0.949 . S
C1466 C1474 1.574 . S
C1466 C1482 1.368 . S
H1467 C1475 0.950 . S
H1468 C1473 0.950 . S
H1469 C1474 0.949 . S
H1470 C1476 0.950 . S
H1471 C1477 0.950 . S
H1472 C1478 0.949 . S
C1473 H1468 0.950 . S
C1473 C1475 1.327 . S
C1473 C1479 1.429 . S
C1474 C1466 1.574 . S
C1474 H1469 0.949 . S
C1474 C1480 1.368 . S
C1475 C1459 1.349 . S
C1475 H1467 0.950 . S
C1475 C1473 1.327 . S
C1476 C1464 1.349 . S
C1476 H1470 0.950 . S
C1476 C1477 1.327 . S
C1477 H1471 0.950 . S
C1477 C1476 1.327 . S
C1477 C1481 1.429 . S
C1478 C1461 1.574 . S
C1478 H1472 0.949 . S
C1478 C1482 1.368 . S
C1479 C1460 1.429 . S
C1479 C1473 1.429 . S
C1479 C1480 1.523 . S
C1480 C1461 1.368 . S
C1480 C1474 1.368 . S
C1480 C1479 1.523 . S
C1481 C1465 1.429 . S
C1481 C1477 1.429 . S
C1481 C1482 1.523 . S
C1482 C1466 1.368 . S
C1482 C1478 1.368 . S
C1482 C1481 1.523 . S
H1483 C1458 0.950 . S
H1484 C1460 0.950 . S
H1485 C1461 0.949 . S
H1486 C1463 0.950 . S
H1487 C1465 0.950 . S
C1488 C1489 1.349 . S
C1488 C1490 1.327 . S
C1488 H1513 0.950 . S
C1489 C1488 1.349 . S
C1489 C1505 1.349 . S
C1490 C1488 1.327 . S
C1490 C1509 1.429 . S
C1490 H1514 0.950 . S
C1491 C1508 1.574 . S
C1491 C1510 1.368 . S
C1491 H1515 0.949 . S
H1492 C1496 0.949 . S
C1493 C1494 1.349 . S
C1493 C1495 1.327 . S
C1493 H1516 0.950 . S
C1494 C1493 1.349 . S
C1494 C1506 1.349 . S
C1495 C1493 1.327 . S
C1495 C1511 1.429 . S
C1495 H1517 0.950 . S
C1496 H1492 0.949 . S
C1496 C1504 1.574 . S
C1496 C1512 1.368 . S
H1497 C1505 0.950 . S
H1498 C1503 0.950 . S
H1499 C1504 0.949 . S
H1500 C1506 0.950 . S
H1501 C1507 0.950 . S
H1502 C1508 0.949 . S
C1503 H1498 0.950 . S
C1503 C1505 1.327 . S
C1503 C1509 1.429 . S
C1504 C1496 1.574 . S
C1504 H1499 0.949 . S
C1504 C1510 1.368 . S
C1505 C1489 1.349 . S
C1505 H1497 0.950 . S
C1505 C1503 1.327 . S
C1506 C1494 1.349 . S
C1506 H1500 0.950 . S
C1506 C1507 1.327 . S
C1507 H1501 0.950 . S
C1507 C1506 1.327 . S
C1507 C1511 1.429 . S
C1508 C1491 1.574 . S
C1508 H1502 0.949 . S
C1508 C1512 1.368 . S
C1509 C1490 1.429 . S
C1509 C1503 1.429 . S
C1509 C1510 1.523 . S
C1510 C1491 1.368 . S
C1510 C1504 1.368 . S
C1510 C1509 1.523 . S
C1511 C1495 1.429 . S
C1511 C1507 1.429 . S
C1511 C1512 1.523 . S
C1512 C1496 1.368 . S
C1512 C1508 1.368 . S
C1512 C1511 1.523 . S
H1513 C1488 0.950 . S
H1514 C1490 0.950 . S
H1515 C1491 0.949 . S
H1516 C1493 0.950 . S
H1517 C1495 0.950 . S
C1518 C1519 1.349 . S
C1518 C1520 1.327 . S
C1518 H1543 0.950 . S
C1519 C1518 1.349 . S
C1519 C1535 1.349 . S
C1520 C1518 1.327 . S
C1520 C1539 1.429 . S
C1520 H1544 0.950 . S
C1521 C1538 1.574 . S
C1521 C1540 1.368 . S
C1521 H1545 0.949 . S
H1522 C1526 0.949 . S
C1523 C1524 1.349 . S
C1523 C1525 1.327 . S
C1523 H1546 0.950 . S
C1524 C1523 1.349 . S
C1524 C1536 1.349 . S
C1525 C1523 1.327 . S
C1525 C1541 1.429 . S
C1525 H1547 0.950 . S
C1526 H1522 0.949 . S
C1526 C1534 1.574 . S
C1526 C1542 1.368 . S
H1527 C1535 0.950 . S
H1528 C1533 0.950 . S
H1529 C1534 0.949 . S
H1530 C1536 0.950 . S
H1531 C1537 0.950 . S
H1532 C1538 0.949 . S
C1533 H1528 0.950 . S
C1533 C1535 1.327 . S
C1533 C1539 1.429 . S
C1534 C1526 1.574 . S
C1534 H1529 0.949 . S
C1534 C1540 1.368 . S
C1535 C1519 1.349 . S
C1535 H1527 0.950 . S
C1535 C1533 1.327 . S
C1536 C1524 1.349 . S
C1536 H1530 0.950 . S
C1536 C1537 1.327 . S
C1537 H1531 0.950 . S
C1537 C1536 1.327 . S
C1537 C1541 1.429 . S
C1538 C1521 1.574 . S
C1538 H1532 0.949 . S
C1538 C1542 1.368 . S
C1539 C1520 1.429 . S
C1539 C1533 1.429 . S
C1539 C1540 1.523 . S
C1540 C1521 1.368 . S
C1540 C1534 1.368 . S
C1540 C1539 1.523 . S
C1541 C1525 1.429 . S
C1541 C1537 1.429 . S
C1541 C1542 1.523 . S
C1542 C1526 1.368 . S
C1542 C1538 1.368 . S
C1542 C1541 1.523 . S
H1543 C1518 0.950 . S
H1544 C1520 0.950 . S
H1545 C1521 0.949 . S
H1546 C1523 0.950 . S
H1547 C1525 0.950 . S
C1548 C1549 1.349 . S
C1548 C1550 1.327 . S
C1548 H1573 0.950 . S
C1549 C1548 1.349 . S
C1549 C1565 1.349 . S
C1550 C1548 1.327 . S
C1550 C1569 1.429 . S
C1550 H1574 0.962 . S
C1551 C1568 1.574 . S
C1551 C1570 1.368 . S
C1551 H1575 0.949 . S
H1552 C1556 0.949 . S
C1553 C1554 1.349 . S
C1553 C1555 1.327 . S
C1553 H1576 0.950 . S
C1554 C1553 1.349 . S
C1554 C1566 1.349 . S
C1555 C1553 1.327 . S
C1555 C1571 1.429 . S
C1555 H1577 0.950 . S
C1556 H1552 0.949 . S
C1556 C1564 1.574 . S
C1556 C1572 1.368 . S
H1557 C1565 0.950 . S
H1558 C1563 0.950 . S
H1559 C1564 0.949 . S
H1560 C1566 0.950 . S
H1561 C1567 0.950 . S
H1562 C1568 0.949 . S
C1563 H1558 0.950 . S
C1563 C1565 1.327 . S
C1563 C1569 1.429 . S
C1564 C1556 1.574 . S
C1564 H1559 0.949 . S
C1564 C1570 1.368 1_455 S
C1565 C1549 1.349 . S
C1565 H1557 0.950 . S
C1565 C1563 1.327 . S
C1566 C1554 1.349 . S
C1566 H1560 0.950 . S
C1566 C1567 1.327 . S
C1567 H1561 0.950 . S
C1567 C1566 1.327 . S
C1567 C1571 1.429 . S
C1568 C1551 1.574 . S
C1568 H1562 0.949 . S
C1568 C1572 1.368 1_655 S
C1569 C1550 1.429 . S
C1569 C1563 1.429 . S
C1569 C1570 1.523 . S
C1570 C1551 1.368 . S
C1570 C1564 1.368 1_655 S
C1570 C1569 1.523 . S
C1571 C1555 1.429 . S
C1571 C1567 1.429 . S
C1571 C1572 1.523 . S
C1572 C1556 1.368 . S
C1572 C1568 1.368 1_455 S
C1572 C1571 1.523 . S
H1573 C1548 0.950 . S
H1574 C1550 0.962 . S
H1575 C1551 0.949 . S
H1576 C1553 0.950 . S
H1577 C1555 0.950 . S
C1578 C1579 1.349 . S
C1578 C1580 1.327 . S
C1578 H1603 0.950 . S
C1579 C1578 1.349 . S
C1579 C1595 1.349 . S
C1580 C1578 1.327 . S
C1580 C1599 1.429 . S
C1580 H1604 0.950 . S
C1581 C1598 1.574 . S
C1581 C1600 1.368 . S
C1581 H1605 0.949 . S
H1582 C1586 0.949 . S
C1583 C1584 1.349 . S
C1583 C1585 1.327 . S
C1583 H1606 0.950 . S
C1584 C1583 1.349 . S
C1584 C1596 1.349 . S
C1585 C1583 1.327 . S
C1585 C1601 1.429 . S
C1585 H1607 0.950 . S
C1586 H1582 0.949 . S
C1586 C1594 1.574 . S
C1586 C1602 1.368 . S
H1587 C1595 0.950 . S
H1588 C1593 0.950 . S
H1589 C1594 0.949 . S
H1590 C1596 0.950 . S
H1591 C1597 0.950 . S
H1592 C1598 0.949 . S
C1593 H1588 0.950 . S
C1593 C1595 1.327 . S
C1593 C1599 1.429 . S
C1594 C1586 1.574 . S
C1594 H1589 0.949 . S
C1594 C1600 1.368 . S
C1595 C1579 1.349 . S
C1595 H1587 0.950 . S
C1595 C1593 1.327 . S
C1596 C1584 1.349 . S
C1596 H1590 0.950 . S
C1596 C1597 1.327 . S
C1597 H1591 0.950 . S
C1597 C1596 1.327 . S
C1597 C1601 1.429 . S
C1598 C1581 1.574 . S
C1598 H1592 0.949 . S
C1598 C1602 1.368 . S
C1599 C1580 1.429 . S
C1599 C1593 1.429 . S
C1599 C1600 1.523 . S
C1600 C1581 1.368 . S
C1600 C1594 1.368 . S
C1600 C1599 1.523 . S
C1601 C1585 1.429 . S
C1601 C1597 1.429 . S
C1601 C1602 1.523 . S
C1602 C1586 1.368 . S
C1602 C1598 1.368 . S
C1602 C1601 1.523 . S
H1603 C1578 0.950 . S
H1604 C1580 0.950 . S
H1605 C1581 0.949 . S
H1606 C1583 0.950 . S
H1607 C1585 0.950 . S
C1608 C1609 1.349 . S
C1608 C1610 1.327 . S
C1608 H1633 0.950 . S
C1609 C1608 1.349 . S
C1609 C1625 1.349 . S
C1610 C1608 1.327 . S
C1610 C1629 1.429 . S
C1610 H1634 0.950 . S
C1611 C1628 1.574 . S
C1611 C1630 1.368 1_545 S
C1611 H1635 0.949 . S
H1612 C1616 0.949 . S
C1613 C1614 1.349 . S
C1613 C1615 1.327 . S
C1613 H1636 0.950 . S
C1614 C1613 1.349 . S
C1614 C1626 1.349 . S
C1615 C1613 1.327 . S
C1615 C1631 1.429 . S
C1615 H1637 0.950 . S
C1616 H1612 0.949 . S
C1616 C1624 1.574 . S
C1616 C1632 1.368 1_565 S
H1617 C1625 0.950 . S
H1618 C1623 0.950 1_545 S
H1619 C1624 0.949 . S
H1620 C1626 0.950 . S
H1621 C1627 0.950 1_565 S
H1622 C1628 0.949 . S
C1623 H1618 0.950 1_565 S
C1623 C1625 1.327 . S
C1623 C1629 1.429 . S
C1624 C1616 1.574 . S
C1624 H1619 0.949 . S
C1624 C1630 1.368 . S
C1625 C1609 1.349 . S
C1625 H1617 0.950 . S
C1625 C1623 1.327 . S
C1626 C1614 1.349 . S
C1626 H1620 0.950 . S
C1626 C1627 1.327 . S
C1627 H1621 0.950 1_545 S
C1627 C1626 1.327 . S
C1627 C1631 1.429 . S
C1628 C1611 1.574 . S
C1628 H1622 0.949 . S
C1628 C1632 1.368 . S
C1629 C1610 1.429 . S
C1629 C1623 1.429 . S
C1629 C1630 1.523 . S
C1630 C1611 1.368 1_565 S
C1630 C1624 1.368 . S
C1630 C1629 1.523 . S
C1631 C1615 1.429 . S
C1631 C1627 1.429 . S
C1631 C1632 1.523 . S
C1632 C1616 1.368 1_545 S
C1632 C1628 1.368 . S
C1632 C1631 1.523 . S
H1633 C1608 0.950 . S
H1634 C1610 0.950 . S
H1635 C1611 0.949 . S
H1636 C1613 0.950 . S
H1637 C1615 0.950 . S
C1638 C1639 1.349 . S
C1638 C1640 1.327 . S
C1638 H1663 0.950 . S
C1639 C1638 1.349 . S
C1639 C1655 1.349 . S
C1640 C1638 1.327 . S
C1640 C1659 1.429 . S
C1640 H1664 0.950 . S
C1641 C1658 1.574 . S
C1641 C1660 1.368 1_545 S
C1641 H1665 0.949 . S
H1642 C1646 0.949 . S
C1643 C1644 1.349 . S
C1643 C1645 1.327 . S
C1643 H1666 0.950 . S
C1644 C1643 1.349 . S
C1644 C1656 1.349 . S
C1645 C1643 1.327 . S
C1645 C1661 1.429 . S
C1645 H1667 0.950 . S
C1646 H1642 0.949 . S
C1646 C1654 1.574 . S
C1646 C1662 1.368 1_565 S
H1647 C1655 0.950 . S
H1648 C1653 0.950 1_545 S
H1649 C1654 0.949 . S
H1650 C1656 0.950 . S
H1651 C1657 0.950 . S
H1652 C1658 0.949 . S
C1653 H1648 0.950 1_565 S
C1653 C1655 1.327 . S
C1653 C1659 1.429 . S
C1654 C1646 1.574 . S
C1654 H1649 0.949 . S
C1654 C1660 1.368 . S
C1655 C1639 1.349 . S
C1655 H1647 0.950 . S
C1655 C1653 1.327 . S
C1656 C1644 1.349 . S
C1656 H1650 0.950 . S
C1656 C1657 1.327 . S
C1657 H1651 0.950 . S
C1657 C1656 1.327 . S
C1657 C1661 1.429 . S
C1658 C1641 1.574 . S
C1658 H1652 0.949 . S
C1658 C1662 1.368 . S
C1659 C1640 1.429 . S
C1659 C1653 1.429 . S
C1659 C1660 1.523 . S
C1660 C1641 1.368 1_565 S
C1660 C1654 1.368 . S
C1660 C1659 1.523 . S
C1661 C1645 1.429 . S
C1661 C1657 1.429 . S
C1661 C1662 1.523 . S
C1662 C1646 1.368 1_545 S
C1662 C1658 1.368 . S
C1662 C1661 1.523 . S
H1663 C1638 0.950 . S
H1664 C1640 0.950 . S
H1665 C1641 0.949 . S
H1666 C1643 0.950 . S
H1667 C1645 0.950 . S
C1668 C1669 1.349 . S
C1668 C1670 1.327 . S
C1668 H1693 0.950 . S
C1669 C1668 1.349 . S
C1669 C1685 1.349 . S
C1670 C1668 1.327 . S
C1670 C1689 1.429 . S
C1670 H1694 0.950 . S
C1671 C1688 1.584 . S
C1671 C1690 1.350 1_655 S
C1671 H1695 0.957 1_655 S
H1672 C1676 0.949 . S
C1673 C1674 1.349 . S
C1673 C1675 1.327 . S
C1673 H1696 0.950 . S
C1674 C1673 1.349 . S
C1674 C1686 1.349 . S
C1675 C1673 1.327 . S
C1675 C1691 1.429 . S
C1675 H1697 0.950 . S
C1676 H1672 0.949 . S
C1676 C1684 1.574 1_655 S
C1676 C1692 1.368 . S
H1677 C1685 0.950 . S
H1678 C1683 0.950 . S
H1679 C1684 0.949 . S
H1680 C1686 0.950 . S
H1681 C1687 0.950 . S
H1682 C1688 0.949 . S
C1683 H1678 0.950 . S
C1683 C1685 1.327 . S
C1683 C1689 1.429 . S
C1684 C1676 1.574 1_455 S
C1684 H1679 0.949 . S
C1684 C1690 1.368 . S
C1685 C1669 1.349 . S
C1685 H1677 0.950 . S
C1685 C1683 1.327 . S
C1686 C1674 1.349 . S
C1686 H1680 0.950 . S
C1686 C1687 1.327 . S
C1687 H1681 0.950 . S
C1687 C1686 1.327 . S
C1687 C1691 1.429 . S
C1688 C1671 1.584 . S
C1688 H1682 0.949 . S
C1688 C1692 1.368 . S
C1689 C1670 1.429 . S
C1689 C1683 1.429 . S
C1689 C1690 1.523 . S
C1690 C1671 1.350 1_455 S
C1690 C1684 1.368 . S
C1690 C1689 1.523 . S
C1691 C1675 1.429 . S
C1691 C1687 1.429 . S
C1691 C1692 1.523 . S
C1692 C1676 1.368 . S
C1692 C1688 1.368 . S
C1692 C1691 1.523 . S
H1693 C1668 0.950 . S
H1694 C1670 0.950 . S
H1695 C1671 0.957 1_455 S
H1696 C1673 0.950 . S
H1697 C1675 0.950 . S
C1698 C1699 1.349 . S
C1698 C1700 1.327 . S
C1698 H1723 0.950 . S
C1699 C1698 1.349 . S
C1699 C1715 1.349 . S
C1700 C1698 1.327 . S
C1700 C1719 1.429 . S
C1700 H1724 0.950 . S
C1701 C1718 1.574 . S
C1701 C1720 1.368 . S
C1701 H1725 0.949 . S
H1702 C1706 0.949 . S
C1703 C1704 1.349 . S
C1703 C1705 1.327 . S
C1703 H1726 0.950 . S
C1704 C1703 1.349 . S
C1704 C1716 1.349 . S
C1705 C1703 1.327 . S
C1705 C1721 1.429 . S
C1705 H1727 0.950 . S
C1706 H1702 0.949 . S
C1706 C1714 1.574 . S
C1706 C1722 1.368 . S
H1707 C1715 0.950 . S
H1708 C1713 0.950 . S
H1709 C1714 0.949 . S
H1710 C1716 0.950 . S
H1711 C1717 0.950 . S
H1712 C1718 0.949 . S
C1713 H1708 0.950 . S
C1713 C1715 1.327 . S
C1713 C1719 1.429 . S
C1714 C1706 1.574 . S
C1714 H1709 0.949 . S
C1714 C1720 1.368 . S
C1715 C1699 1.349 . S
C1715 H1707 0.950 . S
C1715 C1713 1.327 . S
C1716 C1704 1.349 . S
C1716 H1710 0.950 . S
C1716 C1717 1.327 . S
C1717 H1711 0.950 . S
C1717 C1716 1.327 . S
C1717 C1721 1.429 . S
C1718 C1701 1.574 . S
C1718 H1712 0.949 . S
C1718 C1722 1.368 . S
C1719 C1700 1.429 . S
C1719 C1713 1.429 . S
C1719 C1720 1.523 . S
C1720 C1701 1.368 . S
C1720 C1714 1.368 . S
C1720 C1719 1.523 . S
C1721 C1705 1.429 . S
C1721 C1717 1.429 . S
C1721 C1722 1.523 . S
C1722 C1706 1.368 . S
C1722 C1718 1.368 . S
C1722 C1721 1.523 . S
H1723 C1698 0.950 . S
H1724 C1700 0.950 . S
H1725 C1701 0.949 . S
H1726 C1703 0.950 . S
H1727 C1705 0.950 . S
C1728 C1729 1.349 . S
C1728 C1730 1.327 . S
C1728 H1753 0.950 . S
C1729 C1728 1.349 . S
C1729 C1745 1.349 . S
C1730 C1728 1.327 . S
C1730 C1749 1.429 . S
C1730 H1754 0.950 . S
C1731 C1748 1.574 . S
C1731 C1750 1.368 . S
C1731 H1755 0.949 . S
H1732 C1736 0.949 . S
C1733 C1734 1.349 . S
C1733 C1735 1.327 . S
C1733 H1756 0.950 . S
C1734 C1733 1.349 . S
C1734 C1746 1.349 . S
C1735 C1733 1.327 . S
C1735 C1751 1.429 . S
C1735 H1757 0.950 . S
C1736 H1732 0.949 . S
C1736 C1744 1.574 . S
C1736 C1752 1.368 . S
H1737 C1745 0.950 . S
H1738 C1743 0.950 . S
H1739 C1744 0.949 . S
H1740 C1746 0.950 . S
H1741 C1747 0.950 . S
H1742 C1748 0.949 . S
C1743 H1738 0.950 . S
C1743 C1745 1.327 . S
C1743 C1749 1.429 . S
C1744 C1736 1.574 . S
C1744 H1739 0.949 . S
C1744 C1750 1.368 . S
C1745 C1729 1.349 . S
C1745 H1737 0.950 . S
C1745 C1743 1.327 . S
C1746 C1734 1.349 . S
C1746 H1740 0.950 . S
C1746 C1747 1.327 . S
C1747 H1741 0.950 . S
C1747 C1746 1.327 . S
C1747 C1751 1.429 . S
C1748 C1731 1.574 . S
C1748 H1742 0.949 . S
C1748 C1752 1.368 . S
C1749 C1730 1.429 . S
C1749 C1743 1.429 . S
C1749 C1750 1.523 . S
C1750 C1731 1.368 . S
C1750 C1744 1.368 . S
C1750 C1749 1.523 . S
C1751 C1735 1.429 . S
C1751 C1747 1.429 . S
C1751 C1752 1.523 . S
C1752 C1736 1.368 . S
C1752 C1748 1.368 . S
C1752 C1751 1.523 . S
H1753 C1728 0.950 . S
H1754 C1730 0.950 . S
H1755 C1731 0.949 . S
H1756 C1733 0.950 . S
H1757 C1735 0.950 . S
C1758 C1759 1.349 . S
C1758 C1760 1.327 . S
C1758 H1783 0.950 . S
C1759 C1758 1.349 . S
C1759 C1775 1.349 . S
C1760 C1758 1.327 . S
C1760 C1779 1.429 . S
C1760 H1784 0.950 . S
C1761 C1778 1.574 . S
C1761 C1780 1.368 1_565 S
C1761 H1785 0.949 . S
H1762 C1766 0.949 . S
C1763 C1764 1.349 . S
C1763 C1765 1.327 . S
C1763 H1786 0.950 . S
C1764 C1763 1.349 . S
C1764 C1776 1.349 . S
C1765 C1763 1.327 . S
C1765 C1781 1.429 . S
C1765 H1787 0.950 . S
C1766 H1762 0.949 . S
C1766 C1774 1.574 . S
C1766 C1782 1.368 1_545 S
H1767 C1775 0.950 . S
H1768 C1773 0.950 . S
H1769 C1774 0.949 . S
H1770 C1776 0.950 . S
H1771 C1777 0.950 1_545 S
H1772 C1778 0.949 . S
C1773 H1768 0.950 . S
C1773 C1775 1.327 . S
C1773 C1779 1.429 . S
C1774 C1766 1.574 . S
C1774 H1769 0.949 . S
C1774 C1780 1.368 . S
C1775 C1759 1.349 . S
C1775 H1767 0.950 . S
C1775 C1773 1.327 . S
C1776 C1764 1.349 . S
C1776 H1770 0.950 . S
C1776 C1777 1.327 . S
C1777 H1771 0.950 1_565 S
C1777 C1776 1.327 . S
C1777 C1781 1.429 . S
C1778 C1761 1.574 . S
C1778 H1772 0.949 . S
C1778 C1782 1.368 . S
C1779 C1760 1.429 . S
C1779 C1773 1.429 . S
C1779 C1780 1.523 . S
C1780 C1761 1.368 1_545 S
C1780 C1774 1.368 . S
C1780 C1779 1.523 . S
C1781 C1765 1.429 . S
C1781 C1777 1.429 . S
C1781 C1782 1.523 . S
C1782 C1766 1.368 1_565 S
C1782 C1778 1.368 . S
C1782 C1781 1.523 . S
H1783 C1758 0.950 . S
H1784 C1760 0.950 . S
H1785 C1761 0.949 . S
H1786 C1763 0.950 . S
H1787 C1765 0.950 . S
C1788 C1789 1.349 . S
C1788 C1790 1.327 . S
C1788 H1813 0.950 . S
C1789 C1788 1.349 . S
C1789 C1805 1.349 . S
C1790 C1788 1.327 . S
C1790 C1809 1.429 . S
C1790 H1814 0.950 . S
C1791 C1808 1.574 . S
C1791 C1810 1.368 1_455 S
C1791 H1815 0.949 . S
H1792 C1796 0.949 . S
C1793 C1794 1.349 . S
C1793 C1795 1.327 . S
C1793 H1816 0.950 . S
C1794 C1793 1.349 . S
C1794 C1806 1.349 . S
C1795 C1793 1.327 . S
C1795 C1811 1.429 . S
C1795 H1817 0.950 . S
C1796 H1792 0.949 . S
C1796 C1804 1.574 . S
C1796 C1812 1.368 1_655 S
H1797 C1805 0.950 . S
H1798 C1803 0.958 . S
H1799 C1804 0.949 . S
H1800 C1806 0.950 . S
H1801 C1807 0.950 1_655 S
H1802 C1808 0.949 . S
C1803 H1798 0.958 . S
C1803 C1805 1.327 . S
C1803 C1809 1.429 . S
C1804 C1796 1.574 . S
C1804 H1799 0.949 . S
C1804 C1810 1.368 . S
C1805 C1789 1.349 . S
C1805 H1797 0.950 . S
C1805 C1803 1.327 . S
C1806 C1794 1.349 . S
C1806 H1800 0.950 . S
C1806 C1807 1.327 . S
C1807 H1801 0.950 1_455 S
C1807 C1806 1.327 . S
C1807 C1811 1.429 . S
C1808 C1791 1.574 . S
C1808 H1802 0.949 . S
C1808 C1812 1.368 . S
C1809 C1790 1.429 . S
C1809 C1803 1.429 . S
C1809 C1810 1.523 . S
C1810 C1791 1.368 1_655 S
C1810 C1804 1.368 . S
C1810 C1809 1.523 . S
C1811 C1795 1.429 . S
C1811 C1807 1.429 . S
C1811 C1812 1.523 . S
C1812 C1796 1.368 1_455 S
C1812 C1808 1.368 . S
C1812 C1811 1.523 . S
H1813 C1788 0.950 . S
H1814 C1790 0.950 . S
H1815 C1791 0.949 . S
H1816 C1793 0.950 . S
H1817 C1795 0.950 . S
C1818 C1819 1.349 . S
C1818 C1820 1.327 . S
C1818 H1843 0.950 . S
C1819 C1818 1.349 . S
C1819 C1835 1.349 . S
C1820 C1818 1.327 . S
C1820 C1839 1.429 . S
C1820 H1844 0.950 . S
C1821 C1838 1.574 . S
C1821 C1840 1.368 . S
C1821 H1845 0.949 . S
H1822 C1826 0.949 . S
C1823 C1824 1.349 . S
C1823 C1825 1.327 . S
C1823 H1846 0.950 . S
C1824 C1823 1.349 . S
C1824 C1836 1.349 . S
C1825 C1823 1.327 . S
C1825 C1841 1.429 . S
C1825 H1847 0.950 . S
C1826 H1822 0.949 . S
C1826 C1834 1.574 . S
C1826 C1842 1.368 . S
H1827 C1835 0.950 . S
H1828 C1833 0.950 . S
H1829 C1834 0.949 . S
H1830 C1836 0.950 . S
H1831 C1837 0.950 . S
H1832 C1838 0.949 . S
C1833 H1828 0.950 . S
C1833 C1835 1.327 . S
C1833 C1839 1.429 . S
C1834 C1826 1.574 . S
C1834 H1829 0.949 . S
C1834 C1840 1.368 . S
C1835 C1819 1.349 . S
C1835 H1827 0.950 . S
C1835 C1833 1.327 . S
C1836 C1824 1.349 . S
C1836 H1830 0.950 . S
C1836 C1837 1.327 . S
C1837 H1831 0.950 . S
C1837 C1836 1.327 . S
C1837 C1841 1.429 . S
C1838 C1821 1.574 . S
C1838 H1832 0.949 . S
C1838 C1842 1.368 . S
C1839 C1820 1.429 . S
C1839 C1833 1.429 . S
C1839 C1840 1.523 . S
C1840 C1821 1.368 . S
C1840 C1834 1.368 . S
C1840 C1839 1.523 . S
C1841 C1825 1.429 . S
C1841 C1837 1.429 . S
C1841 C1842 1.523 . S
C1842 C1826 1.368 . S
C1842 C1838 1.368 . S
C1842 C1841 1.523 . S
H1843 C1818 0.950 . S
H1844 C1820 0.950 . S
H1845 C1821 0.949 . S
H1846 C1823 0.950 . S
H1847 C1825 0.950 . S
C1848 C1849 1.349 . S
C1848 C1850 1.327 . S
C1848 H1873 0.950 . S
C1849 C1848 1.349 . S
C1849 C1865 1.349 . S
C1850 C1848 1.327 . S
C1850 C1869 1.429 . S
C1850 H1874 0.950 . S
C1851 C1868 1.574 . S
C1851 C1870 1.368 . S
C1851 H1875 0.949 . S
H1852 C1856 0.949 . S
C1853 C1854 1.349 . S
C1853 C1855 1.327 . S
C1853 H1876 0.950 . S
C1854 C1853 1.349 . S
C1854 C1866 1.349 . S
C1855 C1853 1.327 . S
C1855 C1871 1.429 . S
C1855 H1877 0.950 . S
C1856 H1852 0.949 . S
C1856 C1864 1.570 . S
C1856 C1872 1.368 . S
H1857 C1865 0.950 . S
H1858 C1863 0.950 . S
H1859 C1864 0.951 . S
H1860 C1866 0.950 . S
H1861 C1867 0.950 . S
H1862 C1868 0.949 . S
C1863 H1858 0.950 . S
C1863 C1865 1.327 . S
C1863 C1869 1.429 . S
C1864 C1856 1.570 . S
C1864 H1859 0.951 . S
C1864 C1870 1.370 1_545 S
C1865 C1849 1.349 . S
C1865 H1857 0.950 . S
C1865 C1863 1.327 . S
C1866 C1854 1.349 . S
C1866 H1860 0.950 . S
C1866 C1867 1.327 . S
C1867 H1861 0.950 . S
C1867 C1866 1.327 . S
C1867 C1871 1.429 . S
C1868 C1851 1.574 . S
C1868 H1862 0.949 . S
C1868 C1872 1.368 1_565 S
C1869 C1850 1.429 . S
C1869 C1863 1.429 . S
C1869 C1870 1.523 . S
C1870 C1851 1.368 . S
C1870 C1864 1.370 1_565 S
C1870 C1869 1.523 . S
C1871 C1855 1.429 . S
C1871 C1867 1.429 . S
C1871 C1872 1.523 . S
C1872 C1856 1.368 . S
C1872 C1868 1.368 1_545 S
C1872 C1871 1.523 . S
H1873 C1848 0.950 . S
H1874 C1850 0.950 . S
H1875 C1851 0.949 . S
H1876 C1853 0.950 . S
H1877 C1855 0.950 . S
C1878 C1879 1.349 . S
C1878 C1880 1.327 . S
C1878 H1903 0.950 . S
C1879 C1878 1.349 . S
C1879 C1895 1.349 . S
C1880 C1878 1.327 . S
C1880 C1899 1.429 . S
C1880 H1904 0.950 . S
C1881 C1898 1.574 . S
C1881 C1900 1.368 1_455 S
C1881 H1905 0.949 . S
H1882 C1886 0.957 . S
C1883 C1884 1.349 . S
C1883 C1885 1.327 . S
C1883 H1906 0.950 . S
C1884 C1883 1.349 . S
C1884 C1896 1.349 . S
C1885 C1883 1.327 . S
C1885 C1901 1.429 . S
C1885 H1907 0.950 . S
C1886 H1882 0.957 . S
C1886 C1894 1.574 . S
C1886 C1902 1.359 1_655 S
H1887 C1895 0.950 . S
H1888 C1893 0.950 . S
H1889 C1894 0.949 . S
H1890 C1896 0.950 . S
H1891 C1897 0.950 . S
H1892 C1898 0.949 . S
C1893 H1888 0.950 . S
C1893 C1895 1.327 . S
C1893 C1899 1.429 . S
C1894 C1886 1.574 . S
C1894 H1889 0.949 . S
C1894 C1900 1.368 . S
C1895 C1879 1.349 . S
C1895 H1887 0.950 . S
C1895 C1893 1.327 . S
C1896 C1884 1.349 . S
C1896 H1890 0.950 . S
C1896 C1897 1.327 . S
C1897 H1891 0.950 . S
C1897 C1896 1.327 . S
C1897 C1901 1.429 . S
C1898 C1881 1.574 . S
C1898 H1892 0.949 . S
C1898 C1902 1.368 . S
C1899 C1880 1.429 . S
C1899 C1893 1.429 . S
C1899 C1900 1.523 . S
C1900 C1881 1.368 1_655 S
C1900 C1894 1.368 . S
C1900 C1899 1.523 . S
C1901 C1885 1.429 . S
C1901 C1897 1.429 . S
C1901 C1902 1.523 . S
C1902 C1886 1.359 1_455 S
C1902 C1898 1.368 . S
C1902 C1901 1.523 . S
H1903 C1878 0.950 . S
H1904 C1880 0.950 . S
H1905 C1881 0.949 . S
H1906 C1883 0.950 . S
H1907 C1885 0.950 . S
C1908 C1909 1.349 . S
C1908 C1910 1.327 . S
C1908 H1933 0.950 . S
C1909 C1908 1.349 . S
C1909 C1925 1.349 . S
C1910 C1908 1.327 . S
C1910 C1929 1.429 . S
C1910 H1934 0.950 . S
C1911 C1928 1.574 . S
C1911 C1930 1.368 . S
C1911 H1935 0.949 . S
H1912 C1916 0.949 . S
C1913 C1914 1.349 . S
C1913 C1915 1.327 . S
C1913 H1936 0.950 . S
C1914 C1913 1.349 . S
C1914 C1926 1.349 . S
C1915 C1913 1.327 . S
C1915 C1931 1.429 . S
C1915 H1937 0.950 . S
C1916 H1912 0.949 . S
C1916 C1924 1.574 . S
C1916 C1932 1.368 . S
H1917 C1925 0.950 . S
H1918 C1923 0.950 . S
H1919 C1924 0.949 . S
H1920 C1926 0.950 . S
H1921 C1927 0.950 . S
H1922 C1928 0.949 . S
C1923 H1918 0.950 . S
C1923 C1925 1.327 . S
C1923 C1929 1.429 . S
C1924 C1916 1.574 . S
C1924 H1919 0.949 . S
C1924 C1930 1.368 . S
C1925 C1909 1.349 . S
C1925 H1917 0.950 . S
C1925 C1923 1.327 . S
C1926 C1914 1.349 . S
C1926 H1920 0.950 . S
C1926 C1927 1.327 . S
C1927 H1921 0.950 . S
C1927 C1926 1.327 . S
C1927 C1931 1.429 . S
C1928 C1911 1.574 . S
C1928 H1922 0.949 . S
C1928 C1932 1.368 . S
C1929 C1910 1.429 . S
C1929 C1923 1.429 . S
C1929 C1930 1.523 . S
C1930 C1911 1.368 . S
C1930 C1924 1.368 . S
C1930 C1929 1.523 . S
C1931 C1915 1.429 . S
C1931 C1927 1.429 . S
C1931 C1932 1.523 . S
C1932 C1916 1.368 . S
C1932 C1928 1.368 . S
C1932 C1931 1.523 . S
H1933 C1908 0.950 . S
H1934 C1910 0.950 . S
H1935 C1911 0.949 . S
H1936 C1913 0.950 . S
H1937 C1915 0.950 . S
C1938 C1939 1.349 . S
C1938 C1940 1.327 . S
C1938 H1963 0.950 . S
C1939 C1938 1.349 . S
C1939 C1955 1.349 . S
C1940 C1938 1.327 . S
C1940 C1959 1.429 . S
C1940 H1964 0.950 . S
C1941 C1958 1.574 . S
C1941 C1960 1.368 . S
C1941 H1965 0.949 . S
H1942 C1946 0.949 . S
C1943 C1944 1.349 . S
C1943 C1945 1.327 . S
C1943 H1966 0.950 . S
C1944 C1943 1.349 . S
C1944 C1956 1.349 . S
C1945 C1943 1.327 . S
C1945 C1961 1.429 . S
C1945 H1967 0.950 . S
C1946 H1942 0.949 . S
C1946 C1954 1.574 . S
C1946 C1962 1.368 . S
H1947 C1955 0.950 . S
H1948 C1953 0.950 . S
H1949 C1954 0.949 . S
H1950 C1956 0.950 . S
H1951 C1957 0.950 . S
H1952 C1958 0.949 . S
C1953 H1948 0.950 . S
C1953 C1955 1.327 . S
C1953 C1959 1.429 . S
C1954 C1946 1.574 . S
C1954 H1949 0.949 . S
C1954 C1960 1.368 1_545 S
C1955 C1939 1.349 . S
C1955 H1947 0.950 . S
C1955 C1953 1.327 . S
C1956 C1944 1.349 . S
C1956 H1950 0.950 . S
C1956 C1957 1.327 . S
C1957 H1951 0.950 . S
C1957 C1956 1.327 . S
C1957 C1961 1.429 . S
C1958 C1941 1.574 . S
C1958 H1952 0.949 . S
C1958 C1962 1.368 1_565 S
C1959 C1940 1.429 . S
C1959 C1953 1.429 . S
C1959 C1960 1.523 . S
C1960 C1941 1.368 . S
C1960 C1954 1.368 1_565 S
C1960 C1959 1.523 . S
C1961 C1945 1.429 . S
C1961 C1957 1.429 . S
C1961 C1962 1.523 . S
C1962 C1946 1.368 . S
C1962 C1958 1.368 1_545 S
C1962 C1961 1.523 . S
H1963 C1938 0.950 . S
H1964 C1940 0.950 . S
H1965 C1941 0.949 . S
H1966 C1943 0.950 . S
H1967 C1945 0.950 . S
C1968 C1969 1.349 . S
C1968 C1970 1.327 . S
C1968 H1993 0.950 . S
C1969 C1968 1.349 . S
C1969 C1985 1.349 . S
C1970 C1968 1.327 . S
C1970 C1989 1.429 . S
C1970 H1994 0.950 1_455 S
C1971 C1988 1.574 . S
C1971 C1990 1.368 . S
C1971 H1995 0.949 . S
H1972 C1976 0.949 . S
C1973 C1974 1.349 . S
C1973 C1975 1.327 . S
C1973 H1996 0.950 . S
C1974 C1973 1.349 . S
C1974 C1986 1.349 . S
C1975 C1973 1.327 . S
C1975 C1991 1.429 . S
C1975 H1997 0.950 1_655 S
C1976 H1972 0.949 . S
C1976 C1984 1.574 . S
C1976 C1992 1.368 . S
H1977 C1985 0.950 . S
H1978 C1983 0.950 . S
H1979 C1984 0.949 . S
H1980 C1986 0.950 . S
H1981 C1987 0.950 . S
H1982 C1988 0.949 . S
C1983 H1978 0.950 . S
C1983 C1985 1.327 . S
C1983 C1989 1.429 . S
C1984 C1976 1.574 . S
C1984 H1979 0.949 . S
C1984 C1990 1.368 1_655 S
C1985 C1969 1.349 . S
C1985 H1977 0.950 . S
C1985 C1983 1.327 . S
C1986 C1974 1.349 . S
C1986 H1980 0.950 . S
C1986 C1987 1.327 . S
C1987 H1981 0.950 . S
C1987 C1986 1.327 . S
C1987 C1991 1.429 . S
C1988 C1971 1.574 . S
C1988 H1982 0.949 . S
C1988 C1992 1.368 1_455 S
C1989 C1970 1.429 . S
C1989 C1983 1.429 . S
C1989 C1990 1.523 . S
C1990 C1971 1.368 . S
C1990 C1984 1.368 1_455 S
C1990 C1989 1.523 . S
C1991 C1975 1.429 . S
C1991 C1987 1.429 . S
C1991 C1992 1.523 . S
C1992 C1976 1.368 . S
C1992 C1988 1.368 1_655 S
C1992 C1991 1.523 . S
H1993 C1968 0.950 . S
H1994 C1970 0.950 1_655 S
H1995 C1971 0.949 . S
H1996 C1973 0.950 . S
H1997 C1975 0.950 1_455 S
C1998 C1999 1.349 . S
C1998 C2000 1.327 . S
C1998 H2023 0.950 . S
C1999 C1998 1.349 . S
C1999 C2015 1.349 . S
C2000 C1998 1.327 . S
C2000 C2019 1.429 . S
C2000 H2024 0.950 . S
C2001 C2018 1.574 . S
C2001 C2020 1.368 . S
C2001 H2025 0.949 . S
H2002 C2006 0.949 . S
C2003 C2004 1.349 . S
C2003 C2005 1.327 . S
C2003 H2026 0.950 . S
C2004 C2003 1.349 . S
C2004 C2016 1.349 . S
C2005 C2003 1.327 . S
C2005 C2021 1.429 . S
C2005 H2027 0.950 . S
C2006 H2002 0.949 . S
C2006 C2014 1.574 . S
C2006 C2022 1.368 . S
H2007 C2015 0.950 . S
H2008 C2013 0.950 . S
H2009 C2014 0.949 . S
H2010 C2016 0.950 . S
H2011 C2017 0.950 . S
H2012 C2018 0.949 . S
C2013 H2008 0.950 . S
C2013 C2015 1.327 . S
C2013 C2019 1.429 . S
C2014 C2006 1.574 . S
C2014 H2009 0.949 . S
C2014 C2020 1.368 . S
C2015 C1999 1.349 . S
C2015 H2007 0.950 . S
C2015 C2013 1.327 . S
C2016 C2004 1.349 . S
C2016 H2010 0.950 . S
C2016 C2017 1.327 . S
C2017 H2011 0.950 . S
C2017 C2016 1.327 . S
C2017 C2021 1.429 . S
C2018 C2001 1.574 . S
C2018 H2012 0.949 . S
C2018 C2022 1.368 . S
C2019 C2000 1.429 . S
C2019 C2013 1.429 . S
C2019 C2020 1.523 . S
C2020 C2001 1.368 . S
C2020 C2014 1.368 . S
C2020 C2019 1.523 . S
C2021 C2005 1.429 . S
C2021 C2017 1.429 . S
C2021 C2022 1.523 . S
C2022 C2006 1.368 . S
C2022 C2018 1.368 . S
C2022 C2021 1.523 . S
H2023 C1998 0.950 . S
H2024 C2000 0.950 . S
H2025 C2001 0.949 . S
H2026 C2003 0.950 . S
H2027 C2005 0.950 . S
C2028 C2029 1.349 . S
C2028 C2030 1.327 . S
C2028 H2053 0.950 . S
C2029 C2028 1.349 . S
C2029 C2045 1.349 . S
C2030 C2028 1.327 . S
C2030 C2049 1.429 . S
C2030 H2054 0.950 . S
C2031 C2048 1.574 1_565 S
C2031 C2050 1.368 . S
C2031 H2055 0.949 . S
H2032 C2036 0.949 . S
C2033 C2034 1.349 . S
C2033 C2035 1.327 . S
C2033 H2056 0.950 . S
C2034 C2033 1.349 . S
C2034 C2046 1.349 . S
C2035 C2033 1.327 . S
C2035 C2051 1.429 . S
C2035 H2057 0.950 . S
C2036 H2032 0.949 . S
C2036 C2044 1.574 1_545 S
C2036 C2052 1.368 . S
H2037 C2045 0.950 . S
H2038 C2043 0.950 . S
H2039 C2044 0.949 . S
H2040 C2046 0.950 . S
H2041 C2047 0.950 . S
H2042 C2048 0.949 . S
C2043 H2038 0.950 . S
C2043 C2045 1.327 . S
C2043 C2049 1.429 . S
C2044 C2036 1.574 1_565 S
C2044 H2039 0.949 . S
C2044 C2050 1.368 . S
C2045 C2029 1.349 . S
C2045 H2037 0.950 . S
C2045 C2043 1.327 . S
C2046 C2034 1.349 . S
C2046 H2040 0.950 . S
C2046 C2047 1.327 . S
C2047 H2041 0.950 . S
C2047 C2046 1.327 . S
C2047 C2051 1.429 . S
C2048 C2031 1.574 1_545 S
C2048 H2042 0.949 . S
C2048 C2052 1.368 . S
C2049 C2030 1.429 . S
C2049 C2043 1.429 . S
C2049 C2050 1.523 . S
C2050 C2031 1.368 . S
C2050 C2044 1.368 . S
C2050 C2049 1.523 . S
C2051 C2035 1.429 . S
C2051 C2047 1.429 . S
C2051 C2052 1.523 . S
C2052 C2036 1.368 . S
C2052 C2048 1.368 . S
C2052 C2051 1.523 . S
H2053 C2028 0.950 . S
H2054 C2030 0.950 . S
H2055 C2031 0.949 . S
H2056 C2033 0.950 . S
H2057 C2035 0.950 . S
C2058 C2059 1.349 . S
C2058 C2060 1.327 . S
C2058 H2083 0.950 . S
C2059 C2058 1.349 . S
C2059 C2075 1.349 . S
C2060 C2058 1.327 . S
C2060 C2079 1.429 . S
C2060 H2084 0.950 1_455 S
C2061 C2078 1.574 . S
C2061 C2080 1.368 . S
C2061 H2085 0.949 . S
H2062 C2066 0.949 . S
C2063 C2064 1.349 . S
C2063 C2065 1.327 . S
C2063 H2086 0.950 . S
C2064 C2063 1.349 . S
C2064 C2076 1.349 . S
C2065 C2063 1.327 . S
C2065 C2081 1.429 . S
C2065 H2087 0.950 . S
C2066 H2062 0.949 . S
C2066 C2074 1.574 . S
C2066 C2082 1.368 . S
H2067 C2075 0.950 . S
H2068 C2073 0.950 . S
H2069 C2074 0.949 . S
H2070 C2076 0.950 . S
H2071 C2077 0.950 . S
H2072 C2078 0.949 . S
C2073 H2068 0.950 . S
C2073 C2075 1.327 . S
C2073 C2079 1.429 . S
C2074 C2066 1.574 . S
C2074 H2069 0.949 . S
C2074 C2080 1.368 1_655 S
C2075 C2059 1.349 . S
C2075 H2067 0.950 . S
C2075 C2073 1.327 . S
C2076 C2064 1.349 . S
C2076 H2070 0.950 . S
C2076 C2077 1.327 . S
C2077 H2071 0.950 . S
C2077 C2076 1.327 . S
C2077 C2081 1.429 . S
C2078 C2061 1.574 . S
C2078 H2072 0.949 . S
C2078 C2082 1.368 1_455 S
C2079 C2060 1.429 . S
C2079 C2073 1.429 . S
C2079 C2080 1.523 . S
C2080 C2061 1.368 . S
C2080 C2074 1.368 1_455 S
C2080 C2079 1.523 . S
C2081 C2065 1.429 . S
C2081 C2077 1.429 . S
C2081 C2082 1.523 . S
C2082 C2066 1.368 . S
C2082 C2078 1.368 1_655 S
C2082 C2081 1.523 . S
H2083 C2058 0.950 . S
H2084 C2060 0.950 1_655 S
H2085 C2061 0.949 . S
H2086 C2063 0.950 . S
H2087 C2065 0.950 . S
C2088 C2089 1.349 . S
C2088 C2090 1.327 . S
C2088 H2113 0.950 . S
C2089 C2088 1.349 . S
C2089 C2105 1.349 . S
C2090 C2088 1.327 . S
C2090 C2109 1.429 . S
C2090 H2114 0.950 . S
C2091 C2108 1.574 1_655 S
C2091 C2110 1.368 . S
C2091 H2115 0.949 . S
H2092 C2096 0.949 . S
C2093 C2094 1.349 . S
C2093 C2095 1.327 . S
C2093 H2116 0.950 . S
C2094 C2093 1.349 . S
C2094 C2106 1.349 . S
C2095 C2093 1.327 . S
C2095 C2111 1.429 . S
C2095 H2117 0.950 . S
C2096 H2092 0.949 . S
C2096 C2104 1.574 1_455 S
C2096 C2112 1.368 . S
H2097 C2105 0.950 . S
H2098 C2103 0.950 . S
H2099 C2104 0.949 . S
H2100 C2106 0.950 . S
H2101 C2107 0.950 . S
H2102 C2108 0.949 . S
C2103 H2098 0.950 . S
C2103 C2105 1.327 . S
C2103 C2109 1.429 . S
C2104 C2096 1.574 1_655 S
C2104 H2099 0.949 . S
C2104 C2110 1.368 . S
C2105 C2089 1.349 . S
C2105 H2097 0.950 . S
C2105 C2103 1.327 . S
C2106 C2094 1.349 . S
C2106 H2100 0.950 . S
C2106 C2107 1.327 . S
C2107 H2101 0.950 . S
C2107 C2106 1.327 . S
C2107 C2111 1.429 . S
C2108 C2091 1.574 1_455 S
C2108 H2102 0.949 . S
C2108 C2112 1.368 . S
C2109 C2090 1.429 . S
C2109 C2103 1.429 . S
C2109 C2110 1.523 . S
C2110 C2091 1.368 . S
C2110 C2104 1.368 . S
C2110 C2109 1.523 . S
C2111 C2095 1.429 . S
C2111 C2107 1.429 . S
C2111 C2112 1.523 . S
C2112 C2096 1.368 . S
C2112 C2108 1.368 . S
C2112 C2111 1.523 . S
H2113 C2088 0.950 . S
H2114 C2090 0.950 . S
H2115 C2091 0.949 . S
H2116 C2093 0.950 . S
H2117 C2095 0.950 . S
C2118 C2119 1.349 . S
C2118 C2120 1.327 . S
C2118 H2143 0.950 . S
C2119 C2118 1.349 . S
C2119 C2135 1.349 . S
C2120 C2118 1.327 . S
C2120 C2139 1.429 . S
C2120 H2144 0.950 . S
C2121 C2138 1.574 . S
C2121 C2140 1.368 . S
C2121 H2145 0.949 . S
H2122 C2126 0.949 . S
C2123 C2124 1.349 . S
C2123 C2125 1.327 . S
C2123 H2146 0.950 . S
C2124 C2123 1.349 . S
C2124 C2136 1.349 . S
C2125 C2123 1.327 . S
C2125 C2141 1.429 . S
C2125 H2147 0.950 . S
C2126 H2122 0.949 . S
C2126 C2134 1.574 . S
C2126 C2142 1.368 . S
H2127 C2135 0.950 . S
H2128 C2133 0.950 . S
H2129 C2134 0.949 . S
H2130 C2136 0.950 . S
H2131 C2137 0.950 . S
H2132 C2138 0.949 . S
C2133 H2128 0.950 . S
C2133 C2135 1.327 . S
C2133 C2139 1.429 . S
C2134 C2126 1.574 . S
C2134 H2129 0.949 . S
C2134 C2140 1.368 . S
C2135 C2119 1.349 . S
C2135 H2127 0.950 . S
C2135 C2133 1.327 . S
C2136 C2124 1.349 . S
C2136 H2130 0.950 . S
C2136 C2137 1.327 . S
C2137 H2131 0.950 . S
C2137 C2136 1.327 . S
C2137 C2141 1.429 . S
C2138 C2121 1.574 . S
C2138 H2132 0.949 . S
C2138 C2142 1.368 . S
C2139 C2120 1.429 . S
C2139 C2133 1.429 . S
C2139 C2140 1.523 . S
C2140 C2121 1.368 . S
C2140 C2134 1.368 . S
C2140 C2139 1.523 . S
C2141 C2125 1.429 . S
C2141 C2137 1.429 . S
C2141 C2142 1.523 . S
C2142 C2126 1.368 . S
C2142 C2138 1.368 . S
C2142 C2141 1.523 . S
H2143 C2118 0.950 . S
H2144 C2120 0.950 . S
H2145 C2121 0.949 . S
H2146 C2123 0.950 . S
H2147 C2125 0.950 . S
C2148 C2149 1.349 . S
C2148 C2150 1.327 . S
C2148 H2173 0.950 . S
C2149 C2148 1.349 . S
C2149 C2165 1.349 . S
C2150 C2148 1.327 . S
C2150 C2169 1.429 . S
C2150 H2174 0.950 . S
C2151 C2168 1.574 1_545 S
C2151 C2170 1.368 . S
C2151 H2175 0.949 . S
H2152 C2156 0.949 . S
C2153 C2154 1.349 . S
C2153 C2155 1.327 . S
C2153 H2176 0.950 . S
C2154 C2153 1.349 . S
C2154 C2166 1.349 . S
C2155 C2153 1.327 . S
C2155 C2171 1.429 . S
C2155 H2177 0.950 . S
C2156 H2152 0.949 . S
C2156 C2164 1.574 1_565 S
C2156 C2172 1.368 . S
H2157 C2165 0.950 . S
H2158 C2163 0.950 . S
H2159 C2164 0.949 . S
H2160 C2166 0.950 . S
H2161 C2167 0.950 . S
H2162 C2168 0.949 . S
C2163 H2158 0.950 . S
C2163 C2165 1.327 . S
C2163 C2169 1.429 . S
C2164 C2156 1.574 1_545 S
C2164 H2159 0.949 . S
C2164 C2170 1.368 . S
C2165 C2149 1.349 . S
C2165 H2157 0.950 . S
C2165 C2163 1.327 . S
C2166 C2154 1.349 . S
C2166 H2160 0.950 . S
C2166 C2167 1.327 . S
C2167 H2161 0.950 . S
C2167 C2166 1.327 . S
C2167 C2171 1.429 . S
C2168 C2151 1.574 1_565 S
C2168 H2162 0.949 . S
C2168 C2172 1.368 . S
C2169 C2150 1.429 . S
C2169 C2163 1.429 . S
C2169 C2170 1.523 . S
C2170 C2151 1.368 . S
C2170 C2164 1.368 . S
C2170 C2169 1.523 . S
C2171 C2155 1.429 . S
C2171 C2167 1.429 . S
C2171 C2172 1.523 . S
C2172 C2156 1.368 . S
C2172 C2168 1.368 . S
C2172 C2171 1.523 . S
H2173 C2148 0.950 . S
H2174 C2150 0.950 . S
H2175 C2151 0.949 . S
H2176 C2153 0.950 . S
H2177 C2155 0.950 . S
C2178 C2179 1.349 . S
C2178 C2180 1.327 . S
C2178 H2203 0.950 . S
C2179 C2178 1.349 . S
C2179 C2195 1.349 . S
C2180 C2178 1.327 . S
C2180 C2199 1.429 . S
C2180 H2204 0.950 . S
C2181 C2198 1.574 1_545 S
C2181 C2200 1.368 . S
C2181 H2205 0.949 . S
H2182 C2186 0.949 . S
C2183 C2184 1.349 . S
C2183 C2185 1.327 . S
C2183 H2206 0.950 . S
C2184 C2183 1.349 . S
C2184 C2196 1.349 . S
C2185 C2183 1.327 . S
C2185 C2201 1.429 . S
C2185 H2207 0.950 . S
C2186 H2182 0.949 . S
C2186 C2194 1.574 1_565 S
C2186 C2202 1.368 . S
H2187 C2195 0.950 . S
H2188 C2193 0.950 . S
H2189 C2194 0.949 . S
H2190 C2196 0.950 . S
H2191 C2197 0.950 . S
H2192 C2198 0.949 . S
C2193 H2188 0.950 . S
C2193 C2195 1.327 . S
C2193 C2199 1.429 . S
C2194 C2186 1.574 1_545 S
C2194 H2189 0.949 . S
C2194 C2200 1.368 . S
C2195 C2179 1.349 . S
C2195 H2187 0.950 . S
C2195 C2193 1.327 . S
C2196 C2184 1.349 . S
C2196 H2190 0.950 . S
C2196 C2197 1.327 . S
C2197 H2191 0.950 . S
C2197 C2196 1.327 . S
C2197 C2201 1.429 . S
C2198 C2181 1.574 1_565 S
C2198 H2192 0.949 . S
C2198 C2202 1.368 . S
C2199 C2180 1.429 . S
C2199 C2193 1.429 . S
C2199 C2200 1.523 . S
C2200 C2181 1.368 . S
C2200 C2194 1.368 . S
C2200 C2199 1.523 . S
C2201 C2185 1.429 . S
C2201 C2197 1.429 . S
C2201 C2202 1.523 . S
C2202 C2186 1.368 . S
C2202 C2198 1.368 . S
C2202 C2201 1.523 . S
H2203 C2178 0.950 . S
H2204 C2180 0.950 . S
H2205 C2181 0.949 . S
H2206 C2183 0.950 . S
H2207 C2185 0.950 . S
C2208 C2209 1.349 . S
C2208 C2210 1.327 . S
C2208 H2233 0.950 . S
C2209 C2208 1.349 . S
C2209 C2225 1.349 . S
C2210 C2208 1.327 . S
C2210 C2229 1.429 . S
C2210 H2234 0.950 . S
C2211 C2228 1.574 1_455 S
C2211 C2230 1.368 . S
C2211 H2235 0.949 . S
H2212 C2216 0.949 . S
C2213 C2214 1.349 . S
C2213 C2215 1.327 . S
C2213 H2236 0.950 . S
C2214 C2213 1.349 . S
C2214 C2226 1.349 . S
C2215 C2213 1.327 . S
C2215 C2231 1.429 . S
C2215 H2237 0.950 . S
C2216 H2212 0.949 . S
C2216 C2224 1.574 1_655 S
C2216 C2232 1.368 . S
H2217 C2225 0.950 . S
H2218 C2223 0.950 . S
H2219 C2224 0.949 . S
H2220 C2226 0.950 . S
H2221 C2227 0.950 . S
H2222 C2228 0.949 . S
C2223 H2218 0.950 . S
C2223 C2225 1.327 . S
C2223 C2229 1.429 . S
C2224 C2216 1.574 1_455 S
C2224 H2219 0.949 . S
C2224 C2230 1.368 . S
C2225 C2209 1.349 . S
C2225 H2217 0.950 . S
C2225 C2223 1.327 . S
C2226 C2214 1.349 . S
C2226 H2220 0.950 . S
C2226 C2227 1.327 . S
C2227 H2221 0.950 . S
C2227 C2226 1.327 . S
C2227 C2231 1.429 . S
C2228 C2211 1.574 1_655 S
C2228 H2222 0.949 . S
C2228 C2232 1.368 . S
C2229 C2210 1.429 . S
C2229 C2223 1.429 . S
C2229 C2230 1.523 . S
C2230 C2211 1.368 . S
C2230 C2224 1.368 . S
C2230 C2229 1.523 . S
C2231 C2215 1.429 . S
C2231 C2227 1.429 . S
C2231 C2232 1.523 . S
C2232 C2216 1.368 . S
C2232 C2228 1.368 . S
C2232 C2231 1.523 . S
H2233 C2208 0.950 . S
H2234 C2210 0.950 . S
H2235 C2211 0.949 . S
H2236 C2213 0.950 . S
H2237 C2215 0.950 . S
C2238 C2239 1.349 . S
C2238 C2240 1.327 . S
C2238 H2263 0.950 . S
C2239 C2238 1.349 . S
C2239 C2255 1.349 . S
C2240 C2238 1.327 . S
C2240 C2259 1.429 . S
C2240 H2264 0.950 . S
C2241 C2258 1.574 . S
C2241 C2260 1.368 . S
C2241 H2265 0.949 . S
H2242 C2246 0.949 . S
C2243 C2244 1.349 . S
C2243 C2245 1.327 . S
C2243 H2266 0.950 . S
C2244 C2243 1.349 . S
C2244 C2256 1.349 . S
C2245 C2243 1.327 . S
C2245 C2261 1.429 . S
C2245 H2267 0.950 . S
C2246 H2242 0.949 . S
C2246 C2254 1.574 . S
C2246 C2262 1.368 . S
H2247 C2255 0.950 . S
H2248 C2253 0.950 . S
H2249 C2254 0.949 . S
H2250 C2256 0.950 . S
H2251 C2257 0.950 . S
H2252 C2258 0.949 . S
C2253 H2248 0.950 . S
C2253 C2255 1.327 . S
C2253 C2259 1.429 . S
C2254 C2246 1.574 . S
C2254 H2249 0.949 . S
C2254 C2260 1.368 . S
C2255 C2239 1.349 . S
C2255 H2247 0.950 . S
C2255 C2253 1.327 . S
C2256 C2244 1.349 . S
C2256 H2250 0.950 . S
C2256 C2257 1.327 . S
C2257 H2251 0.950 . S
C2257 C2256 1.327 . S
C2257 C2261 1.429 . S
C2258 C2241 1.574 . S
C2258 H2252 0.949 . S
C2258 C2262 1.368 . S
C2259 C2240 1.429 . S
C2259 C2253 1.429 . S
C2259 C2260 1.523 . S
C2260 C2241 1.368 . S
C2260 C2254 1.368 . S
C2260 C2259 1.523 . S
C2261 C2245 1.429 . S
C2261 C2257 1.429 . S
C2261 C2262 1.523 . S
C2262 C2246 1.368 . S
C2262 C2258 1.368 . S
C2262 C2261 1.523 . S
H2263 C2238 0.950 . S
H2264 C2240 0.950 . S
H2265 C2241 0.949 . S
H2266 C2243 0.950 . S
H2267 C2245 0.950 . S
C2268 C2269 1.349 . S
C2268 C2270 1.327 . S
C2268 H2293 0.950 . S
C2269 C2268 1.349 . S
C2269 C2285 1.349 . S
C2270 C2268 1.327 . S
C2270 C2289 1.429 . S
C2270 H2294 0.950 . S
C2271 C2288 1.574 . S
C2271 C2290 1.368 . S
C2271 H2295 0.949 . S
H2272 C2276 0.949 . S
C2273 C2274 1.349 . S
C2273 C2275 1.327 . S
C2273 H2296 0.950 . S
C2274 C2273 1.349 . S
C2274 C2286 1.349 . S
C2275 C2273 1.327 . S
C2275 C2291 1.429 . S
C2275 H2297 0.950 . S
C2276 H2272 0.949 . S
C2276 C2284 1.574 . S
C2276 C2292 1.368 . S
H2277 C2285 0.950 . S
H2278 C2283 0.950 . S
H2279 C2284 0.949 . S
H2280 C2286 0.950 . S
H2281 C2287 0.950 . S
H2282 C2288 0.949 . S
C2283 H2278 0.950 . S
C2283 C2285 1.327 . S
C2283 C2289 1.429 . S
C2284 C2276 1.574 . S
C2284 H2279 0.949 . S
C2284 C2290 1.368 . S
C2285 C2269 1.349 . S
C2285 H2277 0.950 . S
C2285 C2283 1.327 . S
C2286 C2274 1.349 . S
C2286 H2280 0.950 . S
C2286 C2287 1.327 . S
C2287 H2281 0.950 . S
C2287 C2286 1.327 . S
C2287 C2291 1.429 . S
C2288 C2271 1.574 . S
C2288 H2282 0.949 . S
C2288 C2292 1.368 . S
C2289 C2270 1.429 . S
C2289 C2283 1.429 . S
C2289 C2290 1.523 . S
C2290 C2271 1.368 . S
C2290 C2284 1.368 . S
C2290 C2289 1.523 . S
C2291 C2275 1.429 . S
C2291 C2287 1.429 . S
C2291 C2292 1.523 . S
C2292 C2276 1.368 . S
C2292 C2288 1.368 . S
C2292 C2291 1.523 . S
H2293 C2268 0.950 . S
H2294 C2270 0.950 . S
H2295 C2271 0.949 . S
H2296 C2273 0.950 . S
H2297 C2275 0.950 . S
C2298 C2299 1.349 . S
C2298 C2300 1.327 . S
C2298 H2323 0.950 . S
C2299 C2298 1.349 . S
C2299 C2315 1.349 . S
C2300 C2298 1.327 . S
C2300 C2319 1.429 . S
C2300 H2324 0.950 . S
C2301 C2318 1.574 . S
C2301 C2320 1.368 . S
C2301 H2325 0.949 . S
H2302 C2306 0.949 . S
C2303 C2304 1.349 . S
C2303 C2305 1.327 . S
C2303 H2326 0.950 . S
C2304 C2303 1.349 . S
C2304 C2316 1.349 . S
C2305 C2303 1.327 . S
C2305 C2321 1.429 . S
C2305 H2327 0.950 . S
C2306 H2302 0.949 . S
C2306 C2314 1.574 . S
C2306 C2322 1.368 . S
H2307 C2315 0.950 . S
H2308 C2313 0.950 . S
H2309 C2314 0.949 . S
H2310 C2316 0.950 . S
H2311 C2317 0.950 . S
H2312 C2318 0.949 . S
C2313 H2308 0.950 . S
C2313 C2315 1.327 . S
C2313 C2319 1.429 . S
C2314 C2306 1.574 . S
C2314 H2309 0.949 . S
C2314 C2320 1.368 . S
C2315 C2299 1.349 . S
C2315 H2307 0.950 . S
C2315 C2313 1.327 . S
C2316 C2304 1.349 . S
C2316 H2310 0.950 . S
C2316 C2317 1.327 . S
C2317 H2311 0.950 . S
C2317 C2316 1.327 . S
C2317 C2321 1.429 . S
C2318 C2301 1.574 . S
C2318 H2312 0.949 . S
C2318 C2322 1.368 . S
C2319 C2300 1.429 . S
C2319 C2313 1.429 . S
C2319 C2320 1.523 . S
C2320 C2301 1.368 . S
C2320 C2314 1.368 . S
C2320 C2319 1.523 . S
C2321 C2305 1.429 . S
C2321 C2317 1.429 . S
C2321 C2322 1.523 . S
C2322 C2306 1.368 . S
C2322 C2318 1.368 . S
C2322 C2321 1.523 . S
H2323 C2298 0.950 . S
H2324 C2300 0.950 . S
H2325 C2301 0.949 . S
H2326 C2303 0.950 . S
H2327 C2305 0.950 . S
C2328 C2329 1.349 . S
C2328 C2330 1.327 . S
C2328 H2353 0.950 . S
C2329 C2328 1.349 . S
C2329 C2345 1.349 . S
C2330 C2328 1.327 . S
C2330 C2349 1.429 . S
C2330 H2354 0.950 . S
C2331 C2348 1.574 . S
C2331 C2350 1.368 . S
C2331 H2355 0.949 . S
H2332 C2336 0.949 . S
C2333 C2334 1.349 . S
C2333 C2335 1.327 . S
C2333 H2356 0.950 . S
C2334 C2333 1.349 . S
C2334 C2346 1.349 . S
C2335 C2333 1.327 . S
C2335 C2351 1.429 . S
C2335 H2357 0.950 . S
C2336 H2332 0.949 . S
C2336 C2344 1.574 . S
C2336 C2352 1.368 . S
H2337 C2345 0.950 . S
H2338 C2343 0.950 . S
H2339 C2344 0.949 . S
H2340 C2346 0.950 . S
H2341 C2347 0.950 . S
H2342 C2348 0.949 . S
C2343 H2338 0.950 . S
C2343 C2345 1.327 . S
C2343 C2349 1.429 . S
C2344 C2336 1.574 . S
C2344 H2339 0.949 . S
C2344 C2350 1.368 . S
C2345 C2329 1.349 . S
C2345 H2337 0.950 . S
C2345 C2343 1.327 . S
C2346 C2334 1.349 . S
C2346 H2340 0.950 . S
C2346 C2347 1.327 . S
C2347 H2341 0.950 . S
C2347 C2346 1.327 . S
C2347 C2351 1.429 . S
C2348 C2331 1.574 . S
C2348 H2342 0.949 . S
C2348 C2352 1.368 . S
C2349 C2330 1.429 . S
C2349 C2343 1.429 . S
C2349 C2350 1.523 . S
C2350 C2331 1.368 . S
C2350 C2344 1.368 . S
C2350 C2349 1.523 . S
C2351 C2335 1.429 . S
C2351 C2347 1.429 . S
C2351 C2352 1.523 . S
C2352 C2336 1.368 . S
C2352 C2348 1.368 . S
C2352 C2351 1.523 . S
H2353 C2328 0.950 . S
H2354 C2330 0.950 . S
H2355 C2331 0.949 . S
H2356 C2333 0.950 . S
H2357 C2335 0.950 . S
C2358 C2359 1.349 . S
C2358 C2360 1.327 . S
C2358 H2383 0.950 . S
C2359 C2358 1.349 . S
C2359 C2375 1.349 . S
C2360 C2358 1.327 . S
C2360 C2379 1.429 . S
C2360 H2384 0.950 . S
C2361 C2378 1.574 . S
C2361 C2380 1.368 . S
C2361 H2385 0.949 . S
H2362 C2366 0.949 . S
C2363 C2364 1.349 . S
C2363 C2365 1.327 . S
C2363 H2386 0.950 . S
C2364 C2363 1.349 . S
C2364 C2376 1.349 . S
C2365 C2363 1.327 . S
C2365 C2381 1.429 . S
C2365 H2387 0.950 . S
C2366 H2362 0.949 . S
C2366 C2374 1.574 . S
C2366 C2382 1.368 . S
H2367 C2375 0.950 . S
H2368 C2373 0.950 . S
H2369 C2374 0.949 . S
H2370 C2376 0.950 . S
H2371 C2377 0.950 . S
H2372 C2378 0.949 . S
C2373 H2368 0.950 . S
C2373 C2375 1.327 . S
C2373 C2379 1.429 . S
C2374 C2366 1.574 . S
C2374 H2369 0.949 . S
C2374 C2380 1.368 . S
C2375 C2359 1.349 . S
C2375 H2367 0.950 . S
C2375 C2373 1.327 . S
C2376 C2364 1.349 . S
C2376 H2370 0.950 . S
C2376 C2377 1.327 . S
C2377 H2371 0.950 . S
C2377 C2376 1.327 . S
C2377 C2381 1.429 . S
C2378 C2361 1.574 . S
C2378 H2372 0.949 . S
C2378 C2382 1.368 . S
C2379 C2360 1.429 . S
C2379 C2373 1.429 . S
C2379 C2380 1.523 . S
C2380 C2361 1.368 . S
C2380 C2374 1.368 . S
C2380 C2379 1.523 . S
C2381 C2365 1.429 . S
C2381 C2377 1.429 . S
C2381 C2382 1.523 . S
C2382 C2366 1.368 . S
C2382 C2378 1.368 . S
C2382 C2381 1.523 . S
H2383 C2358 0.950 . S
H2384 C2360 0.950 . S
H2385 C2361 0.949 . S
H2386 C2363 0.950 . S
H2387 C2365 0.950 . S
C2388 C2389 1.349 . S
C2388 C2390 1.327 . S
C2388 H2413 0.950 . S
C2389 C2388 1.349 . S
C2389 C2405 1.349 . S
C2390 C2388 1.327 . S
C2390 C2409 1.429 . S
C2390 H2414 0.950 . S
C2391 C2408 1.574 . S
C2391 C2410 1.368 . S
C2391 H2415 0.949 . S
H2392 C2396 0.949 . S
C2393 C2394 1.349 . S
C2393 C2395 1.327 . S
C2393 H2416 0.950 . S
C2394 C2393 1.349 . S
C2394 C2406 1.349 . S
C2395 C2393 1.327 . S
C2395 C2411 1.429 . S
C2395 H2417 0.950 . S
C2396 H2392 0.949 . S
C2396 C2404 1.574 . S
C2396 C2412 1.368 . S
H2397 C2405 0.950 . S
H2398 C2403 0.950 . S
H2399 C2404 0.949 . S
H2400 C2406 0.950 . S
H2401 C2407 0.950 . S
H2402 C2408 0.949 . S
C2403 H2398 0.950 . S
C2403 C2405 1.327 . S
C2403 C2409 1.429 . S
C2404 C2396 1.574 . S
C2404 H2399 0.949 . S
C2404 C2410 1.368 . S
C2405 C2389 1.349 . S
C2405 H2397 0.950 . S
C2405 C2403 1.327 . S
C2406 C2394 1.349 . S
C2406 H2400 0.950 . S
C2406 C2407 1.327 . S
C2407 H2401 0.950 . S
C2407 C2406 1.327 . S
C2407 C2411 1.429 . S
C2408 C2391 1.574 . S
C2408 H2402 0.949 . S
C2408 C2412 1.368 . S
C2409 C2390 1.429 . S
C2409 C2403 1.429 . S
C2409 C2410 1.523 . S
C2410 C2391 1.368 . S
C2410 C2404 1.368 . S
C2410 C2409 1.523 . S
C2411 C2395 1.429 . S
C2411 C2407 1.429 . S
C2411 C2412 1.523 . S
C2412 C2396 1.368 . S
C2412 C2408 1.368 . S
C2412 C2411 1.523 . S
H2413 C2388 0.950 . S
H2414 C2390 0.950 . S
H2415 C2391 0.949 . S
H2416 C2393 0.950 . S
H2417 C2395 0.950 . S
C2418 C2419 1.349 . S
C2418 C2420 1.327 . S
C2418 H2443 0.950 . S
C2419 C2418 1.349 . S
C2419 C2435 1.349 . S
C2420 C2418 1.327 . S
C2420 C2439 1.429 . S
C2420 H2444 0.950 . S
C2421 C2438 1.574 . S
C2421 C2440 1.368 . S
C2421 H2445 0.949 . S
H2422 C2426 0.949 . S
C2423 C2424 1.349 . S
C2423 C2425 1.327 . S
C2423 H2446 0.950 . S
C2424 C2423 1.349 . S
C2424 C2436 1.349 . S
C2425 C2423 1.327 . S
C2425 C2441 1.429 . S
C2425 H2447 0.950 . S
C2426 H2422 0.949 . S
C2426 C2434 1.574 . S
C2426 C2442 1.368 . S
H2427 C2435 0.950 . S
H2428 C2433 0.950 . S
H2429 C2434 0.949 . S
H2430 C2436 0.950 . S
H2431 C2437 0.950 . S
H2432 C2438 0.949 . S
C2433 H2428 0.950 . S
C2433 C2435 1.327 . S
C2433 C2439 1.429 . S
C2434 C2426 1.574 . S
C2434 H2429 0.949 . S
C2434 C2440 1.368 . S
C2435 C2419 1.349 . S
C2435 H2427 0.950 . S
C2435 C2433 1.327 . S
C2436 C2424 1.349 . S
C2436 H2430 0.950 . S
C2436 C2437 1.327 . S
C2437 H2431 0.950 . S
C2437 C2436 1.327 . S
C2437 C2441 1.429 . S
C2438 C2421 1.574 . S
C2438 H2432 0.949 . S
C2438 C2442 1.368 . S
C2439 C2420 1.429 . S
C2439 C2433 1.429 . S
C2439 C2440 1.523 . S
C2440 C2421 1.368 . S
C2440 C2434 1.368 . S
C2440 C2439 1.523 . S
C2441 C2425 1.429 . S
C2441 C2437 1.429 . S
C2441 C2442 1.523 . S
C2442 C2426 1.368 . S
C2442 C2438 1.368 . S
C2442 C2441 1.523 . S
H2443 C2418 0.950 . S
H2444 C2420 0.950 . S
H2445 C2421 0.949 . S
H2446 C2423 0.950 . S
H2447 C2425 0.950 . S
C2448 C2449 1.349 . S
C2448 C2450 1.327 . S
C2448 H2473 0.950 . S
C2449 C2448 1.349 . S
C2449 C2465 1.349 . S
C2450 C2448 1.327 . S
C2450 C2469 1.429 . S
C2450 H2474 0.950 . S
C2451 C2468 1.574 . S
C2451 C2470 1.368 . S
C2451 H2475 0.949 . S
H2452 C2456 0.949 . S
C2453 C2454 1.349 . S
C2453 C2455 1.327 . S
C2453 H2476 0.950 . S
C2454 C2453 1.349 . S
C2454 C2466 1.349 . S
C2455 C2453 1.327 . S
C2455 C2471 1.429 . S
C2455 H2477 0.950 . S
C2456 H2452 0.949 . S
C2456 C2464 1.574 . S
C2456 C2472 1.368 . S
H2457 C2465 0.950 . S
H2458 C2463 0.950 . S
H2459 C2464 0.949 . S
H2460 C2466 0.950 . S
H2461 C2467 0.950 . S
H2462 C2468 0.949 . S
C2463 H2458 0.950 . S
C2463 C2465 1.327 . S
C2463 C2469 1.429 . S
C2464 C2456 1.574 . S
C2464 H2459 0.949 . S
C2464 C2470 1.368 . S
C2465 C2449 1.349 . S
C2465 H2457 0.950 . S
C2465 C2463 1.327 . S
C2466 C2454 1.349 . S
C2466 H2460 0.950 . S
C2466 C2467 1.327 . S
C2467 H2461 0.950 . S
C2467 C2466 1.327 . S
C2467 C2471 1.429 . S
C2468 C2451 1.574 . S
C2468 H2462 0.949 . S
C2468 C2472 1.368 . S
C2469 C2450 1.429 . S
C2469 C2463 1.429 . S
C2469 C2470 1.523 . S
C2470 C2451 1.368 . S
C2470 C2464 1.368 . S
C2470 C2469 1.523 . S
C2471 C2455 1.429 . S
C2471 C2467 1.429 . S
C2471 C2472 1.523 . S
C2472 C2456 1.368 . S
C2472 C2468 1.368 . S
C2472 C2471 1.523 . S
H2473 C2448 0.950 . S
H2474 C2450 0.950 . S
H2475 C2451 0.949 . S
H2476 C2453 0.950 . S
H2477 C2455 0.950 . S
C2478 C2479 1.349 . S
C2478 C2480 1.327 . S
C2478 H2503 0.950 . S
C2479 C2478 1.349 . S
C2479 C2495 1.349 . S
C2480 C2478 1.327 . S
C2480 C2499 1.429 . S
C2480 H2504 0.950 . S
C2481 C2498 1.574 . S
C2481 C2500 1.368 . S
C2481 H2505 0.949 . S
H2482 C2486 0.949 . S
C2483 C2484 1.349 . S
C2483 C2485 1.327 . S
C2483 H2506 0.950 . S
C2484 C2483 1.349 . S
C2484 C2496 1.349 . S
C2485 C2483 1.327 . S
C2485 C2501 1.429 . S
C2485 H2507 0.950 . S
C2486 H2482 0.949 . S
C2486 C2494 1.574 . S
C2486 C2502 1.368 . S
H2487 C2495 0.950 . S
H2488 C2493 0.950 . S
H2489 C2494 0.949 . S
H2490 C2496 0.950 . S
H2491 C2497 0.950 . S
H2492 C2498 0.949 . S
C2493 H2488 0.950 . S
C2493 C2495 1.327 . S
C2493 C2499 1.429 . S
C2494 C2486 1.574 . S
C2494 H2489 0.949 . S
C2494 C2500 1.368 . S
C2495 C2479 1.349 . S
C2495 H2487 0.950 . S
C2495 C2493 1.327 . S
C2496 C2484 1.349 . S
C2496 H2490 0.950 . S
C2496 C2497 1.327 . S
C2497 H2491 0.950 . S
C2497 C2496 1.327 . S
C2497 C2501 1.429 . S
C2498 C2481 1.574 . S
C2498 H2492 0.949 . S
C2498 C2502 1.368 . S
C2499 C2480 1.429 . S
C2499 C2493 1.429 . S
C2499 C2500 1.523 . S
C2500 C2481 1.368 . S
C2500 C2494 1.368 . S
C2500 C2499 1.523 . S
C2501 C2485 1.429 . S
C2501 C2497 1.429 . S
C2501 C2502 1.523 . S
C2502 C2486 1.368 . S
C2502 C2498 1.368 . S
C2502 C2501 1.523 . S
H2503 C2478 0.950 . S
H2504 C2480 0.950 . S
H2505 C2481 0.949 . S
H2506 C2483 0.950 . S
H2507 C2485 0.950 . S
C2508 C2509 1.349 . S
C2508 C2510 1.327 . S
C2508 H2533 0.950 . S
C2509 C2508 1.349 . S
C2509 C2525 1.349 . S
C2510 C2508 1.327 . S
C2510 C2529 1.429 . S
C2510 H2534 0.950 . S
C2511 C2528 1.574 . S
C2511 C2530 1.368 . S
C2511 H2535 0.949 . S
H2512 C2516 0.949 . S
C2513 C2514 1.349 . S
C2513 C2515 1.327 . S
C2513 H2536 0.950 . S
C2514 C2513 1.349 . S
C2514 C2526 1.349 . S
C2515 C2513 1.327 . S
C2515 C2531 1.429 . S
C2515 H2537 0.950 . S
C2516 H2512 0.949 . S
C2516 C2524 1.574 . S
C2516 C2532 1.368 . S
H2517 C2525 0.950 . S
H2518 C2523 0.950 . S
H2519 C2524 0.949 . S
H2520 C2526 0.950 . S
H2521 C2527 0.950 . S
H2522 C2528 0.949 . S
C2523 H2518 0.950 . S
C2523 C2525 1.327 . S
C2523 C2529 1.429 . S
C2524 C2516 1.574 . S
C2524 H2519 0.949 . S
C2524 C2530 1.368 . S
C2525 C2509 1.349 . S
C2525 H2517 0.950 . S
C2525 C2523 1.327 . S
C2526 C2514 1.349 . S
C2526 H2520 0.950 . S
C2526 C2527 1.327 . S
C2527 H2521 0.950 . S
C2527 C2526 1.327 . S
C2527 C2531 1.429 . S
C2528 C2511 1.574 . S
C2528 H2522 0.949 . S
C2528 C2532 1.368 . S
C2529 C2510 1.429 . S
C2529 C2523 1.429 . S
C2529 C2530 1.523 . S
C2530 C2511 1.368 . S
C2530 C2524 1.368 . S
C2530 C2529 1.523 . S
C2531 C2515 1.429 . S
C2531 C2527 1.429 . S
C2531 C2532 1.523 . S
C2532 C2516 1.368 . S
C2532 C2528 1.368 . S
C2532 C2531 1.523 . S
H2533 C2508 0.950 . S
H2534 C2510 0.950 . S
H2535 C2511 0.949 . S
H2536 C2513 0.950 . S
H2537 C2515 0.950 . S
C2538 C2539 1.349 . S
C2538 C2540 1.327 . S
C2538 H2563 0.950 . S
C2539 C2538 1.349 . S
C2539 C2555 1.349 . S
C2540 C2538 1.327 . S
C2540 C2559 1.429 . S
C2540 H2564 0.950 . S
C2541 C2558 1.574 . S
C2541 C2560 1.368 . S
C2541 H2565 0.949 . S
H2542 C2546 0.949 . S
C2543 C2544 1.349 . S
C2543 C2545 1.327 . S
C2543 H2566 0.950 . S
C2544 C2543 1.349 . S
C2544 C2556 1.349 . S
C2545 C2543 1.327 . S
C2545 C2561 1.429 . S
C2545 H2567 0.950 . S
C2546 H2542 0.949 . S
C2546 C2554 1.574 . S
C2546 C2562 1.368 . S
H2547 C2555 0.950 . S
H2548 C2553 0.950 . S
H2549 C2554 0.949 . S
H2550 C2556 0.950 . S
H2551 C2557 0.950 . S
H2552 C2558 0.949 . S
C2553 H2548 0.950 . S
C2553 C2555 1.327 . S
C2553 C2559 1.429 . S
C2554 C2546 1.574 . S
C2554 H2549 0.949 . S
C2554 C2560 1.368 . S
C2555 C2539 1.349 . S
C2555 H2547 0.950 . S
C2555 C2553 1.327 . S
C2556 C2544 1.349 . S
C2556 H2550 0.950 . S
C2556 C2557 1.327 . S
C2557 H2551 0.950 . S
C2557 C2556 1.327 . S
C2557 C2561 1.429 . S
C2558 C2541 1.574 . S
C2558 H2552 0.949 . S
C2558 C2562 1.368 . S
C2559 C2540 1.429 . S
C2559 C2553 1.429 . S
C2559 C2560 1.523 . S
C2560 C2541 1.368 . S
C2560 C2554 1.368 . S
C2560 C2559 1.523 . S
C2561 C2545 1.429 . S
C2561 C2557 1.429 . S
C2561 C2562 1.523 . S
C2562 C2546 1.368 . S
C2562 C2558 1.368 . S
C2562 C2561 1.523 . S
H2563 C2538 0.950 . S
H2564 C2540 0.950 . S
H2565 C2541 0.949 . S
H2566 C2543 0.950 . S
H2567 C2545 0.950 . S
C2568 C2569 1.349 . S
C2568 C2570 1.327 . S
C2568 H2593 0.950 . S
C2569 C2568 1.349 . S
C2569 C2585 1.349 . S
C2570 C2568 1.327 . S
C2570 C2589 1.429 . S
C2570 H2594 0.950 . S
C2571 C2588 1.574 . S
C2571 C2590 1.368 . S
C2571 H2595 0.949 . S
H2572 C2576 0.949 . S
C2573 C2574 1.349 . S
C2573 C2575 1.327 . S
C2573 H2596 0.950 . S
C2574 C2573 1.349 . S
C2574 C2586 1.349 . S
C2575 C2573 1.327 . S
C2575 C2591 1.429 . S
C2575 H2597 0.950 . S
C2576 H2572 0.949 . S
C2576 C2584 1.574 . S
C2576 C2592 1.368 . S
H2577 C2585 0.950 . S
H2578 C2583 0.950 . S
H2579 C2584 0.949 . S
H2580 C2586 0.950 . S
H2581 C2587 0.950 . S
H2582 C2588 0.949 . S
C2583 H2578 0.950 . S
C2583 C2585 1.327 . S
C2583 C2589 1.429 . S
C2584 C2576 1.574 . S
C2584 H2579 0.949 . S
C2584 C2590 1.368 . S
C2585 C2569 1.349 . S
C2585 H2577 0.950 . S
C2585 C2583 1.327 . S
C2586 C2574 1.349 . S
C2586 H2580 0.950 . S
C2586 C2587 1.327 . S
C2587 H2581 0.950 . S
C2587 C2586 1.327 . S
C2587 C2591 1.429 . S
C2588 C2571 1.574 . S
C2588 H2582 0.949 . S
C2588 C2592 1.368 . S
C2589 C2570 1.429 . S
C2589 C2583 1.429 . S
C2589 C2590 1.523 . S
C2590 C2571 1.368 . S
C2590 C2584 1.368 . S
C2590 C2589 1.523 . S
C2591 C2575 1.429 . S
C2591 C2587 1.429 . S
C2591 C2592 1.523 . S
C2592 C2576 1.368 . S
C2592 C2588 1.368 . S
C2592 C2591 1.523 . S
H2593 C2568 0.950 . S
H2594 C2570 0.950 . S
H2595 C2571 0.949 . S
H2596 C2573 0.950 . S
H2597 C2575 0.950 . S
C2598 C2599 1.349 . S
C2598 C2600 1.327 . S
C2598 H2623 0.950 . S
C2599 C2598 1.349 . S
C2599 C2615 1.349 . S
C2600 C2598 1.327 . S
C2600 C2619 1.429 . S
C2600 H2624 0.950 . S
C2601 C2618 1.574 . S
C2601 C2620 1.368 . S
C2601 H2625 0.949 . S
H2602 C2606 0.949 . S
C2603 C2604 1.349 . S
C2603 C2605 1.327 . S
C2603 H2626 0.950 . S
C2604 C2603 1.349 . S
C2604 C2616 1.349 . S
C2605 C2603 1.327 . S
C2605 C2621 1.429 . S
C2605 H2627 0.950 . S
C2606 H2602 0.949 . S
C2606 C2614 1.574 . S
C2606 C2622 1.368 . S
H2607 C2615 0.950 . S
H2608 C2613 0.950 . S
H2609 C2614 0.949 . S
H2610 C2616 0.950 . S
H2611 C2617 0.950 . S
H2612 C2618 0.949 . S
C2613 H2608 0.950 . S
C2613 C2615 1.327 . S
C2613 C2619 1.429 . S
C2614 C2606 1.574 . S
C2614 H2609 0.949 . S
C2614 C2620 1.368 . S
C2615 C2599 1.349 . S
C2615 H2607 0.950 . S
C2615 C2613 1.327 . S
C2616 C2604 1.349 . S
C2616 H2610 0.950 . S
C2616 C2617 1.327 . S
C2617 H2611 0.950 . S
C2617 C2616 1.327 . S
C2617 C2621 1.429 . S
C2618 C2601 1.574 . S
C2618 H2612 0.949 . S
C2618 C2622 1.368 . S
C2619 C2600 1.429 . S
C2619 C2613 1.429 . S
C2619 C2620 1.523 . S
C2620 C2601 1.368 . S
C2620 C2614 1.368 . S
C2620 C2619 1.523 . S
C2621 C2605 1.429 . S
C2621 C2617 1.429 . S
C2621 C2622 1.523 . S
C2622 C2606 1.368 . S
C2622 C2618 1.368 . S
C2622 C2621 1.523 . S
H2623 C2598 0.950 . S
H2624 C2600 0.950 . S
H2625 C2601 0.949 . S
H2626 C2603 0.950 . S
H2627 C2605 0.950 . S
C2628 C2629 1.349 . S
C2628 C2630 1.327 . S
C2628 H2653 0.950 . S
C2629 C2628 1.349 . S
C2629 C2645 1.349 . S
C2630 C2628 1.327 . S
C2630 C2649 1.429 . S
C2630 H2654 0.950 . S
C2631 C2648 1.574 . S
C2631 C2650 1.368 . S
C2631 H2655 0.949 . S
H2632 C2636 0.949 . S
C2633 C2634 1.349 . S
C2633 C2635 1.327 . S
C2633 H2656 0.950 . S
C2634 C2633 1.349 . S
C2634 C2646 1.349 . S
C2635 C2633 1.327 . S
C2635 C2651 1.429 . S
C2635 H2657 0.950 . S
C2636 H2632 0.949 . S
C2636 C2644 1.574 . S
C2636 C2652 1.368 . S
H2637 C2645 0.950 . S
H2638 C2643 0.950 . S
H2639 C2644 0.949 . S
H2640 C2646 0.950 . S
H2641 C2647 0.950 . S
H2642 C2648 0.949 . S
C2643 H2638 0.950 . S
C2643 C2645 1.327 . S
C2643 C2649 1.429 . S
C2644 C2636 1.574 . S
C2644 H2639 0.949 . S
C2644 C2650 1.368 1_655 S
C2645 C2629 1.349 . S
C2645 H2637 0.950 . S
C2645 C2643 1.327 . S
C2646 C2634 1.349 . S
C2646 H2640 0.950 . S
C2646 C2647 1.327 . S
C2647 H2641 0.950 . S
C2647 C2646 1.327 . S
C2647 C2651 1.429 . S
C2648 C2631 1.574 . S
C2648 H2642 0.949 . S
C2648 C2652 1.368 1_455 S
C2649 C2630 1.429 . S
C2649 C2643 1.429 . S
C2649 C2650 1.523 . S
C2650 C2631 1.368 . S
C2650 C2644 1.368 1_455 S
C2650 C2649 1.523 . S
C2651 C2635 1.429 . S
C2651 C2647 1.429 . S
C2651 C2652 1.523 . S
C2652 C2636 1.368 . S
C2652 C2648 1.368 1_655 S
C2652 C2651 1.523 . S
H2653 C2628 0.950 . S
H2654 C2630 0.950 . S
H2655 C2631 0.949 . S
H2656 C2633 0.950 . S
H2657 C2635 0.950 . S
C2658 C2659 1.349 . S
C2658 C2660 1.327 . S
C2658 H2683 0.950 . S
C2659 C2658 1.349 . S
C2659 C2675 1.349 . S
C2660 C2658 1.327 . S
C2660 C2679 1.429 . S
C2660 H2684 0.950 . S
C2661 C2678 1.574 . S
C2661 C2680 1.368 . S
C2661 H2685 0.949 . S
H2662 C2666 0.949 . S
C2663 C2664 1.349 . S
C2663 C2665 1.327 . S
C2663 H2686 0.950 . S
C2664 C2663 1.349 . S
C2664 C2676 1.349 . S
C2665 C2663 1.327 . S
C2665 C2681 1.429 . S
C2665 H2687 0.950 . S
C2666 H2662 0.949 . S
C2666 C2674 1.574 . S
C2666 C2682 1.368 . S
H2667 C2675 0.950 . S
H2668 C2673 0.950 . S
H2669 C2674 0.949 . S
H2670 C2676 0.950 . S
H2671 C2677 0.950 . S
H2672 C2678 0.949 . S
C2673 H2668 0.950 . S
C2673 C2675 1.327 . S
C2673 C2679 1.429 . S
C2674 C2666 1.574 . S
C2674 H2669 0.949 . S
C2674 C2680 1.368 . S
C2675 C2659 1.349 . S
C2675 H2667 0.950 . S
C2675 C2673 1.327 . S
C2676 C2664 1.349 . S
C2676 H2670 0.950 . S
C2676 C2677 1.327 . S
C2677 H2671 0.950 . S
C2677 C2676 1.327 . S
C2677 C2681 1.429 . S
C2678 C2661 1.574 . S
C2678 H2672 0.949 . S
C2678 C2682 1.368 . S
C2679 C2660 1.429 . S
C2679 C2673 1.429 . S
C2679 C2680 1.523 . S
C2680 C2661 1.368 . S
C2680 C2674 1.368 . S
C2680 C2679 1.523 . S
C2681 C2665 1.429 . S
C2681 C2677 1.429 . S
C2681 C2682 1.523 . S
C2682 C2666 1.368 . S
C2682 C2678 1.368 . S
C2682 C2681 1.523 . S
H2683 C2658 0.950 . S
H2684 C2660 0.950 . S
H2685 C2661 0.949 . S
H2686 C2663 0.950 . S
H2687 C2665 0.950 . S
C2688 C2689 1.349 . S
C2688 C2690 1.327 . S
C2688 H2713 0.950 . S
C2689 C2688 1.349 . S
C2689 C2705 1.349 . S
C2690 C2688 1.327 . S
C2690 C2709 1.429 . S
C2690 H2714 0.950 . S
C2691 C2708 1.574 . S
C2691 C2710 1.368 . S
C2691 H2715 0.949 . S
H2692 C2696 0.949 . S
C2693 C2694 1.349 . S
C2693 C2695 1.327 . S
C2693 H2716 0.950 . S
C2694 C2693 1.349 . S
C2694 C2706 1.349 . S
C2695 C2693 1.327 . S
C2695 C2711 1.429 . S
C2695 H2717 0.950 . S
C2696 H2692 0.949 . S
C2696 C2704 1.574 . S
C2696 C2712 1.368 . S
H2697 C2705 0.950 . S
H2698 C2703 0.950 . S
H2699 C2704 0.949 . S
H2700 C2706 0.950 . S
H2701 C2707 0.950 . S
H2702 C2708 0.949 . S
C2703 H2698 0.950 . S
C2703 C2705 1.327 . S
C2703 C2709 1.429 . S
C2704 C2696 1.574 . S
C2704 H2699 0.949 . S
C2704 C2710 1.368 1_565 S
C2705 C2689 1.349 . S
C2705 H2697 0.950 . S
C2705 C2703 1.327 . S
C2706 C2694 1.349 . S
C2706 H2700 0.950 . S
C2706 C2707 1.327 . S
C2707 H2701 0.950 . S
C2707 C2706 1.327 . S
C2707 C2711 1.429 . S
C2708 C2691 1.574 . S
C2708 H2702 0.949 . S
C2708 C2712 1.368 1_545 S
C2709 C2690 1.429 . S
C2709 C2703 1.429 . S
C2709 C2710 1.523 . S
C2710 C2691 1.368 . S
C2710 C2704 1.368 1_545 S
C2710 C2709 1.523 . S
C2711 C2695 1.429 . S
C2711 C2707 1.429 . S
C2711 C2712 1.523 . S
C2712 C2696 1.368 . S
C2712 C2708 1.368 1_565 S
C2712 C2711 1.523 . S
H2713 C2688 0.950 . S
H2714 C2690 0.950 . S
H2715 C2691 0.949 . S
H2716 C2693 0.950 . S
H2717 C2695 0.950 . S
C2718 C2719 1.349 . S
C2718 C2720 1.327 . S
C2718 H2743 0.950 . S
C2719 C2718 1.349 . S
C2719 C2735 1.349 . S
C2720 C2718 1.327 . S
C2720 C2739 1.429 . S
C2720 H2744 0.950 . S
C2721 C2738 1.574 . S
C2721 C2740 1.368 1_545 S
C2721 H2745 0.949 . S
H2722 C2726 0.949 . S
C2723 C2724 1.349 . S
C2723 C2725 1.327 . S
C2723 H2746 0.950 . S
C2724 C2723 1.349 . S
C2724 C2736 1.349 . S
C2725 C2723 1.327 . S
C2725 C2741 1.429 . S
C2725 H2747 0.950 . S
C2726 H2722 0.949 . S
C2726 C2734 1.574 . S
C2726 C2742 1.368 1_565 S
H2727 C2735 0.950 . S
H2728 C2733 0.950 1_545 S
H2729 C2734 0.949 . S
H2730 C2736 0.950 . S
H2731 C2737 0.950 . S
H2732 C2738 0.949 . S
C2733 H2728 0.950 1_565 S
C2733 C2735 1.327 . S
C2733 C2739 1.429 . S
C2734 C2726 1.574 . S
C2734 H2729 0.949 . S
C2734 C2740 1.368 1_556 S
C2735 C2719 1.349 . S
C2735 H2727 0.950 . S
C2735 C2733 1.327 . S
C2736 C2724 1.349 . S
C2736 H2730 0.950 . S
C2736 C2737 1.327 . S
C2737 H2731 0.950 . S
C2737 C2736 1.327 . S
C2737 C2741 1.429 . S
C2738 C2721 1.574 . S
C2738 H2732 0.949 . S
C2738 C2742 1.368 1_554 S
C2739 C2720 1.429 . S
C2739 C2733 1.429 . S
C2739 C2740 1.523 . S
C2740 C2721 1.368 1_565 S
C2740 C2734 1.368 1_554 S
C2740 C2739 1.523 . S
C2741 C2725 1.429 . S
C2741 C2737 1.429 . S
C2741 C2742 1.523 . S
C2742 C2726 1.368 1_545 S
C2742 C2738 1.368 1_556 S
C2742 C2741 1.523 . S
H2743 C2718 0.950 . S
H2744 C2720 0.950 . S
H2745 C2721 0.949 . S
H2746 C2723 0.950 . S
H2747 C2725 0.950 . S
C2748 C2749 1.349 . S
C2748 C2750 1.327 . S
C2748 H2773 0.950 . S
C2749 C2748 1.349 . S
C2749 C2765 1.349 . S
C2750 C2748 1.327 . S
C2750 C2769 1.429 . S
C2750 H2774 0.950 . S
C2751 C2768 1.574 1_656 S
C2751 C2770 1.368 . S
C2751 H2775 0.949 . S
H2752 C2756 0.932 . S
C2753 C2754 1.349 . S
C2753 C2755 1.327 . S
C2753 H2776 0.950 . S
C2754 C2753 1.349 . S
C2754 C2766 1.349 . S
C2755 C2753 1.327 . S
C2755 C2771 1.429 . S
C2755 H2777 0.950 . S
C2756 H2752 0.932 . S
C2756 C2764 1.555 1_454 S
C2756 C2772 1.410 . S
H2757 C2765 0.950 . S
H2758 C2763 0.950 . S
H2759 C2764 0.949 . S
H2760 C2766 0.950 . S
H2761 C2767 0.950 . S
H2762 C2768 0.949 . S
C2763 H2758 0.950 . S
C2763 C2765 1.327 . S
C2763 C2769 1.429 . S
C2764 C2756 1.555 1_656 S
C2764 H2759 0.949 . S
C2764 C2770 1.368 . S
C2765 C2749 1.349 . S
C2765 H2757 0.950 . S
C2765 C2763 1.327 . S
C2766 C2754 1.349 . S
C2766 H2760 0.950 . S
C2766 C2767 1.327 . S
C2767 H2761 0.950 . S
C2767 C2766 1.327 . S
C2767 C2771 1.429 . S
C2768 C2751 1.574 1_454 S
C2768 H2762 0.949 . S
C2768 C2772 1.368 . S
C2769 C2750 1.429 . S
C2769 C2763 1.429 . S
C2769 C2770 1.523 . S
C2770 C2751 1.368 . S
C2770 C2764 1.368 . S
C2770 C2769 1.523 . S
C2771 C2755 1.429 . S
C2771 C2767 1.429 . S
C2771 C2772 1.523 . S
C2772 C2756 1.410 . S
C2772 C2768 1.368 . S
C2772 C2771 1.523 . S
H2773 C2748 0.950 . S
H2774 C2750 0.950 . S
H2775 C2751 0.949 . S
H2776 C2753 0.950 . S
H2777 C2755 0.950 . S
C2778 C2779 1.349 . S
C2778 C2780 1.327 . S
C2778 H2803 0.950 . S
C2779 C2778 1.349 . S
C2779 C2795 1.349 . S
C2780 C2778 1.327 . S
C2780 C2799 1.429 . S
C2780 H2804 0.950 . S
C2781 C2798 1.574 1_554 S
C2781 C2800 1.368 . S
C2781 H2805 0.949 . S
H2782 C2786 0.949 . S
C2783 C2784 1.349 . S
C2783 C2785 1.327 . S
C2783 H2806 0.950 . S
C2784 C2783 1.349 . S
C2784 C2796 1.349 . S
C2785 C2783 1.327 . S
C2785 C2801 1.429 . S
C2785 H2807 0.950 . S
C2786 H2782 0.949 . S
C2786 C2794 1.574 1_556 S
C2786 C2802 1.368 . S
H2787 C2795 0.950 . S
H2788 C2793 0.950 . S
H2789 C2794 0.949 . S
H2790 C2796 0.950 . S
H2791 C2797 0.950 . S
H2792 C2798 0.949 . S
C2793 H2788 0.950 . S
C2793 C2795 1.327 . S
C2793 C2799 1.429 . S
C2794 C2786 1.574 1_554 S
C2794 H2789 0.949 . S
C2794 C2800 1.368 . S
C2795 C2779 1.349 . S
C2795 H2787 0.950 . S
C2795 C2793 1.327 . S
C2796 C2784 1.349 . S
C2796 H2790 0.950 . S
C2796 C2797 1.327 . S
C2797 H2791 0.950 . S
C2797 C2796 1.327 . S
C2797 C2801 1.429 . S
C2798 C2781 1.574 1_556 S
C2798 H2792 0.949 . S
C2798 C2802 1.368 . S
C2799 C2780 1.429 . S
C2799 C2793 1.429 . S
C2799 C2800 1.523 . S
C2800 C2781 1.368 . S
C2800 C2794 1.368 . S
C2800 C2799 1.523 . S
C2801 C2785 1.429 . S
C2801 C2797 1.429 . S
C2801 C2802 1.523 . S
C2802 C2786 1.368 . S
C2802 C2798 1.368 . S
C2802 C2801 1.523 . S
H2803 C2778 0.950 . S
H2804 C2780 0.950 . S
H2805 C2781 0.949 . S
H2806 C2783 0.950 . S
H2807 C2785 0.950 . S
C2808 C2809 1.349 1_556 S
C2808 C2810 1.327 . S
C2808 H2833 0.950 . S
C2809 C2808 1.349 1_554 S
C2809 C2825 1.349 . S
C2810 C2808 1.327 . S
C2810 C2829 1.452 . S
C2810 H2834 0.950 . S
C2811 C2828 1.574 1_554 S
C2811 C2830 1.368 1_554 S
C2811 H2835 0.949 . S
H2812 C2816 0.949 . S
C2813 C2814 1.349 . S
C2813 C2815 1.327 . S
C2813 H2836 0.950 . S
C2814 C2813 1.349 . S
C2814 C2826 1.349 . S
C2815 C2813 1.327 . S
C2815 C2831 1.429 1_565 S
C2815 H2837 0.950 . S
C2816 H2812 0.949 . S
C2816 C2824 1.574 . S
C2816 C2832 1.368 . S
H2817 C2825 0.950 . S
H2818 C2823 0.950 . S
H2819 C2824 0.949 . S
H2820 C2826 0.950 . S
H2821 C2827 0.950 . S
H2822 C2828 0.949 1_554 S
C2823 H2818 0.950 . S
C2823 C2825 1.327 . S
C2823 C2829 1.389 1_554 S
C2824 C2816 1.574 . S
C2824 H2819 0.949 . S
C2824 C2830 1.368 . S
C2825 C2809 1.349 . S
C2825 H2817 0.950 . S
C2825 C2823 1.327 . S
C2826 C2814 1.349 . S
C2826 H2820 0.950 . S
C2826 C2827 1.327 1_565 S
C2827 H2821 0.950 . S
C2827 C2826 1.327 1_545 S
C2827 C2831 1.429 . S
C2828 C2811 1.574 1_556 S
C2828 H2822 0.949 1_556 S
C2828 C2832 1.368 . S
C2829 C2810 1.452 . S
C2829 C2823 1.389 1_556 S
C2829 C2830 1.540 . S
C2830 C2811 1.368 1_556 S
C2830 C2824 1.368 . S
C2830 C2829 1.540 . S
C2831 C2815 1.429 1_545 S
C2831 C2827 1.429 . S
C2831 C2832 1.523 . S
C2832 C2816 1.368 . S
C2832 C2828 1.368 . S
C2832 C2831 1.523 . S
H2833 C2808 0.950 . S
H2834 C2810 0.950 . S
H2835 C2811 0.949 . S
H2836 C2813 0.950 . S
H2837 C2815 0.950 . S
C2838 C2839 1.349 . S
C2838 C2840 1.327 . S
C2838 H2863 0.950 . S
C2839 C2838 1.349 . S
C2839 C2855 1.349 1_554 S
C2840 C2838 1.327 . S
C2840 C2859 1.378 1_554 S
C2840 H2864 0.950 . S
C2841 C2858 1.574 . S
C2841 C2860 1.368 . S
C2841 H2865 0.949 . S
H2842 C2846 0.946 . S
C2843 C2844 1.349 . S
C2843 C2845 1.327 . S
C2843 H2866 0.950 . S
C2844 C2843 1.349 . S
C2844 C2856 1.349 . S
C2845 C2843 1.327 . S
C2845 C2861 1.429 1_455 S
C2845 H2867 0.950 1_455 S
C2846 H2842 0.946 . S
C2846 C2854 1.572 . S
C2846 C2862 1.373 1_554 S
H2847 C2855 0.950 . S
H2848 C2853 0.950 . S
H2849 C2854 0.949 . S
H2850 C2856 0.950 . S
H2851 C2857 0.956 1_554 S
H2852 C2858 0.949 . S
C2853 H2848 0.950 . S
C2853 C2855 1.327 . S
C2853 C2859 1.462 . S
C2854 C2846 1.572 . S
C2854 H2849 0.949 . S
C2854 C2860 1.368 1_554 S
C2855 C2839 1.349 1_556 S
C2855 H2847 0.950 . S
C2855 C2853 1.327 . S
C2856 C2844 1.349 . S
C2856 H2850 0.950 . S
C2856 C2857 1.327 . S
C2857 H2851 0.956 1_556 S
C2857 C2856 1.327 . S
C2857 C2861 1.429 1_455 S
C2858 C2841 1.574 . S
C2858 H2852 0.949 . S
C2858 C2862 1.368 . S
C2859 C2840 1.378 1_556 S
C2859 C2853 1.462 . S
C2859 C2860 1.540 . S
C2860 C2841 1.368 . S
C2860 C2854 1.368 1_556 S
C2860 C2859 1.540 . S
C2861 C2845 1.429 1_655 S
C2861 C2857 1.429 1_655 S
C2861 C2862 1.523 . S
C2862 C2846 1.373 1_556 S
C2862 C2858 1.368 . S
C2862 C2861 1.523 . S
H2863 C2838 0.950 . S
H2864 C2840 0.950 . S
H2865 C2841 0.949 . S
H2866 C2843 0.950 . S
H2867 C2845 0.950 1_655 S
C2868 C2869 1.349 . S
C2868 C2870 1.327 . S
C2868 H2893 0.950 . S
C2869 C2868 1.349 . S
C2869 C2885 1.349 . S
C2870 C2868 1.327 . S
C2870 C2889 1.429 . S
C2870 H2894 0.950 . S
C2871 C2888 1.574 . S
C2871 C2890 1.368 . S
C2871 H2895 0.949 . S
H2872 C2876 0.949 . S
C2873 C2874 1.349 1_556 S
C2873 C2875 1.327 . S
C2873 H2896 0.950 . S
C2874 C2873 1.349 1_554 S
C2874 C2886 1.349 . S
C2875 C2873 1.327 . S
C2875 C2891 1.458 . S
C2875 H2897 0.950 . S
C2876 H2872 0.949 . S
C2876 C2884 1.574 1_554 S
C2876 C2892 1.368 1_554 S
H2877 C2885 0.950 . S
H2878 C2883 0.950 . S
H2879 C2884 0.949 1_554 S
H2880 C2886 0.950 . S
H2881 C2887 0.950 . S
H2882 C2888 0.949 . S
C2883 H2878 0.950 . S
C2883 C2885 1.327 . S
C2883 C2889 1.429 . S
C2884 C2876 1.574 1_556 S
C2884 H2879 0.949 1_556 S
C2884 C2890 1.368 . S
C2885 C2869 1.349 . S
C2885 H2877 0.950 . S
C2885 C2883 1.327 . S
C2886 C2874 1.349 . S
C2886 H2880 0.950 . S
C2886 C2887 1.327 . S
C2887 H2881 0.950 . S
C2887 C2886 1.327 . S
C2887 C2891 1.382 1_554 S
C2888 C2871 1.574 . S
C2888 H2882 0.949 . S
C2888 C2892 1.368 . S
C2889 C2870 1.429 . S
C2889 C2883 1.429 . S
C2889 C2890 1.523 . S
C2890 C2871 1.368 . S
C2890 C2884 1.368 . S
C2890 C2889 1.523 . S
C2891 C2875 1.458 . S
C2891 C2887 1.382 1_556 S
C2891 C2892 1.540 . S
C2892 C2876 1.368 1_556 S
C2892 C2888 1.368 . S
C2892 C2891 1.540 . S
H2893 C2868 0.950 . S
H2894 C2870 0.950 . S
H2895 C2871 0.949 . S
H2896 C2873 0.950 . S
H2897 C2875 0.950 . S
C2898 C2899 1.349 . S
C2898 C2900 1.327 1_655 S
C2898 H2923 0.950 . S
C2899 C2898 1.349 . S
C2899 C2915 1.349 . S
C2900 C2898 1.327 1_455 S
C2900 C2919 1.429 . S
C2900 H2924 0.950 . S
C2901 C2918 1.574 . S
C2901 C2920 1.368 . S
C2901 H2925 0.949 . S
H2902 C2906 0.949 . S
C2903 C2904 1.349 . S
C2903 C2905 1.327 . S
C2903 H2926 0.950 . S
C2904 C2903 1.349 . S
C2904 C2916 1.349 . S
C2905 C2903 1.327 . S
C2905 C2921 1.429 . S
C2905 H2927 0.950 . S
C2906 H2902 0.949 . S
C2906 C2914 1.574 . S
C2906 C2922 1.368 . S
H2907 C2915 0.950 . S
H2908 C2913 0.950 . S
H2909 C2914 0.949 . S
H2910 C2916 0.950 . S
H2911 C2917 0.950 . S
H2912 C2918 0.949 . S
C2913 H2908 0.950 . S
C2913 C2915 1.327 . S
C2913 C2919 1.429 1_655 S
C2914 C2906 1.574 . S
C2914 H2909 0.949 . S
C2914 C2920 1.368 . S
C2915 C2899 1.349 . S
C2915 H2907 0.950 . S
C2915 C2913 1.327 . S
C2916 C2904 1.349 . S
C2916 H2910 0.950 . S
C2916 C2917 1.327 . S
C2917 H2911 0.950 . S
C2917 C2916 1.327 . S
C2917 C2921 1.429 . S
C2918 C2901 1.574 . S
C2918 H2912 0.949 . S
C2918 C2922 1.368 . S
C2919 C2900 1.429 . S
C2919 C2913 1.429 1_455 S
C2919 C2920 1.523 . S
C2920 C2901 1.368 . S
C2920 C2914 1.368 . S
C2920 C2919 1.523 . S
C2921 C2905 1.429 . S
C2921 C2917 1.429 . S
C2921 C2922 1.523 . S
C2922 C2906 1.368 . S
C2922 C2918 1.368 . S
C2922 C2921 1.523 . S
H2923 C2898 0.950 . S
H2924 C2900 0.950 . S
H2925 C2901 0.949 . S
H2926 C2903 0.950 . S
H2927 C2905 0.950 . S
C2928 C2929 1.349 . S
C2928 C2930 1.327 . S
C2928 H2953 0.950 . S
C2929 C2928 1.349 . S
C2929 C2945 1.349 . S
C2930 C2928 1.327 . S
C2930 C2949 1.429 . S
C2930 H2954 0.950 . S
C2931 C2948 1.574 . S
C2931 C2950 1.368 . S
C2931 H2955 0.949 . S
H2932 C2936 0.949 . S
C2933 C2934 1.349 . S
C2933 C2935 1.327 . S
C2933 H2956 0.950 . S
C2934 C2933 1.349 . S
C2934 C2946 1.349 . S
C2935 C2933 1.327 . S
C2935 C2951 1.429 . S
C2935 H2957 0.950 . S
C2936 H2932 0.949 . S
C2936 C2944 1.574 . S
C2936 C2952 1.368 . S
H2937 C2945 0.950 . S
H2938 C2943 0.950 . S
H2939 C2944 0.949 . S
H2940 C2946 0.950 . S
H2941 C2947 0.950 . S
H2942 C2948 0.949 . S
C2943 H2938 0.950 . S
C2943 C2945 1.327 . S
C2943 C2949 1.429 . S
C2944 C2936 1.574 . S
C2944 H2939 0.949 . S
C2944 C2950 1.368 . S
C2945 C2929 1.349 . S
C2945 H2937 0.950 . S
C2945 C2943 1.327 . S
C2946 C2934 1.349 . S
C2946 H2940 0.950 . S
C2946 C2947 1.327 . S
C2947 H2941 0.950 . S
C2947 C2946 1.327 . S
C2947 C2951 1.429 . S
C2948 C2931 1.574 . S
C2948 H2942 0.949 . S
C2948 C2952 1.368 . S
C2949 C2930 1.429 . S
C2949 C2943 1.429 . S
C2949 C2950 1.523 . S
C2950 C2931 1.368 . S
C2950 C2944 1.368 . S
C2950 C2949 1.523 . S
C2951 C2935 1.429 . S
C2951 C2947 1.429 . S
C2951 C2952 1.523 . S
C2952 C2936 1.368 . S
C2952 C2948 1.368 . S
C2952 C2951 1.523 . S
H2953 C2928 0.950 . S
H2954 C2930 0.950 . S
H2955 C2931 0.949 . S
H2956 C2933 0.950 . S
H2957 C2935 0.950 . S
C2958 C2959 1.349 . S
C2958 C2960 1.309 1_545 S
C2958 H2983 0.950 . S
C2959 C2958 1.349 . S
C2959 C2975 1.349 . S
C2960 C2958 1.309 1_565 S
C2960 C2979 1.441 . S
C2960 H2984 0.956 . S
C2961 C2978 1.574 . S
C2961 C2980 1.368 . S
C2961 H2985 0.949 . S
H2962 C2966 0.949 . S
C2963 C2964 1.349 . S
C2963 C2965 1.327 . S
C2963 H2986 0.950 . S
C2964 C2963 1.349 . S
C2964 C2976 1.349 . S
C2965 C2963 1.327 . S
C2965 C2981 1.429 . S
C2965 H2987 0.950 . S
C2966 H2962 0.949 . S
C2966 C2974 1.574 . S
C2966 C2982 1.368 . S
H2967 C2975 0.950 . S
H2968 C2973 0.950 . S
H2969 C2974 0.949 . S
H2970 C2976 0.950 . S
H2971 C2977 0.950 . S
H2972 C2978 0.949 . S
C2973 H2968 0.950 . S
C2973 C2975 1.327 . S
C2973 C2979 1.429 1_545 S
C2974 C2966 1.574 . S
C2974 H2969 0.949 . S
C2974 C2980 1.368 . S
C2975 C2959 1.349 . S
C2975 H2967 0.950 . S
C2975 C2973 1.327 . S
C2976 C2964 1.349 . S
C2976 H2970 0.950 . S
C2976 C2977 1.327 . S
C2977 H2971 0.950 . S
C2977 C2976 1.327 . S
C2977 C2981 1.429 . S
C2978 C2961 1.574 . S
C2978 H2972 0.949 . S
C2978 C2982 1.368 . S
C2979 C2960 1.441 . S
C2979 C2973 1.429 1_565 S
C2979 C2980 1.523 . S
C2980 C2961 1.368 . S
C2980 C2974 1.368 . S
C2980 C2979 1.523 . S
C2981 C2965 1.429 . S
C2981 C2977 1.429 . S
C2981 C2982 1.523 . S
C2982 C2966 1.368 . S
C2982 C2978 1.368 . S
C2982 C2981 1.523 . S
H2983 C2958 0.950 . S
H2984 C2960 0.956 . S
H2985 C2961 0.949 . S
H2986 C2963 0.950 . S
H2987 C2965 0.950 . S
C2988 C2989 1.349 . S
C2988 C2990 1.327 . S
C2988 H3013 0.950 . S
C2989 C2988 1.349 . S
C2989 C3005 1.349 . S
C2990 C2988 1.327 . S
C2990 C3009 1.429 1_545 S
C2990 H3014 0.950 . S
C2991 C3008 1.574 . S
C2991 C3010 1.368 . S
C2991 H3015 0.949 . S
H2992 C2996 0.949 . S
C2993 C2994 1.313 1_554 S
C2993 C2995 1.345 . S
C2993 H3016 0.972 . S
C2994 C2993 1.313 1_556 S
C2994 C3006 1.349 . S
C2995 C2993 1.345 . S
C2995 C3011 1.421 1_554 S
C2995 H3017 0.950 . S
C2996 H2992 0.949 . S
C2996 C3004 1.574 1_556 S
C2996 C3012 1.368 1_556 S
H2997 C3005 0.950 . S
H2998 C3003 0.977 . S
H2999 C3004 0.931 1_556 S
H3000 C3006 0.950 . S
H3001 C3007 0.950 . S
H3002 C3008 0.949 . S
C3003 H2998 0.977 . S
C3003 C3005 1.263 1_565 S
C3003 C3009 1.469 . S
C3004 C2996 1.574 1_554 S
C3004 H2999 0.931 1_554 S
C3004 C3010 1.368 . S
C3005 C2989 1.349 . S
C3005 H2997 0.950 . S
C3005 C3003 1.263 1_545 S
C3006 C2994 1.349 . S
C3006 H3000 0.950 . S
C3006 C3007 1.327 . S
C3007 H3001 0.950 . S
C3007 C3006 1.327 . S
C3007 C3011 1.444 . S
C3008 C2991 1.574 . S
C3008 H3002 0.949 . S
C3008 C3012 1.368 . S
C3009 C2990 1.429 1_565 S
C3009 C3003 1.469 . S
C3009 C3010 1.523 . S
C3010 C2991 1.368 . S
C3010 C3004 1.368 . S
C3010 C3009 1.523 . S
C3011 C2995 1.421 1_556 S
C3011 C3007 1.444 . S
C3011 C3012 1.516 1_556 S
C3012 C2996 1.368 1_554 S
C3012 C3008 1.368 . S
C3012 C3011 1.516 1_554 S
H3013 C2988 0.950 . S
H3014 C2990 0.950 . S
H3015 C2991 0.949 . S
H3016 C2993 0.972 . S
H3017 C2995 0.950 . S
C3018 C3019 1.349 . S
C3018 C3020 1.327 . S
C3018 H3043 0.950 . S
C3019 C3018 1.349 . S
C3019 C3035 1.349 . S
C3020 C3018 1.327 . S
C3020 C3039 1.429 1_655 S
C3020 H3044 0.950 1_655 S
C3021 C3038 1.574 1_554 S
C3021 C3040 1.368 . S
C3021 H3045 0.949 1_554 S
H3022 C3026 0.949 . S
C3023 C3024 1.349 . S
C3023 C3025 1.327 . S
C3023 H3046 0.950 . S
C3024 C3023 1.349 . S
C3024 C3036 1.349 1_556 S
C3025 C3023 1.327 . S
C3025 C3041 1.446 . S
C3025 H3047 0.950 . S
C3026 H3022 0.949 . S
C3026 C3034 1.574 . S
C3026 C3042 1.368 . S
H3027 C3035 0.950 . S
H3028 C3033 0.968 . S
H3029 C3034 0.949 . S
H3030 C3036 0.950 . S
H3031 C3037 0.950 . S
H3032 C3038 0.949 . S
C3033 H3028 0.968 . S
C3033 C3035 1.327 . S
C3033 C3039 1.429 1_655 S
C3034 C3026 1.574 . S
C3034 H3029 0.949 . S
C3034 C3040 1.368 . S
C3035 C3019 1.349 . S
C3035 H3027 0.950 . S
C3035 C3033 1.327 . S
C3036 C3024 1.349 1_554 S
C3036 H3030 0.950 . S
C3036 C3037 1.327 . S
C3037 H3031 0.950 . S
C3037 C3036 1.327 . S
C3037 C3041 1.418 1_554 S
C3038 C3021 1.574 1_556 S
C3038 H3032 0.949 . S
C3038 C3042 1.368 1_556 S
C3039 C3020 1.429 1_455 S
C3039 C3033 1.429 1_455 S
C3039 C3040 1.523 . S
C3040 C3021 1.368 . S
C3040 C3034 1.368 . S
C3040 C3039 1.523 . S
C3041 C3025 1.446 . S
C3041 C3037 1.418 1_556 S
C3041 C3042 1.516 1_556 S
C3042 C3026 1.368 . S
C3042 C3038 1.368 1_554 S
C3042 C3041 1.516 1_554 S
H3043 C3018 0.950 . S
H3044 C3020 0.950 1_455 S
H3045 C3021 0.949 1_556 S
H3046 C3023 0.950 . S
H3047 C3025 0.950 . S
C3048 C3049 1.349 . S
C3048 C3050 1.327 . S
C3048 H3073 0.950 . S
C3049 C3048 1.349 . S
C3049 C3065 1.349 . S
C3050 C3048 1.327 . S
C3050 C3069 1.429 . S
C3050 H3074 0.950 . S
C3051 C3068 1.574 . S
C3051 C3070 1.368 . S
C3051 H3075 0.949 . S
H3052 C3056 0.949 . S
C3053 C3054 1.349 . S
C3053 C3055 1.327 . S
C3053 H3076 0.950 . S
C3054 C3053 1.349 . S
C3054 C3066 1.349 . S
C3055 C3053 1.327 . S
C3055 C3071 1.438 . S
C3055 H3077 0.950 . S
C3056 H3052 0.949 . S
C3056 C3064 1.574 . S
C3056 C3072 1.368 . S
H3057 C3065 0.950 . S
H3058 C3063 0.950 . S
H3059 C3064 0.949 . S
H3060 C3066 0.950 . S
H3061 C3067 0.950 . S
H3062 C3068 0.949 1_556 S
C3063 H3058 0.950 . S
C3063 C3065 1.327 . S
C3063 C3069 1.429 . S
C3064 C3056 1.574 . S
C3064 H3059 0.949 . S
C3064 C3070 1.368 . S
C3065 C3049 1.349 . S
C3065 H3057 0.950 . S
C3065 C3063 1.327 . S
C3066 C3054 1.349 . S
C3066 H3060 0.950 . S
C3066 C3067 1.327 1_556 S
C3067 H3061 0.950 . S
C3067 C3066 1.327 1_554 S
C3067 C3071 1.427 1_554 S
C3068 C3051 1.574 . S
C3068 H3062 0.949 1_554 S
C3068 C3072 1.368 . S
C3069 C3050 1.429 . S
C3069 C3063 1.429 . S
C3069 C3070 1.523 . S
C3070 C3051 1.368 . S
C3070 C3064 1.368 . S
C3070 C3069 1.523 . S
C3071 C3055 1.438 . S
C3071 C3067 1.427 1_556 S
C3071 C3072 1.516 1_556 S
C3072 C3056 1.368 . S
C3072 C3068 1.368 . S
C3072 C3071 1.516 1_554 S
H3073 C3048 0.950 . S
H3074 C3050 0.950 . S
H3075 C3051 0.949 . S
H3076 C3053 0.950 . S
H3077 C3055 0.950 . S
C3078 C3079 1.349 . S
C3078 C3080 1.327 . S
C3078 H3103 0.950 . S
C3079 C3078 1.349 . S
C3079 C3095 1.349 . S
C3080 C3078 1.327 . S
C3080 C3099 1.429 . S
C3080 H3104 0.950 . S
C3081 C3098 1.574 . S
C3081 C3100 1.368 . S
C3081 H3105 0.949 . S
H3082 C3086 0.949 . S
C3083 C3084 1.349 . S
C3083 C3085 1.327 . S
C3083 H3106 0.950 . S
C3084 C3083 1.349 . S
C3084 C3096 1.349 . S
C3085 C3083 1.327 . S
C3085 C3101 1.429 1_455 S
C3085 H3107 0.950 . S
C3086 H3082 0.949 . S
C3086 C3094 1.574 . S
C3086 C3102 1.368 . S
H3087 C3095 0.950 . S
H3088 C3093 0.950 . S
H3089 C3094 0.949 . S
H3090 C3096 0.950 . S
H3091 C3097 0.950 . S
H3092 C3098 0.949 . S
C3093 H3088 0.950 . S
C3093 C3095 1.327 . S
C3093 C3099 1.429 . S
C3094 C3086 1.574 . S
C3094 H3089 0.949 . S
C3094 C3100 1.368 . S
C3095 C3079 1.349 . S
C3095 H3087 0.950 . S
C3095 C3093 1.327 . S
C3096 C3084 1.349 . S
C3096 H3090 0.950 . S
C3096 C3097 1.327 1_455 S
C3097 H3091 0.950 . S
C3097 C3096 1.327 1_655 S
C3097 C3101 1.429 . S
C3098 C3081 1.574 . S
C3098 H3092 0.949 . S
C3098 C3102 1.368 . S
C3099 C3080 1.429 . S
C3099 C3093 1.429 . S
C3099 C3100 1.523 . S
C3100 C3081 1.368 . S
C3100 C3094 1.368 . S
C3100 C3099 1.523 . S
C3101 C3085 1.429 1_655 S
C3101 C3097 1.429 . S
C3101 C3102 1.523 . S
C3102 C3086 1.368 . S
C3102 C3098 1.368 . S
C3102 C3101 1.523 . S
H3103 C3078 0.950 . S
H3104 C3080 0.950 . S
H3105 C3081 0.949 . S
H3106 C3083 0.950 . S
H3107 C3085 0.950 . S
C3108 C3109 1.349 . S
C3108 C3110 1.327 . S
C3108 H3133 0.950 . S
C3109 C3108 1.349 . S
C3109 C3125 1.349 . S
C3110 C3108 1.327 . S
C3110 C3129 1.429 . S
C3110 H3134 0.950 . S
C3111 C3128 1.574 . S
C3111 C3130 1.368 . S
C3111 H3135 0.949 . S
H3112 C3116 0.949 . S
C3113 C3114 1.349 . S
C3113 C3115 1.327 . S
C3113 H3136 0.950 . S
C3114 C3113 1.349 . S
C3114 C3126 1.349 . S
C3115 C3113 1.327 . S
C3115 C3131 1.429 . S
C3115 H3137 0.950 . S
C3116 H3112 0.949 . S
C3116 C3124 1.574 . S
C3116 C3132 1.368 . S
H3117 C3125 0.950 . S
H3118 C3123 0.950 . S
H3119 C3124 0.949 . S
H3120 C3126 0.950 . S
H3121 C3127 0.950 . S
H3122 C3128 0.949 . S
C3123 H3118 0.950 . S
C3123 C3125 1.327 . S
C3123 C3129 1.429 . S
C3124 C3116 1.574 . S
C3124 H3119 0.949 . S
C3124 C3130 1.368 . S
C3125 C3109 1.349 . S
C3125 H3117 0.950 . S
C3125 C3123 1.327 . S
C3126 C3114 1.349 . S
C3126 H3120 0.950 . S
C3126 C3127 1.327 . S
C3127 H3121 0.950 . S
C3127 C3126 1.327 . S
C3127 C3131 1.429 . S
C3128 C3111 1.574 . S
C3128 H3122 0.949 . S
C3128 C3132 1.368 . S
C3129 C3110 1.429 . S
C3129 C3123 1.429 . S
C3129 C3130 1.523 . S
C3130 C3111 1.368 . S
C3130 C3124 1.368 . S
C3130 C3129 1.523 . S
C3131 C3115 1.429 . S
C3131 C3127 1.429 . S
C3131 C3132 1.523 . S
C3132 C3116 1.368 . S
C3132 C3128 1.368 . S
C3132 C3131 1.523 . S
H3133 C3108 0.950 . S
H3134 C3110 0.950 . S
H3135 C3111 0.949 . S
H3136 C3113 0.950 . S
H3137 C3115 0.950 . S
C3138 C3139 1.349 . S
C3138 C3140 1.299 1_565 S
C3138 H3163 0.950 . S
C3139 C3138 1.349 . S
C3139 C3155 1.349 . S
C3140 C3138 1.299 1_545 S
C3140 C3159 1.435 . S
C3140 H3164 0.974 . S
C3141 C3158 1.574 . S
C3141 C3160 1.368 . S
C3141 H3165 0.949 . S
H3142 C3146 0.949 . S
C3143 C3144 1.349 . S
C3143 C3145 1.327 . S
C3143 H3166 0.950 . S
C3144 C3143 1.349 . S
C3144 C3156 1.349 . S
C3145 C3143 1.327 . S
C3145 C3161 1.429 . S
C3145 H3167 0.950 . S
C3146 H3142 0.949 . S
C3146 C3154 1.574 . S
C3146 C3162 1.368 . S
H3147 C3155 0.950 . S
H3148 C3153 0.950 . S
H3149 C3154 0.949 . S
H3150 C3156 0.950 . S
H3151 C3157 0.950 . S
H3152 C3158 0.949 . S
C3153 H3148 0.950 . S
C3153 C3155 1.327 . S
C3153 C3159 1.429 1_565 S
C3154 C3146 1.574 . S
C3154 H3149 0.949 . S
C3154 C3160 1.368 . S
C3155 C3139 1.349 . S
C3155 H3147 0.950 . S
C3155 C3153 1.327 . S
C3156 C3144 1.349 . S
C3156 H3150 0.950 . S
C3156 C3157 1.327 . S
C3157 H3151 0.950 . S
C3157 C3156 1.327 . S
C3157 C3161 1.429 . S
C3158 C3141 1.574 . S
C3158 H3152 0.949 . S
C3158 C3162 1.368 . S
C3159 C3140 1.435 . S
C3159 C3153 1.429 1_545 S
C3159 C3160 1.523 . S
C3160 C3141 1.368 . S
C3160 C3154 1.368 . S
C3160 C3159 1.523 . S
C3161 C3145 1.429 . S
C3161 C3157 1.429 . S
C3161 C3162 1.523 . S
C3162 C3146 1.368 . S
C3162 C3158 1.368 . S
C3162 C3161 1.523 . S
H3163 C3138 0.950 . S
H3164 C3140 0.974 . S
H3165 C3141 0.949 . S
H3166 C3143 0.950 . S
H3167 C3145 0.950 . S
C3168 C3169 1.349 . S
C3168 C3170 1.327 . S
C3168 H3193 0.950 . S
C3169 C3168 1.349 . S
C3169 C3185 1.349 . S
C3170 C3168 1.327 . S
C3170 C3189 1.429 . S
C3170 H3194 0.950 . S
C3171 C3188 1.574 . S
C3171 C3190 1.368 . S
C3171 H3195 0.949 . S
H3172 C3176 0.949 . S
C3173 C3174 1.349 . S
C3173 C3175 1.327 . S
C3173 H3196 0.950 . S
C3174 C3173 1.349 . S
C3174 C3186 1.349 . S
C3175 C3173 1.327 . S
C3175 C3191 1.429 . S
C3175 H3197 0.950 . S
C3176 H3172 0.949 . S
C3176 C3184 1.574 . S
C3176 C3192 1.368 . S
H3177 C3185 0.950 . S
H3178 C3183 0.950 . S
H3179 C3184 0.949 . S
H3180 C3186 0.950 . S
H3181 C3187 0.950 . S
H3182 C3188 0.949 . S
C3183 H3178 0.950 . S
C3183 C3185 1.327 . S
C3183 C3189 1.429 . S
C3184 C3176 1.574 . S
C3184 H3179 0.949 . S
C3184 C3190 1.368 . S
C3185 C3169 1.349 . S
C3185 H3177 0.950 . S
C3185 C3183 1.327 . S
C3186 C3174 1.349 . S
C3186 H3180 0.950 . S
C3186 C3187 1.327 . S
C3187 H3181 0.950 . S
C3187 C3186 1.327 . S
C3187 C3191 1.429 . S
C3188 C3171 1.574 . S
C3188 H3182 0.949 . S
C3188 C3192 1.368 . S
C3189 C3170 1.429 . S
C3189 C3183 1.429 . S
C3189 C3190 1.523 . S
C3190 C3171 1.368 . S
C3190 C3184 1.368 . S
C3190 C3189 1.523 . S
C3191 C3175 1.429 . S
C3191 C3187 1.429 . S
C3191 C3192 1.523 . S
C3192 C3176 1.368 . S
C3192 C3188 1.368 . S
C3192 C3191 1.523 . S
H3193 C3168 0.950 . S
H3194 C3170 0.950 . S
H3195 C3171 0.949 . S
H3196 C3173 0.950 . S
H3197 C3175 0.950 . S
C3198 C3199 1.349 . S
C3198 C3200 1.327 . S
C3198 H3223 0.950 . S
C3199 C3198 1.349 . S
C3199 C3215 1.349 . S
C3200 C3198 1.327 . S
C3200 C3219 1.429 . S
C3200 H3224 0.950 . S
C3201 C3218 1.574 . S
C3201 C3220 1.368 . S
C3201 H3225 0.949 . S
H3202 C3206 0.949 . S
C3203 C3204 1.349 . S
C3203 C3205 1.327 . S
C3203 H3226 0.950 . S
C3204 C3203 1.349 . S
C3204 C3216 1.349 . S
C3205 C3203 1.327 . S
C3205 C3221 1.429 . S
C3205 H3227 0.950 . S
C3206 H3202 0.949 . S
C3206 C3214 1.574 . S
C3206 C3222 1.368 . S
H3207 C3215 0.950 . S
H3208 C3213 0.950 . S
H3209 C3214 0.949 . S
H3210 C3216 0.950 . S
H3211 C3217 0.950 . S
H3212 C3218 0.949 . S
C3213 H3208 0.950 . S
C3213 C3215 1.327 . S
C3213 C3219 1.429 . S
C3214 C3206 1.574 . S
C3214 H3209 0.949 . S
C3214 C3220 1.368 . S
C3215 C3199 1.349 . S
C3215 H3207 0.950 . S
C3215 C3213 1.327 . S
C3216 C3204 1.349 . S
C3216 H3210 0.950 . S
C3216 C3217 1.327 . S
C3217 H3211 0.950 . S
C3217 C3216 1.327 . S
C3217 C3221 1.429 . S
C3218 C3201 1.574 . S
C3218 H3212 0.949 . S
C3218 C3222 1.368 . S
C3219 C3200 1.429 . S
C3219 C3213 1.429 . S
C3219 C3220 1.523 . S
C3220 C3201 1.368 . S
C3220 C3214 1.368 . S
C3220 C3219 1.523 . S
C3221 C3205 1.429 . S
C3221 C3217 1.429 . S
C3221 C3222 1.523 . S
C3222 C3206 1.368 . S
C3222 C3218 1.368 . S
C3222 C3221 1.523 . S
H3223 C3198 0.950 . S
H3224 C3200 0.950 . S
H3225 C3201 0.949 . S
H3226 C3203 0.950 . S
H3227 C3205 0.950 . S
C3228 C3229 1.349 . S
C3228 C3230 1.327 . S
C3228 H3253 0.950 . S
C3229 C3228 1.349 . S
C3229 C3245 1.349 . S
C3230 C3228 1.327 . S
C3230 C3249 1.429 . S
C3230 H3254 0.950 . S
C3231 C3248 1.574 . S
C3231 C3250 1.368 . S
C3231 H3255 0.949 . S
H3232 C3236 0.949 . S
C3233 C3234 1.349 . S
C3233 C3235 1.327 . S
C3233 H3256 0.950 . S
C3234 C3233 1.349 . S
C3234 C3246 1.349 . S
C3235 C3233 1.327 . S
C3235 C3251 1.429 . S
C3235 H3257 0.950 . S
C3236 H3232 0.949 . S
C3236 C3244 1.574 . S
C3236 C3252 1.368 . S
H3237 C3245 0.950 . S
H3238 C3243 0.950 . S
H3239 C3244 0.949 . S
H3240 C3246 0.950 . S
H3241 C3247 0.950 . S
H3242 C3248 0.949 . S
C3243 H3238 0.950 . S
C3243 C3245 1.327 . S
C3243 C3249 1.429 . S
C3244 C3236 1.574 . S
C3244 H3239 0.949 . S
C3244 C3250 1.368 . S
C3245 C3229 1.349 . S
C3245 H3237 0.950 . S
C3245 C3243 1.327 . S
C3246 C3234 1.349 . S
C3246 H3240 0.950 . S
C3246 C3247 1.327 . S
C3247 H3241 0.950 . S
C3247 C3246 1.327 . S
C3247 C3251 1.429 . S
C3248 C3231 1.574 . S
C3248 H3242 0.949 . S
C3248 C3252 1.368 . S
C3249 C3230 1.429 . S
C3249 C3243 1.429 . S
C3249 C3250 1.523 . S
C3250 C3231 1.368 . S
C3250 C3244 1.368 . S
C3250 C3249 1.523 . S
C3251 C3235 1.429 . S
C3251 C3247 1.429 . S
C3251 C3252 1.523 . S
C3252 C3236 1.368 . S
C3252 C3248 1.368 . S
C3252 C3251 1.523 . S
H3253 C3228 0.950 . S
H3254 C3230 0.950 . S
H3255 C3231 0.949 . S
H3256 C3233 0.950 . S
H3257 C3235 0.950 . S
C3258 C3259 1.349 . S
C3258 C3260 1.327 . S
C3258 H3283 0.950 . S
C3259 C3258 1.349 . S
C3259 C3275 1.349 . S
C3260 C3258 1.327 . S
C3260 C3279 1.429 . S
C3260 H3284 0.950 . S
C3261 C3278 1.574 . S
C3261 C3280 1.368 . S
C3261 H3285 0.949 . S
H3262 C3266 0.949 . S
C3263 C3264 1.349 . S
C3263 C3265 1.327 . S
C3263 H3286 0.950 . S
C3264 C3263 1.349 . S
C3264 C3276 1.349 . S
C3265 C3263 1.327 . S
C3265 C3281 1.429 . S
C3265 H3287 0.950 . S
C3266 H3262 0.949 . S
C3266 C3274 1.574 . S
C3266 C3282 1.368 . S
H3267 C3275 0.950 . S
H3268 C3273 0.950 . S
H3269 C3274 0.949 . S
H3270 C3276 0.950 . S
H3271 C3277 0.950 . S
H3272 C3278 0.949 . S
C3273 H3268 0.950 . S
C3273 C3275 1.327 . S
C3273 C3279 1.429 . S
C3274 C3266 1.574 . S
C3274 H3269 0.949 . S
C3274 C3280 1.368 . S
C3275 C3259 1.349 . S
C3275 H3267 0.950 . S
C3275 C3273 1.327 . S
C3276 C3264 1.349 . S
C3276 H3270 0.950 . S
C3276 C3277 1.327 . S
C3277 H3271 0.950 . S
C3277 C3276 1.327 . S
C3277 C3281 1.429 . S
C3278 C3261 1.574 . S
C3278 H3272 0.949 . S
C3278 C3282 1.368 . S
C3279 C3260 1.429 . S
C3279 C3273 1.429 . S
C3279 C3280 1.523 . S
C3280 C3261 1.368 . S
C3280 C3274 1.368 . S
C3280 C3279 1.523 . S
C3281 C3265 1.429 . S
C3281 C3277 1.429 . S
C3281 C3282 1.523 . S
C3282 C3266 1.368 . S
C3282 C3278 1.368 . S
C3282 C3281 1.523 . S
H3283 C3258 0.950 . S
H3284 C3260 0.950 . S
H3285 C3261 0.949 . S
H3286 C3263 0.950 . S
H3287 C3265 0.950 . S
C3288 C3289 1.349 . S
C3288 C3290 1.327 . S
C3288 H3313 0.950 . S
C3289 C3288 1.349 . S
C3289 C3305 1.349 . S
C3290 C3288 1.327 . S
C3290 C3309 1.429 . S
C3290 H3314 0.950 . S
C3291 C3308 1.574 . S
C3291 C3310 1.368 . S
C3291 H3315 0.949 . S
H3292 C3296 0.949 . S
C3293 C3294 1.349 . S
C3293 C3295 1.327 . S
C3293 H3316 0.950 . S
C3294 C3293 1.349 . S
C3294 C3306 1.349 . S
C3295 C3293 1.327 . S
C3295 C3311 1.429 . S
C3295 H3317 0.950 . S
C3296 H3292 0.949 . S
C3296 C3304 1.574 . S
C3296 C3312 1.368 . S
H3297 C3305 0.950 . S
H3298 C3303 0.950 . S
H3299 C3304 0.949 . S
H3300 C3306 0.950 . S
H3301 C3307 0.950 . S
H3302 C3308 0.949 . S
C3303 H3298 0.950 . S
C3303 C3305 1.327 . S
C3303 C3309 1.429 . S
C3304 C3296 1.574 . S
C3304 H3299 0.949 . S
C3304 C3310 1.368 . S
C3305 C3289 1.349 . S
C3305 H3297 0.950 . S
C3305 C3303 1.327 . S
C3306 C3294 1.349 . S
C3306 H3300 0.950 . S
C3306 C3307 1.327 . S
C3307 H3301 0.950 . S
C3307 C3306 1.327 . S
C3307 C3311 1.429 . S
C3308 C3291 1.574 . S
C3308 H3302 0.949 . S
C3308 C3312 1.368 . S
C3309 C3290 1.429 . S
C3309 C3303 1.429 . S
C3309 C3310 1.523 . S
C3310 C3291 1.368 . S
C3310 C3304 1.368 . S
C3310 C3309 1.523 . S
C3311 C3295 1.429 . S
C3311 C3307 1.429 . S
C3311 C3312 1.523 . S
C3312 C3296 1.368 . S
C3312 C3308 1.368 . S
C3312 C3311 1.523 . S
H3313 C3288 0.950 . S
H3314 C3290 0.950 . S
H3315 C3291 0.949 . S
H3316 C3293 0.950 . S
H3317 C3295 0.950 . S
C3318 C3319 1.349 . S
C3318 C3320 1.327 . S
C3318 H3343 0.950 . S
C3319 C3318 1.349 . S
C3319 C3335 1.349 . S
C3320 C3318 1.327 . S
C3320 C3339 1.429 . S
C3320 H3344 0.950 . S
C3321 C3338 1.574 . S
C3321 C3340 1.368 . S
C3321 H3345 0.949 . S
H3322 C3326 0.949 . S
C3323 C3324 1.349 . S
C3323 C3325 1.327 . S
C3323 H3346 0.950 . S
C3324 C3323 1.349 . S
C3324 C3336 1.349 . S
C3325 C3323 1.327 . S
C3325 C3341 1.429 . S
C3325 H3347 0.950 . S
C3326 H3322 0.949 . S
C3326 C3334 1.574 . S
C3326 C3342 1.368 . S
H3327 C3335 0.950 . S
H3328 C3333 0.950 . S
H3329 C3334 0.949 . S
H3330 C3336 0.950 . S
H3331 C3337 0.950 . S
H3332 C3338 0.949 . S
C3333 H3328 0.950 . S
C3333 C3335 1.327 . S
C3333 C3339 1.429 . S
C3334 C3326 1.574 . S
C3334 H3329 0.949 . S
C3334 C3340 1.368 . S
C3335 C3319 1.349 . S
C3335 H3327 0.950 . S
C3335 C3333 1.327 . S
C3336 C3324 1.349 . S
C3336 H3330 0.950 . S
C3336 C3337 1.327 . S
C3337 H3331 0.950 . S
C3337 C3336 1.327 . S
C3337 C3341 1.429 . S
C3338 C3321 1.574 . S
C3338 H3332 0.949 . S
C3338 C3342 1.368 . S
C3339 C3320 1.429 . S
C3339 C3333 1.429 . S
C3339 C3340 1.523 . S
C3340 C3321 1.368 . S
C3340 C3334 1.368 . S
C3340 C3339 1.523 . S
C3341 C3325 1.429 . S
C3341 C3337 1.429 . S
C3341 C3342 1.523 . S
C3342 C3326 1.368 . S
C3342 C3338 1.368 . S
C3342 C3341 1.523 . S
H3343 C3318 0.950 . S
H3344 C3320 0.950 . S
H3345 C3321 0.949 . S
H3346 C3323 0.950 . S
H3347 C3325 0.950 . S
C3348 C3349 1.349 . S
C3348 C3350 1.327 . S
C3348 H3373 0.950 . S
C3349 C3348 1.349 . S
C3349 C3365 1.349 . S
C3350 C3348 1.327 . S
C3350 C3369 1.429 . S
C3350 H3374 0.950 . S
C3351 C3368 1.574 . S
C3351 C3370 1.368 . S
C3351 H3375 0.949 . S
H3352 C3356 0.949 . S
C3353 C3354 1.349 . S
C3353 C3355 1.327 . S
C3353 H3376 0.950 . S
C3354 C3353 1.349 . S
C3354 C3366 1.349 . S
C3355 C3353 1.327 . S
C3355 C3371 1.429 . S
C3355 H3377 0.950 . S
C3356 H3352 0.949 . S
C3356 C3364 1.574 . S
C3356 C3372 1.368 . S
H3357 C3365 0.950 . S
H3358 C3363 0.950 . S
H3359 C3364 0.949 . S
H3360 C3366 0.950 . S
H3361 C3367 0.950 . S
H3362 C3368 0.949 . S
C3363 H3358 0.950 . S
C3363 C3365 1.327 . S
C3363 C3369 1.429 . S
C3364 C3356 1.574 . S
C3364 H3359 0.949 . S
C3364 C3370 1.368 . S
C3365 C3349 1.349 . S
C3365 H3357 0.950 . S
C3365 C3363 1.327 . S
C3366 C3354 1.349 . S
C3366 H3360 0.950 . S
C3366 C3367 1.327 . S
C3367 H3361 0.950 . S
C3367 C3366 1.327 . S
C3367 C3371 1.429 . S
C3368 C3351 1.574 . S
C3368 H3362 0.949 . S
C3368 C3372 1.368 . S
C3369 C3350 1.429 . S
C3369 C3363 1.429 . S
C3369 C3370 1.523 . S
C3370 C3351 1.368 . S
C3370 C3364 1.368 . S
C3370 C3369 1.523 . S
C3371 C3355 1.429 . S
C3371 C3367 1.429 . S
C3371 C3372 1.523 . S
C3372 C3356 1.368 . S
C3372 C3368 1.368 . S
C3372 C3371 1.523 . S
H3373 C3348 0.950 . S
H3374 C3350 0.950 . S
H3375 C3351 0.949 . S
H3376 C3353 0.950 . S
H3377 C3355 0.950 . S
C3378 C3379 1.349 . S
C3378 C3380 1.327 . S
C3378 H3403 0.950 . S
C3379 C3378 1.349 . S
C3379 C3395 1.349 . S
C3380 C3378 1.327 . S
C3380 C3399 1.429 . S
C3380 H3404 0.950 . S
C3381 C3398 1.574 . S
C3381 C3400 1.368 . S
C3381 H3405 0.949 . S
H3382 C3386 0.949 . S
C3383 C3384 1.349 . S
C3383 C3385 1.327 . S
C3383 H3406 0.950 . S
C3384 C3383 1.349 . S
C3384 C3396 1.349 . S
C3385 C3383 1.327 . S
C3385 C3401 1.429 . S
C3385 H3407 0.950 . S
C3386 H3382 0.949 . S
C3386 C3394 1.574 . S
C3386 C3402 1.368 . S
H3387 C3395 0.950 . S
H3388 C3393 0.950 . S
H3389 C3394 0.949 . S
H3390 C3396 0.950 . S
H3391 C3397 0.950 . S
H3392 C3398 0.949 . S
C3393 H3388 0.950 . S
C3393 C3395 1.327 . S
C3393 C3399 1.429 . S
C3394 C3386 1.574 . S
C3394 H3389 0.949 . S
C3394 C3400 1.368 . S
C3395 C3379 1.349 . S
C3395 H3387 0.950 . S
C3395 C3393 1.327 . S
C3396 C3384 1.349 . S
C3396 H3390 0.950 . S
C3396 C3397 1.327 . S
C3397 H3391 0.950 . S
C3397 C3396 1.327 . S
C3397 C3401 1.429 . S
C3398 C3381 1.574 . S
C3398 H3392 0.949 . S
C3398 C3402 1.368 . S
C3399 C3380 1.429 . S
C3399 C3393 1.429 . S
C3399 C3400 1.523 . S
C3400 C3381 1.368 . S
C3400 C3394 1.368 . S
C3400 C3399 1.523 . S
C3401 C3385 1.429 . S
C3401 C3397 1.429 . S
C3401 C3402 1.523 . S
C3402 C3386 1.368 . S
C3402 C3398 1.368 . S
C3402 C3401 1.523 . S
H3403 C3378 0.950 . S
H3404 C3380 0.950 . S
H3405 C3381 0.949 . S
H3406 C3383 0.950 . S
H3407 C3385 0.950 . S
C3408 C3409 1.349 . S
C3408 C3410 1.327 . S
C3408 H3433 0.950 . S
C3409 C3408 1.349 . S
C3409 C3425 1.349 . S
C3410 C3408 1.327 . S
C3410 C3429 1.429 . S
C3410 H3434 0.950 . S
C3411 C3428 1.574 . S
C3411 C3430 1.368 . S
C3411 H3435 0.949 . S
H3412 C3416 0.949 . S
C3413 C3414 1.349 . S
C3413 C3415 1.327 . S
C3413 H3436 0.950 . S
C3414 C3413 1.349 . S
C3414 C3426 1.349 . S
C3415 C3413 1.327 . S
C3415 C3431 1.429 . S
C3415 H3437 0.950 . S
C3416 H3412 0.949 . S
C3416 C3424 1.574 . S
C3416 C3432 1.368 . S
H3417 C3425 0.950 . S
H3418 C3423 0.950 . S
H3419 C3424 0.949 . S
H3420 C3426 0.950 . S
H3421 C3427 0.950 . S
H3422 C3428 0.949 . S
C3423 H3418 0.950 . S
C3423 C3425 1.327 . S
C3423 C3429 1.429 . S
C3424 C3416 1.574 . S
C3424 H3419 0.949 . S
C3424 C3430 1.368 . S
C3425 C3409 1.349 . S
C3425 H3417 0.950 . S
C3425 C3423 1.327 . S
C3426 C3414 1.349 . S
C3426 H3420 0.950 . S
C3426 C3427 1.327 . S
C3427 H3421 0.950 . S
C3427 C3426 1.327 . S
C3427 C3431 1.429 . S
C3428 C3411 1.574 . S
C3428 H3422 0.949 . S
C3428 C3432 1.368 . S
C3429 C3410 1.429 . S
C3429 C3423 1.429 . S
C3429 C3430 1.523 . S
C3430 C3411 1.368 . S
C3430 C3424 1.368 . S
C3430 C3429 1.523 . S
C3431 C3415 1.429 . S
C3431 C3427 1.429 . S
C3431 C3432 1.523 . S
C3432 C3416 1.368 . S
C3432 C3428 1.368 . S
C3432 C3431 1.523 . S
H3433 C3408 0.950 . S
H3434 C3410 0.950 . S
H3435 C3411 0.949 . S
H3436 C3413 0.950 . S
H3437 C3415 0.950 . S
C3438 C3439 1.349 . S
C3438 C3440 1.327 . S
C3438 H3463 0.950 . S
C3439 C3438 1.349 . S
C3439 C3455 1.349 . S
C3440 C3438 1.327 . S
C3440 C3459 1.429 . S
C3440 H3464 0.950 . S
C3441 C3458 1.574 . S
C3441 C3460 1.368 . S
C3441 H3465 0.949 . S
H3442 C3446 0.949 . S
C3443 C3444 1.349 . S
C3443 C3445 1.327 . S
C3443 H3466 0.950 . S
C3444 C3443 1.349 . S
C3444 C3456 1.349 . S
C3445 C3443 1.327 . S
C3445 C3461 1.429 . S
C3445 H3467 0.950 . S
C3446 H3442 0.949 . S
C3446 C3454 1.574 . S
C3446 C3462 1.368 . S
H3447 C3455 0.950 . S
H3448 C3453 0.950 . S
H3449 C3454 0.949 . S
H3450 C3456 0.950 . S
H3451 C3457 0.950 . S
H3452 C3458 0.949 . S
C3453 H3448 0.950 . S
C3453 C3455 1.327 . S
C3453 C3459 1.429 . S
C3454 C3446 1.574 . S
C3454 H3449 0.949 . S
C3454 C3460 1.368 . S
C3455 C3439 1.349 . S
C3455 H3447 0.950 . S
C3455 C3453 1.327 . S
C3456 C3444 1.349 . S
C3456 H3450 0.950 . S
C3456 C3457 1.327 . S
C3457 H3451 0.950 . S
C3457 C3456 1.327 . S
C3457 C3461 1.429 . S
C3458 C3441 1.574 . S
C3458 H3452 0.949 . S
C3458 C3462 1.368 . S
C3459 C3440 1.429 . S
C3459 C3453 1.429 . S
C3459 C3460 1.523 . S
C3460 C3441 1.368 . S
C3460 C3454 1.368 . S
C3460 C3459 1.523 . S
C3461 C3445 1.429 . S
C3461 C3457 1.429 . S
C3461 C3462 1.523 . S
C3462 C3446 1.368 . S
C3462 C3458 1.368 . S
C3462 C3461 1.523 . S
H3463 C3438 0.950 . S
H3464 C3440 0.950 . S
H3465 C3441 0.949 . S
H3466 C3443 0.950 . S
H3467 C3445 0.950 . S
C3468 C3469 1.349 . S
C3468 C3470 1.327 . S
C3468 H3493 0.950 . S
C3469 C3468 1.349 . S
C3469 C3485 1.349 . S
C3470 C3468 1.327 . S
C3470 C3489 1.429 . S
C3470 H3494 0.950 . S
C3471 C3488 1.574 . S
C3471 C3490 1.368 . S
C3471 H3495 0.949 . S
H3472 C3476 0.949 . S
C3473 C3474 1.349 . S
C3473 C3475 1.327 . S
C3473 H3496 0.950 . S
C3474 C3473 1.349 . S
C3474 C3486 1.349 . S
C3475 C3473 1.327 . S
C3475 C3491 1.429 . S
C3475 H3497 0.950 . S
C3476 H3472 0.949 . S
C3476 C3484 1.574 . S
C3476 C3492 1.368 . S
H3477 C3485 0.950 . S
H3478 C3483 0.950 . S
H3479 C3484 0.949 . S
H3480 C3486 0.950 . S
H3481 C3487 0.950 . S
H3482 C3488 0.949 . S
C3483 H3478 0.950 . S
C3483 C3485 1.327 . S
C3483 C3489 1.429 . S
C3484 C3476 1.574 . S
C3484 H3479 0.949 . S
C3484 C3490 1.368 . S
C3485 C3469 1.349 . S
C3485 H3477 0.950 . S
C3485 C3483 1.327 . S
C3486 C3474 1.349 . S
C3486 H3480 0.950 . S
C3486 C3487 1.327 . S
C3487 H3481 0.950 . S
C3487 C3486 1.327 . S
C3487 C3491 1.429 . S
C3488 C3471 1.574 . S
C3488 H3482 0.949 . S
C3488 C3492 1.368 . S
C3489 C3470 1.429 . S
C3489 C3483 1.429 . S
C3489 C3490 1.523 . S
C3490 C3471 1.368 . S
C3490 C3484 1.368 . S
C3490 C3489 1.523 . S
C3491 C3475 1.429 . S
C3491 C3487 1.429 . S
C3491 C3492 1.523 . S
C3492 C3476 1.368 . S
C3492 C3488 1.368 . S
C3492 C3491 1.523 . S
H3493 C3468 0.950 . S
H3494 C3470 0.950 . S
H3495 C3471 0.949 . S
H3496 C3473 0.950 . S
H3497 C3475 0.950 . S
C3498 C3499 1.349 . S
C3498 C3500 1.327 . S
C3498 H3523 0.950 . S
C3499 C3498 1.349 . S
C3499 C3515 1.349 . S
C3500 C3498 1.327 . S
C3500 C3519 1.429 . S
C3500 H3524 0.950 . S
C3501 C3518 1.574 . S
C3501 C3520 1.368 . S
C3501 H3525 0.949 . S
H3502 C3506 0.949 . S
C3503 C3504 1.349 . S
C3503 C3505 1.327 . S
C3503 H3526 0.950 . S
C3504 C3503 1.349 . S
C3504 C3516 1.349 . S
C3505 C3503 1.327 . S
C3505 C3521 1.429 . S
C3505 H3527 0.950 . S
C3506 H3502 0.949 . S
C3506 C3514 1.574 . S
C3506 C3522 1.368 . S
H3507 C3515 0.950 . S
H3508 C3513 0.950 . S
H3509 C3514 0.949 . S
H3510 C3516 0.950 . S
H3511 C3517 0.950 . S
H3512 C3518 0.949 . S
C3513 H3508 0.950 . S
C3513 C3515 1.327 . S
C3513 C3519 1.429 . S
C3514 C3506 1.574 . S
C3514 H3509 0.949 . S
C3514 C3520 1.368 . S
C3515 C3499 1.349 . S
C3515 H3507 0.950 . S
C3515 C3513 1.327 . S
C3516 C3504 1.349 . S
C3516 H3510 0.950 . S
C3516 C3517 1.327 . S
C3517 H3511 0.950 . S
C3517 C3516 1.327 . S
C3517 C3521 1.429 . S
C3518 C3501 1.574 . S
C3518 H3512 0.949 . S
C3518 C3522 1.368 . S
C3519 C3500 1.429 . S
C3519 C3513 1.429 . S
C3519 C3520 1.523 . S
C3520 C3501 1.368 . S
C3520 C3514 1.368 . S
C3520 C3519 1.523 . S
C3521 C3505 1.429 . S
C3521 C3517 1.429 . S
C3521 C3522 1.523 . S
C3522 C3506 1.368 . S
C3522 C3518 1.368 . S
C3522 C3521 1.523 . S
H3523 C3498 0.950 . S
H3524 C3500 0.950 . S
H3525 C3501 0.949 . S
H3526 C3503 0.950 . S
H3527 C3505 0.950 . S
C3528 C3529 1.349 . S
C3528 C3530 1.327 . S
C3528 H3553 0.950 . S
C3529 C3528 1.349 . S
C3529 C3545 1.349 . S
C3530 C3528 1.327 . S
C3530 C3549 1.429 . S
C3530 H3554 0.950 . S
C3531 C3548 1.574 . S
C3531 C3550 1.368 . S
C3531 H3555 0.949 . S
H3532 C3536 0.949 . S
C3533 C3534 1.349 . S
C3533 C3535 1.327 . S
C3533 H3556 0.950 . S
C3534 C3533 1.349 . S
C3534 C3546 1.349 . S
C3535 C3533 1.327 . S
C3535 C3551 1.429 . S
C3535 H3557 0.950 . S
C3536 H3532 0.949 . S
C3536 C3544 1.574 . S
C3536 C3552 1.368 . S
H3537 C3545 0.950 . S
H3538 C3543 0.950 . S
H3539 C3544 0.949 . S
H3540 C3546 0.950 . S
H3541 C3547 0.950 . S
H3542 C3548 0.949 . S
C3543 H3538 0.950 . S
C3543 C3545 1.327 . S
C3543 C3549 1.429 . S
C3544 C3536 1.574 . S
C3544 H3539 0.949 . S
C3544 C3550 1.368 . S
C3545 C3529 1.349 . S
C3545 H3537 0.950 . S
C3545 C3543 1.327 . S
C3546 C3534 1.349 . S
C3546 H3540 0.950 . S
C3546 C3547 1.327 . S
C3547 H3541 0.950 . S
C3547 C3546 1.327 . S
C3547 C3551 1.429 . S
C3548 C3531 1.574 . S
C3548 H3542 0.949 . S
C3548 C3552 1.368 . S
C3549 C3530 1.429 . S
C3549 C3543 1.429 . S
C3549 C3550 1.523 . S
C3550 C3531 1.368 . S
C3550 C3544 1.368 . S
C3550 C3549 1.523 . S
C3551 C3535 1.429 . S
C3551 C3547 1.429 . S
C3551 C3552 1.523 . S
C3552 C3536 1.368 . S
C3552 C3548 1.368 . S
C3552 C3551 1.523 . S
H3553 C3528 0.950 . S
H3554 C3530 0.950 . S
H3555 C3531 0.949 . S
H3556 C3533 0.950 . S
H3557 C3535 0.950 . S
C3558 C3559 1.349 . S
C3558 C3560 1.327 . S
C3558 H3583 0.950 . S
C3559 C3558 1.349 . S
C3559 C3575 1.349 . S
C3560 C3558 1.327 . S
C3560 C3579 1.429 . S
C3560 H3584 0.950 . S
C3561 C3578 1.574 . S
C3561 C3580 1.368 . S
C3561 H3585 0.949 . S
H3562 C3566 0.949 . S
C3563 C3564 1.349 . S
C3563 C3565 1.327 . S
C3563 H3586 0.950 . S
C3564 C3563 1.349 . S
C3564 C3576 1.349 . S
C3565 C3563 1.327 . S
C3565 C3581 1.429 . S
C3565 H3587 0.950 . S
C3566 H3562 0.949 . S
C3566 C3574 1.574 . S
C3566 C3582 1.368 . S
H3567 C3575 0.950 . S
H3568 C3573 0.950 . S
H3569 C3574 0.949 . S
H3570 C3576 0.950 . S
H3571 C3577 0.950 . S
H3572 C3578 0.949 . S
C3573 H3568 0.950 . S
C3573 C3575 1.327 . S
C3573 C3579 1.429 . S
C3574 C3566 1.574 . S
C3574 H3569 0.949 . S
C3574 C3580 1.368 . S
C3575 C3559 1.349 . S
C3575 H3567 0.950 . S
C3575 C3573 1.327 . S
C3576 C3564 1.349 . S
C3576 H3570 0.950 . S
C3576 C3577 1.327 . S
C3577 H3571 0.950 . S
C3577 C3576 1.327 . S
C3577 C3581 1.429 . S
C3578 C3561 1.574 . S
C3578 H3572 0.949 . S
C3578 C3582 1.368 . S
C3579 C3560 1.429 . S
C3579 C3573 1.429 . S
C3579 C3580 1.523 . S
C3580 C3561 1.368 . S
C3580 C3574 1.368 . S
C3580 C3579 1.523 . S
C3581 C3565 1.429 . S
C3581 C3577 1.429 . S
C3581 C3582 1.523 . S
C3582 C3566 1.368 . S
C3582 C3578 1.368 . S
C3582 C3581 1.523 . S
H3583 C3558 0.950 . S
H3584 C3560 0.950 . S
H3585 C3561 0.949 . S
H3586 C3563 0.950 . S
H3587 C3565 0.950 . S
C3588 C3589 1.349 . S
C3588 C3590 1.327 . S
C3588 H3613 0.950 . S
C3589 C3588 1.349 . S
C3589 C3605 1.349 . S
C3590 C3588 1.327 . S
C3590 C3609 1.429 . S
C3590 H3614 0.950 . S
C3591 C3608 1.574 . S
C3591 C3610 1.368 . S
C3591 H3615 0.949 . S
H3592 C3596 0.949 . S
C3593 C3594 1.349 . S
C3593 C3595 1.327 . S
C3593 H3616 0.950 . S
C3594 C3593 1.349 . S
C3594 C3606 1.349 . S
C3595 C3593 1.327 . S
C3595 C3611 1.429 . S
C3595 H3617 0.950 . S
C3596 H3592 0.949 . S
C3596 C3604 1.574 . S
C3596 C3612 1.368 . S
H3597 C3605 0.950 . S
H3598 C3603 0.950 . S
H3599 C3604 0.949 . S
H3600 C3606 0.950 . S
H3601 C3607 0.950 . S
H3602 C3608 0.949 . S
C3603 H3598 0.950 . S
C3603 C3605 1.327 . S
C3603 C3609 1.429 . S
C3604 C3596 1.574 . S
C3604 H3599 0.949 . S
C3604 C3610 1.368 . S
C3605 C3589 1.349 . S
C3605 H3597 0.950 . S
C3605 C3603 1.327 . S
C3606 C3594 1.349 . S
C3606 H3600 0.950 . S
C3606 C3607 1.327 . S
C3607 H3601 0.950 . S
C3607 C3606 1.327 . S
C3607 C3611 1.429 . S
C3608 C3591 1.574 . S
C3608 H3602 0.949 . S
C3608 C3612 1.368 . S
C3609 C3590 1.429 . S
C3609 C3603 1.429 . S
C3609 C3610 1.523 . S
C3610 C3591 1.368 . S
C3610 C3604 1.368 . S
C3610 C3609 1.523 . S
C3611 C3595 1.429 . S
C3611 C3607 1.429 . S
C3611 C3612 1.523 . S
C3612 C3596 1.368 . S
C3612 C3608 1.368 . S
C3612 C3611 1.523 . S
H3613 C3588 0.950 . S
H3614 C3590 0.950 . S
H3615 C3591 0.949 . S
H3616 C3593 0.950 . S
H3617 C3595 0.950 . S
C3618 C3619 1.349 . S
C3618 C3620 1.327 . S
C3618 H3643 0.950 . S
C3619 C3618 1.349 . S
C3619 C3635 1.349 . S
C3620 C3618 1.327 . S
C3620 C3639 1.429 . S
C3620 H3644 0.950 . S
C3621 C3638 1.574 . S
C3621 C3640 1.368 . S
C3621 H3645 0.949 . S
H3622 C3626 0.949 . S
C3623 C3624 1.349 . S
C3623 C3625 1.327 . S
C3623 H3646 0.950 . S
C3624 C3623 1.349 . S
C3624 C3636 1.349 . S
C3625 C3623 1.327 . S
C3625 C3641 1.429 . S
C3625 H3647 0.950 . S
C3626 H3622 0.949 . S
C3626 C3634 1.574 . S
C3626 C3642 1.368 . S
H3627 C3635 0.950 . S
H3628 C3633 0.950 . S
H3629 C3634 0.949 . S
H3630 C3636 0.950 . S
H3631 C3637 0.950 . S
H3632 C3638 0.949 . S
C3633 H3628 0.950 . S
C3633 C3635 1.327 . S
C3633 C3639 1.429 . S
C3634 C3626 1.574 . S
C3634 H3629 0.949 . S
C3634 C3640 1.368 . S
C3635 C3619 1.349 . S
C3635 H3627 0.950 . S
C3635 C3633 1.327 . S
C3636 C3624 1.349 . S
C3636 H3630 0.950 . S
C3636 C3637 1.327 . S
C3637 H3631 0.950 . S
C3637 C3636 1.327 . S
C3637 C3641 1.429 . S
C3638 C3621 1.574 . S
C3638 H3632 0.949 . S
C3638 C3642 1.368 . S
C3639 C3620 1.429 . S
C3639 C3633 1.429 . S
C3639 C3640 1.523 . S
C3640 C3621 1.368 . S
C3640 C3634 1.368 . S
C3640 C3639 1.523 . S
C3641 C3625 1.429 . S
C3641 C3637 1.429 . S
C3641 C3642 1.523 . S
C3642 C3626 1.368 . S
C3642 C3638 1.368 . S
C3642 C3641 1.523 . S
H3643 C3618 0.950 . S
H3644 C3620 0.950 . S
H3645 C3621 0.949 . S
H3646 C3623 0.950 . S
H3647 C3625 0.950 . S
C3648 C3649 1.349 . S
C3648 C3650 1.327 . S
C3648 H3673 0.950 . S
C3649 C3648 1.349 . S
C3649 C3665 1.349 . S
C3650 C3648 1.327 . S
C3650 C3669 1.429 . S
C3650 H3674 0.950 . S
C3651 C3668 1.574 . S
C3651 C3670 1.368 . S
C3651 H3675 0.949 . S
H3652 C3656 0.949 . S
C3653 C3654 1.349 . S
C3653 C3655 1.327 . S
C3653 H3676 0.950 . S
C3654 C3653 1.349 . S
C3654 C3666 1.349 . S
C3655 C3653 1.327 . S
C3655 C3671 1.429 . S
C3655 H3677 0.950 . S
C3656 H3652 0.949 . S
C3656 C3664 1.574 . S
C3656 C3672 1.368 . S
H3657 C3665 0.950 . S
H3658 C3663 0.950 . S
H3659 C3664 0.949 . S
H3660 C3666 0.950 . S
H3661 C3667 0.950 . S
H3662 C3668 0.949 . S
C3663 H3658 0.950 . S
C3663 C3665 1.327 . S
C3663 C3669 1.429 . S
C3664 C3656 1.574 . S
C3664 H3659 0.949 . S
C3664 C3670 1.368 . S
C3665 C3649 1.349 . S
C3665 H3657 0.950 . S
C3665 C3663 1.327 . S
C3666 C3654 1.349 . S
C3666 H3660 0.950 . S
C3666 C3667 1.327 . S
C3667 H3661 0.950 . S
C3667 C3666 1.327 . S
C3667 C3671 1.429 . S
C3668 C3651 1.574 . S
C3668 H3662 0.949 . S
C3668 C3672 1.368 . S
C3669 C3650 1.429 . S
C3669 C3663 1.429 . S
C3669 C3670 1.523 . S
C3670 C3651 1.368 . S
C3670 C3664 1.368 . S
C3670 C3669 1.523 . S
C3671 C3655 1.429 . S
C3671 C3667 1.429 . S
C3671 C3672 1.523 . S
C3672 C3656 1.368 . S
C3672 C3668 1.368 . S
C3672 C3671 1.523 . S
H3673 C3648 0.950 . S
H3674 C3650 0.950 . S
H3675 C3651 0.949 . S
H3676 C3653 0.950 . S
H3677 C3655 0.950 . S
C3678 C3679 1.349 . S
C3678 C3680 1.327 . S
C3678 H3703 0.950 . S
C3679 C3678 1.349 . S
C3679 C3695 1.349 . S
C3680 C3678 1.327 . S
C3680 C3699 1.429 . S
C3680 H3704 0.950 . S
C3681 C3698 1.574 . S
C3681 C3700 1.368 . S
C3681 H3705 0.949 . S
H3682 C3686 0.949 . S
C3683 C3684 1.349 . S
C3683 C3685 1.327 . S
C3683 H3706 0.950 . S
C3684 C3683 1.349 . S
C3684 C3696 1.349 . S
C3685 C3683 1.327 . S
C3685 C3701 1.429 . S
C3685 H3707 0.950 . S
C3686 H3682 0.949 . S
C3686 C3694 1.574 . S
C3686 C3702 1.368 . S
H3687 C3695 0.950 . S
H3688 C3693 0.950 . S
H3689 C3694 0.949 . S
H3690 C3696 0.950 . S
H3691 C3697 0.950 . S
H3692 C3698 0.949 . S
C3693 H3688 0.950 . S
C3693 C3695 1.327 . S
C3693 C3699 1.429 . S
C3694 C3686 1.574 . S
C3694 H3689 0.949 . S
C3694 C3700 1.368 . S
C3695 C3679 1.349 . S
C3695 H3687 0.950 . S
C3695 C3693 1.327 . S
C3696 C3684 1.349 . S
C3696 H3690 0.950 . S
C3696 C3697 1.327 . S
C3697 H3691 0.950 . S
C3697 C3696 1.327 . S
C3697 C3701 1.429 . S
C3698 C3681 1.574 . S
C3698 H3692 0.949 . S
C3698 C3702 1.368 . S
C3699 C3680 1.429 . S
C3699 C3693 1.429 . S
C3699 C3700 1.523 . S
C3700 C3681 1.368 . S
C3700 C3694 1.368 . S
C3700 C3699 1.523 . S
C3701 C3685 1.429 . S
C3701 C3697 1.429 . S
C3701 C3702 1.523 . S
C3702 C3686 1.368 . S
C3702 C3698 1.368 . S
C3702 C3701 1.523 . S
H3703 C3678 0.950 . S
H3704 C3680 0.950 . S
H3705 C3681 0.949 . S
H3706 C3683 0.950 . S
H3707 C3685 0.950 . S
C3708 C3709 1.349 . S
C3708 C3710 1.327 . S
C3708 H3733 0.950 . S
C3709 C3708 1.349 . S
C3709 C3725 1.349 . S
C3710 C3708 1.327 . S
C3710 C3729 1.429 . S
C3710 H3734 0.950 . S
C3711 C3728 1.574 . S
C3711 C3730 1.368 . S
C3711 H3735 0.949 . S
H3712 C3716 0.949 . S
C3713 C3714 1.349 . S
C3713 C3715 1.327 . S
C3713 H3736 0.950 . S
C3714 C3713 1.349 . S
C3714 C3726 1.349 . S
C3715 C3713 1.327 . S
C3715 C3731 1.429 . S
C3715 H3737 0.950 . S
C3716 H3712 0.949 . S
C3716 C3724 1.574 . S
C3716 C3732 1.368 . S
H3717 C3725 0.950 . S
H3718 C3723 0.950 . S
H3719 C3724 0.949 . S
H3720 C3726 0.950 . S
H3721 C3727 0.950 . S
H3722 C3728 0.949 . S
C3723 H3718 0.950 . S
C3723 C3725 1.327 . S
C3723 C3729 1.429 . S
C3724 C3716 1.574 . S
C3724 H3719 0.949 . S
C3724 C3730 1.368 . S
C3725 C3709 1.349 . S
C3725 H3717 0.950 . S
C3725 C3723 1.327 . S
C3726 C3714 1.349 . S
C3726 H3720 0.950 . S
C3726 C3727 1.327 . S
C3727 H3721 0.950 . S
C3727 C3726 1.327 . S
C3727 C3731 1.429 . S
C3728 C3711 1.574 . S
C3728 H3722 0.949 . S
C3728 C3732 1.368 . S
C3729 C3710 1.429 . S
C3729 C3723 1.429 . S
C3729 C3730 1.523 . S
C3730 C3711 1.368 . S
C3730 C3724 1.368 . S
C3730 C3729 1.523 . S
C3731 C3715 1.429 . S
C3731 C3727 1.429 . S
C3731 C3732 1.523 . S
C3732 C3716 1.368 . S
C3732 C3728 1.368 . S
C3732 C3731 1.523 . S
H3733 C3708 0.950 . S
H3734 C3710 0.950 . S
H3735 C3711 0.949 . S
H3736 C3713 0.950 . S
H3737 C3715 0.950 . S
C3738 C3739 1.349 . S
C3738 C3740 1.327 . S
C3738 H3763 0.950 . S
C3739 C3738 1.349 . S
C3739 C3755 1.349 . S
C3740 C3738 1.327 . S
C3740 C3759 1.429 . S
C3740 H3764 0.950 . S
C3741 C3758 1.574 . S
C3741 C3760 1.368 . S
C3741 H3765 0.949 . S
H3742 C3746 0.949 . S
C3743 C3744 1.349 . S
C3743 C3745 1.327 . S
C3743 H3766 0.950 . S
C3744 C3743 1.349 . S
C3744 C3756 1.349 . S
C3745 C3743 1.327 . S
C3745 C3761 1.429 . S
C3745 H3767 0.950 . S
C3746 H3742 0.949 . S
C3746 C3754 1.574 . S
C3746 C3762 1.368 . S
H3747 C3755 0.950 . S
H3748 C3753 0.950 . S
H3749 C3754 0.949 . S
H3750 C3756 0.950 . S
H3751 C3757 0.950 . S
H3752 C3758 0.949 . S
C3753 H3748 0.950 . S
C3753 C3755 1.327 . S
C3753 C3759 1.429 . S
C3754 C3746 1.574 . S
C3754 H3749 0.949 . S
C3754 C3760 1.368 . S
C3755 C3739 1.349 . S
C3755 H3747 0.950 . S
C3755 C3753 1.327 . S
C3756 C3744 1.349 . S
C3756 H3750 0.950 . S
C3756 C3757 1.327 . S
C3757 H3751 0.950 . S
C3757 C3756 1.327 . S
C3757 C3761 1.429 . S
C3758 C3741 1.574 . S
C3758 H3752 0.949 . S
C3758 C3762 1.368 . S
C3759 C3740 1.429 . S
C3759 C3753 1.429 . S
C3759 C3760 1.523 . S
C3760 C3741 1.368 . S
C3760 C3754 1.368 . S
C3760 C3759 1.523 . S
C3761 C3745 1.429 . S
C3761 C3757 1.429 . S
C3761 C3762 1.523 . S
C3762 C3746 1.368 . S
C3762 C3758 1.368 . S
C3762 C3761 1.523 . S
H3763 C3738 0.950 . S
H3764 C3740 0.950 . S
H3765 C3741 0.949 . S
H3766 C3743 0.950 . S
H3767 C3745 0.950 . S
C3768 C3769 1.349 . S
C3768 C3770 1.327 . S
C3768 H3793 0.950 . S
C3769 C3768 1.349 . S
C3769 C3785 1.349 . S
C3770 C3768 1.327 . S
C3770 C3789 1.429 . S
C3770 H3794 0.950 . S
C3771 C3788 1.574 . S
C3771 C3790 1.368 . S
C3771 H3795 0.949 . S
H3772 C3776 0.949 . S
C3773 C3774 1.349 . S
C3773 C3775 1.327 . S
C3773 H3796 0.950 . S
C3774 C3773 1.349 . S
C3774 C3786 1.349 . S
C3775 C3773 1.327 . S
C3775 C3791 1.429 . S
C3775 H3797 0.950 . S
C3776 H3772 0.949 . S
C3776 C3784 1.574 . S
C3776 C3792 1.368 . S
H3777 C3785 0.950 . S
H3778 C3783 0.950 . S
H3779 C3784 0.949 . S
H3780 C3786 0.950 . S
H3781 C3787 0.950 . S
H3782 C3788 0.949 . S
C3783 H3778 0.950 . S
C3783 C3785 1.327 . S
C3783 C3789 1.429 . S
C3784 C3776 1.574 . S
C3784 H3779 0.949 . S
C3784 C3790 1.368 . S
C3785 C3769 1.349 . S
C3785 H3777 0.950 . S
C3785 C3783 1.327 . S
C3786 C3774 1.349 . S
C3786 H3780 0.950 . S
C3786 C3787 1.327 . S
C3787 H3781 0.950 . S
C3787 C3786 1.327 . S
C3787 C3791 1.429 . S
C3788 C3771 1.574 . S
C3788 H3782 0.949 . S
C3788 C3792 1.368 . S
C3789 C3770 1.429 . S
C3789 C3783 1.429 . S
C3789 C3790 1.523 . S
C3790 C3771 1.368 . S
C3790 C3784 1.368 . S
C3790 C3789 1.523 . S
C3791 C3775 1.429 . S
C3791 C3787 1.429 . S
C3791 C3792 1.523 . S
C3792 C3776 1.368 . S
C3792 C3788 1.368 . S
C3792 C3791 1.523 . S
H3793 C3768 0.950 . S
H3794 C3770 0.950 . S
H3795 C3771 0.949 . S
H3796 C3773 0.950 . S
H3797 C3775 0.950 . S
C3798 C3799 1.349 . S
C3798 C3800 1.327 . S
C3798 H3823 0.950 . S
C3799 C3798 1.349 . S
C3799 C3815 1.349 . S
C3800 C3798 1.327 . S
C3800 C3819 1.429 . S
C3800 H3824 0.950 . S
C3801 C3818 1.574 . S
C3801 C3820 1.368 . S
C3801 H3825 0.949 . S
H3802 C3806 0.949 . S
C3803 C3804 1.349 . S
C3803 C3805 1.327 . S
C3803 H3826 0.950 . S
C3804 C3803 1.349 . S
C3804 C3816 1.349 . S
C3805 C3803 1.327 . S
C3805 C3821 1.429 . S
C3805 H3827 0.950 . S
C3806 H3802 0.949 . S
C3806 C3814 1.574 . S
C3806 C3822 1.368 . S
H3807 C3815 0.950 . S
H3808 C3813 0.950 . S
H3809 C3814 0.949 . S
H3810 C3816 0.950 . S
H3811 C3817 0.950 . S
H3812 C3818 0.949 . S
C3813 H3808 0.950 . S
C3813 C3815 1.327 . S
C3813 C3819 1.429 . S
C3814 C3806 1.574 . S
C3814 H3809 0.949 . S
C3814 C3820 1.368 . S
C3815 C3799 1.349 . S
C3815 H3807 0.950 . S
C3815 C3813 1.327 . S
C3816 C3804 1.349 . S
C3816 H3810 0.950 . S
C3816 C3817 1.327 . S
C3817 H3811 0.950 . S
C3817 C3816 1.327 . S
C3817 C3821 1.429 . S
C3818 C3801 1.574 . S
C3818 H3812 0.949 . S
C3818 C3822 1.368 . S
C3819 C3800 1.429 . S
C3819 C3813 1.429 . S
C3819 C3820 1.523 . S
C3820 C3801 1.368 . S
C3820 C3814 1.368 . S
C3820 C3819 1.523 . S
C3821 C3805 1.429 . S
C3821 C3817 1.429 . S
C3821 C3822 1.523 . S
C3822 C3806 1.368 . S
C3822 C3818 1.368 . S
C3822 C3821 1.523 . S
H3823 C3798 0.950 . S
H3824 C3800 0.950 . S
H3825 C3801 0.949 . S
H3826 C3803 0.950 . S
H3827 C3805 0.950 . S
C3828 C3829 1.349 . S
C3828 C3830 1.327 . S
C3828 H3853 0.950 . S
C3829 C3828 1.349 . S
C3829 C3845 1.349 . S
C3830 C3828 1.327 . S
C3830 C3849 1.429 . S
C3830 H3854 0.950 . S
C3831 C3848 1.574 . S
C3831 C3850 1.368 . S
C3831 H3855 0.949 . S
H3832 C3836 0.949 . S
C3833 C3834 1.349 . S
C3833 C3835 1.327 . S
C3833 H3856 0.950 . S
C3834 C3833 1.349 . S
C3834 C3846 1.349 . S
C3835 C3833 1.327 . S
C3835 C3851 1.429 . S
C3835 H3857 0.950 . S
C3836 H3832 0.949 . S
C3836 C3844 1.574 . S
C3836 C3852 1.368 . S
H3837 C3845 0.950 . S
H3838 C3843 0.950 . S
H3839 C3844 0.949 . S
H3840 C3846 0.950 . S
H3841 C3847 0.950 . S
H3842 C3848 0.949 . S
C3843 H3838 0.950 . S
C3843 C3845 1.327 . S
C3843 C3849 1.429 . S
C3844 C3836 1.574 . S
C3844 H3839 0.949 . S
C3844 C3850 1.368 . S
C3845 C3829 1.349 . S
C3845 H3837 0.950 . S
C3845 C3843 1.327 . S
C3846 C3834 1.349 . S
C3846 H3840 0.950 . S
C3846 C3847 1.327 . S
C3847 H3841 0.950 . S
C3847 C3846 1.327 . S
C3847 C3851 1.429 . S
C3848 C3831 1.574 . S
C3848 H3842 0.949 . S
C3848 C3852 1.368 . S
C3849 C3830 1.429 . S
C3849 C3843 1.429 . S
C3849 C3850 1.523 . S
C3850 C3831 1.368 . S
C3850 C3844 1.368 . S
C3850 C3849 1.523 . S
C3851 C3835 1.429 . S
C3851 C3847 1.429 . S
C3851 C3852 1.523 . S
C3852 C3836 1.368 . S
C3852 C3848 1.368 . S
C3852 C3851 1.523 . S
H3853 C3828 0.950 . S
H3854 C3830 0.950 . S
H3855 C3831 0.949 . S
H3856 C3833 0.950 . S
H3857 C3835 0.950 . S
C3858 C3859 1.349 . S
C3858 C3860 1.327 . S
C3858 H3883 0.950 . S
C3859 C3858 1.349 . S
C3859 C3875 1.349 . S
C3860 C3858 1.327 . S
C3860 C3879 1.429 . S
C3860 H3884 0.950 . S
C3861 C3878 1.574 . S
C3861 C3880 1.368 . S
C3861 H3885 0.949 . S
H3862 C3866 0.949 . S
C3863 C3864 1.349 . S
C3863 C3865 1.327 . S
C3863 H3886 0.950 . S
C3864 C3863 1.349 . S
C3864 C3876 1.349 . S
C3865 C3863 1.327 . S
C3865 C3881 1.429 . S
C3865 H3887 0.950 . S
C3866 H3862 0.949 . S
C3866 C3874 1.574 . S
C3866 C3882 1.368 . S
H3867 C3875 0.950 . S
H3868 C3873 0.950 . S
H3869 C3874 0.949 . S
H3870 C3876 0.950 . S
H3871 C3877 0.950 . S
H3872 C3878 0.949 . S
C3873 H3868 0.950 . S
C3873 C3875 1.327 . S
C3873 C3879 1.429 . S
C3874 C3866 1.574 . S
C3874 H3869 0.949 . S
C3874 C3880 1.368 . S
C3875 C3859 1.349 . S
C3875 H3867 0.950 . S
C3875 C3873 1.327 . S
C3876 C3864 1.349 . S
C3876 H3870 0.950 . S
C3876 C3877 1.327 . S
C3877 H3871 0.950 . S
C3877 C3876 1.327 . S
C3877 C3881 1.429 . S
C3878 C3861 1.574 . S
C3878 H3872 0.949 . S
C3878 C3882 1.368 . S
C3879 C3860 1.429 . S
C3879 C3873 1.429 . S
C3879 C3880 1.523 . S
C3880 C3861 1.368 . S
C3880 C3874 1.368 . S
C3880 C3879 1.523 . S
C3881 C3865 1.429 . S
C3881 C3877 1.429 . S
C3881 C3882 1.523 . S
C3882 C3866 1.368 . S
C3882 C3878 1.368 . S
C3882 C3881 1.523 . S
H3883 C3858 0.950 . S
H3884 C3860 0.950 . S
H3885 C3861 0.949 . S
H3886 C3863 0.950 . S
H3887 C3865 0.950 . S
C1189 C536 1.364 . S
C1194 C28 1.356 1_556 S
C1219 C61 1.356 1_556 S
C1224 C569 1.364 . S
C1249 C503 1.364 . S
C1254 C94 1.355 1_556 S
C1279 C107 1.364 . S
C1284 C886 1.356 . S
C1309 C820 1.356 . S
C1314 C140 1.364 . S
C1339 C173 1.364 . S
C1344 C853 1.356 . S
C1369 C226 1.472 1_554 S
C1374 C1150 1.472 . S
C1399 C259 1.472 1_554 S
C1404 C1183 1.472 . S
C1429 C292 1.472 1_554 S
C1434 C1117 1.472 . S
C1459 C325 1.472 . S
C1464 C688 1.472 . S
C1489 C358 1.472 . S
C1494 C622 1.472 . S
C1519 C391 1.472 . S
C1524 C655 1.472 . S
C1549 C424 1.356 . S
C1554 C932 1.364 . S
C1579 C965 1.364 . S
C1584 C457 1.356 . S
C1609 C899 1.364 . S
C1614 C490 1.356 . S
C1639 C1084 1.472 . S
C1644 C721 1.472 . S
C1669 C1018 1.472 . S
C1674 C754 1.472 . S
C1699 C787 1.472 . S
C1704 C1051 1.472 . S
C1729 N962 1.505 . S
C1734 N14 1.484 . S
C1759 N47 1.484 . S
C1764 N896 1.506 . S
C1789 N80 1.484 . S
C1794 N929 1.505 . S
C1819 N104 1.506 . S
C1824 N443 1.484 . S
C1849 N137 1.505 . S
C1854 N476 1.484 . S
C1879 N410 1.484 . S
C1884 N170 1.505 . S
C1909 N773 1.538 . S
C1914 N212 1.546 . S
C1939 N245 1.546 . S
C1944 N707 1.538 . S
C1969 N278 1.546 . S
C1974 N740 1.538 . S
C1999 N1037 1.546 . S
C2004 N311 1.538 . S
C2029 N1070 1.546 . S
C2034 N344 1.538 . S
C2059 N1004 1.546 . S
C2064 N377 1.538 . S
C2089 N500 1.506 . S
C2094 N839 1.484 . S
C2119 N533 1.505 . S
C2124 N872 1.484 . S
C2149 N566 1.505 . S
C2154 N806 1.484 . S
C2179 N608 1.546 . S
C2184 N1169 1.538 . S
C2209 N1103 1.538 . S
C2214 N641 1.546 . S
C2239 N674 1.546 . S
C2244 N1136 1.538 . S
C2269 C17 1.249 . S
C2274 C611 1.249 . S
C2299 C50 1.249 . S
C2304 C644 1.249 . S
C2329 C677 1.249 . S
C2334 C83 1.250 . S
C2359 C116 1.198 . S
C2364 C1106 1.203 . S
C2389 C149 1.199 . S
C2394 C1139 1.204 . S
C2419 C182 1.199 . S
C2424 C1172 1.204 . S
C2449 C809 1.249 . S
C2454 C215 1.249 . S
C2479 C248 1.249 . S
C2484 C842 1.249 . S
C2509 C875 1.250 . S
C2514 C281 1.249 . S
C2539 C512 1.198 . S
C2544 C314 1.203 . S
C2569 C545 1.199 . S
C2574 C347 1.204 . S
C2599 C380 1.204 . S
C2604 C578 1.199 . S
C2629 C1007 1.249 . S
C2634 C413 1.249 . S
C2659 C1040 1.249 . S
C2664 C446 1.249 . S
C2689 C479 1.250 . S
C2694 C1073 1.249 . S
C2719 C908 1.198 . S
C2724 C710 1.203 . S
C2749 C743 1.204 . S
C2754 C941 1.199 . S
C2779 C974 1.199 . S
C2784 C776 1.204 . S
C2809 N5 1.320 . S
C2814 C239 1.318 . S
C2839 N38 1.321 . S
C2844 C272 1.318 . S
C2869 C206 1.318 . S
C2874 N71 1.320 . S
C2899 C371 1.349 . S
C2904 N113 1.344 . S
C2929 C305 1.349 . S
C2934 N146 1.344 . S
C2959 C338 1.349 . S
C2964 N179 1.344 . S
C2989 C41 1.394 . S
C2994 N203 1.397 . S
C3019 C74 1.395 . S
C3024 N236 1.397 . S
C3049 C8 1.395 . S
C3054 N269 1.397 . S
C3079 N302 1.314 . S
C3084 C193 1.300 . S
C3109 N335 1.314 . S
C3114 C127 1.299 . S
C3139 C160 1.299 . S
C3144 N368 1.314 . S
C3169 C635 1.318 . S
C3174 N401 1.320 . S
C3199 N434 1.321 . S
C3204 C668 1.318 . S
C3229 C602 1.318 . S
C3234 N467 1.320 . S
C3259 C767 1.349 . S
C3264 N509 1.344 . S
C3289 N542 1.343 . S
C3294 C701 1.349 . S
C3319 N575 1.344 . S
C3324 C734 1.349 . S
C3349 N599 1.397 . S
C3354 C437 1.395 . S
C3379 N632 1.397 . S
C3384 C470 1.395 . S
C3409 N665 1.397 . S
C3414 C404 1.395 . S
C3439 N698 1.314 . S
C3444 C589 1.300 . S
C3469 C523 1.299 . S
C3474 N731 1.314 . S
C3499 C556 1.299 . S
C3504 N764 1.314 . S
C3529 C1031 1.318 . S
C3534 N797 1.320 . S
C3559 C1064 1.318 . S
C3564 N830 1.321 . S
C3589 C998 1.318 . S
C3594 N863 1.320 . S
C3619 C1163 1.349 . S
C3624 N905 1.344 . S
C3649 N938 1.344 . S
C3654 C1097 1.349 . S
C3679 C1130 1.349 . S
C3684 N971 1.344 . S
C3709 C833 1.395 . S
C3714 N995 1.397 . S
C3739 C866 1.395 . S
C3744 N1028 1.397 . S
C3769 C800 1.395 . S
C3774 N1061 1.397 . S
C3799 N1094 1.314 . S
C3804 C985 1.300 . S
C3829 N1127 1.314 . S
C3834 C919 1.299 . S
C3859 C952 1.299 . S
C3864 N1160 1.314 . S
