# Generated by pormake.
# Topology mmt, (4)-cn, num edge types: 1
# Building blocks:
#     Node 0, Type 0, BuildingBlock: CEKHIL_clean_sbu_0, # of connection points: 4
#     Node 1, Type 0, BuildingBlock: CEKHIL_clean_sbu_0, # of connection points: 4
#     Node 2, Type 0, BuildingBlock: CEKHIL_clean_sbu_0, # of connection points: 4
#     Node 3, Type 0, BuildingBlock: CEKHIL_clean_sbu_0, # of connection points: 4
#     Node 4, Type 0, BuildingBlock: CEKHIL_clean_sbu_0, # of connection points: 4
#     Node 5, Type 0, BuildingBlock: CEKHIL_clean_sbu_0, # of connection points: 4
#     Node 6, Type 0, BuildingBlock: CEKHIL_clean_sbu_0, # of connection points: 4
#     Node 7, Type 0, BuildingBlock: CEKHIL_clean_sbu_0, # of connection points: 4
#     Edge 8, Type (0, 0), BuildingBlock: UVAHIK_clean_linker_0, # of connection points: 2
#     Edge 9, Type (0, 0), BuildingBlock: UVAHIK_clean_linker_0, # of connection points: 2
#     Edge 10, Type (0, 0), BuildingBlock: UVAHIK_clean_linker_0, # of connection points: 2
#     Edge 11, Type (0, 0), BuildingBlock: UVAHIK_clean_linker_0, # of connection points: 2
#     Edge 12, Type (0, 0), BuildingBlock: UVAHIK_clean_linker_0, # of connection points: 2
#     Edge 13, Type (0, 0), BuildingBlock: UVAHIK_clean_linker_0, # of connection points: 2
#     Edge 14, Type (0, 0), BuildingBlock: UVAHIK_clean_linker_0, # of connection points: 2
#     Edge 15, Type (0, 0), BuildingBlock: UVAHIK_clean_linker_0, # of connection points: 2
#     Edge 16, Type (0, 0), BuildingBlock: UVAHIK_clean_linker_0, # of connection points: 2
#     Edge 17, Type (0, 0), BuildingBlock: UVAHIK_clean_linker_0, # of connection points: 2
#     Edge 18, Type (0, 0), BuildingBlock: UVAHIK_clean_linker_0, # of connection points: 2
#     Edge 19, Type (0, 0), BuildingBlock: UVAHIK_clean_linker_0, # of connection points: 2
#     Edge 20, Type (0, 0), BuildingBlock: UVAHIK_clean_linker_0, # of connection points: 2
#     Edge 21, Type (0, 0), BuildingBlock: UVAHIK_clean_linker_0, # of connection points: 2
#     Edge 22, Type (0, 0), BuildingBlock: UVAHIK_clean_linker_0, # of connection points: 2
#     Edge 23, Type (0, 0), BuildingBlock: UVAHIK_clean_linker_0, # of connection points: 2
# Relax obj value: 0.033
# Max RMSD: 0.050
# Mean RMSD: 0.050
data_MOF--net-mmt--node1-CEKHIL_clean_sbu_0--edge1-UVAHIK_clean_linker_0
_symmetry_space_group_name_H-M    P1
_symmetry_Int_Tables_number       1
_symmetry_cell_setting            triclinic
loop_
_symmetry_equiv_pos_as_xyz
'x, y, z'
_cell_length_a     28.89728
_cell_length_b     47.537562
_cell_length_c     56.817249
_cell_angle_alpha  90.020433
_cell_angle_beta   89.99475
_cell_angle_gamma 89.994601
loop_
_atom_site_label
_atom_site_type_symbol
_atom_site_fract_x
_atom_site_fract_y
_atom_site_fract_z
_atom_type_partial_charge
Co0 Co 0.09106 0.57603 0.35772 0.0
O1 O 0.04908 0.57923 0.38399 0.0
O2 O 0.0908 0.54147 0.37592 0.0
C3 C 0.12608 0.61807 0.36321 0.0
O4 O 0.13964 0.56536 0.33306 0.0
Co5 Co 0.08755 0.61818 0.31597 0.0
O6 O 0.14745 0.60078 0.30715 0.0
C7 C 0.0177 0.57281 0.31911 0.0
C8 C 0.06165 0.554 0.3899 0.0
C9 C 0.16038 0.5772 0.31556 0.0
O10 O 0.03934 0.56182 0.33672 0.0
O11 O 0.02953 0.59625 0.30976 0.0
O12 O 0.13864 0.59627 0.37542 0.0
O13 O 0.09058 0.61437 0.34977 0.0
Co14 Co 0.4082 0.9236 0.35772 0.0
O15 O 0.45015 0.92042 0.38399 0.0
O16 O 0.4086 0.95821 0.37587 0.0
C17 C 0.37302 0.88162 0.36326 0.0
O18 O 0.35969 0.93426 0.33302 0.0
Co19 Co 0.41166 0.88128 0.31605 0.0
O20 O 0.35177 0.89869 0.30723 0.0
C21 C 0.48167 0.92658 0.31913 0.0
C22 C 0.4377 0.94568 0.38987 0.0
C23 C 0.33891 0.92233 0.31556 0.0
O24 O 0.46001 0.93767 0.3367 0.0
O25 O 0.46978 0.90311 0.30983 0.0
O26 O 0.36052 0.90347 0.37543 0.0
O27 O 0.40855 0.88525 0.34983 0.0
Co28 Co 0.59115 0.42315 0.15154 0.0
O29 O 0.54921 0.42 0.12525 0.0
O30 O 0.59092 0.45774 0.13338 0.0
C31 C 0.62617 0.38111 0.14601 0.0
O32 O 0.6397 0.43378 0.17623 0.0
Co33 Co 0.58758 0.38094 0.19325 0.0
O34 O 0.64744 0.39834 0.20212 0.0
C35 C 0.51773 0.42633 0.19013 0.0
C36 C 0.56179 0.44525 0.11938 0.0
C37 C 0.6604 0.42192 0.19373 0.0
O38 O 0.5394 0.43734 0.17254 0.0
O39 O 0.52953 0.40287 0.19946 0.0
O40 O 0.63874 0.40292 0.13384 0.0
O41 O 0.59065 0.3848 0.15945 0.0
Co42 Co 0.90815 0.07547 0.15101 0.0
O43 O 0.94999 0.07866 0.12469 0.0
O44 O 0.90844 0.04088 0.13283 0.0
C45 C 0.87298 0.11747 0.14554 0.0
O46 O 0.85974 0.06482 0.17576 0.0
Co47 Co 0.91183 0.11776 0.19271 0.0
O48 O 0.85203 0.10032 0.20163 0.0
C49 C 0.98182 0.07246 0.18948 0.0
C50 C 0.93748 0.05341 0.11881 0.0
C51 C 0.83908 0.07671 0.19327 0.0
O52 O 0.96004 0.06136 0.17196 0.0
O53 O 0.97002 0.09594 0.19879 0.0
O54 O 0.86041 0.09564 0.13337 0.0
O55 O 0.90857 0.11382 0.15892 0.0
Co56 Co 0.90995 0.42335 0.65148 0.0
O57 O 0.95178 0.42014 0.62515 0.0
O58 O 0.91019 0.45792 0.6333 0.0
C59 C 0.8748 0.38134 0.64601 0.0
O60 O 0.86154 0.43403 0.67622 0.0
Co61 Co 0.91365 0.38114 0.69319 0.0
O62 O 0.85383 0.39857 0.70211 0.0
C63 C 0.98358 0.42646 0.68997 0.0
C64 C 0.93924 0.44539 0.61927 0.0
C65 C 0.84088 0.42217 0.69374 0.0
O66 O 0.96183 0.43749 0.67241 0.0
O67 O 0.97178 0.403 0.6993 0.0
O68 O 0.86223 0.40316 0.63384 0.0
O69 O 0.91039 0.385 0.6594 0.0
Co70 Co 0.59138 0.07617 0.65133 0.0
O71 O 0.54966 0.0796 0.62498 0.0
O72 O 0.59091 0.04166 0.63305 0.0
C73 C 0.62688 0.11809 0.64603 0.0
O74 O 0.63964 0.06525 0.67608 0.0
Co75 Co 0.58784 0.11821 0.69319 0.0
O76 O 0.64748 0.10057 0.7021 0.0
C77 C 0.51751 0.07315 0.68972 0.0
C78 C 0.56199 0.05433 0.61905 0.0
C79 C 0.66031 0.07698 0.69366 0.0
O80 O 0.5393 0.0621 0.67217 0.0
O81 O 0.52945 0.09653 0.69915 0.0
O82 O 0.63932 0.09628 0.6338 0.0
O83 O 0.59122 0.11449 0.65938 0.0
Co84 Co 0.40988 0.57583 0.85788 0.0
O85 O 0.45171 0.57899 0.88421 0.0
O86 O 0.4101 0.54123 0.87602 0.0
C87 C 0.37475 0.61785 0.86337 0.0
O88 O 0.36146 0.56519 0.83313 0.0
Co89 Co 0.41356 0.61808 0.81619 0.0
O90 O 0.35373 0.60067 0.80727 0.0
C91 C 0.48349 0.57274 0.81937 0.0
C92 C 0.43916 0.55373 0.89005 0.0
C93 C 0.34079 0.57707 0.81562 0.0
O94 O 0.46175 0.5617 0.83692 0.0
O95 O 0.47168 0.5962 0.81005 0.0
O96 O 0.36217 0.59602 0.87553 0.0
O97 O 0.41034 0.61418 0.84998 0.0
Co98 Co 0.09132 0.92302 0.85735 0.0
O99 O 0.04936 0.9196 0.88361 0.0
O100 O 0.09065 0.95754 0.87561 0.0
C101 C 0.1268 0.8811 0.86277 0.0
O102 O 0.13977 0.93394 0.83271 0.0
Co103 Co 0.0883 0.88094 0.81552 0.0
O104 O 0.14802 0.89859 0.80675 0.0
C105 C 0.01795 0.92603 0.81873 0.0
C106 C 0.06163 0.94487 0.88956 0.0
C107 C 0.16066 0.92222 0.81519 0.0
O108 O 0.03944 0.93705 0.83638 0.0
O109 O 0.03005 0.90266 0.80932 0.0
O110 O 0.13912 0.90293 0.87501 0.0
O111 O 0.09127 0.88469 0.84933 0.0
C112 C 0.21149 0.53474 0.30986 0.0
C113 C 0.19942 0.56246 0.30376 0.0
C114 C 0.2465 0.52052 0.29762 0.0
C115 C 0.30951 0.52137 0.24075 0.0
H116 H 0.39547 0.47236 0.27327 0.0
C117 C 0.46833 0.46979 0.19487 0.0
C118 C 0.47876 0.44191 0.20124 0.0
C119 C 0.434 0.48489 0.20692 0.0
C120 C 0.37143 0.48574 0.26387 0.0
H121 H 0.21601 0.59717 0.28035 0.0
H122 H 0.27708 0.57256 0.25938 0.0
H123 H 0.33706 0.49786 0.29568 0.0
H124 H 0.45974 0.40781 0.22481 0.0
H125 H 0.40002 0.43389 0.24539 0.0
H126 H 0.34394 0.5092 0.20893 0.0
C127 C 0.2589 0.56158 0.27329 0.0
C128 C 0.33791 0.50037 0.27674 0.0
C129 C 0.22397 0.57576 0.28547 0.0
C130 C 0.45311 0.4293 0.21948 0.0
C131 C 0.41896 0.44434 0.23146 0.0
C132 C 0.34309 0.50675 0.22787 0.0
C133 C 0.27031 0.53367 0.27901 0.0
C134 C 0.3064 0.5183 0.26535 0.0
C135 C 0.40939 0.47244 0.2256 0.0
C136 C 0.3743 0.48863 0.23926 0.0
H137 H 0.19332 0.5238 0.32379 0.0
H138 H 0.2541 0.49895 0.30237 0.0
H139 H 0.28539 0.53469 0.23134 0.0
H140 H 0.48741 0.48021 0.18097 0.0
H141 H 0.42765 0.50657 0.20203 0.0
C142 C 0.04693 0.0698 0.21855 0.0
C143 C 0.02089 0.05697 0.20056 0.0
C144 C 0.08111 0.05485 0.23057 0.0
C145 C 0.15625 0.99207 0.22752 0.0
H146 H 0.163 0.00213 0.29521 0.0
C147 C 0.27507 0.92355 0.28562 0.0
C148 C 0.29991 0.93704 0.30371 0.0
C149 C 0.2402 0.93768 0.27336 0.0
C150 C 0.16196 0.9993 0.2763 0.0
H151 H 0.01161 0.01836 0.18076 0.0
H152 H 0.07143 0.99216 0.20189 0.0
H153 H 0.1047 0.02749 0.27264 0.0
H154 H 0.30661 0.976 0.32331 0.0
H155 H 0.24594 0.00075 0.30176 0.0
H156 H 0.21365 0.96394 0.23118 0.0
C157 C 0.06535 0.01394 0.20655 0.0
C158 C 0.12849 0.01384 0.26334 0.0
C159 C 0.031 0.02895 0.19446 0.0
C160 C 0.2882 0.9649 0.30955 0.0
C161 C 0.25326 0.97908 0.29722 0.0
C162 C 0.18977 0.97753 0.24049 0.0
C163 C 0.09032 0.02661 0.22501 0.0
C164 C 0.12536 0.01053 0.23877 0.0
C165 C 0.22916 0.96572 0.2788 0.0
C166 C 0.19315 0.98102 0.26505 0.0
H167 H 0.04058 0.09141 0.22365 0.0
H168 H 0.10034 0.06548 0.24431 0.0
H169 H 0.15519 0.98929 0.20861 0.0
H170 H 0.28275 0.90203 0.28072 0.0
H171 H 0.22179 0.92655 0.25962 0.0
C172 C 0.71159 0.46434 0.1994 0.0
C173 C 0.69942 0.43665 0.20555 0.0
C174 C 0.74659 0.47856 0.21165 0.0
C175 C 0.80942 0.4778 0.26856 0.0
H176 H 0.89564 0.52659 0.23598 0.0
C177 C 0.96824 0.52937 0.31443 0.0
C178 C 0.97875 0.55722 0.308 0.0
C179 C 0.93391 0.51425 0.30239 0.0
C180 C 0.87153 0.51327 0.2454 0.0
H181 H 0.7158 0.402 0.22904 0.0
H182 H 0.77687 0.42659 0.25002 0.0
H183 H 0.83723 0.50108 0.21359 0.0
H184 H 0.95987 0.59126 0.28434 0.0
H185 H 0.90017 0.56516 0.26378 0.0
H186 H 0.84379 0.49004 0.30038 0.0
C187 C 0.75878 0.43755 0.23607 0.0
C188 C 0.838 0.49864 0.23254 0.0
C189 C 0.72385 0.42338 0.22389 0.0
C190 C 0.95318 0.56978 0.28972 0.0
C191 C 0.91904 0.55474 0.27775 0.0
C192 C 0.843 0.49242 0.28143 0.0
C193 C 0.77029 0.46542 0.2303 0.0
C194 C 0.8064 0.48079 0.24395 0.0
C195 C 0.90939 0.52666 0.28366 0.0
C196 C 0.87431 0.51047 0.27002 0.0
H197 H 0.69351 0.47527 0.18544 0.0
H198 H 0.75429 0.5001 0.20685 0.0
H199 H 0.78523 0.46454 0.27798 0.0
H200 H 0.98725 0.51898 0.32837 0.0
H201 H 0.9275 0.4926 0.30733 0.0
C202 C 0.77565 0.07536 0.22344 0.0
C203 C 0.80011 0.062 0.20514 0.0
C204 C 0.74076 0.06122 0.23568 0.0
C205 C 0.66165 7e-05 0.23237 0.0
H206 H 0.65577 0.00914 0.30017 0.0
C207 C 0.54632 0.92935 0.2898 0.0
C208 C 0.52069 0.94206 0.30801 0.0
C209 C 0.58052 0.9443 0.27779 0.0
C210 C 0.65659 0.00662 0.28123 0.0
H211 H 0.80611 0.02327 0.18516 0.0
H212 H 0.74539 0.99851 0.20668 0.0
H213 H 0.71436 0.03448 0.27769 0.0
H214 H 0.51217 0.98045 0.3282 0.0
H215 H 0.57203 0.00665 0.3071 0.0
H216 H 0.60401 0.97215 0.23592 0.0
C217 C 0.75303 0.02009 0.21139 0.0
C218 C 0.69018 0.02116 0.26831 0.0
C219 C 0.788 0.03426 0.1991 0.0
C220 C 0.53122 0.96996 0.31433 0.0
C221 C 0.5656 0.98497 0.30225 0.0
C222 C 0.62811 0.98553 0.24528 0.0
C223 C 0.72931 0.03331 0.23001 0.0
C224 C 0.69323 0.01801 0.24371 0.0
C225 C 0.59017 0.97241 0.28359 0.0
C226 C 0.62529 0.9885 0.26989 0.0
H227 H 0.78364 0.09677 0.22852 0.0
H228 H 0.72264 0.07225 0.24958 0.0
H229 H 0.66244 0.99751 0.21343 0.0
H230 H 0.53962 0.90785 0.28451 0.0
H231 H 0.59942 0.93377 0.26388 0.0
C232 C 0.53296 0.52931 0.81462 0.0
C233 C 0.52253 0.55721 0.80829 0.0
C234 C 0.56734 0.51425 0.80257 0.0
C235 C 0.62997 0.51354 0.74565 0.0
H236 H 0.71604 0.46454 0.7781 0.0
C237 C 0.78984 0.46464 0.69954 0.0
C238 C 0.80191 0.43691 0.7056 0.0
C239 C 0.75487 0.47885 0.71183 0.0
C240 C 0.69191 0.47787 0.76871 0.0
H241 H 0.54162 0.59138 0.7848 0.0
H242 H 0.60142 0.56536 0.76422 0.0
H243 H 0.65747 0.48997 0.80056 0.0
H244 H 0.78539 0.40216 0.72898 0.0
H245 H 0.72438 0.42674 0.75002 0.0
H246 H 0.66433 0.50149 0.71382 0.0
C247 C 0.58244 0.55486 0.77812 0.0
C248 C 0.65832 0.49246 0.78162 0.0
C249 C 0.54824 0.56986 0.7901 0.0
C250 C 0.77742 0.42358 0.72389 0.0
C251 C 0.74252 0.43774 0.73611 0.0
C252 C 0.6635 0.49895 0.73275 0.0
C253 C 0.592 0.52675 0.78393 0.0
C254 C 0.6271 0.5106 0.77026 0.0
C255 C 0.7311 0.46566 0.73044 0.0
C256 C 0.69502 0.481 0.74412 0.0
H257 H 0.51384 0.51885 0.82848 0.0
H258 H 0.57369 0.49256 0.80743 0.0
H259 H 0.60592 0.52694 0.73627 0.0
H260 H 0.80797 0.4756 0.68561 0.0
H261 H 0.74725 0.50042 0.7071 0.0
C262 C 0.72352 0.07525 0.72393 0.0
C263 C 0.69918 0.06211 0.70549 0.0
C264 C 0.75836 0.06098 0.73609 0.0
C265 C 0.83763 -6e-05 0.73235 0.0
H266 H 0.84321 0.00822 0.80023 0.0
C267 C 0.95346 0.92892 0.7893 0.0
C268 C 0.97884 0.9415 0.80765 0.0
C269 C 0.91916 0.94388 0.77737 0.0
C270 C 0.84248 0.00592 0.78127 0.0
H271 H 0.69331 0.02362 0.68518 0.0
H272 H 0.75394 0.99861 0.70656 0.0
H273 H 0.78457 0.03371 0.7779 0.0
H274 H 0.98686 0.97969 0.82817 0.0
H275 H 0.92686 0.00591 0.80721 0.0
H276 H 0.89543 0.9721 0.73571 0.0
C277 C 0.74624 0.02013 0.71145 0.0
C278 C 0.80885 0.02055 0.76844 0.0
C279 C 0.71133 0.03445 0.69923 0.0
C280 C 0.968 0.96928 0.81418 0.0
C281 C 0.93353 0.98431 0.80219 0.0
C282 C 0.87121 0.98531 0.74517 0.0
C283 C 0.76987 0.03314 0.7302 0.0
C284 C 0.80592 0.01769 0.74381 0.0
C285 C 0.90917 0.97189 0.7834 0.0
C286 C 0.87394 0.98801 0.7698 0.0
H287 H 0.71549 0.09661 0.72917 0.0
H288 H 0.77639 0.07184 0.75011 0.0
H289 H 0.83692 0.9976 0.71339 0.0
H290 H 0.96042 0.9075 0.78385 0.0
H291 H 0.90045 0.93344 0.76335 0.0
C292 C 0.27726 0.5757 0.78551 0.0
C293 C 0.30182 0.56234 0.80376 0.0
C294 C 0.24237 0.56153 0.77329 0.0
C295 C 0.16353 0.50024 0.77658 0.0
H296 H 0.15733 0.5094 0.70879 0.0
C297 C 0.04842 0.42933 0.71918 0.0
C298 C 0.02262 0.442 0.70103 0.0
C299 C 0.0826 0.44434 0.73116 0.0
C300 C 0.15824 0.50686 0.72773 0.0
H301 H 0.30802 0.52359 0.82367 0.0
H302 H 0.24733 0.49878 0.80217 0.0
H303 H 0.21585 0.53483 0.73126 0.0
H304 H 0.01374 0.4804 0.68091 0.0
H305 H 0.07356 0.50671 0.70196 0.0
H306 H 0.10606 0.47218 0.77305 0.0
C307 C 0.25487 0.52038 0.79749 0.0
C308 C 0.19179 0.52145 0.74064 0.0
C309 C 0.28983 0.53458 0.80978 0.0
C310 C 0.03294 0.46993 0.69474 0.0
C311 C 0.0673 0.485 0.70678 0.0
C312 C 0.13003 0.48564 0.76367 0.0
C313 C 0.23103 0.5336 0.77892 0.0
C314 C 0.19496 0.51826 0.76523 0.0
C315 C 0.09204 0.47248 0.72539 0.0
C316 C 0.1271 0.48864 0.73907 0.0
H317 H 0.28517 0.59713 0.78046 0.0
H318 H 0.22417 0.57256 0.75941 0.0
H319 H 0.16442 0.49764 0.79551 0.0
H320 H 0.04188 0.4078 0.72444 0.0
H321 H 0.10164 0.43383 0.74502 0.0
C322 C 0.22428 0.92397 0.78514 0.0
C323 C 0.19944 0.93718 0.80338 0.0
C324 C 0.25887 0.93838 0.77289 0.0
C325 C 0.29735 0.01017 0.75801 0.0
H326 H 0.41095 0.97286 0.73935 0.0
C327 C 0.4522 0.07045 0.71869 0.0
C328 C 0.47813 0.05774 0.70059 0.0
C329 C 0.4174 0.05562 0.73035 0.0
C330 C 0.37914 0.98347 0.74412 0.0
H331 H 0.19259 0.97587 0.82334 0.0
H332 H 0.25331 0.00096 0.80203 0.0
H333 H 0.35353 0.94734 0.76248 0.0
H334 H 0.48672 0.01943 0.6803 0.0
H335 H 0.4254 0.99356 0.70059 0.0
H336 H 0.32289 0.04629 0.73968 0.0
C337 C 0.24546 0.9795 0.79704 0.0
C338 C 0.34626 0.96887 0.75746 0.0
C339 C 0.21087 0.96504 0.80938 0.0
C340 C 0.46752 0.02991 0.69413 0.0
C341 C 0.43261 0.015 0.70589 0.0
C342 C 0.33018 0.02476 0.74467 0.0
C343 C 0.26959 0.96642 0.7785 0.0
C344 C 0.305 0.98206 0.76463 0.0
C345 C 0.4074 0.02762 0.72429 0.0
C346 C 0.37159 0.01164 0.73762 0.0
H347 H 0.21661 0.90253 0.78 0.0
H348 H 0.27638 0.92773 0.75858 0.0
H349 H 0.2656 0.02082 0.76283 0.0
H350 H 0.45924 0.09183 0.72422 0.0
H351 H 0.39916 0.06592 0.7446 0.0
C352 C 0.06419 0.51555 0.42034 0.0
C353 C 0.04605 0.5413 0.41242 0.0
C354 C 0.05226 0.50501 0.44259 0.0
C355 C 0.00731 0.52839 0.50063 0.0
H356 H 0.98731 0.44876 0.51102 0.0
C357 C 0.93662 0.48385 0.58884 0.0
C358 C 0.95478 0.4581 0.59674 0.0
C359 C 0.94848 0.4944 0.56659 0.0
C360 C 0.99334 0.47104 0.50852 0.0
H361 H 1.00003 0.57572 0.42141 0.0
H362 H 0.97879 0.5572 0.45987 0.0
H363 H 0.00541 0.46566 0.47158 0.0
H364 H 0.00077 0.42368 0.58771 0.0
H365 H 0.02193 0.44222 0.54925 0.0
H366 H 0.99525 0.53377 0.53757 0.0
C367 C 0.00292 0.54536 0.44916 0.0
C368 C 0.0037 0.48074 0.48585 0.0
C369 C 0.01483 0.55587 0.42698 0.0
C370 C 0.98596 0.44353 0.58216 0.0
C371 C 0.99782 0.45406 0.55998 0.0
C372 C 0.99695 0.51869 0.5233 0.0
C373 C 0.02193 0.51998 0.45743 0.0
C374 C 0.0108 0.50955 0.48158 0.0
C375 C 0.97878 0.47944 0.55173 0.0
C376 C 0.98987 0.48988 0.52757 0.0
H377 H 0.08849 0.50386 0.40962 0.0
H378 H 0.06789 0.48552 0.44842 0.0
H379 H 0.01335 0.55067 0.49812 0.0
H380 H 0.91234 0.49553 0.59959 0.0
H381 H 0.93284 0.5139 0.56078 0.0
C382 C 0.4846 0.94382 0.42691 0.0
C383 C 0.45342 0.95842 0.41236 0.0
C384 C 0.49664 0.95437 0.44907 0.0
C385 C 0.49647 0.01908 0.48567 0.0
H386 H 0.50474 0.96614 0.53743 0.0
C387 C 0.51524 0.0564 0.58195 0.0
C388 C 0.5463 0.0417 0.5965 0.0
C389 C 0.50317 0.04591 0.55978 0.0
C390 C 0.50309 0.98119 0.52315 0.0
H391 H 0.4112 0.99595 0.40954 0.0
H392 H 0.43204 0.01436 0.4483 0.0
H393 H 0.48626 0.94921 0.49804 0.0
H394 H 0.58831 0.00409 0.59929 0.0
H395 H 0.56745 0.98579 0.5605 0.0
H396 H 0.51332 0.05106 0.51079 0.0
C397 C 0.44752 0.99482 0.44248 0.0
C398 C 0.49251 0.97148 0.50051 0.0
C399 C 0.43546 0.98423 0.42026 0.0
C400 C 0.56414 0.01588 0.58857 0.0
C401 C 0.55206 0.00536 0.56633 0.0
C402 C 0.50707 0.0288 0.50831 0.0
C403 C 0.47781 0.97982 0.45731 0.0
C404 C 0.4891 0.99028 0.48144 0.0
C405 C 0.52186 0.02044 0.55151 0.0
C406 C 0.51049 0.00999 0.52738 0.0
H407 H 0.49926 0.92393 0.42136 0.0
H408 H 0.52074 0.94251 0.45977 0.0
H409 H 0.49482 0.03413 0.47139 0.0
H410 H 0.50068 0.07631 0.58752 0.0
H411 H 0.47915 0.05784 0.54908 0.0
C412 C 0.56427 0.4838 0.08904 0.0
C413 C 0.54619 0.45801 0.09688 0.0
C414 C 0.55234 0.49442 0.06682 0.0
C415 C 0.46579 0.4875 0.01861 0.0
H416 H 0.56279 0.52021 0.98025 0.0
C417 C 0.43667 0.51515 0.92037 0.0
C418 C 0.45474 0.54095 0.91255 0.0
C419 C 0.4486 0.50451 0.94258 0.0
C420 C 0.53515 0.51139 0.99079 0.0
H421 H 0.50057 0.42347 0.08771 0.0
H422 H 0.48 0.44184 0.04913 0.0
H423 H 0.58056 0.50395 0.01993 0.0
H424 H 0.50035 0.57549 0.92175 0.0
H425 H 0.52091 0.55708 0.96032 0.0
H426 H 0.42038 0.49494 0.98948 0.0
C427 C 0.50307 0.45407 0.06013 0.0
C428 C 0.54533 0.50211 0.01361 0.0
C429 C 0.51505 0.44345 0.08227 0.0
C430 C 0.48587 0.5555 0.92718 0.0
C431 C 0.49785 0.54486 0.94931 0.0
C432 C 0.4556 0.49677 0.9958 0.0
C433 C 0.52195 0.47953 0.05196 0.0
C434 C 0.5108 0.49004 0.02784 0.0
C435 C 0.47899 0.51939 0.95745 0.0
C436 C 0.49014 0.50886 0.98157 0.0
H437 H 0.58835 0.49554 0.09985 0.0
H438 H 0.56703 0.51429 0.06127 0.0
H439 H 0.43815 0.47868 0.02915 0.0
H440 H 0.4126 0.50342 0.90955 0.0
H441 H 0.43392 0.48462 0.94812 0.0
C442 C 0.06358 0.98333 0.92003 0.0
C443 C 0.04579 0.9575 0.91208 0.0
C444 C 0.05141 0.99384 0.94226 0.0
C445 C 0.00634 0.97035 1.00025 0.0
H446 H 0.98558 0.04994 0.01057 0.0
C447 C 0.93505 0.01489 0.08839 0.0
C448 C 0.95308 0.04068 0.09629 0.0
C449 C 0.947 0.00432 0.06615 0.0
C450 C 0.99181 0.02767 0.00808 0.0
H451 H 0.00016 0.92288 0.92101 0.0
H452 H 0.97848 0.94134 0.95944 0.0
H453 H 0.004 0.03304 0.97116 0.0
H454 H 0.99892 0.07516 0.08725 0.0
H455 H 0.0202 0.0566 0.04881 0.0
H456 H 0.99414 0.965 0.03717 0.0
C457 C 0.00252 0.95328 0.94877 0.0
C458 C 0.00236 0.01797 0.98543 0.0
C459 C 0.01469 0.9428 0.9266 0.0
C460 C 0.9842 0.05528 0.0817 0.0
C461 C 0.99614 0.04474 0.05953 0.0
C462 C 0.99578 0.98005 0.0229 0.0
C463 C 0.02117 0.97875 0.95706 0.0
C464 C 0.00976 0.98917 0.98119 0.0
C465 C 0.97724 0.01931 0.05129 0.0
C466 C 0.98843 0.00886 0.02715 0.0
H467 H 0.08779 0.99512 0.90934 0.0
H468 H 0.06677 0.01341 0.94811 0.0
H469 H 0.01259 0.94809 0.99776 0.0
H470 H 0.91082 0.00318 0.09914 0.0
H471 H 0.93147 0.98478 0.06034 0.0
C472 C 0.19076 0.64823 0.37832 0.0
C473 C 0.15164 0.64502 0.3639 0.0
C474 C 0.21465 0.67382 0.379 0.0
C475 C 0.20104 0.74967 0.36596 0.0
H476 H 0.33521 0.74981 0.36624 0.0
C477 C 0.36207 0.83181 0.35022 0.0
C478 C 0.34734 0.85472 0.36393 0.0
C479 C 0.33818 0.80627 0.3509 0.0
C480 C 0.29774 0.75014 0.36604 0.0
H481 H 0.10695 0.66605 0.3388 0.0
H482 H 0.14879 0.71056 0.3398 0.0
H483 H 0.29362 0.70518 0.36581 0.0
H484 H 0.29598 0.86886 0.3891 0.0
H485 H 0.25433 0.82416 0.39041 0.0
H486 H 0.20516 0.79463 0.36568 0.0
C487 C 0.16072 0.69346 0.35084 0.0
C488 C 0.27389 0.72455 0.36606 0.0
C489 C 0.13691 0.66789 0.35015 0.0
C490 C 0.30811 0.85159 0.3783 0.0
C491 C 0.28413 0.82603 0.37895 0.0
C492 C 0.22488 0.77526 0.36599 0.0
C493 C 0.19986 0.69677 0.36529 0.0
C494 C 0.22525 0.72399 0.36588 0.0
C495 C 0.29894 0.80303 0.36529 0.0
C496 C 0.27353 0.77582 0.36589 0.0
H497 H 0.20289 0.631 0.38916 0.0
H498 H 0.24437 0.67574 0.3905 0.0
H499 H 0.16357 0.75 0.36609 0.0
H500 H 0.39211 0.83358 0.33891 0.0
H501 H 0.35012 0.78914 0.33989 0.0
C502 C 0.80802 0.14755 0.13061 0.0
C503 C 0.84731 0.14438 0.14493 0.0
C504 C 0.78405 0.17312 0.13001 0.0
C505 C 0.79776 0.24898 0.14301 0.0
H506 H 0.66359 0.24918 0.14304 0.0
C507 C 0.63699 0.33128 0.15904 0.0
C508 C 0.65172 0.35416 0.14531 0.0
C509 C 0.66079 0.3057 0.15832 0.0
C510 C 0.70106 0.2495 0.14316 0.0
H511 H 0.89218 0.16547 0.16993 0.0
H512 H 0.85021 0.20992 0.16905 0.0
H513 H 0.70515 0.20453 0.14338 0.0
H514 H 0.70296 0.36819 0.12004 0.0
H515 H 0.74442 0.32343 0.11866 0.0
H516 H 0.79368 0.29395 0.14329 0.0
C517 C 0.83821 0.19282 0.15803 0.0
C518 C 0.72489 0.22389 0.14308 0.0
C519 C 0.8621 0.16727 0.15865 0.0
C520 C 0.69084 0.35095 0.13087 0.0
C521 C 0.71471 0.32535 0.13017 0.0
C522 C 0.77393 0.27458 0.14303 0.0
C523 C 0.79893 0.19609 0.14369 0.0
C524 C 0.77353 0.22332 0.14314 0.0
C525 C 0.69992 0.3024 0.14387 0.0
C526 C 0.72529 0.27516 0.14324 0.0
H527 H 0.79585 0.1303 0.11979 0.0
H528 H 0.75422 0.17502 0.11859 0.0
H529 H 0.83523 0.2493 0.14278 0.0
H530 H 0.60704 0.33311 0.1704 0.0
H531 H 0.64886 0.2886 0.16936 0.0
C532 C 0.63804 0.16784 0.65923 0.0
C533 C 0.65268 0.14496 0.64546 0.0
C534 C 0.66202 0.19336 0.65861 0.0
C535 C 0.70261 0.24949 0.64355 0.0
H536 H 0.83678 0.24949 0.6433 0.0
C537 C 0.80987 0.35127 0.63106 0.0
C538 C 0.84912 0.35443 0.6454 0.0
C539 C 0.78586 0.32572 0.63045 0.0
C540 C 0.79931 0.24986 0.6435 0.0
H541 H 0.70398 0.13085 0.62025 0.0
H542 H 0.74576 0.1755 0.61903 0.0
H543 H 0.79505 0.2049 0.64376 0.0
H544 H 0.89392 0.33335 0.67042 0.0
H545 H 0.85188 0.28892 0.66954 0.0
H546 H 0.70686 0.29445 0.64379 0.0
C547 C 0.71598 0.17363 0.6305 0.0
C548 C 0.77538 0.22429 0.64349 0.0
C549 C 0.69192 0.14809 0.6311 0.0
C550 C 0.86386 0.33155 0.65913 0.0
C551 C 0.83993 0.30602 0.65851 0.0
C552 C 0.72653 0.27506 0.64351 0.0
C553 C 0.70125 0.19659 0.64422 0.0
C554 C 0.72674 0.22379 0.64365 0.0
C555 C 0.80066 0.30276 0.64415 0.0
C556 C 0.77518 0.27556 0.64361 0.0
H557 H 0.608 0.16607 0.67054 0.0
H558 H 0.65013 0.21047 0.66966 0.0
H559 H 0.66514 0.24987 0.6434 0.0
H560 H 0.79773 0.36851 0.62023 0.0
H561 H 0.75604 0.32383 0.61901 0.0
C562 C 0.30975 0.64791 0.87828 0.0
C563 C 0.34908 0.64476 0.86398 0.0
C564 C 0.28573 0.67347 0.87886 0.0
C565 C 0.22645 0.72413 0.86571 0.0
H566 H 0.29494 0.79429 0.86555 0.0
C567 C 0.13808 0.83132 0.84967 0.0
C568 C 0.15259 0.85423 0.86344 0.0
C569 C 0.16205 0.8058 0.85039 0.0
C570 C 0.27528 0.7749 0.8658 0.0
H571 H 0.39399 0.66586 0.83902 0.0
H572 H 0.35194 0.71029 0.83988 0.0
H573 H 0.33668 0.74971 0.86612 0.0
H574 H 0.20365 0.86838 0.88877 0.0
H575 H 0.24541 0.82373 0.89014 0.0
H576 H 0.16504 0.74932 0.86568 0.0
C577 C 0.33994 0.69318 0.85088 0.0
C578 C 0.29921 0.74933 0.86585 0.0
C579 C 0.36388 0.66765 0.85028 0.0
C580 C 0.19169 0.85112 0.87791 0.0
C581 C 0.21574 0.82558 0.8786 0.0
C582 C 0.20251 0.74969 0.8656 0.0
C583 C 0.3006 0.69643 0.8652 0.0
C584 C 0.27509 0.72363 0.8657 0.0
C585 C 0.20114 0.80259 0.86488 0.0
C586 C 0.22663 0.7754 0.86554 0.0
H587 H 0.29756 0.63067 0.88908 0.0
H588 H 0.25585 0.67535 0.89026 0.0
H589 H 0.20679 0.70473 0.8654 0.0
H590 H 0.10815 0.83308 0.83829 0.0
H591 H 0.15027 0.78867 0.83933 0.0
loop_
_geom_bond_atom_site_label_1
_geom_bond_atom_site_label_2
_geom_bond_distance
_geom_bond_site_symmetry_2
_ccdc_geom_bond_type
Co0 O1 2.216 . S
Co0 O2 2.091 . S
Co0 O4 2.004 . S
Co0 O10 2.021 . S
Co0 O12 2.137 . S
Co0 O13 2.244 . S
O1 Co0 2.216 . S
O1 C8 1.247 . S
O2 Co0 2.091 . S
O2 C8 1.261 . S
C3 O12 1.247 . S
C3 O13 1.272 . S
O4 Co0 2.004 . S
O4 C9 1.259 . S
Co5 O6 2.061 . S
Co5 O11 2.052 . S
Co5 O13 2.135 . S
O6 Co5 2.061 . S
O6 C9 1.235 . S
C7 O10 1.238 . S
C7 O11 1.241 . S
C8 O1 1.247 . S
C8 O2 1.261 . S
C9 O4 1.259 . S
C9 O6 1.235 . S
O10 Co0 2.021 . S
O10 C7 1.238 . S
O11 Co5 2.052 . S
O11 C7 1.241 . S
O12 Co0 2.137 . S
O12 C3 1.247 . S
O13 Co0 2.244 . S
O13 C3 1.272 . S
O13 Co5 2.135 . S
Co14 O15 2.216 . S
Co14 O16 2.091 . S
Co14 O18 2.004 . S
Co14 O24 2.021 . S
Co14 O26 2.137 . S
Co14 O27 2.244 . S
O15 Co14 2.216 . S
O15 C22 1.247 . S
O16 Co14 2.091 . S
O16 C22 1.261 . S
C17 O26 1.247 . S
C17 O27 1.272 . S
O18 Co14 2.004 . S
O18 C23 1.259 . S
Co19 O20 2.061 . S
Co19 O25 2.052 . S
Co19 O27 2.135 . S
O20 Co19 2.061 . S
O20 C23 1.235 . S
C21 O24 1.238 . S
C21 O25 1.241 . S
C22 O15 1.247 . S
C22 O16 1.261 . S
C23 O18 1.259 . S
C23 O20 1.235 . S
O24 Co14 2.021 . S
O24 C21 1.238 . S
O25 Co19 2.052 . S
O25 C21 1.241 . S
O26 Co14 2.137 . S
O26 C17 1.247 . S
O27 Co14 2.244 . S
O27 C17 1.272 . S
O27 Co19 2.135 . S
Co28 O29 2.216 . S
Co28 O30 2.091 . S
Co28 O32 2.004 . S
Co28 O38 2.021 . S
Co28 O40 2.137 . S
Co28 O41 2.244 . S
O29 Co28 2.216 . S
O29 C36 1.247 . S
O30 Co28 2.091 . S
O30 C36 1.261 . S
C31 O40 1.247 . S
C31 O41 1.272 . S
O32 Co28 2.004 . S
O32 C37 1.259 . S
Co33 O34 2.061 . S
Co33 O39 2.052 . S
Co33 O41 2.135 . S
O34 Co33 2.061 . S
O34 C37 1.235 . S
C35 O38 1.238 . S
C35 O39 1.241 . S
C36 O29 1.247 . S
C36 O30 1.261 . S
C37 O32 1.259 . S
C37 O34 1.235 . S
O38 Co28 2.021 . S
O38 C35 1.238 . S
O39 Co33 2.052 . S
O39 C35 1.241 . S
O40 Co28 2.137 . S
O40 C31 1.247 . S
O41 Co28 2.244 . S
O41 C31 1.272 . S
O41 Co33 2.135 . S
Co42 O43 2.216 . S
Co42 O44 2.091 . S
Co42 O46 2.004 . S
Co42 O52 2.021 . S
Co42 O54 2.137 . S
Co42 O55 2.244 . S
O43 Co42 2.216 . S
O43 C50 1.247 . S
O44 Co42 2.091 . S
O44 C50 1.261 . S
C45 O54 1.247 . S
C45 O55 1.272 . S
O46 Co42 2.004 . S
O46 C51 1.259 . S
Co47 O48 2.061 . S
Co47 O53 2.052 . S
Co47 O55 2.135 . S
O48 Co47 2.061 . S
O48 C51 1.235 . S
C49 O52 1.238 . S
C49 O53 1.241 . S
C50 O43 1.247 . S
C50 O44 1.261 . S
C51 O46 1.259 . S
C51 O48 1.235 . S
O52 Co42 2.021 . S
O52 C49 1.238 . S
O53 Co47 2.052 . S
O53 C49 1.241 . S
O54 Co42 2.137 . S
O54 C45 1.247 . S
O55 Co42 2.244 . S
O55 C45 1.272 . S
O55 Co47 2.135 . S
Co56 O57 2.216 . S
Co56 O58 2.091 . S
Co56 O60 2.004 . S
Co56 O66 2.021 . S
Co56 O68 2.137 . S
Co56 O69 2.244 . S
O57 Co56 2.216 . S
O57 C64 1.247 . S
O58 Co56 2.091 . S
O58 C64 1.261 . S
C59 O68 1.247 . S
C59 O69 1.272 . S
O60 Co56 2.004 . S
O60 C65 1.259 . S
Co61 O62 2.061 . S
Co61 O67 2.052 . S
Co61 O69 2.135 . S
O62 Co61 2.061 . S
O62 C65 1.235 . S
C63 O66 1.238 . S
C63 O67 1.241 . S
C64 O57 1.247 . S
C64 O58 1.261 . S
C65 O60 1.259 . S
C65 O62 1.235 . S
O66 Co56 2.021 . S
O66 C63 1.238 . S
O67 Co61 2.052 . S
O67 C63 1.241 . S
O68 Co56 2.137 . S
O68 C59 1.247 . S
O69 Co56 2.244 . S
O69 C59 1.272 . S
O69 Co61 2.135 . S
Co70 O71 2.216 . S
Co70 O72 2.091 . S
Co70 O74 2.004 . S
Co70 O80 2.021 . S
Co70 O82 2.137 . S
Co70 O83 2.244 . S
O71 Co70 2.216 . S
O71 C78 1.247 . S
O72 Co70 2.091 . S
O72 C78 1.261 . S
C73 O82 1.247 . S
C73 O83 1.272 . S
O74 Co70 2.004 . S
O74 C79 1.259 . S
Co75 O76 2.061 . S
Co75 O81 2.052 . S
Co75 O83 2.135 . S
O76 Co75 2.061 . S
O76 C79 1.235 . S
C77 O80 1.238 . S
C77 O81 1.241 . S
C78 O71 1.247 . S
C78 O72 1.261 . S
C79 O74 1.259 . S
C79 O76 1.235 . S
O80 Co70 2.021 . S
O80 C77 1.238 . S
O81 Co75 2.052 . S
O81 C77 1.241 . S
O82 Co70 2.137 . S
O82 C73 1.247 . S
O83 Co70 2.244 . S
O83 C73 1.272 . S
O83 Co75 2.135 . S
Co84 O85 2.216 . S
Co84 O86 2.091 . S
Co84 O88 2.004 . S
Co84 O94 2.021 . S
Co84 O96 2.137 . S
Co84 O97 2.244 . S
O85 Co84 2.216 . S
O85 C92 1.247 . S
O86 Co84 2.091 . S
O86 C92 1.261 . S
C87 O96 1.247 . S
C87 O97 1.272 . S
O88 Co84 2.004 . S
O88 C93 1.259 . S
Co89 O90 2.061 . S
Co89 O95 2.052 . S
Co89 O97 2.135 . S
O90 Co89 2.061 . S
O90 C93 1.235 . S
C91 O94 1.238 . S
C91 O95 1.241 . S
C92 O85 1.247 . S
C92 O86 1.261 . S
C93 O88 1.259 . S
C93 O90 1.235 . S
O94 Co84 2.021 . S
O94 C91 1.238 . S
O95 Co89 2.052 . S
O95 C91 1.241 . S
O96 Co84 2.137 . S
O96 C87 1.247 . S
O97 Co84 2.244 . S
O97 C87 1.272 . S
O97 Co89 2.135 . S
Co98 O99 2.216 . S
Co98 O100 2.091 . S
Co98 O102 2.004 . S
Co98 O108 2.021 . S
Co98 O110 2.137 . S
Co98 O111 2.244 . S
O99 Co98 2.216 . S
O99 C106 1.247 . S
O100 Co98 2.091 . S
O100 C106 1.261 . S
C101 O110 1.247 . S
C101 O111 1.272 . S
O102 Co98 2.004 . S
O102 C107 1.259 . S
Co103 O104 2.061 . S
Co103 O109 2.052 . S
Co103 O111 2.135 . S
O104 Co103 2.061 . S
O104 C107 1.235 . S
C105 O108 1.238 . S
C105 O109 1.241 . S
C106 O99 1.247 . S
C106 O100 1.261 . S
C107 O102 1.259 . S
C107 O104 1.235 . S
O108 Co98 2.021 . S
O108 C105 1.238 . S
O109 Co103 2.052 . S
O109 C105 1.241 . S
O110 Co98 2.137 . S
O110 C101 1.247 . S
O111 Co98 2.244 . S
O111 C101 1.272 . S
O111 Co103 2.135 . S
C112 C113 1.349 . S
C112 C114 1.327 . S
C112 H137 0.950 . S
C113 C112 1.349 . S
C113 C129 1.349 . S
C114 C112 1.327 . S
C114 C133 1.429 . S
C114 H138 0.950 . S
C115 C132 1.574 . S
C115 C134 1.368 . S
C115 H139 0.949 . S
H116 C120 0.949 . S
C117 C118 1.349 . S
C117 C119 1.327 . S
C117 H140 0.950 . S
C118 C117 1.349 . S
C118 C130 1.349 . S
C119 C117 1.327 . S
C119 C135 1.429 . S
C119 H141 0.950 . S
C120 H116 0.949 . S
C120 C128 1.574 . S
C120 C136 1.368 . S
H121 C129 0.950 . S
H122 C127 0.950 . S
H123 C128 0.949 . S
H124 C130 0.950 . S
H125 C131 0.950 . S
H126 C132 0.949 . S
C127 H122 0.950 . S
C127 C129 1.327 . S
C127 C133 1.429 . S
C128 C120 1.574 . S
C128 H123 0.949 . S
C128 C134 1.368 . S
C129 C113 1.349 . S
C129 H121 0.950 . S
C129 C127 1.327 . S
C130 C118 1.349 . S
C130 H124 0.950 . S
C130 C131 1.327 . S
C131 H125 0.950 . S
C131 C130 1.327 . S
C131 C135 1.429 . S
C132 C115 1.574 . S
C132 H126 0.949 . S
C132 C136 1.368 . S
C133 C114 1.429 . S
C133 C127 1.429 . S
C133 C134 1.523 . S
C134 C115 1.368 . S
C134 C128 1.368 . S
C134 C133 1.523 . S
C135 C119 1.429 . S
C135 C131 1.429 . S
C135 C136 1.523 . S
C136 C120 1.368 . S
C136 C132 1.368 . S
C136 C135 1.523 . S
H137 C112 0.950 . S
H138 C114 0.950 . S
H139 C115 0.949 . S
H140 C117 0.950 . S
H141 C119 0.950 . S
C142 C143 1.349 1_455 S
C142 C144 1.327 . S
C142 H167 0.950 . S
C143 C142 1.349 1_655 S
C143 C159 1.349 . S
C144 C142 1.327 . S
C144 C163 1.429 . S
C144 H168 0.950 . S
C145 C162 1.574 . S
C145 C164 1.368 1_565 S
C145 H169 0.949 . S
H146 C150 0.949 . S
C147 C148 1.349 . S
C147 C149 1.327 . S
C147 H170 0.950 . S
C148 C147 1.349 . S
C148 C160 1.349 . S
C149 C147 1.327 . S
C149 C165 1.429 . S
C149 H171 0.950 . S
C150 H146 0.949 . S
C150 C158 1.574 . S
C150 C166 1.368 1_545 S
H151 C159 0.950 . S
H152 C157 0.950 1_565 S
H153 C158 0.949 . S
H154 C160 0.950 . S
H155 C161 0.950 1_545 S
H156 C162 0.949 . S
C157 H152 0.950 1_545 S
C157 C159 1.327 . S
C157 C163 1.429 1_655 S
C158 C150 1.574 . S
C158 H153 0.949 . S
C158 C164 1.368 . S
C159 C143 1.349 . S
C159 H151 0.950 . S
C159 C157 1.327 . S
C160 C148 1.349 . S
C160 H154 0.950 . S
C160 C161 1.327 . S
C161 H155 0.950 1_565 S
C161 C160 1.327 . S
C161 C165 1.429 . S
C162 C145 1.574 . S
C162 H156 0.949 . S
C162 C166 1.368 . S
C163 C144 1.429 . S
C163 C157 1.429 1_455 S
C163 C164 1.523 . S
C164 C145 1.368 1_545 S
C164 C158 1.368 . S
C164 C163 1.523 . S
C165 C149 1.429 . S
C165 C161 1.429 . S
C165 C166 1.523 . S
C166 C150 1.368 1_565 S
C166 C162 1.368 . S
C166 C165 1.523 . S
H167 C142 0.950 . S
H168 C144 0.950 . S
H169 C145 0.949 . S
H170 C147 0.950 . S
H171 C149 0.950 . S
C172 C173 1.349 . S
C172 C174 1.327 . S
C172 H197 0.950 . S
C173 C172 1.349 . S
C173 C189 1.349 . S
C174 C172 1.327 . S
C174 C193 1.429 . S
C174 H198 0.950 . S
C175 C192 1.574 . S
C175 C194 1.368 . S
C175 H199 0.949 . S
H176 C180 0.949 . S
C177 C178 1.349 . S
C177 C179 1.327 1_455 S
C177 H200 0.950 . S
C178 C177 1.349 . S
C178 C190 1.349 1_455 S
C179 C177 1.327 1_655 S
C179 C195 1.429 . S
C179 H201 0.950 . S
C180 H176 0.949 . S
C180 C188 1.574 . S
C180 C196 1.368 . S
H181 C189 0.950 . S
H182 C187 0.950 . S
H183 C188 0.949 . S
H184 C190 0.950 . S
H185 C191 0.950 . S
H186 C192 0.949 . S
C187 H182 0.950 . S
C187 C189 1.327 . S
C187 C193 1.429 . S
C188 C180 1.574 . S
C188 H183 0.949 . S
C188 C194 1.368 . S
C189 C173 1.349 . S
C189 H181 0.950 . S
C189 C187 1.327 . S
C190 C178 1.349 1_655 S
C190 H184 0.950 . S
C190 C191 1.327 . S
C191 H185 0.950 . S
C191 C190 1.327 . S
C191 C195 1.429 . S
C192 C175 1.574 . S
C192 H186 0.949 . S
C192 C196 1.368 . S
C193 C174 1.429 . S
C193 C187 1.429 . S
C193 C194 1.523 . S
C194 C175 1.368 . S
C194 C188 1.368 . S
C194 C193 1.523 . S
C195 C179 1.429 . S
C195 C191 1.429 . S
C195 C196 1.523 . S
C196 C180 1.368 . S
C196 C192 1.368 . S
C196 C195 1.523 . S
H197 C172 0.950 . S
H198 C174 0.950 . S
H199 C175 0.949 . S
H200 C177 0.950 . S
H201 C179 0.950 . S
C202 C203 1.349 . S
C202 C204 1.327 . S
C202 H227 0.950 . S
C203 C202 1.349 . S
C203 C219 1.349 . S
C204 C202 1.327 . S
C204 C223 1.429 . S
C204 H228 0.950 . S
C205 C222 1.574 . S
C205 C224 1.368 1_565 S
C205 H229 0.949 . S
H206 C210 0.949 . S
C207 C208 1.349 . S
C207 C209 1.327 . S
C207 H230 0.950 . S
C208 C207 1.349 . S
C208 C220 1.349 . S
C209 C207 1.327 . S
C209 C225 1.429 . S
C209 H231 0.950 . S
C210 H206 0.949 . S
C210 C218 1.574 . S
C210 C226 1.368 1_545 S
H211 C219 0.950 1_565 S
H212 C217 0.953 1_565 S
H213 C218 0.949 . S
H214 C220 0.956 . S
H215 C221 0.950 1_545 S
H216 C222 0.949 . S
C217 H212 0.953 1_545 S
C217 C219 1.326 . S
C217 C223 1.427 . S
C218 C210 1.574 . S
C218 H213 0.949 . S
C218 C224 1.368 . S
C219 C203 1.349 . S
C219 H211 0.950 1_545 S
C219 C217 1.326 . S
C220 C208 1.349 . S
C220 H214 0.956 . S
C220 C221 1.327 . S
C221 H215 0.950 1_565 S
C221 C220 1.327 . S
C221 C225 1.429 . S
C222 C205 1.574 . S
C222 H216 0.949 . S
C222 C226 1.368 . S
C223 C204 1.429 . S
C223 C217 1.427 . S
C223 C224 1.523 . S
C224 C205 1.368 1_545 S
C224 C218 1.368 . S
C224 C223 1.523 . S
C225 C209 1.429 . S
C225 C221 1.429 . S
C225 C226 1.523 . S
C226 C210 1.368 1_565 S
C226 C222 1.368 . S
C226 C225 1.523 . S
H227 C202 0.950 . S
H228 C204 0.950 . S
H229 C205 0.949 . S
H230 C207 0.950 . S
H231 C209 0.950 . S
C232 C233 1.349 . S
C232 C234 1.327 . S
C232 H257 0.950 . S
C233 C232 1.349 . S
C233 C249 1.349 . S
C234 C232 1.327 . S
C234 C253 1.429 . S
C234 H258 0.950 . S
C235 C252 1.574 . S
C235 C254 1.368 . S
C235 H259 0.949 . S
H236 C240 0.949 . S
C237 C238 1.349 . S
C237 C239 1.327 . S
C237 H260 0.950 . S
C238 C237 1.349 . S
C238 C250 1.349 . S
C239 C237 1.327 . S
C239 C255 1.429 . S
C239 H261 0.950 . S
C240 H236 0.949 . S
C240 C248 1.574 . S
C240 C256 1.368 . S
H241 C249 0.950 . S
H242 C247 0.950 . S
H243 C248 0.949 . S
H244 C250 0.950 . S
H245 C251 0.950 . S
H246 C252 0.949 . S
C247 H242 0.950 . S
C247 C249 1.327 . S
C247 C253 1.429 . S
C248 C240 1.574 . S
C248 H243 0.949 . S
C248 C254 1.368 . S
C249 C233 1.349 . S
C249 H241 0.950 . S
C249 C247 1.327 . S
C250 C238 1.349 . S
C250 H244 0.950 . S
C250 C251 1.327 . S
C251 H245 0.950 . S
C251 C250 1.327 . S
C251 C255 1.429 . S
C252 C235 1.574 . S
C252 H246 0.949 . S
C252 C256 1.368 . S
C253 C234 1.429 . S
C253 C247 1.429 . S
C253 C254 1.523 . S
C254 C235 1.368 . S
C254 C248 1.368 . S
C254 C253 1.523 . S
C255 C239 1.429 . S
C255 C251 1.429 . S
C255 C256 1.523 . S
C256 C240 1.368 . S
C256 C252 1.368 . S
C256 C255 1.523 . S
H257 C232 0.950 . S
H258 C234 0.950 . S
H259 C235 0.949 . S
H260 C237 0.950 . S
H261 C239 0.950 . S
C262 C263 1.349 . S
C262 C264 1.327 . S
C262 H287 0.950 . S
C263 C262 1.349 . S
C263 C279 1.349 . S
C264 C262 1.327 . S
C264 C283 1.429 . S
C264 H288 0.950 . S
C265 C282 1.574 . S
C265 C284 1.368 1_565 S
C265 H289 0.949 . S
H266 C270 0.949 . S
C267 C268 1.349 . S
C267 C269 1.327 1_455 S
C267 H290 0.950 . S
C268 C267 1.349 . S
C268 C280 1.349 . S
C269 C267 1.327 1_655 S
C269 C285 1.429 . S
C269 H291 0.950 . S
C270 H266 0.949 . S
C270 C278 1.574 . S
C270 C286 1.368 1_545 S
H271 C279 0.950 1_565 S
H272 C277 0.950 . S
H273 C278 0.949 . S
H274 C280 0.950 1_545 S
H275 C281 0.929 1_545 S
H276 C282 0.949 . S
C277 H272 0.950 . S
C277 C279 1.327 1_565 S
C277 C283 1.429 1_565 S
C278 C270 1.574 . S
C278 H273 0.949 . S
C278 C284 1.368 . S
C279 C263 1.349 . S
C279 H271 0.950 1_545 S
C279 C277 1.327 1_545 S
C280 C268 1.349 . S
C280 H274 0.950 1_565 S
C280 C281 1.334 1_455 S
C281 H275 0.929 1_565 S
C281 C280 1.334 1_655 S
C281 C285 1.442 . S
C282 C265 1.574 . S
C282 H276 0.949 . S
C282 C286 1.368 . S
C283 C264 1.429 . S
C283 C277 1.429 1_545 S
C283 C284 1.523 . S
C284 C265 1.368 1_545 S
C284 C278 1.368 . S
C284 C283 1.523 . S
C285 C269 1.429 . S
C285 C281 1.442 . S
C285 C286 1.523 . S
C286 C270 1.368 1_565 S
C286 C282 1.368 . S
C286 C285 1.523 . S
H287 C262 0.950 . S
H288 C264 0.950 . S
H289 C265 0.949 . S
H290 C267 0.950 . S
H291 C269 0.950 . S
C292 C293 1.349 . S
C292 C294 1.327 . S
C292 H317 0.950 . S
C293 C292 1.349 . S
C293 C309 1.349 . S
C294 C292 1.327 . S
C294 C313 1.429 . S
C294 H318 0.950 . S
C295 C312 1.574 . S
C295 C314 1.368 . S
C295 H319 0.949 . S
H296 C300 0.949 . S
C297 C298 1.349 1_455 S
C297 C299 1.327 . S
C297 H320 0.950 . S
C298 C297 1.349 1_655 S
C298 C310 1.349 . S
C299 C297 1.327 . S
C299 C315 1.429 . S
C299 H321 0.950 . S
C300 H296 0.949 . S
C300 C308 1.574 . S
C300 C316 1.368 . S
H301 C309 0.950 . S
H302 C307 0.950 . S
H303 C308 0.949 . S
H304 C310 0.950 . S
H305 C311 0.950 . S
H306 C312 0.949 . S
C307 H302 0.950 . S
C307 C309 1.327 . S
C307 C313 1.429 . S
C308 C300 1.574 . S
C308 H303 0.949 . S
C308 C314 1.368 . S
C309 C293 1.349 . S
C309 H301 0.950 . S
C309 C307 1.327 . S
C310 C298 1.349 . S
C310 H304 0.950 . S
C310 C311 1.327 . S
C311 H305 0.950 . S
C311 C310 1.327 . S
C311 C315 1.429 1_655 S
C312 C295 1.574 . S
C312 H306 0.949 . S
C312 C316 1.368 . S
C313 C294 1.429 . S
C313 C307 1.429 . S
C313 C314 1.523 . S
C314 C295 1.368 . S
C314 C308 1.368 . S
C314 C313 1.523 . S
C315 C299 1.429 . S
C315 C311 1.429 1_455 S
C315 C316 1.523 . S
C316 C300 1.368 . S
C316 C312 1.368 . S
C316 C315 1.523 . S
H317 C292 0.950 . S
H318 C294 0.950 . S
H319 C295 0.949 . S
H320 C297 0.950 . S
H321 C299 0.950 . S
C322 C323 1.349 . S
C322 C324 1.327 . S
C322 H347 0.950 . S
C323 C322 1.349 . S
C323 C339 1.349 . S
C324 C322 1.327 . S
C324 C343 1.429 . S
C324 H348 0.950 . S
C325 C342 1.574 . S
C325 C344 1.368 1_545 S
C325 H349 0.949 . S
H326 C330 0.949 . S
C327 C328 1.349 . S
C327 C329 1.327 . S
C327 H350 0.950 . S
C328 C327 1.349 . S
C328 C340 1.349 . S
C329 C327 1.327 . S
C329 C345 1.429 . S
C329 H351 0.950 . S
C330 H326 0.949 . S
C330 C338 1.574 . S
C330 C346 1.368 1_565 S
H331 C339 0.950 . S
H332 C337 0.950 . S
H333 C338 0.949 . S
H334 C340 0.950 . S
H335 C341 0.950 . S
H336 C342 0.949 . S
C337 H332 0.950 . S
C337 C339 1.327 . S
C337 C343 1.429 . S
C338 C330 1.574 . S
C338 H333 0.949 . S
C338 C344 1.368 . S
C339 C323 1.349 . S
C339 H331 0.950 . S
C339 C337 1.327 . S
C340 C328 1.349 . S
C340 H334 0.950 . S
C340 C341 1.327 . S
C341 H335 0.950 . S
C341 C340 1.327 . S
C341 C345 1.429 . S
C342 C325 1.574 . S
C342 H336 0.949 . S
C342 C346 1.368 . S
C343 C324 1.429 . S
C343 C337 1.429 . S
C343 C344 1.523 . S
C344 C325 1.368 1_565 S
C344 C338 1.368 . S
C344 C343 1.523 . S
C345 C329 1.429 . S
C345 C341 1.429 . S
C345 C346 1.523 . S
C346 C330 1.368 1_545 S
C346 C342 1.368 . S
C346 C345 1.523 . S
H347 C322 0.950 . S
H348 C324 0.950 . S
H349 C325 0.949 . S
H350 C327 0.950 . S
H351 C329 0.950 . S
C352 C353 1.349 . S
C352 C354 1.327 . S
C352 H377 0.950 . S
C353 C352 1.349 . S
C353 C369 1.349 . S
C354 C352 1.327 . S
C354 C373 1.429 . S
C354 H378 0.950 . S
C355 C372 1.574 . S
C355 C374 1.368 1_655 S
C355 H379 0.949 . S
H356 C360 0.949 . S
C357 C358 1.349 . S
C357 C359 1.327 . S
C357 H380 0.950 . S
C358 C357 1.349 . S
C358 C370 1.349 . S
C359 C357 1.327 . S
C359 C375 1.429 . S
C359 H381 0.950 . S
C360 H356 0.949 . S
C360 C368 1.574 . S
C360 C376 1.368 1_455 S
H361 C369 0.950 . S
H362 C367 0.950 . S
H363 C368 0.949 . S
H364 C370 0.950 . S
H365 C371 0.950 . S
H366 C372 0.949 . S
C367 H362 0.950 . S
C367 C369 1.327 . S
C367 C373 1.429 . S
C368 C360 1.574 . S
C368 H363 0.949 . S
C368 C374 1.368 . S
C369 C353 1.349 . S
C369 H361 0.950 . S
C369 C367 1.327 . S
C370 C358 1.349 . S
C370 H364 0.950 . S
C370 C371 1.327 . S
C371 H365 0.950 . S
C371 C370 1.327 . S
C371 C375 1.429 . S
C372 C355 1.574 . S
C372 H366 0.949 . S
C372 C376 1.368 . S
C373 C354 1.429 . S
C373 C367 1.429 . S
C373 C374 1.523 . S
C374 C355 1.368 1_455 S
C374 C368 1.368 . S
C374 C373 1.523 . S
C375 C359 1.429 . S
C375 C371 1.429 . S
C375 C376 1.523 . S
C376 C360 1.368 1_655 S
C376 C372 1.368 . S
C376 C375 1.523 . S
H377 C352 0.950 . S
H378 C354 0.950 . S
H379 C355 0.949 . S
H380 C357 0.950 . S
H381 C359 0.950 . S
C382 C383 1.349 . S
C382 C384 1.327 . S
C382 H407 0.950 . S
C383 C382 1.349 . S
C383 C399 1.349 . S
C384 C382 1.327 . S
C384 C403 1.429 . S
C384 H408 0.950 . S
C385 C402 1.574 . S
C385 C404 1.368 1_545 S
C385 H409 0.949 . S
H386 C390 0.949 . S
C387 C388 1.349 . S
C387 C389 1.327 . S
C387 H410 0.950 . S
C388 C387 1.349 . S
C388 C400 1.349 . S
C389 C387 1.327 . S
C389 C405 1.429 . S
C389 H411 0.950 . S
C390 H386 0.949 . S
C390 C398 1.574 . S
C390 C406 1.368 1_565 S
H391 C399 0.950 1_545 S
H392 C397 0.950 1_545 S
H393 C398 0.949 . S
H394 C400 0.950 1_565 S
H395 C401 0.950 1_565 S
H396 C402 0.949 . S
C397 H392 0.950 1_565 S
C397 C399 1.327 . S
C397 C403 1.429 . S
C398 C390 1.574 . S
C398 H393 0.949 . S
C398 C404 1.368 . S
C399 C383 1.349 . S
C399 H391 0.950 1_565 S
C399 C397 1.327 . S
C400 C388 1.349 . S
C400 H394 0.950 1_545 S
C400 C401 1.327 . S
C401 H395 0.950 1_545 S
C401 C400 1.327 . S
C401 C405 1.429 . S
C402 C385 1.574 . S
C402 H396 0.949 . S
C402 C406 1.368 . S
C403 C384 1.429 . S
C403 C397 1.429 . S
C403 C404 1.523 . S
C404 C385 1.368 1_565 S
C404 C398 1.368 . S
C404 C403 1.523 . S
C405 C389 1.429 . S
C405 C401 1.429 . S
C405 C406 1.523 . S
C406 C390 1.368 1_545 S
C406 C402 1.368 . S
C406 C405 1.523 . S
H407 C382 0.950 . S
H408 C384 0.950 . S
H409 C385 0.949 . S
H410 C387 0.950 . S
H411 C389 0.950 . S
C412 C413 1.349 . S
C412 C414 1.327 . S
C412 H437 0.950 . S
C413 C412 1.349 . S
C413 C429 1.349 . S
C414 C412 1.327 . S
C414 C433 1.429 . S
C414 H438 0.950 . S
C415 C432 1.574 1_554 S
C415 C434 1.368 . S
C415 H439 0.949 . S
H416 C420 0.949 . S
C417 C418 1.349 . S
C417 C419 1.327 . S
C417 H440 0.950 . S
C418 C417 1.349 . S
C418 C430 1.349 . S
C419 C417 1.327 . S
C419 C435 1.429 . S
C419 H441 0.950 . S
C420 H416 0.949 . S
C420 C428 1.574 1_556 S
C420 C436 1.368 . S
H421 C429 0.950 . S
H422 C427 0.950 . S
H423 C428 0.949 . S
H424 C430 0.950 . S
H425 C431 0.950 . S
H426 C432 0.949 . S
C427 H422 0.950 . S
C427 C429 1.327 . S
C427 C433 1.429 . S
C428 C420 1.574 1_554 S
C428 H423 0.949 . S
C428 C434 1.368 . S
C429 C413 1.349 . S
C429 H421 0.950 . S
C429 C427 1.327 . S
C430 C418 1.349 . S
C430 H424 0.950 . S
C430 C431 1.327 . S
C431 H425 0.950 . S
C431 C430 1.327 . S
C431 C435 1.429 . S
C432 C415 1.574 1_556 S
C432 H426 0.949 . S
C432 C436 1.368 . S
C433 C414 1.429 . S
C433 C427 1.429 . S
C433 C434 1.523 . S
C434 C415 1.368 . S
C434 C428 1.368 . S
C434 C433 1.523 . S
C435 C419 1.429 . S
C435 C431 1.429 . S
C435 C436 1.523 . S
C436 C420 1.368 . S
C436 C432 1.368 . S
C436 C435 1.523 . S
H437 C412 0.950 . S
H438 C414 0.950 . S
H439 C415 0.949 . S
H440 C417 0.950 . S
H441 C419 0.950 . S
C442 C443 1.349 . S
C442 C444 1.327 . S
C442 H467 0.950 . S
C443 C442 1.349 . S
C443 C459 1.349 . S
C444 C442 1.327 . S
C444 C463 1.429 . S
C444 H468 0.950 1_565 S
C445 C462 1.552 1_556 S
C445 C464 1.389 . S
C445 H469 0.951 . S
H446 C450 0.951 . S
C447 C448 1.349 . S
C447 C449 1.327 . S
C447 H470 0.950 . S
C448 C447 1.349 . S
C448 C460 1.349 . S
C449 C447 1.327 . S
C449 C465 1.429 . S
C449 H471 0.950 1_545 S
C450 H446 0.951 . S
C450 C458 1.552 1_554 S
C450 C466 1.389 . S
H451 C459 0.950 . S
H452 C457 0.950 . S
H453 C458 0.949 . S
H454 C460 0.950 . S
H455 C461 0.950 . S
H456 C462 0.949 . S
C457 H452 0.950 . S
C457 C459 1.327 . S
C457 C463 1.429 . S
C458 C450 1.552 1_556 S
C458 H453 0.949 . S
C458 C464 1.368 1_645 S
C459 C443 1.349 . S
C459 H451 0.950 . S
C459 C457 1.327 . S
C460 C448 1.349 . S
C460 H454 0.950 . S
C460 C461 1.327 . S
C461 H455 0.950 . S
C461 C460 1.327 . S
C461 C465 1.429 . S
C462 C445 1.552 1_554 S
C462 H456 0.949 . S
C462 C466 1.368 1_465 S
C463 C444 1.429 . S
C463 C457 1.429 . S
C463 C464 1.523 . S
C464 C445 1.389 . S
C464 C458 1.368 1_465 S
C464 C463 1.523 . S
C465 C449 1.429 . S
C465 C461 1.429 . S
C465 C466 1.523 . S
C466 C450 1.389 . S
C466 C462 1.368 1_645 S
C466 C465 1.523 . S
H467 C442 0.950 . S
H468 C444 0.950 1_545 S
H469 C445 0.951 . S
H470 C447 0.950 . S
H471 C449 0.950 1_565 S
C472 C473 1.349 . S
C472 C474 1.327 . S
C472 H497 0.950 . S
C473 C472 1.349 . S
C473 C489 1.349 . S
C474 C472 1.327 . S
C474 C493 1.429 . S
C474 H498 0.950 . S
C475 C492 1.574 . S
C475 C494 1.368 . S
C475 H499 0.949 . S
H476 C480 0.949 . S
C477 C478 1.349 . S
C477 C479 1.327 . S
C477 H500 0.950 . S
C478 C477 1.349 . S
C478 C490 1.349 . S
C479 C477 1.327 . S
C479 C495 1.429 . S
C479 H501 0.950 . S
C480 H476 0.949 . S
C480 C488 1.574 . S
C480 C496 1.368 . S
H481 C489 0.950 . S
H482 C487 0.950 . S
H483 C488 0.949 . S
H484 C490 0.950 . S
H485 C491 0.950 . S
H486 C492 0.949 . S
C487 H482 0.950 . S
C487 C489 1.327 . S
C487 C493 1.429 . S
C488 C480 1.574 . S
C488 H483 0.949 . S
C488 C494 1.368 . S
C489 C473 1.349 . S
C489 H481 0.950 . S
C489 C487 1.327 . S
C490 C478 1.349 . S
C490 H484 0.950 . S
C490 C491 1.327 . S
C491 H485 0.950 . S
C491 C490 1.327 . S
C491 C495 1.429 . S
C492 C475 1.574 . S
C492 H486 0.949 . S
C492 C496 1.368 . S
C493 C474 1.429 . S
C493 C487 1.429 . S
C493 C494 1.523 . S
C494 C475 1.368 . S
C494 C488 1.368 . S
C494 C493 1.523 . S
C495 C479 1.429 . S
C495 C491 1.429 . S
C495 C496 1.523 . S
C496 C480 1.368 . S
C496 C492 1.368 . S
C496 C495 1.523 . S
H497 C472 0.950 . S
H498 C474 0.950 . S
H499 C475 0.949 . S
H500 C477 0.950 . S
H501 C479 0.950 . S
C502 C503 1.349 . S
C502 C504 1.327 . S
C502 H527 0.950 . S
C503 C502 1.349 . S
C503 C519 1.349 . S
C504 C502 1.327 . S
C504 C523 1.429 . S
C504 H528 0.950 . S
C505 C522 1.574 . S
C505 C524 1.368 . S
C505 H529 0.949 . S
H506 C510 0.949 . S
C507 C508 1.349 . S
C507 C509 1.327 . S
C507 H530 0.950 . S
C508 C507 1.349 . S
C508 C520 1.349 . S
C509 C507 1.327 . S
C509 C525 1.429 . S
C509 H531 0.950 . S
C510 H506 0.949 . S
C510 C518 1.574 . S
C510 C526 1.368 . S
H511 C519 0.950 . S
H512 C517 0.950 . S
H513 C518 0.949 . S
H514 C520 0.950 . S
H515 C521 0.950 . S
H516 C522 0.949 . S
C517 H512 0.950 . S
C517 C519 1.327 . S
C517 C523 1.429 . S
C518 C510 1.574 . S
C518 H513 0.949 . S
C518 C524 1.368 . S
C519 C503 1.349 . S
C519 H511 0.950 . S
C519 C517 1.327 . S
C520 C508 1.349 . S
C520 H514 0.950 . S
C520 C521 1.327 . S
C521 H515 0.950 . S
C521 C520 1.327 . S
C521 C525 1.429 . S
C522 C505 1.574 . S
C522 H516 0.949 . S
C522 C526 1.368 . S
C523 C504 1.429 . S
C523 C517 1.429 . S
C523 C524 1.523 . S
C524 C505 1.368 . S
C524 C518 1.368 . S
C524 C523 1.523 . S
C525 C509 1.429 . S
C525 C521 1.429 . S
C525 C526 1.523 . S
C526 C510 1.368 . S
C526 C522 1.368 . S
C526 C525 1.523 . S
H527 C502 0.950 . S
H528 C504 0.950 . S
H529 C505 0.949 . S
H530 C507 0.950 . S
H531 C509 0.950 . S
C532 C533 1.349 . S
C532 C534 1.327 . S
C532 H557 0.950 . S
C533 C532 1.349 . S
C533 C549 1.349 . S
C534 C532 1.327 . S
C534 C553 1.429 . S
C534 H558 0.950 . S
C535 C552 1.574 . S
C535 C554 1.368 . S
C535 H559 0.949 . S
H536 C540 0.949 . S
C537 C538 1.349 . S
C537 C539 1.327 . S
C537 H560 0.950 . S
C538 C537 1.349 . S
C538 C550 1.349 . S
C539 C537 1.327 . S
C539 C555 1.429 . S
C539 H561 0.950 . S
C540 H536 0.949 . S
C540 C548 1.574 . S
C540 C556 1.368 . S
H541 C549 0.950 . S
H542 C547 0.950 . S
H543 C548 0.949 . S
H544 C550 0.950 . S
H545 C551 0.950 . S
H546 C552 0.949 . S
C547 H542 0.950 . S
C547 C549 1.327 . S
C547 C553 1.429 . S
C548 C540 1.574 . S
C548 H543 0.949 . S
C548 C554 1.368 . S
C549 C533 1.349 . S
C549 H541 0.950 . S
C549 C547 1.327 . S
C550 C538 1.349 . S
C550 H544 0.950 . S
C550 C551 1.327 . S
C551 H545 0.950 . S
C551 C550 1.327 . S
C551 C555 1.429 . S
C552 C535 1.574 . S
C552 H546 0.949 . S
C552 C556 1.368 . S
C553 C534 1.429 . S
C553 C547 1.429 . S
C553 C554 1.523 . S
C554 C535 1.368 . S
C554 C548 1.368 . S
C554 C553 1.523 . S
C555 C539 1.429 . S
C555 C551 1.429 . S
C555 C556 1.523 . S
C556 C540 1.368 . S
C556 C552 1.368 . S
C556 C555 1.523 . S
H557 C532 0.950 . S
H558 C534 0.950 . S
H559 C535 0.949 . S
H560 C537 0.950 . S
H561 C539 0.950 . S
C562 C563 1.349 . S
C562 C564 1.327 . S
C562 H587 0.950 . S
C563 C562 1.349 . S
C563 C579 1.349 . S
C564 C562 1.327 . S
C564 C583 1.429 . S
C564 H588 0.950 . S
C565 C582 1.574 . S
C565 C584 1.368 . S
C565 H589 0.949 . S
H566 C570 0.949 . S
C567 C568 1.349 . S
C567 C569 1.327 . S
C567 H590 0.950 . S
C568 C567 1.349 . S
C568 C580 1.349 . S
C569 C567 1.327 . S
C569 C585 1.429 . S
C569 H591 0.950 . S
C570 H566 0.949 . S
C570 C578 1.574 . S
C570 C586 1.368 . S
H571 C579 0.950 . S
H572 C577 0.950 . S
H573 C578 0.949 . S
H574 C580 0.950 . S
H575 C581 0.950 . S
H576 C582 0.949 . S
C577 H572 0.950 . S
C577 C579 1.327 . S
C577 C583 1.429 . S
C578 C570 1.574 . S
C578 H573 0.949 . S
C578 C584 1.368 . S
C579 C563 1.349 . S
C579 H571 0.950 . S
C579 C577 1.327 . S
C580 C568 1.349 . S
C580 H574 0.950 . S
C580 C581 1.327 . S
C581 H575 0.950 . S
C581 C580 1.327 . S
C581 C585 1.429 . S
C582 C565 1.574 . S
C582 H576 0.949 . S
C582 C586 1.368 . S
C583 C564 1.429 . S
C583 C577 1.429 . S
C583 C584 1.523 . S
C584 C565 1.368 . S
C584 C578 1.368 . S
C584 C583 1.523 . S
C585 C569 1.429 . S
C585 C581 1.429 . S
C585 C586 1.523 . S
C586 C570 1.368 . S
C586 C582 1.368 . S
C586 C585 1.523 . S
H587 C562 0.950 . S
H588 C564 0.950 . S
H589 C565 0.949 . S
H590 C567 0.950 . S
H591 C569 0.950 . S
C113 C9 1.373 . S
C118 C35 1.361 . S
C143 C49 1.361 . S
C148 C23 1.373 . S
C173 C37 1.373 . S
C178 C7 1.361 . S
C203 C51 1.373 . S
C208 C21 1.361 . S
C233 C91 1.361 . S
C238 C65 1.373 . S
C263 C79 1.373 . S
C268 C105 1.361 . S
C293 C93 1.373 . S
C298 C63 1.361 . S
C323 C107 1.373 . S
C328 C77 1.361 . S
C353 C8 1.521 . S
C358 C64 1.521 . S
C383 C22 1.521 . S
C388 C78 1.521 . S
C413 C36 1.521 . S
C418 C92 1.521 . S
C443 C106 1.521 . S
C448 C50 1.521 . S
C473 C3 1.530 . S
C478 C17 1.530 . S
C503 C45 1.530 . S
C508 C31 1.530 . S
C533 C73 1.530 . S
C538 C59 1.530 . S
C563 C87 1.530 . S
C568 C101 1.530 . S
