# Generated by pormake.
# Topology wjf, (4)-cn, num edge types: 1
# Building blocks:
#     Node 0, Type 0, BuildingBlock: ICAMEG_clean_sbu_1, # of connection points: 4
#     Node 1, Type 0, BuildingBlock: ICAMEG_clean_sbu_1, # of connection points: 4
#     Node 2, Type 0, BuildingBlock: ICAMEG_clean_sbu_1, # of connection points: 4
#     Node 3, Type 0, BuildingBlock: ICAMEG_clean_sbu_1, # of connection points: 4
#     Node 4, Type 0, BuildingBlock: ICAMEG_clean_sbu_1, # of connection points: 4
#     Node 5, Type 0, BuildingBlock: ICAMEG_clean_sbu_1, # of connection points: 4
#     Node 6, Type 0, BuildingBlock: ICAMEG_clean_sbu_1, # of connection points: 4
#     Node 7, Type 0, BuildingBlock: ICAMEG_clean_sbu_1, # of connection points: 4
#     Node 8, Type 0, BuildingBlock: ICAMEG_clean_sbu_1, # of connection points: 4
#     Node 9, Type 0, BuildingBlock: ICAMEG_clean_sbu_1, # of connection points: 4
#     Node 10, Type 0, BuildingBlock: ICAMEG_clean_sbu_1, # of connection points: 4
#     Node 11, Type 0, BuildingBlock: ICAMEG_clean_sbu_1, # of connection points: 4
#     Edge 12, Type (0, 0), BuildingBlock: OJICUG_clean_linker_0, # of connection points: 2
#     Edge 13, Type (0, 0), BuildingBlock: OJICUG_clean_linker_0, # of connection points: 2
#     Edge 14, Type (0, 0), BuildingBlock: OJICUG_clean_linker_0, # of connection points: 2
#     Edge 15, Type (0, 0), BuildingBlock: OJICUG_clean_linker_0, # of connection points: 2
#     Edge 16, Type (0, 0), BuildingBlock: OJICUG_clean_linker_0, # of connection points: 2
#     Edge 17, Type (0, 0), BuildingBlock: OJICUG_clean_linker_0, # of connection points: 2
#     Edge 18, Type (0, 0), BuildingBlock: OJICUG_clean_linker_0, # of connection points: 2
#     Edge 19, Type (0, 0), BuildingBlock: OJICUG_clean_linker_0, # of connection points: 2
#     Edge 20, Type (0, 0), BuildingBlock: OJICUG_clean_linker_0, # of connection points: 2
#     Edge 21, Type (0, 0), BuildingBlock: OJICUG_clean_linker_0, # of connection points: 2
#     Edge 22, Type (0, 0), BuildingBlock: OJICUG_clean_linker_0, # of connection points: 2
#     Edge 23, Type (0, 0), BuildingBlock: OJICUG_clean_linker_0, # of connection points: 2
#     Edge 24, Type (0, 0), BuildingBlock: OJICUG_clean_linker_0, # of connection points: 2
#     Edge 25, Type (0, 0), BuildingBlock: OJICUG_clean_linker_0, # of connection points: 2
#     Edge 26, Type (0, 0), BuildingBlock: OJICUG_clean_linker_0, # of connection points: 2
#     Edge 27, Type (0, 0), BuildingBlock: OJICUG_clean_linker_0, # of connection points: 2
#     Edge 28, Type (0, 0), BuildingBlock: OJICUG_clean_linker_0, # of connection points: 2
#     Edge 29, Type (0, 0), BuildingBlock: OJICUG_clean_linker_0, # of connection points: 2
#     Edge 30, Type (0, 0), BuildingBlock: OJICUG_clean_linker_0, # of connection points: 2
#     Edge 31, Type (0, 0), BuildingBlock: OJICUG_clean_linker_0, # of connection points: 2
#     Edge 32, Type (0, 0), BuildingBlock: OJICUG_clean_linker_0, # of connection points: 2
#     Edge 33, Type (0, 0), BuildingBlock: OJICUG_clean_linker_0, # of connection points: 2
#     Edge 34, Type (0, 0), BuildingBlock: OJICUG_clean_linker_0, # of connection points: 2
#     Edge 35, Type (0, 0), BuildingBlock: OJICUG_clean_linker_0, # of connection points: 2
# Relax obj value: 0.049
# Max RMSD: 0.070
# Mean RMSD: 0.070
data_MOF--net-wjf--node1-ICAMEG_clean_sbu_1--edge1-OJICUG_clean_linker_0
_symmetry_space_group_name_H-M    P1
_symmetry_Int_Tables_number       1
_symmetry_cell_setting            triclinic
loop_
_symmetry_equiv_pos_as_xyz
'x, y, z'
_cell_length_a     40.888067
_cell_length_b     40.899099
_cell_length_c     22.464701
_cell_angle_alpha  89.971169
_cell_angle_beta   90.005291
_cell_angle_gamma 119.98349
loop_
_atom_site_label
_atom_site_type_symbol
_atom_site_fract_x
_atom_site_fract_y
_atom_site_fract_z
_atom_type_partial_charge
Co0 Co 0.36133 0.36186 0.07466 0.0
Co1 Co 0.34416 0.4327 0.02684 0.0
O2 O 0.33269 0.38881 0.07669 0.0
C3 C 0.36856 0.38807 0.19853 0.0
O4 O 0.37139 0.41939 0.17787 0.0
C5 C 0.26073 0.37963 0.00718 0.0
O6 O 0.26353 0.34984 0.02021 0.0
O7 O 0.34819 0.40663 0.95461 0.0
O8 O 0.36092 0.36199 0.98628 0.0
H9 H 0.41747 0.53074 0.87127 0.0
H10 H 0.2921 0.33102 0.14836 0.0
O11 O 0.36326 0.36146 0.16346 0.0
H12 H 0.2669 0.23228 0.0001 0.0
H13 H 0.39278 0.2634 0.14244 0.0
H14 H 0.42551 0.36868 0.00339 0.0
H15 H 0.32797 0.29178 0.00103 0.0
H16 H 0.35721 0.29748 0.14341 0.0
O17 O 0.28951 0.41264 0.00889 0.0
H18 H 0.40226 0.47604 0.93561 0.0
H19 H 0.31019 0.48214 0.01101 0.0
H20 H 0.46162 0.33518 0.00054 0.0
H21 H 0.2308 0.27175 0.14948 0.0
H22 H 0.44531 0.28212 0.07045 0.0
H23 H 0.21785 0.22193 0.07482 0.0
O24 O 0.41071 0.40988 0.07479 0.0
H25 H 0.28269 0.44075 0.21564 0.0
H26 H 0.39059 0.50953 0.07965 0.0
H27 H 0.38623 0.54109 0.17032 0.0
H28 H 0.33191 0.50664 0.23903 0.0
H29 H 0.28847 0.41015 0.12482 0.0
H30 H 0.32418 0.53666 0.9471 0.0
H31 H 0.37827 0.56142 0.87678 0.0
O32 O 0.39909 0.45509 0.04297 0.0
C33 C 0.35547 0.38013 0.9451 0.0
C34 C 0.3939 0.52029 0.90188 0.0
C35 C 0.34152 0.52358 0.94438 0.0
N36 N 0.35556 0.47608 0.97737 0.0
C37 C 0.38522 0.4894 0.93855 0.0
C38 C 0.33368 0.49264 0.98037 0.0
C39 C 0.37187 0.53747 0.90494 0.0
C40 C 0.2868 0.30931 0.11612 0.0
N41 N 0.3136 0.31479 0.07484 0.0
C42 C 0.25198 0.27588 0.1168 0.0
C43 C 0.24471 0.24797 0.07483 0.0
C44 C 0.27221 0.25377 0.03286 0.0
C45 C 0.30668 0.28758 0.03348 0.0
C46 C 0.40009 0.2864 0.11164 0.0
C47 C 0.41806 0.34543 0.03362 0.0
C48 C 0.38007 0.30583 0.11203 0.0
N49 N 0.38903 0.33479 0.07307 0.0
C50 C 0.43869 0.32665 0.03195 0.0
C51 C 0.42955 0.29691 0.07123 0.0
C52 C 0.42141 0.44401 0.06114 0.0
C53 C 0.30647 0.45607 0.18602 0.0
C54 C 0.36706 0.49428 0.10953 0.0
C55 C 0.36463 0.51235 0.16068 0.0
C56 C 0.33412 0.49302 0.19917 0.0
N57 N 0.33987 0.45802 0.09697 0.0
C58 C 0.30981 0.43894 0.1344 0.0
Co59 Co 0.00207 0.36009 0.40725 0.0
Co60 Co 0.91377 0.34259 0.36037 0.0
O61 O 0.94649 0.3313 0.40975 0.0
C62 C 0.98331 0.36795 0.53095 0.0
O63 O 0.95467 0.37045 0.51013 0.0
C64 C 0.88357 0.25914 0.34109 0.0
O65 O 0.91593 0.26171 0.35506 0.0
O66 O 0.94392 0.34714 0.28787 0.0
O67 O 0.00121 0.3592 0.31887 0.0
H68 H 0.88813 0.41579 0.20576 0.0
H69 H 0.96416 0.29133 0.48209 0.0
O70 O 0.00465 0.36256 0.49606 0.0
H71 H 0.03728 0.26542 0.33389 0.0
H72 H 0.13226 0.39212 0.47434 0.0
H73 H 0.0591 0.42388 0.33494 0.0
H74 H 0.03864 0.3264 0.33395 0.0
H75 H 0.06262 0.35651 0.47598 0.0
O76 O 0.87952 0.28803 0.34209 0.0
H77 H 0.928 0.40082 0.26964 0.0
H78 H 0.83029 0.30818 0.34497 0.0
H79 H 0.12869 0.46001 0.33141 0.0
H80 H 0.96234 0.23013 0.48409 0.0
H81 H 0.16575 0.44419 0.40149 0.0
H82 H 0.999 0.21683 0.40947 0.0
O83 O 0.00328 0.40941 0.40662 0.0
H84 H 0.8449 0.28041 0.54932 0.0
H85 H 0.88277 0.38833 0.41383 0.0
H86 H 0.84687 0.38348 0.5048 0.0
H87 H 0.82762 0.32915 0.57326 0.0
H88 H 0.88124 0.28668 0.45823 0.0
H89 H 0.7894 0.32193 0.28152 0.0
H90 H 0.81831 0.37618 0.21145 0.0
O91 O 0.94593 0.39738 0.37686 0.0
C92 C 0.97759 0.35415 0.27796 0.0
C93 C 0.8752 0.39215 0.23625 0.0
C94 C 0.81979 0.33945 0.27871 0.0
N95 N 0.88151 0.35384 0.31133 0.0
C96 C 0.89762 0.3836 0.27266 0.0
C97 C 0.8431 0.33174 0.31444 0.0
C98 C 0.83603 0.36989 0.23942 0.0
C99 C 0.98047 0.28587 0.44986 0.0
N100 N 0.00157 0.31243 0.40811 0.0
C101 C 0.9792 0.25111 0.45104 0.0
C102 C 0.99973 0.24365 0.40909 0.0
C103 C 0.02119 0.27089 0.36664 0.0
C104 C 0.02174 0.30532 0.36676 0.0
C105 C 0.11643 0.39921 0.44347 0.0
C106 C 0.07503 0.41664 0.36527 0.0
C107 C 0.07699 0.37918 0.44424 0.0
N108 N 0.05682 0.38787 0.40518 0.0
C109 C 0.11443 0.43729 0.3632 0.0
C110 C 0.1352 0.42842 0.40257 0.0
C111 C 0.9795 0.41985 0.39396 0.0
C112 C 0.85307 0.30419 0.51981 0.0
C113 C 0.87475 0.36479 0.44359 0.0
C114 C 0.85427 0.36209 0.49492 0.0
C115 C 0.84344 0.33157 0.53326 0.0
N116 N 0.88415 0.33786 0.43073 0.0
C117 C 0.87353 0.30781 0.46803 0.0
Co118 Co 0.63713 0.99744 0.74757 0.0
Co119 Co 0.56757 0.91071 0.69639 0.0
O120 O 0.60909 0.94233 0.7499 0.0
C121 C 0.60791 0.98311 0.8705 0.0
O122 O 0.57407 0.96227 0.84781 0.0
C123 C 0.61922 0.87923 0.67928 0.0
O124 O 0.64761 0.913 0.66732 0.0
O125 O 0.59809 0.93888 0.62543 0.0
O126 O 0.63787 0.99745 0.65883 0.0
H127 H 0.47861 0.88584 0.52579 0.0
H128 H 0.6654 0.9564 0.82066 0.0
O129 O 0.63683 0.99864 0.83684 0.0
H130 H 0.76662 0.03007 0.67584 0.0
H131 H 0.73696 0.12591 0.81799 0.0
H132 H 0.6327 0.05614 0.67613 0.0
H133 H 0.7082 0.03372 0.67629 0.0
H134 H 0.70139 0.05626 0.81806 0.0
O135 O 0.58661 0.87444 0.6906 0.0
H136 H 0.53055 0.9254 0.59463 0.0
H137 H 0.51683 0.82745 0.68294 0.0
H138 H 0.66769 0.12575 0.6742 0.0
H139 H 0.72348 0.95214 0.82208 0.0
H140 H 0.72025 0.16111 0.74551 0.0
H141 H 0.77456 0.9891 0.74921 0.0
O142 O 0.58957 0.99973 0.74547 0.0
H143 H 0.54635 0.84528 0.8938 0.0
H144 H 0.4885 0.88392 0.73662 0.0
H145 H 0.45124 0.85098 0.82558 0.0
H146 H 0.48016 0.83133 0.90495 0.0
H147 H 0.5827 0.87869 0.80436 0.0
H148 H 0.46502 0.78683 0.61466 0.0
H149 H 0.44547 0.81604 0.5356 0.0
O150 O 0.54675 0.94547 0.7023 0.0
C151 C 0.62297 0.97345 0.61689 0.0
C152 C 0.4868 0.87279 0.56019 0.0
C153 C 0.4792 0.81722 0.61002 0.0
N154 N 0.52652 0.87878 0.64307 0.0
C155 C 0.51611 0.89504 0.59942 0.0
C156 C 0.50864 0.84037 0.64845 0.0
C157 C 0.46824 0.83362 0.56567 0.0
C158 C 0.68764 0.9728 0.78913 0.0
N159 N 0.68352 0.99544 0.74868 0.0
C160 C 0.7204 0.97017 0.79001 0.0
C161 C 0.74903 0.99088 0.74906 0.0
C162 C 0.74459 0.01386 0.70786 0.0
C163 C 0.71141 0.01575 0.70825 0.0
C164 C 0.71419 0.11082 0.78659 0.0
C165 C 0.65572 0.07132 0.70701 0.0
C166 C 0.69392 0.0714 0.78648 0.0
N167 N 0.66527 0.05218 0.74672 0.0
C168 C 0.67534 0.11074 0.70584 0.0
C169 C 0.7048 0.13056 0.7459 0.0
C170 C 0.55678 0.9779 0.72405 0.0
C171 C 0.53344 0.85371 0.85955 0.0
C172 C 0.50138 0.87582 0.77117 0.0
C173 C 0.48009 0.85698 0.82133 0.0
C174 C 0.49631 0.84593 0.8658 0.0
N175 N 0.5378 0.88342 0.76537 0.0
C176 C 0.55386 0.87258 0.80874 0.0
Co177 Co 0.63864 0.63799 0.08859 0.0
Co178 Co 0.65914 0.56921 0.04419 0.0
O179 O 0.66794 0.61208 0.09405 0.0
C180 C 0.62988 0.61321 0.2131 0.0
O181 O 0.6258 0.5812 0.19336 0.0
C182 C 0.74183 0.62147 0.02082 0.0
O183 O 0.73552 0.64862 0.00419 0.0
O184 O 0.6596 0.59683 0.97056 0.0
O185 O 0.63963 0.6364 0.00033 0.0
H186 H 0.59665 0.47457 0.87995 0.0
H187 H 0.70792 0.67075 0.16231 0.0
O188 O 0.63624 0.63981 0.17722 0.0
H189 H 0.73162 0.767 0.00998 0.0
H190 H 0.60424 0.73569 0.14808 0.0
H191 H 0.57442 0.62865 0.01462 0.0
H192 H 0.67098 0.70706 0.01258 0.0
H193 H 0.64088 0.70277 0.15319 0.0
O194 O 0.71473 0.58967 0.03758 0.0
H195 H 0.60743 0.52787 0.94439 0.0
H196 H 0.69394 0.52015 0.03689 0.0
H197 H 0.53727 0.66096 0.00765 0.0
H198 H 0.76887 0.73043 0.16164 0.0
H199 H 0.55212 0.71491 0.07472 0.0
H200 H 0.78104 0.77902 0.08499 0.0
O201 O 0.58999 0.58934 0.08913 0.0
H202 H 0.7079 0.55625 0.24298 0.0
H203 H 0.60872 0.49151 0.09159 0.0
H204 H 0.60681 0.45784 0.18374 0.0
H205 H 0.65672 0.49024 0.26022 0.0
H206 H 0.7084 0.589 0.15047 0.0
H207 H 0.68434 0.46702 0.97309 0.0
H208 H 0.63528 0.44378 0.89411 0.0
O209 O 0.60332 0.54672 0.05055 0.0
C210 C 0.64898 0.62081 0.95991 0.0
C211 C 0.61803 0.48436 0.91434 0.0
C212 C 0.66728 0.48016 0.96655 0.0
N213 N 0.65109 0.52695 0.99464 0.0
C214 C 0.62419 0.51446 0.95107 0.0
C215 C 0.67266 0.51033 0.00245 0.0
C216 C 0.63974 0.46713 0.92226 0.0
C217 C 0.71292 0.69189 0.12912 0.0
N218 N 0.68588 0.68555 0.08779 0.0
C219 C 0.74752 0.72557 0.12883 0.0
C220 C 0.75435 0.7528 0.08576 0.0
C221 C 0.72664 0.74607 0.04364 0.0
C222 C 0.69239 0.71204 0.04526 0.0
C223 C 0.59757 0.71229 0.11851 0.0
C224 C 0.58122 0.65228 0.04366 0.0
C225 C 0.61818 0.69351 0.12125 0.0
N226 N 0.61003 0.66406 0.08382 0.0
C227 C 0.56001 0.67038 0.03964 0.0
C228 C 0.56833 0.70062 0.07733 0.0
C229 C 0.5801 0.55628 0.07029 0.0
C230 C 0.68601 0.54181 0.20998 0.0
C231 C 0.6303 0.50589 0.12483 0.0
C232 C 0.62921 0.48663 0.17682 0.0
C233 C 0.65725 0.5048 0.21966 0.0
N234 N 0.65852 0.54223 0.11572 0.0
C235 C 0.68621 0.56017 0.15741 0.0
Co236 Co 1.00078 0.63612 0.41814 0.0
Co237 Co 0.08981 0.65699 0.37207 0.0
O238 O 0.05603 0.66575 0.42282 0.0
C239 C 0.01742 0.62871 0.54294 0.0
O240 O 0.04533 0.62448 0.52346 0.0
C241 C 0.1209 0.73991 0.34991 0.0
O242 O 0.08772 0.7342 0.33285 0.0
O243 O 0.06255 0.65821 0.29918 0.0
O244 O 0.0028 0.63618 0.32977 0.0
H245 H 0.12086 0.59531 0.20512 0.0
H246 H 0.03732 0.70625 0.48973 0.0
O247 O 0.99704 0.63468 0.5068 0.0
H248 H 0.96317 0.72741 0.33707 0.0
H249 H 0.8687 0.60124 0.47875 0.0
H250 H 0.94591 0.57081 0.34618 0.0
H251 H 0.96302 0.66707 0.34141 0.0
H252 H 0.93826 0.63852 0.48263 0.0
O253 O 0.12511 0.71245 0.36632 0.0
H254 H 0.07879 0.60591 0.27101 0.0
H255 H 0.17361 0.69133 0.36377 0.0
H256 H 0.87646 0.533 0.34046 0.0
H257 H 0.03806 0.76695 0.48729 0.0
H258 H 0.83736 0.54815 0.40709 0.0
H259 H 1.00083 0.77782 0.41046 0.0
O260 O 0.00135 0.5878 0.42011 0.0
H261 H 0.15243 0.70418 0.57065 0.0
H262 H 0.11693 0.60594 0.41735 0.0
H263 H 0.14904 0.60327 0.50856 0.0
H264 H 0.16708 0.65271 0.58599 0.0
H265 H 0.11981 0.70544 0.47907 0.0
H266 H 0.21669 0.6819 0.29853 0.0
H267 H 0.19035 0.63348 0.21867 0.0
O268 O 0.05634 0.60119 0.37762 0.0
C269 C 0.02769 0.64656 0.28903 0.0
C270 C 0.13267 0.61641 0.23988 0.0
C271 C 0.18646 0.66504 0.29225 0.0
N272 N 0.12369 0.64902 0.32148 0.0
C273 C 0.10899 0.62247 0.27744 0.0
C274 C 0.16191 0.67032 0.32897 0.0
C275 C 0.17166 0.63786 0.24746 0.0
C276 C 0.02084 0.71071 0.45647 0.0
N277 N 0.99999 0.68311 0.41602 0.0
C278 C 0.02146 0.74516 0.45517 0.0
C279 C 1.00059 0.75126 0.41201 0.0
C280 C 0.97947 0.72299 0.3708 0.0
C281 C 0.97956 0.68891 0.3734 0.0
C282 C 0.88542 0.59444 0.44937 0.0
C283 C 0.92909 0.57775 0.37499 0.0
C284 C 0.92481 0.61541 0.45141 0.0
N285 N 0.9461 0.60709 0.41422 0.0
C286 C 0.88977 0.55616 0.3717 0.0
C287 C 0.86786 0.56465 0.40914 0.0
C288 C 0.0242 0.57798 0.39947 0.0
C289 C 0.14473 0.68249 0.53724 0.0
C290 C 0.12434 0.62731 0.45104 0.0
C291 C 0.14272 0.62579 0.50248 0.0
C292 C 0.15289 0.65357 0.54586 0.0
N293 N 0.1163 0.65567 0.44297 0.0
C294 C 0.12636 0.68312 0.48519 0.0
Co295 Co 0.36412 0.00499 0.74936 0.0
Co296 Co 0.43433 0.09197 0.69785 0.0
O297 O 0.39209 0.06035 0.75077 0.0
C298 C 0.39437 0.01886 0.87232 0.0
O299 O 0.4282 0.03981 0.84967 0.0
C300 C 0.38074 0.1214 0.68024 0.0
O301 O 0.35135 0.08791 0.68988 0.0
O302 O 0.40595 0.06184 0.62688 0.0
O303 O 0.36226 0.00471 0.6607 0.0
H304 H 0.52747 0.11533 0.53441 0.0
H305 H 0.33633 0.04533 0.82514 0.0
O306 O 0.36541 0.00384 0.83872 0.0
H307 H 0.23364 0.97204 0.68244 0.0
H308 H 0.2652 0.87667 0.82217 0.0
H309 H 0.36761 0.94607 0.67716 0.0
H310 H 0.29235 0.96895 0.67984 0.0
H311 H 0.30075 0.9463 0.82167 0.0
O312 O 0.41416 0.12678 0.68343 0.0
H313 H 0.47457 0.07638 0.60217 0.0
H314 H 0.48372 0.17515 0.68042 0.0
H315 H 0.3326 0.87647 0.67578 0.0
H316 H 0.27792 0.0489 0.82975 0.0
H317 H 0.28097 0.84129 0.74868 0.0
H318 H 0.22612 0.01216 0.75791 0.0
O319 O 0.41166 0.00251 0.7453 0.0
H320 H 0.44902 0.16191 0.88877 0.0
H321 H 0.51267 0.12184 0.74404 0.0
H322 H 0.5473 0.15773 0.83303 0.0
H323 H 0.51545 0.17811 0.9061 0.0
H324 H 0.41535 0.12557 0.79945 0.0
H325 H 0.53643 0.21514 0.61309 0.0
H326 H 0.55875 0.18523 0.53961 0.0
O327 O 0.45637 0.05883 0.71036 0.0
C328 C 0.37935 0.02798 0.61856 0.0
C329 C 0.51808 0.12869 0.56637 0.0
C330 C 0.52307 0.18471 0.61047 0.0
N331 N 0.47626 0.12345 0.64554 0.0
C332 C 0.48822 0.10679 0.60498 0.0
C333 C 0.49315 0.1619 0.64839 0.0
C334 C 0.53559 0.16791 0.56927 0.0
C335 C 0.31376 0.02898 0.79411 0.0
N336 N 0.31768 0.00684 0.75244 0.0
C337 C 0.28082 0.03124 0.79677 0.0
C338 C 0.25179 0.01066 0.75638 0.0
C339 C 0.25601 0.98817 0.71399 0.0
C340 C 0.28937 0.98663 0.71261 0.0
C341 C 0.28758 0.89168 0.79009 0.0
C342 C 0.34501 0.93097 0.70875 0.0
C343 C 0.30784 0.9311 0.78965 0.0
N344 N 0.33599 0.95023 0.74905 0.0
C345 C 0.32537 0.89156 0.70788 0.0
C346 C 0.29643 0.87184 0.74884 0.0
C347 C 0.44536 0.02542 0.7284 0.0
C348 C 0.46321 0.15319 0.85726 0.0
C349 C 0.49854 0.1303 0.77588 0.0
C350 C 0.51834 0.15079 0.82605 0.0
C351 C 0.50047 0.16224 0.86699 0.0
N352 N 0.462 0.12151 0.76666 0.0
C353 C 0.44431 0.13269 0.80655 0.0
Co354 Co 0.64008 0.63974 0.58655 0.0
Co355 Co 0.56946 0.65722 0.63441 0.0
O356 O 0.61326 0.66852 0.58446 0.0
C357 C 0.61402 0.63267 0.46262 0.0
O358 O 0.58265 0.62975 0.48323 0.0
C359 C 0.62246 0.74071 0.65308 0.0
O360 O 0.65234 0.73792 0.64072 0.0
O361 O 0.59573 0.6535 0.70667 0.0
O362 O 0.6398 0.63998 0.67494 0.0
H363 H 0.47192 0.58463 0.79099 0.0
H364 H 0.67125 0.70912 0.51315 0.0
O365 O 0.64063 0.63799 0.49775 0.0
H366 H 0.76964 0.73373 0.66192 0.0
H367 H 0.7384 0.60802 0.51909 0.0
H368 H 0.63288 0.57533 0.65761 0.0
H369 H 0.71004 0.67276 0.66053 0.0
H370 H 0.70451 0.64378 0.51808 0.0
O371 O 0.5895 0.71187 0.6516 0.0
H372 H 0.52643 0.59956 0.72637 0.0
H373 H 0.51994 0.69115 0.64984 0.0
H374 H 0.66618 0.53903 0.66049 0.0
H375 H 0.73063 0.77033 0.51249 0.0
H376 H 0.71936 0.55532 0.59085 0.0
H377 H 0.78026 0.78298 0.58741 0.0
O378 O 0.59195 0.59049 0.58611 0.0
H379 H 0.56098 0.71778 0.44479 0.0
H380 H 0.49238 0.61074 0.58235 0.0
H381 H 0.46058 0.6147 0.49164 0.0
H382 H 0.49494 0.66859 0.42214 0.0
H383 H 0.59182 0.71238 0.53565 0.0
H384 H 0.46562 0.67744 0.71403 0.0
H385 H 0.44115 0.62373 0.78507 0.0
O386 O 0.54704 0.60229 0.61888 0.0
C387 C 0.62197 0.64582 0.71615 0.0
C388 C 0.48225 0.60803 0.76008 0.0
C389 C 0.47874 0.66015 0.71694 0.0
N390 N 0.5262 0.64601 0.68404 0.0
C391 C 0.51303 0.61655 0.72325 0.0
C392 C 0.50958 0.66783 0.6808 0.0
C393 C 0.46502 0.63 0.75678 0.0
C394 C 0.69289 0.71429 0.5455 0.0
N395 N 0.68725 0.68737 0.58667 0.0
C396 C 0.72637 0.74906 0.54508 0.0
C397 C 0.75418 0.75616 0.58719 0.0
C398 C 0.74822 0.72855 0.62905 0.0
C399 C 0.71436 0.69413 0.62817 0.0
C400 C 0.71534 0.60072 0.54978 0.0
C401 C 0.65618 0.58277 0.62749 0.0
C402 C 0.69602 0.62084 0.54936 0.0
N403 N 0.667 0.61189 0.58818 0.0
C404 C 0.67485 0.56203 0.62919 0.0
C405 C 0.70465 0.57116 0.59006 0.0
C406 C 0.55791 0.57991 0.60025 0.0
C407 C 0.5457 0.69417 0.47474 0.0
C408 C 0.5076 0.63405 0.5521 0.0
C409 C 0.4894 0.63627 0.50094 0.0
C410 C 0.50867 0.66654 0.46202 0.0
N411 N 0.54396 0.66121 0.56423 0.0
C412 C 0.56298 0.69105 0.52639 0.0
Co413 Co 1.00027 0.64062 0.91617 0.0
Co414 Co 0.91202 0.56963 0.96272 0.0
O415 O 0.94472 0.61369 0.91343 0.0
C416 C 0.98184 0.61405 0.79239 0.0
O417 O 0.95317 0.58288 0.81306 0.0
C418 C 0.88209 0.62305 0.98286 0.0
O419 O 0.91464 0.65271 0.9693 0.0
O420 O 0.94206 0.59513 0.03534 0.0
O421 O 0.9992 0.64067 0.0045 0.0
H422 H 0.88618 0.47046 0.11681 0.0
H423 H 0.96227 0.67122 0.84096 0.0
O424 O 0.00307 0.64074 0.82739 0.0
H425 H 0.03487 0.77038 0.98913 0.0
H426 H 0.13049 0.739 0.84963 0.0
H427 H 0.05727 0.6341 0.98897 0.0
H428 H 0.03648 0.71089 0.98937 0.0
H429 H 0.06085 0.7048 0.84758 0.0
O430 O 0.87769 0.58997 0.98114 0.0
H431 H 0.92614 0.52545 0.0533 0.0
H432 H 0.82854 0.52062 0.97786 0.0
H433 H 0.12685 0.66773 0.99291 0.0
H434 H 0.9602 0.73047 0.83866 0.0
H435 H 0.16394 0.7206 0.92286 0.0
H436 H 0.9966 0.7805 0.91326 0.0
O437 O 0.00169 0.59261 0.91702 0.0
H438 H 0.84307 0.56307 0.77396 0.0
H439 H 0.88157 0.49315 0.90864 0.0
H440 H 0.84582 0.46226 0.81751 0.0
H441 H 0.82626 0.49728 0.74946 0.0
H442 H 0.87925 0.593 0.86522 0.0
H443 H 0.78756 0.46582 0.04094 0.0
H444 H 0.81637 0.44029 0.11087 0.0
O445 O 0.94434 0.54706 0.94627 0.0
C446 C 0.97561 0.62194 0.04535 0.0
C447 C 0.87329 0.48125 0.08637 0.0
C448 C 0.81795 0.47868 0.04385 0.0
N449 N 0.87972 0.52606 0.01157 0.0
C450 C 0.89577 0.51231 0.05017 0.0
C451 C 0.84131 0.50977 0.00833 0.0
C452 C 0.83412 0.46436 0.08306 0.0
C453 C 0.97847 0.69302 0.87318 0.0
N454 N 0.99957 0.68767 0.91508 0.0
C455 C 0.97706 0.72643 0.87184 0.0
C456 C 0.99744 0.75447 0.91377 0.0
C457 C 0.01889 0.74879 0.95639 0.0
C458 C 0.01959 0.71499 0.95643 0.0
C459 C 0.11465 0.71608 0.88049 0.0
C460 C 0.07321 0.65726 0.95865 0.0
C461 C 0.07521 0.69658 0.87949 0.0
N462 N 0.05502 0.66773 0.91853 0.0
C463 C 0.11261 0.67611 0.96095 0.0
C464 C 0.1334 0.70575 0.9216 0.0
C465 C 0.97804 0.55834 0.92952 0.0
C466 C 0.85137 0.5475 0.8033 0.0
C467 C 0.87339 0.50864 0.87908 0.0
C468 C 0.853 0.49095 0.82766 0.0
C469 C 0.842 0.5106 0.78953 0.0
N470 N 0.88251 0.54485 0.89226 0.0
C471 C 0.87173 0.56425 0.85518 0.0
Co472 Co 0.36024 0.99527 0.24526 0.0
Co473 Co 0.34414 0.90871 0.2977 0.0
O474 O 0.33318 0.9399 0.24435 0.0
C475 C 0.37625 0.98124 0.12215 0.0
O476 O 0.3897 0.96074 0.14468 0.0
C477 C 0.26109 0.87877 0.31517 0.0
O478 O 0.26516 0.91233 0.30644 0.0
O479 O 0.34535 0.93881 0.36833 0.0
O480 O 0.3591 0.99592 0.33395 0.0
H481 H 0.41436 0.88672 0.46204 0.0
H482 H 0.29173 0.95422 0.17049 0.0
O483 O 0.36218 0.99607 0.15589 0.0
H484 H 0.26247 0.02764 0.31315 0.0
H485 H 0.38845 0.12305 0.17157 0.0
H486 H 0.42287 0.05468 0.31645 0.0
H487 H 0.32452 0.03126 0.31495 0.0
H488 H 0.35472 0.05343 0.17279 0.0
O489 O 0.2892 0.87351 0.31174 0.0
H490 H 0.39994 0.9251 0.39374 0.0
H491 H 0.31106 0.82565 0.31582 0.0
H492 H 0.45713 0.12429 0.31712 0.0
H493 H 0.22948 0.9501 0.1667 0.0
H494 H 0.43996 0.15895 0.24428 0.0
H495 H 0.21449 0.9869 0.23854 0.0
O496 O 0.41041 0.99806 0.24873 0.0
H497 H 0.28989 0.83827 0.10681 0.0
H498 H 0.39314 0.87918 0.25262 0.0
H499 H 0.39247 0.84326 0.16405 0.0
H500 H 0.34048 0.82246 0.09043 0.0
H501 H 0.29198 0.87465 0.19572 0.0
H502 H 0.32425 0.78623 0.38371 0.0
H503 H 0.37636 0.81677 0.45729 0.0
O504 O 0.39928 0.94226 0.28539 0.0
C505 C 0.35271 0.97273 0.37631 0.0
C506 C 0.39166 0.87309 0.43004 0.0
C507 C 0.34106 0.81669 0.38614 0.0
N508 N 0.3549 0.87766 0.3505 0.0
C509 C 0.38344 0.89466 0.39112 0.0
C510 C 0.33366 0.83917 0.34791 0.0
C511 C 0.37031 0.83384 0.42739 0.0
C512 C 0.28554 0.97061 0.2015 0.0
N513 N 0.31177 0.99306 0.24272 0.0
C514 C 0.25019 0.96803 0.19932 0.0
C515 C 0.24178 0.98864 0.2397 0.0
C516 C 0.26868 0.01148 0.28161 0.0
C517 C 0.30372 0.01332 0.28253 0.0
C518 C 0.39612 0.10827 0.20362 0.0
C519 C 0.41505 0.06955 0.2849 0.0
C520 C 0.37717 0.06886 0.20447 0.0
N521 N 0.38658 0.05001 0.24504 0.0
C522 C 0.43464 0.10898 0.28536 0.0
C523 C 0.42502 0.1284 0.24444 0.0
C524 C 0.42146 0.97549 0.26638 0.0
C525 C 0.3127 0.84719 0.13854 0.0
C526 C 0.37068 0.87057 0.22051 0.0
C527 C 0.37031 0.85005 0.17059 0.0
C528 C 0.34111 0.83835 0.12935 0.0
N529 N 0.34275 0.87916 0.22919 0.0
C530 C 0.31399 0.86773 0.18902 0.0
Co531 Co 0.36303 0.36347 0.57264 0.0
Co532 Co 0.43157 0.34256 0.61702 0.0
O533 O 0.38871 0.33393 0.56722 0.0
C534 C 0.38781 0.37213 0.44816 0.0
O535 O 0.41977 0.37609 0.46796 0.0
C536 C 0.37946 0.25995 0.64154 0.0
O537 O 0.3525 0.26618 0.65962 0.0
O538 O 0.40407 0.34228 0.69066 0.0
O539 O 0.36465 0.36247 0.6609 0.0
H540 H 0.52636 0.40469 0.78125 0.0
H541 H 0.32994 0.29419 0.49897 0.0
O542 O 0.36122 0.36587 0.48399 0.0
H543 H 0.23385 0.271 0.65129 0.0
H544 H 0.26578 0.39852 0.5131 0.0
H545 H 0.37275 0.4278 0.64656 0.0
H546 H 0.29399 0.33145 0.64867 0.0
H547 H 0.29841 0.3616 0.50801 0.0
O548 O 0.41092 0.28703 0.62363 0.0
H549 H 0.47312 0.39419 0.71677 0.0
H550 H 0.48036 0.30744 0.62433 0.0
H551 H 0.34074 0.46523 0.65351 0.0
H552 H 0.27005 0.23343 0.49966 0.0
H553 H 0.28683 0.45065 0.58645 0.0
H554 H 0.22154 0.22153 0.5763 0.0
O555 O 0.41184 0.41196 0.57206 0.0
H556 H 0.44403 0.29357 0.41821 0.0
H557 H 0.50937 0.39256 0.56961 0.0
H558 H 0.54291 0.39422 0.47744 0.0
H559 H 0.51019 0.34442 0.40096 0.0
H560 H 0.41143 0.29331 0.51073 0.0
H561 H 0.53341 0.31676 0.68816 0.0
H562 H 0.55685 0.3658 0.76715 0.0
O563 O 0.45429 0.39833 0.6106 0.0
C564 C 0.38019 0.35303 0.70131 0.0
C565 C 0.51647 0.38332 0.74687 0.0
C566 C 0.52039 0.33393 0.69468 0.0
N567 N 0.4738 0.35042 0.66655 0.0
C568 C 0.48641 0.37731 0.71011 0.0
C569 C 0.49026 0.32871 0.65877 0.0
C570 C 0.53354 0.36146 0.73897 0.0
C571 C 0.30883 0.2893 0.53216 0.0
N572 N 0.31533 0.31638 0.57347 0.0
C573 C 0.27504 0.25481 0.53247 0.0
C574 C 0.24785 0.24813 0.57553 0.0
C575 C 0.25474 0.27587 0.61763 0.0
C576 C 0.28888 0.31001 0.616 0.0
C577 C 0.28916 0.40508 0.54267 0.0
C578 C 0.34914 0.42112 0.61752 0.0
C579 C 0.30778 0.38431 0.53994 0.0
N580 N 0.3372 0.3923 0.57737 0.0
C581 C 0.3312 0.44249 0.62153 0.0
C582 C 0.30098 0.43432 0.58385 0.0
C583 C 0.44488 0.42166 0.59085 0.0
C584 C 0.4586 0.31543 0.4512 0.0
C585 C 0.49485 0.37103 0.53635 0.0
C586 C 0.51404 0.37198 0.48436 0.0
C587 C 0.49569 0.34399 0.44151 0.0
N588 N 0.45843 0.34301 0.54546 0.0
C589 C 0.44033 0.31536 0.50377 0.0
Co590 Co 0.00228 0.36482 0.90523 0.0
Co591 Co 0.09121 0.43378 0.95047 0.0
O592 O 0.05752 0.391 0.90015 0.0
C593 C 0.01852 0.38917 0.78048 0.0
O594 O 0.0463 0.42135 0.79998 0.0
C595 C 0.12204 0.38175 0.97232 0.0
O596 O 0.08853 0.35425 0.98791 0.0
O597 O 0.06411 0.40563 0.02375 0.0
O598 O 0.00455 0.36659 0.99354 0.0
H599 H 0.12207 0.52752 0.11573 0.0
H600 H 0.03937 0.3322 0.83259 0.0
O601 O 0.99831 0.36271 0.81657 0.0
H602 H 0.96671 0.23621 0.98518 0.0
H603 H 0.87054 0.2665 0.84529 0.0
H604 H 0.94701 0.37415 0.97814 0.0
H605 H 0.96557 0.29592 0.98162 0.0
H606 H 0.94012 0.29966 0.84073 0.0
O607 O 0.1267 0.41374 0.95679 0.0
H608 H 0.08008 0.47431 0.05071 0.0
H609 H 0.17496 0.48341 0.95843 0.0
H610 H 0.87754 0.34161 0.98455 0.0
H611 H 0.04109 0.27275 0.83424 0.0
H612 H 0.83881 0.28735 0.91779 0.0
H613 H 0.00462 0.2243 0.91103 0.0
O614 O 0.00207 0.41336 0.90394 0.0
H615 H 0.15368 0.4484 0.75192 0.0
H616 H 0.11786 0.51158 0.90405 0.0
H617 H 0.14971 0.54591 0.81239 0.0
H618 H 0.16791 0.51429 0.73554 0.0
H619 H 0.12132 0.41497 0.84394 0.0
H620 H 0.21798 0.53647 0.02281 0.0
H621 H 0.19156 0.55897 0.10197 0.0
O622 O 0.05744 0.45583 0.94437 0.0
C623 C 0.02944 0.38178 0.03413 0.0
C624 C 0.13392 0.51805 0.08127 0.0
C625 C 0.18774 0.52304 0.02917 0.0
N626 N 0.12501 0.47594 0.00053 0.0
C627 C 0.11028 0.48801 0.04421 0.0
C628 C 0.16324 0.49291 0.99295 0.0
C629 C 0.1729 0.53566 0.07357 0.0
C630 C 0.0232 0.3111 0.86583 0.0
N631 N 0.00222 0.3174 0.9067 0.0
C632 C 0.02438 0.27756 0.86668 0.0
C633 C 0.00394 0.25041 0.90983 0.0
C634 C 0.98268 0.25708 0.95146 0.0
C635 C 0.98221 0.29097 0.94929 0.0
C636 C 0.8871 0.29003 0.87473 0.0
C637 C 0.93036 0.35039 0.94925 0.0
C638 C 0.9265 0.30895 0.8723 0.0
N639 N 0.94759 0.33856 0.90957 0.0
C640 C 0.89103 0.33215 0.95294 0.0
C641 C 0.86932 0.30174 0.91543 0.0
C642 C 0.02488 0.44631 0.9236 0.0
C643 C 0.14591 0.46249 0.78508 0.0
C644 C 0.12535 0.49753 0.87063 0.0
C645 C 0.14357 0.51717 0.81893 0.0
C646 C 0.15383 0.49944 0.77588 0.0
N647 N 0.11755 0.46125 0.87927 0.0
C648 C 0.1277 0.44375 0.83737 0.0
Co649 Co 0.64119 0.00368 0.24372 0.0
Co650 Co 0.65873 0.09076 0.29396 0.0
O651 O 0.66836 0.05877 0.24089 0.0
C652 C 0.62575 0.01772 0.12095 0.0
O653 O 0.6131 0.03882 0.14376 0.0
C654 C 0.74162 0.12142 0.31198 0.0
O655 O 0.73575 0.08752 0.32442 0.0
O656 O 0.66055 0.06257 0.36533 0.0
O657 O 0.64239 0.00403 0.33241 0.0
H658 H 0.59496 0.11697 0.4635 0.0
H659 H 0.71007 0.04429 0.1696 0.0
O660 O 0.63918 0.00215 0.15447 0.0
H661 H 0.73832 0.97114 0.31446 0.0
H662 H 0.61198 0.87488 0.17415 0.0
H663 H 0.57845 0.94533 0.31617 0.0
H664 H 0.6763 0.96761 0.31477 0.0
H665 H 0.64611 0.94452 0.17337 0.0
O666 O 0.71412 0.12661 0.3 0.0
H667 H 0.60691 0.07684 0.39524 0.0
H668 H 0.692 0.17414 0.30678 0.0
H669 H 0.54379 0.87572 0.31883 0.0
H670 H 0.77235 0.04843 0.16742 0.0
H671 H 0.56052 0.84003 0.24745 0.0
H672 H 0.78682 0.01172 0.24031 0.0
O673 O 0.59139 0.00151 0.24649 0.0
H674 H 0.70391 0.15569 0.09637 0.0
H675 H 0.6071 0.11811 0.25277 0.0
H676 H 0.60336 0.15108 0.16338 0.0
H677 H 0.65209 0.17019 0.08441 0.0
H678 H 0.70626 0.12225 0.18622 0.0
H679 H 0.68124 0.21531 0.37447 0.0
H680 H 0.63227 0.18672 0.45333 0.0
O681 O 0.60311 0.05637 0.2878 0.0
C682 C 0.65113 0.02809 0.37417 0.0
C683 C 0.61628 0.12975 0.42919 0.0
C684 C 0.66475 0.18494 0.37928 0.0
N685 N 0.6499 0.12311 0.34677 0.0
C686 C 0.6231 0.10718 0.3903 0.0
C687 C 0.67079 0.16149 0.34118 0.0
C688 C 0.63726 0.16889 0.4235 0.0
C689 C 0.71606 0.028 0.20114 0.0
N690 N 0.68952 0.00557 0.24201 0.0
C691 C 0.75142 0.03056 0.19983 0.0
C692 C 0.75953 0.01 0.24079 0.0
C693 C 0.73233 0.98723 0.28243 0.0
C694 C 0.6973 0.98541 0.28246 0.0
C695 C 0.6045 0.89011 0.20559 0.0
C696 C 0.58607 0.92999 0.28525 0.0
C697 C 0.62368 0.92954 0.20529 0.0
N698 N 0.61452 0.94895 0.24509 0.0
C699 C 0.56626 0.89058 0.28683 0.0
C700 C 0.57563 0.87058 0.24673 0.0
C701 C 0.58059 0.02366 0.26711 0.0
C702 C 0.68249 0.14749 0.13044 0.0
C703 C 0.62815 0.12598 0.21839 0.0
C704 C 0.62602 0.14484 0.16798 0.0
C705 C 0.65339 0.15559 0.12373 0.0
N706 N 0.65672 0.11807 0.22463 0.0
C707 C 0.68371 0.12861 0.18148 0.0
C708 C 0.3928 0.36571 0.28136 0.0
C709 C 0.37339 0.38411 0.26239 0.0
H710 H 0.41348 0.34841 0.35572 0.0
C711 C 0.35886 0.39862 0.30476 0.0
H712 H 0.40442 0.35449 0.24927 0.0
C713 C 0.36301 0.39409 0.36542 0.0
C714 C 0.38291 0.37619 0.38436 0.0
H715 H 0.34376 0.41285 0.29097 0.0
H716 H 0.35123 0.40514 0.39754 0.0
C717 C 0.3981 0.36236 0.34197 0.0
C718 C 0.02997 0.39295 0.61367 0.0
C719 C 0.99217 0.37324 0.59477 0.0
H720 H 0.06794 0.41438 0.68796 0.0
C721 C 0.96313 0.35894 0.63718 0.0
H722 H 0.0528 0.40441 0.58154 0.0
C723 C 0.97182 0.36363 0.69781 0.0
C724 C 0.00961 0.38383 0.71669 0.0
H725 H 0.93381 0.34363 0.62345 0.0
H726 H 0.949 0.35202 0.72996 0.0
C727 C 0.03862 0.39879 0.67425 0.0
C728 C 0.64443 0.99603 0.96516 0.0
C729 C 0.6123 0.99123 0.93476 0.0
H730 H 0.67347 0.00746 0.04885 0.0
C731 C 0.58495 0.99563 0.96577 0.0
H732 H 0.66591 0.99283 0.94203 0.0
C733 C 0.5899 0.00526 0.02607 0.0
C734 C 0.62169 0.00946 0.05673 0.0
H735 H 0.56011 0.99239 0.94311 0.0
H736 H 0.56849 0.00869 0.04899 0.0
C737 C 0.64875 0.00441 0.026 0.0
C738 C 0.63968 0.60299 0.31933 0.0
C739 C 0.62585 0.61816 0.27687 0.0
H740 H 0.64758 0.59675 0.41207 0.0
C741 C 0.60798 0.63811 0.29571 0.0
H742 H 0.6536 0.58759 0.30566 0.0
C743 C 0.60348 0.64232 0.35635 0.0
C744 C 0.618 0.62781 0.3988 0.0
H745 H 0.59694 0.64987 0.26354 0.0
H746 H 0.58927 0.65745 0.37007 0.0
C747 C 0.63636 0.60836 0.37992 0.0
C748 C 0.02863 0.63605 0.7098 0.0
C749 C 0.99079 0.61776 0.7286 0.0
H750 H 0.06672 0.65293 0.63561 0.0
C751 C 0.96182 0.60303 0.6861 0.0
H752 H 0.05141 0.64743 0.742 0.0
C753 C 0.9706 0.60722 0.62548 0.0
C754 C 0.00842 0.62501 0.60671 0.0
H755 H 0.93247 0.58888 0.69973 0.0
H756 H 0.94782 0.596 0.59327 0.0
C757 C 0.03738 0.63907 0.64924 0.0
C758 C 0.35312 0.99508 0.02766 0.0
C759 C 0.38031 0.98999 0.05797 0.0
H760 H 0.33597 0.00754 0.94436 0.0
C761 C 0.41233 0.99497 0.02704 0.0
H762 H 0.32824 0.99148 0.05066 0.0
C763 C 0.41739 0.00544 0.96702 0.0
C764 C 0.38993 0.00994 0.93645 0.0
H765 H 0.43387 0.99157 0.0496 0.0
H766 H 0.44241 0.00926 0.94421 0.0
C767 C 0.35757 0.00431 0.96708 0.0
C768 C 0.15568 0.34689 0.00479 0.0
C769 C 0.15599 0.37755 0.9757 0.0
H770 H 0.18888 0.32315 0.03752 0.0
C771 C 0.19026 0.40636 0.95236 0.0
H772 H 0.1297 0.32418 0.02304 0.0
C773 C 0.22367 0.40583 0.96078 0.0
C774 C 0.22393 0.37636 0.99244 0.0
H775 H 0.19163 0.43012 0.92877 0.0
H776 H 0.2496 0.42916 0.94347 0.0
C777 C 0.18948 0.34625 0.01297 0.0
C778 C 0.81989 0.22224 0.29625 0.0
C779 C 0.8498 0.2224 0.3272 0.0
H780 H 0.76299 0.1905 0.26663 0.0
C781 C 0.8453 0.18801 0.34837 0.0
H782 H 0.8226 0.24811 0.27843 0.0
C783 C 0.81053 0.15443 0.34165 0.0
C784 C 0.78 0.15496 0.31363 0.0
H785 H 0.86793 0.18734 0.37237 0.0
H786 H 0.80712 0.1285 0.36039 0.0
C787 C 0.78557 0.18907 0.28952 0.0
C788 C 0.65491 0.84563 0.65158 0.0
C789 C 0.62359 0.84538 0.6781 0.0
H790 H 0.67944 0.81236 0.62282 0.0
C791 C 0.59444 0.81133 0.70135 0.0
H792 H 0.67789 0.87151 0.63354 0.0
C793 C 0.59535 0.77799 0.69534 0.0
C794 C 0.62545 0.77758 0.66598 0.0
H795 H 0.57019 0.81009 0.72311 0.0
H796 H 0.57177 0.75221 0.71255 0.0
C797 C 0.65585 0.81188 0.64559 0.0
C798 C 0.80995 0.65598 0.98645 0.0
C799 C 0.77997 0.62569 0.01677 0.0
H800 H 0.86644 0.67925 0.952 0.0
C801 C 0.78571 0.59714 0.04053 0.0
H802 H 0.80646 0.67847 0.96783 0.0
C803 C 0.81951 0.59751 0.03128 0.0
C804 C 0.84881 0.62656 -0.0016 0.0
H805 H 0.76362 0.57367 0.06505 0.0
H806 H 0.82231 0.57435 0.04888 0.0
C807 C 0.84425 0.65648 0.97747 0.0
C808 C 0.1891 0.78259 0.3706 0.0
C809 C 0.15519 0.77776 0.34667 0.0
H810 H 0.24858 0.81811 0.3796 0.0
C811 C 0.15567 0.80829 0.31688 0.0
H812 H 0.18988 0.76006 0.39479 0.0
C813 C 0.18989 0.84227 0.30862 0.0
C814 C 0.22394 0.84583 0.32961 0.0
H815 H 0.12998 0.80549 0.29817 0.0
H816 H 0.18996 0.86496 0.28364 0.0
C817 C 0.22293 0.81599 0.36191 0.0
C818 C 0.34632 0.15819 0.68645 0.0
C819 C 0.37635 0.1541 0.66478 0.0
H820 H 0.32361 0.19536 0.69651 0.0
C821 C 0.40467 0.18329 0.63078 0.0
H822 H 0.3241 0.13601 0.71275 0.0
C823 C 0.40424 0.21661 0.62108 0.0
C824 C 0.3757 0.22204 0.64571 0.0
H825 H 0.42783 0.18073 0.61255 0.0
H826 H 0.42717 0.23865 0.59561 0.0
C827 C 0.34608 0.1921 0.67721 0.0
C828 C 0.38383 0.34362 0.81109 0.0
C829 C 0.37138 0.35712 0.76384 0.0
H830 H 0.38808 0.33979 0.90535 0.0
C831 C 0.35188 0.37654 0.77689 0.0
H832 H 0.3988 0.32847 0.80265 0.0
C833 C 0.34623 0.38354 0.83565 0.0
C834 C 0.35939 0.37078 0.88288 0.0
H835 H 0.34173 0.38729 0.74171 0.0
H836 H 0.33183 0.39927 0.844 0.0
C837 C 0.37763 0.35012 0.86999 0.0
C838 C 0.9649 0.34673 0.16839 0.0
C839 C 0.9908 0.35864 0.2156 0.0
H840 H 0.9567 0.34404 0.07445 0.0
C841 C 0.02967 0.3765 0.2026 0.0
H842 H 0.9348 0.33271 0.17679 0.0
C843 C 0.04238 0.38354 0.14371 0.0
C844 C 0.01647 0.37234 0.09654 0.0
H845 H 0.05045 0.386 0.23791 0.0
H846 H 0.07249 0.39814 0.13524 0.0
C847 C 0.97756 0.35323 0.1096 0.0
C848 C 0.6536 0.02635 0.5429 0.0
C849 C 0.63357 0.98731 0.55491 0.0
H850 H 0.67474 0.06989 0.47677 0.0
C851 C 0.62194 0.96197 0.5069 0.0
H852 H 0.66313 0.04678 0.57872 0.0
C853 C 0.62909 0.97531 0.44833 0.0
C854 C 0.64757 0.01433 0.43629 0.0
H855 H 0.60665 0.93176 0.51444 0.0
H856 H 0.61897 0.95487 0.41252 0.0
C857 C 0.66028 0.03969 0.48433 0.0
C858 C 0.61884 0.65523 0.82561 0.0
C859 C 0.63133 0.64185 0.77836 0.0
H860 H 0.61526 0.65982 0.91957 0.0
C861 C 0.65172 0.62331 0.79122 0.0
H862 H 0.60332 0.66985 0.81729 0.0
C863 C 0.6582 0.61704 0.85011 0.0
C864 C 0.64495 0.62971 0.89738 0.0
H865 H 0.66185 0.61268 0.75585 0.0
H866 H 0.67312 0.60184 0.85851 0.0
C867 C 0.62582 0.6495 0.88437 0.0
C868 C 0.04035 0.65829 0.17951 0.0
C869 C 0.01454 0.64285 0.2267 0.0
H870 H 0.04831 0.66439 0.08534 0.0
C871 C 0.97565 0.62221 0.21375 0.0
H872 H 0.07044 0.67446 0.18791 0.0
C873 C 0.96294 0.61597 0.15498 0.0
C874 C 0.98876 0.63069 0.10773 0.0
H875 H 0.95487 0.60994 0.24894 0.0
H876 H 0.93288 0.59923 0.14664 0.0
C877 C 0.02759 0.65252 0.12067 0.0
C878 C 0.37523 0.02582 0.44984 0.0
C879 C 0.35629 0.98678 0.43817 0.0
H880 H 0.39761 0.06949 0.51571 0.0
C881 C 0.34275 0.96153 0.48637 0.0
H882 H 0.38599 0.04614 0.41384 0.0
C883 C 0.3489 0.97498 0.54485 0.0
C884 C 0.36934 0.01401 0.55657 0.0
H885 H 0.32786 0.93131 0.47901 0.0
H886 H 0.33864 0.95465 0.58085 0.0
C887 C 0.38197 0.03927 0.50834 0.0
C888 C 0.47355 0.51103 0.07156 0.0
C889 C 0.46196 0.47249 0.06595 0.0
H890 H 0.51976 0.5676 0.07835 0.0
C891 C 0.48953 0.46165 0.06327 0.0
H892 H 0.45306 0.52035 0.07386 0.0
C893 C 0.52786 0.48885 0.06477 0.0
C894 C 0.53947 0.52743 0.07033 0.0
H895 H 0.48155 0.43222 0.05858 0.0
H896 H 0.54833 0.47954 0.06132 0.0
C897 C 0.51185 0.53816 0.07433 0.0
C898 C 0.0399 0.52623 0.39054 0.0
C899 C 0.01297 0.53752 0.40032 0.0
H900 H 0.05059 0.48023 0.38207 0.0
C901 C 0.97515 0.5097 0.40976 0.0
H902 H 0.06925 0.54681 0.38273 0.0
C903 C 0.96441 0.47151 0.4082 0.0
C904 C 0.99133 0.46029 0.39831 0.0
H905 H 0.95365 0.51735 0.41723 0.0
H906 H 0.93497 0.4508 0.41481 0.0
C907 C 0.02927 0.48803 0.39025 0.0
C908 C 0.53911 0.02805 0.73621 0.0
C909 C 0.52825 0.99008 0.72604 0.0
H910 H 0.52143 0.06892 0.74465 0.0
C911 C 0.48967 0.9637 0.71799 0.0
H912 H 0.56854 0.04912 0.74246 0.0
C913 C 0.46258 0.97494 0.72052 0.0
C914 C 0.47357 0.01297 0.7296 0.0
H915 H 0.48022 0.93427 0.70972 0.0
H916 H 0.43316 0.95401 0.71385 0.0
C917 C 0.5121 0.03941 0.73736 0.0
C918 C 0.49073 0.52816 0.59019 0.0
C919 C 0.52925 0.53947 0.59534 0.0
H920 H 0.43399 0.48225 0.5837 0.0
C921 C 0.53986 0.51174 0.59743 0.0
H922 H 0.48158 0.54878 0.58836 0.0
C923 C 0.51247 0.4735 0.59585 0.0
C924 C 0.47392 0.46217 0.59076 0.0
H925 H 0.56927 0.51952 0.60175 0.0
H926 H 0.5216 0.45289 0.59887 0.0
C927 C 0.46341 0.48996 0.58732 0.0
C928 C 0.96353 0.4915 0.91791 0.0
C929 C 0.99027 0.52995 0.9254 0.0
H930 H 0.95345 0.43505 0.91054 0.0
C931 C 0.02856 0.54076 0.93097 0.0
H932 H 0.93382 0.48224 0.91336 0.0
C933 C 0.03975 0.51361 0.93044 0.0
C934 C 0.01303 0.47511 0.92296 0.0
H935 H 0.0498 0.57012 0.93723 0.0
H936 H 0.0694 0.52289 0.93615 0.0
C937 C 0.97481 0.46442 0.91613 0.0
C938 C 0.52766 0.0379 0.27129 0.0
C939 C 0.53986 0.01135 0.26581 0.0
H940 H 0.48076 0.0475 0.27445 0.0
C941 C 0.51273 0.97304 0.25929 0.0
H942 H 0.54771 0.06762 0.2766 0.0
C943 C 0.47431 0.96151 0.25926 0.0
C944 C 0.46217 0.98806 0.2645 0.0
H945 H 0.52111 0.95186 0.25514 0.0
H946 H 0.45416 0.93174 0.25485 0.0
C947 C 0.48925 0.02643 0.26989 0.0
loop_
_geom_bond_atom_site_label_1
_geom_bond_atom_site_label_2
_geom_bond_distance
_geom_bond_site_symmetry_2
_ccdc_geom_bond_type
Co0 O2 2.143 . S
Co0 O8 2.074 1_554 S
Co0 O11 2.093 . S
Co0 O24 2.097 . S
Co0 N41 2.151 . S
Co0 N49 2.214 . S
Co1 O2 2.160 . S
Co1 O7 2.058 1_554 S
Co1 O17 2.057 . S
Co1 O32 2.037 . S
Co1 N36 2.145 1_554 S
Co1 N57 2.257 . S
O2 Co0 2.143 . S
O2 Co1 2.160 . S
C3 O4 1.278 . S
C3 O11 1.224 . S
O4 C3 1.278 . S
C5 O6 1.245 . S
C5 O17 1.232 . S
O6 C5 1.245 . S
O7 Co1 2.058 1_556 S
O7 C33 1.269 . S
O8 Co0 2.074 1_556 S
O8 C33 1.257 . S
H9 C34 0.930 . S
H10 C40 0.930 . S
O11 Co0 2.093 . S
O11 C3 1.224 . S
H12 C44 0.929 . S
H13 C46 0.930 . S
H14 C47 0.930 . S
H15 C45 0.929 . S
H16 C48 0.928 . S
O17 Co1 2.057 . S
O17 C5 1.232 . S
H18 C37 0.929 . S
H19 C38 0.929 . S
H20 C50 0.931 1_556 S
H21 C42 0.929 . S
H22 C51 0.930 . S
H23 C43 0.931 . S
O24 Co0 2.097 . S
O24 C52 1.214 . S
H25 C53 0.929 . S
H26 C54 0.929 . S
H27 C55 0.930 . S
H28 C56 0.929 . S
H29 C58 0.930 . S
H30 C35 0.930 . S
H31 C39 0.930 . S
O32 Co1 2.037 . S
O32 C52 1.234 . S
C33 O7 1.269 . S
C33 O8 1.257 . S
C34 H9 0.930 . S
C34 C37 1.388 . S
C34 C39 1.418 . S
C35 H30 0.930 . S
C35 C38 1.404 . S
C35 C39 1.353 . S
N36 Co1 2.145 1_556 S
N36 C37 1.397 . S
N36 C38 1.334 . S
C37 H18 0.929 . S
C37 C34 1.388 . S
C37 N36 1.397 . S
C38 H19 0.929 . S
C38 C35 1.404 . S
C38 N36 1.334 . S
C39 H31 0.930 . S
C39 C34 1.418 . S
C39 C35 1.353 . S
C40 H10 0.930 . S
C40 N41 1.330 . S
C40 C42 1.446 . S
N41 Co0 2.151 . S
N41 C40 1.330 . S
N41 C45 1.418 . S
C42 H21 0.929 . S
C42 C40 1.446 . S
C42 C43 1.332 . S
C43 H23 0.931 . S
C43 C42 1.332 . S
C43 C44 1.267 . S
C44 H12 0.929 . S
C44 C43 1.267 . S
C44 C45 1.251 . S
C45 H15 0.929 . S
C45 N41 1.418 . S
C45 C44 1.251 . S
C46 H13 0.930 . S
C46 C48 1.406 . S
C46 C51 1.261 . S
C47 H14 0.930 . S
C47 N49 1.325 . S
C47 C50 1.357 . S
C48 H16 0.928 . S
C48 C46 1.406 . S
C48 N49 1.261 . S
N49 Co0 2.214 . S
N49 C47 1.325 . S
N49 C48 1.261 . S
C50 H20 0.931 1_554 S
C50 C47 1.357 . S
C50 C51 1.312 . S
C51 H22 0.930 . S
C51 C46 1.261 . S
C51 C50 1.312 . S
C52 O24 1.214 . S
C52 O32 1.234 . S
C53 H25 0.929 . S
C53 C56 1.391 . S
C53 C58 1.391 . S
C54 H26 0.929 . S
C54 C55 1.390 . S
C54 N57 1.391 . S
C55 H27 0.930 . S
C55 C54 1.390 . S
C55 C56 1.392 . S
C56 H28 0.929 . S
C56 C53 1.391 . S
C56 C55 1.392 . S
N57 Co1 2.257 . S
N57 C54 1.391 . S
N57 C58 1.388 . S
C58 H29 0.930 . S
C58 C53 1.391 . S
C58 N57 1.388 . S
Co59 O61 2.143 1_455 S
Co59 O67 2.074 . S
Co59 O70 2.093 . S
Co59 O83 2.097 . S
Co59 N100 2.151 . S
Co59 N108 2.214 . S
Co60 O61 2.160 . S
Co60 O66 2.058 . S
Co60 O76 2.057 . S
Co60 O91 2.037 . S
Co60 N95 2.145 . S
Co60 N116 2.257 . S
O61 Co59 2.143 1_655 S
O61 Co60 2.160 . S
C62 O63 1.278 . S
C62 O70 1.224 1_655 S
O63 C62 1.278 . S
C64 O65 1.245 . S
C64 O76 1.232 . S
O65 C64 1.245 . S
O66 Co60 2.058 . S
O66 C92 1.269 . S
O67 Co59 2.074 . S
O67 C92 1.257 1_455 S
H68 C93 0.930 . S
H69 C99 0.916 1_655 S
O70 Co59 2.093 . S
O70 C62 1.224 1_455 S
H71 C103 0.929 . S
H72 C105 0.930 . S
H73 C106 0.930 . S
H74 C104 0.929 . S
H75 C107 0.928 . S
O76 Co60 2.057 . S
O76 C64 1.232 . S
H77 C96 0.929 . S
H78 C97 0.929 . S
H79 C109 0.931 . S
H80 C101 0.929 . S
H81 C110 0.930 . S
H82 C102 0.931 . S
O83 Co59 2.097 . S
O83 C111 1.214 1_455 S
H84 C112 0.929 . S
H85 C113 0.929 . S
H86 C114 0.930 . S
H87 C115 0.929 . S
H88 C117 0.930 . S
H89 C94 0.930 . S
H90 C98 0.930 . S
O91 Co60 2.037 . S
O91 C111 1.234 . S
C92 O66 1.269 . S
C92 O67 1.257 1_655 S
C93 H68 0.930 . S
C93 C96 1.388 . S
C93 C98 1.418 . S
C94 H89 0.930 . S
C94 C97 1.404 . S
C94 C98 1.353 . S
N95 Co60 2.145 . S
N95 C96 1.397 . S
N95 C97 1.334 . S
C96 H77 0.929 . S
C96 C93 1.388 . S
C96 N95 1.397 . S
C97 H78 0.929 . S
C97 C94 1.404 . S
C97 N95 1.334 . S
C98 H90 0.930 . S
C98 C93 1.418 . S
C98 C94 1.353 . S
C99 H69 0.916 1_455 S
C99 N100 1.330 . S
C99 C101 1.446 . S
N100 Co59 2.151 . S
N100 C99 1.330 . S
N100 C104 1.418 . S
C101 H80 0.929 . S
C101 C99 1.446 . S
C101 C102 1.332 . S
C102 H82 0.931 . S
C102 C101 1.332 . S
C102 C103 1.267 . S
C103 H71 0.929 . S
C103 C102 1.267 . S
C103 C104 1.251 . S
C104 H74 0.929 . S
C104 N100 1.418 . S
C104 C103 1.251 . S
C105 H72 0.930 . S
C105 C107 1.406 . S
C105 C110 1.261 . S
C106 H73 0.930 . S
C106 N108 1.325 . S
C106 C109 1.357 . S
C107 H75 0.928 . S
C107 C105 1.406 . S
C107 N108 1.261 . S
N108 Co59 2.214 . S
N108 C106 1.325 . S
N108 C107 1.261 . S
C109 H79 0.931 . S
C109 C106 1.357 . S
C109 C110 1.312 . S
C110 H81 0.930 . S
C110 C105 1.261 . S
C110 C109 1.312 . S
C111 O83 1.214 1_655 S
C111 O91 1.234 . S
C112 H84 0.929 . S
C112 C115 1.391 . S
C112 C117 1.391 . S
C113 H85 0.929 . S
C113 C114 1.390 . S
C113 N116 1.391 . S
C114 H86 0.930 . S
C114 C113 1.390 . S
C114 C115 1.392 . S
C115 H87 0.929 . S
C115 C112 1.391 . S
C115 C114 1.392 . S
N116 Co60 2.257 . S
N116 C113 1.391 . S
N116 C117 1.388 . S
C117 H88 0.930 . S
C117 C112 1.391 . S
C117 N116 1.388 . S
Co118 O120 2.143 1_545 S
Co118 O126 2.074 . S
Co118 O129 2.093 . S
Co118 O142 2.097 . S
Co118 N159 2.151 . S
Co118 N167 2.214 . S
Co119 O120 2.160 . S
Co119 O125 2.058 . S
Co119 O135 2.057 . S
Co119 O150 2.037 . S
Co119 N154 2.145 . S
Co119 N175 2.257 . S
O120 Co118 2.143 1_565 S
O120 Co119 2.160 . S
C121 O122 1.278 . S
C121 O129 1.224 1_565 S
O122 C121 1.278 . S
C123 O124 1.245 . S
C123 O135 1.232 . S
O124 C123 1.245 . S
O125 Co119 2.058 . S
O125 C151 1.269 . S
O126 Co118 2.074 . S
O126 C151 1.257 1_545 S
H127 C152 0.930 . S
H128 C158 0.922 1_565 S
O129 Co118 2.093 . S
O129 C121 1.224 1_545 S
H130 C162 0.929 . S
H131 C164 0.930 . S
H132 C165 0.930 . S
H133 C163 0.929 . S
H134 C166 0.928 . S
O135 Co119 2.057 . S
O135 C123 1.232 . S
H136 C155 0.929 . S
H137 C156 0.929 . S
H138 C168 0.931 . S
H139 C160 0.929 . S
H140 C169 0.930 . S
H141 C161 0.931 . S
O142 Co118 2.097 . S
O142 C170 1.214 1_545 S
H143 C171 0.929 . S
H144 C172 0.929 . S
H145 C173 0.930 . S
H146 C174 0.929 . S
H147 C176 0.930 . S
H148 C153 0.930 . S
H149 C157 0.930 . S
O150 Co119 2.037 . S
O150 C170 1.234 . S
C151 O125 1.269 . S
C151 O126 1.257 1_565 S
C152 H127 0.930 . S
C152 C155 1.388 . S
C152 C157 1.418 . S
C153 H148 0.930 . S
C153 C156 1.404 . S
C153 C157 1.353 . S
N154 Co119 2.145 . S
N154 C155 1.397 . S
N154 C156 1.334 . S
C155 H136 0.929 . S
C155 C152 1.388 . S
C155 N154 1.397 . S
C156 H137 0.929 . S
C156 C153 1.404 . S
C156 N154 1.334 . S
C157 H149 0.930 . S
C157 C152 1.418 . S
C157 C153 1.353 . S
C158 H128 0.922 1_545 S
C158 N159 1.330 . S
C158 C160 1.446 . S
N159 Co118 2.151 . S
N159 C158 1.330 . S
N159 C163 1.418 . S
C160 H139 0.929 . S
C160 C158 1.446 . S
C160 C161 1.332 . S
C161 H141 0.931 . S
C161 C160 1.332 . S
C161 C162 1.267 . S
C162 H130 0.929 . S
C162 C161 1.267 . S
C162 C163 1.251 . S
C163 H133 0.929 . S
C163 N159 1.418 . S
C163 C162 1.251 . S
C164 H131 0.930 . S
C164 C166 1.406 . S
C164 C169 1.261 . S
C165 H132 0.930 . S
C165 N167 1.325 . S
C165 C168 1.357 . S
C166 H134 0.928 . S
C166 C164 1.406 . S
C166 N167 1.261 . S
N167 Co118 2.214 . S
N167 C165 1.325 . S
N167 C166 1.261 . S
C168 H138 0.931 . S
C168 C165 1.357 . S
C168 C169 1.312 . S
C169 H140 0.930 . S
C169 C164 1.261 . S
C169 C168 1.312 . S
C170 O142 1.214 1_565 S
C170 O150 1.234 . S
C171 H143 0.929 . S
C171 C174 1.391 . S
C171 C176 1.391 . S
C172 H144 0.929 . S
C172 C173 1.390 . S
C172 N175 1.391 . S
C173 H145 0.930 . S
C173 C172 1.390 . S
C173 C174 1.392 . S
C174 H146 0.929 . S
C174 C171 1.391 . S
C174 C173 1.392 . S
N175 Co119 2.257 . S
N175 C172 1.391 . S
N175 C176 1.388 . S
C176 H147 0.930 . S
C176 C171 1.391 . S
C176 N175 1.388 . S
Co177 O179 2.143 . S
Co177 O185 2.074 1_554 S
Co177 O188 2.093 . S
Co177 O201 2.097 . S
Co177 N218 2.151 . S
Co177 N226 2.214 . S
Co178 O179 2.160 . S
Co178 O184 2.058 1_554 S
Co178 O194 2.057 . S
Co178 O209 2.037 . S
Co178 N213 2.145 1_554 S
Co178 N234 2.257 . S
O179 Co177 2.143 . S
O179 Co178 2.160 . S
C180 O181 1.278 . S
C180 O188 1.224 . S
O181 C180 1.278 . S
C182 O183 1.245 . S
C182 O194 1.232 . S
O183 C182 1.245 . S
O184 Co178 2.058 1_556 S
O184 C210 1.269 . S
O185 Co177 2.074 1_556 S
O185 C210 1.257 . S
H186 C211 0.930 . S
H187 C217 0.930 . S
O188 Co177 2.093 . S
O188 C180 1.224 . S
H189 C221 0.929 . S
H190 C223 0.930 . S
H191 C224 0.930 . S
H192 C222 0.929 . S
H193 C225 0.928 . S
O194 Co178 2.057 . S
O194 C182 1.232 . S
H195 C214 0.929 . S
H196 C215 0.929 . S
H197 C227 0.931 1_556 S
H198 C219 0.929 . S
H199 C228 0.930 . S
H200 C220 0.931 . S
O201 Co177 2.097 . S
O201 C229 1.214 . S
H202 C230 0.929 . S
H203 C231 0.929 . S
H204 C232 0.930 . S
H205 C233 0.929 . S
H206 C235 0.930 . S
H207 C212 0.930 . S
H208 C216 0.930 . S
O209 Co178 2.037 . S
O209 C229 1.234 . S
C210 O184 1.269 . S
C210 O185 1.257 . S
C211 H186 0.930 . S
C211 C214 1.388 . S
C211 C216 1.418 . S
C212 H207 0.930 . S
C212 C215 1.404 . S
C212 C216 1.353 . S
N213 Co178 2.145 1_556 S
N213 C214 1.397 . S
N213 C215 1.334 . S
C214 H195 0.929 . S
C214 C211 1.388 . S
C214 N213 1.397 . S
C215 H196 0.929 . S
C215 C212 1.404 . S
C215 N213 1.334 . S
C216 H208 0.930 . S
C216 C211 1.418 . S
C216 C212 1.353 . S
C217 H187 0.930 . S
C217 N218 1.330 . S
C217 C219 1.446 . S
N218 Co177 2.151 . S
N218 C217 1.330 . S
N218 C222 1.418 . S
C219 H198 0.929 . S
C219 C217 1.446 . S
C219 C220 1.332 . S
C220 H200 0.931 . S
C220 C219 1.332 . S
C220 C221 1.267 . S
C221 H189 0.929 . S
C221 C220 1.267 . S
C221 C222 1.251 . S
C222 H192 0.929 . S
C222 N218 1.418 . S
C222 C221 1.251 . S
C223 H190 0.930 . S
C223 C225 1.406 . S
C223 C228 1.261 . S
C224 H191 0.930 . S
C224 N226 1.325 . S
C224 C227 1.357 . S
C225 H193 0.928 . S
C225 C223 1.406 . S
C225 N226 1.261 . S
N226 Co177 2.214 . S
N226 C224 1.325 . S
N226 C225 1.261 . S
C227 H197 0.931 1_554 S
C227 C224 1.357 . S
C227 C228 1.312 . S
C228 H199 0.930 . S
C228 C223 1.261 . S
C228 C227 1.312 . S
C229 O201 1.214 . S
C229 O209 1.234 . S
C230 H202 0.929 . S
C230 C233 1.391 . S
C230 C235 1.391 . S
C231 H203 0.929 . S
C231 C232 1.390 . S
C231 N234 1.391 . S
C232 H204 0.930 . S
C232 C231 1.390 . S
C232 C233 1.392 . S
C233 H205 0.929 . S
C233 C230 1.391 . S
C233 C232 1.392 . S
N234 Co178 2.257 . S
N234 C231 1.391 . S
N234 C235 1.388 . S
C235 H206 0.930 . S
C235 C230 1.391 . S
C235 N234 1.388 . S
Co236 O238 2.143 1_655 S
Co236 O244 2.074 . S
Co236 O247 2.093 . S
Co236 O260 2.097 . S
Co236 N277 2.151 . S
Co236 N285 2.214 . S
Co237 O238 2.160 . S
Co237 O243 2.058 . S
Co237 O253 2.057 . S
Co237 O268 2.037 . S
Co237 N272 2.145 . S
Co237 N293 2.257 . S
O238 Co236 2.143 1_455 S
O238 Co237 2.160 . S
C239 O240 1.278 . S
C239 O247 1.224 1_455 S
O240 C239 1.278 . S
C241 O242 1.245 . S
C241 O253 1.232 . S
O242 C241 1.245 . S
O243 Co237 2.058 . S
O243 C269 1.269 . S
O244 Co236 2.074 . S
O244 C269 1.257 1_655 S
H245 C270 0.930 . S
H246 C276 0.916 1_455 S
O247 Co236 2.093 . S
O247 C239 1.224 1_655 S
H248 C280 0.929 . S
H249 C282 0.930 . S
H250 C283 0.930 . S
H251 C281 0.929 . S
H252 C284 0.928 . S
O253 Co237 2.057 . S
O253 C241 1.232 . S
H254 C273 0.929 . S
H255 C274 0.929 . S
H256 C286 0.931 . S
H257 C278 0.929 . S
H258 C287 0.930 . S
H259 C279 0.931 . S
O260 Co236 2.097 . S
O260 C288 1.214 1_655 S
H261 C289 0.929 . S
H262 C290 0.929 . S
H263 C291 0.930 . S
H264 C292 0.929 . S
H265 C294 0.930 . S
H266 C271 0.930 . S
H267 C275 0.930 . S
O268 Co237 2.037 . S
O268 C288 1.234 . S
C269 O243 1.269 . S
C269 O244 1.257 1_455 S
C270 H245 0.930 . S
C270 C273 1.388 . S
C270 C275 1.418 . S
C271 H266 0.930 . S
C271 C274 1.404 . S
C271 C275 1.353 . S
N272 Co237 2.145 . S
N272 C273 1.397 . S
N272 C274 1.334 . S
C273 H254 0.929 . S
C273 C270 1.388 . S
C273 N272 1.397 . S
C274 H255 0.929 . S
C274 C271 1.404 . S
C274 N272 1.334 . S
C275 H267 0.930 . S
C275 C270 1.418 . S
C275 C271 1.353 . S
C276 H246 0.916 1_655 S
C276 N277 1.330 . S
C276 C278 1.446 . S
N277 Co236 2.151 . S
N277 C276 1.330 . S
N277 C281 1.418 . S
C278 H257 0.929 . S
C278 C276 1.446 . S
C278 C279 1.332 . S
C279 H259 0.931 . S
C279 C278 1.332 . S
C279 C280 1.267 . S
C280 H248 0.929 . S
C280 C279 1.267 . S
C280 C281 1.251 . S
C281 H251 0.929 . S
C281 N277 1.418 . S
C281 C280 1.251 . S
C282 H249 0.930 . S
C282 C284 1.406 . S
C282 C287 1.261 . S
C283 H250 0.930 . S
C283 N285 1.325 . S
C283 C286 1.357 . S
C284 H252 0.928 . S
C284 C282 1.406 . S
C284 N285 1.261 . S
N285 Co236 2.214 . S
N285 C283 1.325 . S
N285 C284 1.261 . S
C286 H256 0.931 . S
C286 C283 1.357 . S
C286 C287 1.312 . S
C287 H258 0.930 . S
C287 C282 1.261 . S
C287 C286 1.312 . S
C288 O260 1.214 1_455 S
C288 O268 1.234 . S
C289 H261 0.929 . S
C289 C292 1.391 . S
C289 C294 1.391 . S
C290 H262 0.929 . S
C290 C291 1.390 . S
C290 N293 1.391 . S
C291 H263 0.930 . S
C291 C290 1.390 . S
C291 C292 1.392 . S
C292 H264 0.929 . S
C292 C289 1.391 . S
C292 C291 1.392 . S
N293 Co237 2.257 . S
N293 C290 1.391 . S
N293 C294 1.388 . S
C294 H265 0.930 . S
C294 C289 1.391 . S
C294 N293 1.388 . S
Co295 O297 2.143 1_565 S
Co295 O303 2.074 . S
Co295 O306 2.093 . S
Co295 O319 2.097 . S
Co295 N336 2.151 . S
Co295 N344 2.214 . S
Co296 O297 2.160 . S
Co296 O302 2.058 . S
Co296 O312 2.057 . S
Co296 O327 2.037 . S
Co296 N331 2.145 . S
Co296 N352 2.257 . S
O297 Co295 2.143 1_545 S
O297 Co296 2.160 . S
C298 O299 1.278 . S
C298 O306 1.224 1_545 S
O299 C298 1.278 . S
C300 O301 1.245 . S
C300 O312 1.232 . S
O301 C300 1.245 . S
O302 Co296 2.058 . S
O302 C328 1.269 . S
O303 Co295 2.074 . S
O303 C328 1.257 1_565 S
H304 C329 0.930 . S
H305 C335 0.922 1_545 S
O306 Co295 2.093 . S
O306 C298 1.224 1_565 S
H307 C339 0.929 . S
H308 C341 0.930 . S
H309 C342 0.930 . S
H310 C340 0.929 . S
H311 C343 0.928 . S
O312 Co296 2.057 . S
O312 C300 1.232 . S
H313 C332 0.929 . S
H314 C333 0.929 . S
H315 C345 0.931 . S
H316 C337 0.929 . S
H317 C346 0.930 . S
H318 C338 0.931 . S
O319 Co295 2.097 . S
O319 C347 1.214 1_565 S
H320 C348 0.929 . S
H321 C349 0.929 . S
H322 C350 0.930 . S
H323 C351 0.929 . S
H324 C353 0.930 . S
H325 C330 0.930 . S
H326 C334 0.930 . S
O327 Co296 2.037 . S
O327 C347 1.234 . S
C328 O302 1.269 . S
C328 O303 1.257 1_545 S
C329 H304 0.930 . S
C329 C332 1.388 . S
C329 C334 1.418 . S
C330 H325 0.930 . S
C330 C333 1.404 . S
C330 C334 1.353 . S
N331 Co296 2.145 . S
N331 C332 1.397 . S
N331 C333 1.334 . S
C332 H313 0.929 . S
C332 C329 1.388 . S
C332 N331 1.397 . S
C333 H314 0.929 . S
C333 C330 1.404 . S
C333 N331 1.334 . S
C334 H326 0.930 . S
C334 C329 1.418 . S
C334 C330 1.353 . S
C335 H305 0.922 1_565 S
C335 N336 1.330 . S
C335 C337 1.446 . S
N336 Co295 2.151 . S
N336 C335 1.330 . S
N336 C340 1.418 . S
C337 H316 0.929 . S
C337 C335 1.446 . S
C337 C338 1.332 . S
C338 H318 0.931 . S
C338 C337 1.332 . S
C338 C339 1.267 . S
C339 H307 0.929 . S
C339 C338 1.267 . S
C339 C340 1.251 . S
C340 H310 0.929 . S
C340 N336 1.418 . S
C340 C339 1.251 . S
C341 H308 0.930 . S
C341 C343 1.406 . S
C341 C346 1.261 . S
C342 H309 0.930 . S
C342 N344 1.325 . S
C342 C345 1.357 . S
C343 H311 0.928 . S
C343 C341 1.406 . S
C343 N344 1.261 . S
N344 Co295 2.214 . S
N344 C342 1.325 . S
N344 C343 1.261 . S
C345 H315 0.931 . S
C345 C342 1.357 . S
C345 C346 1.312 . S
C346 H317 0.930 . S
C346 C341 1.261 . S
C346 C345 1.312 . S
C347 O319 1.214 1_545 S
C347 O327 1.234 . S
C348 H320 0.929 . S
C348 C351 1.391 . S
C348 C353 1.391 . S
C349 H321 0.929 . S
C349 C350 1.390 . S
C349 N352 1.391 . S
C350 H322 0.930 . S
C350 C349 1.390 . S
C350 C351 1.392 . S
C351 H323 0.929 . S
C351 C348 1.391 . S
C351 C350 1.392 . S
N352 Co296 2.257 . S
N352 C349 1.391 . S
N352 C353 1.388 . S
C353 H324 0.930 . S
C353 C348 1.391 . S
C353 N352 1.388 . S
Co354 O356 2.143 . S
Co354 O362 2.074 . S
Co354 O365 2.093 . S
Co354 O378 2.097 . S
Co354 N395 2.151 . S
Co354 N403 2.214 . S
Co355 O356 2.160 . S
Co355 O361 2.058 . S
Co355 O371 2.057 . S
Co355 O386 2.037 . S
Co355 N390 2.145 . S
Co355 N411 2.257 . S
O356 Co354 2.143 . S
O356 Co355 2.160 . S
C357 O358 1.278 . S
C357 O365 1.224 . S
O358 C357 1.278 . S
C359 O360 1.245 . S
C359 O371 1.232 . S
O360 C359 1.245 . S
O361 Co355 2.058 . S
O361 C387 1.269 . S
O362 Co354 2.074 . S
O362 C387 1.257 . S
H363 C388 0.930 . S
H364 C394 0.930 . S
O365 Co354 2.093 . S
O365 C357 1.224 . S
H366 C398 0.929 . S
H367 C400 0.930 . S
H368 C401 0.930 . S
H369 C399 0.929 . S
H370 C402 0.928 . S
O371 Co355 2.057 . S
O371 C359 1.232 . S
H372 C391 0.929 . S
H373 C392 0.929 . S
H374 C404 0.931 . S
H375 C396 0.929 . S
H376 C405 0.930 . S
H377 C397 0.931 . S
O378 Co354 2.097 . S
O378 C406 1.214 . S
H379 C407 0.929 . S
H380 C408 0.929 . S
H381 C409 0.930 . S
H382 C410 0.929 . S
H383 C412 0.930 . S
H384 C389 0.930 . S
H385 C393 0.930 . S
O386 Co355 2.037 . S
O386 C406 1.234 . S
C387 O361 1.269 . S
C387 O362 1.257 . S
C388 H363 0.930 . S
C388 C391 1.388 . S
C388 C393 1.418 . S
C389 H384 0.930 . S
C389 C392 1.404 . S
C389 C393 1.353 . S
N390 Co355 2.145 . S
N390 C391 1.397 . S
N390 C392 1.334 . S
C391 H372 0.929 . S
C391 C388 1.388 . S
C391 N390 1.397 . S
C392 H373 0.929 . S
C392 C389 1.404 . S
C392 N390 1.334 . S
C393 H385 0.930 . S
C393 C388 1.418 . S
C393 C389 1.353 . S
C394 H364 0.930 . S
C394 N395 1.330 . S
C394 C396 1.446 . S
N395 Co354 2.151 . S
N395 C394 1.330 . S
N395 C399 1.418 . S
C396 H375 0.929 . S
C396 C394 1.446 . S
C396 C397 1.332 . S
C397 H377 0.931 . S
C397 C396 1.332 . S
C397 C398 1.267 . S
C398 H366 0.929 . S
C398 C397 1.267 . S
C398 C399 1.251 . S
C399 H369 0.929 . S
C399 N395 1.418 . S
C399 C398 1.251 . S
C400 H367 0.930 . S
C400 C402 1.406 . S
C400 C405 1.261 . S
C401 H368 0.930 . S
C401 N403 1.325 . S
C401 C404 1.357 . S
C402 H370 0.928 . S
C402 C400 1.406 . S
C402 N403 1.261 . S
N403 Co354 2.214 . S
N403 C401 1.325 . S
N403 C402 1.261 . S
C404 H374 0.931 . S
C404 C401 1.357 . S
C404 C405 1.312 . S
C405 H376 0.930 . S
C405 C400 1.261 . S
C405 C404 1.312 . S
C406 O378 1.214 . S
C406 O386 1.234 . S
C407 H379 0.929 . S
C407 C410 1.391 . S
C407 C412 1.391 . S
C408 H380 0.929 . S
C408 C409 1.390 . S
C408 N411 1.391 . S
C409 H381 0.930 . S
C409 C408 1.390 . S
C409 C410 1.392 . S
C410 H382 0.929 . S
C410 C407 1.391 . S
C410 C409 1.392 . S
N411 Co355 2.257 . S
N411 C408 1.391 . S
N411 C412 1.388 . S
C412 H383 0.930 . S
C412 C407 1.391 . S
C412 N411 1.388 . S
Co413 O415 2.143 1_455 S
Co413 O421 2.074 1_556 S
Co413 O424 2.093 . S
Co413 O437 2.097 . S
Co413 N454 2.151 . S
Co413 N462 2.214 . S
Co414 O415 2.160 . S
Co414 O420 2.058 1_556 S
Co414 O430 2.057 . S
Co414 O445 2.037 . S
Co414 N449 2.145 1_556 S
Co414 N470 2.257 . S
O415 Co413 2.143 1_655 S
O415 Co414 2.160 . S
C416 O417 1.278 . S
C416 O424 1.224 1_655 S
O417 C416 1.278 . S
C418 O419 1.245 . S
C418 O430 1.232 . S
O419 C418 1.245 . S
O420 Co414 2.058 1_554 S
O420 C446 1.269 . S
O421 Co413 2.074 1_554 S
O421 C446 1.257 1_455 S
H422 C447 0.930 . S
H423 C453 0.922 1_655 S
O424 Co413 2.093 . S
O424 C416 1.224 1_455 S
H425 C457 0.929 . S
H426 C459 0.930 . S
H427 C460 0.930 . S
H428 C458 0.929 . S
H429 C461 0.928 . S
O430 Co414 2.057 . S
O430 C418 1.232 . S
H431 C450 0.929 . S
H432 C451 0.929 . S
H433 C463 0.931 1_554 S
H434 C455 0.929 . S
H435 C464 0.930 . S
H436 C456 0.931 . S
O437 Co413 2.097 . S
O437 C465 1.214 1_455 S
H438 C466 0.929 . S
H439 C467 0.929 . S
H440 C468 0.930 . S
H441 C469 0.929 . S
H442 C471 0.930 . S
H443 C448 0.930 . S
H444 C452 0.930 . S
O445 Co414 2.037 . S
O445 C465 1.234 . S
C446 O420 1.269 . S
C446 O421 1.257 1_655 S
C447 H422 0.930 . S
C447 C450 1.388 . S
C447 C452 1.418 . S
C448 H443 0.930 . S
C448 C451 1.404 . S
C448 C452 1.353 . S
N449 Co414 2.145 1_554 S
N449 C450 1.397 . S
N449 C451 1.334 . S
C450 H431 0.929 . S
C450 C447 1.388 . S
C450 N449 1.397 . S
C451 H432 0.929 . S
C451 C448 1.404 . S
C451 N449 1.334 . S
C452 H444 0.930 . S
C452 C447 1.418 . S
C452 C448 1.353 . S
C453 H423 0.922 1_455 S
C453 N454 1.330 . S
C453 C455 1.446 . S
N454 Co413 2.151 . S
N454 C453 1.330 . S
N454 C458 1.418 . S
C455 H434 0.929 . S
C455 C453 1.446 . S
C455 C456 1.332 . S
C456 H436 0.931 . S
C456 C455 1.332 . S
C456 C457 1.267 . S
C457 H425 0.929 . S
C457 C456 1.267 . S
C457 C458 1.251 . S
C458 H428 0.929 . S
C458 N454 1.418 . S
C458 C457 1.251 . S
C459 H426 0.930 . S
C459 C461 1.406 . S
C459 C464 1.261 . S
C460 H427 0.930 . S
C460 N462 1.325 . S
C460 C463 1.357 . S
C461 H429 0.928 . S
C461 C459 1.406 . S
C461 N462 1.261 . S
N462 Co413 2.214 . S
N462 C460 1.325 . S
N462 C461 1.261 . S
C463 H433 0.931 1_556 S
C463 C460 1.357 . S
C463 C464 1.312 . S
C464 H435 0.930 . S
C464 C459 1.261 . S
C464 C463 1.312 . S
C465 O437 1.214 1_655 S
C465 O445 1.234 . S
C466 H438 0.929 . S
C466 C469 1.391 . S
C466 C471 1.391 . S
C467 H439 0.929 . S
C467 C468 1.390 . S
C467 N470 1.391 . S
C468 H440 0.930 . S
C468 C467 1.390 . S
C468 C469 1.392 . S
C469 H441 0.929 . S
C469 C466 1.391 . S
C469 C468 1.392 . S
N470 Co414 2.257 . S
N470 C467 1.391 . S
N470 C471 1.388 . S
C471 H442 0.930 . S
C471 C466 1.391 . S
C471 N470 1.388 . S
Co472 O474 2.143 1_545 S
Co472 O480 2.074 . S
Co472 O483 2.093 . S
Co472 O496 2.097 . S
Co472 N513 2.151 . S
Co472 N521 2.214 . S
Co473 O474 2.160 . S
Co473 O479 2.058 . S
Co473 O489 2.057 . S
Co473 O504 2.037 . S
Co473 N508 2.145 . S
Co473 N529 2.257 . S
O474 Co472 2.143 1_565 S
O474 Co473 2.160 . S
C475 O476 1.278 . S
C475 O483 1.224 1_565 S
O476 C475 1.278 . S
C477 O478 1.245 . S
C477 O489 1.232 . S
O478 C477 1.245 . S
O479 Co473 2.058 . S
O479 C505 1.269 . S
O480 Co472 2.074 . S
O480 C505 1.257 1_545 S
H481 C506 0.930 . S
H482 C512 0.916 1_565 S
O483 Co472 2.093 . S
O483 C475 1.224 1_545 S
H484 C516 0.929 . S
H485 C518 0.930 . S
H486 C519 0.930 . S
H487 C517 0.929 . S
H488 C520 0.928 . S
O489 Co473 2.057 . S
O489 C477 1.232 . S
H490 C509 0.929 . S
H491 C510 0.929 . S
H492 C522 0.931 . S
H493 C514 0.929 . S
H494 C523 0.930 . S
H495 C515 0.931 . S
O496 Co472 2.097 . S
O496 C524 1.214 1_545 S
H497 C525 0.929 . S
H498 C526 0.929 . S
H499 C527 0.930 . S
H500 C528 0.929 . S
H501 C530 0.930 . S
H502 C507 0.930 . S
H503 C511 0.930 . S
O504 Co473 2.037 . S
O504 C524 1.234 . S
C505 O479 1.269 . S
C505 O480 1.257 1_565 S
C506 H481 0.930 . S
C506 C509 1.388 . S
C506 C511 1.418 . S
C507 H502 0.930 . S
C507 C510 1.404 . S
C507 C511 1.353 . S
N508 Co473 2.145 . S
N508 C509 1.397 . S
N508 C510 1.334 . S
C509 H490 0.929 . S
C509 C506 1.388 . S
C509 N508 1.397 . S
C510 H491 0.929 . S
C510 C507 1.404 . S
C510 N508 1.334 . S
C511 H503 0.930 . S
C511 C506 1.418 . S
C511 C507 1.353 . S
C512 H482 0.916 1_545 S
C512 N513 1.330 . S
C512 C514 1.446 . S
N513 Co472 2.151 . S
N513 C512 1.330 . S
N513 C517 1.418 . S
C514 H493 0.929 . S
C514 C512 1.446 . S
C514 C515 1.332 . S
C515 H495 0.931 . S
C515 C514 1.332 . S
C515 C516 1.267 . S
C516 H484 0.929 . S
C516 C515 1.267 . S
C516 C517 1.251 . S
C517 H487 0.929 . S
C517 N513 1.418 . S
C517 C516 1.251 . S
C518 H485 0.930 . S
C518 C520 1.406 . S
C518 C523 1.261 . S
C519 H486 0.930 . S
C519 N521 1.325 . S
C519 C522 1.357 . S
C520 H488 0.928 . S
C520 C518 1.406 . S
C520 N521 1.261 . S
N521 Co472 2.214 . S
N521 C519 1.325 . S
N521 C520 1.261 . S
C522 H492 0.931 . S
C522 C519 1.357 . S
C522 C523 1.312 . S
C523 H494 0.930 . S
C523 C518 1.261 . S
C523 C522 1.312 . S
C524 O496 1.214 1_565 S
C524 O504 1.234 . S
C525 H497 0.929 . S
C525 C528 1.391 . S
C525 C530 1.391 . S
C526 H498 0.929 . S
C526 C527 1.390 . S
C526 N529 1.391 . S
C527 H499 0.930 . S
C527 C526 1.390 . S
C527 C528 1.392 . S
C528 H500 0.929 . S
C528 C525 1.391 . S
C528 C527 1.392 . S
N529 Co473 2.257 . S
N529 C526 1.391 . S
N529 C530 1.388 . S
C530 H501 0.930 . S
C530 C525 1.391 . S
C530 N529 1.388 . S
Co531 O533 2.143 . S
Co531 O539 2.074 . S
Co531 O542 2.093 . S
Co531 O555 2.097 . S
Co531 N572 2.151 . S
Co531 N580 2.214 . S
Co532 O533 2.160 . S
Co532 O538 2.058 . S
Co532 O548 2.057 . S
Co532 O563 2.037 . S
Co532 N567 2.145 . S
Co532 N588 2.257 . S
O533 Co531 2.143 . S
O533 Co532 2.160 . S
C534 O535 1.278 . S
C534 O542 1.224 . S
O535 C534 1.278 . S
C536 O537 1.245 . S
C536 O548 1.232 . S
O537 C536 1.245 . S
O538 Co532 2.058 . S
O538 C564 1.269 . S
O539 Co531 2.074 . S
O539 C564 1.257 . S
H540 C565 0.930 . S
H541 C571 0.930 . S
O542 Co531 2.093 . S
O542 C534 1.224 . S
H543 C575 0.929 . S
H544 C577 0.930 . S
H545 C578 0.930 . S
H546 C576 0.929 . S
H547 C579 0.928 . S
O548 Co532 2.057 . S
O548 C536 1.232 . S
H549 C568 0.929 . S
H550 C569 0.929 . S
H551 C581 0.931 . S
H552 C573 0.929 . S
H553 C582 0.930 . S
H554 C574 0.931 . S
O555 Co531 2.097 . S
O555 C583 1.214 . S
H556 C584 0.929 . S
H557 C585 0.929 . S
H558 C586 0.930 . S
H559 C587 0.929 . S
H560 C589 0.930 . S
H561 C566 0.930 . S
H562 C570 0.930 . S
O563 Co532 2.037 . S
O563 C583 1.234 . S
C564 O538 1.269 . S
C564 O539 1.257 . S
C565 H540 0.930 . S
C565 C568 1.388 . S
C565 C570 1.418 . S
C566 H561 0.930 . S
C566 C569 1.404 . S
C566 C570 1.353 . S
N567 Co532 2.145 . S
N567 C568 1.397 . S
N567 C569 1.334 . S
C568 H549 0.929 . S
C568 C565 1.388 . S
C568 N567 1.397 . S
C569 H550 0.929 . S
C569 C566 1.404 . S
C569 N567 1.334 . S
C570 H562 0.930 . S
C570 C565 1.418 . S
C570 C566 1.353 . S
C571 H541 0.930 . S
C571 N572 1.330 . S
C571 C573 1.446 . S
N572 Co531 2.151 . S
N572 C571 1.330 . S
N572 C576 1.418 . S
C573 H552 0.929 . S
C573 C571 1.446 . S
C573 C574 1.332 . S
C574 H554 0.931 . S
C574 C573 1.332 . S
C574 C575 1.267 . S
C575 H543 0.929 . S
C575 C574 1.267 . S
C575 C576 1.251 . S
C576 H546 0.929 . S
C576 N572 1.418 . S
C576 C575 1.251 . S
C577 H544 0.930 . S
C577 C579 1.406 . S
C577 C582 1.261 . S
C578 H545 0.930 . S
C578 N580 1.325 . S
C578 C581 1.357 . S
C579 H547 0.928 . S
C579 C577 1.406 . S
C579 N580 1.261 . S
N580 Co531 2.214 . S
N580 C578 1.325 . S
N580 C579 1.261 . S
C581 H551 0.931 . S
C581 C578 1.357 . S
C581 C582 1.312 . S
C582 H553 0.930 . S
C582 C577 1.261 . S
C582 C581 1.312 . S
C583 O555 1.214 . S
C583 O563 1.234 . S
C584 H556 0.929 . S
C584 C587 1.391 . S
C584 C589 1.391 . S
C585 H557 0.929 . S
C585 C586 1.390 . S
C585 N588 1.391 . S
C586 H558 0.930 . S
C586 C585 1.390 . S
C586 C587 1.392 . S
C587 H559 0.929 . S
C587 C584 1.391 . S
C587 C586 1.392 . S
N588 Co532 2.257 . S
N588 C585 1.391 . S
N588 C589 1.388 . S
C589 H560 0.930 . S
C589 C584 1.391 . S
C589 N588 1.388 . S
Co590 O592 2.143 1_655 S
Co590 O598 2.074 1_556 S
Co590 O601 2.093 . S
Co590 O614 2.097 . S
Co590 N631 2.151 . S
Co590 N639 2.214 . S
Co591 O592 2.160 . S
Co591 O597 2.058 1_556 S
Co591 O607 2.057 . S
Co591 O622 2.037 . S
Co591 N626 2.145 1_556 S
Co591 N647 2.257 . S
O592 Co590 2.143 1_455 S
O592 Co591 2.160 . S
C593 O594 1.278 . S
C593 O601 1.224 1_455 S
O594 C593 1.278 . S
C595 O596 1.245 . S
C595 O607 1.232 . S
O596 C595 1.245 . S
O597 Co591 2.058 1_554 S
O597 C623 1.269 . S
O598 Co590 2.074 1_554 S
O598 C623 1.257 1_655 S
H599 C624 0.930 . S
H600 C630 0.922 1_455 S
O601 Co590 2.093 . S
O601 C593 1.224 1_655 S
H602 C634 0.929 . S
H603 C636 0.930 . S
H604 C637 0.930 . S
H605 C635 0.929 . S
H606 C638 0.928 . S
O607 Co591 2.057 . S
O607 C595 1.232 . S
H608 C627 0.929 . S
H609 C628 0.929 . S
H610 C640 0.931 1_554 S
H611 C632 0.929 . S
H612 C641 0.930 . S
H613 C633 0.931 . S
O614 Co590 2.097 . S
O614 C642 1.214 1_655 S
H615 C643 0.929 . S
H616 C644 0.929 . S
H617 C645 0.930 . S
H618 C646 0.929 . S
H619 C648 0.930 . S
H620 C625 0.930 . S
H621 C629 0.930 . S
O622 Co591 2.037 . S
O622 C642 1.234 . S
C623 O597 1.269 . S
C623 O598 1.257 1_455 S
C624 H599 0.930 . S
C624 C627 1.388 . S
C624 C629 1.418 . S
C625 H620 0.930 . S
C625 C628 1.404 . S
C625 C629 1.353 . S
N626 Co591 2.145 1_554 S
N626 C627 1.397 . S
N626 C628 1.334 . S
C627 H608 0.929 . S
C627 C624 1.388 . S
C627 N626 1.397 . S
C628 H609 0.929 . S
C628 C625 1.404 . S
C628 N626 1.334 . S
C629 H621 0.930 . S
C629 C624 1.418 . S
C629 C625 1.353 . S
C630 H600 0.922 1_655 S
C630 N631 1.330 . S
C630 C632 1.446 . S
N631 Co590 2.151 . S
N631 C630 1.330 . S
N631 C635 1.418 . S
C632 H611 0.929 . S
C632 C630 1.446 . S
C632 C633 1.332 . S
C633 H613 0.931 . S
C633 C632 1.332 . S
C633 C634 1.267 . S
C634 H602 0.929 . S
C634 C633 1.267 . S
C634 C635 1.251 . S
C635 H605 0.929 . S
C635 N631 1.418 . S
C635 C634 1.251 . S
C636 H603 0.930 . S
C636 C638 1.406 . S
C636 C641 1.261 . S
C637 H604 0.930 . S
C637 N639 1.325 . S
C637 C640 1.357 . S
C638 H606 0.928 . S
C638 C636 1.406 . S
C638 N639 1.261 . S
N639 Co590 2.214 . S
N639 C637 1.325 . S
N639 C638 1.261 . S
C640 H610 0.931 1_556 S
C640 C637 1.357 . S
C640 C641 1.312 . S
C641 H612 0.930 . S
C641 C636 1.261 . S
C641 C640 1.312 . S
C642 O614 1.214 1_455 S
C642 O622 1.234 . S
C643 H615 0.929 . S
C643 C646 1.391 . S
C643 C648 1.391 . S
C644 H616 0.929 . S
C644 C645 1.390 . S
C644 N647 1.391 . S
C645 H617 0.930 . S
C645 C644 1.390 . S
C645 C646 1.392 . S
C646 H618 0.929 . S
C646 C643 1.391 . S
C646 C645 1.392 . S
N647 Co591 2.257 . S
N647 C644 1.391 . S
N647 C648 1.388 . S
C648 H619 0.930 . S
C648 C643 1.391 . S
C648 N647 1.388 . S
Co649 O651 2.143 1_565 S
Co649 O657 2.074 . S
Co649 O660 2.093 . S
Co649 O673 2.097 . S
Co649 N690 2.151 . S
Co649 N698 2.214 . S
Co650 O651 2.160 . S
Co650 O656 2.058 . S
Co650 O666 2.057 . S
Co650 O681 2.037 . S
Co650 N685 2.145 . S
Co650 N706 2.257 . S
O651 Co649 2.143 1_545 S
O651 Co650 2.160 . S
C652 O653 1.278 . S
C652 O660 1.224 1_545 S
O653 C652 1.278 . S
C654 O655 1.245 . S
C654 O666 1.232 . S
O655 C654 1.245 . S
O656 Co650 2.058 . S
O656 C682 1.269 . S
O657 Co649 2.074 . S
O657 C682 1.257 1_565 S
H658 C683 0.930 . S
H659 C689 0.916 1_545 S
O660 Co649 2.093 . S
O660 C652 1.224 1_565 S
H661 C693 0.929 . S
H662 C695 0.930 . S
H663 C696 0.930 . S
H664 C694 0.929 . S
H665 C697 0.928 . S
O666 Co650 2.057 . S
O666 C654 1.232 . S
H667 C686 0.929 . S
H668 C687 0.929 . S
H669 C699 0.931 . S
H670 C691 0.929 . S
H671 C700 0.930 . S
H672 C692 0.931 . S
O673 Co649 2.097 . S
O673 C701 1.214 1_565 S
H674 C702 0.929 . S
H675 C703 0.929 . S
H676 C704 0.930 . S
H677 C705 0.929 . S
H678 C707 0.930 . S
H679 C684 0.930 . S
H680 C688 0.930 . S
O681 Co650 2.037 . S
O681 C701 1.234 . S
C682 O656 1.269 . S
C682 O657 1.257 1_545 S
C683 H658 0.930 . S
C683 C686 1.388 . S
C683 C688 1.418 . S
C684 H679 0.930 . S
C684 C687 1.404 . S
C684 C688 1.353 . S
N685 Co650 2.145 . S
N685 C686 1.397 . S
N685 C687 1.334 . S
C686 H667 0.929 . S
C686 C683 1.388 . S
C686 N685 1.397 . S
C687 H668 0.929 . S
C687 C684 1.404 . S
C687 N685 1.334 . S
C688 H680 0.930 . S
C688 C683 1.418 . S
C688 C684 1.353 . S
C689 H659 0.916 1_565 S
C689 N690 1.330 . S
C689 C691 1.446 . S
N690 Co649 2.151 . S
N690 C689 1.330 . S
N690 C694 1.418 . S
C691 H670 0.929 . S
C691 C689 1.446 . S
C691 C692 1.332 . S
C692 H672 0.931 . S
C692 C691 1.332 . S
C692 C693 1.267 . S
C693 H661 0.929 . S
C693 C692 1.267 . S
C693 C694 1.251 . S
C694 H664 0.929 . S
C694 N690 1.418 . S
C694 C693 1.251 . S
C695 H662 0.930 . S
C695 C697 1.406 . S
C695 C700 1.261 . S
C696 H663 0.930 . S
C696 N698 1.325 . S
C696 C699 1.357 . S
C697 H665 0.928 . S
C697 C695 1.406 . S
C697 N698 1.261 . S
N698 Co649 2.214 . S
N698 C696 1.325 . S
N698 C697 1.261 . S
C699 H669 0.931 . S
C699 C696 1.357 . S
C699 C700 1.312 . S
C700 H671 0.930 . S
C700 C695 1.261 . S
C700 C699 1.312 . S
C701 O673 1.214 1_545 S
C701 O681 1.234 . S
C702 H674 0.929 . S
C702 C705 1.391 . S
C702 C707 1.391 . S
C703 H675 0.929 . S
C703 C704 1.390 . S
C703 N706 1.391 . S
C704 H676 0.930 . S
C704 C703 1.390 . S
C704 C705 1.392 . S
C705 H677 0.929 . S
C705 C702 1.391 . S
C705 C704 1.392 . S
N706 Co650 2.257 . S
N706 C703 1.391 . S
N706 C707 1.388 . S
C707 H678 0.930 . S
C707 C702 1.391 . S
C707 N706 1.388 . S
C708 C709 1.387 . S
C708 H712 0.950 . S
C708 C717 1.390 . S
C709 C708 1.387 . S
C709 C711 1.387 . S
H710 C717 0.950 . S
C711 C709 1.387 . S
C711 C713 1.390 . S
C711 H715 0.950 . S
H712 C708 0.950 . S
C713 C711 1.390 . S
C713 C714 1.387 . S
C713 H716 0.950 . S
C714 C713 1.387 . S
C714 C717 1.387 . S
H715 C711 0.950 . S
H716 C713 0.950 . S
C717 C708 1.390 . S
C717 H710 0.950 . S
C717 C714 1.387 . S
C718 C719 1.387 1_455 S
C718 H722 0.950 . S
C718 C727 1.390 . S
C719 C718 1.387 1_655 S
C719 C721 1.387 . S
H720 C727 0.950 . S
C721 C719 1.387 . S
C721 C723 1.390 . S
C721 H725 0.950 . S
H722 C718 0.950 . S
C723 C721 1.390 . S
C723 C724 1.387 1_655 S
C723 H726 0.950 . S
C724 C723 1.387 1_455 S
C724 C727 1.387 . S
H725 C721 0.950 . S
H726 C723 0.950 . S
C727 C718 1.390 . S
C727 H720 0.950 . S
C727 C724 1.387 . S
C728 C729 1.387 . S
C728 H732 0.950 . S
C728 C737 1.390 1_566 S
C729 C728 1.387 . S
C729 C731 1.387 . S
H730 C737 0.950 . S
C731 C729 1.387 . S
C731 C733 1.390 1_566 S
C731 H735 0.950 . S
H732 C728 0.950 . S
C733 C731 1.390 1_544 S
C733 C734 1.387 . S
C733 H736 0.950 . S
C734 C733 1.387 . S
C734 C737 1.387 . S
H735 C731 0.950 . S
H736 C733 0.950 . S
C737 C728 1.390 1_544 S
C737 H730 0.950 . S
C737 C734 1.387 . S
C738 C739 1.387 . S
C738 H742 0.950 . S
C738 C747 1.390 . S
C739 C738 1.387 . S
C739 C741 1.387 . S
H740 C747 0.950 . S
C741 C739 1.387 . S
C741 C743 1.390 . S
C741 H745 0.950 . S
H742 C738 0.950 . S
C743 C741 1.390 . S
C743 C744 1.387 . S
C743 H746 0.950 . S
C744 C743 1.387 . S
C744 C747 1.387 . S
H745 C741 0.950 . S
H746 C743 0.950 . S
C747 C738 1.390 . S
C747 H740 0.950 . S
C747 C744 1.387 . S
C748 C749 1.387 1_455 S
C748 H752 0.950 . S
C748 C757 1.390 . S
C749 C748 1.387 1_655 S
C749 C751 1.387 . S
H750 C757 0.950 . S
C751 C749 1.387 . S
C751 C753 1.390 . S
C751 H755 0.950 . S
H752 C748 0.950 . S
C753 C751 1.390 . S
C753 C754 1.387 1_655 S
C753 H756 0.950 . S
C754 C753 1.387 1_455 S
C754 C757 1.387 . S
H755 C751 0.950 . S
H756 C753 0.950 . S
C757 C748 1.390 . S
C757 H750 0.950 . S
C757 C754 1.387 . S
C758 C759 1.387 . S
C758 H762 0.950 . S
C758 C767 1.390 1_564 S
C759 C758 1.387 . S
C759 C761 1.387 . S
H760 C767 0.950 . S
C761 C759 1.387 . S
C761 C763 1.390 1_564 S
C761 H765 0.950 . S
H762 C758 0.950 . S
C763 C761 1.390 1_546 S
C763 C764 1.387 . S
C763 H766 0.950 . S
C764 C763 1.387 . S
C764 C767 1.387 . S
H765 C761 0.950 . S
H766 C763 0.950 . S
C767 C758 1.390 1_546 S
C767 H760 0.950 . S
C767 C764 1.387 . S
C768 C769 1.387 . S
C768 H772 0.950 . S
C768 C777 1.390 1_556 S
C769 C768 1.387 . S
C769 C771 1.387 . S
H770 C777 0.950 . S
C771 C769 1.387 . S
C771 C773 1.390 1_556 S
C771 H775 0.950 . S
H772 C768 0.950 . S
C773 C771 1.390 1_554 S
C773 C774 1.387 . S
C773 H776 0.950 . S
C774 C773 1.387 . S
C774 C777 1.387 . S
H775 C771 0.950 . S
H776 C773 0.950 . S
C777 C768 1.390 1_554 S
C777 H770 0.950 . S
C777 C774 1.387 . S
C778 C779 1.387 . S
C778 H782 0.950 . S
C778 C787 1.390 . S
C779 C778 1.387 . S
C779 C781 1.387 . S
H780 C787 0.950 . S
C781 C779 1.387 . S
C781 C783 1.390 . S
C781 H785 0.950 . S
H782 C778 0.950 . S
C783 C781 1.390 . S
C783 C784 1.387 . S
C783 H786 0.950 . S
C784 C783 1.387 . S
C784 C787 1.387 . S
H785 C781 0.950 . S
H786 C783 0.950 . S
C787 C778 1.390 . S
C787 H780 0.950 . S
C787 C784 1.387 . S
C788 C789 1.387 . S
C788 H792 0.950 . S
C788 C797 1.390 . S
C789 C788 1.387 . S
C789 C791 1.387 . S
H790 C797 0.950 . S
C791 C789 1.387 . S
C791 C793 1.390 . S
C791 H795 0.950 . S
H792 C788 0.950 . S
C793 C791 1.390 . S
C793 C794 1.387 . S
C793 H796 0.950 . S
C794 C793 1.387 . S
C794 C797 1.387 . S
H795 C791 0.950 . S
H796 C793 0.950 . S
C797 C788 1.390 . S
C797 H790 0.950 . S
C797 C794 1.387 . S
C798 C799 1.387 . S
C798 H802 0.950 . S
C798 C807 1.390 1_554 S
C799 C798 1.387 . S
C799 C801 1.387 . S
H800 C807 0.950 . S
C801 C799 1.387 . S
C801 C803 1.390 1_554 S
C801 H805 0.950 . S
H802 C798 0.950 . S
C803 C801 1.390 1_556 S
C803 C804 1.387 . S
C803 H806 0.950 . S
C804 C803 1.387 . S
C804 C807 1.387 . S
H805 C801 0.950 . S
H806 C803 0.950 . S
C807 C798 1.390 1_556 S
C807 H800 0.950 . S
C807 C804 1.387 . S
C808 C809 1.387 . S
C808 H812 0.950 . S
C808 C817 1.390 . S
C809 C808 1.387 . S
C809 C811 1.387 . S
H810 C817 0.950 . S
C811 C809 1.387 . S
C811 C813 1.390 . S
C811 H815 0.950 . S
H812 C808 0.950 . S
C813 C811 1.390 . S
C813 C814 1.387 . S
C813 H816 0.950 . S
C814 C813 1.387 . S
C814 C817 1.387 . S
H815 C811 0.950 . S
H816 C813 0.950 . S
C817 C808 1.390 . S
C817 H810 0.950 . S
C817 C814 1.387 . S
C818 C819 1.387 . S
C818 H822 0.950 . S
C818 C827 1.390 . S
C819 C818 1.387 . S
C819 C821 1.387 . S
H820 C827 0.950 . S
C821 C819 1.387 . S
C821 C823 1.390 . S
C821 H825 0.950 . S
H822 C818 0.950 . S
C823 C821 1.390 . S
C823 C824 1.387 . S
C823 H826 0.950 . S
C824 C823 1.387 . S
C824 C827 1.387 . S
H825 C821 0.950 . S
H826 C823 0.950 . S
C827 C818 1.390 . S
C827 H820 0.950 . S
C827 C824 1.387 . S
C828 C829 1.387 . S
C828 H832 0.950 . S
C828 C837 1.390 . S
C829 C828 1.387 . S
C829 C831 1.387 . S
H830 C837 0.950 . S
C831 C829 1.387 . S
C831 C833 1.390 . S
C831 H835 0.950 . S
H832 C828 0.950 . S
C833 C831 1.390 . S
C833 C834 1.387 . S
C833 H836 0.950 . S
C834 C833 1.387 . S
C834 C837 1.387 . S
H835 C831 0.950 . S
H836 C833 0.950 . S
C837 C828 1.390 . S
C837 H830 0.950 . S
C837 C834 1.387 . S
C838 C839 1.387 . S
C838 H842 0.950 . S
C838 C847 1.390 . S
C839 C838 1.387 . S
C839 C841 1.387 1_655 S
H840 C847 0.950 . S
C841 C839 1.387 1_455 S
C841 C843 1.390 . S
C841 H845 0.950 . S
H842 C838 0.950 . S
C843 C841 1.390 . S
C843 C844 1.387 . S
C843 H846 0.950 . S
C844 C843 1.387 . S
C844 C847 1.387 1_455 S
H845 C841 0.950 . S
H846 C843 0.950 . S
C847 C838 1.390 . S
C847 H840 0.950 . S
C847 C844 1.387 1_655 S
C848 C849 1.391 . S
C848 H852 0.955 . S
C848 C857 1.390 1_565 S
C849 C848 1.391 . S
C849 C851 1.387 . S
H850 C857 0.950 . S
C851 C849 1.387 . S
C851 C853 1.390 1_565 S
C851 H855 0.950 . S
H852 C848 0.955 . S
C853 C851 1.390 1_545 S
C853 C854 1.391 . S
C853 H856 0.955 . S
C854 C853 1.391 . S
C854 C857 1.387 . S
H855 C851 0.950 . S
H856 C853 0.955 . S
C857 C848 1.390 1_545 S
C857 H850 0.950 . S
C857 C854 1.387 . S
C858 C859 1.387 . S
C858 H862 0.950 . S
C858 C867 1.390 . S
C859 C858 1.387 . S
C859 C861 1.387 . S
H860 C867 0.950 . S
C861 C859 1.387 . S
C861 C863 1.390 . S
C861 H865 0.950 . S
H862 C858 0.950 . S
C863 C861 1.390 . S
C863 C864 1.387 . S
C863 H866 0.950 . S
C864 C863 1.387 . S
C864 C867 1.387 . S
H865 C861 0.950 . S
H866 C863 0.950 . S
C867 C858 1.390 . S
C867 H860 0.950 . S
C867 C864 1.387 . S
C868 C869 1.387 . S
C868 H872 0.950 . S
C868 C877 1.390 . S
C869 C868 1.387 . S
C869 C871 1.387 1_455 S
H870 C877 0.950 . S
C871 C869 1.387 1_655 S
C871 C873 1.390 . S
C871 H875 0.950 . S
H872 C868 0.950 . S
C873 C871 1.390 . S
C873 C874 1.387 . S
C873 H876 0.950 . S
C874 C873 1.387 . S
C874 C877 1.387 1_655 S
H875 C871 0.950 . S
H876 C873 0.950 . S
C877 C868 1.390 . S
C877 H870 0.950 . S
C877 C874 1.387 1_455 S
C878 C879 1.392 1_545 S
C878 H882 0.952 . S
C878 C887 1.391 . S
C879 C878 1.392 1_565 S
C879 C881 1.387 . S
H880 C887 0.950 . S
C881 C879 1.387 . S
C881 C883 1.391 . S
C881 H885 0.950 . S
H882 C878 0.952 . S
C883 C881 1.391 . S
C883 C884 1.392 1_565 S
C883 H886 0.952 . S
C884 C883 1.392 1_545 S
C884 C887 1.387 . S
H885 C881 0.950 . S
H886 C883 0.952 . S
C887 C878 1.391 . S
C887 H880 0.950 . S
C887 C884 1.387 . S
C888 C889 1.387 1_556 S
C888 H892 0.950 . S
C888 C897 1.390 . S
C889 C888 1.387 1_554 S
C889 C891 1.387 . S
H890 C897 0.950 . S
C891 C889 1.387 . S
C891 C893 1.390 . S
C891 H895 0.950 . S
H892 C888 0.950 . S
C893 C891 1.390 . S
C893 C894 1.387 . S
C893 H896 0.950 . S
C894 C893 1.387 . S
C894 C897 1.387 1_554 S
H895 C891 0.950 . S
H896 C893 0.950 . S
C897 C888 1.390 . S
C897 H890 0.950 . S
C897 C894 1.387 1_556 S
C898 C899 1.387 . S
C898 H902 0.950 . S
C898 C907 1.390 1_455 S
C899 C898 1.387 . S
C899 C901 1.387 . S
H900 C907 0.950 . S
C901 C899 1.387 . S
C901 C903 1.390 1_455 S
C901 H905 0.950 . S
H902 C898 0.950 . S
C903 C901 1.390 1_655 S
C903 C904 1.387 . S
C903 H906 0.950 . S
C904 C903 1.387 . S
C904 C907 1.387 . S
H905 C901 0.950 . S
H906 C903 0.950 . S
C907 C898 1.390 1_655 S
C907 H900 0.950 . S
C907 C904 1.387 . S
C908 C909 1.387 . S
C908 H912 0.950 . S
C908 C917 1.390 1_565 S
C909 C908 1.387 . S
C909 C911 1.387 . S
H910 C917 0.950 . S
C911 C909 1.387 . S
C911 C913 1.390 1_565 S
C911 H915 0.950 . S
H912 C908 0.950 . S
C913 C911 1.390 1_545 S
C913 C914 1.387 . S
C913 H916 0.950 . S
C914 C913 1.387 . S
C914 C917 1.387 . S
H915 C911 0.950 . S
H916 C913 0.950 . S
C917 C908 1.390 1_545 S
C917 H910 0.950 . S
C917 C914 1.387 . S
C918 C919 1.387 . S
C918 H922 0.950 . S
C918 C927 1.390 . S
C919 C918 1.387 . S
C919 C921 1.387 . S
H920 C927 0.950 . S
C921 C919 1.387 . S
C921 C923 1.390 . S
C921 H925 0.950 . S
H922 C918 0.950 . S
C923 C921 1.390 . S
C923 C924 1.387 . S
C923 H926 0.950 . S
C924 C923 1.387 . S
C924 C927 1.387 . S
H925 C921 0.950 . S
H926 C923 0.950 . S
C927 C918 1.390 . S
C927 H920 0.950 . S
C927 C924 1.387 . S
C928 C929 1.387 . S
C928 H932 0.950 . S
C928 C937 1.390 1_655 S
C929 C928 1.387 . S
C929 C931 1.387 1_556 S
H930 C937 0.950 . S
C931 C929 1.387 1_554 S
C931 C933 1.390 1_655 S
C931 H935 0.950 . S
H932 C928 0.950 . S
C933 C931 1.390 1_455 S
C933 C934 1.387 1_554 S
C933 H936 0.950 . S
C934 C933 1.387 1_556 S
C934 C937 1.387 . S
H935 C931 0.950 . S
H936 C933 0.950 . S
C937 C928 1.390 1_455 S
C937 H930 0.950 . S
C937 C934 1.387 . S
C938 C939 1.387 . S
C938 H942 0.950 . S
C938 C947 1.390 1_545 S
C939 C938 1.387 . S
C939 C941 1.387 . S
H940 C947 0.950 . S
C941 C939 1.387 . S
C941 C943 1.390 1_545 S
C941 H945 0.950 . S
H942 C938 0.950 . S
C943 C941 1.390 1_565 S
C943 C944 1.387 . S
C943 H946 0.950 . S
C944 C943 1.387 . S
C944 C947 1.387 . S
H945 C941 0.950 . S
H946 C943 0.950 . S
C947 C938 1.390 1_565 S
C947 H940 0.950 . S
C947 C944 1.387 . S
C709 C3 1.565 . S
C714 C534 1.563 . S
C719 C62 1.565 . S
C724 C593 1.564 . S
C729 C121 1.564 . S
C734 C652 1.564 . S
C739 C180 1.564 . S
C744 C357 1.565 . S
C749 C416 1.565 . S
C754 C239 1.564 . S
C759 C475 1.564 . S
C764 C298 1.564 . S
C769 C595 1.572 . S
C774 C5 1.572 . S
C779 C64 1.573 . S
C784 C654 1.573 . S
C789 C123 1.572 . S
C794 C359 1.572 . S
C799 C182 1.572 . S
C804 C418 1.572 . S
C809 C241 1.573 . S
C814 C477 1.573 . S
C819 C300 1.572 . S
C824 C536 1.572 . S
C829 C564 1.089 . S
C834 C33 1.088 . S
C839 C92 1.089 . S
C844 C623 1.088 . S
C849 C151 1.086 . S
C854 C682 1.086 . S
C859 C387 1.089 . S
C864 C210 1.088 . S
C869 C269 1.089 . S
C874 C446 1.088 . S
C879 C505 1.086 . S
C884 C328 1.086 . S
C889 C52 1.578 . S
C894 C229 1.578 . S
C899 C288 1.578 . S
C904 C111 1.578 . S
C909 C170 1.577 . S
C914 C347 1.577 . S
C919 C406 1.578 . S
C924 C583 1.578 . S
C929 C465 1.577 . S
C934 C642 1.577 . S
C939 C701 1.577 . S
C944 C524 1.577 . S
