# Generated by pormake.
# Topology fnw, (5)-cn, num edge types: 1
# Building blocks:
#     Node 0, Type 0, BuildingBlock: BEQFEK_clean_sbu_0, # of connection points: 5
#     Node 1, Type 0, BuildingBlock: BEQFEK_clean_sbu_0, # of connection points: 5
#     Node 2, Type 0, BuildingBlock: BEQFEK_clean_sbu_0, # of connection points: 5
#     Node 3, Type 0, BuildingBlock: BEQFEK_clean_sbu_0, # of connection points: 5
#     Node 4, Type 0, BuildingBlock: BEQFEK_clean_sbu_0, # of connection points: 5
#     Node 5, Type 0, BuildingBlock: BEQFEK_clean_sbu_0, # of connection points: 5
#     Node 6, Type 0, BuildingBlock: BEQFEK_clean_sbu_0, # of connection points: 5
#     Node 7, Type 0, BuildingBlock: BEQFEK_clean_sbu_0, # of connection points: 5
#     Node 8, Type 0, BuildingBlock: BEQFEK_clean_sbu_0, # of connection points: 5
#     Node 9, Type 0, BuildingBlock: BEQFEK_clean_sbu_0, # of connection points: 5
#     Node 10, Type 0, BuildingBlock: BEQFEK_clean_sbu_0, # of connection points: 5
#     Node 11, Type 0, BuildingBlock: BEQFEK_clean_sbu_0, # of connection points: 5
#     Edge 12, Type (0, 0), BuildingBlock: OJICUG_clean_linker_0, # of connection points: 2
#     Edge 13, Type (0, 0), BuildingBlock: OJICUG_clean_linker_0, # of connection points: 2
#     Edge 14, Type (0, 0), BuildingBlock: OJICUG_clean_linker_0, # of connection points: 2
#     Edge 15, Type (0, 0), BuildingBlock: OJICUG_clean_linker_0, # of connection points: 2
#     Edge 16, Type (0, 0), BuildingBlock: OJICUG_clean_linker_0, # of connection points: 2
#     Edge 17, Type (0, 0), BuildingBlock: OJICUG_clean_linker_0, # of connection points: 2
#     Edge 18, Type (0, 0), BuildingBlock: OJICUG_clean_linker_0, # of connection points: 2
#     Edge 19, Type (0, 0), BuildingBlock: OJICUG_clean_linker_0, # of connection points: 2
#     Edge 20, Type (0, 0), BuildingBlock: OJICUG_clean_linker_0, # of connection points: 2
#     Edge 21, Type (0, 0), BuildingBlock: OJICUG_clean_linker_0, # of connection points: 2
#     Edge 22, Type (0, 0), BuildingBlock: OJICUG_clean_linker_0, # of connection points: 2
#     Edge 23, Type (0, 0), BuildingBlock: OJICUG_clean_linker_0, # of connection points: 2
#     Edge 24, Type (0, 0), BuildingBlock: OJICUG_clean_linker_0, # of connection points: 2
#     Edge 25, Type (0, 0), BuildingBlock: OJICUG_clean_linker_0, # of connection points: 2
#     Edge 26, Type (0, 0), BuildingBlock: OJICUG_clean_linker_0, # of connection points: 2
#     Edge 27, Type (0, 0), BuildingBlock: OJICUG_clean_linker_0, # of connection points: 2
#     Edge 28, Type (0, 0), BuildingBlock: OJICUG_clean_linker_0, # of connection points: 2
#     Edge 29, Type (0, 0), BuildingBlock: OJICUG_clean_linker_0, # of connection points: 2
#     Edge 30, Type (0, 0), BuildingBlock: OJICUG_clean_linker_0, # of connection points: 2
#     Edge 31, Type (0, 0), BuildingBlock: OJICUG_clean_linker_0, # of connection points: 2
#     Edge 32, Type (0, 0), BuildingBlock: OJICUG_clean_linker_0, # of connection points: 2
#     Edge 33, Type (0, 0), BuildingBlock: OJICUG_clean_linker_0, # of connection points: 2
#     Edge 34, Type (0, 0), BuildingBlock: OJICUG_clean_linker_0, # of connection points: 2
#     Edge 35, Type (0, 0), BuildingBlock: OJICUG_clean_linker_0, # of connection points: 2
#     Edge 36, Type (0, 0), BuildingBlock: OJICUG_clean_linker_0, # of connection points: 2
#     Edge 37, Type (0, 0), BuildingBlock: OJICUG_clean_linker_0, # of connection points: 2
#     Edge 38, Type (0, 0), BuildingBlock: OJICUG_clean_linker_0, # of connection points: 2
#     Edge 39, Type (0, 0), BuildingBlock: OJICUG_clean_linker_0, # of connection points: 2
#     Edge 40, Type (0, 0), BuildingBlock: OJICUG_clean_linker_0, # of connection points: 2
#     Edge 41, Type (0, 0), BuildingBlock: OJICUG_clean_linker_0, # of connection points: 2
# Relax obj value: 0.199
# Max RMSD: 0.133
# Mean RMSD: 0.133
data_MOF--net-fnw--node1-BEQFEK_clean_sbu_0--edge1-OJICUG_clean_linker_0
_symmetry_space_group_name_H-M    P1
_symmetry_Int_Tables_number       1
_symmetry_cell_setting            triclinic
loop_
_symmetry_equiv_pos_as_xyz
'x, y, z'
_cell_length_a     44.366463
_cell_length_b     44.324409
_cell_length_c     22.848761
_cell_angle_alpha  90.011549
_cell_angle_beta   90.010484
_cell_angle_gamma 119.87582
loop_
_atom_site_label
_atom_site_type_symbol
_atom_site_fract_x
_atom_site_fract_y
_atom_site_fract_z
_atom_type_partial_charge
Co0 Co 0.2429 0.50045 0.21735 0.0
Co1 Co 0.27963 0.45582 0.22078 0.0
C2 C 0.23549 0.45231 0.1187 0.0
O3 O 0.22841 0.47394 0.14309 0.0
O4 O 0.25518 0.44262 0.14325 0.0
C5 C 0.19721 0.53154 0.20179 0.0
O6 O 0.17941 0.50881 0.16074 0.0
C7 C 0.29599 0.39822 0.22641 0.0
C8 C 0.33949 0.42179 0.28967 0.0
C9 C 0.31908 0.39188 0.25784 0.0
N10 N 0.30212 0.43028 0.24039 0.0
N11 N 0.32839 0.44425 0.27762 0.0
C12 C 0.26768 0.37396 0.18618 0.0
H13 H 0.24516 0.37831 0.18926 0.0
H14 H 0.25946 0.34646 0.19665 0.0
H15 H 0.27744 0.37941 0.14051 0.0
C16 C 0.21901 0.46926 0.33339 0.0
N17 N 0.23418 0.47091 0.28168 0.0
N18 N 0.24931 0.45186 0.28389 0.0
C19 C 0.24377 0.43709 0.33746 0.0
C20 C 0.22492 0.44814 0.37096 0.0
C21 C 0.20185 0.49007 0.3479 0.0
H22 H 0.18321 0.48677 0.31273 0.0
H23 H 0.1878 0.48188 0.39026 0.0
H24 H 0.22184 0.51806 0.35007 0.0
O25 O 0.29287 0.53531 0.21518 0.0
O26 O 0.31914 0.50403 0.21465 0.0
H27 H 0.28817 0.43521 0.36854 0.0
H28 H 0.24815 0.40244 0.39971 0.0
C29 C 0.26039 0.41694 0.35906 0.0
H30 H 0.25825 0.39805 0.32533 0.0
H31 H 0.33835 0.46903 0.29572 0.0
O32 O 0.22153 0.52987 0.22821 0.0
C33 C 0.32041 0.53327 0.21389 0.0
Co34 Co 0.74072 0.25208 0.71968 0.0
Co35 Co 0.82111 0.28382 0.72183 0.0
C36 C 0.77938 0.24176 0.61982 0.0
O37 O 0.75143 0.23614 0.64521 0.0
O38 O 0.80914 0.26029 0.64363 0.0
C39 C 0.66383 0.20667 0.70911 0.0
O40 O 0.66737 0.18323 0.67948 0.0
C41 C 0.89422 0.29801 0.72397 0.0
C42 C 0.91405 0.33621 0.79642 0.0
C43 C 0.92355 0.31841 0.75774 0.0
N44 N 0.86848 0.30323 0.74287 0.0
N45 N 0.88065 0.32624 0.7858 0.0
C46 C 0.89015 0.27315 0.67632 0.0
H47 H 0.86366 0.25006 0.67781 0.0
H48 H 0.90994 0.2649 0.68032 0.0
H49 H 0.89333 0.28609 0.63338 0.0
C50 C 0.74716 0.22917 0.83793 0.0
N51 N 0.76018 0.24237 0.78483 0.0
N52 N 0.79372 0.25343 0.78413 0.0
C53 C 0.80275 0.24584 0.83617 0.0
C54 C 0.77382 0.23096 0.87257 0.0
C55 C 0.71135 0.22023 0.85705 0.0
H56 H 0.7044 0.23892 0.8378 0.0
H57 H 0.69245 0.19384 0.84082 0.0
H58 H 0.70921 0.22082 0.9053 0.0
O59 O 0.75821 0.30209 0.71731 0.0
O60 O 0.81542 0.32579 0.71743 0.0
H61 H 0.85435 0.2787 0.86835 0.0
H62 H 0.83665 0.23347 0.88528 0.0
C63 C 0.83824 0.25198 0.85105 0.0
H64 H 0.85087 0.24871 0.81161 0.0
H65 H 0.8659 0.33488 0.80833 0.0
O66 O 0.69047 0.23359 0.72839 0.0
C67 C 0.78834 0.32869 0.71674 0.0
Co68 Co 0.48481 0.73784 0.2283 0.0
Co69 Co 0.52792 0.81918 0.23244 0.0
C70 C 0.533 0.77891 0.13063 0.0
O71 O 0.51187 0.75001 0.15477 0.0
O72 O 0.5417 0.80807 0.15516 0.0
C73 C 0.45032 0.66282 0.20405 0.0
O74 O 0.4702 0.6699 0.15765 0.0
C75 C 0.58523 0.89277 0.23948 0.0
C76 C 0.55955 0.91395 0.29568 0.0
C77 C 0.5905 0.92285 0.26762 0.0
N78 N 0.55274 0.86724 0.2514 0.0
N79 N 0.53755 0.88022 0.28457 0.0
C80 C 0.61087 0.8876 0.20481 0.0
H81 H 0.6054 0.8604 0.20955 0.0
H82 H 0.63785 0.90607 0.21907 0.0
H83 H 0.60822 0.89224 0.15785 0.0
C84 C 0.51593 0.74553 0.34482 0.0
N85 N 0.51379 0.75891 0.29323 0.0
N86 N 0.53196 0.79308 0.29575 0.0
C87 C 0.54641 0.80252 0.34946 0.0
C88 C 0.53639 0.77268 0.38261 0.0
C89 C 0.49631 0.70751 0.35882 0.0
H90 H 0.49921 0.69261 0.32238 0.0
H91 H 0.50575 0.7018 0.40004 0.0
H92 H 0.46827 0.69895 0.36322 0.0
O93 O 0.44975 0.7526 0.22411 0.0
O94 O 0.4797 0.81003 0.2257 0.0
H95 H 0.5459 0.84847 0.37568 0.0
H96 H 0.57712 0.84177 0.4146 0.0
C97 C 0.56486 0.83924 0.37137 0.0
H98 H 0.58527 0.85609 0.33976 0.0
H99 H 0.5122 0.86583 0.30042 0.0
O100 O 0.45498 0.68712 0.23885 0.0
C101 C 0.45093 0.78179 0.22342 0.0
Co102 Co 0.74187 0.48896 0.72112 0.0
Co103 Co 0.70469 0.53316 0.72489 0.0
C104 C 0.74912 0.53721 0.62289 0.0
O105 O 0.7564 0.5157 0.64717 0.0
O106 O 0.72922 0.54663 0.64746 0.0
C107 C 0.78684 0.45763 0.70289 0.0
O108 O 0.80325 0.47981 0.66043 0.0
C109 C 0.68806 0.5905 0.73097 0.0
C110 C 0.64422 0.56653 0.79349 0.0
C111 C 0.66472 0.59661 0.76215 0.0
N112 N 0.68195 0.55842 0.7446 0.0
N113 N 0.65549 0.54421 0.7814 0.0
C114 C 0.71658 0.61503 0.69137 0.0
H115 H 0.73911 0.61069 0.69466 0.0
H116 H 0.7247 0.64245 0.70226 0.0
H117 H 0.70709 0.60983 0.64551 0.0
C118 C 0.76562 0.52007 0.83738 0.0
N119 N 0.75031 0.51827 0.78573 0.0
N120 N 0.735 0.53714 0.78804 0.0
C121 C 0.7405 0.55192 0.84161 0.0
C122 C 0.75961 0.54111 0.87499 0.0
C123 C 0.7831 0.49954 0.85173 0.0
H124 H 0.80156 0.5028 0.81628 0.0
H125 H 0.79738 0.508 0.89387 0.0
H126 H 0.76326 0.47152 0.85431 0.0
O127 O 0.69198 0.45393 0.71814 0.0
O128 O 0.66541 0.4849 0.71829 0.0
H129 H 0.69579 0.55337 0.87217 0.0
H130 H 0.73554 0.58606 0.90429 0.0
C131 C 0.72361 0.5718 0.8633 0.0
H132 H 0.72584 0.59084 0.82982 0.0
H133 H 0.6455 0.51935 0.79918 0.0
O134 O 0.76342 0.45968 0.73165 0.0
C135 C 0.66432 0.45577 0.71693 0.0
Co136 Co 0.24396 0.73689 0.22557 0.0
Co137 Co 0.16368 0.70572 0.22796 0.0
C138 C 0.20571 0.74841 0.12651 0.0
O139 O 0.23357 0.75364 0.15173 0.0
O140 O 0.1759 0.72986 0.15018 0.0
C141 C 0.32046 0.78081 0.21232 0.0
O142 O 0.31656 0.80308 0.17982 0.0
C143 C 0.09075 0.6921 0.23039 0.0
C144 C 0.0707 0.65368 0.30244 0.0
C145 C 0.06137 0.67172 0.26403 0.0
N146 N 0.11636 0.6866 0.24909 0.0
N147 N 0.10406 0.66347 0.29181 0.0
C148 C 0.09501 0.71717 0.18302 0.0
H149 H 0.12156 0.74016 0.18474 0.0
H150 H 0.07533 0.72555 0.18714 0.0
H151 H 0.09181 0.70436 0.13993 0.0
C152 C 0.23794 0.7593 0.34439 0.0
N153 N 0.22473 0.74635 0.29125 0.0
N154 N 0.19124 0.73551 0.29083 0.0
C155 C 0.18242 0.74298 0.34318 0.0
C156 C 0.21146 0.75758 0.37941 0.0
C157 C 0.27375 0.76799 0.36307 0.0
H158 H 0.29275 0.7942 0.34633 0.0
H159 H 0.27616 0.76766 0.41131 0.0
H160 H 0.28031 0.74899 0.34395 0.0
O161 O 0.22607 0.68688 0.22181 0.0
O162 O 0.16889 0.66347 0.22226 0.0
H163 H 0.13086 0.71033 0.37562 0.0
H164 H 0.1489 0.75557 0.39295 0.0
C165 C 0.14708 0.73708 0.35848 0.0
H166 H 0.13441 0.74055 0.31928 0.0
H167 H 0.11867 0.6546 0.31414 0.0
O168 O 0.29407 0.75485 0.23444 0.0
C169 C 0.19587 0.66039 0.22096 0.0
Co170 Co 0.50019 0.25042 0.72441 0.0
Co171 Co 0.45633 0.16922 0.72886 0.0
C172 C 0.45184 0.2099 0.62684 0.0
O173 O 0.47313 0.23874 0.65099 0.0
O174 O 0.44296 0.1807 0.65137 0.0
C175 C 0.53449 0.32616 0.70374 0.0
O176 O 0.51293 0.32047 0.66024 0.0
C177 C 0.39766 0.09633 0.73623 0.0
C178 C 0.42213 0.0744 0.79363 0.0
C179 C 0.39142 0.06624 0.76542 0.0
N180 N 0.43048 0.12125 0.7479 0.0
N181 N 0.44495 0.10779 0.78168 0.0
C182 C 0.37266 0.10204 0.7007 0.0
H183 H 0.37867 0.12944 0.70505 0.0
H184 H 0.34548 0.08401 0.71449 0.0
H185 H 0.37549 0.09718 0.65393 0.0
C186 C 0.46939 0.2435 0.84087 0.0
N187 N 0.47122 0.22983 0.78939 0.0
N188 N 0.45278 0.19569 0.7922 0.0
C189 C 0.43847 0.18657 0.84607 0.0
C190 C 0.44886 0.21659 0.87895 0.0
C191 C 0.48933 0.28157 0.85448 0.0
H192 H 0.48656 0.29644 0.81785 0.0
H193 H 0.48006 0.28759 0.89559 0.0
H194 H 0.51732 0.2899 0.85887 0.0
O195 O 0.53455 0.23479 0.72015 0.0
O196 O 0.50431 0.17739 0.72258 0.0
H197 H 0.4386 0.1405 0.87272 0.0
H198 H 0.40778 0.14772 0.91174 0.0
C199 C 0.41982 0.14995 0.86841 0.0
H200 H 0.39919 0.13309 0.83712 0.0
H201 H 0.47035 0.12168 0.79755 0.0
O202 O 0.53087 0.30094 0.7351 0.0
C203 C 0.53319 0.20551 0.71997 0.0
Co204 Co 0.48551 0.74735 0.78821 0.0
Co205 Co 0.53198 0.71265 0.78358 0.0
C206 C 0.5343 0.75561 0.88646 0.0
O207 O 0.51213 0.76201 0.86235 0.0
O208 O 0.54475 0.73662 0.86155 0.0
C209 C 0.45279 0.79152 0.80515 0.0
O210 O 0.47524 0.8094 0.8465 0.0
C211 C 0.58893 0.69521 0.77934 0.0
C212 C 0.56721 0.65499 0.71011 0.0
C213 C 0.59576 0.67303 0.74609 0.0
N214 N 0.55796 0.69088 0.76251 0.0
N215 N 0.54508 0.66656 0.72165 0.0
C216 C 0.61159 0.72067 0.82481 0.0
H217 H 0.603 0.70867 0.86869 0.0
H218 H 0.60891 0.74426 0.82325 0.0
H219 H 0.63919 0.72788 0.81846 0.0
C220 C 0.51619 0.77228 0.67219 0.0
N221 N 0.51506 0.75707 0.72365 0.0
N222 N 0.53526 0.74324 0.72126 0.0
C223 C 0.55051 0.74996 0.66797 0.0
C224 C 0.53832 0.76791 0.63468 0.0
C225 C 0.49405 0.78799 0.65778 0.0
H226 H 0.4968 0.80657 0.69271 0.0
H227 H 0.50147 0.80184 0.61518 0.0
H228 H 0.46637 0.76715 0.65625 0.0
O229 O 0.45161 0.69715 0.79005 0.0
O230 O 0.4842 0.67233 0.78952 0.0
H231 H 0.55593 0.70852 0.63164 0.0
H232 H 0.58908 0.75079 0.60884 0.0
C233 C 0.5728 0.73572 0.6464 0.0
H234 H 0.59021 0.73649 0.68177 0.0
H235 H 0.52117 0.65808 0.70113 0.0
O236 O 0.45518 0.76774 0.77817 0.0
C237 C 0.45457 0.6701 0.79077 0.0
Co238 Co 0.73282 0.48828 0.28076 0.0
Co239 Co 0.81374 0.53425 0.2759 0.0
C240 C 0.77297 0.53692 0.37875 0.0
O241 O 0.74436 0.51503 0.35466 0.0
O242 O 0.80228 0.54686 0.35392 0.0
C243 C 0.65708 0.45222 0.30247 0.0
O244 O 0.66235 0.47322 0.3467 0.0
C245 C 0.88717 0.59235 0.27131 0.0
C246 C 0.90738 0.57001 0.206 0.0
C247 C 0.91673 0.59925 0.23978 0.0
N248 N 0.86141 0.56064 0.25567 0.0
N249 N 0.87384 0.54743 0.2171 0.0
C250 C 0.88291 0.61566 0.31364 0.0
H251 H 0.85618 0.61164 0.31063 0.0
H252 H 0.9023 0.64336 0.30519 0.0
H253 H 0.88671 0.60888 0.35875 0.0
C254 C 0.73854 0.5192 0.16476 0.0
N255 N 0.75257 0.51777 0.21608 0.0
N256 N 0.78656 0.53757 0.21351 0.0
C257 C 0.79517 0.5527 0.16016 0.0
C258 C 0.76506 0.54105 0.1271 0.0
C259 C 0.70068 0.49761 0.15069 0.0
H260 H 0.68512 0.49971 0.1868 0.0
H261 H 0.69417 0.50604 0.10913 0.0
H262 H 0.69371 0.46991 0.14702 0.0
O263 O 0.74946 0.45471 0.28344 0.0
O264 O 0.80671 0.48654 0.28117 0.0
H265 H 0.84185 0.55638 0.12688 0.0
H266 H 0.83331 0.58905 0.09874 0.0
C267 C 0.83169 0.57396 0.13832 0.0
H268 H 0.84826 0.59242 0.17263 0.0
H269 H 0.8592 0.52298 0.19781 0.0
O270 O 0.68245 0.45681 0.27058 0.0
C271 C 0.77918 0.45712 0.28325 0.0
Co272 Co 0.24617 0.73897 0.78461 0.0
Co273 Co 0.27487 0.81901 0.78088 0.0
C274 C 0.23378 0.77704 0.88332 0.0
O275 O 0.22938 0.74935 0.85844 0.0
O276 O 0.25138 0.80688 0.85919 0.0
C277 C 0.20215 0.66139 0.79202 0.0
O278 O 0.17623 0.6633 0.81594 0.0
C279 C 0.29002 0.89273 0.77973 0.0
C280 C 0.32386 0.91077 0.70152 0.0
C281 C 0.30923 0.92158 0.74418 0.0
N282 N 0.29288 0.86604 0.7581 0.0
N283 N 0.31331 0.87717 0.71168 0.0
C284 C 0.26915 0.89027 0.8327 0.0
H285 H 0.28449 0.89247 0.87245 0.0
H286 H 0.24502 0.86453 0.83383 0.0
H287 H 0.26255 0.91135 0.83309 0.0
C288 C 0.22257 0.74341 0.66582 0.0
N289 N 0.23548 0.75708 0.71876 0.0
N290 N 0.24488 0.79028 0.71904 0.0
C291 C 0.23627 0.79829 0.66696 0.0
C292 C 0.22267 0.76918 0.63089 0.0
C293 C 0.21536 0.70802 0.64714 0.0
H294 H 0.23438 0.70198 0.66769 0.0
H295 H 0.18897 0.68835 0.6621 0.0
H296 H 0.21689 0.7061 0.59898 0.0
O297 O 0.29633 0.75827 0.78734 0.0
O298 O 0.31795 0.81526 0.78613 0.0
H299 H 0.26502 0.84975 0.63141 0.0
H300 H 0.21902 0.82917 0.62045 0.0
C301 C 0.2395 0.83269 0.65216 0.0
H302 H 0.23706 0.84547 0.69217 0.0
H303 H 0.32012 0.86168 0.68691 0.0
O304 O 0.22961 0.68895 0.77717 0.0
C305 C 0.32212 0.78891 0.78758 0.0
Co306 Co 0.49967 0.24281 0.28506 0.0
Co307 Co 0.45282 0.27706 0.28042 0.0
C308 C 0.45045 0.23372 0.38291 0.0
O309 O 0.47279 0.22756 0.35884 0.0
O310 O 0.43994 0.25271 0.35813 0.0
C311 C 0.53268 0.19857 0.29965 0.0
O312 O 0.50954 0.17916 0.33905 0.0
C313 C 0.39539 0.29385 0.27555 0.0
C314 C 0.4173 0.33447 0.20704 0.0
C315 C 0.38853 0.31602 0.24234 0.0
N316 N 0.42661 0.29859 0.2593 0.0
N317 N 0.43959 0.32315 0.21888 0.0
C318 C 0.37255 0.26801 0.32038 0.0
H319 H 0.3756 0.24464 0.3188 0.0
H320 H 0.34492 0.26049 0.31333 0.0
H321 H 0.38064 0.27982 0.36449 0.0
C322 C 0.46947 0.21812 0.16865 0.0
N323 N 0.47038 0.23319 0.22017 0.0
N324 N 0.45006 0.24689 0.2177 0.0
C325 C 0.43498 0.24024 0.16425 0.0
C326 C 0.44737 0.22244 0.13099 0.0
C327 C 0.49167 0.20244 0.15444 0.0
H328 H 0.48884 0.18384 0.18938 0.0
H329 H 0.48434 0.18861 0.11181 0.0
H330 H 0.51934 0.22329 0.1531 0.0
O331 O 0.53322 0.29305 0.28788 0.0
O332 O 0.50041 0.31763 0.28719 0.0
H333 H 0.42946 0.28173 0.12847 0.0
H334 H 0.39666 0.23956 0.1046 0.0
C335 C 0.41264 0.2544 0.14259 0.0
H336 H 0.39494 0.25326 0.17774 0.0
H337 H 0.46367 0.33194 0.19882 0.0
O338 O 0.53051 0.22305 0.27482 0.0
C339 C 0.5301 0.32 0.28883 0.0
Co340 Co 0.25207 0.5017 0.77729 0.0
Co341 Co 0.17114 0.45599 0.77173 0.0
C342 C 0.21167 0.45271 0.87456 0.0
O343 O 0.24037 0.47453 0.85068 0.0
O344 O 0.18242 0.44305 0.84966 0.0
C345 C 0.32742 0.5379 0.80075 0.0
O346 O 0.32154 0.51707 0.84548 0.0
C347 C 0.09773 0.39799 0.76618 0.0
C348 C 0.07764 0.4208 0.70154 0.0
C349 C 0.06823 0.39131 0.73464 0.0
N350 N 0.1235 0.42981 0.75118 0.0
N351 N 0.11115 0.44331 0.71302 0.0
C352 C 0.10192 0.37436 0.80786 0.0
H353 H 0.12868 0.37845 0.80482 0.0
H354 H 0.08258 0.34672 0.79874 0.0
H355 H 0.09797 0.38075 0.85315 0.0
C356 C 0.24644 0.47113 0.66085 0.0
N357 N 0.23236 0.47257 0.71211 0.0
N358 N 0.19837 0.45285 0.70933 0.0
C359 C 0.18979 0.43779 0.65592 0.0
C360 C 0.21995 0.44934 0.62305 0.0
C361 C 0.28436 0.49253 0.64708 0.0
H362 H 0.29976 0.49038 0.68342 0.0
H363 H 0.29089 0.48397 0.60568 0.0
H364 H 0.29148 0.52026 0.64323 0.0
O365 O 0.2355 0.53529 0.78114 0.0
O366 O 0.17828 0.50367 0.77762 0.0
H367 H 0.14316 0.4344 0.62306 0.0
H368 H 0.15162 0.40189 0.59392 0.0
C369 C 0.15328 0.41671 0.63389 0.0
H370 H 0.13669 0.39803 0.6679 0.0
H371 H 0.12583 0.46789 0.69424 0.0
O372 O 0.30249 0.53317 0.76755 0.0
C373 C 0.20584 0.53302 0.78071 0.0
Co374 Co 0.73975 0.25169 0.27671 0.0
Co375 Co 0.71067 0.17148 0.27413 0.0
C376 C 0.75181 0.21383 0.3762 0.0
O377 O 0.75639 0.24148 0.35093 0.0
O378 O 0.73411 0.18391 0.35233 0.0
C379 C 0.78235 0.32851 0.29092 0.0
O380 O 0.80476 0.32508 0.32376 0.0
C381 C 0.69318 0.09709 0.27678 0.0
C382 C 0.66162 0.07923 0.19594 0.0
C383 C 0.67411 0.06804 0.24152 0.0
N384 N 0.6923 0.12422 0.25226 0.0
N385 N 0.67319 0.1132 0.20429 0.0
C386 C 0.71178 0.09923 0.33253 0.0
H387 H 0.69554 0.09853 0.37002 0.0
H388 H 0.73665 0.12427 0.33445 0.0
H389 H 0.71687 0.0772 0.33641 0.0
C390 C 0.76317 0.24636 0.15826 0.0
N391 N 0.7502 0.23301 0.21131 0.0
N392 N 0.74084 0.19983 0.21225 0.0
C393 C 0.74965 0.19153 0.16061 0.0
C394 C 0.76323 0.2204 0.12403 0.0
C395 C 0.77036 0.2816 0.13878 0.0
H396 H 0.7516 0.28797 0.15944 0.0
H397 H 0.79692 0.30134 0.15295 0.0
H398 H 0.76842 0.28304 0.09061 0.0
O399 O 0.68963 0.23268 0.27959 0.0
O400 O 0.66784 0.17565 0.27889 0.0
H401 H 0.72204 0.14002 0.12472 0.0
H402 H 0.76823 0.16099 0.11683 0.0
C403 C 0.74701 0.15725 0.14697 0.0
H404 H 0.74868 0.14452 0.18765 0.0
H405 H 0.6678 0.12897 0.17743 0.0
O406 O 0.75685 0.30184 0.26834 0.0
C407 C 0.66377 0.20207 0.28008 0.0
C408 C 0.35214 0.3324 0.30226 0.0
C409 C 0.36044 0.32436 0.24742 0.0
H410 H 0.33176 0.36039 0.34832 0.0
C411 C 0.34794 0.33224 0.19651 0.0
H412 H 0.36194 0.32709 0.34206 0.0
C413 C 0.33044 0.35104 0.20007 0.0
C414 C 0.32574 0.36257 0.2546 0.0
H415 H 0.35424 0.32637 0.15371 0.0
H416 H 0.32392 0.35954 0.15998 0.0
C417 C 0.3351 0.35164 0.30578 0.0
C418 C 0.98079 0.33341 0.80018 0.0
C419 C 0.9596 0.32602 0.75043 0.0
H420 H 0.03257 0.35972 0.83416 0.0
C421 C 0.97491 0.33364 0.69478 0.0
H422 H 0.96945 0.3278 0.84359 0.0
C423 C 0.01103 0.35194 0.68942 0.0
C424 C 0.03221 0.36255 0.73954 0.0
H425 H 0.95927 0.32879 0.65579 0.0
H426 H 0.02236 0.36034 0.64633 0.0
C427 C 0.01692 0.35144 0.79479 0.0
C428 C 0.65721 0.00891 0.20535 0.0
C429 C 0.66209 0.03106 0.25282 0.0
H430 H 0.63073 0.95677 0.1728 0.0
C431 C 0.64842 0.01657 0.3077 0.0
H432 H 0.66732 0.01959 0.16247 0.0
C433 C 0.62748 0.98061 0.31359 0.0
C434 C 0.62009 0.95865 0.26487 0.0
H435 H 0.65106 0.03298 0.34469 0.0
H436 H 0.61504 0.97017 0.35534 0.0
C437 C 0.63645 0.97291 0.21134 0.0
C438 C 0.65376 0.63776 0.70455 0.0
C439 C 0.65801 0.62587 0.75905 0.0
H440 H 0.63049 0.66288 0.65799 0.0
C441 C 0.64826 0.6365 0.81016 0.0
H442 H 0.66056 0.62949 0.66451 0.0
C443 C 0.63137 0.65588 0.80651 0.0
C444 C 0.62359 0.66435 0.7516 0.0
H445 H 0.65125 0.62748 0.85268 0.0
H446 H 0.62131 0.661 0.84618 0.0
C447 C 0.63639 0.65668 0.70084 0.0
C448 C 0.01018 0.65705 0.2009 0.0
C449 C 0.02535 0.66428 0.25667 0.0
H450 H 0.96284 0.63077 0.15202 0.0
C451 C 0.00406 0.65661 0.30631 0.0
H452 H 0.02589 0.6621 0.16198 0.0
C453 C 0.96793 0.63868 0.30064 0.0
C454 C 0.95276 0.62796 0.2452 0.0
H455 H 0.01529 0.66191 0.34981 0.0
H456 H 0.95219 0.63016 0.33987 0.0
C457 C 0.97407 0.63886 0.19526 0.0
C458 C 0.33176 0.97365 0.80849 0.0
C459 C 0.31967 0.95836 0.75347 0.0
H460 H 0.36408 0.02077 0.85529 0.0
C461 C 0.32537 0.9798 0.70457 0.0
H462 H 0.32834 0.95781 0.84668 0.0
C463 C 0.34588 0.01589 0.70946 0.0
C464 C 0.36116 0.03087 0.76329 0.0
H465 H 0.3164 0.96848 0.6616 0.0
H466 H 0.35253 0.03151 0.67011 0.0
C467 C 0.3525 0.0097 0.81328 0.0
C468 C 0.18805 0.44103 0.97626 0.0
C469 C 0.21278 0.44283 0.93595 0.0
H470 H 0.17608 0.44287 0.06664 0.0
C471 C 0.24185 0.44134 0.95672 0.0
H472 H 0.16553 0.44234 0.9615 0.0
C473 C 0.24745 0.44076 0.01687 0.0
C474 C 0.22459 0.44269 0.0572 0.0
H475 H 0.26129 0.44266 0.92651 0.0
H476 H 0.27119 0.44186 0.03162 0.0
C477 C 0.19416 0.44146 0.03642 0.0
C478 C 0.74134 0.19238 0.47932 0.0
C479 C 0.76337 0.21666 0.43765 0.0
H480 H 0.72903 0.1816 0.57046 0.0
C481 C 0.79363 0.24655 0.45679 0.0
H482 H 0.71769 0.16928 0.4658 0.0
C483 C 0.80065 0.25308 0.51663 0.0
C484 C 0.77692 0.23039 0.55831 0.0
H485 H 0.81099 0.26571 0.42551 0.0
H486 H 0.82316 0.27724 0.53015 0.0
C487 C 0.74776 0.19947 0.53916 0.0
C488 C 0.5446 0.80264 0.02899 0.0
C489 C 0.54308 0.77799 0.06927 0.0
H490 H 0.54279 0.81465 0.93863 0.0
C491 C 0.54509 0.74919 0.04846 0.0
H492 H 0.54288 0.82497 0.04375 0.0
C493 C 0.54592 0.74374 0.9883 0.0
C494 C 0.54374 0.76649 0.94801 0.0
H495 H 0.544 0.72981 0.07864 0.0
H496 H 0.54522 0.72017 0.97348 0.0
C497 C 0.54443 0.79668 0.96884 0.0
C498 C 0.7966 0.54881 0.48048 0.0
C499 C 0.77172 0.54669 0.44018 0.0
H500 H 0.80874 0.54725 0.57087 0.0
C501 C 0.7425 0.54788 0.46093 0.0
H502 H 0.81926 0.54775 0.46573 0.0
C503 C 0.73691 0.54849 0.52107 0.0
C504 C 0.75997 0.5469 0.56141 0.0
H505 H 0.72294 0.54632 0.43071 0.0
H506 H 0.71307 0.54715 0.53582 0.0
C507 C 0.79052 0.54841 0.54064 0.0
C508 C 0.24431 0.79825 0.98662 0.0
C509 C 0.2221 0.77431 0.94468 0.0
H510 H 0.25662 0.80851 0.07787 0.0
C511 C 0.19154 0.74465 0.96351 0.0
H512 H 0.26819 0.82115 0.97333 0.0
C513 C 0.1844 0.73793 0.02328 0.0
C514 C 0.2083 0.76019 0.06521 0.0
H515 H 0.17405 0.72575 0.93201 0.0
H516 H 0.16166 0.7139 0.03651 0.0
C517 C 0.23775 0.79096 0.04639 0.0
C518 C 0.44019 0.18636 0.52503 0.0
C519 C 0.44171 0.21091 0.56553 0.0
H520 H 0.44199 0.17456 0.43453 0.0
C521 C 0.43963 0.23973 0.545 0.0
H522 H 0.44196 0.16402 0.53957 0.0
C523 C 0.43875 0.24529 0.48489 0.0
C524 C 0.44095 0.22265 0.44436 0.0
H525 H 0.44072 0.25903 0.57536 0.0
H526 H 0.43942 0.26888 0.47031 0.0
C527 C 0.44032 0.19244 0.46492 0.0
C528 C 0.74775 0.51023 0.03146 0.0
C529 C 0.76306 0.54168 0.06262 0.0
H530 H 0.73432 0.48557 0.9476 0.0
C531 C 0.7778 0.57323 0.03176 0.0
H532 H 0.73665 0.48555 0.05425 0.0
C533 C 0.77763 0.57327 0.97052 0.0
C534 C 0.76201 0.54174 0.9395 0.0
H535 H 0.78954 0.5978 0.05498 0.0
H536 H 0.78955 0.59787 0.9474 0.0
C537 C 0.74696 0.51025 0.97051 0.0
C538 C 0.24255 0.79456 0.53092 0.0
C539 C 0.21748 0.76816 0.56667 0.0
H540 H 0.25971 0.81236 0.44345 0.0
C541 C 0.18901 0.73962 0.54032 0.0
H542 H 0.26521 0.81654 0.54981 0.0
C543 C 0.18654 0.73668 0.47938 0.0
C544 C 0.21218 0.76258 0.44365 0.0
H545 H 0.16926 0.719 0.56687 0.0
H546 H 0.16531 0.7134 0.46044 0.0
C547 C 0.23972 0.79196 0.47 0.0
C548 C 0.47905 0.23622 0.97488 0.0
C549 C 0.44782 0.21879 0.94337 0.0
H550 H 0.50314 0.25134 0.05901 0.0
C551 C 0.41616 0.20222 0.97387 0.0
H552 H 0.50383 0.24879 0.95241 0.0
C553 C 0.41582 0.20263 0.03511 0.0
C554 C 0.44712 0.22023 0.06647 0.0
H555 H 0.39176 0.18874 0.95034 0.0
H556 H 0.39119 0.18916 0.05793 0.0
C557 C 0.47868 0.23718 0.03581 0.0
C558 C 0.23832 0.47945 0.46616 0.0
C559 C 0.22287 0.44782 0.4355 0.0
H560 H 0.249 0.50453 0.54962 0.0
C561 C 0.20709 0.41642 0.46686 0.0
H562 H 0.25112 0.50402 0.44297 0.0
C563 C 0.20705 0.41673 0.5281 0.0
C564 C 0.22206 0.44843 0.55861 0.0
H565 H 0.19486 0.39172 0.44402 0.0
H566 H 0.19511 0.39226 0.55159 0.0
C567 C 0.23765 0.47975 0.52711 0.0
C568 C 0.79905 0.25224 0.97225 0.0
C569 C 0.77341 0.22612 0.93681 0.0
H570 H 0.81647 0.27036 0.05952 0.0
C571 C 0.74607 0.19673 0.96347 0.0
H572 H 0.8201 0.27554 0.95308 0.0
C573 C 0.74341 0.19436 0.02442 0.0
C574 C 0.76844 0.22102 0.05987 0.0
H575 H 0.72608 0.17617 0.93714 0.0
H576 H 0.72086 0.1724 0.04354 0.0
C577 C 0.79676 0.24954 0.03321 0.0
C578 C 0.56972 0.78745 0.53867 0.0
C579 C 0.53848 0.76991 0.57014 0.0
H580 H 0.59363 0.80107 0.45378 0.0
C581 C 0.50687 0.75271 0.53961 0.0
H582 H 0.59438 0.80107 0.56139 0.0
C583 C 0.5064 0.75337 0.47868 0.0
C584 C 0.53757 0.77077 0.44705 0.0
H585 H 0.48246 0.73857 0.56292 0.0
H586 H 0.48158 0.7406 0.45629 0.0
C587 C 0.56928 0.7876 0.47742 0.0
C588 C 0.21853 0.59019 0.24539 0.0
C589 C 0.19343 0.56253 0.21165 0.0
H590 H 0.2389 0.6426 0.27409 0.0
C591 C 0.16696 0.56626 0.18459 0.0
H592 H 0.23921 0.58831 0.2672 0.0
C593 C 0.16651 0.59762 0.18954 0.0
C594 C 0.19294 0.62577 0.22054 0.0
H595 H 0.14719 0.54536 0.1585 0.0
H596 H 0.1465 0.60036 0.16712 0.0
C597 C 0.21848 0.62147 0.24924 0.0
C598 C 0.59857 0.17472 0.69897 0.0
C599 C 0.62971 0.20481 0.71435 0.0
H600 H 0.54321 0.15111 0.68922 0.0
C601 C 0.62849 0.23447 0.73277 0.0
H602 H 0.5987 0.15149 0.68468 0.0
C603 C 0.59715 0.23444 0.7344 0.0
C604 C 0.56603 0.20461 0.71853 0.0
H605 H 0.65193 0.25817 0.7449 0.0
H606 H 0.59738 0.25794 0.74827 0.0
C607 C 0.56688 0.17452 0.70155 0.0
C608 C 0.38967 0.62644 0.24021 0.0
C609 C 0.41833 0.62865 0.21003 0.0
H610 H 0.33622 0.59478 0.2639 0.0
C611 C 0.41494 0.59874 0.18257 0.0
H612 H 0.3913 0.64906 0.26148 0.0
C613 C 0.38332 0.56728 0.18499 0.0
C614 C 0.35441 0.56562 0.21338 0.0
H615 H 0.43658 0.59974 0.15893 0.0
H616 H 0.38118 0.54458 0.16324 0.0
C617 C 0.35799 0.59543 0.24121 0.0
C618 C 0.76579 0.36732 0.74735 0.0
C619 C 0.79113 0.36324 0.71747 0.0
H620 H 0.74523 0.40038 0.76756 0.0
C621 C 0.81734 0.39162 0.6866 0.0
H622 H 0.74554 0.34599 0.77209 0.0
C623 C 0.81687 0.42301 0.68299 0.0
C624 C 0.79065 0.42657 0.71136 0.0
H625 H 0.83719 0.38904 0.66328 0.0
H626 H 0.83645 0.4441 0.657 0.0
C627 C 0.76576 0.39865 0.7449 0.0
C628 C 0.38553 0.81228 0.20054 0.0
C629 C 0.3545 0.78255 0.21743 0.0
H630 H 0.44076 0.83558 0.18978 0.0
C631 C 0.35575 0.75314 0.23725 0.0
H632 H 0.38535 0.83529 0.18512 0.0
C633 C 0.38705 0.75307 0.23887 0.0
C634 C 0.41807 0.78259 0.22168 0.0
H635 H 0.33235 0.72971 0.25046 0.0
H636 H 0.38691 0.72981 0.25387 0.0
C637 C 0.41717 0.81242 0.2032 0.0
C638 C 0.60107 0.4222 0.68972 0.0
C639 C 0.63042 0.42329 0.71541 0.0
H640 H 0.54748 0.39029 0.66506 0.0
C641 C 0.62734 0.3928 0.73956 0.0
H642 H 0.60279 0.44541 0.67082 0.0
C643 C 0.59574 0.36173 0.73761 0.0
C644 C 0.56661 0.36019 0.71024 0.0
H645 H 0.64942 0.39292 0.76011 0.0
H646 H 0.59452 0.33863 0.75608 0.0
C647 C 0.56949 0.39075 0.68644 0.0
C648 C 0.38483 0.81962 0.81908 0.0
C649 C 0.35721 0.79307 0.78736 0.0
H650 H 0.43713 0.8399 0.85038 0.0
C651 C 0.36248 0.76845 0.75752 0.0
H652 H 0.38132 0.83893 0.8424 0.0
C653 C 0.3942 0.76935 0.76102 0.0
C654 C 0.42135 0.79449 0.79556 0.0
H655 H 0.34174 0.74797 0.73212 0.0
H656 H 0.39683 0.74931 0.73835 0.0
C657 C 0.41665 0.82012 0.82368 0.0
C658 C 0.5619 0.38322 0.31703 0.0
C659 C 0.56176 0.35458 0.29023 0.0
H660 H 0.59254 0.43684 0.34278 0.0
C661 C 0.59249 0.35894 0.26503 0.0
H662 H 0.53847 0.38049 0.33675 0.0
C663 C 0.62291 0.3911 0.26712 0.0
C664 C 0.62358 0.41954 0.2957 0.0
H665 H 0.59306 0.33741 0.24361 0.0
H666 H 0.64623 0.3933 0.24785 0.0
C667 C 0.59275 0.41538 0.32047 0.0
C668 C 0.23361 0.59724 0.76999 0.0
C669 C 0.20382 0.56531 0.78243 0.0
H670 H 0.25621 0.65212 0.76236 0.0
C671 C 0.17268 0.56483 0.79635 0.0
H672 H 0.25793 0.59854 0.75858 0.0
C673 C 0.1717 0.59595 0.79906 0.0
C674 C 0.20172 0.62789 0.78706 0.0
H675 H 0.14927 0.54054 0.80605 0.0
H676 H 0.14759 0.595 0.8108 0.0
C677 C 0.23252 0.62804 0.77191 0.0
C678 C 0.56897 0.16988 0.31563 0.0
C679 C 0.56437 0.19611 0.28965 0.0
H680 H 0.60426 0.15077 0.33219 0.0
C681 C 0.59175 0.22217 0.25676 0.0
H682 H 0.54831 0.14938 0.34101 0.0
C683 C 0.62354 0.22326 0.25274 0.0
C684 C 0.62869 0.19796 0.28044 0.0
H685 H 0.58921 0.24269 0.23573 0.0
H686 H 0.6444 0.24437 0.22856 0.0
C687 C 0.60087 0.17062 0.31054 0.0
C688 C 0.42241 0.60679 0.81808 0.0
C689 C 0.42284 0.63558 0.79137 0.0
H690 H 0.39152 0.55304 0.84284 0.0
C691 C 0.39235 0.63139 0.76536 0.0
H692 H 0.44565 0.60939 0.83842 0.0
C693 C 0.36191 0.59921 0.7665 0.0
C694 C 0.36097 0.57061 0.79494 0.0
H695 H 0.39201 0.65304 0.744 0.0
H696 H 0.33877 0.59711 0.74662 0.0
C697 C 0.39154 0.57462 0.82059 0.0
C698 C 0.75368 0.36282 0.26546 0.0
C699 C 0.78323 0.36223 0.28617 0.0
H700 H 0.72922 0.39298 0.24907 0.0
C701 C 0.81219 0.39353 0.30456 0.0
H702 H 0.73083 0.33923 0.251 0.0
C703 C 0.81135 0.42474 0.30272 0.0
C704 C 0.78129 0.4249 0.28359 0.0
H705 H 0.83532 0.39387 0.32069 0.0
H706 H 0.83387 0.44852 0.31745 0.0
C707 C 0.75262 0.39366 0.26466 0.0
loop_
_geom_bond_atom_site_label_1
_geom_bond_atom_site_label_2
_geom_bond_distance
_geom_bond_site_symmetry_2
_ccdc_geom_bond_type
Co0 O3 1.970 . S
Co0 N17 1.989 . S
Co0 O25 1.967 . S
Co0 O32 1.920 . S
Co1 O4 1.966 . S
Co1 N10 2.022 . S
Co1 N18 1.993 . S
Co1 O26 1.941 . S
C2 O3 1.258 . S
C2 O4 1.263 . S
O3 Co0 1.970 . S
O3 C2 1.258 . S
O4 Co1 1.966 . S
O4 C2 1.263 . S
C5 O6 1.235 . S
C5 O32 1.289 . S
O6 C5 1.235 . S
C7 C9 1.400 . S
C7 N10 1.351 . S
C7 C12 1.501 . S
C8 C9 1.387 . S
C8 N11 1.341 . S
C9 C7 1.400 . S
C9 C8 1.387 . S
N10 Co1 2.022 . S
N10 C7 1.351 . S
N10 N11 1.365 . S
N11 C8 1.341 . S
N11 N10 1.365 . S
N11 H31 0.862 . S
C12 C7 1.501 . S
C12 H13 0.961 . S
C12 H14 0.961 . S
C12 H15 0.960 . S
H13 C12 0.961 . S
H14 C12 0.961 . S
H15 C12 0.960 . S
C16 N17 1.342 . S
C16 C20 1.401 . S
C16 C21 1.499 . S
N17 Co0 1.989 . S
N17 C16 1.342 . S
N17 N18 1.388 . S
N18 Co1 1.993 . S
N18 N17 1.388 . S
N18 C19 1.346 . S
C19 N18 1.346 . S
C19 C20 1.396 . S
C19 C29 1.510 . S
C20 C16 1.401 . S
C20 C19 1.396 . S
C21 C16 1.499 . S
C21 H22 0.959 . S
C21 H23 0.960 . S
C21 H24 0.961 . S
H22 C21 0.959 . S
H23 C21 0.960 . S
H24 C21 0.961 . S
O25 Co0 1.967 . S
O25 C33 1.258 . S
O26 Co1 1.941 . S
O26 C33 1.266 . S
H27 C29 0.959 . S
H28 C29 0.961 . S
C29 C19 1.510 . S
C29 H27 0.959 . S
C29 H28 0.961 . S
C29 H30 0.960 . S
H30 C29 0.960 . S
H31 N11 0.862 . S
O32 Co0 1.920 . S
O32 C5 1.289 . S
C33 O25 1.258 . S
C33 O26 1.266 . S
Co34 O37 1.970 . S
Co34 N51 1.989 . S
Co34 O59 1.967 . S
Co34 O66 1.920 . S
Co35 O38 1.966 . S
Co35 N44 2.022 . S
Co35 N52 1.993 . S
Co35 O60 1.941 . S
C36 O37 1.258 . S
C36 O38 1.263 . S
O37 Co34 1.970 . S
O37 C36 1.258 . S
O38 Co35 1.966 . S
O38 C36 1.263 . S
C39 O40 1.235 . S
C39 O66 1.289 . S
O40 C39 1.235 . S
C41 C43 1.400 . S
C41 N44 1.351 . S
C41 C46 1.501 . S
C42 C43 1.387 . S
C42 N45 1.341 . S
C43 C41 1.400 . S
C43 C42 1.387 . S
N44 Co35 2.022 . S
N44 C41 1.351 . S
N44 N45 1.365 . S
N45 C42 1.341 . S
N45 N44 1.365 . S
N45 H65 0.862 . S
C46 C41 1.501 . S
C46 H47 0.961 . S
C46 H48 0.961 . S
C46 H49 0.960 . S
H47 C46 0.961 . S
H48 C46 0.961 . S
H49 C46 0.960 . S
C50 N51 1.342 . S
C50 C54 1.401 . S
C50 C55 1.499 . S
N51 Co34 1.989 . S
N51 C50 1.342 . S
N51 N52 1.388 . S
N52 Co35 1.993 . S
N52 N51 1.388 . S
N52 C53 1.346 . S
C53 N52 1.346 . S
C53 C54 1.396 . S
C53 C63 1.510 . S
C54 C50 1.401 . S
C54 C53 1.396 . S
C55 C50 1.499 . S
C55 H56 0.959 . S
C55 H57 0.960 . S
C55 H58 0.961 . S
H56 C55 0.959 . S
H57 C55 0.960 . S
H58 C55 0.961 . S
O59 Co34 1.967 . S
O59 C67 1.258 . S
O60 Co35 1.941 . S
O60 C67 1.266 . S
H61 C63 0.959 . S
H62 C63 0.961 . S
C63 C53 1.510 . S
C63 H61 0.959 . S
C63 H62 0.961 . S
C63 H64 0.960 . S
H64 C63 0.960 . S
H65 N45 0.862 . S
O66 Co34 1.920 . S
O66 C39 1.289 . S
C67 O59 1.258 . S
C67 O60 1.266 . S
Co68 O71 1.970 . S
Co68 N85 1.989 . S
Co68 O93 1.967 . S
Co68 O100 1.920 . S
Co69 O72 1.966 . S
Co69 N78 2.022 . S
Co69 N86 1.993 . S
Co69 O94 1.941 . S
C70 O71 1.258 . S
C70 O72 1.263 . S
O71 Co68 1.970 . S
O71 C70 1.258 . S
O72 Co69 1.966 . S
O72 C70 1.263 . S
C73 O74 1.235 . S
C73 O100 1.289 . S
O74 C73 1.235 . S
C75 C77 1.400 . S
C75 N78 1.351 . S
C75 C80 1.501 . S
C76 C77 1.387 . S
C76 N79 1.341 . S
C77 C75 1.400 . S
C77 C76 1.387 . S
N78 Co69 2.022 . S
N78 C75 1.351 . S
N78 N79 1.365 . S
N79 C76 1.341 . S
N79 N78 1.365 . S
N79 H99 0.862 . S
C80 C75 1.501 . S
C80 H81 0.961 . S
C80 H82 0.961 . S
C80 H83 0.960 . S
H81 C80 0.961 . S
H82 C80 0.961 . S
H83 C80 0.960 . S
C84 N85 1.342 . S
C84 C88 1.401 . S
C84 C89 1.499 . S
N85 Co68 1.989 . S
N85 C84 1.342 . S
N85 N86 1.388 . S
N86 Co69 1.993 . S
N86 N85 1.388 . S
N86 C87 1.346 . S
C87 N86 1.346 . S
C87 C88 1.396 . S
C87 C97 1.510 . S
C88 C84 1.401 . S
C88 C87 1.396 . S
C89 C84 1.499 . S
C89 H90 0.959 . S
C89 H91 0.960 . S
C89 H92 0.961 . S
H90 C89 0.959 . S
H91 C89 0.960 . S
H92 C89 0.961 . S
O93 Co68 1.967 . S
O93 C101 1.258 . S
O94 Co69 1.941 . S
O94 C101 1.266 . S
H95 C97 0.959 . S
H96 C97 0.961 . S
C97 C87 1.510 . S
C97 H95 0.959 . S
C97 H96 0.961 . S
C97 H98 0.960 . S
H98 C97 0.960 . S
H99 N79 0.862 . S
O100 Co68 1.920 . S
O100 C73 1.289 . S
C101 O93 1.258 . S
C101 O94 1.266 . S
Co102 O105 1.970 . S
Co102 N119 1.989 . S
Co102 O127 1.967 . S
Co102 O134 1.920 . S
Co103 O106 1.966 . S
Co103 N112 2.022 . S
Co103 N120 1.993 . S
Co103 O128 1.941 . S
C104 O105 1.258 . S
C104 O106 1.263 . S
O105 Co102 1.970 . S
O105 C104 1.258 . S
O106 Co103 1.966 . S
O106 C104 1.263 . S
C107 O108 1.235 . S
C107 O134 1.289 . S
O108 C107 1.235 . S
C109 C111 1.400 . S
C109 N112 1.351 . S
C109 C114 1.501 . S
C110 C111 1.387 . S
C110 N113 1.341 . S
C111 C109 1.400 . S
C111 C110 1.387 . S
N112 Co103 2.022 . S
N112 C109 1.351 . S
N112 N113 1.365 . S
N113 C110 1.341 . S
N113 N112 1.365 . S
N113 H133 0.862 . S
C114 C109 1.501 . S
C114 H115 0.961 . S
C114 H116 0.961 . S
C114 H117 0.960 . S
H115 C114 0.961 . S
H116 C114 0.961 . S
H117 C114 0.960 . S
C118 N119 1.342 . S
C118 C122 1.401 . S
C118 C123 1.499 . S
N119 Co102 1.989 . S
N119 C118 1.342 . S
N119 N120 1.388 . S
N120 Co103 1.993 . S
N120 N119 1.388 . S
N120 C121 1.346 . S
C121 N120 1.346 . S
C121 C122 1.396 . S
C121 C131 1.510 . S
C122 C118 1.401 . S
C122 C121 1.396 . S
C123 C118 1.499 . S
C123 H124 0.959 . S
C123 H125 0.960 . S
C123 H126 0.961 . S
H124 C123 0.959 . S
H125 C123 0.960 . S
H126 C123 0.961 . S
O127 Co102 1.967 . S
O127 C135 1.258 . S
O128 Co103 1.941 . S
O128 C135 1.266 . S
H129 C131 0.959 . S
H130 C131 0.961 . S
C131 C121 1.510 . S
C131 H129 0.959 . S
C131 H130 0.961 . S
C131 H132 0.960 . S
H132 C131 0.960 . S
H133 N113 0.862 . S
O134 Co102 1.920 . S
O134 C107 1.289 . S
C135 O127 1.258 . S
C135 O128 1.266 . S
Co136 O139 1.970 . S
Co136 N153 1.989 . S
Co136 O161 1.967 . S
Co136 O168 1.920 . S
Co137 O140 1.966 . S
Co137 N146 2.022 . S
Co137 N154 1.993 . S
Co137 O162 1.941 . S
C138 O139 1.258 . S
C138 O140 1.263 . S
O139 Co136 1.970 . S
O139 C138 1.258 . S
O140 Co137 1.966 . S
O140 C138 1.263 . S
C141 O142 1.235 . S
C141 O168 1.289 . S
O142 C141 1.235 . S
C143 C145 1.400 . S
C143 N146 1.351 . S
C143 C148 1.501 . S
C144 C145 1.387 . S
C144 N147 1.341 . S
C145 C143 1.400 . S
C145 C144 1.387 . S
N146 Co137 2.022 . S
N146 C143 1.351 . S
N146 N147 1.365 . S
N147 C144 1.341 . S
N147 N146 1.365 . S
N147 H167 0.862 . S
C148 C143 1.501 . S
C148 H149 0.961 . S
C148 H150 0.961 . S
C148 H151 0.960 . S
H149 C148 0.961 . S
H150 C148 0.961 . S
H151 C148 0.960 . S
C152 N153 1.342 . S
C152 C156 1.401 . S
C152 C157 1.499 . S
N153 Co136 1.989 . S
N153 C152 1.342 . S
N153 N154 1.388 . S
N154 Co137 1.993 . S
N154 N153 1.388 . S
N154 C155 1.346 . S
C155 N154 1.346 . S
C155 C156 1.396 . S
C155 C165 1.510 . S
C156 C152 1.401 . S
C156 C155 1.396 . S
C157 C152 1.499 . S
C157 H158 0.959 . S
C157 H159 0.960 . S
C157 H160 0.961 . S
H158 C157 0.959 . S
H159 C157 0.960 . S
H160 C157 0.961 . S
O161 Co136 1.967 . S
O161 C169 1.258 . S
O162 Co137 1.941 . S
O162 C169 1.266 . S
H163 C165 0.959 . S
H164 C165 0.961 . S
C165 C155 1.510 . S
C165 H163 0.959 . S
C165 H164 0.961 . S
C165 H166 0.960 . S
H166 C165 0.960 . S
H167 N147 0.862 . S
O168 Co136 1.920 . S
O168 C141 1.289 . S
C169 O161 1.258 . S
C169 O162 1.266 . S
Co170 O173 1.970 . S
Co170 N187 1.989 . S
Co170 O195 1.967 . S
Co170 O202 1.920 . S
Co171 O174 1.966 . S
Co171 N180 2.022 . S
Co171 N188 1.993 . S
Co171 O196 1.941 . S
C172 O173 1.258 . S
C172 O174 1.263 . S
O173 Co170 1.970 . S
O173 C172 1.258 . S
O174 Co171 1.966 . S
O174 C172 1.263 . S
C175 O176 1.235 . S
C175 O202 1.289 . S
O176 C175 1.235 . S
C177 C179 1.400 . S
C177 N180 1.351 . S
C177 C182 1.501 . S
C178 C179 1.387 . S
C178 N181 1.341 . S
C179 C177 1.400 . S
C179 C178 1.387 . S
N180 Co171 2.022 . S
N180 C177 1.351 . S
N180 N181 1.365 . S
N181 C178 1.341 . S
N181 N180 1.365 . S
N181 H201 0.862 . S
C182 C177 1.501 . S
C182 H183 0.961 . S
C182 H184 0.961 . S
C182 H185 0.960 . S
H183 C182 0.961 . S
H184 C182 0.961 . S
H185 C182 0.960 . S
C186 N187 1.342 . S
C186 C190 1.401 . S
C186 C191 1.499 . S
N187 Co170 1.989 . S
N187 C186 1.342 . S
N187 N188 1.388 . S
N188 Co171 1.993 . S
N188 N187 1.388 . S
N188 C189 1.346 . S
C189 N188 1.346 . S
C189 C190 1.396 . S
C189 C199 1.510 . S
C190 C186 1.401 . S
C190 C189 1.396 . S
C191 C186 1.499 . S
C191 H192 0.959 . S
C191 H193 0.960 . S
C191 H194 0.961 . S
H192 C191 0.959 . S
H193 C191 0.960 . S
H194 C191 0.961 . S
O195 Co170 1.967 . S
O195 C203 1.258 . S
O196 Co171 1.941 . S
O196 C203 1.266 . S
H197 C199 0.959 . S
H198 C199 0.961 . S
C199 C189 1.510 . S
C199 H197 0.959 . S
C199 H198 0.961 . S
C199 H200 0.960 . S
H200 C199 0.960 . S
H201 N181 0.862 . S
O202 Co170 1.920 . S
O202 C175 1.289 . S
C203 O195 1.258 . S
C203 O196 1.266 . S
Co204 O207 1.970 . S
Co204 N221 1.989 . S
Co204 O229 1.967 . S
Co204 O236 1.920 . S
Co205 O208 1.966 . S
Co205 N214 2.022 . S
Co205 N222 1.993 . S
Co205 O230 1.941 . S
C206 O207 1.258 . S
C206 O208 1.263 . S
O207 Co204 1.970 . S
O207 C206 1.258 . S
O208 Co205 1.966 . S
O208 C206 1.263 . S
C209 O210 1.235 . S
C209 O236 1.289 . S
O210 C209 1.235 . S
C211 C213 1.400 . S
C211 N214 1.351 . S
C211 C216 1.501 . S
C212 C213 1.387 . S
C212 N215 1.341 . S
C213 C211 1.400 . S
C213 C212 1.387 . S
N214 Co205 2.022 . S
N214 C211 1.351 . S
N214 N215 1.365 . S
N215 C212 1.341 . S
N215 N214 1.365 . S
N215 H235 0.862 . S
C216 C211 1.501 . S
C216 H217 0.961 . S
C216 H218 0.961 . S
C216 H219 0.960 . S
H217 C216 0.961 . S
H218 C216 0.961 . S
H219 C216 0.960 . S
C220 N221 1.342 . S
C220 C224 1.401 . S
C220 C225 1.499 . S
N221 Co204 1.989 . S
N221 C220 1.342 . S
N221 N222 1.388 . S
N222 Co205 1.993 . S
N222 N221 1.388 . S
N222 C223 1.346 . S
C223 N222 1.346 . S
C223 C224 1.396 . S
C223 C233 1.510 . S
C224 C220 1.401 . S
C224 C223 1.396 . S
C225 C220 1.499 . S
C225 H226 0.959 . S
C225 H227 0.960 . S
C225 H228 0.961 . S
H226 C225 0.959 . S
H227 C225 0.960 . S
H228 C225 0.961 . S
O229 Co204 1.967 . S
O229 C237 1.258 . S
O230 Co205 1.941 . S
O230 C237 1.266 . S
H231 C233 0.959 . S
H232 C233 0.961 . S
C233 C223 1.510 . S
C233 H231 0.959 . S
C233 H232 0.961 . S
C233 H234 0.960 . S
H234 C233 0.960 . S
H235 N215 0.862 . S
O236 Co204 1.920 . S
O236 C209 1.289 . S
C237 O229 1.258 . S
C237 O230 1.266 . S
Co238 O241 1.970 . S
Co238 N255 1.989 . S
Co238 O263 1.967 . S
Co238 O270 1.920 . S
Co239 O242 1.966 . S
Co239 N248 2.022 . S
Co239 N256 1.993 . S
Co239 O264 1.941 . S
C240 O241 1.258 . S
C240 O242 1.263 . S
O241 Co238 1.970 . S
O241 C240 1.258 . S
O242 Co239 1.966 . S
O242 C240 1.263 . S
C243 O244 1.235 . S
C243 O270 1.289 . S
O244 C243 1.235 . S
C245 C247 1.400 . S
C245 N248 1.351 . S
C245 C250 1.501 . S
C246 C247 1.387 . S
C246 N249 1.341 . S
C247 C245 1.400 . S
C247 C246 1.387 . S
N248 Co239 2.022 . S
N248 C245 1.351 . S
N248 N249 1.365 . S
N249 C246 1.341 . S
N249 N248 1.365 . S
N249 H269 0.862 . S
C250 C245 1.501 . S
C250 H251 0.961 . S
C250 H252 0.961 . S
C250 H253 0.960 . S
H251 C250 0.961 . S
H252 C250 0.961 . S
H253 C250 0.960 . S
C254 N255 1.342 . S
C254 C258 1.401 . S
C254 C259 1.499 . S
N255 Co238 1.989 . S
N255 C254 1.342 . S
N255 N256 1.388 . S
N256 Co239 1.993 . S
N256 N255 1.388 . S
N256 C257 1.346 . S
C257 N256 1.346 . S
C257 C258 1.396 . S
C257 C267 1.510 . S
C258 C254 1.401 . S
C258 C257 1.396 . S
C259 C254 1.499 . S
C259 H260 0.959 . S
C259 H261 0.960 . S
C259 H262 0.961 . S
H260 C259 0.959 . S
H261 C259 0.960 . S
H262 C259 0.961 . S
O263 Co238 1.967 . S
O263 C271 1.258 . S
O264 Co239 1.941 . S
O264 C271 1.266 . S
H265 C267 0.959 . S
H266 C267 0.961 . S
C267 C257 1.510 . S
C267 H265 0.959 . S
C267 H266 0.961 . S
C267 H268 0.960 . S
H268 C267 0.960 . S
H269 N249 0.862 . S
O270 Co238 1.920 . S
O270 C243 1.289 . S
C271 O263 1.258 . S
C271 O264 1.266 . S
Co272 O275 1.970 . S
Co272 N289 1.989 . S
Co272 O297 1.967 . S
Co272 O304 1.920 . S
Co273 O276 1.966 . S
Co273 N282 2.022 . S
Co273 N290 1.993 . S
Co273 O298 1.941 . S
C274 O275 1.258 . S
C274 O276 1.263 . S
O275 Co272 1.970 . S
O275 C274 1.258 . S
O276 Co273 1.966 . S
O276 C274 1.263 . S
C277 O278 1.235 . S
C277 O304 1.289 . S
O278 C277 1.235 . S
C279 C281 1.400 . S
C279 N282 1.351 . S
C279 C284 1.501 . S
C280 C281 1.387 . S
C280 N283 1.341 . S
C281 C279 1.400 . S
C281 C280 1.387 . S
N282 Co273 2.022 . S
N282 C279 1.351 . S
N282 N283 1.365 . S
N283 C280 1.341 . S
N283 N282 1.365 . S
N283 H303 0.862 . S
C284 C279 1.501 . S
C284 H285 0.961 . S
C284 H286 0.961 . S
C284 H287 0.960 . S
H285 C284 0.961 . S
H286 C284 0.961 . S
H287 C284 0.960 . S
C288 N289 1.342 . S
C288 C292 1.401 . S
C288 C293 1.499 . S
N289 Co272 1.989 . S
N289 C288 1.342 . S
N289 N290 1.388 . S
N290 Co273 1.993 . S
N290 N289 1.388 . S
N290 C291 1.346 . S
C291 N290 1.346 . S
C291 C292 1.396 . S
C291 C301 1.510 . S
C292 C288 1.401 . S
C292 C291 1.396 . S
C293 C288 1.499 . S
C293 H294 0.959 . S
C293 H295 0.960 . S
C293 H296 0.961 . S
H294 C293 0.959 . S
H295 C293 0.960 . S
H296 C293 0.961 . S
O297 Co272 1.967 . S
O297 C305 1.258 . S
O298 Co273 1.941 . S
O298 C305 1.266 . S
H299 C301 0.959 . S
H300 C301 0.961 . S
C301 C291 1.510 . S
C301 H299 0.959 . S
C301 H300 0.961 . S
C301 H302 0.960 . S
H302 C301 0.960 . S
H303 N283 0.862 . S
O304 Co272 1.920 . S
O304 C277 1.289 . S
C305 O297 1.258 . S
C305 O298 1.266 . S
Co306 O309 1.970 . S
Co306 N323 1.989 . S
Co306 O331 1.967 . S
Co306 O338 1.920 . S
Co307 O310 1.966 . S
Co307 N316 2.022 . S
Co307 N324 1.993 . S
Co307 O332 1.941 . S
C308 O309 1.258 . S
C308 O310 1.263 . S
O309 Co306 1.970 . S
O309 C308 1.258 . S
O310 Co307 1.966 . S
O310 C308 1.263 . S
C311 O312 1.235 . S
C311 O338 1.289 . S
O312 C311 1.235 . S
C313 C315 1.400 . S
C313 N316 1.351 . S
C313 C318 1.501 . S
C314 C315 1.387 . S
C314 N317 1.341 . S
C315 C313 1.400 . S
C315 C314 1.387 . S
N316 Co307 2.022 . S
N316 C313 1.351 . S
N316 N317 1.365 . S
N317 C314 1.341 . S
N317 N316 1.365 . S
N317 H337 0.862 . S
C318 C313 1.501 . S
C318 H319 0.961 . S
C318 H320 0.961 . S
C318 H321 0.960 . S
H319 C318 0.961 . S
H320 C318 0.961 . S
H321 C318 0.960 . S
C322 N323 1.342 . S
C322 C326 1.401 . S
C322 C327 1.499 . S
N323 Co306 1.989 . S
N323 C322 1.342 . S
N323 N324 1.388 . S
N324 Co307 1.993 . S
N324 N323 1.388 . S
N324 C325 1.346 . S
C325 N324 1.346 . S
C325 C326 1.396 . S
C325 C335 1.510 . S
C326 C322 1.401 . S
C326 C325 1.396 . S
C327 C322 1.499 . S
C327 H328 0.959 . S
C327 H329 0.960 . S
C327 H330 0.961 . S
H328 C327 0.959 . S
H329 C327 0.960 . S
H330 C327 0.961 . S
O331 Co306 1.967 . S
O331 C339 1.258 . S
O332 Co307 1.941 . S
O332 C339 1.266 . S
H333 C335 0.959 . S
H334 C335 0.961 . S
C335 C325 1.510 . S
C335 H333 0.959 . S
C335 H334 0.961 . S
C335 H336 0.960 . S
H336 C335 0.960 . S
H337 N317 0.862 . S
O338 Co306 1.920 . S
O338 C311 1.289 . S
C339 O331 1.258 . S
C339 O332 1.266 . S
Co340 O343 1.970 . S
Co340 N357 1.989 . S
Co340 O365 1.967 . S
Co340 O372 1.920 . S
Co341 O344 1.966 . S
Co341 N350 2.022 . S
Co341 N358 1.993 . S
Co341 O366 1.941 . S
C342 O343 1.258 . S
C342 O344 1.263 . S
O343 Co340 1.970 . S
O343 C342 1.258 . S
O344 Co341 1.966 . S
O344 C342 1.263 . S
C345 O346 1.235 . S
C345 O372 1.289 . S
O346 C345 1.235 . S
C347 C349 1.400 . S
C347 N350 1.351 . S
C347 C352 1.501 . S
C348 C349 1.387 . S
C348 N351 1.341 . S
C349 C347 1.400 . S
C349 C348 1.387 . S
N350 Co341 2.022 . S
N350 C347 1.351 . S
N350 N351 1.365 . S
N351 C348 1.341 . S
N351 N350 1.365 . S
N351 H371 0.862 . S
C352 C347 1.501 . S
C352 H353 0.961 . S
C352 H354 0.961 . S
C352 H355 0.960 . S
H353 C352 0.961 . S
H354 C352 0.961 . S
H355 C352 0.960 . S
C356 N357 1.342 . S
C356 C360 1.401 . S
C356 C361 1.499 . S
N357 Co340 1.989 . S
N357 C356 1.342 . S
N357 N358 1.388 . S
N358 Co341 1.993 . S
N358 N357 1.388 . S
N358 C359 1.346 . S
C359 N358 1.346 . S
C359 C360 1.396 . S
C359 C369 1.510 . S
C360 C356 1.401 . S
C360 C359 1.396 . S
C361 C356 1.499 . S
C361 H362 0.959 . S
C361 H363 0.960 . S
C361 H364 0.961 . S
H362 C361 0.959 . S
H363 C361 0.960 . S
H364 C361 0.961 . S
O365 Co340 1.967 . S
O365 C373 1.258 . S
O366 Co341 1.941 . S
O366 C373 1.266 . S
H367 C369 0.959 . S
H368 C369 0.961 . S
C369 C359 1.510 . S
C369 H367 0.959 . S
C369 H368 0.961 . S
C369 H370 0.960 . S
H370 C369 0.960 . S
H371 N351 0.862 . S
O372 Co340 1.920 . S
O372 C345 1.289 . S
C373 O365 1.258 . S
C373 O366 1.266 . S
Co374 O377 1.970 . S
Co374 N391 1.989 . S
Co374 O399 1.967 . S
Co374 O406 1.920 . S
Co375 O378 1.966 . S
Co375 N384 2.022 . S
Co375 N392 1.993 . S
Co375 O400 1.941 . S
C376 O377 1.258 . S
C376 O378 1.263 . S
O377 Co374 1.970 . S
O377 C376 1.258 . S
O378 Co375 1.966 . S
O378 C376 1.263 . S
C379 O380 1.235 . S
C379 O406 1.289 . S
O380 C379 1.235 . S
C381 C383 1.400 . S
C381 N384 1.351 . S
C381 C386 1.501 . S
C382 C383 1.387 . S
C382 N385 1.341 . S
C383 C381 1.400 . S
C383 C382 1.387 . S
N384 Co375 2.022 . S
N384 C381 1.351 . S
N384 N385 1.365 . S
N385 C382 1.341 . S
N385 N384 1.365 . S
N385 H405 0.862 . S
C386 C381 1.501 . S
C386 H387 0.961 . S
C386 H388 0.961 . S
C386 H389 0.960 . S
H387 C386 0.961 . S
H388 C386 0.961 . S
H389 C386 0.960 . S
C390 N391 1.342 . S
C390 C394 1.401 . S
C390 C395 1.499 . S
N391 Co374 1.989 . S
N391 C390 1.342 . S
N391 N392 1.388 . S
N392 Co375 1.993 . S
N392 N391 1.388 . S
N392 C393 1.346 . S
C393 N392 1.346 . S
C393 C394 1.396 . S
C393 C403 1.510 . S
C394 C390 1.401 . S
C394 C393 1.396 . S
C395 C390 1.499 . S
C395 H396 0.959 . S
C395 H397 0.960 . S
C395 H398 0.961 . S
H396 C395 0.959 . S
H397 C395 0.960 . S
H398 C395 0.961 . S
O399 Co374 1.967 . S
O399 C407 1.258 . S
O400 Co375 1.941 . S
O400 C407 1.266 . S
H401 C403 0.959 . S
H402 C403 0.961 . S
C403 C393 1.510 . S
C403 H401 0.959 . S
C403 H402 0.961 . S
C403 H404 0.960 . S
H404 C403 0.960 . S
H405 N385 0.862 . S
O406 Co374 1.920 . S
O406 C379 1.289 . S
C407 O399 1.258 . S
C407 O400 1.266 . S
C408 C409 1.387 . S
C408 H412 0.950 . S
C408 C417 1.390 . S
C409 C408 1.387 . S
C409 C411 1.387 . S
H410 C417 0.950 . S
C411 C409 1.387 . S
C411 C413 1.390 . S
C411 H415 0.950 . S
H412 C408 0.950 . S
C413 C411 1.390 . S
C413 C414 1.387 . S
C413 H416 0.950 . S
C414 C413 1.387 . S
C414 C417 1.387 . S
H415 C411 0.950 . S
H416 C413 0.950 . S
C417 C408 1.390 . S
C417 H410 0.950 . S
C417 C414 1.387 . S
C418 C419 1.387 . S
C418 H422 0.950 . S
C418 C427 1.390 1_655 S
C419 C418 1.387 . S
C419 C421 1.387 . S
H420 C427 0.950 . S
C421 C419 1.387 . S
C421 C423 1.390 1_655 S
C421 H425 0.950 . S
H422 C418 0.950 . S
C423 C421 1.390 1_455 S
C423 C424 1.387 . S
C423 H426 0.950 . S
C424 C423 1.387 . S
C424 C427 1.387 . S
H425 C421 0.950 . S
H426 C423 0.950 . S
C427 C418 1.390 1_455 S
C427 H420 0.950 . S
C427 C424 1.387 . S
C428 C429 1.387 . S
C428 H432 0.950 . S
C428 C437 1.390 1_545 S
C429 C428 1.387 . S
C429 C431 1.387 . S
H430 C437 0.950 . S
C431 C429 1.387 . S
C431 C433 1.390 1_545 S
C431 H435 0.950 . S
H432 C428 0.950 . S
C433 C431 1.390 1_565 S
C433 C434 1.387 . S
C433 H436 0.950 . S
C434 C433 1.387 . S
C434 C437 1.387 . S
H435 C431 0.950 . S
H436 C433 0.950 . S
C437 C428 1.390 1_565 S
C437 H430 0.950 . S
C437 C434 1.387 . S
C438 C439 1.387 . S
C438 H442 0.950 . S
C438 C447 1.390 . S
C439 C438 1.387 . S
C439 C441 1.387 . S
H440 C447 0.950 . S
C441 C439 1.387 . S
C441 C443 1.390 . S
C441 H445 0.950 . S
H442 C438 0.950 . S
C443 C441 1.390 . S
C443 C444 1.387 . S
C443 H446 0.950 . S
C444 C443 1.387 . S
C444 C447 1.387 . S
H445 C441 0.950 . S
H446 C443 0.950 . S
C447 C438 1.390 . S
C447 H440 0.950 . S
C447 C444 1.387 . S
C448 C449 1.387 . S
C448 H452 0.950 . S
C448 C457 1.390 1_455 S
C449 C448 1.387 . S
C449 C451 1.387 . S
H450 C457 0.950 . S
C451 C449 1.387 . S
C451 C453 1.390 1_455 S
C451 H455 0.950 . S
H452 C448 0.950 . S
C453 C451 1.390 1_655 S
C453 C454 1.387 . S
C453 H456 0.950 . S
C454 C453 1.387 . S
C454 C457 1.387 . S
H455 C451 0.950 . S
H456 C453 0.950 . S
C457 C448 1.390 1_655 S
C457 H450 0.950 . S
C457 C454 1.387 . S
C458 C459 1.387 . S
C458 H462 0.950 . S
C458 C467 1.390 1_565 S
C459 C458 1.387 . S
C459 C461 1.387 . S
H460 C467 0.950 . S
C461 C459 1.387 . S
C461 C463 1.390 1_565 S
C461 H465 0.950 . S
H462 C458 0.950 . S
C463 C461 1.390 1_545 S
C463 C464 1.387 . S
C463 H466 0.950 . S
C464 C463 1.387 . S
C464 C467 1.387 . S
H465 C461 0.950 . S
H466 C463 0.950 . S
C467 C458 1.390 1_545 S
C467 H460 0.950 . S
C467 C464 1.387 . S
C468 C469 1.387 . S
C468 H472 0.950 . S
C468 C477 1.390 1_556 S
C469 C468 1.387 . S
C469 C471 1.387 . S
H470 C477 0.950 . S
C471 C469 1.387 . S
C471 C473 1.390 1_556 S
C471 H475 0.950 . S
H472 C468 0.950 . S
C473 C471 1.390 1_554 S
C473 C474 1.387 . S
C473 H476 0.950 . S
C474 C473 1.387 . S
C474 C477 1.387 . S
H475 C471 0.950 . S
H476 C473 0.950 . S
C477 C468 1.390 1_554 S
C477 H470 0.950 . S
C477 C474 1.387 . S
C478 C479 1.387 . S
C478 H482 0.950 . S
C478 C487 1.390 . S
C479 C478 1.387 . S
C479 C481 1.387 . S
H480 C487 0.950 . S
C481 C479 1.387 . S
C481 C483 1.390 . S
C481 H485 0.950 . S
H482 C478 0.950 . S
C483 C481 1.390 . S
C483 C484 1.387 . S
C483 H486 0.950 . S
C484 C483 1.387 . S
C484 C487 1.387 . S
H485 C481 0.950 . S
H486 C483 0.950 . S
C487 C478 1.390 . S
C487 H480 0.950 . S
C487 C484 1.387 . S
C488 C489 1.387 . S
C488 H492 0.950 . S
C488 C497 1.390 1_554 S
C489 C488 1.387 . S
C489 C491 1.387 . S
H490 C497 0.950 . S
C491 C489 1.387 . S
C491 C493 1.390 1_554 S
C491 H495 0.950 . S
H492 C488 0.950 . S
C493 C491 1.390 1_556 S
C493 C494 1.387 . S
C493 H496 0.950 . S
C494 C493 1.387 . S
C494 C497 1.387 . S
H495 C491 0.950 . S
H496 C493 0.950 . S
C497 C488 1.390 1_556 S
C497 H490 0.950 . S
C497 C494 1.387 . S
C498 C499 1.387 . S
C498 H502 0.950 . S
C498 C507 1.390 . S
C499 C498 1.387 . S
C499 C501 1.387 . S
H500 C507 0.950 . S
C501 C499 1.387 . S
C501 C503 1.390 . S
C501 H505 0.950 . S
H502 C498 0.950 . S
C503 C501 1.390 . S
C503 C504 1.387 . S
C503 H506 0.950 . S
C504 C503 1.387 . S
C504 C507 1.387 . S
H505 C501 0.950 . S
H506 C503 0.950 . S
C507 C498 1.390 . S
C507 H500 0.950 . S
C507 C504 1.387 . S
C508 C509 1.387 . S
C508 H512 0.950 . S
C508 C517 1.390 1_556 S
C509 C508 1.387 . S
C509 C511 1.387 . S
H510 C517 0.950 . S
C511 C509 1.387 . S
C511 C513 1.390 1_556 S
C511 H515 0.950 . S
H512 C508 0.950 . S
C513 C511 1.390 1_554 S
C513 C514 1.387 . S
C513 H516 0.950 . S
C514 C513 1.387 . S
C514 C517 1.387 . S
H515 C511 0.950 . S
H516 C513 0.950 . S
C517 C508 1.390 1_554 S
C517 H510 0.950 . S
C517 C514 1.387 . S
C518 C519 1.387 . S
C518 H522 0.950 . S
C518 C527 1.390 . S
C519 C518 1.387 . S
C519 C521 1.387 . S
H520 C527 0.950 . S
C521 C519 1.387 . S
C521 C523 1.390 . S
C521 H525 0.950 . S
H522 C518 0.950 . S
C523 C521 1.390 . S
C523 C524 1.387 . S
C523 H526 0.950 . S
C524 C523 1.387 . S
C524 C527 1.387 . S
H525 C521 0.950 . S
H526 C523 0.950 . S
C527 C518 1.390 . S
C527 H520 0.950 . S
C527 C524 1.387 . S
C528 C529 1.387 . S
C528 H532 0.950 . S
C528 C537 1.390 1_554 S
C529 C528 1.387 . S
C529 C531 1.387 . S
H530 C537 0.950 . S
C531 C529 1.387 . S
C531 C533 1.390 1_554 S
C531 H535 0.950 . S
H532 C528 0.950 . S
C533 C531 1.390 1_556 S
C533 C534 1.387 . S
C533 H536 0.950 . S
C534 C533 1.387 . S
C534 C537 1.387 . S
H535 C531 0.950 . S
H536 C533 0.950 . S
C537 C528 1.390 1_556 S
C537 H530 0.950 . S
C537 C534 1.387 . S
C538 C539 1.387 . S
C538 H542 0.950 . S
C538 C547 1.390 . S
C539 C538 1.387 . S
C539 C541 1.387 . S
H540 C547 0.950 . S
C541 C539 1.387 . S
C541 C543 1.390 . S
C541 H545 0.950 . S
H542 C538 0.950 . S
C543 C541 1.390 . S
C543 C544 1.387 . S
C543 H546 0.950 . S
C544 C543 1.387 . S
C544 C547 1.387 . S
H545 C541 0.950 . S
H546 C543 0.950 . S
C547 C538 1.390 . S
C547 H540 0.950 . S
C547 C544 1.387 . S
C548 C549 1.387 . S
C548 H552 0.950 . S
C548 C557 1.390 1_556 S
C549 C548 1.387 . S
C549 C551 1.387 . S
H550 C557 0.950 . S
C551 C549 1.387 . S
C551 C553 1.390 1_556 S
C551 H555 0.950 . S
H552 C548 0.950 . S
C553 C551 1.390 1_554 S
C553 C554 1.387 . S
C553 H556 0.950 . S
C554 C553 1.387 . S
C554 C557 1.387 . S
H555 C551 0.950 . S
H556 C553 0.950 . S
C557 C548 1.390 1_554 S
C557 H550 0.950 . S
C557 C554 1.387 . S
C558 C559 1.387 . S
C558 H562 0.950 . S
C558 C567 1.390 . S
C559 C558 1.387 . S
C559 C561 1.387 . S
H560 C567 0.950 . S
C561 C559 1.387 . S
C561 C563 1.390 . S
C561 H565 0.950 . S
H562 C558 0.950 . S
C563 C561 1.390 . S
C563 C564 1.387 . S
C563 H566 0.950 . S
C564 C563 1.387 . S
C564 C567 1.387 . S
H565 C561 0.950 . S
H566 C563 0.950 . S
C567 C558 1.390 . S
C567 H560 0.950 . S
C567 C564 1.387 . S
C568 C569 1.387 . S
C568 H572 0.950 . S
C568 C577 1.390 1_556 S
C569 C568 1.387 . S
C569 C571 1.387 . S
H570 C577 0.950 . S
C571 C569 1.387 . S
C571 C573 1.390 1_556 S
C571 H575 0.950 . S
H572 C568 0.950 . S
C573 C571 1.390 1_554 S
C573 C574 1.387 . S
C573 H576 0.950 . S
C574 C573 1.387 . S
C574 C577 1.387 . S
H575 C571 0.950 . S
H576 C573 0.950 . S
C577 C568 1.390 1_554 S
C577 H570 0.950 . S
C577 C574 1.387 . S
C578 C579 1.387 . S
C578 H582 0.950 . S
C578 C587 1.390 . S
C579 C578 1.387 . S
C579 C581 1.387 . S
H580 C587 0.950 . S
C581 C579 1.387 . S
C581 C583 1.390 . S
C581 H585 0.950 . S
H582 C578 0.950 . S
C583 C581 1.390 . S
C583 C584 1.387 . S
C583 H586 0.950 . S
C584 C583 1.387 . S
C584 C587 1.387 . S
H585 C581 0.950 . S
H586 C583 0.950 . S
C587 C578 1.390 . S
C587 H580 0.950 . S
C587 C584 1.387 . S
C588 C589 1.387 . S
C588 H592 0.950 . S
C588 C597 1.390 . S
C589 C588 1.387 . S
C589 C591 1.387 . S
H590 C597 0.950 . S
C591 C589 1.387 . S
C591 C593 1.390 . S
C591 H595 0.950 . S
H592 C588 0.950 . S
C593 C591 1.390 . S
C593 C594 1.387 . S
C593 H596 0.950 . S
C594 C593 1.387 . S
C594 C597 1.387 . S
H595 C591 0.950 . S
H596 C593 0.950 . S
C597 C588 1.390 . S
C597 H590 0.950 . S
C597 C594 1.387 . S
C598 C599 1.387 . S
C598 H602 0.950 . S
C598 C607 1.390 . S
C599 C598 1.387 . S
C599 C601 1.387 . S
H600 C607 0.950 . S
C601 C599 1.387 . S
C601 C603 1.390 . S
C601 H605 0.950 . S
H602 C598 0.950 . S
C603 C601 1.390 . S
C603 C604 1.387 . S
C603 H606 0.950 . S
C604 C603 1.387 . S
C604 C607 1.387 . S
H605 C601 0.950 . S
H606 C603 0.950 . S
C607 C598 1.390 . S
C607 H600 0.950 . S
C607 C604 1.387 . S
C608 C609 1.387 . S
C608 H612 0.950 . S
C608 C617 1.390 . S
C609 C608 1.387 . S
C609 C611 1.387 . S
H610 C617 0.950 . S
C611 C609 1.387 . S
C611 C613 1.390 . S
C611 H615 0.950 . S
H612 C608 0.950 . S
C613 C611 1.390 . S
C613 C614 1.387 . S
C613 H616 0.950 . S
C614 C613 1.387 . S
C614 C617 1.387 . S
H615 C611 0.950 . S
H616 C613 0.950 . S
C617 C608 1.390 . S
C617 H610 0.950 . S
C617 C614 1.387 . S
C618 C619 1.387 . S
C618 H622 0.950 . S
C618 C627 1.390 . S
C619 C618 1.387 . S
C619 C621 1.387 . S
H620 C627 0.950 . S
C621 C619 1.387 . S
C621 C623 1.390 . S
C621 H625 0.950 . S
H622 C618 0.950 . S
C623 C621 1.390 . S
C623 C624 1.387 . S
C623 H626 0.950 . S
C624 C623 1.387 . S
C624 C627 1.387 . S
H625 C621 0.950 . S
H626 C623 0.950 . S
C627 C618 1.390 . S
C627 H620 0.950 . S
C627 C624 1.387 . S
C628 C629 1.387 . S
C628 H632 0.950 . S
C628 C637 1.390 . S
C629 C628 1.387 . S
C629 C631 1.387 . S
H630 C637 0.950 . S
C631 C629 1.387 . S
C631 C633 1.390 . S
C631 H635 0.950 . S
H632 C628 0.950 . S
C633 C631 1.390 . S
C633 C634 1.387 . S
C633 H636 0.950 . S
C634 C633 1.387 . S
C634 C637 1.387 . S
H635 C631 0.950 . S
H636 C633 0.950 . S
C637 C628 1.390 . S
C637 H630 0.950 . S
C637 C634 1.387 . S
C638 C639 1.387 . S
C638 H642 0.950 . S
C638 C647 1.390 . S
C639 C638 1.387 . S
C639 C641 1.387 . S
H640 C647 0.950 . S
C641 C639 1.387 . S
C641 C643 1.390 . S
C641 H645 0.950 . S
H642 C638 0.950 . S
C643 C641 1.390 . S
C643 C644 1.387 . S
C643 H646 0.950 . S
C644 C643 1.387 . S
C644 C647 1.387 . S
H645 C641 0.950 . S
H646 C643 0.950 . S
C647 C638 1.390 . S
C647 H640 0.950 . S
C647 C644 1.387 . S
C648 C649 1.387 . S
C648 H652 0.950 . S
C648 C657 1.390 . S
C649 C648 1.387 . S
C649 C651 1.387 . S
H650 C657 0.950 . S
C651 C649 1.387 . S
C651 C653 1.390 . S
C651 H655 0.950 . S
H652 C648 0.950 . S
C653 C651 1.390 . S
C653 C654 1.387 . S
C653 H656 0.950 . S
C654 C653 1.387 . S
C654 C657 1.387 . S
H655 C651 0.950 . S
H656 C653 0.950 . S
C657 C648 1.390 . S
C657 H650 0.950 . S
C657 C654 1.387 . S
C658 C659 1.387 . S
C658 H662 0.950 . S
C658 C667 1.390 . S
C659 C658 1.387 . S
C659 C661 1.387 . S
H660 C667 0.950 . S
C661 C659 1.387 . S
C661 C663 1.390 . S
C661 H665 0.950 . S
H662 C658 0.950 . S
C663 C661 1.390 . S
C663 C664 1.387 . S
C663 H666 0.950 . S
C664 C663 1.387 . S
C664 C667 1.387 . S
H665 C661 0.950 . S
H666 C663 0.950 . S
C667 C658 1.390 . S
C667 H660 0.950 . S
C667 C664 1.387 . S
C668 C669 1.387 . S
C668 H672 0.950 . S
C668 C677 1.390 . S
C669 C668 1.387 . S
C669 C671 1.387 . S
H670 C677 0.950 . S
C671 C669 1.387 . S
C671 C673 1.390 . S
C671 H675 0.950 . S
H672 C668 0.950 . S
C673 C671 1.390 . S
C673 C674 1.387 . S
C673 H676 0.950 . S
C674 C673 1.387 . S
C674 C677 1.387 . S
H675 C671 0.950 . S
H676 C673 0.950 . S
C677 C668 1.390 . S
C677 H670 0.950 . S
C677 C674 1.387 . S
C678 C679 1.387 . S
C678 H682 0.950 . S
C678 C687 1.390 . S
C679 C678 1.387 . S
C679 C681 1.387 . S
H680 C687 0.950 . S
C681 C679 1.387 . S
C681 C683 1.390 . S
C681 H685 0.950 . S
H682 C678 0.950 . S
C683 C681 1.390 . S
C683 C684 1.387 . S
C683 H686 0.950 . S
C684 C683 1.387 . S
C684 C687 1.387 . S
H685 C681 0.950 . S
H686 C683 0.950 . S
C687 C678 1.390 . S
C687 H680 0.950 . S
C687 C684 1.387 . S
C688 C689 1.387 . S
C688 H692 0.950 . S
C688 C697 1.390 . S
C689 C688 1.387 . S
C689 C691 1.387 . S
H690 C697 0.950 . S
C691 C689 1.387 . S
C691 C693 1.390 . S
C691 H695 0.950 . S
H692 C688 0.950 . S
C693 C691 1.390 . S
C693 C694 1.387 . S
C693 H696 0.950 . S
C694 C693 1.387 . S
C694 C697 1.387 . S
H695 C691 0.950 . S
H696 C693 0.950 . S
C697 C688 1.390 . S
C697 H690 0.950 . S
C697 C694 1.387 . S
C698 C699 1.387 . S
C698 H702 0.950 . S
C698 C707 1.390 . S
C699 C698 1.387 . S
C699 C701 1.387 . S
H700 C707 0.950 . S
C701 C699 1.387 . S
C701 C703 1.390 . S
C701 H705 0.950 . S
H702 C698 0.950 . S
C703 C701 1.390 . S
C703 C704 1.387 . S
C703 H706 0.950 . S
C704 C703 1.387 . S
C704 C707 1.387 . S
H705 C701 0.950 . S
H706 C703 0.950 . S
C707 C698 1.390 . S
C707 H700 0.950 . S
C707 C704 1.387 . S
C409 C315 1.623 . S
C414 C9 1.620 . S
C419 C43 1.619 . S
C424 C349 1.622 . S
C429 C383 1.620 . S
C434 C77 1.620 . S
C439 C111 1.621 . S
C444 C213 1.620 . S
C449 C145 1.623 . S
C454 C247 1.620 . S
C459 C281 1.622 . S
C464 C179 1.622 . S
C469 C342 1.421 . S
C474 C2 1.421 . S
C479 C376 1.420 . S
C484 C36 1.421 . S
C489 C70 1.421 . S
C494 C206 1.421 . S
C499 C240 1.421 . S
C504 C104 1.421 . S
C509 C274 1.421 . S
C514 C138 1.421 . S
C519 C172 1.420 . S
C524 C308 1.422 . S
C529 C258 1.540 . S
C534 C122 1.540 . S
C539 C292 1.541 . S
C544 C156 1.540 . S
C549 C190 1.540 . S
C554 C326 1.541 . S
C559 C20 1.540 . S
C564 C360 1.540 . S
C569 C54 1.541 . S
C574 C394 1.539 . S
C579 C224 1.540 . S
C584 C88 1.541 . S
C589 C5 1.616 . S
C594 C169 1.648 . S
C599 C39 1.613 . S
C604 C203 1.646 . S
C609 C73 1.616 . S
C614 C33 1.648 . S
C619 C67 1.648 . S
C624 C107 1.616 . S
C629 C141 1.613 . S
C634 C101 1.646 . S
C639 C135 1.647 . S
C644 C175 1.616 . S
C649 C305 1.646 . S
C654 C209 1.613 . S
C659 C339 1.646 . S
C664 C243 1.613 . S
C669 C373 1.648 . S
C674 C277 1.616 . S
C679 C311 1.613 . S
C684 C407 1.646 . S
C689 C237 1.646 . S
C694 C345 1.613 . S
C699 C379 1.616 . S
C704 C271 1.648 . S
