# Generated by pormake.
# Topology sml, (6)-cn, num edge types: 1
# Building blocks:
#     Node 0, Type 0, BuildingBlock: JUFBIX_clean_sbu_0, # of connection points: 6
#     Node 1, Type 0, BuildingBlock: JUFBIX_clean_sbu_0, # of connection points: 6
#     Node 2, Type 0, BuildingBlock: JUFBIX_clean_sbu_0, # of connection points: 6
#     Node 3, Type 0, BuildingBlock: JUFBIX_clean_sbu_0, # of connection points: 6
#     Node 4, Type 0, BuildingBlock: JUFBIX_clean_sbu_0, # of connection points: 6
#     Node 5, Type 0, BuildingBlock: JUFBIX_clean_sbu_0, # of connection points: 6
#     Edge 6, Type (0, 0), BuildingBlock: UVAHIK_clean_linker_0, # of connection points: 2
#     Edge 7, Type (0, 0), BuildingBlock: UVAHIK_clean_linker_0, # of connection points: 2
#     Edge 8, Type (0, 0), BuildingBlock: UVAHIK_clean_linker_0, # of connection points: 2
#     Edge 9, Type (0, 0), BuildingBlock: UVAHIK_clean_linker_0, # of connection points: 2
#     Edge 10, Type (0, 0), BuildingBlock: UVAHIK_clean_linker_0, # of connection points: 2
#     Edge 11, Type (0, 0), BuildingBlock: UVAHIK_clean_linker_0, # of connection points: 2
#     Edge 12, Type (0, 0), BuildingBlock: UVAHIK_clean_linker_0, # of connection points: 2
#     Edge 13, Type (0, 0), BuildingBlock: UVAHIK_clean_linker_0, # of connection points: 2
#     Edge 14, Type (0, 0), BuildingBlock: UVAHIK_clean_linker_0, # of connection points: 2
#     Edge 15, Type (0, 0), BuildingBlock: UVAHIK_clean_linker_0, # of connection points: 2
#     Edge 16, Type (0, 0), BuildingBlock: UVAHIK_clean_linker_0, # of connection points: 2
#     Edge 17, Type (0, 0), BuildingBlock: UVAHIK_clean_linker_0, # of connection points: 2
#     Edge 18, Type (0, 0), BuildingBlock: UVAHIK_clean_linker_0, # of connection points: 2
#     Edge 19, Type (0, 0), BuildingBlock: UVAHIK_clean_linker_0, # of connection points: 2
#     Edge 20, Type (0, 0), BuildingBlock: UVAHIK_clean_linker_0, # of connection points: 2
#     Edge 21, Type (0, 0), BuildingBlock: UVAHIK_clean_linker_0, # of connection points: 2
#     Edge 22, Type (0, 0), BuildingBlock: UVAHIK_clean_linker_0, # of connection points: 2
#     Edge 23, Type (0, 0), BuildingBlock: UVAHIK_clean_linker_0, # of connection points: 2
# Relax obj value: 0.282
# Max RMSD: 0.197
# Mean RMSD: 0.197
data_MOF--net-sml--node1-JUFBIX_clean_sbu_0--edge1-UVAHIK_clean_linker_0
_symmetry_space_group_name_H-M    P1
_symmetry_Int_Tables_number       1
_symmetry_cell_setting            triclinic
loop_
_symmetry_equiv_pos_as_xyz
'x, y, z'
_cell_length_a     56.210257
_cell_length_b     56.180602
_cell_length_c     18.66634
_cell_angle_alpha  90.212039
_cell_angle_beta   89.953867
_cell_angle_gamma 119.93497
loop_
_atom_site_label
_atom_site_type_symbol
_atom_site_fract_x
_atom_site_fract_y
_atom_site_fract_z
_atom_type_partial_charge
Co0 Co 0.30478 0.48058 0.05239 0.0
C1 C 0.26473 0.49306 0.09433 0.0
Co2 Co 0.2625 0.4447 0.04933 0.0
C3 C 0.35684 0.52606 0.00213 0.0
C4 C 0.35425 0.52423 0.11644 0.0
N5 N 0.34023 0.51114 0.05664 0.0
N6 N 0.3805 0.54776 0.02566 0.0
C7 C 0.37897 0.54655 0.09761 0.0
H8 H 0.35162 0.52138 0.94612 0.0
H9 H 0.34673 0.51857 0.17056 0.0
C10 C 0.30351 0.43285 0.00798 0.0
N11 N 0.22707 0.41454 0.04575 0.0
C12 C 0.20523 0.40939 0.08703 0.0
C13 C 0.21767 0.39281 0.00088 0.0
N14 N 0.1827 0.38528 0.06993 0.0
C15 C 0.1905 0.37475 0.01589 0.0
C16 C 0.27868 0.47371 0.92346 0.0
O17 O 0.31912 0.45845 0.0189 0.0
O18 O 0.27777 0.42227 0.01837 0.0
O19 O 0.25935 0.45285 0.95392 0.0
O20 O 0.30066 0.48903 0.95762 0.0
O21 O 0.24831 0.46783 0.08028 0.0
H22 H 0.22976 0.39027 0.95962 0.0
H23 H 0.20591 0.42286 0.12958 0.0
O24 O 0.29036 0.50264 0.08617 0.0
O25 O 0.30792 0.47125 0.14708 0.0
O26 O 0.2657 0.43664 0.14478 0.0
C27 C 0.28803 0.45115 0.17832 0.0
H28 H 0.39407 0.56147 0.13402 0.0
H29 H 0.17736 0.35557 -0.0116 0.0
Co30 Co 0.7873 0.22581 0.3764 0.0
C31 C 0.82638 0.27809 0.3305 0.0
Co32 Co 0.83022 0.23395 0.3797 0.0
C33 C 0.73262 0.21377 0.42239 0.0
C34 C 0.73914 0.22133 0.30983 0.0
N35 N 0.75152 0.21981 0.37018 0.0
N36 N 0.70897 0.21128 0.39668 0.0
C37 C 0.71306 0.21597 0.32583 0.0
H38 H 0.73611 0.21123 0.47815 0.0
H39 H 0.74862 0.22648 0.25748 0.0
C40 C 0.79037 0.18127 0.42438 0.0
N41 N 0.86589 0.23998 0.3854 0.0
C42 C 0.88768 0.25542 0.34267 0.0
C43 C 0.87537 0.22905 0.43414 0.0
N44 N 0.91021 0.25429 0.36256 0.0
C45 C 0.90249 0.23766 0.42 0.0
C46 C 0.81276 0.24671 0.50499 0.0
O47 O 0.77395 0.19021 0.41274 0.0
O48 O 0.81589 0.19685 0.41232 0.0
O49 O 0.83258 0.24586 0.47483 0.0
O50 O 0.7907 0.23935 0.47038 0.0
O51 O 0.84367 0.27069 0.347 0.0
H52 H 0.86332 0.21564 0.47732 0.0
H53 H 0.88691 0.26689 0.29711 0.0
O54 O 0.80091 0.2615 0.33947 0.0
O55 O 0.78462 0.21225 0.28268 0.0
O56 O 0.82758 0.22202 0.28443 0.0
C57 C 0.80498 0.21295 0.25122 0.0
H58 H 0.69853 0.21636 0.28852 0.0
H59 H 0.91564 0.2324 0.45023 0.0
Co60 Co 0.59851 0.85322 0.66804 0.0
C61 C 0.58256 0.8007 0.71091 0.0
Co62 Co 0.63404 0.84684 0.68214 0.0
C63 C 0.54526 0.85123 0.67621 0.0
C64 C 0.57127 0.8759 0.5909 0.0
N65 N 0.5701 0.85984 0.64595 0.0
N66 N 0.53126 0.86175 0.64251 0.0
C67 C 0.54762 0.87721 0.58889 0.0
H68 H 0.53764 0.83762 0.72188 0.0
H69 H 0.58819 0.88585 0.55373 0.0
C70 C 0.6494 0.8996 0.63971 0.0
N71 N 0.66374 0.84197 0.70288 0.0
C72 C 0.66558 0.81886 0.70523 0.0
C73 C 0.68876 0.86225 0.72348 0.0
N74 N 0.69086 0.82416 0.7257 0.0
C75 C 0.70542 0.85145 0.73701 0.0
C76 C 0.6144 0.83471 0.54761 0.0
O77 O 0.6238 0.89022 0.64524 0.0
O78 O 0.65885 0.8837 0.65189 0.0
O79 O 0.63257 0.83453 0.58756 0.0
O80 O 0.59846 0.8426 0.57261 0.0
O81 O 0.6084 0.8099 0.71222 0.0
H82 H 0.69445 0.88355 0.7305 0.0
H83 H 0.6487 0.79857 0.69299 0.0
O84 O 0.57355 0.81641 0.69132 0.0
O85 O 0.59872 0.86348 0.7642 0.0
O86 O 0.63537 0.8593 0.77616 0.0
C87 C 0.61813 0.86519 0.80273 0.0
H88 H 0.54247 0.88802 0.54949 0.0
H89 H 0.72631 0.86266 0.75673 0.0
Co90 Co 0.83603 0.58801 0.09157 0.0
C91 C 0.78586 0.58025 0.04053 0.0
Co92 Co 0.83361 0.62601 0.08583 0.0
C93 C 0.85463 0.54738 0.09185 0.0
C94 C 0.8123 0.53126 0.11939 0.0
N95 N 0.83522 0.5547 0.10068 0.0
N96 N 0.84424 0.52022 0.10294 0.0
C97 C 0.81774 0.51011 0.12025 0.0
H98 H 0.87573 0.5615 0.07731 0.0
H99 H 0.79278 0.52962 0.13229 0.0
C100 C 0.8841 0.63344 0.13494 0.0
N101 N 0.8328 0.65842 0.07745 0.0
C102 C 0.81912 0.66427 0.02754 0.0
C103 C 0.84342 0.68012 0.1225 0.0
N104 N 0.82039 0.68855 0.04002 0.0
C105 C 0.8358 0.69866 0.0997 0.0
C106 C 0.81759 0.60136 0.21555 0.0
O107 O 0.8723 0.60747 0.12776 0.0
O108 O 0.87099 0.64579 0.11895 0.0
O109 O 0.82126 0.62227 0.18078 0.0
O110 O 0.82234 0.58386 0.18553 0.0
O111 O 0.79618 0.60577 0.05264 0.0
H112 H 0.85523 0.68195 0.17002 0.0
H113 H 0.80741 0.65032 -0.0154 0.0
O114 O 0.80001 0.56898 0.05419 0.0
O115 O 0.84963 0.59237 -0.0022 0.0
O116 O 0.84611 0.62956 -0.00907 0.0
C117 C 0.85207 0.61267 0.96204 0.0
H118 H 0.80349 0.48893 0.13396 0.0
H119 H 0.84088 0.71787 0.12576 0.0
Co120 Co 0.20654 0.75922 0.4444 0.0
C121 C 0.2589 0.797 0.49236 0.0
Co122 Co 0.2154 0.80241 0.44324 0.0
C123 C 0.19708 0.70599 0.39317 0.0
C124 C 0.2021 0.71058 0.50683 0.0
N125 N 0.20041 0.72336 0.44766 0.0
N126 N 0.19688 0.68302 0.416 0.0
C127 C 0.19988 0.68593 0.48771 0.0
H128 H 0.19572 0.71054 0.33759 0.0
H129 H 0.2062 0.71925 0.56025 0.0
C130 C 0.1625 0.76331 0.39606 0.0
N131 N 0.22238 0.83855 0.44088 0.0
C132 C 0.23877 0.85984 0.48441 0.0
C133 C 0.21202 0.84915 0.39373 0.0
N134 N 0.23887 0.8832 0.46648 0.0
C135 C 0.22198 0.87647 0.40951 0.0
C136 C 0.22819 0.78574 0.31713 0.0
O137 O 0.17109 0.74662 0.40796 0.0
O138 O 0.17835 0.78885 0.40865 0.0
O139 O 0.22782 0.80565 0.34842 0.0
O140 O 0.22013 0.76334 0.35043 0.0
O141 O 0.25198 0.81483 0.47779 0.0
H142 H 0.19824 0.8378 0.35023 0.0
H143 H 0.25017 0.85818 0.52895 0.0
O144 O 0.24193 0.77181 0.48107 0.0
O145 O 0.19307 0.75595 0.53839 0.0
O146 O 0.20301 0.799 0.53798 0.0
C147 C 0.19391 0.77631 0.57054 0.0
H148 H 0.20203 0.67207 0.52373 0.0
H149 H 0.21754 0.89044 0.38043 0.0
Co150 Co 0.48565 0.27861 0.76927 0.0
C151 C 0.49415 0.23635 0.72147 0.0
Co152 Co 0.4471 0.23897 0.75228 0.0
C153 C 0.52627 0.33707 0.79194 0.0
C154 C 0.53913 0.30906 0.82779 0.0
N155 N 0.5185 0.31004 0.79343 0.0
N156 N 0.55068 0.35262 0.82502 0.0
C157 C 0.55879 0.33506 0.84733 0.0
H158 H 0.51369 0.345 0.77067 0.0
H159 H 0.53929 0.29041 0.84097 0.0
C160 C 0.43932 0.28212 0.80018 0.0
N161 N 0.41434 0.2071 0.72921 0.0
C162 C 0.40796 0.18044 0.73022 0.0
C163 C 0.39211 0.20662 0.70056 0.0
N164 N 0.38259 0.16337 0.70319 0.0
C165 C 0.3727 0.17999 0.6847 0.0
C166 C 0.46532 0.24298 0.88732 0.0
O167 O 0.4654 0.2958 0.79733 0.0
O168 O 0.427 0.25672 0.78342 0.0
O169 O 0.44591 0.22644 0.84671 0.0
O170 O 0.48367 0.26597 0.86322 0.0
O171 O 0.46804 0.22199 0.72102 0.0
H172 H 0.39047 0.22463 0.68944 0.0
H173 H 0.42187 0.17381 0.74937 0.0
O174 O 0.5055 0.26127 0.74115 0.0
O175 O 0.48729 0.29075 0.6743 0.0
O176 O 0.4485 0.25192 0.65892 0.0
C177 C 0.46736 0.27459 0.6343 0.0
H178 H 0.57735 0.34066 0.87731 0.0
H179 H 0.35322 0.17361 0.6587 0.0
C180 C 0.39486 0.28132 0.82619 0.0
C181 C 0.42371 0.29587 0.82251 0.0
C182 C 0.38042 0.29459 0.84728 0.0
C183 C 0.39003 0.35696 0.94318 0.0
H184 H 0.323 0.34213 0.84617 0.0
C185 C 0.3442 0.42776 0.97766 0.0
C186 C 0.31559 0.41574 -0.01476 0.0
C187 C 0.35601 0.41186 0.95865 0.0
C188 C 0.34152 0.34627 0.87439 0.0
H189 H 0.45992 0.33591 0.83759 0.0
H190 H 0.4349 0.35894 0.87332 0.0
H191 H 0.3461 0.31669 0.81192 0.0
H192 H 0.27693 0.37745 0.97749 0.0
H193 H 0.29766 0.3496 0.94419 0.0
H194 H 0.38569 0.38669 0.00511 0.0
C195 C 0.42334 0.33719 0.86117 0.0
C196 C 0.35477 0.33167 0.85479 0.0
C197 C 0.43772 0.32397 0.84017 0.0
C198 C 0.29904 0.38738 0.97218 0.0
C199 C 0.31091 0.37144 0.9528 0.0
C200 C 0.37686 0.37156 0.96259 0.0
C201 C 0.3945 0.3227 0.86532 0.0
C202 C 0.37941 0.33708 0.88834 0.0
C203 C 0.33959 0.38346 0.94648 0.0
C204 C 0.35262 0.36669 0.92789 0.0
H205 H 0.3834 0.25965 0.81297 0.0
H206 H 0.35825 0.28271 0.85042 0.0
H207 H 0.40859 0.36127 0.97143 0.0
H208 H 0.35763 0.44954 -0.0131 0.0
H209 H 0.37811 0.42194 0.95302 0.0
C210 C 0.13988 0.34462 0.11016 0.0
C211 C 0.15582 0.37323 0.10191 0.0
C212 C 0.11359 0.33276 0.13995 0.0
C213 C 0.05475 0.34247 0.16341 0.0
H214 H 0.03498 0.29035 0.31868 0.0
C215 C 0.9484 0.29471 0.30351 0.0
C216 C 0.93705 0.26788 0.3301 0.0
C217 C 0.97518 0.30839 0.27605 0.0
C218 C 0.03986 0.30446 0.27448 0.0
H219 H 0.15663 0.41183 0.11764 0.0
H220 H 0.11021 0.39097 0.16844 0.0
H221 H 0.08132 0.31243 0.27019 0.0
H222 H 0.94424 0.23386 0.34588 0.0
H223 H 0.99023 0.25696 0.29536 0.0
H224 H 1.01313 0.33385 0.16537 0.0
C225 C 0.11829 0.37782 0.15242 0.0
C226 C 0.06657 0.31727 0.24713 0.0
C227 C 0.14486 0.38975 0.12391 0.0
C228 C 0.95267 0.25471 0.3268 0.0
C229 C 0.97917 0.26812 0.29823 0.0
C230 C 0.02783 0.32928 0.18987 0.0
C231 C 0.10243 0.3492 0.1609 0.0
C232 C 0.07428 0.33634 0.19122 0.0
C233 C 0.99107 0.29534 0.2734 0.0
C234 C 0.01992 0.30994 0.24566 0.0
H235 H 0.14789 0.33144 0.09411 0.0
H236 H 0.10177 0.31063 0.14557 0.0
H237 H 0.0601 0.35694 0.11982 0.0
H238 H 0.93687 0.30541 0.30606 0.0
H239 H 0.98359 0.32941 0.25851 0.0
C240 C 0.75177 0.13718 0.47046 0.0
C241 C 0.77963 0.15306 0.45199 0.0
C242 C 0.74126 0.11059 0.49652 0.0
C243 C 0.75248 0.05169 0.49831 0.0
H244 H 0.69917 0.0277 0.65229 0.0
C245 C 0.69606 0.94005 0.61272 0.0
C246 C 0.66757 0.92883 0.62105 0.0
C247 C 0.71286 0.96797 0.59655 0.0
C248 C 0.71398 0.03407 0.60916 0.0
H249 H 0.81834 0.15338 0.44638 0.0
H250 H 0.79979 0.10656 0.49199 0.0
H251 H 0.72312 0.07577 0.61672 0.0
H252 H 0.63439 0.93808 0.61805 0.0
H253 H 0.66348 0.98631 0.59008 0.0
H254 H 0.74275 1.00966 0.49004 0.0
C255 C 0.78616 0.11484 0.48596 0.0
C256 C 0.72769 0.06159 0.58875 0.0
C257 C 0.79677 0.14165 0.46013 0.0
C258 C 0.65626 0.946 0.6124 0.0
C259 C 0.67297 0.97376 0.59681 0.0
C260 C 0.73872 0.02404 0.51886 0.0
C261 C 0.75829 0.09909 0.50473 0.0
C262 C 0.74652 0.07058 0.53181 0.0
C263 C 0.70145 0.98514 0.58921 0.0
C264 C 0.71876 0.01484 0.57318 0.0
H265 H 0.73795 0.14527 0.46478 0.0
H266 H 0.7196 0.09883 0.5093 0.0
H267 H 0.76682 0.05801 0.45408 0.0
H268 H 0.70538 0.92732 0.61899 0.0
H269 H 0.73477 0.97622 0.59102 0.0
C270 C 0.68259 0.77916 0.76984 0.0
C271 C 0.70026 0.80503 0.74003 0.0
C272 C 0.69293 0.76242 0.79335 0.0
C273 C 0.75392 0.75303 0.78429 0.0
H274 H 0.73232 0.72444 0.97662 0.0
C275 C 0.79883 0.69302 0.92905 0.0
C276 C 0.80603 0.69981 0.00146 0.0
C277 C 0.78398 0.70308 0.89246 0.0
C278 C 0.73861 0.73234 0.92292 0.0
H279 H 0.74207 0.83284 0.7069 0.0
H280 H 0.76014 0.80392 0.74801 0.0
H281 H 0.70927 0.74598 0.91738 0.0
H282 H 0.8031 0.7225 0.09205 0.0
H283 H 0.77776 0.74045 0.02801 0.0
H284 H 0.78398 0.74034 0.79094 0.0
C285 C 0.73835 0.79642 0.75342 0.0
C286 C 0.72513 0.74434 0.88855 0.0
C287 C 0.72807 0.81314 0.73046 0.0
C288 C 0.79819 0.71707 0.0362 0.0
C289 C 0.78329 0.72705 -0.00029 0.0
C290 C 0.76736 0.74097 0.8186 0.0
C291 C 0.72107 0.77116 0.78677 0.0
C292 C 0.73299 0.75531 0.81937 0.0
C293 C 0.77591 0.7201 0.9275 0.0
C294 C 0.76022 0.73097 0.88887 0.0
H295 H 0.66109 0.77245 0.77814 0.0
H296 H 0.67904 0.74293 0.81815 0.0
H297 H 0.76028 0.76105 0.7307 0.0
H298 H 0.80476 0.68001 0.90045 0.0
H299 H 0.77852 0.69723 0.83696 0.0
C300 C 0.118 0.72455 0.35145 0.0
C301 C 0.13437 0.7527 0.36709 0.0
C302 C 0.09163 0.71406 0.32344 0.0
C303 C 0.03404 0.72743 0.30678 0.0
H304 H 1.01034 0.6712 0.15961 0.0
C305 C 0.92622 0.67765 0.17098 0.0
C306 C 0.91293 0.64903 0.1606 0.0
C307 C 0.95362 0.69219 0.19397 0.0
C308 C 0.01653 0.68672 0.20109 0.0
H309 H 0.13564 0.79191 0.36571 0.0
H310 H 0.08926 0.77345 0.31638 0.0
H311 H 0.05749 0.69352 0.20262 0.0
H312 H 0.91802 0.61326 0.16719 0.0
H313 H 0.96548 0.63848 0.20744 0.0
H314 H 0.99282 0.72031 0.3055 0.0
C315 C 0.09697 0.75954 0.32634 0.0
C316 C 0.0436 0.69954 0.22573 0.0
C317 C 0.12357 0.77012 0.35431 0.0
C318 C 0.9276 0.6353 0.17427 0.0
C319 C 0.95492 0.64981 0.19694 0.0
C320 C 1.00686 0.71456 0.28199 0.0
C321 C 0.08077 0.73137 0.31015 0.0
C322 C 0.05259 0.71968 0.27986 0.0
C323 C 0.96836 0.67845 0.20667 0.0
C324 C 0.99766 0.69368 0.22977 0.0
H325 H 0.12553 0.71044 0.36076 0.0
H326 H 0.07958 0.6922 0.31293 0.0
H327 H 0.04024 0.74273 0.34882 0.0
H328 H 0.91552 0.68887 0.161 0.0
H329 H 0.9634 0.71426 0.20055 0.0
C330 C 0.3406 0.11853 0.68118 0.0
C331 C 0.36921 0.13395 0.69136 0.0
C332 C 0.32764 0.09053 0.66479 0.0
C333 C 0.34148 0.03674 0.59281 0.0
H334 H 0.2666 0.98841 0.65487 0.0
C335 C 0.28031 0.91929 0.5287 0.0
C336 C 0.25396 0.90992 0.49993 0.0
C337 C 0.29536 0.94581 0.55793 0.0
C338 C 0.2875 1.00166 0.637 0.0
H339 H 0.40641 0.1313 0.69384 0.0
H340 H 0.38365 0.08221 0.66768 0.0
H341 H 0.29126 0.03572 0.69763 0.0
H342 H 0.22251 0.92072 0.48121 0.0
H343 H 0.24851 0.96671 0.53304 0.0
H344 H 0.33755 1.00229 0.5327 0.0
C345 C 0.37131 0.09203 0.67079 0.0
C346 C 0.30166 0.02889 0.66121 0.0
C347 C 0.38437 0.12023 0.68675 0.0
C348 C 0.24282 0.92742 0.50242 0.0
C349 C 0.25763 0.95367 0.53262 0.0
C350 C 0.32739 1.00934 0.5693 0.0
C351 C 0.34275 0.07682 0.65887 0.0
C352 C 0.32867 0.04705 0.6383 0.0
C353 C 0.28416 0.96329 0.56024 0.0
C354 C 0.30005 0.99166 0.59003 0.0
H355 H 0.32805 0.12807 0.68534 0.0
H356 H 0.30573 0.07982 0.65505 0.0
H357 H 0.36209 0.05005 0.57319 0.0
H358 H 0.28951 0.90635 0.52703 0.0
H359 H 0.31571 0.9526 0.57906 0.0
C360 C 0.25351 0.45935 0.80793 0.0
C361 C 0.2771 0.4777 0.84648 0.0
C362 C 0.25426 0.45855 0.73357 0.0
C363 C 0.30438 0.46895 0.59935 0.0
H364 H 0.24608 0.45429 0.46488 0.0
C365 C 0.31322 0.46549 0.29386 0.0
C366 C 0.28944 0.44743 0.25553 0.0
C367 C 0.3124 0.46688 0.36812 0.0
C368 C 0.26229 0.4579 0.50225 0.0
H369 H 0.3188 0.5119 0.83788 0.0
H370 H 0.32001 0.51047 0.70754 0.0
H371 H 0.24258 0.46656 0.58835 0.0
H372 H 0.24723 0.41427 0.2646 0.0
H373 H 0.24599 0.41652 0.39475 0.0
H374 H 0.32402 0.46013 0.51346 0.0
C375 C 0.30122 0.49636 0.73507 0.0
C376 C 0.26041 0.46521 0.5724 0.0
C377 C 0.30046 0.49722 0.80947 0.0
C378 C 0.26575 0.4287 0.29283 0.0
C379 C 0.26495 0.43008 0.36713 0.0
C380 C 0.30624 0.4616 0.52924 0.0
C381 C 0.27859 0.47612 0.69703 0.0
C382 C 0.28145 0.47079 0.62139 0.0
C383 C 0.28784 0.45013 0.40482 0.0
C384 C 0.28518 0.45595 0.48025 0.0
H385 H 0.23508 0.44431 0.83517 0.0
H386 H 0.23653 0.44278 0.70526 0.0
H387 H 0.32057 0.47254 0.63679 0.0
H388 H 0.33189 0.4799 0.26644 0.0
H389 H 0.33035 0.48248 0.39607 0.0
C390 C 0.77893 0.19947 0.13673 0.0
C391 C 0.80357 0.20769 0.17385 0.0
C392 C 0.779 0.20141 0.06245 0.0
C393 C 0.82033 0.21364 0.89932 0.0
H394 H 0.78562 0.25537 0.84085 0.0
C395 C 0.83808 0.25906 0.62051 0.0
C396 C 0.81377 0.25156 0.58251 0.0
C397 C 0.83748 0.25651 0.69467 0.0
C398 C 0.79527 0.24362 0.85643 0.0
H399 H 0.84695 0.22136 0.16237 0.0
H400 H 0.84705 0.22484 0.03255 0.0
H401 H 0.78108 0.23958 0.96426 0.0
H402 H 0.77047 0.23849 0.59243 0.0
H403 H 0.76943 0.23386 0.72204 0.0
H404 H 0.83455 0.2177 0.79155 0.0
C405 C 0.82775 0.21704 0.0608 0.0
C406 C 0.7925 0.23439 0.9267 0.0
C407 C 0.82769 0.21509 0.13514 0.0
C408 C 0.78949 0.24424 0.62035 0.0
C409 C 0.78888 0.24161 0.69459 0.0
C410 C 0.82309 0.22286 0.82906 0.0
C411 C 0.80367 0.2115 0.02435 0.0
C412 C 0.80503 0.21935 0.94869 0.0
C413 C 0.81259 0.24643 0.73178 0.0
C414 C 0.81068 0.23802 0.80714 0.0
H415 H 0.75992 0.19327 0.1652 0.0
H416 H 0.76005 0.1964 0.03515 0.0
H417 H 0.83005 0.20196 0.91499 0.0
H418 H 0.85719 0.26518 0.59272 0.0
H419 H 0.85617 0.26103 0.72258 0.0
C420 C 0.58921 0.82207 0.43271 0.0
C421 C 0.61335 0.82903 0.47079 0.0
C422 C 0.58965 0.82349 0.35841 0.0
C423 C 0.63746 0.86538 0.22262 0.0
H424 H 0.57946 0.81834 0.09079 0.0
C425 C 0.64343 0.87766 0.91756 0.0
C426 C 0.61908 0.87024 0.87993 0.0
C427 C 0.64305 0.87541 -0.00832 0.0
C428 C 0.59553 0.83188 0.12742 0.0
H429 H 0.65614 0.84026 0.46189 0.0
H430 H 0.65693 0.84279 0.33098 0.0
H431 H 0.57844 0.80326 0.21372 0.0
H432 H 0.57589 0.85739 0.88988 0.0
H433 H 0.57529 0.85368 0.02042 0.0
H434 H 0.65445 0.89409 0.13656 0.0
C435 C 0.63781 0.83654 0.3589 0.0
C436 C 0.59512 0.82309 0.19728 0.0
C437 C 0.63731 0.83487 0.43347 0.0
C438 C 0.59491 0.86315 0.91785 0.0
C439 C 0.5945 0.86075 -0.00776 0.0
C440 C 0.63784 0.87419 0.15281 0.0
C441 C 0.61428 0.83205 0.32124 0.0
C442 C 0.61606 0.83979 0.24541 0.0
C443 C 0.61831 0.86565 0.02921 0.0
C444 C 0.61685 0.85754 0.1047 0.0
H445 H 0.57041 0.81725 0.46055 0.0
H446 H 0.57124 0.81997 0.33067 0.0
H447 H 0.6535 0.87893 0.25932 0.0
H448 H 0.66241 0.88345 0.88937 0.0
H449 H 0.6617 0.87931 0.01882 0.0
C450 C 0.86076 0.63737 0.84656 0.0
C451 C 0.85734 0.61438 0.88473 0.0
C452 C 0.85855 0.63635 0.77229 0.0
C453 C 0.82085 0.58516 0.63669 0.0
H454 H 0.86124 0.64497 0.50391 0.0
C455 C 0.80875 0.57636 0.33069 0.0
C456 C 0.81244 0.59954 0.29297 0.0
C457 C 0.81116 0.57725 0.40494 0.0
C458 C 0.84951 0.62829 0.54078 0.0
H459 H 0.85195 0.57345 0.87523 0.0
H460 H 0.84831 0.5718 0.74489 0.0
H461 H 0.87722 0.64927 0.62722 0.0
H462 H 0.81839 0.64067 0.30336 0.0
H463 H 0.82229 0.64206 0.43357 0.0
H464 H 0.79311 0.56421 0.55029 0.0
C465 C 0.85213 0.59034 0.77272 0.0
C466 C 0.85883 0.63065 0.61094 0.0
C467 C 0.85444 0.5914 0.84712 0.0
C468 C 0.81573 0.62259 0.33108 0.0
C469 C 0.81819 0.62349 0.40542 0.0
C470 C 0.81153 0.5828 0.56653 0.0
C471 C 0.8529 0.61232 0.73519 0.0
C472 C 0.84457 0.60911 0.65943 0.0
C473 C 0.81724 0.60133 0.44245 0.0
C474 C 0.82575 0.60438 0.51806 0.0
H475 H 0.86328 0.65548 0.87426 0.0
H476 H 0.85924 0.65359 0.74458 0.0
H477 H 0.80913 0.5685 0.67361 0.0
H478 H 0.80589 0.55819 0.30263 0.0
H479 H 0.81029 0.55986 0.43224 0.0
C480 C 0.19489 0.79894 0.6861 0.0
C481 C 0.18908 0.77501 0.6481 0.0
C482 C 0.19758 0.79978 0.76032 0.0
C483 C 0.18735 0.75817 0.92175 0.0
H484 H 0.25615 0.82134 0.98166 0.0
C485 C 0.2286 0.76336 0.20227 0.0
C486 C 0.23351 0.7871 0.23981 0.0
C487 C 0.22652 0.76248 0.12788 0.0
C488 C 0.23689 0.80366 0.96558 0.0
H489 H 0.17841 0.73232 0.65813 0.0
H490 H 0.18329 0.73389 0.78761 0.0
H491 H 0.24059 0.81806 0.8582 0.0
H492 H 0.24331 0.82952 0.22905 0.0
H493 H 0.23958 0.82791 0.09924 0.0
H494 H 0.18366 0.74378 0.02914 0.0
C495 C 0.1859 0.752 0.76019 0.0
C496 C 0.22784 0.80189 0.89534 0.0
C497 C 0.18318 0.75114 0.686 0.0
C498 C 0.2392 0.81083 0.2015 0.0
C499 C 0.23716 0.80996 0.12714 0.0
C500 C 0.19642 0.75993 -0.00804 0.0
C501 C 0.19443 0.77671 0.79745 0.0
C502 C 0.20295 0.77917 0.87293 0.0
C503 C 0.22947 0.78537 0.09018 0.0
C504 C 0.22125 0.78269 0.01442 0.0
H505 H 0.1992 0.81758 0.65833 0.0
H506 H 0.20353 0.81889 0.78827 0.0
H507 H 0.16805 0.74053 0.9058 0.0
H508 H 0.2245 0.74485 0.23037 0.0
H509 H 0.22115 0.74347 0.10016 0.0
C510 C 0.44214 0.26658 0.52034 0.0
C511 C 0.46723 0.27957 0.55738 0.0
C512 C 0.44174 0.26421 0.44614 0.0
C513 C 0.48365 0.28615 0.28212 0.0
H514 H 0.43507 0.21049 0.22382 0.0
C515 C 0.49042 0.25119 0.00144 0.0
C516 C 0.46539 0.23799 0.96421 0.0
C517 C 0.49071 0.25365 0.0756 0.0
C518 C 0.44859 0.23169 0.23928 0.0
H519 H 0.51148 0.30255 0.54644 0.0
H520 H 0.51083 0.29826 0.41602 0.0
H521 H 0.43498 0.22411 0.34794 0.0
H522 H 0.42113 0.2148 0.97473 0.0
H523 H 0.42157 0.21926 0.10511 0.0
H524 H 0.49725 0.29372 0.17347 0.0
C525 C 0.4915 0.28999 0.44433 0.0
C526 C 0.44844 0.23956 0.31007 0.0
C527 C 0.4919 0.29254 0.51884 0.0
C528 C 0.44067 0.22494 0.00253 0.0
C529 C 0.44096 0.2276 0.077 0.0
C530 C 0.48379 0.27827 0.21132 0.0
C531 C 0.46641 0.27462 0.4079 0.0
C532 C 0.46594 0.26687 0.33208 0.0
C533 C 0.46598 0.24315 0.1136 0.0
C534 C 0.46632 0.25095 0.18933 0.0
H535 H 0.42283 0.2567 0.5491 0.0
H536 H 0.42212 0.25293 0.41907 0.0
H537 H 0.49718 0.30734 0.29761 0.0
H538 H 0.50976 0.26116 0.97281 0.0
H539 H 0.51029 0.26507 0.10279 0.0
C540 C 0.22625 0.50243 0.12182 0.0
C541 C 0.25448 0.5113 0.12025 0.0
C542 C 0.21697 0.52004 0.14605 0.0
C543 C 0.24152 0.59412 0.18341 0.0
H544 H 0.17621 0.56542 0.30115 0.0
C545 C 0.20604 0.66632 0.30144 0.0
C546 C 0.19735 0.66169 0.37332 0.0
C547 C 0.20935 0.6467 0.263 0.0
C548 C 0.19458 0.57384 0.26862 0.0
H549 H 0.29502 0.54553 0.14394 0.0
H550 H 0.27894 0.57573 0.18763 0.0
H551 H 0.18995 0.53409 0.25061 0.0
H552 H 0.18363 0.63177 0.45911 0.0
H553 H 0.19039 0.5983 0.3936 0.0
H554 H 0.24706 0.63397 0.20444 0.0
C555 C 0.26389 0.55552 0.16842 0.0
C556 C 0.20228 0.55577 0.23877 0.0
C557 C 0.27314 0.53805 0.14381 0.0
C558 C 0.19089 0.63639 0.40446 0.0
C559 C 0.19439 0.61691 0.36631 0.0
C560 C 0.23397 0.61218 0.2137 0.0
C561 C 0.2357 0.54686 0.16962 0.0
C562 C 0.22614 0.56572 0.19676 0.0
C563 C 0.20419 0.62199 0.29547 0.0
C564 C 0.21063 0.60237 0.2577 0.0
H565 H 0.21133 0.48195 0.10388 0.0
H566 H 0.19513 0.51271 0.14554 0.0
H567 H 0.25971 0.60254 0.15017 0.0
H568 H 0.21127 0.68548 0.27538 0.0
H569 H 0.21641 0.65116 0.20811 0.0
C570 C 0.65882 0.19231 0.40385 0.0
C571 C 0.68488 0.20652 0.43602 0.0
C572 C 0.63566 0.18973 0.43895 0.0
C573 C 0.61047 0.1996 0.61641 0.0
H574 H 0.55822 0.20776 0.49843 0.0
C575 C 0.53892 0.23732 0.72368 0.0
C576 C 0.51185 0.22522 0.69779 0.0
C577 C 0.55723 0.22966 0.69622 0.0
C578 C 0.57233 0.20496 0.53205 0.0
H579 H 0.70699 0.22869 0.531 0.0
H580 H 0.66681 0.22494 0.59181 0.0
H581 H 0.59591 0.20516 0.44201 0.0
H582 H 0.48248 0.19497 0.62417 0.0
H583 H 0.51488 0.18182 0.57469 0.0
H584 H 0.58741 0.20077 0.70662 0.0
C585 C 0.66401 0.21515 0.54002 0.0
C586 C 0.59402 0.20344 0.49972 0.0
C587 C 0.68714 0.2174 0.50515 0.0
C588 C 0.50318 0.20454 0.64532 0.0
C589 C 0.52175 0.19717 0.61676 0.0
C590 C 0.58894 0.20143 0.64872 0.0
C591 C 0.63797 0.20163 0.50693 0.0
C592 C 0.61367 0.20114 0.54144 0.0
C593 C 0.5491 0.20995 0.64134 0.0
C594 C 0.56986 0.20454 0.60696 0.0
H595 H 0.65637 0.1833 0.35109 0.0
H596 H 0.61595 0.17857 0.41234 0.0
H597 H 0.62475 0.19724 0.65039 0.0
H598 H 0.5462 0.25327 0.76428 0.0
H599 H 0.57816 0.24009 0.71585 0.0
C600 C 0.39498 0.57872 0.92098 0.0
C601 C 0.40164 0.56959 -0.01619 0.0
C602 C 0.41504 0.60182 0.88474 0.0
C603 C 0.48946 0.6467 0.85973 0.0
H604 H 0.47079 0.70324 0.82246 0.0
C605 C 0.57116 0.75758 0.77802 0.0
C606 C 0.56291 0.77228 0.73356 0.0
C607 C 0.55185 0.73156 0.80366 0.0
C608 C 0.47631 0.68756 0.83095 0.0
H609 H 0.43473 0.5766 0.05577 0.0
H610 H 0.4699 0.61678 -0.00814 0.0
H611 H 0.4365 0.65964 0.87288 0.0
H612 H 0.52826 0.77067 0.67809 0.0
H613 H 0.49499 0.72509 0.71981 0.0
H614 H 0.52918 0.6744 0.81688 0.0
C615 C 0.44914 0.60618 0.971 0.0
C616 C 0.45659 0.66255 0.86021 0.0
C617 C 0.429 0.58333 0.00783 0.0
C618 C 0.53521 0.76002 0.71306 0.0
C619 C 0.51606 0.73389 0.73757 0.0
C620 C 0.50914 0.67162 0.82939 0.0
C621 C 0.44225 0.61601 0.90994 0.0
C622 C 0.46297 0.64192 0.87534 0.0
C623 C 0.52393 0.71948 0.78447 0.0
C624 C 0.50289 0.69249 0.81492 0.0
H625 H 0.37405 0.56868 0.90151 0.0
H626 H 0.40919 0.60886 0.83751 0.0
H627 H 0.49489 0.63107 0.87051 0.0
H628 H 0.59236 0.76656 0.79494 0.0
H629 H 0.55874 0.72133 0.84024 0.0
C630 C 0.86123 0.32798 0.31232 0.0
C631 C 0.8352 0.3052 0.29848 0.0
C632 C 0.86827 0.35389 0.28477 0.0
C633 C 0.83402 0.39098 0.21549 0.0
H634 H 0.90649 0.44531 0.14903 0.0
C635 C 0.8466 0.48074 0.058 0.0
C636 C 0.8576 0.50422 0.10161 0.0
C637 C 0.85157 0.45937 0.07349 0.0
C638 C 0.88625 0.43024 0.16768 0.0
H639 H 0.79695 0.29109 0.24099 0.0
H640 H 0.80947 0.33553 0.19087 0.0
H641 H 0.89865 0.40087 0.19467 0.0
H642 H 0.88436 0.52516 0.19117 0.0
H643 H 0.89324 0.48746 0.21874 0.0
H644 H 0.82141 0.4198 0.18687 0.0
C645 C 0.82409 0.33399 0.2255 0.0
C646 C 0.88174 0.40493 0.19407 0.0
C647 C 0.81693 0.30842 0.25396 0.0
C648 C 0.87612 0.50738 0.15622 0.0
C649 C 0.8811 0.48585 0.17201 0.0
C650 C 0.83843 0.41587 0.18842 0.0
C651 C 0.8495 0.35726 0.24213 0.0
C652 C 0.85539 0.38483 0.21724 0.0
C653 C 0.86759 0.46115 0.13304 0.0
C654 C 0.8644 0.43554 0.16351 0.0
H655 H 0.87574 0.32596 0.34628 0.0
H656 H 0.88798 0.37135 0.29875 0.0
H657 H 0.81371 0.3765 0.23501 0.0
H658 H 0.83202 0.47789 0.01627 0.0
H659 H 0.84084 0.44042 0.04306 0.0
C660 C 0.29067 0.78419 0.55109 0.0
C661 C 0.28608 0.80476 0.52315 0.0
C662 C 0.31632 0.79066 0.57798 0.0
C663 C 0.3832 0.84791 0.64008 0.0
H664 H 0.40912 0.79814 0.58481 0.0
C665 C 0.49696 0.87673 0.64028 0.0
C666 C 0.50375 0.85633 0.65509 0.0
C667 C 0.46964 0.87048 0.63961 0.0
C668 C 0.40203 0.81197 0.60207 0.0
H669 H 0.30463 0.84844 0.50349 0.0
H670 H 0.34997 0.85977 0.54915 0.0
H671 H 0.36325 0.78774 0.55081 0.0
H672 H 0.4875 0.81388 0.68558 0.0
H673 H 0.43945 0.80283 0.68503 0.0
H674 H 0.42254 0.87254 0.68954 0.0
C675 C 0.33348 0.83862 0.55102 0.0
C676 C 0.3757 0.80606 0.58236 0.0
C677 C 0.3076 0.83215 0.52444 0.0
C678 C 0.4828 0.82997 0.67409 0.0
C679 C 0.45534 0.82363 0.67306 0.0
C680 C 0.40965 0.85388 0.65968 0.0
C681 C 0.3382 0.81784 0.57715 0.0
C682 C 0.366 0.82403 0.6006 0.0
C683 C 0.44844 0.84364 0.65357 0.0
C684 C 0.41944 0.83608 0.64027 0.0
H685 H 0.27443 0.76291 0.55203 0.0
H686 H 0.31902 0.77423 0.59918 0.0
H687 H 0.37623 0.86198 0.65583 0.0
H688 H 0.51279 0.89733 0.62641 0.0
H689 H 0.46509 0.88635 0.62404 0.0
C690 C 0.75177 0.53855 0.9745 0.0
C691 C 0.75836 0.56357 0.00785 0.0
C692 C 0.72597 0.52204 0.94416 0.0
C693 C 0.65481 0.50236 0.96293 0.0
H694 H 0.64827 0.46433 0.78375 0.0
C695 C 0.57444 0.39071 0.90992 0.0
C696 C 0.56485 0.38155 0.84023 0.0
C697 C 0.59297 0.41835 0.92342 0.0
C698 C 0.64948 0.47513 0.83301 0.0
H699 H 0.74306 0.59104 0.03493 0.0
H700 H 0.69713 0.56139 -0.01674 0.0
H701 H 0.69222 0.50373 0.81764 0.0
H702 H 0.5656 0.39405 0.7306 0.0
H703 H 0.59861 0.44286 0.75369 0.0
H704 H 0.6124 0.47274 0.98016 0.0
C705 C 0.71232 0.55494 0.98016 0.0
C706 C 0.67475 0.49757 0.8527 0.0
C707 C 0.73852 0.57185 0.00961 0.0
C708 C 0.57268 0.4008 0.78478 0.0
C709 C 0.59164 0.42858 0.79803 0.0
C710 C 0.62952 0.47975 0.94345 0.0
C711 C 0.70587 0.52988 0.94702 0.0
C712 C 0.67795 0.51067 0.91918 0.0
C713 C 0.60265 0.43747 0.8672 0.0
C714 C 0.62689 0.46518 0.87964 0.0
H715 H 0.76659 0.5316 0.9718 0.0
H716 H 0.7215 0.50265 0.9201 0.0
H717 H 0.65669 0.51206 0.01451 0.0
H718 H 0.56859 0.37612 0.95337 0.0
H719 H 0.6012 0.42433 0.97708 0.0
loop_
_geom_bond_atom_site_label_1
_geom_bond_atom_site_label_2
_geom_bond_distance
_geom_bond_site_symmetry_2
_ccdc_geom_bond_type
Co0 N5 2.057 . S
Co0 O17 2.021 . S
Co0 O20 2.062 . S
Co0 O24 2.117 1_556 S
Co0 O25 2.020 1_556 S
C1 O21 1.259 . S
C1 O24 1.258 . S
Co2 N11 2.057 . S
Co2 O18 2.117 1_554 S
Co2 O19 2.020 1_554 S
Co2 O21 2.021 . S
Co2 O26 2.062 . S
C3 N5 1.316 . S
C3 N6 1.347 . S
C3 H8 0.931 . S
C4 N5 1.375 . S
C4 C7 1.350 . S
C4 H9 0.930 1_556 S
N5 Co0 2.057 . S
N5 C3 1.316 . S
N5 C4 1.375 . S
N6 C3 1.347 . S
N6 C7 1.373 . S
C7 C4 1.350 . S
C7 N6 1.373 . S
C7 H28 0.931 . S
H8 C3 0.931 . S
H9 C4 0.930 1_554 S
C10 O17 1.259 . S
C10 O18 1.258 . S
N11 Co2 2.057 . S
N11 C12 1.316 . S
N11 C13 1.375 . S
C12 N11 1.316 . S
C12 N14 1.347 . S
C12 H23 0.931 . S
C13 N11 1.375 . S
C13 C15 1.350 . S
C13 H22 0.933 . S
N14 C12 1.347 . S
N14 C15 1.373 . S
C15 C13 1.350 . S
C15 N14 1.373 . S
C15 H29 0.931 . S
C16 O19 1.256 . S
C16 O20 1.255 . S
O17 Co0 2.021 . S
O17 C10 1.259 . S
O18 Co2 2.117 1_556 S
O18 C10 1.258 . S
O19 Co2 2.020 1_556 S
O19 C16 1.256 . S
O20 Co0 2.062 . S
O20 C16 1.255 . S
O21 C1 1.259 . S
O21 Co2 2.021 . S
H22 C13 0.933 . S
H23 C12 0.931 . S
O24 Co0 2.117 1_554 S
O24 C1 1.258 . S
O25 Co0 2.020 1_554 S
O25 C27 1.256 . S
O26 Co2 2.062 . S
O26 C27 1.255 . S
C27 O25 1.256 . S
C27 O26 1.255 . S
H28 C7 0.931 . S
H29 C15 0.931 . S
Co30 N35 2.057 . S
Co30 O47 2.021 . S
Co30 O50 2.062 . S
Co30 O54 2.117 . S
Co30 O55 2.020 . S
C31 O51 1.259 . S
C31 O54 1.258 . S
Co32 N41 2.057 . S
Co32 O48 2.117 . S
Co32 O49 2.020 . S
Co32 O51 2.021 . S
Co32 O56 2.062 . S
C33 N35 1.316 . S
C33 N36 1.347 . S
C33 H38 0.931 . S
C34 N35 1.375 . S
C34 C37 1.350 . S
C34 H39 0.930 . S
N35 Co30 2.057 . S
N35 C33 1.316 . S
N35 C34 1.375 . S
N36 C33 1.347 . S
N36 C37 1.373 . S
C37 C34 1.350 . S
C37 N36 1.373 . S
C37 H58 0.931 . S
H38 C33 0.931 . S
H39 C34 0.930 . S
C40 O47 1.259 . S
C40 O48 1.258 . S
N41 Co32 2.057 . S
N41 C42 1.316 . S
N41 C43 1.375 . S
C42 N41 1.316 . S
C42 N44 1.347 . S
C42 H53 0.931 . S
C43 N41 1.375 . S
C43 C45 1.350 . S
C43 H52 0.930 . S
N44 C42 1.347 . S
N44 C45 1.373 . S
C45 C43 1.350 . S
C45 N44 1.373 . S
C45 H59 0.931 . S
C46 O49 1.256 . S
C46 O50 1.255 . S
O47 Co30 2.021 . S
O47 C40 1.259 . S
O48 Co32 2.117 . S
O48 C40 1.258 . S
O49 Co32 2.020 . S
O49 C46 1.256 . S
O50 Co30 2.062 . S
O50 C46 1.255 . S
O51 C31 1.259 . S
O51 Co32 2.021 . S
H52 C43 0.930 . S
H53 C42 0.931 . S
O54 Co30 2.117 . S
O54 C31 1.258 . S
O55 Co30 2.020 . S
O55 C57 1.256 . S
O56 Co32 2.062 . S
O56 C57 1.255 . S
C57 O55 1.256 . S
C57 O56 1.255 . S
H58 C37 0.931 . S
H59 C45 0.931 . S
Co60 N65 2.057 . S
Co60 O77 2.021 . S
Co60 O80 2.062 . S
Co60 O84 2.117 . S
Co60 O85 2.020 . S
C61 O81 1.259 . S
C61 O84 1.258 . S
Co62 N71 2.057 . S
Co62 O78 2.117 . S
Co62 O79 2.020 . S
Co62 O81 2.021 . S
Co62 O86 2.062 . S
C63 N65 1.316 . S
C63 N66 1.347 . S
C63 H68 0.931 . S
C64 N65 1.375 . S
C64 C67 1.350 . S
C64 H69 0.930 . S
N65 Co60 2.057 . S
N65 C63 1.316 . S
N65 C64 1.375 . S
N66 C63 1.347 . S
N66 C67 1.373 . S
C67 C64 1.350 . S
C67 N66 1.373 . S
C67 H88 0.931 . S
H68 C63 0.931 . S
H69 C64 0.930 . S
C70 O77 1.259 . S
C70 O78 1.258 . S
N71 Co62 2.057 . S
N71 C72 1.316 . S
N71 C73 1.375 . S
C72 N71 1.316 . S
C72 N74 1.347 . S
C72 H83 0.931 . S
C73 N71 1.375 . S
C73 C75 1.350 . S
C73 H82 0.930 . S
N74 C72 1.347 . S
N74 C75 1.373 . S
C75 C73 1.350 . S
C75 N74 1.373 . S
C75 H89 0.931 . S
C76 O79 1.256 . S
C76 O80 1.255 . S
O77 Co60 2.021 . S
O77 C70 1.259 . S
O78 Co62 2.117 . S
O78 C70 1.258 . S
O79 Co62 2.020 . S
O79 C76 1.256 . S
O80 Co60 2.062 . S
O80 C76 1.255 . S
O81 C61 1.259 . S
O81 Co62 2.021 . S
H82 C73 0.930 . S
H83 C72 0.931 . S
O84 Co60 2.117 . S
O84 C61 1.258 . S
O85 Co60 2.020 . S
O85 C87 1.256 . S
O86 Co62 2.062 . S
O86 C87 1.255 . S
C87 O85 1.256 . S
C87 O86 1.255 . S
H88 C67 0.931 . S
H89 C75 0.931 . S
Co90 N95 2.057 . S
Co90 O107 2.021 . S
Co90 O110 2.062 . S
Co90 O114 2.117 . S
Co90 O115 2.020 . S
C91 O111 1.259 . S
C91 O114 1.258 . S
Co92 N101 2.057 . S
Co92 O108 2.117 . S
Co92 O109 2.020 . S
Co92 O111 2.021 . S
Co92 O116 2.062 . S
C93 N95 1.316 . S
C93 N96 1.347 . S
C93 H98 0.931 . S
C94 N95 1.375 . S
C94 C97 1.350 . S
C94 H99 0.930 . S
N95 Co90 2.057 . S
N95 C93 1.316 . S
N95 C94 1.375 . S
N96 C93 1.347 . S
N96 C97 1.373 . S
C97 C94 1.350 . S
C97 N96 1.373 . S
C97 H118 0.931 . S
H98 C93 0.931 . S
H99 C94 0.930 . S
C100 O107 1.259 . S
C100 O108 1.258 . S
N101 Co92 2.057 . S
N101 C102 1.316 . S
N101 C103 1.375 . S
C102 N101 1.316 . S
C102 N104 1.347 . S
C102 H113 0.931 . S
C103 N101 1.375 . S
C103 C105 1.350 . S
C103 H112 0.930 . S
N104 C102 1.347 . S
N104 C105 1.373 . S
C105 C103 1.350 . S
C105 N104 1.373 . S
C105 H119 0.931 . S
C106 O109 1.256 . S
C106 O110 1.255 . S
O107 Co90 2.021 . S
O107 C100 1.259 . S
O108 Co92 2.117 . S
O108 C100 1.258 . S
O109 Co92 2.020 . S
O109 C106 1.256 . S
O110 Co90 2.062 . S
O110 C106 1.255 . S
O111 C91 1.259 . S
O111 Co92 2.021 . S
H112 C103 0.930 . S
H113 C102 0.931 . S
O114 Co90 2.117 . S
O114 C91 1.258 . S
O115 Co90 2.020 . S
O115 C117 1.256 . S
O116 Co92 2.062 . S
O116 C117 1.255 . S
C117 O115 1.256 . S
C117 O116 1.255 . S
H118 C97 0.931 . S
H119 C105 0.931 . S
Co120 N125 2.057 . S
Co120 O137 2.021 . S
Co120 O140 2.062 . S
Co120 O144 2.117 . S
Co120 O145 2.020 . S
C121 O141 1.259 . S
C121 O144 1.258 . S
Co122 N131 2.057 . S
Co122 O138 2.117 . S
Co122 O139 2.020 . S
Co122 O141 2.021 . S
Co122 O146 2.062 . S
C123 N125 1.316 . S
C123 N126 1.347 . S
C123 H128 0.931 . S
C124 N125 1.375 . S
C124 C127 1.350 . S
C124 H129 0.930 . S
N125 Co120 2.057 . S
N125 C123 1.316 . S
N125 C124 1.375 . S
N126 C123 1.347 . S
N126 C127 1.373 . S
C127 C124 1.350 . S
C127 N126 1.373 . S
C127 H148 0.931 . S
H128 C123 0.931 . S
H129 C124 0.930 . S
C130 O137 1.259 . S
C130 O138 1.258 . S
N131 Co122 2.057 . S
N131 C132 1.316 . S
N131 C133 1.375 . S
C132 N131 1.316 . S
C132 N134 1.347 . S
C132 H143 0.931 . S
C133 N131 1.375 . S
C133 C135 1.350 . S
C133 H142 0.930 . S
N134 C132 1.347 . S
N134 C135 1.373 . S
C135 C133 1.350 . S
C135 N134 1.373 . S
C135 H149 0.931 . S
C136 O139 1.256 . S
C136 O140 1.255 . S
O137 Co120 2.021 . S
O137 C130 1.259 . S
O138 Co122 2.117 . S
O138 C130 1.258 . S
O139 Co122 2.020 . S
O139 C136 1.256 . S
O140 Co120 2.062 . S
O140 C136 1.255 . S
O141 C121 1.259 . S
O141 Co122 2.021 . S
H142 C133 0.930 . S
H143 C132 0.931 . S
O144 Co120 2.117 . S
O144 C121 1.258 . S
O145 Co120 2.020 . S
O145 C147 1.256 . S
O146 Co122 2.062 . S
O146 C147 1.255 . S
C147 O145 1.256 . S
C147 O146 1.255 . S
H148 C127 0.931 . S
H149 C135 0.931 . S
Co150 N155 2.057 . S
Co150 O167 2.021 . S
Co150 O170 2.062 . S
Co150 O174 2.117 . S
Co150 O175 2.020 . S
C151 O171 1.259 . S
C151 O174 1.258 . S
Co152 N161 2.057 . S
Co152 O168 2.117 . S
Co152 O169 2.020 . S
Co152 O171 2.021 . S
Co152 O176 2.062 . S
C153 N155 1.316 . S
C153 N156 1.347 . S
C153 H158 0.931 . S
C154 N155 1.375 . S
C154 C157 1.350 . S
C154 H159 0.930 . S
N155 Co150 2.057 . S
N155 C153 1.316 . S
N155 C154 1.375 . S
N156 C153 1.347 . S
N156 C157 1.373 . S
C157 C154 1.350 . S
C157 N156 1.373 . S
C157 H178 0.931 . S
H158 C153 0.931 . S
H159 C154 0.930 . S
C160 O167 1.259 . S
C160 O168 1.258 . S
N161 Co152 2.057 . S
N161 C162 1.316 . S
N161 C163 1.375 . S
C162 N161 1.316 . S
C162 N164 1.347 . S
C162 H173 0.931 . S
C163 N161 1.375 . S
C163 C165 1.350 . S
C163 H172 0.930 . S
N164 C162 1.347 . S
N164 C165 1.373 . S
C165 C163 1.350 . S
C165 N164 1.373 . S
C165 H179 0.931 . S
C166 O169 1.256 . S
C166 O170 1.255 . S
O167 Co150 2.021 . S
O167 C160 1.259 . S
O168 Co152 2.117 . S
O168 C160 1.258 . S
O169 Co152 2.020 . S
O169 C166 1.256 . S
O170 Co150 2.062 . S
O170 C166 1.255 . S
O171 C151 1.259 . S
O171 Co152 2.021 . S
H172 C163 0.930 . S
H173 C162 0.931 . S
O174 Co150 2.117 . S
O174 C151 1.258 . S
O175 Co150 2.020 . S
O175 C177 1.256 . S
O176 Co152 2.062 . S
O176 C177 1.255 . S
C177 O175 1.256 . S
C177 O176 1.255 . S
H178 C157 0.931 . S
H179 C165 0.931 . S
C180 C181 1.349 . S
C180 C182 1.327 . S
C180 H205 0.950 . S
C181 C180 1.349 . S
C181 C197 1.349 . S
C182 C180 1.327 . S
C182 C201 1.429 . S
C182 H206 0.950 . S
C183 C200 1.574 . S
C183 C202 1.368 . S
C183 H207 0.949 1_556 S
H184 C188 0.949 . S
C185 C186 1.349 1_554 S
C185 C187 1.327 . S
C185 H208 0.950 . S
C186 C185 1.349 1_556 S
C186 C198 1.349 . S
C187 C185 1.327 . S
C187 C203 1.429 1_554 S
C187 H209 0.950 . S
C188 H184 0.949 . S
C188 C196 1.574 . S
C188 C204 1.368 . S
H189 C197 0.950 . S
H190 C195 0.950 . S
H191 C196 0.949 . S
H192 C198 0.950 . S
H193 C199 0.950 . S
H194 C200 0.949 1_554 S
C195 H190 0.950 . S
C195 C197 1.327 . S
C195 C201 1.429 . S
C196 C188 1.574 . S
C196 H191 0.949 . S
C196 C202 1.368 . S
C197 C181 1.349 . S
C197 H189 0.950 . S
C197 C195 1.327 . S
C198 C186 1.349 . S
C198 H192 0.950 . S
C198 C199 1.327 . S
C199 H193 0.950 . S
C199 C198 1.327 . S
C199 C203 1.429 . S
C200 C183 1.574 . S
C200 H194 0.949 1_556 S
C200 C204 1.368 . S
C201 C182 1.429 . S
C201 C195 1.429 . S
C201 C202 1.523 . S
C202 C183 1.368 . S
C202 C196 1.368 . S
C202 C201 1.523 . S
C203 C187 1.429 1_556 S
C203 C199 1.429 . S
C203 C204 1.523 . S
C204 C188 1.368 . S
C204 C200 1.368 . S
C204 C203 1.523 . S
H205 C180 0.950 . S
H206 C182 0.950 . S
H207 C183 0.949 1_554 S
H208 C185 0.950 . S
H209 C187 0.950 . S
C210 C211 1.349 . S
C210 C212 1.327 . S
C210 H235 0.950 . S
C211 C210 1.349 . S
C211 C227 1.349 . S
C212 C210 1.327 . S
C212 C231 1.429 . S
C212 H236 0.950 . S
C213 C230 1.574 . S
C213 C232 1.368 . S
C213 H237 0.949 . S
H214 C218 0.949 1_655 S
C215 C216 1.349 . S
C215 C217 1.327 . S
C215 H238 0.950 . S
C216 C215 1.349 . S
C216 C228 1.349 . S
C217 C215 1.327 . S
C217 C233 1.429 . S
C217 H239 0.950 . S
C218 H214 0.949 1_455 S
C218 C226 1.574 . S
C218 C234 1.368 1_455 S
H219 C227 0.950 . S
H220 C225 0.950 . S
H221 C226 0.949 . S
H222 C228 0.950 . S
H223 C229 0.950 . S
H224 C230 0.949 . S
C225 H220 0.950 . S
C225 C227 1.327 . S
C225 C231 1.429 . S
C226 C218 1.574 . S
C226 H221 0.949 . S
C226 C232 1.368 . S
C227 C211 1.349 . S
C227 H219 0.950 . S
C227 C225 1.327 . S
C228 C216 1.349 . S
C228 H222 0.950 . S
C228 C229 1.327 . S
C229 H223 0.950 . S
C229 C228 1.327 . S
C229 C233 1.429 . S
C230 C213 1.574 . S
C230 H224 0.949 . S
C230 C234 1.368 1_455 S
C231 C212 1.429 . S
C231 C225 1.429 . S
C231 C232 1.523 . S
C232 C213 1.368 . S
C232 C226 1.368 . S
C232 C231 1.523 . S
C233 C217 1.429 . S
C233 C229 1.429 . S
C233 C234 1.523 . S
C234 C218 1.368 1_655 S
C234 C230 1.368 1_655 S
C234 C233 1.523 . S
H235 C210 0.950 . S
H236 C212 0.950 . S
H237 C213 0.949 . S
H238 C215 0.950 . S
H239 C217 0.950 . S
C240 C241 1.349 . S
C240 C242 1.327 . S
C240 H265 0.950 . S
C241 C240 1.349 . S
C241 C257 1.349 . S
C242 C240 1.327 . S
C242 C261 1.429 . S
C242 H266 0.950 . S
C243 C260 1.574 . S
C243 C262 1.368 . S
C243 H267 0.949 . S
H244 C248 0.948 1_565 S
C245 C246 1.349 . S
C245 C247 1.327 . S
C245 H268 0.950 . S
C246 C245 1.349 . S
C246 C258 1.349 . S
C247 C245 1.327 . S
C247 C263 1.429 . S
C247 H269 0.950 . S
C248 H244 0.948 1_545 S
C248 C256 1.574 . S
C248 C264 1.368 1_545 S
H249 C257 0.950 . S
H250 C255 0.950 . S
H251 C256 0.949 . S
H252 C258 0.950 . S
H253 C259 0.950 . S
H254 C260 0.949 1_565 S
C255 H250 0.950 . S
C255 C257 1.327 . S
C255 C261 1.429 . S
C256 C248 1.574 . S
C256 H251 0.949 . S
C256 C262 1.368 . S
C257 C241 1.349 . S
C257 H249 0.950 . S
C257 C255 1.327 . S
C258 C246 1.349 . S
C258 H252 0.950 . S
C258 C259 1.327 . S
C259 H253 0.950 . S
C259 C258 1.327 . S
C259 C263 1.429 . S
C260 C243 1.574 . S
C260 H254 0.949 1_545 S
C260 C264 1.368 1_545 S
C261 C242 1.429 . S
C261 C255 1.429 . S
C261 C262 1.523 . S
C262 C243 1.368 . S
C262 C256 1.368 . S
C262 C261 1.523 . S
C263 C247 1.429 . S
C263 C259 1.429 . S
C263 C264 1.523 . S
C264 C248 1.368 1_565 S
C264 C260 1.368 1_565 S
C264 C263 1.523 . S
H265 C240 0.950 . S
H266 C242 0.950 . S
H267 C243 0.949 . S
H268 C245 0.950 . S
H269 C247 0.950 . S
C270 C271 1.349 . S
C270 C272 1.327 . S
C270 H295 0.950 . S
C271 C270 1.349 . S
C271 C287 1.349 . S
C272 C270 1.327 . S
C272 C291 1.429 . S
C272 H296 0.950 . S
C273 C290 1.574 . S
C273 C292 1.368 . S
C273 H297 0.949 . S
H274 C278 0.949 1_554 S
C275 C276 1.349 1_556 S
C275 C277 1.327 . S
C275 H298 0.950 . S
C276 C275 1.349 1_554 S
C276 C288 1.349 . S
C277 C275 1.327 . S
C277 C293 1.429 . S
C277 H299 0.950 . S
C278 H274 0.949 1_556 S
C278 C286 1.574 . S
C278 C294 1.368 . S
H279 C287 0.950 . S
H280 C285 0.950 . S
H281 C286 0.949 . S
H282 C288 0.950 . S
H283 C289 0.950 . S
H284 C290 0.949 . S
C285 H280 0.950 . S
C285 C287 1.327 . S
C285 C291 1.429 . S
C286 C278 1.574 . S
C286 H281 0.949 . S
C286 C292 1.368 . S
C287 C271 1.349 . S
C287 H279 0.950 . S
C287 C285 1.327 . S
C288 C276 1.349 . S
C288 H282 0.950 . S
C288 C289 1.327 . S
C289 H283 0.950 . S
C289 C288 1.327 . S
C289 C293 1.429 1_554 S
C290 C273 1.574 . S
C290 H284 0.949 . S
C290 C294 1.368 . S
C291 C272 1.429 . S
C291 C285 1.429 . S
C291 C292 1.523 . S
C292 C273 1.368 . S
C292 C286 1.368 . S
C292 C291 1.523 . S
C293 C277 1.429 . S
C293 C289 1.429 1_556 S
C293 C294 1.523 . S
C294 C278 1.368 . S
C294 C290 1.368 . S
C294 C293 1.523 . S
H295 C270 0.950 . S
H296 C272 0.950 . S
H297 C273 0.949 . S
H298 C275 0.950 . S
H299 C277 0.950 . S
C300 C301 1.349 . S
C300 C302 1.327 . S
C300 H325 0.950 . S
C301 C300 1.349 . S
C301 C317 1.349 . S
C302 C300 1.327 . S
C302 C321 1.429 . S
C302 H326 0.950 . S
C303 C320 1.574 . S
C303 C322 1.368 . S
C303 H327 0.949 . S
H304 C308 0.949 . S
C305 C306 1.349 . S
C305 C307 1.327 . S
C305 H328 0.950 . S
C306 C305 1.349 . S
C306 C318 1.349 . S
C307 C305 1.327 . S
C307 C323 1.429 . S
C307 H329 0.950 . S
C308 H304 0.949 . S
C308 C316 1.574 . S
C308 C324 1.368 1_455 S
H309 C317 0.950 . S
H310 C315 0.950 . S
H311 C316 0.949 . S
H312 C318 0.950 . S
H313 C319 0.950 . S
H314 C320 0.949 1_655 S
C315 H310 0.950 . S
C315 C317 1.327 . S
C315 C321 1.429 . S
C316 C308 1.574 . S
C316 H311 0.949 . S
C316 C322 1.368 . S
C317 C301 1.349 . S
C317 H309 0.950 . S
C317 C315 1.327 . S
C318 C306 1.349 . S
C318 H312 0.950 . S
C318 C319 1.327 . S
C319 H313 0.950 . S
C319 C318 1.327 . S
C319 C323 1.429 . S
C320 C303 1.574 . S
C320 H314 0.949 1_455 S
C320 C324 1.368 1_455 S
C321 C302 1.429 . S
C321 C315 1.429 . S
C321 C322 1.523 . S
C322 C303 1.368 . S
C322 C316 1.368 . S
C322 C321 1.523 . S
C323 C307 1.429 . S
C323 C319 1.429 . S
C323 C324 1.523 . S
C324 C308 1.368 1_655 S
C324 C320 1.368 1_655 S
C324 C323 1.523 . S
H325 C300 0.950 . S
H326 C302 0.950 . S
H327 C303 0.949 . S
H328 C305 0.950 . S
H329 C307 0.950 . S
C330 C331 1.349 . S
C330 C332 1.327 . S
C330 H355 0.950 . S
C331 C330 1.349 . S
C331 C347 1.349 . S
C332 C330 1.327 . S
C332 C351 1.429 . S
C332 H356 0.950 . S
C333 C350 1.574 . S
C333 C352 1.368 . S
C333 H357 0.949 . S
H334 C338 0.949 . S
C335 C336 1.349 . S
C335 C337 1.327 . S
C335 H358 0.950 . S
C336 C335 1.349 . S
C336 C348 1.349 . S
C337 C335 1.327 . S
C337 C353 1.429 . S
C337 H359 0.950 . S
C338 H334 0.949 . S
C338 C346 1.574 1_565 S
C338 C354 1.368 . S
H339 C347 0.950 . S
H340 C345 0.950 . S
H341 C346 0.949 . S
H342 C348 0.950 . S
H343 C349 0.950 . S
H344 C350 0.949 . S
C345 H340 0.950 . S
C345 C347 1.327 . S
C345 C351 1.429 . S
C346 C338 1.574 1_545 S
C346 H341 0.949 . S
C346 C352 1.368 . S
C347 C331 1.349 . S
C347 H339 0.950 . S
C347 C345 1.327 . S
C348 C336 1.349 . S
C348 H342 0.950 . S
C348 C349 1.327 . S
C349 H343 0.950 . S
C349 C348 1.327 . S
C349 C353 1.429 . S
C350 C333 1.574 . S
C350 H344 0.949 . S
C350 C354 1.368 1_545 S
C351 C332 1.429 . S
C351 C345 1.429 . S
C351 C352 1.523 . S
C352 C333 1.368 . S
C352 C346 1.368 . S
C352 C351 1.523 . S
C353 C337 1.429 . S
C353 C349 1.429 . S
C353 C354 1.523 . S
C354 C338 1.368 . S
C354 C350 1.368 1_565 S
C354 C353 1.523 . S
H355 C330 0.950 . S
H356 C332 0.950 . S
H357 C333 0.949 . S
H358 C335 0.950 . S
H359 C337 0.950 . S
C360 C361 1.349 . S
C360 C362 1.327 . S
C360 H385 0.950 . S
C361 C360 1.349 . S
C361 C377 1.349 . S
C362 C360 1.327 . S
C362 C381 1.429 . S
C362 H386 0.950 . S
C363 C380 1.574 . S
C363 C382 1.368 . S
C363 H387 0.949 . S
H364 C368 0.949 . S
C365 C366 1.349 . S
C365 C367 1.327 . S
C365 H388 0.950 . S
C366 C365 1.349 . S
C366 C378 1.349 . S
C367 C365 1.327 . S
C367 C383 1.429 . S
C367 H389 0.950 . S
C368 H364 0.949 . S
C368 C376 1.574 . S
C368 C384 1.368 . S
H369 C377 0.950 . S
H370 C375 0.950 . S
H371 C376 0.949 . S
H372 C378 0.950 . S
H373 C379 0.950 . S
H374 C380 0.949 . S
C375 H370 0.950 . S
C375 C377 1.327 . S
C375 C381 1.429 . S
C376 C368 1.574 . S
C376 H371 0.949 . S
C376 C382 1.368 . S
C377 C361 1.349 . S
C377 H369 0.950 . S
C377 C375 1.327 . S
C378 C366 1.349 . S
C378 H372 0.950 . S
C378 C379 1.327 . S
C379 H373 0.950 . S
C379 C378 1.327 . S
C379 C383 1.429 . S
C380 C363 1.574 . S
C380 H374 0.949 . S
C380 C384 1.368 . S
C381 C362 1.429 . S
C381 C375 1.429 . S
C381 C382 1.523 . S
C382 C363 1.368 . S
C382 C376 1.368 . S
C382 C381 1.523 . S
C383 C367 1.429 . S
C383 C379 1.429 . S
C383 C384 1.523 . S
C384 C368 1.368 . S
C384 C380 1.368 . S
C384 C383 1.523 . S
H385 C360 0.950 . S
H386 C362 0.950 . S
H387 C363 0.949 . S
H388 C365 0.950 . S
H389 C367 0.950 . S
C390 C391 1.349 . S
C390 C392 1.327 . S
C390 H415 0.950 . S
C391 C390 1.349 . S
C391 C407 1.349 . S
C392 C390 1.327 . S
C392 C411 1.429 . S
C392 H416 0.950 . S
C393 C410 1.574 1_554 S
C393 C412 1.368 . S
C393 H417 0.949 . S
H394 C398 0.949 . S
C395 C396 1.349 . S
C395 C397 1.327 . S
C395 H418 0.950 . S
C396 C395 1.349 . S
C396 C408 1.349 . S
C397 C395 1.327 . S
C397 C413 1.429 . S
C397 H419 0.950 . S
C398 H394 0.949 . S
C398 C406 1.574 1_556 S
C398 C414 1.368 . S
H399 C407 0.950 . S
H400 C405 0.950 . S
H401 C406 0.949 . S
H402 C408 0.950 . S
H403 C409 0.950 . S
H404 C410 0.949 . S
C405 H400 0.950 . S
C405 C407 1.327 . S
C405 C411 1.429 . S
C406 C398 1.574 1_554 S
C406 H401 0.949 . S
C406 C412 1.368 . S
C407 C391 1.349 . S
C407 H399 0.950 . S
C407 C405 1.327 . S
C408 C396 1.349 . S
C408 H402 0.950 . S
C408 C409 1.327 . S
C409 H403 0.950 . S
C409 C408 1.327 . S
C409 C413 1.429 . S
C410 C393 1.574 1_556 S
C410 H404 0.949 . S
C410 C414 1.368 . S
C411 C392 1.429 . S
C411 C405 1.429 . S
C411 C412 1.523 . S
C412 C393 1.368 . S
C412 C406 1.368 . S
C412 C411 1.523 . S
C413 C397 1.429 . S
C413 C409 1.429 . S
C413 C414 1.523 . S
C414 C398 1.368 . S
C414 C410 1.368 . S
C414 C413 1.523 . S
H415 C390 0.950 . S
H416 C392 0.950 . S
H417 C393 0.949 . S
H418 C395 0.950 . S
H419 C397 0.950 . S
C420 C421 1.349 . S
C420 C422 1.327 . S
C420 H445 0.950 . S
C421 C420 1.349 . S
C421 C437 1.349 . S
C422 C420 1.327 . S
C422 C441 1.429 . S
C422 H446 0.950 . S
C423 C440 1.574 . S
C423 C442 1.368 . S
C423 H447 0.949 . S
H424 C428 0.949 . S
C425 C426 1.349 . S
C425 C427 1.327 . S
C425 H448 0.950 . S
C426 C425 1.349 . S
C426 C438 1.349 . S
C427 C425 1.327 . S
C427 C443 1.429 1_556 S
C427 H449 0.950 . S
C428 H424 0.949 . S
C428 C436 1.574 . S
C428 C444 1.368 . S
H429 C437 0.950 . S
H430 C435 0.950 . S
H431 C436 0.949 . S
H432 C438 0.950 . S
H433 C439 0.950 . S
H434 C440 0.949 . S
C435 H430 0.950 . S
C435 C437 1.327 . S
C435 C441 1.429 . S
C436 C428 1.574 . S
C436 H431 0.949 . S
C436 C442 1.368 . S
C437 C421 1.349 . S
C437 H429 0.950 . S
C437 C435 1.327 . S
C438 C426 1.349 . S
C438 H432 0.950 . S
C438 C439 1.327 . S
C439 H433 0.950 . S
C439 C438 1.327 . S
C439 C443 1.429 1_556 S
C440 C423 1.574 . S
C440 H434 0.949 . S
C440 C444 1.368 . S
C441 C422 1.429 . S
C441 C435 1.429 . S
C441 C442 1.523 . S
C442 C423 1.368 . S
C442 C436 1.368 . S
C442 C441 1.523 . S
C443 C427 1.429 1_554 S
C443 C439 1.429 1_554 S
C443 C444 1.523 . S
C444 C428 1.368 . S
C444 C440 1.368 . S
C444 C443 1.523 . S
H445 C420 0.950 . S
H446 C422 0.950 . S
H447 C423 0.949 . S
H448 C425 0.950 . S
H449 C427 0.950 . S
C450 C451 1.349 . S
C450 C452 1.327 . S
C450 H475 0.950 . S
C451 C450 1.349 . S
C451 C467 1.349 . S
C452 C450 1.327 . S
C452 C471 1.429 . S
C452 H476 0.950 . S
C453 C470 1.574 . S
C453 C472 1.368 . S
C453 H477 0.949 . S
H454 C458 0.949 . S
C455 C456 1.349 . S
C455 C457 1.327 . S
C455 H478 0.950 . S
C456 C455 1.349 . S
C456 C468 1.349 . S
C457 C455 1.327 . S
C457 C473 1.429 . S
C457 H479 0.950 . S
C458 H454 0.949 . S
C458 C466 1.574 . S
C458 C474 1.368 . S
H459 C467 0.950 . S
H460 C465 0.950 . S
H461 C466 0.949 . S
H462 C468 0.950 . S
H463 C469 0.950 . S
H464 C470 0.949 . S
C465 H460 0.950 . S
C465 C467 1.327 . S
C465 C471 1.429 . S
C466 C458 1.574 . S
C466 H461 0.949 . S
C466 C472 1.368 . S
C467 C451 1.349 . S
C467 H459 0.950 . S
C467 C465 1.327 . S
C468 C456 1.349 . S
C468 H462 0.950 . S
C468 C469 1.327 . S
C469 H463 0.950 . S
C469 C468 1.327 . S
C469 C473 1.429 . S
C470 C453 1.574 . S
C470 H464 0.949 . S
C470 C474 1.368 . S
C471 C452 1.429 . S
C471 C465 1.429 . S
C471 C472 1.523 . S
C472 C453 1.368 . S
C472 C466 1.368 . S
C472 C471 1.523 . S
C473 C457 1.429 . S
C473 C469 1.429 . S
C473 C474 1.523 . S
C474 C458 1.368 . S
C474 C470 1.368 . S
C474 C473 1.523 . S
H475 C450 0.950 . S
H476 C452 0.950 . S
H477 C453 0.949 . S
H478 C455 0.950 . S
H479 C457 0.950 . S
C480 C481 1.349 . S
C480 C482 1.327 . S
C480 H505 0.950 . S
C481 C480 1.349 . S
C481 C497 1.349 . S
C482 C480 1.327 . S
C482 C501 1.429 . S
C482 H506 0.950 . S
C483 C500 1.574 . S
C483 C502 1.368 . S
C483 H507 0.949 . S
H484 C488 0.949 . S
C485 C486 1.349 . S
C485 C487 1.327 . S
C485 H508 0.950 . S
C486 C485 1.349 . S
C486 C498 1.349 . S
C487 C485 1.327 . S
C487 C503 1.429 1_554 S
C487 H509 0.950 . S
C488 H484 0.949 . S
C488 C496 1.574 . S
C488 C504 1.368 . S
H489 C497 0.950 . S
H490 C495 0.950 . S
H491 C496 0.949 . S
H492 C498 0.950 . S
H493 C499 0.950 . S
H494 C500 0.949 . S
C495 H490 0.950 . S
C495 C497 1.327 . S
C495 C501 1.429 . S
C496 C488 1.574 . S
C496 H491 0.949 . S
C496 C502 1.368 . S
C497 C481 1.349 . S
C497 H489 0.950 . S
C497 C495 1.327 . S
C498 C486 1.349 . S
C498 H492 0.950 . S
C498 C499 1.327 . S
C499 H493 0.950 . S
C499 C498 1.327 . S
C499 C503 1.429 1_554 S
C500 C483 1.574 . S
C500 H494 0.949 . S
C500 C504 1.368 . S
C501 C482 1.429 . S
C501 C495 1.429 . S
C501 C502 1.523 . S
C502 C483 1.368 . S
C502 C496 1.368 . S
C502 C501 1.523 . S
C503 C487 1.429 1_556 S
C503 C499 1.429 1_556 S
C503 C504 1.523 . S
C504 C488 1.368 . S
C504 C500 1.368 . S
C504 C503 1.523 . S
H505 C480 0.950 . S
H506 C482 0.950 . S
H507 C483 0.949 . S
H508 C485 0.950 . S
H509 C487 0.950 . S
C510 C511 1.349 . S
C510 C512 1.327 . S
C510 H535 0.950 . S
C511 C510 1.349 . S
C511 C527 1.349 . S
C512 C510 1.327 . S
C512 C531 1.429 . S
C512 H536 0.950 . S
C513 C530 1.574 . S
C513 C532 1.368 . S
C513 H537 0.949 . S
H514 C518 0.949 . S
C515 C516 1.349 . S
C515 C517 1.327 . S
C515 H538 0.950 . S
C516 C515 1.349 . S
C516 C528 1.349 . S
C517 C515 1.327 . S
C517 C533 1.429 . S
C517 H539 0.950 . S
C518 H514 0.949 . S
C518 C526 1.574 . S
C518 C534 1.368 . S
H519 C527 0.950 . S
H520 C525 0.950 . S
H521 C526 0.949 . S
H522 C528 0.950 . S
H523 C529 0.950 . S
H524 C530 0.949 . S
C525 H520 0.950 . S
C525 C527 1.327 . S
C525 C531 1.429 . S
C526 C518 1.574 . S
C526 H521 0.949 . S
C526 C532 1.368 . S
C527 C511 1.349 . S
C527 H519 0.950 . S
C527 C525 1.327 . S
C528 C516 1.349 . S
C528 H522 0.950 . S
C528 C529 1.327 . S
C529 H523 0.950 . S
C529 C528 1.327 . S
C529 C533 1.429 . S
C530 C513 1.574 . S
C530 H524 0.949 . S
C530 C534 1.368 . S
C531 C512 1.429 . S
C531 C525 1.429 . S
C531 C532 1.523 . S
C532 C513 1.368 . S
C532 C526 1.368 . S
C532 C531 1.523 . S
C533 C517 1.429 . S
C533 C529 1.429 . S
C533 C534 1.523 . S
C534 C518 1.368 . S
C534 C530 1.368 . S
C534 C533 1.523 . S
H535 C510 0.950 . S
H536 C512 0.950 . S
H537 C513 0.949 . S
H538 C515 0.950 . S
H539 C517 0.950 . S
C540 C541 1.349 . S
C540 C542 1.327 . S
C540 H565 0.950 . S
C541 C540 1.349 . S
C541 C557 1.349 . S
C542 C540 1.327 . S
C542 C561 1.429 . S
C542 H566 0.950 . S
C543 C560 1.574 . S
C543 C562 1.368 . S
C543 H567 0.949 . S
H544 C548 0.949 . S
C545 C546 1.349 . S
C545 C547 1.327 . S
C545 H568 0.950 . S
C546 C545 1.349 . S
C546 C558 1.349 . S
C547 C545 1.327 . S
C547 C563 1.429 . S
C547 H569 0.950 . S
C548 H544 0.949 . S
C548 C556 1.574 . S
C548 C564 1.368 . S
H549 C557 0.950 1_556 S
H550 C555 0.950 . S
H551 C556 0.949 . S
H552 C558 0.950 . S
H553 C559 0.950 . S
H554 C560 0.949 . S
C555 H550 0.950 . S
C555 C557 1.327 . S
C555 C561 1.429 . S
C556 C548 1.574 . S
C556 H551 0.949 . S
C556 C562 1.368 . S
C557 C541 1.349 . S
C557 H549 0.950 1_554 S
C557 C555 1.327 . S
C558 C546 1.349 . S
C558 H552 0.950 . S
C558 C559 1.327 . S
C559 H553 0.950 . S
C559 C558 1.327 . S
C559 C563 1.429 . S
C560 C543 1.574 . S
C560 H554 0.949 . S
C560 C564 1.368 . S
C561 C542 1.429 . S
C561 C555 1.429 . S
C561 C562 1.523 . S
C562 C543 1.368 . S
C562 C556 1.368 . S
C562 C561 1.523 . S
C563 C547 1.429 . S
C563 C559 1.429 . S
C563 C564 1.523 . S
C564 C548 1.368 . S
C564 C560 1.368 . S
C564 C563 1.523 . S
H565 C540 0.950 . S
H566 C542 0.950 . S
H567 C543 0.949 . S
H568 C545 0.950 . S
H569 C547 0.950 . S
C570 C571 1.349 . S
C570 C572 1.327 . S
C570 H595 0.950 . S
C571 C570 1.349 . S
C571 C587 1.349 . S
C572 C570 1.327 . S
C572 C591 1.429 . S
C572 H596 0.950 . S
C573 C590 1.574 . S
C573 C592 1.368 . S
C573 H597 0.949 . S
H574 C578 0.949 . S
C575 C576 1.349 . S
C575 C577 1.327 . S
C575 H598 0.950 . S
C576 C575 1.349 . S
C576 C588 1.349 . S
C577 C575 1.327 . S
C577 C593 1.429 . S
C577 H599 0.950 . S
C578 H574 0.949 . S
C578 C586 1.574 . S
C578 C594 1.368 . S
H579 C587 0.950 . S
H580 C585 0.950 . S
H581 C586 0.949 . S
H582 C588 0.950 . S
H583 C589 0.950 . S
H584 C590 0.949 . S
C585 H580 0.950 . S
C585 C587 1.327 . S
C585 C591 1.429 . S
C586 C578 1.574 . S
C586 H581 0.949 . S
C586 C592 1.368 . S
C587 C571 1.349 . S
C587 H579 0.950 . S
C587 C585 1.327 . S
C588 C576 1.349 . S
C588 H582 0.950 . S
C588 C589 1.327 . S
C589 H583 0.950 . S
C589 C588 1.327 . S
C589 C593 1.429 . S
C590 C573 1.574 . S
C590 H584 0.949 . S
C590 C594 1.368 . S
C591 C572 1.429 . S
C591 C585 1.429 . S
C591 C592 1.523 . S
C592 C573 1.368 . S
C592 C586 1.368 . S
C592 C591 1.523 . S
C593 C577 1.429 . S
C593 C589 1.429 . S
C593 C594 1.523 . S
C594 C578 1.368 . S
C594 C590 1.368 . S
C594 C593 1.523 . S
H595 C570 0.950 . S
H596 C572 0.950 . S
H597 C573 0.949 . S
H598 C575 0.950 . S
H599 C577 0.950 . S
C600 C601 1.349 . S
C600 C602 1.327 . S
C600 H625 0.950 . S
C601 C600 1.349 . S
C601 C617 1.349 . S
C602 C600 1.327 . S
C602 C621 1.429 . S
C602 H626 0.950 . S
C603 C620 1.574 . S
C603 C622 1.368 . S
C603 H627 0.949 . S
H604 C608 0.949 . S
C605 C606 1.349 . S
C605 C607 1.327 . S
C605 H628 0.950 . S
C606 C605 1.349 . S
C606 C618 1.349 . S
C607 C605 1.327 . S
C607 C623 1.429 . S
C607 H629 0.950 . S
C608 H604 0.949 . S
C608 C616 1.574 . S
C608 C624 1.368 . S
H609 C617 0.950 . S
H610 C615 0.950 . S
H611 C616 0.949 . S
H612 C618 0.950 . S
H613 C619 0.950 . S
H614 C620 0.949 . S
C615 H610 0.950 . S
C615 C617 1.327 . S
C615 C621 1.429 . S
C616 C608 1.574 . S
C616 H611 0.949 . S
C616 C622 1.368 . S
C617 C601 1.349 . S
C617 H609 0.950 . S
C617 C615 1.327 . S
C618 C606 1.349 . S
C618 H612 0.950 . S
C618 C619 1.327 . S
C619 H613 0.950 . S
C619 C618 1.327 . S
C619 C623 1.429 . S
C620 C603 1.574 . S
C620 H614 0.949 . S
C620 C624 1.368 . S
C621 C602 1.429 . S
C621 C615 1.429 . S
C621 C622 1.523 . S
C622 C603 1.368 . S
C622 C616 1.368 . S
C622 C621 1.523 . S
C623 C607 1.429 . S
C623 C619 1.429 . S
C623 C624 1.523 . S
C624 C608 1.368 . S
C624 C620 1.368 . S
C624 C623 1.523 . S
H625 C600 0.950 . S
H626 C602 0.950 . S
H627 C603 0.949 . S
H628 C605 0.950 . S
H629 C607 0.950 . S
C630 C631 1.349 . S
C630 C632 1.327 . S
C630 H655 0.950 . S
C631 C630 1.349 . S
C631 C647 1.349 . S
C632 C630 1.327 . S
C632 C651 1.429 . S
C632 H656 0.950 . S
C633 C650 1.574 . S
C633 C652 1.368 . S
C633 H657 0.949 . S
H634 C638 0.949 . S
C635 C636 1.349 . S
C635 C637 1.327 . S
C635 H658 0.950 . S
C636 C635 1.349 . S
C636 C648 1.349 . S
C637 C635 1.327 . S
C637 C653 1.429 . S
C637 H659 0.950 . S
C638 H634 0.949 . S
C638 C646 1.574 . S
C638 C654 1.368 . S
H639 C647 0.950 . S
H640 C645 0.950 . S
H641 C646 0.949 . S
H642 C648 0.950 . S
H643 C649 0.950 . S
H644 C650 0.949 . S
C645 H640 0.950 . S
C645 C647 1.327 . S
C645 C651 1.429 . S
C646 C638 1.574 . S
C646 H641 0.949 . S
C646 C652 1.368 . S
C647 C631 1.349 . S
C647 H639 0.950 . S
C647 C645 1.327 . S
C648 C636 1.349 . S
C648 H642 0.950 . S
C648 C649 1.327 . S
C649 H643 0.950 . S
C649 C648 1.327 . S
C649 C653 1.429 . S
C650 C633 1.574 . S
C650 H644 0.949 . S
C650 C654 1.368 . S
C651 C632 1.429 . S
C651 C645 1.429 . S
C651 C652 1.523 . S
C652 C633 1.368 . S
C652 C646 1.368 . S
C652 C651 1.523 . S
C653 C637 1.429 . S
C653 C649 1.429 . S
C653 C654 1.523 . S
C654 C638 1.368 . S
C654 C650 1.368 . S
C654 C653 1.523 . S
H655 C630 0.950 . S
H656 C632 0.950 . S
H657 C633 0.949 . S
H658 C635 0.950 . S
H659 C637 0.950 . S
C660 C661 1.349 . S
C660 C662 1.327 . S
C660 H685 0.950 . S
C661 C660 1.349 . S
C661 C677 1.349 . S
C662 C660 1.327 . S
C662 C681 1.429 . S
C662 H686 0.950 . S
C663 C680 1.574 . S
C663 C682 1.368 . S
C663 H687 0.949 . S
H664 C668 0.949 . S
C665 C666 1.349 . S
C665 C667 1.327 . S
C665 H688 0.950 . S
C666 C665 1.349 . S
C666 C678 1.349 . S
C667 C665 1.327 . S
C667 C683 1.429 . S
C667 H689 0.950 . S
C668 H664 0.949 . S
C668 C676 1.574 . S
C668 C684 1.368 . S
H669 C677 0.950 . S
H670 C675 0.950 . S
H671 C676 0.949 . S
H672 C678 0.950 . S
H673 C679 0.950 . S
H674 C680 0.949 . S
C675 H670 0.950 . S
C675 C677 1.327 . S
C675 C681 1.429 . S
C676 C668 1.574 . S
C676 H671 0.949 . S
C676 C682 1.368 . S
C677 C661 1.349 . S
C677 H669 0.950 . S
C677 C675 1.327 . S
C678 C666 1.349 . S
C678 H672 0.950 . S
C678 C679 1.327 . S
C679 H673 0.950 . S
C679 C678 1.327 . S
C679 C683 1.429 . S
C680 C663 1.574 . S
C680 H674 0.949 . S
C680 C684 1.368 . S
C681 C662 1.429 . S
C681 C675 1.429 . S
C681 C682 1.523 . S
C682 C663 1.368 . S
C682 C676 1.368 . S
C682 C681 1.523 . S
C683 C667 1.429 . S
C683 C679 1.429 . S
C683 C684 1.523 . S
C684 C668 1.368 . S
C684 C680 1.368 . S
C684 C683 1.523 . S
H685 C660 0.950 . S
H686 C662 0.950 . S
H687 C663 0.949 . S
H688 C665 0.950 . S
H689 C667 0.950 . S
C690 C691 1.349 . S
C690 C692 1.327 . S
C690 H715 0.950 . S
C691 C690 1.349 . S
C691 C707 1.349 . S
C692 C690 1.327 . S
C692 C711 1.429 . S
C692 H716 0.950 1_554 S
C693 C710 1.574 . S
C693 C712 1.368 . S
C693 H717 0.949 . S
H694 C698 0.949 . S
C695 C696 1.349 . S
C695 C697 1.327 1_556 S
C695 H718 0.950 1_556 S
C696 C695 1.349 . S
C696 C708 1.349 . S
C697 C695 1.327 1_554 S
C697 C713 1.429 1_554 S
C697 H719 0.950 . S
C698 H694 0.949 . S
C698 C706 1.574 . S
C698 C714 1.368 1_556 S
H699 C707 0.950 . S
H700 C705 0.950 . S
H701 C706 0.949 . S
H702 C708 0.950 . S
H703 C709 0.950 . S
H704 C710 0.949 . S
C705 H700 0.950 . S
C705 C707 1.327 . S
C705 C711 1.429 . S
C706 C698 1.574 . S
C706 H701 0.949 . S
C706 C712 1.368 1_556 S
C707 C691 1.349 . S
C707 H699 0.950 . S
C707 C705 1.327 . S
C708 C696 1.349 . S
C708 H702 0.950 . S
C708 C709 1.327 . S
C709 H703 0.950 . S
C709 C708 1.327 . S
C709 C713 1.429 . S
C710 C693 1.574 . S
C710 H704 0.949 . S
C710 C714 1.368 . S
C711 C692 1.429 . S
C711 C705 1.429 . S
C711 C712 1.523 . S
C712 C693 1.368 . S
C712 C706 1.368 1_554 S
C712 C711 1.523 . S
C713 C697 1.429 1_556 S
C713 C709 1.429 . S
C713 C714 1.523 1_556 S
C714 C698 1.368 1_554 S
C714 C710 1.368 . S
C714 C713 1.523 1_554 S
H715 C690 0.950 . S
H716 C692 0.950 1_556 S
H717 C693 0.949 . S
H718 C695 0.950 1_554 S
H719 C697 0.950 . S
C181 C160 1.559 . S
C186 C10 1.559 . S
C211 N14 1.402 . S
C216 N44 1.402 . S
C241 C40 1.559 . S
C246 C70 1.559 . S
C271 N74 1.402 . S
C276 N104 1.402 . S
C301 C130 1.559 . S
C306 C100 1.559 . S
C331 N164 1.402 . S
C336 N134 1.402 . S
C361 C16 0.864 . S
C366 C27 0.864 . S
C391 C57 0.864 . S
C396 C46 0.864 . S
C421 C76 0.864 . S
C426 C87 0.864 . S
C451 C117 0.864 1_556 S
C456 C106 0.864 . S
C481 C147 0.864 . S
C486 C136 0.864 . S
C511 C177 0.864 . S
C516 C166 0.864 1_554 S
C541 C1 1.548 . S
C546 N126 1.442 . S
C571 N36 1.442 . S
C576 C151 1.548 . S
C601 N6 1.442 . S
C606 C61 1.548 . S
C631 C31 1.548 . S
C636 N96 1.442 . S
C661 C121 1.548 . S
C666 N66 1.442 . S
C691 C91 1.548 . S
C696 N156 1.442 . S
