# Generated by pormake.
# Topology ghw, (5)-cn, num edge types: 1
# Building blocks:
#     Node 0, Type 0, BuildingBlock: XOMCOT_clean_sbu_1, # of connection points: 5
#     Node 1, Type 0, BuildingBlock: XOMCOT_clean_sbu_1, # of connection points: 5
#     Node 2, Type 0, BuildingBlock: XOMCOT_clean_sbu_1, # of connection points: 5
#     Node 3, Type 0, BuildingBlock: XOMCOT_clean_sbu_1, # of connection points: 5
#     Node 4, Type 0, BuildingBlock: XOMCOT_clean_sbu_1, # of connection points: 5
#     Node 5, Type 0, BuildingBlock: XOMCOT_clean_sbu_1, # of connection points: 5
#     Node 6, Type 0, BuildingBlock: XOMCOT_clean_sbu_1, # of connection points: 5
#     Node 7, Type 0, BuildingBlock: XOMCOT_clean_sbu_1, # of connection points: 5
#     Node 8, Type 0, BuildingBlock: XOMCOT_clean_sbu_1, # of connection points: 5
#     Node 9, Type 0, BuildingBlock: XOMCOT_clean_sbu_1, # of connection points: 5
#     Node 10, Type 0, BuildingBlock: XOMCOT_clean_sbu_1, # of connection points: 5
#     Node 11, Type 0, BuildingBlock: XOMCOT_clean_sbu_1, # of connection points: 5
#     Node 12, Type 0, BuildingBlock: XOMCOT_clean_sbu_1, # of connection points: 5
#     Node 13, Type 0, BuildingBlock: XOMCOT_clean_sbu_1, # of connection points: 5
#     Node 14, Type 0, BuildingBlock: XOMCOT_clean_sbu_1, # of connection points: 5
#     Node 15, Type 0, BuildingBlock: XOMCOT_clean_sbu_1, # of connection points: 5
#     Edge 16, Type (0, 0), BuildingBlock: CIFDUS_clean_linker_0, # of connection points: 2
#     Edge 17, Type (0, 0), BuildingBlock: CIFDUS_clean_linker_0, # of connection points: 2
#     Edge 18, Type (0, 0), BuildingBlock: CIFDUS_clean_linker_0, # of connection points: 2
#     Edge 19, Type (0, 0), BuildingBlock: CIFDUS_clean_linker_0, # of connection points: 2
#     Edge 20, Type (0, 0), BuildingBlock: CIFDUS_clean_linker_0, # of connection points: 2
#     Edge 21, Type (0, 0), BuildingBlock: CIFDUS_clean_linker_0, # of connection points: 2
#     Edge 22, Type (0, 0), BuildingBlock: CIFDUS_clean_linker_0, # of connection points: 2
#     Edge 23, Type (0, 0), BuildingBlock: CIFDUS_clean_linker_0, # of connection points: 2
#     Edge 24, Type (0, 0), BuildingBlock: CIFDUS_clean_linker_0, # of connection points: 2
#     Edge 25, Type (0, 0), BuildingBlock: CIFDUS_clean_linker_0, # of connection points: 2
#     Edge 26, Type (0, 0), BuildingBlock: CIFDUS_clean_linker_0, # of connection points: 2
#     Edge 27, Type (0, 0), BuildingBlock: CIFDUS_clean_linker_0, # of connection points: 2
#     Edge 28, Type (0, 0), BuildingBlock: CIFDUS_clean_linker_0, # of connection points: 2
#     Edge 29, Type (0, 0), BuildingBlock: CIFDUS_clean_linker_0, # of connection points: 2
#     Edge 30, Type (0, 0), BuildingBlock: CIFDUS_clean_linker_0, # of connection points: 2
#     Edge 31, Type (0, 0), BuildingBlock: CIFDUS_clean_linker_0, # of connection points: 2
#     Edge 32, Type (0, 0), BuildingBlock: CIFDUS_clean_linker_0, # of connection points: 2
#     Edge 33, Type (0, 0), BuildingBlock: CIFDUS_clean_linker_0, # of connection points: 2
#     Edge 34, Type (0, 0), BuildingBlock: CIFDUS_clean_linker_0, # of connection points: 2
#     Edge 35, Type (0, 0), BuildingBlock: CIFDUS_clean_linker_0, # of connection points: 2
#     Edge 36, Type (0, 0), BuildingBlock: CIFDUS_clean_linker_0, # of connection points: 2
#     Edge 37, Type (0, 0), BuildingBlock: CIFDUS_clean_linker_0, # of connection points: 2
#     Edge 38, Type (0, 0), BuildingBlock: CIFDUS_clean_linker_0, # of connection points: 2
#     Edge 39, Type (0, 0), BuildingBlock: CIFDUS_clean_linker_0, # of connection points: 2
#     Edge 40, Type (0, 0), BuildingBlock: CIFDUS_clean_linker_0, # of connection points: 2
#     Edge 41, Type (0, 0), BuildingBlock: CIFDUS_clean_linker_0, # of connection points: 2
#     Edge 42, Type (0, 0), BuildingBlock: CIFDUS_clean_linker_0, # of connection points: 2
#     Edge 43, Type (0, 0), BuildingBlock: CIFDUS_clean_linker_0, # of connection points: 2
#     Edge 44, Type (0, 0), BuildingBlock: CIFDUS_clean_linker_0, # of connection points: 2
#     Edge 45, Type (0, 0), BuildingBlock: CIFDUS_clean_linker_0, # of connection points: 2
#     Edge 46, Type (0, 0), BuildingBlock: CIFDUS_clean_linker_0, # of connection points: 2
#     Edge 47, Type (0, 0), BuildingBlock: CIFDUS_clean_linker_0, # of connection points: 2
#     Edge 48, Type (0, 0), BuildingBlock: CIFDUS_clean_linker_0, # of connection points: 2
#     Edge 49, Type (0, 0), BuildingBlock: CIFDUS_clean_linker_0, # of connection points: 2
#     Edge 50, Type (0, 0), BuildingBlock: CIFDUS_clean_linker_0, # of connection points: 2
#     Edge 51, Type (0, 0), BuildingBlock: CIFDUS_clean_linker_0, # of connection points: 2
#     Edge 52, Type (0, 0), BuildingBlock: CIFDUS_clean_linker_0, # of connection points: 2
#     Edge 53, Type (0, 0), BuildingBlock: CIFDUS_clean_linker_0, # of connection points: 2
#     Edge 54, Type (0, 0), BuildingBlock: CIFDUS_clean_linker_0, # of connection points: 2
#     Edge 55, Type (0, 0), BuildingBlock: CIFDUS_clean_linker_0, # of connection points: 2
# Relax obj value: 0.221
# Max RMSD: 0.221
# Mean RMSD: 0.221
data_MOF--net-ghw--node1-XOMCOT_clean_sbu_1--edge1-CIFDUS_clean_linker_0
_symmetry_space_group_name_H-M    P1
_symmetry_Int_Tables_number       1
_symmetry_cell_setting            triclinic
loop_
_symmetry_equiv_pos_as_xyz
'x, y, z'
_cell_length_a     29.644305
_cell_length_b     35.890733
_cell_length_c     30.858458
_cell_angle_alpha  89.96649
_cell_angle_beta   92.669279
_cell_angle_gamma 89.940469
loop_
_atom_site_label
_atom_site_type_symbol
_atom_site_fract_x
_atom_site_fract_y
_atom_site_fract_z
_atom_type_partial_charge
C0 C 0.16044 0.10131 0.34694 0.0
C1 C 0.20281 0.08631 0.34279 0.0
N2 N 0.22953 0.09797 0.37657 0.0
N3 N 0.16076 0.12289 0.38274 0.0
C4 C 0.20313 0.1197 0.40056 0.0
H5 H 0.13178 0.09821 0.32422 0.0
Co6 Co 0.11346 0.15357 0.39942 0.0
C7 C 0.17368 0.21816 0.42717 0.0
O8 O 0.16218 0.23776 0.39246 0.0
N9 N 0.06569 0.1834 0.41739 0.0
C10 C 0.01856 0.22887 0.43458 0.0
C11 C 0.06252 0.22019 0.42645 0.0
C12 C 0.02338 0.1704 0.42116 0.0
N13 N 0.99425 0.19738 0.43139 0.0
O14 O 0.10572 0.12247 0.44929 0.0
H15 H 0.08929 0.24024 0.42549 0.0
H16 H 0.01321 0.14225 0.41305 0.0
O17 O 0.15666 0.18575 0.43256 0.0
C18 C 0.08185 0.09426 0.43753 0.0
O19 O 0.07229 0.08966 0.39585 0.0
N20 N 0.11668 0.18103 0.34677 0.0
C21 C 0.1135 0.20027 0.25902 0.0
C22 C 0.15507 0.19637 0.28206 0.0
C23 C 0.15596 0.18691 0.3261 0.0
C24 C 0.07611 0.18577 0.32446 0.0
C25 C 0.07379 0.19628 0.28099 0.0
H26 H 0.18828 0.18196 0.3428 0.0
H27 H 0.04493 0.17839 0.33882 0.0
H28 H 0.2152 0.13456 0.4293 0.0
H29 H 0.21345 0.06892 0.31648 0.0
H30 H 0.00508 0.25637 0.44044 0.0
H31 H 0.18645 0.19849 0.2656 0.0
H32 H 0.04117 0.19783 0.26371 0.0
C33 C 0.07082 0.07249 0.87107 0.0
C34 C 0.02755 0.05894 0.8733 0.0
N35 N 0.99849 0.08734 0.86583 0.0
N36 N 0.06908 0.1092 0.86184 0.0
C37 C 0.02454 0.11744 0.85894 0.0
H38 H 0.10158 0.05664 0.87658 0.0
Co39 Co 0.11866 0.14056 0.85721 0.0
C40 C 0.08108 0.21546 0.83913 0.0
O41 O 0.11004 0.22775 0.86936 0.0
N42 N 0.16891 0.172 0.85107 0.0
C43 C 0.21685 0.20825 0.81702 0.0
C44 C 0.17626 0.19009 0.81358 0.0
C45 C 0.20621 0.17914 0.87653 0.0
N46 N 0.23572 0.20119 0.85661 0.0
O47 O 0.13159 0.11846 0.80197 0.0
H48 H 0.15392 0.18923 0.78487 0.0
H49 H 0.21276 0.16773 0.90851 0.0
O50 O 0.0796 0.18042 0.83054 0.0
C51 C 0.16302 0.09503 0.81222 0.0
O52 O 0.17477 0.09113 0.85353 0.0
N53 N 0.11044 0.15666 0.91416 0.0
C54 C 0.10757 0.1621 1.00437 0.0
C55 C 0.07422 0.17933 0.97719 0.0
C56 C 0.07581 0.1757 0.93189 0.0
C57 C 0.14142 0.13856 0.94035 0.0
C58 C 0.1417 0.14196 0.98502 0.0
H59 H 0.04846 0.18693 0.91153 0.0
H60 H 0.16613 0.12067 0.9264 0.0
H61 H 0.0113 0.14501 0.85209 0.0
H62 H 0.01826 1.03062 0.88098 0.0
H63 H 0.2324 0.22367 0.79151 0.0
H64 H 0.04637 0.19417 0.99074 0.0
H65 H 0.16839 0.12825 1.00417 0.0
C66 C 0.82982 0.96732 0.63417 0.0
C67 C 0.78554 0.97806 0.6386 0.0
N68 N 0.75845 0.95013 0.62415 0.0
N69 N 0.83058 0.93291 0.61674 0.0
C70 C 0.78666 0.92332 0.61098 0.0
H71 H 0.85952 0.98317 0.64408 0.0
Co72 Co 0.8812 0.90369 0.60723 0.0
C73 C 0.84337 0.83508 0.56512 0.0
O74 O 0.87179 0.81438 0.58862 0.0
N75 N 0.93238 0.87467 0.59686 0.0
C76 C 0.98411 0.84393 0.56101 0.0
C77 C 0.94272 0.86105 0.55774 0.0
C78 C 0.96893 0.86664 0.62293 0.0
N79 N 0.00078 0.84761 0.60213 0.0
O80 O 0.89583 0.93442 0.55899 0.0
H81 H 0.92192 0.86422 0.52823 0.0
H82 H 0.97376 0.87678 0.65566 0.0
O83 O 0.84402 0.87056 0.56949 0.0
C84 C 0.92624 0.95786 0.5713 0.0
O85 O 0.93925 0.95852 0.61259 0.0
N86 N 0.86982 0.87683 0.65781 0.0
C87 C 0.86151 0.84934 0.74166 0.0
C88 C 0.83193 0.83747 0.70759 0.0
C89 C 0.83623 0.852 0.66581 0.0
C90 C 0.89669 0.89021 0.69119 0.0
C91 C 0.894 0.87625 0.73299 0.0
H92 H 0.81143 0.84426 0.64081 0.0
H93 H 0.91998 0.91263 0.68535 0.0
H94 H 0.7754 0.89685 0.59789 0.0
H95 H 0.77435 1.00386 0.65274 0.0
H96 H 0.00104 0.83098 0.53462 0.0
H97 H 0.80516 0.81782 0.71338 0.0
H98 H 0.91587 0.88775 0.75872 0.0
C99 C 0.90511 0.95141 0.09169 0.0
C100 C 0.94763 0.96689 0.09041 0.0
N101 N 0.97398 0.95196 0.12275 0.0
N102 N 0.90465 0.92664 0.12451 0.0
C103 C 0.94669 0.92839 0.14349 0.0
H104 H 0.87716 0.95614 0.06855 0.0
Co105 Co 0.85779 0.89318 0.13573 0.0
C106 C 0.91878 0.83088 0.16686 0.0
O107 O 0.90898 0.81092 0.13204 0.0
N108 N 0.81026 0.8609 0.14869 0.0
C109 C 0.76482 0.81509 0.16817 0.0
C110 C 0.80893 0.82567 0.16421 0.0
C111 C 0.76649 0.87114 0.14436 0.0
N112 N 0.73809 0.84374 0.15545 0.0
O113 O 0.84257 0.92273 0.18522 0.0
H114 H 0.83747 0.80821 0.17256 0.0
H115 H 0.75581 0.89829 0.13277 0.0
O116 O 0.89995 0.86265 0.17179 0.0
C117 C 0.81668 0.95018 0.17486 0.0
O118 O 0.80836 0.95717 0.13344 0.0
N119 N 0.86934 0.86606 0.08344 0.0
C120 C 0.87909 0.83907 0.99852 0.0
C121 C 0.91662 0.8516 0.02412 0.0
C122 C 0.91118 0.8642 0.06648 0.0
C123 C 0.83289 0.85305 0.05926 0.0
C124 C 0.83736 0.83791 0.01817 0.0
H125 H 0.94079 0.87348 0.08501 0.0
H126 H 0.79918 0.85549 0.07027 0.0
H127 H 0.95786 0.91134 0.17079 0.0
H128 H 0.95895 0.98572 0.06576 0.0
H129 H 0.7535 0.78816 0.17906 0.0
H130 H 0.9499 0.85349 0.01144 0.0
H131 H 0.8073 0.827 1.00161 0.0
C132 C 0.183 0.60173 0.86802 0.0
C133 C 0.22664 0.58909 0.86525 0.0
N134 N 0.25259 0.60634 0.89606 0.0
N135 N 0.18159 0.62725 0.90001 0.0
C136 C 0.22444 0.62901 0.91694 0.0
H137 H 0.15448 0.59406 0.84679 0.0
Co138 Co 0.13176 0.6571 0.91091 0.0
C139 C 0.16988 0.72974 0.93984 0.0
O140 O 0.13771 0.74659 0.91653 0.0
N141 N 0.08094 0.68684 0.92278 0.0
C142 C 0.03189 0.71988 0.95988 0.0
C143 C 0.07287 0.70174 0.96194 0.0
C144 C 0.04364 0.69559 0.89799 0.0
N145 N 0.0137 0.71602 0.91939 0.0
O146 O 0.12201 0.62999 0.96342 0.0
H147 H 0.09526 0.6992 0.99049 0.0
H148 H 0.03663 0.6856 0.86557 0.0
O149 O 0.17185 0.69405 0.94057 0.0
C150 C 0.09439 0.60402 0.95191 0.0
O151 O 0.08412 0.60005 0.91029 0.0
N152 N 0.13759 0.67929 0.8565 0.0
C153 C 0.13711 0.69569 0.76771 0.0
C154 C 0.17157 0.70945 0.7965 0.0
C155 C 0.17129 0.70078 0.841 0.0
C156 C 0.10612 0.66399 0.82859 0.0
C157 C 0.10341 0.67359 0.78518 0.0
H158 H 0.19921 0.70972 0.8622 0.0
H159 H 0.08274 0.64365 0.84029 0.0
H160 H 0.23546 0.64789 0.94258 0.0
H161 H 0.2386 0.56944 0.84178 0.0
H162 H 0.01645 0.7341 0.98633 0.0
H163 H 0.19941 0.72547 0.7848 0.0
H164 H 0.07519 0.66272 0.76569 0.0
C165 C 0.08665 0.589 0.41059 0.0
C166 C 0.04516 0.57199 0.41226 0.0
N167 N 0.01691 0.58764 0.38196 0.0
N168 N 0.0848 0.61526 0.37931 0.0
C169 C 0.042 0.61343 0.36206 0.0
H170 H 0.1157 0.5839 0.43231 0.0
Co171 Co 0.13126 0.64924 0.36885 0.0
C172 C 0.06917 0.71154 0.33788 0.0
O173 O 0.0757 0.73061 0.3739 0.0
N174 N 0.1784 0.68254 0.35733 0.0
C175 C 0.22329 0.73095 0.34519 0.0
C176 C 0.17965 0.71992 0.35136 0.0
C177 C 0.22175 0.67173 0.35442 0.0
N178 N 0.24948 0.70042 0.34682 0.0
O179 O 0.14699 0.62077 0.31872 0.0
H180 H 0.15152 0.73868 0.35228 0.0
H181 H 0.23341 0.64354 0.35997 0.0
O182 O 0.08909 0.6802 0.33308 0.0
C183 C 0.17254 0.59336 0.33009 0.0
O184 O 0.17947 0.58675 0.37176 0.0
N185 N 0.11986 0.67422 0.42151 0.0
C186 C 0.1111 0.69205 0.50879 0.0
C187 C 0.07274 0.68683 0.48119 0.0
C188 C 0.07782 0.67779 0.43766 0.0
C189 C 0.15733 0.68032 0.44807 0.0
C190 C 0.15368 0.69013 0.49142 0.0
H191 H 0.0479 0.67199 0.41751 0.0
H192 H 0.19064 0.67476 0.43699 0.0
H193 H 0.02883 0.63166 0.33658 0.0
H194 H 0.03583 0.55129 0.43573 0.0
H195 H 0.23497 0.75917 0.34045 0.0
H196 H 0.03924 0.68754 0.49378 0.0
H197 H 0.18409 0.69268 0.51209 0.0
C198 C 0.84373 0.47142 0.16603 0.0
C199 C 0.8014 0.48678 0.1687 0.0
N200 N 0.77502 0.47357 0.13549 0.0
N201 N 0.8438 0.4482 0.13168 0.0
C202 C 0.80168 0.45073 0.11314 0.0
H203 H 0.87182 0.47492 0.18932 0.0
Co204 Co 0.8907 0.41517 0.12055 0.0
C205 C 0.83126 0.3515 0.08876 0.0
O206 O 0.84169 0.33165 0.12356 0.0
N207 N 0.93884 0.38325 0.10875 0.0
C208 C 0.98665 0.33739 0.09427 0.0
C209 C 0.94197 0.34694 0.09729 0.0
C210 C 0.98203 0.39513 0.11144 0.0
N211 N 0.0115 0.36794 0.10294 0.0
O212 O 0.90592 0.44472 0.07113 0.0
H213 H 0.9144 0.32795 0.09155 0.0
H214 H 0.99201 0.42284 0.12167 0.0
O215 O 0.84875 0.38389 0.08417 0.0
C216 C 0.9302 0.47265 0.0832 0.0
O217 O 0.93644 0.4789 0.12501 0.0
N218 N 0.87948 0.38916 0.17273 0.0
C219 C 0.86893 0.37376 0.26037 0.0
C220 C 0.83113 0.37708 0.23166 0.0
C221 C 0.8371 0.38464 0.18786 0.0
C222 C 0.91646 0.38421 0.20029 0.0
C223 C 0.91194 0.37569 0.24391 0.0
H224 H 0.80752 0.38938 0.1668 0.0
H225 H 0.94988 0.39012 0.18988 0.0
H226 H 0.78957 0.43393 0.08593 0.0
H227 H 0.79029 0.50486 0.19418 0.0
H228 H 0.9999 0.31018 0.08658 0.0
H229 H 0.79731 0.37622 0.2435 0.0
H230 H 0.94188 0.37435 0.26539 0.0
C231 C 0.93324 0.47187 0.62573 0.0
C232 C 0.97722 0.48359 0.62311 0.0
N233 N 0.00333 0.463 0.65082 0.0
N234 N 0.93166 0.44377 0.65463 0.0
C235 C 0.97489 0.43923 0.66975 0.0
H236 H 0.90443 0.48212 0.60648 0.0
Co237 Co 0.88028 0.41538 0.66336 0.0
C238 C 0.91331 0.34034 0.68731 0.0
O239 O 0.88271 0.32773 0.6588 0.0
N240 N 0.82794 0.38707 0.67332 0.0
C241 C 0.77843 0.35464 0.71042 0.0
C242 C 0.81997 0.37156 0.71222 0.0
C243 C 0.78997 0.37984 0.64881 0.0
N244 N 0.75965 0.36006 0.67047 0.0
O245 O 0.86998 0.44197 0.71639 0.0
H246 H 0.84274 0.3731 0.74059 0.0
H247 H 0.78346 0.38933 0.61604 0.0
O248 O 0.91726 0.37568 0.69315 0.0
C249 C 0.84183 0.46766 0.70483 0.0
O250 O 0.8315 0.47144 0.66318 0.0
N251 N 0.88673 0.39433 0.60826 0.0
C252 C 0.88868 0.37816 0.51956 0.0
C253 C 0.92309 0.36524 0.54893 0.0
C254 C 0.92178 0.37403 0.59323 0.0
C255 C 0.85555 0.4094 0.57974 0.0
C256 C 0.85431 0.40014 0.53612 0.0
H257 H 0.94969 0.36578 0.6149 0.0
H258 H 0.83155 0.42946 0.59094 0.0
H259 H 0.9858 0.41775 0.69252 0.0
H260 H 0.98922 0.50511 0.60193 0.0
H261 H 0.76239 0.34105 0.73698 0.0
H262 H 0.9516 0.34967 0.5378 0.0
H263 H 0.82662 0.41092 0.51578 0.0
C264 C 0.66318 0.10871 0.85212 0.0
C265 C 0.70677 0.09642 0.84752 0.0
N266 N 0.734 0.11416 0.87697 0.0
N267 N 0.66294 0.13405 0.88434 0.0
C268 C 0.70643 0.13626 0.89928 0.0
H269 H 0.63397 0.10137 0.83159 0.0
Co270 Co 0.61406 0.16411 0.89797 0.0
C271 C 0.67223 0.23118 0.92515 0.0
O272 O 0.66046 0.25092 0.89061 0.0
N273 N 0.56485 0.19381 0.91249 0.0
C274 C 0.51702 0.23889 0.92924 0.0
C275 C 0.56118 0.23048 0.92197 0.0
C276 C 0.52247 0.18061 0.91493 0.0
N277 N 0.49295 0.20736 0.92497 0.0
O278 O 0.60515 0.13512 0.94978 0.0
H279 H 0.5879 0.2506 0.92286 0.0
H280 H 0.51281 0.15232 0.90687 0.0
O281 O 0.65556 0.19859 0.93034 0.0
C282 C 0.58124 0.1063 0.94023 0.0
O283 O 0.57331 0.09851 0.89897 0.0
N284 N 0.61794 0.18883 0.84395 0.0
C285 C 0.61452 0.20824 0.75556 0.0
C286 C 0.65526 0.2103 0.78088 0.0
C287 C 0.6565 0.19943 0.82465 0.0
C288 C 0.57836 0.18664 0.81973 0.0
C289 C 0.5758 0.1964 0.77606 0.0
H290 H 0.68871 0.19838 0.84253 0.0
H291 H 0.54881 0.17468 0.83333 0.0
H292 H 0.71817 0.15484 0.92492 0.0
H293 H 0.71786 0.07776 0.82261 0.0
H294 H 0.50339 0.26618 0.93595 0.0
H295 H 0.68634 0.21898 0.76686 0.0
H296 H 0.54399 0.19225 0.75809 0.0
C297 C 0.56485 0.07638 0.4017 0.0
C298 C 0.52034 0.06579 0.40378 0.0
N299 N 0.49567 0.08595 0.37449 0.0
N300 N 0.56808 0.10348 0.37169 0.0
C301 C 0.52538 0.10835 0.35532 0.0
H302 H 0.5929 0.06575 0.4217 0.0
Co303 Co 0.62025 0.13023 0.36078 0.0
C304 C 0.58741 0.20375 0.32548 0.0
O305 O 0.62 0.22115 0.34757 0.0
N306 N 0.67278 0.15662 0.34903 0.0
C307 C 0.72414 0.18644 0.3117 0.0
C308 C 0.68278 0.16925 0.3093 0.0
C309 C 0.70927 0.16554 0.37472 0.0
N310 N 0.74064 0.18398 0.3529 0.0
O311 O 0.62852 0.10158 0.30888 0.0
H312 H 0.66133 0.16596 0.28023 0.0
H313 H 0.71352 0.15836 0.4086 0.0
O314 O 0.5838 0.16825 0.32855 0.0
C315 C 0.65609 0.07508 0.31865 0.0
O316 O 0.66797 0.07012 0.35981 0.0
N317 N 0.61588 0.15429 0.41466 0.0
C318 C 0.62504 0.17854 0.50084 0.0
C319 C 0.59519 0.19666 0.47082 0.0
C320 C 0.59033 0.18353 0.42789 0.0
C321 C 0.642 0.13487 0.44423 0.0
C322 C 0.64727 0.14647 0.48707 0.0
H323 H 0.56596 0.19679 0.40591 0.0
H324 H 0.65994 0.1104 0.434 0.0
H325 H 0.51568 0.12892 0.33104 0.0
H326 H 0.50705 0.0452 0.42543 0.0
H327 H 0.74149 0.19851 0.28497 0.0
H328 H 0.57606 0.22082 0.48019 0.0
H329 H 0.66864 0.1301 0.50923 0.0
C330 C 0.30908 1.00862 0.12389 0.0
C331 C 0.265 1.021 0.12424 0.0
N332 N 0.23746 0.99114 0.1222 0.0
N333 N 0.30945 0.9711 0.12115 0.0
C334 C 0.2653 0.96141 0.12046 0.0
H335 H 0.33871 1.0261 0.126 0.0
Co336 Co 0.35861 0.93802 0.12056 0.0
C337 C 0.32939 0.88507 0.05113 0.0
O338 O 0.36931 0.88649 0.0344 0.0
N339 N 0.40676 0.90416 0.12065 0.0
C340 C 0.44657 0.85158 0.12598 0.0
C341 C 0.40403 0.86672 0.12503 0.0
C342 C 0.45142 0.91104 0.11943 0.0
N343 N 0.47621 0.87956 0.12231 0.0
O344 O 0.38124 0.96273 0.06988 0.0
H345 H 0.37304 0.8512 0.12742 0.0
H346 H 0.4659 0.93855 0.11786 0.0
O347 O 0.32144 0.90416 0.08481 0.0
C348 C 0.40916 0.98884 0.08018 0.0
O349 O 0.41615 0.99674 0.12155 0.0
N350 N 0.34089 0.91672 0.17208 0.0
C351 C 0.33968 0.88528 0.25456 0.0
C352 C 0.31192 0.87097 0.22028 0.0
C353 C 0.31312 0.88713 0.17885 0.0
C354 C 0.36575 0.9322 0.2055 0.0
C355 C 0.36578 0.91693 0.24689 0.0
H356 H 0.29355 0.87481 0.15214 0.0
H357 H 0.38746 0.95564 0.19933 0.0
H358 H 0.25368 0.9329 0.11853 0.0
H359 H 0.25421 0.04971 0.12668 0.0
H360 H 0.45504 0.82231 0.12891 0.0
H361 H 0.29093 0.84678 0.22505 0.0
H362 H 0.38662 0.92961 0.27261 0.0
C363 C 0.41849 0.98049 0.61179 0.0
C364 C 0.46101 0.99497 0.6069 0.0
N365 N 0.49172 0.96985 0.62206 0.0
N366 N 0.4223 0.94652 0.63018 0.0
C367 C 0.46724 0.94081 0.63594 0.0
H368 H 0.38685 0.99365 0.60186 0.0
Co369 Co 0.37512 0.91436 0.64199 0.0
C370 C 0.42074 0.84749 0.68192 0.0
O371 O 0.39332 0.82554 0.65904 0.0
N372 N 0.32737 0.88244 0.65472 0.0
C373 C 0.27948 0.84975 0.69313 0.0
C374 C 0.31972 0.86869 0.6945 0.0
C375 C 0.29065 0.87226 0.63008 0.0
N376 N 0.26118 0.85212 0.65249 0.0
O377 O 0.36028 0.94424 0.69104 0.0
H378 H 0.3414 0.87321 0.72318 0.0
H379 H 0.2837 0.88162 0.59724 0.0
O380 O 0.41704 0.88292 0.67785 0.0
C381 C 0.32765 0.96581 0.67887 0.0
O382 O 0.31334 0.96481 0.63795 0.0
N383 N 0.38542 0.88891 0.59027 0.0
C384 C 0.38664 0.86447 0.50437 0.0
C385 C 0.41926 0.85176 0.53558 0.0
C386 C 0.41843 0.86477 0.57857 0.0
C387 C 0.35589 0.90324 0.55958 0.0
C388 C 0.35516 0.89093 0.51698 0.0
H389 H 0.445 0.85633 0.60157 0.0
H390 H 0.3326 0.92484 0.56838 0.0
H391 H 0.48188 0.91573 0.64993 0.0
H392 H 0.4686 1.0215 0.59226 0.0
H393 H 0.26421 0.83647 0.72031 0.0
H394 H 0.44543 0.83252 0.52673 0.0
H395 H 0.33104 0.90325 0.49371 0.0
C396 C 0.67962 0.57277 0.37102 0.0
C397 C 0.72394 0.5634 0.36425 0.0
N398 N 0.74936 0.59442 0.3686 0.0
N399 N 0.67718 0.60945 0.37997 0.0
C400 C 0.72011 0.62181 0.37799 0.0
H401 H 0.65111 0.55399 0.36957 0.0
Co402 Co 0.62619 0.63743 0.39251 0.0
C403 C 0.66449 0.70687 0.43313 0.0
O404 O 0.63294 0.72734 0.41344 0.0
N405 N 0.57525 0.66544 0.40607 0.0
C406 C 0.52586 0.69585 0.44524 0.0
C407 C 0.56657 0.67756 0.44634 0.0
C408 C 0.53847 0.67562 0.38139 0.0
N409 N 0.50832 0.6945 0.40434 0.0
O410 O 0.61609 0.60681 0.4426 0.0
H411 H 0.58828 0.67286 0.47498 0.0
H412 H 0.53284 0.6685 0.34761 0.0
O413 O 0.66502 0.67158 0.42718 0.0
C414 C 0.58465 0.58338 0.43303 0.0
O415 O 0.56915 0.58171 0.39248 0.0
N416 N 0.63202 0.66401 0.34052 0.0
C417 C 0.62177 0.69468 0.25745 0.0
C418 C 0.65307 0.70979 0.28824 0.0
C419 C 0.65822 0.69363 0.32967 0.0
C420 C 0.60484 0.64717 0.30969 0.0
C421 C 0.5986 0.66226 0.26838 0.0
H422 H 0.68333 0.70492 0.35232 0.0
H423 H 0.58642 0.62235 0.31795 0.0
H424 H 0.72997 0.6504 0.38402 0.0
H425 H 0.73632 0.53596 0.35635 0.0
H426 H 0.50931 0.70745 0.47272 0.0
H427 H 0.67302 0.73397 0.28057 0.0
H428 H 0.57588 0.64841 0.24509 0.0
C429 C 0.58903 0.60305 0.91576 0.0
C430 C 0.54564 0.59004 0.91941 0.0
N431 N 0.51889 0.60703 0.88898 0.0
N432 N 0.58945 0.62851 0.8836 0.0
C433 C 0.54623 0.62994 0.86757 0.0
H434 H 0.61808 0.5956 0.93646 0.0
Co435 Co 0.63846 0.65885 0.87153 0.0
C436 C 0.59605 0.72678 0.82998 0.0
O437 O 0.62426 0.74853 0.85221 0.0
N438 N 0.68807 0.68901 0.85904 0.0
C439 C 0.73754 0.72189 0.82265 0.0
C440 C 0.69704 0.7032 0.8198 0.0
C441 C 0.72439 0.69843 0.8847 0.0
N442 N 0.75467 0.71885 0.86368 0.0
O443 O 0.65215 0.628 0.82274 0.0
H444 H 0.67586 0.69954 0.79062 0.0
H445 H 0.73042 0.68849 0.91738 0.0
O446 O 0.59836 0.69137 0.83517 0.0
C447 C 0.68183 0.60392 0.83546 0.0
O448 O 0.69378 0.60281 0.87698 0.0
N449 N 0.62909 0.68536 0.9228 0.0
C450 C 0.6315 0.71352 1.0071 0.0
C451 C 0.59886 0.72626 0.976 0.0
C452 C 0.59789 0.7114 0.93373 0.0
C453 C 0.65778 0.67057 0.95391 0.0
C454 C 0.66041 0.68474 0.99568 0.0
H455 H 0.57168 0.7203 0.91058 0.0
H456 H 0.67948 0.64761 0.94585 0.0
H457 H 0.53423 0.64877 0.84224 0.0
H458 H 0.53442 0.57027 0.94312 0.0
H459 H 0.7536 0.73562 0.79623 0.0
H460 H 0.57443 0.74723 0.9843 0.0
H461 H 0.68434 0.67252 0.01923 0.0
C462 C 0.33891 0.46322 0.66827 0.0
C463 C 0.29643 0.47818 0.67204 0.0
N464 N 0.26934 0.46465 0.63954 0.0
N465 N 0.33823 0.43972 0.63413 0.0
C466 C 0.29561 0.44197 0.6166 0.0
H467 H 0.36758 0.46705 0.6908 0.0
Co468 Co 0.38451 0.4063 0.62167 0.0
C469 C 0.32231 0.34339 0.59376 0.0
O470 O 0.33096 0.32483 0.62987 0.0
N471 N 0.43149 0.37385 0.60782 0.0
C472 C 0.47721 0.32636 0.59415 0.0
C473 C 0.43318 0.33683 0.59954 0.0
C474 C 0.47477 0.38514 0.60645 0.0
N475 N 0.50306 0.35695 0.59831 0.0
O476 O 0.39733 0.43505 0.57075 0.0
H477 H 0.40512 0.3179 0.59876 0.0
H478 H 0.4859 0.41311 0.61421 0.0
O479 O 0.34136 0.37487 0.58761 0.0
C480 C 0.42292 0.46288 0.58012 0.0
O481 O 0.43179 0.47049 0.62129 0.0
N482 N 0.37576 0.38049 0.67525 0.0
C483 C 0.37144 0.35952 0.76304 0.0
C484 C 0.33214 0.36884 0.73793 0.0
C485 C 0.33494 0.37853 0.69416 0.0
C486 C 0.41394 0.37051 0.69897 0.0
C487 C 0.41224 0.35837 0.7417 0.0
H488 H 0.3042 0.38608 0.67613 0.0
H489 H 0.44687 0.37357 0.68614 0.0
H490 H 0.28292 0.42507 0.58971 0.0
H491 H 0.28575 0.49621 0.69775 0.0
H492 H 0.48944 0.29838 0.58875 0.0
H493 H 0.29948 0.37059 0.75194 0.0
H494 H 0.4436 0.34985 0.75803 0.0
C495 C 0.43918 0.47589 0.11586 0.0
C496 C 0.48246 0.48917 0.11273 0.0
N497 N 0.50916 0.47189 0.14299 0.0
N498 N 0.43877 0.45006 0.14758 0.0
C499 C 0.48184 0.44853 0.16385 0.0
H500 H 0.41015 0.48347 0.09519 0.0
Co501 Co 0.3894 0.42039 0.1591 0.0
C502 C 0.4283 0.34948 0.19369 0.0
O503 O 0.39864 0.33145 0.16861 0.0
N504 N 0.33902 0.39126 0.17154 0.0
C505 C 0.28938 0.36101 0.21063 0.0
C506 C 0.33153 0.3768 0.21108 0.0
C507 C 0.30017 0.38494 0.14814 0.0
N508 N 0.26975 0.3664 0.17102 0.0
O509 O 0.37762 0.44962 0.20941 0.0
H510 H 0.35461 0.37897 0.23915 0.0
H511 H 0.29295 0.39502 0.11568 0.0
O512 O 0.42884 0.38524 0.19306 0.0
C513 C 0.3484 0.47426 0.19745 0.0
O514 O 0.33763 0.47726 0.15579 0.0
N515 N 0.39748 0.39536 0.10656 0.0
C516 C 0.40262 0.37182 0.02071 0.0
C517 C 0.43553 0.36077 0.05241 0.0
C518 C 0.43279 0.37344 0.09521 0.0
C519 C 0.36733 0.40819 0.07542 0.0
C520 C 0.36842 0.39604 0.03276 0.0
H521 H 0.46001 0.36688 0.1184 0.0
H522 H 0.34324 0.4294 0.08347 0.0
H523 H 0.49362 0.4294 0.189 0.0
H524 H 0.49362 0.5094 0.08951 0.0
H525 H 0.27334 0.34869 0.23799 0.0
H526 H 0.46365 0.34336 0.04398 0.0
H527 H 0.344 0.40715 0.00891 0.0
H528 H 0.29071 0.0972 0.31505 0.0
H529 H 0.27597 0.08713 0.45274 0.0
H530 H 0.35793 0.08028 0.46434 0.0
H531 H 0.43403 0.07946 0.43526 0.0
H532 H 0.44886 0.09357 0.29803 0.0
H533 H 0.36669 0.09644 0.286 0.0
C534 C 0.3055 0.09302 0.34747 0.0
C535 C 0.27748 0.09237 0.383 0.0
C536 C 0.35262 0.09002 0.35387 0.0
C537 C 0.29702 0.08779 0.425 0.0
C538 C 0.34378 0.08383 0.43158 0.0
C539 C 0.41912 0.08271 0.40273 0.0
C540 C 0.4473 0.08609 0.36751 0.0
C541 C 0.37195 0.0852 0.39628 0.0
C542 C 0.42774 0.09106 0.32557 0.0
C543 C 0.38083 0.09263 0.31872 0.0
H544 H 0.93708 0.2424 0.38773 0.0
H545 H 0.94487 0.14364 0.46672 0.0
H546 H 0.86387 0.13257 0.45276 0.0
H547 H 0.79343 0.14781 0.41184 0.0
H548 H 0.78679 0.24483 0.32942 0.0
H549 H 0.86491 0.26048 0.35127 0.0
C550 C 0.92047 0.21931 0.40298 0.0
C551 C 0.94614 0.19414 0.42863 0.0
C552 C 0.87454 0.2127 0.39367 0.0
C553 C 0.9252 0.16331 0.44703 0.0
C554 C 0.87917 0.157 0.43893 0.0
C555 C 0.80884 0.17278 0.39944 0.0
C556 C 0.78473 0.1951 0.369 0.0
C557 C 0.85383 0.18101 0.4114 0.0
C558 C 0.80514 0.22707 0.3525 0.0
C559 C 0.84961 0.23603 0.36505 0.0
H560 H 0.43471 0.25493 0.88678 0.0
H561 H 0.44435 0.15134 0.95706 0.0
H562 H 0.36269 0.14186 0.94582 0.0
H563 H 0.2907 0.16055 0.90992 0.0
H564 H 0.2828 0.26231 0.83539 0.0
H565 H 0.36276 0.27416 0.85288 0.0
C566 C 0.41862 0.23073 0.90035 0.0
C567 C 0.44488 0.20395 0.92288 0.0
C568 C 0.37239 0.22493 0.89239 0.0
C569 C 0.42428 0.1722 0.93961 0.0
C570 C 0.37785 0.16682 0.93312 0.0
C571 C 0.30599 0.18596 0.89866 0.0
C572 C 0.28087 0.21057 0.87151 0.0
C573 C 0.35177 0.19269 0.90878 0.0
C574 C 0.30156 0.24287 0.85615 0.0
C575 C 0.34698 0.24993 0.86646 0.0
H576 H 0.94318 0.1424 0.88981 0.0
H577 H 0.94436 1.02912 0.84353 0.0
H578 H 0.86194 1.02687 0.84402 0.0
H579 H 0.78928 0.05767 0.8565 0.0
H580 H 0.78887 0.17129 0.9021 0.0
H581 H 0.87101 0.17276 0.9032 0.0
C582 C 0.92539 0.11735 0.87947 0.0
C583 C 0.9499 0.08607 0.86639 0.0
C584 C 0.87805 0.11624 0.87995 0.0
C585 C 0.92633 0.0535 0.85401 0.0
C586 C 0.87919 0.05225 0.85412 0.0
C587 C 0.8072 0.08273 0.86659 0.0
C588 C 0.78276 0.11421 0.87935 0.0
C589 C 0.85466 0.08352 0.86689 0.0
C590 C 0.80661 0.14639 0.89282 0.0
C591 C 0.85369 0.14741 0.8931 0.0
H592 H 0.69913 1.00764 0.62224 0.0
H593 H 0.70754 0.8876 0.62768 0.0
H594 H 0.62572 0.88332 0.62649 0.0
H595 H 0.55176 0.91315 0.62334 0.0
H596 H 0.54202 0.03313 0.62118 0.0
H597 H 0.62422 0.03782 0.62143 0.0
C598 C 0.68311 0.98057 0.62355 0.0
C599 C 0.70978 0.94804 0.6246 0.0
C600 C 0.63568 0.97822 0.62328 0.0
C601 C 0.68819 0.91316 0.62588 0.0
C602 C 0.64123 0.91063 0.62553 0.0
C603 C 0.56739 0.94041 0.62352 0.0
C604 C 0.54039 0.97271 0.62236 0.0
C605 C 0.61466 0.94293 0.62413 0.0
C606 C 0.5617 1.00773 0.62158 0.0
C607 C 0.60882 1.01046 0.62199 0.0
H608 H 0.07431 0.83488 0.55544 0.0
H609 H 0.0298 0.84068 0.68661 0.0
H610 H 0.10795 0.83891 0.71455 0.0
H611 H 0.18839 0.8444 0.70106 0.0
H612 H 0.23266 0.83611 0.57014 0.0
H613 H 0.15455 0.82959 0.54279 0.0
C614 C 0.08128 0.83498 0.59016 0.0
C615 C 0.04598 0.83934 0.61869 0.0
C616 C 0.12626 0.83399 0.60606 0.0
C617 C 0.05624 0.83889 0.66369 0.0
C618 C 0.10097 0.83769 0.67978 0.0
C619 C 0.18118 0.84035 0.66667 0.0
C620 C 0.21626 0.84171 0.63757 0.0
C621 C 0.13624 0.83676 0.65115 0.0
C622 C 0.20613 0.83624 0.59307 0.0
C623 C 0.16151 0.83239 0.57743 0.0
H624 H 0.6849 0.88922 0.10575 0.0
H625 H 0.68119 0.80035 0.19991 0.0
H626 H 0.59892 0.80201 0.19578 0.0
H627 H 0.52809 0.83068 0.16775 0.0
H628 H 0.53245 0.92216 0.07743 0.0
H629 H 0.61482 0.91831 0.07873 0.0
C630 C 0.66635 0.87052 0.12591 0.0
C631 C 0.68946 0.84474 0.15316 0.0
C632 C 0.61916 0.87234 0.12432 0.0
C633 C 0.66444 0.82016 0.17819 0.0
C634 C 0.61733 0.82127 0.17611 0.0
C635 C 0.54716 0.84949 0.14811 0.0
C636 C 0.52448 0.87667 0.12257 0.0
C637 C 0.59439 0.84741 0.14949 0.0
C638 C 0.5494 0.90131 0.09769 0.0
C639 C 0.59636 0.899 0.09828 0.0
H640 H 0.02629 1.01041 0.10134 0.0
H641 H 0.03194 0.90003 0.15702 0.0
H642 H 0.11387 0.9032 0.16322 0.0
H643 H 0.18439 0.93602 0.15056 0.0
H644 H 0.18 0.0457 0.09329 0.0
H645 H 0.09745 0.04409 0.09023 0.0
C646 C 0.04543 0.98707 0.11482 0.0
C647 C 0.02256 0.95511 0.12877 0.0
C648 C 0.09298 0.98884 0.11792 0.0
C649 C 0.04815 0.92529 0.14665 0.0
C650 C 0.09525 0.9269 0.14987 0.0
C651 C 0.16551 0.9595 0.13708 0.0
C652 C 0.18863 0.99077 0.12181 0.0
C653 C 0.11805 0.95833 0.13521 0.0
C654 C 0.16329 1.02132 0.10549 0.0
C655 C 0.116 1.02035 0.10352 0.0
H656 H 0.3125 0.60301 0.83353 0.0
H657 H 0.30122 0.60636 0.97208 0.0
H658 H 0.38371 0.60472 0.98254 0.0
H659 H 0.45918 0.60404 0.95183 0.0
H660 H 0.47019 0.60536 0.81319 0.0
H661 H 0.38775 0.60332 0.80286 0.0
C662 C 0.32822 0.60296 0.86596 0.0
C663 C 0.301 0.60444 0.90205 0.0
C664 C 0.37555 0.60296 0.87155 0.0
C665 C 0.32164 0.60525 0.94392 0.0
C666 C 0.3687 0.60426 0.94984 0.0
C667 C 0.44338 0.60345 0.91944 0.0
C668 C 0.47052 0.60449 0.88326 0.0
C669 C 0.39601 0.60329 0.91388 0.0
C670 C 0.44981 0.60458 0.84141 0.0
C671 C 0.40279 0.60338 0.83555 0.0
H672 H 0.82871 0.72976 0.81754 0.0
H673 H 0.78131 0.73132 0.94766 0.0
H674 H 0.85894 0.73447 0.9772 0.0
H675 H 0.93989 0.72726 0.96595 0.0
H676 H 0.98692 0.72892 0.83567 0.0
H677 H 0.90951 0.73418 0.80635 0.0
C678 C 0.8351 0.73156 0.8523 0.0
C679 C 0.79924 0.72883 0.88032 0.0
C680 C 0.87977 0.73309 0.8691 0.0
C681 C 0.80841 0.73186 0.92535 0.0
C682 C 0.85279 0.73373 0.94231 0.0
C683 C 0.9334 0.72953 0.93123 0.0
C684 C 0.96912 0.72635 0.90306 0.0
C685 C 0.88876 0.73273 0.9145 0.0
C686 C 0.95993 0.72983 0.85807 0.0
C687 C 0.91568 0.73302 0.84123 0.0
H688 H 0.45246 0.65625 0.3506 0.0
H689 H 0.46338 0.75616 0.42763 0.0
H690 H 0.38338 0.76995 0.41138 0.0
H691 H 0.30885 0.74932 0.38209 0.0
H692 H 0.29772 0.64676 0.30982 0.0
H693 H 0.37958 0.63827 0.31671 0.0
C694 C 0.4375 0.68146 0.36291 0.0
C695 C 0.46338 0.70514 0.39027 0.0
C696 C 0.39149 0.68843 0.35457 0.0
C697 C 0.44366 0.73744 0.40679 0.0
C698 C 0.3981 0.74529 0.3975 0.0
C699 C 0.32463 0.72561 0.36712 0.0
C700 C 0.29767 0.69853 0.34576 0.0
C701 C 0.37141 0.72037 0.37245 0.0
C702 C 0.3181 0.66764 0.32682 0.0
C703 C 0.36473 0.66282 0.33074 0.0
H704 H 0.81266 0.54107 0.38438 0.0
H705 H 0.79539 0.65579 0.34511 0.0
H706 H 0.87702 0.66334 0.34374 0.0
H707 H 0.95352 0.63839 0.35703 0.0
H708 H 0.97138 0.52381 0.39633 0.0
H709 H 0.8895 0.51508 0.39396 0.0
C710 C 0.82669 0.56756 0.37496 0.0
C711 C 0.79769 0.59788 0.36525 0.0
C712 C 0.8739 0.57179 0.37435 0.0
C713 C 0.81672 0.63215 0.35355 0.0
C714 C 0.8635 0.63646 0.35251 0.0
C715 C 0.9396 0.61132 0.36432 0.0
C716 C 0.96871 0.5818 0.37687 0.0
C717 C 0.89245 0.60662 0.36333 0.0
C718 C 0.94982 0.5471 0.387 0.0
C719 C 0.90297 0.54207 0.38557 0.0
H720 H 0.56869 0.47961 0.08052 0.0
H721 H 0.558 0.4696 0.21878 0.0
H722 H 0.64038 0.47169 0.22909 0.0
H723 H 0.71541 0.47382 0.19833 0.0
H724 H 0.72642 0.47983 0.05984 0.0
H725 H 0.6439 0.48205 0.04974 0.0
C726 C 0.5845 0.47839 0.11288 0.0
C727 C 0.55747 0.47468 0.14891 0.0
C728 C 0.63182 0.47877 0.11836 0.0
C729 C 0.57826 0.47231 0.19064 0.0
C730 C 0.62525 0.47358 0.1965 0.0
C731 C 0.69966 0.47621 0.16604 0.0
C732 C 0.72675 0.47707 0.12984 0.0
C733 C 0.65237 0.4765 0.16057 0.0
C734 C 0.70605 0.47918 0.08806 0.0
C735 C 0.659 0.48044 0.08235 0.0
H736 H 0.21553 0.40983 0.12071 0.0
H737 H 0.22012 0.30731 0.19358 0.0
H738 H 0.13986 0.29723 0.17604 0.0
H739 H 0.06739 0.31947 0.14318 0.0
H740 H 0.06244 0.42337 0.07344 0.0
H741 H 0.14416 0.431 0.08587 0.0
C742 C 0.19911 0.38489 0.13194 0.0
C743 C 0.22351 0.35919 0.15815 0.0
C744 C 0.15299 0.3796 0.12223 0.0
C745 C 0.20171 0.32747 0.1735 0.0
C746 C 0.15596 0.32164 0.16334 0.0
C747 C 0.08464 0.34321 0.12995 0.0
C748 C 0.05962 0.37062 0.10709 0.0
C749 C 0.13116 0.34772 0.13816 0.0
C750 C 0.08152 0.40203 0.09111 0.0
C751 C 0.128 0.40635 0.09822 0.0
H752 H 0.55956 0.30832 0.63814 0.0
H753 H 0.554 0.41088 0.56555 0.0
H754 H 0.63543 0.41934 0.57846 0.0
H755 H 0.70594 0.40061 0.61641 0.0
H756 H 0.71126 0.29977 0.69248 0.0
H757 H 0.63181 0.28765 0.67267 0.0
C758 C 0.57657 0.33196 0.62437 0.0
C759 C 0.55132 0.35893 0.60089 0.0
C760 C 0.62294 0.33713 0.6331 0.0
C761 C 0.57315 0.38995 0.58384 0.0
C762 C 0.61948 0.39478 0.59129 0.0
C763 C 0.69003 0.3755 0.6278 0.0
C764 C 0.71429 0.3511 0.65583 0.0
C765 C 0.64444 0.369 0.61675 0.0
C766 C 0.69299 0.3191 0.67118 0.0
C767 C 0.64773 0.31204 0.65967 0.0
H768 H 0.06218 0.47332 0.58819 0.0
H769 H 0.05341 0.45416 0.72534 0.0
H770 H 0.13598 0.45522 0.73462 0.0
H771 H 0.21078 0.46018 0.70314 0.0
H772 H 0.21954 0.47478 0.56532 0.0
H773 H 0.13689 0.47723 0.55656 0.0
C774 C 0.07844 0.46974 0.62012 0.0
C775 C 0.05187 0.46394 0.65614 0.0
C776 C 0.12584 0.4696 0.62493 0.0
C777 C 0.07327 0.45853 0.69721 0.0
C778 C 0.12039 0.45926 0.70249 0.0
C779 C 0.19443 0.46438 0.67135 0.0
C780 C 0.22095 0.46781 0.63492 0.0
C781 C 0.14702 0.46464 0.66656 0.0
C782 C 0.19959 0.47225 0.59369 0.0
C783 C 0.15248 0.47361 0.58876 0.0
H784 H 0.13614 0.14468 0.20706 0.0
H785 H 0.08115 0.25567 0.20515 0.0
H786 H 0.07308 0.25374 0.12538 0.0
H787 H 0.08363 0.22039 0.05636 0.0
H788 H 0.12919 0.10597 0.0613 0.0
H789 H 0.13887 0.1093 0.13964 0.0
C790 C 0.12302 0.1686 0.18897 0.0
C791 C 0.11093 0.20081 0.21125 0.0
C792 C 0.11665 0.16659 0.1438 0.0
C793 C 0.092 0.2311 0.18811 0.0
C794 C 0.08709 0.22986 0.14275 0.0
C795 C 0.09503 0.19605 0.07459 0.0
C796 C 0.107 0.16339 0.05258 0.0
C797 C 0.09943 0.19771 0.12019 0.0
C798 C 0.12135 0.132 0.07701 0.0
C799 C 0.1267 0.13372 0.12198 0.0
H800 H 0.8109 0.841 0.93442 0.0
H801 H 0.9543 0.81904 0.95292 0.0
H802 H 0.96081 0.81774 0.87487 0.0
H803 H 0.92694 0.82797 0.8013 0.0
H804 H 0.7832 0.84542 0.78424 0.0
H805 H 0.77549 0.83997 0.86236 0.0
C806 C 0.84364 0.83451 0.92237 0.0
C807 C 0.88221 0.83123 0.95087 0.0
C808 C 0.84708 0.83237 0.87732 0.0
C809 C 0.92404 0.82358 0.93271 0.0
C810 C 0.92786 0.82232 0.88774 0.0
C811 C 0.89387 0.83008 0.81474 0.0
C812 C 0.85579 0.83772 0.78717 0.0
C813 C 0.88978 0.82767 0.85979 0.0
C814 C 0.813 0.83951 0.80474 0.0
C815 C 0.80867 0.83684 0.84946 0.0
H816 H 0.1483 0.74071 0.56876 0.0
H817 H 0.06817 0.64071 0.55504 0.0
H818 H 0.07166 0.63221 0.63336 0.0
H819 H 0.10199 0.64998 0.7038 0.0
H820 H 0.17346 0.75431 0.72159 0.0
H821 H 0.17242 0.76228 0.64283 0.0
C822 C 0.13102 0.7175 0.5832 0.0
C823 C 0.10767 0.6915 0.55636 0.0
C824 C 0.13278 0.7129 0.62856 0.0
C825 C 0.08558 0.6614 0.57515 0.0
C826 C 0.08803 0.65629 0.61985 0.0
C827 C 0.11559 0.67563 0.69142 0.0
C828 C 0.13686 0.70182 0.71964 0.0
C829 C 0.11195 0.68159 0.64669 0.0
C830 C 0.15696 0.73334 0.70129 0.0
C831 C 0.15569 0.73839 0.65616 0.0
H832 H 0.85528 0.42251 0.45335 0.0
H833 H 0.92412 0.31761 0.47689 0.0
H834 H 0.92402 0.30671 0.3988 0.0
H835 H 0.90321 0.32667 0.32337 0.0
H836 H 0.82634 0.42778 0.30296 0.0
H837 H 0.82804 0.439 0.38093 0.0
C838 C 0.8689 0.39642 0.44215 0.0
C839 C 0.88912 0.37079 0.47182 0.0
C840 C 0.86641 0.38916 0.39759 0.0
C841 C 0.90869 0.33825 0.45533 0.0
C842 C 0.9081 0.33163 0.41055 0.0
C843 C 0.88618 0.35071 0.33629 0.0
C844 C 0.86429 0.37621 0.30772 0.0
C845 C 0.88681 0.3568 0.38137 0.0
C846 C 0.84262 0.40747 0.32449 0.0
C847 C 0.84402 0.41409 0.36898 0.0
H848 H 0.56395 0.20983 0.55481 0.0
H849 H 0.70393 0.17712 0.55041 0.0
H850 H 0.71411 0.18618 0.62827 0.0
H851 H 0.68106 0.19527 0.69842 0.0
H852 H 0.54349 0.23455 0.70301 0.0
H853 H 0.53509 0.23124 0.62428 0.0
C854 C 0.59698 0.20551 0.57057 0.0
C855 C 0.63256 0.19135 0.54669 0.0
C856 C 0.60303 0.21137 0.61562 0.0
C857 C 0.67525 0.18642 0.56803 0.0
C858 C 0.68131 0.19186 0.61266 0.0
C859 C 0.64953 0.2042 0.68255 0.0
C860 C 0.61258 0.21389 0.70737 0.0
C861 C 0.64502 0.20303 0.63702 0.0
C862 C 0.57211 0.2253 0.6853 0.0
C863 C 0.56726 0.22373 0.64004 0.0
H864 H 0.41462 0.87039 0.3056 0.0
H865 H 0.26938 0.86203 0.30235 0.0
H866 H 0.27228 0.84648 0.37967 0.0
H867 H 0.31505 0.84689 0.44994 0.0
H868 H 0.45979 0.86014 0.45367 0.0
H869 H 0.45836 0.86111 0.37443 0.0
C870 C 0.38363 0.86473 0.32175 0.0
C871 C 0.34174 0.86832 0.29858 0.0
C872 C 0.38553 0.8569 0.36637 0.0
C873 C 0.30198 0.85975 0.31951 0.0
C874 C 0.30364 0.85112 0.36379 0.0
C875 C 0.34638 0.8493 0.43333 0.0
C876 C 0.38737 0.85431 0.45768 0.0
C877 C 0.34505 0.85138 0.38786 0.0
C878 C 0.4278 0.85637 0.43581 0.0
C879 C 0.42691 0.85738 0.39046 0.0
H880 H 0.56302 0.71944 0.06241 0.0
H881 H 0.70638 0.73577 0.05428 0.0
H882 H 0.71566 0.73699 0.13325 0.0
H883 H 0.68506 0.72072 0.20348 0.0
H884 H 0.54157 0.70447 0.21181 0.0
H885 H 0.53025 0.71647 0.13425 0.0
C886 C 0.59596 0.72471 0.07797 0.0
C887 C 0.63407 0.72667 0.05271 0.0
C888 C 0.60122 0.72451 0.12351 0.0
C889 C 0.67664 0.73354 0.07324 0.0
C890 C 0.68202 0.73402 0.11839 0.0
C891 C 0.65119 0.72084 0.1886 0.0
C892 C 0.61442 0.71058 0.21315 0.0
C893 C 0.64491 0.72745 0.1438 0.0
C894 C 0.57067 0.71118 0.19332 0.0
C895 C 0.5641 0.71815 0.14897 0.0
H896 H 0.44162 0.36882 0.82397 0.0
H897 H 0.29989 0.33916 0.81336 0.0
H898 H 0.29787 0.33838 0.89189 0.0
H899 H 0.33541 0.34893 0.96382 0.0
H900 H 0.47768 0.37463 0.97311 0.0
H901 H 0.48088 0.37088 0.89436 0.0
C902 C 0.41034 0.3607 0.83794 0.0
C903 C 0.37089 0.3544 0.81141 0.0
C904 C 0.40962 0.35884 0.88327 0.0
C905 C 0.33072 0.34549 0.83194 0.0
C906 C 0.32953 0.34454 0.87721 0.0
C907 C 0.36722 0.35322 0.94854 0.0
C908 C 0.40618 0.36236 0.97421 0.0
C909 C 0.36866 0.35165 0.90316 0.0
C910 C 0.44731 0.36731 0.95416 0.0
C911 C 0.44902 0.36559 0.90909 0.0
H912 H 0.28834 0.27305 0.59256 0.0
H913 H 0.29329 0.37343 0.51568 0.0
H914 H 0.24868 0.34307 0.45718 0.0
H915 H 0.20843 0.28824 0.42803 0.0
H916 H 0.20365 0.1878 0.50484 0.0
H917 H 0.24851 0.21808 0.56322 0.0
C918 C 0.2796 0.28844 0.5631 0.0
C919 C 0.29416 0.32557 0.55861 0.0
C920 C 0.2542 0.27075 0.52953 0.0
C921 C 0.28259 0.34487 0.52005 0.0
C922 C 0.25712 0.3275 0.48656 0.0
C923 C 0.21725 0.27282 0.45744 0.0
C924 C 0.20256 0.23573 0.46198 0.0
C925 C 0.24285 0.29044 0.49093 0.0
C926 C 0.21442 0.21633 0.50041 0.0
C927 C 0.24001 0.23366 0.53386 0.0
H928 H 0.99077 1.0097 0.59063 0.0
H929 H 0.91608 0.95928 0.48245 0.0
H930 H 0.95902 0.99628 0.43202 0.0
H931 H 0.01781 0.04219 0.41882 0.0
H932 H 0.09193 0.09358 0.52668 0.0
H933 H 0.04929 0.05634 0.57734 0.0
C934 C 0.98367 1.00681 0.55601 0.0
C935 C 0.9501 0.98166 0.54036 0.0
C936 C 0.00863 1.02804 0.52727 0.0
C937 C 0.94149 0.97844 0.4954 0.0
C938 C 0.96619 0.99949 0.46657 0.0
C939 C 0.02502 0.04521 0.45341 0.0
C940 C 0.0584 0.07056 0.4689 0.0
C941 C 0.99996 1.02418 0.48217 0.0
C942 C 0.06672 0.07419 0.51386 0.0
C943 C 0.04219 0.053 0.54279 0.0
H944 H 0.25777 1.01292 0.65919 0.0
H945 H 0.34146 0.97175 0.76718 0.0
H946 H 0.29747 1.00837 0.81714 0.0
H947 H 0.23491 0.05045 0.83008 0.0
H948 H 0.15054 0.09208 0.72286 0.0
H949 H 0.19541 0.0564 0.67225 0.0
C950 C 0.26663 1.01198 0.69366 0.0
C951 C 0.30302 0.98948 0.70942 0.0
C952 C 0.24097 0.03292 0.72215 0.0
C953 C 0.31385 0.98879 0.75416 0.0
C954 C 0.28858 1.00964 0.7827 0.0
C955 C 0.226 0.05186 0.79563 0.0
C956 C 0.18902 0.07387 0.78031 0.0
C957 C 0.25195 0.03152 0.76704 0.0
C958 C 0.17856 0.07534 0.73554 0.0
C959 C 0.20429 0.05497 0.70668 0.0
H960 H 0.97569 0.3531 0.7543 0.0
H961 H 0.91605 0.26529 0.67519 0.0
H962 H 0.96158 0.21907 0.71483 0.0
H963 H 0.01865 0.20285 0.77226 0.0
H964 H 0.07807 0.29054 0.85171 0.0
H965 H 0.03257 0.33682 0.81205 0.0
C966 C 0.97274 0.32389 0.7457 0.0
C967 C 0.94235 0.31293 0.71174 0.0
C968 C 0.99904 0.29707 0.76887 0.0
C969 C 0.939 0.27479 0.70119 0.0
C970 C 0.96509 0.24813 0.72389 0.0
C971 C 0.02158 0.23205 0.78095 0.0
C972 C 0.05189 0.24295 0.81498 0.0
C973 C 0.9952 0.25886 0.75788 0.0
C974 C 0.05512 0.28107 0.82569 0.0
C975 C 0.02908 0.30776 0.80295 0.0
H976 H 0.83241 0.76096 0.5499 0.0
H977 H 0.77417 0.86834 0.51758 0.0
H978 H 0.71366 0.83805 0.47432 0.0
H979 H 0.67672 0.78116 0.44656 0.0
H980 H 0.73522 0.6738 0.47855 0.0
H981 H 0.79614 0.70414 0.52121 0.0
C982 C 0.8066 0.77782 0.5333 0.0
C983 C 0.80788 0.81692 0.5371 0.0
C984 C 0.77182 0.76023 0.50858 0.0
C985 C 0.77411 0.83823 0.51525 0.0
C986 C 0.7394 0.82092 0.49056 0.0
C987 C 0.70271 0.76432 0.4629 0.0
C988 C 0.70119 0.7252 0.45947 0.0
C989 C 0.73779 0.78194 0.4872 0.0
C990 C 0.73538 0.70393 0.48073 0.0
C991 C 0.77031 0.72126 0.50509 0.0
H992 H 0.71887 1.02085 0.3332 0.0
H993 H 0.64816 0.08099 0.22956 0.0
H994 H 0.69247 0.04811 0.17636 0.0
H995 H 0.75214 1.00326 0.15963 0.0
H996 H 0.82288 0.94354 0.26362 0.0
H997 H 0.7779 0.97586 0.31655 0.0
C998 C 0.7128 1.02675 0.29895 0.0
C999 C 0.67994 0.05341 0.28547 0.0
C1000 C 0.73878 1.00811 0.26871 0.0
C1001 C 0.67289 0.06055 0.24091 0.0
C1002 C 0.69844 0.04187 0.21051 0.0
C1003 C 0.75801 0.99736 0.19389 0.0
C1004 C 0.79123 0.97103 0.20757 0.0
C1005 C 0.73171 1.01582 0.22409 0.0
C1006 C 0.79788 0.96371 0.25212 0.0
C1007 C 0.772 0.9821 0.28238 0.0
H1008 H 0.95655 0.76182 0.16924 0.0
H1009 H 0.94555 0.86261 0.24448 0.0
H1010 H 0.99064 0.83418 0.304 0.0
H1011 H 0.03235 0.78078 0.33477 0.0
H1012 H 0.04364 0.67995 0.2597 0.0
H1013 H 0.99885 0.70846 0.19989 0.0
C1014 C 0.96406 0.77769 0.19858 0.0
C1015 C 0.94754 0.81432 0.20238 0.0
C1016 C 0.98983 0.76114 0.23272 0.0
C1017 C 0.95772 0.83438 0.24067 0.0
C1018 C 0.98346 0.81812 0.27475 0.0
C1019 C 0.025 0.76489 0.30541 0.0
C1020 C 0.04134 0.72821 0.30178 0.0
C1021 C 0.99948 0.78149 0.27117 0.0
C1022 C 0.03154 0.70821 0.26337 0.0
C1023 C 0.00596 0.72451 0.22915 0.0
H1024 H 0.34139 0.81637 0.01626 0.0
H1025 H 0.23873 0.89644 0.04577 0.0
H1026 H 0.18023 0.85509 0.01462 0.0
H1027 H 0.15843 0.79683 0.97732 0.0
H1028 H 0.25992 0.7144 0.95273 0.0
H1029 H 0.31871 0.75565 0.98401 0.0
C1030 C 0.30618 0.82471 0.01568 0.0
C1031 C 0.29434 0.8596 0.03265 0.0
C1032 C 0.27259 0.80027 0.99886 0.0
C1033 C 0.2486 0.86979 0.0327 0.0
C1034 C 0.21518 0.84617 0.01489 0.0
C1035 C 0.19343 0.78784 0.9791 0.0
C1036 C 0.20493 0.75273 0.96262 0.0
C1037 C 0.2268 0.81145 0.9977 0.0
C1038 C 0.25024 0.74118 0.96552 0.0
C1039 C 0.28386 0.76488 0.9831 0.0
H1040 H 0.03429 0.54899 0.93272 0.0
H1041 H 0.0973 0.60815 0.04123 0.0
H1042 H 0.05102 0.5731 0.09098 0.0
H1043 H 0.99192 0.52668 0.10314 0.0
H1044 H 0.929 0.46787 0.99428 0.0
H1045 H 0.97587 0.50244 0.94483 0.0
C1046 C 0.03824 0.55424 0.96728 0.0
C1047 C 0.06946 0.58125 0.9832 0.0
C1048 C 0.0112 0.53436 0.99546 0.0
C1049 C 0.07384 0.58748 0.0281 0.0
C1050 C 0.04718 0.56756 0.05648 0.0
C1051 C 0.98815 0.52145 0.06856 0.0
C1052 C 0.95661 0.49475 0.05245 0.0
C1053 C 0.01552 0.54117 0.04044 0.0
C1054 C 0.95267 0.48831 1.00757 0.0
C1055 C 0.97963 0.50798 0.97933 0.0
H1056 H 0.23934 0.54338 0.3492 0.0
H1057 H 0.17035 0.59904 0.24111 0.0
H1058 H 0.22031 0.56822 0.19115 0.0
H1059 H 0.28317 0.52562 0.17842 0.0
H1060 H 0.35224 0.47009 0.28656 0.0
H1061 H 0.30285 0.50147 0.33658 0.0
C1062 C 0.23489 0.54872 0.31467 0.0
C1063 C 0.20073 0.57338 0.29892 0.0
C1064 C 0.26407 0.53129 0.28632 0.0
C1065 C 0.19602 0.58008 0.25411 0.0
C1066 C 0.22474 0.56257 0.22559 0.0
C1067 C 0.28776 0.52045 0.21297 0.0
C1068 C 0.3216 0.49547 0.22869 0.0
C1069 C 0.25892 0.53823 0.24138 0.0
C1070 C 0.32678 0.48924 0.27356 0.0
C1071 C 0.29835 0.50704 0.30212 0.0
H1072 H 0.79574 0.28172 0.08689 0.0
H1073 H 0.79986 0.38332 0.01217 0.0
H1074 H 0.75155 0.3548 0.95491 0.0
H1075 H 0.70816 0.30109 0.92627 0.0
H1076 H 0.70441 0.19961 1.00131 0.0
H1077 H 0.75285 0.22814 0.05825 0.0
C1078 C 0.78612 0.29778 0.05814 0.0
C1079 C 0.80152 0.33472 0.05394 0.0
C1080 C 0.75848 0.28118 0.02537 0.0
C1081 C 0.78861 0.35489 0.01632 0.0
C1082 C 0.76098 0.33857 0.98355 0.0
C1083 C 0.71793 0.2851 0.95502 0.0
C1084 C 0.70247 0.24818 0.95943 0.0
C1085 C 0.74575 0.30172 0.98773 0.0
C1086 C 0.71564 0.22803 0.99699 0.0
C1087 C 0.74335 0.24435 0.02961 0.0
H1088 H 0.77635 0.51847 0.68515 0.0
H1089 H 0.85011 0.46858 0.79436 0.0
H1090 H 0.80595 0.50574 0.84404 0.0
H1091 H 0.7466 0.55224 0.85606 0.0
H1092 H 0.67291 0.60155 0.74641 0.0
H1093 H 0.71678 0.56414 0.69705 0.0
C1094 C 0.7831 0.51565 0.71983 0.0
C1095 C 0.8169 0.49075 0.73595 0.0
C1096 C 0.75734 0.53678 0.74801 0.0
C1097 C 0.82464 0.48755 0.78102 0.0
C1098 C 0.79925 0.50874 0.80939 0.0
C1099 C 0.73987 0.5548 0.82135 0.0
C1100 C 0.70626 0.5798 0.80501 0.0
C1101 C 0.76547 0.53337 0.7932 0.0
C1102 C 0.69827 0.58257 0.75993 0.0
C1103 C 0.72352 0.56125 0.73171 0.0
H1104 H 0.4731 0.0421 0.09605 0.0
H1105 H 0.41005 0.97745 0.99202 0.0
H1106 H 0.45942 1.00688 0.94049 0.0
H1107 H 0.51992 0.05098 0.92507 0.0
H1108 H 0.58233 0.11634 0.02881 0.0
H1109 H 0.53403 0.08601 0.08065 0.0
C1110 C 0.46991 0.03441 0.06208 0.0
C1111 C 0.43754 1.00757 0.04798 0.0
C1112 C 0.49859 0.05132 0.03272 0.0
C1113 C 0.4343 0.99806 1.00382 0.0
C1114 C 0.4627 1.01481 0.97438 0.0
C1115 C 0.52339 0.05852 0.95908 0.0
C1116 C 0.55513 0.08593 0.97296 0.0
C1117 C 0.495 0.0414 0.9885 0.0
C1118 C 0.5586 0.09529 0.01717 0.0
C1119 C 0.53075 0.07805 0.04678 0.0
H1120 H 0.43378 0.27419 0.20209 0.0
H1121 H 0.49748 0.37599 0.24738 0.0
H1122 H 0.55221 0.33983 0.29187 0.0
H1123 H 0.58201 0.27934 0.31772 0.0
H1124 H 0.51793 0.17774 0.27221 0.0
H1125 H 0.46326 0.21394 0.22802 0.0
C1126 C 0.45959 0.28861 0.22167 0.0
C1127 C 0.46144 0.32787 0.22126 0.0
C1128 C 0.49089 0.26765 0.24717 0.0
C1129 C 0.49517 0.34588 0.24698 0.0
C1130 C 0.52652 0.32518 0.27244 0.0
C1131 C 0.55613 0.26502 0.29814 0.0
C1132 C 0.55416 0.22574 0.29846 0.0
C1133 C 0.52472 0.28606 0.27274 0.0
C1134 C 0.52026 0.20784 0.27284 0.0
C1135 C 0.48897 0.22856 0.24747 0.0
H1136 H 0.43687 0.77381 0.69729 0.0
H1137 H 0.48491 0.88357 0.73316 0.0
H1138 H 0.54324 0.8559 0.78176 0.0
H1139 H 0.58044 0.80059 0.81429 0.0
H1140 H 0.53255 0.69091 0.77784 0.0
H1141 H 0.47434 0.71861 0.72934 0.0
C1142 C 0.46005 0.79178 0.71569 0.0
C1143 C 0.45631 0.83081 0.71152 0.0
C1144 C 0.49356 0.77568 0.74357 0.0
C1145 C 0.48682 0.8535 0.7357 0.0
C1146 C 0.52025 0.83767 0.76352 0.0
C1147 C 0.55733 0.78266 0.79575 0.0
C1148 C 0.56092 0.74361 0.8 0.0
C1149 C 0.52391 0.7988 0.76775 0.0
C1150 C 0.53059 0.72097 0.77554 0.0
C1151 C 0.49726 0.73682 0.74768 0.0
H1152 H 0.51798 0.53229 0.41929 0.0
H1153 H 0.5974 0.58627 0.52187 0.0
H1154 H 0.55352 0.55422 0.57598 0.0
H1155 H 0.49167 0.51218 0.5939 0.0
H1156 H 0.41256 0.45794 0.49129 0.0
H1157 H 0.45713 0.48932 0.43723 0.0
C1158 C 0.52601 0.53699 0.45349 0.0
C1159 C 0.56114 0.56176 0.46643 0.0
C1160 C 0.50037 0.51875 0.48432 0.0
C1161 C 0.57085 0.56731 0.51093 0.0
C1162 C 0.54556 0.54912 0.54186 0.0
C1163 C 0.48385 0.50728 0.55971 0.0
C1164 C 0.44835 0.48288 0.54673 0.0
C1165 C 0.50998 0.52507 0.5289 0.0
C1166 C 0.43935 0.47668 0.50224 0.0
C1167 C 0.46497 0.49454 0.47134 0.0
loop_
_geom_bond_atom_site_label_1
_geom_bond_atom_site_label_2
_geom_bond_distance
_geom_bond_site_symmetry_2
_ccdc_geom_bond_type
C0 C1 1.351 . S
C0 N3 1.368 . S
C0 H5 0.931 . S
C1 C0 1.351 . S
C1 N2 1.373 . S
C1 H29 0.930 . S
N2 C1 1.373 . S
N2 C4 1.340 . S
N3 C0 1.368 . S
N3 C4 1.321 . S
N3 Co6 2.135 . S
C4 N2 1.340 . S
C4 N3 1.321 . S
C4 H28 0.930 . S
H5 C0 0.931 . S
Co6 N3 2.135 . S
Co6 N9 2.121 . S
Co6 O14 2.055 . S
Co6 O17 2.039 . S
Co6 N20 2.140 . S
C7 O8 1.227 . S
C7 O17 1.265 . S
O8 C7 1.227 . S
N9 Co6 2.121 . S
N9 C11 1.375 . S
N9 C12 1.313 . S
C10 C11 1.338 . S
C10 N13 1.377 1_455 S
C10 H30 0.930 1_455 S
C11 N9 1.375 . S
C11 C10 1.338 . S
C11 H15 0.931 . S
C12 N9 1.313 . S
C12 N13 1.344 1_455 S
C12 H16 0.930 . S
N13 C10 1.377 1_655 S
N13 C12 1.344 1_655 S
O14 Co6 2.055 . S
O14 C18 1.253 . S
H15 C11 0.931 . S
H16 C12 0.930 . S
O17 Co6 2.039 . S
O17 C7 1.265 . S
C18 O14 1.253 . S
C18 O19 1.227 . S
O19 C18 1.227 . S
N20 Co6 2.140 . S
N20 C23 1.346 . S
N20 C24 1.345 . S
C21 C22 1.387 . S
C21 C25 1.391 . S
C22 C21 1.387 . S
C22 C23 1.369 . S
C22 H31 0.929 . S
C23 N20 1.346 . S
C23 C22 1.369 . S
C23 H26 0.928 . S
C24 N20 1.345 . S
C24 C25 1.371 . S
C24 H27 0.931 . S
C25 C21 1.391 . S
C25 C24 1.371 . S
C25 H32 0.930 . S
H26 C23 0.928 . S
H27 C24 0.931 . S
H28 C4 0.930 . S
H29 C1 0.930 . S
H30 C10 0.930 1_655 S
H31 C22 0.929 . S
H32 C25 0.930 . S
C33 C34 1.351 . S
C33 N36 1.368 . S
C33 H38 0.931 . S
C34 C33 1.351 . S
C34 N35 1.373 1_455 S
C34 H62 0.930 1_455 S
N35 C34 1.373 1_655 S
N35 C37 1.340 1_655 S
N36 C33 1.368 . S
N36 C37 1.321 . S
N36 Co39 2.135 . S
C37 N35 1.340 1_455 S
C37 N36 1.321 . S
C37 H61 0.930 . S
H38 C33 0.931 . S
Co39 N36 2.135 . S
Co39 N42 2.121 . S
Co39 O47 2.055 . S
Co39 O50 2.039 . S
Co39 N53 2.140 . S
C40 O41 1.227 . S
C40 O50 1.265 . S
O41 C40 1.227 . S
N42 Co39 2.121 . S
N42 C44 1.375 . S
N42 C45 1.313 . S
C43 C44 1.338 . S
C43 N46 1.377 . S
C43 H63 0.930 . S
C44 N42 1.375 . S
C44 C43 1.338 . S
C44 H48 0.931 . S
C45 N42 1.313 . S
C45 N46 1.344 . S
C45 H49 0.930 . S
N46 C43 1.377 . S
N46 C45 1.344 . S
O47 Co39 2.055 . S
O47 C51 1.253 . S
H48 C44 0.931 . S
H49 C45 0.930 . S
O50 Co39 2.039 . S
O50 C40 1.265 . S
C51 O47 1.253 . S
C51 O52 1.227 . S
O52 C51 1.227 . S
N53 Co39 2.140 . S
N53 C56 1.346 . S
N53 C57 1.345 . S
C54 C55 1.387 1_554 S
C54 C58 1.391 1_554 S
C55 C54 1.387 1_556 S
C55 C56 1.369 . S
C55 H64 0.929 . S
C56 N53 1.346 . S
C56 C55 1.369 . S
C56 H59 0.928 . S
C57 N53 1.345 . S
C57 C58 1.371 . S
C57 H60 0.931 . S
C58 C54 1.391 1_556 S
C58 C57 1.371 . S
C58 H65 0.930 1_556 S
H59 C56 0.928 . S
H60 C57 0.931 . S
H61 C37 0.930 . S
H62 C34 0.930 1_655 S
H63 C43 0.930 . S
H64 C55 0.929 . S
H65 C58 0.930 1_554 S
C66 C67 1.351 . S
C66 N69 1.368 . S
C66 H71 0.931 . S
C67 C66 1.351 . S
C67 N68 1.373 . S
C67 H95 0.930 . S
N68 C67 1.373 . S
N68 C70 1.340 . S
N69 C66 1.368 . S
N69 C70 1.321 . S
N69 Co72 2.135 . S
C70 N68 1.340 . S
C70 N69 1.321 . S
C70 H94 0.930 . S
H71 C66 0.931 . S
Co72 N69 2.135 . S
Co72 N75 2.121 . S
Co72 O80 2.055 . S
Co72 O83 2.039 . S
Co72 N86 2.140 . S
C73 O74 1.227 . S
C73 O83 1.265 . S
O74 C73 1.227 . S
N75 Co72 2.121 . S
N75 C77 1.375 . S
N75 C78 1.313 . S
C76 C77 1.338 . S
C76 N79 1.377 1_655 S
C76 H96 0.930 1_655 S
C77 N75 1.375 . S
C77 C76 1.338 . S
C77 H81 0.931 . S
C78 N75 1.313 . S
C78 N79 1.344 1_655 S
C78 H82 0.930 . S
N79 C76 1.377 1_455 S
N79 C78 1.344 1_455 S
O80 Co72 2.055 . S
O80 C84 1.253 . S
H81 C77 0.931 . S
H82 C78 0.930 . S
O83 Co72 2.039 . S
O83 C73 1.265 . S
C84 O80 1.253 . S
C84 O85 1.227 . S
O85 C84 1.227 . S
N86 Co72 2.140 . S
N86 C89 1.346 . S
N86 C90 1.345 . S
C87 C88 1.387 . S
C87 C91 1.391 . S
C88 C87 1.387 . S
C88 C89 1.369 . S
C88 H97 0.929 . S
C89 N86 1.346 . S
C89 C88 1.369 . S
C89 H92 0.928 . S
C90 N86 1.345 . S
C90 C91 1.371 . S
C90 H93 0.931 . S
C91 C87 1.391 . S
C91 C90 1.371 . S
C91 H98 0.930 . S
H92 C89 0.928 . S
H93 C90 0.931 . S
H94 C70 0.930 . S
H95 C67 0.930 . S
H96 C76 0.930 1_455 S
H97 C88 0.929 . S
H98 C91 0.930 . S
C99 C100 1.351 . S
C99 N102 1.368 . S
C99 H104 0.931 . S
C100 C99 1.351 . S
C100 N101 1.373 1_655 S
C100 H128 0.930 1_655 S
N101 C100 1.373 1_455 S
N101 C103 1.340 1_455 S
N102 C99 1.368 . S
N102 C103 1.321 . S
N102 Co105 2.135 . S
C103 N101 1.340 1_655 S
C103 N102 1.321 . S
C103 H127 0.930 . S
H104 C99 0.931 . S
Co105 N102 2.135 . S
Co105 N108 2.121 . S
Co105 O113 2.055 . S
Co105 O116 2.039 . S
Co105 N119 2.140 . S
C106 O107 1.227 . S
C106 O116 1.265 . S
O107 C106 1.227 . S
N108 Co105 2.121 . S
N108 C110 1.375 . S
N108 C111 1.313 . S
C109 C110 1.338 . S
C109 N112 1.377 . S
C109 H129 0.930 . S
C110 N108 1.375 . S
C110 C109 1.338 . S
C110 H114 0.931 . S
C111 N108 1.313 . S
C111 N112 1.344 . S
C111 H115 0.930 . S
N112 C109 1.377 . S
N112 C111 1.344 . S
O113 Co105 2.055 . S
O113 C117 1.253 . S
H114 C110 0.931 . S
H115 C111 0.930 . S
O116 Co105 2.039 . S
O116 C106 1.265 . S
C117 O113 1.253 . S
C117 O118 1.227 . S
O118 C117 1.227 . S
N119 Co105 2.140 . S
N119 C122 1.346 . S
N119 C123 1.345 . S
C120 C121 1.387 1_556 S
C120 C124 1.391 1_556 S
C121 C120 1.387 1_554 S
C121 C122 1.369 . S
C121 H130 0.929 . S
C122 N119 1.346 . S
C122 C121 1.369 . S
C122 H125 0.928 . S
C123 N119 1.345 . S
C123 C124 1.371 . S
C123 H126 0.931 . S
C124 C120 1.391 1_554 S
C124 C123 1.371 . S
C124 H131 0.930 1_554 S
H125 C122 0.928 . S
H126 C123 0.931 . S
H127 C103 0.930 . S
H128 C100 0.930 1_455 S
H129 C109 0.930 . S
H130 C121 0.929 . S
H131 C124 0.930 1_556 S
C132 C133 1.351 . S
C132 N135 1.368 . S
C132 H137 0.931 . S
C133 C132 1.351 . S
C133 N134 1.373 . S
C133 H161 0.930 . S
N134 C133 1.373 . S
N134 C136 1.340 . S
N135 C132 1.368 . S
N135 C136 1.321 . S
N135 Co138 2.135 . S
C136 N134 1.340 . S
C136 N135 1.321 . S
C136 H160 0.930 . S
H137 C132 0.931 . S
Co138 N135 2.135 . S
Co138 N141 2.121 . S
Co138 O146 2.055 . S
Co138 O149 2.039 . S
Co138 N152 2.140 . S
C139 O140 1.227 . S
C139 O149 1.265 . S
O140 C139 1.227 . S
N141 Co138 2.121 . S
N141 C143 1.375 . S
N141 C144 1.313 . S
C142 C143 1.338 . S
C142 N145 1.377 1_455 S
C142 H162 0.930 1_455 S
C143 N141 1.375 . S
C143 C142 1.338 . S
C143 H147 0.931 . S
C144 N141 1.313 . S
C144 N145 1.344 1_455 S
C144 H148 0.930 . S
N145 C142 1.377 1_655 S
N145 C144 1.344 1_655 S
O146 Co138 2.055 . S
O146 C150 1.253 . S
H147 C143 0.931 . S
H148 C144 0.930 . S
O149 Co138 2.039 . S
O149 C139 1.265 . S
C150 O146 1.253 . S
C150 O151 1.227 . S
O151 C150 1.227 . S
N152 Co138 2.140 . S
N152 C155 1.346 . S
N152 C156 1.345 . S
C153 C154 1.387 . S
C153 C157 1.391 . S
C154 C153 1.387 . S
C154 C155 1.369 . S
C154 H163 0.929 . S
C155 N152 1.346 . S
C155 C154 1.369 . S
C155 H158 0.928 . S
C156 N152 1.345 . S
C156 C157 1.371 . S
C156 H159 0.931 . S
C157 C153 1.391 . S
C157 C156 1.371 . S
C157 H164 0.930 . S
H158 C155 0.928 . S
H159 C156 0.931 . S
H160 C136 0.930 . S
H161 C133 0.930 . S
H162 C142 0.930 1_655 S
H163 C154 0.929 . S
H164 C157 0.930 . S
C165 C166 1.351 . S
C165 N168 1.368 . S
C165 H170 0.931 . S
C166 C165 1.351 . S
C166 N167 1.373 1_455 S
C166 H194 0.930 1_455 S
N167 C166 1.373 1_655 S
N167 C169 1.340 1_655 S
N168 C165 1.368 . S
N168 C169 1.321 . S
N168 Co171 2.135 . S
C169 N167 1.340 1_455 S
C169 N168 1.321 . S
C169 H193 0.930 . S
H170 C165 0.931 . S
Co171 N168 2.135 . S
Co171 N174 2.121 . S
Co171 O179 2.055 . S
Co171 O182 2.039 . S
Co171 N185 2.140 . S
C172 O173 1.227 . S
C172 O182 1.265 . S
O173 C172 1.227 . S
N174 Co171 2.121 . S
N174 C176 1.375 . S
N174 C177 1.313 . S
C175 C176 1.338 . S
C175 N178 1.377 . S
C175 H195 0.930 . S
C176 N174 1.375 . S
C176 C175 1.338 . S
C176 H180 0.931 . S
C177 N174 1.313 . S
C177 N178 1.344 . S
C177 H181 0.930 . S
N178 C175 1.377 . S
N178 C177 1.344 . S
O179 Co171 2.055 . S
O179 C183 1.253 . S
H180 C176 0.931 . S
H181 C177 0.930 . S
O182 Co171 2.039 . S
O182 C172 1.265 . S
C183 O179 1.253 . S
C183 O184 1.227 . S
O184 C183 1.227 . S
N185 Co171 2.140 . S
N185 C188 1.346 . S
N185 C189 1.345 . S
C186 C187 1.387 . S
C186 C190 1.391 . S
C187 C186 1.387 . S
C187 C188 1.369 . S
C187 H196 0.929 . S
C188 N185 1.346 . S
C188 C187 1.369 . S
C188 H191 0.928 . S
C189 N185 1.345 . S
C189 C190 1.371 . S
C189 H192 0.931 . S
C190 C186 1.391 . S
C190 C189 1.371 . S
C190 H197 0.930 . S
H191 C188 0.928 . S
H192 C189 0.931 . S
H193 C169 0.930 . S
H194 C166 0.930 1_655 S
H195 C175 0.930 . S
H196 C187 0.929 . S
H197 C190 0.930 . S
C198 C199 1.351 . S
C198 N201 1.368 . S
C198 H203 0.931 . S
C199 C198 1.351 . S
C199 N200 1.373 . S
C199 H227 0.930 . S
N200 C199 1.373 . S
N200 C202 1.340 . S
N201 C198 1.368 . S
N201 C202 1.321 . S
N201 Co204 2.135 . S
C202 N200 1.340 . S
C202 N201 1.321 . S
C202 H226 0.930 . S
H203 C198 0.931 . S
Co204 N201 2.135 . S
Co204 N207 2.121 . S
Co204 O212 2.055 . S
Co204 O215 2.039 . S
Co204 N218 2.140 . S
C205 O206 1.227 . S
C205 O215 1.265 . S
O206 C205 1.227 . S
N207 Co204 2.121 . S
N207 C209 1.375 . S
N207 C210 1.313 . S
C208 C209 1.338 . S
C208 N211 1.377 1_655 S
C208 H228 0.930 1_655 S
C209 N207 1.375 . S
C209 C208 1.338 . S
C209 H213 0.931 . S
C210 N207 1.313 . S
C210 N211 1.344 1_655 S
C210 H214 0.930 . S
N211 C208 1.377 1_455 S
N211 C210 1.344 1_455 S
O212 Co204 2.055 . S
O212 C216 1.253 . S
H213 C209 0.931 . S
H214 C210 0.930 . S
O215 Co204 2.039 . S
O215 C205 1.265 . S
C216 O212 1.253 . S
C216 O217 1.227 . S
O217 C216 1.227 . S
N218 Co204 2.140 . S
N218 C221 1.346 . S
N218 C222 1.345 . S
C219 C220 1.387 . S
C219 C223 1.391 . S
C220 C219 1.387 . S
C220 C221 1.369 . S
C220 H229 0.929 . S
C221 N218 1.346 . S
C221 C220 1.369 . S
C221 H224 0.928 . S
C222 N218 1.345 . S
C222 C223 1.371 . S
C222 H225 0.931 . S
C223 C219 1.391 . S
C223 C222 1.371 . S
C223 H230 0.930 . S
H224 C221 0.928 . S
H225 C222 0.931 . S
H226 C202 0.930 . S
H227 C199 0.930 . S
H228 C208 0.930 1_455 S
H229 C220 0.929 . S
H230 C223 0.930 . S
C231 C232 1.351 . S
C231 N234 1.368 . S
C231 H236 0.931 . S
C232 C231 1.351 . S
C232 N233 1.373 1_655 S
C232 H260 0.930 1_655 S
N233 C232 1.373 1_455 S
N233 C235 1.340 1_455 S
N234 C231 1.368 . S
N234 C235 1.321 . S
N234 Co237 2.135 . S
C235 N233 1.340 1_655 S
C235 N234 1.321 . S
C235 H259 0.930 . S
H236 C231 0.931 . S
Co237 N234 2.135 . S
Co237 N240 2.121 . S
Co237 O245 2.055 . S
Co237 O248 2.039 . S
Co237 N251 2.140 . S
C238 O239 1.227 . S
C238 O248 1.265 . S
O239 C238 1.227 . S
N240 Co237 2.121 . S
N240 C242 1.375 . S
N240 C243 1.313 . S
C241 C242 1.338 . S
C241 N244 1.377 . S
C241 H261 0.930 . S
C242 N240 1.375 . S
C242 C241 1.338 . S
C242 H246 0.931 . S
C243 N240 1.313 . S
C243 N244 1.344 . S
C243 H247 0.930 . S
N244 C241 1.377 . S
N244 C243 1.344 . S
O245 Co237 2.055 . S
O245 C249 1.253 . S
H246 C242 0.931 . S
H247 C243 0.930 . S
O248 Co237 2.039 . S
O248 C238 1.265 . S
C249 O245 1.253 . S
C249 O250 1.227 . S
O250 C249 1.227 . S
N251 Co237 2.140 . S
N251 C254 1.346 . S
N251 C255 1.345 . S
C252 C253 1.387 . S
C252 C256 1.391 . S
C253 C252 1.387 . S
C253 C254 1.369 . S
C253 H262 0.929 . S
C254 N251 1.346 . S
C254 C253 1.369 . S
C254 H257 0.928 . S
C255 N251 1.345 . S
C255 C256 1.371 . S
C255 H258 0.931 . S
C256 C252 1.391 . S
C256 C255 1.371 . S
C256 H263 0.930 . S
H257 C254 0.928 . S
H258 C255 0.931 . S
H259 C235 0.930 . S
H260 C232 0.930 1_455 S
H261 C241 0.930 . S
H262 C253 0.929 . S
H263 C256 0.930 . S
C264 C265 1.351 . S
C264 N267 1.368 . S
C264 H269 0.931 . S
C265 C264 1.351 . S
C265 N266 1.373 . S
C265 H293 0.930 . S
N266 C265 1.373 . S
N266 C268 1.340 . S
N267 C264 1.368 . S
N267 C268 1.321 . S
N267 Co270 2.135 . S
C268 N266 1.340 . S
C268 N267 1.321 . S
C268 H292 0.930 . S
H269 C264 0.931 . S
Co270 N267 2.135 . S
Co270 N273 2.121 . S
Co270 O278 2.055 . S
Co270 O281 2.039 . S
Co270 N284 2.140 . S
C271 O272 1.227 . S
C271 O281 1.265 . S
O272 C271 1.227 . S
N273 Co270 2.121 . S
N273 C275 1.375 . S
N273 C276 1.313 . S
C274 C275 1.338 . S
C274 N277 1.377 . S
C274 H294 0.930 . S
C275 N273 1.375 . S
C275 C274 1.338 . S
C275 H279 0.931 . S
C276 N273 1.313 . S
C276 N277 1.344 . S
C276 H280 0.930 . S
N277 C274 1.377 . S
N277 C276 1.344 . S
O278 Co270 2.055 . S
O278 C282 1.253 . S
H279 C275 0.931 . S
H280 C276 0.930 . S
O281 Co270 2.039 . S
O281 C271 1.265 . S
C282 O278 1.253 . S
C282 O283 1.227 . S
O283 C282 1.227 . S
N284 Co270 2.140 . S
N284 C287 1.346 . S
N284 C288 1.345 . S
C285 C286 1.387 . S
C285 C289 1.391 . S
C286 C285 1.387 . S
C286 C287 1.369 . S
C286 H295 0.929 . S
C287 N284 1.346 . S
C287 C286 1.369 . S
C287 H290 0.928 . S
C288 N284 1.345 . S
C288 C289 1.371 . S
C288 H291 0.931 . S
C289 C285 1.391 . S
C289 C288 1.371 . S
C289 H296 0.930 . S
H290 C287 0.928 . S
H291 C288 0.931 . S
H292 C268 0.930 . S
H293 C265 0.930 . S
H294 C274 0.930 . S
H295 C286 0.929 . S
H296 C289 0.930 . S
C297 C298 1.351 . S
C297 N300 1.368 . S
C297 H302 0.931 . S
C298 C297 1.351 . S
C298 N299 1.373 . S
C298 H326 0.930 . S
N299 C298 1.373 . S
N299 C301 1.340 . S
N300 C297 1.368 . S
N300 C301 1.321 . S
N300 Co303 2.135 . S
C301 N299 1.340 . S
C301 N300 1.321 . S
C301 H325 0.930 . S
H302 C297 0.931 . S
Co303 N300 2.135 . S
Co303 N306 2.121 . S
Co303 O311 2.055 . S
Co303 O314 2.039 . S
Co303 N317 2.140 . S
C304 O305 1.227 . S
C304 O314 1.265 . S
O305 C304 1.227 . S
N306 Co303 2.121 . S
N306 C308 1.375 . S
N306 C309 1.313 . S
C307 C308 1.338 . S
C307 N310 1.377 . S
C307 H327 0.930 . S
C308 N306 1.375 . S
C308 C307 1.338 . S
C308 H312 0.931 . S
C309 N306 1.313 . S
C309 N310 1.344 . S
C309 H313 0.930 . S
N310 C307 1.377 . S
N310 C309 1.344 . S
O311 Co303 2.055 . S
O311 C315 1.253 . S
H312 C308 0.931 . S
H313 C309 0.930 . S
O314 Co303 2.039 . S
O314 C304 1.265 . S
C315 O311 1.253 . S
C315 O316 1.227 . S
O316 C315 1.227 . S
N317 Co303 2.140 . S
N317 C320 1.346 . S
N317 C321 1.345 . S
C318 C319 1.387 . S
C318 C322 1.391 . S
C319 C318 1.387 . S
C319 C320 1.369 . S
C319 H328 0.929 . S
C320 N317 1.346 . S
C320 C319 1.369 . S
C320 H323 0.928 . S
C321 N317 1.345 . S
C321 C322 1.371 . S
C321 H324 0.931 . S
C322 C318 1.391 . S
C322 C321 1.371 . S
C322 H329 0.930 . S
H323 C320 0.928 . S
H324 C321 0.931 . S
H325 C301 0.930 . S
H326 C298 0.930 . S
H327 C307 0.930 . S
H328 C319 0.929 . S
H329 C322 0.930 . S
C330 C331 1.351 . S
C330 N333 1.368 . S
C330 H335 0.931 . S
C331 C330 1.351 . S
C331 N332 1.373 . S
C331 H359 0.930 . S
N332 C331 1.373 . S
N332 C334 1.340 . S
N333 C330 1.368 . S
N333 C334 1.321 . S
N333 Co336 2.135 . S
C334 N332 1.340 . S
C334 N333 1.321 . S
C334 H358 0.930 . S
H335 C330 0.931 . S
Co336 N333 2.135 . S
Co336 N339 2.121 . S
Co336 O344 2.055 . S
Co336 O347 2.039 . S
Co336 N350 2.140 . S
C337 O338 1.227 . S
C337 O347 1.265 . S
O338 C337 1.227 . S
N339 Co336 2.121 . S
N339 C341 1.375 . S
N339 C342 1.313 . S
C340 C341 1.338 . S
C340 N343 1.377 . S
C340 H360 0.930 . S
C341 N339 1.375 . S
C341 C340 1.338 . S
C341 H345 0.931 . S
C342 N339 1.313 . S
C342 N343 1.344 . S
C342 H346 0.930 . S
N343 C340 1.377 . S
N343 C342 1.344 . S
O344 Co336 2.055 . S
O344 C348 1.253 . S
H345 C341 0.931 . S
H346 C342 0.930 . S
O347 Co336 2.039 . S
O347 C337 1.265 . S
C348 O344 1.253 . S
C348 O349 1.227 . S
O349 C348 1.227 . S
N350 Co336 2.140 . S
N350 C353 1.346 . S
N350 C354 1.345 . S
C351 C352 1.387 . S
C351 C355 1.391 . S
C352 C351 1.387 . S
C352 C353 1.369 . S
C352 H361 0.929 . S
C353 N350 1.346 . S
C353 C352 1.369 . S
C353 H356 0.928 . S
C354 N350 1.345 . S
C354 C355 1.371 . S
C354 H357 0.931 . S
C355 C351 1.391 . S
C355 C354 1.371 . S
C355 H362 0.930 . S
H356 C353 0.928 . S
H357 C354 0.931 . S
H358 C334 0.930 . S
H359 C331 0.930 . S
H360 C340 0.930 . S
H361 C352 0.929 . S
H362 C355 0.930 . S
C363 C364 1.351 . S
C363 N366 1.368 . S
C363 H368 0.931 . S
C364 C363 1.351 . S
C364 N365 1.373 . S
C364 H392 0.930 . S
N365 C364 1.373 . S
N365 C367 1.340 . S
N366 C363 1.368 . S
N366 C367 1.321 . S
N366 Co369 2.135 . S
C367 N365 1.340 . S
C367 N366 1.321 . S
C367 H391 0.930 . S
H368 C363 0.931 . S
Co369 N366 2.135 . S
Co369 N372 2.121 . S
Co369 O377 2.055 . S
Co369 O380 2.039 . S
Co369 N383 2.140 . S
C370 O371 1.227 . S
C370 O380 1.265 . S
O371 C370 1.227 . S
N372 Co369 2.121 . S
N372 C374 1.375 . S
N372 C375 1.313 . S
C373 C374 1.338 . S
C373 N376 1.377 . S
C373 H393 0.930 . S
C374 N372 1.375 . S
C374 C373 1.338 . S
C374 H378 0.931 . S
C375 N372 1.313 . S
C375 N376 1.344 . S
C375 H379 0.930 . S
N376 C373 1.377 . S
N376 C375 1.344 . S
O377 Co369 2.055 . S
O377 C381 1.253 . S
H378 C374 0.931 . S
H379 C375 0.930 . S
O380 Co369 2.039 . S
O380 C370 1.265 . S
C381 O377 1.253 . S
C381 O382 1.227 . S
O382 C381 1.227 . S
N383 Co369 2.140 . S
N383 C386 1.346 . S
N383 C387 1.345 . S
C384 C385 1.387 . S
C384 C388 1.391 . S
C385 C384 1.387 . S
C385 C386 1.369 . S
C385 H394 0.929 . S
C386 N383 1.346 . S
C386 C385 1.369 . S
C386 H389 0.928 . S
C387 N383 1.345 . S
C387 C388 1.371 . S
C387 H390 0.931 . S
C388 C384 1.391 . S
C388 C387 1.371 . S
C388 H395 0.930 . S
H389 C386 0.928 . S
H390 C387 0.931 . S
H391 C367 0.930 . S
H392 C364 0.930 . S
H393 C373 0.930 . S
H394 C385 0.929 . S
H395 C388 0.930 . S
C396 C397 1.351 . S
C396 N399 1.368 . S
C396 H401 0.931 . S
C397 C396 1.351 . S
C397 N398 1.373 . S
C397 H425 0.930 . S
N398 C397 1.373 . S
N398 C400 1.340 . S
N399 C396 1.368 . S
N399 C400 1.321 . S
N399 Co402 2.135 . S
C400 N398 1.340 . S
C400 N399 1.321 . S
C400 H424 0.930 . S
H401 C396 0.931 . S
Co402 N399 2.135 . S
Co402 N405 2.121 . S
Co402 O410 2.055 . S
Co402 O413 2.039 . S
Co402 N416 2.140 . S
C403 O404 1.227 . S
C403 O413 1.265 . S
O404 C403 1.227 . S
N405 Co402 2.121 . S
N405 C407 1.375 . S
N405 C408 1.313 . S
C406 C407 1.338 . S
C406 N409 1.377 . S
C406 H426 0.930 . S
C407 N405 1.375 . S
C407 C406 1.338 . S
C407 H411 0.931 . S
C408 N405 1.313 . S
C408 N409 1.344 . S
C408 H412 0.930 . S
N409 C406 1.377 . S
N409 C408 1.344 . S
O410 Co402 2.055 . S
O410 C414 1.253 . S
H411 C407 0.931 . S
H412 C408 0.930 . S
O413 Co402 2.039 . S
O413 C403 1.265 . S
C414 O410 1.253 . S
C414 O415 1.227 . S
O415 C414 1.227 . S
N416 Co402 2.140 . S
N416 C419 1.346 . S
N416 C420 1.345 . S
C417 C418 1.387 . S
C417 C421 1.391 . S
C418 C417 1.387 . S
C418 C419 1.369 . S
C418 H427 0.929 . S
C419 N416 1.346 . S
C419 C418 1.369 . S
C419 H422 0.928 . S
C420 N416 1.345 . S
C420 C421 1.371 . S
C420 H423 0.931 . S
C421 C417 1.391 . S
C421 C420 1.371 . S
C421 H428 0.930 . S
H422 C419 0.928 . S
H423 C420 0.931 . S
H424 C400 0.930 . S
H425 C397 0.930 . S
H426 C406 0.930 . S
H427 C418 0.929 . S
H428 C421 0.930 . S
C429 C430 1.351 . S
C429 N432 1.368 . S
C429 H434 0.931 . S
C430 C429 1.351 . S
C430 N431 1.373 . S
C430 H458 0.930 . S
N431 C430 1.373 . S
N431 C433 1.340 . S
N432 C429 1.368 . S
N432 C433 1.321 . S
N432 Co435 2.135 . S
C433 N431 1.340 . S
C433 N432 1.321 . S
C433 H457 0.930 . S
H434 C429 0.931 . S
Co435 N432 2.135 . S
Co435 N438 2.121 . S
Co435 O443 2.055 . S
Co435 O446 2.039 . S
Co435 N449 2.140 . S
C436 O437 1.227 . S
C436 O446 1.265 . S
O437 C436 1.227 . S
N438 Co435 2.121 . S
N438 C440 1.375 . S
N438 C441 1.313 . S
C439 C440 1.338 . S
C439 N442 1.377 . S
C439 H459 0.930 . S
C440 N438 1.375 . S
C440 C439 1.338 . S
C440 H444 0.931 . S
C441 N438 1.313 . S
C441 N442 1.344 . S
C441 H445 0.930 . S
N442 C439 1.377 . S
N442 C441 1.344 . S
O443 Co435 2.055 . S
O443 C447 1.253 . S
H444 C440 0.931 . S
H445 C441 0.930 . S
O446 Co435 2.039 . S
O446 C436 1.265 . S
C447 O443 1.253 . S
C447 O448 1.227 . S
O448 C447 1.227 . S
N449 Co435 2.140 . S
N449 C452 1.346 . S
N449 C453 1.345 . S
C450 C451 1.387 1_554 S
C450 C454 1.391 1_554 S
C451 C450 1.387 1_556 S
C451 C452 1.369 . S
C451 H460 0.929 . S
C452 N449 1.346 . S
C452 C451 1.369 . S
C452 H455 0.928 . S
C453 N449 1.345 . S
C453 C454 1.371 . S
C453 H456 0.931 . S
C454 C450 1.391 1_556 S
C454 C453 1.371 . S
C454 H461 0.930 1_556 S
H455 C452 0.928 . S
H456 C453 0.931 . S
H457 C433 0.930 . S
H458 C430 0.930 . S
H459 C439 0.930 . S
H460 C451 0.929 . S
H461 C454 0.930 1_554 S
C462 C463 1.351 . S
C462 N465 1.368 . S
C462 H467 0.931 . S
C463 C462 1.351 . S
C463 N464 1.373 . S
C463 H491 0.930 . S
N464 C463 1.373 . S
N464 C466 1.340 . S
N465 C462 1.368 . S
N465 C466 1.321 . S
N465 Co468 2.135 . S
C466 N464 1.340 . S
C466 N465 1.321 . S
C466 H490 0.930 . S
H467 C462 0.931 . S
Co468 N465 2.135 . S
Co468 N471 2.121 . S
Co468 O476 2.055 . S
Co468 O479 2.039 . S
Co468 N482 2.140 . S
C469 O470 1.227 . S
C469 O479 1.265 . S
O470 C469 1.227 . S
N471 Co468 2.121 . S
N471 C473 1.375 . S
N471 C474 1.313 . S
C472 C473 1.338 . S
C472 N475 1.377 . S
C472 H492 0.930 . S
C473 N471 1.375 . S
C473 C472 1.338 . S
C473 H477 0.931 . S
C474 N471 1.313 . S
C474 N475 1.344 . S
C474 H478 0.930 . S
N475 C472 1.377 . S
N475 C474 1.344 . S
O476 Co468 2.055 . S
O476 C480 1.253 . S
H477 C473 0.931 . S
H478 C474 0.930 . S
O479 Co468 2.039 . S
O479 C469 1.265 . S
C480 O476 1.253 . S
C480 O481 1.227 . S
O481 C480 1.227 . S
N482 Co468 2.140 . S
N482 C485 1.346 . S
N482 C486 1.345 . S
C483 C484 1.387 . S
C483 C487 1.391 . S
C484 C483 1.387 . S
C484 C485 1.369 . S
C484 H493 0.929 . S
C485 N482 1.346 . S
C485 C484 1.369 . S
C485 H488 0.928 . S
C486 N482 1.345 . S
C486 C487 1.371 . S
C486 H489 0.931 . S
C487 C483 1.391 . S
C487 C486 1.371 . S
C487 H494 0.930 . S
H488 C485 0.928 . S
H489 C486 0.931 . S
H490 C466 0.930 . S
H491 C463 0.930 . S
H492 C472 0.930 . S
H493 C484 0.929 . S
H494 C487 0.930 . S
C495 C496 1.351 . S
C495 N498 1.368 . S
C495 H500 0.931 . S
C496 C495 1.351 . S
C496 N497 1.373 . S
C496 H524 0.930 . S
N497 C496 1.373 . S
N497 C499 1.340 . S
N498 C495 1.368 . S
N498 C499 1.321 . S
N498 Co501 2.135 . S
C499 N497 1.340 . S
C499 N498 1.321 . S
C499 H523 0.930 . S
H500 C495 0.931 . S
Co501 N498 2.135 . S
Co501 N504 2.121 . S
Co501 O509 2.055 . S
Co501 O512 2.039 . S
Co501 N515 2.140 . S
C502 O503 1.227 . S
C502 O512 1.265 . S
O503 C502 1.227 . S
N504 Co501 2.121 . S
N504 C506 1.375 . S
N504 C507 1.313 . S
C505 C506 1.338 . S
C505 N508 1.377 . S
C505 H525 0.930 . S
C506 N504 1.375 . S
C506 C505 1.338 . S
C506 H510 0.931 . S
C507 N504 1.313 . S
C507 N508 1.344 . S
C507 H511 0.930 . S
N508 C505 1.377 . S
N508 C507 1.344 . S
O509 Co501 2.055 . S
O509 C513 1.253 . S
H510 C506 0.931 . S
H511 C507 0.930 . S
O512 Co501 2.039 . S
O512 C502 1.265 . S
C513 O509 1.253 . S
C513 O514 1.227 . S
O514 C513 1.227 . S
N515 Co501 2.140 . S
N515 C518 1.346 . S
N515 C519 1.345 . S
C516 C517 1.387 1_556 S
C516 C520 1.391 1_556 S
C517 C516 1.387 1_554 S
C517 C518 1.369 . S
C517 H526 0.929 . S
C518 N515 1.346 . S
C518 C517 1.369 . S
C518 H521 0.928 . S
C519 N515 1.345 . S
C519 C520 1.371 . S
C519 H522 0.931 . S
C520 C516 1.391 1_554 S
C520 C519 1.371 . S
C520 H527 0.930 1_554 S
H521 C518 0.928 . S
H522 C519 0.931 . S
H523 C499 0.930 . S
H524 C496 0.930 . S
H525 C505 0.930 . S
H526 C517 0.929 . S
H527 C520 0.930 1_556 S
H528 C534 0.930 . S
H529 C537 0.930 . S
H530 C538 0.930 . S
H531 C539 0.930 . S
H532 C542 0.930 . S
H533 C543 0.930 . S
C534 H528 0.930 . S
C534 C535 1.355 . S
C534 C536 1.415 . S
C535 C534 1.355 . S
C535 C537 1.419 . S
C536 C534 1.415 . S
C536 C541 1.425 . S
C536 C543 1.409 . S
C537 H529 0.930 . S
C537 C535 1.419 . S
C537 C538 1.362 . S
C538 H530 0.930 . S
C538 C537 1.362 . S
C538 C541 1.409 . S
C539 H531 0.930 . S
C539 C540 1.355 . S
C539 C541 1.415 . S
C540 C539 1.355 . S
C540 C542 1.419 . S
C541 C536 1.425 . S
C541 C538 1.409 . S
C541 C539 1.415 . S
C542 H532 0.930 . S
C542 C540 1.419 . S
C542 C543 1.362 . S
C543 H533 0.930 . S
C543 C536 1.409 . S
C543 C542 1.362 . S
H544 C550 0.930 . S
H545 C553 0.930 . S
H546 C554 0.930 . S
H547 C555 0.930 . S
H548 C558 0.930 . S
H549 C559 0.930 . S
C550 H544 0.930 . S
C550 C551 1.355 . S
C550 C552 1.415 . S
C551 C550 1.355 . S
C551 C553 1.419 . S
C552 C550 1.415 . S
C552 C557 1.425 . S
C552 C559 1.409 . S
C553 H545 0.930 . S
C553 C551 1.419 . S
C553 C554 1.362 . S
C554 H546 0.930 . S
C554 C553 1.362 . S
C554 C557 1.409 . S
C555 H547 0.930 . S
C555 C556 1.355 . S
C555 C557 1.415 . S
C556 C555 1.355 . S
C556 C558 1.419 . S
C557 C552 1.425 . S
C557 C554 1.409 . S
C557 C555 1.415 . S
C558 H548 0.930 . S
C558 C556 1.419 . S
C558 C559 1.362 . S
C559 H549 0.930 . S
C559 C552 1.409 . S
C559 C558 1.362 . S
H560 C566 0.930 . S
H561 C569 0.930 . S
H562 C570 0.930 . S
H563 C571 0.930 . S
H564 C574 0.930 . S
H565 C575 0.930 . S
C566 H560 0.930 . S
C566 C567 1.355 . S
C566 C568 1.415 . S
C567 C566 1.355 . S
C567 C569 1.419 . S
C568 C566 1.415 . S
C568 C573 1.425 . S
C568 C575 1.409 . S
C569 H561 0.930 . S
C569 C567 1.419 . S
C569 C570 1.362 . S
C570 H562 0.930 . S
C570 C569 1.362 . S
C570 C573 1.409 . S
C571 H563 0.930 . S
C571 C572 1.355 . S
C571 C573 1.415 . S
C572 C571 1.355 . S
C572 C574 1.419 . S
C573 C568 1.425 . S
C573 C570 1.409 . S
C573 C571 1.415 . S
C574 H564 0.930 . S
C574 C572 1.419 . S
C574 C575 1.362 . S
C575 H565 0.930 . S
C575 C568 1.409 . S
C575 C574 1.362 . S
H576 C582 0.930 . S
H577 C585 0.930 . S
H578 C586 0.930 . S
H579 C587 0.930 . S
H580 C590 0.930 . S
H581 C591 0.930 . S
C582 H576 0.930 . S
C582 C583 1.355 . S
C582 C584 1.415 . S
C583 C582 1.355 . S
C583 C585 1.419 . S
C584 C582 1.415 . S
C584 C589 1.425 . S
C584 C591 1.409 . S
C585 H577 0.930 . S
C585 C583 1.419 . S
C585 C586 1.362 . S
C586 H578 0.930 . S
C586 C585 1.362 . S
C586 C589 1.409 . S
C587 H579 0.930 . S
C587 C588 1.355 . S
C587 C589 1.415 . S
C588 C587 1.355 . S
C588 C590 1.419 . S
C589 C584 1.425 . S
C589 C586 1.409 . S
C589 C587 1.415 . S
C590 H580 0.930 . S
C590 C588 1.419 . S
C590 C591 1.362 . S
C591 H581 0.930 . S
C591 C584 1.409 . S
C591 C590 1.362 . S
H592 C598 0.930 . S
H593 C601 0.930 . S
H594 C602 0.930 . S
H595 C603 0.930 . S
H596 C606 0.930 . S
H597 C607 0.930 . S
C598 H592 0.930 . S
C598 C599 1.355 . S
C598 C600 1.415 . S
C599 C598 1.355 . S
C599 C601 1.419 . S
C600 C598 1.415 . S
C600 C605 1.425 . S
C600 C607 1.409 . S
C601 H593 0.930 . S
C601 C599 1.419 . S
C601 C602 1.362 . S
C602 H594 0.930 . S
C602 C601 1.362 . S
C602 C605 1.409 . S
C603 H595 0.930 . S
C603 C604 1.355 . S
C603 C605 1.415 . S
C604 C603 1.355 . S
C604 C606 1.419 . S
C605 C600 1.425 . S
C605 C602 1.409 . S
C605 C603 1.415 . S
C606 H596 0.930 . S
C606 C604 1.419 . S
C606 C607 1.362 . S
C607 H597 0.930 . S
C607 C600 1.409 . S
C607 C606 1.362 . S
H608 C614 0.930 . S
H609 C617 0.930 . S
H610 C618 0.930 . S
H611 C619 0.930 . S
H612 C622 0.930 . S
H613 C623 0.930 . S
C614 H608 0.930 . S
C614 C615 1.355 . S
C614 C616 1.415 . S
C615 C614 1.355 . S
C615 C617 1.419 . S
C616 C614 1.415 . S
C616 C621 1.425 . S
C616 C623 1.409 . S
C617 H609 0.930 . S
C617 C615 1.419 . S
C617 C618 1.362 . S
C618 H610 0.930 . S
C618 C617 1.362 . S
C618 C621 1.409 . S
C619 H611 0.930 . S
C619 C620 1.355 . S
C619 C621 1.415 . S
C620 C619 1.355 . S
C620 C622 1.419 . S
C621 C616 1.425 . S
C621 C618 1.409 . S
C621 C619 1.415 . S
C622 H612 0.930 . S
C622 C620 1.419 . S
C622 C623 1.362 . S
C623 H613 0.930 . S
C623 C616 1.409 . S
C623 C622 1.362 . S
H624 C630 0.930 . S
H625 C633 0.930 . S
H626 C634 0.930 . S
H627 C635 0.930 . S
H628 C638 0.930 . S
H629 C639 0.930 . S
C630 H624 0.930 . S
C630 C631 1.355 . S
C630 C632 1.415 . S
C631 C630 1.355 . S
C631 C633 1.419 . S
C632 C630 1.415 . S
C632 C637 1.425 . S
C632 C639 1.409 . S
C633 H625 0.930 . S
C633 C631 1.419 . S
C633 C634 1.362 . S
C634 H626 0.930 . S
C634 C633 1.362 . S
C634 C637 1.409 . S
C635 H627 0.930 . S
C635 C636 1.355 . S
C635 C637 1.415 . S
C636 C635 1.355 . S
C636 C638 1.419 . S
C637 C632 1.425 . S
C637 C634 1.409 . S
C637 C635 1.415 . S
C638 H628 0.930 . S
C638 C636 1.419 . S
C638 C639 1.362 . S
C639 H629 0.930 . S
C639 C632 1.409 . S
C639 C638 1.362 . S
H640 C646 0.930 . S
H641 C649 0.930 . S
H642 C650 0.930 . S
H643 C651 0.930 . S
H644 C654 0.930 . S
H645 C655 0.930 . S
C646 H640 0.930 . S
C646 C647 1.355 . S
C646 C648 1.415 . S
C647 C646 1.355 . S
C647 C649 1.419 . S
C648 C646 1.415 . S
C648 C653 1.425 . S
C648 C655 1.409 . S
C649 H641 0.930 . S
C649 C647 1.419 . S
C649 C650 1.362 . S
C650 H642 0.930 . S
C650 C649 1.362 . S
C650 C653 1.409 . S
C651 H643 0.930 . S
C651 C652 1.355 . S
C651 C653 1.415 . S
C652 C651 1.355 . S
C652 C654 1.419 . S
C653 C648 1.425 . S
C653 C650 1.409 . S
C653 C651 1.415 . S
C654 H644 0.930 . S
C654 C652 1.419 . S
C654 C655 1.362 . S
C655 H645 0.930 . S
C655 C648 1.409 . S
C655 C654 1.362 . S
H656 C662 0.930 . S
H657 C665 0.930 . S
H658 C666 0.930 . S
H659 C667 0.930 . S
H660 C670 0.930 . S
H661 C671 0.930 . S
C662 H656 0.930 . S
C662 C663 1.355 . S
C662 C664 1.415 . S
C663 C662 1.355 . S
C663 C665 1.419 . S
C664 C662 1.415 . S
C664 C669 1.425 . S
C664 C671 1.409 . S
C665 H657 0.930 . S
C665 C663 1.419 . S
C665 C666 1.362 . S
C666 H658 0.930 . S
C666 C665 1.362 . S
C666 C669 1.409 . S
C667 H659 0.930 . S
C667 C668 1.355 . S
C667 C669 1.415 . S
C668 C667 1.355 . S
C668 C670 1.419 . S
C669 C664 1.425 . S
C669 C666 1.409 . S
C669 C667 1.415 . S
C670 H660 0.930 . S
C670 C668 1.419 . S
C670 C671 1.362 . S
C671 H661 0.930 . S
C671 C664 1.409 . S
C671 C670 1.362 . S
H672 C678 0.930 . S
H673 C681 0.930 . S
H674 C682 0.930 . S
H675 C683 0.930 . S
H676 C686 0.930 . S
H677 C687 0.930 . S
C678 H672 0.930 . S
C678 C679 1.355 . S
C678 C680 1.415 . S
C679 C678 1.355 . S
C679 C681 1.419 . S
C680 C678 1.415 . S
C680 C685 1.425 . S
C680 C687 1.409 . S
C681 H673 0.930 . S
C681 C679 1.419 . S
C681 C682 1.362 . S
C682 H674 0.930 . S
C682 C681 1.362 . S
C682 C685 1.409 . S
C683 H675 0.930 . S
C683 C684 1.355 . S
C683 C685 1.415 . S
C684 C683 1.355 . S
C684 C686 1.419 . S
C685 C680 1.425 . S
C685 C682 1.409 . S
C685 C683 1.415 . S
C686 H676 0.930 . S
C686 C684 1.419 . S
C686 C687 1.362 . S
C687 H677 0.930 . S
C687 C680 1.409 . S
C687 C686 1.362 . S
H688 C694 0.930 . S
H689 C697 0.930 . S
H690 C698 0.930 . S
H691 C699 0.930 . S
H692 C702 0.930 . S
H693 C703 0.930 . S
C694 H688 0.930 . S
C694 C695 1.355 . S
C694 C696 1.415 . S
C695 C694 1.355 . S
C695 C697 1.419 . S
C696 C694 1.415 . S
C696 C701 1.425 . S
C696 C703 1.409 . S
C697 H689 0.930 . S
C697 C695 1.419 . S
C697 C698 1.362 . S
C698 H690 0.930 . S
C698 C697 1.362 . S
C698 C701 1.409 . S
C699 H691 0.930 . S
C699 C700 1.355 . S
C699 C701 1.415 . S
C700 C699 1.355 . S
C700 C702 1.419 . S
C701 C696 1.425 . S
C701 C698 1.409 . S
C701 C699 1.415 . S
C702 H692 0.930 . S
C702 C700 1.419 . S
C702 C703 1.362 . S
C703 H693 0.930 . S
C703 C696 1.409 . S
C703 C702 1.362 . S
H704 C710 0.930 . S
H705 C713 0.930 . S
H706 C714 0.930 . S
H707 C715 0.930 . S
H708 C718 0.930 . S
H709 C719 0.930 . S
C710 H704 0.930 . S
C710 C711 1.355 . S
C710 C712 1.415 . S
C711 C710 1.355 . S
C711 C713 1.419 . S
C712 C710 1.415 . S
C712 C717 1.425 . S
C712 C719 1.409 . S
C713 H705 0.930 . S
C713 C711 1.419 . S
C713 C714 1.362 . S
C714 H706 0.930 . S
C714 C713 1.362 . S
C714 C717 1.409 . S
C715 H707 0.930 . S
C715 C716 1.355 . S
C715 C717 1.415 . S
C716 C715 1.355 . S
C716 C718 1.419 . S
C717 C712 1.425 . S
C717 C714 1.409 . S
C717 C715 1.415 . S
C718 H708 0.930 . S
C718 C716 1.419 . S
C718 C719 1.362 . S
C719 H709 0.930 . S
C719 C712 1.409 . S
C719 C718 1.362 . S
H720 C726 0.930 . S
H721 C729 0.930 . S
H722 C730 0.930 . S
H723 C731 0.930 . S
H724 C734 0.930 . S
H725 C735 0.930 . S
C726 H720 0.930 . S
C726 C727 1.355 . S
C726 C728 1.415 . S
C727 C726 1.355 . S
C727 C729 1.419 . S
C728 C726 1.415 . S
C728 C733 1.425 . S
C728 C735 1.409 . S
C729 H721 0.930 . S
C729 C727 1.419 . S
C729 C730 1.362 . S
C730 H722 0.930 . S
C730 C729 1.362 . S
C730 C733 1.409 . S
C731 H723 0.930 . S
C731 C732 1.355 . S
C731 C733 1.415 . S
C732 C731 1.355 . S
C732 C734 1.419 . S
C733 C728 1.425 . S
C733 C730 1.409 . S
C733 C731 1.415 . S
C734 H724 0.930 . S
C734 C732 1.419 . S
C734 C735 1.362 . S
C735 H725 0.930 . S
C735 C728 1.409 . S
C735 C734 1.362 . S
H736 C742 0.930 . S
H737 C745 0.930 . S
H738 C746 0.930 . S
H739 C747 0.930 . S
H740 C750 0.930 . S
H741 C751 0.930 . S
C742 H736 0.930 . S
C742 C743 1.355 . S
C742 C744 1.415 . S
C743 C742 1.355 . S
C743 C745 1.419 . S
C744 C742 1.415 . S
C744 C749 1.425 . S
C744 C751 1.409 . S
C745 H737 0.930 . S
C745 C743 1.419 . S
C745 C746 1.362 . S
C746 H738 0.930 . S
C746 C745 1.362 . S
C746 C749 1.409 . S
C747 H739 0.930 . S
C747 C748 1.355 . S
C747 C749 1.415 . S
C748 C747 1.355 . S
C748 C750 1.419 . S
C749 C744 1.425 . S
C749 C746 1.409 . S
C749 C747 1.415 . S
C750 H740 0.930 . S
C750 C748 1.419 . S
C750 C751 1.362 . S
C751 H741 0.930 . S
C751 C744 1.409 . S
C751 C750 1.362 . S
H752 C758 0.930 . S
H753 C761 0.930 . S
H754 C762 0.930 . S
H755 C763 0.930 . S
H756 C766 0.930 . S
H757 C767 0.930 . S
C758 H752 0.930 . S
C758 C759 1.355 . S
C758 C760 1.415 . S
C759 C758 1.355 . S
C759 C761 1.419 . S
C760 C758 1.415 . S
C760 C765 1.425 . S
C760 C767 1.409 . S
C761 H753 0.930 . S
C761 C759 1.419 . S
C761 C762 1.362 . S
C762 H754 0.930 . S
C762 C761 1.362 . S
C762 C765 1.409 . S
C763 H755 0.930 . S
C763 C764 1.355 . S
C763 C765 1.415 . S
C764 C763 1.355 . S
C764 C766 1.419 . S
C765 C760 1.425 . S
C765 C762 1.409 . S
C765 C763 1.415 . S
C766 H756 0.930 . S
C766 C764 1.419 . S
C766 C767 1.362 . S
C767 H757 0.930 . S
C767 C760 1.409 . S
C767 C766 1.362 . S
H768 C774 0.930 . S
H769 C777 0.930 . S
H770 C778 0.930 . S
H771 C779 0.930 . S
H772 C782 0.930 . S
H773 C783 0.930 . S
C774 H768 0.930 . S
C774 C775 1.355 . S
C774 C776 1.415 . S
C775 C774 1.355 . S
C775 C777 1.419 . S
C776 C774 1.415 . S
C776 C781 1.425 . S
C776 C783 1.409 . S
C777 H769 0.930 . S
C777 C775 1.419 . S
C777 C778 1.362 . S
C778 H770 0.930 . S
C778 C777 1.362 . S
C778 C781 1.409 . S
C779 H771 0.930 . S
C779 C780 1.355 . S
C779 C781 1.415 . S
C780 C779 1.355 . S
C780 C782 1.419 . S
C781 C776 1.425 . S
C781 C778 1.409 . S
C781 C779 1.415 . S
C782 H772 0.930 . S
C782 C780 1.419 . S
C782 C783 1.362 . S
C783 H773 0.930 . S
C783 C776 1.409 . S
C783 C782 1.362 . S
H784 C790 0.930 . S
H785 C793 0.930 . S
H786 C794 0.930 . S
H787 C795 0.930 . S
H788 C798 0.930 . S
H789 C799 0.930 . S
C790 H784 0.930 . S
C790 C791 1.355 . S
C790 C792 1.415 . S
C791 C790 1.355 . S
C791 C793 1.419 . S
C792 C790 1.415 . S
C792 C797 1.425 . S
C792 C799 1.409 . S
C793 H785 0.930 . S
C793 C791 1.419 . S
C793 C794 1.362 . S
C794 H786 0.930 . S
C794 C793 1.362 . S
C794 C797 1.409 . S
C795 H787 0.930 . S
C795 C796 1.355 . S
C795 C797 1.415 . S
C796 C795 1.355 . S
C796 C798 1.419 . S
C797 C792 1.425 . S
C797 C794 1.409 . S
C797 C795 1.415 . S
C798 H788 0.930 . S
C798 C796 1.419 . S
C798 C799 1.362 . S
C799 H789 0.930 . S
C799 C792 1.409 . S
C799 C798 1.362 . S
H800 C806 0.930 . S
H801 C809 0.930 . S
H802 C810 0.930 . S
H803 C811 0.930 . S
H804 C814 0.930 . S
H805 C815 0.930 . S
C806 H800 0.930 . S
C806 C807 1.355 . S
C806 C808 1.415 . S
C807 C806 1.355 . S
C807 C809 1.419 . S
C808 C806 1.415 . S
C808 C813 1.425 . S
C808 C815 1.409 . S
C809 H801 0.930 . S
C809 C807 1.419 . S
C809 C810 1.362 . S
C810 H802 0.930 . S
C810 C809 1.362 . S
C810 C813 1.409 . S
C811 H803 0.930 . S
C811 C812 1.355 . S
C811 C813 1.415 . S
C812 C811 1.355 . S
C812 C814 1.419 . S
C813 C808 1.425 . S
C813 C810 1.409 . S
C813 C811 1.415 . S
C814 H804 0.930 . S
C814 C812 1.419 . S
C814 C815 1.362 . S
C815 H805 0.930 . S
C815 C808 1.409 . S
C815 C814 1.362 . S
H816 C822 0.930 . S
H817 C825 0.930 . S
H818 C826 0.930 . S
H819 C827 0.930 . S
H820 C830 0.930 . S
H821 C831 0.930 . S
C822 H816 0.930 . S
C822 C823 1.355 . S
C822 C824 1.415 . S
C823 C822 1.355 . S
C823 C825 1.419 . S
C824 C822 1.415 . S
C824 C829 1.425 . S
C824 C831 1.409 . S
C825 H817 0.930 . S
C825 C823 1.419 . S
C825 C826 1.362 . S
C826 H818 0.930 . S
C826 C825 1.362 . S
C826 C829 1.409 . S
C827 H819 0.930 . S
C827 C828 1.355 . S
C827 C829 1.415 . S
C828 C827 1.355 . S
C828 C830 1.419 . S
C829 C824 1.425 . S
C829 C826 1.409 . S
C829 C827 1.415 . S
C830 H820 0.930 . S
C830 C828 1.419 . S
C830 C831 1.362 . S
C831 H821 0.930 . S
C831 C824 1.409 . S
C831 C830 1.362 . S
H832 C838 0.930 . S
H833 C841 0.930 . S
H834 C842 0.930 . S
H835 C843 0.930 . S
H836 C846 0.930 . S
H837 C847 0.930 . S
C838 H832 0.930 . S
C838 C839 1.355 . S
C838 C840 1.415 . S
C839 C838 1.355 . S
C839 C841 1.419 . S
C840 C838 1.415 . S
C840 C845 1.425 . S
C840 C847 1.409 . S
C841 H833 0.930 . S
C841 C839 1.419 . S
C841 C842 1.362 . S
C842 H834 0.930 . S
C842 C841 1.362 . S
C842 C845 1.409 . S
C843 H835 0.930 . S
C843 C844 1.355 . S
C843 C845 1.415 . S
C844 C843 1.355 . S
C844 C846 1.419 . S
C845 C840 1.425 . S
C845 C842 1.409 . S
C845 C843 1.415 . S
C846 H836 0.930 . S
C846 C844 1.419 . S
C846 C847 1.362 . S
C847 H837 0.930 . S
C847 C840 1.409 . S
C847 C846 1.362 . S
H848 C854 0.930 . S
H849 C857 0.930 . S
H850 C858 0.930 . S
H851 C859 0.930 . S
H852 C862 0.930 . S
H853 C863 0.930 . S
C854 H848 0.930 . S
C854 C855 1.355 . S
C854 C856 1.415 . S
C855 C854 1.355 . S
C855 C857 1.419 . S
C856 C854 1.415 . S
C856 C861 1.425 . S
C856 C863 1.409 . S
C857 H849 0.930 . S
C857 C855 1.419 . S
C857 C858 1.362 . S
C858 H850 0.930 . S
C858 C857 1.362 . S
C858 C861 1.409 . S
C859 H851 0.930 . S
C859 C860 1.355 . S
C859 C861 1.415 . S
C860 C859 1.355 . S
C860 C862 1.419 . S
C861 C856 1.425 . S
C861 C858 1.409 . S
C861 C859 1.415 . S
C862 H852 0.930 . S
C862 C860 1.419 . S
C862 C863 1.362 . S
C863 H853 0.930 . S
C863 C856 1.409 . S
C863 C862 1.362 . S
H864 C870 0.930 . S
H865 C873 0.930 . S
H866 C874 0.930 . S
H867 C875 0.930 . S
H868 C878 0.930 . S
H869 C879 0.930 . S
C870 H864 0.930 . S
C870 C871 1.355 . S
C870 C872 1.415 . S
C871 C870 1.355 . S
C871 C873 1.419 . S
C872 C870 1.415 . S
C872 C877 1.425 . S
C872 C879 1.409 . S
C873 H865 0.930 . S
C873 C871 1.419 . S
C873 C874 1.362 . S
C874 H866 0.930 . S
C874 C873 1.362 . S
C874 C877 1.409 . S
C875 H867 0.930 . S
C875 C876 1.355 . S
C875 C877 1.415 . S
C876 C875 1.355 . S
C876 C878 1.419 . S
C877 C872 1.425 . S
C877 C874 1.409 . S
C877 C875 1.415 . S
C878 H868 0.930 . S
C878 C876 1.419 . S
C878 C879 1.362 . S
C879 H869 0.930 . S
C879 C872 1.409 . S
C879 C878 1.362 . S
H880 C886 0.930 . S
H881 C889 0.930 . S
H882 C890 0.930 . S
H883 C891 0.930 . S
H884 C894 0.930 . S
H885 C895 0.930 . S
C886 H880 0.930 . S
C886 C887 1.355 . S
C886 C888 1.415 . S
C887 C886 1.355 . S
C887 C889 1.419 . S
C888 C886 1.415 . S
C888 C893 1.425 . S
C888 C895 1.409 . S
C889 H881 0.930 . S
C889 C887 1.419 . S
C889 C890 1.362 . S
C890 H882 0.930 . S
C890 C889 1.362 . S
C890 C893 1.409 . S
C891 H883 0.930 . S
C891 C892 1.355 . S
C891 C893 1.415 . S
C892 C891 1.355 . S
C892 C894 1.419 . S
C893 C888 1.425 . S
C893 C890 1.409 . S
C893 C891 1.415 . S
C894 H884 0.930 . S
C894 C892 1.419 . S
C894 C895 1.362 . S
C895 H885 0.930 . S
C895 C888 1.409 . S
C895 C894 1.362 . S
H896 C902 0.930 . S
H897 C905 0.930 . S
H898 C906 0.930 . S
H899 C907 0.930 . S
H900 C910 0.930 . S
H901 C911 0.930 . S
C902 H896 0.930 . S
C902 C903 1.355 . S
C902 C904 1.415 . S
C903 C902 1.355 . S
C903 C905 1.419 . S
C904 C902 1.415 . S
C904 C909 1.425 . S
C904 C911 1.409 . S
C905 H897 0.930 . S
C905 C903 1.419 . S
C905 C906 1.362 . S
C906 H898 0.930 . S
C906 C905 1.362 . S
C906 C909 1.409 . S
C907 H899 0.930 . S
C907 C908 1.355 . S
C907 C909 1.415 . S
C908 C907 1.355 . S
C908 C910 1.419 . S
C909 C904 1.425 . S
C909 C906 1.409 . S
C909 C907 1.415 . S
C910 H900 0.930 . S
C910 C908 1.419 . S
C910 C911 1.362 . S
C911 H901 0.930 . S
C911 C904 1.409 . S
C911 C910 1.362 . S
H912 C918 0.930 . S
H913 C921 0.930 . S
H914 C922 0.930 . S
H915 C923 0.930 . S
H916 C926 0.930 . S
H917 C927 0.930 . S
C918 H912 0.930 . S
C918 C919 1.355 . S
C918 C920 1.415 . S
C919 C918 1.355 . S
C919 C921 1.419 . S
C920 C918 1.415 . S
C920 C925 1.425 . S
C920 C927 1.409 . S
C921 H913 0.930 . S
C921 C919 1.419 . S
C921 C922 1.362 . S
C922 H914 0.930 . S
C922 C921 1.362 . S
C922 C925 1.409 . S
C923 H915 0.930 . S
C923 C924 1.355 . S
C923 C925 1.415 . S
C924 C923 1.355 . S
C924 C926 1.419 . S
C925 C920 1.425 . S
C925 C922 1.409 . S
C925 C923 1.415 . S
C926 H916 0.930 . S
C926 C924 1.419 . S
C926 C927 1.362 . S
C927 H917 0.930 . S
C927 C920 1.409 . S
C927 C926 1.362 . S
H928 C934 0.930 . S
H929 C937 0.930 . S
H930 C938 0.930 1_545 S
H931 C939 0.930 . S
H932 C942 0.930 . S
H933 C943 0.930 1_565 S
C934 H928 0.930 . S
C934 C935 1.355 . S
C934 C936 1.415 1_655 S
C935 C934 1.355 . S
C935 C937 1.419 . S
C936 C934 1.415 1_455 S
C936 C941 1.425 1_465 S
C936 C943 1.409 1_565 S
C937 H929 0.930 . S
C937 C935 1.419 . S
C937 C938 1.362 . S
C938 H930 0.930 1_565 S
C938 C937 1.362 . S
C938 C941 1.409 1_565 S
C939 H931 0.930 . S
C939 C940 1.355 . S
C939 C941 1.415 1_455 S
C940 C939 1.355 . S
C940 C942 1.419 . S
C941 C936 1.425 1_645 S
C941 C938 1.409 1_545 S
C941 C939 1.415 1_655 S
C942 H932 0.930 . S
C942 C940 1.419 . S
C942 C943 1.362 . S
C943 H933 0.930 1_545 S
C943 C936 1.409 1_545 S
C943 C942 1.362 . S
H944 C950 0.930 . S
H945 C953 0.930 . S
H946 C954 0.930 . S
H947 C955 0.930 . S
H948 C958 0.930 . S
H949 C959 0.930 . S
C950 H944 0.930 . S
C950 C951 1.355 . S
C950 C952 1.415 . S
C951 C950 1.355 . S
C951 C953 1.419 . S
C952 C950 1.415 . S
C952 C957 1.425 1_565 S
C952 C959 1.409 1_565 S
C953 H945 0.930 . S
C953 C951 1.419 . S
C953 C954 1.362 . S
C954 H946 0.930 . S
C954 C953 1.362 . S
C954 C957 1.409 1_565 S
C955 H947 0.930 . S
C955 C956 1.355 . S
C955 C957 1.415 . S
C956 C955 1.355 . S
C956 C958 1.419 . S
C957 C952 1.425 1_545 S
C957 C954 1.409 1_545 S
C957 C955 1.415 . S
C958 H948 0.930 . S
C958 C956 1.419 . S
C958 C959 1.362 . S
C959 H949 0.930 . S
C959 C952 1.409 1_545 S
C959 C958 1.362 . S
H960 C966 0.930 . S
H961 C969 0.930 . S
H962 C970 0.930 . S
H963 C971 0.930 . S
H964 C974 0.930 . S
H965 C975 0.930 . S
C966 H960 0.930 . S
C966 C967 1.355 . S
C966 C968 1.415 . S
C967 C966 1.355 . S
C967 C969 1.419 . S
C968 C966 1.415 . S
C968 C973 1.425 1_655 S
C968 C975 1.409 . S
C969 H961 0.930 . S
C969 C967 1.419 . S
C969 C970 1.362 1_655 S
C970 H962 0.930 . S
C970 C969 1.362 1_455 S
C970 C973 1.409 . S
C971 H963 0.930 . S
C971 C972 1.355 . S
C971 C973 1.415 . S
C972 C971 1.355 . S
C972 C974 1.419 . S
C973 C968 1.425 1_455 S
C973 C970 1.409 . S
C973 C971 1.415 . S
C974 H964 0.930 . S
C974 C972 1.419 . S
C974 C975 1.362 1_455 S
C975 H965 0.930 . S
C975 C968 1.409 . S
C975 C974 1.362 1_655 S
H976 C982 0.930 . S
H977 C985 0.930 . S
H978 C986 0.930 . S
H979 C987 0.930 . S
H980 C990 0.930 . S
H981 C991 0.930 . S
C982 H976 0.930 . S
C982 C983 1.355 . S
C982 C984 1.415 . S
C983 C982 1.355 . S
C983 C985 1.419 . S
C984 C982 1.415 . S
C984 C989 1.425 . S
C984 C991 1.409 . S
C985 H977 0.930 . S
C985 C983 1.419 . S
C985 C986 1.362 . S
C986 H978 0.930 . S
C986 C985 1.362 . S
C986 C989 1.409 . S
C987 H979 0.930 . S
C987 C988 1.355 . S
C987 C989 1.415 . S
C988 C987 1.355 . S
C988 C990 1.419 . S
C989 C984 1.425 . S
C989 C986 1.409 . S
C989 C987 1.415 . S
C990 H980 0.930 . S
C990 C988 1.419 . S
C990 C991 1.362 . S
C991 H981 0.930 . S
C991 C984 1.409 . S
C991 C990 1.362 . S
H992 C998 0.930 . S
H993 C1001 0.930 . S
H994 C1002 0.930 . S
H995 C1003 0.930 . S
H996 C1006 0.930 . S
H997 C1007 0.930 . S
C998 H992 0.930 . S
C998 C999 1.355 . S
C998 C1000 1.415 . S
C999 C998 1.355 . S
C999 C1001 1.419 . S
C1000 C998 1.415 . S
C1000 C1005 1.425 1_545 S
C1000 C1007 1.409 . S
C1001 H993 0.930 . S
C1001 C999 1.419 . S
C1001 C1002 1.362 1_545 S
C1002 H994 0.930 . S
C1002 C1001 1.362 1_565 S
C1002 C1005 1.409 . S
C1003 H995 0.930 . S
C1003 C1004 1.355 . S
C1003 C1005 1.415 . S
C1004 C1003 1.355 . S
C1004 C1006 1.419 . S
C1005 C1000 1.425 1_565 S
C1005 C1002 1.409 . S
C1005 C1003 1.415 . S
C1006 H996 0.930 . S
C1006 C1004 1.419 . S
C1006 C1007 1.362 1_565 S
C1007 H997 0.930 . S
C1007 C1000 1.409 . S
C1007 C1006 1.362 1_545 S
H1008 C1014 0.930 . S
H1009 C1017 0.930 . S
H1010 C1018 0.930 . S
H1011 C1019 0.930 . S
H1012 C1022 0.930 . S
H1013 C1023 0.930 . S
C1014 H1008 0.930 . S
C1014 C1015 1.355 . S
C1014 C1016 1.415 1_655 S
C1015 C1014 1.355 . S
C1015 C1017 1.419 . S
C1016 C1014 1.415 1_455 S
C1016 C1021 1.425 1_455 S
C1016 C1023 1.409 . S
C1017 H1009 0.930 . S
C1017 C1015 1.419 . S
C1017 C1018 1.362 . S
C1018 H1010 0.930 . S
C1018 C1017 1.362 . S
C1018 C1021 1.409 . S
C1019 H1011 0.930 . S
C1019 C1020 1.355 . S
C1019 C1021 1.415 1_455 S
C1020 C1019 1.355 . S
C1020 C1022 1.419 . S
C1021 C1016 1.425 1_655 S
C1021 C1018 1.409 . S
C1021 C1019 1.415 1_655 S
C1022 H1012 0.930 . S
C1022 C1020 1.419 . S
C1022 C1023 1.362 . S
C1023 H1013 0.930 . S
C1023 C1016 1.409 . S
C1023 C1022 1.362 . S
H1024 C1030 0.930 1_556 S
H1025 C1033 0.930 . S
H1026 C1034 0.930 . S
H1027 C1035 0.930 1_554 S
H1028 C1038 0.930 . S
H1029 C1039 0.930 . S
C1030 H1024 0.930 1_554 S
C1030 C1031 1.355 . S
C1030 C1032 1.415 1_554 S
C1031 C1030 1.355 . S
C1031 C1033 1.419 . S
C1032 C1030 1.415 1_556 S
C1032 C1037 1.425 1_556 S
C1032 C1039 1.409 . S
C1033 H1025 0.930 . S
C1033 C1031 1.419 . S
C1033 C1034 1.362 . S
C1034 H1026 0.930 . S
C1034 C1033 1.362 . S
C1034 C1037 1.409 . S
C1035 H1027 0.930 1_556 S
C1035 C1036 1.355 . S
C1035 C1037 1.415 1_556 S
C1036 C1035 1.355 . S
C1036 C1038 1.419 . S
C1037 C1032 1.425 1_554 S
C1037 C1034 1.409 . S
C1037 C1035 1.415 1_554 S
C1038 H1028 0.930 . S
C1038 C1036 1.419 . S
C1038 C1039 1.362 . S
C1039 H1029 0.930 . S
C1039 C1032 1.409 . S
C1039 C1038 1.362 . S
H1040 C1046 0.930 . S
H1041 C1049 0.930 . S
H1042 C1050 0.930 . S
H1043 C1051 0.930 . S
H1044 C1054 0.930 . S
H1045 C1055 0.930 . S
C1046 H1040 0.930 . S
C1046 C1047 1.355 . S
C1046 C1048 1.405 1_456 S
C1047 C1046 1.355 . S
C1047 C1049 1.419 . S
C1048 C1046 1.405 1_654 S
C1048 C1053 1.424 1_654 S
C1048 C1055 1.420 . S
C1049 H1041 0.930 . S
C1049 C1047 1.419 . S
C1049 C1050 1.362 . S
C1050 H1042 0.930 . S
C1050 C1049 1.362 . S
C1050 C1053 1.420 . S
C1051 H1043 0.930 . S
C1051 C1052 1.355 . S
C1051 C1053 1.405 1_654 S
C1052 C1051 1.355 . S
C1052 C1054 1.419 . S
C1053 C1048 1.424 1_456 S
C1053 C1050 1.420 . S
C1053 C1051 1.405 1_456 S
C1054 H1044 0.930 . S
C1054 C1052 1.419 . S
C1054 C1055 1.362 . S
C1055 H1045 0.930 . S
C1055 C1048 1.420 . S
C1055 C1054 1.362 . S
H1056 C1062 0.930 . S
H1057 C1065 0.930 . S
H1058 C1066 0.930 . S
H1059 C1067 0.930 . S
H1060 C1070 0.930 . S
H1061 C1071 0.930 . S
C1062 H1056 0.930 . S
C1062 C1063 1.355 . S
C1062 C1064 1.415 . S
C1063 C1062 1.355 . S
C1063 C1065 1.419 . S
C1064 C1062 1.415 . S
C1064 C1069 1.425 . S
C1064 C1071 1.409 . S
C1065 H1057 0.930 . S
C1065 C1063 1.419 . S
C1065 C1066 1.362 . S
C1066 H1058 0.930 . S
C1066 C1065 1.362 . S
C1066 C1069 1.409 . S
C1067 H1059 0.930 . S
C1067 C1068 1.355 . S
C1067 C1069 1.415 . S
C1068 C1067 1.355 . S
C1068 C1070 1.419 . S
C1069 C1064 1.425 . S
C1069 C1066 1.409 . S
C1069 C1067 1.415 . S
C1070 H1060 0.930 . S
C1070 C1068 1.419 . S
C1070 C1071 1.362 . S
C1071 H1061 0.930 . S
C1071 C1064 1.409 . S
C1071 C1070 1.362 . S
H1072 C1078 0.930 . S
H1073 C1081 0.930 . S
H1074 C1082 0.930 1_556 S
H1075 C1083 0.930 . S
H1076 C1086 0.930 . S
H1077 C1087 0.930 1_554 S
C1078 H1072 0.930 . S
C1078 C1079 1.355 . S
C1078 C1080 1.415 . S
C1079 C1078 1.355 . S
C1079 C1081 1.419 . S
C1080 C1078 1.415 . S
C1080 C1085 1.425 1_554 S
C1080 C1087 1.409 1_554 S
C1081 H1073 0.930 . S
C1081 C1079 1.419 . S
C1081 C1082 1.362 . S
C1082 H1074 0.930 1_554 S
C1082 C1081 1.362 . S
C1082 C1085 1.409 1_554 S
C1083 H1075 0.930 . S
C1083 C1084 1.355 . S
C1083 C1085 1.415 . S
C1084 C1083 1.355 . S
C1084 C1086 1.419 . S
C1085 C1080 1.425 1_556 S
C1085 C1082 1.409 1_556 S
C1085 C1083 1.415 . S
C1086 H1076 0.930 . S
C1086 C1084 1.419 . S
C1086 C1087 1.362 . S
C1087 H1077 0.930 1_556 S
C1087 C1080 1.409 1_556 S
C1087 C1086 1.362 . S
H1088 C1094 0.930 . S
H1089 C1097 0.930 . S
H1090 C1098 0.930 . S
H1091 C1099 0.930 . S
H1092 C1102 0.930 . S
H1093 C1103 0.930 . S
C1094 H1088 0.930 . S
C1094 C1095 1.355 . S
C1094 C1096 1.415 . S
C1095 C1094 1.355 . S
C1095 C1097 1.419 . S
C1096 C1094 1.415 . S
C1096 C1101 1.425 . S
C1096 C1103 1.409 . S
C1097 H1089 0.930 . S
C1097 C1095 1.419 . S
C1097 C1098 1.362 . S
C1098 H1090 0.930 . S
C1098 C1097 1.362 . S
C1098 C1101 1.409 . S
C1099 H1091 0.930 . S
C1099 C1100 1.355 . S
C1099 C1101 1.415 . S
C1100 C1099 1.355 . S
C1100 C1102 1.419 . S
C1101 C1096 1.425 . S
C1101 C1098 1.409 . S
C1101 C1099 1.415 . S
C1102 H1092 0.930 . S
C1102 C1100 1.419 . S
C1102 C1103 1.362 . S
C1103 H1093 0.930 . S
C1103 C1096 1.409 . S
C1103 C1102 1.362 . S
H1104 C1110 0.930 1_556 S
H1105 C1113 0.930 . S
H1106 C1114 0.930 . S
H1107 C1115 0.930 1_554 S
H1108 C1118 0.930 . S
H1109 C1119 0.930 . S
C1110 H1104 0.930 1_554 S
C1110 C1111 1.355 . S
C1110 C1112 1.415 1_554 S
C1111 C1110 1.355 . S
C1111 C1113 1.419 . S
C1112 C1110 1.415 1_556 S
C1112 C1117 1.425 1_566 S
C1112 C1119 1.409 1_565 S
C1113 H1105 0.930 . S
C1113 C1111 1.419 . S
C1113 C1114 1.362 . S
C1114 H1106 0.930 . S
C1114 C1113 1.362 . S
C1114 C1117 1.409 1_565 S
C1115 H1107 0.930 1_556 S
C1115 C1116 1.355 . S
C1115 C1117 1.415 1_556 S
C1116 C1115 1.355 . S
C1116 C1118 1.419 . S
C1117 C1112 1.425 1_544 S
C1117 C1114 1.409 1_545 S
C1117 C1115 1.415 1_554 S
C1118 H1108 0.930 . S
C1118 C1116 1.419 . S
C1118 C1119 1.362 . S
C1119 H1109 0.930 . S
C1119 C1112 1.409 1_545 S
C1119 C1118 1.362 . S
H1120 C1126 0.930 . S
H1121 C1129 0.930 . S
H1122 C1130 0.930 . S
H1123 C1131 0.930 . S
H1124 C1134 0.930 . S
H1125 C1135 0.930 . S
C1126 H1120 0.930 . S
C1126 C1127 1.355 . S
C1126 C1128 1.415 . S
C1127 C1126 1.355 . S
C1127 C1129 1.419 . S
C1128 C1126 1.415 . S
C1128 C1133 1.425 . S
C1128 C1135 1.409 . S
C1129 H1121 0.930 . S
C1129 C1127 1.419 . S
C1129 C1130 1.362 . S
C1130 H1122 0.930 . S
C1130 C1129 1.362 . S
C1130 C1133 1.409 . S
C1131 H1123 0.930 . S
C1131 C1132 1.355 . S
C1131 C1133 1.415 . S
C1132 C1131 1.355 . S
C1132 C1134 1.419 . S
C1133 C1128 1.425 . S
C1133 C1130 1.409 . S
C1133 C1131 1.415 . S
C1134 H1124 0.930 . S
C1134 C1132 1.419 . S
C1134 C1135 1.362 . S
C1135 H1125 0.930 . S
C1135 C1128 1.409 . S
C1135 C1134 1.362 . S
H1136 C1142 0.930 . S
H1137 C1145 0.930 . S
H1138 C1146 0.930 . S
H1139 C1147 0.930 . S
H1140 C1150 0.930 . S
H1141 C1151 0.930 . S
C1142 H1136 0.930 . S
C1142 C1143 1.355 . S
C1142 C1144 1.415 . S
C1143 C1142 1.355 . S
C1143 C1145 1.419 . S
C1144 C1142 1.415 . S
C1144 C1149 1.425 . S
C1144 C1151 1.409 . S
C1145 H1137 0.930 . S
C1145 C1143 1.419 . S
C1145 C1146 1.362 . S
C1146 H1138 0.930 . S
C1146 C1145 1.362 . S
C1146 C1149 1.409 . S
C1147 H1139 0.930 . S
C1147 C1148 1.355 . S
C1147 C1149 1.415 . S
C1148 C1147 1.355 . S
C1148 C1150 1.419 . S
C1149 C1144 1.425 . S
C1149 C1146 1.409 . S
C1149 C1147 1.415 . S
C1150 H1140 0.930 . S
C1150 C1148 1.419 . S
C1150 C1151 1.362 . S
C1151 H1141 0.930 . S
C1151 C1144 1.409 . S
C1151 C1150 1.362 . S
H1152 C1158 0.930 . S
H1153 C1161 0.930 . S
H1154 C1162 0.930 . S
H1155 C1163 0.930 . S
H1156 C1166 0.930 . S
H1157 C1167 0.930 . S
C1158 H1152 0.930 . S
C1158 C1159 1.355 . S
C1158 C1160 1.415 . S
C1159 C1158 1.355 . S
C1159 C1161 1.419 . S
C1160 C1158 1.415 . S
C1160 C1165 1.425 . S
C1160 C1167 1.409 . S
C1161 H1153 0.930 . S
C1161 C1159 1.419 . S
C1161 C1162 1.362 . S
C1162 H1154 0.930 . S
C1162 C1161 1.362 . S
C1162 C1165 1.409 . S
C1163 H1155 0.930 . S
C1163 C1164 1.355 . S
C1163 C1165 1.415 . S
C1164 C1163 1.355 . S
C1164 C1166 1.419 . S
C1165 C1160 1.425 . S
C1165 C1162 1.409 . S
C1165 C1163 1.415 . S
C1166 H1156 0.930 . S
C1166 C1164 1.419 . S
C1166 C1167 1.362 . S
C1167 H1157 0.930 . S
C1167 C1160 1.409 . S
C1167 C1166 1.362 . S
C535 N2 0.915 . S
C540 N299 0.947 . S
C551 N13 0.886 . S
C556 N310 0.848 . S
C567 N277 0.873 . S
C572 N46 0.885 . S
C583 N35 0.881 . S
C588 N266 0.920 . S
C599 N68 0.915 . S
C604 N365 0.881 . S
C615 N79 0.810 . S
C620 N376 0.814 . S
C631 N112 0.883 . S
C636 N343 0.878 . S
C647 N101 0.947 . S
C652 N332 0.906 . S
C663 N134 0.928 . S
C668 N431 0.942 . S
C679 N442 0.823 . S
C684 N145 0.805 . S
C695 N409 0.812 . S
C700 N178 0.811 . S
C711 N398 0.917 . S
C716 N167 0.881 . S
C727 N497 0.946 . S
C732 N200 0.905 . S
C743 N508 0.861 . S
C748 N211 0.888 . S
C759 N475 0.888 . S
C764 N244 0.854 . S
C775 N233 0.946 . S
C780 N464 0.906 . S
C791 C21 1.140 . S
C796 C54 1.136 . S
C807 C120 1.140 . S
C812 C87 1.137 . S
C823 C186 1.138 . S
C828 C153 1.138 . S
C839 C252 1.140 . S
C844 C219 1.136 . S
C855 C318 1.139 . S
C860 C285 1.138 . S
C871 C351 1.139 . S
C876 C384 1.137 . S
C887 C450 1.138 . S
C892 C417 1.138 . S
C903 C483 1.140 . S
C908 C516 1.136 . S
C919 C469 1.793 . S
C924 C7 1.793 . S
C935 C84 1.878 . S
C940 C18 1.878 . S
C951 C381 1.837 . S
C956 C51 1.837 . S
C967 C238 1.810 . S
C972 C40 1.810 . S
C983 C73 1.845 . S
C988 C403 1.845 . S
C999 C315 1.861 . S
C1004 C117 1.861 . S
C1015 C106 1.854 . S
C1020 C172 1.854 . S
C1031 C337 1.793 . S
C1036 C139 1.793 . S
C1047 C150 1.884 . S
C1052 C216 1.884 . S
C1063 C183 1.876 . S
C1068 C513 1.876 . S
C1079 C205 1.796 . S
C1084 C271 1.796 . S
C1095 C249 1.884 . S
C1100 C447 1.884 . S
C1111 C348 1.838 . S
C1116 C282 1.838 . S
C1127 C502 1.844 . S
C1132 C304 1.844 . S
C1143 C370 1.795 . S
C1148 C436 1.795 . S
C1159 C414 1.831 . S
C1164 C480 1.831 . S
