# Generated by pormake.
# Topology dei, (4)-cn, num edge types: 1
# Building blocks:
#     Node 0, Type 0, BuildingBlock: CEKHIL_clean_sbu_0, # of connection points: 4
#     Node 1, Type 0, BuildingBlock: CEKHIL_clean_sbu_0, # of connection points: 4
#     Node 2, Type 0, BuildingBlock: CEKHIL_clean_sbu_0, # of connection points: 4
#     Node 3, Type 0, BuildingBlock: CEKHIL_clean_sbu_0, # of connection points: 4
#     Node 4, Type 0, BuildingBlock: CEKHIL_clean_sbu_0, # of connection points: 4
#     Node 5, Type 0, BuildingBlock: CEKHIL_clean_sbu_0, # of connection points: 4
#     Node 6, Type 0, BuildingBlock: CEKHIL_clean_sbu_0, # of connection points: 4
#     Node 7, Type 0, BuildingBlock: CEKHIL_clean_sbu_0, # of connection points: 4
#     Node 8, Type 0, BuildingBlock: CEKHIL_clean_sbu_0, # of connection points: 4
#     Node 9, Type 0, BuildingBlock: CEKHIL_clean_sbu_0, # of connection points: 4
#     Node 10, Type 0, BuildingBlock: CEKHIL_clean_sbu_0, # of connection points: 4
#     Node 11, Type 0, BuildingBlock: CEKHIL_clean_sbu_0, # of connection points: 4
#     Node 12, Type 0, BuildingBlock: CEKHIL_clean_sbu_0, # of connection points: 4
#     Node 13, Type 0, BuildingBlock: CEKHIL_clean_sbu_0, # of connection points: 4
#     Node 14, Type 0, BuildingBlock: CEKHIL_clean_sbu_0, # of connection points: 4
#     Node 15, Type 0, BuildingBlock: CEKHIL_clean_sbu_0, # of connection points: 4
#     Node 16, Type 0, BuildingBlock: CEKHIL_clean_sbu_0, # of connection points: 4
#     Node 17, Type 0, BuildingBlock: CEKHIL_clean_sbu_0, # of connection points: 4
#     Node 18, Type 0, BuildingBlock: CEKHIL_clean_sbu_0, # of connection points: 4
#     Node 19, Type 0, BuildingBlock: CEKHIL_clean_sbu_0, # of connection points: 4
#     Node 20, Type 0, BuildingBlock: CEKHIL_clean_sbu_0, # of connection points: 4
#     Node 21, Type 0, BuildingBlock: CEKHIL_clean_sbu_0, # of connection points: 4
#     Node 22, Type 0, BuildingBlock: CEKHIL_clean_sbu_0, # of connection points: 4
#     Node 23, Type 0, BuildingBlock: CEKHIL_clean_sbu_0, # of connection points: 4
#     Node 24, Type 0, BuildingBlock: CEKHIL_clean_sbu_0, # of connection points: 4
#     Node 25, Type 0, BuildingBlock: CEKHIL_clean_sbu_0, # of connection points: 4
#     Node 26, Type 0, BuildingBlock: CEKHIL_clean_sbu_0, # of connection points: 4
#     Node 27, Type 0, BuildingBlock: CEKHIL_clean_sbu_0, # of connection points: 4
#     Node 28, Type 0, BuildingBlock: CEKHIL_clean_sbu_0, # of connection points: 4
#     Node 29, Type 0, BuildingBlock: CEKHIL_clean_sbu_0, # of connection points: 4
#     Node 30, Type 0, BuildingBlock: CEKHIL_clean_sbu_0, # of connection points: 4
#     Node 31, Type 0, BuildingBlock: CEKHIL_clean_sbu_0, # of connection points: 4
#     Edge 32, Type (0, 0), BuildingBlock: TEMPAE_clean_linker_10, # of connection points: 2
#     Edge 33, Type (0, 0), BuildingBlock: TEMPAE_clean_linker_10, # of connection points: 2
#     Edge 34, Type (0, 0), BuildingBlock: TEMPAE_clean_linker_10, # of connection points: 2
#     Edge 35, Type (0, 0), BuildingBlock: TEMPAE_clean_linker_10, # of connection points: 2
#     Edge 36, Type (0, 0), BuildingBlock: TEMPAE_clean_linker_10, # of connection points: 2
#     Edge 37, Type (0, 0), BuildingBlock: TEMPAE_clean_linker_10, # of connection points: 2
#     Edge 38, Type (0, 0), BuildingBlock: TEMPAE_clean_linker_10, # of connection points: 2
#     Edge 39, Type (0, 0), BuildingBlock: TEMPAE_clean_linker_10, # of connection points: 2
#     Edge 40, Type (0, 0), BuildingBlock: TEMPAE_clean_linker_10, # of connection points: 2
#     Edge 41, Type (0, 0), BuildingBlock: TEMPAE_clean_linker_10, # of connection points: 2
#     Edge 42, Type (0, 0), BuildingBlock: TEMPAE_clean_linker_10, # of connection points: 2
#     Edge 43, Type (0, 0), BuildingBlock: TEMPAE_clean_linker_10, # of connection points: 2
#     Edge 44, Type (0, 0), BuildingBlock: TEMPAE_clean_linker_10, # of connection points: 2
#     Edge 45, Type (0, 0), BuildingBlock: TEMPAE_clean_linker_10, # of connection points: 2
#     Edge 46, Type (0, 0), BuildingBlock: TEMPAE_clean_linker_10, # of connection points: 2
#     Edge 47, Type (0, 0), BuildingBlock: TEMPAE_clean_linker_10, # of connection points: 2
#     Edge 48, Type (0, 0), BuildingBlock: TEMPAE_clean_linker_10, # of connection points: 2
#     Edge 49, Type (0, 0), BuildingBlock: TEMPAE_clean_linker_10, # of connection points: 2
#     Edge 50, Type (0, 0), BuildingBlock: TEMPAE_clean_linker_10, # of connection points: 2
#     Edge 51, Type (0, 0), BuildingBlock: TEMPAE_clean_linker_10, # of connection points: 2
#     Edge 52, Type (0, 0), BuildingBlock: TEMPAE_clean_linker_10, # of connection points: 2
#     Edge 53, Type (0, 0), BuildingBlock: TEMPAE_clean_linker_10, # of connection points: 2
#     Edge 54, Type (0, 0), BuildingBlock: TEMPAE_clean_linker_10, # of connection points: 2
#     Edge 55, Type (0, 0), BuildingBlock: TEMPAE_clean_linker_10, # of connection points: 2
#     Edge 56, Type (0, 0), BuildingBlock: TEMPAE_clean_linker_10, # of connection points: 2
#     Edge 57, Type (0, 0), BuildingBlock: TEMPAE_clean_linker_10, # of connection points: 2
#     Edge 58, Type (0, 0), BuildingBlock: TEMPAE_clean_linker_10, # of connection points: 2
#     Edge 59, Type (0, 0), BuildingBlock: TEMPAE_clean_linker_10, # of connection points: 2
#     Edge 60, Type (0, 0), BuildingBlock: TEMPAE_clean_linker_10, # of connection points: 2
#     Edge 61, Type (0, 0), BuildingBlock: TEMPAE_clean_linker_10, # of connection points: 2
#     Edge 62, Type (0, 0), BuildingBlock: TEMPAE_clean_linker_10, # of connection points: 2
#     Edge 63, Type (0, 0), BuildingBlock: TEMPAE_clean_linker_10, # of connection points: 2
#     Edge 64, Type (0, 0), BuildingBlock: TEMPAE_clean_linker_10, # of connection points: 2
#     Edge 65, Type (0, 0), BuildingBlock: TEMPAE_clean_linker_10, # of connection points: 2
#     Edge 66, Type (0, 0), BuildingBlock: TEMPAE_clean_linker_10, # of connection points: 2
#     Edge 67, Type (0, 0), BuildingBlock: TEMPAE_clean_linker_10, # of connection points: 2
#     Edge 68, Type (0, 0), BuildingBlock: TEMPAE_clean_linker_10, # of connection points: 2
#     Edge 69, Type (0, 0), BuildingBlock: TEMPAE_clean_linker_10, # of connection points: 2
#     Edge 70, Type (0, 0), BuildingBlock: TEMPAE_clean_linker_10, # of connection points: 2
#     Edge 71, Type (0, 0), BuildingBlock: TEMPAE_clean_linker_10, # of connection points: 2
#     Edge 72, Type (0, 0), BuildingBlock: TEMPAE_clean_linker_10, # of connection points: 2
#     Edge 73, Type (0, 0), BuildingBlock: TEMPAE_clean_linker_10, # of connection points: 2
#     Edge 74, Type (0, 0), BuildingBlock: TEMPAE_clean_linker_10, # of connection points: 2
#     Edge 75, Type (0, 0), BuildingBlock: TEMPAE_clean_linker_10, # of connection points: 2
#     Edge 76, Type (0, 0), BuildingBlock: TEMPAE_clean_linker_10, # of connection points: 2
#     Edge 77, Type (0, 0), BuildingBlock: TEMPAE_clean_linker_10, # of connection points: 2
#     Edge 78, Type (0, 0), BuildingBlock: TEMPAE_clean_linker_10, # of connection points: 2
#     Edge 79, Type (0, 0), BuildingBlock: TEMPAE_clean_linker_10, # of connection points: 2
#     Edge 80, Type (0, 0), BuildingBlock: TEMPAE_clean_linker_10, # of connection points: 2
#     Edge 81, Type (0, 0), BuildingBlock: TEMPAE_clean_linker_10, # of connection points: 2
#     Edge 82, Type (0, 0), BuildingBlock: TEMPAE_clean_linker_10, # of connection points: 2
#     Edge 83, Type (0, 0), BuildingBlock: TEMPAE_clean_linker_10, # of connection points: 2
#     Edge 84, Type (0, 0), BuildingBlock: TEMPAE_clean_linker_10, # of connection points: 2
#     Edge 85, Type (0, 0), BuildingBlock: TEMPAE_clean_linker_10, # of connection points: 2
#     Edge 86, Type (0, 0), BuildingBlock: TEMPAE_clean_linker_10, # of connection points: 2
#     Edge 87, Type (0, 0), BuildingBlock: TEMPAE_clean_linker_10, # of connection points: 2
#     Edge 88, Type (0, 0), BuildingBlock: TEMPAE_clean_linker_10, # of connection points: 2
#     Edge 89, Type (0, 0), BuildingBlock: TEMPAE_clean_linker_10, # of connection points: 2
#     Edge 90, Type (0, 0), BuildingBlock: TEMPAE_clean_linker_10, # of connection points: 2
#     Edge 91, Type (0, 0), BuildingBlock: TEMPAE_clean_linker_10, # of connection points: 2
#     Edge 92, Type (0, 0), BuildingBlock: TEMPAE_clean_linker_10, # of connection points: 2
#     Edge 93, Type (0, 0), BuildingBlock: TEMPAE_clean_linker_10, # of connection points: 2
#     Edge 94, Type (0, 0), BuildingBlock: TEMPAE_clean_linker_10, # of connection points: 2
#     Edge 95, Type (0, 0), BuildingBlock: TEMPAE_clean_linker_10, # of connection points: 2
# Relax obj value: 0.245
# Max RMSD: 0.066
# Mean RMSD: 0.066
data_MOF--net-dei--node1-CEKHIL_clean_sbu_0--edge1-TEMPAE_clean_linker_10
_symmetry_space_group_name_H-M    P1
_symmetry_Int_Tables_number       1
_symmetry_cell_setting            triclinic
loop_
_symmetry_equiv_pos_as_xyz
'x, y, z'
_cell_length_a     58.64431
_cell_length_b     58.625412
_cell_length_c     75.469419
_cell_angle_alpha  89.997874
_cell_angle_beta   90.008054
_cell_angle_gamma 89.991912
loop_
_atom_site_label
_atom_site_type_symbol
_atom_site_fract_x
_atom_site_fract_y
_atom_site_fract_z
_atom_type_partial_charge
Co0 Co 0.12727 0.62776 0.0248 0.0
O1 O 0.12482 0.59561 0.02876 0.0
O2 O 0.14694 0.61078 0.0083 0.0
C3 C 0.13046 0.63529 0.05415 0.0
O4 O 0.13399 0.66146 0.01808 0.0
Co5 Co 0.08977 0.65866 0.04178 0.0
O6 O 0.11123 0.68307 0.03543 0.0
C7 C 0.0803 0.63366 0.00841 0.0
C8 C 0.13953 0.59248 0.0163 0.0
C9 C 0.12709 0.68108 0.024 0.0
O10 O 0.10091 0.62621 0.00749 0.0
O11 O 0.07261 0.64553 0.02133 0.0
O12 O 0.14841 0.63008 0.04492 0.0
O13 O 0.1115 0.63469 0.04559 0.0
Co14 Co 0.63714 0.87444 0.28049 0.0
O15 O 0.6689 0.86824 0.28364 0.0
O16 O 0.6554 0.88973 0.26213 0.0
C17 C 0.63199 0.88203 0.30956 0.0
O18 O 0.60413 0.88454 0.27429 0.0
Co19 Co 0.60268 0.84371 0.30126 0.0
O20 O 0.58141 0.86849 0.29501 0.0
C21 C 0.62966 0.82551 0.27116 0.0
C22 C 0.67311 0.88076 0.26998 0.0
C23 C 0.58463 0.88238 0.28226 0.0
O24 O 0.63452 0.84576 0.26575 0.0
O25 O 0.61904 0.8215 0.28567 0.0
O26 O 0.63882 0.8981 0.29895 0.0
O27 O 0.62952 0.86234 0.30236 0.0
Co28 Co 0.37831 0.38598 0.52697 0.0
O29 O 0.38168 0.41843 0.52764 0.0
O30 O 0.35789 0.40068 0.5097 0.0
C31 C 0.3765 0.3831 0.55687 0.0
O32 O 0.37113 0.35148 0.52362 0.0
Co33 Co 0.41655 0.35774 0.54565 0.0
O34 O 0.39431 0.33291 0.54259 0.0
C35 C 0.42461 0.37803 0.51023 0.0
C36 C 0.36659 0.41988 0.51529 0.0
C37 C 0.37816 0.33292 0.53129 0.0
O38 O 0.40374 0.38452 0.50889 0.0
O39 O 0.43301 0.3686 0.52407 0.0
O40 O 0.35815 0.3871 0.54775 0.0
O41 O 0.39503 0.3822 0.54779 0.0
Co42 Co 0.87105 0.12986 0.78252 0.0
O43 O 0.8389 0.13379 0.78563 0.0
O44 O 0.85396 0.11375 0.7639 0.0
C45 C 0.87665 0.12216 0.81155 0.0
O46 O 0.90464 0.12189 0.7764 0.0
Co47 Co 0.90331 0.16244 0.80373 0.0
O48 O 0.92605 0.13901 0.7974 0.0
C49 C 0.87575 0.17944 0.77356 0.0
C50 C 0.83564 0.12111 0.7719 0.0
C51 C 0.92387 0.12503 0.78457 0.0
O52 O 0.87194 0.15898 0.76805 0.0
O53 O 0.88596 0.18387 0.78817 0.0
O54 O 0.87086 0.10583 0.8008 0.0
O55 O 0.87778 0.14207 0.80452 0.0
Co56 Co 0.12435 0.39384 0.97024 0.0
O57 O 0.1177 0.42582 0.9706 0.0
O58 O 0.14327 0.40955 0.98792 0.0
C59 C 0.12656 0.39309 0.94037 0.0
O60 O 0.13543 0.3603 0.9726 0.0
Co61 Co 0.09114 0.36136 0.95043 0.0
O62 O 0.11771 0.34083 0.95089 0.0
C63 C 0.07959 0.37868 0.98637 0.0
C64 C 0.13295 0.42814 0.98278 0.0
C65 C 0.13282 0.34215 0.96296 0.0
O66 O 0.09903 0.38866 0.98798 0.0
O67 O 0.07325 0.36812 0.97236 0.0
O68 O 0.14436 0.39831 0.94976 0.0
O69 O 0.10815 0.38932 0.94919 0.0
Co70 Co 0.87517 0.8771 0.22356 0.0
O71 O 0.8438 0.86874 0.22062 0.0
O72 O 0.85617 0.89118 0.24197 0.0
C73 C 0.87905 0.88516 0.1945 0.0
O74 O 0.90731 0.88949 0.22989 0.0
Co75 Co 0.91283 0.85091 0.20303 0.0
O76 O 0.93061 0.87877 0.20771 0.0
C77 C 0.89155 0.83047 0.23513 0.0
C78 C 0.83895 0.88133 0.23413 0.0
C79 C 0.92651 0.89068 0.22142 0.0
O80 O 0.88022 0.84883 0.23835 0.0
O81 O 0.90433 0.8279 0.2215 0.0
O82 O 0.87132 0.90054 0.20534 0.0
O83 O 0.88358 0.8656 0.20143 0.0
Co84 Co 0.3778 0.61588 0.46883 0.0
O85 O 0.37714 0.58349 0.4659 0.0
O86 O 0.3576 0.60161 0.48649 0.0
C87 C 0.37395 0.62218 0.43937 0.0
O88 O 0.37458 0.65045 0.47437 0.0
Co89 Co 0.41776 0.64131 0.44972 0.0
O90 O 0.39997 0.66843 0.45675 0.0
C91 C 0.4263 0.6125 0.48106 0.0
C92 C 0.36291 0.58232 0.47888 0.0
C93 C 0.38369 0.66889 0.46796 0.0
O94 O 0.40502 0.61274 0.48522 0.0
O95 O 0.43408 0.62057 0.46651 0.0
O96 O 0.35595 0.61909 0.44913 0.0
O97 O 0.39301 0.62019 0.44759 0.0
Co98 Co 0.63674 0.13095 0.72087 0.0
O99 O 0.66849 0.13863 0.72018 0.0
O100 O 0.65396 0.11299 0.73831 0.0
C101 C 0.63449 0.12819 0.69108 0.0
O102 O 0.60376 0.11879 0.72435 0.0
Co103 Co 0.60196 0.16259 0.70199 0.0
O104 O 0.5829 0.13496 0.7027 0.0
C105 C 0.62088 0.17548 0.73712 0.0
C106 C 0.67194 0.12379 0.73251 0.0
C107 C 0.58531 0.12022 0.71493 0.0
O108 O 0.63165 0.15643 0.73848 0.0
O109 O 0.60917 0.18119 0.72349 0.0
O110 O 0.64086 0.11076 0.70048 0.0
O111 O 0.63049 0.14663 0.69984 0.0
Co112 Co 0.88125 0.37919 0.96483 0.0
O113 O 0.88349 0.41118 0.96018 0.0
O114 O 0.86571 0.3969 0.98337 0.0
C115 C 0.8721 0.37085 0.93642 0.0
O116 O 0.87557 0.34575 0.97273 0.0
Co117 Co 0.91507 0.34786 0.94372 0.0
O118 O 0.89691 0.3234 0.95475 0.0
C119 C 0.93146 0.37849 0.97205 0.0
C120 C 0.87191 0.41492 0.97441 0.0
C121 C 0.8824 0.32592 0.96719 0.0
O122 O 0.91111 0.38069 0.97824 0.0
O123 O 0.93585 0.36831 0.95743 0.0
O124 O 0.85617 0.37693 0.94744 0.0
O125 O 0.89238 0.37133 0.94277 0.0
Co126 Co 0.37048 0.1316 0.71403 0.0
O127 O 0.33809 0.13462 0.7122 0.0
O128 O 0.35524 0.11527 0.73344 0.0
C129 C 0.374 0.12361 0.68485 0.0
O130 O 0.40468 0.12519 0.71921 0.0
Co131 Co 0.3998 0.165 0.69113 0.0
O132 O 0.42543 0.14682 0.70036 0.0
C133 C 0.37266 0.1814 0.72164 0.0
C134 C 0.33624 0.1224 0.72633 0.0
C135 C 0.424 0.13203 0.7127 0.0
O136 O 0.3712 0.16106 0.72801 0.0
O137 O 0.38103 0.1857 0.70632 0.0
O138 O 0.36995 0.10721 0.696 0.0
O139 O 0.37512 0.14361 0.69167 0.0
Co140 Co 0.62104 0.62568 0.46481 0.0
O141 O 0.61325 0.59417 0.4616 0.0
O142 O 0.63558 0.60658 0.48298 0.0
C143 C 0.62865 0.63049 0.43569 0.0
O144 O 0.6329 0.65797 0.47135 0.0
Co145 Co 0.5934 0.66283 0.44452 0.0
O146 O 0.6204 0.68163 0.4499 0.0
C147 C 0.57352 0.63933 0.47595 0.0
C148 C 0.62586 0.58931 0.4751 0.0
C149 C 0.63304 0.67747 0.46323 0.0
O150 O 0.59275 0.62989 0.47979 0.0
O151 O 0.57046 0.65149 0.46203 0.0
O152 O 0.64439 0.62284 0.44625 0.0
O153 O 0.60917 0.63422 0.44294 0.0
Co154 Co 0.13906 0.87301 0.21229 0.0
O155 O 0.17141 0.86928 0.21098 0.0
O156 O 0.15411 0.88879 0.23206 0.0
C157 C 0.13599 0.88148 0.18315 0.0
O158 O 0.10483 0.88001 0.21676 0.0
Co159 Co 0.11022 0.83987 0.18871 0.0
O160 O 0.08519 0.86018 0.19617 0.0
C161 C 0.13509 0.82316 0.22025 0.0
C162 C 0.17313 0.88121 0.22526 0.0
C163 C 0.08591 0.87448 0.2089 0.0
O164 O 0.13726 0.84361 0.22626 0.0
O165 O 0.12708 0.81872 0.20484 0.0
O166 O 0.14049 0.89759 0.19445 0.0
O167 O 0.13471 0.86138 0.18978 0.0
Co168 Co 0.8813 0.6118 0.0295 0.0
O169 O 0.88781 0.57976 0.02972 0.0
O170 O 0.86806 0.59686 0.00865 0.0
C171 C 0.87065 0.61184 0.05823 0.0
O172 O 0.87126 0.64549 0.02584 0.0
Co173 Co 0.90821 0.64335 0.05553 0.0
O174 O 0.88379 0.66515 0.04963 0.0
C175 C 0.93078 0.62242 0.02417 0.0
C176 C 0.87648 0.57802 0.01513 0.0
C177 C 0.87189 0.66377 0.03554 0.0
O178 O 0.91145 0.61717 0.01713 0.0
O179 O 0.93261 0.63104 0.03971 0.0
O180 O 0.85586 0.60668 0.04605 0.0
O181 O 0.89093 0.61587 0.05264 0.0
Co182 Co 0.13815 0.13283 0.77135 0.0
O183 O 0.1704 0.13555 0.77429 0.0
O184 O 0.15442 0.11202 0.75523 0.0
C185 C 0.1327 0.1316 0.80103 0.0
O186 O 0.10413 0.12575 0.76582 0.0
Co187 Co 0.10774 0.17083 0.78807 0.0
O188 O 0.08304 0.14919 0.78303 0.0
C189 C 0.13138 0.17877 0.75376 0.0
C190 C 0.17304 0.11991 0.76248 0.0
C191 C 0.08472 0.13283 0.77201 0.0
O192 O 0.13886 0.15815 0.75312 0.0
O193 O 0.12004 0.1869 0.7668 0.0
O194 O 0.13696 0.113 0.7923 0.0
O195 O 0.13248 0.14996 0.79172 0.0
Co196 Co 0.62527 0.38818 0.52522 0.0
O197 O 0.61805 0.41986 0.5279 0.0
O198 O 0.63639 0.40589 0.50486 0.0
C199 C 0.63806 0.38531 0.55333 0.0
O200 O 0.63566 0.35522 0.51905 0.0
Co201 Co 0.60075 0.35336 0.55021 0.0
O202 O 0.62564 0.33317 0.54232 0.0
C203 C 0.57581 0.3762 0.52082 0.0
C204 C 0.62803 0.4237 0.51297 0.0
C205 C 0.6363 0.33616 0.52781 0.0
O206 O 0.59454 0.3832 0.51375 0.0
O207 O 0.57502 0.36584 0.53576 0.0
O208 O 0.65176 0.39225 0.54093 0.0
O209 O 0.61747 0.38135 0.5484 0.0
Co210 Co 0.37005 0.87773 0.28131 0.0
O211 O 0.33781 0.87523 0.28447 0.0
O212 O 0.3536 0.88974 0.26055 0.0
C213 C 0.3748 0.89205 0.30896 0.0
O214 O 0.40397 0.88304 0.27457 0.0
Co215 Co 0.40013 0.84936 0.30715 0.0
O216 O 0.42533 0.86583 0.29564 0.0
C217 C 0.374 0.82665 0.27871 0.0
C218 C 0.335 0.88463 0.2692 0.0
C219 C 0.42348 0.87779 0.28161 0.0
O220 O 0.37056 0.84592 0.27095 0.0
O221 O 0.38325 0.82499 0.29403 0.0
O222 O 0.36995 0.90555 0.29586 0.0
O223 O 0.37558 0.87077 0.30496 0.0
Co224 Co 0.62304 0.12105 0.52864 0.0
O225 O 0.62259 0.08843 0.53029 0.0
O226 O 0.64128 0.10746 0.5096 0.0
C227 C 0.62953 0.12599 0.55794 0.0
O228 O 0.62688 0.15572 0.52388 0.0
Co229 Co 0.58559 0.1468 0.55042 0.0
O230 O 0.60302 0.17384 0.54268 0.0
C231 C 0.57363 0.1191 0.51917 0.0
C232 C 0.63546 0.08787 0.51645 0.0
C233 C 0.61849 0.1742 0.53079 0.0
O234 O 0.5944 0.11963 0.51368 0.0
O235 O 0.5675 0.12651 0.5344 0.0
O236 O 0.6466 0.12256 0.54727 0.0
O237 O 0.60979 0.12487 0.55068 0.0
Co238 Co 0.13772 0.37439 0.77938 0.0
O239 O 0.16981 0.37224 0.78369 0.0
O240 O 0.15514 0.38977 0.76055 0.0
C241 C 0.12965 0.38384 0.80778 0.0
O242 O 0.10411 0.37978 0.77177 0.0
Co243 Co 0.107 0.34057 0.80103 0.0
O244 O 0.08221 0.35836 0.79004 0.0
C245 C 0.13705 0.32405 0.77235 0.0
C246 C 0.17334 0.38347 0.76925 0.0
C247 C 0.08442 0.37281 0.77752 0.0
O248 O 0.13918 0.3444 0.76614 0.0
O249 O 0.1271 0.31972 0.78707 0.0
O250 O 0.13549 0.39967 0.7966 0.0
O251 O 0.13027 0.36348 0.80161 0.0
Co252 Co 0.88167 0.87938 0.03422 0.0
O253 O 0.88427 0.91159 0.03741 0.0
O254 O 0.86637 0.89604 0.01484 0.0
C255 C 0.87196 0.87461 0.06303 0.0
O256 O 0.87582 0.84539 0.02779 0.0
Co257 Co 0.91404 0.84943 0.05722 0.0
O258 O 0.89626 0.82413 0.0471 0.0
C259 C 0.93194 0.87674 0.02736 0.0
C260 C 0.87257 0.91457 0.02316 0.0
C261 C 0.88232 0.82589 0.03421 0.0
O262 O 0.91172 0.87945 0.02106 0.0
O263 O 0.93584 0.86749 0.04244 0.0
O264 O 0.8563 0.87891 0.05133 0.0
O265 O 0.89238 0.87389 0.05695 0.0
Co266 Co 0.36734 0.62798 0.2766 0.0
O267 O 0.33565 0.635 0.27983 0.0
O268 O 0.34843 0.61114 0.25959 0.0
C269 C 0.37296 0.62352 0.30601 0.0
O270 O 0.39975 0.61629 0.27025 0.0
Co271 Co 0.4046 0.658 0.29422 0.0
O272 O 0.42331 0.63037 0.29108 0.0
C273 C 0.38121 0.67371 0.26144 0.0
C274 C 0.33099 0.62091 0.2672 0.0
C275 C 0.4192 0.61668 0.27841 0.0
O276 O 0.37029 0.65476 0.25987 0.0
O277 O 0.39459 0.67828 0.27438 0.0
O278 O 0.36567 0.60655 0.29649 0.0
O279 O 0.37608 0.64237 0.2976 0.0
Co280 Co 0.62493 0.89211 0.47218 0.0
O281 O 0.62531 0.92467 0.47079 0.0
O282 O 0.64472 0.90507 0.49068 0.0
C283 C 0.62944 0.88836 0.44256 0.0
O284 O 0.6284 0.85723 0.47613 0.0
Co285 Co 0.58588 0.86763 0.45117 0.0
O286 O 0.604 0.8403 0.45707 0.0
C287 C 0.57614 0.89231 0.48445 0.0
C288 C 0.63941 0.92484 0.48387 0.0
C289 C 0.61976 0.83921 0.4687 0.0
O290 O 0.59746 0.89351 0.4884 0.0
O291 O 0.56859 0.88489 0.46962 0.0
O292 O 0.64722 0.89073 0.45267 0.0
O293 O 0.61018 0.88941 0.45058 0.0
Co294 Co 0.374 0.37645 0.71972 0.0
O295 O 0.34228 0.36919 0.71686 0.0
O296 O 0.3553 0.39292 0.73711 0.0
C297 C 0.37917 0.38162 0.69028 0.0
O298 O 0.40653 0.38795 0.72585 0.0
Co299 Co 0.41054 0.34631 0.70109 0.0
O300 O 0.4306 0.37253 0.70586 0.0
C301 C 0.3882 0.33048 0.73433 0.0
C302 C 0.3378 0.3829 0.72979 0.0
C303 C 0.42638 0.38642 0.71838 0.0
O304 O 0.37748 0.34949 0.73622 0.0
O305 O 0.4009 0.32591 0.72098 0.0
O306 O 0.37187 0.3983 0.70009 0.0
O307 O 0.38231 0.36257 0.69839 0.0
Co308 Co 0.88189 0.11434 0.97424 0.0
O309 O 0.88986 0.08269 0.97325 0.0
O310 O 0.86433 0.09675 0.99169 0.0
C311 C 0.87863 0.11666 0.9445 0.0
O312 O 0.86946 0.14717 0.97806 0.0
Co313 Co 0.91266 0.14961 0.95507 0.0
O314 O 0.88488 0.16841 0.9563 0.0
C315 C 0.9265 0.13056 0.99 0.0
C316 C 0.87515 0.07893 0.98561 0.0
C317 C 0.8705 0.16575 0.96875 0.0
O318 O 0.90762 0.11956 0.99161 0.0
O319 O 0.93173 0.14238 0.97631 0.0
O320 O 0.86138 0.1102 0.95404 0.0
O321 O 0.89715 0.12084 0.95309 0.0
Co322 Co 0.13149 0.63439 0.21739 0.0
O323 O 0.1633 0.64176 0.21702 0.0
O324 O 0.14852 0.6154 0.23434 0.0
C325 C 0.12918 0.6332 0.18749 0.0
O326 O 0.09831 0.62245 0.22027 0.0
Co327 Co 0.09767 0.66808 0.19942 0.0
O328 O 0.07777 0.64106 0.19961 0.0
C329 C 0.11647 0.67837 0.23508 0.0
C330 C 0.16663 0.62633 0.22892 0.0
C331 C 0.07982 0.62524 0.21105 0.0
O332 O 0.12658 0.65891 0.23587 0.0
O333 O 0.10528 0.68524 0.22152 0.0
O334 O 0.13545 0.61526 0.19633 0.0
O335 O 0.12558 0.65122 0.19685 0.0
Co336 Co 0.37673 0.88216 0.46654 0.0
O337 O 0.38459 0.91357 0.46322 0.0
O338 O 0.36546 0.90093 0.4863 0.0
C339 C 0.36429 0.87869 0.43838 0.0
O340 O 0.36558 0.84967 0.47332 0.0
Co341 Co 0.40133 0.84619 0.44303 0.0
O342 O 0.37572 0.82675 0.45064 0.0
C343 C 0.42574 0.86864 0.47276 0.0
C344 C 0.3742 0.91826 0.47782 0.0
C345 C 0.36479 0.83035 0.46494 0.0
O346 O 0.40694 0.87705 0.47871 0.0
O347 O 0.42701 0.85745 0.45822 0.0
O348 O 0.35069 0.88627 0.4506 0.0
O349 O 0.38483 0.87448 0.44341 0.0
Co350 Co 0.86424 0.62587 0.21787 0.0
O351 O 0.83182 0.63013 0.21728 0.0
O352 O 0.85007 0.61231 0.23886 0.0
C353 C 0.86485 0.61439 0.18934 0.0
O354 O 0.89834 0.61831 0.22221 0.0
Co355 Co 0.89418 0.65384 0.19158 0.0
O356 O 0.91939 0.63503 0.20077 0.0
C357 C 0.87108 0.67606 0.22202 0.0
C358 C 0.8308 0.61913 0.23205 0.0
C359 C 0.9176 0.62235 0.21439 0.0
O360 O 0.86754 0.6567 0.22963 0.0
O361 O 0.87911 0.67791 0.2063 0.0
O362 O 0.86118 0.59956 0.2018 0.0
O363 O 0.86768 0.63506 0.19451 0.0
Co364 Co 0.12376 0.12779 0.96266 0.0
O365 O 0.12092 0.09584 0.95792 0.0
O366 O 0.1403 0.10975 0.98046 0.0
C367 C 0.13122 0.13622 0.93397 0.0
O368 O 0.13039 0.16102 0.97059 0.0
Co369 Co 0.08936 0.16006 0.94312 0.0
O370 O 0.10828 0.18418 0.95383 0.0
C371 C 0.07409 0.12916 0.97168 0.0
C372 C 0.13344 0.09187 0.97163 0.0
C373 C 0.12357 0.18108 0.9656 0.0
O374 O 0.09473 0.12646 0.97714 0.0
O375 O 0.06906 0.13972 0.95735 0.0
O376 O 0.14773 0.12998 0.9444 0.0
O377 O 0.11133 0.136 0.94104 0.0
Co378 Co 0.63974 0.37522 0.71264 0.0
O379 O 0.67187 0.36997 0.71365 0.0
O380 O 0.65285 0.38894 0.73412 0.0
C381 C 0.6418 0.38604 0.684 0.0
O382 O 0.6054 0.38358 0.71488 0.0
Co383 Co 0.6123 0.34658 0.68521 0.0
O384 O 0.58764 0.36795 0.69135 0.0
C385 C 0.63099 0.32522 0.71777 0.0
C386 C 0.67232 0.38112 0.72834 0.0
C387 C 0.58736 0.3804 0.7052 0.0
O388 O 0.63478 0.34488 0.72482 0.0
O389 O 0.62417 0.32275 0.70176 0.0
O390 O 0.64475 0.40107 0.69642 0.0
O391 O 0.63835 0.36552 0.68929 0.0
Co392 Co 0.3792 0.12147 0.52273 0.0
O393 O 0.38895 0.0904 0.52493 0.0
O394 O 0.36482 0.10224 0.50455 0.0
C395 C 0.3727 0.12418 0.55214 0.0
O396 O 0.36526 0.15332 0.51736 0.0
Co397 Co 0.40513 0.1594 0.54321 0.0
O398 O 0.37657 0.17644 0.53951 0.0
C399 C 0.42483 0.13922 0.51033 0.0
C400 C 0.37582 0.08527 0.51181 0.0
C401 C 0.36397 0.17227 0.52618 0.0
O402 O 0.40644 0.12793 0.50712 0.0
O403 O 0.42766 0.15137 0.52428 0.0
O404 O 0.35693 0.11638 0.54168 0.0
O405 O 0.39161 0.1296 0.54458 0.0
Co406 Co 0.63311 0.63184 0.27275 0.0
O407 O 0.66564 0.63369 0.2735 0.0
O408 O 0.64679 0.61146 0.25498 0.0
C409 C 0.6309 0.6291 0.3026 0.0
O410 O 0.59842 0.62574 0.2695 0.0
Co411 Co 0.60578 0.66961 0.29257 0.0
O412 O 0.58063 0.64776 0.28969 0.0
C413 C 0.6248 0.67856 0.25673 0.0
C414 C 0.66633 0.61851 0.26118 0.0
C415 C 0.58018 0.63235 0.27779 0.0
O416 O 0.63219 0.65798 0.25521 0.0
O417 O 0.61512 0.68632 0.27069 0.0
O418 O 0.63381 0.61092 0.29304 0.0
O419 O 0.63024 0.64799 0.29394 0.0
Co420 Co 0.12722 0.89184 0.02068 0.0
O421 O 0.11861 0.92335 0.02143 0.0
O422 O 0.14335 0.90924 0.00235 0.0
C423 C 0.13216 0.89024 0.05032 0.0
O424 O 0.14021 0.85925 0.01688 0.0
Co425 Co 0.09847 0.85621 0.04139 0.0
O426 O 0.12666 0.83812 0.03942 0.0
C427 C 0.08202 0.87435 0.00687 0.0
C428 C 0.13251 0.92701 0.00849 0.0
C429 C 0.14023 0.84087 0.02643 0.0
O430 O 0.10061 0.88559 0.00435 0.0
O431 O 0.07788 0.86275 0.02089 0.0
O432 O 0.14871 0.89699 0.04016 0.0
O433 O 0.11334 0.8854 0.04237 0.0
Co434 Co 0.87134 0.37274 0.77432 0.0
O435 O 0.83937 0.36662 0.77601 0.0
O436 O 0.85411 0.39147 0.75733 0.0
C437 C 0.87407 0.37524 0.80409 0.0
O438 O 0.90462 0.38367 0.77003 0.0
Co439 Co 0.90568 0.3405 0.79267 0.0
O440 O 0.92555 0.3675 0.79159 0.0
C441 C 0.88521 0.32769 0.75798 0.0
C442 C 0.83595 0.38203 0.76412 0.0
C443 C 0.92326 0.38203 0.7792 0.0
O444 O 0.87475 0.34695 0.75668 0.0
O445 O 0.89729 0.32198 0.77141 0.0
O446 O 0.86877 0.39309 0.79479 0.0
O447 O 0.8774 0.35674 0.79526 0.0
C448 C 0.13015 0.61388 0.15795 0.0
C449 C 0.12875 0.63395 0.16795 0.0
C450 C 0.13084 0.61469 0.13936 0.0
C451 C 0.13049 0.63611 0.13065 0.0
C452 C 0.12918 0.65642 0.14071 0.0
C453 C 0.12811 0.65508 0.15923 0.0
C454 C 0.13181 0.59266 0.12903 0.0
C455 C 0.12905 0.67957 0.13192 0.0
C456 C 0.15147 0.6379 0.08299 0.0
C457 C 0.13084 0.63773 0.07363 0.0
C458 C 0.15165 0.63784 0.10161 0.0
C459 C 0.13073 0.63726 0.11098 0.0
C460 C 0.10988 0.63756 0.10157 0.0
C461 C 0.1102 0.63799 0.08302 0.0
C462 C 0.17421 0.63799 0.11125 0.0
C463 C 0.08722 0.63675 0.11107 0.0
H464 H 0.13066 0.59754 0.16466 0.0
H465 H 0.12722 0.67068 0.16692 0.0
H466 H 0.11691 0.59151 0.12 0.0
H467 H 0.14736 0.59229 0.12067 0.0
H468 H 0.13189 0.57744 0.13779 0.0
H469 H 0.12871 0.69374 0.14169 0.0
H470 H 0.1444 0.68151 0.12346 0.0
H471 H 0.11395 0.68116 0.12316 0.0
H472 H 0.16745 0.63771 0.07577 0.0
H473 H 0.09417 0.63779 0.07586 0.0
H474 H 0.17617 0.622 0.11896 0.0
H475 H 0.17474 0.65234 0.12083 0.0
H476 H 0.18891 0.6396 0.10205 0.0
H477 H 0.08606 0.62091 0.11907 0.0
H478 H 0.07254 0.63727 0.10178 0.0
H479 H 0.08575 0.65133 0.12037 0.0
C480 C 0.65127 0.88512 0.41413 0.0
C481 C 0.63052 0.8878 0.42306 0.0
C482 C 0.65206 0.88545 0.39552 0.0
C483 C 0.63168 0.88889 0.38578 0.0
C484 C 0.61079 0.89197 0.39479 0.0
C485 C 0.61044 0.89118 0.4133 0.0
C486 C 0.67457 0.8817 0.38628 0.0
C487 C 0.58873 0.89585 0.38488 0.0
C488 C 0.6346 0.90566 0.33717 0.0
C489 C 0.63054 0.88464 0.32895 0.0
C490 C 0.6351 0.90739 0.35575 0.0
C491 C 0.63175 0.88756 0.36617 0.0
C492 C 0.6275 0.86637 0.35789 0.0
C493 C 0.62676 0.86522 0.33941 0.0
C494 C 0.63923 0.93033 0.36422 0.0
C495 C 0.62391 0.84483 0.36854 0.0
H496 H 0.66681 0.88261 0.42167 0.0
H497 H 0.59435 0.8935 0.42014 0.0
H498 H 0.67372 0.86594 0.37816 0.0
H499 H 0.67817 0.89606 0.37712 0.0
H500 H 0.68897 0.88009 0.39576 0.0
H501 H 0.57422 0.89946 0.39392 0.0
H502 H 0.5906 0.91035 0.37555 0.0
H503 H 0.58449 0.88054 0.37689 0.0
H504 H 0.63759 0.92068 0.32912 0.0
H505 H 0.62369 0.84886 0.33314 0.0
H506 H 0.65472 0.92962 0.37265 0.0
H507 H 0.62471 0.93481 0.37298 0.0
H508 H 0.64143 0.9441 0.35425 0.0
H509 H 0.63874 0.84184 0.37738 0.0
H510 H 0.62156 0.82957 0.36001 0.0
H511 H 0.60865 0.84667 0.37711 0.0
C512 C 0.38355 0.36285 0.66094 0.0
C513 C 0.38051 0.38295 0.67076 0.0
C514 C 0.38267 0.36302 0.64241 0.0
C515 C 0.37907 0.38388 0.63342 0.0
C516 C 0.37661 0.40436 0.64321 0.0
C517 C 0.37719 0.40363 0.66182 0.0
C518 C 0.38518 0.34079 0.63246 0.0
C519 C 0.37319 0.42697 0.63402 0.0
C520 C 0.39771 0.38507 0.58536 0.0
C521 C 0.37689 0.38261 0.57642 0.0
C522 C 0.39858 0.38608 0.60389 0.0
C523 C 0.37816 0.38411 0.61374 0.0
C524 C 0.35708 0.38138 0.6048 0.0
C525 C 0.35667 0.38087 0.58619 0.0
C526 C 0.42134 0.3893 0.61292 0.0
C527 C 0.33502 0.37878 0.61491 0.0
H528 H 0.38603 0.34677 0.66776 0.0
H529 H 0.37482 0.41918 0.66937 0.0
H530 H 0.36981 0.33771 0.62422 0.0
H531 H 0.39999 0.3417 0.62335 0.0
H532 H 0.38758 0.326 0.64147 0.0
H533 H 0.37223 0.44141 0.64352 0.0
H534 H 0.38741 0.43017 0.62465 0.0
H535 H 0.35723 0.42657 0.62613 0.0
H536 H 0.41339 0.38665 0.57785 0.0
H537 H 0.34056 0.379 0.5793 0.0
H538 H 0.42522 0.3743 0.62136 0.0
H539 H 0.42074 0.40443 0.62174 0.0
H540 H 0.4355 0.39158 0.6033 0.0
H541 H 0.33595 0.36355 0.62362 0.0
H542 H 0.32007 0.37694 0.60598 0.0
H543 H 0.33227 0.3938 0.62358 0.0
C544 C 0.89895 0.11513 0.91567 0.0
C545 C 0.87831 0.11632 0.92499 0.0
C546 C 0.89926 0.11386 0.89715 0.0
C547 C 0.87843 0.11433 0.88773 0.0
C548 C 0.8575 0.11544 0.89707 0.0
C549 C 0.85768 0.11617 0.91566 0.0
C550 C 0.9219 0.11238 0.88767 0.0
C551 C 0.83498 0.11649 0.88741 0.0
C552 C 0.88072 0.13893 0.84151 0.0
C553 C 0.87876 0.11937 0.8309 0.0
C554 C 0.88049 0.13744 0.85998 0.0
C555 C 0.87871 0.1158 0.86811 0.0
C556 C 0.87741 0.09587 0.85752 0.0
C557 C 0.87726 0.09791 0.83895 0.0
C558 C 0.88171 0.15912 0.87079 0.0
C559 C 0.87599 0.07249 0.86582 0.0
H560 H 0.91495 0.11491 0.92287 0.0
H561 H 0.84172 0.11701 0.92288 0.0
H562 H 0.92184 0.09789 0.87821 0.0
H563 H 0.92479 0.12815 0.87986 0.0
H564 H 0.9364 0.11017 0.89699 0.0
H565 H 0.82021 0.1163 0.89662 0.0
H566 H 0.83417 0.13231 0.87935 0.0
H567 H 0.8334 0.10188 0.87815 0.0
H568 H 0.88183 0.15561 0.83538 0.0
H569 H 0.87574 0.08278 0.83078 0.0
H570 H 0.89693 0.15877 0.87951 0.0
H571 H 0.86651 0.16048 0.87948 0.0
H572 H 0.88261 0.17463 0.86236 0.0
H573 H 0.89065 0.06981 0.87488 0.0
H574 H 0.87591 0.05867 0.85575 0.0
H575 H 0.86025 0.07113 0.8739 0.0
C576 C 0.14692 0.39276 0.91129 0.0
C577 C 0.1265 0.39369 0.92086 0.0
C578 C 0.14676 0.39327 0.89269 0.0
C579 C 0.12572 0.39523 0.88357 0.0
C580 C 0.10515 0.39698 0.89323 0.0
C581 C 0.10576 0.39591 0.91177 0.0
C582 C 0.16901 0.39089 0.8828 0.0
C583 C 0.08243 0.39944 0.88399 0.0
C584 C 0.12812 0.40951 0.8344 0.0
C585 C 0.12608 0.38775 0.8269 0.0
C586 C 0.12745 0.41241 0.8529 0.0
C587 C 0.12502 0.39304 0.86399 0.0
C588 C 0.12229 0.37117 0.8564 0.0
C589 C 0.12264 0.36885 0.83798 0.0
C590 C 0.12987 0.43604 0.8606 0.0
C591 C 0.11979 0.35006 0.86775 0.0
H592 H 0.16295 0.39113 0.91833 0.0
H593 H 0.08994 0.39698 0.91915 0.0
H594 H 0.16895 0.37476 0.87509 0.0
H595 H 0.17104 0.40508 0.87321 0.0
H596 H 0.18397 0.39076 0.89183 0.0
H597 H 0.06832 0.40293 0.89343 0.0
H598 H 0.08314 0.41347 0.87415 0.0
H599 H 0.07841 0.38354 0.87667 0.0
H600 H 0.13077 0.42415 0.82587 0.0
H601 H 0.12099 0.35195 0.83229 0.0
H602 H 0.14602 0.43722 0.86819 0.0
H603 H 0.11573 0.43953 0.86998 0.0
H604 H 0.12991 0.44944 0.8502 0.0
H605 H 0.13504 0.34804 0.87631 0.0
H606 H 0.11772 0.33431 0.85972 0.0
H607 H 0.10479 0.35175 0.8766 0.0
C608 C 0.88288 0.89594 0.08972 0.0
C609 C 0.86867 0.87959 0.08189 0.0
C610 C 0.88262 0.89966 0.10799 0.0
C611 C 0.86801 0.8864 0.11872 0.0
C612 C 0.85263 0.87073 0.11077 0.0
C613 C 0.85303 0.8676 0.09228 0.0
C614 C 0.89906 0.91671 0.11587 0.0
C615 C 0.83679 0.85635 0.12187 0.0
C616 C 0.89044 0.87259 0.16446 0.0
C617 C 0.87805 0.88769 0.17512 0.0
C618 C 0.88727 0.87207 0.1461 0.0
C619 C 0.87111 0.88688 0.13823 0.0
C620 C 0.85889 0.90256 0.14887 0.0
C621 C 0.86262 0.90289 0.16726 0.0
C622 C 0.90104 0.85546 0.13515 0.0
C623 C 0.84152 0.91856 0.14089 0.0
H624 H 0.89471 0.90548 0.08152 0.0
H625 H 0.84202 0.85505 0.08611 0.0
H626 H 0.89023 0.92794 0.1255 0.0
H627 H 0.91268 0.90752 0.12317 0.0
H628 H 0.9072 0.92754 0.10557 0.0
H629 H 0.82407 0.84712 0.11365 0.0
H630 H 0.84689 0.84362 0.12941 0.0
H631 H 0.82765 0.8671 0.13166 0.0
H632 H 0.90237 0.86083 0.17055 0.0
H633 H 0.85278 0.91435 0.17554 0.0
H634 H 0.91119 0.86482 0.1251 0.0
H635 H 0.88946 0.84374 0.12791 0.0
H636 H 0.91287 0.84509 0.14336 0.0
H637 H 0.8495 0.92902 0.13033 0.0
H638 H 0.83391 0.93015 0.15092 0.0
H639 H 0.82764 0.90855 0.13461 0.0
C640 C 0.35267 0.62591 0.4107 0.0
C641 C 0.37333 0.62394 0.41987 0.0
C642 C 0.35224 0.62572 0.39207 0.0
C643 C 0.37291 0.62314 0.38254 0.0
C644 C 0.39378 0.62129 0.39178 0.0
C645 C 0.39375 0.62193 0.41031 0.0
C646 C 0.32972 0.6282 0.38258 0.0
C647 C 0.41616 0.61833 0.38211 0.0
C648 C 0.37104 0.60237 0.33483 0.0
C649 C 0.37421 0.6228 0.32554 0.0
C650 C 0.37054 0.60218 0.35345 0.0
C651 C 0.37294 0.62296 0.36287 0.0
C652 C 0.37623 0.64359 0.35352 0.0
C653 C 0.37702 0.64322 0.33499 0.0
C654 C 0.36748 0.5798 0.36304 0.0
C655 C 0.37871 0.6661 0.36308 0.0
H656 H 0.33687 0.62743 0.41805 0.0
H657 H 0.40981 0.62027 0.41732 0.0
H658 H 0.33029 0.64313 0.37356 0.0
H659 H 0.32646 0.61292 0.3743 0.0
H660 H 0.31524 0.63042 0.39192 0.0
H661 H 0.43084 0.61661 0.39132 0.0
H662 H 0.41544 0.60294 0.37357 0.0
H663 H 0.41928 0.63317 0.37332 0.0
H664 H 0.36882 0.58658 0.32756 0.0
H665 H 0.37935 0.65913 0.32789 0.0
H666 H 0.35195 0.58046 0.37142 0.0
H667 H 0.38218 0.57675 0.372 0.0
H668 H 0.36598 0.56515 0.35378 0.0
H669 H 0.36366 0.66911 0.37168 0.0
H670 H 0.38043 0.68071 0.3538 0.0
H671 H 0.39393 0.66569 0.3718 0.0
C672 C 0.6358 0.10746 0.66215 0.0
C673 C 0.63444 0.128 0.67155 0.0
C674 C 0.63641 0.10738 0.64355 0.0
C675 C 0.63603 0.12837 0.63424 0.0
C676 C 0.6351 0.14916 0.64371 0.0
C677 C 0.63409 0.14871 0.66225 0.0
C678 C 0.63696 0.08487 0.63385 0.0
C679 C 0.63491 0.17188 0.63426 0.0
C680 C 0.65318 0.12847 0.5856 0.0
C681 C 0.63179 0.12825 0.57734 0.0
C682 C 0.65492 0.12879 0.60419 0.0
C683 C 0.6348 0.12859 0.6146 0.0
C684 C 0.61322 0.12867 0.60626 0.0
C685 C 0.61199 0.12867 0.58777 0.0
C686 C 0.6782 0.12909 0.6127 0.0
C687 C 0.59136 0.12833 0.61688 0.0
H688 H 0.63614 0.09144 0.66932 0.0
H689 H 0.63331 0.16468 0.66948 0.0
H690 H 0.62136 0.08304 0.62565 0.0
H691 H 0.65177 0.0843 0.62472 0.0
H692 H 0.63802 0.0701 0.64304 0.0
H693 H 0.63576 0.18649 0.64361 0.0
H694 H 0.64953 0.173 0.62498 0.0
H695 H 0.61912 0.1735 0.62627 0.0
H696 H 0.6685 0.12813 0.57758 0.0
H697 H 0.59538 0.12845 0.58148 0.0
H698 H 0.68059 0.11349 0.62081 0.0
H699 H 0.67968 0.14392 0.62176 0.0
H700 H 0.69214 0.13001 0.60275 0.0
H701 H 0.59094 0.11299 0.62549 0.0
H702 H 0.57595 0.12824 0.60832 0.0
H703 H 0.59055 0.14347 0.62568 0.0
C704 C 0.87494 0.394 0.83382 0.0
C705 C 0.87134 0.37456 0.82346 0.0
C706 C 0.87244 0.39304 0.85232 0.0
C707 C 0.86555 0.37233 0.86042 0.0
C708 C 0.86083 0.35301 0.84985 0.0
C709 C 0.86414 0.35426 0.83152 0.0
C710 C 0.87809 0.41386 0.86324 0.0
C711 C 0.8529 0.33081 0.85794 0.0
C712 C 0.88723 0.36136 0.90674 0.0
C713 C 0.86862 0.36798 0.91721 0.0
C714 C 0.88626 0.36247 0.88827 0.0
C715 C 0.866 0.37001 0.87999 0.0
C716 C 0.84664 0.3755 0.8904 0.0
C717 C 0.84822 0.37453 0.90899 0.0
C718 C 0.90728 0.35644 0.87767 0.0
C719 C 0.8246 0.38311 0.88194 0.0
H720 H 0.88032 0.40973 0.82752 0.0
H721 H 0.86084 0.33932 0.82344 0.0
H722 H 0.86375 0.41802 0.87226 0.0
H723 H 0.89322 0.41028 0.87163 0.0
H724 H 0.8818 0.429 0.85487 0.0
H725 H 0.84732 0.31834 0.84774 0.0
H726 H 0.86697 0.32307 0.86571 0.0
H727 H 0.83854 0.3339 0.86721 0.0
H728 H 0.90302 0.35614 0.91301 0.0
H729 H 0.83382 0.37972 0.91705 0.0
H730 H 0.91292 0.37146 0.86986 0.0
H731 H 0.90335 0.34259 0.86813 0.0
H732 H 0.92166 0.3508 0.88619 0.0
H733 H 0.82706 0.39999 0.87558 0.0
H734 H 0.81054 0.38453 0.89174 0.0
H735 H 0.81944 0.37098 0.8714 0.0
C736 C 0.36473 0.13985 0.65557 0.0
C737 C 0.37223 0.12108 0.6655 0.0
C738 C 0.36275 0.13867 0.63717 0.0
C739 C 0.36896 0.11833 0.62837 0.0
C740 C 0.3761 0.09906 0.6383 0.0
C741 C 0.37739 0.10058 0.65689 0.0
C742 C 0.3547 0.15948 0.62712 0.0
C743 C 0.38315 0.07723 0.62926 0.0
C744 C 0.35141 0.11484 0.57999 0.0
C745 C 0.37103 0.12319 0.57162 0.0
C746 C 0.35065 0.1124 0.59851 0.0
C747 C 0.37001 0.11834 0.60874 0.0
C748 C 0.38989 0.12658 0.60029 0.0
C749 C 0.3901 0.12904 0.58187 0.0
C750 C 0.32906 0.10388 0.60715 0.0
C751 C 0.41087 0.13317 0.61074 0.0
H752 H 0.36026 0.15563 0.66222 0.0
H753 H 0.38304 0.08604 0.66461 0.0
H754 H 0.3689 0.1664 0.61903 0.0
H755 H 0.34072 0.15485 0.6179 0.0
H756 H 0.34853 0.17318 0.63609 0.0
H757 H 0.38644 0.06326 0.63888 0.0
H758 H 0.36975 0.07162 0.61984 0.0
H759 H 0.3989 0.08023 0.62146 0.0
H760 H 0.33671 0.11013 0.57209 0.0
H761 H 0.40539 0.13537 0.57547 0.0
H762 H 0.32176 0.11747 0.61568 0.0
H763 H 0.33287 0.0891 0.61583 0.0
H764 H 0.316 0.09872 0.59728 0.0
H765 H 0.40701 0.1481 0.61926 0.0
H766 H 0.4255 0.1376 0.60205 0.0
H767 H 0.41606 0.11898 0.61959 0.0
C768 C 0.612 0.63651 0.40584 0.0
C769 C 0.63123 0.63171 0.41626 0.0
C770 C 0.61298 0.6355 0.38736 0.0
C771 C 0.63382 0.62996 0.379 0.0
C772 C 0.65352 0.6257 0.38937 0.0
C773 C 0.65195 0.62647 0.40796 0.0
C774 C 0.59156 0.64002 0.37678 0.0
C775 C 0.67612 0.62018 0.38084 0.0
C776 C 0.62876 0.60863 0.33165 0.0
C777 C 0.63177 0.62889 0.32211 0.0
C778 C 0.62999 0.60855 0.35024 0.0
C779 C 0.6348 0.62913 0.35936 0.0
C780 C 0.63852 0.64946 0.34972 0.0
C781 C 0.63669 0.64914 0.33123 0.0
C782 C 0.62552 0.58662 0.36014 0.0
C783 C 0.64401 0.67166 0.35894 0.0
H784 H 0.59589 0.64052 0.41215 0.0
H785 H 0.66683 0.62272 0.41597 0.0
H786 H 0.59418 0.65483 0.36786 0.0
H787 H 0.58757 0.62507 0.3683 0.0
H788 H 0.57659 0.64357 0.38536 0.0
H789 H 0.68995 0.61792 0.39075 0.0
H790 H 0.67462 0.6043 0.37293 0.0
H791 H 0.68106 0.63402 0.37157 0.0
H792 H 0.62507 0.59295 0.3246 0.0
H793 H 0.63939 0.66481 0.32388 0.0
H794 H 0.60992 0.58849 0.36834 0.0
H795 H 0.63984 0.58286 0.36928 0.0
H796 H 0.62319 0.57188 0.35107 0.0
H797 H 0.62914 0.67729 0.3669 0.0
H798 H 0.64843 0.68545 0.34945 0.0
H799 H 0.6585 0.66928 0.36822 0.0
C800 C 0.13431 0.90655 0.1562 0.0
C801 C 0.1354 0.88479 0.16379 0.0
C802 C 0.13445 0.90923 0.13767 0.0
C803 C 0.13614 0.88969 0.12667 0.0
C804 C 0.13757 0.86776 0.13435 0.0
C805 C 0.13696 0.86558 0.15277 0.0
C806 C 0.13248 0.93284 0.12986 0.0
C807 C 0.13964 0.84651 0.12311 0.0
C808 C 0.1135 0.88857 0.07982 0.0
C809 C 0.13357 0.89042 0.06982 0.0
C810 C 0.11404 0.88941 0.09834 0.0
C811 C 0.13522 0.89175 0.1071 0.0
C812 C 0.15556 0.89384 0.0971 0.0
C813 C 0.15447 0.89331 0.0785 0.0
C814 C 0.09196 0.88728 0.10853 0.0
C815 C 0.17849 0.89595 0.10604 0.0
H816 H 0.13317 0.92141 0.1647 0.0
H817 H 0.13805 0.84869 0.15856 0.0
H818 H 0.14715 0.93627 0.12097 0.0
H819 H 0.11679 0.93401 0.12168 0.0
H820 H 0.13186 0.94629 0.14021 0.0
H821 H 0.14183 0.83085 0.13121 0.0
H822 H 0.12415 0.84448 0.11482 0.0
H823 H 0.1544 0.84804 0.11399 0.0
H824 H 0.09724 0.88661 0.07316 0.0
H825 H 0.16999 0.89484 0.07079 0.0
H826 H 0.09041 0.90137 0.11827 0.0
H827 H 0.09185 0.87104 0.11608 0.0
H828 H 0.0768 0.88757 0.09971 0.0
H829 H 0.17829 0.91023 0.11568 0.0
H830 H 0.1925 0.89886 0.0964 0.0
H831 H 0.18221 0.88013 0.11358 0.0
C832 C 0.88292 0.61802 0.08919 0.0
C833 C 0.866 0.61068 0.07738 0.0
C834 C 0.88033 0.61545 0.10745 0.0
C835 C 0.86021 0.60536 0.11417 0.0
C836 C 0.84295 0.59791 0.10237 0.0
C837 C 0.84604 0.6007 0.08402 0.0
C838 C 0.89905 0.6239 0.11957 0.0
C839 C 0.82127 0.58715 0.10917 0.0
C840 C 0.86748 0.58936 0.16246 0.0
C841 C 0.86073 0.60976 0.17049 0.0
C842 C 0.86576 0.58676 0.14397 0.0
C843 C 0.85677 0.60486 0.13361 0.0
C844 C 0.84817 0.62461 0.14199 0.0
C845 C 0.85046 0.62689 0.16029 0.0
C846 C 0.87512 0.56546 0.13543 0.0
C847 C 0.83825 0.64422 0.13151 0.0
H848 H 0.89843 0.62571 0.08414 0.0
H849 H 0.83306 0.59478 0.07489 0.0
H850 H 0.89252 0.63799 0.12797 0.0
H851 H 0.90469 0.61002 0.12855 0.0
H852 H 0.91413 0.63023 0.11213 0.0
H853 H 0.80998 0.58134 0.09824 0.0
H854 H 0.82539 0.57234 0.11774 0.0
H855 H 0.81178 0.59958 0.11744 0.0
H856 H 0.87519 0.57606 0.17044 0.0
H857 H 0.8447 0.64247 0.16661 0.0
H858 H 0.89177 0.5694 0.12915 0.0
H859 H 0.86351 0.5593 0.12486 0.0
H860 H 0.87774 0.55157 0.14524 0.0
H861 H 0.85217 0.65331 0.12448 0.0
H862 H 0.82926 0.65667 0.14013 0.0
H863 H 0.82613 0.63792 0.12135 0.0
C864 C 0.13705 0.15361 0.82893 0.0
C865 C 0.13282 0.13267 0.82054 0.0
C866 C 0.13888 0.1551 0.84738 0.0
C867 C 0.13583 0.13525 0.85774 0.0
C868 C 0.13146 0.11404 0.84938 0.0
C869 C 0.13025 0.11296 0.83081 0.0
C870 C 0.14391 0.17794 0.85579 0.0
C871 C 0.12765 0.09261 0.86007 0.0
C872 C 0.15437 0.13435 0.90605 0.0
C873 C 0.13365 0.13882 0.91461 0.0
C874 C 0.15553 0.13357 0.88745 0.0
C875 C 0.13545 0.13708 0.87735 0.0
C876 C 0.11471 0.14233 0.88596 0.0
C877 C 0.11413 0.14334 0.90445 0.0
C878 C 0.17804 0.12844 0.87862 0.0
C879 C 0.09292 0.14612 0.87568 0.0
H880 H 0.13939 0.16888 0.82103 0.0
H881 H 0.1271 0.09676 0.82433 0.0
H882 H 0.12919 0.18345 0.86396 0.0
H883 H 0.15884 0.17653 0.86475 0.0
H884 H 0.14744 0.19138 0.84579 0.0
H885 H 0.12505 0.07739 0.85155 0.0
H886 H 0.14245 0.08945 0.86889 0.0
H887 H 0.11245 0.09476 0.86867 0.0
H888 H 0.16947 0.13081 0.91386 0.0
H889 H 0.09805 0.14688 0.91098 0.0
H890 H 0.18198 0.14168 0.86858 0.0
H891 H 0.17698 0.11187 0.87157 0.0
H892 H 0.19231 0.1276 0.88828 0.0
H893 H 0.09511 0.16036 0.86616 0.0
H894 H 0.07822 0.15009 0.88443 0.0
H895 H 0.08876 0.13063 0.86786 0.0
C896 C 0.62859 0.37531 0.58425 0.0
C897 C 0.64388 0.38532 0.57231 0.0
C898 C 0.63133 0.37791 0.60251 0.0
C899 C 0.64996 0.39071 0.60904 0.0
C900 C 0.66599 0.40022 0.5971 0.0
C901 C 0.66274 0.39741 0.57876 0.0
C902 C 0.61398 0.3672 0.61479 0.0
C903 C 0.68618 0.41374 0.60368 0.0
C904 C 0.63856 0.40911 0.65624 0.0
C905 C 0.64728 0.39029 0.66534 0.0
C906 C 0.64096 0.41062 0.63773 0.0
C907 C 0.65268 0.39311 0.62847 0.0
C908 C 0.66335 0.37531 0.63798 0.0
C909 C 0.66027 0.37398 0.65629 0.0
C910 C 0.62932 0.42983 0.62799 0.0
C911 C 0.6763 0.35651 0.62869 0.0
H912 H 0.61403 0.36586 0.57932 0.0
H913 H 0.67447 0.40533 0.56952 0.0
H914 H 0.62249 0.35481 0.62372 0.0
H915 H 0.60606 0.38051 0.62324 0.0
H916 H 0.60024 0.35816 0.60749 0.0
H917 H 0.69788 0.41869 0.59276 0.0
H918 H 0.68013 0.42945 0.61039 0.0
H919 H 0.69589 0.40372 0.61361 0.0
H920 H 0.62865 0.42175 0.66336 0.0
H921 H 0.66742 0.35965 0.6635 0.0
H922 H 0.61377 0.4232 0.62137 0.0
H923 H 0.64061 0.43685 0.61753 0.0
H924 H 0.62423 0.44385 0.63706 0.0
H925 H 0.66404 0.34481 0.62215 0.0
H926 H 0.68683 0.34638 0.63808 0.0
H927 H 0.68758 0.36359 0.61826 0.0
C928 C 0.38582 0.90635 0.33877 0.0
C929 C 0.36917 0.89808 0.32723 0.0
C930 C 0.38203 0.90615 0.35716 0.0
C931 C 0.36141 0.89691 0.36391 0.0
C932 C 0.34398 0.89009 0.3521 0.0
C933 C 0.34808 0.89086 0.33386 0.0
C934 C 0.40077 0.91412 0.36938 0.0
C935 C 0.32191 0.87988 0.35868 0.0
C936 C 0.36863 0.86569 0.40742 0.0
C937 C 0.35934 0.88126 0.41944 0.0
C938 C 0.36845 0.87021 0.38921 0.0
C939 C 0.35948 0.89119 0.383 0.0
C940 C 0.34935 0.90665 0.39507 0.0
C941 C 0.34914 0.90133 0.41321 0.0
C942 C 0.3787 0.85291 0.37669 0.0
C943 C 0.34005 0.92934 0.389 0.0
H944 H 0.40219 0.91166 0.33353 0.0
H945 H 0.33537 0.88423 0.32477 0.0
H946 H 0.39367 0.92479 0.3802 0.0
H947 H 0.40911 0.89912 0.37558 0.0
H948 H 0.41397 0.9241 0.36221 0.0
H949 H 0.30897 0.87851 0.34798 0.0
H950 H 0.32526 0.86253 0.36396 0.0
H951 H 0.31469 0.89019 0.36965 0.0
H952 H 0.37665 0.85027 0.41235 0.0
H953 H 0.34243 0.91359 0.42263 0.0
H954 H 0.39435 0.86003 0.37056 0.0
H955 H 0.36657 0.84901 0.36582 0.0
H956 H 0.38322 0.83673 0.3835 0.0
H957 H 0.35435 0.94032 0.38453 0.0
H958 H 0.33071 0.93837 0.39971 0.0
H959 H 0.32843 0.92709 0.37753 0.0
C960 C 0.04867 0.64394 0.98865 0.0
C961 C 0.06333 0.62697 0.99505 0.0
C962 C 0.02575 0.63894 0.98517 0.0
C963 C 0.01767 0.6166 0.98847 0.0
C964 C 0.03365 0.59867 0.99046 0.0
C965 C 0.05656 0.6041 0.99404 0.0
C966 C 0.00954 0.65836 0.9816 0.0
C967 C 0.02587 0.5743 0.99223 0.0
C968 C 0.97285 0.61924 0.02413 0.0
C969 C 0.95243 0.61826 0.01452 0.0
C970 C 0.99397 0.61757 0.01581 0.0
C971 C 0.99499 0.6144 0.99719 0.0
C972 C 0.97446 0.61177 0.98745 0.0
C973 C 0.95331 0.61389 0.99624 0.0
C974 C 0.01515 0.6204 0.0271 0.0
C975 C 0.97448 0.60751 0.96776 0.0
H976 H 0.05418 0.6616 0.98894 0.0
H977 H 0.06806 0.59083 -0.00144 0.0
H978 H 0.99608 0.65305 0.97215 0.0
H979 H 1.00114 0.66348 0.99417 0.0
H980 H 0.01857 0.67346 0.97612 0.0
H981 H 0.03962 0.56229 0.98828 0.0
H982 H 0.02142 0.5708 0.00627 0.0
H983 H 0.0105 0.5711 0.984 0.0
H984 H 0.97246 0.6219 0.03834 0.0
H985 H 0.9376 0.6127 0.98873 0.0
H986 H 0.02494 0.63551 0.02263 0.0
H987 H 0.02627 0.60519 0.02588 0.0
H988 H 0.01114 0.62275 0.04137 0.0
H989 H 0.97054 0.62367 0.96075 0.0
H990 H 0.96092 0.59509 0.96421 0.0
H991 H 0.9911 0.60095 0.96291 0.0
C992 C 0.65103 0.7019 0.23841 0.0
C993 C 0.62869 0.69536 0.24259 0.0
C994 C 0.65571 0.72473 0.23391 0.0
C995 C 0.63779 0.74089 0.23453 0.0
C996 C 0.61497 0.733 0.23442 0.0
C997 C 0.61068 0.71011 0.23849 0.0
C998 C 0.68009 0.73224 0.23165 0.0
C999 C 0.59513 0.74934 0.23358 0.0
C1000 C 0.64133 0.78522 0.27026 0.0
C1001 C 0.63686 0.8053 0.2609 0.0
C1002 C 0.64373 0.76438 0.2616 0.0
C1003 C 0.64208 0.76354 0.24284 0.0
C1004 C 0.64028 0.78421 0.23313 0.0
C1005 C 0.63751 0.80499 0.24233 0.0
C1006 C 0.6459 0.74315 0.27291 0.0
C1007 C 0.64006 0.78459 0.21317 0.0
H1008 H 0.66503 0.69029 0.24103 0.0
H1009 H 0.59332 0.70471 0.24113 0.0
H1010 H 0.68113 0.74781 0.22331 0.0
H1011 H 0.68757 0.73621 0.2448 0.0
H1012 H 0.69046 0.71846 0.22554 0.0
H1013 H 0.57869 0.74031 0.23147 0.0
H1014 H 0.594 0.75904 0.24619 0.0
H1015 H 0.5976 0.76174 0.22267 0.0
H1016 H 0.64175 0.78561 0.28463 0.0
H1017 H 0.63464 0.82063 0.235 0.0
H1018 H 0.66137 0.73342 0.2692 0.0
H1019 H 0.63086 0.732 0.27087 0.0
H1020 H 0.64705 0.74709 0.28728 0.0
H1021 H 0.64538 0.7681 0.20725 0.0
H1022 H 0.65162 0.79822 0.20828 0.0
H1023 H 0.62266 0.78889 0.20845 0.0
C1024 C 0.45309 0.36475 0.48883 0.0
C1025 C 0.44095 0.38307 0.49607 0.0
C1026 C 0.47626 0.36715 0.48467 0.0
C1027 C 0.4872 0.38811 0.48839 0.0
C1028 C 0.47371 0.40773 0.49154 0.0
C1029 C 0.45047 0.40495 0.4955 0.0
C1030 C 0.48978 0.34615 0.47994 0.0
C1031 C 0.48454 0.43076 0.4943 0.0
C1032 C 0.53374 0.37884 0.52209 0.0
C1033 C 0.55369 0.38073 0.51201 0.0
C1034 C 0.51229 0.38192 0.51456 0.0
C1035 C 0.51045 0.38716 0.49626 0.0
C1036 C 0.53052 0.38999 0.48601 0.0
C1037 C 0.55201 0.38669 0.49403 0.0
C1038 C 0.4916 0.37884 0.52632 0.0
C1039 C 0.52954 0.3957 0.46655 0.0
H1040 H 0.44552 0.34787 0.48894 0.0
H1041 H 0.44091 0.41924 0.50083 0.0
H1042 H 0.50409 0.35051 0.47095 0.0
H1043 H 0.49706 0.33862 0.4922 0.0
H1044 H 0.47885 0.33309 0.47348 0.0
H1045 H 0.4722 0.4447 0.49158 0.0
H1046 H 0.49018 0.43227 0.50829 0.0
H1047 H 0.49971 0.43291 0.48566 0.0
H1048 H 0.5348 0.37473 0.53607 0.0
H1049 H 0.56737 0.38834 0.48615 0.0
H1050 H 0.48129 0.36421 0.52156 0.0
H1051 H 0.48075 0.39432 0.52597 0.0
H1052 H 0.49622 0.37551 0.54036 0.0
H1053 H 0.53007 0.37964 0.45878 0.0
H1054 H 0.54451 0.40611 0.46258 0.0
H1055 H 0.51373 0.40503 0.46297 0.0
C1056 C 0.85902 0.30367 0.73984 0.0
C1057 C 0.88131 0.30951 0.74481 0.0
C1058 C 0.85371 0.28088 0.7356 0.0
C1059 C 0.87087 0.26401 0.73724 0.0
C1060 C 0.89396 0.27095 0.7382 0.0
C1061 C 0.89892 0.29381 0.74191 0.0
C1062 C 0.82926 0.27437 0.73218 0.0
C1063 C 0.91316 0.25381 0.73862 0.0
C1064 C 0.86308 0.21944 0.77232 0.0
C1065 C 0.86841 0.19944 0.76309 0.0
C1066 C 0.86164 0.24041 0.76368 0.0
C1067 C 0.86499 0.24143 0.74507 0.0
C1068 C 0.8673 0.22082 0.73534 0.0
C1069 C 0.86923 0.19993 0.74453 0.0
C1070 C 0.85886 0.2616 0.77496 0.0
C1071 C 0.86912 0.22064 0.71542 0.0
H1072 H 0.84536 0.31596 0.74144 0.0
H1073 H 0.91632 0.29863 0.74504 0.0
H1074 H 0.8282 0.25841 0.72429 0.0
H1075 H 0.82036 0.27156 0.74496 0.0
H1076 H 0.82021 0.28826 0.72505 0.0
H1077 H 0.93014 0.26212 0.73769 0.0
H1078 H 0.91246 0.24397 0.75118 0.0
H1079 H 0.91142 0.24161 0.72749 0.0
H1080 H 0.86156 0.21892 0.78664 0.0
H1081 H 0.87278 0.18438 0.73726 0.0
H1082 H 0.84376 0.27146 0.77061 0.0
H1083 H 0.87408 0.27271 0.7736 0.0
H1084 H 0.85666 0.25758 0.78924 0.0
H1085 H 0.8646 0.23729 0.70939 0.0
H1086 H 0.85771 0.2073 0.7099 0.0
H1087 H 0.88677 0.21602 0.71152 0.0
C1088 C 0.9711 0.39241 0.97249 0.0
C1089 C 0.95136 0.38711 0.98203 0.0
C1090 C 0.99201 0.39531 0.98097 0.0
C1091 C 0.99322 0.39333 -0.0003 0.0
C1092 C 0.97282 0.39088 0.00961 0.0
C1093 C 0.95196 0.38767 0.00061 0.0
C1094 C 0.01302 0.39828 0.96954 0.0
C1095 C 0.97311 0.39107 0.0296 0.0
C1096 C 0.0475 0.36297 0.00334 0.0
C1097 C 0.06197 0.38148 8e-05 0.0
C1098 C 0.02443 0.36655 0.00716 0.0
C1099 C 0.01603 0.38921 0.00772 0.0
C1100 C 0.03173 0.40748 0.00894 0.0
C1101 C 0.05478 0.40348 0.00475 0.0
C1102 C 0.00856 0.34628 0.00686 0.0
C1103 C 0.02361 0.43162 0.01155 0.0
H1104 H 0.97049 0.39289 0.95813 0.0
H1105 H 0.93652 0.3843 0.00805 0.0
H1106 H 0.02257 0.41373 0.97357 0.0
H1107 H 0.02447 0.38335 0.97111 0.0
H1108 H 0.00882 0.39996 0.95525 0.0
H1109 H 0.95668 0.38512 0.03529 0.0
H1110 H 0.98711 0.38036 0.03491 0.0
H1111 H 0.97623 0.40877 0.03421 0.0
H1112 H 0.05336 0.34586 0.00027 0.0
H1113 H 0.06613 0.41784 0.00273 0.0
H1114 H 1.00045 0.34502 0.9936 0.0
H1115 H 0.99483 0.34819 0.01683 0.0
H1116 H 0.01781 0.33009 0.00948 0.0
H1117 H 0.01907 0.43917 -0.00146 0.0
H1118 H 0.0372 0.44231 0.01756 0.0
H1119 H 0.00823 0.43207 0.02011 0.0
C1120 C 0.86581 0.80456 0.25222 0.0
C1121 C 0.88773 0.80993 0.24606 0.0
C1122 C 0.85993 0.78178 0.25592 0.0
C1123 C 0.87621 0.76436 0.25294 0.0
C1124 C 0.89928 0.77038 0.25 0.0
C1125 C 0.90477 0.79319 0.2466 0.0
C1126 C 0.83561 0.77611 0.26061 0.0
C1127 C 0.91753 0.7525 0.24753 0.0
C1128 C 0.86969 0.70002 0.24978 0.0
C1129 C 0.86666 0.69773 0.23144 0.0
C1130 C 0.87046 0.72183 0.25765 0.0
C1131 C 0.86856 0.74149 0.24679 0.0
C1132 C 0.86319 0.73896 0.22858 0.0
C1133 C 0.86206 0.71715 0.22126 0.0
C1134 C 0.8748 0.72358 0.27729 0.0
C1135 C 0.86077 0.75925 0.21631 0.0
H1136 H 0.85265 0.81755 0.25228 0.0
H1137 H 0.92194 0.7975 0.24244 0.0
H1138 H 0.82577 0.77285 0.24832 0.0
H1139 H 0.83475 0.76055 0.26898 0.0
H1140 H 0.82735 0.7905 0.26772 0.0
H1141 H 0.93492 0.76001 0.24764 0.0
H1142 H 0.91647 0.73946 0.25813 0.0
H1143 H 0.91495 0.74374 0.23463 0.0
H1144 H 0.87285 0.685 0.2578 0.0
H1145 H 0.85895 0.71539 0.20715 0.0
H1146 H 0.86976 0.74043 0.28272 0.0
H1147 H 0.89322 0.72086 0.27992 0.0
H1148 H 0.86533 0.71002 0.28447 0.0
H1149 H 0.84743 0.77101 0.22128 0.0
H1150 H 0.85615 0.75417 0.20259 0.0
H1151 H 0.87706 0.76885 0.21577 0.0
C1152 C 0.44915 0.61732 0.50841 0.0
C1153 C 0.44364 0.60415 0.49352 0.0
C1154 C 0.47192 0.61858 0.51424 0.0
C1155 C 0.48906 0.60736 0.50432 0.0
C1156 C 0.48261 0.59023 0.49209 0.0
C1157 C 0.45975 0.58878 0.48685 0.0
C1158 C 0.47807 0.63471 0.52901 0.0
C1159 C 0.50015 0.57652 0.48206 0.0
C1160 C 0.53243 0.64515 0.48232 0.0
C1161 C 0.553 0.63448 0.48686 0.0
C1162 C 0.51162 0.63744 0.48896 0.0
C1163 C 0.51125 0.61908 0.50123 0.0
C1164 C 0.53216 0.61002 0.50756 0.0
C1165 C 0.55287 0.6177 0.50014 0.0
C1166 C 0.49002 0.64776 0.48141 0.0
C1167 C 0.53294 0.592 0.52181 0.0
H1168 H 0.43655 0.62885 0.51392 0.0
H1169 H 0.45524 0.57814 0.47562 0.0
H1170 H 0.49383 0.629 0.53587 0.0
H1171 H 0.48118 0.65199 0.52354 0.0
H1172 H 0.46395 0.636 0.53877 0.0
H1173 H 0.49231 0.56193 0.47489 0.0
H1174 H 0.50876 0.58765 0.47221 0.0
H1175 H 0.51334 0.56983 0.49121 0.0
H1176 H 0.53232 0.65867 0.47253 0.0
H1177 H 0.56877 0.60983 0.50419 0.0
H1178 H 0.47951 0.65522 0.49213 0.0
H1179 H 0.47977 0.6344 0.47472 0.0
H1180 H 0.49351 0.66145 0.4716 0.0
H1181 H 0.53604 0.60048 0.53474 0.0
H1182 H 0.54725 0.57993 0.51948 0.0
H1183 H 0.51684 0.5822 0.52292 0.0
C1184 C 0.6065 0.20818 0.7543 0.0
C1185 C 0.62473 0.19365 0.75023 0.0
C1186 C 0.61036 0.23142 0.75738 0.0
C1187 C 0.63285 0.23997 0.75597 0.0
C1188 C 0.65134 0.22445 0.75631 0.0
C1189 C 0.64707 0.20117 0.75326 0.0
C1190 C 0.59014 0.24724 0.75846 0.0
C1191 C 0.67561 0.23283 0.75643 0.0
C1192 C 0.63489 0.2832 0.71909 0.0
C1193 C 0.63431 0.30402 0.72818 0.0
C1194 C 0.6355 0.26245 0.72807 0.0
C1195 C 0.63595 0.26228 0.74687 0.0
C1196 C 0.637 0.28324 0.75623 0.0
C1197 C 0.63602 0.30397 0.74674 0.0
C1198 C 0.63455 0.24074 0.71722 0.0
C1199 C 0.63829 0.28408 0.77616 0.0
H1200 H 0.58917 0.20213 0.75252 0.0
H1201 H 0.66126 0.18981 0.75058 0.0
H1202 H 0.59369 0.26159 0.76762 0.0
H1203 H 0.58666 0.25447 0.74513 0.0
H1204 H 0.5746 0.23814 0.76303 0.0
H1205 H 0.6873 0.21967 0.76187 0.0
H1206 H 0.68102 0.23664 0.74265 0.0
H1207 H 0.67722 0.24872 0.76435 0.0
H1208 H 0.63423 0.28299 0.70473 0.0
H1209 H 0.63592 0.32 0.7539 0.0
H1210 H 0.6189 0.23101 0.72051 0.0
H1211 H 0.64948 0.2298 0.72021 0.0
H1212 H 0.63444 0.24408 0.70273 0.0
H1213 H 0.621 0.28732 0.78158 0.0
H1214 H 0.64939 0.29838 0.78051 0.0
H1215 H 0.64487 0.26796 0.78194 0.0
C1216 C 0.3621 0.30697 0.75322 0.0
C1217 C 0.38408 0.31147 0.74677 0.0
C1218 C 0.35599 0.2846 0.7581 0.0
C1219 C 0.37193 0.26674 0.75565 0.0
C1220 C 0.39516 0.27228 0.75283 0.0
C1221 C 0.40097 0.29472 0.74849 0.0
C1222 C 0.33175 0.2797 0.76349 0.0
C1223 C 0.41328 0.25406 0.75139 0.0
C1224 C 0.36825 0.20269 0.75051 0.0
C1225 C 0.36543 0.20144 0.73209 0.0
C1226 C 0.36723 0.22393 0.75924 0.0
C1227 C 0.36398 0.24411 0.74915 0.0
C1228 C 0.35825 0.2423 0.73093 0.0
C1229 C 0.35866 0.22095 0.72279 0.0
C1230 C 0.37122 0.22463 0.77896 0.0
C1231 C 0.35431 0.26301 0.71934 0.0
H1232 H 0.34909 0.32009 0.75259 0.0
H1233 H 0.41826 0.29852 0.74433 0.0
H1234 H 0.32083 0.27841 0.75154 0.0
H1235 H 0.3305 0.26344 0.77099 0.0
H1236 H 0.32495 0.29382 0.77176 0.0
H1237 H 0.4307 0.26141 0.7504 0.0
H1238 H 0.41268 0.24274 0.76313 0.0
H1239 H 0.41016 0.24345 0.73945 0.0
H1240 H 0.37281 0.18749 0.75789 0.0
H1241 H 0.3555 0.21981 0.70866 0.0
H1242 H 0.36773 0.24167 0.78476 0.0
H1243 H 0.38911 0.21972 0.78187 0.0
H1244 H 0.36013 0.21186 0.78557 0.0
H1245 H 0.33996 0.27328 0.72454 0.0
H1246 H 0.35027 0.25839 0.70541 0.0
H1247 H 0.36975 0.27395 0.71923 0.0
C1248 C 0.14242 0.6996 0.25538 0.0
C1249 C 0.12029 0.69554 0.24906 0.0
C1250 C 0.14889 0.72182 0.26036 0.0
C1251 C 0.13314 0.73988 0.25803 0.0
C1252 C 0.10973 0.73458 0.256 0.0
C1253 C 0.10354 0.71226 0.25157 0.0
C1254 C 0.17335 0.72654 0.26518 0.0
C1255 C 0.0918 0.75301 0.25513 0.0
C1256 C 0.13883 0.80339 0.24985 0.0
C1257 C 0.14101 0.80325 0.23135 0.0
C1258 C 0.13918 0.78276 0.25947 0.0
C1259 C 0.14118 0.76178 0.25021 0.0
C1260 C 0.1461 0.76206 0.23178 0.0
C1261 C 0.14632 0.78279 0.22275 0.0
C1262 C 0.13603 0.78368 0.27927 0.0
C1263 C 0.14869 0.74046 0.22096 0.0
H1264 H 0.15534 0.68646 0.25421 0.0
H1265 H 0.08614 0.70874 0.24752 0.0
H1266 H 0.18364 0.72863 0.25296 0.0
H1267 H 0.17484 0.74241 0.27314 0.0
H1268 H 0.18065 0.71204 0.27278 0.0
H1269 H 0.07425 0.74586 0.25512 0.0
H1270 H 0.09351 0.76466 0.26661 0.0
H1271 H 0.09408 0.76321 0.24286 0.0
H1272 H 0.13543 0.8193 0.25668 0.0
H1273 H 0.14901 0.78279 0.20853 0.0
H1274 H 0.13865 0.76689 0.28574 0.0
H1275 H 0.11864 0.79 0.28238 0.0
H1276 H 0.14822 0.79612 0.28505 0.0
H1277 H 0.1628 0.72989 0.22622 0.0
H1278 H 0.15239 0.74397 0.20678 0.0
H1279 H 0.13277 0.73028 0.22159 0.0
C1280 C 0.16051 0.20154 0.73794 0.0
C1281 C 0.13757 0.19537 0.73997 0.0
C1282 C 0.16626 0.22443 0.7345 0.0
C1283 C 0.14867 0.24095 0.73398 0.0
C1284 C 0.12591 0.23358 0.7315 0.0
C1285 C 0.1206 0.21063 0.73451 0.0
C1286 C 0.19094 0.23149 0.73461 0.0
C1287 C 0.10666 0.25038 0.72919 0.0
C1288 C 0.14834 0.2835 0.77119 0.0
C1289 C 0.14534 0.30412 0.76216 0.0
C1290 C 0.15132 0.26302 0.76211 0.0
C1291 C 0.15209 0.2631 0.74329 0.0
C1292 C 0.15186 0.28425 0.73414 0.0
C1293 C 0.14827 0.30462 0.74371 0.0
C1294 C 0.15141 0.24122 0.77287 0.0
C1295 C 0.15431 0.2857 0.71429 0.0
H1296 H 0.1738 0.18955 0.74157 0.0
H1297 H 0.10285 0.20553 0.73544 0.0
H1298 H 0.19348 0.24731 0.72676 0.0
H1299 H 0.19648 0.23488 0.74842 0.0
H1300 H 0.20191 0.21771 0.72918 0.0
H1301 H 0.09057 0.24182 0.72517 0.0
H1302 H 0.1036 0.25946 0.74189 0.0
H1303 H 0.11113 0.26327 0.71903 0.0
H1304 H 0.14702 0.28312 0.78552 0.0
H1305 H 0.14661 0.32063 0.73664 0.0
H1306 H 0.16712 0.23129 0.77025 0.0
H1307 H 0.13654 0.23057 0.76919 0.0
H1308 H 0.15054 0.24442 0.78736 0.0
H1309 H 0.16849 0.2975 0.71098 0.0
H1310 H 0.13855 0.29311 0.7085 0.0
H1311 H 0.15775 0.26896 0.70799 0.0
C1312 C 0.39377 0.70789 0.24515 0.0
C1313 C 0.37604 0.69292 0.24953 0.0
C1314 C 0.3894 0.73114 0.24258 0.0
C1315 C 0.36684 0.7393 0.24465 0.0
C1316 C 0.34859 0.72349 0.24505 0.0
C1317 C 0.35341 0.70023 0.24768 0.0
C1318 C 0.40933 0.74727 0.24099 0.0
C1319 C 0.32419 0.73147 0.2457 0.0
C1320 C 0.36717 0.78494 0.27971 0.0
C1321 C 0.36808 0.805 0.26966 0.0
C1322 C 0.36524 0.7636 0.27166 0.0
C1323 C 0.36378 0.76213 0.25294 0.0
C1324 C 0.36259 0.78241 0.24274 0.0
C1325 C 0.36492 0.80371 0.25124 0.0
C1326 C 0.36631 0.7426 0.28332 0.0
C1327 C 0.36002 0.78188 0.22287 0.0
H1328 H 0.41127 0.70204 0.2461 0.0
H1329 H 0.3396 0.68855 0.25068 0.0
H1330 H 0.4054 0.7612 0.23154 0.0
H1331 H 0.41281 0.7551 0.25412 0.0
H1332 H 0.42501 0.73834 0.2365 0.0
H1333 H 0.31243 0.71805 0.24075 0.0
H1334 H 0.31948 0.73538 0.25961 0.0
H1335 H 0.32186 0.74721 0.23772 0.0
H1336 H 0.36889 0.78578 0.294 0.0
H1337 H 0.36522 0.81917 0.24336 0.0
H1338 H 0.38158 0.73231 0.27994 0.0
H1339 H 0.35106 0.73179 0.28116 0.0
H1340 H 0.36717 0.74688 0.29764 0.0
H1341 H 0.37698 0.78432 0.21665 0.0
H1342 H 0.34895 0.79612 0.21836 0.0
H1343 H 0.35271 0.76554 0.21808 0.0
C1344 C 0.44824 0.11625 0.48879 0.0
C1345 C 0.44512 0.13613 0.49888 0.0
C1346 C 0.47023 0.10976 0.48323 0.0
C1347 C 0.48927 0.123 0.48854 0.0
C1348 C 0.48555 0.14483 0.49612 0.0
C1349 C 0.46344 0.15124 0.50088 0.0
C1350 C 0.47303 0.08772 0.47319 0.0
C1351 C 0.50505 0.16021 0.50153 0.0
C1352 C 0.53672 0.09989 0.51548 0.0
C1353 C 0.55505 0.11122 0.50754 0.0
C1354 C 0.51506 0.10034 0.50779 0.0
C1355 C 0.5119 0.11214 0.49157 0.0
C1356 C 0.5313 0.11935 0.48185 0.0
C1357 C 0.55283 0.11923 0.49013 0.0
C1358 C 0.49522 0.09115 0.51839 0.0
C1359 C 0.52915 0.12937 0.46355 0.0
H1360 H 0.43401 0.10482 0.48654 0.0
H1361 H 0.4609 0.16719 0.50789 0.0
H1362 H 0.49057 0.08548 0.46794 0.0
H1363 H 0.46875 0.07312 0.48193 0.0
H1364 H 0.46082 0.08727 0.46194 0.0
H1365 H 0.49907 0.17665 0.50719 0.0
H1366 H 0.51581 0.15158 0.51161 0.0
H1367 H 0.51592 0.16406 0.48992 0.0
H1368 H 0.53877 0.09289 0.52869 0.0
H1369 H 0.56721 0.12737 0.48369 0.0
H1370 H 0.48512 0.07915 0.51022 0.0
H1371 H 0.48383 0.10535 0.52246 0.0
H1372 H 0.50083 0.08199 0.53052 0.0
H1373 H 0.51223 0.12587 0.45753 0.0
H1374 H 0.54263 0.12223 0.45482 0.0
H1375 H 0.5319 0.14808 0.46411 0.0
C1376 C 0.97258 0.88773 0.02605 0.0
C1377 C 0.95218 0.88364 0.01696 0.0
C1378 C 0.99325 0.88979 0.01707 0.0
C1379 C 0.9936 0.88818 -0.00169 0.0
C1380 C 0.97273 0.88654 0.98889 0.0
C1381 C 0.95215 0.88411 -0.00162 0.0
C1382 C 0.01485 0.89184 0.02795 0.0
C1383 C 0.97196 0.88604 0.96894 0.0
C1384 C 0.05478 0.89914 0.99068 0.0
C1385 C 0.06269 0.87714 0.99461 0.0
C1386 C 0.03137 0.90293 0.9879 0.0
C1387 C 0.01604 0.8844 0.98958 0.0
C1388 C 0.02474 0.86187 0.98947 0.0
C1389 C 0.04813 0.8585 0.99206 0.0
C1390 C 0.02276 0.92704 0.98619 0.0
C1391 C 0.00911 0.84145 0.99006 0.0
H1392 H 0.97258 0.88816 0.04042 0.0
H1393 H 0.93634 0.88139 0.99124 0.0
H1394 H 0.02588 0.87673 0.02572 0.0
H1395 H 0.02457 0.9072 0.02395 0.0
H1396 H 0.01138 0.89309 0.04239 0.0
H1397 H 0.95726 0.89622 0.96406 0.0
H1398 H 0.98782 0.89273 0.96284 0.0
H1399 H 0.9693 0.86823 0.96441 0.0
H1400 H 0.06613 0.91361 0.9922 0.0
H1401 H 0.05446 0.84141 0.99455 0.0
H1402 H 0.01935 0.9341 -0.00043 0.0
H1403 H 0.00661 0.92758 0.97851 0.0
H1404 H 0.03563 0.9381 0.97966 0.0
H1405 H 1.00141 0.84006 0.00346 0.0
H1406 H 0.01839 0.82535 0.98718 0.0
H1407 H 0.99507 0.84339 0.98035 0.0
C1408 C 0.44786 0.88496 0.49858 0.0
C1409 C 0.44737 0.87328 0.48233 0.0
C1410 C 0.46872 0.89125 0.50648 0.0
C1411 C 0.48945 0.88584 0.4978 0.0
C1412 C 0.48895 0.8733 0.48173 0.0
C1413 C 0.46804 0.86705 0.47436 0.0
C1414 C 0.46848 0.9035 0.52406 0.0
C1415 C 0.51048 0.8672 0.47173 0.0
C1416 C 0.544 0.91629 0.49305 0.0
C1417 C 0.55856 0.89825 0.49745 0.0
C1418 C 0.52053 0.91465 0.49635 0.0
C1419 C 0.51187 0.89448 0.50416 0.0
C1420 C 0.52719 0.879 0.51227 0.0
C1421 C 0.5506 0.88093 0.50862 0.0
C1422 C 0.5049 0.93224 0.48827 0.0
C1423 C 0.51862 0.85818 0.52188 0.0
H1424 H 0.43195 0.88954 0.50502 0.0
H1425 H 0.46799 0.85792 0.4619 0.0
H1426 H 0.47213 0.89102 0.53474 0.0
H1427 H 0.48179 0.91692 0.5247 0.0
H1428 H 0.45161 0.91139 0.52679 0.0
H1429 H 0.50698 0.85734 0.45946 0.0
H1430 H 0.51974 0.88296 0.46794 0.0
H1431 H 0.52193 0.85685 0.48021 0.0
H1432 H 0.55028 0.92986 0.48458 0.0
H1433 H 0.56195 0.86706 0.51222 0.0
H1434 H 0.48954 0.93488 0.49659 0.0
H1435 H 0.49919 0.92619 0.47506 0.0
H1436 H 0.51373 0.94885 0.48649 0.0
H1437 H 0.50276 0.86209 0.52931 0.0
H1438 H 0.53167 0.85151 0.53121 0.0
H1439 H 0.51469 0.84459 0.51211 0.0
C1440 C 0.03443 0.11546 0.97313 0.0
C1441 C 0.05462 0.12058 0.98217 0.0
C1442 C 0.01387 0.11272 0.98214 0.0
C1443 C 0.01348 0.11467 0.00089 0.0
C1444 C 0.03432 0.1169 0.01028 0.0
C1445 C 0.05481 0.11996 0.00075 0.0
C1446 C 0.99235 0.10997 0.97125 0.0
C1447 C 0.03489 0.11665 0.03026 0.0
C1448 C 0.95975 0.1457 0.00602 0.0
C1449 C 0.94491 0.12739 0.00305 0.0
C1450 C 0.98293 0.1418 0.00921 0.0
C1451 C 0.99106 0.11904 0.00949 0.0
C1452 C 0.97519 0.10096 0.01106 0.0
C1453 C 0.95203 0.10527 0.00747 0.0
C1454 C 0.99903 0.16187 0.00857 0.0
C1455 C 0.9831 0.07672 0.01344 0.0
H1456 H 0.03443 0.11503 0.95876 0.0
H1457 H 0.07059 0.1232 0.00779 0.0
H1458 H 0.98289 0.09455 0.97547 0.0
H1459 H 0.98107 0.12496 0.97318 0.0
H1460 H 0.99592 0.10837 0.95685 0.0
H1461 H 0.05157 0.12252 0.03553 0.0
H1462 H 0.02115 0.12738 0.03596 0.0
H1463 H 0.03191 0.09894 0.03491 0.0
H1464 H 0.95398 0.16291 0.00321 0.0
H1465 H 0.94041 0.09106 0.00573 0.0
H1466 H 0.00668 0.16305 0.99514 0.0
H1467 H 0.01309 0.15977 0.01824 0.0
H1468 H 0.99009 0.17818 0.0114 0.0
H1469 H 0.98694 0.06912 0.00031 0.0
H1470 H 0.96965 0.0662 0.01982 0.0
H1471 H 0.99886 0.07605 0.02158 0.0
C1472 C 0.1204 0.46765 0.9891 0.0
C1473 C 0.13784 0.4513 0.98971 0.0
C1474 C 0.12446 0.49053 0.99343 0.0
C1475 C 0.14669 0.49753 -0.00168 0.0
C1476 C 0.16443 0.48107 -0.00082 0.0
C1477 C 0.15976 0.45803 0.99498 0.0
C1478 C 0.10483 0.50723 0.99273 0.0
C1479 C 0.18837 0.48789 0.0042 0.0
C1480 C 0.15265 0.56216 0.99475 0.0
C1481 C 0.14653 0.56879 0.01194 0.0
C1482 C 0.15467 0.53882 0.99034 0.0
C1483 C 0.15053 0.52189 0.00344 0.0
C1484 C 0.14623 0.52871 0.02109 0.0
C1485 C 0.14426 0.55197 0.02508 0.0
C1486 C 0.15956 0.53228 0.9714 0.0
C1487 C 0.14169 0.51145 0.03553 0.0
H1488 H 0.1034 0.46254 0.98508 0.0
H1489 H 0.17336 0.44552 0.9952 0.0
H1490 H 0.10226 0.51509 0.00595 0.0
H1491 H 0.10875 0.52119 0.98329 0.0
H1492 H 0.0886 0.49903 0.9886 0.0
H1493 H 0.20017 0.47307 0.00454 0.0
H1494 H 0.19495 0.50054 0.99453 0.0
H1495 H 0.18842 0.49623 0.01739 0.0
H1496 H 0.15446 0.57505 0.98455 0.0
H1497 H 0.13986 0.55698 0.03849 0.0
H1498 H 0.14365 0.52607 0.96507 0.0
H1499 H 0.17218 0.51819 0.97085 0.0
H1500 H 0.16611 0.54693 0.96357 0.0
H1501 H 0.12472 0.50354 0.03335 0.0
H1502 H 0.14181 0.51933 0.04892 0.0
H1503 H 0.15455 0.49759 0.03521 0.0
C1504 C 0.80798 0.89967 0.25271 0.0
C1505 C 0.81468 0.88434 0.23943 0.0
C1506 C 0.78475 0.90223 0.25726 0.0
C1507 C 0.76793 0.88905 0.24841 0.0
C1508 C 0.77466 0.87395 0.23477 0.0
C1509 C 0.7978 0.87182 0.23047 0.0
C1510 C 0.77825 0.91862 0.27182 0.0
C1511 C 0.75747 0.85929 0.22511 0.0
C1512 C 0.71419 0.87068 0.27238 0.0
C1513 C 0.69719 0.88396 0.26426 0.0
C1514 C 0.73721 0.8728 0.26773 0.0
C1515 C 0.74371 0.88876 0.25464 0.0
C1516 C 0.72677 0.90263 0.24657 0.0
C1517 C 0.70363 0.89999 0.25141 0.0
C1518 C 0.7545 0.85734 0.27651 0.0
C1519 C 0.73307 0.91996 0.23264 0.0
H1520 H 0.82085 0.90958 0.25958 0.0
H1521 H 0.80268 0.85997 0.22012 0.0
H1522 H 0.76425 0.92996 0.26731 0.0
H1523 H 0.77183 0.90895 0.28343 0.0
H1524 H 0.79288 0.92929 0.27614 0.0
H1525 H 0.76525 0.8496 0.21401 0.0
H1526 H 0.74973 0.84694 0.2345 0.0
H1527 H 0.74347 0.86998 0.21976 0.0
H1528 H 0.70951 0.8582 0.28233 0.0
H1529 H 0.69066 0.91043 0.24518 0.0
H1530 H 0.76846 0.86759 0.28241 0.0
H1531 H 0.76227 0.84593 0.26645 0.0
H1532 H 0.74682 0.84661 0.28707 0.0
H1533 H 0.74696 0.93113 0.23756 0.0
H1534 H 0.71833 0.93076 0.22874 0.0
H1535 H 0.73957 0.91111 0.22067 0.0
C1536 C 0.3791 0.45849 0.50656 0.0
C1537 C 0.36124 0.4427 0.50794 0.0
C1538 C 0.37508 0.48129 0.50202 0.0
C1539 C 0.35247 0.48884 0.49903 0.0
C1540 C 0.33426 0.47292 0.50016 0.0
C1541 C 0.33888 0.44989 0.50448 0.0
C1542 C 0.39516 0.49735 0.50052 0.0
C1543 C 0.30992 0.48035 0.49728 0.0
C1544 C 0.35022 0.55371 0.50191 0.0
C1545 C 0.3542 0.55955 0.48418 0.0
C1546 C 0.34741 0.53064 0.50689 0.0
C1547 C 0.34862 0.5132 0.49383 0.0
C1548 C 0.35049 0.51938 0.47578 0.0
C1549 C 0.35325 0.54239 0.47122 0.0
C1550 C 0.34504 0.52482 0.52626 0.0
C1551 C 0.3519 0.50158 0.46135 0.0
H1552 H 0.39642 0.45297 0.50922 0.0
H1553 H 0.32501 0.43781 0.50587 0.0
H1554 H 0.39579 0.50486 0.48704 0.0
H1555 H 0.39325 0.51161 0.51007 0.0
H1556 H 0.41168 0.4887 0.50315 0.0
H1557 H 0.29781 0.4658 0.49788 0.0
H1558 H 0.30509 0.493 0.50755 0.0
H1559 H 0.30814 0.48888 0.48423 0.0
H1560 H 0.35092 0.56688 0.51198 0.0
H1561 H 0.356 0.54684 0.45743 0.0
H1562 H 0.36157 0.51827 0.53131 0.0
H1563 H 0.33214 0.51121 0.52819 0.0
H1564 H 0.34013 0.53993 0.53428 0.0
H1565 H 0.36881 0.49311 0.46192 0.0
H1566 H 0.34977 0.50914 0.44795 0.0
H1567 H 0.33874 0.48823 0.46324 0.0
C1568 C 0.79391 0.12154 0.77782 0.0
C1569 C 0.81186 0.11592 0.76627 0.0
C1570 C 0.77105 0.11939 0.7727 0.0
C1571 C 0.76572 0.11129 0.75555 0.0
C1572 C 0.78368 0.1043 0.74413 0.0
C1573 C 0.80661 0.10671 0.74962 0.0
C1574 C 0.75264 0.12722 0.78533 0.0
C1575 C 0.77871 0.09533 0.72581 0.0
C1576 C 0.70238 0.09951 0.74705 0.0
C1577 C 0.69555 0.11998 0.73904 0.0
C1578 C 0.72539 0.09593 0.75191 0.0
C1579 C 0.74175 0.11339 0.74895 0.0
C1580 C 0.73477 0.13408 0.74096 0.0
C1581 C 0.71192 0.13702 0.73605 0.0
C1582 C 0.73221 0.07355 0.76022 0.0
C1583 C 0.75136 0.15341 0.73789 0.0
H1584 H 0.79769 0.12835 0.79084 0.0
H1585 H 0.82033 0.10217 0.74068 0.0
H1586 H 0.74455 0.14296 0.7801 0.0
H1587 H 0.7391 0.11411 0.78651 0.0
H1588 H 0.75942 0.13093 0.79877 0.0
H1589 H 0.794 0.08748 0.71961 0.0
H1590 H 0.76482 0.0825 0.72626 0.0
H1591 H 0.77283 0.10954 0.71724 0.0
H1592 H 0.68988 0.08617 0.7492 0.0
H1593 H 0.70681 0.15295 0.72992 0.0
H1594 H 0.73837 0.07648 0.77393 0.0
H1595 H 0.74651 0.06585 0.75267 0.0
H1596 H 0.71785 0.06121 0.76066 0.0
H1597 H 0.75827 0.15941 0.75077 0.0
H1598 H 0.74335 0.16814 0.73103 0.0
H1599 H 0.76599 0.14742 0.72983 0.0
C1600 C 0.85289 0.54862 -0.00094 0.0
C1601 C 0.87342 0.55519 0.00708 0.0
C1602 C 0.84927 0.52577 0.99384 0.0
C1603 C 0.86678 0.50936 0.99637 0.0
C1604 C 0.88773 0.51621 0.00404 0.0
C1605 C 0.89066 0.53889 0.00944 0.0
C1606 C 0.82661 0.51908 0.98594 0.0
C1607 C 0.90714 0.49956 0.00655 0.0
C1608 C 0.85903 0.44463 0.99666 0.0
C1609 C 0.8672 0.43889 0.97978 0.0
C1610 C 0.85735 0.4677 0.00194 0.0
C1611 C 0.86413 0.4853 0.99011 0.0
C1612 C 0.87122 0.47952 0.97279 0.0
C1613 C 0.87256 0.45652 0.96786 0.0
C1614 C 0.84939 0.47318 0.02046 0.0
C1615 C 0.87883 0.49755 0.95976 0.0
H1616 H 0.83939 0.5611 0.99752 0.0
H1617 H 0.90656 0.54391 0.01565 0.0
H1618 H 0.82913 0.51184 0.9725 0.0
H1619 H 0.81861 0.50558 0.99416 0.0
H1620 H 0.81468 0.53375 0.98499 0.0
H1621 H 0.92235 0.50765 0.01267 0.0
H1622 H 0.9016 0.4852 0.0151 0.0
H1623 H 0.91221 0.49225 0.99357 0.0
H1624 H 0.85474 0.43117 0.00591 0.0
H1625 H 0.87862 0.45237 0.95468 0.0
H1626 H 0.83661 0.48714 0.02017 0.0
H1627 H 0.86405 0.4792 0.02849 0.0
H1628 H 0.84178 0.45811 0.02713 0.0
H1629 H 0.86594 0.51133 0.95878 0.0
H1630 H 0.88181 0.49046 0.94631 0.0
H1631 H 0.89493 0.50542 0.96449 0.0
C1632 C 0.20254 0.10371 0.74147 0.0
C1633 C 0.19654 0.11231 0.75814 0.0
C1634 C 0.22572 0.10085 0.73682 0.0
C1635 C 0.24309 0.10677 0.74913 0.0
C1636 C 0.23689 0.11363 0.76643 0.0
C1637 C 0.2138 0.11624 0.77069 0.0
C1638 C 0.23161 0.09308 0.71834 0.0
C1639 C 0.25463 0.12027 0.78001 0.0
C1640 C 0.30687 0.09703 0.7409 0.0
C1641 C 0.3132 0.11809 0.73362 0.0
C1642 C 0.28394 0.09268 0.74558 0.0
C1643 C 0.26722 0.10996 0.74322 0.0
C1644 C 0.27383 0.13137 0.73623 0.0
C1645 C 0.29658 0.13504 0.7314 0.0
C1646 C 0.27749 0.06954 0.75274 0.0
C1647 C 0.25688 0.15058 0.73394 0.0
H1648 H 0.18931 0.10051 0.73175 0.0
H1649 H 0.2093 0.1225 0.78375 0.0
H1650 H 0.23737 0.10794 0.71041 0.0
H1651 H 0.24582 0.08058 0.71865 0.0
H1652 H 0.21675 0.08524 0.71154 0.0
H1653 H 0.2472 0.12221 0.79347 0.0
H1654 H 0.26846 0.1074 0.7806 0.0
H1655 H 0.26247 0.13676 0.77613 0.0
H1656 H 0.31962 0.08377 0.74234 0.0
H1657 H 0.30142 0.15137 0.7258 0.0
H1658 H 0.26457 0.06157 0.74396 0.0
H1659 H 0.26961 0.0713 0.76603 0.0
H1660 H 0.29241 0.05794 0.75378 0.0
H1661 H 0.2428 0.14511 0.7251 0.0
H1662 H 0.2648 0.16616 0.72825 0.0
H1663 H 0.24924 0.15506 0.74693 0.0
C1664 C 0.64505 0.45413 0.49308 0.0
C1665 C 0.62963 0.44757 0.50634 0.0
C1666 C 0.64696 0.47722 0.48789 0.0
C1667 C 0.63294 0.49401 0.496 0.0
C1668 C 0.61734 0.48734 0.50931 0.0
C1669 C 0.61595 0.46436 0.51431 0.0
C1670 C 0.66388 0.48367 0.47371 0.0
C1671 C 0.60173 0.50445 0.51812 0.0
C1672 C 0.64406 0.55832 0.4938 0.0
C1673 C 0.62874 0.56503 0.48051 0.0
C1674 C 0.64643 0.5351 0.4985 0.0
C1675 C 0.63305 0.51828 0.48981 0.0
C1676 C 0.61787 0.52502 0.47622 0.0
C1677 C 0.61597 0.54816 0.47175 0.0
C1678 C 0.66288 0.5286 0.51301 0.0
C1679 C 0.603 0.50786 0.46675 0.0
H1680 H 0.65581 0.44132 0.48697 0.0
H1681 H 0.6039 0.45953 0.52454 0.0
H1682 H 0.65475 0.49063 0.46202 0.0
H1683 H 0.67537 0.4973 0.47865 0.0
H1684 H 0.67438 0.46892 0.46938 0.0
H1685 H 0.59105 0.49662 0.52865 0.0
H1686 H 0.61187 0.51845 0.52408 0.0
H1687 H 0.59027 0.51221 0.50809 0.0
H1688 H 0.65412 0.57117 0.50054 0.0
H1689 H 0.60409 0.55304 0.46142 0.0
H1690 H 0.67429 0.51471 0.50842 0.0
H1691 H 0.65329 0.52202 0.52461 0.0
H1692 H 0.67347 0.54327 0.51738 0.0
H1693 H 0.61356 0.49383 0.46128 0.0
H1694 H 0.5931 0.51565 0.45575 0.0
H1695 H 0.59083 0.50013 0.47628 0.0
C1696 C 0.21213 0.86707 0.23111 0.0
C1697 C 0.19602 0.88455 0.23314 0.0
C1698 C 0.23474 0.86976 0.23668 0.0
C1699 C 0.24174 0.89071 0.24424 0.0
C1700 C 0.22556 0.90854 0.24636 0.0
C1701 C 0.20273 0.90516 0.24095 0.0
C1702 C 0.25108 0.84999 0.23464 0.0
C1703 C 0.23245 0.93121 0.25415 0.0
C1704 C 0.29307 0.884 0.27418 0.0
C1705 C 0.31138 0.88884 0.26275 0.0
C1706 C 0.27038 0.88581 0.2686 0.0
C1707 C 0.26557 0.89286 0.25109 0.0
C1708 C 0.28387 0.89895 0.23968 0.0
C1709 C 0.30663 0.8968 0.24563 0.0
C1710 C 0.25159 0.87882 0.28119 0.0
C1711 C 0.27941 0.90683 0.22098 0.0
H1712 H 0.20698 0.85106 0.22511 0.0
H1713 H 0.19039 0.91883 0.24228 0.0
H1714 H 0.26592 0.85519 0.22647 0.0
H1715 H 0.25771 0.84482 0.24782 0.0
H1716 H 0.24296 0.83492 0.22834 0.0
H1717 H 0.2181 0.94357 0.25439 0.0
H1718 H 0.23879 0.92882 0.26787 0.0
H1719 H 0.24666 0.93861 0.24632 0.0
H1720 H 0.29642 0.8781 0.28755 0.0
H1721 H 0.32061 0.90077 0.23676 0.0
H1722 H 0.24342 0.86294 0.27632 0.0
H1723 H 0.23819 0.89214 0.28179 0.0
H1724 H 0.25801 0.8757 0.29483 0.0
H1725 H 0.27324 0.89227 0.21291 0.0
H1726 H 0.29499 0.91386 0.21463 0.0
H1727 H 0.26588 0.92006 0.22082 0.0
C1728 C 0.62342 0.0511 0.50367 0.0
C1729 C 0.6413 0.06549 0.50875 0.0
C1730 C 0.62722 0.02797 0.49995 0.0
C1731 C 0.64945 0.01876 0.50171 0.0
C1732 C 0.66776 0.03338 0.50645 0.0
C1733 C 0.66346 0.05667 0.50989 0.0
C1734 C 0.60721 0.01324 0.49461 0.0
C1735 C 0.69164 0.02424 0.50859 0.0
C1736 C 0.64688 0.9542 0.50743 0.0
C1737 C 0.64857 0.94708 0.48978 0.0
C1738 C 0.64908 0.97751 0.51185 0.0
C1739 C 0.65311 0.99386 0.49829 0.0
C1740 C 0.65695 0.98628 0.48076 0.0
C1741 C 0.6545 0.96305 0.47673 0.0
C1742 C 0.6451 0.98483 0.53076 0.0
C1743 C 0.66144 1.00289 0.46587 0.0
H1744 H 0.60622 0.05787 0.50315 0.0
H1745 H 0.67716 0.06767 0.51436 0.0
H1746 H 0.61072 0.00486 0.48172 0.0
H1747 H 0.60461 0.99957 0.50457 0.0
H1748 H 0.59115 0.02317 0.4934 0.0
H1749 H 0.70425 0.03804 0.51098 0.0
H1750 H 0.69215 0.01221 0.51993 0.0
H1751 H 0.69682 0.01456 0.49662 0.0
H1752 H 0.64203 0.94194 0.51751 0.0
H1753 H 0.65581 0.95754 0.46304 0.0
H1754 H 0.628 0.9928 0.53187 0.0
H1755 H 0.65787 0.99777 0.53483 0.0
H1756 H 0.64591 0.97018 0.54008 0.0
H1757 H 0.64544 0.01209 0.46261 0.0
H1758 H 0.66758 0.99415 0.45371 0.0
H1759 H 0.67424 0.01581 0.46989 0.0
C1760 C 0.2151 0.37736 0.77292 0.0
C1761 C 0.19724 0.38749 0.76329 0.0
C1762 C 0.23789 0.37933 0.76755 0.0
C1763 C 0.2433 0.39204 0.7522 0.0
C1764 C 0.22551 0.40307 0.7427 0.0
C1765 C 0.20262 0.40053 0.74828 0.0
C1766 C 0.25608 0.36687 0.77794 0.0
C1767 C 0.23062 0.41704 0.7264 0.0
C1768 C 0.3071 0.40411 0.74675 0.0
C1769 C 0.3137 0.38631 0.73543 0.0
C1770 C 0.28401 0.407 0.75164 0.0
C1771 C 0.26725 0.39152 0.7453 0.0
C1772 C 0.27389 0.37375 0.73372 0.0
C1773 C 0.29687 0.37147 0.72889 0.0
C1774 C 0.27759 0.42633 0.76385 0.0
C1775 C 0.25684 0.35652 0.7269 0.0
H1776 H 0.21128 0.36725 0.78457 0.0
H1777 H 0.18901 0.40853 0.74082 0.0
H1778 H 0.26384 0.35342 0.76954 0.0
H1779 H 0.26989 0.37878 0.78182 0.0
H1780 H 0.24922 0.35872 0.79012 0.0
H1781 H 0.21544 0.42665 0.72171 0.0
H1782 H 0.24462 0.42927 0.72914 0.0
H1783 H 0.23646 0.40565 0.71557 0.0
H1784 H 0.31991 0.41578 0.75172 0.0
H1785 H 0.30171 0.35763 0.72014 0.0
H1786 H 0.27201 0.41939 0.77681 0.0
H1787 H 0.26303 0.43604 0.75825 0.0
H1788 H 0.29203 0.43823 0.76615 0.0
H1789 H 0.24984 0.34655 0.73816 0.0
H1790 H 0.26452 0.34444 0.71725 0.0
H1791 H 0.24233 0.36532 0.72042 0.0
C1792 C 0.87262 0.95625 0.02913 0.0
C1793 C 0.86732 0.93831 0.01745 0.0
C1794 C 0.8705 0.97912 0.02409 0.0
C1795 C 0.86261 0.98453 0.00691 0.0
C1796 C 0.85588 0.96661 0.99534 0.0
C1797 C 0.85839 0.94363 0.00072 0.0
C1798 C 0.87819 0.99746 0.03685 0.0
C1799 C 0.84704 0.9717 0.977 0.0
C1800 C 0.85079 0.04805 -0.00057 0.0
C1801 C 0.87133 0.05514 0.9917 0.0
C1802 C 0.84715 0.02487 0.00374 0.0
C1803 C 0.86461 0.0086 0.00052 0.0
C1804 C 0.88536 0.01584 0.99277 0.0
C1805 C 0.88836 0.03886 0.98839 0.0
C1806 C 0.8247 0.01778 0.01179 0.0
C1807 C 0.90472 0.99934 0.98948 0.0
H1808 H 0.87921 0.95246 0.04222 0.0
H1809 H 0.85408 0.92994 0.99167 0.0
H1810 H 0.89381 0.00579 0.03165 0.0
H1811 H 0.86494 0.01085 0.03816 0.0
H1812 H 0.88202 0.99057 0.05023 0.0
H1813 H 0.8393 0.95643 0.9707 0.0
H1814 H 0.83415 0.98555 0.97747 0.0
H1815 H 0.86128 0.97771 0.96852 0.0
H1816 H 0.83744 0.06049 0.00178 0.0
H1817 H 0.90434 0.04417 0.98245 0.0
H1818 H 0.82747 0.0116 0.02551 0.0
H1819 H 0.81726 0.00344 0.00414 0.0
H1820 H 0.81222 0.03203 0.01216 0.0
H1821 H 0.91073 0.99218 0.00227 0.0
H1822 H 0.91942 0.00754 0.98274 0.0
H1823 H 0.89877 0.98487 0.98122 0.0
C1824 C 0.28944 0.62526 0.27328 0.0
C1825 C 0.30677 0.61666 0.26228 0.0
C1826 C 0.26635 0.62346 0.26865 0.0
C1827 C 0.26018 0.6128 0.25254 0.0
C1828 C 0.27747 0.60302 0.24176 0.0
C1829 C 0.3006 0.60504 0.24677 0.0
C1830 C 0.24866 0.63423 0.28056 0.0
C1831 C 0.27161 0.59142 0.22451 0.0
C1832 C 0.19623 0.60268 0.24523 0.0
C1833 C 0.19024 0.6221 0.23541 0.0
C1834 C 0.21908 0.59891 0.25048 0.0
C1835 C 0.23619 0.61504 0.24594 0.0
C1836 C 0.23011 0.6346 0.23605 0.0
C1837 C 0.20738 0.63782 0.23092 0.0
C1838 C 0.22491 0.5778 0.26096 0.0
C1839 C 0.24756 0.65249 0.23113 0.0
H1840 H 0.29393 0.634 0.28544 0.0
H1841 H 0.31382 0.5982 0.23826 0.0
H1842 H 0.24136 0.64948 0.27394 0.0
H1843 H 0.23445 0.62219 0.28306 0.0
H1844 H 0.25592 0.63961 0.2935 0.0
H1845 H 0.28638 0.58198 0.21892 0.0
H1846 H 0.25723 0.57936 0.2264 0.0
H1847 H 0.26605 0.60439 0.21472 0.0
H1848 H 0.18316 0.59037 0.24864 0.0
H1849 H 0.20302 0.65296 0.2234 0.0
H1850 H 0.23127 0.58269 0.27427 0.0
H1851 H 0.2388 0.56825 0.25427 0.0
H1852 H 0.21 0.5663 0.26261 0.0
H1853 H 0.25479 0.66023 0.24332 0.0
H1854 H 0.24021 0.66633 0.22285 0.0
H1855 H 0.26187 0.64456 0.22375 0.0
C1856 C 0.35673 0.05357 0.49444 0.0
C1857 C 0.37345 0.06095 0.50642 0.0
C1858 C 0.35441 0.03019 0.49023 0.0
C1859 C 0.36921 0.01391 0.49812 0.0
C1860 C 0.38596 0.02136 0.51029 0.0
C1861 C 0.38783 0.04464 0.51427 0.0
C1862 C 0.33634 0.02291 0.47718 0.0
C1863 C 0.40236 0.00479 0.51885 0.0
C1864 C 0.35826 0.94947 0.49755 0.0
C1865 C 0.37234 0.94251 0.48355 0.0
C1866 C 0.35635 0.97278 0.50212 0.0
C1867 C 0.36892 0.98942 0.49252 0.0
C1868 C 0.38301 0.98239 0.47834 0.0
C1869 C 0.3845 0.95918 0.47406 0.0
C1870 C 0.34114 0.97962 0.51733 0.0
C1871 C 0.397 0.99935 0.46787 0.0
H1872 H 0.34542 0.06599 0.48844 0.0
H1873 H 0.40084 0.05006 0.52357 0.0
H1874 H 0.34453 0.01576 0.46515 0.0
H1875 H 0.32563 0.00924 0.48301 0.0
H1876 H 0.32516 0.03731 0.47315 0.0
H1877 H 0.41359 0.01315 0.52877 0.0
H1878 H 0.39283 0.99087 0.5255 0.0
H1879 H 0.41326 0.99683 0.50855 0.0
H1880 H 0.34867 0.93677 0.50486 0.0
H1881 H 0.39547 0.9541 0.46319 0.0
H1882 H 0.329 0.99302 0.51299 0.0
H1883 H 0.35159 0.98699 0.52816 0.0
H1884 H 0.33133 0.96495 0.52269 0.0
H1885 H 0.38587 0.01302 0.46254 0.0
H1886 H 0.40621 0.99126 0.45666 0.0
H1887 H 0.4097 0.00759 0.47669 0.0
C1888 C 0.70416 0.60358 0.26938 0.0
C1889 C 0.68885 0.60953 0.25588 0.0
C1890 C 0.72757 0.60127 0.26605 0.0
C1891 C 0.736 0.60528 0.24877 0.0
C1892 C 0.72036 0.6096 0.23477 0.0
C1893 C 0.69686 0.61167 0.2385 0.0
C1894 C 0.74344 0.59654 0.28137 0.0
C1895 C 0.72862 0.61383 0.21613 0.0
C1896 C 0.79443 0.63294 0.24458 0.0
C1897 C 0.80825 0.61448 0.23984 0.0
C1898 C 0.77107 0.63 0.24792 0.0
C1899 C 0.7611 0.60811 0.24599 0.0
C1900 C 0.77515 0.58926 0.24156 0.0
C1901 C 0.79864 0.59267 0.2386 0.0
C1902 C 0.75691 0.65053 0.25296 0.0
C1903 C 0.76519 0.56574 0.23916 0.0
H1904 H 0.69795 0.60208 0.28287 0.0
H1905 H 0.68509 0.61667 0.22811 0.0
H1906 H 0.75617 0.58334 0.27775 0.0
H1907 H 0.75295 0.61232 0.28473 0.0
H1908 H 0.73409 0.59078 0.29337 0.0
H1909 H 0.7144 0.61361 0.2064 0.0
H1910 H 0.73707 0.63074 0.21548 0.0
H1911 H 0.74141 0.60082 0.21224 0.0
H1912 H 0.80182 0.6499 0.24508 0.0
H1913 H 0.80923 0.57854 0.23433 0.0
H1914 H 0.74773 0.64723 0.26556 0.0
H1915 H 0.74388 0.6538 0.24261 0.0
H1916 H 0.76742 0.66616 0.25459 0.0
H1917 H 0.75514 0.56078 0.251 0.0
H1918 H 0.77855 0.55264 0.23681 0.0
H1919 H 0.75334 0.56579 0.22769 0.0
C1920 C 0.11855 0.96682 0.00547 0.0
C1921 C 0.13558 0.95065 0.00184 0.0
C1922 C 0.12108 0.98978 0.00072 0.0
C1923 C 0.14134 0.99705 0.99224 0.0
C1924 C 0.15871 0.98086 0.98853 0.0
C1925 C 0.15555 0.95775 0.99325 0.0
C1926 C 0.10185 0.00621 0.0046 0.0
C1927 C 0.18061 0.98799 0.97964 0.0
C1928 C 0.1323 0.05035 0.96477 0.0
C1929 C 0.13861 0.06782 0.97655 0.0
C1930 C 0.13439 0.02728 0.96934 0.0
C1931 C 0.14317 0.02127 0.98615 0.0
C1932 C 0.1508 0.03873 -0.00222 0.0
C1933 C 0.14838 0.06187 0.99286 0.0
C1934 C 0.12581 0.0094 0.95655 0.0
C1935 C 0.16049 0.033 0.01574 0.0
H1936 H 0.103 0.96148 0.01205 0.0
H1937 H 0.16887 0.9454 0.99061 0.0
H1938 H 0.10814 0.02055 0.01285 0.0
H1939 H 0.09535 0.01359 0.99203 0.0
H1940 H 0.08742 0.99791 0.01162 0.0
H1941 H 0.19282 0.9736 0.97832 0.0
H1942 H 0.17693 0.99487 0.96625 0.0
H1943 H 0.18883 1.00185 0.98734 0.0
H1944 H 0.12498 0.05467 0.95201 0.0
H1945 H 0.15342 0.07521 0.00199 0.0
H1946 H 0.11028 1.00122 0.96205 0.0
H1947 H 0.13875 0.99581 0.95469 0.0
H1948 H 0.12152 0.0167 0.94338 0.0
H1949 H 0.14667 0.02666 0.02448 0.0
H1950 H 0.16853 0.04805 0.02216 0.0
H1951 H 0.17336 0.0192 0.0146 0.0
C1952 C 0.79546 0.3857 0.77307 0.0
C1953 C 0.81214 0.38864 0.7599 0.0
C1954 C 0.7722 0.38824 0.76935 0.0
C1955 C 0.76523 0.39366 0.75193 0.0
C1956 C 0.78203 0.3982 0.73881 0.0
C1957 C 0.8054 0.39574 0.74298 0.0
C1958 C 0.75506 0.38337 0.78381 0.0
C1959 C 0.77529 0.40413 0.72009 0.0
C1960 C 0.71015 0.36612 0.73655 0.0
C1961 C 0.69455 0.38421 0.73725 0.0
C1962 C 0.733 0.36905 0.7414 0.0
C1963 C 0.74071 0.39079 0.74695 0.0
C1964 C 0.72489 0.40906 0.74823 0.0
C1965 C 0.70186 0.40553 0.74342 0.0
C1966 C 0.74901 0.3489 0.74019 0.0
C1967 C 0.73245 0.43247 0.75407 0.0
H1968 H 0.80059 0.3806 0.78629 0.0
H1969 H 0.8182 0.3981 0.73279 0.0
H1970 H 0.74156 0.39661 0.78403 0.0
H1971 H 0.74665 0.36676 0.78117 0.0
H1972 H 0.76315 0.38257 0.79711 0.0
H1973 H 0.79003 0.41033 0.71219 0.0
H1974 H 0.76818 0.38878 0.71349 0.0
H1975 H 0.7618 0.4174 0.72007 0.0
H1976 H 0.70452 0.34963 0.7317 0.0
H1977 H 0.68994 0.41966 0.7436 0.0
H1978 H 0.75692 0.34559 0.7533 0.0
H1979 H 0.763 0.35271 0.73075 0.0
H1980 H 0.74023 0.33311 0.73576 0.0
H1981 H 0.74155 0.43144 0.76693 0.0
H1982 H 0.7179 0.44447 0.75544 0.0
H1983 H 0.74462 0.43954 0.74424 0.0
C1984 C 0.15968 0.80486 0.03461 0.0
C1985 C 0.15301 0.82002 0.02117 0.0
C1986 C 0.16229 0.78146 0.03126 0.0
C1987 C 0.15862 0.77297 0.01392 0.0
C1988 C 0.15592 0.78877 -0.00019 0.0
C1989 C 0.15277 0.81218 0.0036 0.0
C1990 C 0.16577 0.76556 0.04677 0.0
C1991 C 0.15394 0.78068 0.98092 0.0
C1992 C 0.159 0.70753 0.01383 0.0
C1993 C 0.13582 0.70313 0.01689 0.0
C1994 C 0.16679 0.73015 0.01108 0.0
C1995 C 0.15108 0.74864 0.01184 0.0
C1996 C 0.1275 0.74382 0.01348 0.0
C1997 C 0.12027 0.72127 0.01566 0.0
C1998 C 0.19193 0.7341 0.00837 0.0
C1999 C 0.10985 0.76261 0.01454 0.0
H2000 H 0.16035 0.81092 0.04818 0.0
H2001 H 0.1479 0.82375 0.99306 0.0
H2002 H 0.14981 0.75588 0.04928 0.0
H2003 H 0.1794 0.75306 0.04378 0.0
H2004 H 0.17042 0.77488 0.05907 0.0
H2005 H 0.15905 0.7943 0.97149 0.0
H2006 H 0.16468 0.76536 0.97864 0.0
H2007 H 0.13598 0.77605 0.97806 0.0
H2008 H 0.17115 0.69363 0.01457 0.0
H2009 H 0.10223 0.71795 0.01754 0.0
H2010 H 0.20074 0.73347 0.02137 0.0
H2011 H 0.19548 0.75082 0.00206 0.0
H2012 H 0.19931 0.72036 1e-05 0.0
H2013 H 0.11346 0.7738 0.02607 0.0
H2014 H 0.09223 0.75589 0.01593 0.0
H2015 H 0.11048 0.77334 0.00246 0.0
C2016 C 0.55593 0.89287 0.25878 0.0
C2017 C 0.56378 0.89458 0.27629 0.0
C2018 C 0.53258 0.89612 0.25478 0.0
C2019 C 0.51681 0.9005 0.26867 0.0
C2020 C 0.52533 0.90514 0.28587 0.0
C2021 C 0.54866 0.90233 0.28939 0.0
C2022 C 0.52453 0.89268 0.23601 0.0
C2023 C 0.5095 0.91015 0.30117 0.0
C2024 C 0.45172 0.90591 0.26842 0.0
C2025 C 0.44556 0.88356 0.27299 0.0
C2026 C 0.47482 0.91155 0.26504 0.0
C2027 C 0.49201 0.89455 0.26671 0.0
C2028 C 0.48535 0.87164 0.26974 0.0
C2029 C 0.46233 0.86649 0.27261 0.0
C2030 C 0.48079 0.93596 0.26088 0.0
C2031 C 0.50272 0.85275 0.27176 0.0
H2032 H 0.56748 0.88696 0.24855 0.0
H2033 H 0.55471 0.90391 0.30292 0.0
H2034 H 0.51939 0.87464 0.23412 0.0
H2035 H 0.50954 0.90362 0.23306 0.0
H2036 H 0.53832 0.89654 0.22638 0.0
H2037 H 0.5189 0.91535 0.31329 0.0
H2038 H 0.4974 0.92393 0.2976 0.0
H2039 H 0.49934 0.89468 0.30429 0.0
H2040 H 0.43888 0.91921 0.26862 0.0
H2041 H 0.45759 0.84911 0.27589 0.0
H2042 H 0.497 0.93727 0.25335 0.0
H2043 H 0.48267 0.94564 0.27343 0.0
H2044 H 0.46696 0.94419 0.25311 0.0
H2045 H 0.51396 0.85201 0.25998 0.0
H2046 H 0.49464 0.83575 0.27349 0.0
H2047 H 0.51365 0.85615 0.28347 0.0
C2048 C 0.33819 0.20501 0.53137 0.0
C2049 C 0.35141 0.19239 0.51937 0.0
C2050 C 0.33569 0.22877 0.52957 0.0
C2051 C 0.34704 0.24026 0.5156 0.0
C2052 C 0.35721 0.22708 0.50194 0.0
C2053 C 0.35931 0.20324 0.50399 0.0
C2054 C 0.32397 0.24185 0.54417 0.0
C2055 C 0.3689 0.23841 0.48649 0.0
C2056 C 0.34936 0.3061 0.51639 0.0
C2057 C 0.36926 0.30974 0.52638 0.0
C2058 C 0.34186 0.28365 0.51235 0.0
C2059 C 0.35455 0.2645 0.51843 0.0
C2060 C 0.37483 0.26826 0.52816 0.0
C2061 C 0.38179 0.29053 0.53195 0.0
C2062 C 0.32013 0.28053 0.50197 0.0
C2063 C 0.38927 0.24868 0.5349 0.0
H2064 H 0.33207 0.19674 0.54332 0.0
H2065 H 0.36969 0.19367 0.49471 0.0
H2066 H 0.337 0.24846 0.55353 0.0
H2067 H 0.31449 0.25665 0.53874 0.0
H2068 H 0.31197 0.23085 0.5517 0.0
H2069 H 0.37084 0.22647 0.47515 0.0
H2070 H 0.35929 0.25368 0.48204 0.0
H2071 H 0.38616 0.24407 0.49063 0.0
H2072 H 0.33954 0.32066 0.51192 0.0
H2073 H 0.39743 0.29276 0.5394 0.0
H2074 H 0.30597 0.27686 0.51129 0.0
H2075 H 0.32146 0.26593 0.49267 0.0
H2076 H 0.31567 0.29614 0.49437 0.0
H2077 H 0.37918 0.23797 0.54414 0.0
H2078 H 0.40481 0.25456 0.54197 0.0
H2079 H 0.39469 0.23769 0.5237 0.0
C2080 C 0.95095 0.11051 0.76085 0.0
C2081 C 0.94549 0.11387 0.77877 0.0
C2082 C 0.9738 0.10656 0.75559 0.0
C2083 C 0.9915 0.10674 0.76847 0.0
C2084 C 0.98551 0.1075 0.78665 0.0
C2085 C 0.96267 0.11067 0.7915 0.0
C2086 C 0.97904 0.10391 0.73616 0.0
C2087 C 0.00345 0.10758 0.80103 0.0
C2088 C 0.05631 0.10114 0.76576 0.0
C2089 C 0.06247 0.12424 0.7653 0.0
C2090 C 0.03309 0.0946 0.76454 0.0
C2091 C 0.01582 0.11161 0.76346 0.0
C2092 C 0.02239 0.13468 0.7612 0.0
C2093 C 0.04552 0.14054 0.76184 0.0
C2094 C 0.02718 0.06964 0.76566 0.0
C2095 C 0.00498 0.15365 0.76008 0.0
H2096 H 0.93781 0.11258 0.75088 0.0
H2097 H 0.9585 0.11257 0.80543 0.0
H2098 H 0.98082 0.12099 0.73 0.0
H2099 H 0.99511 0.09429 0.734 0.0
H2100 H 0.96488 0.09497 0.72926 0.0
H2101 H 0.99591 0.10766 0.81453 0.0
H2102 H 0.01454 0.09237 0.7998 0.0
H2103 H 0.01443 0.12291 0.79963 0.0
H2104 H 0.06928 0.08837 0.76828 0.0
H2105 H 0.05027 0.15841 0.76114 0.0
H2106 H 0.01003 0.066 0.76011 0.0
H2107 H 0.02752 0.06411 0.77971 0.0
H2108 H 0.04003 0.05928 0.75844 0.0
H2109 H 0.99305 0.15051 0.74897 0.0
H2110 H 0.01297 0.17064 0.75809 0.0
H2111 H 0.9948 0.15422 0.77248 0.0
C2112 C 0.11619 0.2192 0.97821 0.0
C2113 C 0.13225 0.20237 0.97389 0.0
C2114 C 0.12245 0.24214 0.98015 0.0
C2115 C 0.14559 0.24857 0.97809 0.0
C2116 C 0.16232 0.23121 0.97603 0.0
C2117 C 0.15543 0.20825 0.97368 0.0
C2118 C 0.10381 0.25971 0.9824 0.0
C2119 C 0.18733 0.23692 0.97493 0.0
C2120 C 0.14707 0.30434 0.95319 0.0
C2121 C 0.14471 0.32026 0.96698 0.0
C2122 C 0.14971 0.28098 0.95664 0.0
C2123 C 0.15087 0.2732 0.97439 0.0
C2124 C 0.15201 0.28956 0.98826 0.0
C2125 C 0.14855 0.31295 0.98444 0.0
C2126 C 0.14848 0.26449 0.94127 0.0
C2127 C 0.15498 0.28233 0.00728 0.0
H2128 H 0.09826 0.21467 0.97855 0.0
H2129 H 0.16799 0.19536 0.97038 0.0
H2130 H 0.10761 0.27098 0.9938 0.0
H2131 H 0.10284 0.27059 0.97038 0.0
H2132 H 0.08682 0.25181 0.98458 0.0
H2133 H 0.19783 0.22277 0.98035 0.0
H2134 H 0.19224 0.23926 0.96086 0.0
H2135 H 0.1914 0.25284 0.98224 0.0
H2136 H 0.14462 0.30991 0.93962 0.0
H2137 H 0.14701 0.32507 0.99521 0.0
H2138 H 0.13252 0.25437 0.94216 0.0
H2139 H 0.16298 0.25239 0.94175 0.0
H2140 H 0.14876 0.27331 0.92824 0.0
H2141 H 0.138 0.27973 0.01342 0.0
H2142 H 0.16394 0.29575 0.01499 0.0
H2143 H 0.16471 0.26614 0.0083 0.0
C2144 C 0.95874 0.91779 0.21923 0.0
C2145 C 0.94695 0.90147 0.22925 0.0
C2146 C 0.98264 0.91972 0.22029 0.0
C2147 C 0.99507 0.90435 0.23111 0.0
C2148 C 0.98292 0.89035 0.24319 0.0
C2149 C 0.95894 0.88919 0.24219 0.0
C2150 C 0.99471 0.9358 0.20784 0.0
C2151 C 0.99527 0.87395 0.25522 0.0
C2152 C 0.04338 0.87474 0.20688 0.0
C2153 C 0.06322 0.88351 0.21489 0.0
C2154 C 0.02152 0.88143 0.21216 0.0
C2155 C 0.01888 0.89781 0.22578 0.0
C2156 C 0.03868 0.90725 0.23382 0.0
C2157 C 0.06064 0.89981 0.22842 0.0
C2158 C 1.00117 0.87063 0.20309 0.0
C2159 C 0.03678 0.92487 0.24828 0.0
H2160 H 0.94961 0.92725 0.20912 0.0
H2161 H 0.94998 0.87634 0.24984 0.0
H2162 H 0.01036 0.94282 0.21407 0.0
H2163 H 0.99987 0.92639 0.19572 0.0
H2164 H 0.98345 0.95013 0.20381 0.0
H2165 H 0.98408 0.86777 0.26608 0.0
H2166 H 1.001 0.85898 0.24738 0.0
H2167 H 0.0106 0.88207 0.26106 0.0
H2168 H 0.04475 0.86215 0.19643 0.0
H2169 H 0.07569 0.90673 0.23478 0.0
H2170 H 0.99103 0.8839 0.19619 0.0
H2171 H 0.98991 0.86241 0.21303 0.0
H2172 H 0.00618 0.85754 0.19319 0.0
H2173 H 0.02239 0.93674 0.2458 0.0
H2174 H 0.05276 0.93492 0.24961 0.0
H2175 H 0.03357 0.91617 0.26109 0.0
C2176 C 0.35504 0.69654 0.48192 0.0
C2177 C 0.37589 0.69226 0.47336 0.0
C2178 C 0.34756 0.7192 0.48512 0.0
C2179 C 0.36106 0.73795 0.47937 0.0
C2180 C 0.3825 0.73356 0.47146 0.0
C2181 C 0.38963 0.71104 0.46878 0.0
C2182 C 0.32488 0.72287 0.49407 0.0
C2183 C 0.39768 0.7527 0.46498 0.0
C2184 C 0.34267 0.79473 0.46121 0.0
C2185 C 0.35417 0.80963 0.47271 0.0
C2186 C 0.34183 0.77115 0.46453 0.0
C2187 C 0.35268 0.76219 0.47978 0.0
C2188 C 0.36097 0.77759 0.4928 0.0
C2189 C 0.36182 0.8012 0.48906 0.0
C2190 C 0.3323 0.75566 0.45038 0.0
C2191 C 0.37152 0.76892 0.50972 0.0
H2192 H 0.34429 0.6823 0.48569 0.0
H2193 H 0.40604 0.70824 0.46254 0.0
H2194 H 0.32462 0.73897 0.5018 0.0
H2195 H 0.31132 0.72384 0.48385 0.0
H2196 H 0.3207 0.70844 0.50304 0.0
H2197 H 0.41387 0.74637 0.45912 0.0
H2198 H 0.38862 0.76289 0.45477 0.0
H2199 H 0.40197 0.76432 0.47608 0.0
H2200 H 0.33663 0.80117 0.44858 0.0
H2201 H 0.37078 0.81253 0.49803 0.0
H2202 H 0.32219 0.74169 0.4564 0.0
H2203 H 0.34659 0.74779 0.44291 0.0
H2204 H 0.32133 0.76508 0.44086 0.0
H2205 H 0.36217 0.75377 0.51473 0.0
H2206 H 0.37165 0.78232 0.52014 0.0
H2207 H 0.38941 0.76373 0.50714 0.0
C2208 C 0.45111 0.10133 0.72397 0.0
C2209 C 0.44631 0.12421 0.71996 0.0
C2210 C 0.47382 0.0941 0.72715 0.0
C2211 C 0.49203 0.11009 0.72603 0.0
C2212 C 0.48682 0.13343 0.72335 0.0
C2213 C 0.46419 0.14011 0.72054 0.0
C2214 C 0.47828 0.0692 0.73068 0.0
C2215 C 0.50534 0.15132 0.72203 0.0
C2216 C 0.55512 0.10854 0.73671 0.0
C2217 C 0.56414 0.1076 0.71951 0.0
C2218 C 0.53144 0.10591 0.73961 0.0
C2219 C 0.51657 0.10285 0.72494 0.0
C2220 C 0.52615 0.09867 0.70801 0.0
C2221 C 0.54977 0.10094 0.70556 0.0
C2222 C 0.52214 0.10894 0.75807 0.0
C2223 C 0.51125 0.09498 0.69195 0.0
H2224 H 0.43742 0.08891 0.72365 0.0
H2225 H 0.46059 0.15793 0.71783 0.0
H2226 H 0.48044 0.06014 0.71788 0.0
H2227 H 0.49395 0.06665 0.73867 0.0
H2228 H 0.46363 0.06127 0.73769 0.0
H2229 H 0.49834 0.16881 0.72038 0.0
H2230 H 0.51613 0.1511 0.73408 0.0
H2231 H 0.51652 0.14757 0.71053 0.0
H2232 H 0.56606 0.11362 0.7476 0.0
H2233 H 0.5567 0.09999 0.69225 0.0
H2234 H 0.5069 0.09805 0.76019 0.0
H2235 H 0.51694 0.12697 0.75999 0.0
H2236 H 0.5352 0.10474 0.76822 0.0
H2237 H 0.49788 0.08214 0.69479 0.0
H2238 H 0.52124 0.08921 0.68027 0.0
H2239 H 0.50258 0.11122 0.68848 0.0
C2240 C 0.89046 0.28639 0.97675 0.0
C2241 C 0.87456 0.30421 0.97546 0.0
C2242 C 0.88366 0.26379 0.97956 0.0
C2243 C 0.86021 0.25864 0.9817 0.0
C2244 C 0.84424 0.27689 0.98242 0.0
C2245 C 0.85157 0.29953 0.97908 0.0
C2246 C 0.90155 0.24524 0.97856 0.0
C2247 C 0.81925 0.27259 0.9856 0.0
C2248 C 0.8513 0.20161 0.96002 0.0
C2249 C 0.85786 0.18679 0.97371 0.0
C2250 C 0.849 0.22515 0.96293 0.0
C2251 C 0.85293 0.23415 0.98008 0.0
C2252 C 0.85575 0.21879 0.99447 0.0
C2253 C 0.85852 0.19522 0.9911 0.0
C2254 C 0.84549 0.24058 0.94714 0.0
C2255 C 0.85823 0.22745 0.01316 0.0
H2256 H 0.90834 0.28995 0.97431 0.0
H2257 H 0.83915 0.31318 0.97821 0.0
H2258 H 0.90105 0.23452 0.99064 0.0
H2259 H 0.89806 0.23398 0.96704 0.0
H2260 H 0.91908 0.2522 0.97714 0.0
H2261 H 0.81157 0.28687 0.99322 0.0
H2262 H 0.81025 0.27166 0.97269 0.0
H2263 H 0.81629 0.2564 0.99288 0.0
H2264 H 0.85047 0.19513 0.94657 0.0
H2265 H 0.86344 0.18392 0.00181 0.0
H2266 H 0.86155 0.24991 0.94428 0.0
H2267 H 0.83212 0.25341 0.95 0.0
H2268 H 0.84049 0.23093 0.93508 0.0
H2269 H 0.87625 0.23223 0.01563 0.0
H2270 H 0.85342 0.21412 0.02294 0.0
H2271 H 0.84752 0.24281 0.01535 0.0
C2272 C 0.64843 0.81051 0.48122 0.0
C2273 C 0.62716 0.81557 0.4736 0.0
C2274 C 0.65546 0.78758 0.48374 0.0
C2275 C 0.64101 0.76938 0.47832 0.0
C2276 C 0.61915 0.77457 0.47145 0.0
C2277 C 0.61253 0.79734 0.46938 0.0
C2278 C 0.67867 0.783 0.49154 0.0
C2279 C 0.60292 0.75605 0.46544 0.0
C2280 C 0.6558 0.7125 0.45857 0.0
C2281 C 0.64493 0.69774 0.47053 0.0
C2282 C 0.65782 0.73594 0.46213 0.0
C2283 C 0.64866 0.74492 0.47804 0.0
C2284 C 0.64102 0.72954 0.4913 0.0
C2285 C 0.63908 0.70606 0.48735 0.0
C2286 C 0.66665 0.75141 0.4477 0.0
C2287 C 0.63216 0.73818 0.5088 0.0
H2288 H 0.65985 0.82435 0.48467 0.0
H2289 H 0.5958 0.80083 0.4639 0.0
H2290 H 0.67888 0.76692 0.4993 0.0
H2291 H 0.69129 0.78137 0.48067 0.0
H2292 H 0.68421 0.79726 0.50023 0.0
H2293 H 0.58644 0.76298 0.46057 0.0
H2294 H 0.6108 0.74599 0.45459 0.0
H2295 H 0.5993 0.74417 0.47652 0.0
H2296 H 0.66042 0.70613 0.44556 0.0
H2297 H 0.6306 0.69481 0.49667 0.0
H2298 H 0.67751 0.76507 0.45335 0.0
H2299 H 0.65202 0.7597 0.44094 0.0
H2300 H 0.67666 0.74187 0.43765 0.0
H2301 H 0.64236 0.75293 0.5135 0.0
H2302 H 0.63244 0.72459 0.51905 0.0
H2303 H 0.61427 0.74398 0.50715 0.0
C2304 C 0.86238 0.69348 0.01237 0.0
C2305 C 0.86102 0.6856 0.0299 0.0
C2306 C 0.85974 0.71696 0.00847 0.0
C2307 C 0.85633 0.73282 0.02247 0.0
C2308 C 0.85207 0.7244 0.03974 0.0
C2309 C 0.8542 0.70097 0.04316 0.0
C2310 C 0.86263 0.72494 0.98963 0.0
C2311 C 0.84805 0.74034 0.05515 0.0
C2312 C 0.89191 0.78643 0.02539 0.0
C2313 C 0.87537 0.80371 0.0262 0.0
C2314 C 0.88601 0.76354 0.02277 0.0
C2315 C 0.86282 0.75749 0.02038 0.0
C2316 C 0.84623 0.77515 0.01916 0.0
C2317 C 0.85266 0.79812 0.0223 0.0
C2318 C 0.90451 0.74567 0.02431 0.0
C2319 C 0.8215 0.76986 0.01567 0.0
H2320 H 0.86741 0.68177 0.00196 0.0
H2321 H 0.85265 0.69493 0.05669 0.0
H2322 H 0.85205 0.74027 0.98697 0.0
H2323 H 0.88073 0.72951 0.98728 0.0
H2324 H 0.85793 0.7113 0.98009 0.0
H2325 H 0.84329 0.73106 0.06744 0.0
H2326 H 0.8638 0.75029 0.05781 0.0
H2327 H 0.8343 0.75263 0.05195 0.0
H2328 H 0.90959 0.79069 0.02805 0.0
H2329 H 0.83974 0.81134 0.02278 0.0
H2330 H 0.90453 0.7345 0.01247 0.0
H2331 H 0.90124 0.73472 0.03604 0.0
H2332 H 0.92176 0.75328 0.02571 0.0
H2333 H 0.81936 0.75352 0.00843 0.0
H2334 H 0.81344 0.78377 0.00787 0.0
H2335 H 0.81226 0.76865 0.02845 0.0
C2336 C 0.65921 0.30113 0.5319 0.0
C2337 C 0.64661 0.3151 0.52039 0.0
C2338 C 0.66009 0.27735 0.52954 0.0
C2339 C 0.64804 0.26722 0.5153 0.0
C2340 C 0.63839 0.2816 0.50214 0.0
C2341 C 0.63763 0.30544 0.50489 0.0
C2342 C 0.67106 0.26297 0.54375 0.0
C2343 C 0.62628 0.27167 0.4863 0.0
C2344 C 0.64594 0.20149 0.51507 0.0
C2345 C 0.62603 0.19749 0.52496 0.0
C2346 C 0.65305 0.22403 0.51101 0.0
C2347 C 0.64008 0.24296 0.51713 0.0
C2348 C 0.61959 0.23884 0.52652 0.0
C2349 C 0.61286 0.21642 0.53015 0.0
C2350 C 0.67477 0.22745 0.50068 0.0
C2351 C 0.60498 0.2582 0.5334 0.0
H2352 H 0.66619 0.3085 0.54392 0.0
H2353 H 0.62776 0.31604 0.49597 0.0
H2354 H 0.6576 0.25583 0.55248 0.0
H2355 H 0.68049 0.24846 0.53783 0.0
H2356 H 0.68299 0.27308 0.55206 0.0
H2357 H 0.62484 0.28432 0.4754 0.0
H2358 H 0.63533 0.25632 0.48134 0.0
H2359 H 0.60882 0.26642 0.49022 0.0
H2360 H 0.65623 0.18712 0.51086 0.0
H2361 H 0.59717 0.21383 0.53747 0.0
H2362 H 0.68911 0.22999 0.51006 0.0
H2363 H 0.67374 0.24273 0.49204 0.0
H2364 H 0.67876 0.21232 0.49239 0.0
H2365 H 0.61495 0.26879 0.5428 0.0
H2366 H 0.58943 0.25207 0.54032 0.0
H2367 H 0.59961 0.26937 0.5223 0.0
C2368 C 0.95234 0.39474 0.75665 0.0
C2369 C 0.9446 0.39421 0.77424 0.0
C2370 C 0.97576 0.39781 0.75283 0.0
C2371 C 0.99171 0.39974 0.76693 0.0
C2372 C 0.98341 0.40221 0.78445 0.0
C2373 C 0.96001 0.39966 0.78782 0.0
C2374 C 0.98361 0.39682 0.73384 0.0
C2375 C 0.99945 0.40462 0.8 0.0
C2376 C 0.04527 0.36388 0.76757 0.0
C2377 C 0.06252 0.38031 0.76939 0.0
C2378 C 0.02238 0.37005 0.76531 0.0
C2379 C 0.01633 0.39342 0.76434 0.0
C2380 C 0.03399 0.41007 0.76406 0.0
C2381 C 0.05694 0.40335 0.76682 0.0
C2382 C 0.0045 0.35147 0.76579 0.0
C2383 C 0.02869 0.43508 0.76206 0.0
H2384 H 0.94059 0.3907 0.74601 0.0
H2385 H 0.95407 0.39962 0.80144 0.0
H2386 H 0.99895 0.4076 0.73177 0.0
H2387 H 0.98812 0.379 0.73037 0.0
H2388 H 0.96992 0.40251 0.72467 0.0
H2389 H 0.99026 0.40825 0.81256 0.0
H2390 H 0.00927 0.38857 0.8017 0.0
H2391 H 0.01183 0.41854 0.79758 0.0
H2392 H 0.04953 0.34601 0.76928 0.0
H2393 H 0.07012 0.41619 0.76814 0.0
H2394 H 0.9932 0.35271 0.75406 0.0
H2395 H 0.9937 0.35351 0.77777 0.0
H2396 H 0.01211 0.33411 0.76603 0.0
H2397 H 0.0124 0.43793 0.75489 0.0
H2398 H 0.04263 0.44393 0.75484 0.0
H2399 H 0.02735 0.443 0.77536 0.0
C2400 C 0.45337 0.59294 0.28378 0.0
C2401 C 0.43951 0.60449 0.27157 0.0
C2402 C 0.47699 0.59083 0.28105 0.0
C2403 C 0.48707 0.60083 0.26586 0.0
C2404 C 0.47263 0.60925 0.25224 0.0
C2405 C 0.44894 0.61107 0.25528 0.0
C2406 C 0.49145 0.58109 0.29574 0.0
C2407 C 0.48246 0.61932 0.23553 0.0
C2408 C 0.53805 0.6374 0.27778 0.0
C2409 C 0.55689 0.62388 0.27299 0.0
C2410 C 0.5156 0.63024 0.275 0.0
C2411 C 0.51135 0.60885 0.26696 0.0
C2412 C 0.53016 0.59537 0.26128 0.0
C2413 C 0.55277 0.60302 0.2644 0.0
C2414 C 0.49639 0.6455 0.28125 0.0
C2415 C 0.52653 0.57259 0.25247 0.0
H2416 H 0.44615 0.58785 0.29641 0.0
H2417 H 0.43839 0.62015 0.24582 0.0
H2418 H 0.50585 0.57104 0.29028 0.0
H2419 H 0.49872 0.59527 0.30369 0.0
H2420 H 0.48131 0.57001 0.30472 0.0
H2421 H 0.46962 0.61973 0.22471 0.0
H2422 H 0.48804 0.63708 0.23818 0.0
H2423 H 0.49756 0.60948 0.23104 0.0
H2424 H 0.54077 0.65383 0.28402 0.0
H2425 H 0.5671 0.59247 0.26052 0.0
H2426 H 0.48616 0.63659 0.2915 0.0
H2427 H 0.48485 0.64961 0.27006 0.0
H2428 H 0.50264 0.66179 0.28699 0.0
H2429 H 0.52386 0.5594 0.2628 0.0
H2430 H 0.54158 0.56753 0.24445 0.0
H2431 H 0.51122 0.5728 0.24383 0.0
C2432 C 0.45688 0.41598 0.71808 0.0
C2433 C 0.44693 0.39696 0.72626 0.0
C2434 C 0.48063 0.41967 0.71897 0.0
C2435 C 0.49478 0.40328 0.72738 0.0
C2436 C 0.4844 0.38581 0.73755 0.0
C2437 C 0.46058 0.38303 0.73701 0.0
C2438 C 0.4908 0.43955 0.70909 0.0
C2439 C 0.49857 0.36802 0.7469 0.0
C2440 C 0.54532 0.38318 0.70018 0.0
C2441 C 0.56433 0.38925 0.71056 0.0
C2442 C 0.52297 0.38808 0.70545 0.0
C2443 C 0.51902 0.40029 0.72134 0.0
C2444 C 0.53806 0.40782 0.73145 0.0
C2445 C 0.56049 0.40188 0.72611 0.0
C2446 C 0.50351 0.37917 0.69422 0.0
C2447 C 0.53498 0.42154 0.74817 0.0
H2448 H 0.44648 0.42672 0.70962 0.0
H2449 H 0.45299 0.36813 0.74316 0.0
H2450 H 0.50609 0.44616 0.71609 0.0
H2451 H 0.49617 0.43394 0.69568 0.0
H2452 H 0.47823 0.45358 0.70752 0.0
H2453 H 0.48815 0.35736 0.75599 0.0
H2454 H 0.50662 0.35667 0.73692 0.0
H2455 H 0.51241 0.37619 0.75462 0.0
H2456 H 0.5477 0.37365 0.68802 0.0
H2457 H 0.57488 0.40684 0.73426 0.0
H2458 H 0.49327 0.39359 0.68903 0.0
H2459 H 0.49204 0.36835 0.70235 0.0
H2460 H 0.50951 0.3689 0.68276 0.0
H2461 H 0.51875 0.43127 0.74814 0.0
H2462 H 0.54937 0.43364 0.74999 0.0
H2463 H 0.53493 0.40984 0.75972 0.0
C2464 C 0.95483 0.63249 0.22726 0.0
C2465 C 0.9396 0.61522 0.22233 0.0
C2466 C 0.97827 0.62825 0.22901 0.0
C2467 C 0.98685 0.60599 0.22592 0.0
C2468 C 0.97115 0.5879 0.223 0.0
C2469 C 0.94767 0.59277 0.22094 0.0
C2470 C 0.99405 0.6482 0.23219 0.0
C2471 C 0.97928 0.56369 0.22067 0.0
C2472 C 0.04247 0.61037 0.2009 0.0
C2473 C 0.05844 0.61231 0.2147 0.0
C2474 C 0.01932 0.60636 0.2043 0.0
C2475 C 0.01181 0.60323 0.22198 0.0
C2476 C 0.02834 0.60191 0.23572 0.0
C2477 C 0.05149 0.60684 0.23198 0.0
C2478 C 1.00263 0.60812 0.18908 0.0
C2479 C 0.02148 0.59711 0.25459 0.0
H2480 H 0.94861 0.64988 0.22827 0.0
H2481 H 0.936 0.57936 0.217 0.0
H2482 H 0.00598 0.64437 0.24318 0.0
H2483 H 0.0044 0.65138 0.22013 0.0
H2484 H 0.98461 0.66408 0.2355 0.0
H2485 H 0.9657 0.55132 0.22427 0.0
H2486 H 0.98384 0.56076 0.2066 0.0
H2487 H 0.99462 0.56026 0.22887 0.0
H2488 H 0.04777 0.61412 0.18744 0.0
H2489 H 0.06365 0.60811 0.24276 0.0
H2490 H 0.99166 0.62338 0.19092 0.0
H2491 H 0.99134 0.59299 0.18874 0.0
H2492 H 0.01132 0.60958 0.17605 0.0
H2493 H 0.01795 0.61344 0.26149 0.0
H2494 H 0.03547 0.58839 0.26186 0.0
H2495 H 0.0059 0.58639 0.25524 0.0
loop_
_geom_bond_atom_site_label_1
_geom_bond_atom_site_label_2
_geom_bond_distance
_geom_bond_site_symmetry_2
_ccdc_geom_bond_type
Co0 O1 2.216 . S
Co0 O2 2.091 . S
Co0 O4 2.004 . S
Co0 O10 2.021 . S
Co0 O12 2.137 . S
Co0 O13 2.244 . S
O1 Co0 2.216 . S
O1 C8 1.247 . S
O2 Co0 2.091 . S
O2 C8 1.261 . S
C3 O12 1.247 . S
C3 O13 1.272 . S
O4 Co0 2.004 . S
O4 C9 1.259 . S
Co5 O6 2.061 . S
Co5 O11 2.052 . S
Co5 O13 2.135 . S
O6 Co5 2.061 . S
O6 C9 1.235 . S
C7 O10 1.238 . S
C7 O11 1.241 . S
C8 O1 1.247 . S
C8 O2 1.261 . S
C9 O4 1.259 . S
C9 O6 1.235 . S
O10 Co0 2.021 . S
O10 C7 1.238 . S
O11 Co5 2.052 . S
O11 C7 1.241 . S
O12 Co0 2.137 . S
O12 C3 1.247 . S
O13 Co0 2.244 . S
O13 C3 1.272 . S
O13 Co5 2.135 . S
Co14 O15 2.216 . S
Co14 O16 2.091 . S
Co14 O18 2.004 . S
Co14 O24 2.021 . S
Co14 O26 2.137 . S
Co14 O27 2.244 . S
O15 Co14 2.216 . S
O15 C22 1.247 . S
O16 Co14 2.091 . S
O16 C22 1.261 . S
C17 O26 1.247 . S
C17 O27 1.272 . S
O18 Co14 2.004 . S
O18 C23 1.259 . S
Co19 O20 2.061 . S
Co19 O25 2.052 . S
Co19 O27 2.135 . S
O20 Co19 2.061 . S
O20 C23 1.235 . S
C21 O24 1.238 . S
C21 O25 1.241 . S
C22 O15 1.247 . S
C22 O16 1.261 . S
C23 O18 1.259 . S
C23 O20 1.235 . S
O24 Co14 2.021 . S
O24 C21 1.238 . S
O25 Co19 2.052 . S
O25 C21 1.241 . S
O26 Co14 2.137 . S
O26 C17 1.247 . S
O27 Co14 2.244 . S
O27 C17 1.272 . S
O27 Co19 2.135 . S
Co28 O29 2.216 . S
Co28 O30 2.091 . S
Co28 O32 2.004 . S
Co28 O38 2.021 . S
Co28 O40 2.137 . S
Co28 O41 2.244 . S
O29 Co28 2.216 . S
O29 C36 1.247 . S
O30 Co28 2.091 . S
O30 C36 1.261 . S
C31 O40 1.247 . S
C31 O41 1.272 . S
O32 Co28 2.004 . S
O32 C37 1.259 . S
Co33 O34 2.061 . S
Co33 O39 2.052 . S
Co33 O41 2.135 . S
O34 Co33 2.061 . S
O34 C37 1.235 . S
C35 O38 1.238 . S
C35 O39 1.241 . S
C36 O29 1.247 . S
C36 O30 1.261 . S
C37 O32 1.259 . S
C37 O34 1.235 . S
O38 Co28 2.021 . S
O38 C35 1.238 . S
O39 Co33 2.052 . S
O39 C35 1.241 . S
O40 Co28 2.137 . S
O40 C31 1.247 . S
O41 Co28 2.244 . S
O41 C31 1.272 . S
O41 Co33 2.135 . S
Co42 O43 2.216 . S
Co42 O44 2.091 . S
Co42 O46 2.004 . S
Co42 O52 2.021 . S
Co42 O54 2.137 . S
Co42 O55 2.244 . S
O43 Co42 2.216 . S
O43 C50 1.247 . S
O44 Co42 2.091 . S
O44 C50 1.261 . S
C45 O54 1.247 . S
C45 O55 1.272 . S
O46 Co42 2.004 . S
O46 C51 1.259 . S
Co47 O48 2.061 . S
Co47 O53 2.052 . S
Co47 O55 2.135 . S
O48 Co47 2.061 . S
O48 C51 1.235 . S
C49 O52 1.238 . S
C49 O53 1.241 . S
C50 O43 1.247 . S
C50 O44 1.261 . S
C51 O46 1.259 . S
C51 O48 1.235 . S
O52 Co42 2.021 . S
O52 C49 1.238 . S
O53 Co47 2.052 . S
O53 C49 1.241 . S
O54 Co42 2.137 . S
O54 C45 1.247 . S
O55 Co42 2.244 . S
O55 C45 1.272 . S
O55 Co47 2.135 . S
Co56 O57 2.216 . S
Co56 O58 2.091 . S
Co56 O60 2.004 . S
Co56 O66 2.021 . S
Co56 O68 2.137 . S
Co56 O69 2.244 . S
O57 Co56 2.216 . S
O57 C64 1.247 . S
O58 Co56 2.091 . S
O58 C64 1.261 . S
C59 O68 1.247 . S
C59 O69 1.272 . S
O60 Co56 2.004 . S
O60 C65 1.259 . S
Co61 O62 2.061 . S
Co61 O67 2.052 . S
Co61 O69 2.135 . S
O62 Co61 2.061 . S
O62 C65 1.235 . S
C63 O66 1.238 . S
C63 O67 1.241 . S
C64 O57 1.247 . S
C64 O58 1.261 . S
C65 O60 1.259 . S
C65 O62 1.235 . S
O66 Co56 2.021 . S
O66 C63 1.238 . S
O67 Co61 2.052 . S
O67 C63 1.241 . S
O68 Co56 2.137 . S
O68 C59 1.247 . S
O69 Co56 2.244 . S
O69 C59 1.272 . S
O69 Co61 2.135 . S
Co70 O71 2.216 . S
Co70 O72 2.091 . S
Co70 O74 2.004 . S
Co70 O80 2.021 . S
Co70 O82 2.137 . S
Co70 O83 2.244 . S
O71 Co70 2.216 . S
O71 C78 1.247 . S
O72 Co70 2.091 . S
O72 C78 1.261 . S
C73 O82 1.247 . S
C73 O83 1.272 . S
O74 Co70 2.004 . S
O74 C79 1.259 . S
Co75 O76 2.061 . S
Co75 O81 2.052 . S
Co75 O83 2.135 . S
O76 Co75 2.061 . S
O76 C79 1.235 . S
C77 O80 1.238 . S
C77 O81 1.241 . S
C78 O71 1.247 . S
C78 O72 1.261 . S
C79 O74 1.259 . S
C79 O76 1.235 . S
O80 Co70 2.021 . S
O80 C77 1.238 . S
O81 Co75 2.052 . S
O81 C77 1.241 . S
O82 Co70 2.137 . S
O82 C73 1.247 . S
O83 Co70 2.244 . S
O83 C73 1.272 . S
O83 Co75 2.135 . S
Co84 O85 2.216 . S
Co84 O86 2.091 . S
Co84 O88 2.004 . S
Co84 O94 2.021 . S
Co84 O96 2.137 . S
Co84 O97 2.244 . S
O85 Co84 2.216 . S
O85 C92 1.247 . S
O86 Co84 2.091 . S
O86 C92 1.261 . S
C87 O96 1.247 . S
C87 O97 1.272 . S
O88 Co84 2.004 . S
O88 C93 1.259 . S
Co89 O90 2.061 . S
Co89 O95 2.052 . S
Co89 O97 2.135 . S
O90 Co89 2.061 . S
O90 C93 1.235 . S
C91 O94 1.238 . S
C91 O95 1.241 . S
C92 O85 1.247 . S
C92 O86 1.261 . S
C93 O88 1.259 . S
C93 O90 1.235 . S
O94 Co84 2.021 . S
O94 C91 1.238 . S
O95 Co89 2.052 . S
O95 C91 1.241 . S
O96 Co84 2.137 . S
O96 C87 1.247 . S
O97 Co84 2.244 . S
O97 C87 1.272 . S
O97 Co89 2.135 . S
Co98 O99 2.216 . S
Co98 O100 2.091 . S
Co98 O102 2.004 . S
Co98 O108 2.021 . S
Co98 O110 2.137 . S
Co98 O111 2.244 . S
O99 Co98 2.216 . S
O99 C106 1.247 . S
O100 Co98 2.091 . S
O100 C106 1.261 . S
C101 O110 1.247 . S
C101 O111 1.272 . S
O102 Co98 2.004 . S
O102 C107 1.259 . S
Co103 O104 2.061 . S
Co103 O109 2.052 . S
Co103 O111 2.135 . S
O104 Co103 2.061 . S
O104 C107 1.235 . S
C105 O108 1.238 . S
C105 O109 1.241 . S
C106 O99 1.247 . S
C106 O100 1.261 . S
C107 O102 1.259 . S
C107 O104 1.235 . S
O108 Co98 2.021 . S
O108 C105 1.238 . S
O109 Co103 2.052 . S
O109 C105 1.241 . S
O110 Co98 2.137 . S
O110 C101 1.247 . S
O111 Co98 2.244 . S
O111 C101 1.272 . S
O111 Co103 2.135 . S
Co112 O113 2.216 . S
Co112 O114 2.091 . S
Co112 O116 2.004 . S
Co112 O122 2.021 . S
Co112 O124 2.137 . S
Co112 O125 2.244 . S
O113 Co112 2.216 . S
O113 C120 1.247 . S
O114 Co112 2.091 . S
O114 C120 1.261 . S
C115 O124 1.247 . S
C115 O125 1.272 . S
O116 Co112 2.004 . S
O116 C121 1.259 . S
Co117 O118 2.061 . S
Co117 O123 2.052 . S
Co117 O125 2.135 . S
O118 Co117 2.061 . S
O118 C121 1.235 . S
C119 O122 1.238 . S
C119 O123 1.241 . S
C120 O113 1.247 . S
C120 O114 1.261 . S
C121 O116 1.259 . S
C121 O118 1.235 . S
O122 Co112 2.021 . S
O122 C119 1.238 . S
O123 Co117 2.052 . S
O123 C119 1.241 . S
O124 Co112 2.137 . S
O124 C115 1.247 . S
O125 Co112 2.244 . S
O125 C115 1.272 . S
O125 Co117 2.135 . S
Co126 O127 2.216 . S
Co126 O128 2.091 . S
Co126 O130 2.004 . S
Co126 O136 2.021 . S
Co126 O138 2.137 . S
Co126 O139 2.244 . S
O127 Co126 2.216 . S
O127 C134 1.247 . S
O128 Co126 2.091 . S
O128 C134 1.261 . S
C129 O138 1.247 . S
C129 O139 1.272 . S
O130 Co126 2.004 . S
O130 C135 1.259 . S
Co131 O132 2.061 . S
Co131 O137 2.052 . S
Co131 O139 2.135 . S
O132 Co131 2.061 . S
O132 C135 1.235 . S
C133 O136 1.238 . S
C133 O137 1.241 . S
C134 O127 1.247 . S
C134 O128 1.261 . S
C135 O130 1.259 . S
C135 O132 1.235 . S
O136 Co126 2.021 . S
O136 C133 1.238 . S
O137 Co131 2.052 . S
O137 C133 1.241 . S
O138 Co126 2.137 . S
O138 C129 1.247 . S
O139 Co126 2.244 . S
O139 C129 1.272 . S
O139 Co131 2.135 . S
Co140 O141 2.216 . S
Co140 O142 2.091 . S
Co140 O144 2.004 . S
Co140 O150 2.021 . S
Co140 O152 2.137 . S
Co140 O153 2.244 . S
O141 Co140 2.216 . S
O141 C148 1.247 . S
O142 Co140 2.091 . S
O142 C148 1.261 . S
C143 O152 1.247 . S
C143 O153 1.272 . S
O144 Co140 2.004 . S
O144 C149 1.259 . S
Co145 O146 2.061 . S
Co145 O151 2.052 . S
Co145 O153 2.135 . S
O146 Co145 2.061 . S
O146 C149 1.235 . S
C147 O150 1.238 . S
C147 O151 1.241 . S
C148 O141 1.247 . S
C148 O142 1.261 . S
C149 O144 1.259 . S
C149 O146 1.235 . S
O150 Co140 2.021 . S
O150 C147 1.238 . S
O151 Co145 2.052 . S
O151 C147 1.241 . S
O152 Co140 2.137 . S
O152 C143 1.247 . S
O153 Co140 2.244 . S
O153 C143 1.272 . S
O153 Co145 2.135 . S
Co154 O155 2.216 . S
Co154 O156 2.091 . S
Co154 O158 2.004 . S
Co154 O164 2.021 . S
Co154 O166 2.137 . S
Co154 O167 2.244 . S
O155 Co154 2.216 . S
O155 C162 1.247 . S
O156 Co154 2.091 . S
O156 C162 1.261 . S
C157 O166 1.247 . S
C157 O167 1.272 . S
O158 Co154 2.004 . S
O158 C163 1.259 . S
Co159 O160 2.061 . S
Co159 O165 2.052 . S
Co159 O167 2.135 . S
O160 Co159 2.061 . S
O160 C163 1.235 . S
C161 O164 1.238 . S
C161 O165 1.241 . S
C162 O155 1.247 . S
C162 O156 1.261 . S
C163 O158 1.259 . S
C163 O160 1.235 . S
O164 Co154 2.021 . S
O164 C161 1.238 . S
O165 Co159 2.052 . S
O165 C161 1.241 . S
O166 Co154 2.137 . S
O166 C157 1.247 . S
O167 Co154 2.244 . S
O167 C157 1.272 . S
O167 Co159 2.135 . S
Co168 O169 2.216 . S
Co168 O170 2.091 . S
Co168 O172 2.004 . S
Co168 O178 2.021 . S
Co168 O180 2.137 . S
Co168 O181 2.244 . S
O169 Co168 2.216 . S
O169 C176 1.247 . S
O170 Co168 2.091 . S
O170 C176 1.261 . S
C171 O180 1.247 . S
C171 O181 1.272 . S
O172 Co168 2.004 . S
O172 C177 1.259 . S
Co173 O174 2.061 . S
Co173 O179 2.052 . S
Co173 O181 2.135 . S
O174 Co173 2.061 . S
O174 C177 1.235 . S
C175 O178 1.238 . S
C175 O179 1.241 . S
C176 O169 1.247 . S
C176 O170 1.261 . S
C177 O172 1.259 . S
C177 O174 1.235 . S
O178 Co168 2.021 . S
O178 C175 1.238 . S
O179 Co173 2.052 . S
O179 C175 1.241 . S
O180 Co168 2.137 . S
O180 C171 1.247 . S
O181 Co168 2.244 . S
O181 C171 1.272 . S
O181 Co173 2.135 . S
Co182 O183 2.216 . S
Co182 O184 2.091 . S
Co182 O186 2.004 . S
Co182 O192 2.021 . S
Co182 O194 2.137 . S
Co182 O195 2.244 . S
O183 Co182 2.216 . S
O183 C190 1.247 . S
O184 Co182 2.091 . S
O184 C190 1.261 . S
C185 O194 1.247 . S
C185 O195 1.272 . S
O186 Co182 2.004 . S
O186 C191 1.259 . S
Co187 O188 2.061 . S
Co187 O193 2.052 . S
Co187 O195 2.135 . S
O188 Co187 2.061 . S
O188 C191 1.235 . S
C189 O192 1.238 . S
C189 O193 1.241 . S
C190 O183 1.247 . S
C190 O184 1.261 . S
C191 O186 1.259 . S
C191 O188 1.235 . S
O192 Co182 2.021 . S
O192 C189 1.238 . S
O193 Co187 2.052 . S
O193 C189 1.241 . S
O194 Co182 2.137 . S
O194 C185 1.247 . S
O195 Co182 2.244 . S
O195 C185 1.272 . S
O195 Co187 2.135 . S
Co196 O197 2.216 . S
Co196 O198 2.091 . S
Co196 O200 2.004 . S
Co196 O206 2.021 . S
Co196 O208 2.137 . S
Co196 O209 2.244 . S
O197 Co196 2.216 . S
O197 C204 1.247 . S
O198 Co196 2.091 . S
O198 C204 1.261 . S
C199 O208 1.247 . S
C199 O209 1.272 . S
O200 Co196 2.004 . S
O200 C205 1.259 . S
Co201 O202 2.061 . S
Co201 O207 2.052 . S
Co201 O209 2.135 . S
O202 Co201 2.061 . S
O202 C205 1.235 . S
C203 O206 1.238 . S
C203 O207 1.241 . S
C204 O197 1.247 . S
C204 O198 1.261 . S
C205 O200 1.259 . S
C205 O202 1.235 . S
O206 Co196 2.021 . S
O206 C203 1.238 . S
O207 Co201 2.052 . S
O207 C203 1.241 . S
O208 Co196 2.137 . S
O208 C199 1.247 . S
O209 Co196 2.244 . S
O209 C199 1.272 . S
O209 Co201 2.135 . S
Co210 O211 2.216 . S
Co210 O212 2.091 . S
Co210 O214 2.004 . S
Co210 O220 2.021 . S
Co210 O222 2.137 . S
Co210 O223 2.244 . S
O211 Co210 2.216 . S
O211 C218 1.247 . S
O212 Co210 2.091 . S
O212 C218 1.261 . S
C213 O222 1.247 . S
C213 O223 1.272 . S
O214 Co210 2.004 . S
O214 C219 1.259 . S
Co215 O216 2.061 . S
Co215 O221 2.052 . S
Co215 O223 2.135 . S
O216 Co215 2.061 . S
O216 C219 1.235 . S
C217 O220 1.238 . S
C217 O221 1.241 . S
C218 O211 1.247 . S
C218 O212 1.261 . S
C219 O214 1.259 . S
C219 O216 1.235 . S
O220 Co210 2.021 . S
O220 C217 1.238 . S
O221 Co215 2.052 . S
O221 C217 1.241 . S
O222 Co210 2.137 . S
O222 C213 1.247 . S
O223 Co210 2.244 . S
O223 C213 1.272 . S
O223 Co215 2.135 . S
Co224 O225 2.216 . S
Co224 O226 2.091 . S
Co224 O228 2.004 . S
Co224 O234 2.021 . S
Co224 O236 2.137 . S
Co224 O237 2.244 . S
O225 Co224 2.216 . S
O225 C232 1.247 . S
O226 Co224 2.091 . S
O226 C232 1.261 . S
C227 O236 1.247 . S
C227 O237 1.272 . S
O228 Co224 2.004 . S
O228 C233 1.259 . S
Co229 O230 2.061 . S
Co229 O235 2.052 . S
Co229 O237 2.135 . S
O230 Co229 2.061 . S
O230 C233 1.235 . S
C231 O234 1.238 . S
C231 O235 1.241 . S
C232 O225 1.247 . S
C232 O226 1.261 . S
C233 O228 1.259 . S
C233 O230 1.235 . S
O234 Co224 2.021 . S
O234 C231 1.238 . S
O235 Co229 2.052 . S
O235 C231 1.241 . S
O236 Co224 2.137 . S
O236 C227 1.247 . S
O237 Co224 2.244 . S
O237 C227 1.272 . S
O237 Co229 2.135 . S
Co238 O239 2.216 . S
Co238 O240 2.091 . S
Co238 O242 2.004 . S
Co238 O248 2.021 . S
Co238 O250 2.137 . S
Co238 O251 2.244 . S
O239 Co238 2.216 . S
O239 C246 1.247 . S
O240 Co238 2.091 . S
O240 C246 1.261 . S
C241 O250 1.247 . S
C241 O251 1.272 . S
O242 Co238 2.004 . S
O242 C247 1.259 . S
Co243 O244 2.061 . S
Co243 O249 2.052 . S
Co243 O251 2.135 . S
O244 Co243 2.061 . S
O244 C247 1.235 . S
C245 O248 1.238 . S
C245 O249 1.241 . S
C246 O239 1.247 . S
C246 O240 1.261 . S
C247 O242 1.259 . S
C247 O244 1.235 . S
O248 Co238 2.021 . S
O248 C245 1.238 . S
O249 Co243 2.052 . S
O249 C245 1.241 . S
O250 Co238 2.137 . S
O250 C241 1.247 . S
O251 Co238 2.244 . S
O251 C241 1.272 . S
O251 Co243 2.135 . S
Co252 O253 2.216 . S
Co252 O254 2.091 . S
Co252 O256 2.004 . S
Co252 O262 2.021 . S
Co252 O264 2.137 . S
Co252 O265 2.244 . S
O253 Co252 2.216 . S
O253 C260 1.247 . S
O254 Co252 2.091 . S
O254 C260 1.261 . S
C255 O264 1.247 . S
C255 O265 1.272 . S
O256 Co252 2.004 . S
O256 C261 1.259 . S
Co257 O258 2.061 . S
Co257 O263 2.052 . S
Co257 O265 2.135 . S
O258 Co257 2.061 . S
O258 C261 1.235 . S
C259 O262 1.238 . S
C259 O263 1.241 . S
C260 O253 1.247 . S
C260 O254 1.261 . S
C261 O256 1.259 . S
C261 O258 1.235 . S
O262 Co252 2.021 . S
O262 C259 1.238 . S
O263 Co257 2.052 . S
O263 C259 1.241 . S
O264 Co252 2.137 . S
O264 C255 1.247 . S
O265 Co252 2.244 . S
O265 C255 1.272 . S
O265 Co257 2.135 . S
Co266 O267 2.216 . S
Co266 O268 2.091 . S
Co266 O270 2.004 . S
Co266 O276 2.021 . S
Co266 O278 2.137 . S
Co266 O279 2.244 . S
O267 Co266 2.216 . S
O267 C274 1.247 . S
O268 Co266 2.091 . S
O268 C274 1.261 . S
C269 O278 1.247 . S
C269 O279 1.272 . S
O270 Co266 2.004 . S
O270 C275 1.259 . S
Co271 O272 2.061 . S
Co271 O277 2.052 . S
Co271 O279 2.135 . S
O272 Co271 2.061 . S
O272 C275 1.235 . S
C273 O276 1.238 . S
C273 O277 1.241 . S
C274 O267 1.247 . S
C274 O268 1.261 . S
C275 O270 1.259 . S
C275 O272 1.235 . S
O276 Co266 2.021 . S
O276 C273 1.238 . S
O277 Co271 2.052 . S
O277 C273 1.241 . S
O278 Co266 2.137 . S
O278 C269 1.247 . S
O279 Co266 2.244 . S
O279 C269 1.272 . S
O279 Co271 2.135 . S
Co280 O281 2.216 . S
Co280 O282 2.091 . S
Co280 O284 2.004 . S
Co280 O290 2.021 . S
Co280 O292 2.137 . S
Co280 O293 2.244 . S
O281 Co280 2.216 . S
O281 C288 1.247 . S
O282 Co280 2.091 . S
O282 C288 1.261 . S
C283 O292 1.247 . S
C283 O293 1.272 . S
O284 Co280 2.004 . S
O284 C289 1.259 . S
Co285 O286 2.061 . S
Co285 O291 2.052 . S
Co285 O293 2.135 . S
O286 Co285 2.061 . S
O286 C289 1.235 . S
C287 O290 1.238 . S
C287 O291 1.241 . S
C288 O281 1.247 . S
C288 O282 1.261 . S
C289 O284 1.259 . S
C289 O286 1.235 . S
O290 Co280 2.021 . S
O290 C287 1.238 . S
O291 Co285 2.052 . S
O291 C287 1.241 . S
O292 Co280 2.137 . S
O292 C283 1.247 . S
O293 Co280 2.244 . S
O293 C283 1.272 . S
O293 Co285 2.135 . S
Co294 O295 2.216 . S
Co294 O296 2.091 . S
Co294 O298 2.004 . S
Co294 O304 2.021 . S
Co294 O306 2.137 . S
Co294 O307 2.244 . S
O295 Co294 2.216 . S
O295 C302 1.247 . S
O296 Co294 2.091 . S
O296 C302 1.261 . S
C297 O306 1.247 . S
C297 O307 1.272 . S
O298 Co294 2.004 . S
O298 C303 1.259 . S
Co299 O300 2.061 . S
Co299 O305 2.052 . S
Co299 O307 2.135 . S
O300 Co299 2.061 . S
O300 C303 1.235 . S
C301 O304 1.238 . S
C301 O305 1.241 . S
C302 O295 1.247 . S
C302 O296 1.261 . S
C303 O298 1.259 . S
C303 O300 1.235 . S
O304 Co294 2.021 . S
O304 C301 1.238 . S
O305 Co299 2.052 . S
O305 C301 1.241 . S
O306 Co294 2.137 . S
O306 C297 1.247 . S
O307 Co294 2.244 . S
O307 C297 1.272 . S
O307 Co299 2.135 . S
Co308 O309 2.216 . S
Co308 O310 2.091 . S
Co308 O312 2.004 . S
Co308 O318 2.021 . S
Co308 O320 2.137 . S
Co308 O321 2.244 . S
O309 Co308 2.216 . S
O309 C316 1.247 . S
O310 Co308 2.091 . S
O310 C316 1.261 . S
C311 O320 1.247 . S
C311 O321 1.272 . S
O312 Co308 2.004 . S
O312 C317 1.259 . S
Co313 O314 2.061 . S
Co313 O319 2.052 . S
Co313 O321 2.135 . S
O314 Co313 2.061 . S
O314 C317 1.235 . S
C315 O318 1.238 . S
C315 O319 1.241 . S
C316 O309 1.247 . S
C316 O310 1.261 . S
C317 O312 1.259 . S
C317 O314 1.235 . S
O318 Co308 2.021 . S
O318 C315 1.238 . S
O319 Co313 2.052 . S
O319 C315 1.241 . S
O320 Co308 2.137 . S
O320 C311 1.247 . S
O321 Co308 2.244 . S
O321 C311 1.272 . S
O321 Co313 2.135 . S
Co322 O323 2.216 . S
Co322 O324 2.091 . S
Co322 O326 2.004 . S
Co322 O332 2.021 . S
Co322 O334 2.137 . S
Co322 O335 2.244 . S
O323 Co322 2.216 . S
O323 C330 1.247 . S
O324 Co322 2.091 . S
O324 C330 1.261 . S
C325 O334 1.247 . S
C325 O335 1.272 . S
O326 Co322 2.004 . S
O326 C331 1.259 . S
Co327 O328 2.061 . S
Co327 O333 2.052 . S
Co327 O335 2.135 . S
O328 Co327 2.061 . S
O328 C331 1.235 . S
C329 O332 1.238 . S
C329 O333 1.241 . S
C330 O323 1.247 . S
C330 O324 1.261 . S
C331 O326 1.259 . S
C331 O328 1.235 . S
O332 Co322 2.021 . S
O332 C329 1.238 . S
O333 Co327 2.052 . S
O333 C329 1.241 . S
O334 Co322 2.137 . S
O334 C325 1.247 . S
O335 Co322 2.244 . S
O335 C325 1.272 . S
O335 Co327 2.135 . S
Co336 O337 2.216 . S
Co336 O338 2.091 . S
Co336 O340 2.004 . S
Co336 O346 2.021 . S
Co336 O348 2.137 . S
Co336 O349 2.244 . S
O337 Co336 2.216 . S
O337 C344 1.247 . S
O338 Co336 2.091 . S
O338 C344 1.261 . S
C339 O348 1.247 . S
C339 O349 1.272 . S
O340 Co336 2.004 . S
O340 C345 1.259 . S
Co341 O342 2.061 . S
Co341 O347 2.052 . S
Co341 O349 2.135 . S
O342 Co341 2.061 . S
O342 C345 1.235 . S
C343 O346 1.238 . S
C343 O347 1.241 . S
C344 O337 1.247 . S
C344 O338 1.261 . S
C345 O340 1.259 . S
C345 O342 1.235 . S
O346 Co336 2.021 . S
O346 C343 1.238 . S
O347 Co341 2.052 . S
O347 C343 1.241 . S
O348 Co336 2.137 . S
O348 C339 1.247 . S
O349 Co336 2.244 . S
O349 C339 1.272 . S
O349 Co341 2.135 . S
Co350 O351 2.216 . S
Co350 O352 2.091 . S
Co350 O354 2.004 . S
Co350 O360 2.021 . S
Co350 O362 2.137 . S
Co350 O363 2.244 . S
O351 Co350 2.216 . S
O351 C358 1.247 . S
O352 Co350 2.091 . S
O352 C358 1.261 . S
C353 O362 1.247 . S
C353 O363 1.272 . S
O354 Co350 2.004 . S
O354 C359 1.259 . S
Co355 O356 2.061 . S
Co355 O361 2.052 . S
Co355 O363 2.135 . S
O356 Co355 2.061 . S
O356 C359 1.235 . S
C357 O360 1.238 . S
C357 O361 1.241 . S
C358 O351 1.247 . S
C358 O352 1.261 . S
C359 O354 1.259 . S
C359 O356 1.235 . S
O360 Co350 2.021 . S
O360 C357 1.238 . S
O361 Co355 2.052 . S
O361 C357 1.241 . S
O362 Co350 2.137 . S
O362 C353 1.247 . S
O363 Co350 2.244 . S
O363 C353 1.272 . S
O363 Co355 2.135 . S
Co364 O365 2.216 . S
Co364 O366 2.091 . S
Co364 O368 2.004 . S
Co364 O374 2.021 . S
Co364 O376 2.137 . S
Co364 O377 2.244 . S
O365 Co364 2.216 . S
O365 C372 1.247 . S
O366 Co364 2.091 . S
O366 C372 1.261 . S
C367 O376 1.247 . S
C367 O377 1.272 . S
O368 Co364 2.004 . S
O368 C373 1.259 . S
Co369 O370 2.061 . S
Co369 O375 2.052 . S
Co369 O377 2.135 . S
O370 Co369 2.061 . S
O370 C373 1.235 . S
C371 O374 1.238 . S
C371 O375 1.241 . S
C372 O365 1.247 . S
C372 O366 1.261 . S
C373 O368 1.259 . S
C373 O370 1.235 . S
O374 Co364 2.021 . S
O374 C371 1.238 . S
O375 Co369 2.052 . S
O375 C371 1.241 . S
O376 Co364 2.137 . S
O376 C367 1.247 . S
O377 Co364 2.244 . S
O377 C367 1.272 . S
O377 Co369 2.135 . S
Co378 O379 2.216 . S
Co378 O380 2.091 . S
Co378 O382 2.004 . S
Co378 O388 2.021 . S
Co378 O390 2.137 . S
Co378 O391 2.244 . S
O379 Co378 2.216 . S
O379 C386 1.247 . S
O380 Co378 2.091 . S
O380 C386 1.261 . S
C381 O390 1.247 . S
C381 O391 1.272 . S
O382 Co378 2.004 . S
O382 C387 1.259 . S
Co383 O384 2.061 . S
Co383 O389 2.052 . S
Co383 O391 2.135 . S
O384 Co383 2.061 . S
O384 C387 1.235 . S
C385 O388 1.238 . S
C385 O389 1.241 . S
C386 O379 1.247 . S
C386 O380 1.261 . S
C387 O382 1.259 . S
C387 O384 1.235 . S
O388 Co378 2.021 . S
O388 C385 1.238 . S
O389 Co383 2.052 . S
O389 C385 1.241 . S
O390 Co378 2.137 . S
O390 C381 1.247 . S
O391 Co378 2.244 . S
O391 C381 1.272 . S
O391 Co383 2.135 . S
Co392 O393 2.216 . S
Co392 O394 2.091 . S
Co392 O396 2.004 . S
Co392 O402 2.021 . S
Co392 O404 2.137 . S
Co392 O405 2.244 . S
O393 Co392 2.216 . S
O393 C400 1.247 . S
O394 Co392 2.091 . S
O394 C400 1.261 . S
C395 O404 1.247 . S
C395 O405 1.272 . S
O396 Co392 2.004 . S
O396 C401 1.259 . S
Co397 O398 2.061 . S
Co397 O403 2.052 . S
Co397 O405 2.135 . S
O398 Co397 2.061 . S
O398 C401 1.235 . S
C399 O402 1.238 . S
C399 O403 1.241 . S
C400 O393 1.247 . S
C400 O394 1.261 . S
C401 O396 1.259 . S
C401 O398 1.235 . S
O402 Co392 2.021 . S
O402 C399 1.238 . S
O403 Co397 2.052 . S
O403 C399 1.241 . S
O404 Co392 2.137 . S
O404 C395 1.247 . S
O405 Co392 2.244 . S
O405 C395 1.272 . S
O405 Co397 2.135 . S
Co406 O407 2.216 . S
Co406 O408 2.091 . S
Co406 O410 2.004 . S
Co406 O416 2.021 . S
Co406 O418 2.137 . S
Co406 O419 2.244 . S
O407 Co406 2.216 . S
O407 C414 1.247 . S
O408 Co406 2.091 . S
O408 C414 1.261 . S
C409 O418 1.247 . S
C409 O419 1.272 . S
O410 Co406 2.004 . S
O410 C415 1.259 . S
Co411 O412 2.061 . S
Co411 O417 2.052 . S
Co411 O419 2.135 . S
O412 Co411 2.061 . S
O412 C415 1.235 . S
C413 O416 1.238 . S
C413 O417 1.241 . S
C414 O407 1.247 . S
C414 O408 1.261 . S
C415 O410 1.259 . S
C415 O412 1.235 . S
O416 Co406 2.021 . S
O416 C413 1.238 . S
O417 Co411 2.052 . S
O417 C413 1.241 . S
O418 Co406 2.137 . S
O418 C409 1.247 . S
O419 Co406 2.244 . S
O419 C409 1.272 . S
O419 Co411 2.135 . S
Co420 O421 2.216 . S
Co420 O422 2.091 . S
Co420 O424 2.004 . S
Co420 O430 2.021 . S
Co420 O432 2.137 . S
Co420 O433 2.244 . S
O421 Co420 2.216 . S
O421 C428 1.247 . S
O422 Co420 2.091 . S
O422 C428 1.261 . S
C423 O432 1.247 . S
C423 O433 1.272 . S
O424 Co420 2.004 . S
O424 C429 1.259 . S
Co425 O426 2.061 . S
Co425 O431 2.052 . S
Co425 O433 2.135 . S
O426 Co425 2.061 . S
O426 C429 1.235 . S
C427 O430 1.238 . S
C427 O431 1.241 . S
C428 O421 1.247 . S
C428 O422 1.261 . S
C429 O424 1.259 . S
C429 O426 1.235 . S
O430 Co420 2.021 . S
O430 C427 1.238 . S
O431 Co425 2.052 . S
O431 C427 1.241 . S
O432 Co420 2.137 . S
O432 C423 1.247 . S
O433 Co420 2.244 . S
O433 C423 1.272 . S
O433 Co425 2.135 . S
Co434 O435 2.216 . S
Co434 O436 2.091 . S
Co434 O438 2.004 . S
Co434 O444 2.021 . S
Co434 O446 2.137 . S
Co434 O447 2.244 . S
O435 Co434 2.216 . S
O435 C442 1.247 . S
O436 Co434 2.091 . S
O436 C442 1.261 . S
C437 O446 1.247 . S
C437 O447 1.272 . S
O438 Co434 2.004 . S
O438 C443 1.259 . S
Co439 O440 2.061 . S
Co439 O445 2.052 . S
Co439 O447 2.135 . S
O440 Co439 2.061 . S
O440 C443 1.235 . S
C441 O444 1.238 . S
C441 O445 1.241 . S
C442 O435 1.247 . S
C442 O436 1.261 . S
C443 O438 1.259 . S
C443 O440 1.235 . S
O444 Co434 2.021 . S
O444 C441 1.238 . S
O445 Co439 2.052 . S
O445 C441 1.241 . S
O446 Co434 2.137 . S
O446 C437 1.247 . S
O447 Co434 2.244 . S
O447 C437 1.272 . S
O447 Co439 2.135 . S
C448 C449 1.391 . S
C448 C450 1.394 . S
C448 H464 0.931 . S
C449 C448 1.391 . S
C449 C453 1.376 . S
C450 C448 1.394 . S
C450 C451 1.369 . S
C450 C454 1.531 . S
C451 C450 1.369 . S
C451 C452 1.410 . S
C451 C459 1.503 . S
C452 C451 1.410 . S
C452 C453 1.392 . S
C452 C455 1.511 . S
C453 C449 1.376 . S
C453 C452 1.392 . S
C453 H465 0.929 . S
C454 C450 1.531 . S
C454 H466 0.960 . S
C454 H467 0.962 . S
C454 H468 0.960 . S
C455 C452 1.511 . S
C455 H469 0.961 . S
C455 H470 0.961 . S
C455 H471 0.961 . S
C456 C457 1.370 . S
C456 C458 1.363 . S
C456 H472 0.931 . S
C457 C456 1.370 . S
C457 C461 1.408 . S
C458 C456 1.363 . S
C458 C459 1.370 . S
C458 C462 1.524 . S
C459 C451 1.503 . S
C459 C458 1.370 . S
C459 C460 1.403 . S
C460 C459 1.403 . S
C460 C461 1.404 . S
C460 C463 1.539 . S
C461 C457 1.408 . S
C461 C460 1.404 . S
C461 H473 0.930 . S
C462 C458 1.524 . S
C462 H474 0.956 . S
C462 H475 0.961 . S
C462 H476 0.961 . S
C463 C460 1.539 . S
C463 H477 0.958 . S
C463 H478 0.961 . S
C463 H479 0.960 . S
H464 C448 0.931 . S
H465 C453 0.929 . S
H466 C454 0.960 . S
H467 C454 0.962 . S
H468 C454 0.960 . S
H469 C455 0.961 . S
H470 C455 0.961 . S
H471 C455 0.961 . S
H472 C456 0.931 . S
H473 C461 0.930 . S
H474 C462 0.956 . S
H475 C462 0.961 . S
H476 C462 0.961 . S
H477 C463 0.958 . S
H478 C463 0.961 . S
H479 C463 0.960 . S
C480 C481 1.391 . S
C480 C482 1.394 . S
C480 H496 0.931 . S
C481 C480 1.391 . S
C481 C485 1.376 . S
C482 C480 1.394 . S
C482 C483 1.369 . S
C482 C486 1.531 . S
C483 C482 1.369 . S
C483 C484 1.410 . S
C483 C491 1.503 . S
C484 C483 1.410 . S
C484 C485 1.392 . S
C484 C487 1.511 . S
C485 C481 1.376 . S
C485 C484 1.392 . S
C485 H497 0.929 . S
C486 C482 1.531 . S
C486 H498 0.960 . S
C486 H499 0.962 . S
C486 H500 0.960 . S
C487 C484 1.511 . S
C487 H501 0.961 . S
C487 H502 0.961 . S
C487 H503 0.961 . S
C488 C489 1.370 . S
C488 C490 1.363 . S
C488 H504 0.931 . S
C489 C488 1.370 . S
C489 C493 1.408 . S
C490 C488 1.363 . S
C490 C491 1.370 . S
C490 C494 1.524 . S
C491 C483 1.503 . S
C491 C490 1.370 . S
C491 C492 1.403 . S
C492 C491 1.403 . S
C492 C493 1.404 . S
C492 C495 1.539 . S
C493 C489 1.408 . S
C493 C492 1.404 . S
C493 H505 0.930 . S
C494 C490 1.524 . S
C494 H506 0.956 . S
C494 H507 0.961 . S
C494 H508 0.961 . S
C495 C492 1.539 . S
C495 H509 0.958 . S
C495 H510 0.961 . S
C495 H511 0.960 . S
H496 C480 0.931 . S
H497 C485 0.929 . S
H498 C486 0.960 . S
H499 C486 0.962 . S
H500 C486 0.960 . S
H501 C487 0.961 . S
H502 C487 0.961 . S
H503 C487 0.961 . S
H504 C488 0.931 . S
H505 C493 0.930 . S
H506 C494 0.956 . S
H507 C494 0.961 . S
H508 C494 0.961 . S
H509 C495 0.958 . S
H510 C495 0.961 . S
H511 C495 0.960 . S
C512 C513 1.391 . S
C512 C514 1.394 . S
C512 H528 0.931 . S
C513 C512 1.391 . S
C513 C517 1.376 . S
C514 C512 1.394 . S
C514 C515 1.369 . S
C514 C518 1.531 . S
C515 C514 1.369 . S
C515 C516 1.410 . S
C515 C523 1.503 . S
C516 C515 1.410 . S
C516 C517 1.392 . S
C516 C519 1.511 . S
C517 C513 1.376 . S
C517 C516 1.392 . S
C517 H529 0.929 . S
C518 C514 1.531 . S
C518 H530 0.960 . S
C518 H531 0.962 . S
C518 H532 0.960 . S
C519 C516 1.511 . S
C519 H533 0.961 . S
C519 H534 0.961 . S
C519 H535 0.961 . S
C520 C521 1.370 . S
C520 C522 1.363 . S
C520 H536 0.931 . S
C521 C520 1.370 . S
C521 C525 1.408 . S
C522 C520 1.363 . S
C522 C523 1.370 . S
C522 C526 1.524 . S
C523 C515 1.503 . S
C523 C522 1.370 . S
C523 C524 1.403 . S
C524 C523 1.403 . S
C524 C525 1.404 . S
C524 C527 1.539 . S
C525 C521 1.408 . S
C525 C524 1.404 . S
C525 H537 0.930 . S
C526 C522 1.524 . S
C526 H538 0.956 . S
C526 H539 0.961 . S
C526 H540 0.961 . S
C527 C524 1.539 . S
C527 H541 0.958 . S
C527 H542 0.961 . S
C527 H543 0.960 . S
H528 C512 0.931 . S
H529 C517 0.929 . S
H530 C518 0.960 . S
H531 C518 0.962 . S
H532 C518 0.960 . S
H533 C519 0.961 . S
H534 C519 0.961 . S
H535 C519 0.961 . S
H536 C520 0.931 . S
H537 C525 0.930 . S
H538 C526 0.956 . S
H539 C526 0.961 . S
H540 C526 0.961 . S
H541 C527 0.958 . S
H542 C527 0.961 . S
H543 C527 0.960 . S
C544 C545 1.391 . S
C544 C546 1.394 . S
C544 H560 0.931 . S
C545 C544 1.391 . S
C545 C549 1.376 . S
C546 C544 1.394 . S
C546 C547 1.369 . S
C546 C550 1.531 . S
C547 C546 1.369 . S
C547 C548 1.410 . S
C547 C555 1.503 . S
C548 C547 1.410 . S
C548 C549 1.392 . S
C548 C551 1.511 . S
C549 C545 1.376 . S
C549 C548 1.392 . S
C549 H561 0.929 . S
C550 C546 1.531 . S
C550 H562 0.960 . S
C550 H563 0.962 . S
C550 H564 0.960 . S
C551 C548 1.511 . S
C551 H565 0.961 . S
C551 H566 0.961 . S
C551 H567 0.961 . S
C552 C553 1.370 . S
C552 C554 1.363 . S
C552 H568 0.931 . S
C553 C552 1.370 . S
C553 C557 1.408 . S
C554 C552 1.363 . S
C554 C555 1.370 . S
C554 C558 1.524 . S
C555 C547 1.503 . S
C555 C554 1.370 . S
C555 C556 1.403 . S
C556 C555 1.403 . S
C556 C557 1.404 . S
C556 C559 1.539 . S
C557 C553 1.408 . S
C557 C556 1.404 . S
C557 H569 0.930 . S
C558 C554 1.524 . S
C558 H570 0.956 . S
C558 H571 0.961 . S
C558 H572 0.961 . S
C559 C556 1.539 . S
C559 H573 0.958 . S
C559 H574 0.961 . S
C559 H575 0.960 . S
H560 C544 0.931 . S
H561 C549 0.929 . S
H562 C550 0.960 . S
H563 C550 0.962 . S
H564 C550 0.960 . S
H565 C551 0.961 . S
H566 C551 0.961 . S
H567 C551 0.961 . S
H568 C552 0.931 . S
H569 C557 0.930 . S
H570 C558 0.956 . S
H571 C558 0.961 . S
H572 C558 0.961 . S
H573 C559 0.958 . S
H574 C559 0.961 . S
H575 C559 0.960 . S
C576 C577 1.391 . S
C576 C578 1.394 . S
C576 H592 0.931 . S
C577 C576 1.391 . S
C577 C581 1.376 . S
C578 C576 1.394 . S
C578 C579 1.369 . S
C578 C582 1.531 . S
C579 C578 1.369 . S
C579 C580 1.410 . S
C579 C587 1.503 . S
C580 C579 1.410 . S
C580 C581 1.392 . S
C580 C583 1.511 . S
C581 C577 1.376 . S
C581 C580 1.392 . S
C581 H593 0.929 . S
C582 C578 1.531 . S
C582 H594 0.960 . S
C582 H595 0.962 . S
C582 H596 0.960 . S
C583 C580 1.511 . S
C583 H597 0.961 . S
C583 H598 0.961 . S
C583 H599 0.961 . S
C584 C585 1.370 . S
C584 C586 1.363 . S
C584 H600 0.931 . S
C585 C584 1.370 . S
C585 C589 1.408 . S
C586 C584 1.363 . S
C586 C587 1.370 . S
C586 C590 1.524 . S
C587 C579 1.503 . S
C587 C586 1.370 . S
C587 C588 1.403 . S
C588 C587 1.403 . S
C588 C589 1.404 . S
C588 C591 1.539 . S
C589 C585 1.408 . S
C589 C588 1.404 . S
C589 H601 0.930 . S
C590 C586 1.524 . S
C590 H602 0.956 . S
C590 H603 0.961 . S
C590 H604 0.961 . S
C591 C588 1.539 . S
C591 H605 0.958 . S
C591 H606 0.961 . S
C591 H607 0.960 . S
H592 C576 0.931 . S
H593 C581 0.929 . S
H594 C582 0.960 . S
H595 C582 0.962 . S
H596 C582 0.960 . S
H597 C583 0.961 . S
H598 C583 0.961 . S
H599 C583 0.961 . S
H600 C584 0.931 . S
H601 C589 0.930 . S
H602 C590 0.956 . S
H603 C590 0.961 . S
H604 C590 0.961 . S
H605 C591 0.958 . S
H606 C591 0.961 . S
H607 C591 0.960 . S
C608 C609 1.391 . S
C608 C610 1.394 . S
C608 H624 0.931 . S
C609 C608 1.391 . S
C609 C613 1.376 . S
C610 C608 1.394 . S
C610 C611 1.369 . S
C610 C614 1.531 . S
C611 C610 1.369 . S
C611 C612 1.410 . S
C611 C619 1.503 . S
C612 C611 1.410 . S
C612 C613 1.392 . S
C612 C615 1.511 . S
C613 C609 1.376 . S
C613 C612 1.392 . S
C613 H625 0.929 . S
C614 C610 1.531 . S
C614 H626 0.960 . S
C614 H627 0.962 . S
C614 H628 0.960 . S
C615 C612 1.511 . S
C615 H629 0.961 . S
C615 H630 0.961 . S
C615 H631 0.961 . S
C616 C617 1.370 . S
C616 C618 1.363 . S
C616 H632 0.931 . S
C617 C616 1.370 . S
C617 C621 1.408 . S
C618 C616 1.363 . S
C618 C619 1.370 . S
C618 C622 1.524 . S
C619 C611 1.503 . S
C619 C618 1.370 . S
C619 C620 1.403 . S
C620 C619 1.403 . S
C620 C621 1.404 . S
C620 C623 1.539 . S
C621 C617 1.408 . S
C621 C620 1.404 . S
C621 H633 0.930 . S
C622 C618 1.524 . S
C622 H634 0.956 . S
C622 H635 0.961 . S
C622 H636 0.961 . S
C623 C620 1.539 . S
C623 H637 0.958 . S
C623 H638 0.961 . S
C623 H639 0.960 . S
H624 C608 0.931 . S
H625 C613 0.929 . S
H626 C614 0.960 . S
H627 C614 0.962 . S
H628 C614 0.960 . S
H629 C615 0.961 . S
H630 C615 0.961 . S
H631 C615 0.961 . S
H632 C616 0.931 . S
H633 C621 0.930 . S
H634 C622 0.956 . S
H635 C622 0.961 . S
H636 C622 0.961 . S
H637 C623 0.958 . S
H638 C623 0.961 . S
H639 C623 0.960 . S
C640 C641 1.391 . S
C640 C642 1.394 . S
C640 H656 0.931 . S
C641 C640 1.391 . S
C641 C645 1.376 . S
C642 C640 1.394 . S
C642 C643 1.369 . S
C642 C646 1.531 . S
C643 C642 1.369 . S
C643 C644 1.410 . S
C643 C651 1.503 . S
C644 C643 1.410 . S
C644 C645 1.392 . S
C644 C647 1.511 . S
C645 C641 1.376 . S
C645 C644 1.392 . S
C645 H657 0.929 . S
C646 C642 1.531 . S
C646 H658 0.960 . S
C646 H659 0.962 . S
C646 H660 0.960 . S
C647 C644 1.511 . S
C647 H661 0.961 . S
C647 H662 0.961 . S
C647 H663 0.961 . S
C648 C649 1.370 . S
C648 C650 1.363 . S
C648 H664 0.931 . S
C649 C648 1.370 . S
C649 C653 1.408 . S
C650 C648 1.363 . S
C650 C651 1.370 . S
C650 C654 1.524 . S
C651 C643 1.503 . S
C651 C650 1.370 . S
C651 C652 1.403 . S
C652 C651 1.403 . S
C652 C653 1.404 . S
C652 C655 1.539 . S
C653 C649 1.408 . S
C653 C652 1.404 . S
C653 H665 0.930 . S
C654 C650 1.524 . S
C654 H666 0.956 . S
C654 H667 0.961 . S
C654 H668 0.961 . S
C655 C652 1.539 . S
C655 H669 0.958 . S
C655 H670 0.961 . S
C655 H671 0.960 . S
H656 C640 0.931 . S
H657 C645 0.929 . S
H658 C646 0.960 . S
H659 C646 0.962 . S
H660 C646 0.960 . S
H661 C647 0.961 . S
H662 C647 0.961 . S
H663 C647 0.961 . S
H664 C648 0.931 . S
H665 C653 0.930 . S
H666 C654 0.956 . S
H667 C654 0.961 . S
H668 C654 0.961 . S
H669 C655 0.958 . S
H670 C655 0.961 . S
H671 C655 0.960 . S
C672 C673 1.391 . S
C672 C674 1.394 . S
C672 H688 0.931 . S
C673 C672 1.391 . S
C673 C677 1.376 . S
C674 C672 1.394 . S
C674 C675 1.369 . S
C674 C678 1.531 . S
C675 C674 1.369 . S
C675 C676 1.410 . S
C675 C683 1.503 . S
C676 C675 1.410 . S
C676 C677 1.392 . S
C676 C679 1.511 . S
C677 C673 1.376 . S
C677 C676 1.392 . S
C677 H689 0.929 . S
C678 C674 1.531 . S
C678 H690 0.960 . S
C678 H691 0.962 . S
C678 H692 0.960 . S
C679 C676 1.511 . S
C679 H693 0.961 . S
C679 H694 0.961 . S
C679 H695 0.961 . S
C680 C681 1.370 . S
C680 C682 1.363 . S
C680 H696 0.931 . S
C681 C680 1.370 . S
C681 C685 1.408 . S
C682 C680 1.363 . S
C682 C683 1.370 . S
C682 C686 1.524 . S
C683 C675 1.503 . S
C683 C682 1.370 . S
C683 C684 1.403 . S
C684 C683 1.403 . S
C684 C685 1.404 . S
C684 C687 1.539 . S
C685 C681 1.408 . S
C685 C684 1.404 . S
C685 H697 0.930 . S
C686 C682 1.524 . S
C686 H698 0.956 . S
C686 H699 0.961 . S
C686 H700 0.961 . S
C687 C684 1.539 . S
C687 H701 0.958 . S
C687 H702 0.961 . S
C687 H703 0.960 . S
H688 C672 0.931 . S
H689 C677 0.929 . S
H690 C678 0.960 . S
H691 C678 0.962 . S
H692 C678 0.960 . S
H693 C679 0.961 . S
H694 C679 0.961 . S
H695 C679 0.961 . S
H696 C680 0.931 . S
H697 C685 0.930 . S
H698 C686 0.956 . S
H699 C686 0.961 . S
H700 C686 0.961 . S
H701 C687 0.958 . S
H702 C687 0.961 . S
H703 C687 0.960 . S
C704 C705 1.391 . S
C704 C706 1.394 . S
C704 H720 0.931 . S
C705 C704 1.391 . S
C705 C709 1.376 . S
C706 C704 1.394 . S
C706 C707 1.369 . S
C706 C710 1.531 . S
C707 C706 1.369 . S
C707 C708 1.410 . S
C707 C715 1.503 . S
C708 C707 1.410 . S
C708 C709 1.392 . S
C708 C711 1.511 . S
C709 C705 1.376 . S
C709 C708 1.392 . S
C709 H721 0.929 . S
C710 C706 1.531 . S
C710 H722 0.960 . S
C710 H723 0.962 . S
C710 H724 0.960 . S
C711 C708 1.511 . S
C711 H725 0.961 . S
C711 H726 0.961 . S
C711 H727 0.961 . S
C712 C713 1.370 . S
C712 C714 1.363 . S
C712 H728 0.931 . S
C713 C712 1.370 . S
C713 C717 1.408 . S
C714 C712 1.363 . S
C714 C715 1.370 . S
C714 C718 1.524 . S
C715 C707 1.503 . S
C715 C714 1.370 . S
C715 C716 1.403 . S
C716 C715 1.403 . S
C716 C717 1.404 . S
C716 C719 1.539 . S
C717 C713 1.408 . S
C717 C716 1.404 . S
C717 H729 0.930 . S
C718 C714 1.524 . S
C718 H730 0.956 . S
C718 H731 0.961 . S
C718 H732 0.961 . S
C719 C716 1.539 . S
C719 H733 0.958 . S
C719 H734 0.961 . S
C719 H735 0.960 . S
H720 C704 0.931 . S
H721 C709 0.929 . S
H722 C710 0.960 . S
H723 C710 0.962 . S
H724 C710 0.960 . S
H725 C711 0.961 . S
H726 C711 0.961 . S
H727 C711 0.961 . S
H728 C712 0.931 . S
H729 C717 0.930 . S
H730 C718 0.956 . S
H731 C718 0.961 . S
H732 C718 0.961 . S
H733 C719 0.958 . S
H734 C719 0.961 . S
H735 C719 0.960 . S
C736 C737 1.391 . S
C736 C738 1.394 . S
C736 H752 0.931 . S
C737 C736 1.391 . S
C737 C741 1.376 . S
C738 C736 1.394 . S
C738 C739 1.369 . S
C738 C742 1.531 . S
C739 C738 1.369 . S
C739 C740 1.410 . S
C739 C747 1.503 . S
C740 C739 1.410 . S
C740 C741 1.392 . S
C740 C743 1.511 . S
C741 C737 1.376 . S
C741 C740 1.392 . S
C741 H753 0.929 . S
C742 C738 1.531 . S
C742 H754 0.960 . S
C742 H755 0.962 . S
C742 H756 0.960 . S
C743 C740 1.511 . S
C743 H757 0.961 . S
C743 H758 0.961 . S
C743 H759 0.961 . S
C744 C745 1.370 . S
C744 C746 1.363 . S
C744 H760 0.931 . S
C745 C744 1.370 . S
C745 C749 1.408 . S
C746 C744 1.363 . S
C746 C747 1.370 . S
C746 C750 1.524 . S
C747 C739 1.503 . S
C747 C746 1.370 . S
C747 C748 1.403 . S
C748 C747 1.403 . S
C748 C749 1.404 . S
C748 C751 1.539 . S
C749 C745 1.408 . S
C749 C748 1.404 . S
C749 H761 0.930 . S
C750 C746 1.524 . S
C750 H762 0.956 . S
C750 H763 0.961 . S
C750 H764 0.961 . S
C751 C748 1.539 . S
C751 H765 0.958 . S
C751 H766 0.961 . S
C751 H767 0.960 . S
H752 C736 0.931 . S
H753 C741 0.929 . S
H754 C742 0.960 . S
H755 C742 0.962 . S
H756 C742 0.960 . S
H757 C743 0.961 . S
H758 C743 0.961 . S
H759 C743 0.961 . S
H760 C744 0.931 . S
H761 C749 0.930 . S
H762 C750 0.956 . S
H763 C750 0.961 . S
H764 C750 0.961 . S
H765 C751 0.958 . S
H766 C751 0.961 . S
H767 C751 0.960 . S
C768 C769 1.391 . S
C768 C770 1.394 . S
C768 H784 0.931 . S
C769 C768 1.391 . S
C769 C773 1.376 . S
C770 C768 1.394 . S
C770 C771 1.369 . S
C770 C774 1.531 . S
C771 C770 1.369 . S
C771 C772 1.410 . S
C771 C779 1.503 . S
C772 C771 1.410 . S
C772 C773 1.392 . S
C772 C775 1.511 . S
C773 C769 1.376 . S
C773 C772 1.392 . S
C773 H785 0.929 . S
C774 C770 1.531 . S
C774 H786 0.960 . S
C774 H787 0.962 . S
C774 H788 0.960 . S
C775 C772 1.511 . S
C775 H789 0.961 . S
C775 H790 0.961 . S
C775 H791 0.961 . S
C776 C777 1.370 . S
C776 C778 1.363 . S
C776 H792 0.931 . S
C777 C776 1.370 . S
C777 C781 1.408 . S
C778 C776 1.363 . S
C778 C779 1.370 . S
C778 C782 1.524 . S
C779 C771 1.503 . S
C779 C778 1.370 . S
C779 C780 1.403 . S
C780 C779 1.403 . S
C780 C781 1.404 . S
C780 C783 1.539 . S
C781 C777 1.408 . S
C781 C780 1.404 . S
C781 H793 0.930 . S
C782 C778 1.524 . S
C782 H794 0.956 . S
C782 H795 0.961 . S
C782 H796 0.961 . S
C783 C780 1.539 . S
C783 H797 0.958 . S
C783 H798 0.961 . S
C783 H799 0.960 . S
H784 C768 0.931 . S
H785 C773 0.929 . S
H786 C774 0.960 . S
H787 C774 0.962 . S
H788 C774 0.960 . S
H789 C775 0.961 . S
H790 C775 0.961 . S
H791 C775 0.961 . S
H792 C776 0.931 . S
H793 C781 0.930 . S
H794 C782 0.956 . S
H795 C782 0.961 . S
H796 C782 0.961 . S
H797 C783 0.958 . S
H798 C783 0.961 . S
H799 C783 0.960 . S
C800 C801 1.391 . S
C800 C802 1.394 . S
C800 H816 0.931 . S
C801 C800 1.391 . S
C801 C805 1.376 . S
C802 C800 1.394 . S
C802 C803 1.369 . S
C802 C806 1.531 . S
C803 C802 1.369 . S
C803 C804 1.410 . S
C803 C811 1.503 . S
C804 C803 1.410 . S
C804 C805 1.392 . S
C804 C807 1.511 . S
C805 C801 1.376 . S
C805 C804 1.392 . S
C805 H817 0.929 . S
C806 C802 1.531 . S
C806 H818 0.960 . S
C806 H819 0.962 . S
C806 H820 0.960 . S
C807 C804 1.511 . S
C807 H821 0.961 . S
C807 H822 0.961 . S
C807 H823 0.961 . S
C808 C809 1.370 . S
C808 C810 1.363 . S
C808 H824 0.931 . S
C809 C808 1.370 . S
C809 C813 1.408 . S
C810 C808 1.363 . S
C810 C811 1.370 . S
C810 C814 1.524 . S
C811 C803 1.503 . S
C811 C810 1.370 . S
C811 C812 1.403 . S
C812 C811 1.403 . S
C812 C813 1.404 . S
C812 C815 1.539 . S
C813 C809 1.408 . S
C813 C812 1.404 . S
C813 H825 0.930 . S
C814 C810 1.524 . S
C814 H826 0.956 . S
C814 H827 0.961 . S
C814 H828 0.961 . S
C815 C812 1.539 . S
C815 H829 0.958 . S
C815 H830 0.961 . S
C815 H831 0.960 . S
H816 C800 0.931 . S
H817 C805 0.929 . S
H818 C806 0.960 . S
H819 C806 0.962 . S
H820 C806 0.960 . S
H821 C807 0.961 . S
H822 C807 0.961 . S
H823 C807 0.961 . S
H824 C808 0.931 . S
H825 C813 0.930 . S
H826 C814 0.956 . S
H827 C814 0.961 . S
H828 C814 0.961 . S
H829 C815 0.958 . S
H830 C815 0.961 . S
H831 C815 0.960 . S
C832 C833 1.391 . S
C832 C834 1.394 . S
C832 H848 0.931 . S
C833 C832 1.391 . S
C833 C837 1.376 . S
C834 C832 1.394 . S
C834 C835 1.369 . S
C834 C838 1.531 . S
C835 C834 1.369 . S
C835 C836 1.410 . S
C835 C843 1.503 . S
C836 C835 1.410 . S
C836 C837 1.392 . S
C836 C839 1.511 . S
C837 C833 1.376 . S
C837 C836 1.392 . S
C837 H849 0.929 . S
C838 C834 1.531 . S
C838 H850 0.960 . S
C838 H851 0.962 . S
C838 H852 0.960 . S
C839 C836 1.511 . S
C839 H853 0.961 . S
C839 H854 0.961 . S
C839 H855 0.961 . S
C840 C841 1.370 . S
C840 C842 1.363 . S
C840 H856 0.931 . S
C841 C840 1.370 . S
C841 C845 1.408 . S
C842 C840 1.363 . S
C842 C843 1.370 . S
C842 C846 1.524 . S
C843 C835 1.503 . S
C843 C842 1.370 . S
C843 C844 1.403 . S
C844 C843 1.403 . S
C844 C845 1.404 . S
C844 C847 1.539 . S
C845 C841 1.408 . S
C845 C844 1.404 . S
C845 H857 0.930 . S
C846 C842 1.524 . S
C846 H858 0.956 . S
C846 H859 0.961 . S
C846 H860 0.961 . S
C847 C844 1.539 . S
C847 H861 0.958 . S
C847 H862 0.961 . S
C847 H863 0.960 . S
H848 C832 0.931 . S
H849 C837 0.929 . S
H850 C838 0.960 . S
H851 C838 0.962 . S
H852 C838 0.960 . S
H853 C839 0.961 . S
H854 C839 0.961 . S
H855 C839 0.961 . S
H856 C840 0.931 . S
H857 C845 0.930 . S
H858 C846 0.956 . S
H859 C846 0.961 . S
H860 C846 0.961 . S
H861 C847 0.958 . S
H862 C847 0.961 . S
H863 C847 0.960 . S
C864 C865 1.391 . S
C864 C866 1.394 . S
C864 H880 0.931 . S
C865 C864 1.391 . S
C865 C869 1.376 . S
C866 C864 1.394 . S
C866 C867 1.369 . S
C866 C870 1.531 . S
C867 C866 1.369 . S
C867 C868 1.410 . S
C867 C875 1.503 . S
C868 C867 1.410 . S
C868 C869 1.392 . S
C868 C871 1.511 . S
C869 C865 1.376 . S
C869 C868 1.392 . S
C869 H881 0.929 . S
C870 C866 1.531 . S
C870 H882 0.960 . S
C870 H883 0.962 . S
C870 H884 0.960 . S
C871 C868 1.511 . S
C871 H885 0.961 . S
C871 H886 0.961 . S
C871 H887 0.961 . S
C872 C873 1.370 . S
C872 C874 1.363 . S
C872 H888 0.931 . S
C873 C872 1.370 . S
C873 C877 1.408 . S
C874 C872 1.363 . S
C874 C875 1.370 . S
C874 C878 1.524 . S
C875 C867 1.503 . S
C875 C874 1.370 . S
C875 C876 1.403 . S
C876 C875 1.403 . S
C876 C877 1.404 . S
C876 C879 1.539 . S
C877 C873 1.408 . S
C877 C876 1.404 . S
C877 H889 0.930 . S
C878 C874 1.524 . S
C878 H890 0.956 . S
C878 H891 0.961 . S
C878 H892 0.961 . S
C879 C876 1.539 . S
C879 H893 0.958 . S
C879 H894 0.961 . S
C879 H895 0.960 . S
H880 C864 0.931 . S
H881 C869 0.929 . S
H882 C870 0.960 . S
H883 C870 0.962 . S
H884 C870 0.960 . S
H885 C871 0.961 . S
H886 C871 0.961 . S
H887 C871 0.961 . S
H888 C872 0.931 . S
H889 C877 0.930 . S
H890 C878 0.956 . S
H891 C878 0.961 . S
H892 C878 0.961 . S
H893 C879 0.958 . S
H894 C879 0.961 . S
H895 C879 0.960 . S
C896 C897 1.391 . S
C896 C898 1.394 . S
C896 H912 0.931 . S
C897 C896 1.391 . S
C897 C901 1.376 . S
C898 C896 1.394 . S
C898 C899 1.369 . S
C898 C902 1.531 . S
C899 C898 1.369 . S
C899 C900 1.410 . S
C899 C907 1.503 . S
C900 C899 1.410 . S
C900 C901 1.392 . S
C900 C903 1.511 . S
C901 C897 1.376 . S
C901 C900 1.392 . S
C901 H913 0.929 . S
C902 C898 1.531 . S
C902 H914 0.960 . S
C902 H915 0.962 . S
C902 H916 0.960 . S
C903 C900 1.511 . S
C903 H917 0.961 . S
C903 H918 0.961 . S
C903 H919 0.961 . S
C904 C905 1.370 . S
C904 C906 1.363 . S
C904 H920 0.931 . S
C905 C904 1.370 . S
C905 C909 1.408 . S
C906 C904 1.363 . S
C906 C907 1.370 . S
C906 C910 1.524 . S
C907 C899 1.503 . S
C907 C906 1.370 . S
C907 C908 1.403 . S
C908 C907 1.403 . S
C908 C909 1.404 . S
C908 C911 1.539 . S
C909 C905 1.408 . S
C909 C908 1.404 . S
C909 H921 0.930 . S
C910 C906 1.524 . S
C910 H922 0.956 . S
C910 H923 0.961 . S
C910 H924 0.961 . S
C911 C908 1.539 . S
C911 H925 0.958 . S
C911 H926 0.961 . S
C911 H927 0.960 . S
H912 C896 0.931 . S
H913 C901 0.929 . S
H914 C902 0.960 . S
H915 C902 0.962 . S
H916 C902 0.960 . S
H917 C903 0.961 . S
H918 C903 0.961 . S
H919 C903 0.961 . S
H920 C904 0.931 . S
H921 C909 0.930 . S
H922 C910 0.956 . S
H923 C910 0.961 . S
H924 C910 0.961 . S
H925 C911 0.958 . S
H926 C911 0.961 . S
H927 C911 0.960 . S
C928 C929 1.391 . S
C928 C930 1.394 . S
C928 H944 0.931 . S
C929 C928 1.391 . S
C929 C933 1.376 . S
C930 C928 1.394 . S
C930 C931 1.369 . S
C930 C934 1.531 . S
C931 C930 1.369 . S
C931 C932 1.410 . S
C931 C939 1.503 . S
C932 C931 1.410 . S
C932 C933 1.392 . S
C932 C935 1.511 . S
C933 C929 1.376 . S
C933 C932 1.392 . S
C933 H945 0.929 . S
C934 C930 1.531 . S
C934 H946 0.960 . S
C934 H947 0.962 . S
C934 H948 0.960 . S
C935 C932 1.511 . S
C935 H949 0.961 . S
C935 H950 0.961 . S
C935 H951 0.961 . S
C936 C937 1.370 . S
C936 C938 1.363 . S
C936 H952 0.931 . S
C937 C936 1.370 . S
C937 C941 1.408 . S
C938 C936 1.363 . S
C938 C939 1.370 . S
C938 C942 1.524 . S
C939 C931 1.503 . S
C939 C938 1.370 . S
C939 C940 1.403 . S
C940 C939 1.403 . S
C940 C941 1.404 . S
C940 C943 1.539 . S
C941 C937 1.408 . S
C941 C940 1.404 . S
C941 H953 0.930 . S
C942 C938 1.524 . S
C942 H954 0.956 . S
C942 H955 0.961 . S
C942 H956 0.961 . S
C943 C940 1.539 . S
C943 H957 0.958 . S
C943 H958 0.961 . S
C943 H959 0.960 . S
H944 C928 0.931 . S
H945 C933 0.929 . S
H946 C934 0.960 . S
H947 C934 0.962 . S
H948 C934 0.960 . S
H949 C935 0.961 . S
H950 C935 0.961 . S
H951 C935 0.961 . S
H952 C936 0.931 . S
H953 C941 0.930 . S
H954 C942 0.956 . S
H955 C942 0.961 . S
H956 C942 0.961 . S
H957 C943 0.958 . S
H958 C943 0.961 . S
H959 C943 0.960 . S
C960 C961 1.391 . S
C960 C962 1.394 . S
C960 H976 0.931 . S
C961 C960 1.391 . S
C961 C965 1.376 . S
C962 C960 1.394 . S
C962 C963 1.369 . S
C962 C966 1.531 . S
C963 C962 1.369 . S
C963 C964 1.410 . S
C963 C971 1.503 1_455 S
C964 C963 1.410 . S
C964 C965 1.392 . S
C964 C967 1.511 . S
C965 C961 1.376 . S
C965 C964 1.392 . S
C965 H977 0.929 . S
C966 C962 1.531 . S
C966 H978 0.960 1_455 S
C966 H979 0.962 . S
C966 H980 0.960 . S
C967 C964 1.511 . S
C967 H981 0.961 . S
C967 H982 0.961 1_455 S
C967 H983 0.961 1_554 S
C968 C969 1.370 . S
C968 C970 1.363 . S
C968 H984 0.931 . S
C969 C968 1.370 . S
C969 C973 1.408 1_554 S
C970 C968 1.363 . S
C970 C971 1.370 . S
C970 C974 1.524 . S
C971 C963 1.503 1_655 S
C971 C970 1.370 . S
C971 C972 1.403 1_554 S
C972 C971 1.403 1_556 S
C972 C973 1.404 . S
C972 C975 1.539 . S
C973 C969 1.408 1_556 S
C973 C972 1.404 . S
C973 H985 0.930 . S
C974 C970 1.524 . S
C974 H986 0.956 . S
C974 H987 0.961 1_655 S
C974 H988 0.961 . S
C975 C972 1.539 . S
C975 H989 0.958 . S
C975 H990 0.961 . S
C975 H991 0.970 . S
H976 C960 0.931 . S
H977 C965 0.929 . S
H978 C966 0.960 1_655 S
H979 C966 0.962 . S
H980 C966 0.960 . S
H981 C967 0.961 . S
H982 C967 0.961 1_655 S
H983 C967 0.961 1_556 S
H984 C968 0.931 . S
H985 C973 0.930 . S
H986 C974 0.956 . S
H987 C974 0.961 1_455 S
H988 C974 0.961 . S
H989 C975 0.958 . S
H990 C975 0.961 . S
H991 C975 0.970 . S
C992 C993 1.391 . S
C992 C994 1.394 . S
C992 H1008 0.931 . S
C993 C992 1.391 . S
C993 C997 1.376 . S
C994 C992 1.394 . S
C994 C995 1.369 . S
C994 C998 1.531 . S
C995 C994 1.369 . S
C995 C996 1.410 . S
C995 C1003 1.503 . S
C996 C995 1.410 . S
C996 C997 1.392 . S
C996 C999 1.511 . S
C997 C993 1.376 . S
C997 C996 1.392 . S
C997 H1009 0.929 . S
C998 C994 1.531 . S
C998 H1010 0.960 . S
C998 H1011 0.962 . S
C998 H1012 0.960 . S
C999 C996 1.511 . S
C999 H1013 0.961 . S
C999 H1014 0.961 . S
C999 H1015 0.961 . S
C1000 C1001 1.370 . S
C1000 C1002 1.363 . S
C1000 H1016 0.931 . S
C1001 C1000 1.370 . S
C1001 C1005 1.408 . S
C1002 C1000 1.363 . S
C1002 C1003 1.370 . S
C1002 C1006 1.524 . S
C1003 C995 1.503 . S
C1003 C1002 1.370 . S
C1003 C1004 1.403 . S
C1004 C1003 1.403 . S
C1004 C1005 1.404 . S
C1004 C1007 1.539 . S
C1005 C1001 1.408 . S
C1005 C1004 1.404 . S
C1005 H1017 0.930 . S
C1006 C1002 1.524 . S
C1006 H1018 0.956 . S
C1006 H1019 0.961 . S
C1006 H1020 0.961 . S
C1007 C1004 1.539 . S
C1007 H1021 0.958 . S
C1007 H1022 0.961 . S
C1007 H1023 0.960 . S
H1008 C992 0.931 . S
H1009 C997 0.929 . S
H1010 C998 0.960 . S
H1011 C998 0.962 . S
H1012 C998 0.960 . S
H1013 C999 0.961 . S
H1014 C999 0.961 . S
H1015 C999 0.961 . S
H1016 C1000 0.931 . S
H1017 C1005 0.930 . S
H1018 C1006 0.956 . S
H1019 C1006 0.961 . S
H1020 C1006 0.961 . S
H1021 C1007 0.958 . S
H1022 C1007 0.961 . S
H1023 C1007 0.960 . S
C1024 C1025 1.391 . S
C1024 C1026 1.394 . S
C1024 H1040 0.931 . S
C1025 C1024 1.391 . S
C1025 C1029 1.376 . S
C1026 C1024 1.394 . S
C1026 C1027 1.369 . S
C1026 C1030 1.531 . S
C1027 C1026 1.369 . S
C1027 C1028 1.410 . S
C1027 C1035 1.503 . S
C1028 C1027 1.410 . S
C1028 C1029 1.392 . S
C1028 C1031 1.511 . S
C1029 C1025 1.376 . S
C1029 C1028 1.392 . S
C1029 H1041 0.929 . S
C1030 C1026 1.531 . S
C1030 H1042 0.960 . S
C1030 H1043 0.962 . S
C1030 H1044 0.960 . S
C1031 C1028 1.511 . S
C1031 H1045 0.961 . S
C1031 H1046 0.961 . S
C1031 H1047 0.961 . S
C1032 C1033 1.370 . S
C1032 C1034 1.363 . S
C1032 H1048 0.931 . S
C1033 C1032 1.370 . S
C1033 C1037 1.408 . S
C1034 C1032 1.363 . S
C1034 C1035 1.370 . S
C1034 C1038 1.524 . S
C1035 C1027 1.503 . S
C1035 C1034 1.370 . S
C1035 C1036 1.403 . S
C1036 C1035 1.403 . S
C1036 C1037 1.404 . S
C1036 C1039 1.539 . S
C1037 C1033 1.408 . S
C1037 C1036 1.404 . S
C1037 H1049 0.930 . S
C1038 C1034 1.524 . S
C1038 H1050 0.956 . S
C1038 H1051 0.961 . S
C1038 H1052 0.961 . S
C1039 C1036 1.539 . S
C1039 H1053 0.958 . S
C1039 H1054 0.961 . S
C1039 H1055 0.960 . S
H1040 C1024 0.931 . S
H1041 C1029 0.929 . S
H1042 C1030 0.960 . S
H1043 C1030 0.962 . S
H1044 C1030 0.960 . S
H1045 C1031 0.961 . S
H1046 C1031 0.961 . S
H1047 C1031 0.961 . S
H1048 C1032 0.931 . S
H1049 C1037 0.930 . S
H1050 C1038 0.956 . S
H1051 C1038 0.961 . S
H1052 C1038 0.961 . S
H1053 C1039 0.958 . S
H1054 C1039 0.961 . S
H1055 C1039 0.960 . S
C1056 C1057 1.391 . S
C1056 C1058 1.394 . S
C1056 H1072 0.931 . S
C1057 C1056 1.391 . S
C1057 C1061 1.376 . S
C1058 C1056 1.394 . S
C1058 C1059 1.369 . S
C1058 C1062 1.531 . S
C1059 C1058 1.369 . S
C1059 C1060 1.410 . S
C1059 C1067 1.503 . S
C1060 C1059 1.410 . S
C1060 C1061 1.392 . S
C1060 C1063 1.511 . S
C1061 C1057 1.376 . S
C1061 C1060 1.392 . S
C1061 H1073 0.929 . S
C1062 C1058 1.531 . S
C1062 H1074 0.960 . S
C1062 H1075 0.962 . S
C1062 H1076 0.960 . S
C1063 C1060 1.511 . S
C1063 H1077 0.961 . S
C1063 H1078 0.961 . S
C1063 H1079 0.961 . S
C1064 C1065 1.370 . S
C1064 C1066 1.363 . S
C1064 H1080 0.931 . S
C1065 C1064 1.370 . S
C1065 C1069 1.408 . S
C1066 C1064 1.363 . S
C1066 C1067 1.370 . S
C1066 C1070 1.524 . S
C1067 C1059 1.503 . S
C1067 C1066 1.370 . S
C1067 C1068 1.403 . S
C1068 C1067 1.403 . S
C1068 C1069 1.404 . S
C1068 C1071 1.539 . S
C1069 C1065 1.408 . S
C1069 C1068 1.404 . S
C1069 H1081 0.930 . S
C1070 C1066 1.524 . S
C1070 H1082 0.956 . S
C1070 H1083 0.961 . S
C1070 H1084 0.961 . S
C1071 C1068 1.539 . S
C1071 H1085 0.958 . S
C1071 H1086 0.961 . S
C1071 H1087 0.960 . S
H1072 C1056 0.931 . S
H1073 C1061 0.929 . S
H1074 C1062 0.960 . S
H1075 C1062 0.962 . S
H1076 C1062 0.960 . S
H1077 C1063 0.961 . S
H1078 C1063 0.961 . S
H1079 C1063 0.961 . S
H1080 C1064 0.931 . S
H1081 C1069 0.930 . S
H1082 C1070 0.956 . S
H1083 C1070 0.961 . S
H1084 C1070 0.961 . S
H1085 C1071 0.958 . S
H1086 C1071 0.961 . S
H1087 C1071 0.960 . S
C1088 C1089 1.391 . S
C1088 C1090 1.394 . S
C1088 H1104 0.931 . S
C1089 C1088 1.391 . S
C1089 C1093 1.376 1_556 S
C1090 C1088 1.394 . S
C1090 C1091 1.369 . S
C1090 C1094 1.531 . S
C1091 C1090 1.369 . S
C1091 C1092 1.410 1_556 S
C1091 C1099 1.503 1_655 S
C1092 C1091 1.410 1_554 S
C1092 C1093 1.392 . S
C1092 C1095 1.511 . S
C1093 C1089 1.376 1_554 S
C1093 C1092 1.392 . S
C1093 H1105 0.929 . S
C1094 C1090 1.531 . S
C1094 H1106 0.960 1_655 S
C1094 H1107 0.962 . S
C1094 H1108 0.960 . S
C1095 C1092 1.511 . S
C1095 H1109 0.961 . S
C1095 H1110 0.961 1_655 S
C1095 H1111 0.961 . S
C1096 C1097 1.370 . S
C1096 C1098 1.363 . S
C1096 H1112 0.931 . S
C1097 C1096 1.370 . S
C1097 C1101 1.408 . S
C1098 C1096 1.363 . S
C1098 C1099 1.370 . S
C1098 C1102 1.524 . S
C1099 C1091 1.503 1_455 S
C1099 C1098 1.370 . S
C1099 C1100 1.403 . S
C1100 C1099 1.403 . S
C1100 C1101 1.404 . S
C1100 C1103 1.539 . S
C1101 C1097 1.408 . S
C1101 C1100 1.404 . S
C1101 H1113 0.930 . S
C1102 C1098 1.524 . S
C1102 H1114 0.956 . S
C1102 H1115 0.961 1_455 S
C1102 H1116 0.961 . S
C1103 C1100 1.539 . S
C1103 H1117 0.958 . S
C1103 H1118 0.961 . S
C1103 H1119 0.970 . S
H1104 C1088 0.931 . S
H1105 C1093 0.929 . S
H1106 C1094 0.960 1_455 S
H1107 C1094 0.962 . S
H1108 C1094 0.960 . S
H1109 C1095 0.961 . S
H1110 C1095 0.961 1_455 S
H1111 C1095 0.961 . S
H1112 C1096 0.931 . S
H1113 C1101 0.930 . S
H1114 C1102 0.956 . S
H1115 C1102 0.961 1_655 S
H1116 C1102 0.961 . S
H1117 C1103 0.958 . S
H1118 C1103 0.961 . S
H1119 C1103 0.970 . S
C1120 C1121 1.391 . S
C1120 C1122 1.394 . S
C1120 H1136 0.931 . S
C1121 C1120 1.391 . S
C1121 C1125 1.376 . S
C1122 C1120 1.394 . S
C1122 C1123 1.369 . S
C1122 C1126 1.531 . S
C1123 C1122 1.369 . S
C1123 C1124 1.410 . S
C1123 C1131 1.503 . S
C1124 C1123 1.410 . S
C1124 C1125 1.392 . S
C1124 C1127 1.511 . S
C1125 C1121 1.376 . S
C1125 C1124 1.392 . S
C1125 H1137 0.929 . S
C1126 C1122 1.531 . S
C1126 H1138 0.960 . S
C1126 H1139 0.962 . S
C1126 H1140 0.960 . S
C1127 C1124 1.511 . S
C1127 H1141 0.961 . S
C1127 H1142 0.961 . S
C1127 H1143 0.961 . S
C1128 C1129 1.370 . S
C1128 C1130 1.363 . S
C1128 H1144 0.931 . S
C1129 C1128 1.370 . S
C1129 C1133 1.408 . S
C1130 C1128 1.363 . S
C1130 C1131 1.370 . S
C1130 C1134 1.524 . S
C1131 C1123 1.503 . S
C1131 C1130 1.370 . S
C1131 C1132 1.403 . S
C1132 C1131 1.403 . S
C1132 C1133 1.404 . S
C1132 C1135 1.539 . S
C1133 C1129 1.408 . S
C1133 C1132 1.404 . S
C1133 H1145 0.930 . S
C1134 C1130 1.524 . S
C1134 H1146 0.956 . S
C1134 H1147 0.961 . S
C1134 H1148 0.961 . S
C1135 C1132 1.539 . S
C1135 H1149 0.958 . S
C1135 H1150 0.961 . S
C1135 H1151 0.960 . S
H1136 C1120 0.931 . S
H1137 C1125 0.929 . S
H1138 C1126 0.960 . S
H1139 C1126 0.962 . S
H1140 C1126 0.960 . S
H1141 C1127 0.961 . S
H1142 C1127 0.961 . S
H1143 C1127 0.961 . S
H1144 C1128 0.931 . S
H1145 C1133 0.930 . S
H1146 C1134 0.956 . S
H1147 C1134 0.961 . S
H1148 C1134 0.961 . S
H1149 C1135 0.958 . S
H1150 C1135 0.961 . S
H1151 C1135 0.960 . S
C1152 C1153 1.391 . S
C1152 C1154 1.394 . S
C1152 H1168 0.931 . S
C1153 C1152 1.391 . S
C1153 C1157 1.376 . S
C1154 C1152 1.394 . S
C1154 C1155 1.369 . S
C1154 C1158 1.531 . S
C1155 C1154 1.369 . S
C1155 C1156 1.410 . S
C1155 C1163 1.503 . S
C1156 C1155 1.410 . S
C1156 C1157 1.392 . S
C1156 C1159 1.511 . S
C1157 C1153 1.376 . S
C1157 C1156 1.392 . S
C1157 H1169 0.929 . S
C1158 C1154 1.531 . S
C1158 H1170 0.960 . S
C1158 H1171 0.962 . S
C1158 H1172 0.960 . S
C1159 C1156 1.511 . S
C1159 H1173 0.961 . S
C1159 H1174 0.961 . S
C1159 H1175 0.961 . S
C1160 C1161 1.370 . S
C1160 C1162 1.363 . S
C1160 H1176 0.931 . S
C1161 C1160 1.370 . S
C1161 C1165 1.408 . S
C1162 C1160 1.363 . S
C1162 C1163 1.370 . S
C1162 C1166 1.524 . S
C1163 C1155 1.503 . S
C1163 C1162 1.370 . S
C1163 C1164 1.403 . S
C1164 C1163 1.403 . S
C1164 C1165 1.404 . S
C1164 C1167 1.539 . S
C1165 C1161 1.408 . S
C1165 C1164 1.404 . S
C1165 H1177 0.930 . S
C1166 C1162 1.524 . S
C1166 H1178 0.956 . S
C1166 H1179 0.961 . S
C1166 H1180 0.961 . S
C1167 C1164 1.539 . S
C1167 H1181 0.958 . S
C1167 H1182 0.961 . S
C1167 H1183 0.960 . S
H1168 C1152 0.931 . S
H1169 C1157 0.929 . S
H1170 C1158 0.960 . S
H1171 C1158 0.962 . S
H1172 C1158 0.960 . S
H1173 C1159 0.961 . S
H1174 C1159 0.961 . S
H1175 C1159 0.961 . S
H1176 C1160 0.931 . S
H1177 C1165 0.930 . S
H1178 C1166 0.956 . S
H1179 C1166 0.961 . S
H1180 C1166 0.961 . S
H1181 C1167 0.958 . S
H1182 C1167 0.961 . S
H1183 C1167 0.960 . S
C1184 C1185 1.391 . S
C1184 C1186 1.394 . S
C1184 H1200 0.931 . S
C1185 C1184 1.391 . S
C1185 C1189 1.376 . S
C1186 C1184 1.394 . S
C1186 C1187 1.369 . S
C1186 C1190 1.531 . S
C1187 C1186 1.369 . S
C1187 C1188 1.410 . S
C1187 C1195 1.503 . S
C1188 C1187 1.410 . S
C1188 C1189 1.392 . S
C1188 C1191 1.511 . S
C1189 C1185 1.376 . S
C1189 C1188 1.392 . S
C1189 H1201 0.929 . S
C1190 C1186 1.531 . S
C1190 H1202 0.960 . S
C1190 H1203 0.962 . S
C1190 H1204 0.960 . S
C1191 C1188 1.511 . S
C1191 H1205 0.961 . S
C1191 H1206 0.961 . S
C1191 H1207 0.961 . S
C1192 C1193 1.370 . S
C1192 C1194 1.363 . S
C1192 H1208 0.931 . S
C1193 C1192 1.370 . S
C1193 C1197 1.408 . S
C1194 C1192 1.363 . S
C1194 C1195 1.370 . S
C1194 C1198 1.524 . S
C1195 C1187 1.503 . S
C1195 C1194 1.370 . S
C1195 C1196 1.403 . S
C1196 C1195 1.403 . S
C1196 C1197 1.404 . S
C1196 C1199 1.539 . S
C1197 C1193 1.408 . S
C1197 C1196 1.404 . S
C1197 H1209 0.930 . S
C1198 C1194 1.524 . S
C1198 H1210 0.956 . S
C1198 H1211 0.961 . S
C1198 H1212 0.961 . S
C1199 C1196 1.539 . S
C1199 H1213 0.958 . S
C1199 H1214 0.961 . S
C1199 H1215 0.960 . S
H1200 C1184 0.931 . S
H1201 C1189 0.929 . S
H1202 C1190 0.960 . S
H1203 C1190 0.962 . S
H1204 C1190 0.960 . S
H1205 C1191 0.961 . S
H1206 C1191 0.961 . S
H1207 C1191 0.961 . S
H1208 C1192 0.931 . S
H1209 C1197 0.930 . S
H1210 C1198 0.956 . S
H1211 C1198 0.961 . S
H1212 C1198 0.961 . S
H1213 C1199 0.958 . S
H1214 C1199 0.961 . S
H1215 C1199 0.960 . S
C1216 C1217 1.391 . S
C1216 C1218 1.394 . S
C1216 H1232 0.931 . S
C1217 C1216 1.391 . S
C1217 C1221 1.376 . S
C1218 C1216 1.394 . S
C1218 C1219 1.369 . S
C1218 C1222 1.531 . S
C1219 C1218 1.369 . S
C1219 C1220 1.410 . S
C1219 C1227 1.503 . S
C1220 C1219 1.410 . S
C1220 C1221 1.392 . S
C1220 C1223 1.511 . S
C1221 C1217 1.376 . S
C1221 C1220 1.392 . S
C1221 H1233 0.929 . S
C1222 C1218 1.531 . S
C1222 H1234 0.960 . S
C1222 H1235 0.962 . S
C1222 H1236 0.960 . S
C1223 C1220 1.511 . S
C1223 H1237 0.961 . S
C1223 H1238 0.961 . S
C1223 H1239 0.961 . S
C1224 C1225 1.370 . S
C1224 C1226 1.363 . S
C1224 H1240 0.931 . S
C1225 C1224 1.370 . S
C1225 C1229 1.408 . S
C1226 C1224 1.363 . S
C1226 C1227 1.370 . S
C1226 C1230 1.524 . S
C1227 C1219 1.503 . S
C1227 C1226 1.370 . S
C1227 C1228 1.403 . S
C1228 C1227 1.403 . S
C1228 C1229 1.404 . S
C1228 C1231 1.539 . S
C1229 C1225 1.408 . S
C1229 C1228 1.404 . S
C1229 H1241 0.930 . S
C1230 C1226 1.524 . S
C1230 H1242 0.956 . S
C1230 H1243 0.961 . S
C1230 H1244 0.961 . S
C1231 C1228 1.539 . S
C1231 H1245 0.958 . S
C1231 H1246 0.961 . S
C1231 H1247 0.960 . S
H1232 C1216 0.931 . S
H1233 C1221 0.929 . S
H1234 C1222 0.960 . S
H1235 C1222 0.962 . S
H1236 C1222 0.960 . S
H1237 C1223 0.961 . S
H1238 C1223 0.961 . S
H1239 C1223 0.961 . S
H1240 C1224 0.931 . S
H1241 C1229 0.930 . S
H1242 C1230 0.956 . S
H1243 C1230 0.961 . S
H1244 C1230 0.961 . S
H1245 C1231 0.958 . S
H1246 C1231 0.961 . S
H1247 C1231 0.960 . S
C1248 C1249 1.391 . S
C1248 C1250 1.394 . S
C1248 H1264 0.931 . S
C1249 C1248 1.391 . S
C1249 C1253 1.376 . S
C1250 C1248 1.394 . S
C1250 C1251 1.369 . S
C1250 C1254 1.531 . S
C1251 C1250 1.369 . S
C1251 C1252 1.410 . S
C1251 C1259 1.503 . S
C1252 C1251 1.410 . S
C1252 C1253 1.392 . S
C1252 C1255 1.511 . S
C1253 C1249 1.376 . S
C1253 C1252 1.392 . S
C1253 H1265 0.929 . S
C1254 C1250 1.531 . S
C1254 H1266 0.960 . S
C1254 H1267 0.962 . S
C1254 H1268 0.960 . S
C1255 C1252 1.511 . S
C1255 H1269 0.961 . S
C1255 H1270 0.961 . S
C1255 H1271 0.961 . S
C1256 C1257 1.370 . S
C1256 C1258 1.363 . S
C1256 H1272 0.931 . S
C1257 C1256 1.370 . S
C1257 C1261 1.408 . S
C1258 C1256 1.363 . S
C1258 C1259 1.370 . S
C1258 C1262 1.524 . S
C1259 C1251 1.503 . S
C1259 C1258 1.370 . S
C1259 C1260 1.403 . S
C1260 C1259 1.403 . S
C1260 C1261 1.404 . S
C1260 C1263 1.539 . S
C1261 C1257 1.408 . S
C1261 C1260 1.404 . S
C1261 H1273 0.930 . S
C1262 C1258 1.524 . S
C1262 H1274 0.956 . S
C1262 H1275 0.961 . S
C1262 H1276 0.961 . S
C1263 C1260 1.539 . S
C1263 H1277 0.958 . S
C1263 H1278 0.961 . S
C1263 H1279 0.960 . S
H1264 C1248 0.931 . S
H1265 C1253 0.929 . S
H1266 C1254 0.960 . S
H1267 C1254 0.962 . S
H1268 C1254 0.960 . S
H1269 C1255 0.961 . S
H1270 C1255 0.961 . S
H1271 C1255 0.961 . S
H1272 C1256 0.931 . S
H1273 C1261 0.930 . S
H1274 C1262 0.956 . S
H1275 C1262 0.961 . S
H1276 C1262 0.961 . S
H1277 C1263 0.958 . S
H1278 C1263 0.961 . S
H1279 C1263 0.960 . S
C1280 C1281 1.391 . S
C1280 C1282 1.394 . S
C1280 H1296 0.931 . S
C1281 C1280 1.391 . S
C1281 C1285 1.376 . S
C1282 C1280 1.394 . S
C1282 C1283 1.369 . S
C1282 C1286 1.531 . S
C1283 C1282 1.369 . S
C1283 C1284 1.410 . S
C1283 C1291 1.503 . S
C1284 C1283 1.410 . S
C1284 C1285 1.392 . S
C1284 C1287 1.511 . S
C1285 C1281 1.376 . S
C1285 C1284 1.392 . S
C1285 H1297 0.929 . S
C1286 C1282 1.531 . S
C1286 H1298 0.960 . S
C1286 H1299 0.962 . S
C1286 H1300 0.960 . S
C1287 C1284 1.511 . S
C1287 H1301 0.961 . S
C1287 H1302 0.961 . S
C1287 H1303 0.961 . S
C1288 C1289 1.370 . S
C1288 C1290 1.363 . S
C1288 H1304 0.931 . S
C1289 C1288 1.370 . S
C1289 C1293 1.408 . S
C1290 C1288 1.363 . S
C1290 C1291 1.370 . S
C1290 C1294 1.524 . S
C1291 C1283 1.503 . S
C1291 C1290 1.370 . S
C1291 C1292 1.403 . S
C1292 C1291 1.403 . S
C1292 C1293 1.404 . S
C1292 C1295 1.539 . S
C1293 C1289 1.408 . S
C1293 C1292 1.404 . S
C1293 H1305 0.930 . S
C1294 C1290 1.524 . S
C1294 H1306 0.956 . S
C1294 H1307 0.961 . S
C1294 H1308 0.961 . S
C1295 C1292 1.539 . S
C1295 H1309 0.958 . S
C1295 H1310 0.961 . S
C1295 H1311 0.960 . S
H1296 C1280 0.931 . S
H1297 C1285 0.929 . S
H1298 C1286 0.960 . S
H1299 C1286 0.962 . S
H1300 C1286 0.960 . S
H1301 C1287 0.961 . S
H1302 C1287 0.961 . S
H1303 C1287 0.961 . S
H1304 C1288 0.931 . S
H1305 C1293 0.930 . S
H1306 C1294 0.956 . S
H1307 C1294 0.961 . S
H1308 C1294 0.961 . S
H1309 C1295 0.958 . S
H1310 C1295 0.961 . S
H1311 C1295 0.960 . S
C1312 C1313 1.391 . S
C1312 C1314 1.394 . S
C1312 H1328 0.931 . S
C1313 C1312 1.391 . S
C1313 C1317 1.376 . S
C1314 C1312 1.394 . S
C1314 C1315 1.369 . S
C1314 C1318 1.531 . S
C1315 C1314 1.369 . S
C1315 C1316 1.410 . S
C1315 C1323 1.503 . S
C1316 C1315 1.410 . S
C1316 C1317 1.392 . S
C1316 C1319 1.511 . S
C1317 C1313 1.376 . S
C1317 C1316 1.392 . S
C1317 H1329 0.929 . S
C1318 C1314 1.531 . S
C1318 H1330 0.960 . S
C1318 H1331 0.962 . S
C1318 H1332 0.960 . S
C1319 C1316 1.511 . S
C1319 H1333 0.961 . S
C1319 H1334 0.961 . S
C1319 H1335 0.961 . S
C1320 C1321 1.370 . S
C1320 C1322 1.363 . S
C1320 H1336 0.931 . S
C1321 C1320 1.370 . S
C1321 C1325 1.408 . S
C1322 C1320 1.363 . S
C1322 C1323 1.370 . S
C1322 C1326 1.524 . S
C1323 C1315 1.503 . S
C1323 C1322 1.370 . S
C1323 C1324 1.403 . S
C1324 C1323 1.403 . S
C1324 C1325 1.404 . S
C1324 C1327 1.539 . S
C1325 C1321 1.408 . S
C1325 C1324 1.404 . S
C1325 H1337 0.930 . S
C1326 C1322 1.524 . S
C1326 H1338 0.956 . S
C1326 H1339 0.961 . S
C1326 H1340 0.961 . S
C1327 C1324 1.539 . S
C1327 H1341 0.958 . S
C1327 H1342 0.961 . S
C1327 H1343 0.960 . S
H1328 C1312 0.931 . S
H1329 C1317 0.929 . S
H1330 C1318 0.960 . S
H1331 C1318 0.962 . S
H1332 C1318 0.960 . S
H1333 C1319 0.961 . S
H1334 C1319 0.961 . S
H1335 C1319 0.961 . S
H1336 C1320 0.931 . S
H1337 C1325 0.930 . S
H1338 C1326 0.956 . S
H1339 C1326 0.961 . S
H1340 C1326 0.961 . S
H1341 C1327 0.958 . S
H1342 C1327 0.961 . S
H1343 C1327 0.960 . S
C1344 C1345 1.391 . S
C1344 C1346 1.394 . S
C1344 H1360 0.931 . S
C1345 C1344 1.391 . S
C1345 C1349 1.376 . S
C1346 C1344 1.394 . S
C1346 C1347 1.369 . S
C1346 C1350 1.531 . S
C1347 C1346 1.369 . S
C1347 C1348 1.410 . S
C1347 C1355 1.503 . S
C1348 C1347 1.410 . S
C1348 C1349 1.392 . S
C1348 C1351 1.511 . S
C1349 C1345 1.376 . S
C1349 C1348 1.392 . S
C1349 H1361 0.929 . S
C1350 C1346 1.531 . S
C1350 H1362 0.960 . S
C1350 H1363 0.962 . S
C1350 H1364 0.960 . S
C1351 C1348 1.511 . S
C1351 H1365 0.961 . S
C1351 H1366 0.961 . S
C1351 H1367 0.961 . S
C1352 C1353 1.370 . S
C1352 C1354 1.363 . S
C1352 H1368 0.931 . S
C1353 C1352 1.370 . S
C1353 C1357 1.408 . S
C1354 C1352 1.363 . S
C1354 C1355 1.370 . S
C1354 C1358 1.524 . S
C1355 C1347 1.503 . S
C1355 C1354 1.370 . S
C1355 C1356 1.403 . S
C1356 C1355 1.403 . S
C1356 C1357 1.404 . S
C1356 C1359 1.539 . S
C1357 C1353 1.408 . S
C1357 C1356 1.404 . S
C1357 H1369 0.930 . S
C1358 C1354 1.524 . S
C1358 H1370 0.956 . S
C1358 H1371 0.961 . S
C1358 H1372 0.961 . S
C1359 C1356 1.539 . S
C1359 H1373 0.958 . S
C1359 H1374 0.961 . S
C1359 H1375 0.960 . S
H1360 C1344 0.931 . S
H1361 C1349 0.929 . S
H1362 C1350 0.960 . S
H1363 C1350 0.962 . S
H1364 C1350 0.960 . S
H1365 C1351 0.961 . S
H1366 C1351 0.961 . S
H1367 C1351 0.961 . S
H1368 C1352 0.931 . S
H1369 C1357 0.930 . S
H1370 C1358 0.956 . S
H1371 C1358 0.961 . S
H1372 C1358 0.961 . S
H1373 C1359 0.958 . S
H1374 C1359 0.961 . S
H1375 C1359 0.960 . S
C1376 C1377 1.391 . S
C1376 C1378 1.394 . S
C1376 H1392 0.931 . S
C1377 C1376 1.391 . S
C1377 C1381 1.376 1_554 S
C1378 C1376 1.394 . S
C1378 C1379 1.369 . S
C1378 C1382 1.531 . S
C1379 C1378 1.369 . S
C1379 C1380 1.410 1_554 S
C1379 C1387 1.503 1_655 S
C1380 C1379 1.410 1_556 S
C1380 C1381 1.392 . S
C1380 C1383 1.511 . S
C1381 C1377 1.376 1_556 S
C1381 C1380 1.392 . S
C1381 H1393 0.929 . S
C1382 C1378 1.531 . S
C1382 H1394 0.960 1_655 S
C1382 H1395 0.962 . S
C1382 H1396 0.960 . S
C1383 C1380 1.511 . S
C1383 H1397 0.961 . S
C1383 H1398 0.961 1_655 S
C1383 H1399 0.961 . S
C1384 C1385 1.370 . S
C1384 C1386 1.363 . S
C1384 H1400 0.931 . S
C1385 C1384 1.370 . S
C1385 C1389 1.408 . S
C1386 C1384 1.363 . S
C1386 C1387 1.370 . S
C1386 C1390 1.524 . S
C1387 C1379 1.503 1_455 S
C1387 C1386 1.370 . S
C1387 C1388 1.403 . S
C1388 C1387 1.403 . S
C1388 C1389 1.404 . S
C1388 C1391 1.539 . S
C1389 C1385 1.408 . S
C1389 C1388 1.404 . S
C1389 H1401 0.930 . S
C1390 C1386 1.524 . S
C1390 H1402 0.956 . S
C1390 H1403 0.961 1_455 S
C1390 H1404 0.961 . S
C1391 C1388 1.539 . S
C1391 H1405 0.958 . S
C1391 H1406 0.961 1_554 S
C1391 H1407 0.970 1_554 S
H1392 C1376 0.931 . S
H1393 C1381 0.929 . S
H1394 C1382 0.960 1_455 S
H1395 C1382 0.962 . S
H1396 C1382 0.960 . S
H1397 C1383 0.961 . S
H1398 C1383 0.961 1_455 S
H1399 C1383 0.961 . S
H1400 C1384 0.931 . S
H1401 C1389 0.930 . S
H1402 C1390 0.956 . S
H1403 C1390 0.961 1_655 S
H1404 C1390 0.961 . S
H1405 C1391 0.958 . S
H1406 C1391 0.961 1_556 S
H1407 C1391 0.970 1_556 S
C1408 C1409 1.391 . S
C1408 C1410 1.394 . S
C1408 H1424 0.931 . S
C1409 C1408 1.391 . S
C1409 C1413 1.376 . S
C1410 C1408 1.394 . S
C1410 C1411 1.369 . S
C1410 C1414 1.531 . S
C1411 C1410 1.369 . S
C1411 C1412 1.410 . S
C1411 C1419 1.503 . S
C1412 C1411 1.410 . S
C1412 C1413 1.392 . S
C1412 C1415 1.511 . S
C1413 C1409 1.376 . S
C1413 C1412 1.392 . S
C1413 H1425 0.929 . S
C1414 C1410 1.531 . S
C1414 H1426 0.960 . S
C1414 H1427 0.962 . S
C1414 H1428 0.960 . S
C1415 C1412 1.511 . S
C1415 H1429 0.961 . S
C1415 H1430 0.961 . S
C1415 H1431 0.961 . S
C1416 C1417 1.370 . S
C1416 C1418 1.363 . S
C1416 H1432 0.931 . S
C1417 C1416 1.370 . S
C1417 C1421 1.408 . S
C1418 C1416 1.363 . S
C1418 C1419 1.370 . S
C1418 C1422 1.524 . S
C1419 C1411 1.503 . S
C1419 C1418 1.370 . S
C1419 C1420 1.403 . S
C1420 C1419 1.403 . S
C1420 C1421 1.404 . S
C1420 C1423 1.539 . S
C1421 C1417 1.408 . S
C1421 C1420 1.404 . S
C1421 H1433 0.930 . S
C1422 C1418 1.524 . S
C1422 H1434 0.956 . S
C1422 H1435 0.961 . S
C1422 H1436 0.961 . S
C1423 C1420 1.539 . S
C1423 H1437 0.958 . S
C1423 H1438 0.961 . S
C1423 H1439 0.960 . S
H1424 C1408 0.931 . S
H1425 C1413 0.929 . S
H1426 C1414 0.960 . S
H1427 C1414 0.962 . S
H1428 C1414 0.960 . S
H1429 C1415 0.961 . S
H1430 C1415 0.961 . S
H1431 C1415 0.961 . S
H1432 C1416 0.931 . S
H1433 C1421 0.930 . S
H1434 C1422 0.956 . S
H1435 C1422 0.961 . S
H1436 C1422 0.961 . S
H1437 C1423 0.958 . S
H1438 C1423 0.961 . S
H1439 C1423 0.960 . S
C1440 C1441 1.391 . S
C1440 C1442 1.394 . S
C1440 H1456 0.931 . S
C1441 C1440 1.391 . S
C1441 C1445 1.368 1_556 S
C1442 C1440 1.394 . S
C1442 C1443 1.369 . S
C1442 C1446 1.531 . S
C1443 C1442 1.369 . S
C1443 C1444 1.408 . S
C1443 C1451 1.503 1_455 S
C1444 C1443 1.408 . S
C1444 C1445 1.392 1_556 S
C1444 C1447 1.513 1_556 S
C1445 C1441 1.368 1_554 S
C1445 C1444 1.392 1_554 S
C1445 H1457 0.937 . S
C1446 C1442 1.531 . S
C1446 H1458 0.960 1_455 S
C1446 H1459 0.962 . S
C1446 H1460 0.960 . S
C1447 C1444 1.513 1_554 S
C1447 H1461 0.961 . S
C1447 H1462 0.961 1_455 S
C1447 H1463 0.961 . S
C1448 C1449 1.370 . S
C1448 C1450 1.363 . S
C1448 H1464 0.931 . S
C1449 C1448 1.370 . S
C1449 C1453 1.408 . S
C1450 C1448 1.363 . S
C1450 C1451 1.370 . S
C1450 C1454 1.548 . S
C1451 C1443 1.503 1_655 S
C1451 C1450 1.370 . S
C1451 C1452 1.403 . S
C1452 C1451 1.403 . S
C1452 C1453 1.404 . S
C1452 C1455 1.539 . S
C1453 C1449 1.408 . S
C1453 C1452 1.404 . S
C1453 H1465 0.930 . S
C1454 C1450 1.548 . S
C1454 H1466 1.005 . S
C1454 H1467 0.917 1_656 S
C1454 H1468 0.936 1_556 S
C1455 C1452 1.539 . S
C1455 H1469 0.958 . S
C1455 H1470 0.961 . S
C1455 H1471 0.970 . S
H1456 C1440 0.931 . S
H1457 C1445 0.937 . S
H1458 C1446 0.960 1_655 S
H1459 C1446 0.962 . S
H1460 C1446 0.960 . S
H1461 C1447 0.961 . S
H1462 C1447 0.961 1_655 S
H1463 C1447 0.961 . S
H1464 C1448 0.931 . S
H1465 C1453 0.930 . S
H1466 C1454 1.005 . S
H1467 C1454 0.917 1_454 S
H1468 C1454 0.936 1_554 S
H1469 C1455 0.958 . S
H1470 C1455 0.961 . S
H1471 C1455 0.970 . S
C1472 C1473 1.378 1_554 S
C1472 C1474 1.403 . S
C1472 H1488 0.937 . S
C1473 C1472 1.378 1_556 S
C1473 C1477 1.376 . S
C1474 C1472 1.403 . S
C1474 C1475 1.369 . S
C1474 C1478 1.531 . S
C1475 C1474 1.369 . S
C1475 C1476 1.410 1_554 S
C1475 C1483 1.503 . S
C1476 C1475 1.410 1_556 S
C1476 C1477 1.392 . S
C1476 C1479 1.511 . S
C1477 C1473 1.376 . S
C1477 C1476 1.392 . S
C1477 H1489 0.929 . S
C1478 C1474 1.531 . S
C1478 H1490 0.960 . S
C1478 H1491 0.981 . S
C1478 H1492 0.960 . S
C1479 C1476 1.511 . S
C1479 H1493 0.961 . S
C1479 H1494 0.961 . S
C1479 H1495 0.961 1_556 S
C1480 C1481 1.370 1_556 S
C1480 C1482 1.363 . S
C1480 H1496 0.931 . S
C1481 C1480 1.370 1_554 S
C1481 C1485 1.408 . S
C1482 C1480 1.363 . S
C1482 C1483 1.370 1_556 S
C1482 C1486 1.524 . S
C1483 C1475 1.503 . S
C1483 C1482 1.370 1_554 S
C1483 C1484 1.403 . S
C1484 C1483 1.403 . S
C1484 C1485 1.404 . S
C1484 C1487 1.539 . S
C1485 C1481 1.408 . S
C1485 C1484 1.404 . S
C1485 H1497 0.930 . S
C1486 C1482 1.524 . S
C1486 H1498 0.956 . S
C1486 H1499 0.961 . S
C1486 H1500 0.961 . S
C1487 C1484 1.539 . S
C1487 H1501 0.958 . S
C1487 H1502 0.961 . S
C1487 H1503 0.960 . S
H1488 C1472 0.937 . S
H1489 C1477 0.929 . S
H1490 C1478 0.960 . S
H1491 C1478 0.981 . S
H1492 C1478 0.960 . S
H1493 C1479 0.961 . S
H1494 C1479 0.961 . S
H1495 C1479 0.961 1_554 S
H1496 C1480 0.931 . S
H1497 C1485 0.930 . S
H1498 C1486 0.956 . S
H1499 C1486 0.961 . S
H1500 C1486 0.961 . S
H1501 C1487 0.958 . S
H1502 C1487 0.961 . S
H1503 C1487 0.960 . S
C1504 C1505 1.391 . S
C1504 C1506 1.394 . S
C1504 H1520 0.931 . S
C1505 C1504 1.391 . S
C1505 C1509 1.376 . S
C1506 C1504 1.394 . S
C1506 C1507 1.369 . S
C1506 C1510 1.531 . S
C1507 C1506 1.369 . S
C1507 C1508 1.410 . S
C1507 C1515 1.503 . S
C1508 C1507 1.410 . S
C1508 C1509 1.392 . S
C1508 C1511 1.511 . S
C1509 C1505 1.376 . S
C1509 C1508 1.392 . S
C1509 H1521 0.929 . S
C1510 C1506 1.531 . S
C1510 H1522 0.960 . S
C1510 H1523 0.962 . S
C1510 H1524 0.960 . S
C1511 C1508 1.511 . S
C1511 H1525 0.961 . S
C1511 H1526 0.961 . S
C1511 H1527 0.961 . S
C1512 C1513 1.370 . S
C1512 C1514 1.363 . S
C1512 H1528 0.931 . S
C1513 C1512 1.370 . S
C1513 C1517 1.408 . S
C1514 C1512 1.363 . S
C1514 C1515 1.370 . S
C1514 C1518 1.524 . S
C1515 C1507 1.503 . S
C1515 C1514 1.370 . S
C1515 C1516 1.403 . S
C1516 C1515 1.403 . S
C1516 C1517 1.404 . S
C1516 C1519 1.539 . S
C1517 C1513 1.408 . S
C1517 C1516 1.404 . S
C1517 H1529 0.930 . S
C1518 C1514 1.524 . S
C1518 H1530 0.956 . S
C1518 H1531 0.961 . S
C1518 H1532 0.961 . S
C1519 C1516 1.539 . S
C1519 H1533 0.958 . S
C1519 H1534 0.961 . S
C1519 H1535 0.960 . S
H1520 C1504 0.931 . S
H1521 C1509 0.929 . S
H1522 C1510 0.960 . S
H1523 C1510 0.962 . S
H1524 C1510 0.960 . S
H1525 C1511 0.961 . S
H1526 C1511 0.961 . S
H1527 C1511 0.961 . S
H1528 C1512 0.931 . S
H1529 C1517 0.930 . S
H1530 C1518 0.956 . S
H1531 C1518 0.961 . S
H1532 C1518 0.961 . S
H1533 C1519 0.958 . S
H1534 C1519 0.961 . S
H1535 C1519 0.960 . S
C1536 C1537 1.391 . S
C1536 C1538 1.394 . S
C1536 H1552 0.931 . S
C1537 C1536 1.391 . S
C1537 C1541 1.376 . S
C1538 C1536 1.394 . S
C1538 C1539 1.369 . S
C1538 C1542 1.531 . S
C1539 C1538 1.369 . S
C1539 C1540 1.410 . S
C1539 C1547 1.503 . S
C1540 C1539 1.410 . S
C1540 C1541 1.392 . S
C1540 C1543 1.511 . S
C1541 C1537 1.376 . S
C1541 C1540 1.392 . S
C1541 H1553 0.929 . S
C1542 C1538 1.531 . S
C1542 H1554 0.960 . S
C1542 H1555 0.962 . S
C1542 H1556 0.960 . S
C1543 C1540 1.511 . S
C1543 H1557 0.961 . S
C1543 H1558 0.961 . S
C1543 H1559 0.961 . S
C1544 C1545 1.370 . S
C1544 C1546 1.363 . S
C1544 H1560 0.931 . S
C1545 C1544 1.370 . S
C1545 C1549 1.408 . S
C1546 C1544 1.363 . S
C1546 C1547 1.370 . S
C1546 C1550 1.524 . S
C1547 C1539 1.503 . S
C1547 C1546 1.370 . S
C1547 C1548 1.403 . S
C1548 C1547 1.403 . S
C1548 C1549 1.404 . S
C1548 C1551 1.539 . S
C1549 C1545 1.408 . S
C1549 C1548 1.404 . S
C1549 H1561 0.930 . S
C1550 C1546 1.524 . S
C1550 H1562 0.956 . S
C1550 H1563 0.961 . S
C1550 H1564 0.961 . S
C1551 C1548 1.539 . S
C1551 H1565 0.958 . S
C1551 H1566 0.961 . S
C1551 H1567 0.960 . S
H1552 C1536 0.931 . S
H1553 C1541 0.929 . S
H1554 C1542 0.960 . S
H1555 C1542 0.962 . S
H1556 C1542 0.960 . S
H1557 C1543 0.961 . S
H1558 C1543 0.961 . S
H1559 C1543 0.961 . S
H1560 C1544 0.931 . S
H1561 C1549 0.930 . S
H1562 C1550 0.956 . S
H1563 C1550 0.961 . S
H1564 C1550 0.961 . S
H1565 C1551 0.958 . S
H1566 C1551 0.961 . S
H1567 C1551 0.960 . S
C1568 C1569 1.391 . S
C1568 C1570 1.394 . S
C1568 H1584 0.931 . S
C1569 C1568 1.391 . S
C1569 C1573 1.376 . S
C1570 C1568 1.394 . S
C1570 C1571 1.369 . S
C1570 C1574 1.531 . S
C1571 C1570 1.369 . S
C1571 C1572 1.410 . S
C1571 C1579 1.503 . S
C1572 C1571 1.410 . S
C1572 C1573 1.392 . S
C1572 C1575 1.511 . S
C1573 C1569 1.376 . S
C1573 C1572 1.392 . S
C1573 H1585 0.929 . S
C1574 C1570 1.531 . S
C1574 H1586 0.960 . S
C1574 H1587 0.962 . S
C1574 H1588 0.960 . S
C1575 C1572 1.511 . S
C1575 H1589 0.961 . S
C1575 H1590 0.961 . S
C1575 H1591 0.961 . S
C1576 C1577 1.370 . S
C1576 C1578 1.363 . S
C1576 H1592 0.931 . S
C1577 C1576 1.370 . S
C1577 C1581 1.408 . S
C1578 C1576 1.363 . S
C1578 C1579 1.370 . S
C1578 C1582 1.524 . S
C1579 C1571 1.503 . S
C1579 C1578 1.370 . S
C1579 C1580 1.403 . S
C1580 C1579 1.403 . S
C1580 C1581 1.404 . S
C1580 C1583 1.539 . S
C1581 C1577 1.408 . S
C1581 C1580 1.404 . S
C1581 H1593 0.930 . S
C1582 C1578 1.524 . S
C1582 H1594 0.956 . S
C1582 H1595 0.961 . S
C1582 H1596 0.961 . S
C1583 C1580 1.539 . S
C1583 H1597 0.958 . S
C1583 H1598 0.961 . S
C1583 H1599 0.960 . S
H1584 C1568 0.931 . S
H1585 C1573 0.929 . S
H1586 C1574 0.960 . S
H1587 C1574 0.962 . S
H1588 C1574 0.960 . S
H1589 C1575 0.961 . S
H1590 C1575 0.961 . S
H1591 C1575 0.961 . S
H1592 C1576 0.931 . S
H1593 C1581 0.930 . S
H1594 C1582 0.956 . S
H1595 C1582 0.961 . S
H1596 C1582 0.961 . S
H1597 C1583 0.958 . S
H1598 C1583 0.961 . S
H1599 C1583 0.960 . S
C1600 C1601 1.391 . S
C1600 C1602 1.394 . S
C1600 H1616 0.931 . S
C1601 C1600 1.391 . S
C1601 C1605 1.376 1_554 S
C1602 C1600 1.394 . S
C1602 C1603 1.369 1_554 S
C1602 C1606 1.531 . S
C1603 C1602 1.369 1_556 S
C1603 C1604 1.410 . S
C1603 C1611 1.503 . S
C1604 C1603 1.410 . S
C1604 C1605 1.392 . S
C1604 C1607 1.511 . S
C1605 C1601 1.376 1_556 S
C1605 C1604 1.392 . S
C1605 H1617 0.929 . S
C1606 C1602 1.531 . S
C1606 H1618 0.960 . S
C1606 H1619 0.962 . S
C1606 H1620 0.960 . S
C1607 C1604 1.511 . S
C1607 H1621 0.961 . S
C1607 H1622 0.961 . S
C1607 H1623 0.961 . S
C1608 C1609 1.370 1_554 S
C1608 C1610 1.363 . S
C1608 H1624 0.931 . S
C1609 C1608 1.370 1_556 S
C1609 C1613 1.408 . S
C1610 C1608 1.363 . S
C1610 C1611 1.370 1_554 S
C1610 C1614 1.524 . S
C1611 C1603 1.503 . S
C1611 C1610 1.370 1_556 S
C1611 C1612 1.403 . S
C1612 C1611 1.403 . S
C1612 C1613 1.404 . S
C1612 C1615 1.539 . S
C1613 C1609 1.408 . S
C1613 C1612 1.404 . S
C1613 H1625 0.930 . S
C1614 C1610 1.524 . S
C1614 H1626 0.956 . S
C1614 H1627 0.961 . S
C1614 H1628 0.961 . S
C1615 C1612 1.539 . S
C1615 H1629 0.958 . S
C1615 H1630 0.961 . S
C1615 H1631 0.960 . S
H1616 C1600 0.931 . S
H1617 C1605 0.929 . S
H1618 C1606 0.960 . S
H1619 C1606 0.962 . S
H1620 C1606 0.960 . S
H1621 C1607 0.961 . S
H1622 C1607 0.961 . S
H1623 C1607 0.961 . S
H1624 C1608 0.931 . S
H1625 C1613 0.930 . S
H1626 C1614 0.956 . S
H1627 C1614 0.961 . S
H1628 C1614 0.961 . S
H1629 C1615 0.958 . S
H1630 C1615 0.961 . S
H1631 C1615 0.960 . S
C1632 C1633 1.391 . S
C1632 C1634 1.394 . S
C1632 H1648 0.931 . S
C1633 C1632 1.391 . S
C1633 C1637 1.376 . S
C1634 C1632 1.394 . S
C1634 C1635 1.369 . S
C1634 C1638 1.531 . S
C1635 C1634 1.369 . S
C1635 C1636 1.410 . S
C1635 C1643 1.503 . S
C1636 C1635 1.410 . S
C1636 C1637 1.392 . S
C1636 C1639 1.511 . S
C1637 C1633 1.376 . S
C1637 C1636 1.392 . S
C1637 H1649 0.929 . S
C1638 C1634 1.531 . S
C1638 H1650 0.960 . S
C1638 H1651 0.962 . S
C1638 H1652 0.960 . S
C1639 C1636 1.511 . S
C1639 H1653 0.961 . S
C1639 H1654 0.961 . S
C1639 H1655 0.961 . S
C1640 C1641 1.370 . S
C1640 C1642 1.363 . S
C1640 H1656 0.931 . S
C1641 C1640 1.370 . S
C1641 C1645 1.408 . S
C1642 C1640 1.363 . S
C1642 C1643 1.370 . S
C1642 C1646 1.524 . S
C1643 C1635 1.503 . S
C1643 C1642 1.370 . S
C1643 C1644 1.403 . S
C1644 C1643 1.403 . S
C1644 C1645 1.404 . S
C1644 C1647 1.539 . S
C1645 C1641 1.408 . S
C1645 C1644 1.404 . S
C1645 H1657 0.930 . S
C1646 C1642 1.524 . S
C1646 H1658 0.956 . S
C1646 H1659 0.961 . S
C1646 H1660 0.961 . S
C1647 C1644 1.539 . S
C1647 H1661 0.958 . S
C1647 H1662 0.961 . S
C1647 H1663 0.960 . S
H1648 C1632 0.931 . S
H1649 C1637 0.929 . S
H1650 C1638 0.960 . S
H1651 C1638 0.962 . S
H1652 C1638 0.960 . S
H1653 C1639 0.961 . S
H1654 C1639 0.961 . S
H1655 C1639 0.961 . S
H1656 C1640 0.931 . S
H1657 C1645 0.930 . S
H1658 C1646 0.956 . S
H1659 C1646 0.961 . S
H1660 C1646 0.961 . S
H1661 C1647 0.958 . S
H1662 C1647 0.961 . S
H1663 C1647 0.960 . S
C1664 C1665 1.391 . S
C1664 C1666 1.394 . S
C1664 H1680 0.931 . S
C1665 C1664 1.391 . S
C1665 C1669 1.376 . S
C1666 C1664 1.394 . S
C1666 C1667 1.369 . S
C1666 C1670 1.531 . S
C1667 C1666 1.369 . S
C1667 C1668 1.410 . S
C1667 C1675 1.503 . S
C1668 C1667 1.410 . S
C1668 C1669 1.392 . S
C1668 C1671 1.511 . S
C1669 C1665 1.376 . S
C1669 C1668 1.392 . S
C1669 H1681 0.929 . S
C1670 C1666 1.531 . S
C1670 H1682 0.960 . S
C1670 H1683 0.962 . S
C1670 H1684 0.960 . S
C1671 C1668 1.511 . S
C1671 H1685 0.961 . S
C1671 H1686 0.961 . S
C1671 H1687 0.961 . S
C1672 C1673 1.370 . S
C1672 C1674 1.363 . S
C1672 H1688 0.931 . S
C1673 C1672 1.370 . S
C1673 C1677 1.408 . S
C1674 C1672 1.363 . S
C1674 C1675 1.370 . S
C1674 C1678 1.524 . S
C1675 C1667 1.503 . S
C1675 C1674 1.370 . S
C1675 C1676 1.403 . S
C1676 C1675 1.403 . S
C1676 C1677 1.404 . S
C1676 C1679 1.539 . S
C1677 C1673 1.408 . S
C1677 C1676 1.404 . S
C1677 H1689 0.930 . S
C1678 C1674 1.524 . S
C1678 H1690 0.956 . S
C1678 H1691 0.961 . S
C1678 H1692 0.961 . S
C1679 C1676 1.539 . S
C1679 H1693 0.958 . S
C1679 H1694 0.961 . S
C1679 H1695 0.960 . S
H1680 C1664 0.931 . S
H1681 C1669 0.929 . S
H1682 C1670 0.960 . S
H1683 C1670 0.962 . S
H1684 C1670 0.960 . S
H1685 C1671 0.961 . S
H1686 C1671 0.961 . S
H1687 C1671 0.961 . S
H1688 C1672 0.931 . S
H1689 C1677 0.930 . S
H1690 C1678 0.956 . S
H1691 C1678 0.961 . S
H1692 C1678 0.961 . S
H1693 C1679 0.958 . S
H1694 C1679 0.961 . S
H1695 C1679 0.960 . S
C1696 C1697 1.391 . S
C1696 C1698 1.394 . S
C1696 H1712 0.931 . S
C1697 C1696 1.391 . S
C1697 C1701 1.376 . S
C1698 C1696 1.394 . S
C1698 C1699 1.369 . S
C1698 C1702 1.531 . S
C1699 C1698 1.369 . S
C1699 C1700 1.410 . S
C1699 C1707 1.503 . S
C1700 C1699 1.410 . S
C1700 C1701 1.392 . S
C1700 C1703 1.511 . S
C1701 C1697 1.376 . S
C1701 C1700 1.392 . S
C1701 H1713 0.929 . S
C1702 C1698 1.531 . S
C1702 H1714 0.960 . S
C1702 H1715 0.962 . S
C1702 H1716 0.960 . S
C1703 C1700 1.511 . S
C1703 H1717 0.961 . S
C1703 H1718 0.961 . S
C1703 H1719 0.961 . S
C1704 C1705 1.370 . S
C1704 C1706 1.363 . S
C1704 H1720 0.931 . S
C1705 C1704 1.370 . S
C1705 C1709 1.408 . S
C1706 C1704 1.363 . S
C1706 C1707 1.370 . S
C1706 C1710 1.524 . S
C1707 C1699 1.503 . S
C1707 C1706 1.370 . S
C1707 C1708 1.403 . S
C1708 C1707 1.403 . S
C1708 C1709 1.404 . S
C1708 C1711 1.539 . S
C1709 C1705 1.408 . S
C1709 C1708 1.404 . S
C1709 H1721 0.930 . S
C1710 C1706 1.524 . S
C1710 H1722 0.956 . S
C1710 H1723 0.961 . S
C1710 H1724 0.961 . S
C1711 C1708 1.539 . S
C1711 H1725 0.958 . S
C1711 H1726 0.961 . S
C1711 H1727 0.960 . S
H1712 C1696 0.931 . S
H1713 C1701 0.929 . S
H1714 C1702 0.960 . S
H1715 C1702 0.962 . S
H1716 C1702 0.960 . S
H1717 C1703 0.961 . S
H1718 C1703 0.961 . S
H1719 C1703 0.961 . S
H1720 C1704 0.931 . S
H1721 C1709 0.930 . S
H1722 C1710 0.956 . S
H1723 C1710 0.961 . S
H1724 C1710 0.961 . S
H1725 C1711 0.958 . S
H1726 C1711 0.961 . S
H1727 C1711 0.960 . S
C1728 C1729 1.391 . S
C1728 C1730 1.394 . S
C1728 H1744 0.931 . S
C1729 C1728 1.391 . S
C1729 C1733 1.376 . S
C1730 C1728 1.394 . S
C1730 C1731 1.369 . S
C1730 C1734 1.531 . S
C1731 C1730 1.369 . S
C1731 C1732 1.410 . S
C1731 C1739 1.503 1_545 S
C1732 C1731 1.410 . S
C1732 C1733 1.392 . S
C1732 C1735 1.511 . S
C1733 C1729 1.376 . S
C1733 C1732 1.392 . S
C1733 H1745 0.929 . S
C1734 C1730 1.531 . S
C1734 H1746 0.960 . S
C1734 H1747 0.962 . S
C1734 H1748 0.960 . S
C1735 C1732 1.511 . S
C1735 H1749 0.961 . S
C1735 H1750 0.961 1_545 S
C1735 H1751 0.961 . S
C1736 C1737 1.370 . S
C1736 C1738 1.363 . S
C1736 H1752 0.931 . S
C1737 C1736 1.370 . S
C1737 C1741 1.408 . S
C1738 C1736 1.363 . S
C1738 C1739 1.370 . S
C1738 C1742 1.524 . S
C1739 C1731 1.503 1_565 S
C1739 C1738 1.370 . S
C1739 C1740 1.403 . S
C1740 C1739 1.403 . S
C1740 C1741 1.404 . S
C1740 C1743 1.539 . S
C1741 C1737 1.408 . S
C1741 C1740 1.404 . S
C1741 H1753 0.930 . S
C1742 C1738 1.524 . S
C1742 H1754 0.956 . S
C1742 H1755 0.961 . S
C1742 H1756 0.961 . S
C1743 C1740 1.539 . S
C1743 H1757 0.958 . S
C1743 H1758 0.961 . S
C1743 H1759 0.960 1_565 S
H1744 C1728 0.931 . S
H1745 C1733 0.929 . S
H1746 C1734 0.960 . S
H1747 C1734 0.962 . S
H1748 C1734 0.960 . S
H1749 C1735 0.961 . S
H1750 C1735 0.961 1_565 S
H1751 C1735 0.961 . S
H1752 C1736 0.931 . S
H1753 C1741 0.930 . S
H1754 C1742 0.956 . S
H1755 C1742 0.961 . S
H1756 C1742 0.961 . S
H1757 C1743 0.958 . S
H1758 C1743 0.961 . S
H1759 C1743 0.960 1_545 S
C1760 C1761 1.391 . S
C1760 C1762 1.394 . S
C1760 H1776 0.931 . S
C1761 C1760 1.391 . S
C1761 C1765 1.376 . S
C1762 C1760 1.394 . S
C1762 C1763 1.369 . S
C1762 C1766 1.531 . S
C1763 C1762 1.369 . S
C1763 C1764 1.410 . S
C1763 C1771 1.503 . S
C1764 C1763 1.410 . S
C1764 C1765 1.392 . S
C1764 C1767 1.511 . S
C1765 C1761 1.376 . S
C1765 C1764 1.392 . S
C1765 H1777 0.929 . S
C1766 C1762 1.531 . S
C1766 H1778 0.960 . S
C1766 H1779 0.962 . S
C1766 H1780 0.960 . S
C1767 C1764 1.511 . S
C1767 H1781 0.961 . S
C1767 H1782 0.961 . S
C1767 H1783 0.961 . S
C1768 C1769 1.370 . S
C1768 C1770 1.363 . S
C1768 H1784 0.931 . S
C1769 C1768 1.370 . S
C1769 C1773 1.408 . S
C1770 C1768 1.363 . S
C1770 C1771 1.370 . S
C1770 C1774 1.524 . S
C1771 C1763 1.503 . S
C1771 C1770 1.370 . S
C1771 C1772 1.403 . S
C1772 C1771 1.403 . S
C1772 C1773 1.404 . S
C1772 C1775 1.539 . S
C1773 C1769 1.408 . S
C1773 C1772 1.404 . S
C1773 H1785 0.930 . S
C1774 C1770 1.524 . S
C1774 H1786 0.956 . S
C1774 H1787 0.961 . S
C1774 H1788 0.961 . S
C1775 C1772 1.539 . S
C1775 H1789 0.958 . S
C1775 H1790 0.961 . S
C1775 H1791 0.960 . S
H1776 C1760 0.931 . S
H1777 C1765 0.929 . S
H1778 C1766 0.960 . S
H1779 C1766 0.962 . S
H1780 C1766 0.960 . S
H1781 C1767 0.961 . S
H1782 C1767 0.961 . S
H1783 C1767 0.961 . S
H1784 C1768 0.931 . S
H1785 C1773 0.930 . S
H1786 C1774 0.956 . S
H1787 C1774 0.961 . S
H1788 C1774 0.961 . S
H1789 C1775 0.958 . S
H1790 C1775 0.961 . S
H1791 C1775 0.960 . S
C1792 C1793 1.391 . S
C1792 C1794 1.394 . S
C1792 H1808 0.931 . S
C1793 C1792 1.391 . S
C1793 C1797 1.376 1_554 S
C1794 C1792 1.394 . S
C1794 C1795 1.400 . S
C1794 C1798 1.531 . S
C1795 C1794 1.400 . S
C1795 C1796 1.384 1_554 S
C1795 C1803 1.499 1_564 S
C1796 C1795 1.384 1_556 S
C1796 C1797 1.392 . S
C1796 C1799 1.511 . S
C1797 C1793 1.376 1_556 S
C1797 C1796 1.392 . S
C1797 H1809 0.929 . S
C1798 C1794 1.531 . S
C1798 H1810 0.960 1_565 S
C1798 H1811 0.962 . S
C1798 H1812 0.960 . S
C1799 C1796 1.511 . S
C1799 H1813 0.961 . S
C1799 H1814 0.961 . S
C1799 H1815 0.961 . S
C1800 C1801 1.370 . S
C1800 C1802 1.363 1_556 S
C1800 H1816 0.931 1_556 S
C1801 C1800 1.370 . S
C1801 C1805 1.408 . S
C1802 C1800 1.363 1_554 S
C1802 C1803 1.370 1_554 S
C1802 C1806 1.524 . S
C1803 C1795 1.499 1_546 S
C1803 C1802 1.370 1_556 S
C1803 C1804 1.403 . S
C1804 C1803 1.403 . S
C1804 C1805 1.404 . S
C1804 C1807 1.539 . S
C1805 C1801 1.408 . S
C1805 C1804 1.404 . S
C1805 H1817 0.930 . S
C1806 C1802 1.524 . S
C1806 H1818 0.956 . S
C1806 H1819 0.961 1_544 S
C1806 H1820 0.961 . S
C1807 C1804 1.539 . S
C1807 H1821 0.958 . S
C1807 H1822 0.961 . S
C1807 H1823 0.960 1_545 S
H1808 C1792 0.931 . S
H1809 C1797 0.929 . S
H1810 C1798 0.960 1_545 S
H1811 C1798 0.962 . S
H1812 C1798 0.960 . S
H1813 C1799 0.961 . S
H1814 C1799 0.961 . S
H1815 C1799 0.961 . S
H1816 C1800 0.931 1_554 S
H1817 C1805 0.930 . S
H1818 C1806 0.956 . S
H1819 C1806 0.961 1_566 S
H1820 C1806 0.961 . S
H1821 C1807 0.958 . S
H1822 C1807 0.961 . S
H1823 C1807 0.960 1_565 S
C1824 C1825 1.391 . S
C1824 C1826 1.394 . S
C1824 H1840 0.931 . S
C1825 C1824 1.391 . S
C1825 C1829 1.376 . S
C1826 C1824 1.394 . S
C1826 C1827 1.369 . S
C1826 C1830 1.531 . S
C1827 C1826 1.369 . S
C1827 C1828 1.410 . S
C1827 C1835 1.503 . S
C1828 C1827 1.410 . S
C1828 C1829 1.392 . S
C1828 C1831 1.511 . S
C1829 C1825 1.376 . S
C1829 C1828 1.392 . S
C1829 H1841 0.929 . S
C1830 C1826 1.531 . S
C1830 H1842 0.960 . S
C1830 H1843 0.962 . S
C1830 H1844 0.960 . S
C1831 C1828 1.511 . S
C1831 H1845 0.961 . S
C1831 H1846 0.961 . S
C1831 H1847 0.961 . S
C1832 C1833 1.370 . S
C1832 C1834 1.363 . S
C1832 H1848 0.931 . S
C1833 C1832 1.370 . S
C1833 C1837 1.408 . S
C1834 C1832 1.363 . S
C1834 C1835 1.370 . S
C1834 C1838 1.524 . S
C1835 C1827 1.503 . S
C1835 C1834 1.370 . S
C1835 C1836 1.403 . S
C1836 C1835 1.403 . S
C1836 C1837 1.404 . S
C1836 C1839 1.539 . S
C1837 C1833 1.408 . S
C1837 C1836 1.404 . S
C1837 H1849 0.930 . S
C1838 C1834 1.524 . S
C1838 H1850 0.956 . S
C1838 H1851 0.961 . S
C1838 H1852 0.961 . S
C1839 C1836 1.539 . S
C1839 H1853 0.958 . S
C1839 H1854 0.961 . S
C1839 H1855 0.960 . S
H1840 C1824 0.931 . S
H1841 C1829 0.929 . S
H1842 C1830 0.960 . S
H1843 C1830 0.962 . S
H1844 C1830 0.960 . S
H1845 C1831 0.961 . S
H1846 C1831 0.961 . S
H1847 C1831 0.961 . S
H1848 C1832 0.931 . S
H1849 C1837 0.930 . S
H1850 C1838 0.956 . S
H1851 C1838 0.961 . S
H1852 C1838 0.961 . S
H1853 C1839 0.958 . S
H1854 C1839 0.961 . S
H1855 C1839 0.960 . S
C1856 C1857 1.391 . S
C1856 C1858 1.394 . S
C1856 H1872 0.931 . S
C1857 C1856 1.391 . S
C1857 C1861 1.376 . S
C1858 C1856 1.394 . S
C1858 C1859 1.369 . S
C1858 C1862 1.531 . S
C1859 C1858 1.369 . S
C1859 C1860 1.410 . S
C1859 C1867 1.503 1_545 S
C1860 C1859 1.410 . S
C1860 C1861 1.392 . S
C1860 C1863 1.511 . S
C1861 C1857 1.376 . S
C1861 C1860 1.392 . S
C1861 H1873 0.929 . S
C1862 C1858 1.531 . S
C1862 H1874 0.960 . S
C1862 H1875 0.962 . S
C1862 H1876 0.960 . S
C1863 C1860 1.511 . S
C1863 H1877 0.961 . S
C1863 H1878 0.961 1_545 S
C1863 H1879 0.961 . S
C1864 C1865 1.370 . S
C1864 C1866 1.363 . S
C1864 H1880 0.931 . S
C1865 C1864 1.370 . S
C1865 C1869 1.408 . S
C1866 C1864 1.363 . S
C1866 C1867 1.370 . S
C1866 C1870 1.524 . S
C1867 C1859 1.503 1_565 S
C1867 C1866 1.370 . S
C1867 C1868 1.403 . S
C1868 C1867 1.403 . S
C1868 C1869 1.404 . S
C1868 C1871 1.539 . S
C1869 C1865 1.408 . S
C1869 C1868 1.404 . S
C1869 H1881 0.930 . S
C1870 C1866 1.524 . S
C1870 H1882 0.956 . S
C1870 H1883 0.961 . S
C1870 H1884 0.961 . S
C1871 C1868 1.539 . S
C1871 H1885 0.958 . S
C1871 H1886 0.961 . S
C1871 H1887 0.960 1_565 S
H1872 C1856 0.931 . S
H1873 C1861 0.929 . S
H1874 C1862 0.960 . S
H1875 C1862 0.962 . S
H1876 C1862 0.960 . S
H1877 C1863 0.961 . S
H1878 C1863 0.961 1_565 S
H1879 C1863 0.961 . S
H1880 C1864 0.931 . S
H1881 C1869 0.930 . S
H1882 C1870 0.956 . S
H1883 C1870 0.961 . S
H1884 C1870 0.961 . S
H1885 C1871 0.958 . S
H1886 C1871 0.961 . S
H1887 C1871 0.960 1_545 S
C1888 C1889 1.391 . S
C1888 C1890 1.394 . S
C1888 H1904 0.931 . S
C1889 C1888 1.391 . S
C1889 C1893 1.376 . S
C1890 C1888 1.394 . S
C1890 C1891 1.369 . S
C1890 C1894 1.531 . S
C1891 C1890 1.369 . S
C1891 C1892 1.410 . S
C1891 C1899 1.503 . S
C1892 C1891 1.410 . S
C1892 C1893 1.392 . S
C1892 C1895 1.511 . S
C1893 C1889 1.376 . S
C1893 C1892 1.392 . S
C1893 H1905 0.929 . S
C1894 C1890 1.531 . S
C1894 H1906 0.960 . S
C1894 H1907 0.962 . S
C1894 H1908 0.960 . S
C1895 C1892 1.511 . S
C1895 H1909 0.961 . S
C1895 H1910 0.961 . S
C1895 H1911 0.961 . S
C1896 C1897 1.370 . S
C1896 C1898 1.363 . S
C1896 H1912 0.931 . S
C1897 C1896 1.370 . S
C1897 C1901 1.408 . S
C1898 C1896 1.363 . S
C1898 C1899 1.370 . S
C1898 C1902 1.524 . S
C1899 C1891 1.503 . S
C1899 C1898 1.370 . S
C1899 C1900 1.403 . S
C1900 C1899 1.403 . S
C1900 C1901 1.404 . S
C1900 C1903 1.539 . S
C1901 C1897 1.408 . S
C1901 C1900 1.404 . S
C1901 H1913 0.930 . S
C1902 C1898 1.524 . S
C1902 H1914 0.956 . S
C1902 H1915 0.961 . S
C1902 H1916 0.961 . S
C1903 C1900 1.539 . S
C1903 H1917 0.958 . S
C1903 H1918 0.961 . S
C1903 H1919 0.960 . S
H1904 C1888 0.931 . S
H1905 C1893 0.929 . S
H1906 C1894 0.960 . S
H1907 C1894 0.962 . S
H1908 C1894 0.960 . S
H1909 C1895 0.961 . S
H1910 C1895 0.961 . S
H1911 C1895 0.961 . S
H1912 C1896 0.931 . S
H1913 C1901 0.930 . S
H1914 C1902 0.956 . S
H1915 C1902 0.961 . S
H1916 C1902 0.961 . S
H1917 C1903 0.958 . S
H1918 C1903 0.961 . S
H1919 C1903 0.960 . S
C1920 C1921 1.391 . S
C1920 C1922 1.394 . S
C1920 H1936 0.931 . S
C1921 C1920 1.391 . S
C1921 C1925 1.376 . S
C1922 C1920 1.394 . S
C1922 C1923 1.369 . S
C1922 C1926 1.526 1_554 S
C1923 C1922 1.369 . S
C1923 C1924 1.410 . S
C1923 C1931 1.503 1_565 S
C1924 C1923 1.410 . S
C1924 C1925 1.392 . S
C1924 C1927 1.511 . S
C1925 C1921 1.376 . S
C1925 C1924 1.392 . S
C1925 H1937 0.929 . S
C1926 C1922 1.526 1_556 S
C1926 H1938 0.951 1_566 S
C1926 H1939 0.985 . S
C1926 H1940 0.952 1_556 S
C1927 C1924 1.511 . S
C1927 H1941 0.961 . S
C1927 H1942 0.961 1_565 S
C1927 H1943 0.961 . S
C1928 C1929 1.370 . S
C1928 C1930 1.363 . S
C1928 H1944 0.931 . S
C1929 C1928 1.370 . S
C1929 C1933 1.408 1_556 S
C1930 C1928 1.363 . S
C1930 C1931 1.370 1_556 S
C1930 C1934 1.524 . S
C1931 C1923 1.503 1_545 S
C1931 C1930 1.370 1_554 S
C1931 C1932 1.403 . S
C1932 C1931 1.403 . S
C1932 C1933 1.404 . S
C1932 C1935 1.539 . S
C1933 C1929 1.408 1_554 S
C1933 C1932 1.404 . S
C1933 H1945 0.930 . S
C1934 C1930 1.524 . S
C1934 H1946 0.956 1_545 S
C1934 H1947 0.961 1_545 S
C1934 H1948 0.961 . S
C1935 C1932 1.539 . S
C1935 H1949 0.958 . S
C1935 H1950 0.961 . S
C1935 H1951 0.960 . S
H1936 C1920 0.931 . S
H1937 C1925 0.929 . S
H1938 C1926 0.951 1_544 S
H1939 C1926 0.985 . S
H1940 C1926 0.952 1_554 S
H1941 C1927 0.961 . S
H1942 C1927 0.961 1_545 S
H1943 C1927 0.961 . S
H1944 C1928 0.931 . S
H1945 C1933 0.930 . S
H1946 C1934 0.956 1_565 S
H1947 C1934 0.961 1_565 S
H1948 C1934 0.961 . S
H1949 C1935 0.958 . S
H1950 C1935 0.961 . S
H1951 C1935 0.960 . S
C1952 C1953 1.391 . S
C1952 C1954 1.394 . S
C1952 H1968 0.931 . S
C1953 C1952 1.391 . S
C1953 C1957 1.376 . S
C1954 C1952 1.394 . S
C1954 C1955 1.369 . S
C1954 C1958 1.531 . S
C1955 C1954 1.369 . S
C1955 C1956 1.410 . S
C1955 C1963 1.503 . S
C1956 C1955 1.410 . S
C1956 C1957 1.392 . S
C1956 C1959 1.511 . S
C1957 C1953 1.376 . S
C1957 C1956 1.392 . S
C1957 H1969 0.929 . S
C1958 C1954 1.531 . S
C1958 H1970 0.960 . S
C1958 H1971 0.962 . S
C1958 H1972 0.960 . S
C1959 C1956 1.511 . S
C1959 H1973 0.961 . S
C1959 H1974 0.961 . S
C1959 H1975 0.961 . S
C1960 C1961 1.370 . S
C1960 C1962 1.363 . S
C1960 H1976 0.931 . S
C1961 C1960 1.370 . S
C1961 C1965 1.408 . S
C1962 C1960 1.363 . S
C1962 C1963 1.370 . S
C1962 C1966 1.524 . S
C1963 C1955 1.503 . S
C1963 C1962 1.370 . S
C1963 C1964 1.403 . S
C1964 C1963 1.403 . S
C1964 C1965 1.404 . S
C1964 C1967 1.539 . S
C1965 C1961 1.408 . S
C1965 C1964 1.404 . S
C1965 H1977 0.930 . S
C1966 C1962 1.524 . S
C1966 H1978 0.956 . S
C1966 H1979 0.961 . S
C1966 H1980 0.961 . S
C1967 C1964 1.539 . S
C1967 H1981 0.958 . S
C1967 H1982 0.961 . S
C1967 H1983 0.960 . S
H1968 C1952 0.931 . S
H1969 C1957 0.929 . S
H1970 C1958 0.960 . S
H1971 C1958 0.962 . S
H1972 C1958 0.960 . S
H1973 C1959 0.961 . S
H1974 C1959 0.961 . S
H1975 C1959 0.961 . S
H1976 C1960 0.931 . S
H1977 C1965 0.930 . S
H1978 C1966 0.956 . S
H1979 C1966 0.961 . S
H1980 C1966 0.961 . S
H1981 C1967 0.958 . S
H1982 C1967 0.961 . S
H1983 C1967 0.960 . S
C1984 C1985 1.391 . S
C1984 C1986 1.394 . S
C1984 H2000 0.931 . S
C1985 C1984 1.391 . S
C1985 C1989 1.380 1_554 S
C1986 C1984 1.394 . S
C1986 C1987 1.369 . S
C1986 C1990 1.531 . S
C1987 C1986 1.369 . S
C1987 C1988 1.383 1_554 S
C1987 C1995 1.503 . S
C1988 C1987 1.383 1_556 S
C1988 C1989 1.392 . S
C1988 C1991 1.538 . S
C1989 C1985 1.380 1_556 S
C1989 C1988 1.392 . S
C1989 H2001 0.925 . S
C1990 C1986 1.531 . S
C1990 H2002 0.960 . S
C1990 H2003 0.962 . S
C1990 H2004 0.960 . S
C1991 C1988 1.538 . S
C1991 H2005 0.961 . S
C1991 H2006 0.961 . S
C1991 H2007 0.961 . S
C1992 C1993 1.370 . S
C1992 C1994 1.363 . S
C1992 H2008 0.931 . S
C1993 C1992 1.370 . S
C1993 C1997 1.408 . S
C1994 C1992 1.363 . S
C1994 C1995 1.370 . S
C1994 C1998 1.524 . S
C1995 C1987 1.503 . S
C1995 C1994 1.370 . S
C1995 C1996 1.403 . S
C1996 C1995 1.403 . S
C1996 C1997 1.404 . S
C1996 C1999 1.539 . S
C1997 C1993 1.408 . S
C1997 C1996 1.404 . S
C1997 H2009 0.930 . S
C1998 C1994 1.524 . S
C1998 H2010 0.956 . S
C1998 H2011 0.961 . S
C1998 H2012 0.961 . S
C1999 C1996 1.539 . S
C1999 H2013 0.958 . S
C1999 H2014 0.961 . S
C1999 H2015 0.960 . S
H2000 C1984 0.931 . S
H2001 C1989 0.925 . S
H2002 C1990 0.960 . S
H2003 C1990 0.962 . S
H2004 C1990 0.960 . S
H2005 C1991 0.961 . S
H2006 C1991 0.961 . S
H2007 C1991 0.961 . S
H2008 C1992 0.931 . S
H2009 C1997 0.930 . S
H2010 C1998 0.956 . S
H2011 C1998 0.961 . S
H2012 C1998 0.961 . S
H2013 C1999 0.958 . S
H2014 C1999 0.961 . S
H2015 C1999 0.960 . S
C2016 C2017 1.391 . S
C2016 C2018 1.394 . S
C2016 H2032 0.931 . S
C2017 C2016 1.391 . S
C2017 C2021 1.376 . S
C2018 C2016 1.394 . S
C2018 C2019 1.369 . S
C2018 C2022 1.531 . S
C2019 C2018 1.369 . S
C2019 C2020 1.410 . S
C2019 C2027 1.503 . S
C2020 C2019 1.410 . S
C2020 C2021 1.392 . S
C2020 C2023 1.511 . S
C2021 C2017 1.376 . S
C2021 C2020 1.392 . S
C2021 H2033 0.929 . S
C2022 C2018 1.531 . S
C2022 H2034 0.960 . S
C2022 H2035 0.962 . S
C2022 H2036 0.960 . S
C2023 C2020 1.511 . S
C2023 H2037 0.961 . S
C2023 H2038 0.961 . S
C2023 H2039 0.961 . S
C2024 C2025 1.370 . S
C2024 C2026 1.363 . S
C2024 H2040 0.931 . S
C2025 C2024 1.370 . S
C2025 C2029 1.408 . S
C2026 C2024 1.363 . S
C2026 C2027 1.370 . S
C2026 C2030 1.524 . S
C2027 C2019 1.503 . S
C2027 C2026 1.370 . S
C2027 C2028 1.403 . S
C2028 C2027 1.403 . S
C2028 C2029 1.404 . S
C2028 C2031 1.539 . S
C2029 C2025 1.408 . S
C2029 C2028 1.404 . S
C2029 H2041 0.930 . S
C2030 C2026 1.524 . S
C2030 H2042 0.956 . S
C2030 H2043 0.961 . S
C2030 H2044 0.961 . S
C2031 C2028 1.539 . S
C2031 H2045 0.958 . S
C2031 H2046 0.961 . S
C2031 H2047 0.960 . S
H2032 C2016 0.931 . S
H2033 C2021 0.929 . S
H2034 C2022 0.960 . S
H2035 C2022 0.962 . S
H2036 C2022 0.960 . S
H2037 C2023 0.961 . S
H2038 C2023 0.961 . S
H2039 C2023 0.961 . S
H2040 C2024 0.931 . S
H2041 C2029 0.930 . S
H2042 C2030 0.956 . S
H2043 C2030 0.961 . S
H2044 C2030 0.961 . S
H2045 C2031 0.958 . S
H2046 C2031 0.961 . S
H2047 C2031 0.960 . S
C2048 C2049 1.391 . S
C2048 C2050 1.394 . S
C2048 H2064 0.931 . S
C2049 C2048 1.391 . S
C2049 C2053 1.376 . S
C2050 C2048 1.394 . S
C2050 C2051 1.369 . S
C2050 C2054 1.531 . S
C2051 C2050 1.369 . S
C2051 C2052 1.410 . S
C2051 C2059 1.503 . S
C2052 C2051 1.410 . S
C2052 C2053 1.392 . S
C2052 C2055 1.511 . S
C2053 C2049 1.376 . S
C2053 C2052 1.392 . S
C2053 H2065 0.929 . S
C2054 C2050 1.531 . S
C2054 H2066 0.960 . S
C2054 H2067 0.962 . S
C2054 H2068 0.960 . S
C2055 C2052 1.511 . S
C2055 H2069 0.961 . S
C2055 H2070 0.961 . S
C2055 H2071 0.961 . S
C2056 C2057 1.370 . S
C2056 C2058 1.363 . S
C2056 H2072 0.931 . S
C2057 C2056 1.370 . S
C2057 C2061 1.408 . S
C2058 C2056 1.363 . S
C2058 C2059 1.370 . S
C2058 C2062 1.524 . S
C2059 C2051 1.503 . S
C2059 C2058 1.370 . S
C2059 C2060 1.403 . S
C2060 C2059 1.403 . S
C2060 C2061 1.404 . S
C2060 C2063 1.539 . S
C2061 C2057 1.408 . S
C2061 C2060 1.404 . S
C2061 H2073 0.930 . S
C2062 C2058 1.524 . S
C2062 H2074 0.956 . S
C2062 H2075 0.961 . S
C2062 H2076 0.961 . S
C2063 C2060 1.539 . S
C2063 H2077 0.958 . S
C2063 H2078 0.961 . S
C2063 H2079 0.960 . S
H2064 C2048 0.931 . S
H2065 C2053 0.929 . S
H2066 C2054 0.960 . S
H2067 C2054 0.962 . S
H2068 C2054 0.960 . S
H2069 C2055 0.961 . S
H2070 C2055 0.961 . S
H2071 C2055 0.961 . S
H2072 C2056 0.931 . S
H2073 C2061 0.930 . S
H2074 C2062 0.956 . S
H2075 C2062 0.961 . S
H2076 C2062 0.961 . S
H2077 C2063 0.958 . S
H2078 C2063 0.961 . S
H2079 C2063 0.960 . S
C2080 C2081 1.391 . S
C2080 C2082 1.394 . S
C2080 H2096 0.931 . S
C2081 C2080 1.391 . S
C2081 C2085 1.376 . S
C2082 C2080 1.394 . S
C2082 C2083 1.369 . S
C2082 C2086 1.531 . S
C2083 C2082 1.369 . S
C2083 C2084 1.410 . S
C2083 C2091 1.503 1_655 S
C2084 C2083 1.410 . S
C2084 C2085 1.392 . S
C2084 C2087 1.511 . S
C2085 C2081 1.376 . S
C2085 C2084 1.392 . S
C2085 H2097 0.929 . S
C2086 C2082 1.531 . S
C2086 H2098 0.960 1_655 S
C2086 H2099 0.962 . S
C2086 H2100 0.960 . S
C2087 C2084 1.511 . S
C2087 H2101 0.961 . S
C2087 H2102 0.961 1_655 S
C2087 H2103 0.961 . S
C2088 C2089 1.370 . S
C2088 C2090 1.363 . S
C2088 H2104 0.931 . S
C2089 C2088 1.370 . S
C2089 C2093 1.408 . S
C2090 C2088 1.363 . S
C2090 C2091 1.370 . S
C2090 C2094 1.524 . S
C2091 C2083 1.503 1_455 S
C2091 C2090 1.370 . S
C2091 C2092 1.403 . S
C2092 C2091 1.403 . S
C2092 C2093 1.404 . S
C2092 C2095 1.539 . S
C2093 C2089 1.408 . S
C2093 C2092 1.404 . S
C2093 H2105 0.930 . S
C2094 C2090 1.524 . S
C2094 H2106 0.956 . S
C2094 H2107 0.961 1_455 S
C2094 H2108 0.961 . S
C2095 C2092 1.539 . S
C2095 H2109 0.958 . S
C2095 H2110 0.961 . S
C2095 H2111 0.970 . S
H2096 C2080 0.931 . S
H2097 C2085 0.929 . S
H2098 C2086 0.960 1_455 S
H2099 C2086 0.962 . S
H2100 C2086 0.960 . S
H2101 C2087 0.961 . S
H2102 C2087 0.961 1_455 S
H2103 C2087 0.961 . S
H2104 C2088 0.931 . S
H2105 C2093 0.930 . S
H2106 C2094 0.956 . S
H2107 C2094 0.961 1_655 S
H2108 C2094 0.961 . S
H2109 C2095 0.958 . S
H2110 C2095 0.961 . S
H2111 C2095 0.970 . S
C2112 C2113 1.391 . S
C2112 C2114 1.394 . S
C2112 H2128 0.931 1_556 S
C2113 C2112 1.391 . S
C2113 C2117 1.376 . S
C2114 C2112 1.394 . S
C2114 C2115 1.369 . S
C2114 C2118 1.531 1_556 S
C2115 C2114 1.369 . S
C2115 C2116 1.410 . S
C2115 C2123 1.503 . S
C2116 C2115 1.410 . S
C2116 C2117 1.392 . S
C2116 C2119 1.511 . S
C2117 C2113 1.376 . S
C2117 C2116 1.392 . S
C2117 H2129 0.929 . S
C2118 C2114 1.531 1_554 S
C2118 H2130 0.960 . S
C2118 H2131 0.962 . S
C2118 H2132 0.960 . S
C2119 C2116 1.511 . S
C2119 H2133 0.961 . S
C2119 H2134 0.961 . S
C2119 H2135 0.961 . S
C2120 C2121 1.370 . S
C2120 C2122 1.363 . S
C2120 H2136 0.931 . S
C2121 C2120 1.370 . S
C2121 C2125 1.408 . S
C2122 C2120 1.363 . S
C2122 C2123 1.370 . S
C2122 C2126 1.524 . S
C2123 C2115 1.503 . S
C2123 C2122 1.370 . S
C2123 C2124 1.403 . S
C2124 C2123 1.403 . S
C2124 C2125 1.404 . S
C2124 C2127 1.539 1_556 S
C2125 C2121 1.408 . S
C2125 C2124 1.404 . S
C2125 H2137 0.930 1_556 S
C2126 C2122 1.524 . S
C2126 H2138 0.956 . S
C2126 H2139 0.961 . S
C2126 H2140 0.961 . S
C2127 C2124 1.539 1_554 S
C2127 H2141 0.958 . S
C2127 H2142 0.961 . S
C2127 H2143 0.960 . S
H2128 C2112 0.931 1_554 S
H2129 C2117 0.929 . S
H2130 C2118 0.960 . S
H2131 C2118 0.962 . S
H2132 C2118 0.960 . S
H2133 C2119 0.961 . S
H2134 C2119 0.961 . S
H2135 C2119 0.961 . S
H2136 C2120 0.931 . S
H2137 C2125 0.930 1_554 S
H2138 C2126 0.956 . S
H2139 C2126 0.961 . S
H2140 C2126 0.961 . S
H2141 C2127 0.958 . S
H2142 C2127 0.961 . S
H2143 C2127 0.960 . S
C2144 C2145 1.391 . S
C2144 C2146 1.394 . S
C2144 H2160 0.931 . S
C2145 C2144 1.391 . S
C2145 C2149 1.376 . S
C2146 C2144 1.394 . S
C2146 C2147 1.369 . S
C2146 C2150 1.531 . S
C2147 C2146 1.369 . S
C2147 C2148 1.410 . S
C2147 C2155 1.503 1_655 S
C2148 C2147 1.410 . S
C2148 C2149 1.392 . S
C2148 C2151 1.511 . S
C2149 C2145 1.376 . S
C2149 C2148 1.392 . S
C2149 H2161 0.929 . S
C2150 C2146 1.531 . S
C2150 H2162 0.960 1_655 S
C2150 H2163 0.962 . S
C2150 H2164 0.960 . S
C2151 C2148 1.511 . S
C2151 H2165 0.961 . S
C2151 H2166 0.961 1_655 S
C2151 H2167 0.961 . S
C2152 C2153 1.370 . S
C2152 C2154 1.363 . S
C2152 H2168 0.931 . S
C2153 C2152 1.370 . S
C2153 C2157 1.408 . S
C2154 C2152 1.363 . S
C2154 C2155 1.370 . S
C2154 C2158 1.524 . S
C2155 C2147 1.503 1_455 S
C2155 C2154 1.370 . S
C2155 C2156 1.403 . S
C2156 C2155 1.403 . S
C2156 C2157 1.404 . S
C2156 C2159 1.539 . S
C2157 C2153 1.408 . S
C2157 C2156 1.404 . S
C2157 H2169 0.930 . S
C2158 C2154 1.524 . S
C2158 H2170 0.956 . S
C2158 H2171 0.961 1_455 S
C2158 H2172 0.961 . S
C2159 C2156 1.539 . S
C2159 H2173 0.958 . S
C2159 H2174 0.961 . S
C2159 H2175 0.970 . S
H2160 C2144 0.931 . S
H2161 C2149 0.929 . S
H2162 C2150 0.960 1_455 S
H2163 C2150 0.962 . S
H2164 C2150 0.960 . S
H2165 C2151 0.961 . S
H2166 C2151 0.961 1_455 S
H2167 C2151 0.961 . S
H2168 C2152 0.931 . S
H2169 C2157 0.930 . S
H2170 C2158 0.956 . S
H2171 C2158 0.961 1_655 S
H2172 C2158 0.961 . S
H2173 C2159 0.958 . S
H2174 C2159 0.961 . S
H2175 C2159 0.970 . S
C2176 C2177 1.391 . S
C2176 C2178 1.394 . S
C2176 H2192 0.931 . S
C2177 C2176 1.391 . S
C2177 C2181 1.376 . S
C2178 C2176 1.394 . S
C2178 C2179 1.369 . S
C2178 C2182 1.531 . S
C2179 C2178 1.369 . S
C2179 C2180 1.410 . S
C2179 C2187 1.503 . S
C2180 C2179 1.410 . S
C2180 C2181 1.392 . S
C2180 C2183 1.511 . S
C2181 C2177 1.376 . S
C2181 C2180 1.392 . S
C2181 H2193 0.929 . S
C2182 C2178 1.531 . S
C2182 H2194 0.960 . S
C2182 H2195 0.962 . S
C2182 H2196 0.960 . S
C2183 C2180 1.511 . S
C2183 H2197 0.961 . S
C2183 H2198 0.961 . S
C2183 H2199 0.961 . S
C2184 C2185 1.370 . S
C2184 C2186 1.363 . S
C2184 H2200 0.931 . S
C2185 C2184 1.370 . S
C2185 C2189 1.408 . S
C2186 C2184 1.363 . S
C2186 C2187 1.370 . S
C2186 C2190 1.524 . S
C2187 C2179 1.503 . S
C2187 C2186 1.370 . S
C2187 C2188 1.403 . S
C2188 C2187 1.403 . S
C2188 C2189 1.404 . S
C2188 C2191 1.539 . S
C2189 C2185 1.408 . S
C2189 C2188 1.404 . S
C2189 H2201 0.930 . S
C2190 C2186 1.524 . S
C2190 H2202 0.956 . S
C2190 H2203 0.961 . S
C2190 H2204 0.961 . S
C2191 C2188 1.539 . S
C2191 H2205 0.958 . S
C2191 H2206 0.961 . S
C2191 H2207 0.960 . S
H2192 C2176 0.931 . S
H2193 C2181 0.929 . S
H2194 C2182 0.960 . S
H2195 C2182 0.962 . S
H2196 C2182 0.960 . S
H2197 C2183 0.961 . S
H2198 C2183 0.961 . S
H2199 C2183 0.961 . S
H2200 C2184 0.931 . S
H2201 C2189 0.930 . S
H2202 C2190 0.956 . S
H2203 C2190 0.961 . S
H2204 C2190 0.961 . S
H2205 C2191 0.958 . S
H2206 C2191 0.961 . S
H2207 C2191 0.960 . S
C2208 C2209 1.391 . S
C2208 C2210 1.394 . S
C2208 H2224 0.931 . S
C2209 C2208 1.391 . S
C2209 C2213 1.376 . S
C2210 C2208 1.394 . S
C2210 C2211 1.369 . S
C2210 C2214 1.531 . S
C2211 C2210 1.369 . S
C2211 C2212 1.410 . S
C2211 C2219 1.503 . S
C2212 C2211 1.410 . S
C2212 C2213 1.392 . S
C2212 C2215 1.511 . S
C2213 C2209 1.376 . S
C2213 C2212 1.392 . S
C2213 H2225 0.929 . S
C2214 C2210 1.531 . S
C2214 H2226 0.960 . S
C2214 H2227 0.962 . S
C2214 H2228 0.960 . S
C2215 C2212 1.511 . S
C2215 H2229 0.961 . S
C2215 H2230 0.961 . S
C2215 H2231 0.961 . S
C2216 C2217 1.370 . S
C2216 C2218 1.363 . S
C2216 H2232 0.931 . S
C2217 C2216 1.370 . S
C2217 C2221 1.408 . S
C2218 C2216 1.363 . S
C2218 C2219 1.370 . S
C2218 C2222 1.524 . S
C2219 C2211 1.503 . S
C2219 C2218 1.370 . S
C2219 C2220 1.403 . S
C2220 C2219 1.403 . S
C2220 C2221 1.404 . S
C2220 C2223 1.539 . S
C2221 C2217 1.408 . S
C2221 C2220 1.404 . S
C2221 H2233 0.930 . S
C2222 C2218 1.524 . S
C2222 H2234 0.956 . S
C2222 H2235 0.961 . S
C2222 H2236 0.961 . S
C2223 C2220 1.539 . S
C2223 H2237 0.958 . S
C2223 H2238 0.961 . S
C2223 H2239 0.960 . S
H2224 C2208 0.931 . S
H2225 C2213 0.929 . S
H2226 C2214 0.960 . S
H2227 C2214 0.962 . S
H2228 C2214 0.960 . S
H2229 C2215 0.961 . S
H2230 C2215 0.961 . S
H2231 C2215 0.961 . S
H2232 C2216 0.931 . S
H2233 C2221 0.930 . S
H2234 C2222 0.956 . S
H2235 C2222 0.961 . S
H2236 C2222 0.961 . S
H2237 C2223 0.958 . S
H2238 C2223 0.961 . S
H2239 C2223 0.960 . S
C2240 C2241 1.391 . S
C2240 C2242 1.394 . S
C2240 H2256 0.931 . S
C2241 C2240 1.391 . S
C2241 C2245 1.376 . S
C2242 C2240 1.394 . S
C2242 C2243 1.369 . S
C2242 C2246 1.531 . S
C2243 C2242 1.369 . S
C2243 C2244 1.410 . S
C2243 C2251 1.503 . S
C2244 C2243 1.410 . S
C2244 C2245 1.392 . S
C2244 C2247 1.511 1_556 S
C2245 C2241 1.376 . S
C2245 C2244 1.392 . S
C2245 H2257 0.922 1_556 S
C2246 C2242 1.531 . S
C2246 H2258 0.960 . S
C2246 H2259 0.962 . S
C2246 H2260 0.960 . S
C2247 C2244 1.511 1_554 S
C2247 H2261 0.961 . S
C2247 H2262 0.961 . S
C2247 H2263 0.961 . S
C2248 C2249 1.370 . S
C2248 C2250 1.363 . S
C2248 H2264 0.931 . S
C2249 C2248 1.370 . S
C2249 C2253 1.408 . S
C2250 C2248 1.363 . S
C2250 C2251 1.370 . S
C2250 C2254 1.524 . S
C2251 C2243 1.503 . S
C2251 C2250 1.370 . S
C2251 C2252 1.422 . S
C2252 C2251 1.422 . S
C2252 C2253 1.405 . S
C2252 C2255 1.517 1_556 S
C2253 C2249 1.408 . S
C2253 C2252 1.405 . S
C2253 H2265 0.930 1_556 S
C2254 C2250 1.524 . S
C2254 H2266 0.956 . S
C2254 H2267 0.961 . S
C2254 H2268 0.961 . S
C2255 C2252 1.517 1_554 S
C2255 H2269 0.958 . S
C2255 H2270 0.961 . S
C2255 H2271 0.960 . S
H2256 C2240 0.931 . S
H2257 C2245 0.922 1_554 S
H2258 C2246 0.960 . S
H2259 C2246 0.962 . S
H2260 C2246 0.960 . S
H2261 C2247 0.961 . S
H2262 C2247 0.961 . S
H2263 C2247 0.961 . S
H2264 C2248 0.931 . S
H2265 C2253 0.930 1_554 S
H2266 C2254 0.956 . S
H2267 C2254 0.961 . S
H2268 C2254 0.961 . S
H2269 C2255 0.958 . S
H2270 C2255 0.961 . S
H2271 C2255 0.960 . S
C2272 C2273 1.391 . S
C2272 C2274 1.394 . S
C2272 H2288 0.931 . S
C2273 C2272 1.391 . S
C2273 C2277 1.376 . S
C2274 C2272 1.394 . S
C2274 C2275 1.369 . S
C2274 C2278 1.531 . S
C2275 C2274 1.369 . S
C2275 C2276 1.410 . S
C2275 C2283 1.503 . S
C2276 C2275 1.410 . S
C2276 C2277 1.392 . S
C2276 C2279 1.511 . S
C2277 C2273 1.376 . S
C2277 C2276 1.392 . S
C2277 H2289 0.929 . S
C2278 C2274 1.531 . S
C2278 H2290 0.960 . S
C2278 H2291 0.962 . S
C2278 H2292 0.960 . S
C2279 C2276 1.511 . S
C2279 H2293 0.961 . S
C2279 H2294 0.961 . S
C2279 H2295 0.961 . S
C2280 C2281 1.370 . S
C2280 C2282 1.363 . S
C2280 H2296 0.931 . S
C2281 C2280 1.370 . S
C2281 C2285 1.408 . S
C2282 C2280 1.363 . S
C2282 C2283 1.370 . S
C2282 C2286 1.524 . S
C2283 C2275 1.503 . S
C2283 C2282 1.370 . S
C2283 C2284 1.403 . S
C2284 C2283 1.403 . S
C2284 C2285 1.404 . S
C2284 C2287 1.539 . S
C2285 C2281 1.408 . S
C2285 C2284 1.404 . S
C2285 H2297 0.930 . S
C2286 C2282 1.524 . S
C2286 H2298 0.956 . S
C2286 H2299 0.961 . S
C2286 H2300 0.961 . S
C2287 C2284 1.539 . S
C2287 H2301 0.958 . S
C2287 H2302 0.961 . S
C2287 H2303 0.960 . S
H2288 C2272 0.931 . S
H2289 C2277 0.929 . S
H2290 C2278 0.960 . S
H2291 C2278 0.962 . S
H2292 C2278 0.960 . S
H2293 C2279 0.961 . S
H2294 C2279 0.961 . S
H2295 C2279 0.961 . S
H2296 C2280 0.931 . S
H2297 C2285 0.930 . S
H2298 C2286 0.956 . S
H2299 C2286 0.961 . S
H2300 C2286 0.961 . S
H2301 C2287 0.958 . S
H2302 C2287 0.961 . S
H2303 C2287 0.960 . S
C2304 C2305 1.427 . S
C2304 C2306 1.393 . S
C2304 H2320 0.897 1_554 S
C2305 C2304 1.427 . S
C2305 C2309 1.376 . S
C2306 C2304 1.393 . S
C2306 C2307 1.379 . S
C2306 C2310 1.520 1_554 S
C2307 C2306 1.379 . S
C2307 C2308 1.410 . S
C2307 C2315 1.503 . S
C2308 C2307 1.410 . S
C2308 C2309 1.392 . S
C2308 C2311 1.511 . S
C2309 C2305 1.376 . S
C2309 C2308 1.392 . S
C2309 H2321 0.929 . S
C2310 C2306 1.520 1_556 S
C2310 H2322 0.960 . S
C2310 H2323 0.962 . S
C2310 H2324 0.960 . S
C2311 C2308 1.511 . S
C2311 H2325 0.961 . S
C2311 H2326 0.961 . S
C2311 H2327 0.961 . S
C2312 C2313 1.370 . S
C2312 C2314 1.363 . S
C2312 H2328 0.931 . S
C2313 C2312 1.370 . S
C2313 C2317 1.408 . S
C2314 C2312 1.363 . S
C2314 C2315 1.370 . S
C2314 C2318 1.524 . S
C2315 C2307 1.503 . S
C2315 C2314 1.370 . S
C2315 C2316 1.403 . S
C2316 C2315 1.403 . S
C2316 C2317 1.404 . S
C2316 C2319 1.539 1_554 S
C2317 C2313 1.408 . S
C2317 C2316 1.404 . S
C2317 H2329 0.930 . S
C2318 C2314 1.524 . S
C2318 H2330 0.956 . S
C2318 H2331 0.961 . S
C2318 H2332 0.961 . S
C2319 C2316 1.539 1_556 S
C2319 H2333 0.958 . S
C2319 H2334 0.962 1_556 S
C2319 H2335 0.960 1_556 S
H2320 C2304 0.897 1_556 S
H2321 C2309 0.929 . S
H2322 C2310 0.960 . S
H2323 C2310 0.962 . S
H2324 C2310 0.960 . S
H2325 C2311 0.961 . S
H2326 C2311 0.961 . S
H2327 C2311 0.961 . S
H2328 C2312 0.931 . S
H2329 C2317 0.930 . S
H2330 C2318 0.956 . S
H2331 C2318 0.961 . S
H2332 C2318 0.961 . S
H2333 C2319 0.958 . S
H2334 C2319 0.962 1_554 S
H2335 C2319 0.960 1_554 S
C2336 C2337 1.391 . S
C2336 C2338 1.394 . S
C2336 H2352 0.931 . S
C2337 C2336 1.391 . S
C2337 C2341 1.376 . S
C2338 C2336 1.394 . S
C2338 C2339 1.369 . S
C2338 C2342 1.531 . S
C2339 C2338 1.369 . S
C2339 C2340 1.410 . S
C2339 C2347 1.503 . S
C2340 C2339 1.410 . S
C2340 C2341 1.392 . S
C2340 C2343 1.511 . S
C2341 C2337 1.376 . S
C2341 C2340 1.392 . S
C2341 H2353 0.929 . S
C2342 C2338 1.531 . S
C2342 H2354 0.960 . S
C2342 H2355 0.962 . S
C2342 H2356 0.960 . S
C2343 C2340 1.511 . S
C2343 H2357 0.961 . S
C2343 H2358 0.961 . S
C2343 H2359 0.961 . S
C2344 C2345 1.370 . S
C2344 C2346 1.363 . S
C2344 H2360 0.931 . S
C2345 C2344 1.370 . S
C2345 C2349 1.408 . S
C2346 C2344 1.363 . S
C2346 C2347 1.370 . S
C2346 C2350 1.524 . S
C2347 C2339 1.503 . S
C2347 C2346 1.370 . S
C2347 C2348 1.403 . S
C2348 C2347 1.403 . S
C2348 C2349 1.404 . S
C2348 C2351 1.539 . S
C2349 C2345 1.408 . S
C2349 C2348 1.404 . S
C2349 H2361 0.930 . S
C2350 C2346 1.524 . S
C2350 H2362 0.956 . S
C2350 H2363 0.961 . S
C2350 H2364 0.961 . S
C2351 C2348 1.539 . S
C2351 H2365 0.958 . S
C2351 H2366 0.961 . S
C2351 H2367 0.960 . S
H2352 C2336 0.931 . S
H2353 C2341 0.929 . S
H2354 C2342 0.960 . S
H2355 C2342 0.962 . S
H2356 C2342 0.960 . S
H2357 C2343 0.961 . S
H2358 C2343 0.961 . S
H2359 C2343 0.961 . S
H2360 C2344 0.931 . S
H2361 C2349 0.930 . S
H2362 C2350 0.956 . S
H2363 C2350 0.961 . S
H2364 C2350 0.961 . S
H2365 C2351 0.958 . S
H2366 C2351 0.961 . S
H2367 C2351 0.960 . S
C2368 C2369 1.391 . S
C2368 C2370 1.394 . S
C2368 H2384 0.931 . S
C2369 C2368 1.391 . S
C2369 C2373 1.376 . S
C2370 C2368 1.394 . S
C2370 C2371 1.369 . S
C2370 C2374 1.531 . S
C2371 C2370 1.369 . S
C2371 C2372 1.410 . S
C2371 C2379 1.503 1_655 S
C2372 C2371 1.410 . S
C2372 C2373 1.392 . S
C2372 C2375 1.511 . S
C2373 C2369 1.376 . S
C2373 C2372 1.392 . S
C2373 H2385 0.929 . S
C2374 C2370 1.531 . S
C2374 H2386 0.960 1_655 S
C2374 H2387 0.962 . S
C2374 H2388 0.960 . S
C2375 C2372 1.511 . S
C2375 H2389 0.961 . S
C2375 H2390 0.961 1_655 S
C2375 H2391 0.961 . S
C2376 C2377 1.370 . S
C2376 C2378 1.363 . S
C2376 H2392 0.931 . S
C2377 C2376 1.370 . S
C2377 C2381 1.408 . S
C2378 C2376 1.363 . S
C2378 C2379 1.370 . S
C2378 C2382 1.524 . S
C2379 C2371 1.503 1_455 S
C2379 C2378 1.370 . S
C2379 C2380 1.403 . S
C2380 C2379 1.403 . S
C2380 C2381 1.404 . S
C2380 C2383 1.539 . S
C2381 C2377 1.408 . S
C2381 C2380 1.404 . S
C2381 H2393 0.930 . S
C2382 C2378 1.524 . S
C2382 H2394 0.956 . S
C2382 H2395 0.961 1_455 S
C2382 H2396 0.961 . S
C2383 C2380 1.539 . S
C2383 H2397 0.958 . S
C2383 H2398 0.961 . S
C2383 H2399 0.970 . S
H2384 C2368 0.931 . S
H2385 C2373 0.929 . S
H2386 C2374 0.960 1_455 S
H2387 C2374 0.962 . S
H2388 C2374 0.960 . S
H2389 C2375 0.961 . S
H2390 C2375 0.961 1_455 S
H2391 C2375 0.961 . S
H2392 C2376 0.931 . S
H2393 C2381 0.930 . S
H2394 C2382 0.956 . S
H2395 C2382 0.961 1_655 S
H2396 C2382 0.961 . S
H2397 C2383 0.958 . S
H2398 C2383 0.961 . S
H2399 C2383 0.970 . S
C2400 C2401 1.391 . S
C2400 C2402 1.394 . S
C2400 H2416 0.931 . S
C2401 C2400 1.391 . S
C2401 C2405 1.376 . S
C2402 C2400 1.394 . S
C2402 C2403 1.369 . S
C2402 C2406 1.531 . S
C2403 C2402 1.369 . S
C2403 C2404 1.410 . S
C2403 C2411 1.503 . S
C2404 C2403 1.410 . S
C2404 C2405 1.392 . S
C2404 C2407 1.511 . S
C2405 C2401 1.376 . S
C2405 C2404 1.392 . S
C2405 H2417 0.929 . S
C2406 C2402 1.531 . S
C2406 H2418 0.960 . S
C2406 H2419 0.962 . S
C2406 H2420 0.960 . S
C2407 C2404 1.511 . S
C2407 H2421 0.961 . S
C2407 H2422 0.961 . S
C2407 H2423 0.961 . S
C2408 C2409 1.370 . S
C2408 C2410 1.363 . S
C2408 H2424 0.931 . S
C2409 C2408 1.370 . S
C2409 C2413 1.408 . S
C2410 C2408 1.363 . S
C2410 C2411 1.370 . S
C2410 C2414 1.524 . S
C2411 C2403 1.503 . S
C2411 C2410 1.370 . S
C2411 C2412 1.403 . S
C2412 C2411 1.403 . S
C2412 C2413 1.404 . S
C2412 C2415 1.539 . S
C2413 C2409 1.408 . S
C2413 C2412 1.404 . S
C2413 H2425 0.930 . S
C2414 C2410 1.524 . S
C2414 H2426 0.956 . S
C2414 H2427 0.961 . S
C2414 H2428 0.961 . S
C2415 C2412 1.539 . S
C2415 H2429 0.958 . S
C2415 H2430 0.961 . S
C2415 H2431 0.960 . S
H2416 C2400 0.931 . S
H2417 C2405 0.929 . S
H2418 C2406 0.960 . S
H2419 C2406 0.962 . S
H2420 C2406 0.960 . S
H2421 C2407 0.961 . S
H2422 C2407 0.961 . S
H2423 C2407 0.961 . S
H2424 C2408 0.931 . S
H2425 C2413 0.930 . S
H2426 C2414 0.956 . S
H2427 C2414 0.961 . S
H2428 C2414 0.961 . S
H2429 C2415 0.958 . S
H2430 C2415 0.961 . S
H2431 C2415 0.960 . S
C2432 C2433 1.391 . S
C2432 C2434 1.394 . S
C2432 H2448 0.931 . S
C2433 C2432 1.391 . S
C2433 C2437 1.376 . S
C2434 C2432 1.394 . S
C2434 C2435 1.369 . S
C2434 C2438 1.531 . S
C2435 C2434 1.369 . S
C2435 C2436 1.410 . S
C2435 C2443 1.503 . S
C2436 C2435 1.410 . S
C2436 C2437 1.392 . S
C2436 C2439 1.511 . S
C2437 C2433 1.376 . S
C2437 C2436 1.392 . S
C2437 H2449 0.929 . S
C2438 C2434 1.531 . S
C2438 H2450 0.960 . S
C2438 H2451 0.962 . S
C2438 H2452 0.960 . S
C2439 C2436 1.511 . S
C2439 H2453 0.961 . S
C2439 H2454 0.961 . S
C2439 H2455 0.961 . S
C2440 C2441 1.370 . S
C2440 C2442 1.363 . S
C2440 H2456 0.931 . S
C2441 C2440 1.370 . S
C2441 C2445 1.408 . S
C2442 C2440 1.363 . S
C2442 C2443 1.370 . S
C2442 C2446 1.524 . S
C2443 C2435 1.503 . S
C2443 C2442 1.370 . S
C2443 C2444 1.403 . S
C2444 C2443 1.403 . S
C2444 C2445 1.404 . S
C2444 C2447 1.539 . S
C2445 C2441 1.408 . S
C2445 C2444 1.404 . S
C2445 H2457 0.930 . S
C2446 C2442 1.524 . S
C2446 H2458 0.956 . S
C2446 H2459 0.961 . S
C2446 H2460 0.961 . S
C2447 C2444 1.539 . S
C2447 H2461 0.958 . S
C2447 H2462 0.961 . S
C2447 H2463 0.960 . S
H2448 C2432 0.931 . S
H2449 C2437 0.929 . S
H2450 C2438 0.960 . S
H2451 C2438 0.962 . S
H2452 C2438 0.960 . S
H2453 C2439 0.961 . S
H2454 C2439 0.961 . S
H2455 C2439 0.961 . S
H2456 C2440 0.931 . S
H2457 C2445 0.930 . S
H2458 C2446 0.956 . S
H2459 C2446 0.961 . S
H2460 C2446 0.961 . S
H2461 C2447 0.958 . S
H2462 C2447 0.961 . S
H2463 C2447 0.960 . S
C2464 C2465 1.391 . S
C2464 C2466 1.394 . S
C2464 H2480 0.931 . S
C2465 C2464 1.391 . S
C2465 C2469 1.376 . S
C2466 C2464 1.394 . S
C2466 C2467 1.369 . S
C2466 C2470 1.531 . S
C2467 C2466 1.369 . S
C2467 C2468 1.410 . S
C2467 C2475 1.503 1_655 S
C2468 C2467 1.410 . S
C2468 C2469 1.392 . S
C2468 C2471 1.511 . S
C2469 C2465 1.376 . S
C2469 C2468 1.392 . S
C2469 H2481 0.929 . S
C2470 C2466 1.531 . S
C2470 H2482 0.960 1_655 S
C2470 H2483 0.962 . S
C2470 H2484 0.960 . S
C2471 C2468 1.511 . S
C2471 H2485 0.961 . S
C2471 H2486 0.961 1_655 S
C2471 H2487 0.961 . S
C2472 C2473 1.370 . S
C2472 C2474 1.363 . S
C2472 H2488 0.931 . S
C2473 C2472 1.370 . S
C2473 C2477 1.408 . S
C2474 C2472 1.363 . S
C2474 C2475 1.370 . S
C2474 C2478 1.524 . S
C2475 C2467 1.503 1_455 S
C2475 C2474 1.370 . S
C2475 C2476 1.403 . S
C2476 C2475 1.403 . S
C2476 C2477 1.404 . S
C2476 C2479 1.539 . S
C2477 C2473 1.408 . S
C2477 C2476 1.404 . S
C2477 H2489 0.930 . S
C2478 C2474 1.524 . S
C2478 H2490 0.956 . S
C2478 H2491 0.961 1_455 S
C2478 H2492 0.961 . S
C2479 C2476 1.539 . S
C2479 H2493 0.958 . S
C2479 H2494 0.961 . S
C2479 H2495 0.970 . S
H2480 C2464 0.931 . S
H2481 C2469 0.929 . S
H2482 C2470 0.960 1_455 S
H2483 C2470 0.962 . S
H2484 C2470 0.960 . S
H2485 C2471 0.961 . S
H2486 C2471 0.961 1_455 S
H2487 C2471 0.961 . S
H2488 C2472 0.931 . S
H2489 C2477 0.930 . S
H2490 C2478 0.956 . S
H2491 C2478 0.961 1_655 S
H2492 C2478 0.961 . S
H2493 C2479 0.958 . S
H2494 C2479 0.961 . S
H2495 C2479 0.970 . S
C449 C325 1.708 . S
C457 C3 1.693 . S
C481 C283 1.692 . S
C489 C17 1.695 . S
C513 C297 1.681 . S
C521 C31 1.708 . S
C545 C311 1.702 . S
C553 C45 1.706 . S
C577 C59 1.701 . S
C585 C241 1.693 . S
C609 C255 1.712 . S
C617 C73 1.701 . S
C641 C87 1.688 . S
C649 C269 1.697 . S
C673 C101 1.686 . S
C681 C227 1.698 . S
C705 C437 1.711 . S
C713 C115 1.704 . S
C737 C129 1.692 . S
C745 C395 1.694 . S
C769 C143 1.704 . S
C777 C409 1.694 . S
C801 C157 1.703 . S
C809 C423 1.707 . S
C833 C171 1.704 . S
C841 C353 1.693 . S
C865 C185 1.693 . S
C873 C367 1.694 . S
C897 C199 1.709 . S
C905 C381 1.694 . S
C929 C213 1.711 . S
C937 C339 1.704 . S
C961 C7 1.301 . S
C969 C175 1.286 . S
C993 C413 1.286 . S
C1001 C21 1.276 . S
C1025 C35 1.306 . S
C1033 C203 1.287 . S
C1057 C441 1.298 . S
C1065 C49 1.282 . S
C1089 C119 1.285 . S
C1097 C63 1.280 . S
C1121 C77 1.227 . S
C1129 C357 1.254 . S
C1153 C91 1.308 . S
C1161 C147 1.287 . S
C1185 C105 1.308 . S
C1193 C385 1.287 . S
C1217 C301 1.229 . S
C1225 C133 1.254 . S
C1249 C329 1.233 . S
C1257 C161 1.255 . S
C1281 C189 1.306 . S
C1289 C245 1.286 . S
C1313 C273 1.308 . S
C1321 C217 1.287 . S
C1345 C399 1.276 . S
C1353 C231 1.271 . S
C1377 C259 1.257 . S
C1385 C427 1.269 . S
C1409 C343 1.247 . S
C1417 C287 1.260 . S
C1441 C371 1.272 . S
C1449 C315 1.275 . S
C1473 C64 1.255 . S
C1481 C8 1.232 . S
C1505 C78 1.236 . S
C1513 C22 1.246 . S
C1537 C36 1.254 . S
C1545 C92 1.232 . S
C1569 C50 1.215 . S
C1577 C106 1.231 . S
C1601 C176 1.256 . S
C1609 C120 1.231 . S
C1633 C190 1.217 . S
C1641 C134 1.233 . S
C1665 C204 1.243 . S
C1673 C148 1.227 . S
C1697 C162 1.214 . S
C1705 C218 1.245 . S
C1729 C232 1.257 . S
C1737 C288 1.235 . S
C1761 C246 1.232 . S
C1769 C302 1.227 . S
C1793 C260 1.225 . S
C1801 C316 1.228 . S
C1825 C274 1.225 . S
C1833 C330 1.228 . S
C1857 C400 1.233 . S
C1865 C344 1.228 . S
C1889 C414 1.256 . S
C1897 C358 1.236 . S
C1921 C428 1.213 . S
C1929 C372 1.244 . S
C1953 C442 1.255 . S
C1961 C386 1.237 . S
C1985 C429 1.495 . S
C1993 C9 1.511 . S
C2017 C23 1.483 . S
C2025 C219 1.504 . S
C2049 C401 1.484 . S
C2057 C37 1.506 . S
C2081 C51 1.488 . S
C2089 C191 1.505 . S
C2113 C373 1.547 . S
C2121 C65 1.531 . S
C2145 C79 1.546 . S
C2153 C163 1.530 . S
C2177 C93 1.529 . S
C2185 C345 1.521 . S
C2209 C135 1.487 . S
C2217 C107 1.505 . S
C2241 C121 1.523 . S
C2249 C317 1.523 . S
C2273 C289 1.527 . S
C2281 C149 1.521 . S
C2305 C177 1.545 . S
C2313 C261 1.529 . S
C2337 C205 1.482 . S
C2345 C233 1.505 . S
C2369 C443 1.539 . S
C2377 C247 1.526 . S
C2401 C275 1.545 . S
C2409 C415 1.531 . S
C2433 C303 1.544 . S
C2441 C387 1.529 . S
C2465 C359 1.547 . S
C2473 C331 1.531 . S
