# Generated by pormake.
# Topology can, (4)-cn, num edge types: 1
# Building blocks:
#     Node 0, Type 0, BuildingBlock: AZAVOO_clean_sbu_0, # of connection points: 4
#     Node 1, Type 0, BuildingBlock: AZAVOO_clean_sbu_0, # of connection points: 4
#     Node 2, Type 0, BuildingBlock: AZAVOO_clean_sbu_0, # of connection points: 4
#     Node 3, Type 0, BuildingBlock: AZAVOO_clean_sbu_0, # of connection points: 4
#     Node 4, Type 0, BuildingBlock: AZAVOO_clean_sbu_0, # of connection points: 4
#     Node 5, Type 0, BuildingBlock: AZAVOO_clean_sbu_0, # of connection points: 4
#     Node 6, Type 0, BuildingBlock: AZAVOO_clean_sbu_0, # of connection points: 4
#     Node 7, Type 0, BuildingBlock: AZAVOO_clean_sbu_0, # of connection points: 4
#     Node 8, Type 0, BuildingBlock: AZAVOO_clean_sbu_0, # of connection points: 4
#     Node 9, Type 0, BuildingBlock: AZAVOO_clean_sbu_0, # of connection points: 4
#     Node 10, Type 0, BuildingBlock: AZAVOO_clean_sbu_0, # of connection points: 4
#     Node 11, Type 0, BuildingBlock: AZAVOO_clean_sbu_0, # of connection points: 4
#     Edge 12, Type (0, 0), BuildingBlock: MIFKUJ_clean_linker_0, # of connection points: 2
#     Edge 13, Type (0, 0), BuildingBlock: MIFKUJ_clean_linker_0, # of connection points: 2
#     Edge 14, Type (0, 0), BuildingBlock: MIFKUJ_clean_linker_0, # of connection points: 2
#     Edge 15, Type (0, 0), BuildingBlock: MIFKUJ_clean_linker_0, # of connection points: 2
#     Edge 16, Type (0, 0), BuildingBlock: MIFKUJ_clean_linker_0, # of connection points: 2
#     Edge 17, Type (0, 0), BuildingBlock: MIFKUJ_clean_linker_0, # of connection points: 2
#     Edge 18, Type (0, 0), BuildingBlock: MIFKUJ_clean_linker_0, # of connection points: 2
#     Edge 19, Type (0, 0), BuildingBlock: MIFKUJ_clean_linker_0, # of connection points: 2
#     Edge 20, Type (0, 0), BuildingBlock: MIFKUJ_clean_linker_0, # of connection points: 2
#     Edge 21, Type (0, 0), BuildingBlock: MIFKUJ_clean_linker_0, # of connection points: 2
#     Edge 22, Type (0, 0), BuildingBlock: MIFKUJ_clean_linker_0, # of connection points: 2
#     Edge 23, Type (0, 0), BuildingBlock: MIFKUJ_clean_linker_0, # of connection points: 2
#     Edge 24, Type (0, 0), BuildingBlock: MIFKUJ_clean_linker_0, # of connection points: 2
#     Edge 25, Type (0, 0), BuildingBlock: MIFKUJ_clean_linker_0, # of connection points: 2
#     Edge 26, Type (0, 0), BuildingBlock: MIFKUJ_clean_linker_0, # of connection points: 2
#     Edge 27, Type (0, 0), BuildingBlock: MIFKUJ_clean_linker_0, # of connection points: 2
#     Edge 28, Type (0, 0), BuildingBlock: MIFKUJ_clean_linker_0, # of connection points: 2
#     Edge 29, Type (0, 0), BuildingBlock: MIFKUJ_clean_linker_0, # of connection points: 2
#     Edge 30, Type (0, 0), BuildingBlock: MIFKUJ_clean_linker_0, # of connection points: 2
#     Edge 31, Type (0, 0), BuildingBlock: MIFKUJ_clean_linker_0, # of connection points: 2
#     Edge 32, Type (0, 0), BuildingBlock: MIFKUJ_clean_linker_0, # of connection points: 2
#     Edge 33, Type (0, 0), BuildingBlock: MIFKUJ_clean_linker_0, # of connection points: 2
#     Edge 34, Type (0, 0), BuildingBlock: MIFKUJ_clean_linker_0, # of connection points: 2
#     Edge 35, Type (0, 0), BuildingBlock: MIFKUJ_clean_linker_0, # of connection points: 2
# Relax obj value: 0.087
# Max RMSD: 0.099
# Mean RMSD: 0.099
data_MOF--net-can--node1-AZAVOO_clean_sbu_0--edge1-MIFKUJ_clean_linker_0
_symmetry_space_group_name_H-M    P1
_symmetry_Int_Tables_number       1
_symmetry_cell_setting            triclinic
loop_
_symmetry_equiv_pos_as_xyz
'x, y, z'
_cell_length_a     75.098593
_cell_length_b     75.049319
_cell_length_c     34.239611
_cell_angle_alpha  89.970509
_cell_angle_beta   89.915072
_cell_angle_gamma 120.02161
loop_
_atom_site_label
_atom_site_type_symbol
_atom_site_fract_x
_atom_site_fract_y
_atom_site_fract_z
_atom_type_partial_charge
Mg0 Mg 0.06724 0.40459 0.24823 0.0
O1 O 0.06654 0.43478 0.25234 0.0
O2 O 0.08081 0.44953 0.3093 0.0
Mg3 Mg 0.08951 0.42865 0.34233 0.0
C4 C 0.07235 0.44943 0.27694 0.0
C5 C 0.04481 0.38405 0.17401 0.0
O6 O 0.03797 0.36922 0.20013 0.0
O7 O 0.1018 0.42209 0.23655 0.0
O8 O 0.1139 0.43456 0.29603 0.0
O9 O 0.03676 0.38801 0.27725 0.0
O10 O 0.06638 0.40222 0.30881 0.0
C11 C 0.11675 0.43199 0.26016 0.0
C12 C 0.04659 0.39275 0.31007 0.0
O13 O 0.05885 0.40195 0.18391 0.0
Mg14 Mg 0.65537 0.07007 0.75554 0.0
O15 O 0.62486 0.07033 0.75708 0.0
O16 O 0.62457 0.08651 0.81163 0.0
Mg17 Mg 0.65423 0.09647 0.84502 0.0
C18 C 0.61616 0.07711 0.77998 0.0
C19 C 0.63305 0.04292 0.6835 0.0
O20 O 0.61887 0.03393 0.71058 0.0
O21 O 0.67277 0.10409 0.73867 0.0
O22 O 0.6721 0.11871 0.79527 0.0
O23 O 0.64161 0.04099 0.79014 0.0
O24 O 0.65731 0.07208 0.81606 0.0
C25 C 0.67749 0.11997 0.75951 0.0
C26 C 0.64727 0.05246 0.82102 0.0
O27 O 0.6498 0.0591 0.69221 0.0
Mg28 Mg 0.59014 0.65902 0.27591 0.0
O29 O 0.5588 0.62951 0.27987 0.0
O30 O 0.54389 0.63041 0.3358 0.0
Mg31 Mg 0.56595 0.65967 0.36871 0.0
C32 C 0.54372 0.6216 0.30382 0.0
C33 C 0.61104 0.66286 0.1974 0.0
O34 O 0.6257 0.67719 0.21888 0.0
O35 O 0.5745 0.67779 0.262 0.0
O36 O 0.56244 0.67904 0.3211 0.0
O37 O 0.60499 0.64389 0.30776 0.0
O38 O 0.59183 0.66107 0.33637 0.0
C39 C 0.56548 0.68417 0.28508 0.0
C40 C 0.60049 0.65008 0.33962 0.0
O41 O 0.59311 0.6525 0.21194 0.0
Mg42 Mg 0.92389 0.59441 0.75918 0.0
O43 O 0.92596 0.56523 0.76681 0.0
O44 O 0.91635 0.55353 0.82764 0.0
Mg45 Mg 0.90824 0.57532 0.85932 0.0
C46 C 0.9226 0.55212 0.7937 0.0
C47 C 0.93218 0.60975 0.67456 0.0
O48 O 0.92979 0.6239 0.69246 0.0
O49 O 0.88881 0.57471 0.7551 0.0
O50 O 0.88109 0.56589 0.81797 0.0
O51 O 0.9558 0.61371 0.78254 0.0
O52 O 0.92766 0.60002 0.81869 0.0
C53 C 0.87569 0.56595 0.78262 0.0
C54 C 0.94737 0.61042 0.81676 0.0
O55 O 0.92917 0.59398 0.69376 0.0
Mg56 Mg 0.33885 0.92033 0.26647 0.0
O57 O 0.36818 0.91809 0.26669 0.0
O58 O 0.36995 0.90443 0.32351 0.0
Mg59 Mg 0.34104 0.89641 0.35861 0.0
C60 C 0.37738 0.91214 0.2901 0.0
C61 C 0.36051 0.94594 0.19353 0.0
O62 O 0.37424 0.95537 0.22106 0.0
O63 O 0.31934 0.88585 0.25405 0.0
O64 O 0.32123 0.87299 0.31197 0.0
O65 O 0.3555 0.95045 0.29772 0.0
O66 O 0.33822 0.92021 0.32699 0.0
C67 C 0.31466 0.87062 0.27688 0.0
C68 C 0.34982 0.93981 0.32969 0.0
O69 O 0.34388 0.92956 0.20213 0.0
Mg70 Mg 0.41009 0.33596 0.74129 0.0
O71 O 0.44105 0.36617 0.74117 0.0
O72 O 0.45783 0.36695 0.79554 0.0
Mg73 Mg 0.43769 0.33802 0.83114 0.0
C74 C 0.4567 0.37501 0.76349 0.0
C75 C 0.40606 0.35788 0.66845 0.0
O76 O 0.41106 0.37198 0.69556 0.0
O77 O 0.42557 0.31718 0.72645 0.0
O78 O 0.44023 0.31795 0.78374 0.0
O79 O 0.39587 0.3513 0.77426 0.0
O80 O 0.41036 0.33513 0.80195 0.0
C81 C 0.43584 0.31181 0.74844 0.0
C82 C 0.40164 0.34604 0.80573 0.0
O83 O 0.40507 0.34096 0.67745 0.0
Mg84 Mg 0.61168 0.92622 0.23947 0.0
O85 O 0.58111 0.92533 0.22911 0.0
O86 O 0.5723 0.918 0.16637 0.0
Mg87 Mg 0.59653 0.91267 0.13702 0.0
C88 C 0.56894 0.92233 0.20066 0.0
C89 C 0.62449 0.943 0.32106 0.0
O90 O 0.64134 0.9524 0.29992 0.0
O91 O 0.59462 0.89097 0.23996 0.0
O92 O 0.58725 0.88474 0.1764 0.0
O93 O 0.62855 0.95902 0.22002 0.0
O94 O 0.61911 0.9325 0.18059 0.0
C95 C 0.58691 0.87849 0.21125 0.0
C96 C 0.62688 0.95203 0.18488 0.0
O97 O 0.60815 0.92911 0.30499 0.0
Mg98 Mg 0.67992 0.60371 0.75844 0.0
O99 O 0.64826 0.5768 0.74078 0.0
O100 O 0.64994 0.56931 0.67807 0.0
Mg101 Mg 0.68209 0.59132 0.65541 0.0
C102 C 0.64007 0.56616 0.71006 0.0
C103 C 0.68083 0.61465 0.844 0.0
O104 O 0.69739 0.63038 0.82916 0.0
O105 O 0.69305 0.5819 0.76101 0.0
O106 O 0.69452 0.5765 0.69716 0.0
O107 O 0.67 0.62553 0.73811 0.0
O108 O 0.68565 0.61352 0.7007 0.0
C109 C 0.69755 0.57369 0.73275 0.0
C110 C 0.67613 0.62373 0.70375 0.0
O111 O 0.67012 0.59917 0.82233 0.0
Mg112 Mg 0.07209 0.67777 0.24516 0.0
O113 O 0.06902 0.64597 0.23582 0.0
O114 O 0.08296 0.64635 0.17783 0.0
Mg115 Mg 0.09444 0.67767 0.14973 0.0
C116 C 0.07396 0.63721 0.20937 0.0
C117 C 0.05287 0.67794 0.32343 0.0
O118 O 0.051 0.69162 0.30256 0.0
O119 O 0.10649 0.69208 0.25808 0.0
O120 O 0.1184 0.69192 0.19812 0.0
O121 O 0.04227 0.66701 0.21487 0.0
O122 O 0.07244 0.68197 0.18504 0.0
C123 C 0.12127 0.69609 0.23451 0.0
C124 C 0.05271 0.67277 0.18265 0.0
O125 O 0.06239 0.66952 0.30872 0.0
Mg126 Mg 0.38177 0.06239 0.74887 0.0
O127 O 0.41341 0.06604 0.73559 0.0
O128 O 0.42011 0.07323 0.67203 0.0
Mg129 Mg 0.3938 0.07602 0.64546 0.0
C130 C 0.42496 0.06968 0.7057 0.0
C131 C 0.37011 0.04496 0.82867 0.0
O132 O 0.35381 0.03524 0.8063 0.0
O133 O 0.39607 0.09748 0.74903 0.0
O134 O 0.40245 0.10366 0.68512 0.0
O135 O 0.36803 0.02978 0.73038 0.0
O136 O 0.37335 0.05532 0.69065 0.0
C137 C 0.40291 0.1099 0.72 0.0
C138 C 0.36825 0.03636 0.69538 0.0
O139 O 0.38629 0.05992 0.81408 0.0
Mg140 Mg 0.31842 0.39217 0.22588 0.0
O141 O 0.3481 0.42342 0.22282 0.0
O142 O 0.35049 0.43685 0.1635 0.0
Mg143 Mg 0.32214 0.41448 0.12883 0.0
C144 C 0.35756 0.43775 0.19777 0.0
C145 C 0.32101 0.37458 0.304 0.0
O146 O 0.31484 0.35906 0.27967 0.0
O147 O 0.2997 0.40837 0.23188 0.0
O148 O 0.30201 0.42038 0.17119 0.0
O149 O 0.3352 0.3772 0.202 0.0
O150 O 0.31916 0.3891 0.16553 0.0
C151 C 0.29531 0.41795 0.20623 0.0
C152 C 0.33094 0.38123 0.16766 0.0
O153 O 0.323 0.39141 0.29138 0.0
Mg154 Mg 0.91683 0.32111 0.73449 0.0
O155 O 0.91672 0.35143 0.72765 0.0
O156 O 0.90641 0.35361 0.66759 0.0
Mg157 Mg 0.89764 0.32336 0.63701 0.0
C158 C 0.91289 0.36113 0.70145 0.0
C159 C 0.9389 0.34524 0.80785 0.0
O160 O 0.94849 0.35841 0.77946 0.0
O161 O 0.882 0.304 0.74255 0.0
O162 O 0.87195 0.30607 0.68195 0.0
O163 O 0.94809 0.33545 0.70814 0.0
O164 O 0.91924 0.31943 0.67426 0.0
C165 C 0.86792 0.3002 0.71751 0.0
C166 C 0.939 0.33017 0.67459 0.0
O167 O 0.92367 0.32767 0.79948 0.0
H168 H 0.05394 0.41134 0.11358 0.0
H169 H 0.03553 0.40518 0.05162 0.0
H170 H 0.99437 0.3422 0.08567 0.0
H171 H 0.01289 0.34807 0.14704 0.0
H172 H 0.00509 0.34402 0.01157 0.0
H173 H 0.98034 0.37935 0.09283 0.0
H174 H 0.98374 0.40752 0.13495 0.0
H175 H 0.01189 0.45049 0.04066 0.0
H176 H 0.00892 0.4226 -0.00189 0.0
H177 H 0.92734 0.31951 0.87137 0.0
H178 H 0.94448 0.32668 0.9349 0.0
H179 H 0.98703 0.38878 0.89799 0.0
H180 H 0.96988 0.38187 0.83477 0.0
H181 H 0.97548 0.38761 0.9735 0.0
H182 H 0.0006 0.35236 0.89276 0.0
H183 H -0.00262 0.32423 0.85071 0.0
H184 H 0.96849 0.2811 0.94451 0.0
H185 H 0.97129 0.30895 0.98697 0.0
C186 C 0.04108 0.39614 0.10771 0.0
C187 C 0.03482 0.38022 0.13532 0.0
C188 C 0.03049 0.39268 0.07241 0.0
C189 C 0.01336 0.37331 0.06431 0.0
C190 C 0.0075 0.35728 0.09134 0.0
C191 C 0.0181 0.36069 0.12647 0.0
C192 C 0.00135 0.36968 0.02788 0.0
C193 C -0.00161 0.35339 0.00353 0.0
C194 C 0.99295 0.38216 0.01698 0.0
C195 C 0.99459 0.39892 0.04241 0.0
C196 C 0.98739 0.39483 0.08116 0.0
C197 C 0.98922 0.41074 0.1051 0.0
C198 C -0.00192 0.43079 0.09053 0.0
C199 C 0.00506 0.43496 0.05193 0.0
C200 C 0.00329 0.4191 0.02788 0.0
C201 C 0.94015 0.33478 0.87698 0.0
C202 C 0.9474 0.35005 0.84787 0.0
C203 C 0.94999 0.33882 0.91321 0.0
C204 C 0.96725 0.35816 0.92086 0.0
C205 C 0.9738 0.37373 0.89262 0.0
C206 C 0.96401 0.36971 0.85643 0.0
C207 C 0.97915 0.36189 0.95742 0.0
C208 C 0.98213 0.37822 0.98169 0.0
C209 C 0.98757 0.34944 0.96831 0.0
C210 C 0.98596 0.3327 0.9429 0.0
C211 C 0.99342 0.33685 0.90432 0.0
C212 C 0.99169 0.32096 0.88043 0.0
C213 C 0.98269 0.30088 0.89489 0.0
C214 C 0.97544 0.29666 0.93332 0.0
C215 C 0.9771 0.31249 0.95732 0.0
H216 H 0.98137 0.2886 0.87636 0.0
H217 H -0.00051 0.4431 0.10911 0.0
H218 H 0.65666 0.97352 0.36079 0.0
H219 H 0.65601 0.98813 0.4238 0.0
H220 H 0.59135 0.94399 0.43563 0.0
H221 H 0.59176 0.92948 0.37167 0.0
H222 H 0.59863 0.98144 0.45379 0.0
H223 H 0.6276 0.94032 0.4914 0.0
H224 H 0.65113 0.92637 0.48809 0.0
H225 H 0.70276 0.98677 0.50726 0.0
H226 H 0.67958 0.00114 0.51015 0.0
H227 H 0.59862 0.0095 0.65456 0.0
H228 H 0.59541 0.99104 0.59376 0.0
H229 H 0.65837 0.03498 0.56474 0.0
H230 H 0.66176 0.05353 0.6255 0.0
H231 H 0.64965 0.99482 0.55801 0.0
H232 H 0.61985 0.0357 0.51701 0.0
H233 H 0.59571 0.04887 0.52116 0.0
H234 H 0.54462 0.98741 0.5101 0.0
H235 H 0.56847 0.97383 0.50643 0.0
C236 C 0.6423 0.96671 0.37688 0.0
C237 C 0.62425 0.95029 0.36116 0.0
C238 C 0.64199 0.97506 0.41308 0.0
C239 C 0.62369 0.96703 0.43474 0.0
C240 C 0.60566 0.95041 0.41947 0.0
C241 C 0.60594 0.94207 0.38302 0.0
C242 C 0.62338 0.97672 0.47239 0.0
C243 C 0.60953 0.984 0.4769 0.0
C244 C 0.63783 0.98041 0.50231 0.0
C245 C 0.65185 0.97183 0.50069 0.0
C246 C 0.64399 0.95066 0.49462 0.0
C247 C 0.65726 0.94267 0.49287 0.0
C248 C 0.67843 0.95568 0.49738 0.0
C249 C 0.68636 0.97671 0.50375 0.0
C250 C 0.67316 0.98478 0.50549 0.0
C251 C 0.61173 0.01538 0.63506 0.0
C252 C 0.63047 0.03297 0.64494 0.0
C253 C 0.60985 0.00482 0.60028 0.0
C254 C 0.62665 0.01165 0.57474 0.0
C255 C 0.64523 0.02943 0.58412 0.0
C256 C 0.6471 0.04007 0.61877 0.0
C257 C 0.62517 -0.00019 0.53901 0.0
C258 C 0.63866 0.99209 0.53498 0.0
C259 C 0.61029 0.99557 0.50975 0.0
C260 C 0.59594 0.00373 0.51189 0.0
C261 C 0.60347 0.02497 0.51582 0.0
C262 C 0.58983 0.03252 0.51801 0.0
C263 C 0.56864 0.01898 0.51601 0.0
C264 C 0.56104 0.99787 0.51171 0.0
C265 C 0.5746 0.99025 0.50954 0.0
H266 H 0.55811 0.02485 0.51771 0.0
H267 H 0.68868 0.94947 0.49602 0.0
H268 H 0.58623 0.63027 0.15001 0.0
H269 H 0.59582 0.62029 0.08883 0.0
H270 H 0.65668 0.67332 0.09666 0.0
H271 H 0.64722 0.68348 0.15741 0.0
H272 H 0.64177 0.66774 0.02296 0.0
H273 H 0.6476 0.62611 0.12447 0.0
H274 H 0.63476 0.60127 0.17901 0.0
H275 H 0.58849 0.55572 0.10437 0.0
H276 H 0.6009 0.5804 0.0495 0.0
H277 H 0.701 0.64486 0.89797 0.0
H278 H 0.68693 0.65091 0.95747 0.0
H279 H 0.62915 0.59537 0.93711 0.0
H280 H 0.64325 0.589 0.87757 0.0
H281 H 0.6391 0.60041 0.01441 0.0
H282 H 0.63442 0.641 0.9118 0.0
H283 H 0.64702 0.66563 0.85695 0.0
H284 H 0.69034 0.71292 0.93297 0.0
H285 H 0.6782 0.68849 0.98819 0.0
C286 C 0.60158 0.63992 0.13849 0.0
C287 C 0.616 0.65762 0.1587 0.0
C288 C 0.60707 0.63412 0.10365 0.0
C289 C 0.62705 0.64592 0.08847 0.0
C290 C 0.6412 0.66396 0.10789 0.0
C291 C 0.63577 0.66972 0.14269 0.0
C292 C 0.63354 0.63939 0.05284 0.0
C293 C 0.64134 0.65309 0.02122 0.0
C294 C 0.63242 0.62002 0.05013 0.0
C295 C 0.62502 0.60517 0.08303 0.0
C296 C 0.63458 0.61085 0.11979 0.0
C297 C 0.62741 0.59679 0.15073 0.0
C298 C 0.61078 0.57695 0.14519 0.0
C299 C 0.60134 0.57111 0.10864 0.0
C300 C 0.60845 0.58512 0.07761 0.0
C301 C 0.68538 0.63376 0.90634 0.0
C302 C 0.67318 0.61656 0.88279 0.0
C303 C 0.67733 0.6373 0.94029 0.0
C304 C 0.65684 0.62385 0.95123 0.0
C305 C 0.64495 0.60603 0.92903 0.0
C306 C 0.65304 0.60241 0.89504 0.0
C307 C 0.64773 0.62896 0.98489 0.0
C308 C 0.63938 0.61499 0.01603 0.0
C309 C 0.64825 0.64806 0.98715 0.0
C310 C 0.65551 0.66285 0.95406 0.0
C311 C 0.64673 0.65661 0.91677 0.0
C312 C 0.65378 0.67054 0.88562 0.0
C313 C 0.6695 0.69082 0.89146 0.0
C314 C 0.67817 0.69721 0.92849 0.0
C315 C 0.6712 0.68333 0.95973 0.0
H316 H 0.67493 0.70158 0.8673 0.0
H317 H 0.60525 0.56609 0.16919 0.0
H318 H 0.04681 0.64485 0.36769 0.0
H319 H 0.02615 0.6318 0.42735 0.0
H320 H 0.01355 0.6819 0.4241 0.0
H321 H 0.03417 0.69507 0.36477 0.0
H322 H 0.02278 0.67511 0.49757 0.0
H323 H 0.97832 0.635 0.39193 0.0
H324 H 0.96846 0.61218 0.33454 0.0
H325 H 0.97163 0.56598 0.40328 0.0
H326 H 0.98179 0.58866 0.46099 0.0
H327 H 0.93933 0.64126 0.62535 0.0
H328 H 0.95931 0.65108 0.56494 0.0
H329 H 0.96694 0.59797 0.57448 0.0
H330 H 0.94661 0.58781 0.63474 0.0
H331 H 0.96131 0.60511 0.49915 0.0
H332 H 0.00466 0.64437 0.60515 0.0
H333 H 0.01473 0.66699 0.66285 0.0
H334 H 0.01434 0.71461 0.59394 0.0
H335 H 0.00397 0.69215 0.53592 0.0
C336 C 0.03982 0.65321 0.37992 0.0
C337 C 0.04207 0.67096 0.3614 0.0
C338 C 0.02792 0.64565 0.41386 0.0
C339 C 0.01811 0.65574 0.42986 0.0
C340 C 0.02094 0.67385 0.41218 0.0
C341 C 0.03271 0.68133 0.37822 0.0
C342 C 0.00459 0.64736 0.46465 0.0
C343 C 0.00923 0.65988 0.49778 0.0
C344 C 0.98721 0.62728 0.46526 0.0
C345 C 0.98104 0.61361 0.43065 0.0
C346 C 0.97708 0.62004 0.39472 0.0
C347 C 0.97141 0.60712 0.36215 0.0
C348 C 0.96948 0.58767 0.36523 0.0
C349 C 0.97317 0.58107 0.40092 0.0
C350 C 0.97887 0.59394 0.43357 0.0
C351 C 0.94499 0.63148 0.61436 0.0
C352 C 0.94157 0.61388 0.63513 0.0
C353 C 0.9565 0.63718 0.57989 0.0
C354 C 0.96503 0.62552 0.5657 0.0
C355 C 0.96063 0.60727 0.58506 0.0
C356 C 0.949 0.60149 0.61951 0.0
C357 C 0.97935 0.63299 0.53186 0.0
C358 C 0.97491 0.6203 0.499 0.0
C359 C 0.99699 0.6529 0.5315 0.0
C360 C 0.00336 0.66651 0.56628 0.0
C361 C 0.00658 0.65961 0.60237 0.0
C362 C 0.01236 0.67241 0.63512 0.0
C363 C 0.01513 0.69221 0.63208 0.0
C364 C 0.01217 0.69926 0.59626 0.0
C365 C 0.00635 0.68651 0.56342 0.0
H366 H 0.0196 0.70209 0.65748 0.0
H367 H 0.96509 0.57768 0.33998 0.0
H368 H 0.34008 0.00946 0.86081 0.0
H369 H 0.3402 0.99449 0.92359 0.0
H370 H 0.3995 0.04701 0.94977 0.0
H371 H 0.39983 0.06189 0.88568 0.0
H372 H 0.39911 0.01287 0.96906 0.0
H373 H 0.35419 0.03934 0.9946 0.0
H374 H 0.32513 0.04521 0.98287 0.0
H375 H 0.2828 0.98026 0.99118 0.0
H376 H 0.31162 0.97397 0.00245 0.0
H377 H 0.39266 0.98262 0.16899 0.0
H378 H 0.39573 0.00058 0.10777 0.0
H379 H 0.33805 0.94962 0.06882 0.0
H380 H 0.33464 0.93168 0.13048 0.0
H381 H 0.33909 0.98545 0.05855 0.0
H382 H 0.38481 0.95934 0.03052 0.0
H383 H 0.41417 0.95405 0.04305 0.0
H384 H 0.45539 0.01938 0.04097 0.0
H385 H 0.42623 0.02507 0.02894 0.0
C386 C 0.35312 0.018 0.87995 0.0
C387 C 0.36992 0.03695 0.86828 0.0
C388 C 0.35311 0.00942 0.91604 0.0
C389 C 0.36968 0.01976 0.94181 0.0
C390 C 0.38649 0.03878 0.93043 0.0
C391 C 0.38663 0.04731 0.89392 0.0
C392 C 0.36958 0.01019 0.97989 0.0
C393 C 0.38615 0.00722 0.98898 0.0
C394 C 0.3525 0.00243 0.00559 0.0
C395 C 0.3351 0.00618 -0.00089 0.0
C396 C 0.33869 0.0263 0.99369 0.0
C397 C 0.32226 0.0297 0.98716 0.0
C398 C 0.30213 0.01311 0.98621 0.0
C399 C 0.29839 0.99309 0.99191 0.0
C400 C 0.31477 0.9896 -0.00157 0.0
C401 C 0.38072 0.97509 0.14726 0.0
C402 C 0.36336 0.95571 0.15469 0.0
C403 C 0.38255 0.98538 0.11217 0.0
C404 C 0.36719 0.97641 0.08359 0.0
C405 C 0.35008 0.95685 0.09051 0.0
C406 C 0.34819 0.94657 0.12569 0.0
C407 C 0.36842 0.98783 0.04732 0.0
C408 C 0.35209 0.99121 0.03869 0.0
C409 C 0.38576 0.99606 0.02225 0.0
C410 C 0.40331 0.99263 0.02919 0.0
C411 C 0.40012 0.97258 0.03301 0.0
C412 C 0.41672 0.96951 0.03998 0.0
C413 C 0.43662 0.98637 0.0429 0.0
C414 C 0.43996 0.00633 0.03875 0.0
C415 C 0.4234 0.00949 0.03181 0.0
H416 H 0.44946 0.98395 0.04831 0.0
H417 H 0.28943 0.01578 0.98113 0.0
H418 H 0.33785 0.40466 0.36005 0.0
H419 H 0.35231 0.40282 0.42297 0.0
H420 H 0.33496 0.33967 0.39992 0.0
H421 H 0.32015 0.34122 0.33759 0.0
H422 H 0.32734 0.34423 0.47392 0.0
H423 H 0.38439 0.37933 0.38475 0.0
H424 H 0.40612 0.40645 0.3375 0.0
H425 H 0.42007 0.45272 0.42461 0.0
H426 H 0.3982 0.4259 0.47225 0.0
H427 H 0.39023 0.33018 0.60838 0.0
H428 H 0.37633 0.33422 0.54658 0.0
H429 H 0.39289 0.3962 0.57852 0.0
H430 H 0.40699 0.39239 0.6402 0.0
H431 H 0.40087 0.39345 0.50142 0.0
H432 H 0.34446 0.35834 0.59082 0.0
H433 H 0.32248 0.33131 0.63793 0.0
H434 H 0.30722 0.28509 0.55007 0.0
H435 H 0.32936 0.31184 0.50257 0.0
C436 C 0.3369 0.39031 0.3686 0.0
C437 C 0.32796 0.37312 0.3437 0.0
C438 C 0.3453 0.38933 0.40444 0.0
C439 C 0.34503 0.37121 0.41583 0.0
C440 C 0.33541 0.35383 0.39168 0.0
C441 C 0.32697 0.35477 0.35599 0.0
C442 C 0.35513 0.37034 0.45243 0.0
C443 C 0.34347 0.35486 0.47971 0.0
C444 C 0.37608 0.3845 0.46039 0.0
C445 C 0.38948 0.40062 0.43194 0.0
C446 C 0.39199 0.3953 0.39375 0.0
C447 C 0.40434 0.41061 0.36691 0.0
C448 C 0.4144 0.4313 0.37801 0.0
C449 C 0.41223 0.4367 0.41603 0.0
C450 C 0.39987 0.42145 0.44298 0.0
C451 C 0.39113 0.34475 0.60209 0.0
C452 C 0.39955 0.36089 0.62938 0.0
C453 C 0.3831 0.34701 0.56684 0.0
C454 C 0.38329 0.3654 0.55827 0.0
C455 C 0.39252 0.38185 0.58464 0.0
C456 C 0.40051 0.37961 0.61993 0.0
C457 C 0.37311 0.36718 0.52259 0.0
C458 C 0.38474 0.38285 0.49558 0.0
C459 C 0.35212 0.35319 0.51481 0.0
C460 C 0.33872 0.33708 0.54326 0.0
C461 C 0.33654 0.3424 0.58163 0.0
C462 C 0.32403 0.32713 0.60839 0.0
C463 C 0.3135 0.30649 0.59703 0.0
C464 C 0.31541 0.30108 0.55885 0.0
C465 C 0.32792 0.31629 0.53199 0.0
H466 H 0.30382 0.29469 0.61779 0.0
H467 H 0.42391 0.44313 0.35717 0.0
H468 H 0.93326 0.60889 0.89043 0.0
H469 H 0.95301 0.62057 0.95037 0.0
H470 H 0.00915 0.64058 0.88539 0.0
H471 H 0.98923 0.62824 0.82471 0.0
H472 H 0.00818 0.62048 0.95289 0.0
H473 H 0.99725 0.67558 0.91647 0.0
H474 H 0.97739 0.6919 0.89528 0.0
H475 H 0.94088 0.67083 -0.00027 0.0
H476 H 0.96032 0.65413 0.02131 0.0
H477 H 0.07068 0.68284 0.11051 0.0
H478 H 0.05381 0.67245 0.04717 0.0
H479 H 0.99461 0.64138 0.10399 0.0
H480 H 0.01141 0.65106 0.16793 0.0
H481 H -0.00059 0.66888 0.03869 0.0
H482 H 0.00993 0.61259 0.07317 0.0
H483 H 0.03058 0.59716 0.09444 0.0
H484 H 0.06897 0.62166 0.99293 0.0
H485 H 0.04878 0.6376 0.97142 0.0
C486 C 0.94977 0.61554 0.88873 0.0
C487 C 0.95968 0.61752 0.85282 0.0
C488 C 0.96106 0.6224 0.92307 0.0
C489 C 0.98253 0.63169 0.9222 0.0
C490 C 0.99256 0.6335 0.88654 0.0
C491 C 0.9812 0.62652 0.85198 0.0
C492 C 0.99428 0.63945 0.95887 0.0
C493 C 0.00658 0.63135 0.97134 0.0
C494 C 0.99185 0.65336 0.98315 0.0
C495 C 0.98015 0.66346 0.97036 0.0
C496 C 0.98488 0.67429 0.93479 0.0
C497 C 0.97372 0.68364 0.92273 0.0
C498 C 0.95785 0.68237 0.94611 0.0
C499 C 0.95316 0.67179 0.98164 0.0
C500 C 0.96427 0.6624 0.99383 0.0
C501 C 0.0541 0.67355 0.10974 0.0
C502 C 0.0424 0.66741 0.14432 0.0
C503 C 0.04451 0.66774 0.07346 0.0
C504 C 0.02306 0.65601 0.07116 0.0
C505 C 0.01123 0.65038 0.10543 0.0
C506 C 0.02085 0.65591 0.14183 0.0
C507 C 0.013 0.64969 0.03278 0.0
C508 C 0.00109 0.65812 0.02004 0.0
C509 C 0.01591 0.63621 0.00822 0.0
C510 C 0.02798 0.62651 0.02093 0.0
C511 C 0.0229 0.61487 0.05558 0.0
C512 C 0.0345 0.60599 0.06764 0.0
C513 C 0.05111 0.60847 0.0451 0.0
C514 C 0.05612 0.61978 0.01039 0.0
C515 C 0.0446 0.62874 -0.00175 0.0
H516 H 0.06007 0.60159 0.0545 0.0
H517 H 0.94923 0.68961 0.93672 0.0
H518 H 0.33119 0.92392 0.39881 0.0
H519 H 0.33932 0.94073 0.46215 0.0
H520 H 0.39184 0.99391 0.41196 0.0
H521 H 0.38294 0.97743 0.34755 0.0
H522 H 0.36789 0.95418 0.51212 0.0
H523 H 0.39929 0.03687 0.4573 0.0
H524 H 0.39763 0.05554 0.39928 0.0
H525 H 0.33773 0.00502 0.37185 0.0
H526 H 0.33897 0.98618 0.42991 0.0
H527 H 0.39048 0.01766 0.68162 0.0
H528 H 0.39235 0.00193 0.62023 0.0
H529 H 0.34482 0.01175 0.57177 0.0
H530 H 0.34424 0.02891 0.63206 0.0
H531 H 0.37207 0.02211 0.52104 0.0
H532 H 0.33769 0.96209 0.60478 0.0
H533 H 0.33412 0.94123 0.66313 0.0
H534 H 0.39016 0.94215 0.63346 0.0
H535 H 0.39413 0.96317 0.5751 0.0
C536 C 0.34456 0.93915 0.40128 0.0
C537 C 0.35629 0.94952 0.36827 0.0
C538 C 0.34928 0.94871 0.4376 0.0
C539 C 0.36603 0.96871 0.4418 0.0
C540 C 0.37855 0.97865 0.40924 0.0
C541 C 0.37351 0.96925 0.37254 0.0
C542 C 0.36913 0.97942 0.47969 0.0
C543 C 0.36892 0.9691 0.51409 0.0
C544 C 0.37036 -0.00118 0.48237 0.0
C545 C 0.36936 0.01005 0.4476 0.0
C546 C 0.38577 0.02979 0.43889 0.0
C547 C 0.38489 0.04039 0.40602 0.0
C548 C 0.36762 0.03143 0.38181 0.0
C549 C 0.35113 0.0119 0.39053 0.0
C550 C 0.35192 0.00125 0.42339 0.0
C551 C 0.38022 0.01605 0.65794 0.0
C552 C 0.36697 0.02407 0.66133 0.0
C553 C 0.38128 0.00709 0.62292 0.0
C554 C 0.36855 0.0054 0.5914 0.0
C555 C 0.35489 0.01296 0.59551 0.0
C556 C 0.35436 0.02253 0.62998 0.0
C557 C 0.36974 0.9964 0.55359 0.0
C558 C 0.37116 0.00725 0.5192 0.0
C559 C 0.36877 0.97711 0.55098 0.0
C560 C 0.36631 0.96436 0.58585 0.0
C561 C 0.34929 0.95792 0.61084 0.0
C562 C 0.34719 0.94606 0.64388 0.0
C563 C 0.36193 0.94042 0.65205 0.0
C564 C 0.37877 0.94656 0.62712 0.0
C565 C 0.38094 0.95842 0.59404 0.0
H566 H 0.36028 0.93125 0.67766 0.0
H567 H 0.36698 0.03965 0.35636 0.0
H568 H 0.3857 0.37079 0.82332 0.0
H569 H 0.37835 0.37909 0.88822 0.0
H570 H 0.40349 0.34421 0.94093 0.0
H571 H 0.41028 0.33534 0.87635 0.0
H572 H 0.36778 0.33368 0.97189 0.0
H573 H 0.42895 0.3966 0.9478 0.0
H574 H 0.4535 0.42756 0.91126 0.0
H575 H 0.41008 0.44893 0.91065 0.0
H576 H 0.38513 0.41793 0.94686 0.0
H577 H 0.35866 0.36776 0.16332 0.0
H578 H 0.37488 0.36374 0.1044 0.0
H579 H 0.34177 0.38506 0.03373 0.0
H580 H 0.32503 0.38847 0.09193 0.0
H581 H 0.38568 0.40359 0.0165 0.0
H582 H 0.32364 0.33709 0.03624 0.0
H583 H 0.30082 0.30614 0.07482 0.0
H584 H 0.34946 0.29215 0.08636 0.0
H585 H 0.37265 0.3232 0.04828 0.0
C586 C 0.38985 0.36506 0.84874 0.0
C587 C 0.39864 0.35248 0.8447 0.0
C588 C 0.38577 0.36993 0.88581 0.0
C589 C 0.39058 0.36243 0.91939 0.0
C590 C 0.39972 0.3502 0.91539 0.0
C591 C 0.4037 0.34525 0.8784 0.0
C592 C 0.3847 0.36613 0.95851 0.0
C593 C 0.37206 0.34902 0.98194 0.0
C594 C 0.39017 0.38611 0.9715 0.0
C595 C 0.40509 0.40484 0.94977 0.0
C596 C 0.42456 0.40781 0.93961 0.0
C597 C 0.43857 0.42539 0.919 0.0
C598 C 0.43334 0.44019 0.90852 0.0
C599 C 0.4141 0.43745 0.91876 0.0
C600 C 0.40003 0.41989 0.93939 0.0
C601 C 0.35483 0.3716 0.13524 0.0
C602 C 0.34071 0.37865 0.13235 0.0
C603 C 0.36416 0.36936 0.10172 0.0
C604 C 0.35958 0.37428 0.06497 0.0
C605 C 0.34564 0.38144 0.062 0.0
C606 C 0.33611 0.38341 0.09535 0.0
C607 C 0.36858 0.37114 0.02918 0.0
C608 C 0.38174 0.38834 0.00648 0.0
C609 C 0.36391 0.35128 0.01713 0.0
C610 C 0.34994 0.33259 0.03985 0.0
C611 C 0.32952 0.32752 0.04732 0.0
C612 C 0.31651 0.30994 0.06903 0.0
C613 C 0.32371 0.29722 0.08315 0.0
C614 C 0.34392 0.30203 0.07548 0.0
C615 C 0.35699 0.31961 0.05382 0.0
H616 H 0.31361 0.28362 0.09994 0.0
H617 H 0.44421 0.45378 0.89255 0.0
H618 H 0.9242 0.31932 0.60067 0.0
H619 H 0.94308 0.33159 0.5396 0.0
H620 H -0.00081 0.36895 0.60354 0.0
H621 H 0.98014 0.35726 0.6652 0.0
H622 H 0.99589 0.38976 0.54242 0.0
H623 H 0.98981 0.32393 0.56291 0.0
H624 H 0.97198 0.28671 0.57695 0.0
H625 H 0.9351 0.27477 0.47404 0.0
H626 H 0.95252 0.31196 0.45966 0.0
H627 H 0.06306 0.40217 0.38345 0.0
H628 H 0.04466 0.3933 0.44553 0.0
H629 H 0.9868 0.36282 0.38432 0.0
H630 H 0.00507 0.37207 0.32176 0.0
H631 H 0.99177 0.33915 0.44433 0.0
H632 H -0.00118 0.40574 0.42417 0.0
H633 H 0.01788 0.44296 0.41016 0.0
H634 H 0.05452 0.45347 0.51293 0.0
H635 H 0.03589 0.41624 0.52722 0.0
C636 C 0.9405 0.33031 0.60188 0.0
C637 C 0.95066 0.33742 0.63777 0.0
C638 C 0.95131 0.33717 0.56689 0.0
C639 C 0.97256 0.35098 0.5671 0.0
C640 C 0.98278 0.35826 0.60284 0.0
C641 C 0.97191 0.35149 0.63797 0.0
C642 C 0.98399 0.35762 0.52983 0.0
C643 C 0.99525 0.37873 0.52119 0.0
C644 C 0.98282 0.34316 0.50194 0.0
C645 C 0.97235 0.32076 0.51041 0.0
C646 C 0.97779 0.31338 0.54343 0.0
C647 C 0.96778 0.29229 0.55143 0.0
C648 C 0.95239 0.27839 0.52646 0.0
C649 C 0.94701 0.28556 0.49338 0.0
C650 C 0.95697 0.30664 0.48527 0.0
C651 C 0.04644 0.39391 0.38302 0.0
C652 C 0.03552 0.388 0.34764 0.0
C653 C 0.03596 0.38882 0.41857 0.0
C654 C 0.01444 0.37756 0.4193 0.0
C655 C 0.00345 0.3716 0.38414 0.0
C656 C 0.01391 0.37691 0.34852 0.0
C657 C 0.00346 0.37121 0.4569 0.0
C658 C 0.99237 0.35016 0.46561 0.0
C659 C 0.00496 0.38573 0.4849 0.0
C660 C 0.01609 0.40816 0.47655 0.0
C661 C 0.01106 0.41596 0.4436 0.0
C662 C 0.02176 0.43707 0.43564 0.0
C663 C 0.03743 0.45057 0.46058 0.0
C664 C 0.04239 0.44299 0.4936 0.0
C665 C 0.03175 0.42188 0.50167 0.0
H666 H 0.04571 0.4669 0.45436 0.0
H667 H 0.94465 0.26206 0.53269 0.0
H668 H 0.65663 0.0729 0.89069 0.0
H669 H 0.65177 0.05833 0.95594 0.0
H670 H 0.62417 0.99733 0.90672 0.0
H671 H 0.62819 0.01178 0.84112 0.0
H672 H 0.60452 0.99692 0.97121 0.0
H673 H 0.6753 0.02421 0.93375 0.0
H674 H 0.70964 0.05086 0.91107 0.0
H675 H 0.71561 0.08809 0.01084 0.0
H676 H 0.68117 0.06176 0.03385 0.0
H677 H 0.62747 0.94201 0.10877 0.0
H678 H 0.62981 0.96216 0.05125 0.0
H679 H 0.63888 0.01268 0.12466 0.0
H680 H 0.63573 0.9922 0.183 0.0
H681 H 0.66685 0.02127 0.0534 0.0
H682 H 0.59615 0.99073 0.0932 0.0
H683 H 0.56256 0.96229 0.1149 0.0
H684 H 0.55738 0.92927 0.00921 0.0
H685 H 0.59111 0.95741 0.98712 0.0
C686 C 0.64915 0.05636 0.89363 0.0
C687 C 0.64277 0.04349 0.86065 0.0
C688 C 0.64656 0.04807 0.93103 0.0
C689 C 0.63796 0.02679 0.93612 0.0
C690 C 0.63089 0.01382 0.9034 0.0
C691 C 0.63325 0.0221 0.86594 0.0
C692 C 0.63711 0.01812 0.97536 0.0
C693 C 0.61817 0.0022 0.98906 0.0
C694 C 0.65486 0.0253 -0.00098 0.0
C695 C 0.67557 0.04113 0.98526 0.0
C696 C 0.68387 0.03816 0.95068 0.0
C697 C 0.70336 0.05319 0.9378 0.0
C698 C 0.71477 0.07119 0.95943 0.0
C699 C 0.70673 0.07416 0.99407 0.0
C700 C 0.68724 0.05919 0.00705 0.0
C701 C 0.6298 0.95733 0.11287 0.0
C702 C 0.63091 0.96534 0.15045 0.0
C703 C 0.63125 0.96884 0.07994 0.0
C704 C 0.63419 0.98869 0.08396 0.0
C705 C 0.63645 0.99727 0.12124 0.0
C706 C 0.63469 0.98559 0.1544 0.0
C707 C 0.63438 4e-05 0.04875 0.0
C708 C 0.65318 0.01634 0.03576 0.0
C709 C 0.61658 0.99306 0.02554 0.0
C710 C 0.59624 0.97612 0.03865 0.0
C711 C 0.58794 0.97732 0.07475 0.0
C712 C 0.56885 0.96127 0.08709 0.0
C713 C 0.55786 0.94396 0.06348 0.0
C714 C 0.56592 0.94268 0.02747 0.0
C715 C 0.58501 0.9587 0.015 0.0
H716 H 0.54306 0.93157 0.07302 0.0
H717 H 0.72985 0.08281 0.94942 0.0
H718 H 0.59268 0.6612 0.4106 0.0
H719 H 0.60294 0.65549 0.47445 0.0
H720 H 0.63036 0.62285 0.42114 0.0
H721 H 0.61935 0.62784 0.35669 0.0
H722 H 0.61153 0.60506 0.48977 0.0
H723 H 0.65973 0.67299 0.44399 0.0
H724 H 0.67063 0.70754 0.41765 0.0
H725 H 0.64546 0.72125 0.51831 0.0
H726 H 0.63415 0.68664 0.545 0.0
H727 H 0.68869 0.62428 0.62891 0.0
H728 H 0.67305 0.62814 0.56955 0.0
H729 H 0.63336 0.64188 0.63853 0.0
H730 H 0.64825 0.63703 0.69856 0.0
H731 H 0.65644 0.66852 0.56511 0.0
H732 H 0.60993 0.59993 0.6121 0.0
H733 H 0.60175 0.56603 0.63821 0.0
H734 H 0.62601 0.55399 0.5343 0.0
H735 H 0.63479 0.58804 0.50792 0.0
C736 C 0.60047 0.65241 0.41229 0.0
C737 C 0.60519 0.64497 0.37847 0.0
C738 C 0.60647 0.64929 0.44891 0.0
C739 C 0.61771 0.63907 0.45241 0.0
C740 C 0.62173 0.63084 0.41897 0.0
C741 C 0.61551 0.63377 0.3822 0.0
C742 C 0.62632 0.63818 0.49066 0.0
C743 C 0.62144 0.61893 0.50611 0.0
C744 C 0.63904 0.6563 0.5122 0.0
C745 C 0.6459 0.67715 0.49629 0.0
C746 C 0.65637 0.68331 0.46036 0.0
C747 C 0.66265 0.70292 0.44539 0.0
C748 C 0.65869 0.71656 0.46624 0.0
C749 C 0.64849 0.71065 0.50216 0.0
C750 C 0.64215 0.69105 0.51724 0.0
C751 C 0.67657 0.62801 0.6316 0.0
C752 C 0.66928 0.62976 0.6684 0.0
C753 C 0.66777 0.63034 0.59766 0.0
C754 C 0.65188 0.63491 0.59999 0.0
C755 C 0.64553 0.63816 0.63648 0.0
C756 C 0.65409 0.63545 0.6706 0.0
C757 C 0.64155 0.6355 0.56403 0.0
C758 C 0.64627 0.65468 0.54892 0.0
C759 C 0.62886 0.61735 0.54275 0.0
C760 C 0.62326 0.59668 0.55822 0.0
C761 C 0.61375 0.59017 0.59499 0.0
C762 C 0.60898 0.57091 0.60984 0.0
C763 C 0.61345 0.55791 0.58801 0.0
C764 C 0.62261 0.56411 0.55122 0.0
C765 C 0.62749 0.58339 0.53631 0.0
H766 H 0.60972 0.543 0.59953 0.0
H767 H 0.66356 0.73174 0.4546 0.0
H768 H 0.094 0.61908 0.17713 0.0
H769 H 0.08757 0.58431 0.1878 0.0
H770 H 0.03709 0.57195 0.26487 0.0
H771 H 0.04424 0.60734 0.25581 0.0
H772 H 0.05644 0.55629 0.29534 0.0
H773 H 0.02964 0.55096 0.16941 0.0
H774 H 0.02808 0.56054 0.10114 0.0
H775 H 0.07975 0.55337 0.07188 0.0
H776 H 0.08185 0.54404 0.1401 0.0
H777 H 0.04439 0.45015 0.22655 0.0
H778 H 0.03798 0.47868 0.21496 0.0
H779 H 0.08696 0.5166 0.29467 0.0
H780 H 0.09276 0.48801 0.30759 0.0
H781 H 0.05831 0.51432 0.18518 0.0
H782 H 0.07899 0.54989 0.34255 0.0
H783 H 0.07509 0.53753 0.4105 0.0
H784 H 0.02478 0.47878 0.37637 0.0
H785 H 0.02813 0.49087 0.30835 0.0
C786 C 0.08145 0.60894 0.19621 0.0
C787 C 0.06957 0.6159 0.21553 0.0
C788 C 0.07767 0.58896 0.20207 0.0
C789 C 0.06151 0.57525 0.2264 0.0
C790 C 0.04959 0.58218 0.2458 0.0
C791 C 0.05367 0.60239 0.24061 0.0
C792 C 0.05786 0.55408 0.23277 0.0
C793 C 0.05666 0.54705 0.27122 0.0
C794 C 0.05725 0.54152 0.2013 0.0
C795 C 0.05595 0.54688 0.16 0.0
C796 C 0.04075 0.55153 0.14848 0.0
C797 C 0.03977 0.55692 0.10978 0.0
C798 C 0.05382 0.5576 0.08221 0.0
C799 C 0.06887 0.55283 0.09327 0.0
C800 C 0.06994 0.54746 0.13195 0.0
C801 C 0.05374 0.46458 0.24163 0.0
C802 C 0.06896 0.4668 0.26824 0.0
C803 C 0.05006 0.48087 0.235 0.0
C804 C 0.06167 0.49968 0.25458 0.0
C805 C 0.07732 0.50206 0.28015 0.0
C806 C 0.08074 0.48573 0.28732 0.0
C807 C 0.058 0.51714 0.24776 0.0
C808 C 0.05773 0.52341 0.20925 0.0
C809 C 0.05629 0.52851 0.27911 0.0
C810 C 0.05392 0.52128 0.32023 0.0
C811 C 0.067 0.53438 0.34956 0.0
C812 C 0.0649 0.52741 0.3881 0.0
C813 C 0.04973 0.50737 0.39772 0.0
C814 C 0.03656 0.49428 0.36886 0.0
C815 C 0.03857 0.50118 0.3303 0.0
H816 H 0.04815 0.502 0.42756 0.0
H817 H 0.05304 0.56178 0.05227 0.0
H818 H 0.45647 0.08293 0.65296 0.0
H819 H 0.48858 0.08239 0.65981 0.0
H820 H 0.46983 0.05549 0.77445 0.0
H821 H 0.43765 0.05597 0.76799 0.0
H822 H 0.51906 0.10161 0.7145 0.0
H823 H 0.48744 0.02119 0.78584 0.0
H824 H 0.45571 0.98728 0.78517 0.0
H825 H 0.44137 -0.00044 0.67046 0.0
H826 H 0.47316 0.03338 0.67018 0.0
H827 H 0.59532 0.09337 0.81697 0.0
H828 H 0.56267 0.09042 0.79838 0.0
H829 H 0.55822 0.0523 0.70047 0.0
H830 H 0.59108 0.05512 0.71884 0.0
H831 H 0.52101 0.03765 0.74202 0.0
H832 H 0.57244 0.09989 0.68198 0.0
H833 H 0.60427 0.13366 0.67977 0.0
H834 H 0.57915 0.15735 0.76426 0.0
H835 H 0.54727 0.12362 0.76743 0.0
C836 C 0.45913 0.07685 0.67964 0.0
C837 C 0.44448 0.0695 0.70996 0.0
C838 C 0.4775 0.0766 0.68349 0.0
C839 C 0.48147 0.06875 0.71746 0.0
C840 C 0.46693 0.0614 0.7478 0.0
C841 C 0.44861 0.0618 0.74414 0.0
C842 C 0.50106 0.06872 0.72165 0.0
C843 C 0.5195 0.08762 0.72038 0.0
C844 C 0.50159 0.0504 0.72859 0.0
C845 C 0.48261 0.02991 0.72818 0.0
C846 C 0.47757 0.01661 0.7604 0.0
C847 C 0.45957 0.99741 0.76019 0.0
C848 C 0.44651 0.99129 0.72784 0.0
C849 C 0.45146 0.00434 0.69556 0.0
C850 C 0.46946 0.02354 0.69559 0.0
C851 C 0.58743 0.08426 0.79154 0.0
C852 C 0.59592 0.07457 0.76926 0.0
C853 C 0.56878 0.08265 0.78093 0.0
C854 C 0.55818 0.07132 0.74787 0.0
C855 C 0.56624 0.06115 0.72606 0.0
C856 C 0.58504 0.06285 0.73652 0.0
C857 C 0.53891 0.0706 0.73594 0.0
C858 C 0.52055 0.05159 0.73583 0.0
C859 C 0.53844 0.08879 0.72723 0.0
C860 C 0.55752 0.10917 0.72514 0.0
C861 C 0.57376 0.11226 0.7003 0.0
C862 C 0.5918 0.1314 0.69884 0.0
C863 C 0.59375 0.14763 0.72191 0.0
C864 C 0.57762 0.14476 0.74642 0.0
C865 C 0.55955 0.12564 0.74802 0.0
H866 H 0.60773 0.16244 0.72075 0.0
H867 H 0.43256 0.97643 0.72776 0.0
H868 H 0.53949 0.59469 0.24565 0.0
H869 H 0.50846 0.56254 0.22813 0.0
H870 H 0.47527 0.57147 0.32179 0.0
H871 H 0.50614 0.60353 0.33969 0.0
H872 H 0.48309 0.52632 0.27251 0.0
H873 H 0.4276 0.55809 0.28396 0.0
H874 H 0.42832 0.59124 0.2785 0.0
H875 H 0.47986 0.61378 0.20021 0.0
H876 H 0.47924 0.58068 0.20476 0.0
H877 H 0.3783 0.44527 0.26718 0.0
H878 H 0.41064 0.47585 0.28522 0.0
H879 H 0.41389 0.50217 0.17158 0.0
H880 H 0.38153 0.47184 0.15336 0.0
H881 H 0.42185 0.52971 0.22888 0.0
H882 H 0.44377 0.48148 0.19322 0.0
H883 H 0.44318 0.44836 0.19684 0.0
H884 H 0.45964 0.45883 0.31812 0.0
H885 H 0.46001 0.49187 0.31538 0.0
C886 C 0.52562 0.58979 0.26265 0.0
C887 C 0.52527 0.60175 0.29395 0.0
C888 C 0.50796 0.57136 0.25272 0.0
C889 C 0.48962 0.56476 0.27356 0.0
C890 C 0.48929 0.57642 0.30524 0.0
C891 C 0.50696 0.59472 0.31542 0.0
C892 C 0.47056 0.54611 0.26125 0.0
C893 C 0.46967 0.52701 0.26299 0.0
C894 C 0.45319 0.54713 0.24856 0.0
C895 C 0.45349 0.56698 0.24506 0.0
C896 C 0.43903 0.5701 0.26547 0.0
C897 C 0.43943 0.58888 0.26255 0.0
C898 C 0.45417 0.60463 0.23913 0.0
C899 C 0.4685 0.6016 0.21846 0.0
C900 C 0.46814 0.58284 0.22125 0.0
C901 C 0.38589 0.45754 0.24596 0.0
C902 C 0.37729 0.45608 0.20878 0.0
C903 C 0.40441 0.47497 0.25631 0.0
C904 C 0.41471 0.49119 0.22962 0.0
C905 C 0.40616 0.48981 0.19259 0.0
C906 C 0.38768 0.47241 0.18221 0.0
C907 C 0.43424 0.50981 0.24035 0.0
C908 C 0.43522 0.52895 0.23844 0.0
C909 C 0.45172 0.5088 0.25259 0.0
C910 C 0.45175 0.48907 0.25416 0.0
C911 C 0.44713 0.47665 0.22072 0.0
C912 C 0.44684 0.4579 0.22261 0.0
C913 C 0.45131 0.45147 0.25772 0.0
C914 C 0.45615 0.46382 0.29097 0.0
C915 C 0.45641 0.48257 0.28926 0.0
H916 H 0.45107 0.43694 0.25913 0.0
H917 H 0.45447 0.61917 0.23695 0.0
H918 H 0.92945 0.54024 0.72233 0.0
H919 H 0.93058 0.50906 0.70682 0.0
H920 H 0.92237 0.49211 0.82863 0.0
H921 H 0.92122 0.52328 0.84458 0.0
H922 H 0.9517 0.48512 0.79056 0.0
H923 H 0.88207 0.47087 0.77272 0.0
H924 H 0.85528 0.47724 0.74601 0.0
H925 H 0.87244 0.47091 0.62937 0.0
H926 H 0.89956 0.46479 0.6554 0.0
H927 H 0.91767 0.37868 0.77347 0.0
H928 H 0.92174 0.41228 0.78875 0.0
H929 H 0.91983 0.42405 0.66586 0.0
H930 H 0.91501 0.39015 0.65043 0.0
H931 H 0.8967 0.43454 0.70391 0.0
H932 H 0.96556 0.44755 0.7207 0.0
H933 H 0.99253 0.44127 0.7467 0.0
H934 H 0.97772 0.45023 0.86356 0.0
H935 H 0.95046 0.45631 0.83828 0.0
C936 C 0.92809 0.53002 0.74594 0.0
C937 C 0.92505 0.53417 0.78468 0.0
C938 C 0.92871 0.5122 0.73698 0.0
C939 C 0.92635 0.49824 0.76656 0.0
C940 C 0.9242 0.50272 0.80542 0.0
C941 C 0.92344 0.52049 0.81442 0.0
C942 C 0.92494 0.4784 0.75665 0.0
C943 C 0.9396 0.47394 0.77191 0.0
C944 C 0.90938 0.46408 0.73168 0.0
C945 C 0.89298 0.46759 0.716 0.0
C946 C 0.88024 0.471 0.74137 0.0
C947 C 0.86498 0.47454 0.72636 0.0
C948 C 0.8622 0.47454 0.68602 0.0
C949 C 0.87464 0.47094 0.66061 0.0
C950 C 0.88994 0.46742 0.67547 0.0
C951 C 0.9182 0.38845 0.74967 0.0
C952 C 0.91598 0.38174 0.71072 0.0
C953 C 0.92065 0.40772 0.75845 0.0
C954 C 0.92139 0.42084 0.72842 0.0
C955 C 0.91931 0.4142 0.68951 0.0
C956 C 0.91657 0.39482 0.68074 0.0
C957 C 0.92356 0.44115 0.73759 0.0
C958 C 0.90896 0.44571 0.72232 0.0
C959 C 0.93927 0.45558 0.76235 0.0
C960 C 0.95584 0.45221 0.7776 0.0
C961 C 0.96797 0.44806 0.75196 0.0
C962 C 0.98332 0.44455 0.76657 0.0
C963 C 0.9868 0.44529 0.80676 0.0
C964 C 0.97499 0.44964 0.83243 0.0
C965 C 0.9596 0.45315 0.81797 0.0
H966 H -0.00132 0.44254 0.81802 0.0
H967 H 0.85037 0.47728 0.67445 0.0
H968 H 0.40475 0.90793 0.33612 0.0
H969 H 0.43799 0.91216 0.31716 0.0
H970 H 0.42885 0.9259 0.19907 0.0
H971 H 0.39549 0.92179 0.21774 0.0
H972 H 0.44238 0.89704 0.20462 0.0
H973 H 0.46102 0.96405 0.25294 0.0
H974 H 0.46137 0.98888 0.30048 0.0
H975 H 0.48963 0.96892 0.3856 0.0
H976 H 0.48916 0.94373 0.33875 0.0
H977 H 0.54365 0.92502 0.14658 0.0
H978 H 0.5121 0.92603 0.15842 0.0
H979 H 0.51956 0.92227 0.28259 0.0
H980 H 0.5516 0.92219 0.27101 0.0
H981 H 0.50699 0.94823 0.26951 0.0
H982 H 0.48579 0.87949 0.22537 0.0
H983 H 0.48465 0.85339 0.18008 0.0
H984 H 0.46052 0.87509 0.08988 0.0
H985 H 0.46175 0.90149 0.13452 0.0
C986 C 0.40975 0.91183 0.30608 0.0
C987 C 0.39745 0.91453 0.27845 0.0
C988 C 0.4288 0.91434 0.29537 0.0
C989 C 0.4359 0.91951 0.25683 0.0
C990 C 0.42361 0.92196 0.229 0.0
C991 C 0.4046 0.91965 0.23976 0.0
C992 C 0.45607 0.92203 0.2457 0.0
C993 C 0.45659 0.90845 0.21824 0.0
C994 C 0.47446 0.93663 0.26424 0.0
C995 C 0.47489 0.95187 0.29241 0.0
C996 C 0.46716 0.96483 0.28189 0.0
C997 C 0.46741 0.979 0.3087 0.0
C998 C 0.47548 0.98045 0.34606 0.0
C999 C 0.48337 0.96777 0.35666 0.0
C1000 C 0.48313 0.95356 0.32997 0.0
C1001 C 0.53864 0.92455 0.17641 0.0
C1002 C 0.5501 0.92346 0.20783 0.0
C1003 C 0.52053 0.92501 0.18314 0.0
C1004 C 0.51324 0.92384 0.22138 0.0
C1005 C 0.52486 0.92316 0.25283 0.0
C1006 C 0.54316 0.92305 0.24614 0.0
C1007 C 0.49334 0.92299 0.2288 0.0
C1008 C 0.49285 0.9369 0.25558 0.0
C1009 C 0.47493 0.90853 0.20994 0.0
C1010 C 0.47407 0.89259 0.18315 0.0
C1011 C 0.48037 0.87878 0.1958 0.0
C1012 C 0.47969 0.86392 0.17026 0.0
C1013 C 0.47258 0.86262 0.13209 0.0
C1014 C 0.46606 0.87614 0.11943 0.0
C1015 C 0.46673 0.89104 0.14484 0.0
H1016 H 0.47207 0.85111 0.11236 0.0
H1017 H 0.47566 0.99142 0.36678 0.0
H1018 H 0.62351 0.5304 0.66945 0.0
H1019 H 0.58896 0.50094 0.67511 0.0
H1020 H 0.57329 0.53414 0.75846 0.0
H1021 H 0.60853 0.56322 0.75479 0.0
H1022 H 0.55863 0.49912 0.78419 0.0
H1023 H 0.55304 0.52225 0.66047 0.0
H1024 H 0.56289 0.53548 0.59333 0.0
H1025 H 0.56025 0.47925 0.55863 0.0
H1026 H 0.55059 0.46573 0.62568 0.0
H1027 H 0.45599 0.40282 0.71244 0.0
H1028 H 0.48349 0.43824 0.7003 0.0
H1029 H 0.52342 0.42903 0.77792 0.0
H1030 H 0.49593 0.39407 0.79118 0.0
H1031 H 0.51991 0.45626 0.67057 0.0
H1032 H 0.55289 0.46965 0.83016 0.0
H1033 H 0.53938 0.45979 0.8972 0.0
H1034 H 0.48042 0.44936 0.85946 0.0
H1035 H 0.49361 0.45936 0.79238 0.0
C1036 C 0.61264 0.53146 0.68878 0.0
C1037 C 0.61867 0.54903 0.71179 0.0
C1038 C 0.59277 0.51467 0.69171 0.0
C1039 C 0.57824 0.51535 0.71664 0.0
C1040 C 0.58415 0.53316 0.73902 0.0
C1041 C 0.60426 0.54978 0.73692 0.0
C1042 C 0.55747 0.49687 0.72133 0.0
C1043 C 0.55012 0.48991 0.75925 0.0
C1044 C 0.54572 0.48516 0.6889 0.0
C1045 C 0.55116 0.493 0.64823 0.0
C1046 C 0.55462 0.51272 0.63857 0.0
C1047 C 0.56016 0.52027 0.60051 0.0
C1048 C 0.56223 0.50823 0.57176 0.0
C1049 C 0.55864 0.48856 0.58095 0.0
C1050 C 0.55307 0.48091 0.61897 0.0
C1051 C 0.47068 0.40835 0.72676 0.0
C1052 C 0.47373 0.39573 0.75311 0.0
C1053 C 0.48637 0.42859 0.71979 0.0
C1054 C 0.50537 0.43646 0.73888 0.0
C1055 C 0.50869 0.42352 0.76374 0.0
C1056 C 0.49299 0.40347 0.77113 0.0
C1057 C 0.52187 0.45818 0.73333 0.0
C1058 C 0.52832 0.46573 0.69534 0.0
C1059 C 0.53216 0.471 0.76561 0.0
C1060 C 0.52423 0.46513 0.80613 0.0
C1061 C 0.53708 0.46535 0.8362 0.0
C1062 C 0.52945 0.4597 0.87421 0.0
C1063 C 0.50903 0.45389 0.88257 0.0
C1064 C 0.4962 0.45377 0.85296 0.0
C1065 C 0.50374 0.4594 0.81492 0.0
H1066 H 0.50316 0.44951 0.91201 0.0
H1067 H 0.56661 0.51414 0.54235 0.0
H1068 H 0.12894 0.41888 0.19617 0.0
H1069 H 0.16287 0.42263 0.18563 0.0
H1070 H 0.18626 0.4624 0.28603 0.0
H1071 H 0.15253 0.45892 0.29665 0.0
H1072 H 0.21579 0.47329 0.22757 0.0
H1073 H 0.1676 0.41355 0.30075 0.0
H1074 H 0.13439 0.38189 0.31203 0.0
H1075 H 0.1438 0.35459 0.20962 0.0
H1076 H 0.17695 0.38624 0.19741 0.0
H1077 H 0.27241 0.41075 0.27305 0.0
H1078 H 0.24544 0.41937 0.28471 0.0
H1079 H 0.25824 0.44985 0.17283 0.0
H1080 H 0.28531 0.44167 0.1612 0.0
H1081 H 0.21146 0.40543 0.24263 0.0
H1082 H 0.24482 0.48694 0.174 0.0
H1083 H 0.27823 0.51901 0.168 0.0
H1084 H 0.29972 0.50354 0.27164 0.0
H1085 H 0.26636 0.47153 0.27859 0.0
C1086 C 0.14145 0.42895 0.21527 0.0
C1087 C 0.13795 0.43827 0.24771 0.0
C1088 C 0.1608 0.43102 0.20928 0.0
C1089 C 0.17689 0.44245 0.23556 0.0
C1090 C 0.174 0.45342 0.26558 0.0
C1091 C 0.15466 0.45131 0.27169 0.0
C1092 C 0.19564 0.4407 0.23512 0.0
C1093 C 0.21492 0.45849 0.23062 0.0
C1094 C 0.19445 0.42144 0.24048 0.0
C1095 C 0.17464 0.40232 0.24796 0.0
C1096 C 0.16251 0.40085 0.28049 0.0
C1097 C 0.14371 0.3829 0.28707 0.0
C1098 C 0.13696 0.36625 0.2615 0.0
C1099 C 0.14903 0.36751 0.22936 0.0
C1100 C 0.16783 0.38544 0.22261 0.0
C1101 C 0.26976 0.41963 0.25127 0.0
C1102 C 0.28089 0.42533 0.21604 0.0
C1103 C 0.25431 0.4245 0.25794 0.0
C1104 C 0.24987 0.43528 0.22966 0.0
C1105 C 0.26157 0.44176 0.19528 0.0
C1106 C 0.27697 0.43692 0.18858 0.0
C1107 C 0.23175 0.43799 0.23417 0.0
C1108 C 0.21248 0.42031 0.2395 0.0
C1109 C 0.23306 0.4574 0.23027 0.0
C1110 C 0.25313 0.47673 0.22659 0.0
C1111 C 0.25664 0.49042 0.19561 0.0
C1112 C 0.27558 0.50858 0.19202 0.0
C1113 C 0.2911 0.51328 0.21936 0.0
C1114 C 0.28771 0.49984 0.2504 0.0
C1115 C 0.2688 0.48167 0.25414 0.0
H1116 H 0.30576 0.52734 0.21652 0.0
H1117 H 0.1224 0.35237 0.26665 0.0
H1118 H 0.85228 0.26927 0.77143 0.0
H1119 H 0.81644 0.24185 0.77718 0.0
H1120 H 0.79856 0.27301 0.69347 0.0
H1121 H 0.8345 0.29998 0.68636 0.0
H1122 H 0.78051 0.2358 0.79597 0.0
H1123 H 0.76237 0.23843 0.63292 0.0
H1124 H 0.78067 0.25032 0.56995 0.0
H1125 H 0.82995 0.2427 0.61408 0.0
H1126 H 0.81182 0.23052 0.67708 0.0
H1127 H 0.67935 0.15609 0.77818 0.0
H1128 H 0.70835 0.19066 0.76657 0.0
H1129 H 0.73818 0.16493 0.69767 0.0
H1130 H 0.70879 0.13044 0.70776 0.0
H1131 H 0.74869 0.20125 0.67077 0.0
H1132 H 0.74601 0.17273 0.79811 0.0
H1133 H 0.73034 0.15758 0.86181 0.0
H1134 H 0.72736 0.21173 0.89047 0.0
H1135 H 0.74277 0.22708 0.82667 0.0
C1136 C 0.84063 0.2705 0.75496 0.0
C1137 C 0.84616 0.28654 0.72802 0.0
C1138 C 0.82015 0.25482 0.75821 0.0
C1139 C 0.80489 0.2551 0.73495 0.0
C1140 C 0.81015 0.27218 0.71087 0.0
C1141 C 0.83066 0.28763 0.70701 0.0
C1142 C 0.78399 0.23674 0.73344 0.0
C1143 C 0.77347 0.22838 0.76856 0.0
C1144 C 0.77494 0.22678 0.69772 0.0
C1145 C 0.78586 0.23382 0.65981 0.0
C1146 C 0.77709 0.23925 0.6291 0.0
C1147 C 0.78743 0.24604 0.59343 0.0
C1148 C 0.8065 0.24734 0.58808 0.0
C1149 C 0.81522 0.24176 0.61832 0.0
C1150 C 0.80493 0.23493 0.65401 0.0
C1151 C 0.69182 0.15791 0.75953 0.0
C1152 C 0.69201 0.14063 0.74427 0.0
C1153 C 0.70842 0.17764 0.75312 0.0
C1154 C 0.72572 0.18031 0.73234 0.0
C1155 C 0.72507 0.16323 0.71406 0.0
C1156 C 0.70825 0.14351 0.71978 0.0
C1157 C 0.74526 0.20028 0.7333 0.0
C1158 C 0.75554 0.20892 0.6981 0.0
C1159 C 0.75446 0.21007 0.76905 0.0
C1160 C 0.74532 0.20094 0.80749 0.0
C1161 C 0.74189 0.18134 0.81792 0.0
C1162 C 0.73307 0.17272 0.85403 0.0
C1163 C 0.7278 0.18366 0.88013 0.0
C1164 C 0.7314 0.20326 0.8702 0.0
C1165 C 0.74018 0.21192 0.83407 0.0
H1166 H 0.72097 0.17697 0.90808 0.0
H1167 H 0.81449 0.25262 0.56046 0.0
H1168 H 0.55232 0.70548 0.32934 0.0
H1169 H 0.5492 0.7348 0.31011 0.0
H1170 H 0.56298 0.72756 0.19069 0.0
H1171 H 0.56716 0.69847 0.21027 0.0
H1172 H 0.58586 0.7648 0.21007 0.0
H1173 H 0.51419 0.72014 0.22152 0.0
H1174 H 0.48141 0.69372 0.25042 0.0
H1175 H 0.49071 0.73312 0.3484 0.0
H1176 H 0.5237 0.75967 0.32041 0.0
H1177 H 0.57343 0.84866 0.15541 0.0
H1178 H 0.5633 0.81261 0.16366 0.0
H1179 H 0.57086 0.82109 0.28825 0.0
H1180 H 0.58137 0.85757 0.28043 0.0
H1181 H 0.53378 0.78184 0.25817 0.0
H1182 H 0.60852 0.824 0.24667 0.0
H1183 H 0.64019 0.85003 0.21378 0.0
H1184 H 0.6224 0.81352 0.10933 0.0
H1185 H 0.59045 0.78742 0.14149 0.0
C1186 C 0.55434 0.70979 0.29877 0.0
C1187 C 0.5602 0.69968 0.27139 0.0
C1188 C 0.55234 0.72655 0.28772 0.0
C1189 C 0.5556 0.73334 0.24883 0.0
C1190 C 0.56038 0.72261 0.22091 0.0
C1191 C 0.56273 0.70596 0.2321 0.0
C1192 C 0.55646 0.75301 0.23877 0.0
C1193 C 0.57416 0.76825 0.21982 0.0
C1194 C 0.54141 0.75778 0.25192 0.0
C1195 C 0.52152 0.74187 0.26892 0.0
C1196 C 0.50933 0.72313 0.24937 0.0
C1197 C 0.49069 0.70813 0.26557 0.0
C1198 C 0.484 0.71173 0.30125 0.0
C1199 C 0.49592 0.73035 0.32076 0.0
C1200 C 0.51457 0.7454 0.3047 0.0
C1201 C 0.57272 0.84292 0.18474 0.0
C1202 C 0.57848 0.85613 0.21729 0.0
C1203 C 0.56686 0.82226 0.1893 0.0
C1204 C 0.56646 0.81432 0.22646 0.0
C1205 C 0.57106 0.82705 0.25932 0.0
C1206 C 0.57716 0.84787 0.25478 0.0
C1207 C 0.56321 0.79331 0.23039 0.0
C1208 C 0.54516 0.77802 0.24806 0.0
C1209 C 0.57771 0.78831 0.21547 0.0
C1210 C 0.59701 0.80389 0.19633 0.0
C1211 C 0.61128 0.82162 0.21659 0.0
C1212 C 0.6293 0.83637 0.1981 0.0
C1213 C 0.63328 0.83346 0.15945 0.0
C1214 C 0.61928 0.81577 0.13925 0.0
C1215 C 0.60122 0.80099 0.15759 0.0
H1216 H 0.64723 0.8449 0.14518 0.0
H1217 H 0.46957 0.70009 0.31375 0.0
H1218 H 0.85539 0.55448 0.71217 0.0
H1219 H 0.81944 0.54464 0.7 0.0
H1220 H 0.8107 0.54983 0.82327 0.0
H1221 H 0.84583 0.55835 0.83573 0.0
H1222 H 0.7768 0.52157 0.79677 0.0
H1223 H 0.82548 0.59103 0.75414 0.0
H1224 H 0.85461 0.6172 0.71544 0.0
H1225 H 0.82283 0.58843 0.60931 0.0
H1226 H 0.79359 0.56195 0.64745 0.0
H1227 H 0.71616 0.57172 0.80053 0.0
H1228 H 0.74055 0.55917 0.8067 0.0
H1229 H 0.72855 0.53783 0.68758 0.0
H1230 H 0.70409 0.54995 0.68121 0.0
H1231 H 0.76963 0.56828 0.70384 0.0
H1232 H 0.71709 0.5034 0.75303 0.0
H1233 H 0.68851 0.48027 0.7963 0.0
H1234 H 0.7282 0.50409 0.89599 0.0
H1235 H 0.75697 0.5276 0.85338 0.0
C1236 C 0.84563 0.55312 0.73666 0.0
C1237 C 0.85354 0.55748 0.7748 0.0
C1238 C 0.82513 0.54756 0.72971 0.0
C1239 C 0.81248 0.54701 0.76062 0.0
C1240 C 0.82007 0.55015 0.79888 0.0
C1241 C 0.84029 0.55517 0.80593 0.0
C1242 C 0.7922 0.54536 0.7534 0.0
C1243 C 0.77524 0.53179 0.77645 0.0
C1244 C 0.78999 0.55847 0.72652 0.0
C1245 C 0.8075 0.57439 0.7036 0.0
C1246 C 0.82477 0.59023 0.72255 0.0
C1247 C 0.84129 0.60512 0.70073 0.0
C1248 C 0.8406 0.60443 0.65994 0.0
C1249 C 0.82336 0.5889 0.6409 0.0
C1250 C 0.80682 0.57396 0.66259 0.0
C1251 C 0.71823 0.56378 0.77607 0.0
C1252 C 0.70852 0.56224 0.74014 0.0
C1253 C 0.73212 0.55658 0.77966 0.0
C1254 C 0.7364 0.54774 0.74745 0.0
C1255 C 0.72548 0.54468 0.71268 0.0
C1256 C 0.71156 0.55172 0.70912 0.0
C1257 C 0.75449 0.5449 0.74784 0.0
C1258 C 0.77105 0.55771 0.72352 0.0
C1259 C 0.75642 0.53153 0.77426 0.0
C1260 C 0.73916 0.51738 0.79999 0.0
C1261 C 0.71969 0.50384 0.78421 0.0
C1262 C 0.70346 0.49063 0.80862 0.0
C1263 C 0.70652 0.49073 0.84888 0.0
C1264 C 0.72584 0.50403 0.8648 0.0
C1265 C 0.74213 0.51728 0.84052 0.0
H1266 H 0.69394 0.48049 0.86773 0.0
H1267 H 0.8534 0.61597 0.64309 0.0
H1268 H 0.31065 0.83458 0.30311 0.0
H1269 H 0.28111 0.80012 0.29431 0.0
H1270 H 0.25332 0.82491 0.21745 0.0
H1271 H 0.2832 0.85928 0.22505 0.0
H1272 H 0.24463 0.788 0.31829 0.0
H1273 H 0.21867 0.78928 0.15842 0.0
H1274 H 0.23442 0.8022 0.09377 0.0
H1275 H 0.28851 0.80092 0.12979 0.0
H1276 H 0.27299 0.78773 0.19447 0.0
H1277 H 0.13727 0.72638 0.28959 0.0
H1278 H 0.17366 0.75167 0.29851 0.0
H1279 H 0.19015 0.71803 0.21792 0.0
H1280 H 0.15377 0.69325 0.2078 0.0
H1281 H 0.20758 0.75531 0.19579 0.0
H1282 H 0.2033 0.72329 0.31763 0.0
H1283 H 0.18909 0.70829 0.38217 0.0
H1284 H 0.19856 0.76666 0.42188 0.0
H1285 H 0.21256 0.78196 0.35739 0.0
C1286 C 0.29848 0.83257 0.28346 0.0
C1287 C 0.29917 0.8496 0.26483 0.0
C1288 C 0.28156 0.81289 0.27863 0.0
C1289 C 0.26493 0.80988 0.25536 0.0
C1290 C 0.26609 0.82674 0.23507 0.0
C1291 C 0.28319 0.84641 0.23941 0.0
C1292 C 0.24561 0.78965 0.25536 0.0
C1293 C 0.23662 0.78074 0.29147 0.0
C1294 C 0.23532 0.77991 0.22044 0.0
C1295 C 0.2447 0.78765 0.18142 0.0
C1296 C 0.23388 0.79165 0.15249 0.0
C1297 C 0.24278 0.79905 0.11584 0.0
C1298 C 0.26247 0.80243 0.10771 0.0
C1299 C 0.27329 0.79836 0.13617 0.0
C1300 C 0.26446 0.79095 0.17285 0.0
C1301 C 0.1487 0.72406 0.27478 0.0
C1302 C 0.14276 0.70799 0.24783 0.0
C1303 C 0.16953 0.73852 0.27986 0.0
C1304 C 0.1847 0.73681 0.25877 0.0
C1305 C 0.17875 0.71979 0.23422 0.0
C1306 C 0.15797 0.70559 0.22862 0.0
C1307 C 0.20638 0.75389 0.25874 0.0
C1308 C 0.21575 0.76232 0.22262 0.0
C1309 C 0.21725 0.76284 0.29363 0.0
C1310 C 0.20887 0.75374 0.33254 0.0
C1311 C 0.20222 0.7329 0.34003 0.0
C1312 C 0.19422 0.72434 0.37663 0.0
C1313 C 0.19289 0.7365 0.40608 0.0
C1314 C 0.19959 0.75726 0.39902 0.0
C1315 C 0.2076 0.76588 0.36247 0.0
H1316 H 0.18669 0.72985 0.4344 0.0
H1317 H 0.26934 0.80817 0.07933 0.0
H1318 H 0.41703 0.28383 0.68962 0.0
H1319 H 0.41676 0.25128 0.68213 0.0
H1320 H 0.46274 0.26948 0.77211 0.0
H1321 H 0.4633 0.30208 0.77952 0.0
H1322 H 0.46691 0.2455 0.71626 0.0
H1323 H 0.41429 0.24407 0.79862 0.0
H1324 H 0.38549 0.24984 0.81417 0.0
H1325 H 0.34968 0.20872 0.72202 0.0
H1326 H 0.37842 0.20296 0.70554 0.0
H1327 H 0.40013 0.12979 0.78527 0.0
H1328 H 0.41126 0.16648 0.79127 0.0
H1329 H 0.43489 0.17683 0.67349 0.0
H1330 H 0.42423 0.1406 0.66744 0.0
H1331 H 0.39768 0.18731 0.74943 0.0
H1332 H 0.47505 0.22519 0.66356 0.0
H1333 H 0.50463 0.21994 0.65348 0.0
H1334 H 0.49231 0.18826 0.76334 0.0
H1335 H 0.46285 0.19358 0.77436 0.0
C1336 C 0.42763 0.28124 0.70682 0.0
C1337 C 0.4399 0.29535 0.7357 0.0
C1338 C 0.42736 0.26258 0.70267 0.0
C1339 C 0.43936 0.25782 0.72727 0.0
C1340 C 0.45324 0.27279 0.75309 0.0
C1341 C 0.45348 0.2914 0.75734 0.0
C1342 C 0.43553 0.2365 0.72992 0.0
C1343 C 0.45178 0.23273 0.72326 0.0
C1344 C 0.41595 0.22 0.74052 0.0
C1345 C 0.39856 0.22325 0.75062 0.0
C1346 C 0.40032 0.23637 0.78151 0.0
C1347 C 0.38401 0.23963 0.79051 0.0
C1348 C 0.36578 0.22969 0.76903 0.0
C1349 C 0.36381 0.21643 0.73859 0.0
C1350 C 0.38011 0.21316 0.72942 0.0
C1351 C 0.40799 0.13996 0.76092 0.0
C1352 C 0.41115 0.13222 0.72582 0.0
C1353 C 0.41428 0.16088 0.76433 0.0
C1354 C 0.42402 0.17439 0.73289 0.0
C1355 C 0.4277 0.16678 0.69833 0.0
C1356 C 0.42141 0.14597 0.69486 0.0
C1357 C 0.42893 0.19611 0.73472 0.0
C1358 C 0.41285 0.20001 0.74235 0.0
C1359 C 0.44877 0.21272 0.72576 0.0
C1360 C 0.46662 0.20964 0.7196 0.0
C1361 C 0.47871 0.21719 0.68566 0.0
C1362 C 0.49545 0.21418 0.67976 0.0
C1363 C 0.50031 0.20372 0.7077 0.0
C1364 C 0.48848 0.19629 0.74165 0.0
C1365 C 0.47174 0.19927 0.7477 0.0
H1366 H 0.51327 0.2014 0.70307 0.0
H1367 H 0.35316 0.23222 0.77604 0.0
loop_
_geom_bond_atom_site_label_1
_geom_bond_atom_site_label_2
_geom_bond_distance
_geom_bond_site_symmetry_2
_ccdc_geom_bond_type
Mg0 O1 2.028 . S
Mg0 O7 1.986 . S
Mg0 O9 2.114 . S
Mg0 O10 2.251 . S
Mg0 O13 2.010 . S
O1 Mg0 2.028 . S
O1 C4 1.250 . S
O2 Mg3 2.028 . S
O2 C4 1.248 . S
Mg3 O2 2.028 . S
Mg3 O8 2.032 . S
Mg3 O10 2.079 . S
C4 O1 1.250 . S
C4 O2 1.248 . S
C5 O6 1.264 . S
C5 O13 1.249 . S
O6 C5 1.264 . S
O7 Mg0 1.986 . S
O7 C11 1.246 . S
O8 Mg3 2.032 . S
O8 C11 1.259 . S
O9 Mg0 2.114 . S
O9 C12 1.252 . S
O10 Mg0 2.251 . S
O10 Mg3 2.079 . S
O10 C12 1.273 . S
C11 O7 1.246 . S
C11 O8 1.259 . S
C12 O9 1.252 . S
C12 O10 1.273 . S
O13 Mg0 2.010 . S
O13 C5 1.249 . S
Mg14 O15 2.028 . S
Mg14 O21 1.986 . S
Mg14 O23 2.114 . S
Mg14 O24 2.251 . S
Mg14 O27 2.010 . S
O15 Mg14 2.028 . S
O15 C18 1.250 . S
O16 Mg17 2.028 . S
O16 C18 1.248 . S
Mg17 O16 2.028 . S
Mg17 O22 2.032 . S
Mg17 O24 2.079 . S
C18 O15 1.250 . S
C18 O16 1.248 . S
C19 O20 1.264 . S
C19 O27 1.249 . S
O20 C19 1.264 . S
O21 Mg14 1.986 . S
O21 C25 1.246 . S
O22 Mg17 2.032 . S
O22 C25 1.259 . S
O23 Mg14 2.114 . S
O23 C26 1.252 . S
O24 Mg14 2.251 . S
O24 Mg17 2.079 . S
O24 C26 1.273 . S
C25 O21 1.246 . S
C25 O22 1.259 . S
C26 O23 1.252 . S
C26 O24 1.273 . S
O27 Mg14 2.010 . S
O27 C19 1.249 . S
Mg28 O29 2.028 . S
Mg28 O35 1.986 . S
Mg28 O37 2.114 . S
Mg28 O38 2.251 . S
Mg28 O41 2.010 . S
O29 Mg28 2.028 . S
O29 C32 1.250 . S
O30 Mg31 2.028 . S
O30 C32 1.248 . S
Mg31 O30 2.028 . S
Mg31 O36 2.032 . S
Mg31 O38 2.079 . S
C32 O29 1.250 . S
C32 O30 1.248 . S
C33 O34 1.264 . S
C33 O41 1.249 . S
O34 C33 1.264 . S
O35 Mg28 1.986 . S
O35 C39 1.246 . S
O36 Mg31 2.032 . S
O36 C39 1.259 . S
O37 Mg28 2.114 . S
O37 C40 1.252 . S
O38 Mg28 2.251 . S
O38 Mg31 2.079 . S
O38 C40 1.273 . S
C39 O35 1.246 . S
C39 O36 1.259 . S
C40 O37 1.252 . S
C40 O38 1.273 . S
O41 Mg28 2.010 . S
O41 C33 1.249 . S
Mg42 O43 2.028 . S
Mg42 O49 1.986 . S
Mg42 O51 2.114 . S
Mg42 O52 2.251 . S
Mg42 O55 2.010 . S
O43 Mg42 2.028 . S
O43 C46 1.250 . S
O44 Mg45 2.028 . S
O44 C46 1.248 . S
Mg45 O44 2.028 . S
Mg45 O50 2.032 . S
Mg45 O52 2.079 . S
C46 O43 1.250 . S
C46 O44 1.248 . S
C47 O48 1.264 . S
C47 O55 1.249 . S
O48 C47 1.264 . S
O49 Mg42 1.986 . S
O49 C53 1.246 . S
O50 Mg45 2.032 . S
O50 C53 1.259 . S
O51 Mg42 2.114 . S
O51 C54 1.252 . S
O52 Mg42 2.251 . S
O52 Mg45 2.079 . S
O52 C54 1.273 . S
C53 O49 1.246 . S
C53 O50 1.259 . S
C54 O51 1.252 . S
C54 O52 1.273 . S
O55 Mg42 2.010 . S
O55 C47 1.249 . S
Mg56 O57 2.028 . S
Mg56 O63 1.986 . S
Mg56 O65 2.114 . S
Mg56 O66 2.251 . S
Mg56 O69 2.010 . S
O57 Mg56 2.028 . S
O57 C60 1.250 . S
O58 Mg59 2.028 . S
O58 C60 1.248 . S
Mg59 O58 2.028 . S
Mg59 O64 2.032 . S
Mg59 O66 2.079 . S
C60 O57 1.250 . S
C60 O58 1.248 . S
C61 O62 1.264 . S
C61 O69 1.249 . S
O62 C61 1.264 . S
O63 Mg56 1.986 . S
O63 C67 1.246 . S
O64 Mg59 2.032 . S
O64 C67 1.259 . S
O65 Mg56 2.114 . S
O65 C68 1.252 . S
O66 Mg56 2.251 . S
O66 Mg59 2.079 . S
O66 C68 1.273 . S
C67 O63 1.246 . S
C67 O64 1.259 . S
C68 O65 1.252 . S
C68 O66 1.273 . S
O69 Mg56 2.010 . S
O69 C61 1.249 . S
Mg70 O71 2.028 . S
Mg70 O77 1.986 . S
Mg70 O79 2.114 . S
Mg70 O80 2.251 . S
Mg70 O83 2.010 . S
O71 Mg70 2.028 . S
O71 C74 1.250 . S
O72 Mg73 2.028 . S
O72 C74 1.248 . S
Mg73 O72 2.028 . S
Mg73 O78 2.032 . S
Mg73 O80 2.079 . S
C74 O71 1.250 . S
C74 O72 1.248 . S
C75 O76 1.264 . S
C75 O83 1.249 . S
O76 C75 1.264 . S
O77 Mg70 1.986 . S
O77 C81 1.246 . S
O78 Mg73 2.032 . S
O78 C81 1.259 . S
O79 Mg70 2.114 . S
O79 C82 1.252 . S
O80 Mg70 2.251 . S
O80 Mg73 2.079 . S
O80 C82 1.273 . S
C81 O77 1.246 . S
C81 O78 1.259 . S
C82 O79 1.252 . S
C82 O80 1.273 . S
O83 Mg70 2.010 . S
O83 C75 1.249 . S
Mg84 O85 2.028 . S
Mg84 O91 1.986 . S
Mg84 O93 2.114 . S
Mg84 O94 2.251 . S
Mg84 O97 2.010 . S
O85 Mg84 2.028 . S
O85 C88 1.250 . S
O86 Mg87 2.028 . S
O86 C88 1.248 . S
Mg87 O86 2.028 . S
Mg87 O92 2.032 . S
Mg87 O94 2.079 . S
C88 O85 1.250 . S
C88 O86 1.248 . S
C89 O90 1.264 . S
C89 O97 1.249 . S
O90 C89 1.264 . S
O91 Mg84 1.986 . S
O91 C95 1.246 . S
O92 Mg87 2.032 . S
O92 C95 1.259 . S
O93 Mg84 2.114 . S
O93 C96 1.252 . S
O94 Mg84 2.251 . S
O94 Mg87 2.079 . S
O94 C96 1.273 . S
C95 O91 1.246 . S
C95 O92 1.259 . S
C96 O93 1.252 . S
C96 O94 1.273 . S
O97 Mg84 2.010 . S
O97 C89 1.249 . S
Mg98 O99 2.028 . S
Mg98 O105 1.986 . S
Mg98 O107 2.114 . S
Mg98 O108 2.251 . S
Mg98 O111 2.010 . S
O99 Mg98 2.028 . S
O99 C102 1.250 . S
O100 Mg101 2.028 . S
O100 C102 1.248 . S
Mg101 O100 2.028 . S
Mg101 O106 2.032 . S
Mg101 O108 2.079 . S
C102 O99 1.250 . S
C102 O100 1.248 . S
C103 O104 1.264 . S
C103 O111 1.249 . S
O104 C103 1.264 . S
O105 Mg98 1.986 . S
O105 C109 1.246 . S
O106 Mg101 2.032 . S
O106 C109 1.259 . S
O107 Mg98 2.114 . S
O107 C110 1.252 . S
O108 Mg98 2.251 . S
O108 Mg101 2.079 . S
O108 C110 1.273 . S
C109 O105 1.246 . S
C109 O106 1.259 . S
C110 O107 1.252 . S
C110 O108 1.273 . S
O111 Mg98 2.010 . S
O111 C103 1.249 . S
Mg112 O113 2.028 . S
Mg112 O119 1.986 . S
Mg112 O121 2.114 . S
Mg112 O122 2.251 . S
Mg112 O125 2.010 . S
O113 Mg112 2.028 . S
O113 C116 1.250 . S
O114 Mg115 2.028 . S
O114 C116 1.248 . S
Mg115 O114 2.028 . S
Mg115 O120 2.032 . S
Mg115 O122 2.079 . S
C116 O113 1.250 . S
C116 O114 1.248 . S
C117 O118 1.264 . S
C117 O125 1.249 . S
O118 C117 1.264 . S
O119 Mg112 1.986 . S
O119 C123 1.246 . S
O120 Mg115 2.032 . S
O120 C123 1.259 . S
O121 Mg112 2.114 . S
O121 C124 1.252 . S
O122 Mg112 2.251 . S
O122 Mg115 2.079 . S
O122 C124 1.273 . S
C123 O119 1.246 . S
C123 O120 1.259 . S
C124 O121 1.252 . S
C124 O122 1.273 . S
O125 Mg112 2.010 . S
O125 C117 1.249 . S
Mg126 O127 2.028 . S
Mg126 O133 1.986 . S
Mg126 O135 2.114 . S
Mg126 O136 2.251 . S
Mg126 O139 2.010 . S
O127 Mg126 2.028 . S
O127 C130 1.250 . S
O128 Mg129 2.028 . S
O128 C130 1.248 . S
Mg129 O128 2.028 . S
Mg129 O134 2.032 . S
Mg129 O136 2.079 . S
C130 O127 1.250 . S
C130 O128 1.248 . S
C131 O132 1.264 . S
C131 O139 1.249 . S
O132 C131 1.264 . S
O133 Mg126 1.986 . S
O133 C137 1.246 . S
O134 Mg129 2.032 . S
O134 C137 1.259 . S
O135 Mg126 2.114 . S
O135 C138 1.252 . S
O136 Mg126 2.251 . S
O136 Mg129 2.079 . S
O136 C138 1.273 . S
C137 O133 1.246 . S
C137 O134 1.259 . S
C138 O135 1.252 . S
C138 O136 1.273 . S
O139 Mg126 2.010 . S
O139 C131 1.249 . S
Mg140 O141 2.028 . S
Mg140 O147 1.986 . S
Mg140 O149 2.114 . S
Mg140 O150 2.251 . S
Mg140 O153 2.010 . S
O141 Mg140 2.028 . S
O141 C144 1.250 . S
O142 Mg143 2.028 . S
O142 C144 1.248 . S
Mg143 O142 2.028 . S
Mg143 O148 2.032 . S
Mg143 O150 2.079 . S
C144 O141 1.250 . S
C144 O142 1.248 . S
C145 O146 1.264 . S
C145 O153 1.249 . S
O146 C145 1.264 . S
O147 Mg140 1.986 . S
O147 C151 1.246 . S
O148 Mg143 2.032 . S
O148 C151 1.259 . S
O149 Mg140 2.114 . S
O149 C152 1.252 . S
O150 Mg140 2.251 . S
O150 Mg143 2.079 . S
O150 C152 1.273 . S
C151 O147 1.246 . S
C151 O148 1.259 . S
C152 O149 1.252 . S
C152 O150 1.273 . S
O153 Mg140 2.010 . S
O153 C145 1.249 . S
Mg154 O155 2.028 . S
Mg154 O161 1.986 . S
Mg154 O163 2.114 . S
Mg154 O164 2.251 . S
Mg154 O167 2.010 . S
O155 Mg154 2.028 . S
O155 C158 1.250 . S
O156 Mg157 2.028 . S
O156 C158 1.248 . S
Mg157 O156 2.028 . S
Mg157 O162 2.032 . S
Mg157 O164 2.079 . S
C158 O155 1.250 . S
C158 O156 1.248 . S
C159 O160 1.264 . S
C159 O167 1.249 . S
O160 C159 1.264 . S
O161 Mg154 1.986 . S
O161 C165 1.246 . S
O162 Mg157 2.032 . S
O162 C165 1.259 . S
O163 Mg154 2.114 . S
O163 C166 1.252 . S
O164 Mg154 2.251 . S
O164 Mg157 2.079 . S
O164 C166 1.273 . S
C165 O161 1.246 . S
C165 O162 1.259 . S
C166 O163 1.252 . S
C166 O164 1.273 . S
O167 Mg154 2.010 . S
O167 C159 1.249 . S
H168 C186 0.951 . S
H169 C188 0.951 . S
H170 C190 0.950 1_655 S
H171 C191 0.950 . S
H172 C193 0.962 . S
H173 C196 0.950 . S
H174 C197 0.950 . S
H175 C199 0.950 1_556 S
H176 C200 0.950 . S
H177 C201 0.951 . S
H178 C203 0.951 . S
H179 C205 0.950 1_455 S
H180 C206 0.950 . S
H181 C208 0.962 . S
H182 C211 0.950 . S
H183 C212 0.950 . S
H184 C214 0.950 1_554 S
H185 C215 0.950 . S
C186 H168 0.951 . S
C186 C187 1.366 . S
C186 C188 1.388 . S
C187 C186 1.366 . S
C187 C191 1.385 . S
C188 H169 0.951 . S
C188 C186 1.388 . S
C188 C189 1.366 . S
C189 C188 1.366 . S
C189 C190 1.414 . S
C189 C192 1.499 . S
C190 H170 0.950 1_455 S
C190 C189 1.414 . S
C190 C191 1.374 . S
C191 H171 0.950 . S
C191 C187 1.385 . S
C191 C190 1.374 . S
C192 C189 1.499 . S
C192 C193 1.373 1_455 S
C192 C194 1.389 . S
C193 H172 0.962 . S
C193 C192 1.373 1_655 S
C193 C209 1.382 1_554 S
C194 C192 1.389 . S
C194 C195 1.524 . S
C194 C208 1.382 1_554 S
C195 C194 1.524 . S
C195 C196 1.397 . S
C195 C200 1.363 1_554 S
C196 H173 0.950 . S
C196 C195 1.397 . S
C196 C197 1.334 . S
C197 H174 0.950 . S
C197 C196 1.334 . S
C197 C198 1.287 . S
C198 C197 1.287 . S
C198 C199 1.524 . S
C198 H217 0.913 . S
C199 H175 0.950 1_554 S
C199 C198 1.524 . S
C199 C200 1.415 1_554 S
C200 H176 0.950 . S
C200 C195 1.363 1_556 S
C200 C199 1.415 1_556 S
C201 H177 0.951 . S
C201 C202 1.366 . S
C201 C203 1.388 . S
C202 C201 1.366 . S
C202 C206 1.385 . S
C203 H178 0.951 . S
C203 C201 1.388 . S
C203 C204 1.366 . S
C204 C203 1.366 . S
C204 C205 1.414 . S
C204 C207 1.499 . S
C205 H179 0.950 1_655 S
C205 C204 1.414 . S
C205 C206 1.374 . S
C206 H180 0.950 . S
C206 C202 1.385 . S
C206 C205 1.374 . S
C207 C204 1.499 . S
C207 C208 1.373 1_655 S
C207 C209 1.389 . S
C208 H181 0.962 . S
C208 C194 1.382 1_556 S
C208 C207 1.373 1_455 S
C209 C193 1.382 1_556 S
C209 C207 1.389 . S
C209 C210 1.524 . S
C210 C209 1.524 . S
C210 C211 1.397 . S
C210 C215 1.363 1_556 S
C211 H182 0.950 . S
C211 C210 1.397 . S
C211 C212 1.334 . S
C212 H183 0.950 . S
C212 C211 1.334 . S
C212 C213 1.287 . S
C213 C212 1.287 . S
C213 C214 1.524 . S
C213 H216 0.999 . S
C214 H184 0.950 1_556 S
C214 C213 1.524 . S
C214 C215 1.415 1_556 S
C215 H185 0.950 . S
C215 C210 1.363 1_554 S
C215 C214 1.415 1_554 S
H216 C213 0.999 . S
H217 C198 0.913 . S
H218 C236 0.951 . S
H219 C238 0.951 . S
H220 C240 0.950 . S
H221 C241 0.950 . S
H222 C243 0.950 . S
H223 C246 0.950 . S
H224 C247 0.950 . S
H225 C249 0.950 . S
H226 C250 0.950 . S
H227 C251 0.951 . S
H228 C253 0.951 . S
H229 C255 0.950 . S
H230 C256 0.950 . S
H231 C258 0.950 . S
H232 C261 0.950 . S
H233 C262 0.950 . S
H234 C264 0.950 . S
H235 C265 0.950 . S
C236 H218 0.951 . S
C236 C237 1.366 . S
C236 C238 1.388 . S
C237 C236 1.366 . S
C237 C241 1.385 . S
C238 H219 0.951 . S
C238 C236 1.388 . S
C238 C239 1.366 . S
C239 C238 1.366 . S
C239 C240 1.414 . S
C239 C242 1.499 . S
C240 H220 0.950 . S
C240 C239 1.414 . S
C240 C241 1.374 . S
C241 H221 0.950 . S
C241 C237 1.385 . S
C241 C240 1.374 . S
C242 C239 1.499 . S
C242 C243 1.373 . S
C242 C244 1.389 . S
C243 H222 0.950 . S
C243 C242 1.373 . S
C243 C259 1.377 1_565 S
C244 C242 1.389 . S
C244 C245 1.524 . S
C244 C258 1.377 1_565 S
C245 C244 1.524 . S
C245 C246 1.397 . S
C245 C250 1.363 1_565 S
C246 H223 0.950 . S
C246 C245 1.397 . S
C246 C247 1.334 . S
C247 H224 0.950 . S
C247 C246 1.334 . S
C247 C248 1.287 . S
C248 C247 1.287 . S
C248 C249 1.524 1_565 S
C248 H267 0.913 . S
C249 H225 0.950 . S
C249 C248 1.524 1_545 S
C249 C250 1.415 . S
C250 H226 0.950 . S
C250 C245 1.363 1_545 S
C250 C249 1.415 . S
C251 H227 0.951 . S
C251 C252 1.366 . S
C251 C253 1.388 . S
C252 C251 1.366 . S
C252 C256 1.385 . S
C253 H228 0.951 . S
C253 C251 1.388 . S
C253 C254 1.366 . S
C254 C253 1.366 . S
C254 C255 1.414 . S
C254 C257 1.499 . S
C255 H229 0.950 . S
C255 C254 1.414 . S
C255 C256 1.374 . S
C256 H230 0.950 . S
C256 C252 1.385 . S
C256 C255 1.374 . S
C257 C254 1.499 . S
C257 C258 1.373 . S
C257 C259 1.389 . S
C258 H231 0.950 . S
C258 C244 1.377 1_545 S
C258 C257 1.373 . S
C259 C243 1.377 1_545 S
C259 C257 1.389 . S
C259 C260 1.524 . S
C260 C259 1.524 . S
C260 C261 1.397 . S
C260 C265 1.363 1_545 S
C261 H232 0.950 . S
C261 C260 1.397 . S
C261 C262 1.334 . S
C262 H233 0.950 . S
C262 C261 1.334 . S
C262 C263 1.287 . S
C263 C262 1.287 . S
C263 C264 1.524 1_545 S
C263 H266 0.999 . S
C264 H234 0.950 . S
C264 C263 1.524 1_565 S
C264 C265 1.415 . S
C265 H235 0.950 . S
C265 C260 1.363 1_565 S
C265 C264 1.415 . S
H266 C263 0.999 . S
H267 C248 0.913 . S
H268 C286 0.951 . S
H269 C288 0.951 . S
H270 C290 0.950 . S
H271 C291 0.950 . S
H272 C293 0.950 . S
H273 C296 0.950 . S
H274 C297 0.950 . S
H275 C299 0.950 . S
H276 C300 0.950 . S
H277 C301 0.951 . S
H278 C303 0.951 . S
H279 C305 0.950 . S
H280 C306 0.950 . S
H281 C308 0.950 . S
H282 C311 0.950 . S
H283 C312 0.950 . S
H284 C314 0.950 . S
H285 C315 0.950 . S
C286 H268 0.951 . S
C286 C287 1.366 . S
C286 C288 1.388 . S
C287 C286 1.366 . S
C287 C291 1.385 . S
C288 H269 0.951 . S
C288 C286 1.388 . S
C288 C289 1.366 . S
C289 C288 1.366 . S
C289 C290 1.414 . S
C289 C292 1.499 . S
C290 H270 0.950 . S
C290 C289 1.414 . S
C290 C291 1.374 . S
C291 H271 0.950 . S
C291 C287 1.385 . S
C291 C290 1.374 . S
C292 C289 1.499 . S
C292 C293 1.373 . S
C292 C294 1.389 . S
C293 H272 0.950 . S
C293 C292 1.373 . S
C293 C309 1.377 1_554 S
C294 C292 1.389 . S
C294 C295 1.524 . S
C294 C308 1.377 1_554 S
C295 C294 1.524 . S
C295 C296 1.397 . S
C295 C300 1.363 . S
C296 H273 0.950 . S
C296 C295 1.397 . S
C296 C297 1.334 . S
C297 H274 0.950 . S
C297 C296 1.334 . S
C297 C298 1.287 . S
C298 C297 1.287 . S
C298 C299 1.524 . S
C298 H317 0.913 . S
C299 H275 0.950 . S
C299 C298 1.524 . S
C299 C300 1.415 . S
C300 H276 0.950 . S
C300 C295 1.363 . S
C300 C299 1.415 . S
C301 H277 0.951 . S
C301 C302 1.366 . S
C301 C303 1.388 . S
C302 C301 1.366 . S
C302 C306 1.385 . S
C303 H278 0.951 . S
C303 C301 1.388 . S
C303 C304 1.366 . S
C304 C303 1.366 . S
C304 C305 1.414 . S
C304 C307 1.499 . S
C305 H279 0.950 . S
C305 C304 1.414 . S
C305 C306 1.374 . S
C306 H280 0.950 . S
C306 C302 1.385 . S
C306 C305 1.374 . S
C307 C304 1.499 . S
C307 C308 1.373 . S
C307 C309 1.389 . S
C308 H281 0.950 . S
C308 C294 1.377 1_556 S
C308 C307 1.373 . S
C309 C293 1.377 1_556 S
C309 C307 1.389 . S
C309 C310 1.524 . S
C310 C309 1.524 . S
C310 C311 1.397 . S
C310 C315 1.363 . S
C311 H282 0.950 . S
C311 C310 1.397 . S
C311 C312 1.334 . S
C312 H283 0.950 . S
C312 C311 1.334 . S
C312 C313 1.287 . S
C313 C312 1.287 . S
C313 C314 1.524 . S
C313 H316 0.999 . S
C314 H284 0.950 . S
C314 C313 1.524 . S
C314 C315 1.415 . S
C315 H285 0.950 . S
C315 C310 1.363 . S
C315 C314 1.415 . S
H316 C313 0.999 . S
H317 C298 0.913 . S
H318 C336 0.951 . S
H319 C338 0.951 . S
H320 C340 0.950 . S
H321 C341 0.950 . S
H322 C343 0.950 . S
H323 C346 0.950 . S
H324 C347 0.950 . S
H325 C349 0.950 . S
H326 C350 0.950 . S
H327 C351 0.951 . S
H328 C353 0.951 . S
H329 C355 0.950 . S
H330 C356 0.950 . S
H331 C358 0.950 . S
H332 C361 0.950 . S
H333 C362 0.950 . S
H334 C364 0.950 . S
H335 C365 0.950 . S
C336 H318 0.951 . S
C336 C337 1.366 . S
C336 C338 1.388 . S
C337 C336 1.366 . S
C337 C341 1.385 . S
C338 H319 0.951 . S
C338 C336 1.388 . S
C338 C339 1.366 . S
C339 C338 1.366 . S
C339 C340 1.414 . S
C339 C342 1.499 . S
C340 H320 0.950 . S
C340 C339 1.414 . S
C340 C341 1.374 . S
C341 H321 0.950 . S
C341 C337 1.385 . S
C341 C340 1.374 . S
C342 C339 1.499 . S
C342 C343 1.373 . S
C342 C344 1.389 1_455 S
C343 H322 0.950 . S
C343 C342 1.373 . S
C343 C359 1.377 . S
C344 C342 1.389 1_655 S
C344 C345 1.524 . S
C344 C358 1.377 . S
C345 C344 1.524 . S
C345 C346 1.397 . S
C345 C350 1.363 . S
C346 H323 0.950 . S
C346 C345 1.397 . S
C346 C347 1.334 . S
C347 H324 0.950 . S
C347 C346 1.334 . S
C347 C348 1.287 . S
C348 C347 1.287 . S
C348 C349 1.524 . S
C348 H367 0.913 . S
C349 H325 0.950 . S
C349 C348 1.524 . S
C349 C350 1.415 . S
C350 H326 0.950 . S
C350 C345 1.363 . S
C350 C349 1.415 . S
C351 H327 0.951 . S
C351 C352 1.366 . S
C351 C353 1.388 . S
C352 C351 1.366 . S
C352 C356 1.385 . S
C353 H328 0.951 . S
C353 C351 1.388 . S
C353 C354 1.366 . S
C354 C353 1.366 . S
C354 C355 1.414 . S
C354 C357 1.499 . S
C355 H329 0.950 . S
C355 C354 1.414 . S
C355 C356 1.374 . S
C356 H330 0.950 . S
C356 C352 1.385 . S
C356 C355 1.374 . S
C357 C354 1.499 . S
C357 C358 1.373 . S
C357 C359 1.389 1_655 S
C358 H331 0.950 . S
C358 C344 1.377 . S
C358 C357 1.373 . S
C359 C343 1.377 . S
C359 C357 1.389 1_455 S
C359 C360 1.524 . S
C360 C359 1.524 . S
C360 C361 1.397 . S
C360 C365 1.363 . S
C361 H332 0.950 . S
C361 C360 1.397 . S
C361 C362 1.334 . S
C362 H333 0.950 . S
C362 C361 1.334 . S
C362 C363 1.287 . S
C363 C362 1.287 . S
C363 C364 1.524 . S
C363 H366 0.999 . S
C364 H334 0.950 . S
C364 C363 1.524 . S
C364 C365 1.415 . S
C365 H335 0.950 . S
C365 C360 1.363 . S
C365 C364 1.415 . S
H366 C363 0.999 . S
H367 C348 0.913 . S
H368 C386 0.951 . S
H369 C388 0.951 1_565 S
H370 C390 0.950 . S
H371 C391 0.950 . S
H372 C393 0.950 . S
H373 C396 0.950 . S
H374 C397 0.950 . S
H375 C399 0.950 . S
H376 C400 0.950 . S
H377 C401 0.951 . S
H378 C403 0.951 1_545 S
H379 C405 0.950 . S
H380 C406 0.950 . S
H381 C408 0.950 . S
H382 C411 0.950 . S
H383 C412 0.950 . S
H384 C414 0.950 . S
H385 C415 0.950 . S
C386 H368 0.951 . S
C386 C387 1.366 . S
C386 C388 1.388 . S
C387 C386 1.366 . S
C387 C391 1.385 . S
C388 H369 0.951 1_545 S
C388 C386 1.388 . S
C388 C389 1.366 . S
C389 C388 1.366 . S
C389 C390 1.414 . S
C389 C392 1.499 . S
C390 H370 0.950 . S
C390 C389 1.414 . S
C390 C391 1.374 . S
C391 H371 0.950 . S
C391 C387 1.385 . S
C391 C390 1.374 . S
C392 C389 1.499 . S
C392 C393 1.373 . S
C392 C394 1.389 1_545 S
C393 H372 0.950 . S
C393 C392 1.373 . S
C393 C409 1.377 1_556 S
C394 C392 1.389 1_565 S
C394 C395 1.524 . S
C394 C408 1.377 1_556 S
C395 C394 1.524 . S
C395 C396 1.397 1_565 S
C395 C400 1.363 . S
C396 H373 0.950 . S
C396 C395 1.397 1_545 S
C396 C397 1.334 . S
C397 H374 0.950 . S
C397 C396 1.334 . S
C397 C398 1.287 1_545 S
C398 C397 1.287 1_565 S
C398 C399 1.524 . S
C398 H417 0.913 . S
C399 H375 0.950 . S
C399 C398 1.524 . S
C399 C400 1.415 . S
C400 H376 0.950 . S
C400 C395 1.363 . S
C400 C399 1.415 . S
C401 H377 0.951 . S
C401 C402 1.366 . S
C401 C403 1.388 . S
C402 C401 1.366 . S
C402 C406 1.385 . S
C403 H378 0.951 1_565 S
C403 C401 1.388 . S
C403 C404 1.366 . S
C404 C403 1.366 . S
C404 C405 1.414 . S
C404 C407 1.499 . S
C405 H379 0.950 . S
C405 C404 1.414 . S
C405 C406 1.374 . S
C406 H380 0.950 . S
C406 C402 1.385 . S
C406 C405 1.374 . S
C407 C404 1.499 . S
C407 C408 1.373 . S
C407 C409 1.389 1_565 S
C408 H381 0.950 . S
C408 C394 1.377 1_554 S
C408 C407 1.373 . S
C409 C393 1.377 1_554 S
C409 C407 1.389 1_545 S
C409 C410 1.524 . S
C410 C409 1.524 . S
C410 C411 1.397 1_545 S
C410 C415 1.363 . S
C411 H382 0.950 . S
C411 C410 1.397 1_565 S
C411 C412 1.334 . S
C412 H383 0.950 . S
C412 C411 1.334 . S
C412 C413 1.287 1_565 S
C413 C412 1.287 1_545 S
C413 C414 1.524 . S
C413 H416 0.999 . S
C414 H384 0.950 . S
C414 C413 1.524 . S
C414 C415 1.415 . S
C415 H385 0.950 . S
C415 C410 1.363 . S
C415 C414 1.415 . S
H416 C413 0.999 . S
H417 C398 0.913 . S
H418 C436 0.951 . S
H419 C438 0.951 . S
H420 C440 0.950 . S
H421 C441 0.950 . S
H422 C443 0.950 . S
H423 C446 0.950 . S
H424 C447 0.950 . S
H425 C449 0.950 . S
H426 C450 0.950 . S
H427 C451 0.951 . S
H428 C453 0.951 . S
H429 C455 0.950 . S
H430 C456 0.950 . S
H431 C458 0.950 . S
H432 C461 0.950 . S
H433 C462 0.950 . S
H434 C464 0.950 . S
H435 C465 0.950 . S
C436 H418 0.951 . S
C436 C437 1.366 . S
C436 C438 1.388 . S
C437 C436 1.366 . S
C437 C441 1.385 . S
C438 H419 0.951 . S
C438 C436 1.388 . S
C438 C439 1.366 . S
C439 C438 1.366 . S
C439 C440 1.414 . S
C439 C442 1.499 . S
C440 H420 0.950 . S
C440 C439 1.414 . S
C440 C441 1.374 . S
C441 H421 0.950 . S
C441 C437 1.385 . S
C441 C440 1.374 . S
C442 C439 1.499 . S
C442 C443 1.373 . S
C442 C444 1.389 . S
C443 H422 0.950 . S
C443 C442 1.373 . S
C443 C459 1.377 . S
C444 C442 1.389 . S
C444 C445 1.524 . S
C444 C458 1.377 . S
C445 C444 1.524 . S
C445 C446 1.397 . S
C445 C450 1.363 . S
C446 H423 0.950 . S
C446 C445 1.397 . S
C446 C447 1.334 . S
C447 H424 0.950 . S
C447 C446 1.334 . S
C447 C448 1.287 . S
C448 C447 1.287 . S
C448 C449 1.524 . S
C448 H467 0.913 . S
C449 H425 0.950 . S
C449 C448 1.524 . S
C449 C450 1.415 . S
C450 H426 0.950 . S
C450 C445 1.363 . S
C450 C449 1.415 . S
C451 H427 0.951 . S
C451 C452 1.366 . S
C451 C453 1.388 . S
C452 C451 1.366 . S
C452 C456 1.385 . S
C453 H428 0.951 . S
C453 C451 1.388 . S
C453 C454 1.366 . S
C454 C453 1.366 . S
C454 C455 1.414 . S
C454 C457 1.499 . S
C455 H429 0.950 . S
C455 C454 1.414 . S
C455 C456 1.374 . S
C456 H430 0.950 . S
C456 C452 1.385 . S
C456 C455 1.374 . S
C457 C454 1.499 . S
C457 C458 1.373 . S
C457 C459 1.389 . S
C458 H431 0.950 . S
C458 C444 1.377 . S
C458 C457 1.373 . S
C459 C443 1.377 . S
C459 C457 1.389 . S
C459 C460 1.524 . S
C460 C459 1.524 . S
C460 C461 1.397 . S
C460 C465 1.363 . S
C461 H432 0.950 . S
C461 C460 1.397 . S
C461 C462 1.334 . S
C462 H433 0.950 . S
C462 C461 1.334 . S
C462 C463 1.287 . S
C463 C462 1.287 . S
C463 C464 1.524 . S
C463 H466 0.999 . S
C464 H434 0.950 . S
C464 C463 1.524 . S
C464 C465 1.415 . S
C465 H435 0.950 . S
C465 C460 1.363 . S
C465 C464 1.415 . S
H466 C463 0.999 . S
H467 C448 0.913 . S
H468 C486 0.951 . S
H469 C488 0.951 . S
H470 C490 0.950 1_455 S
H471 C491 0.950 . S
H472 C493 0.950 . S
H473 C496 0.950 . S
H474 C497 0.950 . S
H475 C499 0.950 . S
H476 C500 0.950 . S
H477 C501 0.951 . S
H478 C503 0.951 . S
H479 C505 0.950 1_655 S
H480 C506 0.950 . S
H481 C508 0.950 . S
H482 C511 0.950 . S
H483 C512 0.950 . S
H484 C514 0.950 . S
H485 C515 0.950 . S
C486 H468 0.951 . S
C486 C487 1.366 . S
C486 C488 1.388 . S
C487 C486 1.366 . S
C487 C491 1.385 . S
C488 H469 0.951 . S
C488 C486 1.388 . S
C488 C489 1.366 . S
C489 C488 1.366 . S
C489 C490 1.414 . S
C489 C492 1.499 . S
C490 H470 0.950 1_655 S
C490 C489 1.414 . S
C490 C491 1.374 . S
C491 H471 0.950 . S
C491 C487 1.385 . S
C491 C490 1.374 . S
C492 C489 1.499 . S
C492 C493 1.373 1_655 S
C492 C494 1.389 . S
C493 H472 0.950 . S
C493 C492 1.373 1_455 S
C493 C509 1.377 1_556 S
C494 C492 1.389 . S
C494 C495 1.524 . S
C494 C508 1.377 1_556 S
C495 C494 1.524 . S
C495 C496 1.397 . S
C495 C500 1.363 1_556 S
C496 H473 0.950 . S
C496 C495 1.397 . S
C496 C497 1.334 . S
C497 H474 0.950 . S
C497 C496 1.334 . S
C497 C498 1.287 . S
C498 C497 1.287 . S
C498 C499 1.524 1_556 S
C498 H517 0.913 . S
C499 H475 0.950 . S
C499 C498 1.524 1_554 S
C499 C500 1.415 . S
C500 H476 0.950 . S
C500 C495 1.363 1_554 S
C500 C499 1.415 . S
C501 H477 0.951 . S
C501 C502 1.366 . S
C501 C503 1.388 . S
C502 C501 1.366 . S
C502 C506 1.385 . S
C503 H478 0.951 . S
C503 C501 1.388 . S
C503 C504 1.366 . S
C504 C503 1.366 . S
C504 C505 1.414 . S
C504 C507 1.499 . S
C505 H479 0.950 1_455 S
C505 C504 1.414 . S
C505 C506 1.374 . S
C506 H480 0.950 . S
C506 C502 1.385 . S
C506 C505 1.374 . S
C507 C504 1.499 . S
C507 C508 1.373 1_455 S
C507 C509 1.389 . S
C508 H481 0.950 . S
C508 C494 1.377 1_554 S
C508 C507 1.373 1_655 S
C509 C493 1.377 1_554 S
C509 C507 1.389 . S
C509 C510 1.524 . S
C510 C509 1.524 . S
C510 C511 1.397 . S
C510 C515 1.363 1_554 S
C511 H482 0.950 . S
C511 C510 1.397 . S
C511 C512 1.334 . S
C512 H483 0.950 . S
C512 C511 1.334 . S
C512 C513 1.287 . S
C513 C512 1.287 . S
C513 C514 1.524 1_554 S
C513 H516 0.999 . S
C514 H484 0.950 . S
C514 C513 1.524 1_556 S
C514 C515 1.415 . S
C515 H485 0.950 . S
C515 C510 1.363 1_556 S
C515 C514 1.415 . S
H516 C513 0.999 . S
H517 C498 0.913 . S
H518 C536 0.951 . S
H519 C538 0.951 . S
H520 C540 0.950 . S
H521 C541 0.950 . S
H522 C543 0.950 . S
H523 C546 0.950 . S
H524 C547 0.950 . S
H525 C549 0.950 . S
H526 C550 0.950 . S
H527 C551 0.951 . S
H528 C553 0.951 . S
H529 C555 0.950 . S
H530 C556 0.950 . S
H531 C558 0.950 . S
H532 C561 0.950 . S
H533 C562 0.950 . S
H534 C564 0.950 . S
H535 C565 0.950 . S
C536 H518 0.951 . S
C536 C537 1.366 . S
C536 C538 1.388 . S
C537 C536 1.366 . S
C537 C541 1.385 . S
C538 H519 0.951 . S
C538 C536 1.388 . S
C538 C539 1.366 . S
C539 C538 1.366 . S
C539 C540 1.414 . S
C539 C542 1.499 . S
C540 H520 0.950 . S
C540 C539 1.414 . S
C540 C541 1.374 . S
C541 H521 0.950 . S
C541 C537 1.385 . S
C541 C540 1.374 . S
C542 C539 1.499 . S
C542 C543 1.373 . S
C542 C544 1.389 1_565 S
C543 H522 0.950 . S
C543 C542 1.373 . S
C543 C559 1.377 . S
C544 C542 1.389 1_545 S
C544 C545 1.524 . S
C544 C558 1.377 . S
C545 C544 1.524 . S
C545 C546 1.397 . S
C545 C550 1.363 . S
C546 H523 0.950 . S
C546 C545 1.397 . S
C546 C547 1.334 . S
C547 H524 0.950 . S
C547 C546 1.334 . S
C547 C548 1.287 . S
C548 C547 1.287 . S
C548 C549 1.524 . S
C548 H567 0.913 . S
C549 H525 0.950 . S
C549 C548 1.524 . S
C549 C550 1.415 . S
C550 H526 0.950 . S
C550 C545 1.363 . S
C550 C549 1.415 . S
C551 H527 0.951 . S
C551 C552 1.366 . S
C551 C553 1.388 . S
C552 C551 1.366 . S
C552 C556 1.385 . S
C553 H528 0.951 . S
C553 C551 1.388 . S
C553 C554 1.366 . S
C554 C553 1.366 . S
C554 C555 1.414 . S
C554 C557 1.499 . S
C555 H529 0.950 . S
C555 C554 1.414 . S
C555 C556 1.374 . S
C556 H530 0.950 . S
C556 C552 1.385 . S
C556 C555 1.374 . S
C557 C554 1.499 . S
C557 C558 1.373 . S
C557 C559 1.389 1_545 S
C558 H531 0.950 . S
C558 C544 1.377 . S
C558 C557 1.373 . S
C559 C543 1.377 . S
C559 C557 1.389 1_565 S
C559 C560 1.524 . S
C560 C559 1.524 . S
C560 C561 1.397 . S
C560 C565 1.363 . S
C561 H532 0.950 . S
C561 C560 1.397 . S
C561 C562 1.334 . S
C562 H533 0.950 . S
C562 C561 1.334 . S
C562 C563 1.287 . S
C563 C562 1.287 . S
C563 C564 1.524 . S
C563 H566 0.999 . S
C564 H534 0.950 . S
C564 C563 1.524 . S
C564 C565 1.415 . S
C565 H535 0.950 . S
C565 C560 1.363 . S
C565 C564 1.415 . S
H566 C563 0.999 . S
H567 C548 0.913 . S
H568 C586 0.951 . S
H569 C588 0.951 . S
H570 C590 0.950 . S
H571 C591 0.950 . S
H572 C593 0.950 . S
H573 C596 0.950 . S
H574 C597 0.950 . S
H575 C599 0.950 . S
H576 C600 0.950 . S
H577 C601 0.951 . S
H578 C603 0.951 . S
H579 C605 0.950 . S
H580 C606 0.950 . S
H581 C608 0.950 . S
H582 C611 0.950 . S
H583 C612 0.950 . S
H584 C614 0.950 . S
H585 C615 0.950 . S
C586 H568 0.951 . S
C586 C587 1.366 . S
C586 C588 1.388 . S
C587 C586 1.366 . S
C587 C591 1.385 . S
C588 H569 0.951 . S
C588 C586 1.388 . S
C588 C589 1.366 . S
C589 C588 1.366 . S
C589 C590 1.414 . S
C589 C592 1.499 . S
C590 H570 0.950 . S
C590 C589 1.414 . S
C590 C591 1.374 . S
C591 H571 0.950 . S
C591 C587 1.385 . S
C591 C590 1.374 . S
C592 C589 1.499 . S
C592 C593 1.373 . S
C592 C594 1.389 . S
C593 H572 0.950 . S
C593 C592 1.373 . S
C593 C609 1.377 1_556 S
C594 C592 1.389 . S
C594 C595 1.524 . S
C594 C608 1.377 1_556 S
C595 C594 1.524 . S
C595 C596 1.397 . S
C595 C600 1.363 . S
C596 H573 0.950 . S
C596 C595 1.397 . S
C596 C597 1.334 . S
C597 H574 0.950 . S
C597 C596 1.334 . S
C597 C598 1.287 . S
C598 C597 1.287 . S
C598 C599 1.524 . S
C598 H617 0.913 . S
C599 H575 0.950 . S
C599 C598 1.524 . S
C599 C600 1.415 . S
C600 H576 0.950 . S
C600 C595 1.363 . S
C600 C599 1.415 . S
C601 H577 0.951 . S
C601 C602 1.366 . S
C601 C603 1.388 . S
C602 C601 1.366 . S
C602 C606 1.385 . S
C603 H578 0.951 . S
C603 C601 1.388 . S
C603 C604 1.366 . S
C604 C603 1.366 . S
C604 C605 1.414 . S
C604 C607 1.499 . S
C605 H579 0.950 . S
C605 C604 1.414 . S
C605 C606 1.374 . S
C606 H580 0.950 . S
C606 C602 1.385 . S
C606 C605 1.374 . S
C607 C604 1.499 . S
C607 C608 1.373 . S
C607 C609 1.389 . S
C608 H581 0.950 . S
C608 C594 1.377 1_554 S
C608 C607 1.373 . S
C609 C593 1.377 1_554 S
C609 C607 1.389 . S
C609 C610 1.524 . S
C610 C609 1.524 . S
C610 C611 1.397 . S
C610 C615 1.363 . S
C611 H582 0.950 . S
C611 C610 1.397 . S
C611 C612 1.334 . S
C612 H583 0.950 . S
C612 C611 1.334 . S
C612 C613 1.287 . S
C613 C612 1.287 . S
C613 C614 1.524 . S
C613 H616 0.999 . S
C614 H584 0.950 . S
C614 C613 1.524 . S
C614 C615 1.415 . S
C615 H585 0.950 . S
C615 C610 1.363 . S
C615 C614 1.415 . S
H616 C613 0.999 . S
H617 C598 0.913 . S
H618 C636 0.951 . S
H619 C638 0.951 . S
H620 C640 0.950 1_455 S
H621 C641 0.950 . S
H622 C643 0.950 . S
H623 C646 0.950 . S
H624 C647 0.950 . S
H625 C649 0.950 . S
H626 C650 0.950 . S
H627 C651 0.951 . S
H628 C653 0.951 . S
H629 C655 0.950 1_655 S
H630 C656 0.950 . S
H631 C658 0.950 . S
H632 C661 0.950 . S
H633 C662 0.950 . S
H634 C664 0.950 . S
H635 C665 0.950 . S
C636 H618 0.951 . S
C636 C637 1.366 . S
C636 C638 1.388 . S
C637 C636 1.366 . S
C637 C641 1.385 . S
C638 H619 0.951 . S
C638 C636 1.388 . S
C638 C639 1.366 . S
C639 C638 1.366 . S
C639 C640 1.414 . S
C639 C642 1.499 . S
C640 H620 0.950 1_655 S
C640 C639 1.414 . S
C640 C641 1.374 . S
C641 H621 0.950 . S
C641 C637 1.385 . S
C641 C640 1.374 . S
C642 C639 1.499 . S
C642 C643 1.373 1_655 S
C642 C644 1.389 . S
C643 H622 0.950 . S
C643 C642 1.373 1_455 S
C643 C659 1.377 . S
C644 C642 1.389 . S
C644 C645 1.524 . S
C644 C658 1.377 . S
C645 C644 1.524 . S
C645 C646 1.397 . S
C645 C650 1.363 . S
C646 H623 0.950 . S
C646 C645 1.397 . S
C646 C647 1.334 . S
C647 H624 0.950 . S
C647 C646 1.334 . S
C647 C648 1.287 . S
C648 C647 1.287 . S
C648 C649 1.524 . S
C648 H667 0.913 . S
C649 H625 0.950 . S
C649 C648 1.524 . S
C649 C650 1.415 . S
C650 H626 0.950 . S
C650 C645 1.363 . S
C650 C649 1.415 . S
C651 H627 0.951 . S
C651 C652 1.366 . S
C651 C653 1.388 . S
C652 C651 1.366 . S
C652 C656 1.385 . S
C653 H628 0.951 . S
C653 C651 1.388 . S
C653 C654 1.366 . S
C654 C653 1.366 . S
C654 C655 1.414 . S
C654 C657 1.499 . S
C655 H629 0.950 1_455 S
C655 C654 1.414 . S
C655 C656 1.374 . S
C656 H630 0.950 . S
C656 C652 1.385 . S
C656 C655 1.374 . S
C657 C654 1.499 . S
C657 C658 1.373 1_455 S
C657 C659 1.389 . S
C658 H631 0.950 . S
C658 C644 1.377 . S
C658 C657 1.373 1_655 S
C659 C643 1.377 . S
C659 C657 1.389 . S
C659 C660 1.524 . S
C660 C659 1.524 . S
C660 C661 1.397 . S
C660 C665 1.363 . S
C661 H632 0.950 . S
C661 C660 1.397 . S
C661 C662 1.334 . S
C662 H633 0.950 . S
C662 C661 1.334 . S
C662 C663 1.287 . S
C663 C662 1.287 . S
C663 C664 1.524 . S
C663 H666 0.999 . S
C664 H634 0.950 . S
C664 C663 1.524 . S
C664 C665 1.415 . S
C665 H635 0.950 . S
C665 C660 1.363 . S
C665 C664 1.415 . S
H666 C663 0.999 . S
H667 C648 0.913 . S
H668 C686 0.951 . S
H669 C688 0.951 . S
H670 C690 0.950 . S
H671 C691 0.950 . S
H672 C693 0.950 . S
H673 C696 0.950 1_565 S
H674 C697 0.950 . S
H675 C699 0.950 . S
H676 C700 0.950 1_554 S
H677 C701 0.951 . S
H678 C703 0.951 . S
H679 C705 0.950 . S
H680 C706 0.950 . S
H681 C708 0.950 . S
H682 C711 0.950 1_545 S
H683 C712 0.950 . S
H684 C714 0.950 . S
H685 C715 0.950 1_556 S
C686 H668 0.951 . S
C686 C687 1.366 . S
C686 C688 1.388 . S
C687 C686 1.366 . S
C687 C691 1.385 . S
C688 H669 0.951 . S
C688 C686 1.388 . S
C688 C689 1.366 . S
C689 C688 1.366 . S
C689 C690 1.414 . S
C689 C692 1.499 . S
C690 H670 0.950 . S
C690 C689 1.414 . S
C690 C691 1.374 . S
C691 H671 0.950 . S
C691 C687 1.385 . S
C691 C690 1.374 . S
C692 C689 1.499 . S
C692 C693 1.373 . S
C692 C694 1.389 . S
C693 H672 0.950 . S
C693 C692 1.373 . S
C693 C709 1.377 1_546 S
C694 C692 1.389 . S
C694 C695 1.524 . S
C694 C708 1.377 1_546 S
C695 C694 1.524 . S
C695 C696 1.397 . S
C695 C700 1.363 . S
C696 H673 0.950 1_545 S
C696 C695 1.397 . S
C696 C697 1.334 . S
C697 H674 0.950 . S
C697 C696 1.334 . S
C697 C698 1.287 . S
C698 C697 1.287 . S
C698 C699 1.524 . S
C698 H717 0.913 . S
C699 H675 0.950 . S
C699 C698 1.524 . S
C699 C700 1.415 . S
C700 H676 0.950 1_556 S
C700 C695 1.363 . S
C700 C699 1.415 . S
C701 H677 0.951 . S
C701 C702 1.366 . S
C701 C703 1.388 . S
C702 C701 1.366 . S
C702 C706 1.385 . S
C703 H678 0.951 . S
C703 C701 1.388 . S
C703 C704 1.366 . S
C704 C703 1.366 . S
C704 C705 1.414 . S
C704 C707 1.499 . S
C705 H679 0.950 . S
C705 C704 1.414 . S
C705 C706 1.374 . S
C706 H680 0.950 . S
C706 C702 1.385 . S
C706 C705 1.374 . S
C707 C704 1.499 . S
C707 C708 1.373 . S
C707 C709 1.389 . S
C708 H681 0.950 . S
C708 C694 1.377 1_564 S
C708 C707 1.373 . S
C709 C693 1.377 1_564 S
C709 C707 1.389 . S
C709 C710 1.524 . S
C710 C709 1.524 . S
C710 C711 1.397 . S
C710 C715 1.363 . S
C711 H682 0.950 1_565 S
C711 C710 1.397 . S
C711 C712 1.334 . S
C712 H683 0.950 . S
C712 C711 1.334 . S
C712 C713 1.287 . S
C713 C712 1.287 . S
C713 C714 1.524 . S
C713 H716 0.999 . S
C714 H684 0.950 . S
C714 C713 1.524 . S
C714 C715 1.415 . S
C715 H685 0.950 1_554 S
C715 C710 1.363 . S
C715 C714 1.415 . S
H716 C713 0.999 . S
H717 C698 0.913 . S
H718 C736 0.951 . S
H719 C738 0.951 . S
H720 C740 0.950 . S
H721 C741 0.950 . S
H722 C743 0.950 . S
H723 C746 0.950 . S
H724 C747 0.950 . S
H725 C749 0.950 . S
H726 C750 0.950 . S
H727 C751 0.951 . S
H728 C753 0.951 . S
H729 C755 0.950 . S
H730 C756 0.950 . S
H731 C758 0.950 . S
H732 C761 0.950 . S
H733 C762 0.950 . S
H734 C764 0.950 . S
H735 C765 0.950 . S
C736 H718 0.951 . S
C736 C737 1.366 . S
C736 C738 1.388 . S
C737 C736 1.366 . S
C737 C741 1.385 . S
C738 H719 0.951 . S
C738 C736 1.388 . S
C738 C739 1.366 . S
C739 C738 1.366 . S
C739 C740 1.414 . S
C739 C742 1.499 . S
C740 H720 0.950 . S
C740 C739 1.414 . S
C740 C741 1.374 . S
C741 H721 0.950 . S
C741 C737 1.385 . S
C741 C740 1.374 . S
C742 C739 1.499 . S
C742 C743 1.373 . S
C742 C744 1.389 . S
C743 H722 0.950 . S
C743 C742 1.373 . S
C743 C759 1.377 . S
C744 C742 1.389 . S
C744 C745 1.524 . S
C744 C758 1.377 . S
C745 C744 1.524 . S
C745 C746 1.397 . S
C745 C750 1.363 . S
C746 H723 0.950 . S
C746 C745 1.397 . S
C746 C747 1.334 . S
C747 H724 0.950 . S
C747 C746 1.334 . S
C747 C748 1.287 . S
C748 C747 1.287 . S
C748 C749 1.524 . S
C748 H767 0.913 . S
C749 H725 0.950 . S
C749 C748 1.524 . S
C749 C750 1.415 . S
C750 H726 0.950 . S
C750 C745 1.363 . S
C750 C749 1.415 . S
C751 H727 0.951 . S
C751 C752 1.366 . S
C751 C753 1.388 . S
C752 C751 1.366 . S
C752 C756 1.385 . S
C753 H728 0.951 . S
C753 C751 1.388 . S
C753 C754 1.366 . S
C754 C753 1.366 . S
C754 C755 1.414 . S
C754 C757 1.499 . S
C755 H729 0.950 . S
C755 C754 1.414 . S
C755 C756 1.374 . S
C756 H730 0.950 . S
C756 C752 1.385 . S
C756 C755 1.374 . S
C757 C754 1.499 . S
C757 C758 1.373 . S
C757 C759 1.389 . S
C758 H731 0.950 . S
C758 C744 1.377 . S
C758 C757 1.373 . S
C759 C743 1.377 . S
C759 C757 1.389 . S
C759 C760 1.524 . S
C760 C759 1.524 . S
C760 C761 1.397 . S
C760 C765 1.363 . S
C761 H732 0.950 . S
C761 C760 1.397 . S
C761 C762 1.334 . S
C762 H733 0.950 . S
C762 C761 1.334 . S
C762 C763 1.287 . S
C763 C762 1.287 . S
C763 C764 1.524 . S
C763 H766 0.999 . S
C764 H734 0.950 . S
C764 C763 1.524 . S
C764 C765 1.415 . S
C765 H735 0.950 . S
C765 C760 1.363 . S
C765 C764 1.415 . S
H766 C763 0.999 . S
H767 C748 0.913 . S
H768 C786 0.951 . S
H769 C788 0.951 . S
H770 C790 0.950 . S
H771 C791 0.950 . S
H772 C793 0.950 . S
H773 C796 0.950 . S
H774 C797 0.950 . S
H775 C799 0.950 . S
H776 C800 0.950 . S
H777 C801 0.951 . S
H778 C803 0.951 . S
H779 C805 0.950 . S
H780 C806 0.950 . S
H781 C808 0.950 . S
H782 C811 0.950 . S
H783 C812 0.950 . S
H784 C814 0.950 . S
H785 C815 0.950 . S
C786 H768 0.951 . S
C786 C787 1.366 . S
C786 C788 1.388 . S
C787 C786 1.366 . S
C787 C791 1.385 . S
C788 H769 0.951 . S
C788 C786 1.388 . S
C788 C789 1.366 . S
C789 C788 1.366 . S
C789 C790 1.414 . S
C789 C792 1.499 . S
C790 H770 0.950 . S
C790 C789 1.414 . S
C790 C791 1.374 . S
C791 H771 0.950 . S
C791 C787 1.385 . S
C791 C790 1.374 . S
C792 C789 1.499 . S
C792 C793 1.373 . S
C792 C794 1.389 . S
C793 H772 0.950 . S
C793 C792 1.373 . S
C793 C809 1.377 . S
C794 C792 1.389 . S
C794 C795 1.524 . S
C794 C808 1.377 . S
C795 C794 1.524 . S
C795 C796 1.397 . S
C795 C800 1.363 . S
C796 H773 0.950 . S
C796 C795 1.397 . S
C796 C797 1.334 . S
C797 H774 0.950 . S
C797 C796 1.334 . S
C797 C798 1.287 . S
C798 C797 1.287 . S
C798 C799 1.524 . S
C798 H817 0.913 . S
C799 H775 0.950 . S
C799 C798 1.524 . S
C799 C800 1.415 . S
C800 H776 0.950 . S
C800 C795 1.363 . S
C800 C799 1.415 . S
C801 H777 0.951 . S
C801 C802 1.366 . S
C801 C803 1.388 . S
C802 C801 1.366 . S
C802 C806 1.385 . S
C803 H778 0.951 . S
C803 C801 1.388 . S
C803 C804 1.366 . S
C804 C803 1.366 . S
C804 C805 1.414 . S
C804 C807 1.499 . S
C805 H779 0.950 . S
C805 C804 1.414 . S
C805 C806 1.374 . S
C806 H780 0.950 . S
C806 C802 1.385 . S
C806 C805 1.374 . S
C807 C804 1.499 . S
C807 C808 1.373 . S
C807 C809 1.389 . S
C808 H781 0.950 . S
C808 C794 1.377 . S
C808 C807 1.373 . S
C809 C793 1.377 . S
C809 C807 1.389 . S
C809 C810 1.524 . S
C810 C809 1.524 . S
C810 C811 1.397 . S
C810 C815 1.363 . S
C811 H782 0.950 . S
C811 C810 1.397 . S
C811 C812 1.334 . S
C812 H783 0.950 . S
C812 C811 1.334 . S
C812 C813 1.287 . S
C813 C812 1.287 . S
C813 C814 1.524 . S
C813 H816 0.999 . S
C814 H784 0.950 . S
C814 C813 1.524 . S
C814 C815 1.415 . S
C815 H785 0.950 . S
C815 C810 1.363 . S
C815 C814 1.415 . S
H816 C813 0.999 . S
H817 C798 0.913 . S
H818 C836 0.951 . S
H819 C838 0.951 . S
H820 C840 0.950 . S
H821 C841 0.950 . S
H822 C843 0.950 . S
H823 C846 0.950 . S
H824 C847 0.950 . S
H825 C849 0.950 . S
H826 C850 0.950 . S
H827 C851 0.951 . S
H828 C853 0.951 . S
H829 C855 0.950 . S
H830 C856 0.950 . S
H831 C858 0.950 . S
H832 C861 0.950 . S
H833 C862 0.950 . S
H834 C864 0.950 . S
H835 C865 0.950 . S
C836 H818 0.951 . S
C836 C837 1.366 . S
C836 C838 1.388 . S
C837 C836 1.366 . S
C837 C841 1.385 . S
C838 H819 0.951 . S
C838 C836 1.388 . S
C838 C839 1.366 . S
C839 C838 1.366 . S
C839 C840 1.414 . S
C839 C842 1.499 . S
C840 H820 0.950 . S
C840 C839 1.414 . S
C840 C841 1.374 . S
C841 H821 0.950 . S
C841 C837 1.385 . S
C841 C840 1.374 . S
C842 C839 1.499 . S
C842 C843 1.373 . S
C842 C844 1.389 . S
C843 H822 0.950 . S
C843 C842 1.373 . S
C843 C859 1.377 . S
C844 C842 1.389 . S
C844 C845 1.524 . S
C844 C858 1.377 . S
C845 C844 1.524 . S
C845 C846 1.397 . S
C845 C850 1.363 . S
C846 H823 0.950 . S
C846 C845 1.397 . S
C846 C847 1.334 . S
C847 H824 0.950 . S
C847 C846 1.334 . S
C847 C848 1.287 . S
C848 C847 1.287 . S
C848 C849 1.524 . S
C848 H867 0.913 . S
C849 H825 0.950 . S
C849 C848 1.524 . S
C849 C850 1.415 . S
C850 H826 0.950 . S
C850 C845 1.363 . S
C850 C849 1.415 . S
C851 H827 0.951 . S
C851 C852 1.366 . S
C851 C853 1.388 . S
C852 C851 1.366 . S
C852 C856 1.385 . S
C853 H828 0.951 . S
C853 C851 1.388 . S
C853 C854 1.366 . S
C854 C853 1.366 . S
C854 C855 1.414 . S
C854 C857 1.499 . S
C855 H829 0.950 . S
C855 C854 1.414 . S
C855 C856 1.374 . S
C856 H830 0.950 . S
C856 C852 1.385 . S
C856 C855 1.374 . S
C857 C854 1.499 . S
C857 C858 1.373 . S
C857 C859 1.389 . S
C858 H831 0.950 . S
C858 C844 1.377 . S
C858 C857 1.373 . S
C859 C843 1.377 . S
C859 C857 1.389 . S
C859 C860 1.524 . S
C860 C859 1.524 . S
C860 C861 1.397 . S
C860 C865 1.363 . S
C861 H832 0.950 . S
C861 C860 1.397 . S
C861 C862 1.334 . S
C862 H833 0.950 . S
C862 C861 1.334 . S
C862 C863 1.287 . S
C863 C862 1.287 . S
C863 C864 1.524 . S
C863 H866 0.999 . S
C864 H834 0.950 . S
C864 C863 1.524 . S
C864 C865 1.415 . S
C865 H835 0.950 . S
C865 C860 1.363 . S
C865 C864 1.415 . S
H866 C863 0.999 . S
H867 C848 0.913 . S
H868 C886 0.951 . S
H869 C888 0.951 . S
H870 C890 0.950 . S
H871 C891 0.950 . S
H872 C893 0.950 . S
H873 C896 0.950 . S
H874 C897 0.950 . S
H875 C899 0.950 . S
H876 C900 0.950 . S
H877 C901 0.951 . S
H878 C903 0.951 . S
H879 C905 0.950 . S
H880 C906 0.950 . S
H881 C908 0.950 . S
H882 C911 0.950 . S
H883 C912 0.950 . S
H884 C914 0.950 . S
H885 C915 0.950 . S
C886 H868 0.951 . S
C886 C887 1.366 . S
C886 C888 1.388 . S
C887 C886 1.366 . S
C887 C891 1.385 . S
C888 H869 0.951 . S
C888 C886 1.388 . S
C888 C889 1.366 . S
C889 C888 1.366 . S
C889 C890 1.414 . S
C889 C892 1.499 . S
C890 H870 0.950 . S
C890 C889 1.414 . S
C890 C891 1.374 . S
C891 H871 0.950 . S
C891 C887 1.385 . S
C891 C890 1.374 . S
C892 C889 1.499 . S
C892 C893 1.373 . S
C892 C894 1.389 . S
C893 H872 0.950 . S
C893 C892 1.373 . S
C893 C909 1.377 . S
C894 C892 1.389 . S
C894 C895 1.524 . S
C894 C908 1.377 . S
C895 C894 1.524 . S
C895 C896 1.397 . S
C895 C900 1.363 . S
C896 H873 0.950 . S
C896 C895 1.397 . S
C896 C897 1.334 . S
C897 H874 0.950 . S
C897 C896 1.334 . S
C897 C898 1.287 . S
C898 C897 1.287 . S
C898 C899 1.524 . S
C898 H917 0.913 . S
C899 H875 0.950 . S
C899 C898 1.524 . S
C899 C900 1.415 . S
C900 H876 0.950 . S
C900 C895 1.363 . S
C900 C899 1.415 . S
C901 H877 0.951 . S
C901 C902 1.366 . S
C901 C903 1.388 . S
C902 C901 1.366 . S
C902 C906 1.385 . S
C903 H878 0.951 . S
C903 C901 1.388 . S
C903 C904 1.366 . S
C904 C903 1.366 . S
C904 C905 1.414 . S
C904 C907 1.499 . S
C905 H879 0.950 . S
C905 C904 1.414 . S
C905 C906 1.374 . S
C906 H880 0.950 . S
C906 C902 1.385 . S
C906 C905 1.374 . S
C907 C904 1.499 . S
C907 C908 1.373 . S
C907 C909 1.389 . S
C908 H881 0.950 . S
C908 C894 1.377 . S
C908 C907 1.373 . S
C909 C893 1.377 . S
C909 C907 1.389 . S
C909 C910 1.524 . S
C910 C909 1.524 . S
C910 C911 1.397 . S
C910 C915 1.363 . S
C911 H882 0.950 . S
C911 C910 1.397 . S
C911 C912 1.334 . S
C912 H883 0.950 . S
C912 C911 1.334 . S
C912 C913 1.287 . S
C913 C912 1.287 . S
C913 C914 1.524 . S
C913 H916 0.999 . S
C914 H884 0.950 . S
C914 C913 1.524 . S
C914 C915 1.415 . S
C915 H885 0.950 . S
C915 C910 1.363 . S
C915 C914 1.415 . S
H916 C913 0.999 . S
H917 C898 0.913 . S
H918 C936 0.951 . S
H919 C938 0.951 . S
H920 C940 0.950 . S
H921 C941 0.950 . S
H922 C943 0.950 . S
H923 C946 0.950 . S
H924 C947 0.950 . S
H925 C949 0.950 . S
H926 C950 0.950 . S
H927 C951 0.951 . S
H928 C953 0.951 . S
H929 C955 0.950 . S
H930 C956 0.950 . S
H931 C958 0.950 . S
H932 C961 0.950 . S
H933 C962 0.950 . S
H934 C964 0.950 . S
H935 C965 0.950 . S
C936 H918 0.951 . S
C936 C937 1.366 . S
C936 C938 1.388 . S
C937 C936 1.366 . S
C937 C941 1.385 . S
C938 H919 0.951 . S
C938 C936 1.388 . S
C938 C939 1.366 . S
C939 C938 1.366 . S
C939 C940 1.414 . S
C939 C942 1.499 . S
C940 H920 0.950 . S
C940 C939 1.414 . S
C940 C941 1.374 . S
C941 H921 0.950 . S
C941 C937 1.385 . S
C941 C940 1.374 . S
C942 C939 1.499 . S
C942 C943 1.373 . S
C942 C944 1.389 . S
C943 H922 0.950 . S
C943 C942 1.373 . S
C943 C959 1.377 . S
C944 C942 1.389 . S
C944 C945 1.524 . S
C944 C958 1.377 . S
C945 C944 1.524 . S
C945 C946 1.397 . S
C945 C950 1.363 . S
C946 H923 0.950 . S
C946 C945 1.397 . S
C946 C947 1.334 . S
C947 H924 0.950 . S
C947 C946 1.334 . S
C947 C948 1.287 . S
C948 C947 1.287 . S
C948 C949 1.524 . S
C948 H967 0.913 . S
C949 H925 0.950 . S
C949 C948 1.524 . S
C949 C950 1.415 . S
C950 H926 0.950 . S
C950 C945 1.363 . S
C950 C949 1.415 . S
C951 H927 0.951 . S
C951 C952 1.366 . S
C951 C953 1.388 . S
C952 C951 1.366 . S
C952 C956 1.385 . S
C953 H928 0.951 . S
C953 C951 1.388 . S
C953 C954 1.366 . S
C954 C953 1.366 . S
C954 C955 1.414 . S
C954 C957 1.499 . S
C955 H929 0.950 . S
C955 C954 1.414 . S
C955 C956 1.374 . S
C956 H930 0.950 . S
C956 C952 1.385 . S
C956 C955 1.374 . S
C957 C954 1.499 . S
C957 C958 1.373 . S
C957 C959 1.389 . S
C958 H931 0.950 . S
C958 C944 1.377 . S
C958 C957 1.373 . S
C959 C943 1.377 . S
C959 C957 1.389 . S
C959 C960 1.524 . S
C960 C959 1.524 . S
C960 C961 1.397 . S
C960 C965 1.363 . S
C961 H932 0.950 . S
C961 C960 1.397 . S
C961 C962 1.334 . S
C962 H933 0.950 . S
C962 C961 1.334 . S
C962 C963 1.287 . S
C963 C962 1.287 . S
C963 C964 1.524 . S
C963 H966 0.999 1_655 S
C964 H934 0.950 . S
C964 C963 1.524 . S
C964 C965 1.415 . S
C965 H935 0.950 . S
C965 C960 1.363 . S
C965 C964 1.415 . S
H966 C963 0.999 1_455 S
H967 C948 0.913 . S
H968 C986 0.951 . S
H969 C988 0.951 . S
H970 C990 0.950 . S
H971 C991 0.950 . S
H972 C993 0.950 . S
H973 C996 0.950 . S
H974 C997 0.950 . S
H975 C999 0.950 . S
H976 C1000 0.950 . S
H977 C1001 0.951 . S
H978 C1003 0.951 . S
H979 C1005 0.950 . S
H980 C1006 0.950 . S
H981 C1008 0.950 . S
H982 C1011 0.950 . S
H983 C1012 0.950 . S
H984 C1014 0.950 . S
H985 C1015 0.950 . S
C986 H968 0.951 . S
C986 C987 1.366 . S
C986 C988 1.388 . S
C987 C986 1.366 . S
C987 C991 1.385 . S
C988 H969 0.951 . S
C988 C986 1.388 . S
C988 C989 1.366 . S
C989 C988 1.366 . S
C989 C990 1.414 . S
C989 C992 1.499 . S
C990 H970 0.950 . S
C990 C989 1.414 . S
C990 C991 1.374 . S
C991 H971 0.950 . S
C991 C987 1.385 . S
C991 C990 1.374 . S
C992 C989 1.499 . S
C992 C993 1.373 . S
C992 C994 1.389 . S
C993 H972 0.950 . S
C993 C992 1.373 . S
C993 C1009 1.377 . S
C994 C992 1.389 . S
C994 C995 1.524 . S
C994 C1008 1.377 . S
C995 C994 1.524 . S
C995 C996 1.397 . S
C995 C1000 1.363 . S
C996 H973 0.950 . S
C996 C995 1.397 . S
C996 C997 1.334 . S
C997 H974 0.950 . S
C997 C996 1.334 . S
C997 C998 1.287 . S
C998 C997 1.287 . S
C998 C999 1.524 . S
C998 H1017 0.913 . S
C999 H975 0.950 . S
C999 C998 1.524 . S
C999 C1000 1.415 . S
C1000 H976 0.950 . S
C1000 C995 1.363 . S
C1000 C999 1.415 . S
C1001 H977 0.951 . S
C1001 C1002 1.366 . S
C1001 C1003 1.388 . S
C1002 C1001 1.366 . S
C1002 C1006 1.385 . S
C1003 H978 0.951 . S
C1003 C1001 1.388 . S
C1003 C1004 1.366 . S
C1004 C1003 1.366 . S
C1004 C1005 1.414 . S
C1004 C1007 1.499 . S
C1005 H979 0.950 . S
C1005 C1004 1.414 . S
C1005 C1006 1.374 . S
C1006 H980 0.950 . S
C1006 C1002 1.385 . S
C1006 C1005 1.374 . S
C1007 C1004 1.499 . S
C1007 C1008 1.373 . S
C1007 C1009 1.389 . S
C1008 H981 0.950 . S
C1008 C994 1.377 . S
C1008 C1007 1.373 . S
C1009 C993 1.377 . S
C1009 C1007 1.389 . S
C1009 C1010 1.524 . S
C1010 C1009 1.524 . S
C1010 C1011 1.397 . S
C1010 C1015 1.363 . S
C1011 H982 0.950 . S
C1011 C1010 1.397 . S
C1011 C1012 1.334 . S
C1012 H983 0.950 . S
C1012 C1011 1.334 . S
C1012 C1013 1.287 . S
C1013 C1012 1.287 . S
C1013 C1014 1.524 . S
C1013 H1016 0.999 . S
C1014 H984 0.950 . S
C1014 C1013 1.524 . S
C1014 C1015 1.415 . S
C1015 H985 0.950 . S
C1015 C1010 1.363 . S
C1015 C1014 1.415 . S
H1016 C1013 0.999 . S
H1017 C998 0.913 . S
H1018 C1036 0.951 . S
H1019 C1038 0.951 . S
H1020 C1040 0.950 . S
H1021 C1041 0.950 . S
H1022 C1043 0.950 . S
H1023 C1046 0.950 . S
H1024 C1047 0.950 . S
H1025 C1049 0.950 . S
H1026 C1050 0.950 . S
H1027 C1051 0.951 . S
H1028 C1053 0.951 . S
H1029 C1055 0.950 . S
H1030 C1056 0.950 . S
H1031 C1058 0.950 . S
H1032 C1061 0.950 . S
H1033 C1062 0.950 . S
H1034 C1064 0.950 . S
H1035 C1065 0.950 . S
C1036 H1018 0.951 . S
C1036 C1037 1.366 . S
C1036 C1038 1.388 . S
C1037 C1036 1.366 . S
C1037 C1041 1.385 . S
C1038 H1019 0.951 . S
C1038 C1036 1.388 . S
C1038 C1039 1.366 . S
C1039 C1038 1.366 . S
C1039 C1040 1.414 . S
C1039 C1042 1.499 . S
C1040 H1020 0.950 . S
C1040 C1039 1.414 . S
C1040 C1041 1.374 . S
C1041 H1021 0.950 . S
C1041 C1037 1.385 . S
C1041 C1040 1.374 . S
C1042 C1039 1.499 . S
C1042 C1043 1.373 . S
C1042 C1044 1.389 . S
C1043 H1022 0.950 . S
C1043 C1042 1.373 . S
C1043 C1059 1.377 . S
C1044 C1042 1.389 . S
C1044 C1045 1.524 . S
C1044 C1058 1.377 . S
C1045 C1044 1.524 . S
C1045 C1046 1.397 . S
C1045 C1050 1.363 . S
C1046 H1023 0.950 . S
C1046 C1045 1.397 . S
C1046 C1047 1.334 . S
C1047 H1024 0.950 . S
C1047 C1046 1.334 . S
C1047 C1048 1.287 . S
C1048 C1047 1.287 . S
C1048 C1049 1.524 . S
C1048 H1067 0.913 . S
C1049 H1025 0.950 . S
C1049 C1048 1.524 . S
C1049 C1050 1.415 . S
C1050 H1026 0.950 . S
C1050 C1045 1.363 . S
C1050 C1049 1.415 . S
C1051 H1027 0.951 . S
C1051 C1052 1.366 . S
C1051 C1053 1.388 . S
C1052 C1051 1.366 . S
C1052 C1056 1.385 . S
C1053 H1028 0.951 . S
C1053 C1051 1.388 . S
C1053 C1054 1.366 . S
C1054 C1053 1.366 . S
C1054 C1055 1.414 . S
C1054 C1057 1.499 . S
C1055 H1029 0.950 . S
C1055 C1054 1.414 . S
C1055 C1056 1.374 . S
C1056 H1030 0.950 . S
C1056 C1052 1.385 . S
C1056 C1055 1.374 . S
C1057 C1054 1.499 . S
C1057 C1058 1.373 . S
C1057 C1059 1.389 . S
C1058 H1031 0.950 . S
C1058 C1044 1.377 . S
C1058 C1057 1.373 . S
C1059 C1043 1.377 . S
C1059 C1057 1.389 . S
C1059 C1060 1.524 . S
C1060 C1059 1.524 . S
C1060 C1061 1.397 . S
C1060 C1065 1.363 . S
C1061 H1032 0.950 . S
C1061 C1060 1.397 . S
C1061 C1062 1.334 . S
C1062 H1033 0.950 . S
C1062 C1061 1.334 . S
C1062 C1063 1.287 . S
C1063 C1062 1.287 . S
C1063 C1064 1.524 . S
C1063 H1066 0.999 . S
C1064 H1034 0.950 . S
C1064 C1063 1.524 . S
C1064 C1065 1.415 . S
C1065 H1035 0.950 . S
C1065 C1060 1.363 . S
C1065 C1064 1.415 . S
H1066 C1063 0.999 . S
H1067 C1048 0.913 . S
H1068 C1086 0.951 . S
H1069 C1088 0.951 . S
H1070 C1090 0.950 . S
H1071 C1091 0.950 . S
H1072 C1093 0.950 . S
H1073 C1096 0.950 . S
H1074 C1097 0.950 . S
H1075 C1099 0.950 . S
H1076 C1100 0.950 . S
H1077 C1101 0.951 . S
H1078 C1103 0.951 . S
H1079 C1105 0.950 . S
H1080 C1106 0.950 . S
H1081 C1108 0.950 . S
H1082 C1111 0.950 . S
H1083 C1112 0.950 . S
H1084 C1114 0.950 . S
H1085 C1115 0.950 . S
C1086 H1068 0.951 . S
C1086 C1087 1.366 . S
C1086 C1088 1.388 . S
C1087 C1086 1.366 . S
C1087 C1091 1.385 . S
C1088 H1069 0.951 . S
C1088 C1086 1.388 . S
C1088 C1089 1.366 . S
C1089 C1088 1.366 . S
C1089 C1090 1.414 . S
C1089 C1092 1.499 . S
C1090 H1070 0.950 . S
C1090 C1089 1.414 . S
C1090 C1091 1.374 . S
C1091 H1071 0.950 . S
C1091 C1087 1.385 . S
C1091 C1090 1.374 . S
C1092 C1089 1.499 . S
C1092 C1093 1.373 . S
C1092 C1094 1.389 . S
C1093 H1072 0.950 . S
C1093 C1092 1.373 . S
C1093 C1109 1.377 . S
C1094 C1092 1.389 . S
C1094 C1095 1.524 . S
C1094 C1108 1.377 . S
C1095 C1094 1.524 . S
C1095 C1096 1.397 . S
C1095 C1100 1.363 . S
C1096 H1073 0.950 . S
C1096 C1095 1.397 . S
C1096 C1097 1.334 . S
C1097 H1074 0.950 . S
C1097 C1096 1.334 . S
C1097 C1098 1.287 . S
C1098 C1097 1.287 . S
C1098 C1099 1.524 . S
C1098 H1117 0.913 . S
C1099 H1075 0.950 . S
C1099 C1098 1.524 . S
C1099 C1100 1.415 . S
C1100 H1076 0.950 . S
C1100 C1095 1.363 . S
C1100 C1099 1.415 . S
C1101 H1077 0.951 . S
C1101 C1102 1.366 . S
C1101 C1103 1.388 . S
C1102 C1101 1.366 . S
C1102 C1106 1.385 . S
C1103 H1078 0.951 . S
C1103 C1101 1.388 . S
C1103 C1104 1.366 . S
C1104 C1103 1.366 . S
C1104 C1105 1.414 . S
C1104 C1107 1.499 . S
C1105 H1079 0.950 . S
C1105 C1104 1.414 . S
C1105 C1106 1.374 . S
C1106 H1080 0.950 . S
C1106 C1102 1.385 . S
C1106 C1105 1.374 . S
C1107 C1104 1.499 . S
C1107 C1108 1.373 . S
C1107 C1109 1.389 . S
C1108 H1081 0.950 . S
C1108 C1094 1.377 . S
C1108 C1107 1.373 . S
C1109 C1093 1.377 . S
C1109 C1107 1.389 . S
C1109 C1110 1.524 . S
C1110 C1109 1.524 . S
C1110 C1111 1.397 . S
C1110 C1115 1.363 . S
C1111 H1082 0.950 . S
C1111 C1110 1.397 . S
C1111 C1112 1.334 . S
C1112 H1083 0.950 . S
C1112 C1111 1.334 . S
C1112 C1113 1.287 . S
C1113 C1112 1.287 . S
C1113 C1114 1.524 . S
C1113 H1116 0.999 . S
C1114 H1084 0.950 . S
C1114 C1113 1.524 . S
C1114 C1115 1.415 . S
C1115 H1085 0.950 . S
C1115 C1110 1.363 . S
C1115 C1114 1.415 . S
H1116 C1113 0.999 . S
H1117 C1098 0.913 . S
H1118 C1136 0.951 . S
H1119 C1138 0.951 . S
H1120 C1140 0.950 . S
H1121 C1141 0.950 . S
H1122 C1143 0.950 . S
H1123 C1146 0.950 . S
H1124 C1147 0.950 . S
H1125 C1149 0.950 . S
H1126 C1150 0.950 . S
H1127 C1151 0.951 . S
H1128 C1153 0.951 . S
H1129 C1155 0.950 . S
H1130 C1156 0.950 . S
H1131 C1158 0.950 . S
H1132 C1161 0.950 . S
H1133 C1162 0.950 . S
H1134 C1164 0.950 . S
H1135 C1165 0.950 . S
C1136 H1118 0.951 . S
C1136 C1137 1.366 . S
C1136 C1138 1.388 . S
C1137 C1136 1.366 . S
C1137 C1141 1.385 . S
C1138 H1119 0.951 . S
C1138 C1136 1.388 . S
C1138 C1139 1.366 . S
C1139 C1138 1.366 . S
C1139 C1140 1.414 . S
C1139 C1142 1.499 . S
C1140 H1120 0.950 . S
C1140 C1139 1.414 . S
C1140 C1141 1.374 . S
C1141 H1121 0.950 . S
C1141 C1137 1.385 . S
C1141 C1140 1.374 . S
C1142 C1139 1.499 . S
C1142 C1143 1.373 . S
C1142 C1144 1.389 . S
C1143 H1122 0.950 . S
C1143 C1142 1.373 . S
C1143 C1159 1.377 . S
C1144 C1142 1.389 . S
C1144 C1145 1.524 . S
C1144 C1158 1.377 . S
C1145 C1144 1.524 . S
C1145 C1146 1.397 . S
C1145 C1150 1.363 . S
C1146 H1123 0.950 . S
C1146 C1145 1.397 . S
C1146 C1147 1.334 . S
C1147 H1124 0.950 . S
C1147 C1146 1.334 . S
C1147 C1148 1.287 . S
C1148 C1147 1.287 . S
C1148 C1149 1.524 . S
C1148 H1167 0.913 . S
C1149 H1125 0.950 . S
C1149 C1148 1.524 . S
C1149 C1150 1.415 . S
C1150 H1126 0.950 . S
C1150 C1145 1.363 . S
C1150 C1149 1.415 . S
C1151 H1127 0.951 . S
C1151 C1152 1.366 . S
C1151 C1153 1.388 . S
C1152 C1151 1.366 . S
C1152 C1156 1.385 . S
C1153 H1128 0.951 . S
C1153 C1151 1.388 . S
C1153 C1154 1.366 . S
C1154 C1153 1.366 . S
C1154 C1155 1.414 . S
C1154 C1157 1.499 . S
C1155 H1129 0.950 . S
C1155 C1154 1.414 . S
C1155 C1156 1.374 . S
C1156 H1130 0.950 . S
C1156 C1152 1.385 . S
C1156 C1155 1.374 . S
C1157 C1154 1.499 . S
C1157 C1158 1.373 . S
C1157 C1159 1.389 . S
C1158 H1131 0.950 . S
C1158 C1144 1.377 . S
C1158 C1157 1.373 . S
C1159 C1143 1.377 . S
C1159 C1157 1.389 . S
C1159 C1160 1.524 . S
C1160 C1159 1.524 . S
C1160 C1161 1.397 . S
C1160 C1165 1.363 . S
C1161 H1132 0.950 . S
C1161 C1160 1.397 . S
C1161 C1162 1.334 . S
C1162 H1133 0.950 . S
C1162 C1161 1.334 . S
C1162 C1163 1.287 . S
C1163 C1162 1.287 . S
C1163 C1164 1.524 . S
C1163 H1166 0.999 . S
C1164 H1134 0.950 . S
C1164 C1163 1.524 . S
C1164 C1165 1.415 . S
C1165 H1135 0.950 . S
C1165 C1160 1.363 . S
C1165 C1164 1.415 . S
H1166 C1163 0.999 . S
H1167 C1148 0.913 . S
H1168 C1186 0.951 . S
H1169 C1188 0.951 . S
H1170 C1190 0.950 . S
H1171 C1191 0.950 . S
H1172 C1193 0.950 . S
H1173 C1196 0.950 . S
H1174 C1197 0.950 . S
H1175 C1199 0.950 . S
H1176 C1200 0.950 . S
H1177 C1201 0.951 . S
H1178 C1203 0.951 . S
H1179 C1205 0.950 . S
H1180 C1206 0.950 . S
H1181 C1208 0.950 . S
H1182 C1211 0.950 . S
H1183 C1212 0.950 . S
H1184 C1214 0.950 . S
H1185 C1215 0.950 . S
C1186 H1168 0.951 . S
C1186 C1187 1.366 . S
C1186 C1188 1.388 . S
C1187 C1186 1.366 . S
C1187 C1191 1.385 . S
C1188 H1169 0.951 . S
C1188 C1186 1.388 . S
C1188 C1189 1.366 . S
C1189 C1188 1.366 . S
C1189 C1190 1.414 . S
C1189 C1192 1.499 . S
C1190 H1170 0.950 . S
C1190 C1189 1.414 . S
C1190 C1191 1.374 . S
C1191 H1171 0.950 . S
C1191 C1187 1.385 . S
C1191 C1190 1.374 . S
C1192 C1189 1.499 . S
C1192 C1193 1.373 . S
C1192 C1194 1.389 . S
C1193 H1172 0.950 . S
C1193 C1192 1.373 . S
C1193 C1209 1.377 . S
C1194 C1192 1.389 . S
C1194 C1195 1.524 . S
C1194 C1208 1.377 . S
C1195 C1194 1.524 . S
C1195 C1196 1.397 . S
C1195 C1200 1.363 . S
C1196 H1173 0.950 . S
C1196 C1195 1.397 . S
C1196 C1197 1.334 . S
C1197 H1174 0.950 . S
C1197 C1196 1.334 . S
C1197 C1198 1.287 . S
C1198 C1197 1.287 . S
C1198 C1199 1.524 . S
C1198 H1217 0.913 . S
C1199 H1175 0.950 . S
C1199 C1198 1.524 . S
C1199 C1200 1.415 . S
C1200 H1176 0.950 . S
C1200 C1195 1.363 . S
C1200 C1199 1.415 . S
C1201 H1177 0.951 . S
C1201 C1202 1.366 . S
C1201 C1203 1.388 . S
C1202 C1201 1.366 . S
C1202 C1206 1.385 . S
C1203 H1178 0.951 . S
C1203 C1201 1.388 . S
C1203 C1204 1.366 . S
C1204 C1203 1.366 . S
C1204 C1205 1.414 . S
C1204 C1207 1.499 . S
C1205 H1179 0.950 . S
C1205 C1204 1.414 . S
C1205 C1206 1.374 . S
C1206 H1180 0.950 . S
C1206 C1202 1.385 . S
C1206 C1205 1.374 . S
C1207 C1204 1.499 . S
C1207 C1208 1.373 . S
C1207 C1209 1.389 . S
C1208 H1181 0.950 . S
C1208 C1194 1.377 . S
C1208 C1207 1.373 . S
C1209 C1193 1.377 . S
C1209 C1207 1.389 . S
C1209 C1210 1.524 . S
C1210 C1209 1.524 . S
C1210 C1211 1.397 . S
C1210 C1215 1.363 . S
C1211 H1182 0.950 . S
C1211 C1210 1.397 . S
C1211 C1212 1.334 . S
C1212 H1183 0.950 . S
C1212 C1211 1.334 . S
C1212 C1213 1.287 . S
C1213 C1212 1.287 . S
C1213 C1214 1.524 . S
C1213 H1216 0.999 . S
C1214 H1184 0.950 . S
C1214 C1213 1.524 . S
C1214 C1215 1.415 . S
C1215 H1185 0.950 . S
C1215 C1210 1.363 . S
C1215 C1214 1.415 . S
H1216 C1213 0.999 . S
H1217 C1198 0.913 . S
H1218 C1236 0.951 . S
H1219 C1238 0.951 . S
H1220 C1240 0.950 . S
H1221 C1241 0.950 . S
H1222 C1243 0.950 . S
H1223 C1246 0.950 . S
H1224 C1247 0.950 . S
H1225 C1249 0.950 . S
H1226 C1250 0.950 . S
H1227 C1251 0.951 . S
H1228 C1253 0.951 . S
H1229 C1255 0.950 . S
H1230 C1256 0.950 . S
H1231 C1258 0.950 . S
H1232 C1261 0.950 . S
H1233 C1262 0.950 . S
H1234 C1264 0.950 . S
H1235 C1265 0.950 . S
C1236 H1218 0.951 . S
C1236 C1237 1.366 . S
C1236 C1238 1.388 . S
C1237 C1236 1.366 . S
C1237 C1241 1.385 . S
C1238 H1219 0.951 . S
C1238 C1236 1.388 . S
C1238 C1239 1.366 . S
C1239 C1238 1.366 . S
C1239 C1240 1.414 . S
C1239 C1242 1.499 . S
C1240 H1220 0.950 . S
C1240 C1239 1.414 . S
C1240 C1241 1.374 . S
C1241 H1221 0.950 . S
C1241 C1237 1.385 . S
C1241 C1240 1.374 . S
C1242 C1239 1.499 . S
C1242 C1243 1.373 . S
C1242 C1244 1.389 . S
C1243 H1222 0.950 . S
C1243 C1242 1.373 . S
C1243 C1259 1.377 . S
C1244 C1242 1.389 . S
C1244 C1245 1.524 . S
C1244 C1258 1.377 . S
C1245 C1244 1.524 . S
C1245 C1246 1.397 . S
C1245 C1250 1.363 . S
C1246 H1223 0.950 . S
C1246 C1245 1.397 . S
C1246 C1247 1.334 . S
C1247 H1224 0.950 . S
C1247 C1246 1.334 . S
C1247 C1248 1.287 . S
C1248 C1247 1.287 . S
C1248 C1249 1.524 . S
C1248 H1267 0.913 . S
C1249 H1225 0.950 . S
C1249 C1248 1.524 . S
C1249 C1250 1.415 . S
C1250 H1226 0.950 . S
C1250 C1245 1.363 . S
C1250 C1249 1.415 . S
C1251 H1227 0.951 . S
C1251 C1252 1.366 . S
C1251 C1253 1.388 . S
C1252 C1251 1.366 . S
C1252 C1256 1.385 . S
C1253 H1228 0.951 . S
C1253 C1251 1.388 . S
C1253 C1254 1.366 . S
C1254 C1253 1.366 . S
C1254 C1255 1.414 . S
C1254 C1257 1.499 . S
C1255 H1229 0.950 . S
C1255 C1254 1.414 . S
C1255 C1256 1.374 . S
C1256 H1230 0.950 . S
C1256 C1252 1.385 . S
C1256 C1255 1.374 . S
C1257 C1254 1.499 . S
C1257 C1258 1.373 . S
C1257 C1259 1.389 . S
C1258 H1231 0.950 . S
C1258 C1244 1.377 . S
C1258 C1257 1.373 . S
C1259 C1243 1.377 . S
C1259 C1257 1.389 . S
C1259 C1260 1.524 . S
C1260 C1259 1.524 . S
C1260 C1261 1.397 . S
C1260 C1265 1.363 . S
C1261 H1232 0.950 . S
C1261 C1260 1.397 . S
C1261 C1262 1.334 . S
C1262 H1233 0.950 . S
C1262 C1261 1.334 . S
C1262 C1263 1.287 . S
C1263 C1262 1.287 . S
C1263 C1264 1.524 . S
C1263 H1266 0.999 . S
C1264 H1234 0.950 . S
C1264 C1263 1.524 . S
C1264 C1265 1.415 . S
C1265 H1235 0.950 . S
C1265 C1260 1.363 . S
C1265 C1264 1.415 . S
H1266 C1263 0.999 . S
H1267 C1248 0.913 . S
H1268 C1286 0.951 . S
H1269 C1288 0.951 . S
H1270 C1290 0.950 . S
H1271 C1291 0.950 . S
H1272 C1293 0.950 . S
H1273 C1296 0.950 . S
H1274 C1297 0.950 . S
H1275 C1299 0.950 . S
H1276 C1300 0.950 . S
H1277 C1301 0.951 . S
H1278 C1303 0.951 . S
H1279 C1305 0.950 . S
H1280 C1306 0.950 . S
H1281 C1308 0.950 . S
H1282 C1311 0.950 . S
H1283 C1312 0.950 . S
H1284 C1314 0.950 . S
H1285 C1315 0.950 . S
C1286 H1268 0.951 . S
C1286 C1287 1.366 . S
C1286 C1288 1.388 . S
C1287 C1286 1.366 . S
C1287 C1291 1.385 . S
C1288 H1269 0.951 . S
C1288 C1286 1.388 . S
C1288 C1289 1.366 . S
C1289 C1288 1.366 . S
C1289 C1290 1.414 . S
C1289 C1292 1.499 . S
C1290 H1270 0.950 . S
C1290 C1289 1.414 . S
C1290 C1291 1.374 . S
C1291 H1271 0.950 . S
C1291 C1287 1.385 . S
C1291 C1290 1.374 . S
C1292 C1289 1.499 . S
C1292 C1293 1.373 . S
C1292 C1294 1.389 . S
C1293 H1272 0.950 . S
C1293 C1292 1.373 . S
C1293 C1309 1.377 . S
C1294 C1292 1.389 . S
C1294 C1295 1.524 . S
C1294 C1308 1.377 . S
C1295 C1294 1.524 . S
C1295 C1296 1.397 . S
C1295 C1300 1.363 . S
C1296 H1273 0.950 . S
C1296 C1295 1.397 . S
C1296 C1297 1.334 . S
C1297 H1274 0.950 . S
C1297 C1296 1.334 . S
C1297 C1298 1.287 . S
C1298 C1297 1.287 . S
C1298 C1299 1.524 . S
C1298 H1317 0.913 . S
C1299 H1275 0.950 . S
C1299 C1298 1.524 . S
C1299 C1300 1.415 . S
C1300 H1276 0.950 . S
C1300 C1295 1.363 . S
C1300 C1299 1.415 . S
C1301 H1277 0.951 . S
C1301 C1302 1.366 . S
C1301 C1303 1.388 . S
C1302 C1301 1.366 . S
C1302 C1306 1.385 . S
C1303 H1278 0.951 . S
C1303 C1301 1.388 . S
C1303 C1304 1.366 . S
C1304 C1303 1.366 . S
C1304 C1305 1.414 . S
C1304 C1307 1.499 . S
C1305 H1279 0.950 . S
C1305 C1304 1.414 . S
C1305 C1306 1.374 . S
C1306 H1280 0.950 . S
C1306 C1302 1.385 . S
C1306 C1305 1.374 . S
C1307 C1304 1.499 . S
C1307 C1308 1.373 . S
C1307 C1309 1.389 . S
C1308 H1281 0.950 . S
C1308 C1294 1.377 . S
C1308 C1307 1.373 . S
C1309 C1293 1.377 . S
C1309 C1307 1.389 . S
C1309 C1310 1.524 . S
C1310 C1309 1.524 . S
C1310 C1311 1.397 . S
C1310 C1315 1.363 . S
C1311 H1282 0.950 . S
C1311 C1310 1.397 . S
C1311 C1312 1.334 . S
C1312 H1283 0.950 . S
C1312 C1311 1.334 . S
C1312 C1313 1.287 . S
C1313 C1312 1.287 . S
C1313 C1314 1.524 . S
C1313 H1316 0.999 . S
C1314 H1284 0.950 . S
C1314 C1313 1.524 . S
C1314 C1315 1.415 . S
C1315 H1285 0.950 . S
C1315 C1310 1.363 . S
C1315 C1314 1.415 . S
H1316 C1313 0.999 . S
H1317 C1298 0.913 . S
H1318 C1336 0.951 . S
H1319 C1338 0.951 . S
H1320 C1340 0.950 . S
H1321 C1341 0.950 . S
H1322 C1343 0.950 . S
H1323 C1346 0.950 . S
H1324 C1347 0.950 . S
H1325 C1349 0.950 . S
H1326 C1350 0.950 . S
H1327 C1351 0.951 . S
H1328 C1353 0.951 . S
H1329 C1355 0.950 . S
H1330 C1356 0.950 . S
H1331 C1358 0.950 . S
H1332 C1361 0.950 . S
H1333 C1362 0.950 . S
H1334 C1364 0.950 . S
H1335 C1365 0.950 . S
C1336 H1318 0.951 . S
C1336 C1337 1.366 . S
C1336 C1338 1.388 . S
C1337 C1336 1.366 . S
C1337 C1341 1.385 . S
C1338 H1319 0.951 . S
C1338 C1336 1.388 . S
C1338 C1339 1.366 . S
C1339 C1338 1.366 . S
C1339 C1340 1.414 . S
C1339 C1342 1.499 . S
C1340 H1320 0.950 . S
C1340 C1339 1.414 . S
C1340 C1341 1.374 . S
C1341 H1321 0.950 . S
C1341 C1337 1.385 . S
C1341 C1340 1.374 . S
C1342 C1339 1.499 . S
C1342 C1343 1.373 . S
C1342 C1344 1.389 . S
C1343 H1322 0.950 . S
C1343 C1342 1.373 . S
C1343 C1359 1.377 . S
C1344 C1342 1.389 . S
C1344 C1345 1.524 . S
C1344 C1358 1.377 . S
C1345 C1344 1.524 . S
C1345 C1346 1.397 . S
C1345 C1350 1.363 . S
C1346 H1323 0.950 . S
C1346 C1345 1.397 . S
C1346 C1347 1.334 . S
C1347 H1324 0.950 . S
C1347 C1346 1.334 . S
C1347 C1348 1.287 . S
C1348 C1347 1.287 . S
C1348 C1349 1.524 . S
C1348 H1367 0.913 . S
C1349 H1325 0.950 . S
C1349 C1348 1.524 . S
C1349 C1350 1.415 . S
C1350 H1326 0.950 . S
C1350 C1345 1.363 . S
C1350 C1349 1.415 . S
C1351 H1327 0.951 . S
C1351 C1352 1.366 . S
C1351 C1353 1.388 . S
C1352 C1351 1.366 . S
C1352 C1356 1.385 . S
C1353 H1328 0.951 . S
C1353 C1351 1.388 . S
C1353 C1354 1.366 . S
C1354 C1353 1.366 . S
C1354 C1355 1.414 . S
C1354 C1357 1.499 . S
C1355 H1329 0.950 . S
C1355 C1354 1.414 . S
C1355 C1356 1.374 . S
C1356 H1330 0.950 . S
C1356 C1352 1.385 . S
C1356 C1355 1.374 . S
C1357 C1354 1.499 . S
C1357 C1358 1.373 . S
C1357 C1359 1.389 . S
C1358 H1331 0.950 . S
C1358 C1344 1.377 . S
C1358 C1357 1.373 . S
C1359 C1343 1.377 . S
C1359 C1357 1.389 . S
C1359 C1360 1.524 . S
C1360 C1359 1.524 . S
C1360 C1361 1.397 . S
C1360 C1365 1.363 . S
C1361 H1332 0.950 . S
C1361 C1360 1.397 . S
C1361 C1362 1.334 . S
C1362 H1333 0.950 . S
C1362 C1361 1.334 . S
C1362 C1363 1.287 . S
C1363 C1362 1.287 . S
C1363 C1364 1.524 . S
C1363 H1366 0.999 . S
C1364 H1334 0.950 . S
C1364 C1363 1.524 . S
C1364 C1365 1.415 . S
C1365 H1335 0.950 . S
C1365 C1360 1.363 . S
C1365 C1364 1.415 . S
H1366 C1363 0.999 . S
H1367 C1348 0.913 . S
C187 C5 1.125 . S
C202 C159 1.128 . S
C237 C89 1.127 . S
C252 C19 1.125 . S
C287 C33 1.126 . S
C302 C103 1.127 . S
C337 C117 1.126 . S
C352 C47 1.127 . S
C387 C131 1.128 . S
C402 C61 1.125 . S
C437 C145 1.125 . S
C452 C75 1.128 . S
C487 C54 1.605 . S
C502 C124 1.606 . S
C537 C68 1.606 . S
C552 C138 1.606 . S
C587 C82 1.606 . S
C602 C152 1.605 . S
C637 C166 1.605 . S
C652 C12 1.606 . S
C687 C26 1.605 . S
C702 C96 1.606 . S
C737 C40 1.605 . S
C752 C110 1.606 . S
C787 C116 1.303 . S
C802 C4 1.303 . S
C837 C130 1.302 . S
C852 C18 1.302 . S
C887 C32 1.303 . S
C902 C144 1.303 . S
C937 C46 1.303 . S
C952 C158 1.303 . S
C987 C60 1.303 . S
C1002 C88 1.303 . S
C1037 C102 1.303 . S
C1052 C74 1.303 . S
C1087 C11 1.182 . S
C1102 C151 1.183 . S
C1137 C165 1.183 . S
C1152 C25 1.183 . S
C1187 C39 1.183 . S
C1202 C95 1.182 . S
C1237 C53 1.182 . S
C1252 C109 1.182 . S
C1287 C67 1.182 . S
C1302 C123 1.182 . S
C1337 C81 1.182 . S
C1352 C137 1.183 . S
