# Generated by pormake.
# Topology umh, (4)-cn, num edge types: 1
# Building blocks:
#     Node 0, Type 0, BuildingBlock: QUQFOY_clean_sbu_1, # of connection points: 4
#     Node 1, Type 0, BuildingBlock: QUQFOY_clean_sbu_1, # of connection points: 4
#     Node 2, Type 0, BuildingBlock: QUQFOY_clean_sbu_1, # of connection points: 4
#     Node 3, Type 0, BuildingBlock: QUQFOY_clean_sbu_1, # of connection points: 4
#     Node 4, Type 0, BuildingBlock: QUQFOY_clean_sbu_1, # of connection points: 4
#     Node 5, Type 0, BuildingBlock: QUQFOY_clean_sbu_1, # of connection points: 4
#     Node 6, Type 0, BuildingBlock: QUQFOY_clean_sbu_1, # of connection points: 4
#     Node 7, Type 0, BuildingBlock: QUQFOY_clean_sbu_1, # of connection points: 4
#     Node 8, Type 0, BuildingBlock: QUQFOY_clean_sbu_1, # of connection points: 4
#     Node 9, Type 0, BuildingBlock: QUQFOY_clean_sbu_1, # of connection points: 4
#     Node 10, Type 0, BuildingBlock: QUQFOY_clean_sbu_1, # of connection points: 4
#     Node 11, Type 0, BuildingBlock: QUQFOY_clean_sbu_1, # of connection points: 4
#     Node 12, Type 0, BuildingBlock: QUQFOY_clean_sbu_1, # of connection points: 4
#     Node 13, Type 0, BuildingBlock: QUQFOY_clean_sbu_1, # of connection points: 4
#     Node 14, Type 0, BuildingBlock: QUQFOY_clean_sbu_1, # of connection points: 4
#     Node 15, Type 0, BuildingBlock: QUQFOY_clean_sbu_1, # of connection points: 4
#     Edge 16, Type (0, 0), BuildingBlock: MIFKUJ_clean_linker_0, # of connection points: 2
#     Edge 17, Type (0, 0), BuildingBlock: MIFKUJ_clean_linker_0, # of connection points: 2
#     Edge 18, Type (0, 0), BuildingBlock: MIFKUJ_clean_linker_0, # of connection points: 2
#     Edge 19, Type (0, 0), BuildingBlock: MIFKUJ_clean_linker_0, # of connection points: 2
#     Edge 20, Type (0, 0), BuildingBlock: MIFKUJ_clean_linker_0, # of connection points: 2
#     Edge 21, Type (0, 0), BuildingBlock: MIFKUJ_clean_linker_0, # of connection points: 2
#     Edge 22, Type (0, 0), BuildingBlock: MIFKUJ_clean_linker_0, # of connection points: 2
#     Edge 23, Type (0, 0), BuildingBlock: MIFKUJ_clean_linker_0, # of connection points: 2
#     Edge 24, Type (0, 0), BuildingBlock: MIFKUJ_clean_linker_0, # of connection points: 2
#     Edge 25, Type (0, 0), BuildingBlock: MIFKUJ_clean_linker_0, # of connection points: 2
#     Edge 26, Type (0, 0), BuildingBlock: MIFKUJ_clean_linker_0, # of connection points: 2
#     Edge 27, Type (0, 0), BuildingBlock: MIFKUJ_clean_linker_0, # of connection points: 2
#     Edge 28, Type (0, 0), BuildingBlock: MIFKUJ_clean_linker_0, # of connection points: 2
#     Edge 29, Type (0, 0), BuildingBlock: MIFKUJ_clean_linker_0, # of connection points: 2
#     Edge 30, Type (0, 0), BuildingBlock: MIFKUJ_clean_linker_0, # of connection points: 2
#     Edge 31, Type (0, 0), BuildingBlock: MIFKUJ_clean_linker_0, # of connection points: 2
#     Edge 32, Type (0, 0), BuildingBlock: MIFKUJ_clean_linker_0, # of connection points: 2
#     Edge 33, Type (0, 0), BuildingBlock: MIFKUJ_clean_linker_0, # of connection points: 2
#     Edge 34, Type (0, 0), BuildingBlock: MIFKUJ_clean_linker_0, # of connection points: 2
#     Edge 35, Type (0, 0), BuildingBlock: MIFKUJ_clean_linker_0, # of connection points: 2
#     Edge 36, Type (0, 0), BuildingBlock: MIFKUJ_clean_linker_0, # of connection points: 2
#     Edge 37, Type (0, 0), BuildingBlock: MIFKUJ_clean_linker_0, # of connection points: 2
#     Edge 38, Type (0, 0), BuildingBlock: MIFKUJ_clean_linker_0, # of connection points: 2
#     Edge 39, Type (0, 0), BuildingBlock: MIFKUJ_clean_linker_0, # of connection points: 2
#     Edge 40, Type (0, 0), BuildingBlock: MIFKUJ_clean_linker_0, # of connection points: 2
#     Edge 41, Type (0, 0), BuildingBlock: MIFKUJ_clean_linker_0, # of connection points: 2
#     Edge 42, Type (0, 0), BuildingBlock: MIFKUJ_clean_linker_0, # of connection points: 2
#     Edge 43, Type (0, 0), BuildingBlock: MIFKUJ_clean_linker_0, # of connection points: 2
#     Edge 44, Type (0, 0), BuildingBlock: MIFKUJ_clean_linker_0, # of connection points: 2
#     Edge 45, Type (0, 0), BuildingBlock: MIFKUJ_clean_linker_0, # of connection points: 2
#     Edge 46, Type (0, 0), BuildingBlock: MIFKUJ_clean_linker_0, # of connection points: 2
#     Edge 47, Type (0, 0), BuildingBlock: MIFKUJ_clean_linker_0, # of connection points: 2
# Relax obj value: 0.066
# Max RMSD: 0.294
# Mean RMSD: 0.294
data_MOF--net-umh--node1-QUQFOY_clean_sbu_1--edge1-MIFKUJ_clean_linker_0
_symmetry_space_group_name_H-M    P1
_symmetry_Int_Tables_number       1
_symmetry_cell_setting            triclinic
loop_
_symmetry_equiv_pos_as_xyz
'x, y, z'
_cell_length_a     53.521543
_cell_length_b     53.5691
_cell_length_c     69.779752
_cell_angle_alpha  90.019798
_cell_angle_beta   90.041596
_cell_angle_gamma 90.001567
loop_
_atom_site_label
_atom_site_type_symbol
_atom_site_fract_x
_atom_site_fract_y
_atom_site_fract_z
_atom_type_partial_charge
O0 O 0.36665 0.1153 0.13131 0.0
Cd1 Cd 0.36698 0.11443 0.16083 0.0
Cd2 Cd 0.32221 0.09395 0.15426 0.0
O3 O 0.33618 0.08823 0.12645 0.0
O4 O 0.40299 0.11426 0.16921 0.0
O5 O 0.37766 0.08191 0.17222 0.0
C6 C 0.39977 0.09117 0.17397 0.0
C7 C 0.30757 0.06795 0.17865 0.0
C8 C 0.35392 0.10177 0.11992 0.0
C9 C 0.32255 0.1444 0.17138 0.0
O10 O 0.31098 0.12942 0.1604 0.0
O11 O 0.34547 0.14072 0.17543 0.0
O12 O 0.29392 0.07228 0.1637 0.0
O13 O 0.33045 0.07554 0.17831 0.0
O14 O 0.38283 0.36331 0.63161 0.0
Cd15 Cd 0.38334 0.36516 0.66108 0.0
Cd16 Cd 0.40651 0.32094 0.65626 0.0
O17 O 0.41048 0.33313 0.6277 0.0
O18 O 0.38485 0.40136 0.6688 0.0
O19 O 0.41595 0.37468 0.67283 0.0
C20 C 0.40765 0.39723 0.67404 0.0
C21 C 0.43515 0.30507 0.67855 0.0
C22 C 0.3964 0.35007 0.62062 0.0
C23 C 0.35487 0.32087 0.6733 0.0
O24 O 0.37161 0.30904 0.66414 0.0
O25 O 0.35651 0.3444 0.67557 0.0
O26 O 0.42833 0.29195 0.6639 0.0
O27 O 0.42829 0.32815 0.67905 0.0
O28 O 0.12258 0.37764 0.13506 0.0
Cd29 Cd 0.12148 0.37913 0.16455 0.0
Cd30 Cd 0.16548 0.40168 0.15884 0.0
O31 O 0.15239 0.40552 0.13051 0.0
O32 O 0.08556 0.38106 0.1728 0.0
O33 O 0.11234 0.41235 0.17541 0.0
C34 C 0.08981 0.4041 0.17723 0.0
C35 C 0.18269 0.42972 0.18092 0.0
C36 C 0.13534 0.39125 0.12377 0.0
C37 C 0.16583 0.35087 0.17672 0.0
O38 O 0.17738 0.36689 0.16667 0.0
O39 O 0.14243 0.3529 0.17956 0.0
O40 O 0.1951 0.42293 0.16591 0.0
O41 O 0.15943 0.42344 0.18182 0.0
O42 O 0.10797 0.12972 0.63183 0.0
Cd43 Cd 0.10816 0.12901 0.66138 0.0
Cd44 Cd 0.0871 0.17389 0.65567 0.0
O45 O 0.08196 0.1612 0.62744 0.0
O46 O 0.10725 0.09293 0.66939 0.0
O47 O 0.07604 0.11935 0.67387 0.0
C48 C 0.08461 0.0969 0.67506 0.0
C49 C 0.05959 0.18984 0.67866 0.0
C50 C 0.09492 0.14323 0.62064 0.0
C51 C 0.13864 0.17286 0.67225 0.0
O52 O 0.12254 0.18497 0.66264 0.0
O53 O 0.1357 0.1496 0.67531 0.0
O54 O 0.06588 0.20301 0.6639 0.0
O55 O 0.06633 0.16671 0.67893 0.0
O56 O 0.37277 0.37829 0.40555 0.0
Cd57 Cd 0.37351 0.3814 0.37597 0.0
Cd58 Cd 0.32616 0.39348 0.38271 0.0
O59 O 0.33821 0.39961 0.41091 0.0
O60 O 0.40952 0.38595 0.36863 0.0
O61 O 0.38092 0.41542 0.3654 0.0
C62 C 0.40399 0.40864 0.36406 0.0
C63 C 0.30785 0.41969 0.35985 0.0
C64 C 0.35772 0.38862 0.41724 0.0
C65 C 0.33525 0.34493 0.3639 0.0
O66 O 0.32103 0.35687 0.37519 0.0
O67 O 0.35698 0.35304 0.35992 0.0
O68 O 0.29497 0.4114 0.37418 0.0
O69 O 0.33161 0.41539 0.35985 0.0
O70 O 0.10871 0.3673 0.90949 0.0
Cd71 Cd 0.10957 0.36786 0.87998 0.0
Cd72 Cd 0.08828 0.32319 0.8856 0.0
O73 O 0.08179 0.33651 0.91355 0.0
O74 O 0.10961 0.4039 0.8717 0.0
O75 O 0.07779 0.37827 0.86718 0.0
C76 C 0.08693 0.40048 0.8659 0.0
C77 C 0.06254 0.30812 0.86101 0.0
C78 C 0.09503 0.35421 0.92051 0.0
C79 C 0.14044 0.32367 0.87076 0.0
O80 O 0.12407 0.31195 0.88037 0.0
O81 O 0.13739 0.3467 0.86682 0.0
O82 O 0.06707 0.29461 0.87599 0.0
O83 O 0.06997 0.33103 0.86131 0.0
O84 O 0.12776 0.12021 0.4064 0.0
Cd85 Cd 0.12824 0.11847 0.37675 0.0
Cd86 Cd 0.17103 0.09655 0.38482 0.0
O87 O 0.15509 0.09014 0.41176 0.0
O88 O 0.09266 0.11691 0.36704 0.0
O89 O 0.1189 0.08508 0.36635 0.0
C90 C 0.09675 0.09362 0.36333 0.0
C91 C 0.18824 0.07096 0.36105 0.0
C92 C 0.1386 0.10537 0.41801 0.0
C93 C 0.17383 0.14702 0.36846 0.0
O94 O 0.18307 0.13219 0.38074 0.0
O95 O 0.15184 0.14319 0.36204 0.0
O96 O 0.20043 0.07547 0.37669 0.0
O97 O 0.16538 0.07843 0.36009 0.0
O98 O 0.38402 0.12762 0.9064 0.0
Cd99 Cd 0.38356 0.1265 0.87694 0.0
Cd100 Cd 0.40744 0.17073 0.88239 0.0
O101 O 0.41181 0.15762 0.91071 0.0
O102 O 0.38442 0.09043 0.8687 0.0
O103 O 0.41563 0.11692 0.8645 0.0
C104 C 0.40709 0.09448 0.86313 0.0
C105 C 0.43556 0.18583 0.85938 0.0
C106 C 0.39778 0.14046 0.91755 0.0
C107 C 0.35524 0.17157 0.86618 0.0
O108 O 0.37242 0.18294 0.87523 0.0
O109 O 0.35655 0.14811 0.86339 0.0
O110 O 0.42964 0.19928 0.87408 0.0
O111 O 0.42813 0.16293 0.85922 0.0
O112 O 0.63207 0.88466 0.90455 0.0
Cd113 Cd 0.63029 0.88536 0.87506 0.0
Cd114 Cd 0.67488 0.90708 0.88011 0.0
O115 O 0.66265 0.91186 0.9085 0.0
O116 O 0.594 0.8865 0.86753 0.0
O117 O 0.62032 0.91785 0.86334 0.0
C118 C 0.59783 0.9093 0.86225 0.0
C119 C 0.69048 0.93521 0.85748 0.0
C120 C 0.64545 0.89809 0.91556 0.0
C121 C 0.67403 0.85567 0.86316 0.0
O122 O 0.68622 0.87185 0.87264 0.0
O123 O 0.65063 0.85829 0.86051 0.0
O124 O 0.70385 0.92857 0.87205 0.0
O125 O 0.66735 0.92839 0.85722 0.0
O126 O 0.6191 0.63157 0.40551 0.0
Cd127 Cd 0.61648 0.6308 0.37603 0.0
Cd128 Cd 0.59638 0.67546 0.38297 0.0
O129 O 0.59121 0.66116 0.41077 0.0
O130 O 0.61382 0.59489 0.36751 0.0
O131 O 0.58271 0.62195 0.36597 0.0
C132 C 0.59063 0.59943 0.36367 0.0
C133 C 0.57022 0.69194 0.35933 0.0
C134 C 0.6056 0.64397 0.41712 0.0
C135 C 0.64639 0.67472 0.36493 0.0
O136 O 0.63193 0.68611 0.3764 0.0
O137 O 0.64233 0.65195 0.36064 0.0
O138 O 0.57549 0.70484 0.37449 0.0
O139 O 0.57687 0.66879 0.35911 0.0
O140 O 0.865 0.60925 0.90605 0.0
Cd141 Cd 0.86595 0.6094 0.8765 0.0
Cd142 Cd 0.82184 0.58639 0.88202 0.0
O143 O 0.83491 0.58156 0.91018 0.0
O144 O 0.9021 0.60971 0.86849 0.0
O145 O 0.87695 0.57741 0.86441 0.0
C146 C 0.89907 0.58681 0.86314 0.0
C147 C 0.80726 0.55865 0.85867 0.0
C148 C 0.85216 0.59539 0.91711 0.0
C149 C 0.82081 0.6379 0.86549 0.0
O150 O 0.80946 0.62137 0.8752 0.0
O151 O 0.8442 0.63597 0.86237 0.0
O152 O 0.79367 0.56402 0.87342 0.0
O153 O 0.83009 0.56643 0.85863 0.0
O154 O 0.88792 0.87067 0.40416 0.0
Cd155 Cd 0.88647 0.87197 0.3746 0.0
Cd156 Cd 0.90771 0.82611 0.37924 0.0
O157 O 0.91133 0.83696 0.40799 0.0
O158 O 0.88771 0.90813 0.36699 0.0
O159 O 0.91841 0.88137 0.36169 0.0
C160 C 0.91017 0.904 0.36099 0.0
C161 C 0.93587 0.81014 0.35678 0.0
C162 C 0.89978 0.85572 0.41502 0.0
C163 C 0.85612 0.82842 0.3623 0.0
O164 O 0.87274 0.81576 0.37087 0.0
O165 O 0.85821 0.85203 0.36074 0.0
O166 O 0.92851 0.79668 0.37108 0.0
O167 O 0.93 0.83353 0.35689 0.0
O168 O 0.62828 0.60888 0.63056 0.0
Cd169 Cd 0.62767 0.60932 0.66008 0.0
Cd170 Cd 0.67165 0.58597 0.65444 0.0
O171 O 0.65865 0.58151 0.6262 0.0
O172 O 0.59174 0.60797 0.66859 0.0
O173 O 0.61858 0.57698 0.67237 0.0
C174 C 0.59604 0.58525 0.67389 0.0
C175 C 0.68842 0.5583 0.67706 0.0
C176 C 0.64123 0.59525 0.6194 0.0
C177 C 0.67266 0.63804 0.67044 0.0
O178 O 0.68382 0.621 0.66115 0.0
O179 O 0.64927 0.63651 0.67362 0.0
O180 O 0.70107 0.56466 0.66205 0.0
O181 O 0.66527 0.56496 0.67778 0.0
O182 O 0.87651 0.62365 0.13162 0.0
Cd183 Cd 0.87788 0.62416 0.1613 0.0
Cd184 Cd 0.89495 0.66863 0.15343 0.0
O185 O 0.90333 0.65412 0.12637 0.0
O186 O 0.87959 0.58846 0.17002 0.0
O187 O 0.91093 0.61511 0.17287 0.0
C188 C 0.90254 0.59266 0.17479 0.0
C189 C 0.91956 0.68711 0.17739 0.0
C190 C 0.88997 0.63616 0.12004 0.0
C191 C 0.84375 0.66543 0.16883 0.0
O192 O 0.85793 0.67673 0.15713 0.0
O193 O 0.85009 0.64427 0.17557 0.0
O194 O 0.91382 0.69928 0.16199 0.0
O195 O 0.91346 0.66381 0.17817 0.0
O196 O 0.86478 0.88893 0.62643 0.0
Cd197 Cd 0.8656 0.88616 0.65593 0.0
Cd198 Cd 0.81874 0.90583 0.65113 0.0
O199 O 0.83006 0.91085 0.62261 0.0
O200 O 0.90178 0.88729 0.66389 0.0
O201 O 0.87464 0.91734 0.67001 0.0
C202 C 0.89732 0.90928 0.67069 0.0
C203 C 0.80402 0.93336 0.67456 0.0
C204 C 0.8495 0.90044 0.6156 0.0
C205 C 0.82249 0.8538 0.66681 0.0
O206 O 0.80921 0.87026 0.65859 0.0
O207 O 0.84599 0.85686 0.66867 0.0
O208 O 0.78984 0.92676 0.66042 0.0
O209 O 0.82721 0.92684 0.67391 0.0
O210 O 0.61817 0.87626 0.13009 0.0
Cd211 Cd 0.61702 0.87651 0.15984 0.0
Cd212 Cd 0.60311 0.83088 0.15259 0.0
O213 O 0.594 0.84353 0.12524 0.0
O214 O 0.6145 0.91246 0.16773 0.0
O215 O 0.58391 0.88516 0.17152 0.0
C216 C 0.59178 0.90787 0.17285 0.0
C217 C 0.57994 0.81241 0.17718 0.0
C218 C 0.60586 0.86234 0.11867 0.0
C219 C 0.65341 0.83735 0.16837 0.0
O220 O 0.64042 0.825 0.15649 0.0
O221 O 0.6456 0.85822 0.17468 0.0
O222 O 0.58626 0.79973 0.16216 0.0
O223 O 0.58441 0.83611 0.17713 0.0
H224 H 0.36612 0.10837 0.93564 0.0
H225 H 0.36068 0.10148 0.96979 0.0
H226 H 0.41936 0.15426 0.98193 0.0
H227 H 0.42496 0.16157 0.94733 0.0
H228 H 0.42146 0.10919 1.00455 0.0
H229 H 0.36245 0.17298 0.98807 0.0
H230 H 0.32865 0.19221 0.96914 0.0
H231 H 0.27985 0.13135 0.98333 0.0
H232 H 0.31351 0.11154 1.00211 0.0
H233 H 0.39301 0.12564 0.10283 0.0
H234 H 0.40158 0.13058 0.06884 0.0
H235 H 0.33692 0.08597 0.05515 0.0
H236 H 0.32787 0.0812 0.0895 0.0
H237 H 0.3385 0.12705 0.03318 0.0
H238 H 0.39664 0.06309 0.04967 0.0
H239 H 0.43013 0.043 0.06841 0.0
H240 H 0.48025 0.10271 0.05409 0.0
H241 H 0.44693 0.12339 0.03549 0.0
C242 C 0.37807 0.11855 0.94544 0.0
C243 C 0.39597 0.13568 0.93859 0.0
C244 C 0.37483 0.11457 0.96506 0.0
C245 C 0.3894 0.12751 0.97848 0.0
C246 C 0.40784 0.1441 0.97182 0.0
C247 C 0.41099 0.1483 0.95205 0.0
C248 C 0.38467 0.12388 0.99937 0.0
C249 C 0.40348 0.11348 1.01091 0.0
C250 C 0.36093 0.12873 1.00756 0.0
C251 C 0.34059 0.14065 0.99635 0.0
C252 C 0.34458 0.16358 0.98702 0.0
C253 C 0.32544 0.17461 0.97634 0.0
C254 C 0.30214 0.16298 0.97499 0.0
C255 C 0.29792 0.14032 0.98437 0.0
C256 C 0.31702 0.1292 0.99505 0.0
C257 C 0.3806 0.11666 0.09268 0.0
C258 C 0.35969 0.10296 0.09902 0.0
C259 C 0.38566 0.11944 0.07315 0.0
C260 C 0.37011 0.10845 0.05932 0.0
C261 C 0.34927 0.09459 0.06553 0.0
C262 C 0.34417 0.09176 0.08518 0.0
C263 C 0.37528 0.1123 0.03846 0.0
C264 C 0.35652 0.12275 0.0269 0.0
C265 C 0.39904 0.10737 0.03026 0.0
C266 C 0.4192 0.09491 0.04132 0.0
C267 C 0.41474 0.07205 0.05063 0.0
C268 C 0.4337 0.06054 0.06121 0.0
C269 C 0.45728 0.0716 0.06247 0.0
C270 C 0.46197 0.09418 0.05312 0.0
C271 C 0.44305 0.10579 0.04254 0.0
H272 H 0.47194 0.06263 0.07064 0.0
H273 H 0.28733 0.17155 0.96672 0.0
H274 H 0.39626 0.36402 0.43466 0.0
H275 H 0.40391 0.35826 0.46878 0.0
H276 H 0.33867 0.40219 0.48195 0.0
H277 H 0.33077 0.40814 0.44755 0.0
H278 H 0.37933 0.41402 0.50519 0.0
H279 H 0.33606 0.33974 0.48521 0.0
H280 H 0.3288 0.30262 0.46505 0.0
H281 H 0.40047 0.27331 0.48116 0.0
H282 H 0.40832 0.31044 0.50121 0.0
H283 H 0.364 0.38081 0.60186 0.0
H284 H 0.35945 0.38756 0.56766 0.0
H285 H 0.41994 0.33633 0.55672 0.0
H286 H 0.42421 0.32882 0.59134 0.0
H287 H 0.38344 0.32831 0.53198 0.0
H288 H 0.42694 0.40125 0.55243 0.0
H289 H 0.43532 0.43833 0.57237 0.0
H290 H 0.36529 0.47037 0.55511 0.0
H291 H 0.35632 0.43331 0.53527 0.0
C292 C 0.38349 0.37261 0.44472 0.0
C293 C 0.36277 0.3865 0.43823 0.0
C294 C 0.38789 0.36917 0.46431 0.0
C295 C 0.37171 0.37948 0.478 0.0
C296 C 0.35138 0.39396 0.47167 0.0
C297 C 0.34686 0.39732 0.45198 0.0
C298 C 0.37603 0.37486 0.49886 0.0
C299 C 0.37989 0.3953 0.5111 0.0
C300 C 0.37762 0.3504 0.50652 0.0
C301 C 0.37288 0.32799 0.49456 0.0
C302 C 0.35036 0.32547 0.48433 0.0
C303 C 0.34612 0.30441 0.47295 0.0
C304 C 0.36419 0.28565 0.47179 0.0
C305 C 0.38651 0.28788 0.48205 0.0
C306 C 0.39085 0.30891 0.49344 0.0
C307 C 0.37654 0.37099 0.59229 0.0
C308 C 0.39464 0.35434 0.59951 0.0
C309 C 0.37395 0.37502 0.57261 0.0
C310 C 0.38964 0.36289 0.55947 0.0
C311 C 0.40766 0.34606 0.56653 0.0
C312 C 0.41015 0.34183 0.58635 0.0
C313 C 0.38662 0.3675 0.53843 0.0
C314 C 0.383 0.34706 0.52612 0.0
C315 C 0.38546 0.39198 0.53066 0.0
C316 C 0.39087 0.41439 0.54248 0.0
C317 C 0.41324 0.41612 0.55299 0.0
C318 C 0.41811 0.43715 0.56426 0.0
C319 C 0.40083 0.45667 0.56504 0.0
C320 C 0.37866 0.45522 0.5545 0.0
C321 C 0.37368 0.43422 0.54322 0.0
H322 H 0.40463 0.47293 0.57377 0.0
H323 H 0.36088 0.26936 0.46296 0.0
H324 H 0.12124 0.39091 0.9387 0.0
H325 H 0.12649 0.39771 0.97291 0.0
H326 H 0.0772 0.33602 0.98482 0.0
H327 H 0.07176 0.32893 0.95021 0.0
H328 H 0.06862 0.37751 1.00865 0.0
H329 H 0.13847 0.32763 0.98894 0.0
H330 H 0.17481 0.31664 0.96895 0.0
H331 H 0.21107 0.38502 0.98502 0.0
H332 H 0.17477 0.3966 1.0049 0.0
H333 H 0.10162 0.36105 0.10579 0.0
H334 H 0.09381 0.35636 0.07169 0.0
H335 H 0.14934 0.41246 0.05947 0.0
H336 H 0.15778 0.41691 0.09394 0.0
H337 H 0.15441 0.37424 0.03558 0.0
H338 H 0.08535 0.4242 0.05565 0.0
H339 H 0.04898 0.43596 0.07536 0.0
H340 H 0.01113 0.3688 0.05844 0.0
H341 H 0.04744 0.35642 0.03888 0.0
C342 C 0.11132 0.37876 0.94848 0.0
C343 C 0.09616 0.3592 0.94156 0.0
C344 C 0.11446 0.38268 0.96813 0.0
C345 C 0.10258 0.36718 0.98151 0.0
C346 C 0.08667 0.34817 0.97477 0.0
C347 C 0.08357 0.34413 0.95497 0.0
C348 C 0.10738 0.3707 1.00243 0.0
C349 C 0.08732 0.37642 1.01461 0.0
C350 C 0.13188 0.37006 1.01015 0.0
C351 C 0.15379 0.36309 0.99827 0.0
C352 C 0.15411 0.34042 0.98809 0.0
C353 C 0.17471 0.33407 0.9768 0.0
C354 C 0.19521 0.35015 0.97567 0.0
C355 C 0.19517 0.3726 0.98588 0.0
C356 C 0.17459 0.37906 0.99718 0.0
C357 C 0.11218 0.37258 0.09596 0.0
C358 C 0.13032 0.38949 0.10276 0.0
C359 C 0.10754 0.36993 0.07635 0.0
C360 C 0.12063 0.38431 0.06288 0.0
C361 C 0.13886 0.40119 0.06954 0.0
C362 C 0.14363 0.4038 0.08927 0.0
C363 C 0.11564 0.38107 0.04192 0.0
C364 C 0.13568 0.37539 0.02969 0.0
C365 C 0.09112 0.38188 0.03415 0.0
C366 C 0.06923 0.38928 0.04591 0.0
C367 C 0.06936 0.41184 0.05625 0.0
C368 C 0.04874 0.41863 0.06738 0.0
C369 C 0.02778 0.40312 0.06817 0.0
C370 C 0.02739 0.38079 0.05783 0.0
C371 C 0.04798 0.37388 0.0467 0.0
H372 H 0.0118 0.40845 0.07673 0.0
H373 H 0.21115 0.3452 0.96692 0.0
H374 H 0.11895 0.10484 0.60274 0.0
H375 H 0.12441 0.09778 0.56857 0.0
H376 H 0.07998 0.16292 0.55619 0.0
H377 H 0.07421 0.17017 0.59072 0.0
H378 H 0.06896 0.12338 0.53193 0.0
H379 H 0.14269 0.16611 0.55328 0.0
H380 H 0.17938 0.17331 0.57395 0.0
H381 H 0.20942 0.10205 0.55772 0.0
H382 H 0.17272 0.09427 0.53716 0.0
H383 H 0.10642 0.13784 0.43535 0.0
H384 H 0.09761 0.14272 0.46931 0.0
H385 H 0.1476 0.08189 0.48231 0.0
H386 H 0.1571 0.07725 0.44806 0.0
H387 H 0.15537 0.11899 0.50642 0.0
H388 H 0.08228 0.07601 0.48491 0.0
H389 H 0.04554 0.06816 0.46443 0.0
H390 H 0.01418 0.13869 0.48104 0.0
H391 H 0.05091 0.14713 0.50142 0.0
C392 C 0.11016 0.11771 0.59285 0.0
C393 C 0.09626 0.13825 0.59961 0.0
C394 C 0.11342 0.11364 0.57322 0.0
C395 C 0.103 0.13003 0.55974 0.0
C396 C 0.08832 0.15007 0.56632 0.0
C397 C 0.08505 0.15421 0.58607 0.0
C398 C 0.10801 0.12633 0.53886 0.0
C399 C 0.08783 0.12278 0.5263 0.0
C400 C 0.13267 0.12482 0.53154 0.0
C401 C 0.15483 0.12952 0.54381 0.0
C402 C 0.15702 0.15189 0.55423 0.0
C403 C 0.17784 0.15609 0.56591 0.0
C404 C 0.19669 0.13812 0.56718 0.0
C405 C 0.19479 0.11594 0.55674 0.0
C406 C 0.174 0.11164 0.54505 0.0
C407 C 0.11549 0.1253 0.44534 0.0
C408 C 0.13246 0.10705 0.43884 0.0
C409 C 0.11028 0.12806 0.46485 0.0
C410 C 0.12158 0.11245 0.4785 0.0
C411 C 0.13852 0.09414 0.47211 0.0
C412 C 0.14388 0.09143 0.45249 0.0
C413 C 0.11631 0.11595 0.49939 0.0
C414 C 0.13647 0.11951 0.512 0.0
C415 C 0.09162 0.11736 0.50675 0.0
C416 C 0.06946 0.1123 0.49456 0.0
C417 C 0.06764 0.08993 0.48408 0.0
C418 C 0.0468 0.08536 0.47251 0.0
C419 C 0.02757 0.10294 0.4714 0.0
C420 C 0.02911 0.1251 0.4819 0.0
C421 C 0.04992 0.12978 0.49348 0.0
H422 H 0.01145 0.09936 0.46243 0.0
H423 H 0.21279 0.14141 0.57623 0.0
H424 H 0.6275 0.90228 0.10089 0.0
H425 H 0.63307 0.90938 0.06671 0.0
H426 H 0.593 0.84142 0.05431 0.0
H427 H 0.58767 0.83389 0.08877 0.0
H428 H 0.6345 0.84399 0.03324 0.0
H429 H 0.56681 0.89943 0.04625 0.0
H430 H 0.54409 0.93296 0.06304 0.0
H431 H 0.6016 0.98528 0.04798 0.0
H432 H 0.62486 0.95196 0.03132 0.0
H433 H 0.6158 0.86487 0.93443 0.0
H434 H 0.60915 0.86054 0.96874 0.0
H435 H 0.65831 0.92279 0.9793 0.0
H436 H 0.66533 0.92725 0.94459 0.0
H437 H 0.61282 0.92378 1.00116 0.0
H438 H 0.68002 0.86732 0.98762 0.0
H439 H 0.70121 0.83347 0.97005 0.0
H440 H 0.6427 0.78256 0.98562 0.0
H441 H 0.62093 0.81622 1.00306 0.0
C442 C 0.61962 0.88887 0.09096 0.0
C443 C 0.60707 0.86748 0.09769 0.0
C444 C 0.62276 0.89306 0.07133 0.0
C445 C 0.61329 0.87609 0.05781 0.0
C446 C 0.60048 0.85483 0.06443 0.0
C447 C 0.59731 0.85061 0.08415 0.0
C448 C 0.61763 0.88019 0.03688 0.0
C449 C 0.62939 0.86131 0.02621 0.0
C450 C 0.61162 0.90304 0.02768 0.0
C451 C 0.5977 0.92313 0.0377 0.0
C452 C 0.57472 0.91804 0.04666 0.0
C453 C 0.56173 0.93701 0.05612 0.0
C454 C 0.57143 0.96122 0.05662 0.0
C455 C 0.59412 0.96651 0.04761 0.0
C456 C 0.60721 0.94759 0.03814 0.0
C457 C 0.62523 0.87779 0.94394 0.0
C458 C 0.64119 0.89643 0.93664 0.0
C459 C 0.62142 0.87519 0.96363 0.0
C460 C 0.63337 0.89117 0.97664 0.0
C461 C 0.64893 0.91019 0.96951 0.0
C462 C 0.65298 0.91268 0.94968 0.0
C463 C 0.6296 0.88758 0.99763 0.0
C464 C 0.61795 0.90652 1.00827 0.0
C465 C 0.63555 0.86474 1.00679 0.0
C466 C 0.64873 0.84437 0.9965 0.0
C467 C 0.67156 0.84896 0.98717 0.0
C468 C 0.6837 0.82979 0.97726 0.0
C469 C 0.67327 0.80589 0.97667 0.0
C470 C 0.65073 0.80109 0.98607 0.0
C471 C 0.6385 0.8202 0.99599 0.0
H472 H 0.68268 0.79109 0.96897 0.0
H473 H 0.56133 0.97589 0.06396 0.0
H474 H 0.66914 0.5762 0.58941 0.0
H475 H 0.66226 0.58282 0.55498 0.0
H476 H 0.59583 0.62534 0.5675 0.0
H477 H 0.60226 0.61851 0.60161 0.0
H478 H 0.58746 0.59687 0.53744 0.0
H479 H 0.65186 0.65386 0.55671 0.0
H480 H 0.69216 0.66622 0.57101 0.0
H481 H 0.73122 0.62108 0.52994 0.0
H482 H 0.69111 0.60816 0.51556 0.0
H483 H 0.57675 0.66156 0.44719 0.0
H484 H 0.58174 0.65213 0.48148 0.0
H485 H 0.64468 0.60485 0.46854 0.0
H486 H 0.63986 0.61397 0.43458 0.0
H487 H 0.65469 0.63568 0.49868 0.0
H488 H 0.58924 0.57941 0.47927 0.0
H489 H 0.54852 0.56811 0.46517 0.0
H490 H 0.51094 0.61369 0.50678 0.0
H491 H 0.5515 0.62554 0.52096 0.0
C492 C 0.65292 0.58669 0.58481 0.0
C493 C 0.63638 0.59691 0.59837 0.0
C494 C 0.64908 0.59063 0.5651 0.0
C495 C 0.62868 0.60493 0.55856 0.0
C496 C 0.61172 0.61431 0.57208 0.0
C497 C 0.61553 0.61042 0.59167 0.0
C498 C 0.62521 0.61085 0.53778 0.0
C499 C 0.60211 0.60559 0.52905 0.0
C500 C 0.64432 0.62201 0.52664 0.0
C501 C 0.66847 0.62982 0.5352 0.0
C502 C 0.66904 0.64642 0.55082 0.0
C503 C 0.69184 0.65354 0.55893 0.0
C504 C 0.71423 0.64438 0.55142 0.0
C505 C 0.71386 0.62812 0.53576 0.0
C506 C 0.6911 0.6209 0.52762 0.0
C507 C 0.5916 0.64912 0.45166 0.0
C508 C 0.60781 0.6385 0.43803 0.0
C509 C 0.59441 0.64369 0.47127 0.0
C510 C 0.61358 0.62768 0.47763 0.0
C511 C 0.62981 0.61727 0.46405 0.0
C512 C 0.6269 0.62247 0.44455 0.0
C513 C 0.61698 0.62166 0.49837 0.0
C514 C 0.64006 0.62694 0.50709 0.0
C515 C 0.5978 0.6107 0.50953 0.0
C516 C 0.57341 0.60358 0.50104 0.0
C517 C 0.5723 0.5872 0.48531 0.0
C518 C 0.54925 0.58066 0.47732 0.0
C519 C 0.52716 0.59024 0.48504 0.0
C520 C 0.52807 0.60632 0.50079 0.0
C521 C 0.55108 0.61295 0.50882 0.0
H522 H 0.50933 0.58515 0.47884 0.0
H523 H 0.73187 0.64992 0.55772 0.0
H524 H 0.88922 0.62116 0.93531 0.0
H525 H 0.89644 0.6258 0.96951 0.0
H526 H 0.83407 0.57724 0.98132 0.0
H527 H 0.82634 0.5728 0.94676 0.0
H528 H 0.83258 0.61749 1.00398 0.0
H529 H 0.89521 0.55774 0.98776 0.0
H530 H 0.93053 0.54013 0.96956 0.0
H531 H 0.9762 0.60273 0.9854 0.0
H532 H 0.94104 0.6209 1.00349 0.0
H533 H 0.8596 0.6022 0.10247 0.0
H534 H 0.85457 0.59416 0.06834 0.0
H535 H 0.91136 0.64873 0.05563 0.0
H536 H 0.91652 0.65711 0.09007 0.0
H537 H 0.91584 0.60455 0.03372 0.0
H538 H 0.85252 0.66442 0.04946 0.0
H539 H 0.81712 0.68148 0.06787 0.0
H540 H 0.77265 0.61761 0.05304 0.0
H541 H 0.80793 0.59997 0.03476 0.0
C542 C 0.87704 0.61125 0.94509 0.0
C543 C 0.85716 0.59653 0.93815 0.0
C544 C 0.88133 0.61385 0.96475 0.0
C545 C 0.86604 0.60165 0.97812 0.0
C546 C 0.84621 0.5868 0.97131 0.0
C547 C 0.84187 0.58418 0.95153 0.0
C548 C 0.87037 0.60526 0.99912 0.0
C549 C 0.85069 0.61422 1.01051 0.0
C550 C 0.89418 0.60168 1.00767 0.0
C551 C 0.9154 0.59079 0.99684 0.0
C552 C 0.91272 0.56785 0.98724 0.0
C553 C 0.93273 0.55775 0.97696 0.0
C554 C 0.95558 0.57033 0.97628 0.0
C555 C 0.95848 0.59302 0.98592 0.0
C556 C 0.93853 0.60321 0.99621 0.0
C557 C 0.8712 0.61249 0.09251 0.0
C558 C 0.88845 0.63043 0.09913 0.0
C559 C 0.8682 0.60789 0.07293 0.0
C560 C 0.88235 0.62102 0.05936 0.0
C561 C 0.90016 0.63841 0.06584 0.0
C562 C 0.90307 0.64321 0.08553 0.0
C563 C 0.87807 0.61676 0.03847 0.0
C564 C 0.89774 0.60772 0.02714 0.0
C565 C 0.85425 0.62016 0.02997 0.0
C566 C 0.83296 0.63075 0.0409 0.0
C567 C 0.83527 0.6539 0.05026 0.0
C568 C 0.81521 0.6637 0.06064 0.0
C569 C 0.79267 0.65061 0.06166 0.0
C570 C 0.79013 0.62771 0.05226 0.0
C571 C 0.81015 0.61781 0.04187 0.0
H572 H 0.77716 0.65823 0.06971 0.0
H573 H 0.97104 0.56248 0.96832 0.0
H574 H 0.89577 0.82088 0.44367 0.0
H575 H 0.88655 0.82872 0.47759 0.0
H576 H 0.89262 0.90804 0.46768 0.0
H577 H 0.90016 0.90022 0.43371 0.0
H578 H 0.90625 0.84663 0.50689 0.0
H579 H 0.85589 0.94198 0.49563 0.0
H580 H 0.83048 0.9631 0.47097 0.0
H581 H 0.80854 0.89208 0.44791 0.0
H582 H 0.83354 0.87053 0.47257 0.0
H583 H 0.89447 0.90071 0.59754 0.0
H584 H 0.90295 0.89426 0.56354 0.0
H585 H 0.82373 0.89051 0.55227 0.0
H586 H 0.81522 0.89844 0.5863 0.0
H587 H 0.84341 0.91114 0.52362 0.0
H588 H 0.86316 0.83648 0.5567 0.0
H589 H 0.88269 0.80972 0.58125 0.0
H590 H 0.9555 0.82952 0.56039 0.0
H591 H 0.9364 0.85668 0.53587 0.0
C592 C 0.89539 0.83995 0.44883 0.0
C593 C 0.89852 0.85994 0.43602 0.0
C594 C 0.89004 0.84447 0.46824 0.0
C595 C 0.88812 0.86906 0.47529 0.0
C596 C 0.89299 0.88892 0.46264 0.0
C597 C 0.89762 0.88444 0.44321 0.0
C598 C 0.88068 0.87402 0.49566 0.0
C599 C 0.8925 0.86075 0.51048 0.0
C600 C 0.86211 0.89186 0.50059 0.0
C601 C 0.84679 0.90467 0.48584 0.0
C602 C 0.84555 0.93088 0.48534 0.0
C603 C 0.83124 0.94292 0.47136 0.0
C604 C 0.81797 0.92894 0.45785 0.0
C605 C 0.8189 0.90288 0.45834 0.0
C606 C 0.83316 0.89075 0.47231 0.0
C607 C 0.87884 0.8989 0.58776 0.0
C608 C 0.85417 0.9 0.59462 0.0
C609 C 0.88371 0.89493 0.5683 0.0
C610 C 0.86405 0.89104 0.55525 0.0
C611 C 0.83932 0.89325 0.56196 0.0
C612 C 0.83442 0.89785 0.58143 0.0
C613 C 0.86942 0.88416 0.53483 0.0
C614 C 0.85716 0.89703 0.52001 0.0
C615 C 0.88675 0.86515 0.52988 0.0
C616 C 0.89835 0.84879 0.54456 0.0
C617 C 0.88334 0.83525 0.55743 0.0
C618 C 0.89433 0.82 0.57133 0.0
C619 C 0.92032 0.81797 0.5724 0.0
C620 C 0.93537 0.83114 0.55955 0.0
C621 C 0.92447 0.84645 0.54564 0.0
H622 H 0.9288 0.80615 0.58318 0.0
H623 H 0.80692 0.9383 0.44702 0.0
H624 H 0.2125 0.35386 0.19109 0.0
H625 H 0.24028 0.31946 0.19947 0.0
H626 H 0.18074 0.26694 0.18883 0.0
H627 H 0.15242 0.30168 0.18101 0.0
H628 H 0.2131 0.25121 0.21823 0.0
H629 H 0.21902 0.28198 0.15313 0.0
H630 H 0.22447 0.31463 0.12857 0.0
H631 H 0.29683 0.33231 0.15148 0.0
H632 H 0.29163 0.29998 0.17636 0.0
H633 H 0.27244 0.14772 0.17616 0.0
H634 H 0.24827 0.18368 0.18657 0.0
H635 H 0.3163 0.22526 0.19556 0.0
H636 H 0.34089 0.18892 0.18513 0.0
H637 H 0.2834 0.24888 0.17189 0.0
H638 H 0.28035 0.21209 0.23342 0.0
H639 H 0.27474 0.17896 0.25755 0.0
H640 H 0.19773 0.17136 0.24134 0.0
H641 H 0.20292 0.20421 0.21691 0.0
C642 C 0.20516 0.335 0.19096 0.0
C643 C 0.18049 0.33029 0.18509 0.0
C644 C 0.22103 0.31539 0.19579 0.0
C645 C 0.21274 0.29064 0.19434 0.0
C646 C 0.18751 0.28594 0.18997 0.0
C647 C 0.17139 0.30572 0.18546 0.0
C648 C 0.23116 0.26997 0.19475 0.0
C649 C 0.22841 0.25054 0.20807 0.0
C650 C 0.25154 0.26954 0.18181 0.0
C651 C 0.25482 0.28876 0.16672 0.0
C652 C 0.23602 0.29294 0.153 0.0
C653 C 0.23907 0.31138 0.13902 0.0
C654 C 0.26096 0.32558 0.1385 0.0
C655 C 0.27987 0.32132 0.15193 0.0
C656 C 0.27689 0.30294 0.16596 0.0
C657 C 0.28235 0.1644 0.18057 0.0
C658 C 0.30857 0.16565 0.17958 0.0
C659 C 0.26848 0.18485 0.18675 0.0
C660 C 0.28047 0.20707 0.19201 0.0
C661 C 0.30672 0.20818 0.19169 0.0
C662 C 0.32072 0.18748 0.18571 0.0
C663 C 0.26528 0.2298 0.19521 0.0
C664 C 0.26848 0.24967 0.1824 0.0
C665 C 0.24535 0.23045 0.20856 0.0
C666 C 0.24208 0.21057 0.22321 0.0
C667 C 0.26226 0.20323 0.23487 0.0
C668 C 0.25915 0.18452 0.24864 0.0
C669 C 0.23591 0.17303 0.25096 0.0
C670 C 0.21573 0.18027 0.23953 0.0
C671 C 0.21873 0.19898 0.22574 0.0
H672 H 0.23355 0.15856 0.26163 0.0
H673 H 0.26328 0.33985 0.12767 0.0
H674 H 0.35517 0.27284 0.68531 0.0
H675 H 0.31932 0.24673 0.69321 0.0
H676 H 0.27021 0.30982 0.68552 0.0
H677 H 0.30641 0.33644 0.67831 0.0
H678 H 0.25324 0.27867 0.71384 0.0
H679 H 0.28178 0.27025 0.64846 0.0
H680 H 0.31317 0.26241 0.6233 0.0
H681 H 0.32641 0.1891 0.64602 0.0
H682 H 0.29531 0.19665 0.67148 0.0
H683 H 0.14361 0.22294 0.67706 0.0
H684 H 0.18122 0.24614 0.68522 0.0
H685 H 0.22164 0.17702 0.69212 0.0
H686 H 0.1838 0.15349 0.68374 0.0
H687 H 0.24494 0.20821 0.66808 0.0
H688 H 0.20963 0.21478 0.73018 0.0
H689 H 0.17696 0.22313 0.75416 0.0
H690 H 0.17507 0.3002 0.7374 0.0
H691 H 0.20727 0.29221 0.71291 0.0
C692 C 0.33677 0.28129 0.68565 0.0
C693 C 0.33347 0.30657 0.68089 0.0
C694 C 0.31631 0.26633 0.69017 0.0
C695 C 0.29204 0.27616 0.68947 0.0
C696 C 0.28879 0.30183 0.68604 0.0
C697 C 0.30943 0.317 0.68187 0.0
C698 C 0.27016 0.25915 0.69022 0.0
C699 C 0.25127 0.26335 0.70379 0.0
C700 C 0.26793 0.23877 0.67738 0.0
C701 C 0.28642 0.23411 0.66197 0.0
C702 C 0.2915 0.25252 0.64815 0.0
C703 C 0.30923 0.24812 0.63383 0.0
C704 C 0.32183 0.2253 0.63309 0.0
C705 C 0.31667 0.20679 0.64663 0.0
C706 C 0.29898 0.2111 0.661 0.0
C707 C 0.16042 0.21259 0.6805 0.0
C708 C 0.16085 0.18636 0.67948 0.0
C709 C 0.18187 0.22592 0.68538 0.0
C710 C 0.20424 0.21334 0.68939 0.0
C711 C 0.20452 0.18709 0.68913 0.0
C712 C 0.18293 0.17367 0.68436 0.0
C713 C 0.22774 0.22777 0.69159 0.0
C714 C 0.24698 0.22319 0.67843 0.0
C715 C 0.23007 0.24784 0.70472 0.0
C716 C 0.21081 0.25283 0.71957 0.0
C717 C 0.20214 0.23348 0.73148 0.0
C718 C 0.18372 0.23817 0.7452 0.0
C719 C 0.174 0.2622 0.74734 0.0
C720 C 0.18271 0.28162 0.73578 0.0
C721 C 0.20101 0.277 0.72194 0.0
H722 H 0.15955 0.26575 0.75783 0.0
H723 H 0.33555 0.22193 0.622 0.0
H724 H 0.33414 0.29921 0.38003 0.0
H725 H 0.3093 0.26348 0.36934 0.0
H726 H 0.28776 0.30402 0.31849 0.0
H727 H 0.31295 0.33985 0.3293 0.0
H728 H 0.24758 0.28712 0.3383 0.0
H729 H 0.32071 0.25097 0.31308 0.0
H730 H 0.3649 0.23812 0.31178 0.0
H731 H 0.35368 0.1896 0.35997 0.0
H732 H 0.30953 0.20241 0.36177 0.0
H733 H 0.16788 0.17649 0.33617 0.0
H734 H 0.19705 0.20857 0.32431 0.0
H735 H 0.24473 0.19574 0.3732 0.0
H736 H 0.2163 0.16408 0.38487 0.0
H737 H 0.27168 0.19781 0.34067 0.0
H738 H 0.20327 0.24528 0.37088 0.0
H739 H 0.15937 0.25906 0.37314 0.0
H740 H 0.16247 0.28638 0.31533 0.0
H741 H 0.20634 0.2725 0.3127 0.0
C742 C 0.32487 0.30004 0.36624 0.0
C743 C 0.32565 0.3219 0.35527 0.0
C744 C 0.31066 0.27969 0.36011 0.0
C745 C 0.2968 0.28099 0.34302 0.0
C746 C 0.29843 0.30256 0.33164 0.0
C747 C 0.31288 0.32287 0.33772 0.0
C748 C 0.27831 0.2611 0.33868 0.0
C749 C 0.25288 0.26757 0.33822 0.0
C750 C 0.28517 0.23561 0.33856 0.0
C751 C 0.31175 0.22772 0.33757 0.0
C752 C 0.32769 0.23767 0.32348 0.0
C753 C 0.35274 0.23038 0.32265 0.0
C754 C 0.3621 0.21306 0.33579 0.0
C755 C 0.3464 0.20299 0.34978 0.0
C756 C 0.32134 0.21022 0.35069 0.0
C757 C 0.1845 0.18073 0.3444 0.0
C758 C 0.18973 0.16775 0.36147 0.0
C759 C 0.20119 0.19893 0.33757 0.0
C760 C 0.22318 0.20442 0.34782 0.0
C761 C 0.22811 0.19161 0.3649 0.0
C762 C 0.21166 0.17357 0.37164 0.0
C763 C 0.24113 0.22393 0.34161 0.0
C764 C 0.26645 0.21736 0.34 0.0
C765 C 0.2342 0.2493 0.33989 0.0
C766 C 0.2079 0.25757 0.34151 0.0
C767 C 0.1945 0.25405 0.35862 0.0
C768 C 0.16966 0.26191 0.35997 0.0
C769 C 0.15811 0.27351 0.34436 0.0
C770 C 0.17141 0.27734 0.32739 0.0
C771 C 0.19626 0.26948 0.32596 0.0
H772 H 0.13888 0.27959 0.34544 0.0
H773 H 0.3815 0.20744 0.33512 0.0
H774 H 0.35568 0.21994 0.85516 0.0
H775 H 0.31986 0.24687 0.84897 0.0
H776 H 0.27024 0.18414 0.85636 0.0
H777 H 0.30637 0.15675 0.86204 0.0
H778 H 0.25285 0.21672 0.82892 0.0
H779 H 0.28302 0.22159 0.89381 0.0
H780 H 0.31484 0.22746 0.91899 0.0
H781 H 0.32904 0.30177 0.89865 0.0
H782 H 0.29751 0.29619 0.87317 0.0
H783 H 0.14562 0.27344 0.86799 0.0
H784 H 0.18306 0.24979 0.86032 0.0
H785 H 0.2237 0.31836 0.85145 0.0
H786 H 0.18591 0.34244 0.85922 0.0
H787 H 0.24728 0.28578 0.8762 0.0
H788 H 0.21102 0.28191 0.81401 0.0
H789 H 0.17687 0.27535 0.7909 0.0
H790 H 0.17212 0.19827 0.80737 0.0
H791 H 0.20588 0.20451 0.83096 0.0
C792 C 0.33716 0.21177 0.85514 0.0
C793 C 0.33372 0.18635 0.85939 0.0
C794 C 0.31672 0.22718 0.85159 0.0
C795 C 0.29237 0.21764 0.85267 0.0
C796 C 0.2889 0.19189 0.85557 0.0
C797 C 0.3095 0.17628 0.85883 0.0
C798 C 0.27076 0.23499 0.85274 0.0
C799 C 0.25151 0.23173 0.8393 0.0
C800 C 0.26929 0.2549 0.86607 0.0
C801 C 0.28811 0.25837 0.88147 0.0
C802 C 0.29306 0.23911 0.89463 0.0
C803 C 0.31102 0.2424 0.90896 0.0
C804 C 0.32401 0.26495 0.91038 0.0
C805 C 0.319 0.28429 0.89751 0.0
C806 C 0.30107 0.28109 0.88313 0.0
C807 C 0.16242 0.28359 0.86424 0.0
C808 C 0.16286 0.30986 0.86436 0.0
C809 C 0.18378 0.26999 0.85969 0.0
C810 C 0.20609 0.28229 0.85515 0.0
C811 C 0.20657 0.30853 0.85482 0.0
C812 C 0.18501 0.32225 0.85922 0.0
C813 C 0.22923 0.2675 0.85246 0.0
C814 C 0.24877 0.27111 0.86554 0.0
C815 C 0.23074 0.24781 0.83895 0.0
C816 C 0.21089 0.24375 0.82439 0.0
C817 C 0.20261 0.26359 0.8128 0.0
C818 C 0.1833 0.25992 0.79961 0.0
C819 C 0.17228 0.23641 0.79769 0.0
C820 C 0.18065 0.21648 0.80889 0.0
C821 C 0.19989 0.22008 0.82218 0.0
H822 H 0.15724 0.23363 0.78753 0.0
H823 H 0.33791 0.26746 0.92149 0.0
H824 H 0.65485 0.8096 0.85424 0.0
H825 H 0.67867 0.77152 0.84725 0.0
H826 H 0.7473 0.81368 0.84895 0.0
H827 H 0.72375 0.85162 0.85588 0.0
H828 H 0.74807 0.77577 0.82111 0.0
H829 H 0.72874 0.78683 0.88847 0.0
H830 H 0.70042 0.79334 0.9159 0.0
H831 H 0.66118 0.72584 0.90185 0.0
H832 H 0.6891 0.71912 0.87418 0.0
H833 H 0.83727 0.68484 0.85537 0.0
H834 H 0.81108 0.72119 0.84766 0.0
H835 H 0.74518 0.67501 0.85105 0.0
H836 H 0.77096 0.63906 0.85896 0.0
H837 H 0.74116 0.71407 0.87383 0.0
H838 H 0.76467 0.69954 0.80902 0.0
H839 H 0.79281 0.69315 0.78153 0.0
H840 H 0.82397 0.76622 0.78988 0.0
H841 H 0.79639 0.77287 0.81771 0.0
C842 C 0.67495 0.81081 0.85271 0.0
C843 C 0.68748 0.83345 0.85598 0.0
C844 C 0.68853 0.78908 0.84873 0.0
C845 C 0.71477 0.78977 0.84784 0.0
C846 C 0.7271 0.81272 0.84962 0.0
C847 C 0.7136 0.83434 0.85377 0.0
C848 C 0.72958 0.7664 0.84753 0.0
C849 C 0.74671 0.76224 0.83263 0.0
C850 C 0.7275 0.74869 0.86246 0.0
C851 C 0.71081 0.75263 0.87915 0.0
C852 C 0.71395 0.77349 0.89116 0.0
C853 C 0.698 0.7772 0.90675 0.0
C854 C 0.67897 0.76006 0.91058 0.0
C855 C 0.6759 0.73913 0.89885 0.0
C856 C 0.69179 0.73535 0.88321 0.0
C857 C 0.81724 0.68243 0.85412 0.0
C858 C 0.80613 0.65924 0.85813 0.0
C859 C 0.8023 0.70315 0.84965 0.0
C860 C 0.77613 0.70083 0.84889 0.0
C861 C 0.76528 0.67731 0.85173 0.0
C862 C 0.78007 0.65679 0.85632 0.0
C863 C 0.75976 0.72311 0.84732 0.0
C864 C 0.74241 0.72725 0.86206 0.0
C865 C 0.76173 0.74066 0.83222 0.0
C866 C 0.77863 0.73659 0.81563 0.0
C867 C 0.77773 0.71414 0.80517 0.0
C868 C 0.79355 0.71049 0.78948 0.0
C869 C 0.81021 0.72925 0.78399 0.0
C870 C 0.81108 0.75169 0.79417 0.0
C871 C 0.79536 0.75541 0.80992 0.0
H872 H 0.8224 0.72641 0.77181 0.0
H873 H 0.66664 0.76296 0.92267 0.0
H874 H 0.64949 0.72474 0.36018 0.0
H875 H 0.68564 0.74913 0.35048 0.0
H876 H 0.72758 0.68138 0.34142 0.0
H877 H 0.69098 0.65657 0.35104 0.0
H878 H 0.75019 0.71382 0.36644 0.0
H879 H 0.71897 0.71869 0.3028 0.0
H880 H 0.68794 0.72453 0.27711 0.0
H881 H 0.67404 0.79931 0.29654 0.0
H882 H 0.70533 0.79402 0.32224 0.0
H883 H 0.85694 0.78217 0.34709 0.0
H884 H 0.82136 0.75577 0.33912 0.0
H885 H 0.77113 0.81658 0.35167 0.0
H886 H 0.80708 0.84353 0.35935 0.0
H887 H 0.75456 0.7849 0.32091 0.0
H888 H 0.78396 0.77786 0.38622 0.0
H889 H 0.81602 0.77165 0.41117 0.0
H890 H 0.83264 0.69907 0.38836 0.0
H891 H 0.80092 0.70504 0.36308 0.0
C892 C 0.66628 0.71494 0.35586 0.0
C893 C 0.66756 0.68874 0.35665 0.0
C894 C 0.68685 0.72894 0.35008 0.0
C895 C 0.70926 0.71709 0.34511 0.0
C896 C 0.71036 0.69086 0.34509 0.0
C897 C 0.68951 0.67673 0.3506 0.0
C898 C 0.73213 0.73238 0.34282 0.0
C899 C 0.75144 0.72893 0.35613 0.0
C900 C 0.73338 0.75258 0.32978 0.0
C901 C 0.71437 0.7559 0.31451 0.0
C902 C 0.70922 0.73635 0.30165 0.0
C903 C 0.69168 0.73961 0.28702 0.0
C904 C 0.67892 0.76225 0.28523 0.0
C905 C 0.68391 0.78177 0.29796 0.0
C906 C 0.70167 0.77871 0.31248 0.0
C907 C 0.83834 0.79012 0.34779 0.0
C908 C 0.83467 0.81474 0.35416 0.0
C909 C 0.81805 0.77502 0.34317 0.0
C910 C 0.79364 0.78406 0.34519 0.0
C911 C 0.78989 0.80926 0.35009 0.0
C912 C 0.81036 0.8246 0.3545 0.0
C913 C 0.77242 0.76631 0.34459 0.0
C914 C 0.75344 0.76947 0.33093 0.0
C915 C 0.7714 0.74574 0.35732 0.0
C916 C 0.79027 0.74201 0.37265 0.0
C917 C 0.79458 0.76066 0.38645 0.0
C918 C 0.81267 0.75717 0.40066 0.0
C919 C 0.82641 0.73501 0.40132 0.0
C920 C 0.82202 0.71625 0.38781 0.0
C921 C 0.80398 0.71966 0.37354 0.0
H922 H 0.84041 0.73234 0.41233 0.0
H923 H 0.66519 0.76466 0.27399 0.0
H924 H 0.77383 0.84929 0.67688 0.0
H925 H 0.75106 0.81133 0.68472 0.0
H926 H 0.81929 0.76879 0.68063 0.0
H927 H 0.84243 0.8071 0.67275 0.0
H928 H 0.78194 0.75048 0.6579 0.0
H929 H 0.79067 0.77321 0.72344 0.0
H930 H 0.78951 0.80056 0.75184 0.0
H931 H 0.71052 0.81082 0.74449 0.0
H932 H 0.71123 0.78369 0.71592 0.0
H933 H 0.72227 0.63839 0.67773 0.0
H934 H 0.74893 0.67434 0.68374 0.0
H935 H 0.68434 0.72246 0.68393 0.0
H936 H 0.65718 0.68612 0.6781 0.0
H937 H 0.72216 0.7363 0.71118 0.0
H938 H 0.71463 0.71704 0.64395 0.0
H939 H 0.71569 0.68944 0.61566 0.0
H940 H 0.79306 0.67332 0.62631 0.0
H941 H 0.79235 0.70056 0.65484 0.0
C942 C 0.78413 0.83193 0.67792 0.0
C943 C 0.80989 0.8311 0.67399 0.0
C944 C 0.77109 0.81027 0.6826 0.0
C945 C 0.78348 0.78725 0.68337 0.0
C946 C 0.80942 0.78643 0.68019 0.0
C947 C 0.82261 0.80827 0.67572 0.0
C948 C 0.76865 0.76399 0.68513 0.0
C949 C 0.76932 0.7471 0.66979 0.0
C950 C 0.75158 0.76004 0.70033 0.0
C951 C 0.75105 0.77655 0.71742 0.0
C952 C 0.77309 0.78146 0.72777 0.0
C953 C 0.7725 0.79688 0.74393 0.0
C954 C 0.74997 0.80748 0.74994 0.0
C955 C 0.72797 0.80261 0.73981 0.0
C956 C 0.72844 0.78717 0.72366 0.0
C957 C 0.71361 0.65655 0.67931 0.0
C958 C 0.68766 0.65954 0.67709 0.0
C959 C 0.72891 0.67706 0.6828 0.0
C960 C 0.71866 0.70107 0.68391 0.0
C961 C 0.69258 0.70402 0.68305 0.0
C962 C 0.67711 0.68332 0.67968 0.0
C963 C 0.73552 0.72301 0.68394 0.0
C964 C 0.73507 0.73962 0.69948 0.0
C965 C 0.75283 0.72684 0.66889 0.0
C966 C 0.75336 0.71064 0.65164 0.0
C967 C 0.73182 0.70746 0.64034 0.0
C968 C 0.73236 0.6919 0.62425 0.0
C969 C 0.75441 0.67958 0.61922 0.0
C970 C 0.77598 0.68285 0.63024 0.0
C971 C 0.77552 0.69836 0.64636 0.0
H972 H 0.75479 0.66755 0.60676 0.0
H973 H 0.74956 0.81941 0.76245 0.0
H974 H 0.81133 0.68865 0.14548 0.0
H975 H 0.77897 0.71832 0.15467 0.0
H976 H 0.79221 0.70186 0.21432 0.0
H977 H 0.82457 0.67137 0.20504 0.0
H978 H 0.73882 0.7139 0.20284 0.0
H979 H 0.82186 0.74568 0.19945 0.0
H980 H 0.86359 0.75045 0.18496 0.0
H981 H 0.83094 0.78644 0.13604 0.0
H982 H 0.78896 0.78111 0.14991 0.0
H983 H 0.66969 0.82984 0.20514 0.0
H984 H 0.70459 0.80253 0.21486 0.0
H985 H 0.72424 0.79228 0.15539 0.0
H986 H 0.68952 0.81892 0.1458 0.0
H987 H 0.76565 0.79695 0.17887 0.0
H988 H 0.68504 0.75315 0.17688 0.0
H989 H 0.64194 0.74628 0.18823 0.0
H990 H 0.66916 0.73273 0.24514 0.0
H991 H 0.71248 0.74011 0.23423 0.0
C992 C 0.80678 0.69073 0.16053 0.0
C993 C 0.82046 0.67794 0.17458 0.0
C994 C 0.78831 0.70767 0.16577 0.0
C995 C 0.78356 0.71258 0.18517 0.0
C996 C 0.79566 0.69829 0.19928 0.0
C997 C 0.81406 0.68092 0.19398 0.0
C998 C 0.76877 0.73503 0.19013 0.0
C999 C 0.74491 0.73223 0.19816 0.0
C1000 C 0.77681 0.75891 0.18396 0.0
C1001 C 0.80218 0.76295 0.17578 0.0
C1002 C 0.82355 0.75448 0.18556 0.0
C1003 C 0.84726 0.75725 0.17744 0.0
C1004 C 0.84992 0.7688 0.15962 0.0
C1005 C 0.82886 0.77755 0.14987 0.0
C1006 C 0.80509 0.77464 0.15787 0.0
C1007 C 0.68206 0.82234 0.19429 0.0
C1008 C 0.67716 0.82644 0.17476 0.0
C1009 C 0.70179 0.80665 0.19981 0.0
C1010 C 0.71687 0.79528 0.18582 0.0
C1011 C 0.71291 0.80091 0.16642 0.0
C1012 C 0.6931 0.81613 0.16094 0.0
C1013 C 0.73528 0.7756 0.19062 0.0
C1014 C 0.75994 0.7789 0.18438 0.0
C1015 C 0.72788 0.75223 0.19826 0.0
C1016 C 0.70194 0.74754 0.20479 0.0
C1017 C 0.68182 0.74894 0.19186 0.0
C1018 C 0.65737 0.74496 0.19821 0.0
C1019 C 0.65283 0.73921 0.21743 0.0
C1020 C 0.67275 0.73734 0.2303 0.0
C1021 C 0.69724 0.74145 0.22404 0.0
H1022 H 0.63389 0.73611 0.22232 0.0
H1023 H 0.86829 0.77096 0.15336 0.0
H1024 H 0.23852 0.0679 0.35425 0.0
H1025 H 0.25896 0.06166 0.32324 0.0
H1026 H 0.18742 0.04772 0.29691 0.0
H1027 H 0.1668 0.05416 0.32784 0.0
H1028 H 0.22458 0.0169 0.28219 0.0
H1029 H 0.21024 0.10315 0.29326 0.0
H1030 H 0.21114 0.14331 0.31052 0.0
H1031 H 0.29133 0.14276 0.3095 0.0
H1032 H 0.29094 0.1023 0.29255 0.0
H1033 H 0.25914 0.05308 0.18545 0.0
H1034 H 0.23927 0.04713 0.21679 0.0
H1035 H 0.31033 0.05804 0.24465 0.0
H1036 H 0.33035 0.06367 0.21353 0.0
H1037 H 0.27252 0.08977 0.25828 0.0
H1038 H 0.2846 0.00206 0.24536 0.0
H1039 H 0.28061 0.96346 0.22634 0.0
H1040 H 0.20065 0.96925 0.22863 0.0
H1041 H 0.20417 0.0081 0.24745 0.0
C1042 C 0.22717 0.06285 0.34199 0.0
C1043 C 0.20099 0.06158 0.34355 0.0
C1044 C 0.23888 0.0595 0.32422 0.0
C1045 C 0.2247 0.05459 0.30767 0.0
C1046 C 0.19875 0.05157 0.30944 0.0
C1047 C 0.18699 0.05522 0.32716 0.0
C1048 C 0.23673 0.05436 0.2884 0.0
C1049 C 0.2349 0.0329 0.2769 0.0
C1050 C 0.25018 0.07526 0.28144 0.0
C1051 C 0.25056 0.09946 0.29187 0.0
C1052 C 0.22808 0.11141 0.29693 0.0
C1053 C 0.22849 0.13427 0.30661 0.0
C1054 C 0.25128 0.14553 0.31116 0.0
C1055 C 0.2737 0.13397 0.30601 0.0
C1056 C 0.27339 0.11106 0.29637 0.0
C1057 C 0.27068 0.05352 0.1982 0.0
C1058 C 0.29638 0.05888 0.1969 0.0
C1059 C 0.25926 0.0502 0.21614 0.0
C1060 C 0.27328 0.05231 0.23311 0.0
C1061 C 0.29911 0.05645 0.23178 0.0
C1062 C 0.31056 0.05949 0.21391 0.0
C1063 C 0.26088 0.0521 0.25224 0.0
C1064 C 0.26243 0.07367 0.26366 0.0
C1065 C 0.24679 0.0315 0.25892 0.0
C1066 C 0.24466 0.00813 0.24765 0.0
C1067 C 0.26617 0.99523 0.24166 0.0
C1068 C 0.26399 0.97328 0.23095 0.0
C1069 C 0.24039 0.96395 0.22624 0.0
C1070 C 0.21892 0.97652 0.23227 0.0
C1071 C 0.22099 -0.00151 0.24298 0.0
H1072 H 0.23874 0.94695 0.21795 0.0
H1073 H 0.25154 0.16325 0.31862 0.0
H1074 H 0.44631 0.2556 0.68396 0.0
H1075 H 0.45482 0.2348 0.71445 0.0
H1076 H 0.45623 0.3061 0.7431 0.0
H1077 H 0.44806 0.32709 0.71262 0.0
H1078 H 0.48972 0.27429 0.75939 0.0
H1079 H 0.40306 0.2729 0.74255 0.0
H1080 H 0.36665 0.26514 0.72173 0.0
H1081 H 0.38434 0.18698 0.72017 0.0
H1082 H 0.42102 0.19433 0.7409 0.0
H1083 H 0.44724 0.23507 0.85278 0.0
H1084 H 0.45567 0.25461 0.82173 0.0
H1085 H 0.45555 0.1822 0.79474 0.0
H1086 H 0.44711 0.16256 0.82565 0.0
H1087 H 0.42346 0.2139 0.77731 0.0
H1088 H 0.50907 0.21672 0.79788 0.0
H1089 H 0.54379 0.22677 0.81981 0.0
H1090 H 0.52608 0.30477 0.81578 0.0
H1091 H 0.49102 0.29516 0.79402 0.0
C1092 C 0.44913 0.26695 0.69662 0.0
C1093 C 0.44627 0.29304 0.6958 0.0
C1094 C 0.45382 0.25499 0.71412 0.0
C1095 C 0.45563 0.26882 0.7312 0.0
C1096 C 0.45479 0.29498 0.73017 0.0
C1097 C 0.45012 0.30697 0.71268 0.0
C1098 C 0.45596 0.25598 0.75021 0.0
C1099 C 0.47517 0.26119 0.76336 0.0
C1100 C 0.43704 0.23878 0.75545 0.0
C1101 C 0.41494 0.23421 0.74309 0.0
C1102 C 0.39928 0.25408 0.73765 0.0
C1103 C 0.37858 0.24976 0.72588 0.0
C1104 C 0.37324 0.2256 0.71954 0.0
C1105 C 0.38853 0.20569 0.72505 0.0
C1106 C 0.40926 0.20992 0.73683 0.0
C1107 C 0.44973 0.22322 0.84035 0.0
C1108 C 0.44641 0.19721 0.84177 0.0
C1109 C 0.45452 0.23445 0.82255 0.0
C1110 C 0.45616 0.21992 0.80581 0.0
C1111 C 0.45426 0.19385 0.8074 0.0
C1112 C 0.44957 0.18262 0.82516 0.0
C1113 C 0.45742 0.23189 0.78649 0.0
C1114 C 0.43827 0.2267 0.77329 0.0
C1115 C 0.47617 0.24936 0.78141 0.0
C1116 C 0.49727 0.25519 0.79445 0.0
C1117 C 0.51245 0.236 0.80179 0.0
C1118 C 0.53222 0.24162 0.81417 0.0
C1119 C 0.5371 0.26639 0.81922 0.0
C1120 C 0.52226 0.28559 0.81187 0.0
C1121 C 0.50246 0.28007 0.7995 0.0
H1122 H 0.55242 0.2707 0.8288 0.0
H1123 H 0.35722 0.22229 0.71042 0.0
H1124 H 0.16212 0.44356 0.2153 0.0
H1125 H 0.18411 0.44991 0.24561 0.0
H1126 H 0.25477 0.44387 0.21633 0.0
H1127 H 0.2329 0.43731 0.18597 0.0
H1128 H 0.25218 0.41187 0.24581 0.0
H1129 H 0.23554 0.49913 0.23709 0.0
H1130 H 0.20942 0.5362 0.23098 0.0
H1131 H 0.16612 0.52033 0.2813 0.0
H1132 H 0.19177 0.48296 0.28757 0.0
H1133 H 0.32931 0.43201 0.32559 0.0
H1134 H 0.30813 0.44117 0.29539 0.0
H1135 H 0.23696 0.4398 0.32421 0.0
H1136 H 0.25803 0.43038 0.3546 0.0
H1137 H 0.24017 0.47745 0.29519 0.0
H1138 H 0.2517 0.38949 0.30226 0.0
H1139 H 0.27484 0.35068 0.30886 0.0
H1140 H 0.32481 0.3665 0.26228 0.0
H1141 H 0.30191 0.40552 0.25544 0.0
C1142 C 0.18234 0.44431 0.21517 0.0
C1143 C 0.1957 0.43984 0.19813 0.0
C1144 C 0.19493 0.44795 0.23258 0.0
C1145 C 0.22117 0.44731 0.23335 0.0
C1146 C 0.23454 0.44437 0.21616 0.0
C1147 C 0.22197 0.4408 0.19875 0.0
C1148 C 0.23453 0.44706 0.25217 0.0
C1149 C 0.24993 0.42654 0.25639 0.0
C1150 C 0.23087 0.46561 0.26641 0.0
C1151 C 0.21546 0.48811 0.2627 0.0
C1152 C 0.22033 0.50343 0.24677 0.0
C1153 C 0.20563 0.52452 0.24329 0.0
C1154 C 0.18608 0.53058 0.25572 0.0
C1155 C 0.18125 0.5156 0.27168 0.0
C1156 C 0.19588 0.49448 0.27521 0.0
C1157 C 0.3092 0.4342 0.32567 0.0
C1158 C 0.2954 0.43031 0.34258 0.0
C1159 C 0.29709 0.43934 0.30832 0.0
C1160 C 0.27092 0.44088 0.30746 0.0
C1161 C 0.25716 0.43869 0.32452 0.0
C1162 C 0.26926 0.43331 0.34189 0.0
C1163 C 0.258 0.44251 0.28854 0.0
C1164 C 0.24261 0.46305 0.28442 0.0
C1165 C 0.26132 0.42385 0.27441 0.0
C1166 C 0.2753 0.40054 0.27849 0.0
C1167 C 0.26777 0.3848 0.29354 0.0
C1168 C 0.2808 0.36273 0.29729 0.0
C1169 C 0.30139 0.35617 0.28607 0.0
C1170 C 0.30889 0.37163 0.271 0.0
C1171 C 0.29586 0.3937 0.26714 0.0
H1172 H 0.31147 0.33908 0.28901 0.0
H1173 H 0.17472 0.54692 0.253 0.0
H1174 H 0.05009 0.23949 0.68481 0.0
H1175 H 0.04315 0.2599 0.7157 0.0
H1176 H 0.04009 0.18809 0.74346 0.0
H1177 H 0.0468 0.16749 0.71259 0.0
H1178 H 0.00759 0.22187 0.76028 0.0
H1179 H 0.09394 0.21793 0.74251 0.0
H1180 H 0.12897 0.22364 0.71997 0.0
H1181 H 0.11624 0.30276 0.7197 0.0
H1182 H 0.08082 0.29748 0.742 0.0
H1183 H 0.04984 0.25919 0.85409 0.0
H1184 H 0.04238 0.23962 0.82289 0.0
H1185 H 0.04746 0.31155 0.79548 0.0
H1186 H 0.05496 0.33122 0.82654 0.0
H1187 H 0.07773 0.27776 0.7783 0.0
H1188 H 0.99181 0.2805 0.79843 0.0
H1189 H 0.9564 0.27281 0.82023 0.0
H1190 H 0.96947 0.19385 0.81681 0.0
H1191 H 0.00518 0.20109 0.79518 0.0
C1192 C 0.04722 0.22796 0.69737 0.0
C1193 C 0.04924 0.20182 0.69619 0.0
C1194 C 0.04341 0.2397 0.71507 0.0
C1195 C 0.04161 0.22557 0.732 0.0
C1196 C 0.04154 0.19942 0.73064 0.0
C1197 C 0.04538 0.18765 0.71294 0.0
C1198 C 0.04241 0.23801 0.75113 0.0
C1199 C 0.02299 0.23394 0.7643 0.0
C1200 C 0.06249 0.25385 0.75639 0.0
C1201 C 0.08452 0.25727 0.74373 0.0
C1202 C 0.09853 0.23654 0.73757 0.0
C1203 C 0.1184 0.23968 0.7248 0.0
C1204 C 0.12462 0.26351 0.71824 0.0
C1205 C 0.11124 0.28429 0.72468 0.0
C1206 C 0.09128 0.28124 0.7374 0.0
C1207 C 0.04875 0.27095 0.8415 0.0
C1208 C 0.05299 0.29683 0.84291 0.0
C1209 C 0.04453 0.2597 0.82361 0.0
C1210 C 0.04441 0.27406 0.80674 0.0
C1211 C 0.04757 0.30002 0.80823 0.0
C1212 C 0.05168 0.31128 0.82608 0.0
C1213 C 0.04268 0.26196 0.78748 0.0
C1214 C 0.06215 0.2659 0.77429 0.0
C1215 C 0.02281 0.24576 0.78235 0.0
C1216 C 0.00132 0.24136 0.79533 0.0
C1217 C 0.98726 0.26151 0.80245 0.0
C1218 C 0.96711 0.25723 0.81475 0.0
C1219 C 0.96073 0.23286 0.81994 0.0
C1220 C 0.97445 0.21271 0.8128 0.0
C1221 C 0.99463 0.2169 0.8005 0.0
H1222 H 0.94513 0.22958 0.82947 0.0
H1223 H 0.13996 0.26589 0.7083 0.0
H1224 H 0.66755 0.94969 0.82417 0.0
H1225 H 0.6876 0.95725 0.79322 0.0
H1226 H 0.76002 0.95186 0.81998 0.0
H1227 H 0.74015 0.94414 0.85096 0.0
H1228 H 0.72116 0.98962 0.77663 0.0
H1229 H 0.79662 0.91422 0.79177 0.0
H1230 H 0.80198 0.87652 0.8117 0.0
H1231 H 0.72248 0.86586 0.81295 0.0
H1232 H 0.71669 0.90319 0.79276 0.0
H1233 H 0.82841 0.94345 0.70809 0.0
H1234 H 0.80975 0.95182 0.73936 0.0
H1235 H 0.7367 0.95476 0.71341 0.0
H1236 H 0.75523 0.9462 0.68199 0.0
H1237 H 0.77613 0.91981 0.75648 0.0
H1238 H 0.69933 0.9931 0.74224 0.0
H1239 H 0.69152 0.02928 0.72121 0.0
H1240 H 0.77048 0.04194 0.71631 0.0
H1241 H 0.77875 0.00607 0.73751 0.0
C1242 C 0.68774 0.95078 0.8236 0.0
C1243 C 0.70223 0.94606 0.84006 0.0
C1244 C 0.69918 0.95511 0.80585 0.0
C1245 C 0.72532 0.95462 0.80417 0.0
C1246 C 0.73981 0.95194 0.82086 0.0
C1247 C 0.72839 0.94768 0.83861 0.0
C1248 C 0.73733 0.95442 0.78489 0.0
C1249 C 0.73306 0.97429 0.77216 0.0
C1250 C 0.75289 0.93443 0.77903 0.0
C1251 C 0.75623 0.91172 0.79097 0.0
C1252 C 0.7803 0.90378 0.79625 0.0
C1253 C 0.78341 0.88247 0.80758 0.0
C1254 C 0.76258 0.86886 0.81365 0.0
C1255 C 0.7386 0.87647 0.80831 0.0
C1256 C 0.73539 0.89771 0.79693 0.0
C1257 C 0.80843 0.94649 0.70889 0.0
C1258 C 0.79333 0.94405 0.69246 0.0
C1259 C 0.79777 0.95113 0.72685 0.0
C1260 C 0.7718 0.95381 0.72881 0.0
C1261 C 0.7568 0.95293 0.71227 0.0
C1262 C 0.76744 0.94807 0.69428 0.0
C1263 C 0.76035 0.95521 0.74826 0.0
C1264 C 0.76452 0.93533 0.76099 0.0
C1265 C 0.74438 0.97496 0.75393 0.0
C1266 C 0.73964 0.99672 0.74131 0.0
C1267 C 0.71502 0.00365 0.73673 0.0
C1268 C 0.71051 0.02411 0.72477 0.0
C1269 C 0.73049 0.03785 0.71738 0.0
C1270 C 0.75502 0.03122 0.72198 0.0
C1271 C 0.75963 0.0108 0.73394 0.0
H1272 H 0.72696 0.05367 0.70812 0.0
H1273 H 0.76502 0.8524 0.82244 0.0
H1274 H 0.56294 0.67027 0.32434 0.0
H1275 H 0.55884 0.69135 0.29351 0.0
H1276 H 0.55446 0.76244 0.32224 0.0
H1277 H 0.5589 0.74146 0.35332 0.0
H1278 H 0.52215 0.75804 0.28909 0.0
H1279 H 0.60772 0.74753 0.30689 0.0
H1280 H 0.64434 0.72398 0.31831 0.0
H1281 H 0.64015 0.67611 0.26907 0.0
H1282 H 0.60318 0.69915 0.25747 0.0
H1283 H 0.56367 0.83403 0.21051 0.0
H1284 H 0.55614 0.81357 0.24129 0.0
H1285 H 0.56986 0.74184 0.21527 0.0
H1286 H 0.57756 0.7622 0.18445 0.0
H1287 H 0.59668 0.74734 0.2476 0.0
H1288 H 0.51081 0.75959 0.22956 0.0
H1289 H 0.47421 0.7839 0.21895 0.0
H1290 H 0.47993 0.83028 0.26896 0.0
H1291 H 0.51678 0.80644 0.27975 0.0
C1292 C 0.56047 0.69033 0.32423 0.0
C1293 C 0.56142 0.70415 0.34139 0.0
C1294 C 0.55824 0.70238 0.30652 0.0
C1295 C 0.55673 0.7285 0.30553 0.0
C1296 C 0.55567 0.74226 0.32266 0.0
C1297 C 0.55815 0.73021 0.34043 0.0
C1298 C 0.55856 0.74135 0.28663 0.0
C1299 C 0.53852 0.75594 0.28008 0.0
C1300 C 0.57986 0.73843 0.27479 0.0
C1301 C 0.60239 0.7248 0.28148 0.0
C1302 C 0.61441 0.73179 0.2986 0.0
C1303 C 0.63521 0.71852 0.30513 0.0
C1304 C 0.64437 0.69835 0.29456 0.0
C1305 C 0.6329 0.69161 0.27732 0.0
C1306 C 0.61202 0.70478 0.27076 0.0
C1307 C 0.56457 0.81385 0.21121 0.0
C1308 C 0.57112 0.79978 0.19493 0.0
C1309 C 0.56024 0.80215 0.22887 0.0
C1310 C 0.56233 0.7761 0.23066 0.0
C1311 C 0.56812 0.76195 0.21429 0.0
C1312 C 0.57232 0.77362 0.19661 0.0
C1313 C 0.56004 0.76378 0.24978 0.0
C1314 C 0.58017 0.74937 0.25648 0.0
C1315 C 0.53892 0.76708 0.26179 0.0
C1316 C 0.5167 0.78137 0.25537 0.0
C1317 C 0.50438 0.77509 0.23822 0.0
C1318 C 0.48357 0.78876 0.23219 0.0
C1319 C 0.47479 0.80866 0.24325 0.0
C1320 C 0.48676 0.81488 0.26039 0.0
C1321 C 0.5076 0.80127 0.26649 0.0
H1322 H 0.45867 0.81922 0.23855 0.0
H1323 H 0.66052 0.68814 0.29964 0.0
H1324 H 0.83034 0.54968 0.82442 0.0
H1325 H 0.81036 0.54224 0.79348 0.0
H1326 H 0.73857 0.53734 0.82118 0.0
H1327 H 0.75844 0.54491 0.85231 0.0
H1328 H 0.74336 0.50376 0.79015 0.0
H1329 H 0.75381 0.5905 0.80327 0.0
H1330 H 0.77645 0.62875 0.81251 0.0
H1331 H 0.82526 0.62016 0.76415 0.0
H1332 H 0.80315 0.58159 0.75479 0.0
H1333 H 0.66688 0.54291 0.71067 0.0
H1334 H 0.68789 0.53526 0.74124 0.0
H1335 H 0.75946 0.54397 0.71373 0.0
H1336 H 0.73858 0.55169 0.6831 0.0
H1337 H 0.75484 0.5742 0.74483 0.0
H1338 H 0.74078 0.48738 0.73111 0.0
H1339 H 0.71562 0.45046 0.72254 0.0
H1340 H 0.67038 0.46101 0.77269 0.0
H1341 H 0.69506 0.49821 0.78142 0.0
C1342 C 0.81038 0.54639 0.82407 0.0
C1343 C 0.796 0.54811 0.84091 0.0
C1344 C 0.79895 0.54225 0.80631 0.0
C1345 C 0.7729 0.53966 0.80494 0.0
C1346 C 0.75869 0.53937 0.82186 0.0
C1347 C 0.77011 0.54366 0.83968 0.0
C1348 C 0.76046 0.53967 0.7858 0.0
C1349 C 0.74568 0.51923 0.78028 0.0
C1350 C 0.76359 0.5598 0.77286 0.0
C1351 C 0.77701 0.58297 0.77845 0.0
C1352 C 0.76953 0.59662 0.79471 0.0
C1353 C 0.78223 0.61838 0.79995 0.0
C1354 C 0.80232 0.62684 0.78895 0.0
C1355 C 0.80972 0.61356 0.77268 0.0
C1356 C 0.79711 0.59174 0.76739 0.0
C1357 C 0.68711 0.54252 0.71098 0.0
C1358 C 0.701 0.54795 0.69436 0.0
C1359 C 0.69912 0.53815 0.72853 0.0
C1360 C 0.72531 0.53909 0.72987 0.0
C1361 C 0.73925 0.54321 0.7131 0.0
C1362 C 0.72725 0.54743 0.69553 0.0
C1363 C 0.738 0.53806 0.74893 0.0
C1364 C 0.7527 0.55853 0.75455 0.0
C1365 C 0.73445 0.51814 0.76201 0.0
C1366 C 0.71964 0.49572 0.75682 0.0
C1367 C 0.72534 0.48195 0.74023 0.0
C1368 C 0.71119 0.46095 0.73536 0.0
C1369 C 0.69138 0.45343 0.74704 0.0
C1370 C 0.68572 0.46687 0.76365 0.0
C1371 C 0.6998 0.4879 0.76857 0.0
H1372 H 0.68045 0.43716 0.74325 0.0
H1373 H 0.8121 0.64373 0.79302 0.0
H1374 H 0.94443 0.7604 0.34993 0.0
H1375 H 0.95056 0.74061 0.31871 0.0
H1376 H 0.95543 0.81307 0.2921 0.0
H1377 H 0.94916 0.833 0.32323 0.0
H1378 H 0.91996 0.78507 0.27575 0.0
H1379 H 0.00569 0.77296 0.29287 0.0
H1380 H 0.04073 0.75934 0.31329 0.0
H1381 H 0.01489 0.68357 0.31014 0.0
H1382 H 0.97947 0.69677 0.28991 0.0
H1383 H 0.93001 0.73699 0.18185 0.0
H1384 H 0.94063 0.75886 0.21156 0.0
H1385 H 0.94162 0.68873 0.24189 0.0
H1386 H 0.93154 0.66673 0.2122 0.0
H1387 H 0.97728 0.71727 0.25561 0.0
H1388 H 0.88979 0.72852 0.24345 0.0
H1389 H 0.85121 0.7409 0.22667 0.0
H1390 H 0.87784 0.81636 0.22278 0.0
H1391 H 0.91665 0.80437 0.23955 0.0
C1392 C 0.94761 0.77217 0.33755 0.0
C1393 C 0.94615 0.79834 0.33914 0.0
C1394 C 0.95112 0.76078 0.31965 0.0
C1395 C 0.95336 0.7753 0.30295 0.0
C1396 C 0.95365 0.80143 0.30472 0.0
C1397 C 0.9502 0.81282 0.3226 0.0
C1398 C 0.95227 0.76344 0.28358 0.0
C1399 C 0.93291 0.77066 0.27119 0.0
C1400 C 0.96848 0.74392 0.27785 0.0
C1401 C 0.98979 0.7359 0.28999 0.0
C1402 C 0.00735 0.75342 0.29666 0.0
C1403 C 0.02731 0.74577 0.30817 0.0
C1404 C 0.03001 0.72062 0.31304 0.0
C1405 C 0.01277 0.70305 0.30637 0.0
C1406 C 0.99276 0.71061 0.29485 0.0
C1407 C 0.93296 0.72615 0.19476 0.0
C1408 C 0.92984 0.70006 0.19459 0.0
C1409 C 0.93882 0.73873 0.21182 0.0
C1410 C 0.94148 0.72557 0.22915 0.0
C1411 C 0.93962 0.6994 0.22879 0.0
C1412 C 0.93383 0.68681 0.21174 0.0
C1413 C 0.945 0.73903 0.24777 0.0
C1414 C 0.96464 0.732 0.26005 0.0
C1415 C 0.92882 0.75855 0.2536 0.0
C1416 C 0.90622 0.76549 0.24254 0.0
C1417 C 0.88755 0.74768 0.23879 0.0
C1418 C 0.86559 0.75466 0.22937 0.0
C1419 C 0.86208 0.77942 0.22365 0.0
C1420 C 0.8806 0.7972 0.22722 0.0
C1421 C 0.90255 0.79033 0.23671 0.0
H1422 H 0.84497 0.78489 0.21653 0.0
H1423 H 0.04547 0.71473 0.32196 0.0
H1424 H 0.44955 0.10321 0.17497 0.0
H1425 H 0.48475 0.07467 0.17966 0.0
H1426 H 0.43339 0.01399 0.18958 0.0
H1427 H 0.39818 0.04239 0.1852 0.0
H1428 H 0.4733 0.01043 0.21303 0.0
H1429 H 0.45857 0.02311 0.14559 0.0
H1430 H 0.45348 0.04804 0.11612 0.0
H1431 H 0.52772 0.07716 0.12278 0.0
H1432 H 0.53314 0.05262 0.15243 0.0
H1433 H 0.54304 0.90395 0.18415 0.0
H1434 H 0.5132 0.93779 0.18921 0.0
H1435 H 0.57139 0.99188 0.17899 0.0
H1436 H 0.60135 0.95807 0.17369 0.0
H1437 H 0.53079 0.00158 0.1577 0.0
H1438 H 0.54655 0.98407 0.22385 0.0
H1439 H 0.55072 0.95762 0.25258 0.0
H1440 H 0.47374 0.93592 0.24775 0.0
H1441 H 0.46918 0.96198 0.21882 0.0
C1442 C 0.44575 0.08389 0.1785 0.0
C1443 C 0.42105 0.07503 0.17955 0.0
C1444 C 0.46589 0.06757 0.18108 0.0
C1445 C 0.4617 0.04209 0.18465 0.0
C1446 C 0.43709 0.03354 0.18678 0.0
C1447 C 0.41696 0.04982 0.18421 0.0
C1448 C 0.48275 0.02399 0.18491 0.0
C1449 C 0.48582 0.0084 0.20091 0.0
C1450 C 0.49933 0.02159 0.16921 0.0
C1451 C 0.49615 0.03627 0.15135 0.0
C1452 C 0.47374 0.03498 0.14085 0.0
C1453 C 0.4708 0.04901 0.1241 0.0
C1454 C 0.49023 0.06425 0.11763 0.0
C1455 C 0.51267 0.0654 0.12784 0.0
C1456 C 0.51569 0.05142 0.14461 0.0
C1457 C 0.54962 0.92304 0.18329 0.0
C1458 C 0.57458 0.9283 0.17847 0.0
C1459 C 0.53253 0.9424 0.18625 0.0
C1460 C 0.54006 0.96742 0.18458 0.0
C1461 C 0.56516 0.97273 0.18036 0.0
C1462 C 0.58228 0.95336 0.17741 0.0
C1463 C 0.52135 0.98788 0.18581 0.0
C1464 C 0.5186 0.00385 0.16999 0.0
C1465 C 0.50495 0.99043 0.20161 0.0
C1466 C 0.50758 0.97485 0.21908 0.0
C1467 C 0.53055 0.97352 0.22883 0.0
C1468 C 0.53298 0.95862 0.24517 0.0
C1469 C 0.51252 0.94506 0.25197 0.0
C1470 C 0.48958 0.94642 0.24247 0.0
C1471 C 0.48705 0.96129 0.22611 0.0
H1472 H 0.51444 0.93353 0.26462 0.0
H1473 H 0.48792 0.07514 0.10469 0.0
H1474 H 0.54556 0.5942 0.67319 0.0
H1475 H 0.51198 0.56375 0.67782 0.0
H1476 H 0.56646 0.50735 0.69199 0.0
H1477 H 0.60005 0.53751 0.68716 0.0
H1478 H 0.53571 0.49139 0.66469 0.0
H1479 H 0.52615 0.53153 0.72585 0.0
H1480 H 0.52009 0.56711 0.74778 0.0
H1481 H 0.44971 0.5836 0.72106 0.0
H1482 H 0.4555 0.54831 0.69878 0.0
H1483 H 0.45513 0.39359 0.68804 0.0
H1484 H 0.48532 0.42724 0.6925 0.0
H1485 H 0.42938 0.48129 0.67646 0.0
H1486 H 0.39883 0.44764 0.67222 0.0
H1487 H 0.45988 0.49915 0.70512 0.0
H1488 H 0.46964 0.461 0.64347 0.0
H1489 H 0.4751 0.42607 0.62083 0.0
H1490 H 0.54483 0.40705 0.64757 0.0
H1491 H 0.5396 0.44167 0.67056 0.0
C1492 C 0.55036 0.57545 0.67767 0.0
C1493 C 0.5755 0.56827 0.6797 0.0
C1494 C 0.53112 0.55805 0.68035 0.0
C1495 C 0.53667 0.53322 0.68526 0.0
C1496 C 0.56171 0.52636 0.68813 0.0
C1497 C 0.58091 0.54368 0.68542 0.0
C1498 C 0.51674 0.51384 0.68578 0.0
C1499 C 0.51936 0.49293 0.67381 0.0
C1500 C 0.49492 0.51622 0.69712 0.0
C1501 C 0.49138 0.53742 0.71052 0.0
C1502 C 0.50948 0.54287 0.72454 0.0
C1503 C 0.50607 0.56296 0.73706 0.0
C1504 C 0.48456 0.57765 0.73578 0.0
C1505 C 0.46637 0.57223 0.72202 0.0
C1506 C 0.4697 0.55217 0.70945 0.0
C1507 C 0.44908 0.41266 0.68575 0.0
C1508 C 0.42463 0.4179 0.67957 0.0
C1509 C 0.46641 0.43189 0.68827 0.0
C1510 C 0.45976 0.45675 0.68445 0.0
C1511 C 0.43495 0.46223 0.67941 0.0
C1512 C 0.41752 0.44297 0.67697 0.0
C1513 C 0.47918 0.47661 0.68431 0.0
C1514 C 0.47636 0.49762 0.69616 0.0
C1515 C 0.50081 0.4745 0.67275 0.0
C1516 C 0.5041 0.45377 0.65886 0.0
C1517 C 0.48605 0.44925 0.64461 0.0
C1518 C 0.48911 0.42953 0.6317 0.0
C1519 C 0.51027 0.41431 0.63279 0.0
C1520 C 0.52844 0.41883 0.64676 0.0
C1521 C 0.52544 0.43851 0.65973 0.0
H1522 H 0.51261 0.39905 0.62278 0.0
H1523 H 0.48195 0.5932 0.74549 0.0
H1524 H 0.03978 0.39362 0.17988 0.0
H1525 H 0.00557 0.42337 0.18442 0.0
H1526 H 0.05892 0.48323 0.19042 0.0
H1527 H 0.09315 0.45361 0.18625 0.0
H1528 H 0.02067 0.48953 0.21482 0.0
H1529 H 0.03043 0.4714 0.14748 0.0
H1530 H 0.03272 0.44404 0.11908 0.0
H1531 H 0.95829 0.41779 0.13003 0.0
H1532 H 0.95567 0.44477 0.15863 0.0
H1533 H 0.95186 0.59577 0.18465 0.0
H1534 H 0.98101 0.56144 0.18996 0.0
H1535 H 0.92093 0.50848 0.18317 0.0
H1536 H 0.89165 0.54281 0.17753 0.0
H1537 H 0.95978 0.496 0.16142 0.0
H1538 H 0.9488 0.51848 0.22716 0.0
H1539 H 0.94711 0.54686 0.25495 0.0
H1540 H 0.02422 0.5661 0.24661 0.0
H1541 H 0.02629 0.53808 0.21859 0.0
C1542 C 0.04425 0.41304 0.18249 0.0
C1543 C 0.06921 0.42126 0.18255 0.0
C1544 C 0.02466 0.43005 0.18498 0.0
C1545 C 0.02965 0.45562 0.18742 0.0
C1546 C 0.05458 0.46363 0.1885 0.0
C1547 C 0.07416 0.44664 0.18607 0.0
C1548 C 0.00907 0.47428 0.18769 0.0
C1549 C 0.00743 0.49105 0.20311 0.0
C1550 C 0.99146 0.47598 0.17258 0.0
C1551 C 0.99297 0.45987 0.15532 0.0
C1552 C 0.01462 0.45965 0.1439 0.0
C1553 C 0.01597 0.44424 0.12776 0.0
C1554 C 0.9957 0.42912 0.1228 0.0
C1555 C 0.97399 0.42946 0.13392 0.0
C1556 C 0.97256 0.44482 0.15009 0.0
C1557 C 0.94473 0.57685 0.1846 0.0
C1558 C 0.91941 0.57205 0.18063 0.0
C1559 C 0.96144 0.55721 0.18772 0.0
C1560 C 0.95318 0.53233 0.1871 0.0
C1561 C 0.92775 0.52751 0.18373 0.0
C1562 C 0.91101 0.54717 0.18059 0.0
C1563 C 0.97141 0.51143 0.18851 0.0
C1564 C 0.97272 0.49428 0.17332 0.0
C1565 C 0.98878 0.50952 0.20377 0.0
C1566 C 0.98764 0.5263 0.22068 0.0
C1567 C 0.96535 0.52889 0.23117 0.0
C1568 C 0.96434 0.54489 0.24698 0.0
C1569 C 0.98553 0.55831 0.25252 0.0
C1570 C 0.00781 0.5557 0.24229 0.0
C1571 C 0.00893 0.53973 0.22646 0.0
H1572 H 0.9847 0.57069 0.26476 0.0
H1573 H 0.99677 0.41717 0.11033 0.0
H1574 H 0.94784 0.9009 0.66908 0.0
H1575 H 0.9812 0.93114 0.67519 0.0
H1576 H 0.92646 0.98545 0.69306 0.0
H1577 H 0.89307 0.95551 0.68679 0.0
H1578 H 0.95637 0.00404 0.66619 0.0
H1579 H 0.96776 0.95914 0.72505 0.0
H1580 H 0.97457 0.92195 0.74519 0.0
H1581 H 0.04445 0.90817 0.71692 0.0
H1582 H 0.03791 0.9451 0.69641 0.0
H1583 H 0.0381 0.10017 0.69085 0.0
H1584 H 0.00803 0.06642 0.69542 0.0
H1585 H 0.06288 0.01291 0.67639 0.0
H1586 H 0.09332 0.04661 0.67212 0.0
H1587 H 0.03348 0.99351 0.70486 0.0
H1588 H 0.02144 0.03593 0.64501 0.0
H1589 H 0.01517 0.07243 0.62404 0.0
H1590 H 0.94664 0.08963 0.65315 0.0
H1591 H 0.9527 0.05341 0.67451 0.0
C1592 C 0.94294 0.9191 0.67469 0.0
C1593 C 0.91777 0.92584 0.67733 0.0
C1594 C 0.96206 0.93637 0.67822 0.0
C1595 C 0.95636 0.9606 0.68459 0.0
C1596 C 0.93132 0.96691 0.68809 0.0
C1597 C 0.91223 0.94972 0.68454 0.0
C1598 C 0.97608 0.9801 0.68587 0.0
C1599 C 0.97299 0.00188 0.67495 0.0
C1600 C 0.99822 0.97696 0.69674 0.0
C1601 C 0.00222 0.95477 0.70907 0.0
C1602 C 0.98448 0.94806 0.72301 0.0
C1603 C 0.98832 0.92705 0.73452 0.0
C1604 C 0.0099 0.91267 0.7323 0.0
C1605 C 0.02773 0.91931 0.7186 0.0
C1606 C 0.02398 0.9403 0.70705 0.0
C1607 C 0.04396 0.08118 0.68797 0.0
C1608 C 0.06802 0.07611 0.68089 0.0
C1609 C 0.02671 0.0619 0.69055 0.0
C1610 C 0.03303 0.0372 0.68586 0.0
C1611 C 0.05755 0.03184 0.68002 0.0
C1612 C 0.07492 0.05114 0.67756 0.0
C1613 C 0.01347 0.01749 0.68543 0.0
C1614 C 0.0167 0.99567 0.6963 0.0
C1615 C 0.99145 0.02042 0.67439 0.0
C1616 C 0.98766 0.04211 0.66148 0.0
C1617 C 0.00513 0.0476 0.64703 0.0
C1618 C 0.0016 0.06822 0.63507 0.0
C1619 C 0.98056 0.08338 0.6373 0.0
C1620 C 0.96296 0.07789 0.65147 0.0
C1621 C 0.96642 0.05731 0.6635 0.0
H1622 H 0.97785 0.09934 0.62801 0.0
H1623 H 0.01283 0.8964 0.74122 0.0
H1624 H 0.59923 0.54891 0.36271 0.0
H1625 H 0.56822 0.51574 0.35845 0.0
H1626 H 0.51103 0.57106 0.34879 0.0
H1627 H 0.54174 0.60422 0.35325 0.0
H1628 H 0.49675 0.53857 0.37532 0.0
H1629 H 0.53251 0.53324 0.31241 0.0
H1630 H 0.56644 0.52887 0.28877 0.0
H1631 H 0.58503 0.4569 0.3118 0.0
H1632 H 0.55141 0.46099 0.33577 0.0
H1633 H 0.39798 0.45732 0.35322 0.0
H1634 H 0.4305 0.48882 0.3489 0.0
H1635 H 0.48714 0.43329 0.35968 0.0
H1636 H 0.45469 0.40152 0.36372 0.0
H1637 H 0.5019 0.46551 0.33179 0.0
H1638 H 0.46799 0.47133 0.39529 0.0
H1639 H 0.43466 0.47535 0.41949 0.0
H1640 H 0.41357 0.54634 0.39593 0.0
H1641 H 0.44656 0.54257 0.37141 0.0
C1642 C 0.58014 0.554 0.35933 0.0
C1643 C 0.57295 0.57923 0.35841 0.0
C1644 C 0.56243 0.535 0.35686 0.0
C1645 C 0.53726 0.54088 0.35327 0.0
C1646 C 0.5303 0.56605 0.35161 0.0
C1647 C 0.54793 0.585 0.35411 0.0
C1648 C 0.5178 0.52104 0.35271 0.0
C1649 C 0.49769 0.52284 0.36555 0.0
C1650 C 0.51938 0.50006 0.34042 0.0
C1651 C 0.53959 0.49754 0.32601 0.0
C1652 C 0.54396 0.51658 0.31254 0.0
C1653 C 0.56312 0.51413 0.29906 0.0
C1654 C 0.57793 0.49265 0.29881 0.0
C1655 C 0.57357 0.47354 0.31202 0.0
C1656 C 0.55445 0.47591 0.32555 0.0
C1657 C 0.41735 0.45169 0.3544 0.0
C1658 C 0.42372 0.42693 0.35899 0.0
C1659 C 0.43594 0.46976 0.35199 0.0
C1660 C 0.46126 0.46352 0.35432 0.0
C1661 C 0.46773 0.43856 0.35789 0.0
C1662 C 0.44914 0.42043 0.36023 0.0
C1663 C 0.48078 0.4833 0.35422 0.0
C1664 C 0.50093 0.48139 0.34142 0.0
C1665 C 0.47936 0.50418 0.36662 0.0
C1666 C 0.45957 0.50654 0.38139 0.0
C1667 C 0.45611 0.48771 0.39518 0.0
C1668 C 0.43731 0.48996 0.40897 0.0
C1669 C 0.42197 0.51106 0.40921 0.0
C1670 C 0.42544 0.52999 0.3957 0.0
C1671 C 0.4442 0.52781 0.38186 0.0
H1672 H 0.40742 0.51277 0.4199 0.0
H1673 H 0.59274 0.49079 0.28836 0.0
H1674 H 0.09889 0.45027 0.86476 0.0
H1675 H 0.0705 0.4853 0.85887 0.0
H1676 H 0.01037 0.43364 0.8478 0.0
H1677 H 0.03865 0.39863 0.85332 0.0
H1678 H 0.00741 0.47297 0.82403 0.0
H1679 H 0.01832 0.45994 0.89201 0.0
H1680 H 0.04259 0.45604 0.92192 0.0
H1681 H 0.07086 0.53044 0.91455 0.0
H1682 H 0.047 0.53465 0.88443 0.0
H1683 H 0.89799 0.53838 0.85096 0.0
H1684 H 0.93339 0.51045 0.84607 0.0
H1685 H 0.9843 0.57099 0.85779 0.0
H1686 H 0.94883 0.59908 0.863 0.0
H1687 H 0.99575 0.53106 0.87868 0.0
H1688 H 0.97923 0.54561 0.81245 0.0
H1689 H 0.95354 0.54881 0.78321 0.0
H1690 H 0.9344 0.47119 0.78766 0.0
H1691 H 0.9597 0.46759 0.81708 0.0
C1692 C 0.07974 0.44637 0.86073 0.0
C1693 C 0.07099 0.42164 0.85968 0.0
C1694 C 0.06349 0.46642 0.85746 0.0
C1695 C 0.03817 0.46212 0.85322 0.0
C1696 C 0.02979 0.43745 0.8511 0.0
C1697 C 0.046 0.41742 0.85433 0.0
C1698 C 0.01995 0.48309 0.8523 0.0
C1699 C 0.00478 0.48563 0.83599 0.0
C1700 C 0.01685 0.49997 0.86775 0.0
C1701 C 0.03114 0.49749 0.88586 0.0
C1702 C 0.02987 0.47539 0.89669 0.0
C1703 C 0.04352 0.47314 0.91369 0.0
C1704 C 0.05832 0.49295 0.9201 0.0
C1705 C 0.05944 0.51509 0.90954 0.0
C1706 C 0.04585 0.51742 0.89251 0.0
C1707 C 0.91671 0.54592 0.85217 0.0
C1708 C 0.92056 0.57098 0.85742 0.0
C1709 C 0.93698 0.5299 0.84928 0.0
C1710 C 0.96158 0.53861 0.85143 0.0
C1711 C 0.96551 0.56385 0.85603 0.0
C1712 C 0.9452 0.57991 0.85892 0.0
C1713 C 0.98294 0.52084 0.85047 0.0
C1714 C -0.00135 0.51878 0.86651 0.0
C1715 C 0.98639 0.50434 0.83483 0.0
C1716 C 0.97125 0.50638 0.81706 0.0
C1717 C 0.96941 0.52926 0.80727 0.0
C1718 C 0.95494 0.53114 0.79065 0.0
C1719 C 0.94231 0.51023 0.7836 0.0
C1720 C 0.94419 0.48738 0.79314 0.0
C1721 C 0.95863 0.4854 0.80977 0.0
H1722 H 0.93111 0.51173 0.77073 0.0
H1723 H 0.06887 0.49117 0.93327 0.0
H1724 H 0.95807 0.90082 0.34775 0.0
H1725 H 0.9879 0.93487 0.34363 0.0
H1726 H 0.93062 0.98831 0.35795 0.0
H1727 H 0.90048 0.95428 0.36194 0.0
H1728 H 0.96257 0.0059 0.32945 0.0
H1729 H 0.96874 0.96953 0.39206 0.0
H1730 H 0.97313 0.9352 0.41535 0.0
H1731 H 0.04469 0.91639 0.39161 0.0
H1732 H 0.04055 0.95039 0.36796 0.0
H1733 H 0.04623 0.10271 0.36229 0.0
H1734 H 0.01282 0.07207 0.35733 0.0
H1735 H 0.0679 0.01504 0.34641 0.0
H1736 H 0.10124 0.04534 0.35157 0.0
H1737 H 0.03573 0.0002 0.37294 0.0
H1738 H 0.0298 0.03797 0.31066 0.0
H1739 H 0.02496 0.07267 0.28775 0.0
H1740 H 0.95293 0.08978 0.31143 0.0
H1741 H 0.95749 0.05537 0.33467 0.0
C1742 C 0.95164 0.91982 0.34969 0.0
C1743 C 0.92693 0.92479 0.35538 0.0
C1744 C 0.96876 0.93928 0.34737 0.0
C1745 C 0.9616 0.9641 0.35081 0.0
C1746 C 0.93656 0.96929 0.35527 0.0
C1747 C 0.91937 0.9498 0.35758 0.0
C1748 C 0.98074 0.98421 0.35138 0.0
C1749 C 0.97846 0.00483 0.33908 0.0
C1750 C 0.00158 0.98269 0.36382 0.0
C1751 C 0.00421 0.96234 0.37811 0.0
C1752 C 0.98532 0.95795 0.3917 0.0
C1753 C 0.98778 0.93857 0.40499 0.0
C1754 C 0.00914 0.92358 0.40493 0.0
C1755 C 0.02813 0.92799 0.39162 0.0
C1756 C 0.02575 0.94732 0.37828 0.0
C1757 C 0.05119 0.08376 0.35846 0.0
C1758 C 0.0764 0.07645 0.35744 0.0
C1759 C 0.03207 0.06626 0.3556 0.0
C1760 C 0.03783 0.0412 0.35151 0.0
C1761 C 0.06298 0.03421 0.34965 0.0
C1762 C 0.08204 0.0516 0.35255 0.0
C1763 C 0.01796 0.02178 0.35073 0.0
C1764 C 0.01997 0.0013 0.36319 0.0
C1765 C 0.99689 0.02358 0.3385 0.0
C1766 C 0.9941 0.04425 0.32453 0.0
C1767 C 0.01302 0.04927 0.31109 0.0
C1768 C 0.01031 0.06885 0.29802 0.0
C1769 C 0.98868 0.08346 0.29817 0.0
C1770 C 0.96969 0.07847 0.31135 0.0
C1771 C 0.97232 0.05891 0.32446 0.0
H1772 H 0.98662 0.09862 0.28803 0.0
H1773 H 0.01101 0.90859 0.41523 0.0
H1774 H 0.54755 0.8996 0.86378 0.0
H1775 H 0.51337 0.9294 0.85931 0.0
H1776 H 0.56656 0.98655 0.84411 0.0
H1777 H 0.60077 0.95705 0.84882 0.0
H1778 H 0.53606 0.00252 0.87134 0.0
H1779 H 0.52603 0.96088 0.81085 0.0
H1780 H 0.52028 0.92471 0.78944 0.0
H1781 H 0.45078 0.90739 0.81711 0.0
H1782 H 0.45628 0.94328 0.83887 0.0
H1783 H 0.45365 0.09827 0.84758 0.0
H1784 H 0.484 0.06486 0.84284 0.0
H1785 H 0.42942 0.0106 0.86102 0.0
H1786 H 0.39868 0.04403 0.86556 0.0
H1787 H 0.45955 0.99239 0.83189 0.0
H1788 H 0.46998 0.0324 0.89286 0.0
H1789 H 0.47533 0.06811 0.9148 0.0
H1790 H 0.5441 0.0875 0.88687 0.0
H1791 H 0.53896 0.05211 0.86456 0.0
C1792 C 0.55194 0.91838 0.85913 0.0
C1793 C 0.57691 0.92598 0.85676 0.0
C1794 C 0.53235 0.9354 0.85654 0.0
C1795 C 0.53736 0.96025 0.85135 0.0
C1796 C 0.56222 0.96752 0.84818 0.0
C1797 C 0.58177 0.95059 0.85083 0.0
C1798 C 0.51707 0.97923 0.85079 0.0
C1799 C 0.51955 0.00045 0.86244 0.0
C1800 C 0.49508 0.97618 0.83971 0.0
C1801 C 0.49169 0.95463 0.82661 0.0
C1802 C 0.50962 0.94924 0.81247 0.0
C1803 C 0.50638 0.92881 0.80025 0.0
C1804 C 0.48521 0.91372 0.80194 0.0
C1805 C 0.46719 0.91907 0.81583 0.0
C1806 C 0.47034 0.93947 0.8281 0.0
C1807 C 0.4479 0.0792 0.85025 0.0
C1808 C 0.42382 0.07384 0.85717 0.0
C1809 C 0.46532 0.06011 0.84757 0.0
C1810 C 0.45914 0.03529 0.85195 0.0
C1811 C 0.43462 0.02964 0.85763 0.0
C1812 C 0.41708 0.04877 0.86024 0.0
C1813 C 0.47888 0.01577 0.85216 0.0
C1814 C 0.47618 0.99443 0.84064 0.0
C1815 C 0.50071 0.01857 0.86343 0.0
C1816 C 0.50395 0.03976 0.87692 0.0
C1817 C 0.48615 0.04439 0.89131 0.0
C1818 C 0.48916 0.06456 0.90382 0.0
C1819 C 0.51001 0.0801 0.9022 0.0
C1820 C 0.52794 0.07547 0.88809 0.0
C1821 C 0.525 0.05535 0.87551 0.0
H1822 H 0.51231 0.0957 0.9119 0.0
H1823 H 0.48274 0.89791 0.79247 0.0
loop_
_geom_bond_atom_site_label_1
_geom_bond_atom_site_label_2
_geom_bond_distance
_geom_bond_site_symmetry_2
_ccdc_geom_bond_type
O0 Cd1 2.223 . S
O0 C8 1.315 . S
Cd1 O0 2.223 . S
Cd1 O4 2.297 . S
Cd1 O5 2.439 . S
Cd1 O11 2.240 . S
Cd2 O3 2.240 . S
Cd2 O10 2.223 . S
Cd2 O12 2.297 . S
Cd2 O13 2.439 . S
O3 Cd2 2.240 . S
O3 C8 1.279 . S
O4 Cd1 2.297 . S
O4 C6 1.247 . S
O5 Cd1 2.439 . S
O5 C6 1.208 . S
C6 O4 1.247 . S
C6 O5 1.208 . S
C7 O12 1.247 . S
C7 O13 1.208 . S
C8 O0 1.315 . S
C8 O3 1.279 . S
C9 O10 1.315 . S
C9 O11 1.279 . S
O10 Cd2 2.223 . S
O10 C9 1.315 . S
O11 Cd1 2.240 . S
O11 C9 1.279 . S
O12 Cd2 2.297 . S
O12 C7 1.247 . S
O13 Cd2 2.439 . S
O13 C7 1.208 . S
O14 Cd15 2.223 . S
O14 C22 1.315 . S
Cd15 O14 2.223 . S
Cd15 O18 2.297 . S
Cd15 O19 2.439 . S
Cd15 O25 2.240 . S
Cd16 O17 2.240 . S
Cd16 O24 2.223 . S
Cd16 O26 2.297 . S
Cd16 O27 2.439 . S
O17 Cd16 2.240 . S
O17 C22 1.279 . S
O18 Cd15 2.297 . S
O18 C20 1.247 . S
O19 Cd15 2.439 . S
O19 C20 1.208 . S
C20 O18 1.247 . S
C20 O19 1.208 . S
C21 O26 1.247 . S
C21 O27 1.208 . S
C22 O14 1.315 . S
C22 O17 1.279 . S
C23 O24 1.315 . S
C23 O25 1.279 . S
O24 Cd16 2.223 . S
O24 C23 1.315 . S
O25 Cd15 2.240 . S
O25 C23 1.279 . S
O26 Cd16 2.297 . S
O26 C21 1.247 . S
O27 Cd16 2.439 . S
O27 C21 1.208 . S
O28 Cd29 2.223 . S
O28 C36 1.315 . S
Cd29 O28 2.223 . S
Cd29 O32 2.297 . S
Cd29 O33 2.439 . S
Cd29 O39 2.240 . S
Cd30 O31 2.240 . S
Cd30 O38 2.223 . S
Cd30 O40 2.297 . S
Cd30 O41 2.439 . S
O31 Cd30 2.240 . S
O31 C36 1.279 . S
O32 Cd29 2.297 . S
O32 C34 1.247 . S
O33 Cd29 2.439 . S
O33 C34 1.208 . S
C34 O32 1.247 . S
C34 O33 1.208 . S
C35 O40 1.247 . S
C35 O41 1.208 . S
C36 O28 1.315 . S
C36 O31 1.279 . S
C37 O38 1.315 . S
C37 O39 1.279 . S
O38 Cd30 2.223 . S
O38 C37 1.315 . S
O39 Cd29 2.240 . S
O39 C37 1.279 . S
O40 Cd30 2.297 . S
O40 C35 1.247 . S
O41 Cd30 2.439 . S
O41 C35 1.208 . S
O42 Cd43 2.223 . S
O42 C50 1.315 . S
Cd43 O42 2.223 . S
Cd43 O46 2.297 . S
Cd43 O47 2.439 . S
Cd43 O53 2.240 . S
Cd44 O45 2.240 . S
Cd44 O52 2.223 . S
Cd44 O54 2.297 . S
Cd44 O55 2.439 . S
O45 Cd44 2.240 . S
O45 C50 1.279 . S
O46 Cd43 2.297 . S
O46 C48 1.247 . S
O47 Cd43 2.439 . S
O47 C48 1.208 . S
C48 O46 1.247 . S
C48 O47 1.208 . S
C49 O54 1.247 . S
C49 O55 1.208 . S
C50 O42 1.315 . S
C50 O45 1.279 . S
C51 O52 1.315 . S
C51 O53 1.279 . S
O52 Cd44 2.223 . S
O52 C51 1.315 . S
O53 Cd43 2.240 . S
O53 C51 1.279 . S
O54 Cd44 2.297 . S
O54 C49 1.247 . S
O55 Cd44 2.439 . S
O55 C49 1.208 . S
O56 Cd57 2.223 . S
O56 C64 1.315 . S
Cd57 O56 2.223 . S
Cd57 O60 2.297 . S
Cd57 O61 2.439 . S
Cd57 O67 2.240 . S
Cd58 O59 2.240 . S
Cd58 O66 2.223 . S
Cd58 O68 2.297 . S
Cd58 O69 2.439 . S
O59 Cd58 2.240 . S
O59 C64 1.279 . S
O60 Cd57 2.297 . S
O60 C62 1.247 . S
O61 Cd57 2.439 . S
O61 C62 1.208 . S
C62 O60 1.247 . S
C62 O61 1.208 . S
C63 O68 1.247 . S
C63 O69 1.208 . S
C64 O56 1.315 . S
C64 O59 1.279 . S
C65 O66 1.315 . S
C65 O67 1.279 . S
O66 Cd58 2.223 . S
O66 C65 1.315 . S
O67 Cd57 2.240 . S
O67 C65 1.279 . S
O68 Cd58 2.297 . S
O68 C63 1.247 . S
O69 Cd58 2.439 . S
O69 C63 1.208 . S
O70 Cd71 2.223 . S
O70 C78 1.315 . S
Cd71 O70 2.223 . S
Cd71 O74 2.297 . S
Cd71 O75 2.439 . S
Cd71 O81 2.240 . S
Cd72 O73 2.240 . S
Cd72 O80 2.223 . S
Cd72 O82 2.297 . S
Cd72 O83 2.439 . S
O73 Cd72 2.240 . S
O73 C78 1.279 . S
O74 Cd71 2.297 . S
O74 C76 1.247 . S
O75 Cd71 2.439 . S
O75 C76 1.208 . S
C76 O74 1.247 . S
C76 O75 1.208 . S
C77 O82 1.247 . S
C77 O83 1.208 . S
C78 O70 1.315 . S
C78 O73 1.279 . S
C79 O80 1.315 . S
C79 O81 1.279 . S
O80 Cd72 2.223 . S
O80 C79 1.315 . S
O81 Cd71 2.240 . S
O81 C79 1.279 . S
O82 Cd72 2.297 . S
O82 C77 1.247 . S
O83 Cd72 2.439 . S
O83 C77 1.208 . S
O84 Cd85 2.223 . S
O84 C92 1.315 . S
Cd85 O84 2.223 . S
Cd85 O88 2.297 . S
Cd85 O89 2.439 . S
Cd85 O95 2.240 . S
Cd86 O87 2.240 . S
Cd86 O94 2.223 . S
Cd86 O96 2.297 . S
Cd86 O97 2.439 . S
O87 Cd86 2.240 . S
O87 C92 1.279 . S
O88 Cd85 2.297 . S
O88 C90 1.247 . S
O89 Cd85 2.439 . S
O89 C90 1.208 . S
C90 O88 1.247 . S
C90 O89 1.208 . S
C91 O96 1.247 . S
C91 O97 1.208 . S
C92 O84 1.315 . S
C92 O87 1.279 . S
C93 O94 1.315 . S
C93 O95 1.279 . S
O94 Cd86 2.223 . S
O94 C93 1.315 . S
O95 Cd85 2.240 . S
O95 C93 1.279 . S
O96 Cd86 2.297 . S
O96 C91 1.247 . S
O97 Cd86 2.439 . S
O97 C91 1.208 . S
O98 Cd99 2.223 . S
O98 C106 1.315 . S
Cd99 O98 2.223 . S
Cd99 O102 2.297 . S
Cd99 O103 2.439 . S
Cd99 O109 2.240 . S
Cd100 O101 2.240 . S
Cd100 O108 2.223 . S
Cd100 O110 2.297 . S
Cd100 O111 2.439 . S
O101 Cd100 2.240 . S
O101 C106 1.279 . S
O102 Cd99 2.297 . S
O102 C104 1.247 . S
O103 Cd99 2.439 . S
O103 C104 1.208 . S
C104 O102 1.247 . S
C104 O103 1.208 . S
C105 O110 1.247 . S
C105 O111 1.208 . S
C106 O98 1.315 . S
C106 O101 1.279 . S
C107 O108 1.315 . S
C107 O109 1.279 . S
O108 Cd100 2.223 . S
O108 C107 1.315 . S
O109 Cd99 2.240 . S
O109 C107 1.279 . S
O110 Cd100 2.297 . S
O110 C105 1.247 . S
O111 Cd100 2.439 . S
O111 C105 1.208 . S
O112 Cd113 2.223 . S
O112 C120 1.315 . S
Cd113 O112 2.223 . S
Cd113 O116 2.297 . S
Cd113 O117 2.439 . S
Cd113 O123 2.240 . S
Cd114 O115 2.240 . S
Cd114 O122 2.223 . S
Cd114 O124 2.297 . S
Cd114 O125 2.439 . S
O115 Cd114 2.240 . S
O115 C120 1.279 . S
O116 Cd113 2.297 . S
O116 C118 1.247 . S
O117 Cd113 2.439 . S
O117 C118 1.208 . S
C118 O116 1.247 . S
C118 O117 1.208 . S
C119 O124 1.247 . S
C119 O125 1.208 . S
C120 O112 1.315 . S
C120 O115 1.279 . S
C121 O122 1.315 . S
C121 O123 1.279 . S
O122 Cd114 2.223 . S
O122 C121 1.315 . S
O123 Cd113 2.240 . S
O123 C121 1.279 . S
O124 Cd114 2.297 . S
O124 C119 1.247 . S
O125 Cd114 2.439 . S
O125 C119 1.208 . S
O126 Cd127 2.223 . S
O126 C134 1.315 . S
Cd127 O126 2.223 . S
Cd127 O130 2.297 . S
Cd127 O131 2.439 . S
Cd127 O137 2.240 . S
Cd128 O129 2.240 . S
Cd128 O136 2.223 . S
Cd128 O138 2.297 . S
Cd128 O139 2.439 . S
O129 Cd128 2.240 . S
O129 C134 1.279 . S
O130 Cd127 2.297 . S
O130 C132 1.247 . S
O131 Cd127 2.439 . S
O131 C132 1.208 . S
C132 O130 1.247 . S
C132 O131 1.208 . S
C133 O138 1.247 . S
C133 O139 1.208 . S
C134 O126 1.315 . S
C134 O129 1.279 . S
C135 O136 1.315 . S
C135 O137 1.279 . S
O136 Cd128 2.223 . S
O136 C135 1.315 . S
O137 Cd127 2.240 . S
O137 C135 1.279 . S
O138 Cd128 2.297 . S
O138 C133 1.247 . S
O139 Cd128 2.439 . S
O139 C133 1.208 . S
O140 Cd141 2.223 . S
O140 C148 1.315 . S
Cd141 O140 2.223 . S
Cd141 O144 2.297 . S
Cd141 O145 2.439 . S
Cd141 O151 2.240 . S
Cd142 O143 2.240 . S
Cd142 O150 2.223 . S
Cd142 O152 2.297 . S
Cd142 O153 2.439 . S
O143 Cd142 2.240 . S
O143 C148 1.279 . S
O144 Cd141 2.297 . S
O144 C146 1.247 . S
O145 Cd141 2.439 . S
O145 C146 1.208 . S
C146 O144 1.247 . S
C146 O145 1.208 . S
C147 O152 1.247 . S
C147 O153 1.208 . S
C148 O140 1.315 . S
C148 O143 1.279 . S
C149 O150 1.315 . S
C149 O151 1.279 . S
O150 Cd142 2.223 . S
O150 C149 1.315 . S
O151 Cd141 2.240 . S
O151 C149 1.279 . S
O152 Cd142 2.297 . S
O152 C147 1.247 . S
O153 Cd142 2.439 . S
O153 C147 1.208 . S
O154 Cd155 2.223 . S
O154 C162 1.315 . S
Cd155 O154 2.223 . S
Cd155 O158 2.297 . S
Cd155 O159 2.439 . S
Cd155 O165 2.240 . S
Cd156 O157 2.240 . S
Cd156 O164 2.223 . S
Cd156 O166 2.297 . S
Cd156 O167 2.439 . S
O157 Cd156 2.240 . S
O157 C162 1.279 . S
O158 Cd155 2.297 . S
O158 C160 1.247 . S
O159 Cd155 2.439 . S
O159 C160 1.208 . S
C160 O158 1.247 . S
C160 O159 1.208 . S
C161 O166 1.247 . S
C161 O167 1.208 . S
C162 O154 1.315 . S
C162 O157 1.279 . S
C163 O164 1.315 . S
C163 O165 1.279 . S
O164 Cd156 2.223 . S
O164 C163 1.315 . S
O165 Cd155 2.240 . S
O165 C163 1.279 . S
O166 Cd156 2.297 . S
O166 C161 1.247 . S
O167 Cd156 2.439 . S
O167 C161 1.208 . S
O168 Cd169 2.223 . S
O168 C176 1.315 . S
Cd169 O168 2.223 . S
Cd169 O172 2.297 . S
Cd169 O173 2.439 . S
Cd169 O179 2.240 . S
Cd170 O171 2.240 . S
Cd170 O178 2.223 . S
Cd170 O180 2.297 . S
Cd170 O181 2.439 . S
O171 Cd170 2.240 . S
O171 C176 1.279 . S
O172 Cd169 2.297 . S
O172 C174 1.247 . S
O173 Cd169 2.439 . S
O173 C174 1.208 . S
C174 O172 1.247 . S
C174 O173 1.208 . S
C175 O180 1.247 . S
C175 O181 1.208 . S
C176 O168 1.315 . S
C176 O171 1.279 . S
C177 O178 1.315 . S
C177 O179 1.279 . S
O178 Cd170 2.223 . S
O178 C177 1.315 . S
O179 Cd169 2.240 . S
O179 C177 1.279 . S
O180 Cd170 2.297 . S
O180 C175 1.247 . S
O181 Cd170 2.439 . S
O181 C175 1.208 . S
O182 Cd183 2.223 . S
O182 C190 1.315 . S
Cd183 O182 2.223 . S
Cd183 O186 2.297 . S
Cd183 O187 2.439 . S
Cd183 O193 2.240 . S
Cd184 O185 2.240 . S
Cd184 O192 2.223 . S
Cd184 O194 2.297 . S
Cd184 O195 2.439 . S
O185 Cd184 2.240 . S
O185 C190 1.279 . S
O186 Cd183 2.297 . S
O186 C188 1.247 . S
O187 Cd183 2.439 . S
O187 C188 1.208 . S
C188 O186 1.247 . S
C188 O187 1.208 . S
C189 O194 1.247 . S
C189 O195 1.208 . S
C190 O182 1.315 . S
C190 O185 1.279 . S
C191 O192 1.315 . S
C191 O193 1.279 . S
O192 Cd184 2.223 . S
O192 C191 1.315 . S
O193 Cd183 2.240 . S
O193 C191 1.279 . S
O194 Cd184 2.297 . S
O194 C189 1.247 . S
O195 Cd184 2.439 . S
O195 C189 1.208 . S
O196 Cd197 2.223 . S
O196 C204 1.315 . S
Cd197 O196 2.223 . S
Cd197 O200 2.297 . S
Cd197 O201 2.439 . S
Cd197 O207 2.240 . S
Cd198 O199 2.240 . S
Cd198 O206 2.223 . S
Cd198 O208 2.297 . S
Cd198 O209 2.439 . S
O199 Cd198 2.240 . S
O199 C204 1.279 . S
O200 Cd197 2.297 . S
O200 C202 1.247 . S
O201 Cd197 2.439 . S
O201 C202 1.208 . S
C202 O200 1.247 . S
C202 O201 1.208 . S
C203 O208 1.247 . S
C203 O209 1.208 . S
C204 O196 1.315 . S
C204 O199 1.279 . S
C205 O206 1.315 . S
C205 O207 1.279 . S
O206 Cd198 2.223 . S
O206 C205 1.315 . S
O207 Cd197 2.240 . S
O207 C205 1.279 . S
O208 Cd198 2.297 . S
O208 C203 1.247 . S
O209 Cd198 2.439 . S
O209 C203 1.208 . S
O210 Cd211 2.223 . S
O210 C218 1.315 . S
Cd211 O210 2.223 . S
Cd211 O214 2.297 . S
Cd211 O215 2.439 . S
Cd211 O221 2.240 . S
Cd212 O213 2.240 . S
Cd212 O220 2.223 . S
Cd212 O222 2.297 . S
Cd212 O223 2.439 . S
O213 Cd212 2.240 . S
O213 C218 1.279 . S
O214 Cd211 2.297 . S
O214 C216 1.247 . S
O215 Cd211 2.439 . S
O215 C216 1.208 . S
C216 O214 1.247 . S
C216 O215 1.208 . S
C217 O222 1.247 . S
C217 O223 1.208 . S
C218 O210 1.315 . S
C218 O213 1.279 . S
C219 O220 1.315 . S
C219 O221 1.279 . S
O220 Cd212 2.223 . S
O220 C219 1.315 . S
O221 Cd211 2.240 . S
O221 C219 1.279 . S
O222 Cd212 2.297 . S
O222 C217 1.247 . S
O223 Cd212 2.439 . S
O223 C217 1.208 . S
H224 C242 0.951 . S
H225 C244 0.951 . S
H226 C246 0.950 . S
H227 C247 0.950 . S
H228 C249 0.950 . S
H229 C252 0.952 . S
H230 C253 0.947 1_556 S
H231 C255 0.950 . S
H232 C256 0.950 . S
H233 C257 0.951 . S
H234 C259 0.951 . S
H235 C261 0.950 . S
H236 C262 0.950 . S
H237 C264 0.950 . S
H238 C267 0.952 . S
H239 C268 0.947 1_554 S
H240 C270 0.950 . S
H241 C271 0.950 . S
C242 H224 0.951 . S
C242 C243 1.366 . S
C242 C244 1.388 . S
C243 C242 1.366 . S
C243 C247 1.385 . S
C244 H225 0.951 . S
C244 C242 1.388 . S
C244 C245 1.366 . S
C245 C244 1.366 . S
C245 C246 1.414 . S
C245 C248 1.499 . S
C246 H226 0.950 . S
C246 C245 1.414 . S
C246 C247 1.374 . S
C247 H227 0.950 . S
C247 C243 1.385 . S
C247 C246 1.374 . S
C248 C245 1.499 . S
C248 C249 1.373 . S
C248 C250 1.389 . S
C249 H228 0.950 . S
C249 C248 1.373 . S
C249 C265 1.377 1_556 S
C250 C248 1.389 . S
C250 C251 1.525 . S
C250 C264 1.377 1_556 S
C251 C250 1.525 . S
C251 C252 1.397 . S
C251 C256 1.361 1_556 S
C252 H229 0.952 . S
C252 C251 1.397 . S
C252 C253 1.331 1_556 S
C253 H230 0.947 1_554 S
C253 C252 1.331 1_554 S
C253 C254 1.295 . S
C254 C253 1.295 . S
C254 C255 1.524 . S
C254 H273 0.913 . S
C255 H231 0.950 . S
C255 C254 1.524 . S
C255 C256 1.415 . S
C256 H232 0.950 . S
C256 C251 1.361 1_554 S
C256 C255 1.415 . S
C257 H233 0.951 . S
C257 C258 1.366 . S
C257 C259 1.388 . S
C258 C257 1.366 . S
C258 C262 1.385 . S
C259 H234 0.951 . S
C259 C257 1.388 . S
C259 C260 1.366 . S
C260 C259 1.366 . S
C260 C261 1.414 . S
C260 C263 1.499 . S
C261 H235 0.950 . S
C261 C260 1.414 . S
C261 C262 1.374 . S
C262 H236 0.950 . S
C262 C258 1.385 . S
C262 C261 1.374 . S
C263 C260 1.499 . S
C263 C264 1.373 . S
C263 C265 1.389 . S
C264 H237 0.950 . S
C264 C250 1.377 1_554 S
C264 C263 1.373 . S
C265 C249 1.377 1_554 S
C265 C263 1.389 . S
C265 C266 1.525 . S
C266 C265 1.525 . S
C266 C267 1.397 . S
C266 C271 1.361 1_554 S
C267 H238 0.952 . S
C267 C266 1.397 . S
C267 C268 1.331 1_554 S
C268 H239 0.947 1_556 S
C268 C267 1.331 1_556 S
C268 C269 1.295 . S
C269 C268 1.295 . S
C269 C270 1.524 . S
C269 H272 0.999 . S
C270 H240 0.950 . S
C270 C269 1.524 . S
C270 C271 1.415 . S
C271 H241 0.950 . S
C271 C266 1.361 1_556 S
C271 C270 1.415 . S
H272 C269 0.999 . S
H273 C254 0.913 . S
H274 C292 0.951 . S
H275 C294 0.951 . S
H276 C296 0.950 . S
H277 C297 0.950 . S
H278 C299 0.950 . S
H279 C302 0.950 . S
H280 C303 0.950 . S
H281 C305 0.950 . S
H282 C306 0.950 . S
H283 C307 0.951 . S
H284 C309 0.951 . S
H285 C311 0.950 . S
H286 C312 0.950 . S
H287 C314 0.950 . S
H288 C317 0.950 . S
H289 C318 0.950 . S
H290 C320 0.950 . S
H291 C321 0.950 . S
C292 H274 0.951 . S
C292 C293 1.366 . S
C292 C294 1.388 . S
C293 C292 1.366 . S
C293 C297 1.385 . S
C294 H275 0.951 . S
C294 C292 1.388 . S
C294 C295 1.366 . S
C295 C294 1.366 . S
C295 C296 1.414 . S
C295 C298 1.499 . S
C296 H276 0.950 . S
C296 C295 1.414 . S
C296 C297 1.374 . S
C297 H277 0.950 . S
C297 C293 1.385 . S
C297 C296 1.374 . S
C298 C295 1.499 . S
C298 C299 1.373 . S
C298 C300 1.389 . S
C299 H278 0.950 . S
C299 C298 1.373 . S
C299 C315 1.377 . S
C300 C298 1.389 . S
C300 C301 1.524 . S
C300 C314 1.377 . S
C301 C300 1.524 . S
C301 C302 1.397 . S
C301 C306 1.363 . S
C302 H279 0.950 . S
C302 C301 1.397 . S
C302 C303 1.334 . S
C303 H280 0.950 . S
C303 C302 1.334 . S
C303 C304 1.287 . S
C304 C303 1.287 . S
C304 C305 1.524 . S
C304 H323 0.913 . S
C305 H281 0.950 . S
C305 C304 1.524 . S
C305 C306 1.415 . S
C306 H282 0.950 . S
C306 C301 1.363 . S
C306 C305 1.415 . S
C307 H283 0.951 . S
C307 C308 1.366 . S
C307 C309 1.388 . S
C308 C307 1.366 . S
C308 C312 1.385 . S
C309 H284 0.951 . S
C309 C307 1.388 . S
C309 C310 1.366 . S
C310 C309 1.366 . S
C310 C311 1.414 . S
C310 C313 1.499 . S
C311 H285 0.950 . S
C311 C310 1.414 . S
C311 C312 1.374 . S
C312 H286 0.950 . S
C312 C308 1.385 . S
C312 C311 1.374 . S
C313 C310 1.499 . S
C313 C314 1.373 . S
C313 C315 1.389 . S
C314 H287 0.950 . S
C314 C300 1.377 . S
C314 C313 1.373 . S
C315 C299 1.377 . S
C315 C313 1.389 . S
C315 C316 1.524 . S
C316 C315 1.524 . S
C316 C317 1.397 . S
C316 C321 1.363 . S
C317 H288 0.950 . S
C317 C316 1.397 . S
C317 C318 1.334 . S
C318 H289 0.950 . S
C318 C317 1.334 . S
C318 C319 1.287 . S
C319 C318 1.287 . S
C319 C320 1.524 . S
C319 H322 0.999 . S
C320 H290 0.950 . S
C320 C319 1.524 . S
C320 C321 1.415 . S
C321 H291 0.950 . S
C321 C316 1.363 . S
C321 C320 1.415 . S
H322 C319 0.999 . S
H323 C304 0.913 . S
H324 C342 0.951 . S
H325 C344 0.951 . S
H326 C346 0.950 . S
H327 C347 0.950 . S
H328 C349 0.950 1_554 S
H329 C352 0.950 . S
H330 C353 0.950 . S
H331 C355 0.950 . S
H332 C356 0.950 . S
H333 C357 0.951 . S
H334 C359 0.951 . S
H335 C361 0.950 . S
H336 C362 0.950 . S
H337 C364 0.950 1_556 S
H338 C367 0.950 . S
H339 C368 0.950 . S
H340 C370 0.950 . S
H341 C371 0.950 . S
C342 H324 0.951 . S
C342 C343 1.366 . S
C342 C344 1.388 . S
C343 C342 1.366 . S
C343 C347 1.385 . S
C344 H325 0.951 . S
C344 C342 1.388 . S
C344 C345 1.366 . S
C345 C344 1.366 . S
C345 C346 1.414 . S
C345 C348 1.499 . S
C346 H326 0.950 . S
C346 C345 1.414 . S
C346 C347 1.374 . S
C347 H327 0.950 . S
C347 C343 1.385 . S
C347 C346 1.374 . S
C348 C345 1.499 . S
C348 C349 1.368 . S
C348 C350 1.389 . S
C349 H328 0.950 1_556 S
C349 C348 1.368 . S
C349 C365 1.382 1_556 S
C350 C348 1.389 . S
C350 C351 1.524 . S
C350 C364 1.382 1_556 S
C351 C350 1.524 . S
C351 C352 1.397 . S
C351 C356 1.363 . S
C352 H329 0.950 . S
C352 C351 1.397 . S
C352 C353 1.334 . S
C353 H330 0.950 . S
C353 C352 1.334 . S
C353 C354 1.287 . S
C354 C353 1.287 . S
C354 C355 1.524 . S
C354 H373 0.913 . S
C355 H331 0.950 . S
C355 C354 1.524 . S
C355 C356 1.415 . S
C356 H332 0.950 . S
C356 C351 1.363 . S
C356 C355 1.415 . S
C357 H333 0.951 . S
C357 C358 1.366 . S
C357 C359 1.388 . S
C358 C357 1.366 . S
C358 C362 1.385 . S
C359 H334 0.951 . S
C359 C357 1.388 . S
C359 C360 1.366 . S
C360 C359 1.366 . S
C360 C361 1.414 . S
C360 C363 1.499 . S
C361 H335 0.950 . S
C361 C360 1.414 . S
C361 C362 1.374 . S
C362 H336 0.950 . S
C362 C358 1.385 . S
C362 C361 1.374 . S
C363 C360 1.499 . S
C363 C364 1.368 . S
C363 C365 1.389 . S
C364 H337 0.950 1_554 S
C364 C350 1.382 1_554 S
C364 C363 1.368 . S
C365 C349 1.382 1_554 S
C365 C363 1.389 . S
C365 C366 1.524 . S
C366 C365 1.524 . S
C366 C367 1.397 . S
C366 C371 1.363 . S
C367 H338 0.950 . S
C367 C366 1.397 . S
C367 C368 1.334 . S
C368 H339 0.950 . S
C368 C367 1.334 . S
C368 C369 1.287 . S
C369 C368 1.287 . S
C369 C370 1.524 . S
C369 H372 0.999 . S
C370 H340 0.950 . S
C370 C369 1.524 . S
C370 C371 1.415 . S
C371 H341 0.950 . S
C371 C366 1.363 . S
C371 C370 1.415 . S
H372 C369 0.999 . S
H373 C354 0.913 . S
H374 C392 0.951 . S
H375 C394 0.951 . S
H376 C396 0.950 . S
H377 C397 0.950 . S
H378 C399 0.950 . S
H379 C402 0.950 . S
H380 C403 0.950 . S
H381 C405 0.950 . S
H382 C406 0.950 . S
H383 C407 0.951 . S
H384 C409 0.951 . S
H385 C411 0.950 . S
H386 C412 0.950 . S
H387 C414 0.950 . S
H388 C417 0.950 . S
H389 C418 0.950 . S
H390 C420 0.950 . S
H391 C421 0.950 . S
C392 H374 0.951 . S
C392 C393 1.366 . S
C392 C394 1.388 . S
C393 C392 1.366 . S
C393 C397 1.385 . S
C394 H375 0.951 . S
C394 C392 1.388 . S
C394 C395 1.366 . S
C395 C394 1.366 . S
C395 C396 1.414 . S
C395 C398 1.499 . S
C396 H376 0.950 . S
C396 C395 1.414 . S
C396 C397 1.374 . S
C397 H377 0.950 . S
C397 C393 1.385 . S
C397 C396 1.374 . S
C398 C395 1.499 . S
C398 C399 1.373 . S
C398 C400 1.389 . S
C399 H378 0.950 . S
C399 C398 1.373 . S
C399 C415 1.377 . S
C400 C398 1.389 . S
C400 C401 1.524 . S
C400 C414 1.377 . S
C401 C400 1.524 . S
C401 C402 1.397 . S
C401 C406 1.363 . S
C402 H379 0.950 . S
C402 C401 1.397 . S
C402 C403 1.334 . S
C403 H380 0.950 . S
C403 C402 1.334 . S
C403 C404 1.287 . S
C404 C403 1.287 . S
C404 C405 1.524 . S
C404 H423 0.913 . S
C405 H381 0.950 . S
C405 C404 1.524 . S
C405 C406 1.415 . S
C406 H382 0.950 . S
C406 C401 1.363 . S
C406 C405 1.415 . S
C407 H383 0.951 . S
C407 C408 1.366 . S
C407 C409 1.388 . S
C408 C407 1.366 . S
C408 C412 1.385 . S
C409 H384 0.951 . S
C409 C407 1.388 . S
C409 C410 1.366 . S
C410 C409 1.366 . S
C410 C411 1.414 . S
C410 C413 1.499 . S
C411 H385 0.950 . S
C411 C410 1.414 . S
C411 C412 1.374 . S
C412 H386 0.950 . S
C412 C408 1.385 . S
C412 C411 1.374 . S
C413 C410 1.499 . S
C413 C414 1.373 . S
C413 C415 1.389 . S
C414 H387 0.950 . S
C414 C400 1.377 . S
C414 C413 1.373 . S
C415 C399 1.377 . S
C415 C413 1.389 . S
C415 C416 1.524 . S
C416 C415 1.524 . S
C416 C417 1.397 . S
C416 C421 1.363 . S
C417 H388 0.950 . S
C417 C416 1.397 . S
C417 C418 1.334 . S
C418 H389 0.950 . S
C418 C417 1.334 . S
C418 C419 1.287 . S
C419 C418 1.287 . S
C419 C420 1.524 . S
C419 H422 0.999 . S
C420 H390 0.950 . S
C420 C419 1.524 . S
C420 C421 1.415 . S
C421 H391 0.950 . S
C421 C416 1.363 . S
C421 C420 1.415 . S
H422 C419 0.999 . S
H423 C404 0.913 . S
H424 C442 0.951 . S
H425 C444 0.951 . S
H426 C446 0.950 . S
H427 C447 0.950 . S
H428 C449 0.950 . S
H429 C452 0.941 1_554 S
H430 C453 0.950 . S
H431 C455 0.950 . S
H432 C456 0.950 . S
H433 C457 0.951 . S
H434 C459 0.951 . S
H435 C461 0.950 . S
H436 C462 0.950 . S
H437 C464 0.950 . S
H438 C467 0.941 1_556 S
H439 C468 0.950 . S
H440 C470 0.950 . S
H441 C471 0.950 . S
C442 H424 0.951 . S
C442 C443 1.366 . S
C442 C444 1.388 . S
C443 C442 1.366 . S
C443 C447 1.385 . S
C444 H425 0.951 . S
C444 C442 1.388 . S
C444 C445 1.366 . S
C445 C444 1.366 . S
C445 C446 1.414 . S
C445 C448 1.499 . S
C446 H426 0.950 . S
C446 C445 1.414 . S
C446 C447 1.374 . S
C447 H427 0.950 . S
C447 C443 1.385 . S
C447 C446 1.374 . S
C448 C445 1.499 . S
C448 C449 1.373 . S
C448 C450 1.392 1_554 S
C449 H428 0.950 . S
C449 C448 1.373 . S
C449 C465 1.373 . S
C450 C448 1.392 1_556 S
C450 C451 1.524 . S
C450 C464 1.373 . S
C451 C450 1.524 . S
C451 C452 1.397 . S
C451 C456 1.363 . S
C452 H429 0.941 1_556 S
C452 C451 1.397 . S
C452 C453 1.334 . S
C453 H430 0.950 . S
C453 C452 1.334 . S
C453 C454 1.287 . S
C454 C453 1.287 . S
C454 C455 1.524 . S
C454 H473 0.913 . S
C455 H431 0.950 . S
C455 C454 1.524 . S
C455 C456 1.415 . S
C456 H432 0.950 . S
C456 C451 1.363 . S
C456 C455 1.415 . S
C457 H433 0.951 . S
C457 C458 1.366 . S
C457 C459 1.388 . S
C458 C457 1.366 . S
C458 C462 1.385 . S
C459 H434 0.951 . S
C459 C457 1.388 . S
C459 C460 1.366 . S
C460 C459 1.366 . S
C460 C461 1.414 . S
C460 C463 1.499 . S
C461 H435 0.950 . S
C461 C460 1.414 . S
C461 C462 1.374 . S
C462 H436 0.950 . S
C462 C458 1.385 . S
C462 C461 1.374 . S
C463 C460 1.499 . S
C463 C464 1.373 . S
C463 C465 1.392 1_556 S
C464 H437 0.950 . S
C464 C450 1.373 . S
C464 C463 1.373 . S
C465 C449 1.373 . S
C465 C463 1.392 1_554 S
C465 C466 1.524 . S
C466 C465 1.524 . S
C466 C467 1.397 . S
C466 C471 1.363 . S
C467 H438 0.941 1_554 S
C467 C466 1.397 . S
C467 C468 1.334 . S
C468 H439 0.950 . S
C468 C467 1.334 . S
C468 C469 1.287 . S
C469 C468 1.287 . S
C469 C470 1.524 . S
C469 H472 0.999 . S
C470 H440 0.950 . S
C470 C469 1.524 . S
C470 C471 1.415 . S
C471 H441 0.950 . S
C471 C466 1.363 . S
C471 C470 1.415 . S
H472 C469 0.999 . S
H473 C454 0.913 . S
H474 C492 0.951 . S
H475 C494 0.951 . S
H476 C496 0.950 . S
H477 C497 0.950 . S
H478 C499 0.950 . S
H479 C502 0.950 . S
H480 C503 0.950 . S
H481 C505 0.950 . S
H482 C506 0.950 . S
H483 C507 0.951 . S
H484 C509 0.951 . S
H485 C511 0.950 . S
H486 C512 0.950 . S
H487 C514 0.950 . S
H488 C517 0.950 . S
H489 C518 0.950 . S
H490 C520 0.950 . S
H491 C521 0.950 . S
C492 H474 0.951 . S
C492 C493 1.366 . S
C492 C494 1.388 . S
C493 C492 1.366 . S
C493 C497 1.385 . S
C494 H475 0.951 . S
C494 C492 1.388 . S
C494 C495 1.366 . S
C495 C494 1.366 . S
C495 C496 1.414 . S
C495 C498 1.499 . S
C496 H476 0.950 . S
C496 C495 1.414 . S
C496 C497 1.374 . S
C497 H477 0.950 . S
C497 C493 1.385 . S
C497 C496 1.374 . S
C498 C495 1.499 . S
C498 C499 1.373 . S
C498 C500 1.389 . S
C499 H478 0.950 . S
C499 C498 1.373 . S
C499 C515 1.377 . S
C500 C498 1.389 . S
C500 C501 1.524 . S
C500 C514 1.377 . S
C501 C500 1.524 . S
C501 C502 1.397 . S
C501 C506 1.363 . S
C502 H479 0.950 . S
C502 C501 1.397 . S
C502 C503 1.334 . S
C503 H480 0.950 . S
C503 C502 1.334 . S
C503 C504 1.287 . S
C504 C503 1.287 . S
C504 C505 1.524 . S
C504 H523 0.913 . S
C505 H481 0.950 . S
C505 C504 1.524 . S
C505 C506 1.415 . S
C506 H482 0.950 . S
C506 C501 1.363 . S
C506 C505 1.415 . S
C507 H483 0.951 . S
C507 C508 1.366 . S
C507 C509 1.388 . S
C508 C507 1.366 . S
C508 C512 1.385 . S
C509 H484 0.951 . S
C509 C507 1.388 . S
C509 C510 1.366 . S
C510 C509 1.366 . S
C510 C511 1.414 . S
C510 C513 1.499 . S
C511 H485 0.950 . S
C511 C510 1.414 . S
C511 C512 1.374 . S
C512 H486 0.950 . S
C512 C508 1.385 . S
C512 C511 1.374 . S
C513 C510 1.499 . S
C513 C514 1.373 . S
C513 C515 1.389 . S
C514 H487 0.950 . S
C514 C500 1.377 . S
C514 C513 1.373 . S
C515 C499 1.377 . S
C515 C513 1.389 . S
C515 C516 1.524 . S
C516 C515 1.524 . S
C516 C517 1.397 . S
C516 C521 1.363 . S
C517 H488 0.950 . S
C517 C516 1.397 . S
C517 C518 1.334 . S
C518 H489 0.950 . S
C518 C517 1.334 . S
C518 C519 1.287 . S
C519 C518 1.287 . S
C519 C520 1.524 . S
C519 H522 0.999 . S
C520 H490 0.950 . S
C520 C519 1.524 . S
C520 C521 1.415 . S
C521 H491 0.950 . S
C521 C516 1.363 . S
C521 C520 1.415 . S
H522 C519 0.999 . S
H523 C504 0.913 . S
H524 C542 0.951 . S
H525 C544 0.951 . S
H526 C546 0.950 . S
H527 C547 0.950 . S
H528 C549 0.950 . S
H529 C552 0.950 . S
H530 C553 0.950 . S
H531 C555 0.950 . S
H532 C556 0.950 . S
H533 C557 0.951 . S
H534 C559 0.951 . S
H535 C561 0.950 . S
H536 C562 0.950 . S
H537 C564 0.950 . S
H538 C567 0.950 . S
H539 C568 0.950 . S
H540 C570 0.950 . S
H541 C571 0.950 . S
C542 H524 0.951 . S
C542 C543 1.366 . S
C542 C544 1.388 . S
C543 C542 1.366 . S
C543 C547 1.385 . S
C544 H525 0.951 . S
C544 C542 1.388 . S
C544 C545 1.366 . S
C545 C544 1.366 . S
C545 C546 1.414 . S
C545 C548 1.499 . S
C546 H526 0.950 . S
C546 C545 1.414 . S
C546 C547 1.374 . S
C547 H527 0.950 . S
C547 C543 1.385 . S
C547 C546 1.374 . S
C548 C545 1.499 . S
C548 C549 1.373 . S
C548 C550 1.389 . S
C549 H528 0.950 . S
C549 C548 1.373 . S
C549 C565 1.377 1_556 S
C550 C548 1.389 . S
C550 C551 1.524 . S
C550 C564 1.377 1_556 S
C551 C550 1.524 . S
C551 C552 1.397 . S
C551 C556 1.363 . S
C552 H529 0.950 . S
C552 C551 1.397 . S
C552 C553 1.334 . S
C553 H530 0.950 . S
C553 C552 1.334 . S
C553 C554 1.287 . S
C554 C553 1.287 . S
C554 C555 1.524 . S
C554 H573 0.913 . S
C555 H531 0.950 . S
C555 C554 1.524 . S
C555 C556 1.415 . S
C556 H532 0.950 . S
C556 C551 1.363 . S
C556 C555 1.415 . S
C557 H533 0.951 . S
C557 C558 1.366 . S
C557 C559 1.388 . S
C558 C557 1.366 . S
C558 C562 1.385 . S
C559 H534 0.951 . S
C559 C557 1.388 . S
C559 C560 1.366 . S
C560 C559 1.366 . S
C560 C561 1.414 . S
C560 C563 1.499 . S
C561 H535 0.950 . S
C561 C560 1.414 . S
C561 C562 1.374 . S
C562 H536 0.950 . S
C562 C558 1.385 . S
C562 C561 1.374 . S
C563 C560 1.499 . S
C563 C564 1.373 . S
C563 C565 1.389 . S
C564 H537 0.950 . S
C564 C550 1.377 1_554 S
C564 C563 1.373 . S
C565 C549 1.377 1_554 S
C565 C563 1.389 . S
C565 C566 1.524 . S
C566 C565 1.524 . S
C566 C567 1.397 . S
C566 C571 1.363 . S
C567 H538 0.950 . S
C567 C566 1.397 . S
C567 C568 1.334 . S
C568 H539 0.950 . S
C568 C567 1.334 . S
C568 C569 1.287 . S
C569 C568 1.287 . S
C569 C570 1.524 . S
C569 H572 0.999 . S
C570 H540 0.950 . S
C570 C569 1.524 . S
C570 C571 1.415 . S
C571 H541 0.950 . S
C571 C566 1.363 . S
C571 C570 1.415 . S
H572 C569 0.999 . S
H573 C554 0.913 . S
H574 C592 0.951 . S
H575 C594 0.951 . S
H576 C596 0.950 . S
H577 C597 0.950 . S
H578 C599 0.950 . S
H579 C602 0.950 . S
H580 C603 0.950 . S
H581 C605 0.950 . S
H582 C606 0.950 . S
H583 C607 0.951 . S
H584 C609 0.951 . S
H585 C611 0.950 . S
H586 C612 0.950 . S
H587 C614 0.950 . S
H588 C617 0.950 . S
H589 C618 0.950 . S
H590 C620 0.950 . S
H591 C621 0.950 . S
C592 H574 0.951 . S
C592 C593 1.366 . S
C592 C594 1.388 . S
C593 C592 1.366 . S
C593 C597 1.385 . S
C594 H575 0.951 . S
C594 C592 1.388 . S
C594 C595 1.366 . S
C595 C594 1.366 . S
C595 C596 1.414 . S
C595 C598 1.499 . S
C596 H576 0.950 . S
C596 C595 1.414 . S
C596 C597 1.374 . S
C597 H577 0.950 . S
C597 C593 1.385 . S
C597 C596 1.374 . S
C598 C595 1.499 . S
C598 C599 1.373 . S
C598 C600 1.389 . S
C599 H578 0.950 . S
C599 C598 1.373 . S
C599 C615 1.377 . S
C600 C598 1.389 . S
C600 C601 1.524 . S
C600 C614 1.377 . S
C601 C600 1.524 . S
C601 C602 1.397 . S
C601 C606 1.363 . S
C602 H579 0.950 . S
C602 C601 1.397 . S
C602 C603 1.334 . S
C603 H580 0.950 . S
C603 C602 1.334 . S
C603 C604 1.287 . S
C604 C603 1.287 . S
C604 C605 1.524 . S
C604 H623 0.913 . S
C605 H581 0.950 . S
C605 C604 1.524 . S
C605 C606 1.415 . S
C606 H582 0.950 . S
C606 C601 1.363 . S
C606 C605 1.415 . S
C607 H583 0.951 . S
C607 C608 1.366 . S
C607 C609 1.388 . S
C608 C607 1.366 . S
C608 C612 1.385 . S
C609 H584 0.951 . S
C609 C607 1.388 . S
C609 C610 1.366 . S
C610 C609 1.366 . S
C610 C611 1.414 . S
C610 C613 1.499 . S
C611 H585 0.950 . S
C611 C610 1.414 . S
C611 C612 1.374 . S
C612 H586 0.950 . S
C612 C608 1.385 . S
C612 C611 1.374 . S
C613 C610 1.499 . S
C613 C614 1.373 . S
C613 C615 1.389 . S
C614 H587 0.950 . S
C614 C600 1.377 . S
C614 C613 1.373 . S
C615 C599 1.377 . S
C615 C613 1.389 . S
C615 C616 1.524 . S
C616 C615 1.524 . S
C616 C617 1.397 . S
C616 C621 1.363 . S
C617 H588 0.950 . S
C617 C616 1.397 . S
C617 C618 1.334 . S
C618 H589 0.950 . S
C618 C617 1.334 . S
C618 C619 1.287 . S
C619 C618 1.287 . S
C619 C620 1.524 . S
C619 H622 0.999 . S
C620 H590 0.950 . S
C620 C619 1.524 . S
C620 C621 1.415 . S
C621 H591 0.950 . S
C621 C616 1.363 . S
C621 C620 1.415 . S
H622 C619 0.999 . S
H623 C604 0.913 . S
H624 C642 0.951 . S
H625 C644 0.951 . S
H626 C646 0.950 . S
H627 C647 0.950 . S
H628 C649 0.950 . S
H629 C652 0.950 . S
H630 C653 0.950 . S
H631 C655 0.950 . S
H632 C656 0.950 . S
H633 C657 0.951 . S
H634 C659 0.951 . S
H635 C661 0.950 . S
H636 C662 0.950 . S
H637 C664 0.950 . S
H638 C667 0.950 . S
H639 C668 0.950 . S
H640 C670 0.950 . S
H641 C671 0.950 . S
C642 H624 0.951 . S
C642 C643 1.366 . S
C642 C644 1.388 . S
C643 C642 1.366 . S
C643 C647 1.385 . S
C644 H625 0.951 . S
C644 C642 1.388 . S
C644 C645 1.366 . S
C645 C644 1.366 . S
C645 C646 1.414 . S
C645 C648 1.499 . S
C646 H626 0.950 . S
C646 C645 1.414 . S
C646 C647 1.374 . S
C647 H627 0.950 . S
C647 C643 1.385 . S
C647 C646 1.374 . S
C648 C645 1.499 . S
C648 C649 1.373 . S
C648 C650 1.389 . S
C649 H628 0.950 . S
C649 C648 1.373 . S
C649 C665 1.377 . S
C650 C648 1.389 . S
C650 C651 1.524 . S
C650 C664 1.377 . S
C651 C650 1.524 . S
C651 C652 1.397 . S
C651 C656 1.363 . S
C652 H629 0.950 . S
C652 C651 1.397 . S
C652 C653 1.334 . S
C653 H630 0.950 . S
C653 C652 1.334 . S
C653 C654 1.287 . S
C654 C653 1.287 . S
C654 C655 1.524 . S
C654 H673 0.913 . S
C655 H631 0.950 . S
C655 C654 1.524 . S
C655 C656 1.415 . S
C656 H632 0.950 . S
C656 C651 1.363 . S
C656 C655 1.415 . S
C657 H633 0.951 . S
C657 C658 1.366 . S
C657 C659 1.388 . S
C658 C657 1.366 . S
C658 C662 1.385 . S
C659 H634 0.951 . S
C659 C657 1.388 . S
C659 C660 1.366 . S
C660 C659 1.366 . S
C660 C661 1.414 . S
C660 C663 1.499 . S
C661 H635 0.950 . S
C661 C660 1.414 . S
C661 C662 1.374 . S
C662 H636 0.950 . S
C662 C658 1.385 . S
C662 C661 1.374 . S
C663 C660 1.499 . S
C663 C664 1.373 . S
C663 C665 1.389 . S
C664 H637 0.950 . S
C664 C650 1.377 . S
C664 C663 1.373 . S
C665 C649 1.377 . S
C665 C663 1.389 . S
C665 C666 1.524 . S
C666 C665 1.524 . S
C666 C667 1.397 . S
C666 C671 1.363 . S
C667 H638 0.950 . S
C667 C666 1.397 . S
C667 C668 1.334 . S
C668 H639 0.950 . S
C668 C667 1.334 . S
C668 C669 1.287 . S
C669 C668 1.287 . S
C669 C670 1.524 . S
C669 H672 0.999 . S
C670 H640 0.950 . S
C670 C669 1.524 . S
C670 C671 1.415 . S
C671 H641 0.950 . S
C671 C666 1.363 . S
C671 C670 1.415 . S
H672 C669 0.999 . S
H673 C654 0.913 . S
H674 C692 0.951 . S
H675 C694 0.951 . S
H676 C696 0.950 . S
H677 C697 0.950 . S
H678 C699 0.950 . S
H679 C702 0.950 . S
H680 C703 0.950 . S
H681 C705 0.950 . S
H682 C706 0.950 . S
H683 C707 0.951 . S
H684 C709 0.951 . S
H685 C711 0.950 . S
H686 C712 0.950 . S
H687 C714 0.950 . S
H688 C717 0.950 . S
H689 C718 0.950 . S
H690 C720 0.950 . S
H691 C721 0.950 . S
C692 H674 0.951 . S
C692 C693 1.366 . S
C692 C694 1.388 . S
C693 C692 1.366 . S
C693 C697 1.385 . S
C694 H675 0.951 . S
C694 C692 1.388 . S
C694 C695 1.366 . S
C695 C694 1.366 . S
C695 C696 1.414 . S
C695 C698 1.499 . S
C696 H676 0.950 . S
C696 C695 1.414 . S
C696 C697 1.374 . S
C697 H677 0.950 . S
C697 C693 1.385 . S
C697 C696 1.374 . S
C698 C695 1.499 . S
C698 C699 1.373 . S
C698 C700 1.389 . S
C699 H678 0.950 . S
C699 C698 1.373 . S
C699 C715 1.377 . S
C700 C698 1.389 . S
C700 C701 1.524 . S
C700 C714 1.377 . S
C701 C700 1.524 . S
C701 C702 1.397 . S
C701 C706 1.363 . S
C702 H679 0.950 . S
C702 C701 1.397 . S
C702 C703 1.334 . S
C703 H680 0.950 . S
C703 C702 1.334 . S
C703 C704 1.287 . S
C704 C703 1.287 . S
C704 C705 1.524 . S
C704 H723 0.913 . S
C705 H681 0.950 . S
C705 C704 1.524 . S
C705 C706 1.415 . S
C706 H682 0.950 . S
C706 C701 1.363 . S
C706 C705 1.415 . S
C707 H683 0.951 . S
C707 C708 1.366 . S
C707 C709 1.388 . S
C708 C707 1.366 . S
C708 C712 1.385 . S
C709 H684 0.951 . S
C709 C707 1.388 . S
C709 C710 1.366 . S
C710 C709 1.366 . S
C710 C711 1.414 . S
C710 C713 1.499 . S
C711 H685 0.950 . S
C711 C710 1.414 . S
C711 C712 1.374 . S
C712 H686 0.950 . S
C712 C708 1.385 . S
C712 C711 1.374 . S
C713 C710 1.499 . S
C713 C714 1.373 . S
C713 C715 1.389 . S
C714 H687 0.950 . S
C714 C700 1.377 . S
C714 C713 1.373 . S
C715 C699 1.377 . S
C715 C713 1.389 . S
C715 C716 1.524 . S
C716 C715 1.524 . S
C716 C717 1.397 . S
C716 C721 1.363 . S
C717 H688 0.950 . S
C717 C716 1.397 . S
C717 C718 1.334 . S
C718 H689 0.950 . S
C718 C717 1.334 . S
C718 C719 1.287 . S
C719 C718 1.287 . S
C719 C720 1.524 . S
C719 H722 0.999 . S
C720 H690 0.950 . S
C720 C719 1.524 . S
C720 C721 1.415 . S
C721 H691 0.950 . S
C721 C716 1.363 . S
C721 C720 1.415 . S
H722 C719 0.999 . S
H723 C704 0.913 . S
H724 C742 0.951 . S
H725 C744 0.951 . S
H726 C746 0.950 . S
H727 C747 0.950 . S
H728 C749 0.950 . S
H729 C752 0.950 . S
H730 C753 0.950 . S
H731 C755 0.950 . S
H732 C756 0.950 . S
H733 C757 0.951 . S
H734 C759 0.951 . S
H735 C761 0.950 . S
H736 C762 0.950 . S
H737 C764 0.950 . S
H738 C767 0.950 . S
H739 C768 0.950 . S
H740 C770 0.950 . S
H741 C771 0.950 . S
C742 H724 0.951 . S
C742 C743 1.366 . S
C742 C744 1.388 . S
C743 C742 1.366 . S
C743 C747 1.385 . S
C744 H725 0.951 . S
C744 C742 1.388 . S
C744 C745 1.366 . S
C745 C744 1.366 . S
C745 C746 1.414 . S
C745 C748 1.499 . S
C746 H726 0.950 . S
C746 C745 1.414 . S
C746 C747 1.374 . S
C747 H727 0.950 . S
C747 C743 1.385 . S
C747 C746 1.374 . S
C748 C745 1.499 . S
C748 C749 1.373 . S
C748 C750 1.389 . S
C749 H728 0.950 . S
C749 C748 1.373 . S
C749 C765 1.377 . S
C750 C748 1.389 . S
C750 C751 1.524 . S
C750 C764 1.377 . S
C751 C750 1.524 . S
C751 C752 1.397 . S
C751 C756 1.363 . S
C752 H729 0.950 . S
C752 C751 1.397 . S
C752 C753 1.334 . S
C753 H730 0.950 . S
C753 C752 1.334 . S
C753 C754 1.287 . S
C754 C753 1.287 . S
C754 C755 1.524 . S
C754 H773 0.913 . S
C755 H731 0.950 . S
C755 C754 1.524 . S
C755 C756 1.415 . S
C756 H732 0.950 . S
C756 C751 1.363 . S
C756 C755 1.415 . S
C757 H733 0.951 . S
C757 C758 1.366 . S
C757 C759 1.388 . S
C758 C757 1.366 . S
C758 C762 1.385 . S
C759 H734 0.951 . S
C759 C757 1.388 . S
C759 C760 1.366 . S
C760 C759 1.366 . S
C760 C761 1.414 . S
C760 C763 1.499 . S
C761 H735 0.950 . S
C761 C760 1.414 . S
C761 C762 1.374 . S
C762 H736 0.950 . S
C762 C758 1.385 . S
C762 C761 1.374 . S
C763 C760 1.499 . S
C763 C764 1.373 . S
C763 C765 1.389 . S
C764 H737 0.950 . S
C764 C750 1.377 . S
C764 C763 1.373 . S
C765 C749 1.377 . S
C765 C763 1.389 . S
C765 C766 1.524 . S
C766 C765 1.524 . S
C766 C767 1.397 . S
C766 C771 1.363 . S
C767 H738 0.950 . S
C767 C766 1.397 . S
C767 C768 1.334 . S
C768 H739 0.950 . S
C768 C767 1.334 . S
C768 C769 1.287 . S
C769 C768 1.287 . S
C769 C770 1.524 . S
C769 H772 0.999 . S
C770 H740 0.950 . S
C770 C769 1.524 . S
C770 C771 1.415 . S
C771 H741 0.950 . S
C771 C766 1.363 . S
C771 C770 1.415 . S
H772 C769 0.999 . S
H773 C754 0.913 . S
H774 C792 0.951 . S
H775 C794 0.951 . S
H776 C796 0.950 . S
H777 C797 0.950 . S
H778 C799 0.950 . S
H779 C802 0.950 . S
H780 C803 0.950 . S
H781 C805 0.950 . S
H782 C806 0.950 . S
H783 C807 0.951 . S
H784 C809 0.951 . S
H785 C811 0.950 . S
H786 C812 0.950 . S
H787 C814 0.950 . S
H788 C817 0.950 . S
H789 C818 0.950 . S
H790 C820 0.950 . S
H791 C821 0.950 . S
C792 H774 0.951 . S
C792 C793 1.366 . S
C792 C794 1.388 . S
C793 C792 1.366 . S
C793 C797 1.385 . S
C794 H775 0.951 . S
C794 C792 1.388 . S
C794 C795 1.366 . S
C795 C794 1.366 . S
C795 C796 1.414 . S
C795 C798 1.499 . S
C796 H776 0.950 . S
C796 C795 1.414 . S
C796 C797 1.374 . S
C797 H777 0.950 . S
C797 C793 1.385 . S
C797 C796 1.374 . S
C798 C795 1.499 . S
C798 C799 1.373 . S
C798 C800 1.389 . S
C799 H778 0.950 . S
C799 C798 1.373 . S
C799 C815 1.377 . S
C800 C798 1.389 . S
C800 C801 1.524 . S
C800 C814 1.377 . S
C801 C800 1.524 . S
C801 C802 1.397 . S
C801 C806 1.363 . S
C802 H779 0.950 . S
C802 C801 1.397 . S
C802 C803 1.334 . S
C803 H780 0.950 . S
C803 C802 1.334 . S
C803 C804 1.287 . S
C804 C803 1.287 . S
C804 C805 1.524 . S
C804 H823 0.913 . S
C805 H781 0.950 . S
C805 C804 1.524 . S
C805 C806 1.415 . S
C806 H782 0.950 . S
C806 C801 1.363 . S
C806 C805 1.415 . S
C807 H783 0.951 . S
C807 C808 1.366 . S
C807 C809 1.388 . S
C808 C807 1.366 . S
C808 C812 1.385 . S
C809 H784 0.951 . S
C809 C807 1.388 . S
C809 C810 1.366 . S
C810 C809 1.366 . S
C810 C811 1.414 . S
C810 C813 1.499 . S
C811 H785 0.950 . S
C811 C810 1.414 . S
C811 C812 1.374 . S
C812 H786 0.950 . S
C812 C808 1.385 . S
C812 C811 1.374 . S
C813 C810 1.499 . S
C813 C814 1.373 . S
C813 C815 1.389 . S
C814 H787 0.950 . S
C814 C800 1.377 . S
C814 C813 1.373 . S
C815 C799 1.377 . S
C815 C813 1.389 . S
C815 C816 1.524 . S
C816 C815 1.524 . S
C816 C817 1.397 . S
C816 C821 1.363 . S
C817 H788 0.950 . S
C817 C816 1.397 . S
C817 C818 1.334 . S
C818 H789 0.950 . S
C818 C817 1.334 . S
C818 C819 1.287 . S
C819 C818 1.287 . S
C819 C820 1.524 . S
C819 H822 0.999 . S
C820 H790 0.950 . S
C820 C819 1.524 . S
C820 C821 1.415 . S
C821 H791 0.950 . S
C821 C816 1.363 . S
C821 C820 1.415 . S
H822 C819 0.999 . S
H823 C804 0.913 . S
H824 C842 0.951 . S
H825 C844 0.951 . S
H826 C846 0.950 . S
H827 C847 0.950 . S
H828 C849 0.950 . S
H829 C852 0.950 . S
H830 C853 0.950 . S
H831 C855 0.950 . S
H832 C856 0.950 . S
H833 C857 0.951 . S
H834 C859 0.951 . S
H835 C861 0.950 . S
H836 C862 0.950 . S
H837 C864 0.950 . S
H838 C867 0.950 . S
H839 C868 0.950 . S
H840 C870 0.950 . S
H841 C871 0.950 . S
C842 H824 0.951 . S
C842 C843 1.366 . S
C842 C844 1.388 . S
C843 C842 1.366 . S
C843 C847 1.385 . S
C844 H825 0.951 . S
C844 C842 1.388 . S
C844 C845 1.366 . S
C845 C844 1.366 . S
C845 C846 1.414 . S
C845 C848 1.499 . S
C846 H826 0.950 . S
C846 C845 1.414 . S
C846 C847 1.374 . S
C847 H827 0.950 . S
C847 C843 1.385 . S
C847 C846 1.374 . S
C848 C845 1.499 . S
C848 C849 1.373 . S
C848 C850 1.389 . S
C849 H828 0.950 . S
C849 C848 1.373 . S
C849 C865 1.377 . S
C850 C848 1.389 . S
C850 C851 1.524 . S
C850 C864 1.377 . S
C851 C850 1.524 . S
C851 C852 1.397 . S
C851 C856 1.363 . S
C852 H829 0.950 . S
C852 C851 1.397 . S
C852 C853 1.334 . S
C853 H830 0.950 . S
C853 C852 1.334 . S
C853 C854 1.287 . S
C854 C853 1.287 . S
C854 C855 1.524 . S
C854 H873 0.913 . S
C855 H831 0.950 . S
C855 C854 1.524 . S
C855 C856 1.415 . S
C856 H832 0.950 . S
C856 C851 1.363 . S
C856 C855 1.415 . S
C857 H833 0.951 . S
C857 C858 1.366 . S
C857 C859 1.388 . S
C858 C857 1.366 . S
C858 C862 1.385 . S
C859 H834 0.951 . S
C859 C857 1.388 . S
C859 C860 1.366 . S
C860 C859 1.366 . S
C860 C861 1.414 . S
C860 C863 1.499 . S
C861 H835 0.950 . S
C861 C860 1.414 . S
C861 C862 1.374 . S
C862 H836 0.950 . S
C862 C858 1.385 . S
C862 C861 1.374 . S
C863 C860 1.499 . S
C863 C864 1.373 . S
C863 C865 1.389 . S
C864 H837 0.950 . S
C864 C850 1.377 . S
C864 C863 1.373 . S
C865 C849 1.377 . S
C865 C863 1.389 . S
C865 C866 1.524 . S
C866 C865 1.524 . S
C866 C867 1.397 . S
C866 C871 1.363 . S
C867 H838 0.950 . S
C867 C866 1.397 . S
C867 C868 1.334 . S
C868 H839 0.950 . S
C868 C867 1.334 . S
C868 C869 1.287 . S
C869 C868 1.287 . S
C869 C870 1.524 . S
C869 H872 0.999 . S
C870 H840 0.950 . S
C870 C869 1.524 . S
C870 C871 1.415 . S
C871 H841 0.950 . S
C871 C866 1.363 . S
C871 C870 1.415 . S
H872 C869 0.999 . S
H873 C854 0.913 . S
H874 C892 0.951 . S
H875 C894 0.951 . S
H876 C896 0.950 . S
H877 C897 0.950 . S
H878 C899 0.950 . S
H879 C902 0.950 . S
H880 C903 0.950 . S
H881 C905 0.950 . S
H882 C906 0.950 . S
H883 C907 0.951 . S
H884 C909 0.951 . S
H885 C911 0.950 . S
H886 C912 0.950 . S
H887 C914 0.950 . S
H888 C917 0.950 . S
H889 C918 0.950 . S
H890 C920 0.950 . S
H891 C921 0.950 . S
C892 H874 0.951 . S
C892 C893 1.366 . S
C892 C894 1.388 . S
C893 C892 1.366 . S
C893 C897 1.385 . S
C894 H875 0.951 . S
C894 C892 1.388 . S
C894 C895 1.366 . S
C895 C894 1.366 . S
C895 C896 1.414 . S
C895 C898 1.499 . S
C896 H876 0.950 . S
C896 C895 1.414 . S
C896 C897 1.374 . S
C897 H877 0.950 . S
C897 C893 1.385 . S
C897 C896 1.374 . S
C898 C895 1.499 . S
C898 C899 1.373 . S
C898 C900 1.389 . S
C899 H878 0.950 . S
C899 C898 1.373 . S
C899 C915 1.377 . S
C900 C898 1.389 . S
C900 C901 1.524 . S
C900 C914 1.377 . S
C901 C900 1.524 . S
C901 C902 1.397 . S
C901 C906 1.363 . S
C902 H879 0.950 . S
C902 C901 1.397 . S
C902 C903 1.334 . S
C903 H880 0.950 . S
C903 C902 1.334 . S
C903 C904 1.287 . S
C904 C903 1.287 . S
C904 C905 1.524 . S
C904 H923 0.913 . S
C905 H881 0.950 . S
C905 C904 1.524 . S
C905 C906 1.415 . S
C906 H882 0.950 . S
C906 C901 1.363 . S
C906 C905 1.415 . S
C907 H883 0.951 . S
C907 C908 1.366 . S
C907 C909 1.388 . S
C908 C907 1.366 . S
C908 C912 1.385 . S
C909 H884 0.951 . S
C909 C907 1.388 . S
C909 C910 1.366 . S
C910 C909 1.366 . S
C910 C911 1.414 . S
C910 C913 1.499 . S
C911 H885 0.950 . S
C911 C910 1.414 . S
C911 C912 1.374 . S
C912 H886 0.950 . S
C912 C908 1.385 . S
C912 C911 1.374 . S
C913 C910 1.499 . S
C913 C914 1.373 . S
C913 C915 1.389 . S
C914 H887 0.950 . S
C914 C900 1.377 . S
C914 C913 1.373 . S
C915 C899 1.377 . S
C915 C913 1.389 . S
C915 C916 1.524 . S
C916 C915 1.524 . S
C916 C917 1.397 . S
C916 C921 1.363 . S
C917 H888 0.950 . S
C917 C916 1.397 . S
C917 C918 1.334 . S
C918 H889 0.950 . S
C918 C917 1.334 . S
C918 C919 1.287 . S
C919 C918 1.287 . S
C919 C920 1.524 . S
C919 H922 0.999 . S
C920 H890 0.950 . S
C920 C919 1.524 . S
C920 C921 1.415 . S
C921 H891 0.950 . S
C921 C916 1.363 . S
C921 C920 1.415 . S
H922 C919 0.999 . S
H923 C904 0.913 . S
H924 C942 0.951 . S
H925 C944 0.951 . S
H926 C946 0.950 . S
H927 C947 0.950 . S
H928 C949 0.950 . S
H929 C952 0.950 . S
H930 C953 0.950 . S
H931 C955 0.950 . S
H932 C956 0.950 . S
H933 C957 0.951 . S
H934 C959 0.951 . S
H935 C961 0.950 . S
H936 C962 0.950 . S
H937 C964 0.950 . S
H938 C967 0.950 . S
H939 C968 0.950 . S
H940 C970 0.950 . S
H941 C971 0.950 . S
C942 H924 0.951 . S
C942 C943 1.366 . S
C942 C944 1.388 . S
C943 C942 1.366 . S
C943 C947 1.385 . S
C944 H925 0.951 . S
C944 C942 1.388 . S
C944 C945 1.366 . S
C945 C944 1.366 . S
C945 C946 1.414 . S
C945 C948 1.499 . S
C946 H926 0.950 . S
C946 C945 1.414 . S
C946 C947 1.374 . S
C947 H927 0.950 . S
C947 C943 1.385 . S
C947 C946 1.374 . S
C948 C945 1.499 . S
C948 C949 1.373 . S
C948 C950 1.389 . S
C949 H928 0.950 . S
C949 C948 1.373 . S
C949 C965 1.377 . S
C950 C948 1.389 . S
C950 C951 1.524 . S
C950 C964 1.377 . S
C951 C950 1.524 . S
C951 C952 1.397 . S
C951 C956 1.363 . S
C952 H929 0.950 . S
C952 C951 1.397 . S
C952 C953 1.334 . S
C953 H930 0.950 . S
C953 C952 1.334 . S
C953 C954 1.287 . S
C954 C953 1.287 . S
C954 C955 1.524 . S
C954 H973 0.913 . S
C955 H931 0.950 . S
C955 C954 1.524 . S
C955 C956 1.415 . S
C956 H932 0.950 . S
C956 C951 1.363 . S
C956 C955 1.415 . S
C957 H933 0.951 . S
C957 C958 1.366 . S
C957 C959 1.388 . S
C958 C957 1.366 . S
C958 C962 1.385 . S
C959 H934 0.951 . S
C959 C957 1.388 . S
C959 C960 1.366 . S
C960 C959 1.366 . S
C960 C961 1.414 . S
C960 C963 1.499 . S
C961 H935 0.950 . S
C961 C960 1.414 . S
C961 C962 1.374 . S
C962 H936 0.950 . S
C962 C958 1.385 . S
C962 C961 1.374 . S
C963 C960 1.499 . S
C963 C964 1.373 . S
C963 C965 1.389 . S
C964 H937 0.950 . S
C964 C950 1.377 . S
C964 C963 1.373 . S
C965 C949 1.377 . S
C965 C963 1.389 . S
C965 C966 1.524 . S
C966 C965 1.524 . S
C966 C967 1.397 . S
C966 C971 1.363 . S
C967 H938 0.950 . S
C967 C966 1.397 . S
C967 C968 1.334 . S
C968 H939 0.950 . S
C968 C967 1.334 . S
C968 C969 1.287 . S
C969 C968 1.287 . S
C969 C970 1.524 . S
C969 H972 0.999 . S
C970 H940 0.950 . S
C970 C969 1.524 . S
C970 C971 1.415 . S
C971 H941 0.950 . S
C971 C966 1.363 . S
C971 C970 1.415 . S
H972 C969 0.999 . S
H973 C954 0.913 . S
H974 C992 0.951 . S
H975 C994 0.951 . S
H976 C996 0.950 . S
H977 C997 0.950 . S
H978 C999 0.950 . S
H979 C1002 0.950 . S
H980 C1003 0.950 . S
H981 C1005 0.950 . S
H982 C1006 0.950 . S
H983 C1007 0.951 . S
H984 C1009 0.951 . S
H985 C1011 0.950 . S
H986 C1012 0.950 . S
H987 C1014 0.950 . S
H988 C1017 0.950 . S
H989 C1018 0.950 . S
H990 C1020 0.950 . S
H991 C1021 0.950 . S
C992 H974 0.951 . S
C992 C993 1.366 . S
C992 C994 1.388 . S
C993 C992 1.366 . S
C993 C997 1.385 . S
C994 H975 0.951 . S
C994 C992 1.388 . S
C994 C995 1.366 . S
C995 C994 1.366 . S
C995 C996 1.414 . S
C995 C998 1.499 . S
C996 H976 0.950 . S
C996 C995 1.414 . S
C996 C997 1.374 . S
C997 H977 0.950 . S
C997 C993 1.385 . S
C997 C996 1.374 . S
C998 C995 1.499 . S
C998 C999 1.373 . S
C998 C1000 1.389 . S
C999 H978 0.950 . S
C999 C998 1.373 . S
C999 C1015 1.377 . S
C1000 C998 1.389 . S
C1000 C1001 1.524 . S
C1000 C1014 1.377 . S
C1001 C1000 1.524 . S
C1001 C1002 1.397 . S
C1001 C1006 1.363 . S
C1002 H979 0.950 . S
C1002 C1001 1.397 . S
C1002 C1003 1.334 . S
C1003 H980 0.950 . S
C1003 C1002 1.334 . S
C1003 C1004 1.287 . S
C1004 C1003 1.287 . S
C1004 C1005 1.524 . S
C1004 H1023 0.913 . S
C1005 H981 0.950 . S
C1005 C1004 1.524 . S
C1005 C1006 1.415 . S
C1006 H982 0.950 . S
C1006 C1001 1.363 . S
C1006 C1005 1.415 . S
C1007 H983 0.951 . S
C1007 C1008 1.366 . S
C1007 C1009 1.388 . S
C1008 C1007 1.366 . S
C1008 C1012 1.385 . S
C1009 H984 0.951 . S
C1009 C1007 1.388 . S
C1009 C1010 1.366 . S
C1010 C1009 1.366 . S
C1010 C1011 1.414 . S
C1010 C1013 1.499 . S
C1011 H985 0.950 . S
C1011 C1010 1.414 . S
C1011 C1012 1.374 . S
C1012 H986 0.950 . S
C1012 C1008 1.385 . S
C1012 C1011 1.374 . S
C1013 C1010 1.499 . S
C1013 C1014 1.373 . S
C1013 C1015 1.389 . S
C1014 H987 0.950 . S
C1014 C1000 1.377 . S
C1014 C1013 1.373 . S
C1015 C999 1.377 . S
C1015 C1013 1.389 . S
C1015 C1016 1.524 . S
C1016 C1015 1.524 . S
C1016 C1017 1.397 . S
C1016 C1021 1.363 . S
C1017 H988 0.950 . S
C1017 C1016 1.397 . S
C1017 C1018 1.334 . S
C1018 H989 0.950 . S
C1018 C1017 1.334 . S
C1018 C1019 1.287 . S
C1019 C1018 1.287 . S
C1019 C1020 1.524 . S
C1019 H1022 0.999 . S
C1020 H990 0.950 . S
C1020 C1019 1.524 . S
C1020 C1021 1.415 . S
C1021 H991 0.950 . S
C1021 C1016 1.363 . S
C1021 C1020 1.415 . S
H1022 C1019 0.999 . S
H1023 C1004 0.913 . S
H1024 C1042 0.951 . S
H1025 C1044 0.951 . S
H1026 C1046 0.950 . S
H1027 C1047 0.950 . S
H1028 C1049 0.950 . S
H1029 C1052 0.950 . S
H1030 C1053 0.950 . S
H1031 C1055 0.950 . S
H1032 C1056 0.950 . S
H1033 C1057 0.951 . S
H1034 C1059 0.951 . S
H1035 C1061 0.950 . S
H1036 C1062 0.950 . S
H1037 C1064 0.950 . S
H1038 C1067 0.950 . S
H1039 C1068 0.950 . S
H1040 C1070 0.950 . S
H1041 C1071 0.950 . S
C1042 H1024 0.951 . S
C1042 C1043 1.366 . S
C1042 C1044 1.388 . S
C1043 C1042 1.366 . S
C1043 C1047 1.385 . S
C1044 H1025 0.951 . S
C1044 C1042 1.388 . S
C1044 C1045 1.366 . S
C1045 C1044 1.366 . S
C1045 C1046 1.414 . S
C1045 C1048 1.499 . S
C1046 H1026 0.950 . S
C1046 C1045 1.414 . S
C1046 C1047 1.374 . S
C1047 H1027 0.950 . S
C1047 C1043 1.385 . S
C1047 C1046 1.374 . S
C1048 C1045 1.499 . S
C1048 C1049 1.373 . S
C1048 C1050 1.389 . S
C1049 H1028 0.950 . S
C1049 C1048 1.373 . S
C1049 C1065 1.377 . S
C1050 C1048 1.389 . S
C1050 C1051 1.524 . S
C1050 C1064 1.377 . S
C1051 C1050 1.524 . S
C1051 C1052 1.397 . S
C1051 C1056 1.363 . S
C1052 H1029 0.950 . S
C1052 C1051 1.397 . S
C1052 C1053 1.334 . S
C1053 H1030 0.950 . S
C1053 C1052 1.334 . S
C1053 C1054 1.287 . S
C1054 C1053 1.287 . S
C1054 C1055 1.524 . S
C1054 H1073 0.913 . S
C1055 H1031 0.950 . S
C1055 C1054 1.524 . S
C1055 C1056 1.415 . S
C1056 H1032 0.950 . S
C1056 C1051 1.363 . S
C1056 C1055 1.415 . S
C1057 H1033 0.951 . S
C1057 C1058 1.366 . S
C1057 C1059 1.388 . S
C1058 C1057 1.366 . S
C1058 C1062 1.385 . S
C1059 H1034 0.951 . S
C1059 C1057 1.388 . S
C1059 C1060 1.366 . S
C1060 C1059 1.366 . S
C1060 C1061 1.414 . S
C1060 C1063 1.499 . S
C1061 H1035 0.950 . S
C1061 C1060 1.414 . S
C1061 C1062 1.374 . S
C1062 H1036 0.950 . S
C1062 C1058 1.385 . S
C1062 C1061 1.374 . S
C1063 C1060 1.499 . S
C1063 C1064 1.373 . S
C1063 C1065 1.389 . S
C1064 H1037 0.950 . S
C1064 C1050 1.377 . S
C1064 C1063 1.373 . S
C1065 C1049 1.377 . S
C1065 C1063 1.389 . S
C1065 C1066 1.524 . S
C1066 C1065 1.524 . S
C1066 C1067 1.397 . S
C1066 C1071 1.363 . S
C1067 H1038 0.950 . S
C1067 C1066 1.397 . S
C1067 C1068 1.334 1_545 S
C1068 H1039 0.950 . S
C1068 C1067 1.334 1_565 S
C1068 C1069 1.287 . S
C1069 C1068 1.287 . S
C1069 C1070 1.524 . S
C1069 H1072 0.999 . S
C1070 H1040 0.950 . S
C1070 C1069 1.524 . S
C1070 C1071 1.415 1_565 S
C1071 H1041 0.950 . S
C1071 C1066 1.363 . S
C1071 C1070 1.415 1_545 S
H1072 C1069 0.999 . S
H1073 C1054 0.913 . S
H1074 C1092 0.951 . S
H1075 C1094 0.951 . S
H1076 C1096 0.950 . S
H1077 C1097 0.950 . S
H1078 C1099 0.950 . S
H1079 C1102 0.950 . S
H1080 C1103 0.950 . S
H1081 C1105 0.950 . S
H1082 C1106 0.950 . S
H1083 C1107 0.951 . S
H1084 C1109 0.951 . S
H1085 C1111 0.950 . S
H1086 C1112 0.950 . S
H1087 C1114 0.950 . S
H1088 C1117 0.950 . S
H1089 C1118 0.950 . S
H1090 C1120 0.950 . S
H1091 C1121 0.950 . S
C1092 H1074 0.951 . S
C1092 C1093 1.366 . S
C1092 C1094 1.388 . S
C1093 C1092 1.366 . S
C1093 C1097 1.385 . S
C1094 H1075 0.951 . S
C1094 C1092 1.388 . S
C1094 C1095 1.366 . S
C1095 C1094 1.366 . S
C1095 C1096 1.414 . S
C1095 C1098 1.499 . S
C1096 H1076 0.950 . S
C1096 C1095 1.414 . S
C1096 C1097 1.374 . S
C1097 H1077 0.950 . S
C1097 C1093 1.385 . S
C1097 C1096 1.374 . S
C1098 C1095 1.499 . S
C1098 C1099 1.373 . S
C1098 C1100 1.389 . S
C1099 H1078 0.950 . S
C1099 C1098 1.373 . S
C1099 C1115 1.377 . S
C1100 C1098 1.389 . S
C1100 C1101 1.524 . S
C1100 C1114 1.377 . S
C1101 C1100 1.524 . S
C1101 C1102 1.397 . S
C1101 C1106 1.363 . S
C1102 H1079 0.950 . S
C1102 C1101 1.397 . S
C1102 C1103 1.334 . S
C1103 H1080 0.950 . S
C1103 C1102 1.334 . S
C1103 C1104 1.287 . S
C1104 C1103 1.287 . S
C1104 C1105 1.524 . S
C1104 H1123 0.913 . S
C1105 H1081 0.950 . S
C1105 C1104 1.524 . S
C1105 C1106 1.415 . S
C1106 H1082 0.950 . S
C1106 C1101 1.363 . S
C1106 C1105 1.415 . S
C1107 H1083 0.951 . S
C1107 C1108 1.366 . S
C1107 C1109 1.388 . S
C1108 C1107 1.366 . S
C1108 C1112 1.385 . S
C1109 H1084 0.951 . S
C1109 C1107 1.388 . S
C1109 C1110 1.366 . S
C1110 C1109 1.366 . S
C1110 C1111 1.414 . S
C1110 C1113 1.499 . S
C1111 H1085 0.950 . S
C1111 C1110 1.414 . S
C1111 C1112 1.374 . S
C1112 H1086 0.950 . S
C1112 C1108 1.385 . S
C1112 C1111 1.374 . S
C1113 C1110 1.499 . S
C1113 C1114 1.373 . S
C1113 C1115 1.389 . S
C1114 H1087 0.950 . S
C1114 C1100 1.377 . S
C1114 C1113 1.373 . S
C1115 C1099 1.377 . S
C1115 C1113 1.389 . S
C1115 C1116 1.524 . S
C1116 C1115 1.524 . S
C1116 C1117 1.397 . S
C1116 C1121 1.363 . S
C1117 H1088 0.950 . S
C1117 C1116 1.397 . S
C1117 C1118 1.334 . S
C1118 H1089 0.950 . S
C1118 C1117 1.334 . S
C1118 C1119 1.287 . S
C1119 C1118 1.287 . S
C1119 C1120 1.524 . S
C1119 H1122 0.999 . S
C1120 H1090 0.950 . S
C1120 C1119 1.524 . S
C1120 C1121 1.415 . S
C1121 H1091 0.950 . S
C1121 C1116 1.363 . S
C1121 C1120 1.415 . S
H1122 C1119 0.999 . S
H1123 C1104 0.913 . S
H1124 C1142 0.951 . S
H1125 C1144 0.951 . S
H1126 C1146 0.950 . S
H1127 C1147 0.950 . S
H1128 C1149 0.950 . S
H1129 C1152 0.950 . S
H1130 C1153 0.950 . S
H1131 C1155 0.950 . S
H1132 C1156 0.950 . S
H1133 C1157 0.951 . S
H1134 C1159 0.951 . S
H1135 C1161 0.950 . S
H1136 C1162 0.950 . S
H1137 C1164 0.950 . S
H1138 C1167 0.950 . S
H1139 C1168 0.950 . S
H1140 C1170 0.950 . S
H1141 C1171 0.950 . S
C1142 H1124 0.951 . S
C1142 C1143 1.366 . S
C1142 C1144 1.388 . S
C1143 C1142 1.366 . S
C1143 C1147 1.385 . S
C1144 H1125 0.951 . S
C1144 C1142 1.388 . S
C1144 C1145 1.366 . S
C1145 C1144 1.366 . S
C1145 C1146 1.414 . S
C1145 C1148 1.499 . S
C1146 H1126 0.950 . S
C1146 C1145 1.414 . S
C1146 C1147 1.374 . S
C1147 H1127 0.950 . S
C1147 C1143 1.385 . S
C1147 C1146 1.374 . S
C1148 C1145 1.499 . S
C1148 C1149 1.373 . S
C1148 C1150 1.389 . S
C1149 H1128 0.950 . S
C1149 C1148 1.373 . S
C1149 C1165 1.377 . S
C1150 C1148 1.389 . S
C1150 C1151 1.524 . S
C1150 C1164 1.377 . S
C1151 C1150 1.524 . S
C1151 C1152 1.397 . S
C1151 C1156 1.363 . S
C1152 H1129 0.950 . S
C1152 C1151 1.397 . S
C1152 C1153 1.334 . S
C1153 H1130 0.950 . S
C1153 C1152 1.334 . S
C1153 C1154 1.287 . S
C1154 C1153 1.287 . S
C1154 C1155 1.524 . S
C1154 H1173 0.913 . S
C1155 H1131 0.950 . S
C1155 C1154 1.524 . S
C1155 C1156 1.415 . S
C1156 H1132 0.950 . S
C1156 C1151 1.363 . S
C1156 C1155 1.415 . S
C1157 H1133 0.951 . S
C1157 C1158 1.366 . S
C1157 C1159 1.388 . S
C1158 C1157 1.366 . S
C1158 C1162 1.385 . S
C1159 H1134 0.951 . S
C1159 C1157 1.388 . S
C1159 C1160 1.366 . S
C1160 C1159 1.366 . S
C1160 C1161 1.414 . S
C1160 C1163 1.499 . S
C1161 H1135 0.950 . S
C1161 C1160 1.414 . S
C1161 C1162 1.374 . S
C1162 H1136 0.950 . S
C1162 C1158 1.385 . S
C1162 C1161 1.374 . S
C1163 C1160 1.499 . S
C1163 C1164 1.373 . S
C1163 C1165 1.389 . S
C1164 H1137 0.950 . S
C1164 C1150 1.377 . S
C1164 C1163 1.373 . S
C1165 C1149 1.377 . S
C1165 C1163 1.389 . S
C1165 C1166 1.524 . S
C1166 C1165 1.524 . S
C1166 C1167 1.397 . S
C1166 C1171 1.363 . S
C1167 H1138 0.950 . S
C1167 C1166 1.397 . S
C1167 C1168 1.334 . S
C1168 H1139 0.950 . S
C1168 C1167 1.334 . S
C1168 C1169 1.287 . S
C1169 C1168 1.287 . S
C1169 C1170 1.524 . S
C1169 H1172 0.999 . S
C1170 H1140 0.950 . S
C1170 C1169 1.524 . S
C1170 C1171 1.415 . S
C1171 H1141 0.950 . S
C1171 C1166 1.363 . S
C1171 C1170 1.415 . S
H1172 C1169 0.999 . S
H1173 C1154 0.913 . S
H1174 C1192 0.951 . S
H1175 C1194 0.951 . S
H1176 C1196 0.950 . S
H1177 C1197 0.950 . S
H1178 C1199 0.950 . S
H1179 C1202 0.950 . S
H1180 C1203 0.950 . S
H1181 C1205 0.950 . S
H1182 C1206 0.950 . S
H1183 C1207 0.951 . S
H1184 C1209 0.951 . S
H1185 C1211 0.950 . S
H1186 C1212 0.950 . S
H1187 C1214 0.950 . S
H1188 C1217 0.950 . S
H1189 C1218 0.950 . S
H1190 C1220 0.950 . S
H1191 C1221 0.950 . S
C1192 H1174 0.951 . S
C1192 C1193 1.366 . S
C1192 C1194 1.388 . S
C1193 C1192 1.366 . S
C1193 C1197 1.385 . S
C1194 H1175 0.951 . S
C1194 C1192 1.388 . S
C1194 C1195 1.366 . S
C1195 C1194 1.366 . S
C1195 C1196 1.414 . S
C1195 C1198 1.499 . S
C1196 H1176 0.950 . S
C1196 C1195 1.414 . S
C1196 C1197 1.374 . S
C1197 H1177 0.950 . S
C1197 C1193 1.385 . S
C1197 C1196 1.374 . S
C1198 C1195 1.499 . S
C1198 C1199 1.373 . S
C1198 C1200 1.389 . S
C1199 H1178 0.950 . S
C1199 C1198 1.373 . S
C1199 C1215 1.377 . S
C1200 C1198 1.389 . S
C1200 C1201 1.524 . S
C1200 C1214 1.377 . S
C1201 C1200 1.524 . S
C1201 C1202 1.397 . S
C1201 C1206 1.363 . S
C1202 H1179 0.950 . S
C1202 C1201 1.397 . S
C1202 C1203 1.334 . S
C1203 H1180 0.950 . S
C1203 C1202 1.334 . S
C1203 C1204 1.287 . S
C1204 C1203 1.287 . S
C1204 C1205 1.524 . S
C1204 H1223 0.913 . S
C1205 H1181 0.950 . S
C1205 C1204 1.524 . S
C1205 C1206 1.415 . S
C1206 H1182 0.950 . S
C1206 C1201 1.363 . S
C1206 C1205 1.415 . S
C1207 H1183 0.951 . S
C1207 C1208 1.366 . S
C1207 C1209 1.388 . S
C1208 C1207 1.366 . S
C1208 C1212 1.385 . S
C1209 H1184 0.951 . S
C1209 C1207 1.388 . S
C1209 C1210 1.366 . S
C1210 C1209 1.366 . S
C1210 C1211 1.414 . S
C1210 C1213 1.499 . S
C1211 H1185 0.950 . S
C1211 C1210 1.414 . S
C1211 C1212 1.374 . S
C1212 H1186 0.950 . S
C1212 C1208 1.385 . S
C1212 C1211 1.374 . S
C1213 C1210 1.499 . S
C1213 C1214 1.373 . S
C1213 C1215 1.389 . S
C1214 H1187 0.950 . S
C1214 C1200 1.377 . S
C1214 C1213 1.373 . S
C1215 C1199 1.377 . S
C1215 C1213 1.389 . S
C1215 C1216 1.524 . S
C1216 C1215 1.524 . S
C1216 C1217 1.397 . S
C1216 C1221 1.363 . S
C1217 H1188 0.950 . S
C1217 C1216 1.397 . S
C1217 C1218 1.334 . S
C1218 H1189 0.950 . S
C1218 C1217 1.334 . S
C1218 C1219 1.287 . S
C1219 C1218 1.287 . S
C1219 C1220 1.524 . S
C1219 H1222 0.999 . S
C1220 H1190 0.950 . S
C1220 C1219 1.524 . S
C1220 C1221 1.415 . S
C1221 H1191 0.950 . S
C1221 C1216 1.363 . S
C1221 C1220 1.415 . S
H1222 C1219 0.999 . S
H1223 C1204 0.913 . S
H1224 C1242 0.951 . S
H1225 C1244 0.951 . S
H1226 C1246 0.950 . S
H1227 C1247 0.950 . S
H1228 C1249 0.950 . S
H1229 C1252 0.950 . S
H1230 C1253 0.950 . S
H1231 C1255 0.950 . S
H1232 C1256 0.950 . S
H1233 C1257 0.951 . S
H1234 C1259 0.951 . S
H1235 C1261 0.950 . S
H1236 C1262 0.950 . S
H1237 C1264 0.950 . S
H1238 C1267 0.950 . S
H1239 C1268 0.950 . S
H1240 C1270 0.950 . S
H1241 C1271 0.950 . S
C1242 H1224 0.951 . S
C1242 C1243 1.366 . S
C1242 C1244 1.388 . S
C1243 C1242 1.366 . S
C1243 C1247 1.385 . S
C1244 H1225 0.951 . S
C1244 C1242 1.388 . S
C1244 C1245 1.366 . S
C1245 C1244 1.366 . S
C1245 C1246 1.414 . S
C1245 C1248 1.499 . S
C1246 H1226 0.950 . S
C1246 C1245 1.414 . S
C1246 C1247 1.374 . S
C1247 H1227 0.950 . S
C1247 C1243 1.385 . S
C1247 C1246 1.374 . S
C1248 C1245 1.499 . S
C1248 C1249 1.373 . S
C1248 C1250 1.389 . S
C1249 H1228 0.950 . S
C1249 C1248 1.373 . S
C1249 C1265 1.377 . S
C1250 C1248 1.389 . S
C1250 C1251 1.524 . S
C1250 C1264 1.377 . S
C1251 C1250 1.524 . S
C1251 C1252 1.397 . S
C1251 C1256 1.363 . S
C1252 H1229 0.950 . S
C1252 C1251 1.397 . S
C1252 C1253 1.334 . S
C1253 H1230 0.950 . S
C1253 C1252 1.334 . S
C1253 C1254 1.287 . S
C1254 C1253 1.287 . S
C1254 C1255 1.524 . S
C1254 H1273 0.913 . S
C1255 H1231 0.950 . S
C1255 C1254 1.524 . S
C1255 C1256 1.415 . S
C1256 H1232 0.950 . S
C1256 C1251 1.363 . S
C1256 C1255 1.415 . S
C1257 H1233 0.951 . S
C1257 C1258 1.366 . S
C1257 C1259 1.388 . S
C1258 C1257 1.366 . S
C1258 C1262 1.385 . S
C1259 H1234 0.951 . S
C1259 C1257 1.388 . S
C1259 C1260 1.366 . S
C1260 C1259 1.366 . S
C1260 C1261 1.414 . S
C1260 C1263 1.499 . S
C1261 H1235 0.950 . S
C1261 C1260 1.414 . S
C1261 C1262 1.374 . S
C1262 H1236 0.950 . S
C1262 C1258 1.385 . S
C1262 C1261 1.374 . S
C1263 C1260 1.499 . S
C1263 C1264 1.373 . S
C1263 C1265 1.389 . S
C1264 H1237 0.950 . S
C1264 C1250 1.377 . S
C1264 C1263 1.373 . S
C1265 C1249 1.377 . S
C1265 C1263 1.389 . S
C1265 C1266 1.524 . S
C1266 C1265 1.524 . S
C1266 C1267 1.397 . S
C1266 C1271 1.363 . S
C1267 H1238 0.950 . S
C1267 C1266 1.397 . S
C1267 C1268 1.334 . S
C1268 H1239 0.950 . S
C1268 C1267 1.334 . S
C1268 C1269 1.287 . S
C1269 C1268 1.287 . S
C1269 C1270 1.524 1_565 S
C1269 H1272 0.976 1_565 S
C1270 H1240 0.950 . S
C1270 C1269 1.524 1_545 S
C1270 C1271 1.415 1_545 S
C1271 H1241 0.950 . S
C1271 C1266 1.363 . S
C1271 C1270 1.415 1_565 S
H1272 C1269 0.976 1_545 S
H1273 C1254 0.913 . S
H1274 C1292 0.951 . S
H1275 C1294 0.951 . S
H1276 C1296 0.950 . S
H1277 C1297 0.950 . S
H1278 C1299 0.950 . S
H1279 C1302 0.950 . S
H1280 C1303 0.950 . S
H1281 C1305 0.950 . S
H1282 C1306 0.950 . S
H1283 C1307 0.951 . S
H1284 C1309 0.951 . S
H1285 C1311 0.950 . S
H1286 C1312 0.950 . S
H1287 C1314 0.950 . S
H1288 C1317 0.950 . S
H1289 C1318 0.950 . S
H1290 C1320 0.950 . S
H1291 C1321 0.950 . S
C1292 H1274 0.951 . S
C1292 C1293 1.366 . S
C1292 C1294 1.388 . S
C1293 C1292 1.366 . S
C1293 C1297 1.385 . S
C1294 H1275 0.951 . S
C1294 C1292 1.388 . S
C1294 C1295 1.366 . S
C1295 C1294 1.366 . S
C1295 C1296 1.414 . S
C1295 C1298 1.499 . S
C1296 H1276 0.950 . S
C1296 C1295 1.414 . S
C1296 C1297 1.374 . S
C1297 H1277 0.950 . S
C1297 C1293 1.385 . S
C1297 C1296 1.374 . S
C1298 C1295 1.499 . S
C1298 C1299 1.373 . S
C1298 C1300 1.389 . S
C1299 H1278 0.950 . S
C1299 C1298 1.373 . S
C1299 C1315 1.377 . S
C1300 C1298 1.389 . S
C1300 C1301 1.524 . S
C1300 C1314 1.377 . S
C1301 C1300 1.524 . S
C1301 C1302 1.397 . S
C1301 C1306 1.363 . S
C1302 H1279 0.950 . S
C1302 C1301 1.397 . S
C1302 C1303 1.334 . S
C1303 H1280 0.950 . S
C1303 C1302 1.334 . S
C1303 C1304 1.287 . S
C1304 C1303 1.287 . S
C1304 C1305 1.524 . S
C1304 H1323 0.913 . S
C1305 H1281 0.950 . S
C1305 C1304 1.524 . S
C1305 C1306 1.415 . S
C1306 H1282 0.950 . S
C1306 C1301 1.363 . S
C1306 C1305 1.415 . S
C1307 H1283 0.951 . S
C1307 C1308 1.366 . S
C1307 C1309 1.388 . S
C1308 C1307 1.366 . S
C1308 C1312 1.385 . S
C1309 H1284 0.951 . S
C1309 C1307 1.388 . S
C1309 C1310 1.366 . S
C1310 C1309 1.366 . S
C1310 C1311 1.414 . S
C1310 C1313 1.499 . S
C1311 H1285 0.950 . S
C1311 C1310 1.414 . S
C1311 C1312 1.374 . S
C1312 H1286 0.950 . S
C1312 C1308 1.385 . S
C1312 C1311 1.374 . S
C1313 C1310 1.499 . S
C1313 C1314 1.373 . S
C1313 C1315 1.389 . S
C1314 H1287 0.950 . S
C1314 C1300 1.377 . S
C1314 C1313 1.373 . S
C1315 C1299 1.377 . S
C1315 C1313 1.389 . S
C1315 C1316 1.524 . S
C1316 C1315 1.524 . S
C1316 C1317 1.397 . S
C1316 C1321 1.363 . S
C1317 H1288 0.950 . S
C1317 C1316 1.397 . S
C1317 C1318 1.334 . S
C1318 H1289 0.950 . S
C1318 C1317 1.334 . S
C1318 C1319 1.287 . S
C1319 C1318 1.287 . S
C1319 C1320 1.524 . S
C1319 H1322 0.999 . S
C1320 H1290 0.950 . S
C1320 C1319 1.524 . S
C1320 C1321 1.415 . S
C1321 H1291 0.950 . S
C1321 C1316 1.363 . S
C1321 C1320 1.415 . S
H1322 C1319 0.999 . S
H1323 C1304 0.913 . S
H1324 C1342 0.951 . S
H1325 C1344 0.951 . S
H1326 C1346 0.950 . S
H1327 C1347 0.950 . S
H1328 C1349 0.950 . S
H1329 C1352 0.950 . S
H1330 C1353 0.950 . S
H1331 C1355 0.950 . S
H1332 C1356 0.950 . S
H1333 C1357 0.951 . S
H1334 C1359 0.951 . S
H1335 C1361 0.950 . S
H1336 C1362 0.950 . S
H1337 C1364 0.950 . S
H1338 C1367 0.950 . S
H1339 C1368 0.950 . S
H1340 C1370 0.950 . S
H1341 C1371 0.950 . S
C1342 H1324 0.951 . S
C1342 C1343 1.366 . S
C1342 C1344 1.388 . S
C1343 C1342 1.366 . S
C1343 C1347 1.385 . S
C1344 H1325 0.951 . S
C1344 C1342 1.388 . S
C1344 C1345 1.366 . S
C1345 C1344 1.366 . S
C1345 C1346 1.414 . S
C1345 C1348 1.499 . S
C1346 H1326 0.950 . S
C1346 C1345 1.414 . S
C1346 C1347 1.374 . S
C1347 H1327 0.950 . S
C1347 C1343 1.385 . S
C1347 C1346 1.374 . S
C1348 C1345 1.499 . S
C1348 C1349 1.373 . S
C1348 C1350 1.389 . S
C1349 H1328 0.950 . S
C1349 C1348 1.373 . S
C1349 C1365 1.377 . S
C1350 C1348 1.389 . S
C1350 C1351 1.524 . S
C1350 C1364 1.377 . S
C1351 C1350 1.524 . S
C1351 C1352 1.397 . S
C1351 C1356 1.363 . S
C1352 H1329 0.950 . S
C1352 C1351 1.397 . S
C1352 C1353 1.334 . S
C1353 H1330 0.950 . S
C1353 C1352 1.334 . S
C1353 C1354 1.287 . S
C1354 C1353 1.287 . S
C1354 C1355 1.524 . S
C1354 H1373 0.913 . S
C1355 H1331 0.950 . S
C1355 C1354 1.524 . S
C1355 C1356 1.415 . S
C1356 H1332 0.950 . S
C1356 C1351 1.363 . S
C1356 C1355 1.415 . S
C1357 H1333 0.951 . S
C1357 C1358 1.366 . S
C1357 C1359 1.388 . S
C1358 C1357 1.366 . S
C1358 C1362 1.385 . S
C1359 H1334 0.951 . S
C1359 C1357 1.388 . S
C1359 C1360 1.366 . S
C1360 C1359 1.366 . S
C1360 C1361 1.414 . S
C1360 C1363 1.499 . S
C1361 H1335 0.950 . S
C1361 C1360 1.414 . S
C1361 C1362 1.374 . S
C1362 H1336 0.950 . S
C1362 C1358 1.385 . S
C1362 C1361 1.374 . S
C1363 C1360 1.499 . S
C1363 C1364 1.373 . S
C1363 C1365 1.389 . S
C1364 H1337 0.950 . S
C1364 C1350 1.377 . S
C1364 C1363 1.373 . S
C1365 C1349 1.377 . S
C1365 C1363 1.389 . S
C1365 C1366 1.524 . S
C1366 C1365 1.524 . S
C1366 C1367 1.397 . S
C1366 C1371 1.363 . S
C1367 H1338 0.950 . S
C1367 C1366 1.397 . S
C1367 C1368 1.334 . S
C1368 H1339 0.950 . S
C1368 C1367 1.334 . S
C1368 C1369 1.287 . S
C1369 C1368 1.287 . S
C1369 C1370 1.524 . S
C1369 H1372 0.999 . S
C1370 H1340 0.950 . S
C1370 C1369 1.524 . S
C1370 C1371 1.415 . S
C1371 H1341 0.950 . S
C1371 C1366 1.363 . S
C1371 C1370 1.415 . S
H1372 C1369 0.999 . S
H1373 C1354 0.913 . S
H1374 C1392 0.951 . S
H1375 C1394 0.951 . S
H1376 C1396 0.950 . S
H1377 C1397 0.950 . S
H1378 C1399 0.950 . S
H1379 C1402 0.950 . S
H1380 C1403 0.950 . S
H1381 C1405 0.950 . S
H1382 C1406 0.950 . S
H1383 C1407 0.951 . S
H1384 C1409 0.951 . S
H1385 C1411 0.950 . S
H1386 C1412 0.950 . S
H1387 C1414 0.950 . S
H1388 C1417 0.950 . S
H1389 C1418 0.950 . S
H1390 C1420 0.950 . S
H1391 C1421 0.950 . S
C1392 H1374 0.951 . S
C1392 C1393 1.366 . S
C1392 C1394 1.388 . S
C1393 C1392 1.366 . S
C1393 C1397 1.385 . S
C1394 H1375 0.951 . S
C1394 C1392 1.388 . S
C1394 C1395 1.366 . S
C1395 C1394 1.366 . S
C1395 C1396 1.414 . S
C1395 C1398 1.499 . S
C1396 H1376 0.950 . S
C1396 C1395 1.414 . S
C1396 C1397 1.374 . S
C1397 H1377 0.950 . S
C1397 C1393 1.385 . S
C1397 C1396 1.374 . S
C1398 C1395 1.499 . S
C1398 C1399 1.373 . S
C1398 C1400 1.389 . S
C1399 H1378 0.950 . S
C1399 C1398 1.373 . S
C1399 C1415 1.377 . S
C1400 C1398 1.389 . S
C1400 C1401 1.524 . S
C1400 C1414 1.377 . S
C1401 C1400 1.524 . S
C1401 C1402 1.397 . S
C1401 C1406 1.363 . S
C1402 H1379 0.950 . S
C1402 C1401 1.397 . S
C1402 C1403 1.334 . S
C1403 H1380 0.950 . S
C1403 C1402 1.334 . S
C1403 C1404 1.287 . S
C1404 C1403 1.287 . S
C1404 C1405 1.524 . S
C1404 H1423 0.913 . S
C1405 H1381 0.950 . S
C1405 C1404 1.524 . S
C1405 C1406 1.415 . S
C1406 H1382 0.950 . S
C1406 C1401 1.363 . S
C1406 C1405 1.415 . S
C1407 H1383 0.951 . S
C1407 C1408 1.366 . S
C1407 C1409 1.388 . S
C1408 C1407 1.366 . S
C1408 C1412 1.385 . S
C1409 H1384 0.951 . S
C1409 C1407 1.388 . S
C1409 C1410 1.366 . S
C1410 C1409 1.366 . S
C1410 C1411 1.414 . S
C1410 C1413 1.499 . S
C1411 H1385 0.950 . S
C1411 C1410 1.414 . S
C1411 C1412 1.374 . S
C1412 H1386 0.950 . S
C1412 C1408 1.385 . S
C1412 C1411 1.374 . S
C1413 C1410 1.499 . S
C1413 C1414 1.373 . S
C1413 C1415 1.389 . S
C1414 H1387 0.950 . S
C1414 C1400 1.377 . S
C1414 C1413 1.373 . S
C1415 C1399 1.377 . S
C1415 C1413 1.389 . S
C1415 C1416 1.524 . S
C1416 C1415 1.524 . S
C1416 C1417 1.397 . S
C1416 C1421 1.363 . S
C1417 H1388 0.950 . S
C1417 C1416 1.397 . S
C1417 C1418 1.334 . S
C1418 H1389 0.950 . S
C1418 C1417 1.334 . S
C1418 C1419 1.287 . S
C1419 C1418 1.287 . S
C1419 C1420 1.524 . S
C1419 H1422 0.999 . S
C1420 H1390 0.950 . S
C1420 C1419 1.524 . S
C1420 C1421 1.415 . S
C1421 H1391 0.950 . S
C1421 C1416 1.363 . S
C1421 C1420 1.415 . S
H1422 C1419 0.999 . S
H1423 C1404 0.913 . S
H1424 C1442 0.951 . S
H1425 C1444 0.951 . S
H1426 C1446 0.950 . S
H1427 C1447 0.950 . S
H1428 C1449 0.950 . S
H1429 C1452 0.950 . S
H1430 C1453 0.950 . S
H1431 C1455 0.950 . S
H1432 C1456 0.950 . S
H1433 C1457 0.951 . S
H1434 C1459 0.951 . S
H1435 C1461 0.950 . S
H1436 C1462 0.950 . S
H1437 C1464 0.950 . S
H1438 C1467 0.950 . S
H1439 C1468 0.950 . S
H1440 C1470 0.950 . S
H1441 C1471 0.950 . S
C1442 H1424 0.951 . S
C1442 C1443 1.366 . S
C1442 C1444 1.388 . S
C1443 C1442 1.366 . S
C1443 C1447 1.385 . S
C1444 H1425 0.951 . S
C1444 C1442 1.388 . S
C1444 C1445 1.366 1_545 S
C1445 C1444 1.366 1_565 S
C1445 C1446 1.414 . S
C1445 C1448 1.499 . S
C1446 H1426 0.950 . S
C1446 C1445 1.414 . S
C1446 C1447 1.374 1_565 S
C1447 H1427 0.950 . S
C1447 C1443 1.385 . S
C1447 C1446 1.374 1_545 S
C1448 C1445 1.499 . S
C1448 C1449 1.373 . S
C1448 C1450 1.389 . S
C1449 H1428 0.950 . S
C1449 C1448 1.373 . S
C1449 C1465 1.377 . S
C1450 C1448 1.389 . S
C1450 C1451 1.524 . S
C1450 C1464 1.377 . S
C1451 C1450 1.524 . S
C1451 C1452 1.397 . S
C1451 C1456 1.363 . S
C1452 H1429 0.950 . S
C1452 C1451 1.397 . S
C1452 C1453 1.334 . S
C1453 H1430 0.950 . S
C1453 C1452 1.334 . S
C1453 C1454 1.287 1_565 S
C1454 C1453 1.287 1_545 S
C1454 C1455 1.524 . S
C1454 H1473 0.913 . S
C1455 H1431 0.950 . S
C1455 C1454 1.524 . S
C1455 C1456 1.415 1_545 S
C1456 H1432 0.950 . S
C1456 C1451 1.363 . S
C1456 C1455 1.415 1_565 S
C1457 H1433 0.951 . S
C1457 C1458 1.366 . S
C1457 C1459 1.388 . S
C1458 C1457 1.366 . S
C1458 C1462 1.385 . S
C1459 H1434 0.951 . S
C1459 C1457 1.388 . S
C1459 C1460 1.366 . S
C1460 C1459 1.366 . S
C1460 C1461 1.414 . S
C1460 C1463 1.499 . S
C1461 H1435 0.950 . S
C1461 C1460 1.414 . S
C1461 C1462 1.374 . S
C1462 H1436 0.950 . S
C1462 C1458 1.385 . S
C1462 C1461 1.374 . S
C1463 C1460 1.499 . S
C1463 C1464 1.373 . S
C1463 C1465 1.389 . S
C1464 H1437 0.950 . S
C1464 C1450 1.377 . S
C1464 C1463 1.373 . S
C1465 C1449 1.377 . S
C1465 C1463 1.389 . S
C1465 C1466 1.524 . S
C1466 C1465 1.524 . S
C1466 C1467 1.397 . S
C1466 C1471 1.363 . S
C1467 H1438 0.950 . S
C1467 C1466 1.397 . S
C1467 C1468 1.334 . S
C1468 H1439 0.950 . S
C1468 C1467 1.334 . S
C1468 C1469 1.287 . S
C1469 C1468 1.287 . S
C1469 C1470 1.524 . S
C1469 H1472 0.999 . S
C1470 H1440 0.950 . S
C1470 C1469 1.524 . S
C1470 C1471 1.415 . S
C1471 H1441 0.950 . S
C1471 C1466 1.363 . S
C1471 C1470 1.415 . S
H1472 C1469 0.999 . S
H1473 C1454 0.913 . S
H1474 C1492 0.951 . S
H1475 C1494 0.951 . S
H1476 C1496 0.950 . S
H1477 C1497 0.950 . S
H1478 C1499 0.950 . S
H1479 C1502 0.950 . S
H1480 C1503 0.950 . S
H1481 C1505 0.950 . S
H1482 C1506 0.950 . S
H1483 C1507 0.951 . S
H1484 C1509 0.951 . S
H1485 C1511 0.950 . S
H1486 C1512 0.950 . S
H1487 C1514 0.950 . S
H1488 C1517 0.950 . S
H1489 C1518 0.950 . S
H1490 C1520 0.950 . S
H1491 C1521 0.950 . S
C1492 H1474 0.951 . S
C1492 C1493 1.366 . S
C1492 C1494 1.388 . S
C1493 C1492 1.366 . S
C1493 C1497 1.385 . S
C1494 H1475 0.951 . S
C1494 C1492 1.388 . S
C1494 C1495 1.366 . S
C1495 C1494 1.366 . S
C1495 C1496 1.414 . S
C1495 C1498 1.499 . S
C1496 H1476 0.950 . S
C1496 C1495 1.414 . S
C1496 C1497 1.374 . S
C1497 H1477 0.950 . S
C1497 C1493 1.385 . S
C1497 C1496 1.374 . S
C1498 C1495 1.499 . S
C1498 C1499 1.373 . S
C1498 C1500 1.389 . S
C1499 H1478 0.950 . S
C1499 C1498 1.373 . S
C1499 C1515 1.377 . S
C1500 C1498 1.389 . S
C1500 C1501 1.524 . S
C1500 C1514 1.377 . S
C1501 C1500 1.524 . S
C1501 C1502 1.397 . S
C1501 C1506 1.363 . S
C1502 H1479 0.950 . S
C1502 C1501 1.397 . S
C1502 C1503 1.334 . S
C1503 H1480 0.950 . S
C1503 C1502 1.334 . S
C1503 C1504 1.287 . S
C1504 C1503 1.287 . S
C1504 C1505 1.524 . S
C1504 H1523 0.913 . S
C1505 H1481 0.950 . S
C1505 C1504 1.524 . S
C1505 C1506 1.415 . S
C1506 H1482 0.950 . S
C1506 C1501 1.363 . S
C1506 C1505 1.415 . S
C1507 H1483 0.951 . S
C1507 C1508 1.366 . S
C1507 C1509 1.388 . S
C1508 C1507 1.366 . S
C1508 C1512 1.385 . S
C1509 H1484 0.951 . S
C1509 C1507 1.388 . S
C1509 C1510 1.366 . S
C1510 C1509 1.366 . S
C1510 C1511 1.414 . S
C1510 C1513 1.499 . S
C1511 H1485 0.950 . S
C1511 C1510 1.414 . S
C1511 C1512 1.374 . S
C1512 H1486 0.950 . S
C1512 C1508 1.385 . S
C1512 C1511 1.374 . S
C1513 C1510 1.499 . S
C1513 C1514 1.373 . S
C1513 C1515 1.389 . S
C1514 H1487 0.950 . S
C1514 C1500 1.377 . S
C1514 C1513 1.373 . S
C1515 C1499 1.377 . S
C1515 C1513 1.389 . S
C1515 C1516 1.524 . S
C1516 C1515 1.524 . S
C1516 C1517 1.397 . S
C1516 C1521 1.363 . S
C1517 H1488 0.950 . S
C1517 C1516 1.397 . S
C1517 C1518 1.334 . S
C1518 H1489 0.950 . S
C1518 C1517 1.334 . S
C1518 C1519 1.287 . S
C1519 C1518 1.287 . S
C1519 C1520 1.524 . S
C1519 H1522 0.999 . S
C1520 H1490 0.950 . S
C1520 C1519 1.524 . S
C1520 C1521 1.415 . S
C1521 H1491 0.950 . S
C1521 C1516 1.363 . S
C1521 C1520 1.415 . S
H1522 C1519 0.999 . S
H1523 C1504 0.913 . S
H1524 C1542 0.951 . S
H1525 C1544 0.951 . S
H1526 C1546 0.950 . S
H1527 C1547 0.950 . S
H1528 C1549 0.950 . S
H1529 C1552 0.950 . S
H1530 C1553 0.950 . S
H1531 C1555 0.950 . S
H1532 C1556 0.950 . S
H1533 C1557 0.951 . S
H1534 C1559 0.951 . S
H1535 C1561 0.950 . S
H1536 C1562 0.950 . S
H1537 C1564 0.950 . S
H1538 C1567 0.943 1_655 S
H1539 C1568 0.950 1_655 S
H1540 C1570 0.950 . S
H1541 C1571 0.950 . S
C1542 H1524 0.951 . S
C1542 C1543 1.366 . S
C1542 C1544 1.388 . S
C1543 C1542 1.366 . S
C1543 C1547 1.385 . S
C1544 H1525 0.951 . S
C1544 C1542 1.388 . S
C1544 C1545 1.366 . S
C1545 C1544 1.366 . S
C1545 C1546 1.414 . S
C1545 C1548 1.499 . S
C1546 H1526 0.950 . S
C1546 C1545 1.414 . S
C1546 C1547 1.374 . S
C1547 H1527 0.950 . S
C1547 C1543 1.385 . S
C1547 C1546 1.374 . S
C1548 C1545 1.499 . S
C1548 C1549 1.373 . S
C1548 C1550 1.389 . S
C1549 H1528 0.950 . S
C1549 C1548 1.373 . S
C1549 C1565 1.377 . S
C1550 C1548 1.389 . S
C1550 C1551 1.524 . S
C1550 C1564 1.377 . S
C1551 C1550 1.524 . S
C1551 C1552 1.397 . S
C1551 C1556 1.363 . S
C1552 H1529 0.950 . S
C1552 C1551 1.397 . S
C1552 C1553 1.334 . S
C1553 H1530 0.950 . S
C1553 C1552 1.334 . S
C1553 C1554 1.287 . S
C1554 C1553 1.287 . S
C1554 C1555 1.524 . S
C1554 H1573 0.913 . S
C1555 H1531 0.950 . S
C1555 C1554 1.524 . S
C1555 C1556 1.415 . S
C1556 H1532 0.950 . S
C1556 C1551 1.363 . S
C1556 C1555 1.415 . S
C1557 H1533 0.951 . S
C1557 C1558 1.366 . S
C1557 C1559 1.388 1_655 S
C1558 C1557 1.366 . S
C1558 C1562 1.385 . S
C1559 H1534 0.951 . S
C1559 C1557 1.388 1_455 S
C1559 C1560 1.366 . S
C1560 C1559 1.366 . S
C1560 C1561 1.414 1_455 S
C1560 C1563 1.499 . S
C1561 H1535 0.950 . S
C1561 C1560 1.414 1_655 S
C1561 C1562 1.374 . S
C1562 H1536 0.950 . S
C1562 C1558 1.385 . S
C1562 C1561 1.374 . S
C1563 C1560 1.499 . S
C1563 C1564 1.373 . S
C1563 C1565 1.389 . S
C1564 H1537 0.950 . S
C1564 C1550 1.377 . S
C1564 C1563 1.373 . S
C1565 C1549 1.377 . S
C1565 C1563 1.389 . S
C1565 C1566 1.524 . S
C1566 C1565 1.524 . S
C1566 C1567 1.397 . S
C1566 C1571 1.363 . S
C1567 H1538 0.943 1_455 S
C1567 C1566 1.397 . S
C1567 C1568 1.334 . S
C1568 H1539 0.950 1_455 S
C1568 C1567 1.334 . S
C1568 C1569 1.287 . S
C1569 C1568 1.287 . S
C1569 C1570 1.524 . S
C1569 H1572 0.999 . S
C1570 H1540 0.950 . S
C1570 C1569 1.524 . S
C1570 C1571 1.415 . S
C1571 H1541 0.950 . S
C1571 C1566 1.363 . S
C1571 C1570 1.415 . S
H1572 C1569 0.999 . S
H1573 C1554 0.913 . S
H1574 C1592 0.951 . S
H1575 C1594 0.951 . S
H1576 C1596 0.950 . S
H1577 C1597 0.950 . S
H1578 C1599 0.950 . S
H1579 C1602 0.950 1_545 S
H1580 C1603 0.950 . S
H1581 C1605 0.950 1_455 S
H1582 C1606 0.950 . S
H1583 C1607 0.951 . S
H1584 C1609 0.951 . S
H1585 C1611 0.950 . S
H1586 C1612 0.950 . S
H1587 C1614 0.950 . S
H1588 C1617 0.950 . S
H1589 C1618 0.950 . S
H1590 C1620 0.950 . S
H1591 C1621 0.950 . S
C1592 H1574 0.951 . S
C1592 C1593 1.366 . S
C1592 C1594 1.388 . S
C1593 C1592 1.366 . S
C1593 C1597 1.385 . S
C1594 H1575 0.951 . S
C1594 C1592 1.388 . S
C1594 C1595 1.366 1_565 S
C1595 C1594 1.366 1_545 S
C1595 C1596 1.414 . S
C1595 C1598 1.499 . S
C1596 H1576 0.950 . S
C1596 C1595 1.414 . S
C1596 C1597 1.374 1_545 S
C1597 H1577 0.950 . S
C1597 C1593 1.385 . S
C1597 C1596 1.374 1_565 S
C1598 C1595 1.499 . S
C1598 C1599 1.373 . S
C1598 C1600 1.389 . S
C1599 H1578 0.950 . S
C1599 C1598 1.373 . S
C1599 C1615 1.377 . S
C1600 C1598 1.389 . S
C1600 C1601 1.524 . S
C1600 C1614 1.377 . S
C1601 C1600 1.524 . S
C1601 C1602 1.397 1_545 S
C1601 C1606 1.363 1_545 S
C1602 H1579 0.950 1_565 S
C1602 C1601 1.397 1_565 S
C1602 C1603 1.334 . S
C1603 H1580 0.950 . S
C1603 C1602 1.334 . S
C1603 C1604 1.287 . S
C1604 C1603 1.287 . S
C1604 C1605 1.524 . S
C1604 H1623 0.913 . S
C1605 H1581 0.950 1_655 S
C1605 C1604 1.524 . S
C1605 C1606 1.415 . S
C1606 H1582 0.950 . S
C1606 C1601 1.363 1_565 S
C1606 C1605 1.415 . S
C1607 H1583 0.951 . S
C1607 C1608 1.366 . S
C1607 C1609 1.388 1_455 S
C1608 C1607 1.366 . S
C1608 C1612 1.385 . S
C1609 H1584 0.951 . S
C1609 C1607 1.388 1_655 S
C1609 C1610 1.366 . S
C1610 C1609 1.366 . S
C1610 C1611 1.414 1_655 S
C1610 C1613 1.499 . S
C1611 H1585 0.950 . S
C1611 C1610 1.414 1_455 S
C1611 C1612 1.374 . S
C1612 H1586 0.950 . S
C1612 C1608 1.385 . S
C1612 C1611 1.374 . S
C1613 C1610 1.499 . S
C1613 C1614 1.373 . S
C1613 C1615 1.389 . S
C1614 H1587 0.950 . S
C1614 C1600 1.377 . S
C1614 C1613 1.373 . S
C1615 C1599 1.377 . S
C1615 C1613 1.389 . S
C1615 C1616 1.524 . S
C1616 C1615 1.524 . S
C1616 C1617 1.397 . S
C1616 C1621 1.363 . S
C1617 H1588 0.950 . S
C1617 C1616 1.397 . S
C1617 C1618 1.334 . S
C1618 H1589 0.950 . S
C1618 C1617 1.334 . S
C1618 C1619 1.287 . S
C1619 C1618 1.287 . S
C1619 C1620 1.524 . S
C1619 H1622 0.999 . S
C1620 H1590 0.950 . S
C1620 C1619 1.524 . S
C1620 C1621 1.415 . S
C1621 H1591 0.950 . S
C1621 C1616 1.363 . S
C1621 C1620 1.415 . S
H1622 C1619 0.999 . S
H1623 C1604 0.913 . S
H1624 C1642 0.951 . S
H1625 C1644 0.951 . S
H1626 C1646 0.950 . S
H1627 C1647 0.950 . S
H1628 C1649 0.950 . S
H1629 C1652 0.950 . S
H1630 C1653 0.950 . S
H1631 C1655 0.950 . S
H1632 C1656 0.950 . S
H1633 C1657 0.951 . S
H1634 C1659 0.951 . S
H1635 C1661 0.950 . S
H1636 C1662 0.950 . S
H1637 C1664 0.950 . S
H1638 C1667 0.950 . S
H1639 C1668 0.950 . S
H1640 C1670 0.950 . S
H1641 C1671 0.950 . S
C1642 H1624 0.951 . S
C1642 C1643 1.366 . S
C1642 C1644 1.388 . S
C1643 C1642 1.366 . S
C1643 C1647 1.385 . S
C1644 H1625 0.951 . S
C1644 C1642 1.388 . S
C1644 C1645 1.366 . S
C1645 C1644 1.366 . S
C1645 C1646 1.414 . S
C1645 C1648 1.499 . S
C1646 H1626 0.950 . S
C1646 C1645 1.414 . S
C1646 C1647 1.374 . S
C1647 H1627 0.950 . S
C1647 C1643 1.385 . S
C1647 C1646 1.374 . S
C1648 C1645 1.499 . S
C1648 C1649 1.373 . S
C1648 C1650 1.389 . S
C1649 H1628 0.950 . S
C1649 C1648 1.373 . S
C1649 C1665 1.377 . S
C1650 C1648 1.389 . S
C1650 C1651 1.524 . S
C1650 C1664 1.377 . S
C1651 C1650 1.524 . S
C1651 C1652 1.397 . S
C1651 C1656 1.363 . S
C1652 H1629 0.950 . S
C1652 C1651 1.397 . S
C1652 C1653 1.334 . S
C1653 H1630 0.950 . S
C1653 C1652 1.334 . S
C1653 C1654 1.287 . S
C1654 C1653 1.287 . S
C1654 C1655 1.524 . S
C1654 H1673 0.913 . S
C1655 H1631 0.950 . S
C1655 C1654 1.524 . S
C1655 C1656 1.415 . S
C1656 H1632 0.950 . S
C1656 C1651 1.363 . S
C1656 C1655 1.415 . S
C1657 H1633 0.951 . S
C1657 C1658 1.366 . S
C1657 C1659 1.388 . S
C1658 C1657 1.366 . S
C1658 C1662 1.385 . S
C1659 H1634 0.951 . S
C1659 C1657 1.388 . S
C1659 C1660 1.366 . S
C1660 C1659 1.366 . S
C1660 C1661 1.414 . S
C1660 C1663 1.499 . S
C1661 H1635 0.950 . S
C1661 C1660 1.414 . S
C1661 C1662 1.374 . S
C1662 H1636 0.950 . S
C1662 C1658 1.385 . S
C1662 C1661 1.374 . S
C1663 C1660 1.499 . S
C1663 C1664 1.373 . S
C1663 C1665 1.389 . S
C1664 H1637 0.950 . S
C1664 C1650 1.377 . S
C1664 C1663 1.373 . S
C1665 C1649 1.377 . S
C1665 C1663 1.389 . S
C1665 C1666 1.524 . S
C1666 C1665 1.524 . S
C1666 C1667 1.397 . S
C1666 C1671 1.363 . S
C1667 H1638 0.950 . S
C1667 C1666 1.397 . S
C1667 C1668 1.334 . S
C1668 H1639 0.950 . S
C1668 C1667 1.334 . S
C1668 C1669 1.287 . S
C1669 C1668 1.287 . S
C1669 C1670 1.524 . S
C1669 H1672 0.999 . S
C1670 H1640 0.950 . S
C1670 C1669 1.524 . S
C1670 C1671 1.415 . S
C1671 H1641 0.950 . S
C1671 C1666 1.363 . S
C1671 C1670 1.415 . S
H1672 C1669 0.999 . S
H1673 C1654 0.913 . S
H1674 C1692 0.951 . S
H1675 C1694 0.951 . S
H1676 C1696 0.950 . S
H1677 C1697 0.950 . S
H1678 C1699 0.950 . S
H1679 C1702 0.950 . S
H1680 C1703 0.950 . S
H1681 C1705 0.950 . S
H1682 C1706 0.950 . S
H1683 C1707 0.951 . S
H1684 C1709 0.951 . S
H1685 C1711 0.950 . S
H1686 C1712 0.950 . S
H1687 C1714 0.950 . S
H1688 C1717 0.950 . S
H1689 C1718 0.950 . S
H1690 C1720 0.950 . S
H1691 C1721 0.950 . S
C1692 H1674 0.951 . S
C1692 C1693 1.366 . S
C1692 C1694 1.388 . S
C1693 C1692 1.366 . S
C1693 C1697 1.385 . S
C1694 H1675 0.951 . S
C1694 C1692 1.388 . S
C1694 C1695 1.366 1_455 S
C1695 C1694 1.366 1_655 S
C1695 C1696 1.414 . S
C1695 C1698 1.499 . S
C1696 H1676 0.950 . S
C1696 C1695 1.414 . S
C1696 C1697 1.374 1_655 S
C1697 H1677 0.950 . S
C1697 C1693 1.385 . S
C1697 C1696 1.374 1_455 S
C1698 C1695 1.499 . S
C1698 C1699 1.373 . S
C1698 C1700 1.389 . S
C1699 H1678 0.950 . S
C1699 C1698 1.373 . S
C1699 C1715 1.377 . S
C1700 C1698 1.389 . S
C1700 C1701 1.524 . S
C1700 C1714 1.377 . S
C1701 C1700 1.524 . S
C1701 C1702 1.397 . S
C1701 C1706 1.363 1_655 S
C1702 H1679 0.950 . S
C1702 C1701 1.397 . S
C1702 C1703 1.334 1_655 S
C1703 H1680 0.950 . S
C1703 C1702 1.334 1_455 S
C1703 C1704 1.287 . S
C1704 C1703 1.287 . S
C1704 C1705 1.524 . S
C1704 H1723 0.913 . S
C1705 H1681 0.950 . S
C1705 C1704 1.524 . S
C1705 C1706 1.415 . S
C1706 H1682 0.950 . S
C1706 C1701 1.363 1_455 S
C1706 C1705 1.415 . S
C1707 H1683 0.951 . S
C1707 C1708 1.366 . S
C1707 C1709 1.388 . S
C1708 C1707 1.366 . S
C1708 C1712 1.385 . S
C1709 H1684 0.951 . S
C1709 C1707 1.388 . S
C1709 C1710 1.366 . S
C1710 C1709 1.366 . S
C1710 C1711 1.414 . S
C1710 C1713 1.499 . S
C1711 H1685 0.950 . S
C1711 C1710 1.414 . S
C1711 C1712 1.374 . S
C1712 H1686 0.950 . S
C1712 C1708 1.385 . S
C1712 C1711 1.374 . S
C1713 C1710 1.499 . S
C1713 C1714 1.373 . S
C1713 C1715 1.389 . S
C1714 H1687 0.950 . S
C1714 C1700 1.377 . S
C1714 C1713 1.373 . S
C1715 C1699 1.377 . S
C1715 C1713 1.389 . S
C1715 C1716 1.524 . S
C1716 C1715 1.524 . S
C1716 C1717 1.397 . S
C1716 C1721 1.363 . S
C1717 H1688 0.950 . S
C1717 C1716 1.397 . S
C1717 C1718 1.334 . S
C1718 H1689 0.950 . S
C1718 C1717 1.334 . S
C1718 C1719 1.287 . S
C1719 C1718 1.287 . S
C1719 C1720 1.524 . S
C1719 H1722 0.999 . S
C1720 H1690 0.950 . S
C1720 C1719 1.524 . S
C1720 C1721 1.415 . S
C1721 H1691 0.950 . S
C1721 C1716 1.363 . S
C1721 C1720 1.415 . S
H1722 C1719 0.999 . S
H1723 C1704 0.913 . S
H1724 C1742 0.951 . S
H1725 C1744 0.951 . S
H1726 C1746 0.950 . S
H1727 C1747 0.950 . S
H1728 C1749 0.950 . S
H1729 C1752 0.950 . S
H1730 C1753 0.950 . S
H1731 C1755 0.950 . S
H1732 C1756 0.950 . S
H1733 C1757 0.951 . S
H1734 C1759 0.951 . S
H1735 C1761 0.950 . S
H1736 C1762 0.950 . S
H1737 C1764 0.950 . S
H1738 C1767 0.950 . S
H1739 C1768 0.950 . S
H1740 C1770 0.950 . S
H1741 C1771 0.950 . S
C1742 H1724 0.951 . S
C1742 C1743 1.366 . S
C1742 C1744 1.388 1_655 S
C1743 C1742 1.366 . S
C1743 C1747 1.385 . S
C1744 H1725 0.951 . S
C1744 C1742 1.388 1_455 S
C1744 C1745 1.366 . S
C1745 C1744 1.366 . S
C1745 C1746 1.414 1_455 S
C1745 C1748 1.499 . S
C1746 H1726 0.950 . S
C1746 C1745 1.414 1_655 S
C1746 C1747 1.374 . S
C1747 H1727 0.950 . S
C1747 C1743 1.385 . S
C1747 C1746 1.374 . S
C1748 C1745 1.499 . S
C1748 C1749 1.373 . S
C1748 C1750 1.389 . S
C1749 H1728 0.950 . S
C1749 C1748 1.373 . S
C1749 C1765 1.377 . S
C1750 C1748 1.389 . S
C1750 C1751 1.524 . S
C1750 C1764 1.377 . S
C1751 C1750 1.524 . S
C1751 C1752 1.397 1_455 S
C1751 C1756 1.363 . S
C1752 H1729 0.950 . S
C1752 C1751 1.397 1_655 S
C1752 C1753 1.334 . S
C1753 H1730 0.950 . S
C1753 C1752 1.334 . S
C1753 C1754 1.287 . S
C1754 C1753 1.287 . S
C1754 C1755 1.524 1_655 S
C1754 H1773 0.913 . S
C1755 H1731 0.950 . S
C1755 C1754 1.524 1_455 S
C1755 C1756 1.415 . S
C1756 H1732 0.950 . S
C1756 C1751 1.363 . S
C1756 C1755 1.415 . S
C1757 H1733 0.951 . S
C1757 C1758 1.366 . S
C1757 C1759 1.388 . S
C1758 C1757 1.366 . S
C1758 C1762 1.385 . S
C1759 H1734 0.951 . S
C1759 C1757 1.388 . S
C1759 C1760 1.366 1_545 S
C1760 C1759 1.366 1_565 S
C1760 C1761 1.414 . S
C1760 C1763 1.499 . S
C1761 H1735 0.950 . S
C1761 C1760 1.414 . S
C1761 C1762 1.374 1_565 S
C1762 H1736 0.950 . S
C1762 C1758 1.385 . S
C1762 C1761 1.374 1_545 S
C1763 C1760 1.499 . S
C1763 C1764 1.373 . S
C1763 C1765 1.389 . S
C1764 H1737 0.950 . S
C1764 C1750 1.377 . S
C1764 C1763 1.373 . S
C1765 C1749 1.377 . S
C1765 C1763 1.389 . S
C1765 C1766 1.524 . S
C1766 C1765 1.524 . S
C1766 C1767 1.397 . S
C1766 C1771 1.363 . S
C1767 H1738 0.950 . S
C1767 C1766 1.397 . S
C1767 C1768 1.334 . S
C1768 H1739 0.950 . S
C1768 C1767 1.334 . S
C1768 C1769 1.287 . S
C1769 C1768 1.287 . S
C1769 C1770 1.524 . S
C1769 H1772 0.999 . S
C1770 H1740 0.950 . S
C1770 C1769 1.524 . S
C1770 C1771 1.415 . S
C1771 H1741 0.950 . S
C1771 C1766 1.363 . S
C1771 C1770 1.415 . S
H1772 C1769 0.999 . S
H1773 C1754 0.913 . S
H1774 C1792 0.951 . S
H1775 C1794 0.951 . S
H1776 C1796 0.950 . S
H1777 C1797 0.950 . S
H1778 C1799 0.950 . S
H1779 C1802 0.950 . S
H1780 C1803 0.950 . S
H1781 C1805 0.950 . S
H1782 C1806 0.954 1_545 S
H1783 C1807 0.951 . S
H1784 C1809 0.951 . S
H1785 C1811 0.950 . S
H1786 C1812 0.950 . S
H1787 C1814 0.950 . S
H1788 C1817 0.950 . S
H1789 C1818 0.950 . S
H1790 C1820 0.950 . S
H1791 C1821 0.950 . S
C1792 H1774 0.951 . S
C1792 C1793 1.366 . S
C1792 C1794 1.388 . S
C1793 C1792 1.366 . S
C1793 C1797 1.385 . S
C1794 H1775 0.951 . S
C1794 C1792 1.388 . S
C1794 C1795 1.366 1_565 S
C1795 C1794 1.366 1_545 S
C1795 C1796 1.414 . S
C1795 C1798 1.499 . S
C1796 H1776 0.950 . S
C1796 C1795 1.414 . S
C1796 C1797 1.374 1_545 S
C1797 H1777 0.950 . S
C1797 C1793 1.385 . S
C1797 C1796 1.374 1_565 S
C1798 C1795 1.499 . S
C1798 C1799 1.373 . S
C1798 C1800 1.389 . S
C1799 H1778 0.950 . S
C1799 C1798 1.373 . S
C1799 C1815 1.377 . S
C1800 C1798 1.389 . S
C1800 C1801 1.524 1_545 S
C1800 C1814 1.377 . S
C1801 C1800 1.524 1_565 S
C1801 C1802 1.397 . S
C1801 C1806 1.363 . S
C1802 H1779 0.950 . S
C1802 C1801 1.397 . S
C1802 C1803 1.334 . S
C1803 H1780 0.950 . S
C1803 C1802 1.334 . S
C1803 C1804 1.287 . S
C1804 C1803 1.287 . S
C1804 C1805 1.524 . S
C1804 H1823 0.913 . S
C1805 H1781 0.950 . S
C1805 C1804 1.524 . S
C1805 C1806 1.415 . S
C1806 H1782 0.954 1_565 S
C1806 C1801 1.363 . S
C1806 C1805 1.415 . S
C1807 H1783 0.951 . S
C1807 C1808 1.366 . S
C1807 C1809 1.388 . S
C1808 C1807 1.366 . S
C1808 C1812 1.385 . S
C1809 H1784 0.951 . S
C1809 C1807 1.388 . S
C1809 C1810 1.366 . S
C1810 C1809 1.366 . S
C1810 C1811 1.414 . S
C1810 C1813 1.499 . S
C1811 H1785 0.950 . S
C1811 C1810 1.414 . S
C1811 C1812 1.374 . S
C1812 H1786 0.950 . S
C1812 C1808 1.385 . S
C1812 C1811 1.374 . S
C1813 C1810 1.499 . S
C1813 C1814 1.373 . S
C1813 C1815 1.389 . S
C1814 H1787 0.950 . S
C1814 C1800 1.377 . S
C1814 C1813 1.373 . S
C1815 C1799 1.377 . S
C1815 C1813 1.389 . S
C1815 C1816 1.524 . S
C1816 C1815 1.524 . S
C1816 C1817 1.397 . S
C1816 C1821 1.363 . S
C1817 H1788 0.950 . S
C1817 C1816 1.397 . S
C1817 C1818 1.334 . S
C1818 H1789 0.950 . S
C1818 C1817 1.334 . S
C1818 C1819 1.287 . S
C1819 C1818 1.287 . S
C1819 C1820 1.524 . S
C1819 H1822 0.999 . S
C1820 H1790 0.950 . S
C1820 C1819 1.524 . S
C1820 C1821 1.415 . S
C1821 H1791 0.950 . S
C1821 C1816 1.363 . S
C1821 C1820 1.415 . S
H1822 C1819 0.999 . S
H1823 C1804 0.913 . S
C243 C106 1.310 . S
C258 C8 1.311 . S
C293 C64 1.312 . S
C308 C22 1.312 . S
C343 C78 1.312 . S
C358 C36 1.312 . S
C393 C50 1.312 . S
C408 C92 1.312 . S
C443 C218 1.311 . S
C458 C120 1.310 . S
C493 C176 1.312 . S
C508 C134 1.312 . S
C543 C148 1.311 . S
C558 C190 1.311 . S
C593 C162 1.312 . S
C608 C204 1.312 . S
C643 C37 1.142 . S
C658 C9 1.142 . S
C693 C23 1.141 . S
C708 C51 1.142 . S
C743 C65 1.141 . S
C758 C93 1.141 . S
C793 C107 1.142 . S
C808 C79 1.142 . S
C843 C121 1.141 . S
C858 C149 1.141 . S
C893 C135 1.141 . S
C908 C163 1.141 . S
C943 C205 1.142 . S
C958 C177 1.142 . S
C993 C191 1.143 . S
C1008 C219 1.142 . S
C1043 C91 1.677 . S
C1058 C7 1.676 . S
C1093 C21 1.677 . S
C1108 C105 1.676 . S
C1143 C35 1.676 . S
C1158 C63 1.677 . S
C1193 C49 1.676 . S
C1208 C77 1.676 . S
C1243 C119 1.676 . S
C1258 C203 1.676 . S
C1293 C133 1.677 . S
C1308 C217 1.676 . S
C1343 C147 1.677 . S
C1358 C175 1.676 . S
C1393 C161 1.676 . S
C1408 C189 1.676 . S
C1443 C6 1.381 . S
C1458 C216 1.380 . S
C1493 C174 1.381 . S
C1508 C20 1.381 . S
C1543 C34 1.381 . S
C1558 C188 1.380 . S
C1593 C202 1.381 . S
C1608 C48 1.381 . S
C1643 C132 1.381 . S
C1658 C62 1.381 . S
C1693 C76 1.381 . S
C1708 C146 1.380 . S
C1743 C160 1.381 . S
C1758 C90 1.380 . S
C1793 C118 1.381 . S
C1808 C104 1.380 . S
