# Generated by pormake.
# Topology umd, (4)-cn, num edge types: 1
# Building blocks:
#     Node 0, Type 0, BuildingBlock: QUQFOY_clean_sbu_1, # of connection points: 4
#     Node 1, Type 0, BuildingBlock: QUQFOY_clean_sbu_1, # of connection points: 4
#     Node 2, Type 0, BuildingBlock: QUQFOY_clean_sbu_1, # of connection points: 4
#     Node 3, Type 0, BuildingBlock: QUQFOY_clean_sbu_1, # of connection points: 4
#     Node 4, Type 0, BuildingBlock: QUQFOY_clean_sbu_1, # of connection points: 4
#     Node 5, Type 0, BuildingBlock: QUQFOY_clean_sbu_1, # of connection points: 4
#     Node 6, Type 0, BuildingBlock: QUQFOY_clean_sbu_1, # of connection points: 4
#     Node 7, Type 0, BuildingBlock: QUQFOY_clean_sbu_1, # of connection points: 4
#     Node 8, Type 0, BuildingBlock: QUQFOY_clean_sbu_1, # of connection points: 4
#     Node 9, Type 0, BuildingBlock: QUQFOY_clean_sbu_1, # of connection points: 4
#     Node 10, Type 0, BuildingBlock: QUQFOY_clean_sbu_1, # of connection points: 4
#     Node 11, Type 0, BuildingBlock: QUQFOY_clean_sbu_1, # of connection points: 4
#     Node 12, Type 0, BuildingBlock: QUQFOY_clean_sbu_1, # of connection points: 4
#     Node 13, Type 0, BuildingBlock: QUQFOY_clean_sbu_1, # of connection points: 4
#     Node 14, Type 0, BuildingBlock: QUQFOY_clean_sbu_1, # of connection points: 4
#     Node 15, Type 0, BuildingBlock: QUQFOY_clean_sbu_1, # of connection points: 4
#     Edge 16, Type (0, 0), BuildingBlock: XIVTED_clean_linker_0, # of connection points: 2
#     Edge 17, Type (0, 0), BuildingBlock: XIVTED_clean_linker_0, # of connection points: 2
#     Edge 18, Type (0, 0), BuildingBlock: XIVTED_clean_linker_0, # of connection points: 2
#     Edge 19, Type (0, 0), BuildingBlock: XIVTED_clean_linker_0, # of connection points: 2
#     Edge 20, Type (0, 0), BuildingBlock: XIVTED_clean_linker_0, # of connection points: 2
#     Edge 21, Type (0, 0), BuildingBlock: XIVTED_clean_linker_0, # of connection points: 2
#     Edge 22, Type (0, 0), BuildingBlock: XIVTED_clean_linker_0, # of connection points: 2
#     Edge 23, Type (0, 0), BuildingBlock: XIVTED_clean_linker_0, # of connection points: 2
#     Edge 24, Type (0, 0), BuildingBlock: XIVTED_clean_linker_0, # of connection points: 2
#     Edge 25, Type (0, 0), BuildingBlock: XIVTED_clean_linker_0, # of connection points: 2
#     Edge 26, Type (0, 0), BuildingBlock: XIVTED_clean_linker_0, # of connection points: 2
#     Edge 27, Type (0, 0), BuildingBlock: XIVTED_clean_linker_0, # of connection points: 2
#     Edge 28, Type (0, 0), BuildingBlock: XIVTED_clean_linker_0, # of connection points: 2
#     Edge 29, Type (0, 0), BuildingBlock: XIVTED_clean_linker_0, # of connection points: 2
#     Edge 30, Type (0, 0), BuildingBlock: XIVTED_clean_linker_0, # of connection points: 2
#     Edge 31, Type (0, 0), BuildingBlock: XIVTED_clean_linker_0, # of connection points: 2
#     Edge 32, Type (0, 0), BuildingBlock: XIVTED_clean_linker_0, # of connection points: 2
#     Edge 33, Type (0, 0), BuildingBlock: XIVTED_clean_linker_0, # of connection points: 2
#     Edge 34, Type (0, 0), BuildingBlock: XIVTED_clean_linker_0, # of connection points: 2
#     Edge 35, Type (0, 0), BuildingBlock: XIVTED_clean_linker_0, # of connection points: 2
#     Edge 36, Type (0, 0), BuildingBlock: XIVTED_clean_linker_0, # of connection points: 2
#     Edge 37, Type (0, 0), BuildingBlock: XIVTED_clean_linker_0, # of connection points: 2
#     Edge 38, Type (0, 0), BuildingBlock: XIVTED_clean_linker_0, # of connection points: 2
#     Edge 39, Type (0, 0), BuildingBlock: XIVTED_clean_linker_0, # of connection points: 2
#     Edge 40, Type (0, 0), BuildingBlock: XIVTED_clean_linker_0, # of connection points: 2
#     Edge 41, Type (0, 0), BuildingBlock: XIVTED_clean_linker_0, # of connection points: 2
#     Edge 42, Type (0, 0), BuildingBlock: XIVTED_clean_linker_0, # of connection points: 2
#     Edge 43, Type (0, 0), BuildingBlock: XIVTED_clean_linker_0, # of connection points: 2
#     Edge 44, Type (0, 0), BuildingBlock: XIVTED_clean_linker_0, # of connection points: 2
#     Edge 45, Type (0, 0), BuildingBlock: XIVTED_clean_linker_0, # of connection points: 2
#     Edge 46, Type (0, 0), BuildingBlock: XIVTED_clean_linker_0, # of connection points: 2
#     Edge 47, Type (0, 0), BuildingBlock: XIVTED_clean_linker_0, # of connection points: 2
# Relax obj value: 0.064
# Max RMSD: 0.195
# Mean RMSD: 0.195
data_MOF--net-umd--node1-QUQFOY_clean_sbu_1--edge1-XIVTED_clean_linker_0
_symmetry_space_group_name_H-M    P1
_symmetry_Int_Tables_number       1
_symmetry_cell_setting            triclinic
loop_
_symmetry_equiv_pos_as_xyz
'x, y, z'
_cell_length_a     40.9245
_cell_length_b     40.904376
_cell_length_c     57.982067
_cell_angle_alpha  89.985243
_cell_angle_beta   90.017806
_cell_angle_gamma 90.030102
loop_
_atom_site_label
_atom_site_type_symbol
_atom_site_fract_x
_atom_site_fract_y
_atom_site_fract_z
_atom_type_partial_charge
O0 O 0.19709 0.43489 0.10139 0.0
Cd1 Cd 0.17993 0.42277 0.13376 0.0
Cd2 Cd 0.19938 0.48583 0.14067 0.0
O3 O 0.21971 0.48305 0.10794 0.0
O4 O 0.17963 0.3735 0.13402 0.0
O5 O 0.21257 0.40321 0.15569 0.0
C6 C 0.20366 0.37478 0.14842 0.0
C7 C 0.2271 0.4935 0.17536 0.0
C8 C 0.21347 0.4594 0.09437 0.0
C9 C 0.12738 0.47183 0.14436 0.0
O10 O 0.14972 0.49325 0.14231 0.0
O11 O 0.13439 0.44146 0.14332 0.0
O12 O 0.22106 0.51798 0.1619 0.0
O13 O 0.2193 0.46465 0.16823 0.0
O14 O 0.58651 0.19907 0.60132 0.0
Cd15 Cd 0.59812 0.18101 0.63357 0.0
Cd16 Cd 0.5348 0.20066 0.64015 0.0
O17 O 0.53806 0.22122 0.60753 0.0
O18 O 0.6474 0.18068 0.6342 0.0
O19 O 0.6174 0.21303 0.65606 0.0
C20 C 0.64592 0.20434 0.6489 0.0
C21 C 0.52732 0.22825 0.67489 0.0
C22 C 0.56206 0.21541 0.59418 0.0
C23 C 0.54852 0.1285 0.64352 0.0
O24 O 0.52726 0.15101 0.64161 0.0
O25 O 0.57893 0.13534 0.64256 0.0
O26 O 0.50278 0.22239 0.66146 0.0
O27 O 0.55609 0.22032 0.66773 0.0
O28 O 0.82535 0.58943 0.10217 0.0
Cd29 Cd 0.84247 0.60092 0.13467 0.0
Cd30 Cd 0.82311 0.53777 0.14102 0.0
O31 O 0.80281 0.54112 0.1083 0.0
O32 O 0.8427 0.65017 0.13535 0.0
O33 O 0.80972 0.62004 0.15669 0.0
C34 C 0.81859 0.6486 0.14966 0.0
C35 C 0.79535 0.52926 0.1756 0.0
C36 C 0.809 0.56503 0.09494 0.0
C37 C 0.89508 0.55175 0.14486 0.0
O38 O 0.87276 0.53034 0.14263 0.0
O39 O 0.88805 0.58213 0.14408 0.0
O40 O 0.8014 0.50512 0.16186 0.0
O41 O 0.80318 0.55829 0.16883 0.0
O42 O 0.43519 0.82442 0.60164 0.0
Cd43 Cd 0.4231 0.84206 0.63387 0.0
Cd44 Cd 0.48607 0.82247 0.64105 0.0
O45 O 0.48324 0.80179 0.60844 0.0
O46 O 0.37383 0.84188 0.63432 0.0
O47 O 0.40403 0.8096 0.65614 0.0
C48 C 0.37548 0.81807 0.6489 0.0
C49 C 0.49416 0.79496 0.67579 0.0
C50 C 0.45965 0.80789 0.59478 0.0
C51 C 0.47228 0.89466 0.64418 0.0
O52 O 0.49358 0.87216 0.64243 0.0
O53 O 0.44189 0.88779 0.64305 0.0
O54 O 0.51846 0.80095 0.66218 0.0
O55 O 0.46525 0.80273 0.66882 0.0
O56 O 0.19585 0.5899 0.41631 0.0
Cd57 Cd 0.17892 0.60163 0.38381 0.0
Cd58 Cd 0.19847 0.53841 0.37739 0.0
O59 O 0.21844 0.54162 0.41021 0.0
O60 O 0.1788 0.65091 0.38324 0.0
O61 O 0.21182 0.62084 0.36193 0.0
C62 C 0.20299 0.64938 0.369 0.0
C63 C 0.22651 0.53049 0.34287 0.0
C64 C 0.21213 0.56548 0.42358 0.0
C65 C 0.12648 0.55233 0.37324 0.0
O66 O 0.14884 0.53099 0.3755 0.0
O67 O 0.13343 0.58273 0.37417 0.0
O68 O 0.22035 0.5061 0.35638 0.0
O69 O 0.21866 0.55938 0.34985 0.0
O70 O 0.43414 0.19728 0.91671 0.0
Cd71 Cd 0.42178 0.17964 0.8845 0.0
Cd72 Cd 0.48495 0.199 0.87726 0.0
O73 O 0.48244 0.21947 0.90994 0.0
O74 O 0.37248 0.17983 0.88423 0.0
O75 O 0.40253 0.21202 0.86226 0.0
C76 C 0.37403 0.20357 0.8696 0.0
C77 C 0.49243 0.22681 0.84258 0.0
C78 C 0.4588 0.21356 0.92359 0.0
C79 C 0.47074 0.12688 0.874 0.0
O80 O 0.49217 0.14929 0.87569 0.0
O81 O 0.4404 0.13388 0.87525 0.0
O82 O 0.517 0.22061 0.8559 0.0
O83 O 0.46364 0.21903 0.8498 0.0
O84 O 0.82599 0.43336 0.41687 0.0
Cd85 Cd 0.84242 0.42166 0.38424 0.0
Cd86 Cd 0.82265 0.48458 0.3778 0.0
O87 O 0.80266 0.48124 0.41061 0.0
O88 O 0.84253 0.37239 0.38361 0.0
O89 O 0.80919 0.40253 0.36256 0.0
C90 C 0.81815 0.37396 0.36953 0.0
C91 C 0.79473 0.49306 0.34327 0.0
C92 C 0.80944 0.45761 0.42409 0.0
C93 C 0.89464 0.47101 0.37355 0.0
O94 O 0.87225 0.49228 0.37598 0.0
O95 O 0.88775 0.44059 0.37435 0.0
O96 O 0.80075 0.51719 0.35703 0.0
O97 O 0.8026 0.46405 0.35002 0.0
O98 O 0.58862 0.82439 0.91705 0.0
Cd99 Cd 0.60018 0.84174 0.88462 0.0
Cd100 Cd 0.53683 0.82246 0.87828 0.0
O101 O 0.54021 0.80207 0.91095 0.0
O102 O 0.64945 0.84152 0.88383 0.0
O103 O 0.61891 0.80904 0.8624 0.0
C104 C 0.64758 0.81756 0.86941 0.0
C105 C 0.52843 0.79479 0.84366 0.0
C106 C 0.56419 0.8081 0.92428 0.0
C107 C 0.551 0.89449 0.87453 0.0
O108 O 0.52959 0.87215 0.87672 0.0
O109 O 0.58136 0.88744 0.87532 0.0
O110 O 0.50423 0.80084 0.85734 0.0
O111 O 0.55741 0.80256 0.85051 0.0
O112 O 0.82567 0.58763 0.91703 0.0
Cd113 Cd 0.84252 0.5993 0.88451 0.0
Cd114 Cd 0.82226 0.53652 0.87788 0.0
O115 O 0.80207 0.5399 0.91063 0.0
O116 O 0.84285 0.64857 0.88383 0.0
O117 O 0.80956 0.61851 0.86267 0.0
C118 C 0.81857 0.64706 0.86965 0.0
C119 C 0.79446 0.52817 0.84328 0.0
C120 C 0.80888 0.56346 0.92416 0.0
C121 C 0.89443 0.5496 0.87399 0.0
O122 O 0.87181 0.52851 0.87624 0.0
O123 O 0.88783 0.58008 0.87484 0.0
O124 O 0.80028 0.50401 0.85706 0.0
O125 O 0.80248 0.55714 0.85003 0.0
O126 O 0.43479 0.82381 0.41716 0.0
Cd127 Cd 0.42327 0.84171 0.38487 0.0
Cd128 Cd 0.48646 0.82206 0.37831 0.0
O129 O 0.48314 0.80148 0.41092 0.0
O130 O 0.37401 0.84197 0.38417 0.0
O131 O 0.40411 0.80954 0.36243 0.0
C132 C 0.37556 0.81823 0.36955 0.0
C133 C 0.49445 0.79449 0.34361 0.0
C134 C 0.45919 0.80739 0.42429 0.0
C135 C 0.47282 0.89422 0.37492 0.0
O136 O 0.49408 0.87171 0.37688 0.0
O137 O 0.44241 0.88738 0.37583 0.0
O138 O 0.51877 0.80034 0.35724 0.0
O139 O 0.46557 0.80242 0.35055 0.0
O140 O 0.19703 0.43369 0.91666 0.0
Cd141 Cd 0.17948 0.42188 0.88433 0.0
Cd142 Cd 0.19962 0.48485 0.87749 0.0
O143 O 0.21989 0.48179 0.91023 0.0
O144 O 0.17891 0.3726 0.88398 0.0
O145 O 0.21189 0.40223 0.8623 0.0
C146 C 0.20292 0.37382 0.86957 0.0
C147 C 0.22745 0.49239 0.84283 0.0
C148 C 0.21359 0.45805 0.92372 0.0
C149 C 0.12742 0.47158 0.87385 0.0
O150 O 0.15005 0.49272 0.87581 0.0
O151 O 0.13404 0.44112 0.87494 0.0
O152 O 0.22159 0.51689 0.8563 0.0
O153 O 0.21939 0.46359 0.84992 0.0
O154 O 0.58618 0.19845 0.41686 0.0
Cd155 Cd 0.5984 0.1806 0.3847 0.0
Cd156 Cd 0.53532 0.20025 0.37744 0.0
O157 O 0.53805 0.22092 0.41005 0.0
O158 O 0.6477 0.18065 0.38436 0.0
O159 O 0.61768 0.21285 0.36237 0.0
C160 C 0.64618 0.20435 0.36969 0.0
C161 C 0.52792 0.22776 0.34262 0.0
C162 C 0.56167 0.21493 0.42371 0.0
C163 C 0.54913 0.12804 0.37438 0.0
O164 O 0.52785 0.15056 0.37604 0.0
O165 O 0.57953 0.13488 0.37557 0.0
O166 O 0.50334 0.2218 0.35598 0.0
O167 O 0.55668 0.21995 0.34988 0.0
O168 O 0.82621 0.43193 0.60234 0.0
Cd169 Cd 0.84294 0.42048 0.63494 0.0
Cd170 Cd 0.82329 0.48356 0.64116 0.0
O171 O 0.80328 0.48006 0.60835 0.0
O172 O 0.84306 0.37121 0.63569 0.0
O173 O 0.80987 0.40143 0.65677 0.0
C174 C 0.81876 0.37284 0.64982 0.0
C175 C 0.79529 0.49207 0.67563 0.0
C176 C 0.80978 0.45621 0.59502 0.0
C177 C 0.89528 0.46987 0.64539 0.0
O178 O 0.87291 0.49116 0.64298 0.0
O179 O 0.88836 0.43946 0.64463 0.0
O180 O 0.80136 0.5162 0.66187 0.0
O181 O 0.8032 0.46306 0.66893 0.0
O182 O 0.5877 0.82491 0.10201 0.0
Cd183 Cd 0.59956 0.84228 0.13437 0.0
Cd184 Cd 0.53636 0.82302 0.1411 0.0
O185 O 0.5394 0.80255 0.10844 0.0
O186 O 0.64882 0.84212 0.13503 0.0
O187 O 0.61845 0.80972 0.15664 0.0
C188 C 0.64706 0.81827 0.14956 0.0
C189 C 0.52814 0.79531 0.17574 0.0
C190 C 0.56318 0.80859 0.09494 0.0
C191 C 0.55057 0.89507 0.14458 0.0
O192 O 0.52912 0.87274 0.1426 0.0
O193 O 0.58091 0.88799 0.14362 0.0
O194 O 0.50387 0.80143 0.16212 0.0
O195 O 0.55708 0.80308 0.16882 0.0
O196 O 0.19604 0.58841 0.60167 0.0
Cd197 Cd 0.17947 0.60037 0.63421 0.0
Cd198 Cd 0.19913 0.5373 0.64084 0.0
O199 O 0.21899 0.54035 0.60797 0.0
O200 O 0.17941 0.64966 0.63469 0.0
O201 O 0.2126 0.61962 0.65592 0.0
C202 C 0.20371 0.64815 0.64884 0.0
C203 C 0.22727 0.52937 0.67534 0.0
C204 C 0.2124 0.56401 0.59447 0.0
C205 C 0.12715 0.55114 0.64508 0.0
O206 O 0.14951 0.52981 0.64279 0.0
O207 O 0.13407 0.58154 0.64409 0.0
O208 O 0.22105 0.50498 0.66184 0.0
O209 O 0.21943 0.55827 0.66835 0.0
O210 O 0.43399 0.19829 0.10131 0.0
Cd211 Cd 0.42216 0.18059 0.1336 0.0
Cd212 Cd 0.48565 0.19971 0.14018 0.0
O213 O 0.48263 0.22008 0.10749 0.0
O214 O 0.37288 0.18063 0.13409 0.0
O215 O 0.40304 0.21292 0.15592 0.0
C216 C 0.3745 0.20439 0.14869 0.0
C217 C 0.49322 0.22747 0.17485 0.0
C218 C 0.4586 0.21437 0.09413 0.0
C219 C 0.47119 0.12771 0.14381 0.0
O220 O 0.49269 0.14999 0.14182 0.0
O221 O 0.44085 0.13484 0.1428 0.0
O222 O 0.51776 0.22134 0.1615 0.0
O223 O 0.46442 0.21969 0.16764 0.0
H224 H 0.0715 0.43436 0.147 0.0
H225 H 0.95097 0.5892 0.14769 0.0
H226 H 0.10465 0.53459 0.14771 0.0
H227 H 0.91785 0.48896 0.14773 0.0
H228 H 1.00747 0.56969 0.14963 0.0
H229 H 0.01502 0.45385 0.14919 0.0
C230 C 0.06697 0.46043 0.14775 0.0
C231 C 0.09297 0.48281 0.14706 0.0
C232 C 0.9878 0.55198 0.14932 0.0
C233 C 0.02827 0.50535 0.14948 0.0
C234 C 0.95551 0.56313 0.14825 0.0
C235 C 0.92951 0.54075 0.14744 0.0
C236 C 0.99423 0.51818 0.14956 0.0
C237 C 0.937 0.5072 0.14822 0.0
C238 C 0.03468 0.47157 0.14897 0.0
C239 C 0.08549 0.51635 0.14809 0.0
N240 N 0.96858 0.49699 0.14914 0.0
N241 N 0.05392 0.52655 0.14915 0.0
H242 H 0.53513 0.91698 0.64797 0.0
H243 H 0.48559 0.10622 0.64672 0.0
H244 H 0.43532 0.951 0.64571 0.0
H245 H 0.58544 0.07218 0.64591 0.0
H246 H 0.46687 0.04974 0.64876 0.0
H247 H 0.55381 0.97351 0.64966 0.0
C248 C 0.51705 0.93631 0.64794 0.0
C249 C 0.4835 0.92907 0.64659 0.0
C250 C 0.49288 0.05456 0.64822 0.0
C251 C 0.50497 0.99422 0.64848 0.0
C252 C 0.50367 0.0869 0.64707 0.0
C253 C 0.53725 0.09412 0.64604 0.0
C254 C 0.51574 0.02901 0.64834 0.0
C255 C 0.55936 0.06789 0.64663 0.0
C256 C 0.52782 0.96867 0.64889 0.0
C257 C 0.46138 0.95531 0.64669 0.0
N258 N 0.54821 0.03653 0.64766 0.0
N259 N 0.47251 0.98668 0.64752 0.0
H260 H 0.07042 0.58951 0.37058 0.0
H261 H 0.95068 0.43392 0.37029 0.0
H262 H 0.10403 0.48947 0.3698 0.0
H263 H 0.91702 0.53395 0.37053 0.0
H264 H 1.00705 0.4538 0.36801 0.0
H265 H 0.01401 0.56969 0.36846 0.0
C266 C 0.06601 0.56343 0.36982 0.0
C267 C 0.09211 0.54119 0.37049 0.0
C268 C 0.98729 0.47139 0.36845 0.0
C269 C 0.02751 0.51827 0.36816 0.0
C270 C 0.95507 0.46003 0.36973 0.0
C271 C 0.92897 0.48223 0.37072 0.0
C272 C 0.99353 0.50522 0.36821 0.0
C273 C 0.93627 0.51583 0.36991 0.0
C274 C 0.03377 0.5521 0.36864 0.0
C275 C 0.08478 0.50761 0.36944 0.0
N276 N 0.96777 0.52625 0.36881 0.0
N277 N 0.05326 0.49722 0.36843 0.0
H278 H 0.58835 0.95047 0.87152 0.0
H279 H 0.43337 0.07084 0.87208 0.0
H280 H 0.4882 0.91719 0.87179 0.0
H281 H 0.53346 0.10418 0.87044 0.0
H282 H 0.45294 0.01433 0.87025 0.0
H283 H 0.56874 1.00697 0.86941 0.0
C284 C 0.56228 0.95497 0.87101 0.0
C285 C 0.53996 0.92893 0.87194 0.0
C286 C 0.47061 0.03404 0.87018 0.0
C287 C 0.51728 0.99364 0.86961 0.0
C288 C 0.45942 0.06635 0.8712 0.0
C289 C 0.48174 0.09242 0.87151 0.0
C290 C 0.50439 0.02768 0.86952 0.0
C291 C 0.51527 0.08497 0.87033 0.0
C292 C 0.55107 0.98726 0.86983 0.0
C293 C 0.50641 0.93638 0.87121 0.0
N294 N 0.52552 0.05339 0.86949 0.0
N295 N 0.49615 0.96794 0.87019 0.0
H296 H 0.91612 0.48649 0.8706 0.0
H297 H 0.10568 0.53461 0.86991 0.0
H298 H 0.95101 0.58612 0.87145 0.0
H299 H 0.07082 0.43501 0.87195 0.0
H300 H 0.04937 0.55373 0.86792 0.0
H301 H 0.97242 0.46733 0.86854 0.0
C302 C 0.93559 0.50443 0.87024 0.0
C303 C 0.92867 0.53808 0.87131 0.0
C304 C 0.05398 0.52768 0.86871 0.0
C305 C 0.99356 0.51606 0.869 0.0
C306 C 0.08621 0.51667 0.86983 0.0
C307 C 0.09315 0.48305 0.87122 0.0
C308 C 0.02824 0.50502 0.86898 0.0
C309 C 0.06674 0.46111 0.87096 0.0
C310 C 0.96782 0.49339 0.86908 0.0
C311 C 0.95508 0.56 0.8707 0.0
N312 N 0.03549 0.47248 0.86997 0.0
N313 N 0.98632 0.54861 0.86969 0.0
H314 H 0.48627 0.10574 0.37067 0.0
H315 H 0.53575 0.91648 0.37164 0.0
H316 H 0.58608 0.07169 0.37276 0.0
H317 H 0.43591 0.95055 0.37264 0.0
H318 H 0.55448 0.97297 0.36963 0.0
H319 H 0.46757 0.04922 0.36895 0.0
C320 C 0.50435 0.08641 0.37066 0.0
C321 C 0.5379 0.09363 0.37196 0.0
C322 C 0.52847 0.96814 0.3702 0.0
C323 C 0.51641 0.02849 0.37005 0.0
C324 C 0.51767 0.93581 0.37133 0.0
C325 C 0.4841 0.9286 0.37241 0.0
C326 C 0.50562 0.99371 0.37015 0.0
C327 C 0.46199 0.95484 0.37188 0.0
C328 C 0.49356 0.05405 0.3697 0.0
C329 C 0.56001 0.06739 0.37182 0.0
N330 N 0.47315 0.98619 0.37088 0.0
N331 N 0.54887 0.03602 0.37097 0.0
H332 H 0.95133 0.43275 0.64849 0.0
H333 H 0.07111 0.58831 0.64791 0.0
H334 H 0.91772 0.53279 0.64839 0.0
H335 H 0.10472 0.48827 0.64857 0.0
H336 H 0.01472 0.56849 0.65018 0.0
H337 H 1.00772 0.4526 0.65062 0.0
C338 C 0.95574 0.45884 0.64905 0.0
C339 C 0.92964 0.48107 0.64814 0.0
C340 C 0.03447 0.55089 0.64994 0.0
C341 C 0.99423 0.50402 0.65048 0.0
C342 C 0.0667 0.56222 0.64867 0.0
C343 C 0.0928 0.53999 0.64792 0.0
C344 C 0.02821 0.51706 0.65044 0.0
C345 C 0.08548 0.5064 0.64899 0.0
C346 C 0.98797 0.47019 0.65024 0.0
C347 C 0.93696 0.51466 0.64895 0.0
N348 N 0.05396 0.49601 0.65009 0.0
N349 N 0.96848 0.52507 0.64996 0.0
H350 H 0.43359 0.07187 0.14641 0.0
H351 H 0.5881 0.95094 0.14703 0.0
H352 H 0.53386 0.10478 0.14702 0.0
H353 H 0.48786 0.91797 0.14755 0.0
H354 H 0.56871 1.00751 0.14881 0.0
H355 H 0.45294 0.0153 0.1486 0.0
C356 C 0.45963 0.06727 0.14713 0.0
C357 C 0.48207 0.09323 0.14643 0.0
C358 C 0.55097 0.98787 0.14864 0.0
C359 C 0.50445 0.02844 0.14884 0.0
C360 C 0.56206 0.95553 0.14766 0.0
C361 C 0.53964 0.92955 0.14704 0.0
C362 C 0.51721 0.99435 0.14898 0.0
C363 C 0.50613 0.93711 0.1479 0.0
C364 C 0.47069 0.03494 0.14836 0.0
C365 C 0.51557 0.08566 0.14743 0.0
N366 N 0.49598 0.96873 0.14873 0.0
N367 N 0.5257 0.05405 0.14848 0.0
H368 H 0.24113 0.57688 0.31041 0.0
H369 H 0.24091 0.44695 0.20788 0.0
H370 H 0.23819 0.4724 0.32067 0.0
H371 H 0.23914 0.55145 0.19765 0.0
H372 H 0.25019 0.45578 0.24901 0.0
H373 H 0.25069 0.56794 0.26933 0.0
C374 C 0.24306 0.55202 0.30411 0.0
C375 C 0.23843 0.52533 0.319 0.0
C376 C 0.24825 0.4768 0.23774 0.0
C377 C 0.24901 0.51494 0.27182 0.0
C378 C 0.24304 0.47178 0.2142 0.0
C379 C 0.23882 0.49852 0.19929 0.0
C380 C 0.24909 0.50879 0.24653 0.0
C381 C 0.242 0.53011 0.2085 0.0
C382 C 0.24843 0.54694 0.28059 0.0
C383 C 0.24137 0.49371 0.30982 0.0
N384 N 0.2465 0.53436 0.23155 0.0
N385 N 0.24603 0.4894 0.28679 0.0
H386 H 0.57413 0.24239 0.70712 0.0
H387 H 0.44558 0.2413 0.81046 0.0
H388 H 0.46957 0.23983 0.69752 0.0
H389 H 0.55015 0.23876 0.82 0.0
H390 H 0.45392 0.25113 0.76934 0.0
H391 H 0.56575 0.25147 0.74832 0.0
C392 C 0.54937 0.2443 0.71359 0.0
C393 C 0.52249 0.2399 0.69885 0.0
C394 C 0.47506 0.2489 0.78046 0.0
C395 C 0.51274 0.24994 0.74615 0.0
C396 C 0.47033 0.24337 0.80399 0.0
C397 C 0.49722 0.23877 0.81869 0.0
C398 C 0.50693 0.24968 0.77148 0.0
C399 C 0.52869 0.2419 0.80931 0.0
C400 C 0.54462 0.2494 0.73717 0.0
C401 C 0.49101 0.24282 0.70824 0.0
N402 N 0.53267 0.24673 0.78626 0.0
N403 N 0.48701 0.24722 0.73133 0.0
H404 H 0.78179 0.47081 0.19679 0.0
H405 H 0.78135 0.55153 0.32205 0.0
H406 H 0.78287 0.57488 0.20901 0.0
H407 H 0.78225 0.44745 0.30984 0.0
H408 H 0.77212 0.5605 0.28088 0.0
H409 H 0.77221 0.46185 0.23793 0.0
C410 C 0.77943 0.49181 0.20804 0.0
C411 C 0.78356 0.52363 0.19945 0.0
C412 C 0.77386 0.53568 0.28724 0.0
C413 C 0.77298 0.51354 0.24668 0.0
C414 C 0.77901 0.53053 0.3108 0.0
C415 C 0.78301 0.4987 0.3194 0.0
C416 C 0.77285 0.50882 0.27213 0.0
C417 C 0.77964 0.47244 0.30396 0.0
C418 C 0.77406 0.48668 0.23157 0.0
C419 C 0.78016 0.5499 0.21487 0.0
N420 N 0.77519 0.4781 0.28107 0.0
N421 N 0.7755 0.54425 0.23775 0.0
H422 H 0.47011 0.78182 0.82212 0.0
H423 H 0.5523 0.78144 0.69737 0.0
H424 H 0.57429 0.78191 0.81052 0.0
H425 H 0.44812 0.78265 0.70893 0.0
H426 H 0.56071 0.77198 0.73858 0.0
H427 H 0.46156 0.77249 0.78091 0.0
C428 C 0.49122 0.77928 0.811 0.0
C429 C 0.52296 0.78308 0.81978 0.0
C430 C 0.53598 0.77384 0.73207 0.0
C431 C 0.51334 0.7728 0.77248 0.0
C432 C 0.53116 0.77913 0.70849 0.0
C433 C 0.49947 0.78326 0.6997 0.0
C434 C 0.50894 0.77284 0.747 0.0
C435 C 0.47302 0.77993 0.71496 0.0
C436 C 0.48631 0.77406 0.78742 0.0
C437 C 0.54936 0.77946 0.80451 0.0
N438 N 0.47836 0.77535 0.73788 0.0
N439 N 0.54395 0.77496 0.78159 0.0
H440 H 0.78082 0.46976 0.82206 0.0
H441 H 0.78181 0.55055 0.69678 0.0
H442 H 0.78233 0.57384 0.80982 0.0
H443 H 0.78252 0.44647 0.70902 0.0
H444 H 0.77217 0.55952 0.73791 0.0
H445 H 0.7716 0.46085 0.78087 0.0
C446 C 0.77862 0.49078 0.8108 0.0
C447 C 0.78278 0.52259 0.8194 0.0
C448 C 0.77396 0.53469 0.73156 0.0
C449 C 0.77263 0.51254 0.77212 0.0
C450 C 0.77935 0.52955 0.70803 0.0
C451 C 0.7834 0.49772 0.69945 0.0
C452 C 0.77277 0.50783 0.74667 0.0
C453 C 0.77987 0.47146 0.71488 0.0
C454 C 0.77347 0.48567 0.78723 0.0
C455 C 0.77958 0.54886 0.80395 0.0
N456 N 0.77519 0.47711 0.73775 0.0
N457 N 0.77514 0.54324 0.78105 0.0
H458 H 0.55254 0.78105 0.32197 0.0
H459 H 0.46994 0.78206 0.19732 0.0
H460 H 0.44834 0.78221 0.31051 0.0
H461 H 0.57416 0.7824 0.20878 0.0
H462 H 0.46157 0.77241 0.23852 0.0
H463 H 0.56085 0.77182 0.28072 0.0
C464 C 0.53138 0.77877 0.31086 0.0
C465 C 0.49971 0.78284 0.3197 0.0
C466 C 0.48629 0.77411 0.23198 0.0
C467 C 0.50905 0.77268 0.27236 0.0
C468 C 0.49109 0.77952 0.20841 0.0
C469 C 0.52279 0.78347 0.1996 0.0
C470 C 0.51337 0.77282 0.24688 0.0
C471 C 0.54926 0.77984 0.21482 0.0
C472 C 0.53614 0.77361 0.28727 0.0
C473 C 0.47322 0.77955 0.30446 0.0
N474 N 0.54394 0.77515 0.23773 0.0
N475 N 0.4785 0.7751 0.28152 0.0
H476 H 0.24113 0.4458 0.81034 0.0
H477 H 0.24197 0.57572 0.70778 0.0
H478 H 0.23981 0.5503 0.82055 0.0
H479 H 0.23886 0.47126 0.69755 0.0
H480 H 0.25147 0.56676 0.74888 0.0
H481 H 0.25056 0.45459 0.76922 0.0
C482 C 0.24339 0.47062 0.80402 0.0
C483 C 0.23925 0.49737 0.81891 0.0
C484 C 0.24919 0.54577 0.73762 0.0
C485 C 0.24969 0.50761 0.7717 0.0
C486 C 0.24385 0.55087 0.71409 0.0
C487 C 0.23919 0.52419 0.6992 0.0
C488 C 0.24969 0.51377 0.7464 0.0
C489 C 0.24207 0.49256 0.70839 0.0
C490 C 0.24869 0.47562 0.78049 0.0
C491 C 0.2426 0.52895 0.80971 0.0
N492 N 0.24669 0.48824 0.73143 0.0
N493 N 0.24718 0.53319 0.78666 0.0
H494 H 0.57483 0.24184 0.31046 0.0
H495 H 0.44642 0.24199 0.20697 0.0
H496 H 0.47025 0.2395 0.31992 0.0
H497 H 0.55098 0.23903 0.19751 0.0
H498 H 0.45476 0.25144 0.24813 0.0
H499 H 0.56656 0.25116 0.26928 0.0
C500 C 0.55009 0.24384 0.30396 0.0
C501 C 0.52317 0.23946 0.31866 0.0
C502 C 0.4759 0.2492 0.23702 0.0
C503 C 0.51354 0.24979 0.27137 0.0
C504 C 0.47117 0.24389 0.21346 0.0
C505 C 0.49805 0.23928 0.19877 0.0
C506 C 0.50776 0.24976 0.24604 0.0
C507 C 0.52953 0.24219 0.20819 0.0
C508 C 0.54539 0.24909 0.28039 0.0
C509 C 0.49172 0.24249 0.30923 0.0
N510 N 0.5335 0.24681 0.23126 0.0
N511 N 0.48778 0.24704 0.28615 0.0
H512 H 0.2224 0.40616 0.95225 0.0
H513 H 0.22877 0.51308 0.06755 0.0
H514 H 0.22694 0.51152 0.95121 0.0
H515 H 0.21994 0.40802 0.06502 0.0
H516 H 0.23671 0.51365 0.02548 0.0
H517 H 0.23053 0.407 0.99376 0.0
C518 C 0.22544 0.42954 0.96077 0.0
C519 C 0.22357 0.45883 0.94827 0.0
C520 C 0.23347 0.49049 0.03424 0.0
C521 C 0.23242 0.46007 0.99617 0.0
C522 C 0.22908 0.49014 0.05823 0.0
C523 C 0.22326 0.46049 0.06977 0.0
C524 C 0.23223 0.46096 0.02183 0.0
C525 C 0.22385 0.43151 0.05685 0.0
C526 C 0.23007 0.43003 0.98455 0.0
C527 C 0.22813 0.48837 0.96022 0.0
N528 N 0.22797 0.43252 0.03365 0.0
N529 N 0.23185 0.48829 0.98361 0.0
H530 H 0.50785 0.23032 0.45029 0.0
H531 H 0.61409 0.22492 0.5659 0.0
H532 H 0.61288 0.22201 0.45314 0.0
H533 H 0.50874 0.22851 0.56652 0.0
H534 H 0.61348 0.23322 0.5244 0.0
H535 H 0.50705 0.23859 0.49231 0.0
C536 C 0.53074 0.23082 0.45966 0.0
C537 C 0.56045 0.22503 0.44823 0.0
C538 C 0.59041 0.23252 0.53353 0.0
C539 C 0.55971 0.23436 0.49613 0.0
C540 C 0.59076 0.22779 0.5573 0.0
C541 C 0.56141 0.22559 0.56967 0.0
C542 C 0.56045 0.23461 0.52179 0.0
C543 C 0.53194 0.22994 0.55761 0.0
C544 C 0.53026 0.2354 0.48364 0.0
C545 C 0.58936 0.22588 0.46123 0.0
N546 N 0.53216 0.23375 0.53424 0.0
N547 N 0.58821 0.23016 0.48441 0.0
H548 H 0.80113 0.61704 0.06634 0.0
H549 H 0.79258 0.51015 0.95105 0.0
H550 H 0.79507 0.51175 0.06739 0.0
H551 H 0.80388 0.61497 0.95353 0.0
H552 H 0.78486 0.50978 0.99313 0.0
H553 H 0.79311 0.61629 0.02482 0.0
C554 C 0.79779 0.5937 0.05782 0.0
C555 C 0.79919 0.56439 0.07034 0.0
C556 C 0.78861 0.53285 0.98437 0.0
C557 C 0.79045 0.56326 0.02243 0.0
C558 C 0.79287 0.5331 0.96036 0.0
C559 C 0.79929 0.5626 0.9488 0.0
C560 C 0.79059 0.56235 0.99677 0.0
C561 C 0.79947 0.59159 0.96172 0.0
C562 C 0.79322 0.59327 0.03404 0.0
C563 C 0.79426 0.53491 0.05838 0.0
N564 N 0.79545 0.59068 0.98493 0.0
N565 N 0.79058 0.53504 0.03499 0.0
H566 H 0.51343 0.79243 0.56819 0.0
H567 H 0.40716 0.79798 0.45258 0.0
H568 H 0.40842 0.80096 0.56535 0.0
H569 H 0.51251 0.79426 0.45194 0.0
H570 H 0.40778 0.78971 0.49409 0.0
H571 H 0.51421 0.78418 0.52616 0.0
C572 C 0.49054 0.79198 0.55881 0.0
C573 C 0.46085 0.79782 0.57024 0.0
C574 C 0.43085 0.79037 0.48496 0.0
C575 C 0.46156 0.78851 0.52235 0.0
C576 C 0.43049 0.79508 0.46119 0.0
C577 C 0.45984 0.79724 0.44881 0.0
C578 C 0.46081 0.78825 0.49669 0.0
C579 C 0.48931 0.79285 0.46086 0.0
C580 C 0.49101 0.78741 0.53484 0.0
C581 C 0.43193 0.79704 0.55725 0.0
N582 N 0.4891 0.78907 0.48423 0.0
N583 N 0.43306 0.79277 0.53407 0.0
H584 H 0.21987 0.61745 0.45221 0.0
H585 H 0.22807 0.51055 0.56756 0.0
H586 H 0.22583 0.51216 0.45116 0.0
H587 H 0.2176 0.61546 0.56503 0.0
H588 H 0.23558 0.51011 0.52545 0.0
H589 H 0.22775 0.61667 0.49374 0.0
C590 C 0.22315 0.5941 0.46073 0.0
C591 C 0.22178 0.5648 0.44821 0.0
C592 C 0.23206 0.53321 0.53421 0.0
C593 C 0.23038 0.56363 0.49614 0.0
C594 C 0.22791 0.5335 0.55823 0.0
C595 C 0.2218 0.56305 0.56979 0.0
C596 C 0.23027 0.56271 0.5218 0.0
C597 C 0.22177 0.59204 0.55685 0.0
C598 C 0.22764 0.59365 0.48452 0.0
C599 C 0.22663 0.53531 0.46018 0.0
N600 N 0.22568 0.59108 0.53363 0.0
N601 N 0.23024 0.53542 0.48357 0.0
H602 H 0.51275 0.22863 0.95016 0.0
H603 H 0.40663 0.22414 0.06583 0.0
H604 H 0.40768 0.22074 0.95307 0.0
H605 H 0.51201 0.22688 0.06643 0.0
H606 H 0.40727 0.23224 0.02431 0.0
H607 H 0.51367 0.23687 0.99219 0.0
C608 C 0.48988 0.22921 0.95955 0.0
C609 C 0.46012 0.22357 0.94813 0.0
C610 C 0.43034 0.23139 0.03344 0.0
C611 C 0.461 0.23288 0.99603 0.0
C612 C 0.42998 0.22678 0.05722 0.0
C613 C 0.45932 0.2244 0.06959 0.0
C614 C 0.46031 0.2332 0.02169 0.0
C615 C 0.48882 0.22846 0.05752 0.0
C616 C 0.49044 0.23377 0.98352 0.0
C617 C 0.43124 0.22451 0.96115 0.0
N618 N 0.4886 0.23216 0.03414 0.0
N619 N 0.43245 0.22879 0.98433 0.0
H620 H 0.7932 0.51089 0.45102 0.0
H621 H 0.80273 0.40414 0.56638 0.0
H622 H 0.80488 0.40611 0.45355 0.0
H623 H 0.7955 0.50936 0.56741 0.0
H624 H 0.79486 0.40481 0.52485 0.0
H625 H 0.78574 0.51126 0.49313 0.0
C626 C 0.79364 0.48795 0.46034 0.0
C627 C 0.80008 0.45847 0.44878 0.0
C628 C 0.79469 0.42783 0.53407 0.0
C629 C 0.79167 0.45872 0.49678 0.0
C630 C 0.79917 0.42745 0.55786 0.0
C631 C 0.80018 0.45677 0.57037 0.0
C632 C 0.79159 0.4578 0.52244 0.0
C633 C 0.79499 0.48619 0.5584 0.0
C634 C 0.78952 0.48819 0.48437 0.0
C635 C 0.80045 0.42949 0.46173 0.0
N636 N 0.79138 0.48602 0.535 0.0
N637 N 0.79657 0.4304 0.48495 0.0
H638 H 0.5096 0.79294 0.06816 0.0
H639 H 0.61621 0.79959 0.95276 0.0
H640 H 0.61456 0.80234 0.06557 0.0
H641 H 0.51091 0.79463 0.9519 0.0
H642 H 0.61552 0.79155 0.99428 0.0
H643 H 0.50903 0.7849 0.02611 0.0
C644 C 0.53253 0.79274 0.05883 0.0
C645 C 0.56215 0.79874 0.07035 0.0
C646 C 0.59248 0.79189 0.9851 0.0
C647 C 0.56166 0.78968 0.02242 0.0
C648 C 0.59288 0.79648 0.96132 0.0
C649 C 0.56355 0.7982 0.94886 0.0
C650 C 0.56251 0.78945 0.99676 0.0
C651 C 0.53408 0.79356 0.96086 0.0
C652 C 0.53218 0.78829 0.03485 0.0
C653 C 0.59111 0.79828 0.05741 0.0
N654 N 0.53426 0.78988 0.98425 0.0
N655 N 0.59009 0.79411 0.03422 0.0
H656 H 0.19588 0.3123 0.132 0.0
H657 H 0.37025 0.25536 0.17915 0.0
H658 H 0.25609 0.36998 0.17761 0.0
H659 H 0.31214 0.19864 0.13163 0.0
H660 H 0.32461 0.29322 0.18379 0.0
H661 H 0.23379 0.26653 0.13664 0.0
C662 C 0.21674 0.31518 0.14332 0.0
C663 C 0.22296 0.3452 0.15424 0.0
C664 C 0.32163 0.27227 0.17258 0.0
C665 C 0.26671 0.29292 0.15943 0.0
C666 C 0.3477 0.25053 0.16997 0.0
C667 C 0.34519 0.22392 0.15478 0.0
C668 C 0.29283 0.26756 0.1598 0.0
C669 C 0.31527 0.2189 0.14343 0.0
C670 C 0.23847 0.28904 0.14589 0.0
C671 C 0.25041 0.34742 0.1687 0.0
N672 N 0.29043 0.24074 0.14594 0.0
N673 N 0.27142 0.32181 0.17066 0.0
H674 H 0.82623 0.31014 0.63376 0.0
H675 H 0.65039 0.2552 0.67944 0.0
H676 H 0.76577 0.36873 0.67855 0.0
H677 H 0.70841 0.19799 0.63223 0.0
H678 H 0.69642 0.29255 0.68445 0.0
H679 H 0.78772 0.26479 0.63815 0.0
C680 C 0.80519 0.31331 0.64486 0.0
C681 C 0.79909 0.34346 0.65561 0.0
C682 C 0.69928 0.2716 0.67322 0.0
C683 C 0.75464 0.29167 0.6605 0.0
C684 C 0.67299 0.25016 0.6704 0.0
C685 C 0.67537 0.22356 0.65519 0.0
C686 C 0.7282 0.26661 0.66064 0.0
C687 C 0.70538 0.21826 0.64403 0.0
C688 C 0.78311 0.28741 0.64728 0.0
C689 C 0.77138 0.34606 0.66978 0.0
N690 N 0.73045 0.23981 0.64675 0.0
N691 N 0.75004 0.32068 0.6716 0.0
H692 H 0.82643 0.71137 0.13379 0.0
H693 H 0.65101 0.7669 0.17973 0.0
H694 H 0.76572 0.65279 0.17848 0.0
H695 H 0.70966 0.82444 0.13305 0.0
H696 H 0.69674 0.72918 0.18456 0.0
H697 H 0.78826 0.75691 0.13841 0.0
C698 C 0.8054 0.70824 0.14492 0.0
C699 C 0.79913 0.67804 0.15557 0.0
C700 C 0.69981 0.75028 0.17349 0.0
C701 C 0.75506 0.73005 0.16073 0.0
C702 C 0.67369 0.77193 0.17077 0.0
C703 C 0.67633 0.79874 0.15576 0.0
C704 C 0.72881 0.75527 0.161 0.0
C705 C 0.70642 0.80402 0.1447 0.0
C706 C 0.78352 0.73425 0.14747 0.0
C707 C 0.77146 0.6755 0.16978 0.0
N708 N 0.73132 0.78227 0.14731 0.0
N709 N 0.7503 0.70099 0.17173 0.0
H710 H 0.19613 0.71079 0.63265 0.0
H711 H 0.3713 0.76676 0.67912 0.0
H712 H 0.2566 0.65248 0.67766 0.0
H713 H 0.31304 0.824 0.63202 0.0
H714 H 0.32558 0.72894 0.68376 0.0
H715 H 0.23439 0.75634 0.63718 0.0
C716 C 0.21713 0.70772 0.64382 0.0
C717 C 0.2233 0.6776 0.6546 0.0
C718 C 0.32259 0.75 0.67264 0.0
C719 C 0.26745 0.72962 0.65967 0.0
C720 C 0.34871 0.77171 0.67003 0.0
C721 C 0.34617 0.79847 0.65496 0.0
C722 C 0.2937 0.75488 0.65999 0.0
C723 C 0.31619 0.80363 0.64372 0.0
C724 C 0.23906 0.73374 0.64632 0.0
C725 C 0.25094 0.67513 0.66886 0.0
N726 N 0.29129 0.78182 0.64624 0.0
N727 N 0.27213 0.70062 0.67077 0.0
H728 H 0.37117 0.76716 0.33917 0.0
H729 H 0.1956 0.71202 0.38522 0.0
H730 H 0.31307 0.82456 0.38622 0.0
H731 H 0.25577 0.65364 0.3401 0.0
H732 H 0.23404 0.75742 0.38076 0.0
H733 H 0.3252 0.72971 0.33428 0.0
C734 C 0.34856 0.77222 0.34819 0.0
C735 C 0.34614 0.79891 0.36332 0.0
C736 C 0.2386 0.73484 0.37157 0.0
C737 C 0.29338 0.75574 0.35802 0.0
C738 C 0.21656 0.70891 0.37404 0.0
C739 C 0.22261 0.6788 0.36321 0.0
C740 C 0.26698 0.73064 0.35824 0.0
C741 C 0.25021 0.67628 0.34893 0.0
C742 C 0.3223 0.75072 0.34544 0.0
C743 C 0.31614 0.80423 0.37447 0.0
N744 N 0.27151 0.70168 0.34707 0.0
N745 N 0.2911 0.78262 0.37183 0.0
H746 H 0.36962 0.25446 0.83906 0.0
H747 H 0.19525 0.3114 0.88618 0.0
H748 H 0.31176 0.19792 0.88683 0.0
H749 H 0.25524 0.36889 0.84032 0.0
H750 H 0.23325 0.26568 0.88169 0.0
H751 H 0.32393 0.29226 0.83438 0.0
C752 C 0.34712 0.24967 0.8483 0.0
C753 C 0.34469 0.22311 0.86356 0.0
C754 C 0.23786 0.28813 0.87235 0.0
C755 C 0.29225 0.26668 0.85849 0.0
C756 C 0.21607 0.31425 0.87483 0.0
C757 C 0.2222 0.3442 0.8638 0.0
C758 C 0.26607 0.29199 0.85878 0.0
C759 C 0.24962 0.34638 0.84931 0.0
C760 C 0.32102 0.27136 0.84566 0.0
C761 C 0.31482 0.21814 0.87498 0.0
N762 N 0.27068 0.32081 0.84743 0.0
N763 N 0.28994 0.23993 0.87243 0.0
H764 H 0.65056 0.25535 0.33925 0.0
H765 H 0.8258 0.31129 0.38563 0.0
H766 H 0.70856 0.19844 0.3867 0.0
H767 H 0.76516 0.36969 0.34079 0.0
H768 H 0.78752 0.26576 0.38114 0.0
H769 H 0.69636 0.29306 0.33452 0.0
C770 C 0.67312 0.25045 0.3484 0.0
C771 C 0.67555 0.22382 0.36359 0.0
C772 C 0.78282 0.28838 0.37202 0.0
C773 C 0.72811 0.26729 0.35846 0.0
C774 C 0.80476 0.31438 0.3745 0.0
C775 C 0.79855 0.34453 0.36376 0.0
C776 C 0.75438 0.29252 0.35874 0.0
C777 C 0.77086 0.34702 0.34955 0.0
C778 C 0.69927 0.2721 0.34574 0.0
C779 C 0.70548 0.21872 0.3749 0.0
N780 N 0.74966 0.32154 0.34766 0.0
N781 N 0.73043 0.24046 0.37233 0.0
H782 H 0.82652 0.70981 0.88554 0.0
H783 H 0.65128 0.76594 0.83944 0.0
H784 H 0.76557 0.65136 0.84093 0.0
H785 H 0.71021 0.82349 0.88595 0.0
H786 H 0.6968 0.72794 0.83479 0.0
H787 H 0.78845 0.75545 0.88092 0.0
C788 C 0.80546 0.70672 0.87444 0.0
C789 C 0.7991 0.67654 0.8638 0.0
C790 C 0.69998 0.7491 0.84578 0.0
C791 C 0.75515 0.72867 0.85863 0.0
C792 C 0.67398 0.77092 0.84839 0.0
C793 C 0.67676 0.79783 0.8633 0.0
C794 C 0.72901 0.75402 0.85827 0.0
C795 C 0.70686 0.80301 0.87437 0.0
C796 C 0.78363 0.73279 0.87188 0.0
C797 C 0.77138 0.67406 0.84961 0.0
N798 N 0.73165 0.78109 0.87186 0.0
N799 N 0.75029 0.69961 0.84766 0.0
loop_
_geom_bond_atom_site_label_1
_geom_bond_atom_site_label_2
_geom_bond_distance
_geom_bond_site_symmetry_2
_ccdc_geom_bond_type
O0 Cd1 2.223 . S
O0 C8 1.315 . S
Cd1 O0 2.223 . S
Cd1 O4 2.297 . S
Cd1 O5 2.439 . S
Cd1 O11 2.240 . S
Cd2 O3 2.240 . S
Cd2 O10 2.223 . S
Cd2 O12 2.297 . S
Cd2 O13 2.439 . S
O3 Cd2 2.240 . S
O3 C8 1.279 . S
O4 Cd1 2.297 . S
O4 C6 1.247 . S
O5 Cd1 2.439 . S
O5 C6 1.208 . S
C6 O4 1.247 . S
C6 O5 1.208 . S
C7 O12 1.247 . S
C7 O13 1.208 . S
C8 O0 1.315 . S
C8 O3 1.279 . S
C9 O10 1.315 . S
C9 O11 1.279 . S
O10 Cd2 2.223 . S
O10 C9 1.315 . S
O11 Cd1 2.240 . S
O11 C9 1.279 . S
O12 Cd2 2.297 . S
O12 C7 1.247 . S
O13 Cd2 2.439 . S
O13 C7 1.208 . S
O14 Cd15 2.223 . S
O14 C22 1.315 . S
Cd15 O14 2.223 . S
Cd15 O18 2.297 . S
Cd15 O19 2.439 . S
Cd15 O25 2.240 . S
Cd16 O17 2.240 . S
Cd16 O24 2.223 . S
Cd16 O26 2.297 . S
Cd16 O27 2.439 . S
O17 Cd16 2.240 . S
O17 C22 1.279 . S
O18 Cd15 2.297 . S
O18 C20 1.247 . S
O19 Cd15 2.439 . S
O19 C20 1.208 . S
C20 O18 1.247 . S
C20 O19 1.208 . S
C21 O26 1.247 . S
C21 O27 1.208 . S
C22 O14 1.315 . S
C22 O17 1.279 . S
C23 O24 1.315 . S
C23 O25 1.279 . S
O24 Cd16 2.223 . S
O24 C23 1.315 . S
O25 Cd15 2.240 . S
O25 C23 1.279 . S
O26 Cd16 2.297 . S
O26 C21 1.247 . S
O27 Cd16 2.439 . S
O27 C21 1.208 . S
O28 Cd29 2.223 . S
O28 C36 1.315 . S
Cd29 O28 2.223 . S
Cd29 O32 2.297 . S
Cd29 O33 2.439 . S
Cd29 O39 2.240 . S
Cd30 O31 2.240 . S
Cd30 O38 2.223 . S
Cd30 O40 2.297 . S
Cd30 O41 2.439 . S
O31 Cd30 2.240 . S
O31 C36 1.279 . S
O32 Cd29 2.297 . S
O32 C34 1.247 . S
O33 Cd29 2.439 . S
O33 C34 1.208 . S
C34 O32 1.247 . S
C34 O33 1.208 . S
C35 O40 1.247 . S
C35 O41 1.208 . S
C36 O28 1.315 . S
C36 O31 1.279 . S
C37 O38 1.315 . S
C37 O39 1.279 . S
O38 Cd30 2.223 . S
O38 C37 1.315 . S
O39 Cd29 2.240 . S
O39 C37 1.279 . S
O40 Cd30 2.297 . S
O40 C35 1.247 . S
O41 Cd30 2.439 . S
O41 C35 1.208 . S
O42 Cd43 2.223 . S
O42 C50 1.315 . S
Cd43 O42 2.223 . S
Cd43 O46 2.297 . S
Cd43 O47 2.439 . S
Cd43 O53 2.240 . S
Cd44 O45 2.240 . S
Cd44 O52 2.223 . S
Cd44 O54 2.297 . S
Cd44 O55 2.439 . S
O45 Cd44 2.240 . S
O45 C50 1.279 . S
O46 Cd43 2.297 . S
O46 C48 1.247 . S
O47 Cd43 2.439 . S
O47 C48 1.208 . S
C48 O46 1.247 . S
C48 O47 1.208 . S
C49 O54 1.247 . S
C49 O55 1.208 . S
C50 O42 1.315 . S
C50 O45 1.279 . S
C51 O52 1.315 . S
C51 O53 1.279 . S
O52 Cd44 2.223 . S
O52 C51 1.315 . S
O53 Cd43 2.240 . S
O53 C51 1.279 . S
O54 Cd44 2.297 . S
O54 C49 1.247 . S
O55 Cd44 2.439 . S
O55 C49 1.208 . S
O56 Cd57 2.223 . S
O56 C64 1.315 . S
Cd57 O56 2.223 . S
Cd57 O60 2.297 . S
Cd57 O61 2.439 . S
Cd57 O67 2.240 . S
Cd58 O59 2.240 . S
Cd58 O66 2.223 . S
Cd58 O68 2.297 . S
Cd58 O69 2.439 . S
O59 Cd58 2.240 . S
O59 C64 1.279 . S
O60 Cd57 2.297 . S
O60 C62 1.247 . S
O61 Cd57 2.439 . S
O61 C62 1.208 . S
C62 O60 1.247 . S
C62 O61 1.208 . S
C63 O68 1.247 . S
C63 O69 1.208 . S
C64 O56 1.315 . S
C64 O59 1.279 . S
C65 O66 1.315 . S
C65 O67 1.279 . S
O66 Cd58 2.223 . S
O66 C65 1.315 . S
O67 Cd57 2.240 . S
O67 C65 1.279 . S
O68 Cd58 2.297 . S
O68 C63 1.247 . S
O69 Cd58 2.439 . S
O69 C63 1.208 . S
O70 Cd71 2.223 . S
O70 C78 1.315 . S
Cd71 O70 2.223 . S
Cd71 O74 2.297 . S
Cd71 O75 2.439 . S
Cd71 O81 2.240 . S
Cd72 O73 2.240 . S
Cd72 O80 2.223 . S
Cd72 O82 2.297 . S
Cd72 O83 2.439 . S
O73 Cd72 2.240 . S
O73 C78 1.279 . S
O74 Cd71 2.297 . S
O74 C76 1.247 . S
O75 Cd71 2.439 . S
O75 C76 1.208 . S
C76 O74 1.247 . S
C76 O75 1.208 . S
C77 O82 1.247 . S
C77 O83 1.208 . S
C78 O70 1.315 . S
C78 O73 1.279 . S
C79 O80 1.315 . S
C79 O81 1.279 . S
O80 Cd72 2.223 . S
O80 C79 1.315 . S
O81 Cd71 2.240 . S
O81 C79 1.279 . S
O82 Cd72 2.297 . S
O82 C77 1.247 . S
O83 Cd72 2.439 . S
O83 C77 1.208 . S
O84 Cd85 2.223 . S
O84 C92 1.315 . S
Cd85 O84 2.223 . S
Cd85 O88 2.297 . S
Cd85 O89 2.439 . S
Cd85 O95 2.240 . S
Cd86 O87 2.240 . S
Cd86 O94 2.223 . S
Cd86 O96 2.297 . S
Cd86 O97 2.439 . S
O87 Cd86 2.240 . S
O87 C92 1.279 . S
O88 Cd85 2.297 . S
O88 C90 1.247 . S
O89 Cd85 2.439 . S
O89 C90 1.208 . S
C90 O88 1.247 . S
C90 O89 1.208 . S
C91 O96 1.247 . S
C91 O97 1.208 . S
C92 O84 1.315 . S
C92 O87 1.279 . S
C93 O94 1.315 . S
C93 O95 1.279 . S
O94 Cd86 2.223 . S
O94 C93 1.315 . S
O95 Cd85 2.240 . S
O95 C93 1.279 . S
O96 Cd86 2.297 . S
O96 C91 1.247 . S
O97 Cd86 2.439 . S
O97 C91 1.208 . S
O98 Cd99 2.223 . S
O98 C106 1.315 . S
Cd99 O98 2.223 . S
Cd99 O102 2.297 . S
Cd99 O103 2.439 . S
Cd99 O109 2.240 . S
Cd100 O101 2.240 . S
Cd100 O108 2.223 . S
Cd100 O110 2.297 . S
Cd100 O111 2.439 . S
O101 Cd100 2.240 . S
O101 C106 1.279 . S
O102 Cd99 2.297 . S
O102 C104 1.247 . S
O103 Cd99 2.439 . S
O103 C104 1.208 . S
C104 O102 1.247 . S
C104 O103 1.208 . S
C105 O110 1.247 . S
C105 O111 1.208 . S
C106 O98 1.315 . S
C106 O101 1.279 . S
C107 O108 1.315 . S
C107 O109 1.279 . S
O108 Cd100 2.223 . S
O108 C107 1.315 . S
O109 Cd99 2.240 . S
O109 C107 1.279 . S
O110 Cd100 2.297 . S
O110 C105 1.247 . S
O111 Cd100 2.439 . S
O111 C105 1.208 . S
O112 Cd113 2.223 . S
O112 C120 1.315 . S
Cd113 O112 2.223 . S
Cd113 O116 2.297 . S
Cd113 O117 2.439 . S
Cd113 O123 2.240 . S
Cd114 O115 2.240 . S
Cd114 O122 2.223 . S
Cd114 O124 2.297 . S
Cd114 O125 2.439 . S
O115 Cd114 2.240 . S
O115 C120 1.279 . S
O116 Cd113 2.297 . S
O116 C118 1.247 . S
O117 Cd113 2.439 . S
O117 C118 1.208 . S
C118 O116 1.247 . S
C118 O117 1.208 . S
C119 O124 1.247 . S
C119 O125 1.208 . S
C120 O112 1.315 . S
C120 O115 1.279 . S
C121 O122 1.315 . S
C121 O123 1.279 . S
O122 Cd114 2.223 . S
O122 C121 1.315 . S
O123 Cd113 2.240 . S
O123 C121 1.279 . S
O124 Cd114 2.297 . S
O124 C119 1.247 . S
O125 Cd114 2.439 . S
O125 C119 1.208 . S
O126 Cd127 2.223 . S
O126 C134 1.315 . S
Cd127 O126 2.223 . S
Cd127 O130 2.297 . S
Cd127 O131 2.439 . S
Cd127 O137 2.240 . S
Cd128 O129 2.240 . S
Cd128 O136 2.223 . S
Cd128 O138 2.297 . S
Cd128 O139 2.439 . S
O129 Cd128 2.240 . S
O129 C134 1.279 . S
O130 Cd127 2.297 . S
O130 C132 1.247 . S
O131 Cd127 2.439 . S
O131 C132 1.208 . S
C132 O130 1.247 . S
C132 O131 1.208 . S
C133 O138 1.247 . S
C133 O139 1.208 . S
C134 O126 1.315 . S
C134 O129 1.279 . S
C135 O136 1.315 . S
C135 O137 1.279 . S
O136 Cd128 2.223 . S
O136 C135 1.315 . S
O137 Cd127 2.240 . S
O137 C135 1.279 . S
O138 Cd128 2.297 . S
O138 C133 1.247 . S
O139 Cd128 2.439 . S
O139 C133 1.208 . S
O140 Cd141 2.223 . S
O140 C148 1.315 . S
Cd141 O140 2.223 . S
Cd141 O144 2.297 . S
Cd141 O145 2.439 . S
Cd141 O151 2.240 . S
Cd142 O143 2.240 . S
Cd142 O150 2.223 . S
Cd142 O152 2.297 . S
Cd142 O153 2.439 . S
O143 Cd142 2.240 . S
O143 C148 1.279 . S
O144 Cd141 2.297 . S
O144 C146 1.247 . S
O145 Cd141 2.439 . S
O145 C146 1.208 . S
C146 O144 1.247 . S
C146 O145 1.208 . S
C147 O152 1.247 . S
C147 O153 1.208 . S
C148 O140 1.315 . S
C148 O143 1.279 . S
C149 O150 1.315 . S
C149 O151 1.279 . S
O150 Cd142 2.223 . S
O150 C149 1.315 . S
O151 Cd141 2.240 . S
O151 C149 1.279 . S
O152 Cd142 2.297 . S
O152 C147 1.247 . S
O153 Cd142 2.439 . S
O153 C147 1.208 . S
O154 Cd155 2.223 . S
O154 C162 1.315 . S
Cd155 O154 2.223 . S
Cd155 O158 2.297 . S
Cd155 O159 2.439 . S
Cd155 O165 2.240 . S
Cd156 O157 2.240 . S
Cd156 O164 2.223 . S
Cd156 O166 2.297 . S
Cd156 O167 2.439 . S
O157 Cd156 2.240 . S
O157 C162 1.279 . S
O158 Cd155 2.297 . S
O158 C160 1.247 . S
O159 Cd155 2.439 . S
O159 C160 1.208 . S
C160 O158 1.247 . S
C160 O159 1.208 . S
C161 O166 1.247 . S
C161 O167 1.208 . S
C162 O154 1.315 . S
C162 O157 1.279 . S
C163 O164 1.315 . S
C163 O165 1.279 . S
O164 Cd156 2.223 . S
O164 C163 1.315 . S
O165 Cd155 2.240 . S
O165 C163 1.279 . S
O166 Cd156 2.297 . S
O166 C161 1.247 . S
O167 Cd156 2.439 . S
O167 C161 1.208 . S
O168 Cd169 2.223 . S
O168 C176 1.315 . S
Cd169 O168 2.223 . S
Cd169 O172 2.297 . S
Cd169 O173 2.439 . S
Cd169 O179 2.240 . S
Cd170 O171 2.240 . S
Cd170 O178 2.223 . S
Cd170 O180 2.297 . S
Cd170 O181 2.439 . S
O171 Cd170 2.240 . S
O171 C176 1.279 . S
O172 Cd169 2.297 . S
O172 C174 1.247 . S
O173 Cd169 2.439 . S
O173 C174 1.208 . S
C174 O172 1.247 . S
C174 O173 1.208 . S
C175 O180 1.247 . S
C175 O181 1.208 . S
C176 O168 1.315 . S
C176 O171 1.279 . S
C177 O178 1.315 . S
C177 O179 1.279 . S
O178 Cd170 2.223 . S
O178 C177 1.315 . S
O179 Cd169 2.240 . S
O179 C177 1.279 . S
O180 Cd170 2.297 . S
O180 C175 1.247 . S
O181 Cd170 2.439 . S
O181 C175 1.208 . S
O182 Cd183 2.223 . S
O182 C190 1.315 . S
Cd183 O182 2.223 . S
Cd183 O186 2.297 . S
Cd183 O187 2.439 . S
Cd183 O193 2.240 . S
Cd184 O185 2.240 . S
Cd184 O192 2.223 . S
Cd184 O194 2.297 . S
Cd184 O195 2.439 . S
O185 Cd184 2.240 . S
O185 C190 1.279 . S
O186 Cd183 2.297 . S
O186 C188 1.247 . S
O187 Cd183 2.439 . S
O187 C188 1.208 . S
C188 O186 1.247 . S
C188 O187 1.208 . S
C189 O194 1.247 . S
C189 O195 1.208 . S
C190 O182 1.315 . S
C190 O185 1.279 . S
C191 O192 1.315 . S
C191 O193 1.279 . S
O192 Cd184 2.223 . S
O192 C191 1.315 . S
O193 Cd183 2.240 . S
O193 C191 1.279 . S
O194 Cd184 2.297 . S
O194 C189 1.247 . S
O195 Cd184 2.439 . S
O195 C189 1.208 . S
O196 Cd197 2.223 . S
O196 C204 1.315 . S
Cd197 O196 2.223 . S
Cd197 O200 2.297 . S
Cd197 O201 2.439 . S
Cd197 O207 2.240 . S
Cd198 O199 2.240 . S
Cd198 O206 2.223 . S
Cd198 O208 2.297 . S
Cd198 O209 2.439 . S
O199 Cd198 2.240 . S
O199 C204 1.279 . S
O200 Cd197 2.297 . S
O200 C202 1.247 . S
O201 Cd197 2.439 . S
O201 C202 1.208 . S
C202 O200 1.247 . S
C202 O201 1.208 . S
C203 O208 1.247 . S
C203 O209 1.208 . S
C204 O196 1.315 . S
C204 O199 1.279 . S
C205 O206 1.315 . S
C205 O207 1.279 . S
O206 Cd198 2.223 . S
O206 C205 1.315 . S
O207 Cd197 2.240 . S
O207 C205 1.279 . S
O208 Cd198 2.297 . S
O208 C203 1.247 . S
O209 Cd198 2.439 . S
O209 C203 1.208 . S
O210 Cd211 2.223 . S
O210 C218 1.315 . S
Cd211 O210 2.223 . S
Cd211 O214 2.297 . S
Cd211 O215 2.439 . S
Cd211 O221 2.240 . S
Cd212 O213 2.240 . S
Cd212 O220 2.223 . S
Cd212 O222 2.297 . S
Cd212 O223 2.439 . S
O213 Cd212 2.240 . S
O213 C218 1.279 . S
O214 Cd211 2.297 . S
O214 C216 1.247 . S
O215 Cd211 2.439 . S
O215 C216 1.208 . S
C216 O214 1.247 . S
C216 O215 1.208 . S
C217 O222 1.247 . S
C217 O223 1.208 . S
C218 O210 1.315 . S
C218 O213 1.279 . S
C219 O220 1.315 . S
C219 O221 1.279 . S
O220 Cd212 2.223 . S
O220 C219 1.315 . S
O221 Cd211 2.240 . S
O221 C219 1.279 . S
O222 Cd212 2.297 . S
O222 C217 1.247 . S
O223 Cd212 2.439 . S
O223 C217 1.208 . S
H224 C230 0.930 . S
H225 C234 0.930 . S
H226 C239 0.929 . S
H227 C237 0.929 . S
H228 C232 0.929 . S
H229 C238 0.929 . S
C230 H224 0.930 . S
C230 C231 1.367 . S
C230 C238 1.378 . S
C231 C230 1.367 . S
C231 C239 1.433 . S
C232 H228 0.929 . S
C232 C234 1.378 . S
C232 C236 1.350 . S
C233 C236 1.463 1_455 S
C233 C238 1.350 . S
C233 N241 1.427 . S
C234 H225 0.930 . S
C234 C232 1.378 . S
C234 C235 1.367 . S
C235 C234 1.367 . S
C235 C237 1.433 . S
C236 C232 1.350 . S
C236 C233 1.463 1_655 S
C236 N240 1.427 . S
C237 H227 0.929 . S
C237 C235 1.433 . S
C237 N240 1.384 . S
C238 H229 0.929 . S
C238 C230 1.378 . S
C238 C233 1.350 . S
C239 H226 0.929 . S
C239 C231 1.433 . S
C239 N241 1.384 . S
N240 C236 1.427 . S
N240 C237 1.384 . S
N241 C233 1.427 . S
N241 C239 1.384 . S
H242 C248 0.930 . S
H243 C252 0.930 . S
H244 C257 0.929 . S
H245 C255 0.929 . S
H246 C250 0.929 . S
H247 C256 0.929 . S
C248 H242 0.930 . S
C248 C249 1.367 . S
C248 C256 1.378 . S
C249 C248 1.367 . S
C249 C257 1.433 . S
C250 H246 0.929 . S
C250 C252 1.378 . S
C250 C254 1.350 . S
C251 C254 1.463 1_565 S
C251 C256 1.350 . S
C251 N259 1.427 . S
C252 H243 0.930 . S
C252 C250 1.378 . S
C252 C253 1.367 . S
C253 C252 1.367 . S
C253 C255 1.433 . S
C254 C250 1.350 . S
C254 C251 1.463 1_545 S
C254 N258 1.427 . S
C255 H245 0.929 . S
C255 C253 1.433 . S
C255 N258 1.384 . S
C256 H247 0.929 . S
C256 C248 1.378 . S
C256 C251 1.350 . S
C257 H244 0.929 . S
C257 C249 1.433 . S
C257 N259 1.384 . S
N258 C254 1.427 . S
N258 C255 1.384 . S
N259 C251 1.427 . S
N259 C257 1.384 . S
H260 C266 0.930 . S
H261 C270 0.930 . S
H262 C275 0.929 . S
H263 C273 0.929 . S
H264 C268 0.929 . S
H265 C274 0.929 . S
C266 H260 0.930 . S
C266 C267 1.367 . S
C266 C274 1.378 . S
C267 C266 1.367 . S
C267 C275 1.433 . S
C268 H264 0.929 . S
C268 C270 1.378 . S
C268 C272 1.350 . S
C269 C272 1.463 1_455 S
C269 C274 1.350 . S
C269 N277 1.427 . S
C270 H261 0.930 . S
C270 C268 1.378 . S
C270 C271 1.367 . S
C271 C270 1.367 . S
C271 C273 1.433 . S
C272 C268 1.350 . S
C272 C269 1.463 1_655 S
C272 N276 1.427 . S
C273 H263 0.929 . S
C273 C271 1.433 . S
C273 N276 1.384 . S
C274 H265 0.929 . S
C274 C266 1.378 . S
C274 C269 1.350 . S
C275 H262 0.929 . S
C275 C267 1.433 . S
C275 N277 1.384 . S
N276 C272 1.427 . S
N276 C273 1.384 . S
N277 C269 1.427 . S
N277 C275 1.384 . S
H278 C284 0.930 . S
H279 C288 0.930 . S
H280 C293 0.929 . S
H281 C291 0.929 . S
H282 C286 0.929 1_565 S
H283 C292 0.929 1_545 S
C284 H278 0.930 . S
C284 C285 1.367 . S
C284 C292 1.378 . S
C285 C284 1.367 . S
C285 C293 1.433 . S
C286 H282 0.929 1_545 S
C286 C288 1.378 . S
C286 C290 1.350 . S
C287 C290 1.463 1_565 S
C287 C292 1.350 . S
C287 N295 1.427 . S
C288 H279 0.930 . S
C288 C286 1.378 . S
C288 C289 1.367 . S
C289 C288 1.367 . S
C289 C291 1.433 . S
C290 C286 1.350 . S
C290 C287 1.463 1_545 S
C290 N294 1.427 . S
C291 H281 0.929 . S
C291 C289 1.433 . S
C291 N294 1.384 . S
C292 H283 0.929 1_565 S
C292 C284 1.378 . S
C292 C287 1.350 . S
C293 H280 0.929 . S
C293 C285 1.433 . S
C293 N295 1.384 . S
N294 C290 1.427 . S
N294 C291 1.384 . S
N295 C287 1.427 . S
N295 C293 1.384 . S
H296 C302 0.930 . S
H297 C306 0.930 . S
H298 C311 0.929 . S
H299 C309 0.929 . S
H300 C304 0.929 . S
H301 C310 0.929 . S
C302 H296 0.930 . S
C302 C303 1.367 . S
C302 C310 1.378 . S
C303 C302 1.367 . S
C303 C311 1.433 . S
C304 H300 0.929 . S
C304 C306 1.378 . S
C304 C308 1.350 . S
C305 C308 1.463 1_655 S
C305 C310 1.350 . S
C305 N313 1.427 . S
C306 H297 0.930 . S
C306 C304 1.378 . S
C306 C307 1.367 . S
C307 C306 1.367 . S
C307 C309 1.433 . S
C308 C304 1.350 . S
C308 C305 1.463 1_455 S
C308 N312 1.427 . S
C309 H299 0.929 . S
C309 C307 1.433 . S
C309 N312 1.384 . S
C310 H301 0.929 . S
C310 C302 1.378 . S
C310 C305 1.350 . S
C311 H298 0.929 . S
C311 C303 1.433 . S
C311 N313 1.384 . S
N312 C308 1.427 . S
N312 C309 1.384 . S
N313 C305 1.427 . S
N313 C311 1.384 . S
H314 C320 0.930 . S
H315 C324 0.930 . S
H316 C329 0.929 . S
H317 C327 0.929 . S
H318 C322 0.929 . S
H319 C328 0.929 . S
C320 H314 0.930 . S
C320 C321 1.367 . S
C320 C328 1.378 . S
C321 C320 1.367 . S
C321 C329 1.433 . S
C322 H318 0.929 . S
C322 C324 1.378 . S
C322 C326 1.350 . S
C323 C326 1.463 1_545 S
C323 C328 1.350 . S
C323 N331 1.427 . S
C324 H315 0.930 . S
C324 C322 1.378 . S
C324 C325 1.367 . S
C325 C324 1.367 . S
C325 C327 1.433 . S
C326 C322 1.350 . S
C326 C323 1.463 1_565 S
C326 N330 1.427 . S
C327 H317 0.929 . S
C327 C325 1.433 . S
C327 N330 1.384 . S
C328 H319 0.929 . S
C328 C320 1.378 . S
C328 C323 1.350 . S
C329 H316 0.929 . S
C329 C321 1.433 . S
C329 N331 1.384 . S
N330 C326 1.427 . S
N330 C327 1.384 . S
N331 C323 1.427 . S
N331 C329 1.384 . S
H332 C338 0.930 . S
H333 C342 0.930 . S
H334 C347 0.929 . S
H335 C345 0.929 . S
H336 C340 0.929 1_655 S
H337 C346 0.929 1_455 S
C338 H332 0.930 . S
C338 C339 1.367 . S
C338 C346 1.378 . S
C339 C338 1.367 . S
C339 C347 1.433 . S
C340 H336 0.929 1_455 S
C340 C342 1.378 . S
C340 C344 1.350 . S
C341 C344 1.463 1_655 S
C341 C346 1.350 . S
C341 N349 1.427 . S
C342 H333 0.930 . S
C342 C340 1.378 . S
C342 C343 1.367 . S
C343 C342 1.367 . S
C343 C345 1.433 . S
C344 C340 1.350 . S
C344 C341 1.463 1_455 S
C344 N348 1.427 . S
C345 H335 0.929 . S
C345 C343 1.433 . S
C345 N348 1.384 . S
C346 H337 0.929 1_655 S
C346 C338 1.378 . S
C346 C341 1.350 . S
C347 H334 0.929 . S
C347 C339 1.433 . S
C347 N349 1.384 . S
N348 C344 1.427 . S
N348 C345 1.384 . S
N349 C341 1.427 . S
N349 C347 1.384 . S
H350 C356 0.930 . S
H351 C360 0.930 . S
H352 C365 0.929 . S
H353 C363 0.929 . S
H354 C358 0.929 . S
H355 C364 0.929 . S
C356 H350 0.930 . S
C356 C357 1.367 . S
C356 C364 1.378 . S
C357 C356 1.367 . S
C357 C365 1.433 . S
C358 H354 0.929 . S
C358 C360 1.378 . S
C358 C362 1.350 . S
C359 C362 1.463 1_545 S
C359 C364 1.350 . S
C359 N367 1.427 . S
C360 H351 0.930 . S
C360 C358 1.378 . S
C360 C361 1.367 . S
C361 C360 1.367 . S
C361 C363 1.433 . S
C362 C358 1.350 . S
C362 C359 1.463 1_565 S
C362 N366 1.427 . S
C363 H353 0.929 . S
C363 C361 1.433 . S
C363 N366 1.384 . S
C364 H355 0.929 . S
C364 C356 1.378 . S
C364 C359 1.350 . S
C365 H352 0.929 . S
C365 C357 1.433 . S
C365 N367 1.384 . S
N366 C362 1.427 . S
N366 C363 1.384 . S
N367 C359 1.427 . S
N367 C365 1.384 . S
H368 C374 0.930 . S
H369 C378 0.930 . S
H370 C383 0.929 . S
H371 C381 0.929 . S
H372 C376 0.929 . S
H373 C382 0.929 . S
C374 H368 0.930 . S
C374 C375 1.367 . S
C374 C382 1.378 . S
C375 C374 1.367 . S
C375 C383 1.433 . S
C376 H372 0.929 . S
C376 C378 1.378 . S
C376 C380 1.350 . S
C377 C380 1.463 . S
C377 C382 1.350 . S
C377 N385 1.427 . S
C378 H369 0.930 . S
C378 C376 1.378 . S
C378 C379 1.367 . S
C379 C378 1.367 . S
C379 C381 1.433 . S
C380 C376 1.350 . S
C380 C377 1.463 . S
C380 N384 1.427 . S
C381 H371 0.929 . S
C381 C379 1.433 . S
C381 N384 1.384 . S
C382 H373 0.929 . S
C382 C374 1.378 . S
C382 C377 1.350 . S
C383 H370 0.929 . S
C383 C375 1.433 . S
C383 N385 1.384 . S
N384 C380 1.427 . S
N384 C381 1.384 . S
N385 C377 1.427 . S
N385 C383 1.384 . S
H386 C392 0.930 . S
H387 C396 0.930 . S
H388 C401 0.929 . S
H389 C399 0.929 . S
H390 C394 0.929 . S
H391 C400 0.929 . S
C392 H386 0.930 . S
C392 C393 1.367 . S
C392 C400 1.378 . S
C393 C392 1.367 . S
C393 C401 1.433 . S
C394 H390 0.929 . S
C394 C396 1.378 . S
C394 C398 1.350 . S
C395 C398 1.463 . S
C395 C400 1.350 . S
C395 N403 1.427 . S
C396 H387 0.930 . S
C396 C394 1.378 . S
C396 C397 1.367 . S
C397 C396 1.367 . S
C397 C399 1.433 . S
C398 C394 1.350 . S
C398 C395 1.463 . S
C398 N402 1.427 . S
C399 H389 0.929 . S
C399 C397 1.433 . S
C399 N402 1.384 . S
C400 H391 0.929 . S
C400 C392 1.378 . S
C400 C395 1.350 . S
C401 H388 0.929 . S
C401 C393 1.433 . S
C401 N403 1.384 . S
N402 C398 1.427 . S
N402 C399 1.384 . S
N403 C395 1.427 . S
N403 C401 1.384 . S
H404 C410 0.930 . S
H405 C414 0.930 . S
H406 C419 0.929 . S
H407 C417 0.929 . S
H408 C412 0.929 . S
H409 C418 0.929 . S
C410 H404 0.930 . S
C410 C411 1.367 . S
C410 C418 1.378 . S
C411 C410 1.367 . S
C411 C419 1.433 . S
C412 H408 0.929 . S
C412 C414 1.378 . S
C412 C416 1.350 . S
C413 C416 1.463 . S
C413 C418 1.350 . S
C413 N421 1.427 . S
C414 H405 0.930 . S
C414 C412 1.378 . S
C414 C415 1.367 . S
C415 C414 1.367 . S
C415 C417 1.433 . S
C416 C412 1.350 . S
C416 C413 1.463 . S
C416 N420 1.427 . S
C417 H407 0.929 . S
C417 C415 1.433 . S
C417 N420 1.384 . S
C418 H409 0.929 . S
C418 C410 1.378 . S
C418 C413 1.350 . S
C419 H406 0.929 . S
C419 C411 1.433 . S
C419 N421 1.384 . S
N420 C416 1.427 . S
N420 C417 1.384 . S
N421 C413 1.427 . S
N421 C419 1.384 . S
H422 C428 0.930 . S
H423 C432 0.930 . S
H424 C437 0.929 . S
H425 C435 0.929 . S
H426 C430 0.929 . S
H427 C436 0.929 . S
C428 H422 0.930 . S
C428 C429 1.367 . S
C428 C436 1.378 . S
C429 C428 1.367 . S
C429 C437 1.433 . S
C430 H426 0.929 . S
C430 C432 1.378 . S
C430 C434 1.350 . S
C431 C434 1.463 . S
C431 C436 1.350 . S
C431 N439 1.427 . S
C432 H423 0.930 . S
C432 C430 1.378 . S
C432 C433 1.367 . S
C433 C432 1.367 . S
C433 C435 1.433 . S
C434 C430 1.350 . S
C434 C431 1.463 . S
C434 N438 1.427 . S
C435 H425 0.929 . S
C435 C433 1.433 . S
C435 N438 1.384 . S
C436 H427 0.929 . S
C436 C428 1.378 . S
C436 C431 1.350 . S
C437 H424 0.929 . S
C437 C429 1.433 . S
C437 N439 1.384 . S
N438 C434 1.427 . S
N438 C435 1.384 . S
N439 C431 1.427 . S
N439 C437 1.384 . S
H440 C446 0.930 . S
H441 C450 0.930 . S
H442 C455 0.929 . S
H443 C453 0.929 . S
H444 C448 0.929 . S
H445 C454 0.929 . S
C446 H440 0.930 . S
C446 C447 1.367 . S
C446 C454 1.378 . S
C447 C446 1.367 . S
C447 C455 1.433 . S
C448 H444 0.929 . S
C448 C450 1.378 . S
C448 C452 1.350 . S
C449 C452 1.463 . S
C449 C454 1.350 . S
C449 N457 1.427 . S
C450 H441 0.930 . S
C450 C448 1.378 . S
C450 C451 1.367 . S
C451 C450 1.367 . S
C451 C453 1.433 . S
C452 C448 1.350 . S
C452 C449 1.463 . S
C452 N456 1.427 . S
C453 H443 0.929 . S
C453 C451 1.433 . S
C453 N456 1.384 . S
C454 H445 0.929 . S
C454 C446 1.378 . S
C454 C449 1.350 . S
C455 H442 0.929 . S
C455 C447 1.433 . S
C455 N457 1.384 . S
N456 C452 1.427 . S
N456 C453 1.384 . S
N457 C449 1.427 . S
N457 C455 1.384 . S
H458 C464 0.930 . S
H459 C468 0.930 . S
H460 C473 0.929 . S
H461 C471 0.929 . S
H462 C466 0.929 . S
H463 C472 0.929 . S
C464 H458 0.930 . S
C464 C465 1.367 . S
C464 C472 1.378 . S
C465 C464 1.367 . S
C465 C473 1.433 . S
C466 H462 0.929 . S
C466 C468 1.378 . S
C466 C470 1.350 . S
C467 C470 1.463 . S
C467 C472 1.350 . S
C467 N475 1.427 . S
C468 H459 0.930 . S
C468 C466 1.378 . S
C468 C469 1.367 . S
C469 C468 1.367 . S
C469 C471 1.433 . S
C470 C466 1.350 . S
C470 C467 1.463 . S
C470 N474 1.427 . S
C471 H461 0.929 . S
C471 C469 1.433 . S
C471 N474 1.384 . S
C472 H463 0.929 . S
C472 C464 1.378 . S
C472 C467 1.350 . S
C473 H460 0.929 . S
C473 C465 1.433 . S
C473 N475 1.384 . S
N474 C470 1.427 . S
N474 C471 1.384 . S
N475 C467 1.427 . S
N475 C473 1.384 . S
H476 C482 0.930 . S
H477 C486 0.930 . S
H478 C491 0.929 . S
H479 C489 0.929 . S
H480 C484 0.929 . S
H481 C490 0.929 . S
C482 H476 0.930 . S
C482 C483 1.367 . S
C482 C490 1.378 . S
C483 C482 1.367 . S
C483 C491 1.433 . S
C484 H480 0.929 . S
C484 C486 1.378 . S
C484 C488 1.350 . S
C485 C488 1.463 . S
C485 C490 1.350 . S
C485 N493 1.427 . S
C486 H477 0.930 . S
C486 C484 1.378 . S
C486 C487 1.367 . S
C487 C486 1.367 . S
C487 C489 1.433 . S
C488 C484 1.350 . S
C488 C485 1.463 . S
C488 N492 1.427 . S
C489 H479 0.929 . S
C489 C487 1.433 . S
C489 N492 1.384 . S
C490 H481 0.929 . S
C490 C482 1.378 . S
C490 C485 1.350 . S
C491 H478 0.929 . S
C491 C483 1.433 . S
C491 N493 1.384 . S
N492 C488 1.427 . S
N492 C489 1.384 . S
N493 C485 1.427 . S
N493 C491 1.384 . S
H494 C500 0.930 . S
H495 C504 0.930 . S
H496 C509 0.929 . S
H497 C507 0.929 . S
H498 C502 0.929 . S
H499 C508 0.929 . S
C500 H494 0.930 . S
C500 C501 1.367 . S
C500 C508 1.378 . S
C501 C500 1.367 . S
C501 C509 1.433 . S
C502 H498 0.929 . S
C502 C504 1.378 . S
C502 C506 1.350 . S
C503 C506 1.463 . S
C503 C508 1.350 . S
C503 N511 1.427 . S
C504 H495 0.930 . S
C504 C502 1.378 . S
C504 C505 1.367 . S
C505 C504 1.367 . S
C505 C507 1.433 . S
C506 C502 1.350 . S
C506 C503 1.463 . S
C506 N510 1.427 . S
C507 H497 0.929 . S
C507 C505 1.433 . S
C507 N510 1.384 . S
C508 H499 0.929 . S
C508 C500 1.378 . S
C508 C503 1.350 . S
C509 H496 0.929 . S
C509 C501 1.433 . S
C509 N511 1.384 . S
N510 C506 1.427 . S
N510 C507 1.384 . S
N511 C503 1.427 . S
N511 C509 1.384 . S
H512 C518 0.930 . S
H513 C522 0.930 . S
H514 C527 0.929 . S
H515 C525 0.929 . S
H516 C520 0.929 . S
H517 C526 0.929 . S
C518 H512 0.930 . S
C518 C519 1.367 . S
C518 C526 1.378 . S
C519 C518 1.367 . S
C519 C527 1.433 . S
C520 H516 0.929 . S
C520 C522 1.378 . S
C520 C524 1.350 . S
C521 C524 1.463 1_556 S
C521 C526 1.350 . S
C521 N529 1.427 . S
C522 H513 0.930 . S
C522 C520 1.378 . S
C522 C523 1.367 . S
C523 C522 1.367 . S
C523 C525 1.433 . S
C524 C520 1.350 . S
C524 C521 1.463 1_554 S
C524 N528 1.427 . S
C525 H515 0.929 . S
C525 C523 1.433 . S
C525 N528 1.384 . S
C526 H517 0.929 . S
C526 C518 1.378 . S
C526 C521 1.350 . S
C527 H514 0.929 . S
C527 C519 1.433 . S
C527 N529 1.384 . S
N528 C524 1.427 . S
N528 C525 1.384 . S
N529 C521 1.427 . S
N529 C527 1.384 . S
H530 C536 0.930 . S
H531 C540 0.930 . S
H532 C545 0.929 . S
H533 C543 0.929 . S
H534 C538 0.929 . S
H535 C544 0.929 . S
C536 H530 0.930 . S
C536 C537 1.367 . S
C536 C544 1.378 . S
C537 C536 1.367 . S
C537 C545 1.433 . S
C538 H534 0.929 . S
C538 C540 1.378 . S
C538 C542 1.350 . S
C539 C542 1.463 . S
C539 C544 1.350 . S
C539 N547 1.427 . S
C540 H531 0.930 . S
C540 C538 1.378 . S
C540 C541 1.367 . S
C541 C540 1.367 . S
C541 C543 1.433 . S
C542 C538 1.350 . S
C542 C539 1.463 . S
C542 N546 1.427 . S
C543 H533 0.929 . S
C543 C541 1.433 . S
C543 N546 1.384 . S
C544 H535 0.929 . S
C544 C536 1.378 . S
C544 C539 1.350 . S
C545 H532 0.929 . S
C545 C537 1.433 . S
C545 N547 1.384 . S
N546 C542 1.427 . S
N546 C543 1.384 . S
N547 C539 1.427 . S
N547 C545 1.384 . S
H548 C554 0.930 . S
H549 C558 0.930 . S
H550 C563 0.929 . S
H551 C561 0.929 . S
H552 C556 0.929 . S
H553 C562 0.929 . S
C554 H548 0.930 . S
C554 C555 1.367 . S
C554 C562 1.378 . S
C555 C554 1.367 . S
C555 C563 1.433 . S
C556 H552 0.929 . S
C556 C558 1.378 . S
C556 C560 1.350 . S
C557 C560 1.463 1_554 S
C557 C562 1.350 . S
C557 N565 1.427 . S
C558 H549 0.930 . S
C558 C556 1.378 . S
C558 C559 1.367 . S
C559 C558 1.367 . S
C559 C561 1.433 . S
C560 C556 1.350 . S
C560 C557 1.463 1_556 S
C560 N564 1.427 . S
C561 H551 0.929 . S
C561 C559 1.433 . S
C561 N564 1.384 . S
C562 H553 0.929 . S
C562 C554 1.378 . S
C562 C557 1.350 . S
C563 H550 0.929 . S
C563 C555 1.433 . S
C563 N565 1.384 . S
N564 C560 1.427 . S
N564 C561 1.384 . S
N565 C557 1.427 . S
N565 C563 1.384 . S
H566 C572 0.930 . S
H567 C576 0.930 . S
H568 C581 0.929 . S
H569 C579 0.929 . S
H570 C574 0.929 . S
H571 C580 0.929 . S
C572 H566 0.930 . S
C572 C573 1.367 . S
C572 C580 1.378 . S
C573 C572 1.367 . S
C573 C581 1.433 . S
C574 H570 0.929 . S
C574 C576 1.378 . S
C574 C578 1.350 . S
C575 C578 1.463 . S
C575 C580 1.350 . S
C575 N583 1.427 . S
C576 H567 0.930 . S
C576 C574 1.378 . S
C576 C577 1.367 . S
C577 C576 1.367 . S
C577 C579 1.433 . S
C578 C574 1.350 . S
C578 C575 1.463 . S
C578 N582 1.427 . S
C579 H569 0.929 . S
C579 C577 1.433 . S
C579 N582 1.384 . S
C580 H571 0.929 . S
C580 C572 1.378 . S
C580 C575 1.350 . S
C581 H568 0.929 . S
C581 C573 1.433 . S
C581 N583 1.384 . S
N582 C578 1.427 . S
N582 C579 1.384 . S
N583 C575 1.427 . S
N583 C581 1.384 . S
H584 C590 0.930 . S
H585 C594 0.930 . S
H586 C599 0.929 . S
H587 C597 0.929 . S
H588 C592 0.929 . S
H589 C598 0.929 . S
C590 H584 0.930 . S
C590 C591 1.367 . S
C590 C598 1.378 . S
C591 C590 1.367 . S
C591 C599 1.433 . S
C592 H588 0.929 . S
C592 C594 1.378 . S
C592 C596 1.350 . S
C593 C596 1.463 . S
C593 C598 1.350 . S
C593 N601 1.427 . S
C594 H585 0.930 . S
C594 C592 1.378 . S
C594 C595 1.367 . S
C595 C594 1.367 . S
C595 C597 1.433 . S
C596 C592 1.350 . S
C596 C593 1.463 . S
C596 N600 1.427 . S
C597 H587 0.929 . S
C597 C595 1.433 . S
C597 N600 1.384 . S
C598 H589 0.929 . S
C598 C590 1.378 . S
C598 C593 1.350 . S
C599 H586 0.929 . S
C599 C591 1.433 . S
C599 N601 1.384 . S
N600 C596 1.427 . S
N600 C597 1.384 . S
N601 C593 1.427 . S
N601 C599 1.384 . S
H602 C608 0.930 . S
H603 C612 0.930 . S
H604 C617 0.929 . S
H605 C615 0.929 . S
H606 C610 0.929 . S
H607 C616 0.929 . S
C608 H602 0.930 . S
C608 C609 1.367 . S
C608 C616 1.378 . S
C609 C608 1.367 . S
C609 C617 1.433 . S
C610 H606 0.929 . S
C610 C612 1.378 . S
C610 C614 1.350 . S
C611 C614 1.463 1_556 S
C611 C616 1.350 . S
C611 N619 1.427 . S
C612 H603 0.930 . S
C612 C610 1.378 . S
C612 C613 1.367 . S
C613 C612 1.367 . S
C613 C615 1.433 . S
C614 C610 1.350 . S
C614 C611 1.463 1_554 S
C614 N618 1.427 . S
C615 H605 0.929 . S
C615 C613 1.433 . S
C615 N618 1.384 . S
C616 H607 0.929 . S
C616 C608 1.378 . S
C616 C611 1.350 . S
C617 H604 0.929 . S
C617 C609 1.433 . S
C617 N619 1.384 . S
N618 C614 1.427 . S
N618 C615 1.384 . S
N619 C611 1.427 . S
N619 C617 1.384 . S
H620 C626 0.930 . S
H621 C630 0.930 . S
H622 C635 0.929 . S
H623 C633 0.929 . S
H624 C628 0.929 . S
H625 C634 0.929 . S
C626 H620 0.930 . S
C626 C627 1.367 . S
C626 C634 1.378 . S
C627 C626 1.367 . S
C627 C635 1.433 . S
C628 H624 0.929 . S
C628 C630 1.378 . S
C628 C632 1.350 . S
C629 C632 1.463 . S
C629 C634 1.350 . S
C629 N637 1.427 . S
C630 H621 0.930 . S
C630 C628 1.378 . S
C630 C631 1.367 . S
C631 C630 1.367 . S
C631 C633 1.433 . S
C632 C628 1.350 . S
C632 C629 1.463 . S
C632 N636 1.427 . S
C633 H623 0.929 . S
C633 C631 1.433 . S
C633 N636 1.384 . S
C634 H625 0.929 . S
C634 C626 1.378 . S
C634 C629 1.350 . S
C635 H622 0.929 . S
C635 C627 1.433 . S
C635 N637 1.384 . S
N636 C632 1.427 . S
N636 C633 1.384 . S
N637 C629 1.427 . S
N637 C635 1.384 . S
H638 C644 0.930 . S
H639 C648 0.930 . S
H640 C653 0.929 . S
H641 C651 0.929 . S
H642 C646 0.929 . S
H643 C652 0.929 . S
C644 H638 0.930 . S
C644 C645 1.367 . S
C644 C652 1.378 . S
C645 C644 1.367 . S
C645 C653 1.433 . S
C646 H642 0.929 . S
C646 C648 1.378 . S
C646 C650 1.350 . S
C647 C650 1.463 1_554 S
C647 C652 1.350 . S
C647 N655 1.427 . S
C648 H639 0.930 . S
C648 C646 1.378 . S
C648 C649 1.367 . S
C649 C648 1.367 . S
C649 C651 1.433 . S
C650 C646 1.350 . S
C650 C647 1.463 1_556 S
C650 N654 1.427 . S
C651 H641 0.929 . S
C651 C649 1.433 . S
C651 N654 1.384 . S
C652 H643 0.929 . S
C652 C644 1.378 . S
C652 C647 1.350 . S
C653 H640 0.929 . S
C653 C645 1.433 . S
C653 N655 1.384 . S
N654 C650 1.427 . S
N654 C651 1.384 . S
N655 C647 1.427 . S
N655 C653 1.384 . S
H656 C662 0.930 . S
H657 C666 0.930 . S
H658 C671 0.929 . S
H659 C669 0.929 . S
H660 C664 0.929 . S
H661 C670 0.929 . S
C662 H656 0.930 . S
C662 C663 1.367 . S
C662 C670 1.378 . S
C663 C662 1.367 . S
C663 C671 1.433 . S
C664 H660 0.929 . S
C664 C666 1.378 . S
C664 C668 1.350 . S
C665 C668 1.463 . S
C665 C670 1.350 . S
C665 N673 1.427 . S
C666 H657 0.930 . S
C666 C664 1.378 . S
C666 C667 1.367 . S
C667 C666 1.367 . S
C667 C669 1.433 . S
C668 C664 1.350 . S
C668 C665 1.463 . S
C668 N672 1.427 . S
C669 H659 0.929 . S
C669 C667 1.433 . S
C669 N672 1.384 . S
C670 H661 0.929 . S
C670 C662 1.378 . S
C670 C665 1.350 . S
C671 H658 0.929 . S
C671 C663 1.433 . S
C671 N673 1.384 . S
N672 C668 1.427 . S
N672 C669 1.384 . S
N673 C665 1.427 . S
N673 C671 1.384 . S
H674 C680 0.930 . S
H675 C684 0.930 . S
H676 C689 0.929 . S
H677 C687 0.929 . S
H678 C682 0.929 . S
H679 C688 0.929 . S
C680 H674 0.930 . S
C680 C681 1.367 . S
C680 C688 1.378 . S
C681 C680 1.367 . S
C681 C689 1.433 . S
C682 H678 0.929 . S
C682 C684 1.378 . S
C682 C686 1.350 . S
C683 C686 1.463 . S
C683 C688 1.350 . S
C683 N691 1.427 . S
C684 H675 0.930 . S
C684 C682 1.378 . S
C684 C685 1.367 . S
C685 C684 1.367 . S
C685 C687 1.433 . S
C686 C682 1.350 . S
C686 C683 1.463 . S
C686 N690 1.427 . S
C687 H677 0.929 . S
C687 C685 1.433 . S
C687 N690 1.384 . S
C688 H679 0.929 . S
C688 C680 1.378 . S
C688 C683 1.350 . S
C689 H676 0.929 . S
C689 C681 1.433 . S
C689 N691 1.384 . S
N690 C686 1.427 . S
N690 C687 1.384 . S
N691 C683 1.427 . S
N691 C689 1.384 . S
H692 C698 0.930 . S
H693 C702 0.930 . S
H694 C707 0.929 . S
H695 C705 0.929 . S
H696 C700 0.929 . S
H697 C706 0.929 . S
C698 H692 0.930 . S
C698 C699 1.367 . S
C698 C706 1.378 . S
C699 C698 1.367 . S
C699 C707 1.433 . S
C700 H696 0.929 . S
C700 C702 1.378 . S
C700 C704 1.350 . S
C701 C704 1.463 . S
C701 C706 1.350 . S
C701 N709 1.427 . S
C702 H693 0.930 . S
C702 C700 1.378 . S
C702 C703 1.367 . S
C703 C702 1.367 . S
C703 C705 1.433 . S
C704 C700 1.350 . S
C704 C701 1.463 . S
C704 N708 1.427 . S
C705 H695 0.929 . S
C705 C703 1.433 . S
C705 N708 1.384 . S
C706 H697 0.929 . S
C706 C698 1.378 . S
C706 C701 1.350 . S
C707 H694 0.929 . S
C707 C699 1.433 . S
C707 N709 1.384 . S
N708 C704 1.427 . S
N708 C705 1.384 . S
N709 C701 1.427 . S
N709 C707 1.384 . S
H710 C716 0.930 . S
H711 C720 0.930 . S
H712 C725 0.929 . S
H713 C723 0.929 . S
H714 C718 0.929 . S
H715 C724 0.929 . S
C716 H710 0.930 . S
C716 C717 1.367 . S
C716 C724 1.378 . S
C717 C716 1.367 . S
C717 C725 1.433 . S
C718 H714 0.929 . S
C718 C720 1.378 . S
C718 C722 1.350 . S
C719 C722 1.463 . S
C719 C724 1.350 . S
C719 N727 1.427 . S
C720 H711 0.930 . S
C720 C718 1.378 . S
C720 C721 1.367 . S
C721 C720 1.367 . S
C721 C723 1.433 . S
C722 C718 1.350 . S
C722 C719 1.463 . S
C722 N726 1.427 . S
C723 H713 0.929 . S
C723 C721 1.433 . S
C723 N726 1.384 . S
C724 H715 0.929 . S
C724 C716 1.378 . S
C724 C719 1.350 . S
C725 H712 0.929 . S
C725 C717 1.433 . S
C725 N727 1.384 . S
N726 C722 1.427 . S
N726 C723 1.384 . S
N727 C719 1.427 . S
N727 C725 1.384 . S
H728 C734 0.930 . S
H729 C738 0.930 . S
H730 C743 0.929 . S
H731 C741 0.929 . S
H732 C736 0.929 . S
H733 C742 0.929 . S
C734 H728 0.930 . S
C734 C735 1.367 . S
C734 C742 1.378 . S
C735 C734 1.367 . S
C735 C743 1.433 . S
C736 H732 0.929 . S
C736 C738 1.378 . S
C736 C740 1.350 . S
C737 C740 1.463 . S
C737 C742 1.350 . S
C737 N745 1.427 . S
C738 H729 0.930 . S
C738 C736 1.378 . S
C738 C739 1.367 . S
C739 C738 1.367 . S
C739 C741 1.433 . S
C740 C736 1.350 . S
C740 C737 1.463 . S
C740 N744 1.427 . S
C741 H731 0.929 . S
C741 C739 1.433 . S
C741 N744 1.384 . S
C742 H733 0.929 . S
C742 C734 1.378 . S
C742 C737 1.350 . S
C743 H730 0.929 . S
C743 C735 1.433 . S
C743 N745 1.384 . S
N744 C740 1.427 . S
N744 C741 1.384 . S
N745 C737 1.427 . S
N745 C743 1.384 . S
H746 C752 0.930 . S
H747 C756 0.930 . S
H748 C761 0.929 . S
H749 C759 0.929 . S
H750 C754 0.929 . S
H751 C760 0.929 . S
C752 H746 0.930 . S
C752 C753 1.367 . S
C752 C760 1.378 . S
C753 C752 1.367 . S
C753 C761 1.433 . S
C754 H750 0.929 . S
C754 C756 1.378 . S
C754 C758 1.350 . S
C755 C758 1.463 . S
C755 C760 1.350 . S
C755 N763 1.427 . S
C756 H747 0.930 . S
C756 C754 1.378 . S
C756 C757 1.367 . S
C757 C756 1.367 . S
C757 C759 1.433 . S
C758 C754 1.350 . S
C758 C755 1.463 . S
C758 N762 1.427 . S
C759 H749 0.929 . S
C759 C757 1.433 . S
C759 N762 1.384 . S
C760 H751 0.929 . S
C760 C752 1.378 . S
C760 C755 1.350 . S
C761 H748 0.929 . S
C761 C753 1.433 . S
C761 N763 1.384 . S
N762 C758 1.427 . S
N762 C759 1.384 . S
N763 C755 1.427 . S
N763 C761 1.384 . S
H764 C770 0.930 . S
H765 C774 0.930 . S
H766 C779 0.929 . S
H767 C777 0.929 . S
H768 C772 0.929 . S
H769 C778 0.929 . S
C770 H764 0.930 . S
C770 C771 1.367 . S
C770 C778 1.378 . S
C771 C770 1.367 . S
C771 C779 1.433 . S
C772 H768 0.929 . S
C772 C774 1.378 . S
C772 C776 1.350 . S
C773 C776 1.463 . S
C773 C778 1.350 . S
C773 N781 1.427 . S
C774 H765 0.930 . S
C774 C772 1.378 . S
C774 C775 1.367 . S
C775 C774 1.367 . S
C775 C777 1.433 . S
C776 C772 1.350 . S
C776 C773 1.463 . S
C776 N780 1.427 . S
C777 H767 0.929 . S
C777 C775 1.433 . S
C777 N780 1.384 . S
C778 H769 0.929 . S
C778 C770 1.378 . S
C778 C773 1.350 . S
C779 H766 0.929 . S
C779 C771 1.433 . S
C779 N781 1.384 . S
N780 C776 1.427 . S
N780 C777 1.384 . S
N781 C773 1.427 . S
N781 C779 1.384 . S
H782 C788 0.930 . S
H783 C792 0.930 . S
H784 C797 0.929 . S
H785 C795 0.929 . S
H786 C790 0.929 . S
H787 C796 0.929 . S
C788 H782 0.930 . S
C788 C789 1.367 . S
C788 C796 1.378 . S
C789 C788 1.367 . S
C789 C797 1.433 . S
C790 H786 0.929 . S
C790 C792 1.378 . S
C790 C794 1.350 . S
C791 C794 1.463 . S
C791 C796 1.350 . S
C791 N799 1.427 . S
C792 H783 0.930 . S
C792 C790 1.378 . S
C792 C793 1.367 . S
C793 C792 1.367 . S
C793 C795 1.433 . S
C794 C790 1.350 . S
C794 C791 1.463 . S
C794 N798 1.427 . S
C795 H785 0.929 . S
C795 C793 1.433 . S
C795 N798 1.384 . S
C796 H787 0.929 . S
C796 C788 1.378 . S
C796 C791 1.350 . S
C797 H784 0.929 . S
C797 C789 1.433 . S
C797 N799 1.384 . S
N798 C794 1.427 . S
N798 C795 1.384 . S
N799 C791 1.427 . S
N799 C797 1.384 . S
C231 C9 1.261 . S
C235 C37 1.266 . S
C249 C51 1.253 . S
C253 C23 1.259 . S
C267 C65 1.269 . S
C271 C93 1.266 . S
C285 C107 1.270 . S
C289 C79 1.270 . S
C303 C121 1.255 . S
C307 C149 1.251 . S
C321 C163 1.257 . S
C325 C135 1.252 . S
C339 C177 1.270 . S
C343 C205 1.269 . S
C357 C219 1.263 . S
C361 C191 1.268 . S
C375 C63 1.435 . S
C379 C7 1.435 . S
C393 C21 1.434 . S
C397 C77 1.437 . S
C411 C35 1.435 . S
C415 C91 1.436 . S
C429 C105 1.436 . S
C433 C49 1.435 . S
C447 C119 1.436 . S
C451 C175 1.435 . S
C465 C133 1.437 . S
C469 C189 1.434 . S
C483 C147 1.434 . S
C487 C203 1.436 . S
C501 C161 1.437 . S
C505 C217 1.433 . S
C519 C148 1.175 . S
C523 C8 1.192 . S
C537 C162 1.188 . S
C541 C22 1.180 . S
C555 C36 1.174 . S
C559 C120 1.193 . S
C573 C50 1.186 . S
C577 C134 1.181 . S
C591 C64 1.175 . S
C595 C204 1.192 . S
C609 C78 1.190 . S
C613 C218 1.177 . S
C627 C92 1.192 . S
C631 C176 1.175 . S
C645 C190 1.193 . S
C649 C106 1.174 . S
C663 C6 1.416 . S
C667 C216 1.421 . S
C681 C174 1.415 . S
C685 C20 1.422 . S
C699 C34 1.417 . S
C703 C188 1.420 . S
C717 C202 1.415 . S
C721 C48 1.422 . S
C735 C132 1.422 . S
C739 C62 1.415 . S
C753 C76 1.421 . S
C757 C146 1.416 . S
C771 C160 1.421 . S
C775 C90 1.416 . S
C789 C118 1.415 . S
C793 C104 1.422 . S
