# Generated by pormake.
# Topology smk, (6)-cn, num edge types: 1
# Building blocks:
#     Node 0, Type 0, BuildingBlock: MIDCAF_clean_sbu_0, # of connection points: 6
#     Node 1, Type 0, BuildingBlock: MIDCAF_clean_sbu_0, # of connection points: 6
#     Node 2, Type 0, BuildingBlock: MIDCAF_clean_sbu_0, # of connection points: 6
#     Node 3, Type 0, BuildingBlock: MIDCAF_clean_sbu_0, # of connection points: 6
#     Node 4, Type 0, BuildingBlock: MIDCAF_clean_sbu_0, # of connection points: 6
#     Node 5, Type 0, BuildingBlock: MIDCAF_clean_sbu_0, # of connection points: 6
#     Edge 6, Type (0, 0), BuildingBlock: MIFKUJ_clean_linker_0, # of connection points: 2
#     Edge 7, Type (0, 0), BuildingBlock: MIFKUJ_clean_linker_0, # of connection points: 2
#     Edge 8, Type (0, 0), BuildingBlock: MIFKUJ_clean_linker_0, # of connection points: 2
#     Edge 9, Type (0, 0), BuildingBlock: MIFKUJ_clean_linker_0, # of connection points: 2
#     Edge 10, Type (0, 0), BuildingBlock: MIFKUJ_clean_linker_0, # of connection points: 2
#     Edge 11, Type (0, 0), BuildingBlock: MIFKUJ_clean_linker_0, # of connection points: 2
#     Edge 12, Type (0, 0), BuildingBlock: MIFKUJ_clean_linker_0, # of connection points: 2
#     Edge 13, Type (0, 0), BuildingBlock: MIFKUJ_clean_linker_0, # of connection points: 2
#     Edge 14, Type (0, 0), BuildingBlock: MIFKUJ_clean_linker_0, # of connection points: 2
#     Edge 15, Type (0, 0), BuildingBlock: MIFKUJ_clean_linker_0, # of connection points: 2
#     Edge 16, Type (0, 0), BuildingBlock: MIFKUJ_clean_linker_0, # of connection points: 2
#     Edge 17, Type (0, 0), BuildingBlock: MIFKUJ_clean_linker_0, # of connection points: 2
#     Edge 18, Type (0, 0), BuildingBlock: MIFKUJ_clean_linker_0, # of connection points: 2
#     Edge 19, Type (0, 0), BuildingBlock: MIFKUJ_clean_linker_0, # of connection points: 2
#     Edge 20, Type (0, 0), BuildingBlock: MIFKUJ_clean_linker_0, # of connection points: 2
#     Edge 21, Type (0, 0), BuildingBlock: MIFKUJ_clean_linker_0, # of connection points: 2
#     Edge 22, Type (0, 0), BuildingBlock: MIFKUJ_clean_linker_0, # of connection points: 2
#     Edge 23, Type (0, 0), BuildingBlock: MIFKUJ_clean_linker_0, # of connection points: 2
# Relax obj value: 0.124
# Max RMSD: 0.126
# Mean RMSD: 0.126
data_MOF--net-smk--node1-MIDCAF_clean_sbu_0--edge1-MIFKUJ_clean_linker_0
_symmetry_space_group_name_H-M    P1
_symmetry_Int_Tables_number       1
_symmetry_cell_setting            triclinic
loop_
_symmetry_equiv_pos_as_xyz
'x, y, z'
_cell_length_a     53.544631
_cell_length_b     53.568749
_cell_length_c     18.956047
_cell_angle_alpha  90.032163
_cell_angle_beta   89.988215
_cell_angle_gamma 120.01985
loop_
_atom_site_label
_atom_site_type_symbol
_atom_site_fract_x
_atom_site_fract_y
_atom_site_fract_z
_atom_type_partial_charge
Zn0 Zn 0.43256 0.25775 0.51285 0.0
Zn1 Zn 0.43819 0.18585 0.66089 0.0
Zn2 Zn 0.43369 0.22018 0.58368 0.0
C3 C 0.40096 0.19753 0.73152 0.0
C4 C 0.49323 0.22982 0.65485 0.0
O5 O 0.40941 0.19812 0.48643 0.0
O6 O 0.39983 0.2317 0.45145 0.0
C7 C 0.41033 0.2628 0.63434 0.0
O8 O 0.41084 0.21741 0.68406 0.0
O9 O 0.40716 0.17774 0.72923 0.0
O10 O 0.4783 0.20887 0.69526 0.0
O11 O 0.48078 0.23634 0.60571 0.0
O12 O 0.42438 0.27951 0.58443 0.0
O13 O 0.40972 0.23852 0.64091 0.0
O14 O 0.47874 0.25328 0.55354 0.0
O15 O 0.47113 0.27682 0.46848 0.0
C16 C 0.48838 0.27214 0.50346 0.0
O17 O 0.41175 0.17732 0.52957 0.0
O18 O 0.42969 0.1552 0.59182 0.0
C19 C 0.39632 0.20672 0.44443 0.0
C20 C 0.41464 0.15514 0.54059 0.0
Zn21 Zn 0.18203 0.43752 0.69587 0.0
Zn22 Zn 0.25775 0.43332 0.8493 0.0
Zn23 Zn 0.21775 0.43143 0.76967 0.0
C24 C 0.20409 0.40087 0.91809 0.0
C25 C 0.27371 0.48975 0.83733 0.0
O26 O 0.21566 0.40827 0.67258 0.0
O27 O 0.17781 0.40817 0.62562 0.0
C28 C 0.14989 0.40872 0.80813 0.0
O29 O 0.19485 0.40889 0.86514 0.0
O30 O 0.23031 0.40781 0.92255 0.0
O31 O 0.28236 0.47482 0.86915 0.0
O32 O 0.25088 0.47729 0.79826 0.0
O33 O 0.14947 0.42509 0.76096 0.0
O34 O 0.17317 0.40757 0.81829 0.0
O35 O 0.23391 0.47787 0.74417 0.0
O36 O 0.20305 0.47831 0.66733 0.0
C37 C 0.2262 0.49162 0.70172 0.0
O38 O 0.23631 0.40668 0.71636 0.0
O39 O 0.27337 0.416 0.78501 0.0
C40 C 0.19616 0.39995 0.62451 0.0
C41 C 0.25853 0.40419 0.73069 0.0
Zn42 Zn 0.75281 0.17808 0.83944 0.0
Zn43 Zn 0.83177 0.26175 0.96515 0.0
Zn44 Zn 0.791 0.21725 0.90636 0.0
C45 C 0.81655 0.21278 0.05156 0.0
C46 C 0.78765 0.27342 0.96351 0.0
O47 O 0.8097 0.21166 0.80738 0.0
O48 O 0.77607 0.16773 0.77735 0.0
C49 C 0.74776 0.15344 0.96616 0.0
O50 O 0.79565 0.20035 0.00729 0.0
O51 O 0.836 0.23872 0.04257 0.0
O52 O 0.81294 0.28435 0.98736 0.0
O53 O 0.77631 0.2493 0.92928 0.0
O54 O 0.73118 0.15077 0.91585 0.0
O55 O 0.77271 0.17647 0.97049 0.0
O56 O 0.75859 0.23025 0.87662 0.0
O57 O 0.73502 0.19843 0.79289 0.0
C58 C 0.73998 0.22087 0.82593 0.0
O59 O 0.83315 0.23389 0.84784 0.0
O60 O 0.86205 0.27701 0.89263 0.0
C61 C 0.80065 0.18941 0.76704 0.0
C62 C 0.85769 0.25757 0.84874 0.0
Zn63 Zn 0.56958 0.75176 0.00188 0.0
Zn64 Zn 0.56757 0.8273 0.16089 0.0
Zn65 Zn 0.57264 0.79007 0.08875 0.0
C66 C 0.60411 0.81079 0.23376 0.0
C67 C 0.51278 0.78388 0.15632 0.0
O68 O 0.59323 0.81325 0.99042 0.0
O69 O 0.58708 0.77754 0.9203 0.0
C70 C 0.60418 0.75267 0.11232 0.0
O71 O 0.59707 0.79205 0.18409 0.0
O72 O 0.59486 0.82835 0.23347 0.0
O73 O 0.52646 0.80847 0.18427 0.0
O74 O 0.52629 0.77424 0.11873 0.0
O75 O 0.59384 0.74054 0.05408 0.0
O76 O 0.59865 0.77191 0.13669 0.0
O77 O 0.52617 0.7561 0.06603 0.0
O78 O 0.52824 0.72373 0.99775 0.0
C79 C 0.51345 0.73219 0.0309 0.0
O80 O 0.59663 0.83478 0.03961 0.0
O81 O 0.58278 0.86115 0.09963 0.0
C82 C 0.5962 0.804 0.93014 0.0
C83 C 0.59746 0.85904 0.05055 0.0
Zn84 Zn 0.82551 0.56808 0.14775 0.0
Zn85 Zn 0.75579 0.57301 0.31587 0.0
Zn86 Zn 0.79067 0.57337 0.23244 0.0
C87 C 0.80805 0.6111 0.37251 0.0
C88 C 0.74287 0.5179 0.31995 0.0
O89 O 0.78882 0.59468 0.13473 0.0
O90 O 0.82114 0.59048 0.07068 0.0
C91 C 0.85957 0.59998 0.259 0.0
O92 O 0.81547 0.59836 0.32633 0.0
O93 O 0.78259 0.60663 0.37319 0.0
O94 O 0.73973 0.53464 0.36098 0.0
O95 O 0.75919 0.52813 0.26511 0.0
O96 O 0.86084 0.58748 0.20391 0.0
O97 O 0.8354 0.59775 0.27816 0.0
O98 O 0.77571 0.52648 0.21091 0.0
O99 O 0.80767 0.52608 0.13755 0.0
C100 C 0.78487 0.51258 0.17318 0.0
O101 O 0.76882 0.59562 0.18284 0.0
O102 O 0.73065 0.57949 0.2517 0.0
C103 C 0.80354 0.59947 0.07765 0.0
C104 C 0.74436 0.59362 0.19805 0.0
Zn105 Zn 0.26562 0.81892 0.33847 0.0
Zn106 Zn 0.18291 0.75071 0.49905 0.0
Zn107 Zn 0.22284 0.78746 0.41991 0.0
C108 C 0.20533 0.80537 0.56342 0.0
C109 C 0.22065 0.7313 0.49804 0.0
O110 O 0.20293 0.78678 0.31771 0.0
O111 O 0.2421 0.81094 0.2521 0.0
C112 C 0.26556 0.85621 0.43914 0.0
O113 O 0.22352 0.81343 0.5121 0.0
O114 O 0.18525 0.7795 0.56787 0.0
O115 O 0.19695 0.72463 0.52713 0.0
O116 O 0.23277 0.75338 0.45658 0.0
O117 O 0.27919 0.85605 0.38512 0.0
O118 O 0.24395 0.83259 0.46217 0.0
O119 O 0.25298 0.76956 0.40487 0.0
O120 O 0.29046 0.80205 0.34393 0.0
C121 C 0.27779 0.77819 0.37547 0.0
O122 O 0.17995 0.76988 0.3642 0.0
O123 O 0.14991 0.73497 0.43527 0.0
C124 C 0.21499 0.79701 0.25775 0.0
C125 C 0.15437 0.7491 0.37907 0.0
H126 H 0.34758 0.2022 0.38974 0.0
H127 H 0.33202 0.19131 0.26708 0.0
H128 H 0.39648 0.16686 0.2301 0.0
H129 H 0.41126 0.17672 0.35388 0.0
H130 H 0.36277 0.22165 0.16732 0.0
H131 H 0.38315 0.12769 0.07738 0.0
H132 H 0.37117 0.07906 0.11624 0.0
H133 H 0.30441 0.0745 0.2503 0.0
H134 H 0.31526 0.12269 0.21059 0.0
H135 H 0.41996 0.24124 0.82566 0.0
H136 H 0.40449 0.23635 0.94845 0.0
H137 H 0.33257 0.15163 0.90327 0.0
H138 H 0.34955 0.15587 0.7817 0.0
H139 H 0.35655 0.14584 0.00654 0.0
H140 H 0.32576 0.21225 0.96081 0.0
H141 H 0.32765 0.25605 0.91368 0.0
H142 H 0.39924 0.30863 0.04933 0.0
H143 H 0.3982 0.26521 0.09629 0.0
C144 C 0.35751 0.19322 0.35612 0.0
C145 C 0.3807 0.1904 0.38103 0.0
C146 C 0.34882 0.1873 0.28577 0.0
C147 C 0.36336 0.17875 0.23861 0.0
C148 C 0.3847 0.17323 0.26523 0.0
C149 C 0.39312 0.17875 0.3362 0.0
C150 C 0.35926 0.17977 0.16101 0.0
C151 C 0.36109 0.20488 0.13225 0.0
C152 C 0.3561 0.15761 0.11487 0.0
C153 C 0.35022 0.12903 0.14126 0.0
C154 C 0.36584 0.11632 0.11498 0.0
C155 C 0.35917 0.08876 0.13698 0.0
C156 C 0.33701 0.0737 0.18559 0.0
C157 C 0.32157 0.08622 0.21264 0.0
C158 C 0.32799 0.11367 0.19038 0.0
C159 C 0.40019 0.22213 0.84146 0.0
C160 C 0.3858 0.199 0.79455 0.0
C161 C 0.39129 0.21925 0.91186 0.0
C162 C 0.36727 0.19353 0.93585 0.0
C163 C 0.35132 0.17155 0.88671 0.0
C164 C 0.36075 0.17411 0.81697 0.0
C165 C 0.36122 0.18817 0.01295 0.0
C166 C 0.35765 0.16235 0.04164 0.0
C167 C 0.3615 0.20911 0.05898 0.0
C168 C 0.36197 0.2354 0.03189 0.0
C169 C 0.34202 0.23315 0.98037 0.0
C170 C 0.34294 0.25792 0.95365 0.0
C171 C 0.36356 0.2851 0.97846 0.0
C172 C 0.38327 0.28756 0.03017 0.0
C173 C 0.3825 0.26286 0.05693 0.0
H174 H 0.36426 0.30425 0.95766 0.0
H175 H 0.33178 0.0523 0.20223 0.0
H176 H 0.24024 0.41229 0.53434 0.0
H177 H 0.23367 0.39715 0.41056 0.0
H178 H 0.14429 0.33529 0.45189 0.0
H179 H 0.15059 0.35138 0.57452 0.0
H180 H 0.21601 0.35434 0.32004 0.0
H181 H 0.10269 0.34412 0.33015 0.0
H182 H 0.07571 0.36103 0.40257 0.0
H183 H 0.15532 0.43293 0.4746 0.0
H184 H 0.1827 0.41676 0.40169 0.0
H185 H 0.18494 0.34629 0.96314 0.0
H186 H 0.17204 0.33012 0.08544 0.0
H187 H 0.17439 0.40994 0.1356 0.0
H188 H 0.18508 0.42489 0.01263 0.0
H189 H 0.14111 0.37335 0.22225 0.0
H190 H 0.23645 0.40056 0.13767 0.0
H191 H 0.27172 0.39663 0.06151 0.0
H192 H 0.24164 0.31062 0.1368 0.0
H193 H 0.20588 0.3139 0.21258 0.0
C194 C 0.21962 0.39453 0.51755 0.0
C195 C 0.19583 0.38315 0.56313 0.0
C196 C 0.2158 0.38595 0.44679 0.0
C197 C 0.18823 0.36572 0.42159 0.0
C198 C 0.16555 0.35139 0.46987 0.0
C199 C 0.16922 0.36039 0.54 0.0
C200 C 0.18218 0.3635 0.34477 0.0
C201 C 0.19936 0.35806 0.29862 0.0
C202 C 0.16104 0.36928 0.31663 0.0
C203 C 0.14471 0.37895 0.36133 0.0
C204 C 0.1144 0.36353 0.36144 0.0
C205 C 0.09905 0.37305 0.40235 0.0
C206 C 0.1138 0.39803 0.44316 0.0
C207 C 0.14392 0.41356 0.4431 0.0
C208 C 0.15936 0.40422 0.40201 0.0
C209 C 0.18103 0.3595 -0.00025 0.0
C210 C 0.18582 0.3867 0.9792 0.0
C211 C 0.17414 0.35052 0.06976 0.0
C212 C 0.1734 0.3693 0.12043 0.0
C213 C 0.17505 0.3951 0.09784 0.0
C214 C 0.18102 0.40364 0.02744 0.0
C215 C 0.17512 0.36448 0.19708 0.0
C216 C 0.15715 0.36868 0.24346 0.0
C217 C 0.19668 0.35927 0.22523 0.0
C218 C 0.21828 0.35734 0.18009 0.0
C219 C 0.23727 0.38076 0.13765 0.0
C220 C 0.25733 0.37865 0.09456 0.0
C221 C 0.25887 0.35337 0.09422 0.0
C222 C 0.24037 0.33016 0.13701 0.0
C223 C 0.22019 0.33212 0.17999 0.0
H224 H 0.27446 0.35178 0.061 0.0
H225 H 0.10188 0.40533 0.47488 0.0
H226 H 0.86241 0.21117 0.10618 0.0
H227 H 0.86729 0.19775 0.22657 0.0
H228 H 0.77835 0.17278 0.26712 0.0
H229 H 0.77308 0.18404 0.14521 0.0
H230 H 0.868 0.22172 0.3362 0.0
H231 H 0.74936 0.13124 0.40401 0.0
H232 H 0.71016 0.08825 0.34609 0.0
H233 H 0.77158 0.08266 0.21116 0.0
H234 H 0.81126 0.12524 0.26924 0.0
H235 H 0.82896 0.23454 0.67777 0.0
H236 H 0.83998 0.23147 0.5546 0.0
H237 H 0.81808 0.14287 0.5855 0.0
H238 H 0.80475 0.14542 0.7076 0.0
H239 H 0.79238 0.14263 0.47936 0.0
H240 H 0.88944 0.20098 0.5396 0.0
H241 H 0.9322 0.24067 0.59709 0.0
H242 H 0.92237 0.30245 0.47398 0.0
H243 H 0.87919 0.26321 0.41676 0.0
C244 C 0.84368 0.20172 0.14035 0.0
C245 C 0.81733 0.19842 0.11682 0.0
C246 C 0.84652 0.19433 0.20932 0.0
C247 C 0.82326 0.18422 0.25665 0.0
C248 C 0.79651 0.17975 0.23173 0.0
C249 C 0.79344 0.18626 0.16198 0.0
C250 C 0.82765 0.18143 0.33335 0.0
C251 C 0.85164 0.20418 0.36732 0.0
C252 C 0.8071 0.15801 0.37424 0.0
C253 C 0.78334 0.13161 0.34092 0.0
C254 C 0.75459 0.12069 0.36255 0.0
C255 C 0.73226 0.0964 0.32954 0.0
C256 C 0.73838 0.08277 0.27489 0.0
C257 C 0.76687 0.09327 0.25343 0.0
C258 C 0.78929 0.11748 0.28641 0.0
C259 C 0.82747 0.21475 0.65884 0.0
C260 C 0.81601 0.19023 0.7019 0.0
C261 C 0.83384 0.21295 0.58817 0.0
C262 C 0.83 0.18689 0.56004 0.0
C263 C 0.82097 0.16313 0.60527 0.0
C264 C 0.81369 0.16467 0.67529 0.0
C265 C 0.83198 0.18363 0.48236 0.0
C266 C 0.80918 0.15975 0.44817 0.0
C267 C 0.85445 0.20523 0.44112 0.0
C268 C 0.88093 0.22905 0.47394 0.0
C269 C 0.89631 0.22303 0.52492 0.0
C270 C 0.92062 0.24546 0.55754 0.0
C271 C 0.92998 0.27406 0.53924 0.0
C272 C 0.9151 0.28027 0.48808 0.0
C273 C 0.89071 0.25793 0.45543 0.0
H274 H 0.94877 0.29139 0.56467 0.0
H275 H 0.72105 0.06405 0.24921 0.0
H276 H 0.65247 0.85762 0.27878 0.0
H277 H 0.66941 0.86669 0.40065 0.0
H278 H 0.61037 0.77755 0.45143 0.0
H279 H 0.59381 0.76841 0.32865 0.0
H280 H 0.63263 0.86362 0.49446 0.0
H281 H 0.62491 0.75812 0.5933 0.0
H282 H 0.64475 0.72611 0.56902 0.0
H283 H 0.71918 0.79645 0.47191 0.0
H284 H 0.69927 0.8285 0.49342 0.0
H285 H 0.56943 0.8168 0.82837 0.0
H286 H 0.58746 0.83086 0.70821 0.0
H287 H 0.67099 0.84574 0.77412 0.0
H288 H 0.65257 0.83109 0.89441 0.0
H289 H 0.65074 0.80739 0.67417 0.0
H290 H 0.66304 0.90042 0.70031 0.0
H291 H 0.65094 0.93748 0.73487 0.0
H292 H 0.57945 0.90158 0.59088 0.0
H293 H 0.59078 0.86398 0.55629 0.0
C294 C 0.64429 0.83962 0.31515 0.0
C295 C 0.62188 0.81232 0.29461 0.0
C296 C 0.65381 0.84488 0.38497 0.0
C297 C 0.64094 0.82295 0.43562 0.0
C298 C 0.62088 0.7948 0.41331 0.0
C299 C 0.61145 0.78949 0.34299 0.0
C300 C 0.64379 0.83057 0.51183 0.0
C301 C 0.63697 0.85157 0.53377 0.0
C302 C 0.64999 0.81544 0.56333 0.0
C303 C 0.66051 0.79555 0.54431 0.0
C304 C 0.64532 0.76658 0.56589 0.0
C305 C 0.65653 0.74843 0.55248 0.0
C306 C 0.68315 0.75919 0.51865 0.0
C307 C 0.69843 0.78804 0.49746 0.0
C308 C 0.68704 0.80611 0.50947 0.0
C309 C 0.59205 0.82461 0.81782 0.0
C310 C 0.60981 0.82333 0.87025 0.0
C311 C 0.60236 0.83253 0.74907 0.0
C312 C 0.6306 0.83927 0.73193 0.0
C313 C 0.64914 0.8406 0.7861 0.0
C314 C 0.63876 0.83259 0.85488 0.0
C315 C 0.63871 0.83978 0.65681 0.0
C316 C 0.64715 0.82003 0.635 0.0
C317 C 0.63463 0.85659 0.60561 0.0
C318 C 0.62772 0.87926 0.6259 0.0
C319 C 0.64461 0.90028 0.67633 0.0
C320 C 0.6379 0.92142 0.6959 0.0
C321 C 0.61443 0.92187 0.66512 0.0
C322 C 0.59764 0.90121 0.61464 0.0
C323 C 0.60423 0.88 0.59495 0.0
H324 H 0.60927 0.93825 0.68034 0.0
H325 H 0.69196 0.74521 0.50894 0.0
H326 H 0.8357 0.59285 0.46011 0.0
H327 H 0.8432 0.60504 0.58566 0.0
H328 H 0.82738 0.67544 0.54951 0.0
H329 H 0.81876 0.66252 0.42474 0.0
H330 H 0.86969 0.64612 0.68537 0.0
H331 H 0.77487 0.66784 0.66002 0.0
H332 H 0.7359 0.65856 0.576 0.0
H333 H 0.73633 0.58326 0.49969 0.0
H334 H 0.77496 0.59189 0.58388 0.0
H335 H 0.83853 0.65454 0.03661 0.0
H336 H 0.84475 0.67091 0.91391 0.0
H337 H 0.76871 0.59121 0.85563 0.0
H338 H 0.76202 0.57548 0.97863 0.0
H339 H 0.7752 0.63155 0.76753 0.0
H340 H 0.83583 0.59717 0.8628 0.0
H341 H 0.87122 0.59722 0.94616 0.0
H342 H 0.93373 0.68301 0.88139 0.0
H343 H 0.89849 0.68361 0.79839 0.0
C344 C 0.83543 0.61188 0.47834 0.0
C345 C 0.82628 0.62653 0.43335 0.0
C346 C 0.83952 0.61875 0.55027 0.0
C347 C 0.83481 0.64052 0.57725 0.0
C348 C 0.83044 0.65814 0.53003 0.0
C349 C 0.82583 0.65095 0.45859 0.0
C350 C 0.82879 0.64094 0.65361 0.0
C351 C 0.84926 0.64345 0.70339 0.0
C352 C 0.8017 0.63646 0.67725 0.0
C353 C 0.77802 0.63074 0.62757 0.0
C354 C 0.76655 0.64926 0.62545 0.0
C355 C 0.74454 0.64412 0.57781 0.0
C356 C 0.73373 0.6204 0.53235 0.0
C357 C 0.74478 0.60168 0.53474 0.0
C358 C 0.76673 0.60669 0.58239 0.0
C359 C 0.82224 0.64138 0.99813 0.0
C360 C 0.79966 0.61393 0.01664 0.0
C361 C 0.82603 0.65051 0.9279 0.0
C362 C 0.80774 0.6319 0.8752 0.0
C363 C 0.78323 0.6059 0.89521 0.0
C364 C 0.77923 0.59698 0.96561 0.0
C365 C 0.81624 0.63709 0.79961 0.0
C366 C 0.79606 0.63527 0.74978 0.0
C367 C 0.84314 0.64101 0.77594 0.0
C368 C 0.86445 0.64057 0.82508 0.0
C369 C 0.85707 0.6161 0.86666 0.0
C370 C 0.87709 0.61601 0.91382 0.0
C371 C 0.90468 0.64014 0.91921 0.0
C372 C 0.91233 0.66437 0.87728 0.0
C373 C 0.89234 0.6646 0.83019 0.0
H374 H 0.92016 0.64003 0.95575 0.0
H375 H 0.71674 0.6165 0.4954 0.0
H376 H 0.18578 0.8247 0.22528 0.0
H377 H 0.17413 0.83261 0.10482 0.0
H378 H 0.19796 0.77189 0.02541 0.0
H379 H 0.2098 0.76434 0.14505 0.0
H380 H 0.21736 0.85608 0.00504 0.0
H381 H 0.16293 0.74332 0.87041 0.0
H382 H 0.12726 0.69298 0.89949 0.0
H383 H 0.08946 0.72194 0.05575 0.0
H384 H 0.12447 0.77257 0.02649 0.0
H385 H 0.25087 0.83484 0.65238 0.0
H386 H 0.24525 0.84446 0.77607 0.0
H387 H 0.15852 0.82578 0.73281 0.0
H388 H 0.16409 0.81604 0.60979 0.0
H389 H 0.16084 0.78565 0.81774 0.0
H390 H 0.19856 0.88955 0.83557 0.0
H391 H 0.23323 0.94132 0.81787 0.0
H392 H 0.30181 0.92954 0.89664 0.0
H393 H 0.26728 0.87792 0.91736 0.0
C394 C 0.18712 0.81208 0.1823 0.0
C395 C 0.19821 0.79361 0.19391 0.0
C396 C 0.18083 0.81684 0.11361 0.0
C397 C 0.18525 0.80289 0.05621 0.0
C398 C 0.19404 0.78262 0.0689 0.0
C399 C 0.20063 0.77815 0.13722 0.0
C400 C 0.18477 0.81215 0.98279 0.0
C401 C 0.20463 0.84076 0.9642 0.0
C402 C 0.16815 0.79223 0.92956 0.0
C403 C 0.14646 0.76182 0.94637 0.0
C404 C 0.14685 0.73901 0.91051 0.0
C405 C 0.12675 0.71041 0.92707 0.0
C406 C 0.10612 0.7043 0.97943 0.0
C407 C 0.10547 0.72677 0.01519 0.0
C408 C 0.12544 0.75542 0.99863 0.0
C409 C 0.23135 0.83465 0.66836 0.0
C410 C 0.20784 0.82454 0.62198 0.0
C411 C 0.22805 0.84001 0.73923 0.0
C412 C 0.20127 0.83542 0.76391 0.0
C413 C 0.1793 0.82937 0.71505 0.0
C414 C 0.18257 0.82397 0.6446 0.0
C415 C 0.19392 0.8294 0.83985 0.0
C416 C 0.1729 0.80118 0.85881 0.0
C417 C 0.20942 0.84957 0.89337 0.0
C418 C 0.23049 0.87996 0.8772 0.0
C419 C 0.22108 0.89801 0.84858 0.0
C420 C 0.24063 0.92735 0.83872 0.0
C421 C 0.26974 0.93866 0.85556 0.0
C422 C 0.27929 0.92074 0.88334 0.0
C423 C 0.25971 0.89151 0.89477 0.0
H424 H 0.28487 0.96133 0.84728 0.0
H425 H 0.09063 0.68214 0.99231 0.0
H426 H 0.43009 0.1151 0.5167 0.0
H427 H 0.39836 0.06474 0.48739 0.0
H428 H 0.32848 0.08142 0.45086 0.0
H429 H 0.36048 0.13242 0.4824 0.0
H430 H 0.31217 0.03609 0.53912 0.0
H431 H 0.35946 0.06403 0.3191 0.0
H432 H 0.40037 0.08764 0.23662 0.0
H433 H 0.43176 0.03208 0.30568 0.0
H434 H 0.39169 0.00879 0.39041 0.0
H435 H 0.23331 0.88244 0.4489 0.0
H436 H 0.25317 0.93489 0.45468 0.0
H437 H 0.33762 0.94668 0.49659 0.0
H438 H 0.31796 0.89464 0.48895 0.0
H439 H 0.33846 0.97798 0.38496 0.0
H440 H 0.29682 0.95687 0.61823 0.0
H441 H 0.25533 0.93084 0.69728 0.0
H442 H 0.21398 0.97386 0.60403 0.0
H443 H 0.25461 0.99888 0.52098 0.0
C444 C 0.40821 0.10831 0.5004 0.0
C445 C 0.39777 0.1277 0.50193 0.0
C446 C 0.39001 0.07941 0.48365 0.0
C447 C 0.36095 0.06916 0.46689 0.0
C448 C 0.35081 0.08884 0.46384 0.0
C449 C 0.36918 0.11802 0.4808 0.0
C450 C 0.34125 0.03756 0.45834 0.0
C451 C 0.31753 0.02341 0.50417 0.0
C452 C 0.3484 0.02093 0.41334 0.0
C453 C 0.37238 0.03457 0.36125 0.0
C454 C 0.37509 0.05686 0.31692 0.0
C455 C 0.39818 0.07023 0.26978 0.0
C456 C 0.41853 0.06125 0.2656 0.0
C457 C 0.41591 0.03895 0.30879 0.0
C458 C 0.39301 0.02567 0.35648 0.0
C459 C 0.25581 0.89623 0.46256 0.0
C460 C 0.27409 0.88461 0.4696 0.0
C461 C 0.26724 0.9262 0.46485 0.0
C462 C 0.29701 0.94479 0.47506 0.0
C463 C 0.31469 0.93284 0.48777 0.0
C464 C 0.30337 0.90309 0.48471 0.0
C465 C 0.31048 0.97665 0.46817 0.0
C466 C 0.33289 0.99075 0.41899 0.0
C467 C 0.3022 0.99315 0.51013 0.0
C468 C 0.27859 0.97945 0.56266 0.0
C469 C 0.2788 0.96064 0.61411 0.0
C470 C 0.25539 0.94603 0.65968 0.0
C471 C 0.23203 0.95079 0.65609 0.0
C472 C 0.23207 0.97017 0.60673 0.0
C473 C 0.25521 0.98444 0.56004 0.0
H474 H 0.2139 0.93942 0.69144 0.0
H475 H 0.43637 0.07162 0.229 0.0
H476 H 0.3541 0.22642 0.66959 0.0
H477 H 0.31854 0.24148 0.69478 0.0
H478 H 0.38721 0.32981 0.71144 0.0
H479 H 0.4225 0.31496 0.6849 0.0
H480 H 0.34069 0.31648 0.80349 0.0
H481 H 0.35944 0.30539 0.55621 0.0
H482 H 0.36074 0.27663 0.45608 0.0
H483 H 0.27 0.21751 0.47993 0.0
H484 H 0.26832 0.2457 0.58112 0.0
H485 H 0.31105 0.41769 0.68265 0.0
H486 H 0.32802 0.38343 0.66742 0.0
H487 H 0.2406 0.31283 0.68164 0.0
H488 H 0.2234 0.3474 0.6969 0.0
H489 H 0.28547 0.30665 0.58451 0.0
H490 H 0.26585 0.32369 0.82176 0.0
H491 H 0.26615 0.35451 0.91878 0.0
H492 H 0.35872 0.40259 0.91398 0.0
H493 H 0.35894 0.37246 0.81573 0.0
C494 C 0.36163 0.24884 0.68182 0.0
C495 C 0.39099 0.2696 0.67499 0.0
C496 C 0.34129 0.25745 0.69554 0.0
C497 C 0.35022 0.28684 0.70366 0.0
C498 C 0.37982 0.30705 0.70509 0.0
C499 C 0.40001 0.29855 0.69016 0.0
C500 C 0.32935 0.29742 0.70009 0.0
C501 C 0.32836 0.31404 0.756 0.0
C502 C 0.31293 0.29396 0.63836 0.0
C503 C 0.31382 0.27741 0.57669 0.0
C504 C 0.33981 0.28615 0.54038 0.0
C505 C 0.34062 0.26996 0.48344 0.0
C506 C 0.31549 0.2452 0.46179 0.0
C507 C 0.28947 0.23665 0.49688 0.0
C508 C 0.28858 0.25271 0.55404 0.0
C509 C 0.29528 0.39493 0.67874 0.0
C510 C 0.26595 0.38515 0.69092 0.0
C511 C 0.30502 0.37535 0.67063 0.0
C512 C 0.28562 0.34563 0.67482 0.0
C513 C 0.25589 0.33571 0.67836 0.0
C514 C 0.24605 0.35546 0.6864 0.0
C515 C 0.29726 0.32603 0.68749 0.0
C516 C 0.29684 0.30811 0.63307 0.0
C517 C 0.31233 0.32818 0.75072 0.0
C518 C 0.31239 0.34595 0.81096 0.0
C519 C 0.28626 0.34098 0.84098 0.0
C520 C 0.28634 0.35832 0.89623 0.0
C521 C 0.31244 0.38053 0.92246 0.0
C522 C 0.33852 0.38539 0.89357 0.0
C523 C 0.33855 0.36818 0.8381 0.0
H524 H 0.31246 0.39392 0.96525 0.0
H525 H 0.31615 0.23269 0.41773 0.0
H526 H 0.87793 0.22023 0.85034 0.0
H527 H 0.92903 0.23472 0.83791 0.0
H528 H 0.94688 0.31702 0.75556 0.0
H529 H 0.89613 0.30298 0.77029 0.0
H530 H 0.98446 0.29544 0.70075 0.0
H531 H 0.94702 0.3133 0.9207 0.0
H532 H 0.91337 0.29621 0.0215 0.0
H533 H 0.94388 0.2389 0.08215 0.0
H534 H 0.97734 0.25529 0.98072 0.0
H535 H 0.10422 0.41623 0.83153 0.0
H536 H 0.05399 0.37809 0.83979 0.0
H537 H 0.08068 0.31476 0.86083 0.0
H538 H 0.1315 0.35311 0.85117 0.0
H539 H 0.02204 0.31546 0.94629 0.0
H540 H 0.06311 0.30006 0.73303 0.0
H541 H 0.09747 0.3182 0.63376 0.0
H542 H 0.06058 0.36867 0.56152 0.0
H543 H 0.02635 0.35123 0.66144 0.0
C544 C 0.89247 0.24076 0.82592 0.0
C545 C 0.88317 0.26053 0.81128 0.0
C546 C 0.92172 0.24913 0.81944 0.0
C547 C 0.94181 0.27712 0.79687 0.0
C548 C 0.93177 0.29534 0.77312 0.0
C549 C 0.90272 0.28725 0.78115 0.0
C550 C 0.97314 0.28959 0.81094 0.0
C551 C 0.99264 0.29933 0.75437 0.0
C552 C 0.98394 0.29453 0.88096 0.0
C553 C 0.9644 0.28526 0.94279 0.0
C554 C 0.9464 0.29691 0.95527 0.0
C555 C 0.92737 0.28737 0.01249 0.0
C556 C 0.92645 0.26644 0.05812 0.0
C557 C 0.94459 0.25507 0.04668 0.0
C558 C 0.96357 0.26446 0.98933 0.0
C559 C 0.09955 0.39433 0.84056 0.0
C560 C 0.12183 0.38766 0.83988 0.0
C561 C 0.07078 0.37253 0.84503 0.0
C562 C 0.06363 0.34361 0.84955 0.0
C563 C 0.08581 0.337 0.85687 0.0
C564 C 0.11484 0.35896 0.85203 0.0
C565 C 0.03327 0.32101 0.83618 0.0
C566 C 0.01388 0.31019 0.89275 0.0
C567 C 0.02257 0.3146 0.76628 0.0
C568 C 0.04245 0.32463 0.70508 0.0
C569 C 0.06252 0.31524 0.69632 0.0
C570 C 0.08194 0.32536 0.63996 0.0
C571 C 0.0813 0.34467 0.59157 0.0
C572 C 0.06111 0.35378 0.59921 0.0
C573 C 0.04168 0.34378 0.6557 0.0
H574 H 0.09642 0.35247 0.54816 0.0
H575 H 0.91174 0.25911 0.10247 0.0
H576 H 0.65546 0.88146 0.0411 0.0
H577 H 0.69085 0.93299 0.02745 0.0
H578 H 0.62224 0.94954 0.97339 0.0
H579 H 0.58698 0.89841 0.98884 0.0
H580 H 0.67398 0.98496 0.89926 0.0
H581 H 0.63969 0.95257 0.13776 0.0
H582 H 0.63218 0.92241 0.24268 0.0
H583 H 0.72364 0.95748 0.26173 0.0
H584 H 0.73164 0.98747 0.15597 0.0
H585 H 0.69422 0.11402 0.00951 0.0
H586 H 0.67776 0.06331 0.03134 0.0
H587 H 0.76586 0.0818 0.03633 0.0
H588 H 0.78262 0.13304 0.01384 0.0
H589 H 0.71473 0.0296 0.1319 0.0
H590 H 0.74885 0.06587 0.89599 0.0
H591 H 0.75425 0.09693 0.79439 0.0
H592 H 0.66218 0.05461 0.77217 0.0
H593 H 0.65625 0.02375 0.87475 0.0
C594 C 0.64818 0.89593 0.02299 0.0
C595 C 0.61855 0.88601 0.01546 0.0
C596 C 0.66834 0.9254 0.01611 0.0
C597 C 0.65912 0.94518 0.00051 0.0
C598 C 0.62986 0.93472 0.98558 0.0
C599 C 0.60972 0.90547 0.99385 0.0
C600 C 0.67879 0.97681 0.00817 0.0
C601 C 0.68317 0.99465 0.94991 0.0
C602 C 0.69101 0.98958 0.07424 0.0
C603 C 0.68624 0.97192 0.13838 0.0
C604 C 0.65818 0.95365 0.16394 0.0
C605 C 0.65383 0.93661 0.22359 0.0
C606 C 0.67741 0.93793 0.25868 0.0
C607 C 0.70539 0.9564 0.23434 0.0
C608 C 0.70985 0.97341 0.17453 0.0
C609 C 0.71019 0.1076 0.01865 0.0
C610 C 0.73967 0.1274 0.00898 0.0
C611 C 0.70073 0.07855 0.0309 0.0
C612 C 0.72056 0.06875 0.03397 0.0
C613 C 0.75023 0.08899 0.03387 0.0
C614 C 0.75979 0.11829 0.02147 0.0
C615 C 0.70976 0.03754 0.023 0.0
C616 C 0.70657 0.01984 0.08071 0.0
C617 C 0.69867 0.0248 0.95638 0.0
C618 C 0.70212 0.0427 0.89343 0.0
C619 C 0.72976 0.06336 0.8698 0.0
C620 C 0.73292 0.08092 0.81202 0.0
C621 C 0.70857 0.07779 0.77695 0.0
C622 C 0.68102 0.05703 0.79945 0.0
C623 C 0.67775 0.0395 0.8574 0.0
H624 H 0.71105 0.09141 0.73224 0.0
H625 H 0.674 0.9247 0.30483 0.0
H626 H 0.68864 0.57939 0.18248 0.0
H627 H 0.67055 0.61185 0.15622 0.0
H628 H 0.75695 0.67971 0.10807 0.0
H629 H 0.77536 0.64694 0.13579 0.0
H630 H 0.7324 0.6984 0.2001 0.0
H631 H 0.70422 0.65209 0.97926 0.0
H632 H 0.68362 0.61197 0.89397 0.0
H633 H 0.60004 0.57898 0.9883 0.0
H634 H 0.62019 0.61864 0.07492 0.0
H635 H 0.66267 0.78238 0.11337 0.0
H636 H 0.69262 0.75961 0.11958 0.0
H637 H 0.61842 0.68001 0.1859 0.0
H638 H 0.58862 0.70269 0.17897 0.0
H639 H 0.64336 0.67347 0.06624 0.0
H640 H 0.67479 0.71982 0.29273 0.0
H641 H 0.69586 0.76237 0.36937 0.0
H642 H 0.77611 0.79754 0.25717 0.0
H643 H 0.75489 0.75563 0.17689 0.0
C644 C 0.70373 0.60094 0.16406 0.0
C645 C 0.73342 0.61061 0.16127 0.0
C646 C 0.69333 0.61956 0.14894 0.0
C647 C 0.71231 0.64834 0.13005 0.0
C648 C 0.74186 0.65762 0.12263 0.0
C649 C 0.75233 0.6388 0.13758 0.0
C650 C 0.7012 0.66888 0.12548 0.0
C651 C 0.71334 0.69332 0.16943 0.0
C652 C 0.67615 0.66224 0.0861 0.0
C653 C 0.66379 0.63833 0.03389 0.0
C654 C 0.68148 0.63619 0.98217 0.0
C655 C 0.66987 0.61353 0.93351 0.0
C656 C 0.64054 0.59292 0.93576 0.0
C657 C 0.62275 0.59496 0.98661 0.0
C658 C 0.63425 0.61757 0.03543 0.0
C659 C 0.65322 0.76054 0.13319 0.0
C660 C 0.62351 0.74447 0.14738 0.0
C661 C 0.67022 0.74737 0.13556 0.0
C662 C 0.65769 0.71794 0.15226 0.0
C663 C 0.62854 0.70265 0.17231 0.0
C664 C 0.61163 0.71578 0.16982 0.0
C665 C 0.67389 0.70221 0.1429 0.0
C666 C 0.66269 0.67876 0.09599 0.0
C667 C 0.70001 0.71005 0.17864 0.0
C668 C 0.71311 0.73476 0.22819 0.0
C669 C 0.69685 0.73673 0.28386 0.0
C670 C 0.70886 0.76077 0.3281 0.0
C671 C 0.73741 0.78269 0.31861 0.0
C672 C 0.75399 0.78058 0.2645 0.0
C673 C 0.74192 0.75673 0.21934 0.0
H674 H 0.74667 0.80129 0.35308 0.0
H675 H 0.6316 0.57539 0.89805 0.0
H676 H 0.90071 0.58663 0.28603 0.0
H677 H 0.95084 0.61984 0.31515 0.0
H678 H 0.93166 0.68854 0.34157 0.0
H679 H 0.88077 0.65481 0.31139 0.0
H680 H 0.97734 0.70485 0.25448 0.0
H681 H 0.95407 0.6658 0.4826 0.0
H682 H 0.93175 0.6287 0.57502 0.0
H683 H 0.98162 0.59049 0.50726 0.0
H684 H 1.00392 0.62706 0.41362 0.0
H685 H 0.131 0.78333 0.35826 0.0
H686 H 0.07923 0.76479 0.33996 0.0
H687 H 0.06735 0.68062 0.29445 0.0
H688 H 0.11871 0.69898 0.31404 0.0
H689 H 0.03692 0.68131 0.41076 0.0
H690 H 0.05492 0.72012 0.17043 0.0
H691 H 0.07669 0.75966 0.0835 0.0
H692 H 0.03717 0.80244 0.1867 0.0
H693 H 0.01533 0.76334 0.27464 0.0
C694 C 0.90693 0.60858 0.30039 0.0
C695 C 0.88689 0.61814 0.29681 0.0
C696 C 0.93567 0.62762 0.31699 0.0
C697 C 0.94515 0.65677 0.33072 0.0
C698 C 0.92483 0.66614 0.33118 0.0
C699 C 0.89575 0.64684 0.31491 0.0
C700 C 0.97668 0.67721 0.33798 0.0
C701 C 0.99037 0.70014 0.28984 0.0
C702 C 0.99378 0.67121 0.38413 0.0
C703 C 0.98063 0.64919 0.44082 0.0
C704 C 0.96017 0.6494 0.48708 0.0
C705 C 0.94752 0.62846 0.53975 0.0
C706 C 0.95525 0.60725 0.54699 0.0
C707 C 0.97568 0.60696 0.50163 0.0
C708 C 0.98837 0.62783 0.44881 0.0
C709 C 0.11756 0.76132 0.34035 0.0
C710 C 0.12879 0.7426 0.33682 0.0
C711 C 0.08791 0.75064 0.33074 0.0
C712 C 0.06932 0.72118 0.31692 0.0
C713 C 0.08122 0.70335 0.30567 0.0
C714 C 0.11065 0.71393 0.31578 0.0
C715 C 0.0375 0.70775 0.32449 0.0
C716 C 0.02386 0.68629 0.37614 0.0
C717 C 0.02063 0.71559 0.2827 0.0
C718 C 0.03376 0.73896 0.22959 0.0
C719 C 0.05108 0.73808 0.17497 0.0
C720 C 0.06339 0.76037 0.12545 0.0
C721 C 0.05844 0.78358 0.12977 0.0
C722 C 0.04105 0.78449 0.18348 0.0
C723 C 0.02866 0.76225 0.23311 0.0
H724 H 0.06801 0.8008 0.09137 0.0
H725 H 0.94543 0.59105 0.58778 0.0
H726 H 0.51282 0.2882 0.37439 0.0
H727 H 0.56302 0.32299 0.34695 0.0
H728 H 0.584 0.33069 0.56867 0.0
H729 H 0.53339 0.29652 0.59623 0.0
H730 H 0.60199 0.38133 0.51384 0.0
H731 H 0.60975 0.30082 0.44952 0.0
H732 H 0.59878 0.25517 0.39261 0.0
H733 H 0.61272 0.29486 0.18873 0.0
H734 H 0.62344 0.34076 0.24425 0.0
H735 H 0.74096 0.49061 0.44164 0.0
H736 H 0.70494 0.44125 0.47455 0.0
H737 H 0.66931 0.4265 0.26445 0.0
H738 H 0.70589 0.47571 0.23118 0.0
H739 H 0.66266 0.37661 0.32236 0.0
H740 H 0.6449 0.45347 0.39242 0.0
H741 H 0.6574 0.49933 0.45148 0.0
H742 H 0.66326 0.46422 0.65033 0.0
H743 H 0.6512 0.41828 0.59216 0.0
C744 C 0.52833 0.29687 0.4171 0.0
C745 C 0.51941 0.28937 0.48736 0.0
C746 C 0.55707 0.31658 0.40134 0.0
C747 C 0.57748 0.32924 0.45559 0.0
C748 C 0.56876 0.32099 0.52581 0.0
C749 C 0.53992 0.30123 0.54157 0.0
C750 C 0.60674 0.35361 0.43926 0.0
C751 C 0.61558 0.37999 0.4733 0.0
C752 C 0.62425 0.35213 0.38517 0.0
C753 C 0.61733 0.32435 0.35125 0.0
C754 C 0.61032 0.29986 0.39253 0.0
C755 C 0.60416 0.2739 0.36048 0.0
C756 C 0.60502 0.2721 0.28709 0.0
C757 C 0.61206 0.29628 0.2456 0.0
C758 C 0.61823 0.32231 0.27737 0.0
C759 C 0.72603 0.47643 0.40195 0.0
C760 C 0.72615 0.48673 0.33385 0.0
C761 C 0.70543 0.44832 0.42076 0.0
C762 C 0.68398 0.43044 0.37247 0.0
C763 C 0.68559 0.43992 0.30263 0.0
C764 C 0.70656 0.46796 0.28347 0.0
C765 C 0.65777 0.404 0.39729 0.0
C766 C 0.64933 0.37751 0.36418 0.0
C767 C 0.64065 0.40515 0.45279 0.0
C768 C 0.64744 0.43258 0.48788 0.0
C769 C 0.649 0.4556 0.44868 0.0
C770 C 0.656 0.4816 0.48197 0.0
C771 C 0.66119 0.48471 0.55458 0.0
C772 C 0.65929 0.46179 0.59408 0.0
C773 C 0.65236 0.43578 0.56099 0.0
H774 H 0.66663 0.50486 0.58026 0.0
H775 H 0.60025 0.25197 0.26237 0.0
H776 H 0.21814 0.53101 0.7706 0.0
H777 H 0.23601 0.58087 0.73378 0.0
H778 H 0.28888 0.57209 0.57495 0.0
H779 H 0.27087 0.52203 0.61222 0.0
H780 H 0.28489 0.6325 0.70999 0.0
H781 H 0.27753 0.59908 0.42243 0.0
H782 H 0.25764 0.55511 0.34908 0.0
H783 H 0.18922 0.50998 0.49864 0.0
H784 H 0.20849 0.55379 0.57219 0.0
H785 H 0.27727 0.74611 0.52044 0.0
H786 H 0.29552 0.71302 0.5469 0.0
H787 H 0.20883 0.64079 0.53118 0.0
H788 H 0.19098 0.6734 0.50307 0.0
H789 H 0.24611 0.62828 0.46983 0.0
H790 H 0.23969 0.67338 0.68969 0.0
H791 H 0.25397 0.7147 0.7697 0.0
H792 H 0.3418 0.73321 0.76438 0.0
H793 H 0.32805 0.69217 0.6836 0.0
C794 C 0.23449 0.54021 0.72986 0.0
C795 C 0.24329 0.52301 0.69422 0.0
C796 C 0.24474 0.56868 0.70886 0.0
C797 C 0.26349 0.58011 0.65094 0.0
C798 C 0.27432 0.56366 0.6195 0.0
C799 C 0.26414 0.53518 0.64087 0.0
C800 C 0.26705 0.60662 0.61667 0.0
C801 C 0.27701 0.63186 0.65691 0.0
C802 C 0.25674 0.60582 0.54743 0.0
C803 C 0.24468 0.57954 0.50311 0.0
C804 C 0.25821 0.57977 0.43946 0.0
C805 C 0.24705 0.5549 0.39788 0.0
C806 C 0.22225 0.52974 0.41933 0.0
C807 C 0.20847 0.52945 0.48219 0.0
C808 C 0.2195 0.55428 0.52381 0.0
C809 C 0.26239 0.7231 0.52086 0.0
C810 C 0.23281 0.71221 0.50893 0.0
C811 C 0.27274 0.70427 0.53664 0.0
C812 C 0.25352 0.67439 0.54113 0.0
C813 C 0.22413 0.66368 0.5275 0.0
C814 C 0.2139 0.68235 0.51192 0.0
C815 C 0.26281 0.65378 0.5642 0.0
C816 C 0.25527 0.62956 0.5217 0.0
C817 C 0.27475 0.65534 0.63183 0.0
C818 C 0.28295 0.68005 0.67982 0.0
C819 C 0.26209 0.68645 0.70507 0.0
C820 C 0.27007 0.70977 0.75065 0.0
C821 C 0.2988 0.72665 0.77187 0.0
C822 C 0.31958 0.72019 0.7477 0.0
C823 C 0.31172 0.69692 0.702 0.0
H824 H 0.30493 0.74467 0.80723 0.0
H825 H 0.21368 0.51049 0.38716 0.0
H826 H 0.7172 0.24482 0.9136 0.0
H827 H 0.68274 0.26051 0.88255 0.0
H828 H 0.68751 0.24054 0.66416 0.0
H829 H 0.72293 0.22625 0.69499 0.0
H830 H 0.6805 0.28769 0.67654 0.0
H831 H 0.6362 0.19062 0.7708 0.0
H832 H 0.62925 0.15455 0.86112 0.0
H833 H 0.60579 0.19874 0.01305 0.0
H834 H 0.61298 0.23529 0.92378 0.0
H835 H 0.53505 0.2398 0.55749 0.0
H836 H 0.58523 0.25335 0.58403 0.0
H837 H 0.57206 0.26739 0.80177 0.0
H838 H 0.52207 0.25332 0.77552 0.0
H839 H 0.58602 0.22782 0.7934 0.0
H840 H 0.62418 0.32179 0.70076 0.0
H841 H 0.638 0.36345 0.62262 0.0
H842 H 0.67573 0.3306 0.47634 0.0
H843 H 0.6617 0.28841 0.55288 0.0
C844 C 0.71198 0.24521 0.85881 0.0
C845 C 0.72306 0.2348 0.80681 0.0
C846 C 0.69188 0.25364 0.84106 0.0
C847 C 0.68218 0.25127 0.77104 0.0
C848 C 0.69461 0.24255 0.71843 0.0
C849 C 0.71473 0.23425 0.73621 0.0
C850 C 0.65697 0.25468 0.75355 0.0
C851 C 0.65966 0.27445 0.70126 0.0
C852 C 0.63011 0.23799 0.78753 0.0
C853 C 0.62536 0.21579 0.84085 0.0
C854 C 0.6297 0.1927 0.82358 0.0
C855 C 0.62571 0.17218 0.87456 0.0
C856 C 0.61714 0.17439 0.94282 0.0
C857 C 0.61246 0.19708 0.96018 0.0
C858 C 0.61646 0.21769 0.90941 0.0
C859 C 0.54332 0.24683 0.61032 0.0
C860 C 0.52481 0.24548 0.66462 0.0
C861 C 0.572 0.25464 0.6255 0.0
C862 C 0.58244 0.26117 0.69517 0.0
C863 C 0.56453 0.26229 0.74777 0.0
C864 C 0.53597 0.25428 0.73278 0.0
C865 C 0.60927 0.26118 0.71616 0.0
C866 C 0.60677 0.24149 0.76861 0.0
C867 C 0.63629 0.27829 0.68274 0.0
C868 C 0.64163 0.30172 0.63249 0.0
C869 C 0.63485 0.32306 0.65124 0.0
C870 C 0.64294 0.34691 0.60748 0.0
C871 C 0.65789 0.34973 0.54488 0.0
C872 C 0.66428 0.32844 0.5251 0.0
C873 C 0.65619 0.30451 0.56857 0.0
H874 H 0.66468 0.36849 0.5119 0.0
H875 H 0.61408 0.15849 0.98223 0.0
H876 H 0.47272 0.74886 0.01374 0.0
H877 H 0.42131 0.71694 0.98441 0.0
H878 H 0.43227 0.64293 0.00651 0.0
H879 H 0.48289 0.67428 0.03649 0.0
H880 H 0.41162 0.66858 0.85737 0.0
H881 H 0.39855 0.63019 0.11005 0.0
H882 H 0.39588 0.63793 0.23746 0.0
H883 H 0.33486 0.66599 0.19775 0.0
H884 H 0.338 0.65944 0.0697 0.0
H885 H 0.33125 0.52214 0.82265 0.0
H886 H 0.36196 0.57323 0.84902 0.0
H887 H 0.28677 0.5801 0.89584 0.0
H888 H 0.25565 0.52841 0.86801 0.0
H889 H 0.32839 0.60118 0.00475 0.0
H890 H 0.32731 0.62334 0.76444 0.0
H891 H 0.3281 0.6194 0.63487 0.0
H892 H 0.41105 0.62561 0.6457 0.0
H893 H 0.41114 0.63021 0.77519 0.0
C894 C 0.46376 0.72572 0.01496 0.0
C895 C 0.48168 0.71397 0.02779 0.0
C896 C 0.43449 0.70756 0.99798 0.0
C897 C 0.42294 0.67756 0.99433 0.0
C898 C 0.44059 0.66594 0.01046 0.0
C899 C 0.46957 0.6839 0.0272 0.0
C900 C 0.39435 0.65816 0.96256 0.0
C901 C 0.39317 0.65411 0.88929 0.0
C902 C 0.36993 0.64004 0.00383 0.0
C903 C 0.36895 0.64486 0.08034 0.0
C904 C 0.38505 0.6386 0.12831 0.0
C905 C 0.38337 0.64268 0.20066 0.0
C906 C 0.36535 0.65263 0.22559 0.0
C907 C 0.34899 0.65854 0.17825 0.0
C908 C 0.3508 0.65476 0.10582 0.0
C909 C 0.32122 0.53469 0.83696 0.0
C910 C 0.29115 0.52146 0.84304 0.0
C911 C 0.33877 0.56393 0.85171 0.0
C912 C 0.32671 0.58063 0.87399 0.0
C913 C 0.29652 0.56769 0.87827 0.0
C914 C 0.2788 0.53829 0.86206 0.0
C915 C 0.34642 0.61041 0.89981 0.0
C916 C 0.34614 0.61634 0.97198 0.0
C917 C 0.36934 0.63061 0.85725 0.0
C918 C 0.36919 0.62705 0.77958 0.0
C919 C 0.34564 0.62368 0.73925 0.0
C920 C 0.34595 0.62139 0.66582 0.0
C921 C 0.36946 0.622 0.63217 0.0
C922 C 0.39284 0.62512 0.67184 0.0
C923 C 0.39282 0.62777 0.74522 0.0
H924 H 0.36961 0.62017 0.57532 0.0
H925 H 0.36393 0.65562 0.28157 0.0
H926 H 0.73138 0.47459 0.1218 0.0
H927 H 0.71261 0.42312 0.09714 0.0
H928 H 0.78851 0.42905 0.19305 0.0
H929 H 0.80673 0.47992 0.21845 0.0
H930 H 0.73671 0.40438 0.00969 0.0
H931 H 0.77821 0.36591 0.25092 0.0
H932 H 0.77879 0.36935 0.38054 0.0
H933 H 0.7087 0.38649 0.37403 0.0
H934 H 0.70703 0.3824 0.2442 0.0
H935 H 0.80334 0.32683 0.91765 0.0
H936 H 0.78488 0.35783 0.95761 0.0
H937 H 0.7198 0.28773 0.08107 0.0
H938 H 0.73901 0.25678 0.0419 0.0
H939 H 0.74496 0.33303 0.15968 0.0
H940 H 0.69973 0.31679 0.93932 0.0
H941 H 0.69284 0.31092 0.81095 0.0
H942 H 0.76051 0.39819 0.77918 0.0
H943 H 0.76783 0.40477 0.9078 0.0
C944 C 0.7433 0.46443 0.14017 0.0
C945 C 0.77019 0.48089 0.17301 0.0
C946 C 0.73275 0.43515 0.12557 0.0
C947 C 0.749 0.42202 0.14367 0.0
C948 C 0.77518 0.43832 0.17988 0.0
C949 C 0.78569 0.46746 0.19417 0.0
C950 C 0.74137 0.39303 0.11593 0.0
C951 C 0.73808 0.38858 0.04271 0.0
C952 C 0.74202 0.37177 0.15907 0.0
C953 C 0.74257 0.3739 0.23742 0.0
C954 C 0.76268 0.37012 0.27695 0.0
C955 C 0.7632 0.37221 0.35053 0.0
C956 C 0.74373 0.37809 0.38538 0.0
C957 C 0.72368 0.38187 0.34675 0.0
C958 C 0.72296 0.3797 0.27316 0.0
C959 C 0.78451 0.31781 0.95152 0.0
C960 C 0.77212 0.2893 0.97539 0.0
C961 C 0.77386 0.3355 0.97429 0.0
C962 C 0.75058 0.32511 0.02172 0.0
C963 C 0.73761 0.29623 0.04411 0.0
C964 C 0.74838 0.27849 0.02129 0.0
C965 C 0.7424 0.34558 0.05317 0.0
C966 C 0.74277 0.34842 0.12697 0.0
C967 C 0.73828 0.365 0.01086 0.0
C968 C 0.73437 0.36122 0.93331 0.0
C969 C 0.71328 0.3347 0.90501 0.0
C970 C 0.70927 0.33125 0.83211 0.0
C971 C 0.72627 0.35407 0.78674 0.0
C972 C 0.74732 0.38051 0.81433 0.0
C973 C 0.75133 0.38416 0.88731 0.0
H974 H 0.72307 0.35127 0.73027 0.0
H975 H 0.74419 0.37973 0.44233 0.0
H976 H 0.47648 0.80427 0.13928 0.0
H977 H 0.42593 0.78136 0.17324 0.0
H978 H 0.42718 0.70402 0.23042 0.0
H979 H 0.47832 0.72714 0.19501 0.0
H980 H 0.37507 0.73328 0.13984 0.0
H981 H 0.38509 0.68241 0.39302 0.0
H982 H 0.4221 0.68276 0.47129 0.0
H983 H 0.48092 0.77087 0.41545 0.0
H984 H 0.44414 0.77108 0.33753 0.0
H985 H 0.25624 0.72275 0.32906 0.0
H986 H 0.28536 0.70059 0.29638 0.0
H987 H 0.36058 0.7732 0.38697 0.0
H988 H 0.33182 0.79522 0.41837 0.0
H989 H 0.36314 0.72328 0.39964 0.0
H990 H 0.34023 0.77578 0.21872 0.0
H991 H 0.30594 0.78117 0.14221 0.0
H992 H 0.27673 0.69698 0.05509 0.0
H993 H 0.31061 0.69099 0.13192 0.0
C994 C 0.46578 0.78213 0.15747 0.0
C995 C 0.4812 0.76749 0.16501 0.0
C996 C 0.43683 0.76895 0.17647 0.0
C997 C 0.42273 0.741 0.20475 0.0
C998 C 0.43761 0.72559 0.20868 0.0
C999 C 0.46674 0.73876 0.18853 0.0
C1000 C 0.39397 0.73044 0.2376 0.0
C1001 C 0.37207 0.73021 0.19645 0.0
C1002 C 0.38987 0.72623 0.3114 0.0
C1003 C 0.41211 0.72651 0.35828 0.0
C1004 C 0.40598 0.70179 0.39723 0.0
C1005 C 0.42688 0.70192 0.44167 0.0
C1006 C 0.45392 0.72676 0.44795 0.0
C1007 C 0.46004 0.75158 0.41019 0.0
C1008 C 0.43918 0.75158 0.36584 0.0
C1009 C 0.27874 0.73326 0.34434 0.0
C1010 C 0.29197 0.7607 0.37574 0.0
C1011 C 0.29535 0.72067 0.32554 0.0
C1012 C 0.32525 0.73541 0.33845 0.0
C1013 C 0.3376 0.76136 0.37656 0.0
C1014 C 0.3212 0.77402 0.39432 0.0
C1015 C 0.34497 0.72754 0.30218 0.0
C1016 C 0.36524 0.72448 0.34263 0.0
C1017 C 0.34781 0.72912 0.22778 0.0
C1018 C 0.32756 0.73276 0.18171 0.0
C1019 C 0.32632 0.75835 0.1836 0.0
C1020 C 0.30699 0.76152 0.14018 0.0
C1021 C 0.28908 0.73938 0.09402 0.0
C1022 C 0.29053 0.71406 0.09107 0.0
C1023 C 0.30976 0.71075 0.1346 0.0
H1024 H 0.27414 0.74187 0.06038 0.0
H1025 H 0.47008 0.72681 0.48233 0.0
loop_
_geom_bond_atom_site_label_1
_geom_bond_atom_site_label_2
_geom_bond_distance
_geom_bond_site_symmetry_2
_ccdc_geom_bond_type
Zn0 O6 1.920 . S
Zn0 O12 1.898 . S
Zn0 O15 1.905 . S
Zn1 O9 1.905 . S
Zn1 O10 1.898 . S
Zn1 O18 1.920 . S
Zn2 O5 2.080 . S
Zn2 O8 2.114 . S
Zn2 O11 2.120 . S
Zn2 O13 2.120 . S
Zn2 O14 2.114 . S
Zn2 O17 2.080 . S
C3 O8 1.166 . S
C3 O9 1.182 . S
C4 O10 1.167 . S
C4 O11 1.299 . S
O5 Zn2 2.080 . S
O5 C19 1.305 . S
O6 Zn0 1.920 . S
O6 C19 1.234 . S
C7 O12 1.167 . S
C7 O13 1.299 . S
O8 Zn2 2.114 . S
O8 C3 1.166 . S
O9 Zn1 1.905 . S
O9 C3 1.182 . S
O10 Zn1 1.898 . S
O10 C4 1.167 . S
O11 Zn2 2.120 . S
O11 C4 1.299 . S
O12 Zn0 1.898 . S
O12 C7 1.167 . S
O13 Zn2 2.120 . S
O13 C7 1.299 . S
O14 Zn2 2.114 . S
O14 C16 1.166 . S
O15 Zn0 1.905 . S
O15 C16 1.182 . S
C16 O14 1.166 . S
C16 O15 1.182 . S
O17 Zn2 2.080 . S
O17 C20 1.305 . S
O18 Zn1 1.920 . S
O18 C20 1.234 . S
C19 O5 1.305 . S
C19 O6 1.234 . S
C20 O17 1.305 . S
C20 O18 1.234 . S
Zn21 O27 1.920 . S
Zn21 O33 1.898 . S
Zn21 O36 1.905 . S
Zn22 O30 1.905 . S
Zn22 O31 1.898 . S
Zn22 O39 1.920 . S
Zn23 O26 2.080 . S
Zn23 O29 2.114 . S
Zn23 O32 2.120 . S
Zn23 O34 2.120 . S
Zn23 O35 2.114 . S
Zn23 O38 2.080 . S
C24 O29 1.166 . S
C24 O30 1.182 . S
C25 O31 1.167 . S
C25 O32 1.299 . S
O26 Zn23 2.080 . S
O26 C40 1.305 . S
O27 Zn21 1.920 . S
O27 C40 1.234 . S
C28 O33 1.167 . S
C28 O34 1.299 . S
O29 Zn23 2.114 . S
O29 C24 1.166 . S
O30 Zn22 1.905 . S
O30 C24 1.182 . S
O31 Zn22 1.898 . S
O31 C25 1.167 . S
O32 Zn23 2.120 . S
O32 C25 1.299 . S
O33 Zn21 1.898 . S
O33 C28 1.167 . S
O34 Zn23 2.120 . S
O34 C28 1.299 . S
O35 Zn23 2.114 . S
O35 C37 1.166 . S
O36 Zn21 1.905 . S
O36 C37 1.182 . S
C37 O35 1.166 . S
C37 O36 1.182 . S
O38 Zn23 2.080 . S
O38 C41 1.305 . S
O39 Zn22 1.920 . S
O39 C41 1.234 . S
C40 O26 1.305 . S
C40 O27 1.234 . S
C41 O38 1.305 . S
C41 O39 1.234 . S
Zn42 O48 1.920 . S
Zn42 O54 1.898 . S
Zn42 O57 1.905 . S
Zn43 O51 1.905 . S
Zn43 O52 1.898 . S
Zn43 O60 1.920 1_554 S
Zn44 O47 2.080 . S
Zn44 O50 2.114 1_556 S
Zn44 O53 2.120 . S
Zn44 O55 2.120 . S
Zn44 O56 2.114 . S
Zn44 O59 2.080 . S
C45 O50 1.166 . S
C45 O51 1.182 . S
C46 O52 1.167 1_556 S
C46 O53 1.299 . S
O47 Zn44 2.080 . S
O47 C61 1.305 . S
O48 Zn42 1.920 . S
O48 C61 1.234 . S
C49 O54 1.167 . S
C49 O55 1.299 . S
O50 Zn44 2.114 1_554 S
O50 C45 1.166 . S
O51 Zn43 1.905 . S
O51 C45 1.182 . S
O52 Zn43 1.898 . S
O52 C46 1.167 1_554 S
O53 Zn44 2.120 . S
O53 C46 1.299 . S
O54 Zn42 1.898 . S
O54 C49 1.167 . S
O55 Zn44 2.120 . S
O55 C49 1.299 . S
O56 Zn44 2.114 . S
O56 C58 1.166 . S
O57 Zn42 1.905 . S
O57 C58 1.182 . S
C58 O56 1.166 . S
C58 O57 1.182 . S
O59 Zn44 2.080 . S
O59 C62 1.305 . S
O60 Zn43 1.920 1_556 S
O60 C62 1.234 . S
C61 O47 1.305 . S
C61 O48 1.234 . S
C62 O59 1.305 . S
C62 O60 1.234 . S
Zn63 O69 1.920 . S
Zn63 O75 1.898 1_556 S
Zn63 O78 1.905 . S
Zn64 O72 1.905 . S
Zn64 O73 1.898 . S
Zn64 O81 1.920 . S
Zn65 O68 2.080 1_554 S
Zn65 O71 2.114 . S
Zn65 O74 2.120 . S
Zn65 O76 2.120 . S
Zn65 O77 2.114 . S
Zn65 O80 2.080 . S
C66 O71 1.166 . S
C66 O72 1.182 . S
C67 O73 1.167 . S
C67 O74 1.299 . S
O68 Zn65 2.080 1_556 S
O68 C82 1.305 . S
O69 Zn63 1.920 . S
O69 C82 1.234 . S
C70 O75 1.167 . S
C70 O76 1.299 . S
O71 Zn65 2.114 . S
O71 C66 1.166 . S
O72 Zn64 1.905 . S
O72 C66 1.182 . S
O73 Zn64 1.898 . S
O73 C67 1.167 . S
O74 Zn65 2.120 . S
O74 C67 1.299 . S
O75 Zn63 1.898 1_554 S
O75 C70 1.167 . S
O76 Zn65 2.120 . S
O76 C70 1.299 . S
O77 Zn65 2.114 . S
O77 C79 1.166 . S
O78 Zn63 1.905 . S
O78 C79 1.182 1_556 S
C79 O77 1.166 . S
C79 O78 1.182 1_554 S
O80 Zn65 2.080 . S
O80 C83 1.305 . S
O81 Zn64 1.920 . S
O81 C83 1.234 . S
C82 O68 1.305 . S
C82 O69 1.234 . S
C83 O80 1.305 . S
C83 O81 1.234 . S
Zn84 O90 1.920 . S
Zn84 O96 1.898 . S
Zn84 O99 1.905 . S
Zn85 O93 1.905 . S
Zn85 O94 1.898 . S
Zn85 O102 1.920 . S
Zn86 O89 2.080 . S
Zn86 O92 2.114 . S
Zn86 O95 2.120 . S
Zn86 O97 2.120 . S
Zn86 O98 2.114 . S
Zn86 O101 2.080 . S
C87 O92 1.166 . S
C87 O93 1.182 . S
C88 O94 1.167 . S
C88 O95 1.299 . S
O89 Zn86 2.080 . S
O89 C103 1.305 . S
O90 Zn84 1.920 . S
O90 C103 1.234 . S
C91 O96 1.167 . S
C91 O97 1.299 . S
O92 Zn86 2.114 . S
O92 C87 1.166 . S
O93 Zn85 1.905 . S
O93 C87 1.182 . S
O94 Zn85 1.898 . S
O94 C88 1.167 . S
O95 Zn86 2.120 . S
O95 C88 1.299 . S
O96 Zn84 1.898 . S
O96 C91 1.167 . S
O97 Zn86 2.120 . S
O97 C91 1.299 . S
O98 Zn86 2.114 . S
O98 C100 1.166 . S
O99 Zn84 1.905 . S
O99 C100 1.182 . S
C100 O98 1.166 . S
C100 O99 1.182 . S
O101 Zn86 2.080 . S
O101 C104 1.305 . S
O102 Zn85 1.920 . S
O102 C104 1.234 . S
C103 O89 1.305 . S
C103 O90 1.234 . S
C104 O101 1.305 . S
C104 O102 1.234 . S
Zn105 O111 1.920 . S
Zn105 O117 1.898 . S
Zn105 O120 1.905 . S
Zn106 O114 1.905 . S
Zn106 O115 1.898 . S
Zn106 O123 1.920 . S
Zn107 O110 2.080 . S
Zn107 O113 2.114 . S
Zn107 O116 2.120 . S
Zn107 O118 2.120 . S
Zn107 O119 2.114 . S
Zn107 O122 2.080 . S
C108 O113 1.166 . S
C108 O114 1.182 . S
C109 O115 1.167 . S
C109 O116 1.299 . S
O110 Zn107 2.080 . S
O110 C124 1.305 . S
O111 Zn105 1.920 . S
O111 C124 1.234 . S
C112 O117 1.167 . S
C112 O118 1.299 . S
O113 Zn107 2.114 . S
O113 C108 1.166 . S
O114 Zn106 1.905 . S
O114 C108 1.182 . S
O115 Zn106 1.898 . S
O115 C109 1.167 . S
O116 Zn107 2.120 . S
O116 C109 1.299 . S
O117 Zn105 1.898 . S
O117 C112 1.167 . S
O118 Zn107 2.120 . S
O118 C112 1.299 . S
O119 Zn107 2.114 . S
O119 C121 1.166 . S
O120 Zn105 1.905 . S
O120 C121 1.182 . S
C121 O119 1.166 . S
C121 O120 1.182 . S
O122 Zn107 2.080 . S
O122 C125 1.305 . S
O123 Zn106 1.920 . S
O123 C125 1.234 . S
C124 O110 1.305 . S
C124 O111 1.234 . S
C125 O122 1.305 . S
C125 O123 1.234 . S
H126 C144 0.951 . S
H127 C146 0.951 . S
H128 C148 0.950 . S
H129 C149 0.950 . S
H130 C151 0.950 . S
H131 C154 0.950 . S
H132 C155 0.950 . S
H133 C157 0.950 . S
H134 C158 0.950 . S
H135 C159 0.951 . S
H136 C161 0.951 . S
H137 C163 0.950 . S
H138 C164 0.950 . S
H139 C166 0.950 . S
H140 C169 0.950 . S
H141 C170 0.950 . S
H142 C172 0.950 . S
H143 C173 0.950 . S
C144 H126 0.951 . S
C144 C145 1.366 . S
C144 C146 1.388 . S
C145 C144 1.366 . S
C145 C149 1.385 . S
C146 H127 0.951 . S
C146 C144 1.388 . S
C146 C147 1.366 . S
C147 C146 1.366 . S
C147 C148 1.414 . S
C147 C150 1.499 . S
C148 H128 0.950 . S
C148 C147 1.414 . S
C148 C149 1.374 . S
C149 H129 0.950 . S
C149 C145 1.385 . S
C149 C148 1.374 . S
C150 C147 1.499 . S
C150 C151 1.373 . S
C150 C152 1.389 . S
C151 H130 0.950 . S
C151 C150 1.373 . S
C151 C167 1.377 . S
C152 C150 1.389 . S
C152 C153 1.524 . S
C152 C166 1.377 . S
C153 C152 1.524 . S
C153 C154 1.397 . S
C153 C158 1.363 . S
C154 H131 0.950 . S
C154 C153 1.397 . S
C154 C155 1.334 . S
C155 H132 0.950 . S
C155 C154 1.334 . S
C155 C156 1.287 . S
C156 C155 1.287 . S
C156 C157 1.524 . S
C156 H175 0.913 . S
C157 H133 0.950 . S
C157 C156 1.524 . S
C157 C158 1.415 . S
C158 H134 0.950 . S
C158 C153 1.363 . S
C158 C157 1.415 . S
C159 H135 0.951 . S
C159 C160 1.366 . S
C159 C161 1.388 . S
C160 C159 1.366 . S
C160 C164 1.385 . S
C161 H136 0.951 . S
C161 C159 1.388 . S
C161 C162 1.366 . S
C162 C161 1.366 . S
C162 C163 1.414 . S
C162 C165 1.499 1_556 S
C163 H137 0.950 . S
C163 C162 1.414 . S
C163 C164 1.374 . S
C164 H138 0.950 . S
C164 C160 1.385 . S
C164 C163 1.374 . S
C165 C162 1.499 1_554 S
C165 C166 1.373 . S
C165 C167 1.389 . S
C166 H139 0.950 . S
C166 C152 1.377 . S
C166 C165 1.373 . S
C167 C151 1.377 . S
C167 C165 1.389 . S
C167 C168 1.524 . S
C168 C167 1.524 . S
C168 C169 1.397 1_554 S
C168 C173 1.363 . S
C169 H140 0.950 . S
C169 C168 1.397 1_556 S
C169 C170 1.334 . S
C170 H141 0.950 . S
C170 C169 1.334 . S
C170 C171 1.287 . S
C171 C170 1.287 . S
C171 C172 1.524 1_556 S
C171 H174 0.999 . S
C172 H142 0.950 . S
C172 C171 1.524 1_554 S
C172 C173 1.415 . S
C173 H143 0.950 . S
C173 C168 1.363 . S
C173 C172 1.415 . S
H174 C171 0.999 . S
H175 C156 0.913 . S
H176 C194 0.951 . S
H177 C196 0.951 . S
H178 C198 0.950 . S
H179 C199 0.950 . S
H180 C201 0.950 . S
H181 C204 0.950 . S
H182 C205 0.950 . S
H183 C207 0.950 . S
H184 C208 0.950 . S
H185 C209 0.951 . S
H186 C211 0.951 . S
H187 C213 0.950 . S
H188 C214 0.950 . S
H189 C216 0.950 . S
H190 C219 0.950 . S
H191 C220 0.950 . S
H192 C222 0.950 . S
H193 C223 0.950 . S
C194 H176 0.951 . S
C194 C195 1.366 . S
C194 C196 1.388 . S
C195 C194 1.366 . S
C195 C199 1.385 . S
C196 H177 0.951 . S
C196 C194 1.388 . S
C196 C197 1.366 . S
C197 C196 1.366 . S
C197 C198 1.414 . S
C197 C200 1.499 . S
C198 H178 0.950 . S
C198 C197 1.414 . S
C198 C199 1.374 . S
C199 H179 0.950 . S
C199 C195 1.385 . S
C199 C198 1.374 . S
C200 C197 1.499 . S
C200 C201 1.373 . S
C200 C202 1.389 . S
C201 H180 0.950 . S
C201 C200 1.373 . S
C201 C217 1.377 . S
C202 C200 1.389 . S
C202 C203 1.524 . S
C202 C216 1.377 . S
C203 C202 1.524 . S
C203 C204 1.397 . S
C203 C208 1.363 . S
C204 H181 0.950 . S
C204 C203 1.397 . S
C204 C205 1.334 . S
C205 H182 0.950 . S
C205 C204 1.334 . S
C205 C206 1.287 . S
C206 C205 1.287 . S
C206 C207 1.524 . S
C206 H225 0.913 . S
C207 H183 0.950 . S
C207 C206 1.524 . S
C207 C208 1.415 . S
C208 H184 0.950 . S
C208 C203 1.363 . S
C208 C207 1.415 . S
C209 H185 0.951 . S
C209 C210 1.366 . S
C209 C211 1.388 1_556 S
C210 C209 1.366 . S
C210 C214 1.385 . S
C211 H186 0.951 . S
C211 C209 1.388 1_554 S
C211 C212 1.366 . S
C212 C211 1.366 . S
C212 C213 1.414 . S
C212 C215 1.499 . S
C213 H187 0.950 . S
C213 C212 1.414 . S
C213 C214 1.374 1_554 S
C214 H188 0.950 . S
C214 C210 1.385 . S
C214 C213 1.374 1_556 S
C215 C212 1.499 . S
C215 C216 1.373 . S
C215 C217 1.389 . S
C216 H189 0.950 . S
C216 C202 1.377 . S
C216 C215 1.373 . S
C217 C201 1.377 . S
C217 C215 1.389 . S
C217 C218 1.524 . S
C218 C217 1.524 . S
C218 C219 1.397 . S
C218 C223 1.363 . S
C219 H190 0.950 . S
C219 C218 1.397 . S
C219 C220 1.334 . S
C220 H191 0.950 . S
C220 C219 1.334 . S
C220 C221 1.287 . S
C221 C220 1.287 . S
C221 C222 1.524 . S
C221 H224 0.999 . S
C222 H192 0.950 . S
C222 C221 1.524 . S
C222 C223 1.415 . S
C223 H193 0.950 . S
C223 C218 1.363 . S
C223 C222 1.415 . S
H224 C221 0.999 . S
H225 C206 0.913 . S
H226 C244 0.951 . S
H227 C246 0.951 . S
H228 C248 0.950 . S
H229 C249 0.950 . S
H230 C251 0.950 . S
H231 C254 0.950 . S
H232 C255 0.950 . S
H233 C257 0.950 . S
H234 C258 0.950 . S
H235 C259 0.951 . S
H236 C261 0.951 . S
H237 C263 0.950 . S
H238 C264 0.950 . S
H239 C266 0.950 . S
H240 C269 0.950 . S
H241 C270 0.950 . S
H242 C272 0.950 . S
H243 C273 0.950 . S
C244 H226 0.951 . S
C244 C245 1.366 . S
C244 C246 1.388 . S
C245 C244 1.366 . S
C245 C249 1.385 . S
C246 H227 0.951 . S
C246 C244 1.388 . S
C246 C247 1.366 . S
C247 C246 1.366 . S
C247 C248 1.414 . S
C247 C250 1.499 . S
C248 H228 0.950 . S
C248 C247 1.414 . S
C248 C249 1.374 . S
C249 H229 0.950 . S
C249 C245 1.385 . S
C249 C248 1.374 . S
C250 C247 1.499 . S
C250 C251 1.373 . S
C250 C252 1.389 . S
C251 H230 0.950 . S
C251 C250 1.373 . S
C251 C267 1.377 . S
C252 C250 1.389 . S
C252 C253 1.524 . S
C252 C266 1.377 . S
C253 C252 1.524 . S
C253 C254 1.397 . S
C253 C258 1.363 . S
C254 H231 0.950 . S
C254 C253 1.397 . S
C254 C255 1.334 . S
C255 H232 0.950 . S
C255 C254 1.334 . S
C255 C256 1.287 . S
C256 C255 1.287 . S
C256 C257 1.524 . S
C256 H275 0.913 . S
C257 H233 0.950 . S
C257 C256 1.524 . S
C257 C258 1.415 . S
C258 H234 0.950 . S
C258 C253 1.363 . S
C258 C257 1.415 . S
C259 H235 0.951 . S
C259 C260 1.366 . S
C259 C261 1.388 . S
C260 C259 1.366 . S
C260 C264 1.385 . S
C261 H236 0.951 . S
C261 C259 1.388 . S
C261 C262 1.366 . S
C262 C261 1.366 . S
C262 C263 1.414 . S
C262 C265 1.499 . S
C263 H237 0.950 . S
C263 C262 1.414 . S
C263 C264 1.374 . S
C264 H238 0.950 . S
C264 C260 1.385 . S
C264 C263 1.374 . S
C265 C262 1.499 . S
C265 C266 1.373 . S
C265 C267 1.389 . S
C266 H239 0.950 . S
C266 C252 1.377 . S
C266 C265 1.373 . S
C267 C251 1.377 . S
C267 C265 1.389 . S
C267 C268 1.524 . S
C268 C267 1.524 . S
C268 C269 1.397 . S
C268 C273 1.363 . S
C269 H240 0.950 . S
C269 C268 1.397 . S
C269 C270 1.334 . S
C270 H241 0.950 . S
C270 C269 1.334 . S
C270 C271 1.287 . S
C271 C270 1.287 . S
C271 C272 1.524 . S
C271 H274 0.999 . S
C272 H242 0.950 . S
C272 C271 1.524 . S
C272 C273 1.415 . S
C273 H243 0.950 . S
C273 C268 1.363 . S
C273 C272 1.415 . S
H274 C271 0.999 . S
H275 C256 0.913 . S
H276 C294 0.951 . S
H277 C296 0.951 . S
H278 C298 0.950 . S
H279 C299 0.950 . S
H280 C301 0.950 . S
H281 C304 0.950 . S
H282 C305 0.950 . S
H283 C307 0.950 . S
H284 C308 0.950 . S
H285 C309 0.951 . S
H286 C311 0.951 . S
H287 C313 0.950 . S
H288 C314 0.950 . S
H289 C316 0.950 . S
H290 C319 0.950 . S
H291 C320 0.950 . S
H292 C322 0.950 . S
H293 C323 0.950 . S
C294 H276 0.951 . S
C294 C295 1.366 . S
C294 C296 1.388 . S
C295 C294 1.366 . S
C295 C299 1.385 . S
C296 H277 0.951 . S
C296 C294 1.388 . S
C296 C297 1.366 . S
C297 C296 1.366 . S
C297 C298 1.414 . S
C297 C300 1.499 . S
C298 H278 0.950 . S
C298 C297 1.414 . S
C298 C299 1.374 . S
C299 H279 0.950 . S
C299 C295 1.385 . S
C299 C298 1.374 . S
C300 C297 1.499 . S
C300 C301 1.373 . S
C300 C302 1.389 . S
C301 H280 0.950 . S
C301 C300 1.373 . S
C301 C317 1.377 . S
C302 C300 1.389 . S
C302 C303 1.524 . S
C302 C316 1.377 . S
C303 C302 1.524 . S
C303 C304 1.397 . S
C303 C308 1.363 . S
C304 H281 0.950 . S
C304 C303 1.397 . S
C304 C305 1.334 . S
C305 H282 0.950 . S
C305 C304 1.334 . S
C305 C306 1.287 . S
C306 C305 1.287 . S
C306 C307 1.524 . S
C306 H325 0.913 . S
C307 H283 0.950 . S
C307 C306 1.524 . S
C307 C308 1.415 . S
C308 H284 0.950 . S
C308 C303 1.363 . S
C308 C307 1.415 . S
C309 H285 0.951 . S
C309 C310 1.366 . S
C309 C311 1.388 . S
C310 C309 1.366 . S
C310 C314 1.385 . S
C311 H286 0.951 . S
C311 C309 1.388 . S
C311 C312 1.366 . S
C312 C311 1.366 . S
C312 C313 1.414 . S
C312 C315 1.499 . S
C313 H287 0.950 . S
C313 C312 1.414 . S
C313 C314 1.374 . S
C314 H288 0.950 . S
C314 C310 1.385 . S
C314 C313 1.374 . S
C315 C312 1.499 . S
C315 C316 1.373 . S
C315 C317 1.389 . S
C316 H289 0.950 . S
C316 C302 1.377 . S
C316 C315 1.373 . S
C317 C301 1.377 . S
C317 C315 1.389 . S
C317 C318 1.524 . S
C318 C317 1.524 . S
C318 C319 1.397 . S
C318 C323 1.363 . S
C319 H290 0.950 . S
C319 C318 1.397 . S
C319 C320 1.334 . S
C320 H291 0.950 . S
C320 C319 1.334 . S
C320 C321 1.287 . S
C321 C320 1.287 . S
C321 C322 1.524 . S
C321 H324 0.999 . S
C322 H292 0.950 . S
C322 C321 1.524 . S
C322 C323 1.415 . S
C323 H293 0.950 . S
C323 C318 1.363 . S
C323 C322 1.415 . S
H324 C321 0.999 . S
H325 C306 0.913 . S
H326 C344 0.951 . S
H327 C346 0.951 . S
H328 C348 0.950 . S
H329 C349 0.950 . S
H330 C351 0.950 . S
H331 C354 0.950 . S
H332 C355 0.950 . S
H333 C357 0.950 . S
H334 C358 0.950 . S
H335 C359 0.951 . S
H336 C361 0.951 . S
H337 C363 0.950 . S
H338 C364 0.950 . S
H339 C366 0.950 . S
H340 C369 0.950 . S
H341 C370 0.950 . S
H342 C372 0.950 . S
H343 C373 0.950 . S
C344 H326 0.951 . S
C344 C345 1.366 . S
C344 C346 1.388 . S
C345 C344 1.366 . S
C345 C349 1.385 . S
C346 H327 0.951 . S
C346 C344 1.388 . S
C346 C347 1.366 . S
C347 C346 1.366 . S
C347 C348 1.414 . S
C347 C350 1.499 . S
C348 H328 0.950 . S
C348 C347 1.414 . S
C348 C349 1.374 . S
C349 H329 0.950 . S
C349 C345 1.385 . S
C349 C348 1.374 . S
C350 C347 1.499 . S
C350 C351 1.373 . S
C350 C352 1.389 . S
C351 H330 0.950 . S
C351 C350 1.373 . S
C351 C367 1.377 . S
C352 C350 1.389 . S
C352 C353 1.524 . S
C352 C366 1.377 . S
C353 C352 1.524 . S
C353 C354 1.397 . S
C353 C358 1.363 . S
C354 H331 0.950 . S
C354 C353 1.397 . S
C354 C355 1.334 . S
C355 H332 0.950 . S
C355 C354 1.334 . S
C355 C356 1.287 . S
C356 C355 1.287 . S
C356 C357 1.524 . S
C356 H375 0.913 . S
C357 H333 0.950 . S
C357 C356 1.524 . S
C357 C358 1.415 . S
C358 H334 0.950 . S
C358 C353 1.363 . S
C358 C357 1.415 . S
C359 H335 0.951 . S
C359 C360 1.366 . S
C359 C361 1.388 1_554 S
C360 C359 1.366 . S
C360 C364 1.385 . S
C361 H336 0.951 . S
C361 C359 1.388 1_556 S
C361 C362 1.366 . S
C362 C361 1.366 . S
C362 C363 1.414 . S
C362 C365 1.499 . S
C363 H337 0.950 . S
C363 C362 1.414 . S
C363 C364 1.374 1_556 S
C364 H338 0.950 . S
C364 C360 1.385 . S
C364 C363 1.374 1_554 S
C365 C362 1.499 . S
C365 C366 1.373 . S
C365 C367 1.389 . S
C366 H339 0.950 . S
C366 C352 1.377 . S
C366 C365 1.373 . S
C367 C351 1.377 . S
C367 C365 1.389 . S
C367 C368 1.524 . S
C368 C367 1.524 . S
C368 C369 1.397 . S
C368 C373 1.363 . S
C369 H340 0.950 . S
C369 C368 1.397 . S
C369 C370 1.334 . S
C370 H341 0.950 . S
C370 C369 1.334 . S
C370 C371 1.287 . S
C371 C370 1.287 . S
C371 C372 1.524 . S
C371 H374 0.999 . S
C372 H342 0.950 . S
C372 C371 1.524 . S
C372 C373 1.415 . S
C373 H343 0.950 . S
C373 C368 1.363 . S
C373 C372 1.415 . S
H374 C371 0.999 . S
H375 C356 0.913 . S
H376 C394 0.951 . S
H377 C396 0.951 . S
H378 C398 0.950 . S
H379 C399 0.950 . S
H380 C401 0.950 . S
H381 C404 0.950 . S
H382 C405 0.950 . S
H383 C407 0.950 . S
H384 C408 0.950 . S
H385 C409 0.951 . S
H386 C411 0.951 . S
H387 C413 0.950 . S
H388 C414 0.950 . S
H389 C416 0.950 . S
H390 C419 0.950 . S
H391 C420 0.950 . S
H392 C422 0.950 . S
H393 C423 0.950 . S
C394 H376 0.951 . S
C394 C395 1.366 . S
C394 C396 1.388 . S
C395 C394 1.366 . S
C395 C399 1.385 . S
C396 H377 0.951 . S
C396 C394 1.388 . S
C396 C397 1.366 . S
C397 C396 1.366 . S
C397 C398 1.414 . S
C397 C400 1.499 1_554 S
C398 H378 0.950 . S
C398 C397 1.414 . S
C398 C399 1.374 . S
C399 H379 0.950 . S
C399 C395 1.385 . S
C399 C398 1.374 . S
C400 C397 1.499 1_556 S
C400 C401 1.373 . S
C400 C402 1.389 . S
C401 H380 0.950 . S
C401 C400 1.373 . S
C401 C417 1.377 . S
C402 C400 1.389 . S
C402 C403 1.524 . S
C402 C416 1.377 . S
C403 C402 1.524 . S
C403 C404 1.397 1_556 S
C403 C408 1.363 . S
C404 H381 0.950 . S
C404 C403 1.397 1_554 S
C404 C405 1.334 . S
C405 H382 0.950 . S
C405 C404 1.334 . S
C405 C406 1.287 . S
C406 C405 1.287 . S
C406 C407 1.524 1_554 S
C406 H425 0.913 . S
C407 H383 0.950 . S
C407 C406 1.524 1_556 S
C407 C408 1.415 . S
C408 H384 0.950 . S
C408 C403 1.363 . S
C408 C407 1.415 . S
C409 H385 0.951 . S
C409 C410 1.366 . S
C409 C411 1.388 . S
C410 C409 1.366 . S
C410 C414 1.385 . S
C411 H386 0.951 . S
C411 C409 1.388 . S
C411 C412 1.366 . S
C412 C411 1.366 . S
C412 C413 1.414 . S
C412 C415 1.499 . S
C413 H387 0.950 . S
C413 C412 1.414 . S
C413 C414 1.374 . S
C414 H388 0.950 . S
C414 C410 1.385 . S
C414 C413 1.374 . S
C415 C412 1.499 . S
C415 C416 1.373 . S
C415 C417 1.389 . S
C416 H389 0.950 . S
C416 C402 1.377 . S
C416 C415 1.373 . S
C417 C401 1.377 . S
C417 C415 1.389 . S
C417 C418 1.524 . S
C418 C417 1.524 . S
C418 C419 1.397 . S
C418 C423 1.363 . S
C419 H390 0.950 . S
C419 C418 1.397 . S
C419 C420 1.334 . S
C420 H391 0.950 . S
C420 C419 1.334 . S
C420 C421 1.287 . S
C421 C420 1.287 . S
C421 C422 1.524 . S
C421 H424 0.999 . S
C422 H392 0.950 . S
C422 C421 1.524 . S
C422 C423 1.415 . S
C423 H393 0.950 . S
C423 C418 1.363 . S
C423 C422 1.415 . S
H424 C421 0.999 . S
H425 C406 0.913 . S
H426 C444 0.951 . S
H427 C446 0.951 . S
H428 C448 0.950 . S
H429 C449 0.950 . S
H430 C451 0.950 . S
H431 C454 0.950 . S
H432 C455 0.950 . S
H433 C457 0.950 . S
H434 C458 0.950 . S
H435 C459 0.951 . S
H436 C461 0.951 . S
H437 C463 0.950 . S
H438 C464 0.950 . S
H439 C466 0.950 . S
H440 C469 0.950 . S
H441 C470 0.950 . S
H442 C472 0.950 . S
H443 C473 0.950 . S
C444 H426 0.951 . S
C444 C445 1.366 . S
C444 C446 1.388 . S
C445 C444 1.366 . S
C445 C449 1.385 . S
C446 H427 0.951 . S
C446 C444 1.388 . S
C446 C447 1.366 . S
C447 C446 1.366 . S
C447 C448 1.414 . S
C447 C450 1.499 . S
C448 H428 0.950 . S
C448 C447 1.414 . S
C448 C449 1.374 . S
C449 H429 0.950 . S
C449 C445 1.385 . S
C449 C448 1.374 . S
C450 C447 1.499 . S
C450 C451 1.373 . S
C450 C452 1.389 . S
C451 H430 0.950 . S
C451 C450 1.373 . S
C451 C467 1.377 1_545 S
C452 C450 1.389 . S
C452 C453 1.524 . S
C452 C466 1.377 1_545 S
C453 C452 1.524 . S
C453 C454 1.397 . S
C453 C458 1.363 . S
C454 H431 0.950 . S
C454 C453 1.397 . S
C454 C455 1.334 . S
C455 H432 0.950 . S
C455 C454 1.334 . S
C455 C456 1.287 . S
C456 C455 1.287 . S
C456 C457 1.524 . S
C456 H475 0.913 . S
C457 H433 0.950 . S
C457 C456 1.524 . S
C457 C458 1.415 . S
C458 H434 0.950 . S
C458 C453 1.363 . S
C458 C457 1.415 . S
C459 H435 0.951 . S
C459 C460 1.366 . S
C459 C461 1.388 . S
C460 C459 1.366 . S
C460 C464 1.385 . S
C461 H436 0.951 . S
C461 C459 1.388 . S
C461 C462 1.366 . S
C462 C461 1.366 . S
C462 C463 1.414 . S
C462 C465 1.499 . S
C463 H437 0.950 . S
C463 C462 1.414 . S
C463 C464 1.374 . S
C464 H438 0.950 . S
C464 C460 1.385 . S
C464 C463 1.374 . S
C465 C462 1.499 . S
C465 C466 1.373 . S
C465 C467 1.389 . S
C466 H439 0.950 . S
C466 C452 1.377 1_565 S
C466 C465 1.373 . S
C467 C451 1.377 1_565 S
C467 C465 1.389 . S
C467 C468 1.524 . S
C468 C467 1.524 . S
C468 C469 1.397 . S
C468 C473 1.363 . S
C469 H440 0.950 . S
C469 C468 1.397 . S
C469 C470 1.334 . S
C470 H441 0.950 . S
C470 C469 1.334 . S
C470 C471 1.287 . S
C471 C470 1.287 . S
C471 C472 1.524 . S
C471 H474 0.999 . S
C472 H442 0.950 . S
C472 C471 1.524 . S
C472 C473 1.415 . S
C473 H443 0.950 . S
C473 C468 1.363 . S
C473 C472 1.415 . S
H474 C471 0.999 . S
H475 C456 0.913 . S
H476 C494 0.951 . S
H477 C496 0.951 . S
H478 C498 0.950 . S
H479 C499 0.950 . S
H480 C501 0.950 . S
H481 C504 0.950 . S
H482 C505 0.950 . S
H483 C507 0.950 . S
H484 C508 0.950 . S
H485 C509 0.951 . S
H486 C511 0.951 . S
H487 C513 0.950 . S
H488 C514 0.950 . S
H489 C516 0.950 . S
H490 C519 0.950 . S
H491 C520 0.950 . S
H492 C522 0.950 . S
H493 C523 0.950 . S
C494 H476 0.951 . S
C494 C495 1.366 . S
C494 C496 1.388 . S
C495 C494 1.366 . S
C495 C499 1.385 . S
C496 H477 0.951 . S
C496 C494 1.388 . S
C496 C497 1.366 . S
C497 C496 1.366 . S
C497 C498 1.414 . S
C497 C500 1.499 . S
C498 H478 0.950 . S
C498 C497 1.414 . S
C498 C499 1.374 . S
C499 H479 0.950 . S
C499 C495 1.385 . S
C499 C498 1.374 . S
C500 C497 1.499 . S
C500 C501 1.373 . S
C500 C502 1.389 . S
C501 H480 0.950 . S
C501 C500 1.373 . S
C501 C517 1.377 . S
C502 C500 1.389 . S
C502 C503 1.524 . S
C502 C516 1.377 . S
C503 C502 1.524 . S
C503 C504 1.397 . S
C503 C508 1.363 . S
C504 H481 0.950 . S
C504 C503 1.397 . S
C504 C505 1.334 . S
C505 H482 0.950 . S
C505 C504 1.334 . S
C505 C506 1.287 . S
C506 C505 1.287 . S
C506 C507 1.524 . S
C506 H525 0.913 . S
C507 H483 0.950 . S
C507 C506 1.524 . S
C507 C508 1.415 . S
C508 H484 0.950 . S
C508 C503 1.363 . S
C508 C507 1.415 . S
C509 H485 0.951 . S
C509 C510 1.366 . S
C509 C511 1.388 . S
C510 C509 1.366 . S
C510 C514 1.385 . S
C511 H486 0.951 . S
C511 C509 1.388 . S
C511 C512 1.366 . S
C512 C511 1.366 . S
C512 C513 1.414 . S
C512 C515 1.499 . S
C513 H487 0.950 . S
C513 C512 1.414 . S
C513 C514 1.374 . S
C514 H488 0.950 . S
C514 C510 1.385 . S
C514 C513 1.374 . S
C515 C512 1.499 . S
C515 C516 1.373 . S
C515 C517 1.389 . S
C516 H489 0.950 . S
C516 C502 1.377 . S
C516 C515 1.373 . S
C517 C501 1.377 . S
C517 C515 1.389 . S
C517 C518 1.524 . S
C518 C517 1.524 . S
C518 C519 1.397 . S
C518 C523 1.363 . S
C519 H490 0.950 . S
C519 C518 1.397 . S
C519 C520 1.334 . S
C520 H491 0.950 . S
C520 C519 1.334 . S
C520 C521 1.287 . S
C521 C520 1.287 . S
C521 C522 1.524 . S
C521 H524 0.999 . S
C522 H492 0.950 . S
C522 C521 1.524 . S
C522 C523 1.415 . S
C523 H493 0.950 . S
C523 C518 1.363 . S
C523 C522 1.415 . S
H524 C521 0.999 . S
H525 C506 0.913 . S
H526 C544 0.951 . S
H527 C546 0.951 . S
H528 C548 0.950 . S
H529 C549 0.950 . S
H530 C551 0.950 . S
H531 C554 0.950 . S
H532 C555 0.950 . S
H533 C557 0.950 . S
H534 C558 0.950 1_455 S
H535 C559 0.951 . S
H536 C561 0.951 . S
H537 C563 0.950 . S
H538 C564 0.950 . S
H539 C566 0.950 . S
H540 C569 0.950 . S
H541 C570 0.950 . S
H542 C572 0.950 . S
H543 C573 0.950 1_655 S
C544 H526 0.951 . S
C544 C545 1.366 . S
C544 C546 1.388 . S
C545 C544 1.366 . S
C545 C549 1.385 . S
C546 H527 0.951 . S
C546 C544 1.388 . S
C546 C547 1.366 . S
C547 C546 1.366 . S
C547 C548 1.414 . S
C547 C550 1.499 . S
C548 H528 0.950 . S
C548 C547 1.414 . S
C548 C549 1.374 . S
C549 H529 0.950 . S
C549 C545 1.385 . S
C549 C548 1.374 . S
C550 C547 1.499 . S
C550 C551 1.373 . S
C550 C552 1.389 . S
C551 H530 0.950 . S
C551 C550 1.373 . S
C551 C567 1.377 1_655 S
C552 C550 1.389 . S
C552 C553 1.524 . S
C552 C566 1.377 1_655 S
C553 C552 1.524 . S
C553 C554 1.397 . S
C553 C558 1.363 1_556 S
C554 H531 0.950 . S
C554 C553 1.397 . S
C554 C555 1.334 1_556 S
C555 H532 0.950 . S
C555 C554 1.334 1_554 S
C555 C556 1.287 . S
C556 C555 1.287 . S
C556 C557 1.524 . S
C556 H575 0.913 . S
C557 H533 0.950 . S
C557 C556 1.524 . S
C557 C558 1.415 . S
C558 H534 0.950 1_655 S
C558 C553 1.363 1_554 S
C558 C557 1.415 . S
C559 H535 0.951 . S
C559 C560 1.366 . S
C559 C561 1.388 . S
C560 C559 1.366 . S
C560 C564 1.385 . S
C561 H536 0.951 . S
C561 C559 1.388 . S
C561 C562 1.366 . S
C562 C561 1.366 . S
C562 C563 1.414 . S
C562 C565 1.499 . S
C563 H537 0.950 . S
C563 C562 1.414 . S
C563 C564 1.374 . S
C564 H538 0.950 . S
C564 C560 1.385 . S
C564 C563 1.374 . S
C565 C562 1.499 . S
C565 C566 1.373 . S
C565 C567 1.389 . S
C566 H539 0.950 . S
C566 C552 1.377 1_455 S
C566 C565 1.373 . S
C567 C551 1.377 1_455 S
C567 C565 1.389 . S
C567 C568 1.524 . S
C568 C567 1.524 . S
C568 C569 1.397 . S
C568 C573 1.363 . S
C569 H540 0.950 . S
C569 C568 1.397 . S
C569 C570 1.334 . S
C570 H541 0.950 . S
C570 C569 1.334 . S
C570 C571 1.287 . S
C571 C570 1.287 . S
C571 C572 1.524 . S
C571 H574 0.999 . S
C572 H542 0.950 . S
C572 C571 1.524 . S
C572 C573 1.415 . S
C573 H543 0.950 1_455 S
C573 C568 1.363 . S
C573 C572 1.415 . S
H574 C571 0.999 . S
H575 C556 0.913 . S
H576 C594 0.951 . S
H577 C596 0.951 . S
H578 C598 0.950 . S
H579 C599 0.950 . S
H580 C601 0.950 . S
H581 C604 0.950 . S
H582 C605 0.950 . S
H583 C607 0.950 . S
H584 C608 0.950 1_545 S
H585 C609 0.951 . S
H586 C611 0.951 . S
H587 C613 0.950 . S
H588 C614 0.950 . S
H589 C616 0.950 . S
H590 C619 0.950 . S
H591 C620 0.950 . S
H592 C622 0.950 . S
H593 C623 0.950 1_565 S
C594 H576 0.951 . S
C594 C595 1.366 . S
C594 C596 1.388 . S
C595 C594 1.366 . S
C595 C599 1.385 1_554 S
C596 H577 0.951 . S
C596 C594 1.388 . S
C596 C597 1.366 . S
C597 C596 1.366 . S
C597 C598 1.414 1_554 S
C597 C600 1.499 . S
C598 H578 0.950 . S
C598 C597 1.414 1_556 S
C598 C599 1.374 . S
C599 H579 0.950 . S
C599 C595 1.385 1_556 S
C599 C598 1.374 . S
C600 C597 1.499 . S
C600 C601 1.373 1_554 S
C600 C602 1.389 . S
C601 H580 0.950 . S
C601 C600 1.373 1_556 S
C601 C617 1.377 1_565 S
C602 C600 1.389 . S
C602 C603 1.524 . S
C602 C616 1.377 1_565 S
C603 C602 1.524 . S
C603 C604 1.397 . S
C603 C608 1.363 . S
C604 H581 0.950 . S
C604 C603 1.397 . S
C604 C605 1.334 . S
C605 H582 0.950 . S
C605 C604 1.334 . S
C605 C606 1.287 . S
C606 C605 1.287 . S
C606 C607 1.524 . S
C606 H625 0.913 . S
C607 H583 0.950 . S
C607 C606 1.524 . S
C607 C608 1.415 . S
C608 H584 0.950 1_565 S
C608 C603 1.363 . S
C608 C607 1.415 . S
C609 H585 0.951 . S
C609 C610 1.366 . S
C609 C611 1.388 . S
C610 C609 1.366 . S
C610 C614 1.385 1_556 S
C611 H586 0.951 . S
C611 C609 1.388 . S
C611 C612 1.366 . S
C612 C611 1.366 . S
C612 C613 1.414 1_556 S
C612 C615 1.499 . S
C613 H587 0.950 . S
C613 C612 1.414 1_554 S
C613 C614 1.374 . S
C614 H588 0.950 . S
C614 C610 1.385 1_554 S
C614 C613 1.374 . S
C615 C612 1.499 . S
C615 C616 1.373 1_556 S
C615 C617 1.389 . S
C616 H589 0.950 . S
C616 C602 1.377 1_545 S
C616 C615 1.373 1_554 S
C617 C601 1.377 1_545 S
C617 C615 1.389 . S
C617 C618 1.524 . S
C618 C617 1.524 . S
C618 C619 1.397 . S
C618 C623 1.363 . S
C619 H590 0.950 . S
C619 C618 1.397 . S
C619 C620 1.334 . S
C620 H591 0.950 . S
C620 C619 1.334 . S
C620 C621 1.287 . S
C621 C620 1.287 . S
C621 C622 1.524 . S
C621 H624 0.999 . S
C622 H592 0.950 . S
C622 C621 1.524 . S
C622 C623 1.415 . S
C623 H593 0.950 1_545 S
C623 C618 1.363 . S
C623 C622 1.415 . S
H624 C621 0.999 . S
H625 C606 0.913 . S
H626 C644 0.951 . S
H627 C646 0.951 . S
H628 C648 0.950 . S
H629 C649 0.950 . S
H630 C651 0.950 . S
H631 C654 0.950 . S
H632 C655 0.954 . S
H633 C657 0.950 . S
H634 C658 0.950 . S
H635 C659 0.951 . S
H636 C661 0.951 . S
H637 C663 0.950 . S
H638 C664 0.950 . S
H639 C666 0.950 . S
H640 C669 0.950 . S
H641 C670 0.950 . S
H642 C672 0.950 . S
H643 C673 0.950 . S
C644 H626 0.951 . S
C644 C645 1.366 . S
C644 C646 1.388 . S
C645 C644 1.366 . S
C645 C649 1.385 . S
C646 H627 0.951 . S
C646 C644 1.388 . S
C646 C647 1.366 . S
C647 C646 1.366 . S
C647 C648 1.414 . S
C647 C650 1.499 . S
C648 H628 0.950 . S
C648 C647 1.414 . S
C648 C649 1.374 . S
C649 H629 0.950 . S
C649 C645 1.385 . S
C649 C648 1.374 . S
C650 C647 1.499 . S
C650 C651 1.373 . S
C650 C652 1.389 . S
C651 H630 0.950 . S
C651 C650 1.373 . S
C651 C667 1.377 . S
C652 C650 1.389 . S
C652 C653 1.524 . S
C652 C666 1.377 . S
C653 C652 1.524 . S
C653 C654 1.397 . S
C653 C658 1.363 . S
C654 H631 0.950 . S
C654 C653 1.397 . S
C654 C655 1.334 . S
C655 H632 0.954 . S
C655 C654 1.334 . S
C655 C656 1.287 . S
C656 C655 1.287 . S
C656 C657 1.524 . S
C656 H675 0.913 . S
C657 H633 0.950 . S
C657 C656 1.524 . S
C657 C658 1.415 . S
C658 H634 0.950 . S
C658 C653 1.363 . S
C658 C657 1.415 . S
C659 H635 0.951 . S
C659 C660 1.366 . S
C659 C661 1.388 . S
C660 C659 1.366 . S
C660 C664 1.385 . S
C661 H636 0.951 . S
C661 C659 1.388 . S
C661 C662 1.366 . S
C662 C661 1.366 . S
C662 C663 1.414 . S
C662 C665 1.499 . S
C663 H637 0.950 . S
C663 C662 1.414 . S
C663 C664 1.374 . S
C664 H638 0.950 . S
C664 C660 1.385 . S
C664 C663 1.374 . S
C665 C662 1.499 . S
C665 C666 1.373 . S
C665 C667 1.389 . S
C666 H639 0.950 . S
C666 C652 1.377 . S
C666 C665 1.373 . S
C667 C651 1.377 . S
C667 C665 1.389 . S
C667 C668 1.524 . S
C668 C667 1.524 . S
C668 C669 1.397 . S
C668 C673 1.363 . S
C669 H640 0.950 . S
C669 C668 1.397 . S
C669 C670 1.334 . S
C670 H641 0.950 . S
C670 C669 1.334 . S
C670 C671 1.287 . S
C671 C670 1.287 . S
C671 C672 1.524 . S
C671 H674 0.999 . S
C672 H642 0.950 . S
C672 C671 1.524 . S
C672 C673 1.415 . S
C673 H643 0.950 . S
C673 C668 1.363 . S
C673 C672 1.415 . S
H674 C671 0.999 . S
H675 C656 0.913 . S
H676 C694 0.951 . S
H677 C696 0.951 . S
H678 C698 0.950 . S
H679 C699 0.950 . S
H680 C701 0.950 . S
H681 C704 0.950 . S
H682 C705 0.950 . S
H683 C707 0.950 . S
H684 C708 0.950 . S
H685 C709 0.951 . S
H686 C711 0.951 . S
H687 C713 0.950 . S
H688 C714 0.950 . S
H689 C716 0.950 . S
H690 C719 0.950 . S
H691 C720 0.950 . S
H692 C722 0.950 . S
H693 C723 0.950 . S
C694 H676 0.951 . S
C694 C695 1.366 . S
C694 C696 1.388 . S
C695 C694 1.366 . S
C695 C699 1.385 . S
C696 H677 0.951 . S
C696 C694 1.388 . S
C696 C697 1.366 . S
C697 C696 1.366 . S
C697 C698 1.414 . S
C697 C700 1.499 . S
C698 H678 0.950 . S
C698 C697 1.414 . S
C698 C699 1.374 . S
C699 H679 0.950 . S
C699 C695 1.385 . S
C699 C698 1.374 . S
C700 C697 1.499 . S
C700 C701 1.373 . S
C700 C702 1.389 . S
C701 H680 0.950 . S
C701 C700 1.373 . S
C701 C717 1.377 1_655 S
C702 C700 1.389 . S
C702 C703 1.524 . S
C702 C716 1.377 1_655 S
C703 C702 1.524 . S
C703 C704 1.397 . S
C703 C708 1.363 . S
C704 H681 0.950 . S
C704 C703 1.397 . S
C704 C705 1.334 . S
C705 H682 0.950 . S
C705 C704 1.334 . S
C705 C706 1.287 . S
C706 C705 1.287 . S
C706 C707 1.524 . S
C706 H725 0.913 . S
C707 H683 0.950 . S
C707 C706 1.524 . S
C707 C708 1.415 . S
C708 H684 0.950 . S
C708 C703 1.363 . S
C708 C707 1.415 . S
C709 H685 0.951 . S
C709 C710 1.366 . S
C709 C711 1.388 . S
C710 C709 1.366 . S
C710 C714 1.385 . S
C711 H686 0.951 . S
C711 C709 1.388 . S
C711 C712 1.366 . S
C712 C711 1.366 . S
C712 C713 1.414 . S
C712 C715 1.499 . S
C713 H687 0.950 . S
C713 C712 1.414 . S
C713 C714 1.374 . S
C714 H688 0.950 . S
C714 C710 1.385 . S
C714 C713 1.374 . S
C715 C712 1.499 . S
C715 C716 1.373 . S
C715 C717 1.389 . S
C716 H689 0.950 . S
C716 C702 1.377 1_455 S
C716 C715 1.373 . S
C717 C701 1.377 1_455 S
C717 C715 1.389 . S
C717 C718 1.524 . S
C718 C717 1.524 . S
C718 C719 1.397 . S
C718 C723 1.363 . S
C719 H690 0.950 . S
C719 C718 1.397 . S
C719 C720 1.334 . S
C720 H691 0.950 . S
C720 C719 1.334 . S
C720 C721 1.287 . S
C721 C720 1.287 . S
C721 C722 1.524 . S
C721 H724 0.999 . S
C722 H692 0.950 . S
C722 C721 1.524 . S
C722 C723 1.415 . S
C723 H693 0.950 . S
C723 C718 1.363 . S
C723 C722 1.415 . S
H724 C721 0.999 . S
H725 C706 0.913 . S
H726 C744 0.951 . S
H727 C746 0.951 . S
H728 C748 0.950 . S
H729 C749 0.950 . S
H730 C751 0.950 . S
H731 C754 0.950 . S
H732 C755 0.950 . S
H733 C757 0.950 . S
H734 C758 0.950 . S
H735 C759 0.951 . S
H736 C761 0.951 . S
H737 C763 0.950 . S
H738 C764 0.950 . S
H739 C766 0.950 . S
H740 C769 0.950 . S
H741 C770 0.950 . S
H742 C772 0.950 . S
H743 C773 0.950 . S
C744 H726 0.951 . S
C744 C745 1.366 . S
C744 C746 1.388 . S
C745 C744 1.366 . S
C745 C749 1.385 . S
C746 H727 0.951 . S
C746 C744 1.388 . S
C746 C747 1.366 . S
C747 C746 1.366 . S
C747 C748 1.414 . S
C747 C750 1.499 . S
C748 H728 0.950 . S
C748 C747 1.414 . S
C748 C749 1.374 . S
C749 H729 0.950 . S
C749 C745 1.385 . S
C749 C748 1.374 . S
C750 C747 1.499 . S
C750 C751 1.373 . S
C750 C752 1.389 . S
C751 H730 0.950 . S
C751 C750 1.373 . S
C751 C767 1.377 . S
C752 C750 1.389 . S
C752 C753 1.524 . S
C752 C766 1.377 . S
C753 C752 1.524 . S
C753 C754 1.397 . S
C753 C758 1.363 . S
C754 H731 0.950 . S
C754 C753 1.397 . S
C754 C755 1.334 . S
C755 H732 0.950 . S
C755 C754 1.334 . S
C755 C756 1.287 . S
C756 C755 1.287 . S
C756 C757 1.524 . S
C756 H775 0.913 . S
C757 H733 0.950 . S
C757 C756 1.524 . S
C757 C758 1.415 . S
C758 H734 0.950 . S
C758 C753 1.363 . S
C758 C757 1.415 . S
C759 H735 0.951 . S
C759 C760 1.366 . S
C759 C761 1.388 . S
C760 C759 1.366 . S
C760 C764 1.385 . S
C761 H736 0.951 . S
C761 C759 1.388 . S
C761 C762 1.366 . S
C762 C761 1.366 . S
C762 C763 1.414 . S
C762 C765 1.499 . S
C763 H737 0.950 . S
C763 C762 1.414 . S
C763 C764 1.374 . S
C764 H738 0.950 . S
C764 C760 1.385 . S
C764 C763 1.374 . S
C765 C762 1.499 . S
C765 C766 1.373 . S
C765 C767 1.389 . S
C766 H739 0.950 . S
C766 C752 1.377 . S
C766 C765 1.373 . S
C767 C751 1.377 . S
C767 C765 1.389 . S
C767 C768 1.524 . S
C768 C767 1.524 . S
C768 C769 1.397 . S
C768 C773 1.363 . S
C769 H740 0.950 . S
C769 C768 1.397 . S
C769 C770 1.334 . S
C770 H741 0.950 . S
C770 C769 1.334 . S
C770 C771 1.287 . S
C771 C770 1.287 . S
C771 C772 1.524 . S
C771 H774 0.999 . S
C772 H742 0.950 . S
C772 C771 1.524 . S
C772 C773 1.415 . S
C773 H743 0.950 . S
C773 C768 1.363 . S
C773 C772 1.415 . S
H774 C771 0.999 . S
H775 C756 0.913 . S
H776 C794 0.951 . S
H777 C796 0.951 . S
H778 C798 0.950 . S
H779 C799 0.950 . S
H780 C801 0.950 . S
H781 C804 0.950 . S
H782 C805 0.950 . S
H783 C807 0.950 . S
H784 C808 0.950 . S
H785 C809 0.951 . S
H786 C811 0.951 . S
H787 C813 0.950 . S
H788 C814 0.950 . S
H789 C816 0.950 . S
H790 C819 0.950 . S
H791 C820 0.950 . S
H792 C822 0.950 . S
H793 C823 0.950 . S
C794 H776 0.951 . S
C794 C795 1.366 . S
C794 C796 1.388 . S
C795 C794 1.366 . S
C795 C799 1.385 . S
C796 H777 0.951 . S
C796 C794 1.388 . S
C796 C797 1.366 . S
C797 C796 1.366 . S
C797 C798 1.414 . S
C797 C800 1.499 . S
C798 H778 0.950 . S
C798 C797 1.414 . S
C798 C799 1.374 . S
C799 H779 0.950 . S
C799 C795 1.385 . S
C799 C798 1.374 . S
C800 C797 1.499 . S
C800 C801 1.373 . S
C800 C802 1.389 . S
C801 H780 0.950 . S
C801 C800 1.373 . S
C801 C817 1.377 . S
C802 C800 1.389 . S
C802 C803 1.524 . S
C802 C816 1.377 . S
C803 C802 1.524 . S
C803 C804 1.397 . S
C803 C808 1.363 . S
C804 H781 0.950 . S
C804 C803 1.397 . S
C804 C805 1.334 . S
C805 H782 0.950 . S
C805 C804 1.334 . S
C805 C806 1.287 . S
C806 C805 1.287 . S
C806 C807 1.524 . S
C806 H825 0.913 . S
C807 H783 0.950 . S
C807 C806 1.524 . S
C807 C808 1.415 . S
C808 H784 0.950 . S
C808 C803 1.363 . S
C808 C807 1.415 . S
C809 H785 0.951 . S
C809 C810 1.366 . S
C809 C811 1.388 . S
C810 C809 1.366 . S
C810 C814 1.385 . S
C811 H786 0.951 . S
C811 C809 1.388 . S
C811 C812 1.366 . S
C812 C811 1.366 . S
C812 C813 1.414 . S
C812 C815 1.499 . S
C813 H787 0.950 . S
C813 C812 1.414 . S
C813 C814 1.374 . S
C814 H788 0.950 . S
C814 C810 1.385 . S
C814 C813 1.374 . S
C815 C812 1.499 . S
C815 C816 1.373 . S
C815 C817 1.389 . S
C816 H789 0.950 . S
C816 C802 1.377 . S
C816 C815 1.373 . S
C817 C801 1.377 . S
C817 C815 1.389 . S
C817 C818 1.524 . S
C818 C817 1.524 . S
C818 C819 1.397 . S
C818 C823 1.363 . S
C819 H790 0.950 . S
C819 C818 1.397 . S
C819 C820 1.334 . S
C820 H791 0.950 . S
C820 C819 1.334 . S
C820 C821 1.287 . S
C821 C820 1.287 . S
C821 C822 1.524 . S
C821 H824 0.999 . S
C822 H792 0.950 . S
C822 C821 1.524 . S
C822 C823 1.415 . S
C823 H793 0.950 . S
C823 C818 1.363 . S
C823 C822 1.415 . S
H824 C821 0.999 . S
H825 C806 0.913 . S
H826 C844 0.951 . S
H827 C846 0.951 . S
H828 C848 0.950 . S
H829 C849 0.950 . S
H830 C851 0.950 . S
H831 C854 0.950 . S
H832 C855 0.950 . S
H833 C857 0.950 . S
H834 C858 0.950 . S
H835 C859 0.951 . S
H836 C861 0.951 . S
H837 C863 0.950 . S
H838 C864 0.950 . S
H839 C866 0.950 . S
H840 C869 0.950 . S
H841 C870 0.950 . S
H842 C872 0.950 . S
H843 C873 0.950 . S
C844 H826 0.951 . S
C844 C845 1.366 . S
C844 C846 1.388 . S
C845 C844 1.366 . S
C845 C849 1.385 . S
C846 H827 0.951 . S
C846 C844 1.388 . S
C846 C847 1.366 . S
C847 C846 1.366 . S
C847 C848 1.414 . S
C847 C850 1.499 . S
C848 H828 0.950 . S
C848 C847 1.414 . S
C848 C849 1.374 . S
C849 H829 0.950 . S
C849 C845 1.385 . S
C849 C848 1.374 . S
C850 C847 1.499 . S
C850 C851 1.373 . S
C850 C852 1.389 . S
C851 H830 0.950 . S
C851 C850 1.373 . S
C851 C867 1.377 . S
C852 C850 1.389 . S
C852 C853 1.524 . S
C852 C866 1.377 . S
C853 C852 1.524 . S
C853 C854 1.397 . S
C853 C858 1.363 . S
C854 H831 0.950 . S
C854 C853 1.397 . S
C854 C855 1.334 . S
C855 H832 0.950 . S
C855 C854 1.334 . S
C855 C856 1.287 . S
C856 C855 1.287 . S
C856 C857 1.524 . S
C856 H875 0.913 . S
C857 H833 0.950 . S
C857 C856 1.524 . S
C857 C858 1.415 . S
C858 H834 0.950 . S
C858 C853 1.363 . S
C858 C857 1.415 . S
C859 H835 0.951 . S
C859 C860 1.366 . S
C859 C861 1.388 . S
C860 C859 1.366 . S
C860 C864 1.385 . S
C861 H836 0.951 . S
C861 C859 1.388 . S
C861 C862 1.366 . S
C862 C861 1.366 . S
C862 C863 1.414 . S
C862 C865 1.499 . S
C863 H837 0.950 . S
C863 C862 1.414 . S
C863 C864 1.374 . S
C864 H838 0.950 . S
C864 C860 1.385 . S
C864 C863 1.374 . S
C865 C862 1.499 . S
C865 C866 1.373 . S
C865 C867 1.389 . S
C866 H839 0.950 . S
C866 C852 1.377 . S
C866 C865 1.373 . S
C867 C851 1.377 . S
C867 C865 1.389 . S
C867 C868 1.524 . S
C868 C867 1.524 . S
C868 C869 1.397 . S
C868 C873 1.363 . S
C869 H840 0.950 . S
C869 C868 1.397 . S
C869 C870 1.334 . S
C870 H841 0.950 . S
C870 C869 1.334 . S
C870 C871 1.287 . S
C871 C870 1.287 . S
C871 C872 1.524 . S
C871 H874 0.999 . S
C872 H842 0.950 . S
C872 C871 1.524 . S
C872 C873 1.415 . S
C873 H843 0.950 . S
C873 C868 1.363 . S
C873 C872 1.415 . S
H874 C871 0.999 . S
H875 C856 0.913 . S
H876 C894 0.951 . S
H877 C896 0.951 . S
H878 C898 0.950 . S
H879 C899 0.950 . S
H880 C901 0.950 . S
H881 C904 0.950 . S
H882 C905 0.950 . S
H883 C907 0.950 . S
H884 C908 0.950 . S
H885 C909 0.951 . S
H886 C911 0.951 . S
H887 C913 0.950 . S
H888 C914 0.950 . S
H889 C916 0.950 . S
H890 C919 0.950 . S
H891 C920 0.950 . S
H892 C922 0.950 . S
H893 C923 0.950 . S
C894 H876 0.951 . S
C894 C895 1.366 . S
C894 C896 1.388 1_554 S
C895 C894 1.366 . S
C895 C899 1.385 . S
C896 H877 0.951 . S
C896 C894 1.388 1_556 S
C896 C897 1.366 . S
C897 C896 1.366 . S
C897 C898 1.414 . S
C897 C900 1.499 . S
C898 H878 0.950 . S
C898 C897 1.414 . S
C898 C899 1.374 1_556 S
C899 H879 0.950 . S
C899 C895 1.385 . S
C899 C898 1.374 1_554 S
C900 C897 1.499 . S
C900 C901 1.373 . S
C900 C902 1.389 . S
C901 H880 0.950 . S
C901 C900 1.373 . S
C901 C917 1.377 . S
C902 C900 1.389 . S
C902 C903 1.524 1_556 S
C902 C916 1.377 . S
C903 C902 1.524 1_554 S
C903 C904 1.397 . S
C903 C908 1.363 . S
C904 H881 0.950 . S
C904 C903 1.397 . S
C904 C905 1.334 . S
C905 H882 0.950 . S
C905 C904 1.334 . S
C905 C906 1.287 . S
C906 C905 1.287 . S
C906 C907 1.524 . S
C906 H925 0.913 . S
C907 H883 0.950 . S
C907 C906 1.524 . S
C907 C908 1.415 . S
C908 H884 0.950 . S
C908 C903 1.363 . S
C908 C907 1.415 . S
C909 H885 0.951 . S
C909 C910 1.366 . S
C909 C911 1.388 . S
C910 C909 1.366 . S
C910 C914 1.385 . S
C911 H886 0.951 . S
C911 C909 1.388 . S
C911 C912 1.366 . S
C912 C911 1.366 . S
C912 C913 1.414 . S
C912 C915 1.499 . S
C913 H887 0.950 . S
C913 C912 1.414 . S
C913 C914 1.374 . S
C914 H888 0.950 . S
C914 C910 1.385 . S
C914 C913 1.374 . S
C915 C912 1.499 . S
C915 C916 1.373 . S
C915 C917 1.389 . S
C916 H889 0.950 . S
C916 C902 1.377 . S
C916 C915 1.373 . S
C917 C901 1.377 . S
C917 C915 1.389 . S
C917 C918 1.524 . S
C918 C917 1.524 . S
C918 C919 1.397 . S
C918 C923 1.363 . S
C919 H890 0.950 . S
C919 C918 1.397 . S
C919 C920 1.334 . S
C920 H891 0.950 . S
C920 C919 1.334 . S
C920 C921 1.287 . S
C921 C920 1.287 . S
C921 C922 1.524 . S
C921 H924 0.999 . S
C922 H892 0.950 . S
C922 C921 1.524 . S
C922 C923 1.415 . S
C923 H893 0.950 . S
C923 C918 1.363 . S
C923 C922 1.415 . S
H924 C921 0.999 . S
H925 C906 0.913 . S
H926 C944 0.951 . S
H927 C946 0.951 . S
H928 C948 0.950 . S
H929 C949 0.950 . S
H930 C951 0.950 . S
H931 C954 0.950 . S
H932 C955 0.950 . S
H933 C957 0.950 . S
H934 C958 0.950 . S
H935 C959 0.951 . S
H936 C961 0.951 . S
H937 C963 0.950 . S
H938 C964 0.950 . S
H939 C966 0.950 . S
H940 C969 0.950 . S
H941 C970 0.950 . S
H942 C972 0.950 . S
H943 C973 0.950 1_554 S
C944 H926 0.951 . S
C944 C945 1.366 . S
C944 C946 1.388 . S
C945 C944 1.366 . S
C945 C949 1.385 . S
C946 H927 0.951 . S
C946 C944 1.388 . S
C946 C947 1.366 . S
C947 C946 1.366 . S
C947 C948 1.414 . S
C947 C950 1.499 . S
C948 H928 0.950 . S
C948 C947 1.414 . S
C948 C949 1.374 . S
C949 H929 0.950 . S
C949 C945 1.385 . S
C949 C948 1.374 . S
C950 C947 1.499 . S
C950 C951 1.373 . S
C950 C952 1.389 . S
C951 H930 0.950 . S
C951 C950 1.373 . S
C951 C967 1.377 . S
C952 C950 1.389 . S
C952 C953 1.524 . S
C952 C966 1.377 . S
C953 C952 1.524 . S
C953 C954 1.397 . S
C953 C958 1.363 . S
C954 H931 0.950 . S
C954 C953 1.397 . S
C954 C955 1.334 . S
C955 H932 0.950 . S
C955 C954 1.334 . S
C955 C956 1.287 . S
C956 C955 1.287 . S
C956 C957 1.524 . S
C956 H975 0.913 . S
C957 H933 0.950 . S
C957 C956 1.524 . S
C957 C958 1.415 . S
C958 H934 0.950 . S
C958 C953 1.363 . S
C958 C957 1.415 . S
C959 H935 0.951 . S
C959 C960 1.366 . S
C959 C961 1.388 1_556 S
C960 C959 1.366 . S
C960 C964 1.385 . S
C961 H936 0.951 . S
C961 C959 1.388 1_554 S
C961 C962 1.366 . S
C962 C961 1.366 . S
C962 C963 1.414 1_554 S
C962 C965 1.499 . S
C963 H937 0.950 . S
C963 C962 1.414 1_556 S
C963 C964 1.374 . S
C964 H938 0.950 . S
C964 C960 1.385 . S
C964 C963 1.374 . S
C965 C962 1.499 . S
C965 C966 1.373 . S
C965 C967 1.389 . S
C966 H939 0.950 . S
C966 C952 1.377 . S
C966 C965 1.373 . S
C967 C951 1.377 . S
C967 C965 1.389 . S
C967 C968 1.524 1_554 S
C968 C967 1.524 1_556 S
C968 C969 1.397 . S
C968 C973 1.363 . S
C969 H940 0.950 . S
C969 C968 1.397 . S
C969 C970 1.334 . S
C970 H941 0.950 . S
C970 C969 1.334 . S
C970 C971 1.287 . S
C971 C970 1.287 . S
C971 C972 1.524 . S
C971 H974 0.999 . S
C972 H942 0.950 . S
C972 C971 1.524 . S
C972 C973 1.415 . S
C973 H943 0.950 1_556 S
C973 C968 1.363 . S
C973 C972 1.415 . S
H974 C971 0.999 . S
H975 C956 0.913 . S
H976 C994 0.951 . S
H977 C996 0.951 . S
H978 C998 0.950 . S
H979 C999 0.950 . S
H980 C1001 0.950 . S
H981 C1004 0.950 . S
H982 C1005 0.950 . S
H983 C1007 0.950 . S
H984 C1008 0.950 . S
H985 C1009 0.951 . S
H986 C1011 0.951 . S
H987 C1013 0.950 . S
H988 C1014 0.950 . S
H989 C1016 0.950 . S
H990 C1019 0.950 . S
H991 C1020 0.950 . S
H992 C1022 0.937 1_556 S
H993 C1023 0.950 . S
C994 H976 0.951 . S
C994 C995 1.366 . S
C994 C996 1.388 . S
C995 C994 1.366 . S
C995 C999 1.385 . S
C996 H977 0.951 . S
C996 C994 1.388 . S
C996 C997 1.366 . S
C997 C996 1.366 . S
C997 C998 1.414 . S
C997 C1000 1.499 . S
C998 H978 0.950 . S
C998 C997 1.414 . S
C998 C999 1.374 . S
C999 H979 0.950 . S
C999 C995 1.385 . S
C999 C998 1.374 . S
C1000 C997 1.499 . S
C1000 C1001 1.373 . S
C1000 C1002 1.389 . S
C1001 H980 0.950 . S
C1001 C1000 1.373 . S
C1001 C1017 1.377 . S
C1002 C1000 1.389 . S
C1002 C1003 1.524 . S
C1002 C1016 1.377 . S
C1003 C1002 1.524 . S
C1003 C1004 1.397 . S
C1003 C1008 1.363 . S
C1004 H981 0.950 . S
C1004 C1003 1.397 . S
C1004 C1005 1.334 . S
C1005 H982 0.950 . S
C1005 C1004 1.334 . S
C1005 C1006 1.287 . S
C1006 C1005 1.287 . S
C1006 C1007 1.524 . S
C1006 H1025 0.913 . S
C1007 H983 0.950 . S
C1007 C1006 1.524 . S
C1007 C1008 1.415 . S
C1008 H984 0.950 . S
C1008 C1003 1.363 . S
C1008 C1007 1.415 . S
C1009 H985 0.951 . S
C1009 C1010 1.366 . S
C1009 C1011 1.388 . S
C1010 C1009 1.366 . S
C1010 C1014 1.385 . S
C1011 H986 0.951 . S
C1011 C1009 1.388 . S
C1011 C1012 1.366 . S
C1012 C1011 1.366 . S
C1012 C1013 1.414 . S
C1012 C1015 1.499 . S
C1013 H987 0.950 . S
C1013 C1012 1.414 . S
C1013 C1014 1.374 . S
C1014 H988 0.950 . S
C1014 C1010 1.385 . S
C1014 C1013 1.374 . S
C1015 C1012 1.499 . S
C1015 C1016 1.373 . S
C1015 C1017 1.389 . S
C1016 H989 0.950 . S
C1016 C1002 1.377 . S
C1016 C1015 1.373 . S
C1017 C1001 1.377 . S
C1017 C1015 1.389 . S
C1017 C1018 1.524 . S
C1018 C1017 1.524 . S
C1018 C1019 1.397 . S
C1018 C1023 1.363 . S
C1019 H990 0.950 . S
C1019 C1018 1.397 . S
C1019 C1020 1.334 . S
C1020 H991 0.950 . S
C1020 C1019 1.334 . S
C1020 C1021 1.287 . S
C1021 C1020 1.287 . S
C1021 C1022 1.524 . S
C1021 H1024 0.999 . S
C1022 H992 0.937 1_554 S
C1022 C1021 1.524 . S
C1022 C1023 1.415 . S
C1023 H993 0.950 . S
C1023 C1018 1.363 . S
C1023 C1022 1.415 . S
H1024 C1021 0.999 . S
H1025 C1006 0.913 . S
C145 C19 0.930 . S
C160 C3 0.932 . S
C195 C40 0.933 . S
C210 C24 0.935 . S
C245 C45 0.932 . S
C260 C61 0.930 . S
C295 C66 0.933 . S
C310 C82 0.931 . S
C345 C87 0.935 . S
C360 C103 0.932 . S
C395 C124 0.930 . S
C410 C108 0.932 . S
C445 C20 1.401 . S
C460 C112 1.394 . S
C495 C7 1.396 . S
C510 C41 1.402 . S
C545 C62 1.402 . S
C560 C28 1.395 . S
C595 C83 1.402 . S
C610 C49 1.395 . S
C645 C104 1.401 . S
C660 C70 1.394 . S
C695 C91 1.394 . S
C710 C125 1.401 . S
C745 C16 1.596 . S
C760 C88 1.590 . S
C795 C37 1.597 . S
C810 C109 1.589 . S
C845 C58 1.596 . S
C860 C4 1.588 . S
C895 C79 1.595 . S
C910 C25 1.588 . S
C945 C100 1.595 . S
C960 C46 1.588 . S
C995 C67 1.589 . S
C1010 C121 1.597 . S
