# Generated by pormake.
# Topology neb, (4)-cn, num edge types: 1
# Building blocks:
#     Node 0, Type 0, BuildingBlock: QUQFOY_clean_sbu_1, # of connection points: 4
#     Node 1, Type 0, BuildingBlock: QUQFOY_clean_sbu_1, # of connection points: 4
#     Node 2, Type 0, BuildingBlock: QUQFOY_clean_sbu_1, # of connection points: 4
#     Node 3, Type 0, BuildingBlock: QUQFOY_clean_sbu_1, # of connection points: 4
#     Node 4, Type 0, BuildingBlock: QUQFOY_clean_sbu_1, # of connection points: 4
#     Node 5, Type 0, BuildingBlock: QUQFOY_clean_sbu_1, # of connection points: 4
#     Node 6, Type 0, BuildingBlock: QUQFOY_clean_sbu_1, # of connection points: 4
#     Node 7, Type 0, BuildingBlock: QUQFOY_clean_sbu_1, # of connection points: 4
#     Node 8, Type 0, BuildingBlock: QUQFOY_clean_sbu_1, # of connection points: 4
#     Node 9, Type 0, BuildingBlock: QUQFOY_clean_sbu_1, # of connection points: 4
#     Node 10, Type 0, BuildingBlock: QUQFOY_clean_sbu_1, # of connection points: 4
#     Node 11, Type 0, BuildingBlock: QUQFOY_clean_sbu_1, # of connection points: 4
#     Node 12, Type 0, BuildingBlock: QUQFOY_clean_sbu_1, # of connection points: 4
#     Node 13, Type 0, BuildingBlock: QUQFOY_clean_sbu_1, # of connection points: 4
#     Node 14, Type 0, BuildingBlock: QUQFOY_clean_sbu_1, # of connection points: 4
#     Node 15, Type 0, BuildingBlock: QUQFOY_clean_sbu_1, # of connection points: 4
#     Edge 16, Type (0, 0), BuildingBlock: XIVTED_clean_linker_0, # of connection points: 2
#     Edge 17, Type (0, 0), BuildingBlock: XIVTED_clean_linker_0, # of connection points: 2
#     Edge 18, Type (0, 0), BuildingBlock: XIVTED_clean_linker_0, # of connection points: 2
#     Edge 19, Type (0, 0), BuildingBlock: XIVTED_clean_linker_0, # of connection points: 2
#     Edge 20, Type (0, 0), BuildingBlock: XIVTED_clean_linker_0, # of connection points: 2
#     Edge 21, Type (0, 0), BuildingBlock: XIVTED_clean_linker_0, # of connection points: 2
#     Edge 22, Type (0, 0), BuildingBlock: XIVTED_clean_linker_0, # of connection points: 2
#     Edge 23, Type (0, 0), BuildingBlock: XIVTED_clean_linker_0, # of connection points: 2
#     Edge 24, Type (0, 0), BuildingBlock: XIVTED_clean_linker_0, # of connection points: 2
#     Edge 25, Type (0, 0), BuildingBlock: XIVTED_clean_linker_0, # of connection points: 2
#     Edge 26, Type (0, 0), BuildingBlock: XIVTED_clean_linker_0, # of connection points: 2
#     Edge 27, Type (0, 0), BuildingBlock: XIVTED_clean_linker_0, # of connection points: 2
#     Edge 28, Type (0, 0), BuildingBlock: XIVTED_clean_linker_0, # of connection points: 2
#     Edge 29, Type (0, 0), BuildingBlock: XIVTED_clean_linker_0, # of connection points: 2
#     Edge 30, Type (0, 0), BuildingBlock: XIVTED_clean_linker_0, # of connection points: 2
#     Edge 31, Type (0, 0), BuildingBlock: XIVTED_clean_linker_0, # of connection points: 2
#     Edge 32, Type (0, 0), BuildingBlock: XIVTED_clean_linker_0, # of connection points: 2
#     Edge 33, Type (0, 0), BuildingBlock: XIVTED_clean_linker_0, # of connection points: 2
#     Edge 34, Type (0, 0), BuildingBlock: XIVTED_clean_linker_0, # of connection points: 2
#     Edge 35, Type (0, 0), BuildingBlock: XIVTED_clean_linker_0, # of connection points: 2
#     Edge 36, Type (0, 0), BuildingBlock: XIVTED_clean_linker_0, # of connection points: 2
#     Edge 37, Type (0, 0), BuildingBlock: XIVTED_clean_linker_0, # of connection points: 2
#     Edge 38, Type (0, 0), BuildingBlock: XIVTED_clean_linker_0, # of connection points: 2
#     Edge 39, Type (0, 0), BuildingBlock: XIVTED_clean_linker_0, # of connection points: 2
#     Edge 40, Type (0, 0), BuildingBlock: XIVTED_clean_linker_0, # of connection points: 2
#     Edge 41, Type (0, 0), BuildingBlock: XIVTED_clean_linker_0, # of connection points: 2
#     Edge 42, Type (0, 0), BuildingBlock: XIVTED_clean_linker_0, # of connection points: 2
#     Edge 43, Type (0, 0), BuildingBlock: XIVTED_clean_linker_0, # of connection points: 2
#     Edge 44, Type (0, 0), BuildingBlock: XIVTED_clean_linker_0, # of connection points: 2
#     Edge 45, Type (0, 0), BuildingBlock: XIVTED_clean_linker_0, # of connection points: 2
#     Edge 46, Type (0, 0), BuildingBlock: XIVTED_clean_linker_0, # of connection points: 2
#     Edge 47, Type (0, 0), BuildingBlock: XIVTED_clean_linker_0, # of connection points: 2
# Relax obj value: 0.019
# Max RMSD: 0.097
# Mean RMSD: 0.097
data_MOF--net-neb--node1-QUQFOY_clean_sbu_1--edge1-XIVTED_clean_linker_0
_symmetry_space_group_name_H-M    P1
_symmetry_Int_Tables_number       1
_symmetry_cell_setting            triclinic
loop_
_symmetry_equiv_pos_as_xyz
'x, y, z'
_cell_length_a     49.989747
_cell_length_b     22.748938
_cell_length_c     78.393251
_cell_angle_alpha  89.997155
_cell_angle_beta   89.967183
_cell_angle_gamma 89.933753
loop_
_atom_site_label
_atom_site_type_symbol
_atom_site_fract_x
_atom_site_fract_y
_atom_site_fract_z
_atom_type_partial_charge
O0 O 0.12196 0.02714 0.43274 0.0
Cd1 Cd 0.1101 0.09662 0.44762 0.0
Cd2 Cd 0.16543 0.11047 0.44766 0.0
O3 O 0.16588 0.03005 0.43546 0.0
O4 O 0.07183 0.07774 0.45216 0.0
O5 O 0.1023 0.08224 0.47252 0.0
C6 C 0.07794 0.07134 0.46801 0.0
C7 C 0.19734 0.13509 0.46825 0.0
C8 C 0.14493 0.00582 0.42957 0.0
C9 C 0.13067 0.20179 0.4298 0.0
O10 O 0.15364 0.1804 0.43292 0.0
O11 O 0.10971 0.17737 0.43562 0.0
O12 O 0.20365 0.12919 0.45241 0.0
O13 O 0.17293 0.12407 0.47263 0.0
O14 O 0.15342 0.02856 0.83551 0.0
Cd15 Cd 0.16566 0.09668 0.82025 0.0
Cd16 Cd 0.11065 0.112 0.81978 0.0
O17 O 0.10959 0.03231 0.83237 0.0
O18 O 0.20367 0.0761 0.81535 0.0
O19 O 0.17266 0.08124 0.79532 0.0
C20 C 0.19707 0.06955 0.79959 0.0
C21 C 0.07911 0.13669 0.79895 0.0
C22 C 0.1303 0.00803 0.83862 0.0
C23 C 0.14558 0.20342 0.83741 0.0
O24 O 0.12256 0.18251 0.83421 0.0
O25 O 0.16651 0.17801 0.83188 0.0
O26 O 0.0726 0.13174 0.81478 0.0
O27 O 0.10348 0.12452 0.79472 0.0
O28 O 0.90207 0.93349 0.58419 0.0
Cd29 Cd 0.91428 0.86377 0.56952 0.0
Cd30 Cd 0.85886 0.84863 0.56965 0.0
O31 O 0.85814 0.92939 0.58164 0.0
O32 O 0.95251 0.88329 0.56506 0.0
O33 O 0.92226 0.87752 0.5446 0.0
C34 C 0.94652 0.88903 0.54917 0.0
C35 C 0.82676 0.82265 0.54931 0.0
C36 C 0.87901 0.95434 0.58738 0.0
C37 C 0.89422 0.75871 0.58767 0.0
O38 O 0.87113 0.77941 0.58451 0.0
O39 O 0.91503 0.78347 0.58176 0.0
O40 O 0.82067 0.82884 0.56518 0.0
O41 O 0.85104 0.83412 0.54476 0.0
O42 O 0.87098 0.92731 0.18252 0.0
Cd43 Cd 0.85884 0.85847 0.19753 0.0
Cd44 Cd 0.91431 0.84321 0.19767 0.0
O45 O 0.91491 0.92298 0.1851 0.0
O46 O 0.82069 0.87842 0.20221 0.0
O47 O 0.85138 0.87349 0.22244 0.0
C48 C 0.82702 0.88492 0.21802 0.0
C49 C 0.94663 0.81899 0.21807 0.0
C50 C 0.89406 0.94775 0.17922 0.0
C51 C 0.87907 0.75184 0.1802 0.0
O52 O 0.90212 0.77257 0.18338 0.0
O53 O 0.85816 0.7774 0.18571 0.0
O54 O 0.95258 0.8239 0.20215 0.0
O55 O 0.92237 0.8308 0.22263 0.0
O56 O 0.12162 0.52877 0.9323 0.0
Cd57 Cd 0.10951 0.59699 0.94759 0.0
Cd58 Cd 0.16469 0.61197 0.94794 0.0
O59 O 0.16547 0.5323 0.93533 0.0
O60 O 0.0715 0.57685 0.95259 0.0
O61 O 0.10264 0.58165 0.97254 0.0
C62 C 0.07819 0.57028 0.96834 0.0
C63 C 0.19701 0.63607 0.96834 0.0
C64 C 0.14472 0.50814 0.92913 0.0
C65 C 0.12958 0.70368 0.93044 0.0
O66 O 0.15261 0.68267 0.9336 0.0
O67 O 0.10866 0.67832 0.93596 0.0
O68 O 0.20295 0.63109 0.95243 0.0
O69 O 0.17275 0.6244 0.97291 0.0
O70 O 0.15293 0.52657 0.33479 0.0
Cd71 Cd 0.16542 0.59538 0.31988 0.0
Cd72 Cd 0.11012 0.61191 0.31991 0.0
O73 O 0.10904 0.53155 0.33213 0.0
O74 O 0.20353 0.57463 0.31537 0.0
O75 O 0.17317 0.58067 0.29498 0.0
C76 C 0.19741 0.56862 0.29951 0.0
C77 C 0.07797 0.63804 0.29959 0.0
C78 C 0.12978 0.50637 0.33801 0.0
C79 C 0.14585 0.70144 0.33774 0.0
O80 O 0.12269 0.68118 0.33462 0.0
O81 O 0.16657 0.67606 0.33189 0.0
O82 O 0.07197 0.63252 0.31549 0.0
O83 O 0.10218 0.62588 0.295 0.0
O84 O 0.90338 0.42695 0.08527 0.0
Cd85 Cd 0.91564 0.35879 0.06998 0.0
Cd86 Cd 0.86073 0.34329 0.06975 0.0
O87 O 0.85956 0.42326 0.08217 0.0
O88 O 0.95359 0.37941 0.065 0.0
O89 O 0.92251 0.37413 0.04503 0.0
C90 C 0.94692 0.38584 0.04924 0.0
C91 C 0.82907 0.3181 0.04906 0.0
C92 C 0.88025 0.44754 0.08839 0.0
C93 C 0.89597 0.25253 0.08749 0.0
O94 O 0.87289 0.27343 0.0844 0.0
O95 O 0.91678 0.27758 0.08169 0.0
O96 O 0.82267 0.32324 0.0649 0.0
O97 O 0.8534 0.33019 0.04474 0.0
O98 O 0.87389 0.43332 0.68266 0.0
Cd99 Cd 0.86203 0.36358 0.69743 0.0
Cd100 Cd 0.91696 0.34895 0.6973 0.0
O101 O 0.91779 0.42986 0.6854 0.0
O102 O 0.82394 0.3831 0.70239 0.0
O103 O 0.85486 0.37694 0.72245 0.0
C104 C 0.83044 0.38856 0.71821 0.0
C105 C 0.94825 0.32258 0.71809 0.0
C106 C 0.89689 0.45448 0.67954 0.0
C107 C 0.88207 0.25902 0.67912 0.0
O108 O 0.9051 0.28002 0.68223 0.0
O109 O 0.86123 0.28333 0.68517 0.0
O110 O 0.95497 0.32895 0.70233 0.0
O111 O 0.9238 0.3342 0.72228 0.0
O112 O 0.62277 0.02623 0.93244 0.0
Cd113 Cd 0.61055 0.09493 0.94753 0.0
Cd114 Cd 0.66547 0.11031 0.94765 0.0
O115 O 0.66661 0.02994 0.93546 0.0
O116 O 0.57255 0.07455 0.95245 0.0
O117 O 0.60347 0.08034 0.9725 0.0
C118 C 0.57909 0.06854 0.96824 0.0
C119 C 0.69703 0.13606 0.96834 0.0
C120 C 0.64588 0.00548 0.92935 0.0
C121 C 0.63025 0.20053 0.92968 0.0
O122 O 0.65332 0.17966 0.93279 0.0
O123 O 0.60945 0.17577 0.93561 0.0
O124 O 0.7035 0.13048 0.95252 0.0
O125 O 0.67268 0.12413 0.97264 0.0
O126 O 0.65342 0.02865 0.33527 0.0
Cd127 Cd 0.66551 0.09748 0.32023 0.0
Cd128 Cd 0.61029 0.11228 0.31997 0.0
O129 O 0.60953 0.03236 0.33244 0.0
O130 O 0.70366 0.07768 0.31552 0.0
O131 O 0.67293 0.08244 0.29532 0.0
C132 C 0.69731 0.07112 0.29971 0.0
C133 C 0.57862 0.13681 0.29921 0.0
C134 C 0.63036 0.0079 0.33845 0.0
C135 C 0.64516 0.20372 0.33763 0.0
O136 O 0.62216 0.18268 0.33445 0.0
O137 O 0.66611 0.17858 0.33204 0.0
O138 O 0.57218 0.13168 0.31505 0.0
O139 O 0.60301 0.12497 0.29494 0.0
O140 O 0.40321 0.92982 0.08455 0.0
Cd141 Cd 0.41558 0.86041 0.06979 0.0
Cd142 Cd 0.36041 0.84436 0.06987 0.0
O143 O 0.35933 0.9251 0.08185 0.0
O144 O 0.4536 0.88084 0.06493 0.0
O145 O 0.42287 0.87397 0.04479 0.0
C146 C 0.44719 0.88614 0.04909 0.0
C147 C 0.32831 0.81781 0.04959 0.0
C148 C 0.38007 0.95028 0.08769 0.0
C149 C 0.39606 0.75515 0.08797 0.0
O150 O 0.37291 0.77552 0.08479 0.0
O151 O 0.41679 0.78012 0.08203 0.0
O152 O 0.32227 0.8239 0.06547 0.0
O153 O 0.35254 0.82964 0.04499 0.0
O154 O 0.37297 0.93104 0.6839 0.0
Cd155 Cd 0.36065 0.86047 0.69819 0.0
Cd156 Cd 0.41584 0.844 0.69771 0.0
O157 O 0.41692 0.92513 0.68595 0.0
O158 O 0.32258 0.88077 0.70302 0.0
O159 O 0.35314 0.87266 0.72324 0.0
C160 C 0.32886 0.88527 0.7189 0.0
C161 C 0.44735 0.81689 0.7183 0.0
C162 C 0.39608 0.95126 0.68059 0.0
C163 C 0.38007 0.75587 0.67944 0.0
O164 O 0.40328 0.77574 0.68263 0.0
O165 O 0.35942 0.78092 0.68552 0.0
O166 O 0.45383 0.82295 0.70249 0.0
O167 O 0.42301 0.82901 0.72264 0.0
O168 O 0.62096 0.52861 0.43252 0.0
Cd169 Cd 0.60846 0.59678 0.4477 0.0
Cd170 Cd 0.66361 0.61305 0.4479 0.0
O171 O 0.6648 0.53302 0.4355 0.0
O172 O 0.57053 0.57563 0.45258 0.0
O173 O 0.60144 0.58147 0.47264 0.0
C174 C 0.57711 0.56933 0.46836 0.0
C175 C 0.69583 0.63875 0.46821 0.0
C176 C 0.64414 0.50833 0.42937 0.0
C177 C 0.62793 0.70331 0.43021 0.0
O178 O 0.65106 0.68278 0.43333 0.0
O179 O 0.60717 0.67789 0.43594 0.0
O180 O 0.70177 0.63343 0.4523 0.0
O181 O 0.67164 0.62655 0.47282 0.0
O182 O 0.65449 0.52562 0.83465 0.0
Cd183 Cd 0.66656 0.59513 0.81988 0.0
Cd184 Cd 0.61132 0.61031 0.81975 0.0
O185 O 0.61057 0.53025 0.83216 0.0
O186 O 0.70465 0.57533 0.81498 0.0
O187 O 0.67378 0.58138 0.79489 0.0
C188 C 0.69818 0.56966 0.79917 0.0
C189 C 0.57958 0.63485 0.79903 0.0
C190 C 0.63142 0.50516 0.83792 0.0
C191 C 0.64637 0.70114 0.83752 0.0
O192 O 0.62333 0.68057 0.83425 0.0
O193 O 0.66728 0.67571 0.83196 0.0
O194 O 0.5732 0.62982 0.81488 0.0
O195 O 0.60396 0.62299 0.79473 0.0
O196 O 0.40242 0.42995 0.58449 0.0
Cd197 Cd 0.41427 0.35954 0.56994 0.0
Cd198 Cd 0.3592 0.34461 0.57059 0.0
O199 O 0.35847 0.42602 0.58218 0.0
O200 O 0.45234 0.37909 0.56495 0.0
O201 O 0.42148 0.37225 0.54488 0.0
C202 C 0.44586 0.38419 0.54912 0.0
C203 C 0.32746 0.31757 0.55015 0.0
C204 C 0.37943 0.45111 0.58772 0.0
C205 C 0.39469 0.25576 0.58885 0.0
O206 O 0.37156 0.27657 0.58586 0.0
O207 O 0.41536 0.27973 0.58248 0.0
O208 O 0.3211 0.32442 0.56595 0.0
O209 O 0.35183 0.32884 0.54572 0.0
O210 O 0.37213 0.42965 0.18288 0.0
Cd211 Cd 0.36013 0.35973 0.19753 0.0
Cd212 Cd 0.41534 0.34536 0.19764 0.0
O213 O 0.41603 0.42607 0.18562 0.0
O214 O 0.32188 0.37887 0.20214 0.0
O215 O 0.35237 0.37329 0.22247 0.0
C216 C 0.32803 0.38464 0.218 0.0
C217 C 0.44681 0.31976 0.2184 0.0
C218 C 0.39514 0.45078 0.17979 0.0
C219 C 0.38066 0.2549 0.17947 0.0
O220 O 0.40363 0.27596 0.18271 0.0
O221 O 0.35969 0.27937 0.1853 0.0
O222 O 0.45342 0.32587 0.20262 0.0
O223 O 0.42236 0.33119 0.22263 0.0
H224 H 0.275 0.29058 0.55605 0.0
H225 H 0.24997 0.16078 0.46249 0.0
H226 H 0.335 0.28912 0.51643 0.0
H227 H 0.18988 0.16257 0.50205 0.0
H228 H 0.28152 0.20629 0.48219 0.0
H229 H 0.24354 0.24428 0.53644 0.0
C230 C 0.28153 0.28091 0.54317 0.0
C231 C 0.30772 0.29382 0.53788 0.0
C232 C 0.26148 0.19655 0.48661 0.0
C233 C 0.27175 0.24014 0.51536 0.0
C234 C 0.24344 0.17032 0.47538 0.0
C235 C 0.21718 0.15781 0.48062 0.0
C236 C 0.25327 0.21061 0.50324 0.0
C237 C 0.20991 0.1713 0.49746 0.0
C238 C 0.26355 0.25422 0.53199 0.0
C239 C 0.31501 0.2801 0.52105 0.0
N240 N 0.22782 0.19715 0.50815 0.0
N241 N 0.29715 0.25387 0.51041 0.0
H242 H 0.99893 0.91561 0.55534 0.0
H243 H 0.02547 0.04525 0.46192 0.0
H244 H 0.93966 0.91638 0.51532 0.0
H245 H 0.08494 0.04335 0.50182 0.0
H246 H 0.99367 -0.00071 0.48139 0.0
H247 H 0.03075 0.9615 0.53587 0.0
C248 C 0.99264 0.92501 0.5424 0.0
C249 C 0.96654 0.91209 0.53696 0.0
C250 C 0.01363 0.00908 0.48593 0.0
C251 C 1.00293 0.96532 0.5146 0.0
C252 C 0.03181 0.03559 0.47483 0.0
C253 C 0.05796 0.04822 0.48024 0.0
C254 C 0.02159 -0.00509 0.50259 0.0
C255 C 0.06499 0.03453 0.4971 0.0
C256 C 1.01083 0.95146 0.5313 0.0
C257 C 0.95957 0.92543 0.52006 0.0
N258 N 0.04694 0.00845 0.50766 0.0
N259 N 0.97763 0.95149 0.5095 0.0
H260 H 0.33629 0.90867 0.75294 0.0
H261 H 0.1893 0.04411 0.76569 0.0
H262 H 0.27674 0.91567 0.71314 0.0
H263 H 0.24921 0.03914 0.8053 0.0
H264 H 0.2211 -0.00267 0.74619 0.0
H265 H 0.30436 0.95476 0.77251 0.0
C266 C 0.31644 0.91941 0.74836 0.0
C267 C 0.3092 0.90827 0.73137 0.0
C268 C 0.22731 0.00666 0.75913 0.0
C269 C 0.27263 0.96164 0.75363 0.0
C270 C 0.20918 0.03361 0.77025 0.0
C271 C 0.21657 0.04561 0.78716 0.0
C272 C 0.25301 -0.00854 0.76497 0.0
C273 C 0.24261 0.03078 0.79238 0.0
C274 C 0.29825 0.946 0.75951 0.0
C275 C 0.28322 0.92341 0.72612 0.0
N276 N 0.25983 0.00438 0.78135 0.0
N277 N 0.26594 0.94943 0.73718 0.0
H278 H 0.08706 0.16152 0.76504 0.0
H279 H 0.94005 0.29623 0.75188 0.0
H280 H 0.02679 0.16604 0.80447 0.0
H281 H 1.00056 0.2931 0.71259 0.0
H282 H 0.97163 0.24901 0.77142 0.0
H283 H 0.05538 0.20815 0.74544 0.0
C284 C 0.06711 0.17181 0.76953 0.0
C285 C 0.0596 0.15985 0.78643 0.0
C286 C 0.97803 0.25885 0.75854 0.0
C287 C 0.02331 0.21384 0.76414 0.0
C288 C 0.96003 0.28608 0.7474 0.0
C289 C 0.96765 0.29868 0.73057 0.0
C290 C 1.00383 0.24402 0.7528 0.0
C291 C 0.99379 0.28425 0.72545 0.0
C292 C 0.04906 0.19871 0.75837 0.0
C293 C 0.03349 0.17443 0.79157 0.0
N294 N 1.01088 0.25758 0.73649 0.0
N295 N 0.01634 0.20078 0.7805 0.0
H296 H 0.77447 0.79501 0.55553 0.0
H297 H 0.74805 0.66687 0.46194 0.0
H298 H 0.83371 0.79545 0.51545 0.0
H299 H 0.68902 0.66515 0.50214 0.0
H300 H 0.77974 0.7131 0.4814 0.0
H301 H 0.7428 0.74866 0.53607 0.0
C302 C 0.78078 0.78577 0.54258 0.0
C303 C 0.80683 0.79919 0.53712 0.0
C304 C 0.7599 0.70244 0.48601 0.0
C305 C 0.77061 0.74545 0.51477 0.0
C306 C 0.74178 0.67579 0.47491 0.0
C307 C 0.71578 0.66206 0.48041 0.0
C308 C 0.75203 0.71568 0.50277 0.0
C309 C 0.70885 0.67483 0.49736 0.0
C310 C 0.76267 0.75905 0.53149 0.0
C311 C 0.81384 0.78602 0.5202 0.0
N312 N 0.72683 0.70109 0.50792 0.0
N313 N 0.79586 0.75973 0.50965 0.0
H314 H 0.74979 0.04402 0.30554 0.0
H315 H 0.77457 0.91225 0.21216 0.0
H316 H 0.68977 0.0428 0.26598 0.0
H317 H 0.83452 0.91314 0.25176 0.0
H318 H 0.74317 0.9591 0.23175 0.0
H319 H 0.78118 -0.00278 0.28594 0.0
C320 C 0.74324 0.03433 0.29268 0.0
C321 C 0.71706 0.0474 0.28741 0.0
C322 C 0.76315 0.94889 0.2362 0.0
C323 C 0.75295 -0.00687 0.2649 0.0
C324 C 0.7811 0.92188 0.22503 0.0
C325 C 0.80726 0.90869 0.23032 0.0
C326 C 0.77136 0.96302 0.25282 0.0
C327 C 0.81455 0.92238 0.24714 0.0
C328 C 0.76119 0.00734 0.28151 0.0
C329 C 0.70975 0.03365 0.27059 0.0
N330 N 0.79672 0.94895 0.25777 0.0
N331 N 0.72757 0.0071 0.25996 0.0
H332 H 0.99894 0.79118 0.21188 0.0
H333 H 0.0258 0.6669 0.30587 0.0
H334 H 0.93994 0.79395 0.25209 0.0
H335 H 0.08474 0.66379 0.26562 0.0
H336 H 0.99407 0.71279 0.28633 0.0
H337 H 0.03077 0.74593 0.23147 0.0
C338 C 0.99271 0.78271 0.22488 0.0
C339 C 0.96668 0.79642 0.23034 0.0
C340 C 0.0139 0.70192 0.28173 0.0
C341 C 1.00308 0.74392 0.25285 0.0
C342 C 0.03204 0.67547 0.29287 0.0
C343 C 0.05802 0.66141 0.28738 0.0
C344 C 0.02173 0.71461 0.26493 0.0
C345 C 0.06493 0.67373 0.2704 0.0
C346 C 1.01091 0.75661 0.23605 0.0
C347 C 0.95979 0.78426 0.24734 0.0
N348 N 0.04692 0.69977 0.2598 0.0
N349 N 0.97785 0.75853 0.25797 0.0
H350 H 0.2761 0.78968 0.05588 0.0
H351 H 0.24939 0.66292 0.96217 0.0
H352 H 0.33518 0.79085 0.0157 0.0
H353 H 0.19025 0.66196 1.00231 0.0
H354 H 0.28123 0.70827 0.98171 0.0
H355 H 0.24438 0.74349 0.03643 0.0
C356 C 0.28237 0.78062 0.04292 0.0
C357 C 0.30838 0.79423 0.03742 0.0
C358 C 0.26134 0.69796 0.98629 0.0
C359 C 0.27211 0.74067 0.01508 0.0
C360 C 0.24314 0.67182 0.97515 0.0
C361 C 0.21706 0.6586 0.9806 0.0
C362 C 0.25346 0.71122 1.00305 0.0
C363 C 0.21013 0.67127 0.99756 0.0
C364 C 0.26424 0.75399 0.03183 0.0
C365 C 0.31534 0.78127 0.02049 0.0
N366 N 0.2282 0.69706 1.00816 0.0
N367 N 0.29733 0.75508 0.00993 0.0
H368 H 0.08624 0.5441 1.00216 0.0
H369 H 0.93885 0.41209 0.01543 0.0
H370 H 0.02584 0.54141 0.96284 0.0
H371 H 0.99922 0.41505 0.05477 0.0
H372 H 0.97059 0.45857 0.99585 0.0
H373 H 0.05447 0.49779 0.02175 0.0
C374 C 0.06625 0.53421 0.99768 0.0
C375 C 0.05872 0.54668 0.98083 0.0
C376 C 0.97692 0.44886 1.00875 0.0
C377 C 0.02232 0.49309 1.00312 0.0
C378 C 0.95883 0.42207 0.01991 0.0
C379 C 0.96637 0.40962 0.03677 0.0
C380 C 1.00273 0.46339 0.01449 0.0
C381 C 0.99251 0.4238 0.04189 0.0
C382 C 0.04814 0.50752 0.00885 0.0
C383 C 0.03256 0.53263 0.97571 0.0
N384 N 1.00969 0.45002 0.03082 0.0
N385 N 0.01536 0.50649 0.98678 0.0
H386 H 0.27558 0.41157 0.21202 0.0
H387 H 0.24967 0.54027 0.30564 0.0
H388 H 0.33513 0.41152 0.25187 0.0
H389 H 0.19032 0.54141 0.26567 0.0
H390 H 0.28124 0.49364 0.28611 0.0
H391 H 0.24392 0.45756 0.23161 0.0
C392 C 0.28196 0.4208 0.22495 0.0
C393 C 0.3081 0.40764 0.2303 0.0
C394 C 0.26135 0.50424 0.28157 0.0
C395 C 0.2719 0.46099 0.2528 0.0
C396 C 0.24331 0.53111 0.2927 0.0
C397 C 0.21726 0.54483 0.28728 0.0
C398 C 0.25336 0.49078 0.26486 0.0
C399 C 0.21019 0.53176 0.27039 0.0
C400 C 0.26386 0.44732 0.23611 0.0
C401 C 0.31519 0.42077 0.2472 0.0
N402 N 0.22811 0.50531 0.25979 0.0
N403 N 0.29722 0.4469 0.25782 0.0
H404 H 0.68939 0.1607 1.0023 0.0
H405 H 0.83663 0.29395 0.01506 0.0
H406 H 0.74923 0.16573 0.96261 0.0
H407 H 0.77687 0.28847 0.0548 0.0
H408 H 0.80468 0.24814 0.99551 0.0
H409 H 0.7213 0.2067 0.02184 0.0
C410 C 0.70929 0.17102 0.99773 0.0
C411 C 0.71662 0.15932 0.98079 0.0
C412 C 0.79853 0.25716 1.00849 0.0
C413 C 0.75318 0.21256 1.00302 0.0
C414 C 0.81674 0.28358 0.01964 0.0
C415 C 0.80944 0.29509 0.0366 0.0
C416 C 0.77284 0.24206 0.01435 0.0
C417 C 0.7834 0.28044 0.04184 0.0
C418 C 0.72747 0.19754 0.00886 0.0
C419 C 0.74267 0.17391 0.97555 0.0
N420 N 0.7661 0.25458 0.03079 0.0
N421 N 0.75995 0.19987 0.9866 0.0
H422 H 0.69053 0.54492 0.76523 0.0
H423 H 0.83812 0.41307 0.75217 0.0
H424 H 0.75046 0.54033 0.80483 0.0
H425 H 0.7781 0.41741 0.71262 0.0
H426 H 0.80612 0.45862 0.77179 0.0
H427 H 0.7225 0.4991 0.74565 0.0
C428 C 0.71046 0.53473 0.76977 0.0
C429 C 0.7178 0.54652 0.7867 0.0
C430 C 0.79992 0.4494 0.75883 0.0
C431 C 0.75444 0.49348 0.76442 0.0
C432 C 0.81816 0.42314 0.74765 0.0
C433 C 0.8108 0.4114 0.73072 0.0
C434 C 0.77415 0.46412 0.75305 0.0
C435 C 0.78468 0.42564 0.72556 0.0
C436 C 0.72868 0.50831 0.75861 0.0
C437 C 0.7439 0.53209 0.79189 0.0
N438 N 0.76735 0.45137 0.73664 0.0
N439 N 0.76121 0.50623 0.78082 0.0
H440 H 0.58682 0.04363 1.00217 0.0
H441 H 0.43962 0.91026 0.0151 0.0
H442 H 0.52691 0.03873 0.96257 0.0
H443 H 0.49935 0.9161 0.05481 0.0
H444 H 0.47154 0.95609 0.99552 0.0
H445 H 0.55494 -0.00242 0.02175 0.0
C446 C 0.56692 0.03331 0.99763 0.0
C447 C 0.55955 0.04509 0.9807 0.0
C448 C 0.47769 0.94714 1.0085 0.0
C449 C 0.52303 -0.0082 1.00297 0.0
C450 C 0.45949 0.92072 0.01967 0.0
C451 C 0.46679 0.9093 0.03662 0.0
C452 C 0.50337 0.96233 0.01434 0.0
C453 C 0.49282 0.92406 0.04185 0.0
C454 C 0.54875 0.00677 1.00878 0.0
C455 C 0.53349 0.03051 0.9755 0.0
N456 N 0.51011 0.94992 0.03077 0.0
N457 N 0.51623 0.00452 0.98657 0.0
H458 H 0.43891 0.29414 0.25228 0.0
H459 H 0.58633 0.16138 0.26526 0.0
H460 H 0.49915 0.29076 0.21281 0.0
H461 H 0.52629 0.16584 0.30484 0.0
H462 H 0.55442 0.20738 0.24569 0.0
H463 H 0.47074 0.24776 0.27182 0.0
C464 C 0.45888 0.28411 0.24776 0.0
C465 C 0.46635 0.29639 0.23088 0.0
C466 C 0.5482 0.19808 0.25864 0.0
C467 C 0.50282 0.2427 0.25311 0.0
C468 C 0.56638 0.17154 0.26979 0.0
C469 C 0.559 0.15972 0.28672 0.0
C470 C 0.52245 0.21299 0.26445 0.0
C471 C 0.53289 0.17412 0.29191 0.0
C472 C 0.47702 0.25737 0.2589 0.0
C473 C 0.49249 0.28215 0.22571 0.0
N474 N 0.51562 0.20011 0.28085 0.0
N475 N 0.50972 0.25595 0.23676 0.0
H476 H 0.43977 0.79225 0.75226 0.0
H477 H 0.58702 0.65825 0.76498 0.0
H478 H 0.49942 0.78609 0.71246 0.0
H479 H 0.52735 0.66448 0.80476 0.0
H480 H 0.55498 0.70369 0.74538 0.0
H481 H 0.47169 0.74597 0.77177 0.0
C482 C 0.45963 0.78159 0.74765 0.0
C483 C 0.46691 0.79312 0.7307 0.0
C484 C 0.54887 0.69489 0.75839 0.0
C485 C 0.50348 0.73958 0.7529 0.0
C486 C 0.56713 0.6687 0.76956 0.0
C487 C 0.55989 0.65753 0.78654 0.0
C488 C 0.52318 0.71014 0.76425 0.0
C489 C 0.53384 0.67225 0.79178 0.0
C490 C 0.47782 0.75492 0.75877 0.0
C491 C 0.49291 0.77809 0.72542 0.0
N492 N 0.5165 0.69792 0.78071 0.0
N493 N 0.51019 0.75201 0.73645 0.0
H494 H 0.43809 0.40861 0.51515 0.0
H495 H 0.58499 0.54359 0.50222 0.0
H496 H 0.49812 0.41352 0.55469 0.0
H497 H 0.52502 0.53868 0.46265 0.0
H498 H 0.55333 0.49647 0.52171 0.0
H499 H 0.46989 0.45482 0.49555 0.0
C500 C 0.45801 0.41891 0.51967 0.0
C501 C 0.46542 0.40717 0.53659 0.0
C502 C 0.54707 0.50588 0.50878 0.0
C503 C 0.50184 0.46068 0.5143 0.0
C504 C 0.56512 0.53304 0.49766 0.0
C505 C 0.55767 0.54516 0.48077 0.0
C506 C 0.52139 0.49064 0.50296 0.0
C507 C 0.53166 0.53023 0.47556 0.0
C508 C 0.47613 0.44556 0.5085 0.0
C509 C 0.4915 0.42174 0.54176 0.0
N510 N 0.51451 0.50367 0.48658 0.0
N511 N 0.5087 0.44786 0.53069 0.0
H512 H 0.19119 0.74532 0.35329 0.0
H513 H 0.10415 0.93865 0.41757 0.0
H514 H 0.10564 0.76981 0.35009 0.0
H515 H 0.18979 0.9603 0.41377 0.0
H516 H 0.10586 0.86672 0.39479 0.0
H517 H 0.19259 0.81807 0.37647 0.0
C518 C 0.17281 0.7665 0.35726 0.0
C519 C 0.14822 0.75106 0.34982 0.0
C520 C 0.12434 0.88701 0.39891 0.0
C521 C 0.14967 0.83293 0.3764 0.0
C522 C 0.12342 0.92793 0.41204 0.0
C523 C 0.14684 0.95607 0.4175 0.0
C524 C 0.14887 0.87369 0.39111 0.0
C525 C 0.17123 0.93974 0.40991 0.0
C526 C 0.17362 0.80767 0.37054 0.0
C527 C 0.12502 0.77974 0.35552 0.0
N528 N 0.17163 0.89971 0.39699 0.0
N529 N 0.12632 0.81877 0.36852 0.0
H530 H 0.17141 0.26962 0.41802 0.0
H531 H 0.08443 0.46215 0.35351 0.0
H532 H 0.08585 0.24724 0.41399 0.0
H533 H 0.1701 0.43895 0.35063 0.0
H534 H 0.08304 0.38961 0.37675 0.0
H535 H 0.16974 0.34191 0.39533 0.0
C536 C 0.15217 0.28026 0.41246 0.0
C537 C 0.12876 0.25181 0.41782 0.0
C538 C 0.10204 0.40027 0.37088 0.0
C539 C 0.12677 0.33457 0.39153 0.0
C540 C 0.10285 0.44132 0.35757 0.0
C541 C 0.12746 0.45702 0.35019 0.0
C542 C 0.12601 0.37539 0.37684 0.0
C543 C 0.15069 0.42879 0.356 0.0
C544 C 0.15126 0.32139 0.39939 0.0
C545 C 0.1044 0.26804 0.41021 0.0
N546 N 0.14939 0.38985 0.36903 0.0
N547 N 0.10402 0.30825 0.39732 0.0
H548 H 0.10525 0.27566 0.8475 0.0
H549 H 0.19038 0.46043 0.91486 0.0
H550 H 0.18993 0.24597 0.85431 0.0
H551 H 0.10422 0.44585 0.91471 0.0
H552 H 0.19232 0.38856 0.89146 0.0
H553 H 0.10644 0.34883 0.86998 0.0
C554 C 0.12421 0.2849 0.85363 0.0
C555 C 0.14748 0.25412 0.84912 0.0
C556 C 0.17307 0.40102 0.89669 0.0
C557 C 0.14889 0.33779 0.87518 0.0
C558 C 0.17194 0.4417 0.91008 0.0
C559 C 0.14708 0.45951 0.9167 0.0
C560 C 0.14919 0.37864 0.88987 0.0
C561 C 0.12384 0.43394 0.90998 0.0
C562 C 0.12483 0.32654 0.86657 0.0
C563 C 0.17151 0.26861 0.85742 0.0
N564 N 0.12548 0.39528 0.8969 0.0
N565 N 0.17158 0.30926 0.87018 0.0
H566 H 0.16989 0.77561 0.92024 0.0
H567 H 0.08462 0.96115 0.85305 0.0
H568 H 0.08516 0.74653 0.91362 0.0
H569 H 0.17073 0.94487 0.85285 0.0
H570 H 0.0827 0.88937 0.87648 0.0
H571 H 0.16863 0.84865 0.89772 0.0
C572 C 0.1509 0.78497 0.91415 0.0
C573 C 0.12764 0.75438 0.91871 0.0
C574 C 0.10192 0.90143 0.87116 0.0
C575 C 0.12614 0.8379 0.89262 0.0
C576 C 0.10305 0.94206 0.85776 0.0
C577 C 0.12789 0.95938 0.85104 0.0
C578 C 0.12581 0.87864 0.8779 0.0
C579 C 0.15112 0.93336 0.85767 0.0
C580 C 0.15024 0.82652 0.90118 0.0
C581 C 0.10358 0.76902 0.91046 0.0
N582 N 0.14949 0.89478 0.87077 0.0
N583 N 0.10346 0.80959 0.89768 0.0
H584 H 0.92269 0.19255 0.66644 0.0
H585 H 0.83406 -0.00092 0.60325 0.0
H586 H 0.8369 0.21357 0.66377 0.0
H587 H 0.91956 0.02253 0.59922 0.0
H588 H 0.83324 0.07224 0.62633 0.0
H589 H 0.92049 0.12087 0.64362 0.0
C590 C 0.90329 0.18176 0.66115 0.0
C591 C 0.87996 0.2096 0.66696 0.0
C592 C 0.85207 0.06153 0.62024 0.0
C593 C 0.87734 0.1275 0.64052 0.0
C594 C 0.85255 0.02013 0.60702 0.0
C595 C 0.87696 0.00425 0.59939 0.0
C596 C 0.87618 0.08661 0.62585 0.0
C597 C 0.90031 0.03278 0.60482 0.0
C598 C 0.90207 0.14098 0.648 0.0
C599 C 0.85539 0.19322 0.65966 0.0
N600 N 0.89934 0.07206 0.61777 0.0
N601 N 0.85471 0.15331 0.64671 0.0
H602 H 0.94198 0.50089 0.66428 0.0
H603 H 0.85389 0.68981 0.5995 0.0
H604 H 0.85612 0.5205 0.66689 0.0
H605 H 0.93926 0.71516 0.60366 0.0
H606 H 0.85596 0.61795 0.62229 0.0
H607 H 0.94294 0.57367 0.6411 0.0
C608 C 0.92343 0.521 0.66017 0.0
C609 C 0.8989 0.50419 0.66746 0.0
C610 C 0.87431 0.63905 0.61825 0.0
C611 C 0.89986 0.58607 0.64087 0.0
C612 C 0.87317 0.67992 0.60512 0.0
C613 C 0.89641 0.70905 0.59974 0.0
C614 C 0.89886 0.6268 0.62616 0.0
C615 C 0.92085 0.69379 0.60744 0.0
C616 C 0.92399 0.56218 0.6469 0.0
C617 C 0.87548 0.53153 0.6616 0.0
N618 N 0.92144 0.65381 0.62037 0.0
N619 N 0.87655 0.5706 0.64859 0.0
H620 H 0.83449 0.49541 0.1025 0.0
H621 H 0.91919 0.67855 0.17043 0.0
H622 H 0.92067 0.50956 0.103 0.0
H623 H 0.83479 0.71021 0.16304 0.0
H624 H 0.91804 0.60537 0.14795 0.0
H625 H 0.8324 0.56708 0.12595 0.0
C626 C 0.85291 0.514 0.10737 0.0
C627 C 0.87781 0.49613 0.10083 0.0
C628 C 0.89969 0.6281 0.15123 0.0
C629 C 0.87553 0.57673 0.12773 0.0
C630 C 0.9003 0.66973 0.16417 0.0
C631 C 0.87711 0.70109 0.16851 0.0
C632 C 0.87573 0.61744 0.14245 0.0
C633 C 0.85315 0.68712 0.16006 0.0
C634 C 0.85168 0.55457 0.12079 0.0
C635 C 0.90101 0.52153 0.10766 0.0
N636 N 0.8531 0.64648 0.14729 0.0
N637 N 0.89928 0.56005 0.12078 0.0
H638 H 0.85362 0.01653 0.16742 0.0
H639 H 0.9412 0.20655 0.10272 0.0
H640 H 0.93901 -0.00886 0.16308 0.0
H641 H 0.85544 0.18559 0.09998 0.0
H642 H 0.94238 0.13345 0.12582 0.0
H643 H 0.85555 0.08838 0.14462 0.0
C644 C 0.87288 0.02638 0.16175 0.0
C645 C 0.89616 -0.00274 0.16708 0.0
C646 C 0.92341 0.14471 0.12001 0.0
C647 C 0.89845 0.07954 0.14067 0.0
C648 C 0.92272 0.18608 0.10678 0.0
C649 C 0.89815 0.20261 0.09949 0.0
C650 C 0.89935 0.12036 0.12598 0.0
C651 C 0.87482 0.1748 0.10529 0.0
C652 C 0.87393 0.06726 0.14863 0.0
C653 C 0.92056 0.0125 0.15934 0.0
N654 N 0.876 0.13556 0.11825 0.0
N655 N 0.92108 0.05252 0.14641 0.0
H656 H 0.60615 0.77339 0.84777 0.0
H657 H 0.69152 0.95788 0.91501 0.0
H658 H 0.69079 0.743 0.85451 0.0
H659 H 0.6054 0.94233 0.91523 0.0
H660 H 0.69339 0.88584 0.89165 0.0
H661 H 0.60746 0.84618 0.87036 0.0
C662 C 0.62512 0.78239 0.85391 0.0
C663 C 0.64835 0.75153 0.84935 0.0
C664 C 0.67418 0.8981 0.89696 0.0
C665 C 0.64991 0.83477 0.87551 0.0
C666 C 0.67308 0.93888 0.91033 0.0
C667 C 0.64825 0.95651 0.91703 0.0
C668 C 0.65027 0.87548 0.89024 0.0
C669 C 0.625 0.93059 0.91043 0.0
C670 C 0.62582 0.8238 0.86691 0.0
C671 C 0.6724 0.76571 0.85766 0.0
N672 N 0.6266 0.89188 0.89736 0.0
N673 N 0.67255 0.80617 0.87048 0.0
H674 H 0.58487 0.24725 0.91481 0.0
H675 H 0.67172 0.43473 0.84905 0.0
H676 H 0.67083 0.26578 0.91651 0.0
H677 H 0.58664 0.46254 0.85441 0.0
H678 H 0.66999 0.36246 0.87175 0.0
H679 H 0.58347 0.31991 0.8916 0.0
C680 C 0.60336 0.26707 0.91049 0.0
C681 C 0.62803 0.25003 0.91754 0.0
C682 C 0.65163 0.38418 0.86798 0.0
C683 C 0.62656 0.33176 0.89092 0.0
C684 C 0.65257 0.42531 0.85491 0.0
C685 C 0.62933 0.45526 0.84992 0.0
C686 C 0.62728 0.37254 0.87621 0.0
C687 C 0.60505 0.44054 0.8579 0.0
C688 C 0.60254 0.30819 0.8972 0.0
C689 C 0.65136 0.27701 0.91141 0.0
N690 N 0.60465 0.40032 0.87078 0.0
N691 N 0.65004 0.31602 0.8984 0.0
H692 H 0.60469 0.27502 0.34804 0.0
H693 H 0.68987 0.46222 0.41475 0.0
H694 H 0.68958 0.24694 0.35433 0.0
H695 H 0.60386 0.444 0.41548 0.0
H696 H 0.69186 0.39022 0.39137 0.0
H697 H 0.60589 0.34799 0.37057 0.0
C698 C 0.62369 0.28457 0.35407 0.0
C699 C 0.64702 0.25428 0.3494 0.0
C700 C 0.67264 0.4019 0.3968 0.0
C701 C 0.64846 0.33775 0.37551 0.0
C702 C 0.67148 0.44264 0.41017 0.0
C703 C 0.64664 0.4595 0.41702 0.0
C704 C 0.64879 0.37852 0.39022 0.0
C705 C 0.62346 0.43287 0.41056 0.0
C706 C 0.62433 0.32608 0.36704 0.0
C707 C 0.67111 0.26918 0.35757 0.0
N708 N 0.62512 0.3942 0.39748 0.0
N709 N 0.6712 0.30972 0.37036 0.0
H710 H 0.5828 0.7474 0.4144 0.0
H711 H 0.6709 0.94072 0.35086 0.0
H712 H 0.66821 0.77237 0.41841 0.0
H713 H 0.58522 0.96313 0.35406 0.0
H714 H 0.66877 0.86909 0.3737 0.0
H715 H 0.58175 0.82058 0.39131 0.0
C716 C 0.60122 0.76879 0.41062 0.0
C717 C 0.62568 0.75333 0.41825 0.0
C718 C 0.65037 0.8895 0.36944 0.0
C719 C 0.62464 0.83566 0.39178 0.0
C720 C 0.65154 0.93026 0.35628 0.0
C721 C 0.62823 0.95849 0.35062 0.0
C722 C 0.6257 0.87643 0.37708 0.0
C723 C 0.6037 0.94248 0.35807 0.0
C724 C 0.60061 0.8102 0.3974 0.0
C725 C 0.64893 0.78228 0.41282 0.0
N726 N 0.60306 0.90258 0.37103 0.0
N727 N 0.64784 0.82152 0.39986 0.0
H728 H 0.42144 0.18703 0.16767 0.0
H729 H 0.33468 -0.0048 0.10301 0.0
H730 H 0.33591 0.21006 0.16348 0.0
H731 H 0.42038 0.0176 0.1003 0.0
H732 H 0.33321 0.06799 0.12618 0.0
H733 H 0.41986 0.11499 0.14492 0.0
C734 C 0.40222 0.1766 0.16206 0.0
C735 C 0.3788 0.20514 0.16741 0.0
C736 C 0.35224 0.05711 0.12036 0.0
C737 C 0.37691 0.12265 0.14105 0.0
C738 C 0.35309 0.01592 0.1071 0.0
C739 C 0.37773 -0.0001 0.09979 0.0
C740 C 0.37619 0.08182 0.12635 0.0
C741 C 0.40095 0.028 0.10562 0.0
C742 C 0.40137 0.13561 0.14895 0.0
C743 C 0.35446 0.18918 0.15972 0.0
N744 N 0.39961 0.06708 0.11861 0.0
N745 N 0.35414 0.14908 0.14681 0.0
H746 H 0.3546 0.51998 0.16836 0.0
H747 H 0.44145 0.71034 0.1033 0.0
H748 H 0.43997 0.4951 0.16375 0.0
H749 H 0.35571 0.68849 0.10083 0.0
H750 H 0.4429 0.63795 0.12659 0.0
H751 H 0.35631 0.59234 0.14569 0.0
C752 C 0.37381 0.53009 0.16267 0.0
C753 C 0.39715 0.5009 0.16786 0.0
C754 C 0.42388 0.64888 0.1208 0.0
C755 C 0.39918 0.58373 0.1416 0.0
C756 C 0.42303 0.68984 0.10746 0.0
C757 C 0.39839 0.70587 0.10018 0.0
C758 C 0.39991 0.62444 0.12688 0.0
C759 C 0.37515 0.67807 0.10612 0.0
C760 C 0.37474 0.57126 0.14961 0.0
C761 C 0.42149 0.51649 0.1601 0.0
N762 N 0.37648 0.63922 0.11917 0.0
N763 N 0.42188 0.55673 0.14723 0.0
H764 H 0.33442 0.71126 0.66442 0.0
H765 H 0.42006 0.52104 0.59854 0.0
H766 H 0.42026 0.68985 0.66601 0.0
H767 H 0.33489 0.49557 0.6041 0.0
H768 H 0.41873 0.59389 0.6211 0.0
H769 H 0.33255 0.6391 0.64109 0.0
C770 C 0.35278 0.69094 0.66004 0.0
C771 C 0.37756 0.70698 0.66711 0.0
C772 C 0.40026 0.57259 0.6174 0.0
C773 C 0.37556 0.6258 0.64036 0.0
C774 C 0.40097 0.53114 0.6044 0.0
C775 C 0.37758 0.50162 0.59952 0.0
C776 C 0.376 0.58499 0.62566 0.0
C777 C 0.3534 0.5172 0.6075 0.0
C778 C 0.35169 0.6501 0.64669 0.0
C779 C 0.40071 0.6794 0.6609 0.0
N780 N 0.35324 0.55769 0.62031 0.0
N781 N 0.39914 0.64066 0.64784 0.0
H782 H 0.44052 0.20702 0.60261 0.0
H783 H 0.35627 0.02604 0.67132 0.0
H784 H 0.3543 0.19468 0.60385 0.0
H785 H 0.44025 -0.00844 0.66302 0.0
H786 H 0.35741 0.09937 0.64887 0.0
H787 H 0.44274 0.13532 0.62606 0.0
C788 C 0.42212 0.18883 0.60764 0.0
C789 C 0.39717 0.20721 0.6013 0.0
C790 C 0.37567 0.07599 0.65195 0.0
C791 C 0.39961 0.1266 0.6282 0.0
C792 C 0.37508 0.03428 0.66487 0.0
C793 C 0.39814 0.00209 0.66894 0.0
C794 C 0.39949 0.08589 0.64292 0.0
C795 C 0.42199 0.01532 0.66025 0.0
C796 C 0.42342 0.14825 0.62106 0.0
C797 C 0.37399 0.18232 0.60834 0.0
N798 N 0.42203 0.05605 0.64751 0.0
N799 N 0.3758 0.14378 0.62145 0.0
loop_
_geom_bond_atom_site_label_1
_geom_bond_atom_site_label_2
_geom_bond_distance
_geom_bond_site_symmetry_2
_ccdc_geom_bond_type
O0 Cd1 2.223 . S
O0 C8 1.315 . S
Cd1 O0 2.223 . S
Cd1 O4 2.297 . S
Cd1 O5 2.439 . S
Cd1 O11 2.240 . S
Cd2 O3 2.240 . S
Cd2 O10 2.223 . S
Cd2 O12 2.297 . S
Cd2 O13 2.439 . S
O3 Cd2 2.240 . S
O3 C8 1.279 . S
O4 Cd1 2.297 . S
O4 C6 1.247 . S
O5 Cd1 2.439 . S
O5 C6 1.208 . S
C6 O4 1.247 . S
C6 O5 1.208 . S
C7 O12 1.247 . S
C7 O13 1.208 . S
C8 O0 1.315 . S
C8 O3 1.279 . S
C9 O10 1.315 . S
C9 O11 1.279 . S
O10 Cd2 2.223 . S
O10 C9 1.315 . S
O11 Cd1 2.240 . S
O11 C9 1.279 . S
O12 Cd2 2.297 . S
O12 C7 1.247 . S
O13 Cd2 2.439 . S
O13 C7 1.208 . S
O14 Cd15 2.223 . S
O14 C22 1.315 . S
Cd15 O14 2.223 . S
Cd15 O18 2.297 . S
Cd15 O19 2.439 . S
Cd15 O25 2.240 . S
Cd16 O17 2.240 . S
Cd16 O24 2.223 . S
Cd16 O26 2.297 . S
Cd16 O27 2.439 . S
O17 Cd16 2.240 . S
O17 C22 1.279 . S
O18 Cd15 2.297 . S
O18 C20 1.247 . S
O19 Cd15 2.439 . S
O19 C20 1.208 . S
C20 O18 1.247 . S
C20 O19 1.208 . S
C21 O26 1.247 . S
C21 O27 1.208 . S
C22 O14 1.315 . S
C22 O17 1.279 . S
C23 O24 1.315 . S
C23 O25 1.279 . S
O24 Cd16 2.223 . S
O24 C23 1.315 . S
O25 Cd15 2.240 . S
O25 C23 1.279 . S
O26 Cd16 2.297 . S
O26 C21 1.247 . S
O27 Cd16 2.439 . S
O27 C21 1.208 . S
O28 Cd29 2.223 . S
O28 C36 1.315 . S
Cd29 O28 2.223 . S
Cd29 O32 2.297 . S
Cd29 O33 2.439 . S
Cd29 O39 2.240 . S
Cd30 O31 2.240 . S
Cd30 O38 2.223 . S
Cd30 O40 2.297 . S
Cd30 O41 2.439 . S
O31 Cd30 2.240 . S
O31 C36 1.279 . S
O32 Cd29 2.297 . S
O32 C34 1.247 . S
O33 Cd29 2.439 . S
O33 C34 1.208 . S
C34 O32 1.247 . S
C34 O33 1.208 . S
C35 O40 1.247 . S
C35 O41 1.208 . S
C36 O28 1.315 . S
C36 O31 1.279 . S
C37 O38 1.315 . S
C37 O39 1.279 . S
O38 Cd30 2.223 . S
O38 C37 1.315 . S
O39 Cd29 2.240 . S
O39 C37 1.279 . S
O40 Cd30 2.297 . S
O40 C35 1.247 . S
O41 Cd30 2.439 . S
O41 C35 1.208 . S
O42 Cd43 2.223 . S
O42 C50 1.315 . S
Cd43 O42 2.223 . S
Cd43 O46 2.297 . S
Cd43 O47 2.439 . S
Cd43 O53 2.240 . S
Cd44 O45 2.240 . S
Cd44 O52 2.223 . S
Cd44 O54 2.297 . S
Cd44 O55 2.439 . S
O45 Cd44 2.240 . S
O45 C50 1.279 . S
O46 Cd43 2.297 . S
O46 C48 1.247 . S
O47 Cd43 2.439 . S
O47 C48 1.208 . S
C48 O46 1.247 . S
C48 O47 1.208 . S
C49 O54 1.247 . S
C49 O55 1.208 . S
C50 O42 1.315 . S
C50 O45 1.279 . S
C51 O52 1.315 . S
C51 O53 1.279 . S
O52 Cd44 2.223 . S
O52 C51 1.315 . S
O53 Cd43 2.240 . S
O53 C51 1.279 . S
O54 Cd44 2.297 . S
O54 C49 1.247 . S
O55 Cd44 2.439 . S
O55 C49 1.208 . S
O56 Cd57 2.223 . S
O56 C64 1.315 . S
Cd57 O56 2.223 . S
Cd57 O60 2.297 . S
Cd57 O61 2.439 . S
Cd57 O67 2.240 . S
Cd58 O59 2.240 . S
Cd58 O66 2.223 . S
Cd58 O68 2.297 . S
Cd58 O69 2.439 . S
O59 Cd58 2.240 . S
O59 C64 1.279 . S
O60 Cd57 2.297 . S
O60 C62 1.247 . S
O61 Cd57 2.439 . S
O61 C62 1.208 . S
C62 O60 1.247 . S
C62 O61 1.208 . S
C63 O68 1.247 . S
C63 O69 1.208 . S
C64 O56 1.315 . S
C64 O59 1.279 . S
C65 O66 1.315 . S
C65 O67 1.279 . S
O66 Cd58 2.223 . S
O66 C65 1.315 . S
O67 Cd57 2.240 . S
O67 C65 1.279 . S
O68 Cd58 2.297 . S
O68 C63 1.247 . S
O69 Cd58 2.439 . S
O69 C63 1.208 . S
O70 Cd71 2.223 . S
O70 C78 1.315 . S
Cd71 O70 2.223 . S
Cd71 O74 2.297 . S
Cd71 O75 2.439 . S
Cd71 O81 2.240 . S
Cd72 O73 2.240 . S
Cd72 O80 2.223 . S
Cd72 O82 2.297 . S
Cd72 O83 2.439 . S
O73 Cd72 2.240 . S
O73 C78 1.279 . S
O74 Cd71 2.297 . S
O74 C76 1.247 . S
O75 Cd71 2.439 . S
O75 C76 1.208 . S
C76 O74 1.247 . S
C76 O75 1.208 . S
C77 O82 1.247 . S
C77 O83 1.208 . S
C78 O70 1.315 . S
C78 O73 1.279 . S
C79 O80 1.315 . S
C79 O81 1.279 . S
O80 Cd72 2.223 . S
O80 C79 1.315 . S
O81 Cd71 2.240 . S
O81 C79 1.279 . S
O82 Cd72 2.297 . S
O82 C77 1.247 . S
O83 Cd72 2.439 . S
O83 C77 1.208 . S
O84 Cd85 2.223 . S
O84 C92 1.315 . S
Cd85 O84 2.223 . S
Cd85 O88 2.297 . S
Cd85 O89 2.439 . S
Cd85 O95 2.240 . S
Cd86 O87 2.240 . S
Cd86 O94 2.223 . S
Cd86 O96 2.297 . S
Cd86 O97 2.439 . S
O87 Cd86 2.240 . S
O87 C92 1.279 . S
O88 Cd85 2.297 . S
O88 C90 1.247 . S
O89 Cd85 2.439 . S
O89 C90 1.208 . S
C90 O88 1.247 . S
C90 O89 1.208 . S
C91 O96 1.247 . S
C91 O97 1.208 . S
C92 O84 1.315 . S
C92 O87 1.279 . S
C93 O94 1.315 . S
C93 O95 1.279 . S
O94 Cd86 2.223 . S
O94 C93 1.315 . S
O95 Cd85 2.240 . S
O95 C93 1.279 . S
O96 Cd86 2.297 . S
O96 C91 1.247 . S
O97 Cd86 2.439 . S
O97 C91 1.208 . S
O98 Cd99 2.223 . S
O98 C106 1.315 . S
Cd99 O98 2.223 . S
Cd99 O102 2.297 . S
Cd99 O103 2.439 . S
Cd99 O109 2.240 . S
Cd100 O101 2.240 . S
Cd100 O108 2.223 . S
Cd100 O110 2.297 . S
Cd100 O111 2.439 . S
O101 Cd100 2.240 . S
O101 C106 1.279 . S
O102 Cd99 2.297 . S
O102 C104 1.247 . S
O103 Cd99 2.439 . S
O103 C104 1.208 . S
C104 O102 1.247 . S
C104 O103 1.208 . S
C105 O110 1.247 . S
C105 O111 1.208 . S
C106 O98 1.315 . S
C106 O101 1.279 . S
C107 O108 1.315 . S
C107 O109 1.279 . S
O108 Cd100 2.223 . S
O108 C107 1.315 . S
O109 Cd99 2.240 . S
O109 C107 1.279 . S
O110 Cd100 2.297 . S
O110 C105 1.247 . S
O111 Cd100 2.439 . S
O111 C105 1.208 . S
O112 Cd113 2.223 . S
O112 C120 1.315 . S
Cd113 O112 2.223 . S
Cd113 O116 2.297 . S
Cd113 O117 2.439 . S
Cd113 O123 2.240 . S
Cd114 O115 2.240 . S
Cd114 O122 2.223 . S
Cd114 O124 2.297 . S
Cd114 O125 2.439 . S
O115 Cd114 2.240 . S
O115 C120 1.279 . S
O116 Cd113 2.297 . S
O116 C118 1.247 . S
O117 Cd113 2.439 . S
O117 C118 1.208 . S
C118 O116 1.247 . S
C118 O117 1.208 . S
C119 O124 1.247 . S
C119 O125 1.208 . S
C120 O112 1.315 . S
C120 O115 1.279 . S
C121 O122 1.315 . S
C121 O123 1.279 . S
O122 Cd114 2.223 . S
O122 C121 1.315 . S
O123 Cd113 2.240 . S
O123 C121 1.279 . S
O124 Cd114 2.297 . S
O124 C119 1.247 . S
O125 Cd114 2.439 . S
O125 C119 1.208 . S
O126 Cd127 2.223 . S
O126 C134 1.315 . S
Cd127 O126 2.223 . S
Cd127 O130 2.297 . S
Cd127 O131 2.439 . S
Cd127 O137 2.240 . S
Cd128 O129 2.240 . S
Cd128 O136 2.223 . S
Cd128 O138 2.297 . S
Cd128 O139 2.439 . S
O129 Cd128 2.240 . S
O129 C134 1.279 . S
O130 Cd127 2.297 . S
O130 C132 1.247 . S
O131 Cd127 2.439 . S
O131 C132 1.208 . S
C132 O130 1.247 . S
C132 O131 1.208 . S
C133 O138 1.247 . S
C133 O139 1.208 . S
C134 O126 1.315 . S
C134 O129 1.279 . S
C135 O136 1.315 . S
C135 O137 1.279 . S
O136 Cd128 2.223 . S
O136 C135 1.315 . S
O137 Cd127 2.240 . S
O137 C135 1.279 . S
O138 Cd128 2.297 . S
O138 C133 1.247 . S
O139 Cd128 2.439 . S
O139 C133 1.208 . S
O140 Cd141 2.223 . S
O140 C148 1.315 . S
Cd141 O140 2.223 . S
Cd141 O144 2.297 . S
Cd141 O145 2.439 . S
Cd141 O151 2.240 . S
Cd142 O143 2.240 . S
Cd142 O150 2.223 . S
Cd142 O152 2.297 . S
Cd142 O153 2.439 . S
O143 Cd142 2.240 . S
O143 C148 1.279 . S
O144 Cd141 2.297 . S
O144 C146 1.247 . S
O145 Cd141 2.439 . S
O145 C146 1.208 . S
C146 O144 1.247 . S
C146 O145 1.208 . S
C147 O152 1.247 . S
C147 O153 1.208 . S
C148 O140 1.315 . S
C148 O143 1.279 . S
C149 O150 1.315 . S
C149 O151 1.279 . S
O150 Cd142 2.223 . S
O150 C149 1.315 . S
O151 Cd141 2.240 . S
O151 C149 1.279 . S
O152 Cd142 2.297 . S
O152 C147 1.247 . S
O153 Cd142 2.439 . S
O153 C147 1.208 . S
O154 Cd155 2.223 . S
O154 C162 1.315 . S
Cd155 O154 2.223 . S
Cd155 O158 2.297 . S
Cd155 O159 2.439 . S
Cd155 O165 2.240 . S
Cd156 O157 2.240 . S
Cd156 O164 2.223 . S
Cd156 O166 2.297 . S
Cd156 O167 2.439 . S
O157 Cd156 2.240 . S
O157 C162 1.279 . S
O158 Cd155 2.297 . S
O158 C160 1.247 . S
O159 Cd155 2.439 . S
O159 C160 1.208 . S
C160 O158 1.247 . S
C160 O159 1.208 . S
C161 O166 1.247 . S
C161 O167 1.208 . S
C162 O154 1.315 . S
C162 O157 1.279 . S
C163 O164 1.315 . S
C163 O165 1.279 . S
O164 Cd156 2.223 . S
O164 C163 1.315 . S
O165 Cd155 2.240 . S
O165 C163 1.279 . S
O166 Cd156 2.297 . S
O166 C161 1.247 . S
O167 Cd156 2.439 . S
O167 C161 1.208 . S
O168 Cd169 2.223 . S
O168 C176 1.315 . S
Cd169 O168 2.223 . S
Cd169 O172 2.297 . S
Cd169 O173 2.439 . S
Cd169 O179 2.240 . S
Cd170 O171 2.240 . S
Cd170 O178 2.223 . S
Cd170 O180 2.297 . S
Cd170 O181 2.439 . S
O171 Cd170 2.240 . S
O171 C176 1.279 . S
O172 Cd169 2.297 . S
O172 C174 1.247 . S
O173 Cd169 2.439 . S
O173 C174 1.208 . S
C174 O172 1.247 . S
C174 O173 1.208 . S
C175 O180 1.247 . S
C175 O181 1.208 . S
C176 O168 1.315 . S
C176 O171 1.279 . S
C177 O178 1.315 . S
C177 O179 1.279 . S
O178 Cd170 2.223 . S
O178 C177 1.315 . S
O179 Cd169 2.240 . S
O179 C177 1.279 . S
O180 Cd170 2.297 . S
O180 C175 1.247 . S
O181 Cd170 2.439 . S
O181 C175 1.208 . S
O182 Cd183 2.223 . S
O182 C190 1.315 . S
Cd183 O182 2.223 . S
Cd183 O186 2.297 . S
Cd183 O187 2.439 . S
Cd183 O193 2.240 . S
Cd184 O185 2.240 . S
Cd184 O192 2.223 . S
Cd184 O194 2.297 . S
Cd184 O195 2.439 . S
O185 Cd184 2.240 . S
O185 C190 1.279 . S
O186 Cd183 2.297 . S
O186 C188 1.247 . S
O187 Cd183 2.439 . S
O187 C188 1.208 . S
C188 O186 1.247 . S
C188 O187 1.208 . S
C189 O194 1.247 . S
C189 O195 1.208 . S
C190 O182 1.315 . S
C190 O185 1.279 . S
C191 O192 1.315 . S
C191 O193 1.279 . S
O192 Cd184 2.223 . S
O192 C191 1.315 . S
O193 Cd183 2.240 . S
O193 C191 1.279 . S
O194 Cd184 2.297 . S
O194 C189 1.247 . S
O195 Cd184 2.439 . S
O195 C189 1.208 . S
O196 Cd197 2.223 . S
O196 C204 1.315 . S
Cd197 O196 2.223 . S
Cd197 O200 2.297 . S
Cd197 O201 2.439 . S
Cd197 O207 2.240 . S
Cd198 O199 2.240 . S
Cd198 O206 2.223 . S
Cd198 O208 2.297 . S
Cd198 O209 2.439 . S
O199 Cd198 2.240 . S
O199 C204 1.279 . S
O200 Cd197 2.297 . S
O200 C202 1.247 . S
O201 Cd197 2.439 . S
O201 C202 1.208 . S
C202 O200 1.247 . S
C202 O201 1.208 . S
C203 O208 1.247 . S
C203 O209 1.208 . S
C204 O196 1.315 . S
C204 O199 1.279 . S
C205 O206 1.315 . S
C205 O207 1.279 . S
O206 Cd198 2.223 . S
O206 C205 1.315 . S
O207 Cd197 2.240 . S
O207 C205 1.279 . S
O208 Cd198 2.297 . S
O208 C203 1.247 . S
O209 Cd198 2.439 . S
O209 C203 1.208 . S
O210 Cd211 2.223 . S
O210 C218 1.315 . S
Cd211 O210 2.223 . S
Cd211 O214 2.297 . S
Cd211 O215 2.439 . S
Cd211 O221 2.240 . S
Cd212 O213 2.240 . S
Cd212 O220 2.223 . S
Cd212 O222 2.297 . S
Cd212 O223 2.439 . S
O213 Cd212 2.240 . S
O213 C218 1.279 . S
O214 Cd211 2.297 . S
O214 C216 1.247 . S
O215 Cd211 2.439 . S
O215 C216 1.208 . S
C216 O214 1.247 . S
C216 O215 1.208 . S
C217 O222 1.247 . S
C217 O223 1.208 . S
C218 O210 1.315 . S
C218 O213 1.279 . S
C219 O220 1.315 . S
C219 O221 1.279 . S
O220 Cd212 2.223 . S
O220 C219 1.315 . S
O221 Cd211 2.240 . S
O221 C219 1.279 . S
O222 Cd212 2.297 . S
O222 C217 1.247 . S
O223 Cd212 2.439 . S
O223 C217 1.208 . S
H224 C230 0.930 . S
H225 C234 0.930 . S
H226 C239 0.929 . S
H227 C237 0.929 . S
H228 C232 0.929 . S
H229 C238 0.929 . S
C230 H224 0.930 . S
C230 C231 1.367 . S
C230 C238 1.378 . S
C231 C230 1.367 . S
C231 C239 1.433 . S
C232 H228 0.929 . S
C232 C234 1.378 . S
C232 C236 1.350 . S
C233 C236 1.463 . S
C233 C238 1.350 . S
C233 N241 1.427 . S
C234 H225 0.930 . S
C234 C232 1.378 . S
C234 C235 1.367 . S
C235 C234 1.367 . S
C235 C237 1.433 . S
C236 C232 1.350 . S
C236 C233 1.463 . S
C236 N240 1.427 . S
C237 H227 0.929 . S
C237 C235 1.433 . S
C237 N240 1.384 . S
C238 H229 0.929 . S
C238 C230 1.378 . S
C238 C233 1.350 . S
C239 H226 0.929 . S
C239 C231 1.433 . S
C239 N241 1.384 . S
N240 C236 1.427 . S
N240 C237 1.384 . S
N241 C233 1.427 . S
N241 C239 1.384 . S
H242 C248 0.930 . S
H243 C252 0.930 . S
H244 C257 0.929 . S
H245 C255 0.929 . S
H246 C250 0.928 . S
H247 C256 0.928 . S
C248 H242 0.930 . S
C248 C249 1.367 . S
C248 C256 1.378 . S
C249 C248 1.367 . S
C249 C257 1.433 1_565 S
C250 H246 0.928 . S
C250 C252 1.378 . S
C250 C254 1.350 . S
C251 C254 1.463 1_665 S
C251 C256 1.350 . S
C251 N259 1.427 1_565 S
C252 H243 0.930 . S
C252 C250 1.378 . S
C252 C253 1.367 . S
C253 C252 1.367 . S
C253 C255 1.433 1_545 S
C254 C250 1.350 . S
C254 C251 1.463 1_445 S
C254 N258 1.427 1_545 S
C255 H245 0.929 . S
C255 C253 1.433 1_565 S
C255 N258 1.384 . S
C256 H247 0.928 . S
C256 C248 1.378 . S
C256 C251 1.350 . S
C257 H244 0.929 . S
C257 C249 1.433 1_545 S
C257 N259 1.384 . S
N258 C254 1.427 1_565 S
N258 C255 1.384 . S
N259 C251 1.427 1_545 S
N259 C257 1.384 . S
H260 C266 0.930 . S
H261 C270 0.930 . S
H262 C275 0.929 . S
H263 C273 0.929 . S
H264 C268 0.929 . S
H265 C274 0.929 . S
C266 H260 0.930 . S
C266 C267 1.367 . S
C266 C274 1.378 . S
C267 C266 1.367 . S
C267 C275 1.433 . S
C268 H264 0.929 . S
C268 C270 1.378 . S
C268 C272 1.350 . S
C269 C272 1.463 1_565 S
C269 C274 1.350 . S
C269 N277 1.426 1_565 S
C270 H261 0.930 . S
C270 C268 1.378 . S
C270 C271 1.367 . S
C271 C270 1.367 . S
C271 C273 1.433 . S
C272 C268 1.350 . S
C272 C269 1.463 1_545 S
C272 N276 1.426 1_545 S
C273 H263 0.929 . S
C273 C271 1.433 . S
C273 N276 1.382 1_545 S
C274 H265 0.929 . S
C274 C266 1.378 . S
C274 C269 1.350 . S
C275 H262 0.929 . S
C275 C267 1.433 . S
C275 N277 1.382 1_565 S
N276 C272 1.426 1_565 S
N276 C273 1.382 1_565 S
N277 C269 1.426 1_545 S
N277 C275 1.382 1_545 S
H278 C284 0.930 . S
H279 C288 0.930 . S
H280 C293 0.929 . S
H281 C291 0.929 . S
H282 C286 0.929 . S
H283 C292 0.929 . S
C284 H278 0.930 . S
C284 C285 1.367 . S
C284 C292 1.378 . S
C285 C284 1.367 . S
C285 C293 1.433 . S
C286 H282 0.929 . S
C286 C288 1.378 . S
C286 C290 1.350 . S
C287 C290 1.463 1_455 S
C287 C292 1.350 . S
C287 N295 1.427 . S
C288 H279 0.930 . S
C288 C286 1.378 . S
C288 C289 1.367 . S
C289 C288 1.367 . S
C289 C291 1.433 . S
C290 C286 1.350 . S
C290 C287 1.463 1_655 S
C290 N294 1.427 . S
C291 H281 0.929 . S
C291 C289 1.433 . S
C291 N294 1.384 . S
C292 H283 0.929 . S
C292 C284 1.378 . S
C292 C287 1.350 . S
C293 H280 0.929 . S
C293 C285 1.433 . S
C293 N295 1.384 . S
N294 C290 1.427 . S
N294 C291 1.384 . S
N295 C287 1.427 . S
N295 C293 1.384 . S
H296 C302 0.930 . S
H297 C306 0.930 . S
H298 C311 0.929 . S
H299 C309 0.929 . S
H300 C304 0.929 . S
H301 C310 0.929 . S
C302 H296 0.930 . S
C302 C303 1.367 . S
C302 C310 1.378 . S
C303 C302 1.367 . S
C303 C311 1.433 . S
C304 H300 0.929 . S
C304 C306 1.378 . S
C304 C308 1.350 . S
C305 C308 1.463 . S
C305 C310 1.350 . S
C305 N313 1.427 . S
C306 H297 0.930 . S
C306 C304 1.378 . S
C306 C307 1.367 . S
C307 C306 1.367 . S
C307 C309 1.433 . S
C308 C304 1.350 . S
C308 C305 1.463 . S
C308 N312 1.427 . S
C309 H299 0.929 . S
C309 C307 1.433 . S
C309 N312 1.384 . S
C310 H301 0.929 . S
C310 C302 1.378 . S
C310 C305 1.350 . S
C311 H298 0.929 . S
C311 C303 1.433 . S
C311 N313 1.384 . S
N312 C308 1.427 . S
N312 C309 1.384 . S
N313 C305 1.427 . S
N313 C311 1.384 . S
H314 C320 0.930 . S
H315 C324 0.930 . S
H316 C329 0.929 . S
H317 C327 0.929 . S
H318 C322 0.929 . S
H319 C328 0.929 . S
C320 H314 0.930 . S
C320 C321 1.367 1_565 S
C320 C328 1.378 . S
C321 C320 1.367 1_545 S
C321 C329 1.433 . S
C322 H318 0.929 . S
C322 C324 1.378 . S
C322 C326 1.350 1_545 S
C323 C326 1.463 1_545 S
C323 C328 1.350 1_545 S
C323 N331 1.427 . S
C324 H315 0.930 . S
C324 C322 1.378 . S
C324 C325 1.367 1_545 S
C325 C324 1.367 1_565 S
C325 C327 1.433 . S
C326 C322 1.350 1_565 S
C326 C323 1.463 1_565 S
C326 N330 1.427 . S
C327 H317 0.929 . S
C327 C325 1.433 . S
C327 N330 1.384 . S
C328 H319 0.929 . S
C328 C320 1.378 . S
C328 C323 1.350 1_565 S
C329 H316 0.929 . S
C329 C321 1.433 . S
C329 N331 1.384 . S
N330 C326 1.427 . S
N330 C327 1.384 . S
N331 C323 1.427 . S
N331 C329 1.384 . S
H332 C338 0.930 . S
H333 C342 0.930 . S
H334 C347 0.929 . S
H335 C345 0.929 . S
H336 C340 0.929 . S
H337 C346 0.929 . S
C338 H332 0.930 . S
C338 C339 1.367 . S
C338 C346 1.378 . S
C339 C338 1.367 . S
C339 C347 1.433 . S
C340 H336 0.929 . S
C340 C342 1.378 . S
C340 C344 1.350 . S
C341 C344 1.463 1_655 S
C341 C346 1.350 . S
C341 N349 1.427 . S
C342 H333 0.930 . S
C342 C340 1.378 . S
C342 C343 1.367 . S
C343 C342 1.367 . S
C343 C345 1.433 . S
C344 C340 1.350 . S
C344 C341 1.463 1_455 S
C344 N348 1.427 . S
C345 H335 0.929 . S
C345 C343 1.433 . S
C345 N348 1.384 . S
C346 H337 0.929 . S
C346 C338 1.378 . S
C346 C341 1.350 . S
C347 H334 0.929 . S
C347 C339 1.433 . S
C347 N349 1.384 . S
N348 C344 1.427 . S
N348 C345 1.384 . S
N349 C341 1.427 . S
N349 C347 1.384 . S
H350 C356 0.930 . S
H351 C360 0.930 . S
H352 C365 0.929 . S
H353 C363 0.929 . S
H354 C358 0.929 . S
H355 C364 0.929 . S
C356 H350 0.930 . S
C356 C357 1.367 . S
C356 C364 1.378 . S
C357 C356 1.367 . S
C357 C365 1.433 . S
C358 H354 0.929 . S
C358 C360 1.378 . S
C358 C362 1.350 . S
C359 C362 1.463 1_554 S
C359 C364 1.350 . S
C359 N367 1.427 1_554 S
C360 H351 0.930 . S
C360 C358 1.378 . S
C360 C361 1.367 . S
C361 C360 1.367 . S
C361 C363 1.433 . S
C362 C358 1.350 . S
C362 C359 1.463 1_556 S
C362 N366 1.427 1_556 S
C363 H353 0.929 . S
C363 C361 1.433 . S
C363 N366 1.384 1_556 S
C364 H355 0.929 . S
C364 C356 1.378 . S
C364 C359 1.350 . S
C365 H352 0.929 . S
C365 C357 1.433 . S
C365 N367 1.384 1_554 S
N366 C362 1.427 1_554 S
N366 C363 1.384 1_554 S
N367 C359 1.427 1_556 S
N367 C365 1.384 1_556 S
H368 C374 0.930 . S
H369 C378 0.930 . S
H370 C383 0.929 . S
H371 C381 0.929 . S
H372 C376 0.929 1_556 S
H373 C382 0.929 1_554 S
C374 H368 0.930 . S
C374 C375 1.367 . S
C374 C382 1.377 . S
C375 C374 1.367 . S
C375 C383 1.433 . S
C376 H372 0.929 1_554 S
C376 C378 1.377 . S
C376 C380 1.350 . S
C377 C380 1.463 1_456 S
C377 C382 1.350 . S
C377 N385 1.427 . S
C378 H369 0.930 . S
C378 C376 1.377 . S
C378 C379 1.367 . S
C379 C378 1.367 . S
C379 C381 1.433 . S
C380 C376 1.350 . S
C380 C377 1.463 1_654 S
C380 N384 1.427 . S
C381 H371 0.929 . S
C381 C379 1.433 . S
C381 N384 1.384 . S
C382 H373 0.929 1_556 S
C382 C374 1.377 . S
C382 C377 1.350 . S
C383 H370 0.929 . S
C383 C375 1.433 . S
C383 N385 1.384 . S
N384 C380 1.427 . S
N384 C381 1.384 . S
N385 C377 1.427 . S
N385 C383 1.384 . S
H386 C392 0.930 . S
H387 C396 0.930 . S
H388 C401 0.929 . S
H389 C399 0.929 . S
H390 C394 0.929 . S
H391 C400 0.929 . S
C392 H386 0.930 . S
C392 C393 1.367 . S
C392 C400 1.378 . S
C393 C392 1.367 . S
C393 C401 1.433 . S
C394 H390 0.929 . S
C394 C396 1.378 . S
C394 C398 1.350 . S
C395 C398 1.463 . S
C395 C400 1.350 . S
C395 N403 1.427 . S
C396 H387 0.930 . S
C396 C394 1.378 . S
C396 C397 1.367 . S
C397 C396 1.367 . S
C397 C399 1.433 . S
C398 C394 1.350 . S
C398 C395 1.463 . S
C398 N402 1.427 . S
C399 H389 0.929 . S
C399 C397 1.433 . S
C399 N402 1.384 . S
C400 H391 0.929 . S
C400 C392 1.378 . S
C400 C395 1.350 . S
C401 H388 0.929 . S
C401 C393 1.433 . S
C401 N403 1.384 . S
N402 C398 1.427 . S
N402 C399 1.384 . S
N403 C395 1.427 . S
N403 C401 1.384 . S
H404 C410 0.930 . S
H405 C414 0.930 . S
H406 C419 0.929 . S
H407 C417 0.929 . S
H408 C412 0.929 . S
H409 C418 0.929 . S
C410 H404 0.930 . S
C410 C411 1.367 . S
C410 C418 1.378 . S
C411 C410 1.367 . S
C411 C419 1.433 . S
C412 H408 0.929 . S
C412 C414 1.378 . S
C412 C416 1.350 . S
C413 C416 1.463 1_556 S
C413 C418 1.350 . S
C413 N421 1.427 . S
C414 H405 0.930 . S
C414 C412 1.378 . S
C414 C415 1.367 . S
C415 C414 1.367 . S
C415 C417 1.433 . S
C416 C412 1.350 . S
C416 C413 1.463 1_554 S
C416 N420 1.427 . S
C417 H407 0.929 . S
C417 C415 1.433 . S
C417 N420 1.384 . S
C418 H409 0.929 . S
C418 C410 1.378 . S
C418 C413 1.350 . S
C419 H406 0.929 . S
C419 C411 1.433 . S
C419 N421 1.384 . S
N420 C416 1.427 . S
N420 C417 1.384 . S
N421 C413 1.427 . S
N421 C419 1.384 . S
H422 C428 0.930 . S
H423 C432 0.930 . S
H424 C437 0.929 . S
H425 C435 0.929 . S
H426 C430 0.929 . S
H427 C436 0.929 . S
C428 H422 0.930 . S
C428 C429 1.367 . S
C428 C436 1.378 . S
C429 C428 1.367 . S
C429 C437 1.433 . S
C430 H426 0.929 . S
C430 C432 1.378 . S
C430 C434 1.350 . S
C431 C434 1.463 . S
C431 C436 1.350 . S
C431 N439 1.427 . S
C432 H423 0.930 . S
C432 C430 1.378 . S
C432 C433 1.367 . S
C433 C432 1.367 . S
C433 C435 1.433 . S
C434 C430 1.350 . S
C434 C431 1.463 . S
C434 N438 1.427 . S
C435 H425 0.929 . S
C435 C433 1.433 . S
C435 N438 1.384 . S
C436 H427 0.929 . S
C436 C428 1.378 . S
C436 C431 1.350 . S
C437 H424 0.929 . S
C437 C429 1.433 . S
C437 N439 1.384 . S
N438 C434 1.427 . S
N438 C435 1.384 . S
N439 C431 1.427 . S
N439 C437 1.384 . S
H440 C446 0.930 . S
H441 C450 0.930 . S
H442 C455 0.929 . S
H443 C453 0.929 . S
H444 C448 0.988 . S
H445 C454 0.988 . S
C446 H440 0.930 . S
C446 C447 1.367 . S
C446 C454 1.342 1_556 S
C447 C446 1.367 . S
C447 C455 1.433 1_545 S
C448 H444 0.988 . S
C448 C450 1.342 1_556 S
C448 C452 1.329 1_556 S
C449 C452 1.463 1_546 S
C449 C454 1.329 1_556 S
C449 N457 1.427 1_545 S
C450 H441 0.930 . S
C450 C448 1.342 1_554 S
C450 C451 1.367 . S
C451 C450 1.367 . S
C451 C453 1.433 1_565 S
C452 C448 1.329 1_554 S
C452 C449 1.463 1_564 S
C452 N456 1.427 1_565 S
C453 H443 0.929 . S
C453 C451 1.433 1_545 S
C453 N456 1.384 . S
C454 H445 0.988 . S
C454 C446 1.342 1_554 S
C454 C449 1.329 1_554 S
C455 H442 0.929 . S
C455 C447 1.433 1_565 S
C455 N457 1.384 . S
N456 C452 1.427 1_545 S
N456 C453 1.384 . S
N457 C449 1.427 1_565 S
N457 C455 1.384 . S
H458 C464 0.930 . S
H459 C468 0.930 . S
H460 C473 0.929 . S
H461 C471 0.929 . S
H462 C466 0.929 . S
H463 C472 0.929 . S
C464 H458 0.930 . S
C464 C465 1.367 . S
C464 C472 1.378 . S
C465 C464 1.367 . S
C465 C473 1.433 . S
C466 H462 0.929 . S
C466 C468 1.378 . S
C466 C470 1.350 . S
C467 C470 1.463 . S
C467 C472 1.350 . S
C467 N475 1.427 . S
C468 H459 0.930 . S
C468 C466 1.378 . S
C468 C469 1.367 . S
C469 C468 1.367 . S
C469 C471 1.433 . S
C470 C466 1.350 . S
C470 C467 1.463 . S
C470 N474 1.427 . S
C471 H461 0.929 . S
C471 C469 1.433 . S
C471 N474 1.384 . S
C472 H463 0.929 . S
C472 C464 1.378 . S
C472 C467 1.350 . S
C473 H460 0.929 . S
C473 C465 1.433 . S
C473 N475 1.384 . S
N474 C470 1.427 . S
N474 C471 1.384 . S
N475 C467 1.427 . S
N475 C473 1.384 . S
H476 C482 0.930 . S
H477 C486 0.930 . S
H478 C491 0.929 . S
H479 C489 0.929 . S
H480 C484 0.929 . S
H481 C490 0.929 . S
C482 H476 0.930 . S
C482 C483 1.367 . S
C482 C490 1.378 . S
C483 C482 1.367 . S
C483 C491 1.433 . S
C484 H480 0.929 . S
C484 C486 1.378 . S
C484 C488 1.350 . S
C485 C488 1.463 . S
C485 C490 1.350 . S
C485 N493 1.427 . S
C486 H477 0.930 . S
C486 C484 1.378 . S
C486 C487 1.367 . S
C487 C486 1.367 . S
C487 C489 1.433 . S
C488 C484 1.350 . S
C488 C485 1.463 . S
C488 N492 1.427 . S
C489 H479 0.929 . S
C489 C487 1.433 . S
C489 N492 1.384 . S
C490 H481 0.929 . S
C490 C482 1.378 . S
C490 C485 1.350 . S
C491 H478 0.929 . S
C491 C483 1.433 . S
C491 N493 1.384 . S
N492 C488 1.427 . S
N492 C489 1.384 . S
N493 C485 1.427 . S
N493 C491 1.384 . S
H494 C500 0.930 . S
H495 C504 0.930 . S
H496 C509 0.929 . S
H497 C507 0.929 . S
H498 C502 0.929 . S
H499 C508 0.929 . S
C500 H494 0.930 . S
C500 C501 1.367 . S
C500 C508 1.378 . S
C501 C500 1.367 . S
C501 C509 1.433 . S
C502 H498 0.929 . S
C502 C504 1.378 . S
C502 C506 1.350 . S
C503 C506 1.463 . S
C503 C508 1.350 . S
C503 N511 1.427 . S
C504 H495 0.930 . S
C504 C502 1.378 . S
C504 C505 1.367 . S
C505 C504 1.367 . S
C505 C507 1.433 . S
C506 C502 1.350 . S
C506 C503 1.463 . S
C506 N510 1.427 . S
C507 H497 0.929 . S
C507 C505 1.433 . S
C507 N510 1.384 . S
C508 H499 0.929 . S
C508 C500 1.378 . S
C508 C503 1.350 . S
C509 H496 0.929 . S
C509 C501 1.433 . S
C509 N511 1.384 . S
N510 C506 1.427 . S
N510 C507 1.384 . S
N511 C503 1.427 . S
N511 C509 1.384 . S
H512 C518 0.930 . S
H513 C522 0.930 . S
H514 C527 0.929 . S
H515 C525 0.929 . S
H516 C520 0.929 . S
H517 C526 0.929 . S
C518 H512 0.930 . S
C518 C519 1.367 . S
C518 C526 1.378 . S
C519 C518 1.367 . S
C519 C527 1.433 . S
C520 H516 0.929 . S
C520 C522 1.378 1_565 S
C520 C524 1.350 . S
C521 C524 1.463 . S
C521 C526 1.350 . S
C521 N529 1.427 . S
C522 H513 0.930 . S
C522 C520 1.378 1_545 S
C522 C523 1.367 1_545 S
C523 C522 1.367 1_565 S
C523 C525 1.433 . S
C524 C520 1.350 . S
C524 C521 1.463 . S
C524 N528 1.427 . S
C525 H515 0.929 . S
C525 C523 1.433 . S
C525 N528 1.384 . S
C526 H517 0.929 . S
C526 C518 1.378 . S
C526 C521 1.350 . S
C527 H514 0.929 . S
C527 C519 1.433 . S
C527 N529 1.384 . S
N528 C524 1.427 . S
N528 C525 1.384 . S
N529 C521 1.427 . S
N529 C527 1.384 . S
H530 C536 0.930 . S
H531 C540 0.930 . S
H532 C545 0.929 . S
H533 C543 0.929 . S
H534 C538 0.929 . S
H535 C544 0.929 . S
C536 H530 0.930 . S
C536 C537 1.367 . S
C536 C544 1.378 . S
C537 C536 1.367 . S
C537 C545 1.433 . S
C538 H534 0.929 . S
C538 C540 1.378 . S
C538 C542 1.350 . S
C539 C542 1.463 . S
C539 C544 1.350 . S
C539 N547 1.427 . S
C540 H531 0.930 . S
C540 C538 1.378 . S
C540 C541 1.367 . S
C541 C540 1.367 . S
C541 C543 1.433 . S
C542 C538 1.350 . S
C542 C539 1.463 . S
C542 N546 1.427 . S
C543 H533 0.929 . S
C543 C541 1.433 . S
C543 N546 1.384 . S
C544 H535 0.929 . S
C544 C536 1.378 . S
C544 C539 1.350 . S
C545 H532 0.929 . S
C545 C537 1.433 . S
C545 N547 1.384 . S
N546 C542 1.427 . S
N546 C543 1.384 . S
N547 C539 1.427 . S
N547 C545 1.384 . S
H548 C554 0.930 . S
H549 C558 0.930 . S
H550 C563 0.929 . S
H551 C561 0.929 . S
H552 C556 0.929 . S
H553 C562 0.929 . S
C554 H548 0.930 . S
C554 C555 1.367 . S
C554 C562 1.378 . S
C555 C554 1.367 . S
C555 C563 1.433 . S
C556 H552 0.929 . S
C556 C558 1.378 . S
C556 C560 1.350 . S
C557 C560 1.463 . S
C557 C562 1.350 . S
C557 N565 1.427 . S
C558 H549 0.930 . S
C558 C556 1.378 . S
C558 C559 1.367 . S
C559 C558 1.367 . S
C559 C561 1.433 . S
C560 C556 1.350 . S
C560 C557 1.463 . S
C560 N564 1.427 . S
C561 H551 0.929 . S
C561 C559 1.433 . S
C561 N564 1.384 . S
C562 H553 0.929 . S
C562 C554 1.378 . S
C562 C557 1.350 . S
C563 H550 0.929 . S
C563 C555 1.433 . S
C563 N565 1.384 . S
N564 C560 1.427 . S
N564 C561 1.384 . S
N565 C557 1.427 . S
N565 C563 1.384 . S
H566 C572 0.930 . S
H567 C576 0.930 . S
H568 C581 0.929 . S
H569 C579 0.929 1_545 S
H570 C574 0.929 . S
H571 C580 0.929 . S
C572 H566 0.930 . S
C572 C573 1.367 . S
C572 C580 1.378 . S
C573 C572 1.367 . S
C573 C581 1.433 . S
C574 H570 0.929 . S
C574 C576 1.378 . S
C574 C578 1.350 . S
C575 C578 1.463 . S
C575 C580 1.350 . S
C575 N583 1.427 . S
C576 H567 0.930 . S
C576 C574 1.378 . S
C576 C577 1.367 . S
C577 C576 1.367 . S
C577 C579 1.433 . S
C578 C574 1.350 . S
C578 C575 1.463 . S
C578 N582 1.427 . S
C579 H569 0.929 1_565 S
C579 C577 1.433 . S
C579 N582 1.384 . S
C580 H571 0.929 . S
C580 C572 1.378 . S
C580 C575 1.350 . S
C581 H568 0.929 . S
C581 C573 1.433 . S
C581 N583 1.384 . S
N582 C578 1.427 . S
N582 C579 1.384 . S
N583 C575 1.427 . S
N583 C581 1.384 . S
H584 C590 0.930 . S
H585 C594 0.930 . S
H586 C599 0.929 . S
H587 C597 0.929 . S
H588 C592 0.929 . S
H589 C598 0.929 . S
C590 H584 0.930 . S
C590 C591 1.367 . S
C590 C598 1.378 . S
C591 C590 1.367 . S
C591 C599 1.433 . S
C592 H588 0.929 . S
C592 C594 1.378 1_545 S
C592 C596 1.350 . S
C593 C596 1.463 . S
C593 C598 1.350 . S
C593 N601 1.427 . S
C594 H585 0.930 . S
C594 C592 1.378 1_565 S
C594 C595 1.367 1_565 S
C595 C594 1.367 1_545 S
C595 C597 1.433 . S
C596 C592 1.350 . S
C596 C593 1.463 . S
C596 N600 1.427 . S
C597 H587 0.929 . S
C597 C595 1.433 . S
C597 N600 1.384 . S
C598 H589 0.929 . S
C598 C590 1.378 . S
C598 C593 1.350 . S
C599 H586 0.929 . S
C599 C591 1.433 . S
C599 N601 1.384 . S
N600 C596 1.427 . S
N600 C597 1.384 . S
N601 C593 1.427 . S
N601 C599 1.384 . S
H602 C608 0.930 . S
H603 C612 0.930 . S
H604 C617 0.929 . S
H605 C615 0.929 . S
H606 C610 0.929 . S
H607 C616 0.929 . S
C608 H602 0.930 . S
C608 C609 1.367 . S
C608 C616 1.378 . S
C609 C608 1.367 . S
C609 C617 1.433 . S
C610 H606 0.929 . S
C610 C612 1.378 . S
C610 C614 1.350 . S
C611 C614 1.463 . S
C611 C616 1.350 . S
C611 N619 1.427 . S
C612 H603 0.930 . S
C612 C610 1.378 . S
C612 C613 1.367 . S
C613 C612 1.367 . S
C613 C615 1.433 . S
C614 C610 1.350 . S
C614 C611 1.463 . S
C614 N618 1.427 . S
C615 H605 0.929 . S
C615 C613 1.433 . S
C615 N618 1.384 . S
C616 H607 0.929 . S
C616 C608 1.378 . S
C616 C611 1.350 . S
C617 H604 0.929 . S
C617 C609 1.433 . S
C617 N619 1.384 . S
N618 C614 1.427 . S
N618 C615 1.384 . S
N619 C611 1.427 . S
N619 C617 1.384 . S
H620 C626 0.930 . S
H621 C630 0.930 . S
H622 C635 0.929 . S
H623 C633 0.929 . S
H624 C628 0.929 . S
H625 C634 0.929 . S
C626 H620 0.930 . S
C626 C627 1.367 . S
C626 C634 1.378 . S
C627 C626 1.367 . S
C627 C635 1.433 . S
C628 H624 0.929 . S
C628 C630 1.378 . S
C628 C632 1.350 . S
C629 C632 1.463 . S
C629 C634 1.350 . S
C629 N637 1.427 . S
C630 H621 0.930 . S
C630 C628 1.378 . S
C630 C631 1.367 . S
C631 C630 1.367 . S
C631 C633 1.433 . S
C632 C628 1.350 . S
C632 C629 1.463 . S
C632 N636 1.427 . S
C633 H623 0.929 . S
C633 C631 1.433 . S
C633 N636 1.384 . S
C634 H625 0.929 . S
C634 C626 1.378 . S
C634 C629 1.350 . S
C635 H622 0.929 . S
C635 C627 1.433 . S
C635 N637 1.384 . S
N636 C632 1.427 . S
N636 C633 1.384 . S
N637 C629 1.427 . S
N637 C635 1.384 . S
H638 C644 0.930 . S
H639 C648 0.930 . S
H640 C653 0.929 . S
H641 C651 0.929 . S
H642 C646 0.929 . S
H643 C652 0.929 . S
C644 H638 0.930 . S
C644 C645 1.367 . S
C644 C652 1.378 . S
C645 C644 1.367 . S
C645 C653 1.433 . S
C646 H642 0.929 . S
C646 C648 1.378 . S
C646 C650 1.350 . S
C647 C650 1.463 . S
C647 C652 1.350 . S
C647 N655 1.427 . S
C648 H639 0.930 . S
C648 C646 1.378 . S
C648 C649 1.367 . S
C649 C648 1.367 . S
C649 C651 1.433 . S
C650 C646 1.350 . S
C650 C647 1.463 . S
C650 N654 1.427 . S
C651 H641 0.929 . S
C651 C649 1.433 . S
C651 N654 1.384 . S
C652 H643 0.929 . S
C652 C644 1.378 . S
C652 C647 1.350 . S
C653 H640 0.929 . S
C653 C645 1.433 . S
C653 N655 1.384 . S
N654 C650 1.427 . S
N654 C651 1.384 . S
N655 C647 1.427 . S
N655 C653 1.384 . S
H656 C662 0.930 . S
H657 C666 0.930 . S
H658 C671 0.929 . S
H659 C669 0.929 . S
H660 C664 0.929 . S
H661 C670 0.929 . S
C662 H656 0.930 . S
C662 C663 1.367 . S
C662 C670 1.378 . S
C663 C662 1.367 . S
C663 C671 1.433 . S
C664 H660 0.929 . S
C664 C666 1.378 . S
C664 C668 1.350 . S
C665 C668 1.463 . S
C665 C670 1.350 . S
C665 N673 1.427 . S
C666 H657 0.930 . S
C666 C664 1.378 . S
C666 C667 1.367 . S
C667 C666 1.367 . S
C667 C669 1.433 1_565 S
C668 C664 1.350 . S
C668 C665 1.463 . S
C668 N672 1.427 . S
C669 H659 0.929 . S
C669 C667 1.433 1_545 S
C669 N672 1.384 1_545 S
C670 H661 0.929 . S
C670 C662 1.378 . S
C670 C665 1.350 . S
C671 H658 0.929 . S
C671 C663 1.433 . S
C671 N673 1.384 . S
N672 C668 1.427 . S
N672 C669 1.384 1_565 S
N673 C665 1.427 . S
N673 C671 1.384 . S
H674 C680 0.930 . S
H675 C684 0.930 . S
H676 C689 0.929 . S
H677 C687 0.929 . S
H678 C682 0.929 . S
H679 C688 0.929 . S
C680 H674 0.930 . S
C680 C681 1.367 . S
C680 C688 1.378 . S
C681 C680 1.367 . S
C681 C689 1.433 . S
C682 H678 0.929 . S
C682 C684 1.378 . S
C682 C686 1.350 . S
C683 C686 1.463 . S
C683 C688 1.350 . S
C683 N691 1.427 . S
C684 H675 0.930 . S
C684 C682 1.378 . S
C684 C685 1.367 . S
C685 C684 1.367 . S
C685 C687 1.433 . S
C686 C682 1.350 . S
C686 C683 1.463 . S
C686 N690 1.427 . S
C687 H677 0.929 . S
C687 C685 1.433 . S
C687 N690 1.384 . S
C688 H679 0.929 . S
C688 C680 1.378 . S
C688 C683 1.350 . S
C689 H676 0.929 . S
C689 C681 1.433 . S
C689 N691 1.384 . S
N690 C686 1.427 . S
N690 C687 1.384 . S
N691 C683 1.427 . S
N691 C689 1.384 . S
H692 C698 0.930 . S
H693 C702 0.930 . S
H694 C707 0.929 . S
H695 C705 0.929 . S
H696 C700 0.929 . S
H697 C706 0.929 . S
C698 H692 0.930 . S
C698 C699 1.367 . S
C698 C706 1.378 . S
C699 C698 1.367 . S
C699 C707 1.433 . S
C700 H696 0.929 . S
C700 C702 1.378 . S
C700 C704 1.350 . S
C701 C704 1.463 . S
C701 C706 1.350 . S
C701 N709 1.427 . S
C702 H693 0.930 . S
C702 C700 1.378 . S
C702 C703 1.367 . S
C703 C702 1.367 . S
C703 C705 1.433 . S
C704 C700 1.350 . S
C704 C701 1.463 . S
C704 N708 1.427 . S
C705 H695 0.929 . S
C705 C703 1.433 . S
C705 N708 1.384 . S
C706 H697 0.929 . S
C706 C698 1.378 . S
C706 C701 1.350 . S
C707 H694 0.929 . S
C707 C699 1.433 . S
C707 N709 1.384 . S
N708 C704 1.427 . S
N708 C705 1.384 . S
N709 C701 1.427 . S
N709 C707 1.384 . S
H710 C716 0.930 . S
H711 C720 0.930 . S
H712 C725 0.929 . S
H713 C723 0.929 . S
H714 C718 0.929 . S
H715 C724 0.929 . S
C716 H710 0.930 . S
C716 C717 1.367 . S
C716 C724 1.378 . S
C717 C716 1.367 . S
C717 C725 1.433 . S
C718 H714 0.929 . S
C718 C720 1.378 1_565 S
C718 C722 1.350 . S
C719 C722 1.463 . S
C719 C724 1.350 . S
C719 N727 1.427 . S
C720 H711 0.930 . S
C720 C718 1.378 1_545 S
C720 C721 1.367 1_545 S
C721 C720 1.367 1_565 S
C721 C723 1.433 . S
C722 C718 1.350 . S
C722 C719 1.463 . S
C722 N726 1.427 . S
C723 H713 0.929 . S
C723 C721 1.433 . S
C723 N726 1.384 . S
C724 H715 0.929 . S
C724 C716 1.378 . S
C724 C719 1.350 . S
C725 H712 0.929 . S
C725 C717 1.433 . S
C725 N727 1.384 . S
N726 C722 1.427 . S
N726 C723 1.384 . S
N727 C719 1.427 . S
N727 C725 1.384 . S
H728 C734 0.930 . S
H729 C738 0.930 1_565 S
H730 C743 0.929 . S
H731 C741 0.929 . S
H732 C736 0.929 . S
H733 C742 0.929 . S
C734 H728 0.930 . S
C734 C735 1.367 . S
C734 C742 1.378 . S
C735 C734 1.367 . S
C735 C743 1.433 . S
C736 H732 0.929 . S
C736 C738 1.378 . S
C736 C740 1.350 . S
C737 C740 1.463 . S
C737 C742 1.350 . S
C737 N745 1.427 . S
C738 H729 0.930 1_545 S
C738 C736 1.378 . S
C738 C739 1.367 . S
C739 C738 1.367 . S
C739 C741 1.433 . S
C740 C736 1.350 . S
C740 C737 1.463 . S
C740 N744 1.427 . S
C741 H731 0.929 . S
C741 C739 1.433 . S
C741 N744 1.384 . S
C742 H733 0.929 . S
C742 C734 1.378 . S
C742 C737 1.350 . S
C743 H730 0.929 . S
C743 C735 1.433 . S
C743 N745 1.384 . S
N744 C740 1.427 . S
N744 C741 1.384 . S
N745 C737 1.427 . S
N745 C743 1.384 . S
H746 C752 0.930 . S
H747 C756 0.930 . S
H748 C761 0.929 . S
H749 C759 0.929 . S
H750 C754 0.929 . S
H751 C760 0.929 . S
C752 H746 0.930 . S
C752 C753 1.367 . S
C752 C760 1.378 . S
C753 C752 1.367 . S
C753 C761 1.433 . S
C754 H750 0.929 . S
C754 C756 1.378 . S
C754 C758 1.350 . S
C755 C758 1.463 . S
C755 C760 1.350 . S
C755 N763 1.427 . S
C756 H747 0.930 . S
C756 C754 1.378 . S
C756 C757 1.367 . S
C757 C756 1.367 . S
C757 C759 1.433 . S
C758 C754 1.350 . S
C758 C755 1.463 . S
C758 N762 1.427 . S
C759 H749 0.929 . S
C759 C757 1.433 . S
C759 N762 1.384 . S
C760 H751 0.929 . S
C760 C752 1.378 . S
C760 C755 1.350 . S
C761 H748 0.929 . S
C761 C753 1.433 . S
C761 N763 1.384 . S
N762 C758 1.427 . S
N762 C759 1.384 . S
N763 C755 1.427 . S
N763 C761 1.384 . S
H764 C770 0.930 . S
H765 C774 0.930 . S
H766 C779 0.929 . S
H767 C777 0.929 . S
H768 C772 0.929 . S
H769 C778 0.929 . S
C770 H764 0.930 . S
C770 C771 1.367 . S
C770 C778 1.378 . S
C771 C770 1.367 . S
C771 C779 1.433 . S
C772 H768 0.929 . S
C772 C774 1.378 . S
C772 C776 1.350 . S
C773 C776 1.463 . S
C773 C778 1.350 . S
C773 N781 1.427 . S
C774 H765 0.930 . S
C774 C772 1.378 . S
C774 C775 1.367 . S
C775 C774 1.367 . S
C775 C777 1.433 . S
C776 C772 1.350 . S
C776 C773 1.463 . S
C776 N780 1.427 . S
C777 H767 0.929 . S
C777 C775 1.433 . S
C777 N780 1.384 . S
C778 H769 0.929 . S
C778 C770 1.378 . S
C778 C773 1.350 . S
C779 H766 0.929 . S
C779 C771 1.433 . S
C779 N781 1.384 . S
N780 C776 1.427 . S
N780 C777 1.384 . S
N781 C773 1.427 . S
N781 C779 1.384 . S
H782 C788 0.930 . S
H783 C792 0.930 . S
H784 C797 0.929 . S
H785 C795 0.929 . S
H786 C790 0.929 . S
H787 C796 0.929 . S
C788 H782 0.930 . S
C788 C789 1.367 . S
C788 C796 1.378 . S
C789 C788 1.367 . S
C789 C797 1.433 . S
C790 H786 0.929 . S
C790 C792 1.378 . S
C790 C794 1.350 . S
C791 C794 1.463 . S
C791 C796 1.350 . S
C791 N799 1.427 . S
C792 H783 0.930 . S
C792 C790 1.378 . S
C792 C793 1.367 . S
C793 C792 1.367 . S
C793 C795 1.433 1_545 S
C794 C790 1.350 . S
C794 C791 1.463 . S
C794 N798 1.427 . S
C795 H785 0.929 . S
C795 C793 1.433 1_565 S
C795 N798 1.384 1_565 S
C796 H787 0.929 . S
C796 C788 1.378 . S
C796 C791 1.350 . S
C797 H784 0.929 . S
C797 C789 1.433 . S
C797 N799 1.384 . S
N798 C794 1.427 . S
N798 C795 1.384 1_545 S
N799 C791 1.427 . S
N799 C797 1.384 . S
C231 C203 1.483 . S
C235 C7 1.483 . S
C249 C34 1.485 . S
C253 C6 1.485 . S
C267 C160 1.494 . S
C271 C20 1.494 . S
C285 C21 1.494 . S
C289 C105 1.494 . S
C303 C35 1.484 . S
C307 C175 1.484 . S
C321 C132 1.491 . S
C325 C48 1.491 . S
C339 C49 1.491 . S
C343 C77 1.491 . S
C357 C147 1.484 . S
C361 C63 1.484 . S
C375 C62 1.496 . S
C379 C90 1.496 . S
C393 C216 1.484 . S
C397 C76 1.484 . S
C411 C119 1.495 . S
C415 C91 1.495 . S
C429 C188 1.494 . S
C433 C104 1.494 . S
C447 C118 1.491 . S
C451 C146 1.491 . S
C465 C217 1.494 . S
C469 C133 1.494 . S
C483 C161 1.495 . S
C487 C189 1.495 . S
C501 C202 1.488 . S
C505 C174 1.488 . S
C519 C79 1.691 . S
C523 C8 1.688 1_565 S
C537 C9 1.689 . S
C541 C78 1.690 . S
C555 C23 1.686 . S
C559 C64 1.690 . S
C573 C65 1.685 . S
C577 C22 1.692 1_565 S
C591 C107 1.689 . S
C595 C36 1.691 1_545 S
C609 C106 1.693 . S
C613 C37 1.686 . S
C627 C92 1.690 . S
C631 C51 1.686 . S
C645 C50 1.686 1_545 S
C649 C93 1.693 . S
C663 C191 1.687 . S
C667 C120 1.689 1_565 S
C681 C121 1.690 . S
C685 C190 1.687 . S
C699 C135 1.685 . S
C703 C176 1.692 . S
C717 C177 1.691 . S
C721 C134 1.688 1_565 S
C735 C219 1.687 . S
C739 C148 1.692 1_545 S
C753 C218 1.688 . S
C757 C149 1.691 . S
C771 C163 1.691 . S
C775 C204 1.689 . S
C789 C205 1.689 . S
C793 C162 1.688 1_545 S
