# Generated by pormake.
# Topology wir, (6)-cn, num edge types: 1
# Building blocks:
#     Node 0, Type 0, BuildingBlock: FUNLAD_clean_sbu_0, # of connection points: 6
#     Node 1, Type 0, BuildingBlock: FUNLAD_clean_sbu_0, # of connection points: 6
#     Node 2, Type 0, BuildingBlock: FUNLAD_clean_sbu_0, # of connection points: 6
#     Node 3, Type 0, BuildingBlock: FUNLAD_clean_sbu_0, # of connection points: 6
#     Node 4, Type 0, BuildingBlock: FUNLAD_clean_sbu_0, # of connection points: 6
#     Node 5, Type 0, BuildingBlock: FUNLAD_clean_sbu_0, # of connection points: 6
#     Node 6, Type 0, BuildingBlock: FUNLAD_clean_sbu_0, # of connection points: 6
#     Node 7, Type 0, BuildingBlock: FUNLAD_clean_sbu_0, # of connection points: 6
#     Node 8, Type 0, BuildingBlock: FUNLAD_clean_sbu_0, # of connection points: 6
#     Node 9, Type 0, BuildingBlock: FUNLAD_clean_sbu_0, # of connection points: 6
#     Node 10, Type 0, BuildingBlock: FUNLAD_clean_sbu_0, # of connection points: 6
#     Node 11, Type 0, BuildingBlock: FUNLAD_clean_sbu_0, # of connection points: 6
#     Node 12, Type 0, BuildingBlock: FUNLAD_clean_sbu_0, # of connection points: 6
#     Node 13, Type 0, BuildingBlock: FUNLAD_clean_sbu_0, # of connection points: 6
#     Node 14, Type 0, BuildingBlock: FUNLAD_clean_sbu_0, # of connection points: 6
#     Node 15, Type 0, BuildingBlock: FUNLAD_clean_sbu_0, # of connection points: 6
#     Node 16, Type 0, BuildingBlock: FUNLAD_clean_sbu_0, # of connection points: 6
#     Node 17, Type 0, BuildingBlock: FUNLAD_clean_sbu_0, # of connection points: 6
#     Node 18, Type 0, BuildingBlock: FUNLAD_clean_sbu_0, # of connection points: 6
#     Node 19, Type 0, BuildingBlock: FUNLAD_clean_sbu_0, # of connection points: 6
#     Node 20, Type 0, BuildingBlock: FUNLAD_clean_sbu_0, # of connection points: 6
#     Node 21, Type 0, BuildingBlock: FUNLAD_clean_sbu_0, # of connection points: 6
#     Node 22, Type 0, BuildingBlock: FUNLAD_clean_sbu_0, # of connection points: 6
#     Node 23, Type 0, BuildingBlock: FUNLAD_clean_sbu_0, # of connection points: 6
#     Node 24, Type 0, BuildingBlock: FUNLAD_clean_sbu_0, # of connection points: 6
#     Node 25, Type 0, BuildingBlock: FUNLAD_clean_sbu_0, # of connection points: 6
#     Node 26, Type 0, BuildingBlock: FUNLAD_clean_sbu_0, # of connection points: 6
#     Node 27, Type 0, BuildingBlock: FUNLAD_clean_sbu_0, # of connection points: 6
#     Node 28, Type 0, BuildingBlock: FUNLAD_clean_sbu_0, # of connection points: 6
#     Node 29, Type 0, BuildingBlock: FUNLAD_clean_sbu_0, # of connection points: 6
#     Node 30, Type 0, BuildingBlock: FUNLAD_clean_sbu_0, # of connection points: 6
#     Node 31, Type 0, BuildingBlock: FUNLAD_clean_sbu_0, # of connection points: 6
#     Edge 32, Type (0, 0), BuildingBlock: KIFKEQ_clean_linker_1, # of connection points: 2
#     Edge 33, Type (0, 0), BuildingBlock: KIFKEQ_clean_linker_1, # of connection points: 2
#     Edge 34, Type (0, 0), BuildingBlock: KIFKEQ_clean_linker_1, # of connection points: 2
#     Edge 35, Type (0, 0), BuildingBlock: KIFKEQ_clean_linker_1, # of connection points: 2
#     Edge 36, Type (0, 0), BuildingBlock: KIFKEQ_clean_linker_1, # of connection points: 2
#     Edge 37, Type (0, 0), BuildingBlock: KIFKEQ_clean_linker_1, # of connection points: 2
#     Edge 38, Type (0, 0), BuildingBlock: KIFKEQ_clean_linker_1, # of connection points: 2
#     Edge 39, Type (0, 0), BuildingBlock: KIFKEQ_clean_linker_1, # of connection points: 2
#     Edge 40, Type (0, 0), BuildingBlock: KIFKEQ_clean_linker_1, # of connection points: 2
#     Edge 41, Type (0, 0), BuildingBlock: KIFKEQ_clean_linker_1, # of connection points: 2
#     Edge 42, Type (0, 0), BuildingBlock: KIFKEQ_clean_linker_1, # of connection points: 2
#     Edge 43, Type (0, 0), BuildingBlock: KIFKEQ_clean_linker_1, # of connection points: 2
#     Edge 44, Type (0, 0), BuildingBlock: KIFKEQ_clean_linker_1, # of connection points: 2
#     Edge 45, Type (0, 0), BuildingBlock: KIFKEQ_clean_linker_1, # of connection points: 2
#     Edge 46, Type (0, 0), BuildingBlock: KIFKEQ_clean_linker_1, # of connection points: 2
#     Edge 47, Type (0, 0), BuildingBlock: KIFKEQ_clean_linker_1, # of connection points: 2
#     Edge 48, Type (0, 0), BuildingBlock: KIFKEQ_clean_linker_1, # of connection points: 2
#     Edge 49, Type (0, 0), BuildingBlock: KIFKEQ_clean_linker_1, # of connection points: 2
#     Edge 50, Type (0, 0), BuildingBlock: KIFKEQ_clean_linker_1, # of connection points: 2
#     Edge 51, Type (0, 0), BuildingBlock: KIFKEQ_clean_linker_1, # of connection points: 2
#     Edge 52, Type (0, 0), BuildingBlock: KIFKEQ_clean_linker_1, # of connection points: 2
#     Edge 53, Type (0, 0), BuildingBlock: KIFKEQ_clean_linker_1, # of connection points: 2
#     Edge 54, Type (0, 0), BuildingBlock: KIFKEQ_clean_linker_1, # of connection points: 2
#     Edge 55, Type (0, 0), BuildingBlock: KIFKEQ_clean_linker_1, # of connection points: 2
#     Edge 56, Type (0, 0), BuildingBlock: KIFKEQ_clean_linker_1, # of connection points: 2
#     Edge 57, Type (0, 0), BuildingBlock: KIFKEQ_clean_linker_1, # of connection points: 2
#     Edge 58, Type (0, 0), BuildingBlock: KIFKEQ_clean_linker_1, # of connection points: 2
#     Edge 59, Type (0, 0), BuildingBlock: KIFKEQ_clean_linker_1, # of connection points: 2
#     Edge 60, Type (0, 0), BuildingBlock: KIFKEQ_clean_linker_1, # of connection points: 2
#     Edge 61, Type (0, 0), BuildingBlock: KIFKEQ_clean_linker_1, # of connection points: 2
#     Edge 62, Type (0, 0), BuildingBlock: KIFKEQ_clean_linker_1, # of connection points: 2
#     Edge 63, Type (0, 0), BuildingBlock: KIFKEQ_clean_linker_1, # of connection points: 2
#     Edge 64, Type (0, 0), BuildingBlock: KIFKEQ_clean_linker_1, # of connection points: 2
#     Edge 65, Type (0, 0), BuildingBlock: KIFKEQ_clean_linker_1, # of connection points: 2
#     Edge 66, Type (0, 0), BuildingBlock: KIFKEQ_clean_linker_1, # of connection points: 2
#     Edge 67, Type (0, 0), BuildingBlock: KIFKEQ_clean_linker_1, # of connection points: 2
#     Edge 68, Type (0, 0), BuildingBlock: KIFKEQ_clean_linker_1, # of connection points: 2
#     Edge 69, Type (0, 0), BuildingBlock: KIFKEQ_clean_linker_1, # of connection points: 2
#     Edge 70, Type (0, 0), BuildingBlock: KIFKEQ_clean_linker_1, # of connection points: 2
#     Edge 71, Type (0, 0), BuildingBlock: KIFKEQ_clean_linker_1, # of connection points: 2
#     Edge 72, Type (0, 0), BuildingBlock: KIFKEQ_clean_linker_1, # of connection points: 2
#     Edge 73, Type (0, 0), BuildingBlock: KIFKEQ_clean_linker_1, # of connection points: 2
#     Edge 74, Type (0, 0), BuildingBlock: KIFKEQ_clean_linker_1, # of connection points: 2
#     Edge 75, Type (0, 0), BuildingBlock: KIFKEQ_clean_linker_1, # of connection points: 2
#     Edge 76, Type (0, 0), BuildingBlock: KIFKEQ_clean_linker_1, # of connection points: 2
#     Edge 77, Type (0, 0), BuildingBlock: KIFKEQ_clean_linker_1, # of connection points: 2
#     Edge 78, Type (0, 0), BuildingBlock: KIFKEQ_clean_linker_1, # of connection points: 2
#     Edge 79, Type (0, 0), BuildingBlock: KIFKEQ_clean_linker_1, # of connection points: 2
#     Edge 80, Type (0, 0), BuildingBlock: KIFKEQ_clean_linker_1, # of connection points: 2
#     Edge 81, Type (0, 0), BuildingBlock: KIFKEQ_clean_linker_1, # of connection points: 2
#     Edge 82, Type (0, 0), BuildingBlock: KIFKEQ_clean_linker_1, # of connection points: 2
#     Edge 83, Type (0, 0), BuildingBlock: KIFKEQ_clean_linker_1, # of connection points: 2
#     Edge 84, Type (0, 0), BuildingBlock: KIFKEQ_clean_linker_1, # of connection points: 2
#     Edge 85, Type (0, 0), BuildingBlock: KIFKEQ_clean_linker_1, # of connection points: 2
#     Edge 86, Type (0, 0), BuildingBlock: KIFKEQ_clean_linker_1, # of connection points: 2
#     Edge 87, Type (0, 0), BuildingBlock: KIFKEQ_clean_linker_1, # of connection points: 2
#     Edge 88, Type (0, 0), BuildingBlock: KIFKEQ_clean_linker_1, # of connection points: 2
#     Edge 89, Type (0, 0), BuildingBlock: KIFKEQ_clean_linker_1, # of connection points: 2
#     Edge 90, Type (0, 0), BuildingBlock: KIFKEQ_clean_linker_1, # of connection points: 2
#     Edge 91, Type (0, 0), BuildingBlock: KIFKEQ_clean_linker_1, # of connection points: 2
#     Edge 92, Type (0, 0), BuildingBlock: KIFKEQ_clean_linker_1, # of connection points: 2
#     Edge 93, Type (0, 0), BuildingBlock: KIFKEQ_clean_linker_1, # of connection points: 2
#     Edge 94, Type (0, 0), BuildingBlock: KIFKEQ_clean_linker_1, # of connection points: 2
#     Edge 95, Type (0, 0), BuildingBlock: KIFKEQ_clean_linker_1, # of connection points: 2
#     Edge 96, Type (0, 0), BuildingBlock: KIFKEQ_clean_linker_1, # of connection points: 2
#     Edge 97, Type (0, 0), BuildingBlock: KIFKEQ_clean_linker_1, # of connection points: 2
#     Edge 98, Type (0, 0), BuildingBlock: KIFKEQ_clean_linker_1, # of connection points: 2
#     Edge 99, Type (0, 0), BuildingBlock: KIFKEQ_clean_linker_1, # of connection points: 2
#     Edge 100, Type (0, 0), BuildingBlock: KIFKEQ_clean_linker_1, # of connection points: 2
#     Edge 101, Type (0, 0), BuildingBlock: KIFKEQ_clean_linker_1, # of connection points: 2
#     Edge 102, Type (0, 0), BuildingBlock: KIFKEQ_clean_linker_1, # of connection points: 2
#     Edge 103, Type (0, 0), BuildingBlock: KIFKEQ_clean_linker_1, # of connection points: 2
#     Edge 104, Type (0, 0), BuildingBlock: KIFKEQ_clean_linker_1, # of connection points: 2
#     Edge 105, Type (0, 0), BuildingBlock: KIFKEQ_clean_linker_1, # of connection points: 2
#     Edge 106, Type (0, 0), BuildingBlock: KIFKEQ_clean_linker_1, # of connection points: 2
#     Edge 107, Type (0, 0), BuildingBlock: KIFKEQ_clean_linker_1, # of connection points: 2
#     Edge 108, Type (0, 0), BuildingBlock: KIFKEQ_clean_linker_1, # of connection points: 2
#     Edge 109, Type (0, 0), BuildingBlock: KIFKEQ_clean_linker_1, # of connection points: 2
#     Edge 110, Type (0, 0), BuildingBlock: KIFKEQ_clean_linker_1, # of connection points: 2
#     Edge 111, Type (0, 0), BuildingBlock: KIFKEQ_clean_linker_1, # of connection points: 2
#     Edge 112, Type (0, 0), BuildingBlock: KIFKEQ_clean_linker_1, # of connection points: 2
#     Edge 113, Type (0, 0), BuildingBlock: KIFKEQ_clean_linker_1, # of connection points: 2
#     Edge 114, Type (0, 0), BuildingBlock: KIFKEQ_clean_linker_1, # of connection points: 2
#     Edge 115, Type (0, 0), BuildingBlock: KIFKEQ_clean_linker_1, # of connection points: 2
#     Edge 116, Type (0, 0), BuildingBlock: KIFKEQ_clean_linker_1, # of connection points: 2
#     Edge 117, Type (0, 0), BuildingBlock: KIFKEQ_clean_linker_1, # of connection points: 2
#     Edge 118, Type (0, 0), BuildingBlock: KIFKEQ_clean_linker_1, # of connection points: 2
#     Edge 119, Type (0, 0), BuildingBlock: KIFKEQ_clean_linker_1, # of connection points: 2
#     Edge 120, Type (0, 0), BuildingBlock: KIFKEQ_clean_linker_1, # of connection points: 2
#     Edge 121, Type (0, 0), BuildingBlock: KIFKEQ_clean_linker_1, # of connection points: 2
#     Edge 122, Type (0, 0), BuildingBlock: KIFKEQ_clean_linker_1, # of connection points: 2
#     Edge 123, Type (0, 0), BuildingBlock: KIFKEQ_clean_linker_1, # of connection points: 2
#     Edge 124, Type (0, 0), BuildingBlock: KIFKEQ_clean_linker_1, # of connection points: 2
#     Edge 125, Type (0, 0), BuildingBlock: KIFKEQ_clean_linker_1, # of connection points: 2
#     Edge 126, Type (0, 0), BuildingBlock: KIFKEQ_clean_linker_1, # of connection points: 2
#     Edge 127, Type (0, 0), BuildingBlock: KIFKEQ_clean_linker_1, # of connection points: 2
# Relax obj value: 0.752
# Max RMSD: 0.212
# Mean RMSD: 0.212
data_MOF--net-wir--node1-FUNLAD_clean_sbu_0--edge1-KIFKEQ_clean_linker_1
_symmetry_space_group_name_H-M    P1
_symmetry_Int_Tables_number       1
_symmetry_cell_setting            triclinic
loop_
_symmetry_equiv_pos_as_xyz
'x, y, z'
_cell_length_a     47.998157
_cell_length_b     48.030263
_cell_length_c     70.525711
_cell_angle_alpha  89.994599
_cell_angle_beta   90.037513
_cell_angle_gamma 89.896865
loop_
_atom_site_label
_atom_site_type_symbol
_atom_site_fract_x
_atom_site_fract_y
_atom_site_fract_z
_atom_type_partial_charge
C0 C 0.16488 0.11762 0.30614 0.0
N1 N 0.20949 0.15202 0.35253 0.0
C2 C 0.20983 0.1265 0.36082 0.0
C3 C 0.23277 0.11835 0.37159 0.0
C4 C 0.25538 0.13662 0.37349 0.0
C5 C 0.25403 0.16314 0.36545 0.0
C6 C 0.23057 0.17058 0.3551 0.0
Zn7 Zn 0.17871 0.16329 0.33483 0.0
C8 C 0.20181 0.1968 0.30226 0.0
N9 N 0.11565 0.19079 0.29767 0.0
C10 C 0.09746 0.17293 0.28924 0.0
C11 C 0.11807 0.21761 0.29178 0.0
C12 C 0.10219 0.22737 0.27671 0.0
C13 C 0.08359 0.2094 0.26745 0.0
C14 C 0.08106 0.18189 0.27401 0.0
Zn15 Zn 0.14458 0.17755 0.31662 0.0
O16 O 0.18132 0.12298 0.31988 0.0
C17 C 0.1208 0.15012 0.35086 0.0
O18 O 0.14781 0.13678 0.30116 0.0
H19 H 0.1329 0.23137 0.29847 0.0
H20 H 0.19275 0.11222 0.35855 0.0
H21 H 0.09612 0.15159 0.29404 0.0
O22 O 0.1468 0.14697 0.35424 0.0
O23 O 0.11349 0.16075 0.33506 0.0
H24 H 0.22967 0.19094 0.3486 0.0
O25 O 0.14092 0.21641 0.33304 0.0
O26 O 0.17633 0.20194 0.34985 0.0
O27 O 0.17586 0.1973 0.29869 0.0
O28 O 0.21 0.18182 0.31605 0.0
C29 C 0.15802 0.22041 0.34661 0.0
H30 H 0.23349 0.09755 0.37753 0.0
H31 H 0.27123 0.17759 0.36673 0.0
H32 H 0.1042 0.24899 0.27259 0.0
H33 H 0.06676 0.16745 0.26738 0.0
C34 C 0.17209 0.91582 0.55558 0.0
N35 N 0.14184 0.95941 0.60376 0.0
C36 C 0.16932 0.96076 0.60829 0.0
C37 C 0.17995 0.98482 0.61655 0.0
C38 C 0.1619 1.0071 0.62025 0.0
C39 C 0.13343 1.00445 0.61681 0.0
C40 C 0.12374 0.9802 0.6084 0.0
Zn41 Zn 0.12782 0.93001 0.58597 0.0
C42 C 0.09493 0.95667 0.55443 0.0
N43 N 0.09542 0.87132 0.54731 0.0
C44 C 0.10939 0.84966 0.53934 0.0
C45 C 0.06976 0.87896 0.54098 0.0
C46 C 0.05773 0.86576 0.52556 0.0
C47 C 0.07102 0.84277 0.51722 0.0
C48 C 0.09728 0.83467 0.52443 0.0
Zn49 Zn 0.11229 0.89783 0.56664 0.0
O50 O 0.16745 0.93118 0.57001 0.0
C51 C 0.13958 0.87073 0.60003 0.0
O52 O 0.15237 0.89976 0.55015 0.0
H53 H 0.05868 0.89598 0.54758 0.0
H54 H 0.18322 0.94396 0.60441 0.0
H55 H 0.12989 0.84409 0.54449 0.0
O56 O 0.14378 0.89638 0.60396 0.0
O57 O 0.12807 0.86464 0.58423 0.0
H58 H 0.10206 0.9789 0.60439 0.0
O59 O 0.07377 0.89555 0.5836 0.0
O60 O 0.08991 0.92845 0.60189 0.0
O61 O 0.09448 0.93115 0.54993 0.0
O62 O 0.10955 0.9636 0.56869 0.0
C63 C 0.07062 0.91141 0.59794 0.0
H64 H 0.20214 0.98662 0.61909 0.0
H65 H 0.11923 0.02157 0.61945 0.0
H66 H 0.03802 0.87367 0.52043 0.0
H67 H 0.10827 0.81673 0.51894 0.0
C68 C 0.37383 0.92241 0.80602 0.0
N69 N 0.33069 0.88852 0.85328 0.0
C70 C 0.32969 0.91419 0.86132 0.0
C71 C 0.30691 0.92161 0.87246 0.0
C72 C 0.28523 0.90241 0.87501 0.0
C73 C 0.28734 0.87579 0.86726 0.0
C74 C 0.31055 0.86915 0.85649 0.0
Zn75 Zn 0.36103 0.87753 0.83529 0.0
C76 C 0.33634 0.84351 0.80314 0.0
N77 N 0.42235 0.84876 0.79731 0.0
C78 C 0.44067 0.86647 0.78889 0.0
C79 C 0.41961 0.822 0.79137 0.0
C80 C 0.43535 0.81213 0.77628 0.0
C81 C 0.45413 0.82993 0.76704 0.0
C82 C 0.45692 0.8574 0.77363 0.0
Zn83 Zn 0.39379 0.86216 0.81643 0.0
O84 O 0.35757 0.91736 0.81991 0.0
C85 C 0.41866 0.89051 0.85049 0.0
O86 O 0.39073 0.90308 0.80107 0.0
H87 H 0.40467 0.80837 0.79806 0.0
H88 H 0.34606 0.92909 0.85857 0.0
H89 H 0.44226 0.88777 0.79373 0.0
O90 O 0.39284 0.89432 0.85396 0.0
O91 O 0.4255 0.87902 0.83485 0.0
H92 H 0.31195 0.84869 0.8502 0.0
O93 O 0.39709 0.82268 0.8328 0.0
O94 O 0.36453 0.84003 0.8508 0.0
O95 O 0.36193 0.84303 0.79854 0.0
O96 O 0.32942 0.85817 0.81737 0.0
C97 C 0.38136 0.82038 0.8473 0.0
H98 H 0.30551 0.94252 0.87816 0.0
H99 H 0.27082 0.86066 0.86901 0.0
H100 H 0.43312 0.79053 0.77215 0.0
H101 H 0.47133 0.87173 0.76701 0.0
C102 C 0.36744 0.12117 0.05545 0.0
N103 N 0.399 0.07842 0.10401 0.0
C104 C 0.37281 0.07839 0.11128 0.0
C105 C 0.36416 0.05628 0.12263 0.0
C106 C 0.38271 0.03426 0.12617 0.0
C107 C 0.40986 0.03541 0.11919 0.0
C108 C 0.41769 0.05794 0.10817 0.0
Zn109 Zn 0.41188 0.10743 0.08559 0.0
C110 C 0.44456 0.08024 0.05397 0.0
N111 N 0.44435 0.16555 0.04662 0.0
C112 C 0.4307 0.18788 0.03926 0.0
C113 C 0.46958 0.15749 0.03976 0.0
C114 C 0.48153 0.1711 0.02449 0.0
C115 C 0.46867 0.19484 1.01686 0.0
C116 C 0.44278 0.20323 0.02451 0.0
Zn117 Zn 0.42785 0.13905 0.06611 0.0
O118 O 0.37245 0.10474 0.0693 0.0
C119 C 0.40047 0.16638 0.09958 0.0
O120 O 0.38681 0.1381 0.05063 0.0
H121 H 0.48045 0.13996 0.04589 0.0
H122 H 0.35845 0.09499 0.10777 0.0
H123 H 0.41054 0.1938 0.04483 0.0
O124 O 0.3954 0.14083 0.10319 0.0
O125 O 0.41287 0.1724 0.08409 0.0
H126 H 0.43854 0.05853 0.10243 0.0
O127 O 0.46761 0.14036 0.08247 0.0
O128 O 0.44899 0.11037 0.1018 0.0
O129 O 0.44434 0.10544 0.04866 0.0
O130 O 0.43103 0.07413 0.06886 0.0
C131 C 0.46937 0.12586 0.09759 0.0
H132 H 0.34289 0.05565 0.12775 0.0
H133 H 0.42453 1.01865 0.12174 0.0
H134 H 0.50095 0.16303 1.01897 0.0
H135 H 0.43215 0.22171 1.01953 0.0
C136 C 0.1639 0.92113 0.24432 0.0
N137 N 0.20753 0.88781 0.19737 0.0
C138 C 0.20809 0.91349 0.18932 0.0
C139 C 0.23076 0.92126 0.17823 0.0
C140 C 0.25284 0.90243 0.17576 0.0
C141 C 0.25128 0.87582 0.1836 0.0
C142 C 0.2281 0.86878 0.19428 0.0
Zn143 Zn 0.17701 0.87657 0.2151 0.0
C144 C 0.20069 0.84188 0.24728 0.0
N145 N 0.11488 0.84756 0.25225 0.0
C146 C 0.09664 0.86538 0.2607 0.0
C147 C 0.11749 0.82075 0.25815 0.0
C148 C 0.1018 0.81099 0.27328 0.0
C149 C 0.0832 0.82895 0.2826 0.0
C150 C 0.08042 0.85642 0.276 0.0
Zn151 Zn 0.1437 0.86096 0.23334 0.0
O152 O 0.18055 0.91595 0.23068 0.0
C153 C 0.11933 0.88975 0.19951 0.0
O154 O 0.14655 0.90204 0.24889 0.0
H155 H 0.13236 0.80702 0.25143 0.0
H156 H 0.19139 0.92812 0.19198 0.0
H157 H 0.09514 0.88671 0.2559 0.0
O158 O 0.14515 0.89419 0.19635 0.0
O159 O 0.11243 0.87756 0.21485 0.0
H160 H 0.22698 0.8483 0.20057 0.0
O161 O 0.1408 0.82162 0.21688 0.0
O162 O 0.17365 0.83915 0.19923 0.0
O163 O 0.17491 0.84168 0.25129 0.0
O164 O 0.20847 0.85667 0.2333 0.0
C165 C 0.1568 0.81944 0.2025 0.0
H166 H 0.23173 0.94214 0.17245 0.0
H167 H 0.26812 0.86098 0.1819 0.0
H168 H 0.10398 0.78938 0.27742 0.0
H169 H 0.06611 0.87085 0.28267 0.0
C170 C 0.36744 0.91743 0.49164 0.0
N171 N 0.40244 0.95996 0.44423 0.0
C172 C 0.37705 0.96004 0.43572 0.0
C173 C 0.36914 0.98256 0.42448 0.0
C174 C 0.38753 1.00503 0.42232 0.0
C175 C 0.41392 1.0039 0.43061 0.0
C176 C 0.4211 0.98088 0.44146 0.0
Zn177 Zn 0.41349 0.92974 0.46243 0.0
C178 C 0.44682 0.95429 0.49477 0.0
N179 N 0.44011 0.86833 0.50102 0.0
C180 C 0.42206 0.85048 0.50957 0.0
C181 C 0.46704 0.8704 0.50679 0.0
C182 C 0.47675 0.85441 0.52181 0.0
C183 C 0.45862 0.83604 0.53114 0.0
C184 C 0.43097 0.83396 0.52475 0.0
Zn185 Zn 0.42712 0.89683 0.48173 0.0
O186 O 0.37237 0.93198 0.47684 0.0
C187 C 0.39947 0.87192 0.44761 0.0
O188 O 0.38712 0.90181 0.49773 0.0
H189 H 0.48096 0.88494 0.49995 0.0
H190 H 0.36268 0.94309 0.43815 0.0
H191 H 0.40065 0.84941 0.50486 0.0
O192 O 0.39809 0.89771 0.44337 0.0
O193 O 0.40872 0.86513 0.46394 0.0
H194 H 0.44135 0.98019 0.44815 0.0
O195 O 0.46577 0.89163 0.46492 0.0
O196 O 0.45247 0.92724 0.44792 0.0
O197 O 0.44776 0.92856 0.49893 0.0
O198 O 0.43149 0.96155 0.48089 0.0
C199 C 0.47043 0.9085 0.45131 0.0
H200 H 0.34843 0.98311 0.41837 0.0
H201 H 0.42848 0.02099 0.42915 0.0
H202 H 0.49848 0.85607 0.5258 0.0
H203 H 0.4164 0.81987 0.53145 0.0
C204 C 0.37586 0.11834 0.74345 0.0
N205 N 0.33322 0.15158 0.69601 0.0
C206 C 0.33346 0.12593 0.68795 0.0
C207 C 0.31262 0.11856 0.67519 0.0
C208 C 0.29152 0.13784 0.67082 0.0
C209 C 0.29204 0.16426 0.67913 0.0
C210 C 0.31326 0.17076 0.69174 0.0
Zn211 Zn 0.36316 0.16294 0.71419 0.0
C212 C 0.33937 0.19763 0.74608 0.0
N213 N 0.42514 0.19159 0.75162 0.0
C214 C 0.44328 0.17364 0.76007 0.0
C215 C 0.42252 0.21834 0.75763 0.0
C216 C 0.43812 0.22792 0.77287 0.0
C217 C 0.45664 0.20983 0.78218 0.0
C218 C 0.45939 0.18241 0.77547 0.0
Zn219 Zn 0.39657 0.17833 0.73247 0.0
O220 O 0.35917 0.12365 0.72984 0.0
C221 C 0.42117 0.14947 0.69896 0.0
O222 O 0.39343 0.13727 0.74795 0.0
H223 H 0.40773 0.23216 0.7509 0.0
H224 H 0.34966 0.11117 0.69156 0.0
H225 H 0.44479 0.15237 0.75516 0.0
O226 O 0.39534 0.14511 0.69577 0.0
O227 O 0.42807 0.16177 0.71425 0.0
H228 H 0.31371 0.19118 0.69817 0.0
O229 O 0.39975 0.21776 0.71606 0.0
O230 O 0.367 0.20034 0.69826 0.0
O231 O 0.36513 0.19749 0.75017 0.0
O232 O 0.33146 0.18311 0.73198 0.0
C233 C 0.38388 0.21999 0.7016 0.0
H234 H 0.31254 0.09775 0.66926 0.0
H235 H 0.27612 0.17962 0.67601 0.0
H236 H 0.43596 0.24949 0.7771 0.0
H237 H 0.47363 0.16788 0.78213 0.0
C238 C 0.17136 0.12138 0.99194 0.0
N239 N 0.13809 0.07856 0.94372 0.0
C240 C 0.16404 0.07823 0.93607 0.0
C241 C 0.17226 0.05585 0.9248 0.0
C242 C 0.15354 0.03389 0.92173 0.0
C243 C 0.12659 0.03542 0.92902 0.0
C244 C 0.11918 0.05818 0.93995 0.0
Zn245 Zn 0.12588 0.10774 0.96226 0.0
C246 C 0.09391 0.08127 0.99399 0.0
N247 N 0.09524 0.16698 1.00125 0.0
C248 C 0.10913 0.18887 1.00893 0.0
C249 C 0.06979 0.15928 1.00786 0.0
C250 C 0.05787 0.17272 1.02322 0.0
C251 C 0.07096 0.19605 0.03117 0.0
C252 C 0.09707 0.20412 1.02377 0.0
Zn253 Zn 0.11133 0.14035 0.98161 0.0
O254 O 0.16611 0.10529 0.97792 0.0
C255 C 0.13831 0.16683 0.94807 0.0
O256 O 0.15206 0.1382 0.99713 0.0
H257 H 0.05868 0.14214 1.00147 0.0
H258 H 0.17857 0.09477 0.93928 0.0
H259 H 0.12946 0.19452 1.00356 0.0
O260 O 0.14168 0.14104 0.94422 0.0
O261 O 0.12725 0.17341 0.96391 0.0
H262 H 0.09854 0.05895 0.94603 0.0
O263 O 0.07206 0.14329 0.96518 0.0
O264 O 0.08762 0.11028 0.9468 0.0
O265 O 0.09378 0.10669 0.99883 0.0
O266 O 0.10784 0.07464 0.9794 0.0
C267 C 0.06854 0.12752 0.95084 0.0
H268 H 0.1934 0.05492 0.91945 0.0
H269 H 0.1118 1.01869 0.92685 0.0
H270 H 0.0383 0.16481 0.02855 0.0
H271 H 0.10792 0.22229 0.029 0.0
C272 C 0.88169 0.81991 0.70061 0.0
N273 N 0.92172 0.84881 0.75082 0.0
C274 C 0.91891 0.82198 0.75661 0.0
C275 C 0.93469 0.81184 0.77161 0.0
C276 C 0.95357 0.82944 0.78094 0.0
C277 C 0.95635 0.85703 0.77456 0.0
C278 C 0.94005 0.86637 0.75938 0.0
Zn279 Zn 0.89347 0.86231 0.73147 0.0
C280 C 0.9189 0.89068 0.69785 0.0
N281 N 0.83068 0.88851 0.69406 0.0
C282 C 0.81034 0.86941 0.69066 0.0
C283 C 0.82987 0.91437 0.68628 0.0
C284 C 0.80715 0.92226 0.6752 0.0
C285 C 0.78526 0.90335 0.67245 0.0
C286 C 0.78716 0.87653 0.67995 0.0
Zn287 Zn 0.86078 0.87717 0.71227 0.0
O288 O 0.8974 0.82316 0.71504 0.0
C289 C 0.83576 0.84319 0.74427 0.0
O290 O 0.86435 0.83901 0.6967 0.0
H291 H 0.84636 0.92908 0.6892 0.0
H292 H 0.90397 0.80846 0.74981 0.0
H293 H 0.81157 0.84882 0.69678 0.0
O294 O 0.86128 0.84303 0.74907 0.0
O295 O 0.82889 0.85767 0.72991 0.0
H296 H 0.94169 0.88773 0.75467 0.0
O297 O 0.85714 0.91715 0.72775 0.0
O298 O 0.89013 0.90321 0.74686 0.0
O299 O 0.89317 0.89448 0.694 0.0
O300 O 0.92534 0.87896 0.71347 0.0
C301 C 0.87322 0.92244 0.74172 0.0
H302 H 0.93245 0.79018 0.77558 0.0
H303 H 0.97082 0.87123 0.78127 0.0
H304 H 0.80597 0.94328 0.66969 0.0
H305 H 0.77052 0.86157 0.67802 0.0
C306 C 0.97148 0.13247 0.453 0.0
N307 N 0.94031 0.1733 0.50228 0.0
C308 C 0.96723 0.17126 0.50808 0.0
C309 C 0.97675 0.18703 0.52324 0.0
C310 C 0.95845 0.20518 0.53266 0.0
C311 C 0.93085 0.20737 0.52617 0.0
C312 C 0.92211 0.19102 0.51088 0.0
Zn313 Zn 0.92765 0.14453 0.48311 0.0
C314 C 0.90022 0.16858 0.44871 0.0
N315 N 0.90408 0.08073 0.44598 0.0
C316 C 0.92274 0.05967 0.44342 0.0
C317 C 0.87891 0.08084 0.43718 0.0
C318 C 0.87121 0.05842 0.42584 0.0
C319 C 0.88957 0.03583 0.42388 0.0
C320 C 0.91574 0.0367 0.43249 0.0
Zn321 Zn 0.91469 0.11112 0.46405 0.0
O322 O 0.96643 0.14969 0.46636 0.0
C323 C 0.94776 0.08744 0.4966 0.0
O324 O 0.95378 0.11352 0.44973 0.0
H325 H 0.86455 0.0979 0.43944 0.0
H326 H 0.98127 0.15682 0.50122 0.0
H327 H 0.94284 0.06025 0.45031 0.0
O328 O 0.94842 0.11322 0.50058 0.0
O329 O 0.93267 0.07981 0.48272 0.0
H330 H 0.9007 0.19204 0.50614 0.0
O331 O 0.87352 0.10875 0.47831 0.0
O332 O 0.8876 0.13941 0.49903 0.0
O333 O 0.89926 0.1427 0.44474 0.0
O334 O 0.9091 0.17585 0.46503 0.0
C335 C 0.86826 0.12339 0.49301 0.0
H336 H 0.99846 0.18534 0.5273 0.0
H337 H 0.91618 0.22136 0.53293 0.0
H338 H 0.85064 0.05802 0.41951 0.0
H339 H 0.93022 1.01947 0.43122 0.0
C340 C 0.65974 0.21771 0.19921 0.0
N341 N 0.618 0.19059 0.24944 0.0
C342 C 0.6204 0.21751 0.25511 0.0
C343 C 0.60415 0.22765 0.26987 0.0
C344 C 0.58523 0.20994 0.27906 0.0
C345 C 0.58276 0.18231 0.27272 0.0
C346 C 0.59948 0.173 0.25778 0.0
Zn347 Zn 0.64724 0.17665 0.231 0.0
C348 C 0.62315 0.14678 0.19709 0.0
N349 N 0.71158 0.14898 0.19542 0.0
C350 C 0.73157 0.16816 0.19132 0.0
C351 C 0.71446 0.12176 0.19057 0.0
C352 C 0.73912 0.11261 0.18224 0.0
C353 C 0.7605 0.13181 0.17894 0.0
C354 C 0.75647 0.15992 0.183 0.0
Zn355 Zn 0.68024 0.1613 0.2123 0.0
O356 O 0.64442 0.21561 0.21395 0.0
C357 C 0.70398 0.19669 0.24436 0.0
O358 O 0.67658 0.19804 0.19565 0.0
H359 H 0.69828 0.10698 0.19405 0.0
H360 H 0.63549 0.23105 0.24848 0.0
H361 H 0.72892 0.18966 0.19547 0.0
O362 O 0.67844 0.19641 0.24908 0.0
O363 O 0.71117 0.18231 0.23003 0.0
H364 H 0.59814 0.15158 0.25315 0.0
O365 O 0.68373 0.12231 0.22893 0.0
O366 O 0.6498 0.13638 0.24711 0.0
O367 O 0.64903 0.14294 0.19374 0.0
O368 O 0.61618 0.159 0.21244 0.0
C369 C 0.66717 0.11725 0.24264 0.0
H370 H 0.60615 0.24934 0.27382 0.0
H371 H 0.56827 0.16804 0.27931 0.0
H372 H 0.742 0.09067 0.17922 0.0
H373 H 0.77285 0.17501 0.18064 0.0
C374 C 0.5706 0.9062 0.95168 0.0
N375 N 0.59861 0.8652 1.00181 0.0
C376 C 0.57181 0.86793 1.00771 0.0
C377 C 0.56208 0.85249 1.02297 0.0
C378 C 0.58006 0.83401 0.0324 0.0
C379 C 0.60754 0.83115 0.02581 0.0
C380 C 0.61647 0.84711 1.01039 0.0
Zn381 Zn 0.612 0.89364 0.98264 0.0
C382 C 0.641 0.86895 0.94919 0.0
N383 N 0.63896 0.95681 0.94618 0.0
C384 C 0.61954 0.97636 0.94156 0.0
C385 C 0.66465 0.95661 0.93817 0.0
C386 C 0.67171 0.97692 0.92496 0.0
C387 C 0.65203 0.99739 0.92 0.0
C388 C 0.62567 0.99695 0.92842 0.0
Zn389 Zn 0.62759 0.92698 0.96442 0.0
O390 O 0.57262 0.89045 0.9662 0.0
C391 C 0.59261 0.95086 0.9961 0.0
O392 O 0.59034 0.92297 0.94839 0.0
H393 H 0.67961 0.94074 0.94207 0.0
H394 H 0.55805 0.88269 1.00089 0.0
H395 H 0.59911 0.97592 0.948 0.0
O396 O 0.59279 0.92514 1.00025 0.0
O397 O 0.60724 0.95873 0.98205 0.0
H398 H 0.63779 0.84552 1.00557 0.0
O399 O 0.66678 0.9311 0.9802 0.0
O400 O 0.65302 0.89679 0.99819 0.0
O401 O 0.64556 0.89475 0.94609 0.0
O402 O 0.62857 0.86207 0.96444 0.0
C403 C 0.67198 0.91438 0.9938 0.0
H404 H 0.54046 0.85473 0.02711 0.0
H405 H 0.62199 0.81693 0.03258 0.0
H406 H 0.69251 0.97695 0.91901 0.0
H407 H 0.60997 1.01233 0.92487 0.0
C408 C 0.8775 0.21776 0.84942 0.0
N409 N 0.91815 0.19625 0.79808 0.0
C410 C 0.91017 0.222 0.79217 0.0
C411 C 0.92342 0.23487 0.7771 0.0
C412 C 0.94666 0.22222 0.76863 0.0
C413 C 0.95511 0.19584 0.77539 0.0
C414 C 0.94016 0.18294 0.79 0.0
Zn415 Zn 0.89131 0.17829 0.81671 0.0
C416 C 0.91803 0.14913 0.84958 0.0
N417 N 0.82939 0.14623 0.85233 0.0
C418 C 0.80906 0.1642 0.85803 0.0
C419 C 0.82699 0.11829 0.85479 0.0
C420 C 0.80227 0.10725 0.86177 0.0
C421 C 0.78042 0.12534 0.86649 0.0
C422 C 0.78423 0.15408 0.86539 0.0
Zn423 Zn 0.85931 0.16145 0.83543 0.0
O424 O 0.89153 0.21691 0.83406 0.0
C425 C 0.83305 0.1961 0.80426 0.0
O426 O 0.8622 0.19707 0.85338 0.0
H427 H 0.84348 0.1045 0.85019 0.0
H428 H 0.89275 0.23246 0.79877 0.0
H429 H 0.8112 0.18631 0.85563 0.0
O430 O 0.85836 0.19526 0.79921 0.0
O431 O 0.82626 0.18249 0.819 0.0
H432 H 0.94597 0.16233 0.79479 0.0
O433 O 0.8568 0.12383 0.81749 0.0
O434 O 0.89163 0.13806 0.80017 0.0
O435 O 0.89253 0.14285 0.85264 0.0
O436 O 0.92401 0.16321 0.83479 0.0
C437 C 0.87397 0.11893 0.8041 0.0
H438 H 0.91533 0.25467 0.77228 0.0
H439 H 0.97325 0.18534 0.76974 0.0
H440 H 0.79975 0.08488 0.86269 0.0
H441 H 0.76755 0.16838 0.86896 0.0
C442 C 0.5695 0.13063 0.59647 0.0
N443 N 0.60036 0.17213 0.54764 0.0
C444 C 0.5734 0.17035 0.5419 0.0
C445 C 0.5639 0.18627 0.52678 0.0
C446 C 0.58227 0.20428 0.51735 0.0
C447 C 0.6099 0.20621 0.52379 0.0
C448 C 0.61861 0.18974 0.53905 0.0
Zn449 Zn 0.61312 0.14319 0.5667 0.0
C450 C 0.64025 0.16692 0.60113 0.0
N451 N 0.63689 0.07853 0.60304 0.0
C452 C 0.61825 0.05743 0.60519 0.0
C453 C 0.66197 0.07829 0.61196 0.0
C454 C 0.66961 0.05543 0.62296 0.0
C455 C 0.65128 0.03281 0.62445 0.0
C456 C 0.62518 0.03407 0.61577 0.0
Zn457 Zn 0.6263 0.10926 0.58516 0.0
O458 O 0.57475 0.14849 0.58357 0.0
C459 C 0.59305 0.08615 0.55259 0.0
O460 O 0.58693 0.11118 0.59923 0.0
H461 H 0.67633 0.0954 0.61003 0.0
H462 H 0.55931 0.15601 0.54876 0.0
H463 H 0.59823 0.05825 0.59818 0.0
O464 O 0.59185 0.11217 0.54944 0.0
O465 O 0.60898 0.07787 0.56587 0.0
H466 H 0.64004 0.19057 0.54375 0.0
O467 O 0.66766 0.10746 0.5712 0.0
O468 O 0.65304 0.13798 0.55053 0.0
O469 O 0.64108 0.14096 0.60502 0.0
O470 O 0.63185 0.17429 0.5847 0.0
C471 C 0.67264 0.12217 0.5565 0.0
H472 H 0.54218 0.18478 0.52275 0.0
H473 H 0.62462 0.22008 0.51703 0.0
H474 H 0.69012 0.05477 0.62938 0.0
H475 H 0.6107 1.01684 0.6167 0.0
C476 C 0.66173 0.81958 0.34766 0.0
N477 N 0.62111 0.84512 0.29739 0.0
C478 C 0.62913 0.8197 0.29089 0.0
C479 C 0.61441 0.80654 0.27664 0.0
C480 C 0.58971 0.81841 0.26973 0.0
C481 C 0.58164 0.84476 0.27663 0.0
C482 C 0.59802 0.85803 0.29042 0.0
Zn483 Zn 0.64815 0.86166 0.31657 0.0
C484 C 0.62124 0.8886 0.3502 0.0
N485 N 0.70956 0.89005 0.35428 0.0
C486 C 0.73037 0.87164 0.35824 0.0
C487 C 0.70962 0.91635 0.36136 0.0
C488 C 0.73211 0.92542 0.37223 0.0
C489 C 0.7545 0.9072 0.37546 0.0
C490 C 0.75331 0.87991 0.36875 0.0
Zn491 Zn 0.68026 0.87697 0.33606 0.0
O492 O 0.64663 0.82237 0.3329 0.0
C493 C 0.707 0.84463 0.3042 0.0
O494 O 0.67794 0.83932 0.3521 0.0
H495 H 0.69277 0.9305 0.358 0.0
H496 H 0.64717 0.80933 0.29673 0.0
H497 H 0.72979 0.85072 0.35263 0.0
O498 O 0.68173 0.84501 0.29896 0.0
O499 O 0.71331 0.85805 0.3191 0.0
H500 H 0.59212 0.87835 0.2957 0.0
O501 O 0.68261 0.91642 0.31986 0.0
O502 O 0.64906 0.90248 0.30114 0.0
O503 O 0.64684 0.89361 0.35384 0.0
O504 O 0.61518 0.87634 0.33469 0.0
C505 C 0.66615 0.92165 0.30605 0.0
H506 H 0.62208 0.78673 0.27148 0.0
H507 H 0.56257 0.85463 0.2719 0.0
H508 H 0.73274 0.94677 0.37716 0.0
H509 H 0.77034 0.86547 0.37108 0.0
C510 C 0.97087 0.90753 0.09683 0.0
N511 N 0.94014 0.86558 0.04811 0.0
C512 C 0.96705 0.8678 0.04236 0.0
C513 C 0.97672 0.85224 0.02714 0.0
C514 C 0.95859 0.83411 1.0176 0.0
C515 C 0.93102 0.83166 0.02407 0.0
C516 C 0.92212 0.8478 0.03944 0.0
Zn517 Zn 0.9272 0.89443 0.06719 0.0
C518 C 0.89993 0.8714 0.10129 0.0
N519 N 0.9035 0.95971 0.10315 0.0
C520 C 0.92257 0.98014 0.10632 0.0
C521 C 0.87842 0.95955 0.11203 0.0
C522 C 0.87149 0.981 0.12444 0.0
C523 C 0.8906 1.00265 0.1276 0.0
C524 C 0.91648 1.00198 0.11853 0.0
Zn525 Zn 0.91415 0.92923 0.08511 0.0
O526 O 0.96588 0.88974 0.08385 0.0
C527 C 0.94727 0.95168 0.05277 0.0
O528 O 0.95324 0.92678 0.09959 0.0
H529 H 0.86373 0.94298 0.10929 0.0
H530 H 0.98096 0.88228 0.04927 0.0
H531 H 0.94254 0.97966 0.09926 0.0
O532 O 0.94781 0.92563 0.04962 0.0
O533 O 0.93201 0.96038 0.06626 0.0
H534 H 0.90071 0.84661 0.04413 0.0
O535 O 0.8733 0.93184 0.07057 0.0
O536 O 0.88689 0.89865 0.05154 0.0
O537 O 0.89863 0.89748 0.10475 0.0
O538 O 0.90913 0.86351 0.08522 0.0
C539 C 0.86783 0.91568 0.05668 0.0
H540 H 0.9984 0.85413 1.02309 0.0
H541 H 0.91648 0.81767 1.01722 0.0
H542 H 0.85108 0.98114 0.131 0.0
H543 H 0.9317 1.0183 0.12071 0.0
C544 C 0.66646 0.61836 0.80587 0.0
N545 N 0.71041 0.65418 0.85218 0.0
C546 C 0.71071 0.62906 0.861 0.0
C547 C 0.73383 0.62123 0.87168 0.0
C548 C 0.7566 0.6394 0.87292 0.0
C549 C 0.75526 0.66559 0.86442 0.0
C550 C 0.73163 0.67273 0.85418 0.0
Zn551 Zn 0.67964 0.66478 0.83441 0.0
C552 C 0.70279 0.69786 0.80183 0.0
N553 N 0.61671 0.69087 0.797 0.0
C554 C 0.59906 0.67274 0.7883 0.0
C555 C 0.61855 0.71785 0.79136 0.0
C556 C 0.60269 0.72749 0.77626 0.0
C557 C 0.58467 0.70925 0.76671 0.0
C558 C 0.58264 0.68159 0.77305 0.0
Zn559 Zn 0.64568 0.67798 0.81601 0.0
O560 O 0.68122 0.62341 0.82054 0.0
C561 C 0.62209 0.65085 0.85041 0.0
O562 O 0.65074 0.638 0.79981 0.0
H563 H 0.63292 0.73185 0.7983 0.0
H564 H 0.69351 0.61479 0.85917 0.0
H565 H 0.59818 0.65128 0.79291 0.0
O566 O 0.64807 0.65012 0.85428 0.0
O567 O 0.61461 0.65925 0.83401 0.0
H568 H 0.73075 0.69278 0.84725 0.0
O569 O 0.6405 0.71637 0.83299 0.0
O570 O 0.67795 0.70413 0.84848 0.0
O571 O 0.67675 0.69923 0.79871 0.0
O572 O 0.71102 0.68187 0.81507 0.0
C573 C 0.65848 0.72157 0.84584 0.0
H574 H 0.73461 0.60066 0.87798 0.0
H575 H 0.77265 0.6799 0.86514 0.0
H576 H 0.60426 0.74923 0.77231 0.0
H577 H 0.56875 0.66697 0.7662 0.0
C578 C 0.67226 0.41701 0.05538 0.0
N579 N 0.64277 0.46115 0.10357 0.0
C580 C 0.67045 0.46326 0.10733 0.0
C581 C 0.68096 0.48779 0.115 0.0
C582 C 0.66258 0.5097 0.11899 0.0
C583 C 0.63401 0.50623 0.11645 0.0
C584 C 0.62445 0.4816 0.10851 0.0
Zn585 Zn 0.62844 0.4314 0.08615 0.0
C586 C 0.59488 0.45796 0.0546 0.0
N587 N 0.59507 0.37272 0.04786 0.0
C588 C 0.60865 0.35089 0.03979 0.0
C589 C 0.56921 0.38038 0.04193 0.0
C590 C 0.55653 0.36701 0.02683 0.0
C591 C 0.5694 0.34386 1.01842 0.0
C592 C 0.59591 0.33575 0.02519 0.0
Zn593 Zn 0.61249 0.39945 0.06683 0.0
O594 O 0.66769 0.43254 0.06973 0.0
C595 C 0.64059 0.37256 0.10015 0.0
O596 O 0.65244 0.40095 0.05005 0.0
H597 H 0.55845 0.39755 0.04859 0.0
H598 H 0.68453 0.44673 0.10324 0.0
H599 H 0.62931 0.34529 0.04462 0.0
O600 O 0.64472 0.39821 0.10405 0.0
O601 O 0.62884 0.36642 0.08444 0.0
H602 H 0.6026 0.47976 0.10506 0.0
O603 O 0.5738 0.39776 0.08422 0.0
O604 O 0.59149 0.4295 0.1027 0.0
O605 O 0.59461 0.43249 0.05 0.0
O606 O 0.60941 0.46484 0.06892 0.0
C607 C 0.57165 0.41303 0.09896 0.0
H608 H 0.70323 0.49018 0.11691 0.0
H609 H 0.61954 0.52304 0.11934 0.0
H610 H 0.53665 0.37491 1.022 0.0
H611 H 0.6066 0.31769 1.01959 0.0
C612 C 0.87216 0.42186 0.30629 0.0
N613 N 0.82862 0.38747 0.35318 0.0
C614 C 0.82814 0.41275 0.36179 0.0
C615 C 0.8054 0.42022 0.37296 0.0
C616 C 0.78317 0.4015 0.37493 0.0
C617 C 0.78468 0.37526 0.36652 0.0
C618 C 0.80789 0.36852 0.35576 0.0
Zn619 Zn 0.85929 0.37657 0.33537 0.0
C620 C 0.83565 0.34244 0.30298 0.0
N621 N 0.9215 0.34873 0.29784 0.0
C622 C 0.93928 0.3667 0.28914 0.0
C623 C 0.91941 0.32176 0.29221 0.0
C624 C 0.93514 0.31198 0.2771 0.0
C625 C 0.95327 0.33007 0.26753 0.0
C626 C 0.95555 0.35772 0.27386 0.0
Zn627 Zn 0.89267 0.36195 0.31683 0.0
O628 O 0.85702 0.4171 0.3208 0.0
C629 C 0.91685 0.39016 0.35096 0.0
O630 O 0.88814 0.40217 0.30064 0.0
H631 H 0.90493 0.3079 0.29915 0.0
H632 H 0.84497 0.42732 0.35954 0.0
H633 H 0.94036 0.38815 0.29374 0.0
O634 O 0.89092 0.39234 0.35471 0.0
O635 O 0.924 0.3802 0.3349 0.0
H636 H 0.80892 0.34835 0.34902 0.0
O637 O 0.8971 0.32319 0.33377 0.0
O638 O 0.8619 0.33839 0.35034 0.0
O639 O 0.86157 0.34137 0.29948 0.0
O640 O 0.8277 0.35813 0.31648 0.0
C641 C 0.88016 0.31978 0.34752 0.0
H642 H 0.80452 0.44084 0.37916 0.0
H643 H 0.76775 0.36048 0.36783 0.0
H644 H 0.93337 0.29026 0.27315 0.0
H645 H 0.96952 0.37223 0.26699 0.0
C646 C 0.8694 0.62416 0.55471 0.0
N647 N 0.89721 0.58061 0.6033 0.0
C648 C 0.86925 0.57861 0.60594 0.0
C649 C 0.858 0.55411 0.61309 0.0
C650 C 0.87588 0.53208 0.61779 0.0
C651 C 0.90467 0.53556 0.6166 0.0
C652 C 0.91502 0.56018 0.60908 0.0
Zn653 Zn 0.91242 0.6099 0.58588 0.0
C654 C 0.94589 0.58197 0.55464 0.0
N655 N 0.94715 0.66677 0.5472 0.0
C656 C 0.93391 0.6891 0.53949 0.0
C657 C 0.97237 0.65819 0.54062 0.0
C658 C 0.98474 0.67128 0.52527 0.0
C659 C 0.97214 0.69483 0.51717 0.0
C660 C 0.94632 0.7038 0.52459 0.0
Zn661 Zn 0.92943 0.64061 0.56634 0.0
O662 O 0.87442 0.60722 0.56822 0.0
C663 C 0.90144 0.66879 0.59945 0.0
O664 O 0.88864 0.64151 0.55043 0.0
H665 H 0.98276 0.64051 0.54693 0.0
H666 H 0.85559 0.59517 0.60127 0.0
H667 H 0.91373 0.69537 0.54483 0.0
O668 O 0.89441 0.64357 0.60273 0.0
O669 O 0.91565 0.67405 0.58457 0.0
H670 H 0.93714 0.56202 0.60655 0.0
O671 O 0.96884 0.64015 0.58303 0.0
O672 O 0.94834 0.6128 0.60335 0.0
O673 O 0.94493 0.60686 0.54871 0.0
O674 O 0.93304 0.57641 0.56993 0.0
C675 C 0.96959 0.62686 0.59871 0.0
H676 H 0.83559 0.55182 0.61406 0.0
H677 H 0.91882 0.51873 0.62014 0.0
H678 H 1.00414 0.66287 0.51996 0.0
H679 H 0.93594 0.72222 0.51924 0.0
C680 C 0.66552 0.42223 0.74317 0.0
N681 N 0.70637 0.38881 0.69489 0.0
C682 C 0.70599 0.41449 0.68688 0.0
C683 C 0.72623 0.42168 0.67365 0.0
C684 C 0.74682 0.40215 0.66868 0.0
C685 C 0.74645 0.37572 0.677 0.0
C686 C 0.72593 0.36946 0.69017 0.0
Zn687 Zn 0.67708 0.37748 0.71357 0.0
C688 C 0.70293 0.34314 0.74541 0.0
N689 N 0.61745 0.34845 0.75259 0.0
C690 C 0.59934 0.3663 0.76113 0.0
C691 C 0.62031 0.32173 0.7586 0.0
C692 C 0.60484 0.31202 0.77386 0.0
C693 C 0.58622 0.32997 0.78319 0.0
C694 C 0.58337 0.35742 0.77656 0.0
Zn695 Zn 0.64537 0.36176 0.73306 0.0
O696 O 0.68089 0.41724 0.7288 0.0
C697 C 0.61895 0.39044 0.69951 0.0
O698 O 0.64914 0.40278 0.74862 0.0
H699 H 0.6351 0.30799 0.7518 0.0
H700 H 0.69012 0.42939 0.69086 0.0
H701 H 0.59766 0.38757 0.75622 0.0
O702 O 0.64453 0.3949 0.69572 0.0
O703 O 0.61289 0.37821 0.71502 0.0
H704 H 0.72566 0.34905 0.69662 0.0
O705 O 0.64181 0.32205 0.71671 0.0
O706 O 0.673 0.33995 0.69792 0.0
O707 O 0.67754 0.34306 0.75043 0.0
O708 O 0.70953 0.35744 0.73089 0.0
C709 C 0.65678 0.31998 0.7018 0.0
H710 H 0.7262 0.44252 0.66777 0.0
H711 H 0.76192 0.36013 0.67344 0.0
H712 H 0.60711 0.29044 0.77804 0.0
H713 H 0.56909 0.37186 0.78325 0.0
C714 C 0.86824 0.41796 0.99201 0.0
N715 N 0.8999 0.45966 0.94304 0.0
C716 C 0.8738 0.45997 0.93561 0.0
C717 C 0.86557 0.48199 0.92398 0.0
C718 C 0.88448 0.5036 0.92029 0.0
C719 C 0.91155 0.50205 0.92741 0.0
C720 C 0.9189 0.47972 0.93877 0.0
Zn721 Zn 0.91261 0.43088 0.96177 0.0
C722 C 0.94562 0.45873 0.99324 0.0
N723 N 0.94541 0.37361 1.00141 0.0
C724 C 0.93179 0.35171 1.00931 0.0
C725 C 0.97091 0.38158 1.00781 0.0
C726 C 0.98318 0.36839 1.02316 0.0
C727 C 0.97037 0.34507 0.03134 0.0
C728 C 0.94419 0.33673 0.02415 0.0
Zn729 Zn 0.92874 0.3998 0.98171 0.0
O730 O 0.87284 0.43325 0.97751 0.0
C731 C 0.90073 0.37186 0.94856 0.0
O732 O 0.88812 0.40212 0.99766 0.0
H733 H 0.98177 0.39873 1.00126 0.0
H734 H 0.85918 0.44369 0.9392 0.0
H735 H 0.91143 0.34586 1.0041 0.0
O736 O 0.89638 0.39739 0.94445 0.0
O737 O 0.91282 0.36609 0.96424 0.0
H738 H 0.93966 0.47899 0.94468 0.0
O739 O 0.96814 0.39728 0.96498 0.0
O740 O 0.94985 0.4277 0.94576 0.0
O741 O 0.94593 0.43353 0.99851 0.0
O742 O 0.93153 0.4647 0.97853 0.0
C743 C 0.96998 0.41174 0.94985 0.0
H744 H 0.84435 0.48289 0.91878 0.0
H745 H 0.92654 0.51845 0.92475 0.0
H746 H 1.00278 0.37648 0.02831 0.0
H747 H 0.93356 0.31856 0.02956 0.0
C748 C 0.87332 0.61747 0.24311 0.0
N749 N 0.8309 0.65254 0.19588 0.0
C750 C 0.83134 0.62748 0.187 0.0
C751 C 0.81075 0.62099 0.17384 0.0
C752 C 0.78972 0.64056 0.16987 0.0
C753 C 0.79001 0.66633 0.17908 0.0
C754 C 0.81092 0.67192 0.19213 0.0
Zn755 Zn 0.86087 0.66309 0.21427 0.0
C756 C 0.8371 0.69705 0.24635 0.0
N757 N 0.92287 0.6902 0.25215 0.0
C758 C 0.94054 0.67207 0.26088 0.0
C759 C 0.92065 0.71709 0.25793 0.0
C760 C 0.93614 0.72664 0.27322 0.0
C761 C 0.95419 0.7084 0.2828 0.0
C762 C 0.95659 0.68083 0.27632 0.0
Zn763 Zn 0.8944 0.67731 0.23282 0.0
O764 O 0.85814 0.6225 0.22865 0.0
C765 C 0.91876 0.6493 0.1989 0.0
O766 O 0.88955 0.63691 0.24877 0.0
H767 H 0.90625 0.73108 0.25096 0.0
H768 H 0.84758 0.61256 0.19021 0.0
H769 H 0.94173 0.65069 0.25615 0.0
O770 O 0.89282 0.6473 0.19519 0.0
O771 O 0.92603 0.65916 0.21494 0.0
H772 H 0.81117 0.69185 0.19923 0.0
O773 O 0.89907 0.71637 0.21614 0.0
O774 O 0.86386 0.70142 0.19954 0.0
O775 O 0.86301 0.69773 0.24995 0.0
O776 O 0.82901 0.68159 0.23276 0.0
C777 C 0.88206 0.71999 0.20243 0.0
H778 H 0.81084 0.60062 0.16725 0.0
H779 H 0.77418 0.68192 0.17631 0.0
H780 H 0.9343 0.74832 0.27727 0.0
H781 H 0.97051 0.6662 0.28319 0.0
C782 C 0.67266 0.62313 0.49239 0.0
N783 N 0.63991 0.5805 0.44463 0.0
C784 C 0.666 0.57924 0.43723 0.0
C785 C 0.6738 0.5564 0.42626 0.0
C786 C 0.65454 0.5349 0.42324 0.0
C787 C 0.62754 0.53726 0.43035 0.0
C788 C 0.62053 0.56054 0.44094 0.0
Zn789 Zn 0.62837 0.61071 0.46261 0.0
C790 C 0.59342 0.58541 0.49455 0.0
N791 N 0.59827 0.67112 0.50076 0.0
C792 C 0.61581 0.68971 0.50908 0.0
C793 C 0.5715 0.66826 0.50666 0.0
C794 C 0.56139 0.68424 0.52157 0.0
C795 C 0.579 0.70336 0.53068 0.0
C796 C 0.60653 0.70617 0.52417 0.0
Zn797 Zn 0.61204 0.64265 0.4817 0.0
O798 O 0.66756 0.60655 0.47869 0.0
C799 C 0.64125 0.66839 0.44808 0.0
O800 O 0.65336 0.64028 0.49705 0.0
H801 H 0.55802 0.65309 0.50006 0.0
H802 H 0.68092 0.59544 0.44037 0.0
H803 H 0.63712 0.69141 0.50427 0.0
O804 O 0.64667 0.64283 0.44468 0.0
O805 O 0.62804 0.67449 0.4632 0.0
H806 H 0.59976 0.56214 0.44674 0.0
O807 O 0.57237 0.64522 0.46534 0.0
O808 O 0.59134 0.61496 0.44627 0.0
O809 O 0.59355 0.61076 0.49968 0.0
O810 O 0.60763 0.57889 0.47998 0.0
C811 C 0.57093 0.6307 0.45021 0.0
H812 H 0.69497 0.55483 0.42103 0.0
H813 H 0.61233 0.52091 0.42819 0.0
H814 H 0.53977 0.68195 0.52563 0.0
H815 H 0.62074 0.72078 0.53071 0.0
C816 C 0.38001 0.32006 0.19941 0.0
N817 N 0.41946 0.34849 0.25018 0.0
C818 C 0.41734 0.32156 0.25587 0.0
C819 C 0.4334 0.31172 0.27084 0.0
C820 C 0.45187 0.32975 0.28019 0.0
C821 C 0.45395 0.35743 0.2739 0.0
C822 C 0.43739 0.36644 0.25877 0.0
Zn823 Zn 0.39094 0.36174 0.23099 0.0
C824 C 0.41643 0.39108 0.19727 0.0
N825 N 0.32854 0.38798 0.19338 0.0
C826 C 0.30826 0.36879 0.19007 0.0
C827 C 0.3277 0.41374 0.18546 0.0
C828 C 0.30501 0.42142 0.17429 0.0
C829 C 0.28319 0.40241 0.1716 0.0
C830 C 0.2851 0.37571 0.17929 0.0
Zn831 Zn 0.35881 0.37681 0.21149 0.0
O832 O 0.39548 0.32273 0.21405 0.0
C833 C 0.33377 0.34207 0.24353 0.0
O834 O 0.36266 0.33927 0.19586 0.0
H835 H 0.34416 0.42852 0.1883 0.0
H836 H 0.40273 0.30772 0.24902 0.0
H837 H 0.30956 0.34827 0.19629 0.0
O838 O 0.35931 0.34154 0.24823 0.0
O839 O 0.32692 0.357 0.22936 0.0
H840 H 0.43849 0.38786 0.25411 0.0
O841 O 0.35537 0.41683 0.2268 0.0
O842 O 0.38629 0.40193 0.24713 0.0
O843 O 0.3907 0.39391 0.19315 0.0
O844 O 0.42285 0.37998 0.21314 0.0
C845 C 0.37019 0.42153 0.24149 0.0
H846 H 0.43173 0.28999 0.27475 0.0
H847 H 0.46809 0.37193 0.28062 0.0
H848 H 0.30381 0.44237 0.16864 0.0
H849 H 0.26851 0.36069 0.17741 0.0
C850 C 0.46982 0.63233 0.95126 0.0
N851 N 0.44116 0.67404 1.00125 0.0
C852 C 0.46806 0.67181 1.00705 0.0
C853 C 0.47768 0.68751 1.02222 0.0
C854 C 0.45948 0.70574 0.03165 0.0
C855 C 0.43195 0.70826 0.02508 0.0
C856 C 0.42313 0.69202 1.00976 0.0
Zn857 Zn 0.42788 0.64481 0.98261 0.0
C858 C 0.39893 0.66872 0.94823 0.0
N859 N 0.4016 0.58071 0.94658 0.0
C860 C 0.42078 0.56035 0.94323 0.0
C861 C 0.3747 0.57826 0.94086 0.0
C862 C 0.36576 0.55363 0.93248 0.0
C863 C 0.38484 0.53181 0.93006 0.0
C864 C 0.41273 0.53542 0.93493 0.0
Zn865 Zn 0.41319 0.61199 0.96361 0.0
O866 O 0.46698 0.64837 0.96559 0.0
C867 C 0.4478 0.58839 0.99616 0.0
O868 O 0.45064 0.61492 0.9479 0.0
H869 H 0.35994 0.59475 0.94374 0.0
H870 H 0.48195 0.65714 1.00027 0.0
H871 H 0.44204 0.56271 0.94801 0.0
O872 O 0.448 0.614 1.00056 0.0
O873 O 0.43311 0.58106 0.982 0.0
H874 H 0.40173 0.69322 1.00502 0.0
O875 O 0.37325 0.6094 0.97903 0.0
O876 O 0.38763 0.64115 0.99883 0.0
O877 O 0.39609 0.64286 0.94459 0.0
O878 O 0.40979 0.6758 0.96404 0.0
C879 C 0.3682 0.62478 0.99336 0.0
H880 H 0.49933 0.68557 0.02636 0.0
H881 H 0.41736 0.72233 0.03183 0.0
H882 H 0.34397 0.55104 0.92885 0.0
H883 H 0.4277 0.51868 0.93328 0.0
C884 C 0.1586 0.7201 0.70169 0.0
N885 N 0.11764 0.68962 0.75094 0.0
C886 C 0.11944 0.71662 0.75654 0.0
C887 C 0.10338 0.72633 0.77152 0.0
C888 C 0.08519 0.70815 0.78095 0.0
C889 C 0.08326 0.68046 0.77467 0.0
C890 C 0.0999 0.67152 0.75955 0.0
Zn891 Zn 0.14666 0.67686 0.73192 0.0
C892 C 0.12343 0.64829 0.69811 0.0
N893 N 0.21193 0.65351 0.69586 0.0
C894 C 0.2321 0.67301 0.69305 0.0
C895 C 0.21259 0.62844 0.68696 0.0
C896 C 0.23471 0.62198 0.67497 0.0
C897 C 0.25602 0.64153 0.67238 0.0
C898 C 0.25465 0.6673 0.68137 0.0
Zn899 Zn 0.18115 0.66362 0.71381 0.0
O900 O 0.14117 0.71529 0.71494 0.0
C901 C 0.2038 0.69768 0.74593 0.0
O902 O 0.17792 0.70252 0.69895 0.0
H903 H 0.19623 0.61342 0.68941 0.0
H904 H 0.13387 0.7306 0.74966 0.0
H905 H 0.23098 0.69296 0.70008 0.0
O906 O 0.17778 0.69829 0.74929 0.0
O907 O 0.21221 0.68217 0.7325 0.0
H908 H 0.09905 0.65006 0.75497 0.0
O909 O 0.18454 0.62297 0.72866 0.0
O910 O 0.15161 0.63668 0.74788 0.0
O911 O 0.14947 0.64712 0.69439 0.0
O912 O 0.11585 0.65799 0.71412 0.0
C913 C 0.16868 0.61761 0.74274 0.0
H914 H 0.10489 0.74809 0.77542 0.0
H915 H 0.06926 0.66587 0.78144 0.0
H916 H 0.23566 0.60171 0.66824 0.0
H917 H 0.27106 0.68256 0.67966 0.0
C918 C 0.06962 0.4067 0.45164 0.0
N919 N 0.09821 0.36591 0.50174 0.0
C920 C 0.0713 0.36846 0.50745 0.0
C921 C 0.06142 0.35297 0.52263 0.0
C922 C 0.07935 0.33461 0.5322 0.0
C923 C 0.10697 0.33192 0.52582 0.0
C924 C 0.11606 0.34796 0.51048 0.0
Zn925 Zn 0.11152 0.39437 0.48254 0.0
C926 C 0.14012 0.36934 0.44875 0.0
N927 N 0.13782 0.4573 0.44553 0.0
C928 C 0.11847 0.47747 0.4422 0.0
C929 C 0.16316 0.4576 0.43698 0.0
C930 C 0.17017 0.4795 0.42496 0.0
C931 C 0.15089 0.5011 0.42196 0.0
C932 C 0.12466 0.49978 0.43046 0.0
Zn933 Zn 0.12693 0.42712 0.46372 0.0
O934 O 0.07218 0.39068 0.46598 0.0
C935 C 0.09247 0.45138 0.49599 0.0
O936 O 0.08908 0.42378 0.44831 0.0
H937 H 0.17806 0.44119 0.43982 0.0
H938 H 0.05755 0.38312 0.50052 0.0
H939 H 0.09827 0.4766 0.44892 0.0
O940 O 0.09205 0.42565 0.5 0.0
O941 O 0.10746 0.45904 0.48204 0.0
H942 H 0.13748 0.34653 0.50583 0.0
O943 O 0.16695 0.43018 0.47861 0.0
O944 O 0.15242 0.39829 0.49832 0.0
O945 O 0.14391 0.39509 0.44509 0.0
O946 O 0.12855 0.36272 0.46437 0.0
C947 C 0.17192 0.41464 0.49289 0.0
H948 H 0.03972 0.35508 0.5266 0.0
H949 H 0.12138 0.31779 0.5327 0.0
H950 H 0.1908 0.48021 0.41876 0.0
H951 H 0.10938 0.51613 0.42838 0.0
C952 C 0.37866 0.71758 0.34854 0.0
N953 N 0.41775 0.69004 0.29697 0.0
C954 C 0.41818 0.71795 0.29386 0.0
C955 C 0.43205 0.72891 0.27829 0.0
C956 C 0.44487 0.7111 0.26502 0.0
C957 C 0.44401 0.68225 0.26859 0.0
C958 C 0.43074 0.6722 0.28485 0.0
Zn959 Zn 0.39013 0.676 0.31685 0.0
C960 C 0.41626 0.64729 0.35056 0.0
N961 N 0.32802 0.64914 0.35445 0.0
C962 C 0.30722 0.66791 0.35755 0.0
C963 C 0.32707 0.62295 0.36168 0.0
C964 C 0.3036 0.61429 0.37166 0.0
C965 C 0.28121 0.6328 0.37384 0.0
C966 C 0.28328 0.66001 0.36712 0.0
Zn967 Zn 0.35815 0.66082 0.33646 0.0
O968 O 0.39447 0.71465 0.33412 0.0
C969 C 0.3327 0.69532 0.30459 0.0
O970 O 0.36121 0.6985 0.352 0.0
H971 H 0.34391 0.6085 0.35896 0.0
H972 H 0.40698 0.73194 0.30309 0.0
H973 H 0.30852 0.68872 0.3518 0.0
O974 O 0.35824 0.69625 0.30001 0.0
O975 O 0.32594 0.68006 0.31859 0.0
H976 H 0.43012 0.65003 0.28733 0.0
O977 O 0.35524 0.62061 0.32133 0.0
O978 O 0.38525 0.63585 0.30063 0.0
O979 O 0.39055 0.64446 0.35478 0.0
O980 O 0.42253 0.65786 0.33448 0.0
C981 C 0.36966 0.61606 0.30647 0.0
H982 H 0.43272 0.75132 0.27698 0.0
H983 H 0.45318 0.66733 0.25896 0.0
H984 H 0.30222 0.59299 0.37662 0.0
H985 H 0.26615 0.67458 0.36861 0.0
C986 C 0.07002 0.63169 0.09746 0.0
N987 N 0.099 0.67412 0.04809 0.0
C988 C 0.07196 0.67214 0.04256 0.0
C989 C 0.06213 0.68784 0.02744 0.0
C990 C 0.08022 0.70586 1.01779 0.0
C991 C 0.1079 0.70815 0.02409 0.0
C992 C 0.11697 0.69187 0.03935 0.0
Zn993 Zn 0.11225 0.64482 0.06676 0.0
C994 C 0.14065 0.66805 0.1011 0.0
N995 N 0.13764 0.57977 0.1024 0.0
C996 C 0.11868 0.55899 0.10474 0.0
C997 C 0.16302 0.57895 0.1109 0.0
C998 C 0.17058 0.55584 0.12169 0.0
C999 C 0.15184 0.53359 0.1234 0.0
C1000 C 0.1255 0.53542 0.11511 0.0
Zn1001 Zn 0.12671 0.61096 0.085 0.0
O1002 O 0.07344 0.64888 0.08384 0.0
C1003 C 0.09238 0.58842 0.05229 0.0
O1004 O 0.08862 0.61334 0.10009 0.0
H1005 H 0.17762 0.59582 0.10884 0.0
H1006 H 0.0581 0.65766 0.04951 0.0
H1007 H 0.09843 0.56028 0.0981 0.0
O1008 O 0.09159 0.61439 0.04904 0.0
O1009 O 0.10792 0.58001 0.06577 0.0
H1010 H 0.13848 0.69286 0.04387 0.0
O1011 O 0.16717 0.60886 0.07034 0.0
O1012 O 0.15251 0.64057 0.0505 0.0
O1013 O 0.14275 0.64206 0.10463 0.0
O1014 O 0.13064 0.67556 0.08513 0.0
C1015 C 0.17209 0.62431 0.05601 0.0
H1016 H 0.04037 0.68609 1.02352 0.0
H1017 H 0.12241 0.72208 1.01716 0.0
H1018 H 0.19125 0.55473 0.12782 0.0
H1019 H 0.11069 0.51849 0.11623 0.0
C1020 C 0.16264 0.32015 0.84845 0.0
N1021 N 0.12431 0.34567 0.79715 0.0
C1022 C 0.13226 0.32049 0.79017 0.0
C1023 C 0.1188 0.30891 0.77469 0.0
C1024 C 0.09525 0.32207 0.76698 0.0
C1025 C 0.08696 0.34789 0.77477 0.0
C1026 C 0.1022 0.35961 0.78971 0.0
Zn1027 Zn 0.1507 0.3617 0.81691 0.0
C1028 C 0.12334 0.3896 0.85006 0.0
N1029 N 0.21109 0.38974 0.85532 0.0
C1030 C 0.23063 0.37044 0.86021 0.0
C1031 C 0.21108 0.41573 0.86288 0.0
C1032 C 0.23197 0.42339 0.87558 0.0
C1033 C 0.25281 0.404 0.88034 0.0
C1034 C 0.25177 0.37717 0.87276 0.0
Zn1035 Zn 0.1824 0.37739 0.83646 0.0
O1036 O 0.14846 0.322 0.83318 0.0
C1037 C 0.20969 0.34441 0.80515 0.0
O1038 O 0.17844 0.34029 0.85269 0.0
H1039 H 0.1952 0.43057 0.8588 0.0
H1040 H 0.14959 0.30936 0.79636 0.0
H1041 H 0.23012 0.34978 0.85417 0.0
O1042 O 0.18451 0.34487 0.79974 0.0
O1043 O 0.21583 0.35783 0.82008 0.0
H1044 H 0.09637 0.37972 0.79538 0.0
O1045 O 0.18593 0.41676 0.82021 0.0
O1046 O 0.15241 0.40267 0.80153 0.0
O1047 O 0.14895 0.39439 0.85372 0.0
O1048 O 0.11724 0.37709 0.83463 0.0
C1049 C 0.16953 0.42187 0.80634 0.0
H1050 H 0.12684 0.28955 0.76908 0.0
H1051 H 0.06862 0.35875 0.76976 0.0
H1052 H 0.23244 0.44446 0.88102 0.0
H1053 H 0.26744 0.36172 0.87624 0.0
C1054 C 0.47017 0.40951 0.59701 0.0
N1055 N 0.44177 0.36668 0.54773 0.0
C1056 C 0.46892 0.36885 0.54253 0.0
C1057 C 0.47927 0.35309 0.5276 0.0
C1058 C 0.46154 0.33487 0.51778 0.0
C1059 C 0.43371 0.33247 0.52372 0.0
C1060 C 0.42416 0.34876 0.53882 0.0
Zn1061 Zn 0.42766 0.39576 0.56623 0.0
C1062 C 0.4 0.37211 0.60048 0.0
N1063 N 0.40103 0.46052 0.60143 0.0
C1064 C 0.41816 0.48281 0.6037 0.0
C1065 C 0.37442 0.46063 0.60791 0.0
C1066 C 0.36335 0.48477 0.61575 0.0
C1067 C 0.37985 0.50888 0.61667 0.0
C1068 C 0.40789 0.50744 0.61131 0.0
Zn1069 Zn 0.41391 0.42961 0.58454 0.0
O1070 O 0.46552 0.39171 0.58394 0.0
C1071 C 0.44764 0.45279 0.55214 0.0
O1072 O 0.45248 0.4288 0.59957 0.0
H1073 H 0.36135 0.44252 0.60599 0.0
H1074 H 0.48249 0.38346 0.54963 0.0
H1075 H 0.43932 0.48211 0.5985 0.0
O1076 O 0.44889 0.42679 0.54894 0.0
O1077 O 0.43165 0.46099 0.5654 0.0
H1078 H 0.40256 0.34761 0.54308 0.0
O1079 O 0.37324 0.43032 0.56972 0.0
O1080 O 0.38816 0.39967 0.54932 0.0
O1081 O 0.39879 0.39808 0.60428 0.0
O1082 O 0.40894 0.3647 0.58421 0.0
C1083 C 0.3684 0.41537 0.55515 0.0
H1084 H 0.50111 0.35495 0.52396 0.0
H1085 H 0.41945 0.31843 0.51664 0.0
H1086 H 0.34178 0.48494 0.62025 0.0
H1087 H 0.42124 0.52559 0.61183 0.0
H1088 H 0.11127 0.24963 0.35754 0.0
H1089 H 0.20027 0.24621 0.36571 0.0
H1090 H 0.10792 0.28583 0.3821 0.0
H1091 H 0.197 0.28298 0.38971 0.0
H1092 H 0.17536 0.37142 0.41779 0.0
H1093 H 0.18012 0.33699 0.39216 0.0
H1094 H 0.11964 0.28452 0.41967 0.0
H1095 H 0.11557 0.31822 0.44552 0.0
C1096 C 0.13017 0.25701 0.36425 0.0
C1097 C 0.15605 0.24503 0.35956 0.0
C1098 C 0.12824 0.2776 0.37843 0.0
C1099 C 0.1522 0.28729 0.38792 0.0
C1100 C 0.17817 0.27612 0.38266 0.0
C1101 C 0.18001 0.25502 0.36889 0.0
C1102 C 0.16339 0.35236 0.41852 0.0
C1103 C 0.14531 0.34757 0.4339 0.0
C1104 C 0.16604 0.33267 0.40379 0.0
C1105 C 0.15005 0.30809 0.40376 0.0
C1106 C 0.13206 0.30331 0.41914 0.0
C1107 C 0.12997 0.32256 0.43408 0.0
H1108 H 0.03909 0.86526 0.60648 0.0
H1109 H 0.04666 0.95282 0.61902 0.0
H1110 H 1.00214 0.86127 0.63047 0.0
H1111 H 1.00907 0.94899 0.64242 0.0
H1112 H 0.91777 0.92733 0.6676 0.0
H1113 H 0.95303 0.93307 0.64257 0.0
H1114 H 1.00426 0.87057 0.66927 0.0
H1115 H 0.96979 0.86556 0.69457 0.0
C1116 C 0.0325 0.88376 0.61405 0.0
C1117 C 0.04585 0.90937 0.61075 0.0
C1118 C 1.01146 0.88144 0.62788 0.0
C1119 C 1.00266 0.90483 0.63838 0.0
C1120 C 1.01525 0.93063 0.63455 0.0
C1121 C 0.03681 0.93278 0.62113 0.0
C1122 C 0.93672 0.91511 0.66827 0.0
C1123 C 0.94097 0.8962 0.68328 0.0
C1124 C 0.95688 0.91833 0.6539 0.0
C1125 C 0.98136 0.90209 0.65383 0.0
C1126 C 0.98557 0.88323 0.66881 0.0
C1127 C 0.96587 0.88058 0.68343 0.0
H1128 H 0.41209 0.77112 0.84511 0.0
H1129 H 0.3542 0.81542 0.88102 0.0
H1130 H 0.415 0.73384 0.86903 0.0
H1131 H 0.35726 0.77877 0.90457 0.0
H1132 H 0.39617 0.7256 0.9522 0.0
H1133 H 0.39199 0.76078 0.92734 0.0
H1134 H 0.38617 0.69609 0.8851 0.0
H1135 H 0.39018 0.66077 0.91003 0.0
C1136 C 0.39992 0.77292 0.85798 0.0
C1137 C 0.38296 0.79647 0.861 0.0
C1138 C 0.4015 0.7515 0.87169 0.0
C1139 C 0.38651 0.75331 0.88889 0.0
C1140 C 0.36943 0.77672 0.89171 0.0
C1141 C 0.36758 0.79777 0.87803 0.0
C1142 C 0.39362 0.71879 0.93766 0.0
C1143 C 0.39323 0.6902 0.93326 0.0
C1144 C 0.39125 0.73902 0.92334 0.0
C1145 C 0.38883 0.7314 0.9041 0.0
C1146 C 0.38828 0.70281 0.89969 0.0
C1147 C 0.39024 0.68253 0.91406 0.0
H1148 H 0.63058 0.13536 0.15908 0.0
H1149 H 0.5663 0.14503 0.20132 0.0
H1150 H 0.59483 0.13015 0.13448 0.0
H1151 H 0.53074 0.1397 0.17685 0.0
H1152 H 0.4742 0.10094 0.1322 0.0
H1153 H 0.51143 0.10447 0.15536 0.0
H1154 H 0.55738 0.15797 0.11755 0.0
H1155 H 0.51959 0.15453 0.09403 0.0
C1156 C 0.60886 0.13597 0.16321 0.0
C1157 C 0.60148 0.14037 0.18234 0.0
C1158 C 0.58831 0.13331 0.14901 0.0
C1159 C 0.55974 0.13454 0.15354 0.0
C1160 C 0.55244 0.13836 0.17274 0.0
C1161 C 0.57292 0.14142 0.18685 0.0
C1162 C 0.4922 0.11346 0.12863 0.0
C1163 C 0.49362 0.12751 0.11108 0.0
C1164 C 0.51361 0.11559 0.14209 0.0
C1165 C 0.5375 0.13166 0.13853 0.0
C1166 C 0.53939 0.14526 0.12081 0.0
C1167 C 0.51766 0.14338 0.10731 0.0
H1168 H 0.18498 0.81423 0.16912 0.0
H1169 H 0.12581 0.77044 0.20421 0.0
H1170 H 0.18245 0.77756 0.14553 0.0
H1171 H 0.12338 0.7332 0.18026 0.0
H1172 H 0.14776 0.65983 0.13949 0.0
H1173 H 0.15161 0.69503 0.16451 0.0
H1174 H 0.14887 0.75988 0.12222 0.0
H1175 H 0.1449 0.72484 0.09729 0.0
C1176 C 0.17143 0.79669 0.17192 0.0
C1177 C 0.15553 0.79555 0.18873 0.0
C1178 C 0.16988 0.77562 0.15821 0.0
C1179 C 0.15257 0.75235 0.16078 0.0
C1180 C 0.13707 0.75072 0.17778 0.0
C1181 C 0.13838 0.77213 0.19151 0.0
C1182 C 0.14836 0.68159 0.13548 0.0
C1183 C 0.14627 0.68934 0.11623 0.0
C1184 C 0.15023 0.70183 0.1499 0.0
C1185 C 0.15049 0.73045 0.14551 0.0
C1186 C 0.14899 0.73811 0.12623 0.0
C1187 C 0.14673 0.71794 0.11186 0.0
H1188 H 0.62198 0.92491 0.38059 0.0
H1189 H 0.57073 0.86262 0.35371 0.0
H1190 H 0.58714 0.92984 0.4059 0.0
H1191 H 0.53651 0.86695 0.37926 0.0
H1192 H 0.49908 0.86112 0.44069 0.0
H1193 H 0.53561 0.85697 0.41639 0.0
H1194 H 0.53424 0.94596 0.40844 0.0
H1195 H 0.49725 0.95002 0.43219 0.0
C1196 C 0.60326 0.91239 0.37998 0.0
C1197 C 0.59916 0.89359 0.3649 0.0
C1198 C 0.5833 0.91516 0.39454 0.0
C1199 C 0.55907 0.89861 0.39475 0.0
C1200 C 0.555 0.87983 0.37968 0.0
C1201 C 0.57455 0.87759 0.3649 0.0
C1202 C 0.50685 0.87982 0.43396 0.0
C1203 C 0.49523 0.90591 0.4385 0.0
C1204 C 0.52763 0.87744 0.4199 0.0
C1205 C 0.53788 0.90114 0.41038 0.0
C1206 C 0.527 0.9273 0.41549 0.0
C1207 C 0.50575 0.9296 0.42913 0.0
H1208 H 0.39403 0.37993 0.639 0.0
H1209 H 0.39505 0.31536 0.59648 0.0
H1210 H 0.39028 0.34453 0.66389 0.0
H1211 H 0.39122 0.28011 0.62127 0.0
H1212 H 0.35562 0.22554 0.66824 0.0
H1213 H 0.35827 0.2623 0.64472 0.0
H1214 H 0.41786 0.30608 0.67943 0.0
H1215 H 0.41528 0.26877 0.70331 0.0
C1216 C 0.39307 0.35823 0.63489 0.0
C1217 C 0.39458 0.35068 0.61558 0.0
C1218 C 0.39125 0.33786 0.64924 0.0
C1219 C 0.39049 0.30929 0.64474 0.0
C1220 C 0.39147 0.30182 0.6254 0.0
C1221 C 0.39365 0.32213 0.61109 0.0
C1222 C 0.36932 0.24296 0.67105 0.0
C1223 C 0.3853 0.24392 0.68784 0.0
C1224 C 0.37094 0.26409 0.65737 0.0
C1225 C 0.38842 0.28725 0.65995 0.0
C1226 C 0.40403 0.28868 0.67693 0.0
C1227 C 0.40264 0.26721 0.69063 0.0
H1228 H 0.04445 0.08642 0.92964 0.0
H1229 H 0.03706 0.17397 0.94226 0.0
H1230 H 1.00734 0.0906 0.90592 0.0
H1231 H 1.00048 0.17832 0.91799 0.0
H1232 H 0.96733 0.17666 0.85464 0.0
H1233 H 1.0013 0.17154 0.88026 0.0
H1234 H 0.95302 0.10442 0.90389 0.0
H1235 H 0.91828 0.11014 0.8785 0.0
C1236 C 0.0347 0.10654 0.9275 0.0
C1237 C 0.04371 0.12983 0.93801 0.0
C1238 C 1.01339 0.1089 0.91388 0.0
C1239 C 1.00096 0.1348 0.90994 0.0
C1240 C 1.00968 0.15807 0.9206 0.0
C1241 C 0.0305 0.15555 0.93463 0.0
C1242 C 0.96395 0.16061 0.86517 0.0
C1243 C 0.94002 0.14366 0.86431 0.0
C1244 C 0.98336 0.15789 0.88 0.0
C1245 C 0.97988 0.1377 0.89425 0.0
C1246 C 0.95637 0.1202 0.89317 0.0
C1247 C 0.93649 0.12342 0.87857 0.0
H1248 H 0.84047 0.79611 0.67937 0.0
H1249 H 0.92817 0.78852 0.69168 0.0
H1250 H 0.84438 0.75919 0.65556 0.0
H1251 H 0.93225 0.75207 0.66732 0.0
H1252 H 0.93026 0.71747 0.60436 0.0
H1253 H 0.92577 0.75181 0.62983 0.0
H1254 H 0.85722 0.70544 0.65336 0.0
H1255 H 0.86226 0.67042 0.62817 0.0
C1256 C 0.86058 0.78638 0.67713 0.0
C1257 C 0.88397 0.79526 0.68761 0.0
C1258 C 0.8628 0.76517 0.66345 0.0
C1259 C 0.88864 0.75266 0.65939 0.0
C1260 C 0.91204 0.76131 0.66999 0.0
C1261 C 0.90967 0.78206 0.68408 0.0
C1262 C 0.91403 0.71462 0.61484 0.0
C1263 C 0.89647 0.69113 0.61401 0.0
C1264 C 0.91167 0.73423 0.62959 0.0
C1265 C 0.89125 0.7314 0.64377 0.0
C1266 C 0.87318 0.70833 0.6427 0.0
C1267 C 0.87602 0.68827 0.6282 0.0
H1268 H 0.99968 0.09045 0.43526 0.0
H1269 H 0.99909 0.17979 0.44128 0.0
H1270 H 0.03678 0.09394 0.41153 0.0
H1271 H 0.03567 0.18332 0.41697 0.0
H1272 H 0.06919 0.17387 0.35393 0.0
H1273 H 0.0357 0.17018 0.3799 0.0
H1274 H 0.08988 0.11217 0.40855 0.0
H1275 H 0.12412 0.11658 0.38275 0.0
C1276 C 1.0077 0.11086 0.43168 0.0
C1277 C 0.99645 0.13484 0.44033 0.0
C1278 C 0.029 0.11283 0.41806 0.0
C1279 C 0.03919 0.1389 0.41224 0.0
C1280 C 0.02825 0.16291 0.42107 0.0
C1281 C 1.00744 0.16089 0.43512 0.0
C1282 C 0.074 0.16011 0.36566 0.0
C1283 C 0.09941 0.14533 0.36606 0.0
C1284 C 0.05484 0.15825 0.38068 0.0
C1285 C 0.06009 0.14103 0.39641 0.0
C1286 C 0.08515 0.12565 0.39666 0.0
C1287 C 0.10475 0.12811 0.38183 0.0
H1288 H 0.65169 0.3788 0.13825 0.0
H1289 H 0.64097 0.31567 0.09535 0.0
H1290 H 0.65605 0.34255 0.16251 0.0
H1291 H 0.64552 0.27951 0.11955 0.0
H1292 H 0.68397 0.22189 0.16433 0.0
H1293 H 0.68045 0.25907 0.14109 0.0
H1294 H 0.62745 0.30557 0.17903 0.0
H1295 H 0.63084 0.26785 0.20255 0.0
C1296 C 0.65064 0.35721 0.1339 0.0
C1297 C 0.64621 0.35033 0.11468 0.0
C1298 C 0.65282 0.33637 0.14791 0.0
C1299 C 0.65108 0.30794 0.14313 0.0
C1300 C 0.64721 0.30109 0.12385 0.0
C1301 C 0.64461 0.3219 0.1099 0.0
C1302 C 0.67155 0.24 0.16788 0.0
C1303 C 0.65767 0.24164 0.18549 0.0
C1304 C 0.6694 0.26137 0.15439 0.0
C1305 C 0.65356 0.28545 0.15799 0.0
C1306 C 0.64 0.28745 0.17573 0.0
C1307 C 0.64184 0.26575 0.18923 0.0
H1308 H 0.41093 0.90012 0.88864 0.0
H1309 H 0.47563 0.89172 0.84656 0.0
H1310 H 0.44637 0.90366 0.91355 0.0
H1311 H 0.51094 0.89546 0.87139 0.0
H1312 H 0.56659 0.93247 0.91753 0.0
H1313 H 0.52993 0.92988 0.89389 0.0
H1314 H 0.48344 0.87428 0.92994 0.0
H1315 H 0.52069 0.87671 0.95393 0.0
C1316 C 0.43269 0.89944 0.88462 0.0
C1317 C 0.44028 0.8959 0.86544 0.0
C1318 C 0.45305 0.90113 0.89899 0.0
C1319 C 0.48165 0.89977 0.89461 0.0
C1320 C 0.4892 0.89682 0.87538 0.0
C1321 C 0.46888 0.89471 0.86108 0.0
C1322 C 0.5486 0.91966 0.9206 0.0
C1323 C 0.54684 0.90474 0.9378 0.0
C1324 C 0.52753 0.91808 0.90687 0.0
C1325 C 0.50365 0.90176 0.90982 0.0
C1326 C 0.50145 0.8872 0.92717 0.0
C1327 C 0.52286 0.88849 0.94092 0.0
H1328 H 0.85617 0.22036 0.88533 0.0
H1329 H 0.90404 0.26881 0.84545 0.0
H1330 H 0.86067 0.25717 0.90883 0.0
H1331 H 0.90843 0.30602 0.86918 0.0
H1332 H 0.88641 0.37787 0.91101 0.0
H1333 H 0.88071 0.34169 0.88693 0.0
H1334 H 0.89637 0.27866 0.92921 0.0
H1335 H 0.90225 0.31484 0.95329 0.0
C1336 C 0.8676 0.23894 0.88147 0.0
C1337 C 0.87972 0.24142 0.86333 0.0
C1338 C 0.87034 0.26008 0.8951 0.0
C1339 C 0.88502 0.28471 0.89108 0.0
C1340 C 0.89679 0.28749 0.87282 0.0
C1341 C 0.89436 0.26608 0.85919 0.0
C1342 C 0.88837 0.35629 0.91527 0.0
C1343 C 0.89462 0.34944 0.93426 0.0
C1344 C 0.88537 0.33548 0.90135 0.0
C1345 C 0.88814 0.30708 0.90597 0.0
C1346 C 0.89384 0.30022 0.92504 0.0
C1347 C 0.89723 0.32104 0.93892 0.0
H1348 H 0.54186 0.17791 0.60823 0.0
H1349 H 0.54181 0.08857 0.61447 0.0
H1350 H 0.5056 0.18151 0.63272 0.0
H1351 H 0.50507 0.09214 0.63845 0.0
H1352 H 0.41828 0.11455 0.6678 0.0
H1353 H 0.45235 0.10971 0.64196 0.0
H1354 H 0.50587 0.16927 0.66952 0.0
H1355 H 0.47252 0.17347 0.69551 0.0
C1356 C 0.53371 0.15902 0.6145 0.0
C1357 C 0.54475 0.13296 0.60929 0.0
C1358 C 0.51308 0.16108 0.62865 0.0
C1359 C 0.50244 0.1371 0.63762 0.0
C1360 C 0.51265 0.111 0.63181 0.0
C1361 C 0.53375 0.10899 0.61805 0.0
C1362 C 0.43749 0.12631 0.66848 0.0
C1363 C 0.44265 0.14418 0.68393 0.0
C1364 C 0.45698 0.12361 0.65363 0.0
C1365 C 0.48176 0.13933 0.65354 0.0
C1366 C 0.48692 0.15709 0.669 0.0
C1367 C 0.46785 0.15924 0.68403 0.0
H1368 H 0.61595 0.78701 0.35548 0.0
H1369 H 0.70293 0.79653 0.36938 0.0
H1370 H 0.61194 0.75018 0.37958 0.0
H1371 H 0.69913 0.75911 0.39289 0.0
H1372 H 0.67965 0.66837 0.41882 0.0
H1373 H 0.68528 0.70337 0.39362 0.0
H1374 H 0.6191 0.75224 0.41813 0.0
H1375 H 0.61414 0.71806 0.44361 0.0
C1376 C 0.63434 0.78085 0.36336 0.0
C1377 C 0.65978 0.79472 0.36041 0.0
C1378 C 0.63201 0.75989 0.37726 0.0
C1379 C 0.65523 0.75169 0.38819 0.0
C1380 C 0.68089 0.76479 0.38469 0.0
C1381 C 0.68303 0.78626 0.37121 0.0
C1382 C 0.66657 0.68676 0.41899 0.0
C1383 C 0.64665 0.69042 0.43345 0.0
C1384 C 0.66973 0.70677 0.4045 0.0
C1385 C 0.65245 0.73051 0.40375 0.0
C1386 C 0.63257 0.73412 0.41818 0.0
C1387 C 0.62995 0.71459 0.43291 0.0
H1388 H 0.12197 0.9247 0.16834 0.0
H1389 H 0.0682 0.86531 0.19597 0.0
H1390 H 0.08786 0.92931 0.14246 0.0
H1391 H 0.03482 0.86927 0.16993 0.0
H1392 H 0.99903 0.86048 0.10851 0.0
H1393 H 0.03532 0.85713 0.13304 0.0
H1394 H 0.03483 0.94646 0.13903 0.0
H1395 H 0.99804 0.94976 0.11503 0.0
C1396 C 0.10286 0.91278 0.16899 0.0
C1397 C 0.09783 0.89486 0.18443 0.0
C1398 C 0.08335 0.91535 0.15412 0.0
C1399 C 0.05869 0.89944 0.154 0.0
C1400 C 0.05368 0.88161 0.16944 0.0
C1401 C 0.07276 0.87959 0.1845 0.0
C1402 C 1.00696 0.87942 0.11485 0.0
C1403 C 0.99561 0.90539 0.10971 0.0
C1404 C 0.0276 0.8775 0.12902 0.0
C1405 C 0.03798 0.90154 0.13807 0.0
C1406 C 0.02746 0.92756 0.13233 0.0
C1407 C 1.00634 0.92942 0.11856 0.0
H1408 H 0.61668 0.81776 0.94557 0.0
H1409 H 0.67582 0.87184 0.91797 0.0
H1410 H 0.6205 0.78466 0.91939 0.0
H1411 H 0.68026 0.83803 0.89195 0.0
H1412 H 0.70077 0.74918 0.86368 0.0
H1413 H 0.69752 0.78561 0.88789 0.0
H1414 H 0.60801 0.785 0.88277 0.0
H1415 H 0.61129 0.74904 0.85805 0.0
C1416 C 0.63089 0.82245 0.93408 0.0
C1417 C 0.64612 0.84753 0.93407 0.0
C1418 C 0.63282 0.80353 0.91894 0.0
C1419 C 0.65051 0.80871 0.90345 0.0
C1420 C 0.66641 0.83337 0.90363 0.0
C1421 C 0.66394 0.85271 0.9186 0.0
C1422 C 0.68038 0.75717 0.86744 0.0
C1423 C 0.65629 0.74622 0.85878 0.0
C1424 C 0.67855 0.77808 0.88134 0.0
C1425 C 0.65252 0.78819 0.8874 0.0
C1426 C 0.6284 0.7776 0.87852 0.0
C1427 C 0.63028 0.75716 0.86423 0.0
H1428 H 0.41012 0.40179 0.15914 0.0
H1429 H 0.47325 0.39351 0.20237 0.0
H1430 H 0.44643 0.40722 0.13505 0.0
H1431 H 0.50947 0.39909 0.17833 0.0
H1432 H 0.56652 0.43799 0.13359 0.0
H1433 H 0.52917 0.43405 0.15669 0.0
H1434 H 0.48422 0.37971 0.11883 0.0
H1435 H 0.52205 0.38355 0.09547 0.0
C1436 C 0.43172 0.4015 0.1636 0.0
C1437 C 0.43859 0.39742 0.18285 0.0
C1438 C 0.4526 0.4043 0.14969 0.0
C1439 C 0.48105 0.40353 0.15461 0.0
C1440 C 0.48787 0.40005 0.17393 0.0
C1441 C 0.46702 0.39684 0.18778 0.0
C1442 C 0.5487 0.42521 0.13003 0.0
C1443 C 0.54753 0.41107 0.11251 0.0
C1444 C 0.52724 0.42283 0.14344 0.0
C1445 C 0.50357 0.40644 0.13981 0.0
C1446 C 0.50201 0.39268 0.12214 0.0
C1447 C 0.52377 0.39479 0.10873 0.0
H1448 H 0.89408 0.22528 0.45281 0.0
H1449 H 0.89459 0.16071 0.41026 0.0
H1450 H 0.88927 0.26046 0.42796 0.0
H1451 H 0.89002 0.19598 0.38538 0.0
H1452 H 0.91379 0.27245 0.3463 0.0
H1453 H 0.91747 0.2354 0.3703 0.0
H1454 H 0.85498 0.27667 0.40412 0.0
H1455 H 0.85112 0.31312 0.38042 0.0
C1456 C 0.89287 0.21851 0.43819 0.0
C1457 C 0.89447 0.18999 0.43368 0.0
C1458 C 0.89013 0.23874 0.42387 0.0
C1459 C 0.88934 0.23119 0.40455 0.0
C1460 C 0.89083 0.20267 0.40004 0.0
C1461 C 0.89313 0.18239 0.41438 0.0
C1462 C 0.90072 0.27348 0.35879 0.0
C1463 C 0.88217 0.29594 0.36128 0.0
C1464 C 0.90277 0.25219 0.37256 0.0
C1465 C 0.88666 0.25304 0.38932 0.0
C1466 C 0.86801 0.27538 0.39162 0.0
C1467 C 0.8657 0.2963 0.37785 0.0
H1468 H 0.9747 0.60133 0.63314 0.0
H1469 H 1.01972 0.65548 0.59516 0.0
H1470 H 1.01211 0.60461 0.65619 0.0
H1471 H 0.05754 0.65891 0.61858 0.0
H1472 H 0.13105 0.63897 0.6598 0.0
H1473 H 0.09536 0.63317 0.63524 0.0
H1474 H 0.03131 0.6382 0.67802 0.0
H1475 H 0.06679 0.64383 0.70243 0.0
C1476 C 0.99264 0.61396 0.62961 0.0
C1477 C 0.99391 0.62823 0.61215 0.0
C1478 C 1.01417 0.61597 0.643 0.0
C1479 C 0.03796 0.63224 0.63949 0.0
C1480 C 0.03968 0.64603 0.62183 0.0
C1481 C 1.01791 0.64415 0.60838 0.0
C1482 C 0.10936 0.63844 0.66401 0.0
C1483 C 0.10198 0.64166 0.68325 0.0
C1484 C 0.08882 0.63543 0.64985 0.0
C1485 C 0.06025 0.63522 0.65449 0.0
C1486 C 0.05298 0.6379 0.67378 0.0
C1487 C 0.07344 0.64118 0.68787 0.0
H1488 H 0.64518 0.22367 0.59705 0.0
H1489 H 0.646 0.15932 0.63973 0.0
H1490 H 0.64895 0.25904 0.62175 0.0
H1491 H 0.64977 0.19485 0.66454 0.0
H1492 H 0.6257 0.27092 0.70399 0.0
H1493 H 0.62289 0.23337 0.68028 0.0
H1494 H 0.6816 0.2772 0.64495 0.0
H1495 H 0.68441 0.31417 0.66826 0.0
C1496 C 0.64652 0.21697 0.61168 0.0
C1497 C 0.64556 0.18843 0.61623 0.0
C1498 C 0.64868 0.23735 0.62594 0.0
C1499 C 0.64964 0.23002 0.64531 0.0
C1500 C 0.64882 0.20146 0.64988 0.0
C1501 C 0.64699 0.181 0.63557 0.0
C1502 C 0.63809 0.27244 0.69121 0.0
C1503 C 0.6552 0.29584 0.68819 0.0
C1504 C 0.63657 0.25083 0.67759 0.0
C1505 C 0.65185 0.25219 0.66047 0.0
C1506 C 0.66913 0.27543 0.65769 0.0
C1507 C 0.67085 0.29671 0.67125 0.0
H1508 H 0.06629 0.3886 0.84582 0.0
H1509 H 0.13018 0.40265 0.88779 0.0
H1510 H 0.03055 0.39388 0.87026 0.0
H1511 H 0.09438 0.4077 0.91228 0.0
H1512 H 0.02059 0.38363 0.95361 0.0
H1513 H 0.05797 0.37938 0.92987 0.0
H1514 H 1.01035 0.43005 0.89108 0.0
H1515 H 0.97357 0.43448 0.9145 0.0
C1516 C 0.07277 0.3931 0.86021 0.0
C1517 C 0.10127 0.39545 0.86466 0.0
C1518 C 0.05221 0.39612 0.87429 0.0
C1519 C 0.05943 0.40115 0.89338 0.0
C1520 C 0.08793 0.40357 0.89784 0.0
C1521 C 0.1085 0.40098 0.88369 0.0
C1522 C 1.0182 0.39397 0.94006 0.0
C1523 C 0.99388 0.4094 0.93613 0.0
C1524 C 0.03968 0.39161 0.92643 0.0
C1525 C 0.03723 0.40422 0.90839 0.0
C1526 C 1.01298 0.41972 0.90461 0.0
C1527 C 0.99184 0.42239 0.91822 0.0
H1528 H 0.89285 0.81494 0.09755 0.0
H1529 H 0.8955 0.87978 0.13985 0.0
H1530 H 0.88857 0.78 0.12251 0.0
H1531 H 0.89141 0.84464 0.16493 0.0
H1532 H 0.916 0.76709 0.2035 0.0
H1533 H 0.91897 0.80453 0.17971 0.0
H1534 H 0.85489 0.76441 0.1467 0.0
H1535 H 0.85177 0.7276 0.17015 0.0
C1536 C 0.89219 0.82184 0.11216 0.0
C1537 C 0.89424 0.85035 0.11655 0.0
C1538 C 0.88976 0.80172 0.12655 0.0
C1539 C 0.8897 0.80935 0.14586 0.0
C1540 C 0.89162 0.83789 0.15028 0.0
C1541 C 0.89363 0.8581 0.13584 0.0
C1542 C 0.90244 0.7664 0.19123 0.0
C1543 C 0.88371 0.74411 0.18887 0.0
C1544 C 0.90406 0.78792 0.17759 0.0
C1545 C 0.88731 0.78749 0.16111 0.0
C1546 C 0.86842 0.76538 0.15898 0.0
C1547 C 0.86656 0.74423 0.17261 0.0
H1548 H 0.56722 0.60628 0.41537 0.0
H1549 H 0.52021 0.6588 0.4534 0.0
H1550 H 0.53014 0.6091 0.39204 0.0
H1551 H 0.48258 0.66156 0.42972 0.0
H1552 H 0.4099 0.63703 0.38875 0.0
H1553 H 0.44604 0.63326 0.41313 0.0
H1554 H 0.50932 0.64272 0.37021 0.0
H1555 H 0.47326 0.64657 0.34588 0.0
C1556 C 0.54891 0.61845 0.41886 0.0
C1557 C 0.54696 0.63235 0.43645 0.0
C1558 C 0.52758 0.62019 0.4053 0.0
C1559 C 0.50323 0.63569 0.40878 0.0
C1560 C 0.50091 0.64927 0.4265 0.0
C1561 C 0.52255 0.64779 0.44009 0.0
C1562 C 0.43153 0.63795 0.38443 0.0
C1563 C 0.43848 0.64185 0.36517 0.0
C1564 C 0.45231 0.63612 0.39852 0.0
C1565 C 0.48078 0.63775 0.3938 0.0
C1566 C 0.48772 0.6411 0.37449 0.0
C1567 C 0.46695 0.64329 0.36045 0.0
H1568 H 0.35639 0.31598 0.16436 0.0
H1569 H 0.40942 0.27009 0.20275 0.0
H1570 H 0.36058 0.27914 0.14096 0.0
H1571 H 0.41339 0.23261 0.17904 0.0
H1572 H 0.38876 0.15973 0.13754 0.0
H1573 H 0.38443 0.19566 0.16203 0.0
H1574 H 0.39654 0.25922 0.11964 0.0
H1575 H 0.40117 0.22337 0.09521 0.0
C1576 C 0.36892 0.29794 0.16793 0.0
C1577 C 0.38257 0.29624 0.18563 0.0
C1578 C 0.37145 0.27677 0.15433 0.0
C1579 C 0.38743 0.25279 0.15792 0.0
C1580 C 0.40077 0.25068 0.17575 0.0
C1581 C 0.39858 0.27223 0.18936 0.0
C1582 C 0.39021 0.18138 0.13336 0.0
C1583 C 0.39506 0.1885 0.11423 0.0
C1584 C 0.38804 0.20202 0.14751 0.0
C1585 C 0.39019 0.23049 0.14295 0.0
C1586 C 0.39455 0.2376 0.12376 0.0
C1587 C 0.39718 0.21697 0.10968 0.0
H1588 H 0.47644 0.60376 0.91814 0.0
H1589 H 0.51778 0.66503 0.95294 0.0
H1590 H 0.51323 0.60715 0.89471 0.0
H1591 H 0.55517 0.66835 0.92915 0.0
H1592 H 0.62989 0.64573 0.88899 0.0
H1593 H 0.59449 0.64151 0.91384 0.0
H1594 H 0.53015 0.64043 0.87111 0.0
H1595 H 0.56541 0.64475 0.84634 0.0
C1596 C 0.49345 0.61797 0.92091 0.0
C1597 C 0.49386 0.63418 0.93761 0.0
C1598 C 0.51461 0.62002 0.90728 0.0
C1599 C 0.53726 0.63817 0.9098 0.0
C1600 C 0.53816 0.65401 0.92669 0.0
C1601 C 0.51666 0.65219 0.94035 0.0
C1602 C 0.60822 0.64425 0.88485 0.0
C1603 C 0.60069 0.64533 0.86551 0.0
C1604 C 0.58784 0.64216 0.89917 0.0
C1605 C 0.55929 0.64067 0.89462 0.0
C1606 C 0.55186 0.64125 0.87527 0.0
C1607 C 0.57216 0.64372 0.86098 0.0
H1608 H 0.20036 0.74722 0.68291 0.0
H1609 H 0.11115 0.74794 0.69008 0.0
H1610 H 0.19654 0.78399 0.65897 0.0
H1611 H 0.10727 0.78421 0.66558 0.0
H1612 H 0.11428 0.81978 0.60302 0.0
H1613 H 0.11835 0.78544 0.62854 0.0
H1614 H 0.17979 0.8367 0.65617 0.0
H1615 H 0.17508 0.87165 0.6309 0.0
C1616 C 0.17991 0.7554 0.67951 0.0
C1617 C 0.15607 0.74465 0.6886 0.0
C1618 C 0.17774 0.77653 0.66575 0.0
C1619 C 0.1516 0.78706 0.66021 0.0
C1620 C 0.12774 0.77652 0.6694 0.0
C1621 C 0.12997 0.75588 0.68358 0.0
C1622 C 0.12889 0.82371 0.61442 0.0
C1623 C 0.14453 0.84854 0.61471 0.0
C1624 C 0.13098 0.80408 0.62919 0.0
C1625 C 0.14928 0.80828 0.64453 0.0
C1626 C 0.1655 0.83273 0.6446 0.0
C1627 C 0.16285 0.85276 0.63006 0.0
H1628 H 0.02066 0.37557 0.45364 0.0
H1629 H 0.06406 0.43446 0.41812 0.0
H1630 H 0.98317 0.37289 0.42985 0.0
H1631 H 0.02717 0.43166 0.39468 0.0
H1632 H 0.97369 0.39401 0.34682 0.0
H1633 H 1.00912 0.39794 0.37154 0.0
H1634 H 0.94481 0.40112 0.4142 0.0
H1635 H 0.90924 0.39735 0.38938 0.0
C1636 C 0.02222 0.38801 0.44088 0.0
C1637 C 0.0456 0.40518 0.43795 0.0
C1638 C 1.00066 0.38656 0.42723 0.0
C1639 C 1.0021 0.40192 0.41016 0.0
C1640 C 0.02536 0.4192 0.40742 0.0
C1641 C 0.04656 0.42091 0.42105 0.0
C1642 C 0.967 0.39592 0.36143 0.0
C1643 C 0.93843 0.39563 0.36595 0.0
C1644 C 0.98739 0.39815 0.37568 0.0
C1645 C 0.97999 0.39978 0.39501 0.0
C1646 C 0.95141 0.39964 0.39955 0.0
C1647 C 0.93096 0.39781 0.38525 0.0
H1648 H 0.3922 0.8786 0.40912 0.0
H1649 H 0.39478 0.81526 0.45249 0.0
H1650 H 0.38742 0.84253 0.3848 0.0
H1651 H 0.38986 0.7793 0.42822 0.0
H1652 H 0.35175 0.72397 0.38233 0.0
H1653 H 0.35569 0.76115 0.40548 0.0
H1654 H 0.41447 0.80356 0.36941 0.0
H1655 H 0.41061 0.76583 0.34594 0.0
C1656 C 0.39139 0.85702 0.41354 0.0
C1657 C 0.39365 0.85001 0.43292 0.0
C1658 C 0.38896 0.83627 0.39951 0.0
C1659 C 0.3883 0.80784 0.40441 0.0
C1660 C 0.39003 0.8009 0.42382 0.0
C1661 C 0.39285 0.8216 0.43781 0.0
C1662 C 0.36554 0.74118 0.37916 0.0
C1663 C 0.3809 0.74165 0.3621 0.0
C1664 C 0.36791 0.76254 0.39261 0.0
C1665 C 0.38553 0.78545 0.38952 0.0
C1666 C 0.40055 0.78636 0.3723 0.0
C1667 C 0.39843 0.76466 0.35883 0.0
H1668 H 0.9756 0.6443 0.20284 0.0
H1669 H 0.91072 0.6431 0.16047 0.0
H1670 H 1.01074 0.64011 0.17793 0.0
H1671 H 0.94597 0.63918 0.1355 0.0
H1672 H 0.02211 0.6646 0.09628 0.0
H1673 H 0.98498 0.6676 0.1203 0.0
H1674 H 0.02745 0.6059 0.15413 0.0
H1675 H 0.06394 0.60268 0.13042 0.0
C1676 C 0.96875 0.64283 0.18824 0.0
C1677 C 0.94016 0.64376 0.18382 0.0
C1678 C 0.98897 0.64046 0.17389 0.0
C1679 C 0.98133 0.6394 0.15458 0.0
C1680 C 0.95273 0.64021 0.15014 0.0
C1681 C 0.93246 0.64212 0.16453 0.0
C1682 C 0.0234 0.65157 0.10878 0.0
C1683 C 0.0462 0.63341 0.11126 0.0
C1684 C 1.00206 0.65321 0.12256 0.0
C1685 C 1.00321 0.63712 0.13932 0.0
C1686 C 0.0259 0.6189 0.14162 0.0
C1687 C 0.04685 0.61696 0.12784 0.0
H1688 H 0.13352 0.27026 0.84471 0.0
H1689 H 0.18601 0.31563 0.88361 0.0
H1690 H 0.12873 0.23288 0.86835 0.0
H1691 H 0.18112 0.27879 0.90694 0.0
H1692 H 0.13947 0.22381 0.95243 0.0
H1693 H 0.14537 0.25947 0.92804 0.0
H1694 H 0.15556 0.19553 0.88565 0.0
H1695 H 0.14981 0.15978 0.91009 0.0
C1696 C 0.14413 0.27228 0.85819 0.0
C1697 C 0.16014 0.29617 0.86209 0.0
C1698 C 0.14146 0.25078 0.87177 0.0
C1699 C 0.15437 0.25276 0.88974 0.0
C1700 C 0.17051 0.27654 0.89347 0.0
C1701 C 0.17345 0.29771 0.87992 0.0
C1702 C 0.14328 0.21727 0.93796 0.0
C1703 C 0.14438 0.18874 0.9334 0.0
C1704 C 0.14668 0.2378 0.92391 0.0
C1705 C 0.15091 0.23056 0.90473 0.0
C1706 C 0.15208 0.20202 0.90016 0.0
C1707 C 0.14907 0.18146 0.91428 0.0
H1708 H 0.49796 0.36231 0.6088 0.0
H1709 H 0.49684 0.4515 0.61583 0.0
H1710 H 0.5338 0.35863 0.6336 0.0
H1711 H 0.53318 0.44788 0.64012 0.0
H1712 H 0.62038 0.42628 0.66893 0.0
H1713 H 0.58585 0.43116 0.6434 0.0
H1714 H 0.5339 0.36987 0.67055 0.0
H1715 H 0.56782 0.3656 0.69631 0.0
C1716 C 0.50574 0.38116 0.61533 0.0
C1717 C 0.49453 0.40721 0.61022 0.0
C1718 C 0.52611 0.37905 0.62967 0.0
C1719 C 0.53635 0.40297 0.63893 0.0
C1720 C 0.5259 0.42906 0.63328 0.0
C1721 C 0.50504 0.43111 0.61933 0.0
C1722 C 0.6014 0.41416 0.66962 0.0
C1723 C 0.59687 0.39576 0.68487 0.0
C1724 C 0.58164 0.41689 0.65494 0.0
C1725 C 0.55717 0.40071 0.6548 0.0
C1726 C 0.5526 0.38245 0.67008 0.0
C1727 C 0.57197 0.38024 0.68498 0.0
H1728 H 0.09677 0.24542 0.23863 0.0
H1729 H 0.02812 0.1994 0.2627 0.0
H1730 H 0.0639 0.27747 0.22374 0.0
H1731 H 0.99558 0.23069 0.24758 0.0
H1732 H 1.0086 0.34028 0.26243 0.0
H1733 H 0.04104 0.30893 0.24728 0.0
H1734 H 0.97253 0.26182 0.22393 0.0
H1735 H 0.93977 0.29389 0.2389 0.0
C1736 C 0.07467 0.24146 0.24009 0.0
C1737 C 0.06497 0.22077 0.25257 0.0
C1738 C 0.05589 0.25964 0.23139 0.0
C1739 C 0.02725 0.25719 0.23503 0.0
C1740 C 1.01754 0.23337 0.24458 0.0
C1741 C 0.03629 0.21536 0.2534 0.0
C1742 C 1.00037 0.32423 0.25323 0.0
C1743 C 0.9717 0.31873 0.25257 0.0
C1744 C 1.01905 0.30619 0.24438 0.0
C1745 C 1.00927 0.28227 0.23498 0.0
C1746 C 0.9806 0.27973 0.23147 0.0
C1747 C 0.96189 0.29793 0.24021 0.0
H1748 H 0.02882 0.69987 0.51268 0.0
H1749 H 0.95072 0.72783 0.48837 0.0
H1750 H 0.05296 0.73571 0.49623 0.0
H1751 H 0.97551 0.76555 0.47255 0.0
H1752 H 0.09301 0.80943 0.48872 0.0
H1753 H 0.06871 0.77128 0.47304 0.0
H1754 H 0.99072 0.80103 0.49588 0.0
H1755 H 1.01433 0.83706 0.51234 0.0
C1756 C 1.01668 0.7128 0.50322 0.0
C1757 C 0.98737 0.71154 0.5027 0.0
C1758 C 0.03085 0.73356 0.49352 0.0
C1759 C 1.01603 0.7542 0.48367 0.0
C1760 C 0.98738 0.75027 0.48048 0.0
C1761 C 0.97312 0.72904 0.48994 0.0
C1762 C 0.07061 0.80807 0.4902 0.0
C1763 C 0.05608 0.82567 0.50276 0.0
C1764 C 0.05663 0.78659 0.48079 0.0
C1765 C 0.02795 0.78259 0.48373 0.0
C1766 C 1.01287 0.80324 0.49335 0.0
C1767 C 0.02677 0.82417 0.50306 0.0
H1768 H 0.44073 0.79378 0.73831 0.0
H1769 H 0.50963 0.83972 0.76222 0.0
H1770 H 0.47347 0.76165 0.72338 0.0
H1771 H 0.54201 0.80839 0.74702 0.0
H1772 H 0.52934 0.69883 0.76182 0.0
H1773 H 0.49665 0.73014 0.74682 0.0
H1774 H 0.56479 0.77739 0.72317 0.0
H1775 H 0.5978 0.74539 0.73799 0.0
C1776 C 0.46286 0.7977 0.73974 0.0
C1777 C 0.47266 0.81841 0.75218 0.0
C1778 C 0.48156 0.77948 0.73101 0.0
C1779 C 0.51022 0.78192 0.73456 0.0
C1780 C 0.52002 0.80573 0.74408 0.0
C1781 C 0.50136 0.82376 0.75295 0.0
C1782 C 0.53743 0.7149 0.75257 0.0
C1783 C 0.56607 0.72047 0.75179 0.0
C1784 C 0.5186 0.73291 0.74382 0.0
C1785 C 0.52823 0.75687 0.73439 0.0
C1786 C 0.55685 0.75945 0.73074 0.0
C1787 C 0.5757 0.74129 0.73939 0.0
H1788 H 0.52538 0.19999 1.01217 0.0
H1789 H 0.44708 0.22978 0.98914 0.0
H1790 H 0.54948 0.23657 0.99656 0.0
H1791 H 0.4719 0.26831 0.97427 0.0
H1792 H 0.59015 0.3106 0.98948 0.0
H1793 H 0.56505 0.27294 0.9738 0.0
H1794 H 0.48814 0.30236 0.99846 0.0
H1795 H 0.51259 0.33793 1.01488 0.0
C1796 C 0.51314 0.21349 1.00315 0.0
C1797 C 0.48381 0.21238 1.00278 0.0
C1798 C 0.52732 0.23472 0.99395 0.0
C1799 C 0.5125 0.25598 0.98475 0.0
C1800 C 0.48377 0.25248 0.98169 0.0
C1801 C 0.4695 0.23076 0.99062 0.0
C1802 C 0.56782 0.30928 0.99135 0.0
C1803 C 0.55385 0.32672 1.0043 0.0
C1804 C 0.55337 0.28808 0.98196 0.0
C1805 C 0.52476 0.28421 0.9853 0.0
C1806 C 0.51019 0.30457 0.99555 0.0
C1807 C 0.52456 0.32521 1.00522 0.0
H1808 H 0.94041 0.74427 0.31156 0.0
H1809 H 1.00951 0.69807 0.28807 0.0
H1810 H 0.97298 0.77633 0.32663 0.0
H1811 H 0.04176 0.72943 0.30331 0.0
H1812 H 0.097 0.79315 0.31145 0.0
H1813 H 0.06454 0.76111 0.32662 0.0
H1814 H 0.9956 0.80752 0.30298 0.0
H1815 H 0.02773 0.8388 0.2876 0.0
C1816 C 0.96255 0.74026 0.31029 0.0
C1817 C 0.97249 0.71955 0.2979 0.0
C1818 C 0.98115 0.75845 0.31909 0.0
C1819 C 1.00984 0.75603 0.31558 0.0
C1820 C 1.01976 0.73211 0.30619 0.0
C1821 C 1.00118 0.71407 0.29729 0.0
C1822 C 0.07485 0.79703 0.31009 0.0
C1823 C 0.06485 0.8176 0.29759 0.0
C1824 C 0.05631 0.77886 0.31895 0.0
C1825 C 0.02761 0.78119 0.31544 0.0
C1826 C 1.01761 0.80493 0.30588 0.0
C1827 C 0.03613 0.82293 0.2969 0.0
H1828 H 0.49534 0.8483 0.55977 0.0
H1829 H 0.44788 0.7807 0.5356 0.0
H1830 H 0.52718 0.81477 0.5742 0.0
H1831 H 0.47899 0.74751 0.55027 0.0
H1832 H 0.54218 0.69068 0.55918 0.0
H1833 H 0.51019 0.72385 0.57382 0.0
H1834 H 0.55779 0.79168 0.55012 0.0
H1835 H 0.58894 0.75889 0.53516 0.0
C1836 C 0.49103 0.82629 0.5582 0.0
C1837 C 0.46997 0.81707 0.54582 0.0
C1838 C 0.50909 0.80714 0.56663 0.0
C1839 C 0.50615 0.77861 0.56283 0.0
C1840 C 0.48202 0.76938 0.55339 0.0
C1841 C 0.46412 0.7885 0.54483 0.0
C1842 C 0.54628 0.71273 0.55764 0.0
C1843 C 0.56724 0.72221 0.54528 0.0
C1844 C 0.52815 0.73168 0.56622 0.0
C1845 C 0.53096 0.76027 0.56262 0.0
C1846 C 0.5549 0.76975 0.55311 0.0
C1847 C 0.57282 0.75085 0.54439 0.0
H1848 H 0.59969 0.29375 0.81191 0.0
H1849 H 0.5308 0.34017 0.78822 0.0
H1850 H 0.56695 0.26164 0.82673 0.0
H1851 H 0.49842 0.30886 0.80328 0.0
H1852 H 0.44288 0.24549 0.8111 0.0
H1853 H 0.47544 0.27723 0.82651 0.0
H1854 H 0.54426 0.23062 0.80294 0.0
H1855 H 0.51204 0.19964 0.78734 0.0
C1856 C 0.57757 0.29778 0.81052 0.0
C1857 C 0.56777 0.31859 0.79813 0.0
C1858 C 0.55886 0.27957 0.81919 0.0
C1859 C 0.5302 0.28211 0.8156 0.0
C1860 C 0.52041 0.30609 0.80622 0.0
C1861 C 0.53908 0.32412 0.79743 0.0
C1862 C 0.46502 0.2415 0.80981 0.0
C1863 C 0.47498 0.22098 0.79727 0.0
C1864 C 0.48362 0.25948 0.81881 0.0
C1865 C 0.51232 0.25703 0.81538 0.0
C1866 C 0.52224 0.2333 0.80578 0.0
C1867 C 0.50367 0.21549 0.79667 0.0
H1868 H 1.01425 0.20173 0.03578 0.0
H1869 H 0.09262 0.23023 0.05929 0.0
H1870 H 0.99024 0.23785 0.05194 0.0
H1871 H 0.06788 0.2684 0.07474 0.0
H1872 H 0.94939 0.31117 0.05983 0.0
H1873 H 0.97454 0.27319 0.0752 0.0
H1874 H 0.05163 0.30372 0.0516 0.0
H1875 H 0.02718 0.3397 0.03552 0.0
C1876 C 0.02654 0.21484 0.04499 0.0
C1877 C 0.05587 0.21348 0.04538 0.0
C1878 C 1.01241 0.23582 0.05453 0.0
C1879 C 0.02724 0.25666 0.06409 0.0
C1880 C 0.05598 0.25292 0.06706 0.0
C1881 C 0.07021 0.23141 0.0578 0.0
C1882 C 0.97177 0.31004 0.05815 0.0
C1883 C 0.98581 0.32789 0.04553 0.0
C1884 C 0.98624 0.28864 0.06736 0.0
C1885 C 1.01493 0.28494 0.06412 0.0
C1886 C 0.02952 0.30574 0.05437 0.0
C1887 C 1.01513 0.32662 0.04489 0.0
H1888 H 0.02977 0.69781 0.78538 0.0
H1889 H 0.09785 0.74445 0.80967 0.0
H1890 H 0.99684 0.72912 0.80015 0.0
H1891 H 0.06462 0.77644 0.82425 0.0
H1892 H 1.00913 0.83912 0.7856 0.0
H1893 H 0.04172 0.80753 0.80039 0.0
H1894 H 0.97348 0.76022 0.82384 0.0
H1895 H 0.94054 0.79262 0.80935 0.0
C1896 C 0.03771 0.71391 0.79467 0.0
C1897 C 0.06634 0.71947 0.79568 0.0
C1898 C 1.01875 0.73191 0.80328 0.0
C1899 C 0.02822 0.75585 0.81281 0.0
C1900 C 0.0568 0.7585 0.81662 0.0
C1901 C 0.07578 0.74034 0.80812 0.0
C1902 C 1.00098 0.82297 0.79475 0.0
C1903 C 0.97229 0.81759 0.7956 0.0
C1904 C 1.01976 0.80479 0.80338 0.0
C1905 C 1.01008 0.78081 0.81275 0.0
C1906 C 0.98145 0.77821 0.81634 0.0
C1907 C 0.96264 0.79659 0.80786 0.0
H1908 H 0.94814 0.26056 0.53737 0.0
H1909 H 0.99431 0.19196 0.56158 0.0
H1910 H 0.97947 0.29308 0.55238 0.0
H1911 H 0.02634 0.22479 0.57643 0.0
H1912 H 0.08923 0.27925 0.53749 0.0
H1913 H 0.05771 0.2472 0.55274 0.0
H1914 H 1.01085 0.3162 0.57579 0.0
H1915 H 0.04312 0.34858 0.56074 0.0
C1916 C 0.96412 0.25241 0.5467 0.0
C1917 C 0.96959 0.22375 0.5476 0.0
C1918 C 0.98216 0.27115 0.55546 0.0
C1919 C 1.00603 0.26141 0.56502 0.0
C1920 C 1.00848 0.23281 0.56876 0.0
C1921 C 0.9903 0.21406 0.56011 0.0
C1922 C 0.0732 0.28768 0.54665 0.0
C1923 C 0.06784 0.31638 0.5472 0.0
C1924 C 0.05506 0.26922 0.55555 0.0
C1925 C 0.03116 0.27925 0.56491 0.0
C1926 C 0.02874 0.30795 0.56829 0.0
C1927 C 0.04705 0.32644 0.5595 0.0
H1928 H 0.59783 0.24675 0.30756 0.0
H1929 H 0.52974 0.19971 0.28357 0.0
H1930 H 0.56453 0.27837 0.32242 0.0
H1931 H 0.49681 0.23056 0.2987 0.0
H1932 H 0.43985 0.29264 0.30862 0.0
H1933 H 0.47359 0.26084 0.32286 0.0
H1934 H 0.5406 0.30961 0.29916 0.0
H1935 H 0.50722 0.34067 0.28467 0.0
C1936 C 0.57577 0.24251 0.30607 0.0
C1937 C 0.56634 0.22158 0.29367 0.0
C1938 C 0.55676 0.26044 0.31477 0.0
C1939 C 0.52814 0.25749 0.31123 0.0
C1940 C 0.51875 0.23357 0.30165 0.0
C1941 C 0.53773 0.21583 0.29282 0.0
C1942 C 0.46185 0.29707 0.30705 0.0
C1943 C 0.47094 0.3183 0.29478 0.0
C1944 C 0.48112 0.27903 0.31538 0.0
C1945 C 0.50965 0.28217 0.31158 0.0
C1946 C 0.51874 0.30643 0.30227 0.0
C1947 C 0.4995 0.3243 0.29381 0.0
H1948 H 0.59003 0.77865 0.03769 0.0
H1949 H 0.54414 0.84799 0.06115 0.0
H1950 H 0.55855 0.74663 0.05295 0.0
H1951 H 0.51188 0.81561 0.07619 0.0
H1952 H 0.44943 0.76108 0.03687 0.0
H1953 H 0.48058 0.79308 0.05254 0.0
H1954 H 0.52676 0.724 0.07617 0.0
H1955 H 0.4949 0.69168 0.06064 0.0
C1956 C 0.57406 0.78709 0.04689 0.0
C1957 C 0.56871 0.81579 0.04747 0.0
C1958 C 0.55594 0.76863 0.05581 0.0
C1959 C 0.53205 0.77866 0.06518 0.0
C1960 C 0.52974 0.80735 0.06866 0.0
C1961 C 0.54803 0.82584 0.05986 0.0
C1962 C 0.46522 0.75263 0.04623 0.0
C1963 C 0.47058 0.72394 0.04682 0.0
C1964 C 0.48313 0.77106 0.05538 0.0
C1965 C 0.50681 0.76099 0.06501 0.0
C1966 C 0.50907 0.73229 0.06845 0.0
C1967 C 0.49101 0.71383 0.05939 0.0
H1968 H 0.06038 0.34428 0.7394 0.0
H1969 H 0.0901 0.26547 0.76158 0.0
H1970 H 0.02167 0.3199 0.7244 0.0
H1971 H 0.05339 0.24183 0.74581 0.0
H1972 H 0.95244 0.27896 0.76521 0.0
H1973 H 0.98776 0.30349 0.74855 0.0
H1974 H 1.01658 0.22676 0.72333 0.0
H1975 H 0.97924 0.20161 0.73933 0.0
C1976 C 0.05935 0.32186 0.74068 0.0
C1977 C 0.07773 0.30727 0.75269 0.0
C1978 C 0.03752 0.30784 0.73166 0.0
C1979 C 0.03393 0.27908 0.73448 0.0
C1980 C 0.05526 0.26403 0.74342 0.0
C1981 C 0.07659 0.27795 0.75273 0.0
C1982 C 0.96499 0.26708 0.75538 0.0
C1983 C 0.96348 0.23782 0.7544 0.0
C1984 C 0.98546 0.28149 0.74557 0.0
C1985 C 1.00562 0.26696 0.7351 0.0
C1986 C 1.00162 0.2384 0.73168 0.0
C1987 C 0.98062 0.22392 0.74124 0.0
H1988 H 0.49848 0.34865 0.48968 0.0
H1989 H 0.45161 0.27958 0.51235 0.0
H1990 H 0.53068 0.3161 0.47463 0.0
H1991 H 0.48313 0.24735 0.49716 0.0
H1992 H 0.54621 0.19153 0.48847 0.0
H1993 H 0.51443 0.22476 0.47366 0.0
H1994 H 0.56185 0.29247 0.49776 0.0
H1995 H 0.59296 0.25956 0.5127 0.0
C1996 C 0.49441 0.32654 0.49081 0.0
C1997 C 0.47337 0.31658 0.50291 0.0
C1998 C 0.51268 0.30795 0.48203 0.0
C1999 C 0.51002 0.27923 0.48525 0.0
C2000 C 0.48596 0.26937 0.49447 0.0
C2001 C 0.46783 0.28793 0.50334 0.0
C2002 C 0.55039 0.21358 0.48996 0.0
C2003 C 0.57119 0.22302 0.50246 0.0
C2004 C 0.53235 0.23256 0.48133 0.0
C2005 C 0.53502 0.26113 0.48512 0.0
C2006 C 0.55899 0.27057 0.49466 0.0
C2007 C 0.57689 0.25161 0.50338 0.0
H2008 H 0.58226 0.7624 0.27089 0.0
H2009 H 0.55477 0.83588 0.24067 0.0
H2010 H 0.54923 0.73493 0.25451 0.0
H2011 H 0.51989 0.80765 0.22414 0.0
H2012 H 0.43868 0.76215 0.24686 0.0
H2013 H 0.47766 0.78853 0.23504 0.0
H2014 H 0.52567 0.71287 0.22997 0.0
H2015 H 0.48874 0.68715 0.24485 0.0
C2016 C 0.56988 0.77268 0.26014 0.0
C2017 C 0.57131 0.80157 0.25726 0.0
C2018 C 0.55064 0.75662 0.25048 0.0
C2019 C 0.53151 0.76888 0.23788 0.0
C2020 C 0.53409 0.79752 0.23389 0.0
C2021 C 0.55385 0.81375 0.24351 0.0
C2022 C 0.45763 0.751 0.24346 0.0
C2023 C 0.4616 0.7231 0.2491 0.0
C2024 C 0.47983 0.76614 0.23598 0.0
C2025 C 0.50573 0.75309 0.23329 0.0
C2026 C 0.50655 0.72382 0.23337 0.0
C2027 C 0.48507 0.70893 0.24195 0.0
H2028 H 0.9488 0.77876 1.01245 0.0
H2029 H 0.99426 0.84805 0.98878 0.0
H2030 H 0.98046 0.74669 0.99722 0.0
H2031 H 0.02662 0.81567 0.97372 0.0
H2032 H 0.08994 0.7612 1.01256 0.0
H2033 H 0.05827 0.7932 0.99722 0.0
H2034 H 1.01211 0.72409 0.97385 0.0
H2035 H 0.04445 0.69179 0.98906 0.0
C2036 C 0.9647 0.78716 1.00319 0.0
C2037 C 0.96988 0.81586 1.00252 0.0
C2038 C 0.98292 0.76869 0.9943 0.0
C2039 C 1.00671 0.77874 0.98486 0.0
C2040 C 1.00885 0.80741 0.98131 0.0
C2041 C 0.99048 0.8259 0.99009 0.0
C2042 C 0.07403 0.75276 1.00332 0.0
C2043 C 0.06885 0.72406 1.00271 0.0
C2044 C 0.05581 0.77118 0.99436 0.0
C2045 C 0.03204 0.76109 0.9849 0.0
C2046 C 0.02989 0.73239 0.98144 0.0
C2047 C 0.04824 0.71395 0.9903 0.0
H2048 H 0.18872 0.24001 0.27828 0.0
H2049 H 0.2594 0.19937 0.304 0.0
H2050 H 0.21912 0.27547 0.26516 0.0
H2051 H 0.29032 0.23401 0.29001 0.0
H2052 H 0.33941 0.31267 0.27693 0.0
H2053 H 0.30815 0.27809 0.29049 0.0
H2054 H 0.25108 0.29067 0.24382 0.0
H2055 H 0.28176 0.32626 0.23096 0.0
C2056 C 0.21091 0.23821 0.28081 0.0
C2057 C 0.2214 0.21646 0.29221 0.0
C2058 C 0.2286 0.25874 0.27316 0.0
C2059 C 0.25768 0.25825 0.27635 0.0
C2060 C 0.2682 0.23595 0.28739 0.0
C2061 C 0.2504 0.21562 0.29528 0.0
C2062 C 0.31996 0.30838 0.26971 0.0
C2063 C 0.31318 0.32272 0.25288 0.0
C2064 C 0.30201 0.28806 0.27739 0.0
C2065 C 0.2767 0.28083 0.26838 0.0
C2066 C 0.26988 0.29552 0.2516 0.0
C2067 C 0.28765 0.31614 0.2441 0.0
H2068 H 0.96494 0.0362 0.48398 0.0
H2069 H 0.97673 0.0937 0.53019 0.0
H2070 H 1.0013 1.00644 0.49667 0.0
H2071 H 1.01204 0.06301 0.54381 0.0
H2072 H 0.09127 1.01423 0.55783 0.0
H2073 H 0.0562 0.04532 0.54416 0.0
H2074 H 1.01674 0.97464 0.51736 0.0
H2075 H 0.05259 0.94444 0.52988 0.0
C2076 C 0.97479 0.04218 0.49719 0.0
C2077 C 0.96748 0.06739 0.50608 0.0
C2078 C 0.99586 0.0249 0.50463 0.0
C2079 C 1.01019 0.03178 0.52152 0.0
C2080 C 1.0023 0.05682 0.53064 0.0
C2081 C 0.98157 0.0744 0.52295 0.0
C2082 C 0.07537 1.00548 0.54871 0.0
C2083 C 0.07522 0.97671 0.54486 0.0
C2084 C 0.05481 0.02333 0.54101 0.0
C2085 C 0.03299 1.01296 0.52947 0.0
C2086 C 0.03314 0.9841 0.52566 0.0
C2087 C 0.0539 0.96647 0.53302 0.0
H2088 H 0.28398 0.82885 0.81539 0.0
H2089 H 0.34223 0.81306 0.77014 0.0
H2090 H 0.25308 0.79327 0.80285 0.0
H2091 H 0.3107 0.7784 0.75685 0.0
H2092 H 0.26135 0.6995 0.74472 0.0
H2093 H 0.29242 0.73442 0.75822 0.0
H2094 H 0.22125 0.77793 0.78138 0.0
H2095 H 0.19064 0.7422 0.76875 0.0
C2096 C 0.28996 0.81824 0.80246 0.0
C2097 C 0.31572 0.8242 0.79379 0.0
C2098 C 0.27205 0.79764 0.79514 0.0
C2099 C 0.27895 0.78232 0.77867 0.0
C2100 C 0.30449 0.78891 0.76974 0.0
C2101 C 0.32259 0.80926 0.77724 0.0
C2102 C 0.25237 0.71628 0.75297 0.0
C2103 C 0.22333 0.71762 0.75573 0.0
C2104 C 0.27027 0.73676 0.76056 0.0
C2105 C 0.2598 0.75968 0.77097 0.0
C2106 C 0.23066 0.7607 0.77386 0.0
C2107 C 0.21286 0.74003 0.7665 0.0
H2108 H 0.47149 0.08466 1.01963 0.0
H2109 H 0.46283 0.02965 0.06755 0.0
H2110 H 0.50684 0.05402 1.00619 0.0
H2111 H 0.49919 0.99969 0.05478 0.0
H2112 H 0.55079 0.93749 1.02095 0.0
H2113 H 0.51447 0.96712 0.03381 0.0
H2114 H 0.55205 0.03845 1.00665 0.0
H2115 H 0.58763 1.00817 0.9929 0.0
C2116 C 0.47698 0.06588 0.02728 0.0
C2117 C 0.46385 0.05963 0.04463 0.0
C2118 C 0.49775 0.04835 1.01968 0.0
C2119 C 0.5066 0.02406 0.02929 0.0
C2120 C 0.49304 1.01769 0.04656 0.0
C2121 C 0.47198 0.03503 0.054 0.0
C2122 C 0.55157 0.95956 1.01783 0.0
C2123 C 0.57251 0.97027 1.00588 0.0
C2124 C 0.53055 0.97679 0.02534 0.0
C2125 C 0.52971 1.00562 1.02143 0.0
C2126 C 0.55118 1.01643 1.00982 0.0
C2127 C 0.57203 0.99905 1.00207 0.0
H2128 H 0.33783 0.72446 0.27111 0.0
H2129 H 0.28109 0.71152 0.31761 0.0
H2130 H 0.30656 0.75941 0.25783 0.0
H2131 H 0.25047 0.74752 0.30507 0.0
H2132 H 0.18785 0.79886 0.27133 0.0
H2133 H 0.21823 0.76303 0.28407 0.0
H2134 H 0.28919 0.80371 0.25854 0.0
H2135 H 0.25821 0.83873 0.24487 0.0
C2136 C 0.31857 0.72897 0.2785 0.0
C2137 C 0.31201 0.71473 0.29538 0.0
C2138 C 0.30063 0.74951 0.271 0.0
C2139 C 0.27561 0.75703 0.28027 0.0
C2140 C 0.26902 0.74242 0.29709 0.0
C2141 C 0.28675 0.72157 0.30441 0.0
C2142 C 0.20999 0.80041 0.26856 0.0
C2143 C 0.22039 0.82204 0.25707 0.0
C2144 C 0.22767 0.77967 0.276 0.0
C2145 C 0.25665 0.77984 0.2725 0.0
C2146 C 0.26712 0.80202 0.26138 0.0
C2147 C 0.2493 0.82256 0.25368 0.0
H2148 H 0.5913 0.02849 0.55368 0.0
H2149 H 0.54853 0.09926 0.52979 0.0
H2150 H 0.55639 0.9975 0.54 0.0
H2151 H 0.51285 0.06881 0.51704 0.0
H2152 H 0.46143 1.00687 0.4829 0.0
H2153 H 0.49721 0.03745 0.49555 0.0
H2154 H 0.51255 0.97892 0.54096 0.0
H2155 H 0.47772 0.94773 0.52752 0.0
C2156 C 0.57452 0.0375 0.54543 0.0
C2157 C 0.57318 0.06654 0.54275 0.0
C2158 C 0.55404 0.01966 0.53773 0.0
C2159 C 0.53111 0.03018 0.5273 0.0
C2160 C 0.53008 0.05932 0.52454 0.0
C2161 C 0.55074 0.07704 0.53198 0.0
C2162 C 0.47218 1.00062 0.49572 0.0
C2163 C 0.46628 0.97472 0.50418 0.0
C2164 C 0.49292 1.01835 0.50312 0.0
C2165 C 0.50842 1.01113 0.51947 0.0
C2166 C 0.50191 0.98541 0.52817 0.0
C2167 C 0.48145 0.96749 0.52059 0.0
H2168 H 0.35271 0.23911 0.7712 0.0
H2169 H 0.282 0.20245 0.74299 0.0
H2170 H 0.32296 0.27507 0.78441 0.0
H2171 H 0.25162 0.23766 0.75707 0.0
H2172 H 0.20521 0.31789 0.77066 0.0
H2173 H 0.23592 0.28283 0.75695 0.0
H2174 H 0.29034 0.28981 0.80557 0.0
H2175 H 0.2603 0.32589 0.81864 0.0
C2176 C 0.33061 0.2383 0.76812 0.0
C2177 C 0.31993 0.21752 0.75602 0.0
C2178 C 0.31331 0.25911 0.77583 0.0
C2179 C 0.28444 0.25987 0.77198 0.0
C2180 C 0.27366 0.23857 0.76021 0.0
C2181 C 0.2911 0.21793 0.75227 0.0
C2182 C 0.22402 0.31231 0.77827 0.0
C2183 C 0.23027 0.32518 0.79572 0.0
C2184 C 0.24159 0.2917 0.77051 0.0
C2185 C 0.26593 0.28277 0.78004 0.0
C2186 C 0.27229 0.29604 0.79741 0.0
C2187 C 0.25491 0.31694 0.80503 0.0
H2188 H 0.06523 0.08705 0.02762 0.0
H2189 H 0.07769 0.02947 0.9815 0.0
H2190 H 0.03026 0.05621 0.04121 0.0
H2191 H 0.04177 0.99924 0.99441 0.0
H2192 H 0.99063 0.93766 0.02922 0.0
H2193 H 0.02663 0.96748 1.01613 0.0
H2194 H 0.9855 0.03946 0.04007 0.0
H2195 H 0.95026 1.00917 0.05401 0.0
C2196 C 0.06065 0.06768 1.0204 0.0
C2197 C 0.07473 0.06078 1.00351 0.0
C2198 C 0.04011 0.05001 0.02808 0.0
C2199 C 0.03247 0.02491 1.01901 0.0
C2200 C 0.04697 1.01791 1.00221 0.0
C2201 C 0.06777 0.0354 0.99469 0.0
C2202 C 0.98902 0.9599 0.03155 0.0
C2203 C 0.9672 0.97083 0.04267 0.0
C2204 C 1.00985 0.97723 1.02393 0.0
C2205 C 1.00959 1.00631 0.02691 0.0
C2206 C 0.98722 1.01728 0.03765 0.0
C2207 C 0.96657 0.99986 0.0455 0.0
H2208 H 0.69003 0.74213 0.77871 0.0
H2209 H 0.76045 0.69951 0.80325 0.0
H2210 H 0.72077 0.77758 0.76598 0.0
H2211 H 0.7917 0.73422 0.78965 0.0
H2212 H 0.84161 0.81291 0.77737 0.0
H2213 H 0.81013 0.77825 0.79071 0.0
H2214 H 0.75267 0.79258 0.7445 0.0
H2215 H 0.78352 0.82813 0.73189 0.0
C2216 C 0.71222 0.73991 0.78106 0.0
C2217 C 0.72254 0.71758 0.792 0.0
C2218 C 0.73011 0.76043 0.77363 0.0
C2219 C 0.75923 0.75938 0.7766 0.0
C2220 C 0.76957 0.73656 0.78721 0.0
C2221 C 0.75158 0.7162 0.79486 0.0
C2222 C 0.82203 0.80899 0.77022 0.0
C2223 C 0.81518 0.8238 0.75359 0.0
C2224 C 0.80395 0.78864 0.77776 0.0
C2225 C 0.77844 0.78191 0.76881 0.0
C2226 C 0.7716 0.79706 0.75224 0.0
C2227 C 0.78948 0.81765 0.74488 0.0
H2228 H 0.77796 0.34003 0.30491 0.0
H2229 H 0.84843 0.29891 0.27933 0.0
H2230 H 0.74687 0.30532 0.29103 0.0
H2231 H 0.81795 0.26347 0.26639 0.0
H2232 H 0.75585 0.21289 0.23205 0.0
H2233 H 0.78619 0.24863 0.24494 0.0
H2234 H 0.72873 0.26118 0.29135 0.0
H2235 H 0.69769 0.22636 0.27768 0.0
C2236 C 0.78688 0.32367 0.29625 0.0
C2237 C 0.81587 0.32272 0.29316 0.0
C2238 C 0.76899 0.30332 0.28843 0.0
C2239 C 0.77943 0.28093 0.27744 0.0
C2240 C 0.80851 0.2803 0.27431 0.0
C2241 C 0.82626 0.30081 0.28187 0.0
C2242 C 0.74977 0.22303 0.24513 0.0
C2243 C 0.72421 0.21633 0.25381 0.0
C2244 C 0.76738 0.24373 0.25267 0.0
C2245 C 0.7604 0.25841 0.26941 0.0
C2246 C 0.73501 0.25116 0.27829 0.0
C2247 C 0.71719 0.23072 0.27056 0.0
H2248 H 0.75301 0.32381 0.73168 0.0
H2249 H 0.69869 0.317 0.78007 0.0
H2250 H 0.78284 0.28757 0.7447 0.0
H2251 H 0.72931 0.28188 0.79383 0.0
H2252 H 0.77587 0.20203 0.80882 0.0
H2253 H 0.74523 0.23713 0.7948 0.0
H2254 H 0.81563 0.27231 0.76509 0.0
H2255 H 0.84542 0.23639 0.77812 0.0
C2256 C 0.74778 0.31509 0.74539 0.0
C2257 C 0.7234 0.32371 0.75481 0.0
C2258 C 0.76506 0.29409 0.753 0.0
C2259 C 0.75894 0.28114 0.77054 0.0
C2260 C 0.73483 0.29045 0.78016 0.0
C2261 C 0.7173 0.3111 0.77237 0.0
C2262 C 0.78466 0.21699 0.79903 0.0
C2263 C 0.81324 0.21593 0.79455 0.0
C2264 C 0.76708 0.23759 0.7911 0.0
C2265 C 0.77751 0.25825 0.77866 0.0
C2266 C 0.80615 0.25686 0.77416 0.0
C2267 C 0.82352 0.23605 0.7818 0.0
H2268 H 0.75812 0.82714 0.31736 0.0
H2269 H 0.70198 0.81681 0.27016 0.0
H2270 H 0.78821 0.79092 0.30461 0.0
H2271 H 0.73275 0.78153 0.25673 0.0
H2272 H 0.77957 0.70105 0.24376 0.0
H2273 H 0.74906 0.7365 0.25745 0.0
H2274 H 0.82051 0.77581 0.28337 0.0
H2275 H 0.8504 0.73968 0.27056 0.0
C2276 C 0.75249 0.81764 0.30397 0.0
C2277 C 0.72755 0.8253 0.2948 0.0
C2278 C 0.76991 0.79665 0.29653 0.0
C2279 C 0.7633 0.78267 0.27946 0.0
C2280 C 0.73864 0.79099 0.27006 0.0
C2281 C 0.72103 0.81172 0.27765 0.0
C2282 C 0.78868 0.717 0.25266 0.0
C2283 C 0.81758 0.71707 0.25613 0.0
C2284 C 0.77115 0.73777 0.26037 0.0
C2285 C 0.78191 0.75967 0.27162 0.0
C2286 C 0.81087 0.75939 0.27519 0.0
C2287 C 0.82826 0.73847 0.26771 0.0
H2288 H 0.55315 0.44571 0.02956 0.0
H2289 H 0.59058 0.51546 0.05834 0.0
H2290 H 0.51735 0.47577 1.0168 0.0
H2291 H 0.55554 0.54641 0.04448 0.0
H2292 H 0.47587 0.59418 0.03012 0.0
H2293 H 0.51114 0.56359 0.04385 0.0
H2294 H 0.50215 0.50782 0.99611 0.0
H2295 H 0.46582 0.53753 0.98323 0.0
C2296 C 0.5542 0.46771 0.03285 0.0
C2297 C 0.57515 0.47796 0.04498 0.0
C2298 C 0.53346 0.48525 0.02535 0.0
C2299 C 0.53296 0.51406 0.02934 0.0
C2300 C 0.55442 0.52445 0.04118 0.0
C2301 C 0.57497 0.50669 0.049 0.0
C2302 C 0.48108 0.57509 1.02274 0.0
C2303 C 0.4675 0.56829 1.00564 0.0
C2304 C 0.5018 0.55757 0.03051 0.0
C2305 C 0.51018 0.53279 1.02127 0.0
C2306 C 0.49633 0.52609 1.00415 0.0
C2307 C 0.47528 0.54333 0.99661 0.0
H2308 H 0.96507 0.5319 0.56866 0.0
H2309 H 0.97179 0.58555 0.51989 0.0
H2310 H 1.00116 0.50174 0.55569 0.0
H2311 H 1.00689 0.55475 0.50632 0.0
H2312 H 0.08742 0.5087 0.49228 0.0
H2313 H 0.05228 0.53931 0.50628 0.0
H2314 H 1.01562 0.46861 0.53474 0.0
H2315 H 0.05144 0.43867 0.52159 0.0
C2316 C 0.97375 0.53694 0.55491 0.0
C2317 C 0.96512 0.56122 0.54534 0.0
C2318 C 0.99465 0.5195 0.54735 0.0
C2319 C 1.00758 0.52543 0.52978 0.0
C2320 C 0.99828 0.54941 0.52002 0.0
C2321 C 0.97765 0.56703 0.52771 0.0
C2322 C 0.07213 0.49979 0.50179 0.0
C2323 C 0.0727 0.47108 0.50585 0.0
C2324 C 0.05153 0.51736 0.50969 0.0
C2325 C 0.03045 0.50683 0.52175 0.0
C2326 C 0.03141 0.47809 0.52592 0.0
C2327 C 0.05214 0.46067 0.51824 0.0
H2328 H 0.05009 0.60214 0.02775 0.0
H2329 H 0.08835 0.53093 0.05445 0.0
H2330 H 1.01416 0.57246 1.01443 0.0
H2331 H 0.05313 0.50072 0.04032 0.0
H2332 H 0.97299 0.45413 0.02738 0.0
H2333 H 1.00802 0.48485 0.04095 0.0
H2334 H 0.99908 0.54012 0.99296 0.0
H2335 H 0.96304 0.50991 0.97997 0.0
C2336 C 0.05125 0.57997 0.03048 0.0
C2337 C 0.07248 0.56912 0.0422 0.0
C2338 C 0.03045 0.56272 1.02272 0.0
C2339 C 0.03011 0.53375 0.02615 0.0
C2340 C 0.05188 0.52282 0.03751 0.0
C2341 C 0.07253 0.54019 0.04548 0.0
C2342 C 0.97814 0.4731 1.01986 0.0
C2343 C 0.96473 0.4795 1.0026 0.0
C2344 C 0.99873 0.4907 0.02755 0.0
C2345 C 1.00715 0.51527 1.01815 0.0
C2346 C 0.9933 0.52184 1.00099 0.0
C2347 C 0.97242 0.50438 0.99343 0.0
H2348 H 0.49149 0.44 0.52863 0.0
H2349 H 0.44991 0.5104 0.55394 0.0
H2350 H 0.52703 0.4706 0.51582 0.0
H2351 H 0.48473 0.5415 0.54029 0.0
H2352 H 0.56379 0.59076 0.52792 0.0
H2353 H 0.52904 0.55939 0.54123 0.0
H2354 H 0.54201 0.50276 0.49443 0.0
H2355 H 0.57767 0.53354 0.48179 0.0
C2356 C 0.48951 0.46217 0.53115 0.0
C2357 C 0.46744 0.47251 0.54232 0.0
C2358 C 0.51009 0.47997 0.52368 0.0
C2359 C 0.50938 0.50902 0.52685 0.0
C2360 C 0.48681 0.5194 0.53769 0.0
C2361 C 0.46639 0.50149 0.54537 0.0
C2362 C 0.55956 0.57138 0.52062 0.0
C2363 C 0.57401 0.56476 0.50381 0.0
C2364 C 0.53915 0.55337 0.52815 0.0
C2365 C 0.532 0.52814 0.51904 0.0
C2366 C 0.54681 0.52148 0.50229 0.0
C2367 C 0.56746 0.53933 0.49491 0.0
H2368 H 0.3056 0.13406 0.35642 0.0
H2369 H 0.26313 0.11621 0.40896 0.0
H2370 H 0.34669 0.10867 0.36775 0.0
H2371 H 0.30442 0.09147 0.42049 0.0
H2372 H 0.38623 0.05606 0.4383 0.0
H2373 H 0.36089 0.09683 0.4265 0.0
H2374 H 0.34149 0.05244 0.37493 0.0
H2375 H 0.36626 1.01147 0.38691 0.0
C2376 C 0.30555 0.12555 0.37065 0.0
C2377 C 0.28145 0.12673 0.38188 0.0
C2378 C 0.32892 0.11116 0.37707 0.0
C2379 C 0.32849 0.09841 0.39493 0.0
C2380 C 0.30519 0.10156 0.40676 0.0
C2381 C 0.28162 0.11543 0.40017 0.0
C2382 C 0.3773 0.05545 0.42419 0.0
C2383 C 0.37782 0.03084 0.41346 0.0
C2384 C 0.36293 0.07866 0.4175 0.0
C2385 C 0.34951 0.07755 0.39988 0.0
C2386 C 0.35209 0.05373 0.38848 0.0
C2387 C 0.36596 0.03034 0.39533 0.0
H2388 H 0.29346 0.11037 0.63719 0.0
H2389 H 0.23644 0.14607 0.6779 0.0
H2390 H 0.25491 0.0867 0.62179 0.0
H2391 H 0.19758 0.12301 0.66212 0.0
H2392 H 0.16405 0.03038 0.65515 0.0
H2393 H 0.18981 0.07226 0.66398 0.0
H2394 H 0.21026 0.08637 0.60501 0.0
H2395 H 0.18503 0.04396 0.59644 0.0
C2396 C 0.27252 0.11376 0.64245 0.0
C2397 C 0.26788 0.12941 0.65891 0.0
C2398 C 0.25039 0.10055 0.63352 0.0
C2399 C 0.22333 0.10279 0.64097 0.0
C2400 C 0.21833 0.12075 0.65628 0.0
C2401 C 0.24051 0.13401 0.66522 0.0
C2402 C 0.17361 0.04291 0.64416 0.0
C2403 C 0.17331 0.03416 0.62529 0.0
C2404 C 0.18801 0.06698 0.6491 0.0
C2405 C 0.20213 0.08242 0.63513 0.0
C2406 C 0.19976 0.07467 0.61602 0.0
C2407 C 0.18553 0.05052 0.61114 0.0
H2408 H 0.15298 0.98313 0.93798 0.0
H2409 H 0.17655 0.0268 0.88693 0.0
H2410 H 0.17772 0.9416 0.92689 0.0
H2411 H 0.20064 0.98502 0.87562 0.0
H2412 H 0.27726 0.92318 0.91034 0.0
H2413 H 0.2355 0.94741 0.92155 0.0
H2414 H 0.19336 0.92765 0.86915 0.0
H2415 H 0.23487 0.90272 0.85816 0.0
C2416 C 0.16259 0.98338 0.92408 0.0
C2417 C 0.16326 1.0079 0.91325 0.0
C2418 C 0.17655 0.95974 0.91778 0.0
C2419 C 0.19071 0.96036 0.90046 0.0
C2420 C 0.18939 0.98415 0.88893 0.0
C2421 C 0.17594 1.00799 0.8954 0.0
C2422 C 0.25867 0.9232 0.9016 0.0
C2423 C 0.25898 0.91145 0.88346 0.0
C2424 C 0.23485 0.93676 0.90801 0.0
C2425 C 0.21151 0.93912 0.89612 0.0
C2426 C 0.21117 0.9257 0.87851 0.0
C2427 C 0.23479 0.91161 0.87228 0.0
H2428 H 0.30319 0.90496 0.19254 0.0
H2429 H 0.26004 0.92185 0.14004 0.0
H2430 H 0.34389 0.93053 0.18093 0.0
H2431 H 0.301 0.94669 0.12822 0.0
H2432 H 0.38323 0.98286 0.11085 0.0
H2433 H 0.35877 0.94173 0.1228 0.0
H2434 H 0.33548 0.98734 0.17312 0.0
H2435 H 0.35929 0.02869 0.16094 0.0
C2436 C 0.30296 0.91322 0.17824 0.0
C2437 C 0.27877 0.91185 0.16711 0.0
C2438 C 0.3261 0.92768 0.17166 0.0
C2439 C 0.32531 0.94025 0.15376 0.0
C2440 C 0.30201 0.93672 0.14199 0.0
C2441 C 0.27865 0.9228 0.14873 0.0
C2442 C 0.37355 0.9837 0.12471 0.0
C2443 C 0.37275 1.00867 0.13504 0.0
C2444 C 0.35975 0.9603 0.13149 0.0
C2445 C 0.34563 0.96162 0.14882 0.0
C2446 C 0.3467 0.98594 0.15982 0.0
C2447 C 0.35999 1.00952 0.15285 0.0
H2448 H 0.7343 0.90279 0.68857 0.0
H2449 H 0.7781 0.92564 0.63744 0.0
H2450 H 0.69263 0.92704 0.67711 0.0
H2451 H 0.73624 0.94926 0.62578 0.0
H2452 H 0.65417 0.98268 0.60733 0.0
H2453 H 0.68008 0.94194 0.61859 0.0
H2454 H 0.69616 0.98395 0.6716 0.0
H2455 H 0.67086 0.02492 0.66015 0.0
C2456 C 0.73457 0.91215 0.67459 0.0
C2457 C 0.75916 0.91272 0.66383 0.0
C2458 C 0.71085 0.92587 0.66809 0.0
C2459 C 0.71145 0.9397 0.65062 0.0
C2460 C 0.73535 0.9383 0.6392 0.0
C2461 C 0.75924 0.92509 0.64587 0.0
C2462 C 0.66246 0.98272 0.62162 0.0
C2463 C 0.66091 1.00672 0.63293 0.0
C2464 C 0.67715 0.95953 0.62801 0.0
C2465 C 0.68984 0.96005 0.64588 0.0
C2466 C 0.68613 0.98312 0.65784 0.0
C2467 C 0.67195 1.00651 0.6513 0.0
H2468 H 0.86996 0.02921 0.38809 0.0
H2469 H 0.88633 0.9853 0.44036 0.0
H2470 H 0.8439 0.98904 0.37625 0.0
H2471 H 0.85963 0.94541 0.42872 0.0
H2472 H 0.80529 0.90716 0.35914 0.0
H2473 H 0.84691 0.93156 0.37044 0.0
H2474 H 0.80314 0.95479 0.42153 0.0
H2475 H 0.7613 0.93105 0.41001 0.0
C2476 C 0.86867 1.01059 0.39671 0.0
C2477 C 0.87981 1.0101 0.41506 0.0
C2478 C 0.85402 0.98767 0.38996 0.0
C2479 C 0.84997 0.96442 0.40169 0.0
C2480 C 0.86281 0.96316 0.4195 0.0
C2481 C 0.87796 0.98586 0.42609 0.0
C2482 C 0.80494 0.91689 0.37301 0.0
C2483 C 0.78037 0.91758 0.38378 0.0
C2484 C 0.82862 0.93067 0.37941 0.0
C2485 C 0.82801 0.94465 0.39681 0.0
C2486 C 0.80402 0.94367 0.40817 0.0
C2487 C 0.78016 0.93041 0.40158 0.0
H2488 H 0.89687 0.0572 0.11835 0.0
H2489 H 0.86565 1.00272 0.16218 0.0
H2490 H 0.87423 0.0968 0.13363 0.0
H2491 H 0.84257 0.04207 0.17722 0.0
H2492 H 0.80124 0.11354 0.20195 0.0
H2493 H 0.84364 0.08877 0.19243 0.0
H2494 H 0.82243 0.10252 0.13354 0.0
H2495 H 0.78039 0.12751 0.14323 0.0
C2496 C 0.88593 0.05389 0.13159 0.0
C2497 C 0.88244 0.02696 0.13897 0.0
C2498 C 0.87295 0.07649 0.14026 0.0
C2499 C 0.85645 0.07238 0.15642 0.0
C2500 C 0.85534 0.04587 0.16482 0.0
C2501 C 0.8682 0.02329 0.15612 0.0
C2502 C 0.8063 0.11183 0.18702 0.0
C2503 C 0.78789 0.12186 0.17319 0.0
C2504 C 0.83041 0.09783 0.1816 0.0
C2505 C 0.83615 0.09365 0.16229 0.0
C2506 C 0.8187 0.10578 0.14853 0.0
C2507 C 0.79458 0.11977 0.15398 0.0
H2508 H 0.6411 0.05276 0.92413 0.0
H2509 H 0.68051 0.99317 0.88684 0.0
H2510 H 0.66255 0.09076 0.90655 0.0
H2511 H 0.70298 0.03083 0.86991 0.0
H2512 H 0.74675 0.09716 0.84278 0.0
H2513 H 0.70418 0.07217 0.85112 0.0
H2514 H 0.71118 0.1028 0.90865 0.0
H2515 H 0.75289 0.12867 0.89988 0.0
C2516 C 0.65372 0.04784 0.91185 0.0
C2517 C 0.65982 0.0201 0.90708 0.0
C2518 C 0.66609 0.06956 0.90188 0.0
C2519 C 0.68485 0.06377 0.88713 0.0
C2520 C 0.68855 0.03608 0.88116 0.0
C2521 C 0.67607 1.01442 0.89104 0.0
C2522 C 0.73859 0.09892 0.85706 0.0
C2523 C 0.75301 0.11404 0.87091 0.0
C2524 C 0.71432 0.0848 0.86181 0.0
C2525 C 0.70462 0.08516 0.88059 0.0
C2526 C 0.71793 0.10231 0.89401 0.0
C2527 C 0.74197 0.11681 0.88914 0.0
H2528 H 0.80503 0.63359 0.8541 0.0
H2529 H 0.76649 0.62183 0.90881 0.0
H2530 H 0.84554 0.60654 0.86457 0.0
H2531 H 0.80731 0.59551 0.91946 0.0
H2532 H 0.88837 0.5556 0.93449 0.0
H2533 H 0.86503 0.59736 0.92249 0.0
H2534 H 0.83595 0.55095 0.87395 0.0
H2535 H 0.8588 0.50898 0.88614 0.0
C2536 C 0.80586 0.62615 0.8686 0.0
C2537 C 0.78293 0.62941 0.88074 0.0
C2538 C 0.82889 0.61083 0.87452 0.0
C2539 C 0.82929 0.59925 0.89274 0.0
C2540 C 0.80742 0.60468 0.90542 0.0
C2541 C 0.78413 0.61947 0.89936 0.0
C2542 C 0.87768 0.55463 0.92096 0.0
C2543 C 0.875 0.5293 0.9112 0.0
C2544 C 0.86451 0.57842 0.91415 0.0
C2545 C 0.84904 0.57712 0.89736 0.0
C2546 C 0.84821 0.55233 0.88683 0.0
C2547 C 0.86093 0.52839 0.89382 0.0
H2548 H 0.68632 0.5457 0.09479 0.0
H2549 H 0.66289 0.53473 0.15332 0.0
H2550 H 0.71041 0.58896 0.10286 0.0
H2551 H 0.68771 0.57729 0.16171 0.0
H2552 H 0.73448 0.64956 0.17615 0.0
H2553 H 0.69592 0.62722 0.15966 0.0
H2554 H 0.75411 0.59113 0.11979 0.0
H2555 H 0.79232 0.61437 0.13575 0.0
C2556 C 0.6861 0.55297 0.10934 0.0
C2557 C 0.67354 0.5371 0.12361 0.0
C2558 C 0.69967 0.57762 0.11393 0.0
C2559 C 0.70118 0.58631 0.13291 0.0
C2560 C 0.68663 0.57134 0.14692 0.0
C2561 C 0.67278 0.54684 0.14225 0.0
C2562 C 0.73884 0.63778 0.16339 0.0
C2563 C 0.76635 0.633 0.15743 0.0
C2564 C 0.7168 0.62491 0.15404 0.0
C2565 C 0.72209 0.607 0.13874 0.0
C2566 C 0.74931 0.60486 0.13153 0.0
C2567 C 0.77129 0.6178 0.14082 0.0
H2568 H 0.73254 0.40319 0.3584 0.0
H2569 H 0.77592 0.42139 0.41059 0.0
H2570 H 0.69169 0.42865 0.36993 0.0
H2571 H 0.73484 0.4462 0.42231 0.0
H2572 H 0.67635 0.52731 0.38818 0.0
H2573 H 0.6995 0.48518 0.37659 0.0
H2574 H 0.67765 0.44226 0.42827 0.0
H2575 H 0.6538 0.48421 0.43964 0.0
C2576 C 0.73281 0.4117 0.37263 0.0
C2577 C 0.75715 0.41076 0.38366 0.0
C2578 C 0.70955 0.4261 0.37917 0.0
C2579 C 0.71037 0.43911 0.39693 0.0
C2580 C 0.73379 0.43591 0.40865 0.0
C2581 C 0.75725 0.42202 0.40195 0.0
C2582 C 0.67576 0.50854 0.39669 0.0
C2583 C 0.66364 0.50871 0.41472 0.0
C2584 C 0.68868 0.4845 0.39006 0.0
C2585 C 0.69006 0.46073 0.40161 0.0
C2586 C 0.67646 0.46039 0.41916 0.0
C2587 C 0.663 0.48426 0.42561 0.0
H2588 H 0.80217 0.39144 0.67333 0.0
H2589 H 0.74319 0.4312 0.63569 0.0
H2590 H 0.84045 0.41361 0.65648 0.0
H2591 H 0.78115 0.45437 0.61948 0.0
H2592 H 0.84836 0.49882 0.59354 0.0
H2593 H 0.82314 0.45614 0.60124 0.0
H2594 H 0.85188 0.46241 0.65928 0.0
H2595 H 0.87798 0.50428 0.65116 0.0
C2596 C 0.79745 0.40427 0.6611 0.0
C2597 C 0.76977 0.41025 0.65604 0.0
C2598 C 0.81935 0.41707 0.65156 0.0
C2599 C 0.81378 0.43613 0.63695 0.0
C2600 C 0.78621 0.43972 0.63064 0.0
C2601 C 0.76438 0.42682 0.6401 0.0
C2602 C 0.84965 0.49049 0.6078 0.0
C2603 C 0.86431 0.50472 0.62196 0.0
C2604 C 0.83539 0.46616 0.61219 0.0
C2605 C 0.83519 0.45619 0.6309 0.0
C2606 C 0.85184 0.46937 0.64467 0.0
C2607 C 0.86647 0.49349 0.64017 0.0
H2608 H 0.2762 0.42386 0.13634 0.0
H2609 H 0.23222 0.40237 0.18767 0.0
H2610 H 0.23464 0.44784 0.12455 0.0
H2611 H 0.19085 0.427 0.17609 0.0
H2612 H 0.15339 0.48338 0.1063 0.0
H2613 H 0.17824 0.44196 0.11756 0.0
H2614 H 0.19593 0.48376 0.17041 0.0
H2615 H 0.17174 0.52538 0.15896 0.0
C2616 C 0.25733 0.42364 0.14478 0.0
C2617 C 0.25715 0.41162 0.16285 0.0
C2618 C 0.23361 0.43705 0.13803 0.0
C2619 C 0.20979 0.43902 0.1495 0.0
C2620 C 0.20902 0.4254 0.16704 0.0
C2621 C 0.23256 0.41147 0.17361 0.0
C2622 C 0.16184 0.48325 0.12055 0.0
C2623 C 0.16107 0.50733 0.13182 0.0
C2624 C 0.17589 0.45967 0.12694 0.0
C2625 C 0.1887 0.4599 0.14478 0.0
C2626 C 0.18578 0.48314 0.15669 0.0
C2627 C 0.17224 0.50691 0.15014 0.0
H2628 H 0.38095 0.5104 0.89473 0.0
H2629 H 0.36555 0.49265 0.95374 0.0
H2630 H 0.35476 0.46885 0.88571 0.0
H2631 H 0.33937 0.4509 0.94487 0.0
H2632 H 0.25258 0.43285 0.91351 0.0
H2633 H 0.29254 0.45501 0.92851 0.0
H2634 H 0.34738 0.41654 0.88755 0.0
H2635 H 0.30732 0.39468 0.87237 0.0
C2636 C 0.37269 0.49694 0.9057 0.0
C2637 C 0.37471 0.50438 0.92479 0.0
C2638 C 0.35799 0.47313 0.90063 0.0
C2639 C 0.34502 0.45687 0.91467 0.0
C2640 C 0.34915 0.46322 0.93387 0.0
C2641 C 0.36395 0.48696 0.93891 0.0
C2642 C 0.27326 0.42865 0.90804 0.0
C2643 C 0.27696 0.41256 0.89168 0.0
C2644 C 0.29613 0.44096 0.91674 0.0
C2645 C 0.32292 0.43748 0.90905 0.0
C2646 C 0.32687 0.41949 0.89365 0.0
C2647 C 0.304 0.40702 0.88503 0.0
H2648 H 0.3299 0.52866 0.60493 0.0
H2649 H 0.40162 0.55023 0.63895 0.0
H2650 H 0.30633 0.57036 0.61536 0.0
H2651 H 0.37855 0.59332 0.64861 0.0
H2652 H 0.30403 0.62319 0.6872 0.0
H2653 H 0.34103 0.59917 0.67028 0.0
H2654 H 0.30103 0.61925 0.61693 0.0
H2655 H 0.26316 0.64204 0.63428 0.0
C2656 C 0.34073 0.54256 0.61451 0.0
C2657 C 0.36715 0.5358 0.62166 0.0
C2658 C 0.3275 0.56689 0.62013 0.0
C2659 C 0.34055 0.58516 0.63289 0.0
C2660 C 0.36788 0.57943 0.63894 0.0
C2661 C 0.38107 0.55484 0.63342 0.0
C2662 C 0.30375 0.62304 0.67183 0.0
C2663 C 0.28092 0.63372 0.66188 0.0
C2664 C 0.32502 0.60959 0.66209 0.0
C2665 C 0.32366 0.60686 0.64226 0.0
C2666 C 0.30225 0.62051 0.63225 0.0
C2667 C 0.2807 0.63355 0.64206 0.0
H2668 H 0.17462 0.50471 0.38707 0.0
H2669 H 0.14687 0.55404 0.43469 0.0
H2670 H 0.1981 0.54549 0.37392 0.0
H2671 H 0.17065 0.5947 0.42164 0.0
H2672 H 0.26876 0.61688 0.40963 0.0
H2673 H 0.22686 0.59192 0.41966 0.0
H2674 H 0.19298 0.59942 0.36312 0.0
H2675 H 0.23468 0.62509 0.35327 0.0
C2676 C 0.17289 0.5245 0.39436 0.0
C2677 C 0.15938 0.52638 0.41191 0.0
C2678 C 0.186 0.5478 0.38679 0.0
C2679 C 0.18607 0.57298 0.3969 0.0
C2680 C 0.17064 0.57542 0.41366 0.0
C2681 C 0.15715 0.55225 0.42107 0.0
C2682 C 0.25188 0.61393 0.39963 0.0
C2683 C 0.25456 0.62256 0.3808 0.0
C2684 C 0.22794 0.59996 0.40532 0.0
C2685 C 0.20688 0.59404 0.39209 0.0
C2686 C 0.20895 0.60409 0.3735 0.0
C2687 C 0.23265 0.61858 0.36792 0.0
H2688 H 0.20622 0.07723 0.30624 0.0
H2689 H 0.12361 0.09225 0.28458 0.0
H2690 H 0.20604 0.03077 0.2918 0.0
H2691 H 0.12313 0.04542 0.27056 0.0
H2692 H 0.12246 0.94711 0.26554 0.0
H2693 H 0.12249 0.99385 0.27977 0.0
H2694 H 0.20628 1.00676 0.25978 0.0
H2695 H 0.20596 0.96047 0.24515 0.0
C2696 C 0.18795 0.07075 0.29839 0.0
C2697 C 0.16499 0.08905 0.29664 0.0
C2698 C 0.18787 0.0439 0.29001 0.0
C2699 C 0.16454 0.03378 0.27989 0.0
C2700 C 0.14147 0.05201 0.27827 0.0
C2701 C 0.14182 0.07915 0.28626 0.0
C2702 C 0.14098 0.95981 0.2642 0.0
C2703 C 0.16424 0.94949 0.2541 0.0
C2704 C 0.14093 0.98689 0.2723 0.0
C2705 C 0.1644 1.00461 0.27108 0.0
C2706 C 0.18781 0.99404 0.26127 0.0
C2707 C 0.1876 0.96728 0.25278 0.0
H2708 H 0.18704 0.89822 0.51924 0.0
H2709 H 0.22255 0.93417 0.56971 0.0
H2710 H 0.23314 0.89914 0.50401 0.0
H2711 H 0.2686 0.93429 0.55474 0.0
H2712 H 0.35258 0.90107 0.52807 0.0
H2713 H 0.30638 0.90096 0.54304 0.0
H2714 H 0.27021 0.93327 0.49162 0.0
H2715 H 0.31652 0.93419 0.47685 0.0
C2716 C 0.20459 0.90627 0.52718 0.0
C2717 C 0.20054 0.9162 0.54585 0.0
C2718 C 0.23121 0.90689 0.51836 0.0
C2719 C 0.25514 0.91675 0.528 0.0
C2720 C 0.25108 0.92634 0.54673 0.0
C2721 C 0.2244 0.92639 0.55535 0.0
C2722 C 0.33488 0.90835 0.51992 0.0
C2723 C 0.33882 0.9178 0.50113 0.0
C2724 C 0.30817 0.90834 0.52858 0.0
C2725 C 0.28402 0.91705 0.51869 0.0
C2726 C 0.28794 0.9262 0.49982 0.0
C2727 C 0.31474 0.92689 0.49133 0.0
H2728 H 0.4172 0.09215 0.76465 0.0
H2729 H 0.33348 0.07934 0.74445 0.0
H2730 H 0.41688 0.04552 0.77903 0.0
H2731 H 0.33288 0.03315 0.75924 0.0
H2732 H 0.33277 0.96308 0.80606 0.0
H2733 H 0.33316 1.0094 0.7914 0.0
H2734 H 0.41576 0.99391 0.76994 0.0
H2735 H 0.41506 0.94722 0.78417 0.0
C2736 C 0.39858 0.0796 0.76338 0.0
C2737 C 0.37534 0.09003 0.75329 0.0
C2738 C 0.39845 0.05258 0.77157 0.0
C2739 C 0.37484 0.03505 0.77045 0.0
C2740 C 0.35146 0.04573 0.76065 0.0
C2741 C 0.35183 0.07243 0.75207 0.0
C2742 C 0.35101 0.96934 0.79811 0.0
C2743 C 0.37381 0.95085 0.79636 0.0
C2744 C 0.35122 0.99611 0.78961 0.0
C2745 C 0.37453 1.00595 0.77937 0.0
C2746 C 0.39743 0.98753 0.77774 0.0
C2747 C 0.39695 0.96047 0.78585 0.0
H2748 H 0.19676 0.16236 1.01376 0.0
H2749 H 0.21175 0.07988 0.99204 0.0
H2750 H 0.24337 0.16252 0.02821 0.0
H2751 H 0.25797 0.0797 1.00697 0.0
H2752 H 0.32759 0.07943 0.05454 0.0
H2753 H 0.2815 0.07932 0.03946 0.0
H2754 H 0.29531 0.16285 1.01937 0.0
H2755 H 0.34184 0.16263 0.03397 0.0
C2756 C 0.2098 0.1441 1.01214 0.0
C2757 C 0.19992 0.12108 1.00161 0.0
C2758 C 0.23683 0.14426 1.0204 0.0
C2759 C 0.255 0.12112 1.01894 0.0
C2760 C 0.24491 0.09793 1.00865 0.0
C2761 C 0.21819 0.09806 0.99998 0.0
C2762 C 0.32102 0.09779 0.0468 0.0
C2763 C 0.33904 0.12099 0.04556 0.0
C2764 C 0.29437 0.0977 0.03805 0.0
C2765 C 0.28408 0.12109 0.02805 0.0
C2766 C 0.30201 0.14441 0.02695 0.0
C2767 C 0.32899 0.14423 0.03529 0.0
H2768 H 0.83223 0.96328 0.74109 0.0
H2769 H 0.91408 0.94756 0.76383 0.0
H2770 H 0.83242 1.00976 0.75551 0.0
H2771 H 0.91459 0.99441 0.77783 0.0
H2772 H 0.91604 0.09267 0.78342 0.0
H2773 H 0.91607 0.04601 0.76902 0.0
H2774 H 0.83132 0.03396 0.78731 0.0
H2775 H 0.83156 0.08012 0.80209 0.0
C2776 C 0.85033 0.9696 0.74917 0.0
C2777 C 0.87306 0.95106 0.75123 0.0
C2778 C 0.85043 0.99648 0.75754 0.0
C2779 C 0.87355 1.00645 0.76796 0.0
C2780 C 0.8964 0.98799 0.76988 0.0
C2781 C 0.89602 0.96082 0.7619 0.0
C2782 C 0.89731 0.0802 0.78433 0.0
C2783 C 0.87376 0.09074 0.79401 0.0
C2784 C 0.89738 0.05314 0.77613 0.0
C2785 C 0.87368 0.03565 0.77683 0.0
C2786 C 0.85 0.04647 0.7862 0.0
C2787 C 0.85015 0.07318 0.79479 0.0
H2788 H 0.72333 0.10454 0.5711 0.0
H2789 H 0.68763 0.13889 0.52013 0.0
H2790 H 0.76959 0.10498 0.5563 0.0
H2791 H 0.73382 0.13854 0.50512 0.0
H2792 H 0.81785 0.10525 0.47834 0.0
H2793 H 0.77156 0.10512 0.49311 0.0
H2794 H 0.80678 0.1389 0.54436 0.0
H2795 H 0.85297 0.13983 0.52937 0.0
C2796 C 0.72518 0.11203 0.55667 0.0
C2797 C 0.70122 0.12162 0.54696 0.0
C2798 C 0.75196 0.11243 0.54815 0.0
C2799 C 0.75598 0.12178 0.52934 0.0
C2800 C 0.73194 0.13098 0.51952 0.0
C2801 C 0.70525 0.13125 0.52822 0.0
C2802 C 0.81587 0.11267 0.49278 0.0
C2803 C 0.83967 0.1225 0.50252 0.0
C2804 C 0.78907 0.11274 0.50128 0.0
C2805 C 0.7849 0.12197 0.5201 0.0
C2806 C 0.80878 0.13141 0.52995 0.0
C2807 C 0.83548 0.13202 0.52127 0.0
H2808 H 0.62505 0.94733 0.28432 0.0
H2809 H 0.70793 0.96141 0.30571 0.0
H2810 H 0.62516 0.99389 0.26985 0.0
H2811 H 0.70834 1.00755 0.29081 0.0
H2812 H 0.7089 0.07724 0.24358 0.0
H2813 H 0.70876 0.03112 0.25855 0.0
H2814 H 0.62524 0.0456 0.27865 0.0
H2815 H 0.62568 0.0921 0.26411 0.0
C2816 C 0.64345 0.96016 0.28586 0.0
C2817 C 0.66651 0.95007 0.2963 0.0
C2818 C 0.64344 0.98715 0.2776 0.0
C2819 C 0.66676 1.00502 0.27899 0.0
C2820 C 0.68998 0.99471 0.28918 0.0
C2821 C 0.68971 0.96803 0.29783 0.0
C2822 C 0.69051 0.07081 0.25131 0.0
C2823 C 0.66737 0.08897 0.25258 0.0
C2824 C 0.69044 0.04415 0.25999 0.0
C2825 C 0.66696 0.03406 0.26994 0.0
C2826 C 0.64373 0.05216 0.27109 0.0
C2827 C 0.64405 0.07912 0.2628 0.0
H2828 H 0.84275 0.87478 0.03478 0.0
H2829 H 0.82718 0.95688 0.05704 0.0
H2830 H 0.79606 0.87434 1.02055 0.0
H2831 H 0.7808 0.95675 0.04236 0.0
H2832 H 0.71098 0.95676 0.99508 0.0
H2833 H 0.75708 0.95729 1.01008 0.0
H2834 H 0.74449 0.87326 0.02962 0.0
H2835 H 0.69796 0.87301 1.01504 0.0
C2836 C 0.82954 0.8929 0.03657 0.0
C2837 C 0.83925 0.91591 0.04717 0.0
C2838 C 0.80248 0.89257 0.02844 0.0
C2839 C 0.78413 0.9155 0.03015 0.0
C2840 C 0.79404 0.93868 0.04051 0.0
C2841 C 0.82083 0.93874 0.04902 0.0
C2842 C 0.71783 0.93839 1.00269 0.0
C2843 C 0.70021 0.91489 1.00378 0.0
C2844 C 0.74446 0.93872 1.0114 0.0
C2845 C 0.75506 0.9153 1.02118 0.0
C2846 C 0.7375 0.89171 1.02218 0.0
C2847 C 0.71054 0.89163 1.01387 0.0
H2848 H 0.64995 0.60298 0.7695 0.0
H2849 H 0.68334 0.56776 0.82091 0.0
H2850 H 0.6501 0.55659 0.7548 0.0
H2851 H 0.68265 0.52131 0.80643 0.0
H2852 H 0.64775 0.43771 0.77934 0.0
H2853 H 0.64843 0.48403 0.79424 0.0
H2854 H 0.68395 0.51872 0.7434 0.0
H2855 H 0.6841 0.47243 0.72877 0.0
C2856 C 0.65732 0.58543 0.77775 0.0
C2857 C 0.66678 0.58965 0.79652 0.0
C2858 C 0.65746 0.55861 0.76924 0.0
C2859 C 0.66633 0.53465 0.77928 0.0
C2860 C 0.67546 0.53887 0.79812 0.0
C2861 C 0.67601 0.56577 0.80645 0.0
C2862 C 0.65588 0.45512 0.77132 0.0
C2863 C 0.666 0.45079 0.75273 0.0
C2864 C 0.65634 0.48188 0.77994 0.0
C2865 C 0.6662 0.50566 0.77017 0.0
C2866 C 0.67599 0.50132 0.75151 0.0
C2867 C 0.67622 0.47449 0.74309 0.0
H2868 H 0.8174 0.43475 0.97734 0.0
H2869 H 0.85319 0.40073 0.02838 0.0
H2870 H 0.77107 0.43376 0.99198 0.0
H2871 H 0.80686 0.40059 0.04326 0.0
H2872 H 0.7228 0.43473 0.06973 0.0
H2873 H 0.76903 0.4343 0.05501 0.0
H2874 H 0.73372 0.39962 1.00407 0.0
H2875 H 0.68743 0.39921 1.01908 0.0
C2876 C 0.81556 0.42719 0.99176 0.0
C2877 C 0.8396 0.4179 1.00153 0.0
C2878 C 0.78871 0.42647 1.00017 0.0
C2879 C 0.78465 0.4171 1.01897 0.0
C2880 C 0.80875 0.40813 0.02885 0.0
C2881 C 0.83554 0.40815 1.02024 0.0
C2882 C 0.72471 0.42693 0.05538 0.0
C2883 C 0.70082 0.41705 0.04575 0.0
C2884 C 0.75151 0.42655 0.04691 0.0
C2885 C 0.75568 0.41694 0.02819 0.0
C2886 C 0.73173 0.40737 1.01843 0.0
C2887 C 0.70498 0.40706 0.0271 0.0
H2888 H 0.8895 0.43688 0.27001 0.0
H2889 H 0.85468 0.47244 0.32084 0.0
H2890 H 0.88941 0.48316 0.25508 0.0
H2891 H 0.85543 0.51872 0.30616 0.0
H2892 H 0.8906 0.60213 0.27937 0.0
H2893 H 0.88994 0.55585 0.29429 0.0
H2894 H 0.85539 0.52088 0.24321 0.0
H2895 H 0.85521 0.56717 0.22854 0.0
C2896 C 0.88183 0.45448 0.27808 0.0
C2897 C 0.87195 0.45041 0.29675 0.0
C2898 C 0.88172 0.48121 0.26945 0.0
C2899 C 0.87247 0.50519 0.27928 0.0
C2900 C 0.86292 0.50112 0.29802 0.0
C2901 C 0.86234 0.47433 0.30646 0.0
C2902 C 0.88269 0.58466 0.2713 0.0
C2903 C 0.87282 0.58891 0.25263 0.0
C2904 C 0.88225 0.55793 0.27993 0.0
C2905 C 0.87266 0.53411 0.27009 0.0
C2906 C 0.86313 0.53835 0.25135 0.0
C2907 C 0.86288 0.56515 0.24291 0.0
H2908 H 0.69798 0.66463 0.5139 0.0
H2909 H 0.71309 0.58185 0.49274 0.0
H2910 H 0.74484 0.66526 0.52801 0.0
H2911 H 0.75953 0.58219 0.50723 0.0
H2912 H 0.83001 0.58222 0.5536 0.0
H2913 H 0.78371 0.58201 0.53896 0.0
H2914 H 0.79654 0.66593 0.51929 0.0
H2915 H 0.84334 0.66586 0.53356 0.0
C2916 C 0.71109 0.6464 0.51235 0.0
C2917 C 0.70117 0.62313 0.50209 0.0
C2918 C 0.73826 0.64684 0.52039 0.0
C2919 C 0.75655 0.62378 0.51893 0.0
C2920 C 0.7464 0.60037 0.50892 0.0
C2921 C 0.71953 0.60019 0.50051 0.0
C2922 C 0.82321 0.60064 0.54603 0.0
C2923 C 0.84103 0.62399 0.54482 0.0
C2924 C 0.79641 0.60049 0.53753 0.0
C2925 C 0.78578 0.62396 0.5278 0.0
C2926 C 0.80352 0.64743 0.52669 0.0
C2927 C 0.83066 0.64733 0.53481 0.0
H2928 H 0.35242 0.56522 0.32074 0.0
H2929 H 0.38609 0.60163 0.26987 0.0
H2930 H 0.35284 0.51922 0.30564 0.0
H2931 H 0.38571 0.55567 0.25454 0.0
H2932 H 0.35198 0.47221 0.22737 0.0
H2933 H 0.35215 0.51821 0.24247 0.0
H2934 H 0.38662 0.48209 0.29325 0.0
H2935 H 0.38725 0.43613 0.27792 0.0
C2936 C 0.35975 0.56359 0.30626 0.0
C2937 C 0.36914 0.58767 0.29667 0.0
C2938 C 0.36015 0.53694 0.29757 0.0
C2939 C 0.3693 0.53318 0.2787 0.0
C2940 C 0.37831 0.55735 0.26899 0.0
C2941 C 0.37859 0.58391 0.27786 0.0
C2942 C 0.35962 0.47391 0.24178 0.0
C2943 C 0.36953 0.44992 0.25128 0.0
C2944 C 0.35986 0.50056 0.25047 0.0
C2945 C 0.36938 0.50441 0.26925 0.0
C2946 C 0.37893 0.48034 0.27887 0.0
C2947 C 0.37935 0.45377 0.27 0.0
H2948 H 0.31792 0.60662 0.97878 0.0
H2949 H 0.35273 0.64241 0.02953 0.0
H2950 H 0.27152 0.60706 0.99331 0.0
H2951 H 0.30633 0.64197 0.04433 0.0
H2952 H 0.22256 0.60661 0.07067 0.0
H2953 H 0.26897 0.60725 0.05614 0.0
H2954 H 0.23382 0.64162 1.00501 0.0
H2955 H 0.18742 0.64186 1.01981 0.0
C2956 C 0.31585 0.61443 0.99312 0.0
C2957 C 0.3396 0.62441 1.00285 0.0
C2958 C 0.28898 0.61483 1.00147 0.0
C2959 C 0.28466 0.62454 1.02015 0.0
C2960 C 0.30847 0.63416 0.03001 0.0
C2961 C 0.33527 0.63447 1.02145 0.0
C2962 C 0.22457 0.61435 0.05631 0.0
C2963 C 0.20072 0.62411 0.04655 0.0
C2964 C 0.25144 0.61486 0.04796 0.0
C2965 C 0.25566 0.62448 0.02925 0.0
C2966 C 0.23175 0.63389 1.01936 0.0
C2967 C 0.20495 0.63408 0.02791 0.0
H2968 H 0.21049 0.57748 0.7428 0.0
H2969 H 0.12803 0.59217 0.76474 0.0
H2970 H 0.21095 0.53131 0.75778 0.0
H2971 H 0.12815 0.54566 0.77922 0.0
H2972 H 0.1281 0.44744 0.78488 0.0
H2973 H 0.12788 0.49389 0.77027 0.0
H2974 H 0.2115 0.50771 0.79032 0.0
H2975 H 0.2114 0.46165 0.80541 0.0
C2976 C 0.19238 0.57099 0.75081 0.0
C2977 C 0.16928 0.58914 0.75248 0.0
C2978 C 0.19267 0.54431 0.7595 0.0
C2979 C 0.16956 0.53416 0.76984 0.0
C2980 C 0.14636 0.55224 0.77136 0.0
C2981 C 0.14636 0.57921 0.76308 0.0
C2982 C 0.14653 0.46026 0.78619 0.0
C2983 C 0.1698 0.45024 0.79646 0.0
C2984 C 0.14635 0.4872 0.77784 0.0
C2985 C 0.16968 0.50511 0.77894 0.0
C2986 C 0.19311 0.49484 0.78892 0.0
C2987 C 0.19303 0.46822 0.79768 0.0
H2988 H 0.22208 0.43297 0.47834 0.0
H2989 H 0.1876 0.39663 0.52898 0.0
H2990 H 0.26852 0.43258 0.49281 0.0
H2991 H 0.23407 0.39708 0.54373 0.0
H2992 H 0.31789 0.43233 0.57011 0.0
H2993 H 0.27138 0.43153 0.55571 0.0
H2994 H 0.30643 0.39843 0.5042 0.0
H2995 H 0.35294 0.39838 0.51885 0.0
C2996 C 0.22424 0.42503 0.49264 0.0
C2997 C 0.20056 0.41489 0.50236 0.0
C2998 C 0.25114 0.42466 0.50096 0.0
C2999 C 0.25558 0.41481 0.51959 0.0
C3000 C 0.23184 0.40501 0.52944 0.0
C3001 C 0.20499 0.40469 0.52091 0.0
C3002 C 0.31584 0.42484 0.5557 0.0
C3003 C 0.33969 0.41549 0.54578 0.0
C3004 C 0.28891 0.42423 0.54742 0.0
C3005 C 0.28462 0.41492 0.52864 0.0
C3006 C 0.30854 0.40592 0.5186 0.0
C3007 C 0.33541 0.40583 0.52707 0.0
loop_
_geom_bond_atom_site_label_1
_geom_bond_atom_site_label_2
_geom_bond_distance
_geom_bond_site_symmetry_2
_ccdc_geom_bond_type
C0 O16 1.251 . S
C0 O18 1.254 . S
N1 C2 1.333 . S
N1 C6 1.307 . S
N1 Zn7 2.020 . S
C2 N1 1.333 . S
C2 C3 1.379 . S
C2 H20 0.952 . S
C3 C2 1.379 . S
C3 C4 1.390 . S
C3 H30 0.949 . S
C4 C3 1.390 . S
C4 C5 1.357 . S
C5 C4 1.357 . S
C5 C6 1.370 . S
C5 H31 0.950 . S
C6 N1 1.307 . S
C6 C5 1.370 . S
C6 H24 0.948 . S
Zn7 N1 2.020 . S
Zn7 O16 2.039 . S
Zn7 O22 2.034 . S
Zn7 O26 2.025 . S
Zn7 O28 2.024 . S
C8 O27 1.246 . S
C8 O28 1.249 . S
N9 C10 1.307 . S
N9 C11 1.333 . S
N9 Zn15 2.020 . S
C10 N9 1.307 . S
C10 C14 1.370 . S
C10 H21 0.948 . S
C11 N9 1.333 . S
C11 C12 1.379 . S
C11 H19 0.952 . S
C12 C11 1.379 . S
C12 C13 1.390 . S
C12 H32 0.949 . S
C13 C12 1.390 . S
C13 C14 1.357 . S
C14 C10 1.370 . S
C14 C13 1.357 . S
C14 H33 0.950 . S
Zn15 N9 2.020 . S
Zn15 O18 2.025 . S
Zn15 O23 2.024 . S
Zn15 O25 2.039 . S
Zn15 O27 2.034 . S
O16 C0 1.251 . S
O16 Zn7 2.039 . S
C17 O22 1.246 . S
C17 O23 1.249 . S
O18 C0 1.254 . S
O18 Zn15 2.025 . S
H19 C11 0.952 . S
H20 C2 0.952 . S
H21 C10 0.948 . S
O22 Zn7 2.034 . S
O22 C17 1.246 . S
O23 Zn15 2.024 . S
O23 C17 1.249 . S
H24 C6 0.948 . S
O25 Zn15 2.039 . S
O25 C29 1.251 . S
O26 Zn7 2.025 . S
O26 C29 1.254 . S
O27 C8 1.246 . S
O27 Zn15 2.034 . S
O28 Zn7 2.024 . S
O28 C8 1.249 . S
C29 O25 1.251 . S
C29 O26 1.254 . S
H30 C3 0.949 . S
H31 C5 0.950 . S
H32 C12 0.949 . S
H33 C14 0.950 . S
C34 O50 1.251 . S
C34 O52 1.254 . S
N35 C36 1.333 . S
N35 C40 1.307 . S
N35 Zn41 2.020 . S
C36 N35 1.333 . S
C36 C37 1.379 . S
C36 H54 0.952 . S
C37 C36 1.379 . S
C37 C38 1.390 . S
C37 H64 0.949 . S
C38 C37 1.390 . S
C38 C39 1.357 . S
C39 C38 1.357 . S
C39 C40 1.370 . S
C39 H65 0.950 . S
C40 N35 1.307 . S
C40 C39 1.370 . S
C40 H58 0.948 . S
Zn41 N35 2.020 . S
Zn41 O50 2.039 . S
Zn41 O56 2.034 . S
Zn41 O60 2.025 . S
Zn41 O62 2.024 . S
C42 O61 1.246 . S
C42 O62 1.249 . S
N43 C44 1.307 . S
N43 C45 1.333 . S
N43 Zn49 2.020 . S
C44 N43 1.307 . S
C44 C48 1.370 . S
C44 H55 0.948 . S
C45 N43 1.333 . S
C45 C46 1.379 . S
C45 H53 0.952 . S
C46 C45 1.379 . S
C46 C47 1.390 . S
C46 H66 0.949 . S
C47 C46 1.390 . S
C47 C48 1.357 . S
C48 C44 1.370 . S
C48 C47 1.357 . S
C48 H67 0.950 . S
Zn49 N43 2.020 . S
Zn49 O52 2.025 . S
Zn49 O57 2.024 . S
Zn49 O59 2.039 . S
Zn49 O61 2.034 . S
O50 C34 1.251 . S
O50 Zn41 2.039 . S
C51 O56 1.246 . S
C51 O57 1.249 . S
O52 C34 1.254 . S
O52 Zn49 2.025 . S
H53 C45 0.952 . S
H54 C36 0.952 . S
H55 C44 0.948 . S
O56 Zn41 2.034 . S
O56 C51 1.246 . S
O57 Zn49 2.024 . S
O57 C51 1.249 . S
H58 C40 0.948 . S
O59 Zn49 2.039 . S
O59 C63 1.251 . S
O60 Zn41 2.025 . S
O60 C63 1.254 . S
O61 C42 1.246 . S
O61 Zn49 2.034 . S
O62 Zn41 2.024 . S
O62 C42 1.249 . S
C63 O59 1.251 . S
C63 O60 1.254 . S
H64 C37 0.949 . S
H65 C39 0.950 . S
H66 C46 0.949 . S
H67 C48 0.950 . S
C68 O84 1.251 . S
C68 O86 1.254 . S
N69 C70 1.333 . S
N69 C74 1.307 . S
N69 Zn75 2.020 . S
C70 N69 1.333 . S
C70 C71 1.379 . S
C70 H88 0.952 . S
C71 C70 1.379 . S
C71 C72 1.390 . S
C71 H98 0.949 . S
C72 C71 1.390 . S
C72 C73 1.357 . S
C73 C72 1.357 . S
C73 C74 1.370 . S
C73 H99 0.950 . S
C74 N69 1.307 . S
C74 C73 1.370 . S
C74 H92 0.948 . S
Zn75 N69 2.020 . S
Zn75 O84 2.039 . S
Zn75 O90 2.034 . S
Zn75 O94 2.025 . S
Zn75 O96 2.024 . S
C76 O95 1.246 . S
C76 O96 1.249 . S
N77 C78 1.307 . S
N77 C79 1.333 . S
N77 Zn83 2.020 . S
C78 N77 1.307 . S
C78 C82 1.370 . S
C78 H89 0.948 . S
C79 N77 1.333 . S
C79 C80 1.379 . S
C79 H87 0.952 . S
C80 C79 1.379 . S
C80 C81 1.390 . S
C80 H100 0.949 . S
C81 C80 1.390 . S
C81 C82 1.357 . S
C82 C78 1.370 . S
C82 C81 1.357 . S
C82 H101 0.950 . S
Zn83 N77 2.020 . S
Zn83 O86 2.025 . S
Zn83 O91 2.024 . S
Zn83 O93 2.039 . S
Zn83 O95 2.034 . S
O84 C68 1.251 . S
O84 Zn75 2.039 . S
C85 O90 1.246 . S
C85 O91 1.249 . S
O86 C68 1.254 . S
O86 Zn83 2.025 . S
H87 C79 0.952 . S
H88 C70 0.952 . S
H89 C78 0.948 . S
O90 Zn75 2.034 . S
O90 C85 1.246 . S
O91 Zn83 2.024 . S
O91 C85 1.249 . S
H92 C74 0.948 . S
O93 Zn83 2.039 . S
O93 C97 1.251 . S
O94 Zn75 2.025 . S
O94 C97 1.254 . S
O95 C76 1.246 . S
O95 Zn83 2.034 . S
O96 Zn75 2.024 . S
O96 C76 1.249 . S
C97 O93 1.251 . S
C97 O94 1.254 . S
H98 C71 0.949 . S
H99 C73 0.950 . S
H100 C80 0.949 . S
H101 C82 0.950 . S
C102 O118 1.251 . S
C102 O120 1.254 . S
N103 C104 1.333 . S
N103 C108 1.307 . S
N103 Zn109 2.020 . S
C104 N103 1.333 . S
C104 C105 1.379 . S
C104 H122 0.952 . S
C105 C104 1.379 . S
C105 C106 1.390 . S
C105 H132 0.949 . S
C106 C105 1.390 . S
C106 C107 1.357 . S
C107 C106 1.357 . S
C107 C108 1.370 . S
C107 H133 0.950 . S
C108 N103 1.307 . S
C108 C107 1.370 . S
C108 H126 0.948 . S
Zn109 N103 2.020 . S
Zn109 O118 2.039 . S
Zn109 O124 2.034 . S
Zn109 O128 2.025 . S
Zn109 O130 2.024 . S
C110 O129 1.246 . S
C110 O130 1.249 . S
N111 C112 1.307 . S
N111 C113 1.333 . S
N111 Zn117 2.020 . S
C112 N111 1.307 . S
C112 C116 1.370 . S
C112 H123 0.948 . S
C113 N111 1.333 . S
C113 C114 1.379 . S
C113 H121 0.952 . S
C114 C113 1.379 . S
C114 C115 1.390 . S
C114 H134 0.949 . S
C115 C114 1.390 . S
C115 C116 1.357 . S
C116 C112 1.370 . S
C116 C115 1.357 . S
C116 H135 0.950 . S
Zn117 N111 2.020 . S
Zn117 O120 2.025 . S
Zn117 O125 2.024 . S
Zn117 O127 2.039 . S
Zn117 O129 2.034 . S
O118 C102 1.251 . S
O118 Zn109 2.039 . S
C119 O124 1.246 . S
C119 O125 1.249 . S
O120 C102 1.254 . S
O120 Zn117 2.025 . S
H121 C113 0.952 . S
H122 C104 0.952 . S
H123 C112 0.948 . S
O124 Zn109 2.034 . S
O124 C119 1.246 . S
O125 Zn117 2.024 . S
O125 C119 1.249 . S
H126 C108 0.948 . S
O127 Zn117 2.039 . S
O127 C131 1.251 . S
O128 Zn109 2.025 . S
O128 C131 1.254 . S
O129 C110 1.246 . S
O129 Zn117 2.034 . S
O130 Zn109 2.024 . S
O130 C110 1.249 . S
C131 O127 1.251 . S
C131 O128 1.254 . S
H132 C105 0.949 . S
H133 C107 0.950 . S
H134 C114 0.949 . S
H135 C116 0.950 . S
C136 O152 1.251 . S
C136 O154 1.254 . S
N137 C138 1.333 . S
N137 C142 1.307 . S
N137 Zn143 2.020 . S
C138 N137 1.333 . S
C138 C139 1.379 . S
C138 H156 0.952 . S
C139 C138 1.379 . S
C139 C140 1.390 . S
C139 H166 0.949 . S
C140 C139 1.390 . S
C140 C141 1.357 . S
C141 C140 1.357 . S
C141 C142 1.370 . S
C141 H167 0.950 . S
C142 N137 1.307 . S
C142 C141 1.370 . S
C142 H160 0.948 . S
Zn143 N137 2.020 . S
Zn143 O152 2.039 . S
Zn143 O158 2.034 . S
Zn143 O162 2.025 . S
Zn143 O164 2.024 . S
C144 O163 1.246 . S
C144 O164 1.249 . S
N145 C146 1.307 . S
N145 C147 1.333 . S
N145 Zn151 2.020 . S
C146 N145 1.307 . S
C146 C150 1.370 . S
C146 H157 0.948 . S
C147 N145 1.333 . S
C147 C148 1.379 . S
C147 H155 0.952 . S
C148 C147 1.379 . S
C148 C149 1.390 . S
C148 H168 0.949 . S
C149 C148 1.390 . S
C149 C150 1.357 . S
C150 C146 1.370 . S
C150 C149 1.357 . S
C150 H169 0.950 . S
Zn151 N145 2.020 . S
Zn151 O154 2.025 . S
Zn151 O159 2.024 . S
Zn151 O161 2.039 . S
Zn151 O163 2.034 . S
O152 C136 1.251 . S
O152 Zn143 2.039 . S
C153 O158 1.246 . S
C153 O159 1.249 . S
O154 C136 1.254 . S
O154 Zn151 2.025 . S
H155 C147 0.952 . S
H156 C138 0.952 . S
H157 C146 0.948 . S
O158 Zn143 2.034 . S
O158 C153 1.246 . S
O159 Zn151 2.024 . S
O159 C153 1.249 . S
H160 C142 0.948 . S
O161 Zn151 2.039 . S
O161 C165 1.251 . S
O162 Zn143 2.025 . S
O162 C165 1.254 . S
O163 C144 1.246 . S
O163 Zn151 2.034 . S
O164 Zn143 2.024 . S
O164 C144 1.249 . S
C165 O161 1.251 . S
C165 O162 1.254 . S
H166 C139 0.949 . S
H167 C141 0.950 . S
H168 C148 0.949 . S
H169 C150 0.950 . S
C170 O186 1.251 . S
C170 O188 1.254 . S
N171 C172 1.333 . S
N171 C176 1.307 . S
N171 Zn177 2.020 . S
C172 N171 1.333 . S
C172 C173 1.379 . S
C172 H190 0.952 . S
C173 C172 1.379 . S
C173 C174 1.390 . S
C173 H200 0.949 . S
C174 C173 1.390 . S
C174 C175 1.357 . S
C175 C174 1.357 . S
C175 C176 1.370 . S
C175 H201 0.950 . S
C176 N171 1.307 . S
C176 C175 1.370 . S
C176 H194 0.948 . S
Zn177 N171 2.020 . S
Zn177 O186 2.039 . S
Zn177 O192 2.034 . S
Zn177 O196 2.025 . S
Zn177 O198 2.024 . S
C178 O197 1.246 . S
C178 O198 1.249 . S
N179 C180 1.307 . S
N179 C181 1.333 . S
N179 Zn185 2.020 . S
C180 N179 1.307 . S
C180 C184 1.370 . S
C180 H191 0.948 . S
C181 N179 1.333 . S
C181 C182 1.379 . S
C181 H189 0.952 . S
C182 C181 1.379 . S
C182 C183 1.390 . S
C182 H202 0.949 . S
C183 C182 1.390 . S
C183 C184 1.357 . S
C184 C180 1.370 . S
C184 C183 1.357 . S
C184 H203 0.950 . S
Zn185 N179 2.020 . S
Zn185 O188 2.025 . S
Zn185 O193 2.024 . S
Zn185 O195 2.039 . S
Zn185 O197 2.034 . S
O186 C170 1.251 . S
O186 Zn177 2.039 . S
C187 O192 1.246 . S
C187 O193 1.249 . S
O188 C170 1.254 . S
O188 Zn185 2.025 . S
H189 C181 0.952 . S
H190 C172 0.952 . S
H191 C180 0.948 . S
O192 Zn177 2.034 . S
O192 C187 1.246 . S
O193 Zn185 2.024 . S
O193 C187 1.249 . S
H194 C176 0.948 . S
O195 Zn185 2.039 . S
O195 C199 1.251 . S
O196 Zn177 2.025 . S
O196 C199 1.254 . S
O197 C178 1.246 . S
O197 Zn185 2.034 . S
O198 Zn177 2.024 . S
O198 C178 1.249 . S
C199 O195 1.251 . S
C199 O196 1.254 . S
H200 C173 0.949 . S
H201 C175 0.950 . S
H202 C182 0.949 . S
H203 C184 0.950 . S
C204 O220 1.251 . S
C204 O222 1.254 . S
N205 C206 1.333 . S
N205 C210 1.307 . S
N205 Zn211 2.020 . S
C206 N205 1.333 . S
C206 C207 1.379 . S
C206 H224 0.952 . S
C207 C206 1.379 . S
C207 C208 1.390 . S
C207 H234 0.949 . S
C208 C207 1.390 . S
C208 C209 1.357 . S
C209 C208 1.357 . S
C209 C210 1.370 . S
C209 H235 0.950 . S
C210 N205 1.307 . S
C210 C209 1.370 . S
C210 H228 0.948 . S
Zn211 N205 2.020 . S
Zn211 O220 2.039 . S
Zn211 O226 2.034 . S
Zn211 O230 2.025 . S
Zn211 O232 2.024 . S
C212 O231 1.246 . S
C212 O232 1.249 . S
N213 C214 1.307 . S
N213 C215 1.333 . S
N213 Zn219 2.020 . S
C214 N213 1.307 . S
C214 C218 1.370 . S
C214 H225 0.948 . S
C215 N213 1.333 . S
C215 C216 1.379 . S
C215 H223 0.952 . S
C216 C215 1.379 . S
C216 C217 1.390 . S
C216 H236 0.949 . S
C217 C216 1.390 . S
C217 C218 1.357 . S
C218 C214 1.370 . S
C218 C217 1.357 . S
C218 H237 0.950 . S
Zn219 N213 2.020 . S
Zn219 O222 2.025 . S
Zn219 O227 2.024 . S
Zn219 O229 2.039 . S
Zn219 O231 2.034 . S
O220 C204 1.251 . S
O220 Zn211 2.039 . S
C221 O226 1.246 . S
C221 O227 1.249 . S
O222 C204 1.254 . S
O222 Zn219 2.025 . S
H223 C215 0.952 . S
H224 C206 0.952 . S
H225 C214 0.948 . S
O226 Zn211 2.034 . S
O226 C221 1.246 . S
O227 Zn219 2.024 . S
O227 C221 1.249 . S
H228 C210 0.948 . S
O229 Zn219 2.039 . S
O229 C233 1.251 . S
O230 Zn211 2.025 . S
O230 C233 1.254 . S
O231 C212 1.246 . S
O231 Zn219 2.034 . S
O232 Zn211 2.024 . S
O232 C212 1.249 . S
C233 O229 1.251 . S
C233 O230 1.254 . S
H234 C207 0.949 . S
H235 C209 0.950 . S
H236 C216 0.949 . S
H237 C218 0.950 . S
C238 O254 1.251 . S
C238 O256 1.254 . S
N239 C240 1.333 . S
N239 C244 1.307 . S
N239 Zn245 2.020 . S
C240 N239 1.333 . S
C240 C241 1.379 . S
C240 H258 0.952 . S
C241 C240 1.379 . S
C241 C242 1.390 . S
C241 H268 0.949 . S
C242 C241 1.390 . S
C242 C243 1.357 . S
C243 C242 1.357 . S
C243 C244 1.370 . S
C243 H269 0.950 . S
C244 N239 1.307 . S
C244 C243 1.370 . S
C244 H262 0.948 . S
Zn245 N239 2.020 . S
Zn245 O254 2.039 . S
Zn245 O260 2.034 . S
Zn245 O264 2.025 . S
Zn245 O266 2.024 . S
C246 O265 1.246 . S
C246 O266 1.249 . S
N247 C248 1.307 . S
N247 C249 1.333 . S
N247 Zn253 2.020 . S
C248 N247 1.307 . S
C248 C252 1.370 . S
C248 H259 0.948 . S
C249 N247 1.333 . S
C249 C250 1.379 . S
C249 H257 0.952 . S
C250 C249 1.379 . S
C250 C251 1.390 . S
C250 H270 0.949 . S
C251 C250 1.390 . S
C251 C252 1.357 . S
C252 C248 1.370 . S
C252 C251 1.357 . S
C252 H271 0.950 . S
Zn253 N247 2.020 . S
Zn253 O256 2.025 . S
Zn253 O261 2.024 . S
Zn253 O263 2.039 . S
Zn253 O265 2.034 . S
O254 C238 1.251 . S
O254 Zn245 2.039 . S
C255 O260 1.246 . S
C255 O261 1.249 . S
O256 C238 1.254 . S
O256 Zn253 2.025 . S
H257 C249 0.952 . S
H258 C240 0.952 . S
H259 C248 0.948 . S
O260 Zn245 2.034 . S
O260 C255 1.246 . S
O261 Zn253 2.024 . S
O261 C255 1.249 . S
H262 C244 0.948 . S
O263 Zn253 2.039 . S
O263 C267 1.251 . S
O264 Zn245 2.025 . S
O264 C267 1.254 . S
O265 C246 1.246 . S
O265 Zn253 2.034 . S
O266 Zn245 2.024 . S
O266 C246 1.249 . S
C267 O263 1.251 . S
C267 O264 1.254 . S
H268 C241 0.949 . S
H269 C243 0.950 . S
H270 C250 0.949 . S
H271 C252 0.950 . S
C272 O288 1.251 . S
C272 O290 1.254 . S
N273 C274 1.333 . S
N273 C278 1.307 . S
N273 Zn279 2.020 . S
C274 N273 1.333 . S
C274 C275 1.379 . S
C274 H292 0.952 . S
C275 C274 1.379 . S
C275 C276 1.390 . S
C275 H302 0.949 . S
C276 C275 1.390 . S
C276 C277 1.357 . S
C277 C276 1.357 . S
C277 C278 1.370 . S
C277 H303 0.950 . S
C278 N273 1.307 . S
C278 C277 1.370 . S
C278 H296 0.948 . S
Zn279 N273 2.020 . S
Zn279 O288 2.039 . S
Zn279 O294 2.034 . S
Zn279 O298 2.025 . S
Zn279 O300 2.024 . S
C280 O299 1.246 . S
C280 O300 1.249 . S
N281 C282 1.307 . S
N281 C283 1.333 . S
N281 Zn287 2.020 . S
C282 N281 1.307 . S
C282 C286 1.370 . S
C282 H293 0.948 . S
C283 N281 1.333 . S
C283 C284 1.379 . S
C283 H291 0.952 . S
C284 C283 1.379 . S
C284 C285 1.390 . S
C284 H304 0.949 . S
C285 C284 1.390 . S
C285 C286 1.357 . S
C286 C282 1.370 . S
C286 C285 1.357 . S
C286 H305 0.950 . S
Zn287 N281 2.020 . S
Zn287 O290 2.025 . S
Zn287 O295 2.024 . S
Zn287 O297 2.039 . S
Zn287 O299 2.034 . S
O288 C272 1.251 . S
O288 Zn279 2.039 . S
C289 O294 1.246 . S
C289 O295 1.249 . S
O290 C272 1.254 . S
O290 Zn287 2.025 . S
H291 C283 0.952 . S
H292 C274 0.952 . S
H293 C282 0.948 . S
O294 Zn279 2.034 . S
O294 C289 1.246 . S
O295 Zn287 2.024 . S
O295 C289 1.249 . S
H296 C278 0.948 . S
O297 Zn287 2.039 . S
O297 C301 1.251 . S
O298 Zn279 2.025 . S
O298 C301 1.254 . S
O299 C280 1.246 . S
O299 Zn287 2.034 . S
O300 Zn279 2.024 . S
O300 C280 1.249 . S
C301 O297 1.251 . S
C301 O298 1.254 . S
H302 C275 0.949 . S
H303 C277 0.950 . S
H304 C284 0.949 . S
H305 C286 0.950 . S
C306 O322 1.251 . S
C306 O324 1.254 . S
N307 C308 1.333 . S
N307 C312 1.307 . S
N307 Zn313 2.020 . S
C308 N307 1.333 . S
C308 C309 1.379 . S
C308 H326 0.952 . S
C309 C308 1.379 . S
C309 C310 1.390 . S
C309 H336 0.949 . S
C310 C309 1.390 . S
C310 C311 1.357 . S
C311 C310 1.357 . S
C311 C312 1.370 . S
C311 H337 0.950 . S
C312 N307 1.307 . S
C312 C311 1.370 . S
C312 H330 0.948 . S
Zn313 N307 2.020 . S
Zn313 O322 2.039 . S
Zn313 O328 2.034 . S
Zn313 O332 2.025 . S
Zn313 O334 2.024 . S
C314 O333 1.246 . S
C314 O334 1.249 . S
N315 C316 1.307 . S
N315 C317 1.333 . S
N315 Zn321 2.020 . S
C316 N315 1.307 . S
C316 C320 1.370 . S
C316 H327 0.948 . S
C317 N315 1.333 . S
C317 C318 1.379 . S
C317 H325 0.952 . S
C318 C317 1.379 . S
C318 C319 1.390 . S
C318 H338 0.949 . S
C319 C318 1.390 . S
C319 C320 1.357 . S
C320 C316 1.370 . S
C320 C319 1.357 . S
C320 H339 0.950 . S
Zn321 N315 2.020 . S
Zn321 O324 2.025 . S
Zn321 O329 2.024 . S
Zn321 O331 2.039 . S
Zn321 O333 2.034 . S
O322 C306 1.251 . S
O322 Zn313 2.039 . S
C323 O328 1.246 . S
C323 O329 1.249 . S
O324 C306 1.254 . S
O324 Zn321 2.025 . S
H325 C317 0.952 . S
H326 C308 0.952 . S
H327 C316 0.948 . S
O328 Zn313 2.034 . S
O328 C323 1.246 . S
O329 Zn321 2.024 . S
O329 C323 1.249 . S
H330 C312 0.948 . S
O331 Zn321 2.039 . S
O331 C335 1.251 . S
O332 Zn313 2.025 . S
O332 C335 1.254 . S
O333 C314 1.246 . S
O333 Zn321 2.034 . S
O334 Zn313 2.024 . S
O334 C314 1.249 . S
C335 O331 1.251 . S
C335 O332 1.254 . S
H336 C309 0.949 . S
H337 C311 0.950 . S
H338 C318 0.949 . S
H339 C320 0.950 . S
C340 O356 1.251 . S
C340 O358 1.254 . S
N341 C342 1.333 . S
N341 C346 1.307 . S
N341 Zn347 2.020 . S
C342 N341 1.333 . S
C342 C343 1.379 . S
C342 H360 0.952 . S
C343 C342 1.379 . S
C343 C344 1.390 . S
C343 H370 0.949 . S
C344 C343 1.390 . S
C344 C345 1.357 . S
C345 C344 1.357 . S
C345 C346 1.370 . S
C345 H371 0.950 . S
C346 N341 1.307 . S
C346 C345 1.370 . S
C346 H364 0.948 . S
Zn347 N341 2.020 . S
Zn347 O356 2.039 . S
Zn347 O362 2.034 . S
Zn347 O366 2.025 . S
Zn347 O368 2.024 . S
C348 O367 1.246 . S
C348 O368 1.249 . S
N349 C350 1.307 . S
N349 C351 1.333 . S
N349 Zn355 2.020 . S
C350 N349 1.307 . S
C350 C354 1.370 . S
C350 H361 0.948 . S
C351 N349 1.333 . S
C351 C352 1.379 . S
C351 H359 0.952 . S
C352 C351 1.379 . S
C352 C353 1.390 . S
C352 H372 0.949 . S
C353 C352 1.390 . S
C353 C354 1.357 . S
C354 C350 1.370 . S
C354 C353 1.357 . S
C354 H373 0.950 . S
Zn355 N349 2.020 . S
Zn355 O358 2.025 . S
Zn355 O363 2.024 . S
Zn355 O365 2.039 . S
Zn355 O367 2.034 . S
O356 C340 1.251 . S
O356 Zn347 2.039 . S
C357 O362 1.246 . S
C357 O363 1.249 . S
O358 C340 1.254 . S
O358 Zn355 2.025 . S
H359 C351 0.952 . S
H360 C342 0.952 . S
H361 C350 0.948 . S
O362 Zn347 2.034 . S
O362 C357 1.246 . S
O363 Zn355 2.024 . S
O363 C357 1.249 . S
H364 C346 0.948 . S
O365 Zn355 2.039 . S
O365 C369 1.251 . S
O366 Zn347 2.025 . S
O366 C369 1.254 . S
O367 C348 1.246 . S
O367 Zn355 2.034 . S
O368 Zn347 2.024 . S
O368 C348 1.249 . S
C369 O365 1.251 . S
C369 O366 1.254 . S
H370 C343 0.949 . S
H371 C345 0.950 . S
H372 C352 0.949 . S
H373 C354 0.950 . S
C374 O390 1.251 . S
C374 O392 1.254 . S
N375 C376 1.333 . S
N375 C380 1.307 . S
N375 Zn381 2.020 . S
C376 N375 1.333 . S
C376 C377 1.379 . S
C376 H394 0.952 . S
C377 C376 1.379 . S
C377 C378 1.390 . S
C377 H404 0.949 . S
C378 C377 1.390 . S
C378 C379 1.357 . S
C379 C378 1.357 . S
C379 C380 1.370 . S
C379 H405 0.950 . S
C380 N375 1.307 . S
C380 C379 1.370 . S
C380 H398 0.948 . S
Zn381 N375 2.020 . S
Zn381 O390 2.039 . S
Zn381 O396 2.034 . S
Zn381 O400 2.025 . S
Zn381 O402 2.024 . S
C382 O401 1.246 . S
C382 O402 1.249 . S
N383 C384 1.307 . S
N383 C385 1.333 . S
N383 Zn389 2.020 . S
C384 N383 1.307 . S
C384 C388 1.370 . S
C384 H395 0.948 . S
C385 N383 1.333 . S
C385 C386 1.379 . S
C385 H393 0.952 . S
C386 C385 1.379 . S
C386 C387 1.390 . S
C386 H406 0.949 . S
C387 C386 1.390 . S
C387 C388 1.357 . S
C388 C384 1.370 . S
C388 C387 1.357 . S
C388 H407 0.950 . S
Zn389 N383 2.020 . S
Zn389 O392 2.025 . S
Zn389 O397 2.024 . S
Zn389 O399 2.039 . S
Zn389 O401 2.034 . S
O390 C374 1.251 . S
O390 Zn381 2.039 . S
C391 O396 1.246 . S
C391 O397 1.249 . S
O392 C374 1.254 . S
O392 Zn389 2.025 . S
H393 C385 0.952 . S
H394 C376 0.952 . S
H395 C384 0.948 . S
O396 Zn381 2.034 . S
O396 C391 1.246 . S
O397 Zn389 2.024 . S
O397 C391 1.249 . S
H398 C380 0.948 . S
O399 Zn389 2.039 . S
O399 C403 1.251 . S
O400 Zn381 2.025 . S
O400 C403 1.254 . S
O401 C382 1.246 . S
O401 Zn389 2.034 . S
O402 Zn381 2.024 . S
O402 C382 1.249 . S
C403 O399 1.251 . S
C403 O400 1.254 . S
H404 C377 0.949 . S
H405 C379 0.950 . S
H406 C386 0.949 . S
H407 C388 0.950 . S
C408 O424 1.251 . S
C408 O426 1.254 . S
N409 C410 1.333 . S
N409 C414 1.307 . S
N409 Zn415 2.020 . S
C410 N409 1.333 . S
C410 C411 1.379 . S
C410 H428 0.952 . S
C411 C410 1.379 . S
C411 C412 1.390 . S
C411 H438 0.949 . S
C412 C411 1.390 . S
C412 C413 1.357 . S
C413 C412 1.357 . S
C413 C414 1.370 . S
C413 H439 0.950 . S
C414 N409 1.307 . S
C414 C413 1.370 . S
C414 H432 0.948 . S
Zn415 N409 2.020 . S
Zn415 O424 2.039 . S
Zn415 O430 2.034 . S
Zn415 O434 2.025 . S
Zn415 O436 2.024 . S
C416 O435 1.246 . S
C416 O436 1.249 . S
N417 C418 1.307 . S
N417 C419 1.333 . S
N417 Zn423 2.020 . S
C418 N417 1.307 . S
C418 C422 1.370 . S
C418 H429 0.948 . S
C419 N417 1.333 . S
C419 C420 1.379 . S
C419 H427 0.952 . S
C420 C419 1.379 . S
C420 C421 1.390 . S
C420 H440 0.949 . S
C421 C420 1.390 . S
C421 C422 1.357 . S
C422 C418 1.370 . S
C422 C421 1.357 . S
C422 H441 0.950 . S
Zn423 N417 2.020 . S
Zn423 O426 2.025 . S
Zn423 O431 2.024 . S
Zn423 O433 2.039 . S
Zn423 O435 2.034 . S
O424 C408 1.251 . S
O424 Zn415 2.039 . S
C425 O430 1.246 . S
C425 O431 1.249 . S
O426 C408 1.254 . S
O426 Zn423 2.025 . S
H427 C419 0.952 . S
H428 C410 0.952 . S
H429 C418 0.948 . S
O430 Zn415 2.034 . S
O430 C425 1.246 . S
O431 Zn423 2.024 . S
O431 C425 1.249 . S
H432 C414 0.948 . S
O433 Zn423 2.039 . S
O433 C437 1.251 . S
O434 Zn415 2.025 . S
O434 C437 1.254 . S
O435 C416 1.246 . S
O435 Zn423 2.034 . S
O436 Zn415 2.024 . S
O436 C416 1.249 . S
C437 O433 1.251 . S
C437 O434 1.254 . S
H438 C411 0.949 . S
H439 C413 0.950 . S
H440 C420 0.949 . S
H441 C422 0.950 . S
C442 O458 1.251 . S
C442 O460 1.254 . S
N443 C444 1.333 . S
N443 C448 1.307 . S
N443 Zn449 2.020 . S
C444 N443 1.333 . S
C444 C445 1.379 . S
C444 H462 0.952 . S
C445 C444 1.379 . S
C445 C446 1.390 . S
C445 H472 0.949 . S
C446 C445 1.390 . S
C446 C447 1.357 . S
C447 C446 1.357 . S
C447 C448 1.370 . S
C447 H473 0.950 . S
C448 N443 1.307 . S
C448 C447 1.370 . S
C448 H466 0.948 . S
Zn449 N443 2.020 . S
Zn449 O458 2.039 . S
Zn449 O464 2.034 . S
Zn449 O468 2.025 . S
Zn449 O470 2.024 . S
C450 O469 1.246 . S
C450 O470 1.249 . S
N451 C452 1.307 . S
N451 C453 1.333 . S
N451 Zn457 2.020 . S
C452 N451 1.307 . S
C452 C456 1.370 . S
C452 H463 0.948 . S
C453 N451 1.333 . S
C453 C454 1.379 . S
C453 H461 0.952 . S
C454 C453 1.379 . S
C454 C455 1.390 . S
C454 H474 0.949 . S
C455 C454 1.390 . S
C455 C456 1.357 . S
C456 C452 1.370 . S
C456 C455 1.357 . S
C456 H475 0.950 . S
Zn457 N451 2.020 . S
Zn457 O460 2.025 . S
Zn457 O465 2.024 . S
Zn457 O467 2.039 . S
Zn457 O469 2.034 . S
O458 C442 1.251 . S
O458 Zn449 2.039 . S
C459 O464 1.246 . S
C459 O465 1.249 . S
O460 C442 1.254 . S
O460 Zn457 2.025 . S
H461 C453 0.952 . S
H462 C444 0.952 . S
H463 C452 0.948 . S
O464 Zn449 2.034 . S
O464 C459 1.246 . S
O465 Zn457 2.024 . S
O465 C459 1.249 . S
H466 C448 0.948 . S
O467 Zn457 2.039 . S
O467 C471 1.251 . S
O468 Zn449 2.025 . S
O468 C471 1.254 . S
O469 C450 1.246 . S
O469 Zn457 2.034 . S
O470 Zn449 2.024 . S
O470 C450 1.249 . S
C471 O467 1.251 . S
C471 O468 1.254 . S
H472 C445 0.949 . S
H473 C447 0.950 . S
H474 C454 0.949 . S
H475 C456 0.950 . S
C476 O492 1.251 . S
C476 O494 1.254 . S
N477 C478 1.333 . S
N477 C482 1.307 . S
N477 Zn483 2.020 . S
C478 N477 1.333 . S
C478 C479 1.379 . S
C478 H496 0.952 . S
C479 C478 1.379 . S
C479 C480 1.390 . S
C479 H506 0.949 . S
C480 C479 1.390 . S
C480 C481 1.357 . S
C481 C480 1.357 . S
C481 C482 1.370 . S
C481 H507 0.950 . S
C482 N477 1.307 . S
C482 C481 1.370 . S
C482 H500 0.948 . S
Zn483 N477 2.020 . S
Zn483 O492 2.039 . S
Zn483 O498 2.034 . S
Zn483 O502 2.025 . S
Zn483 O504 2.024 . S
C484 O503 1.246 . S
C484 O504 1.249 . S
N485 C486 1.307 . S
N485 C487 1.333 . S
N485 Zn491 2.020 . S
C486 N485 1.307 . S
C486 C490 1.370 . S
C486 H497 0.948 . S
C487 N485 1.333 . S
C487 C488 1.379 . S
C487 H495 0.952 . S
C488 C487 1.379 . S
C488 C489 1.390 . S
C488 H508 0.949 . S
C489 C488 1.390 . S
C489 C490 1.357 . S
C490 C486 1.370 . S
C490 C489 1.357 . S
C490 H509 0.950 . S
Zn491 N485 2.020 . S
Zn491 O494 2.025 . S
Zn491 O499 2.024 . S
Zn491 O501 2.039 . S
Zn491 O503 2.034 . S
O492 C476 1.251 . S
O492 Zn483 2.039 . S
C493 O498 1.246 . S
C493 O499 1.249 . S
O494 C476 1.254 . S
O494 Zn491 2.025 . S
H495 C487 0.952 . S
H496 C478 0.952 . S
H497 C486 0.948 . S
O498 Zn483 2.034 . S
O498 C493 1.246 . S
O499 Zn491 2.024 . S
O499 C493 1.249 . S
H500 C482 0.948 . S
O501 Zn491 2.039 . S
O501 C505 1.251 . S
O502 Zn483 2.025 . S
O502 C505 1.254 . S
O503 C484 1.246 . S
O503 Zn491 2.034 . S
O504 Zn483 2.024 . S
O504 C484 1.249 . S
C505 O501 1.251 . S
C505 O502 1.254 . S
H506 C479 0.949 . S
H507 C481 0.950 . S
H508 C488 0.949 . S
H509 C490 0.950 . S
C510 O526 1.251 . S
C510 O528 1.254 . S
N511 C512 1.333 . S
N511 C516 1.307 . S
N511 Zn517 2.020 . S
C512 N511 1.333 . S
C512 C513 1.379 . S
C512 H530 0.952 . S
C513 C512 1.379 . S
C513 C514 1.390 . S
C513 H540 0.949 . S
C514 C513 1.390 . S
C514 C515 1.357 . S
C515 C514 1.357 . S
C515 C516 1.370 . S
C515 H541 0.950 . S
C516 N511 1.307 . S
C516 C515 1.370 . S
C516 H534 0.948 . S
Zn517 N511 2.020 . S
Zn517 O526 2.039 . S
Zn517 O532 2.034 . S
Zn517 O536 2.025 . S
Zn517 O538 2.024 . S
C518 O537 1.246 . S
C518 O538 1.249 . S
N519 C520 1.307 . S
N519 C521 1.333 . S
N519 Zn525 2.020 . S
C520 N519 1.307 . S
C520 C524 1.370 . S
C520 H531 0.948 . S
C521 N519 1.333 . S
C521 C522 1.379 . S
C521 H529 0.952 . S
C522 C521 1.379 . S
C522 C523 1.390 . S
C522 H542 0.949 . S
C523 C522 1.390 . S
C523 C524 1.357 . S
C524 C520 1.370 . S
C524 C523 1.357 . S
C524 H543 0.950 . S
Zn525 N519 2.020 . S
Zn525 O528 2.025 . S
Zn525 O533 2.024 . S
Zn525 O535 2.039 . S
Zn525 O537 2.034 . S
O526 C510 1.251 . S
O526 Zn517 2.039 . S
C527 O532 1.246 . S
C527 O533 1.249 . S
O528 C510 1.254 . S
O528 Zn525 2.025 . S
H529 C521 0.952 . S
H530 C512 0.952 . S
H531 C520 0.948 . S
O532 Zn517 2.034 . S
O532 C527 1.246 . S
O533 Zn525 2.024 . S
O533 C527 1.249 . S
H534 C516 0.948 . S
O535 Zn525 2.039 . S
O535 C539 1.251 . S
O536 Zn517 2.025 . S
O536 C539 1.254 . S
O537 C518 1.246 . S
O537 Zn525 2.034 . S
O538 Zn517 2.024 . S
O538 C518 1.249 . S
C539 O535 1.251 . S
C539 O536 1.254 . S
H540 C513 0.949 . S
H541 C515 0.950 . S
H542 C522 0.949 . S
H543 C524 0.950 . S
C544 O560 1.251 . S
C544 O562 1.254 . S
N545 C546 1.333 . S
N545 C550 1.307 . S
N545 Zn551 2.020 . S
C546 N545 1.333 . S
C546 C547 1.379 . S
C546 H564 0.952 . S
C547 C546 1.379 . S
C547 C548 1.390 . S
C547 H574 0.949 . S
C548 C547 1.390 . S
C548 C549 1.357 . S
C549 C548 1.357 . S
C549 C550 1.370 . S
C549 H575 0.950 . S
C550 N545 1.307 . S
C550 C549 1.370 . S
C550 H568 0.948 . S
Zn551 N545 2.020 . S
Zn551 O560 2.039 . S
Zn551 O566 2.034 . S
Zn551 O570 2.025 . S
Zn551 O572 2.024 . S
C552 O571 1.246 . S
C552 O572 1.249 . S
N553 C554 1.307 . S
N553 C555 1.333 . S
N553 Zn559 2.020 . S
C554 N553 1.307 . S
C554 C558 1.370 . S
C554 H565 0.948 . S
C555 N553 1.333 . S
C555 C556 1.379 . S
C555 H563 0.952 . S
C556 C555 1.379 . S
C556 C557 1.390 . S
C556 H576 0.949 . S
C557 C556 1.390 . S
C557 C558 1.357 . S
C558 C554 1.370 . S
C558 C557 1.357 . S
C558 H577 0.950 . S
Zn559 N553 2.020 . S
Zn559 O562 2.025 . S
Zn559 O567 2.024 . S
Zn559 O569 2.039 . S
Zn559 O571 2.034 . S
O560 C544 1.251 . S
O560 Zn551 2.039 . S
C561 O566 1.246 . S
C561 O567 1.249 . S
O562 C544 1.254 . S
O562 Zn559 2.025 . S
H563 C555 0.952 . S
H564 C546 0.952 . S
H565 C554 0.948 . S
O566 Zn551 2.034 . S
O566 C561 1.246 . S
O567 Zn559 2.024 . S
O567 C561 1.249 . S
H568 C550 0.948 . S
O569 Zn559 2.039 . S
O569 C573 1.251 . S
O570 Zn551 2.025 . S
O570 C573 1.254 . S
O571 C552 1.246 . S
O571 Zn559 2.034 . S
O572 Zn551 2.024 . S
O572 C552 1.249 . S
C573 O569 1.251 . S
C573 O570 1.254 . S
H574 C547 0.949 . S
H575 C549 0.950 . S
H576 C556 0.949 . S
H577 C558 0.950 . S
C578 O594 1.251 . S
C578 O596 1.254 . S
N579 C580 1.333 . S
N579 C584 1.307 . S
N579 Zn585 2.020 . S
C580 N579 1.333 . S
C580 C581 1.379 . S
C580 H598 0.952 . S
C581 C580 1.379 . S
C581 C582 1.390 . S
C581 H608 0.949 . S
C582 C581 1.390 . S
C582 C583 1.357 . S
C583 C582 1.357 . S
C583 C584 1.370 . S
C583 H609 0.950 . S
C584 N579 1.307 . S
C584 C583 1.370 . S
C584 H602 0.948 . S
Zn585 N579 2.020 . S
Zn585 O594 2.039 . S
Zn585 O600 2.034 . S
Zn585 O604 2.025 . S
Zn585 O606 2.024 . S
C586 O605 1.246 . S
C586 O606 1.249 . S
N587 C588 1.307 . S
N587 C589 1.333 . S
N587 Zn593 2.020 . S
C588 N587 1.307 . S
C588 C592 1.370 . S
C588 H599 0.948 . S
C589 N587 1.333 . S
C589 C590 1.379 . S
C589 H597 0.952 . S
C590 C589 1.379 . S
C590 C591 1.390 . S
C590 H610 0.949 . S
C591 C590 1.390 . S
C591 C592 1.357 . S
C592 C588 1.370 . S
C592 C591 1.357 . S
C592 H611 0.950 . S
Zn593 N587 2.020 . S
Zn593 O596 2.025 . S
Zn593 O601 2.024 . S
Zn593 O603 2.039 . S
Zn593 O605 2.034 . S
O594 C578 1.251 . S
O594 Zn585 2.039 . S
C595 O600 1.246 . S
C595 O601 1.249 . S
O596 C578 1.254 . S
O596 Zn593 2.025 . S
H597 C589 0.952 . S
H598 C580 0.952 . S
H599 C588 0.948 . S
O600 Zn585 2.034 . S
O600 C595 1.246 . S
O601 Zn593 2.024 . S
O601 C595 1.249 . S
H602 C584 0.948 . S
O603 Zn593 2.039 . S
O603 C607 1.251 . S
O604 Zn585 2.025 . S
O604 C607 1.254 . S
O605 C586 1.246 . S
O605 Zn593 2.034 . S
O606 Zn585 2.024 . S
O606 C586 1.249 . S
C607 O603 1.251 . S
C607 O604 1.254 . S
H608 C581 0.949 . S
H609 C583 0.950 . S
H610 C590 0.949 . S
H611 C592 0.950 . S
C612 O628 1.251 . S
C612 O630 1.254 . S
N613 C614 1.333 . S
N613 C618 1.307 . S
N613 Zn619 2.020 . S
C614 N613 1.333 . S
C614 C615 1.379 . S
C614 H632 0.952 . S
C615 C614 1.379 . S
C615 C616 1.390 . S
C615 H642 0.949 . S
C616 C615 1.390 . S
C616 C617 1.357 . S
C617 C616 1.357 . S
C617 C618 1.370 . S
C617 H643 0.950 . S
C618 N613 1.307 . S
C618 C617 1.370 . S
C618 H636 0.948 . S
Zn619 N613 2.020 . S
Zn619 O628 2.039 . S
Zn619 O634 2.034 . S
Zn619 O638 2.025 . S
Zn619 O640 2.024 . S
C620 O639 1.246 . S
C620 O640 1.249 . S
N621 C622 1.307 . S
N621 C623 1.333 . S
N621 Zn627 2.020 . S
C622 N621 1.307 . S
C622 C626 1.370 . S
C622 H633 0.948 . S
C623 N621 1.333 . S
C623 C624 1.379 . S
C623 H631 0.952 . S
C624 C623 1.379 . S
C624 C625 1.390 . S
C624 H644 0.949 . S
C625 C624 1.390 . S
C625 C626 1.357 . S
C626 C622 1.370 . S
C626 C625 1.357 . S
C626 H645 0.950 . S
Zn627 N621 2.020 . S
Zn627 O630 2.025 . S
Zn627 O635 2.024 . S
Zn627 O637 2.039 . S
Zn627 O639 2.034 . S
O628 C612 1.251 . S
O628 Zn619 2.039 . S
C629 O634 1.246 . S
C629 O635 1.249 . S
O630 C612 1.254 . S
O630 Zn627 2.025 . S
H631 C623 0.952 . S
H632 C614 0.952 . S
H633 C622 0.948 . S
O634 Zn619 2.034 . S
O634 C629 1.246 . S
O635 Zn627 2.024 . S
O635 C629 1.249 . S
H636 C618 0.948 . S
O637 Zn627 2.039 . S
O637 C641 1.251 . S
O638 Zn619 2.025 . S
O638 C641 1.254 . S
O639 C620 1.246 . S
O639 Zn627 2.034 . S
O640 Zn619 2.024 . S
O640 C620 1.249 . S
C641 O637 1.251 . S
C641 O638 1.254 . S
H642 C615 0.949 . S
H643 C617 0.950 . S
H644 C624 0.949 . S
H645 C626 0.950 . S
C646 O662 1.251 . S
C646 O664 1.254 . S
N647 C648 1.333 . S
N647 C652 1.307 . S
N647 Zn653 2.020 . S
C648 N647 1.333 . S
C648 C649 1.379 . S
C648 H666 0.952 . S
C649 C648 1.379 . S
C649 C650 1.390 . S
C649 H676 0.949 . S
C650 C649 1.390 . S
C650 C651 1.357 . S
C651 C650 1.357 . S
C651 C652 1.370 . S
C651 H677 0.950 . S
C652 N647 1.307 . S
C652 C651 1.370 . S
C652 H670 0.948 . S
Zn653 N647 2.020 . S
Zn653 O662 2.039 . S
Zn653 O668 2.034 . S
Zn653 O672 2.025 . S
Zn653 O674 2.024 . S
C654 O673 1.246 . S
C654 O674 1.249 . S
N655 C656 1.307 . S
N655 C657 1.333 . S
N655 Zn661 2.020 . S
C656 N655 1.307 . S
C656 C660 1.370 . S
C656 H667 0.948 . S
C657 N655 1.333 . S
C657 C658 1.379 . S
C657 H665 0.952 . S
C658 C657 1.379 . S
C658 C659 1.390 . S
C658 H678 0.949 . S
C659 C658 1.390 . S
C659 C660 1.357 . S
C660 C656 1.370 . S
C660 C659 1.357 . S
C660 H679 0.950 . S
Zn661 N655 2.020 . S
Zn661 O664 2.025 . S
Zn661 O669 2.024 . S
Zn661 O671 2.039 . S
Zn661 O673 2.034 . S
O662 C646 1.251 . S
O662 Zn653 2.039 . S
C663 O668 1.246 . S
C663 O669 1.249 . S
O664 C646 1.254 . S
O664 Zn661 2.025 . S
H665 C657 0.952 . S
H666 C648 0.952 . S
H667 C656 0.948 . S
O668 Zn653 2.034 . S
O668 C663 1.246 . S
O669 Zn661 2.024 . S
O669 C663 1.249 . S
H670 C652 0.948 . S
O671 Zn661 2.039 . S
O671 C675 1.251 . S
O672 Zn653 2.025 . S
O672 C675 1.254 . S
O673 C654 1.246 . S
O673 Zn661 2.034 . S
O674 Zn653 2.024 . S
O674 C654 1.249 . S
C675 O671 1.251 . S
C675 O672 1.254 . S
H676 C649 0.949 . S
H677 C651 0.950 . S
H678 C658 0.949 . S
H679 C660 0.950 . S
C680 O696 1.251 . S
C680 O698 1.254 . S
N681 C682 1.333 . S
N681 C686 1.307 . S
N681 Zn687 2.020 . S
C682 N681 1.333 . S
C682 C683 1.379 . S
C682 H700 0.952 . S
C683 C682 1.379 . S
C683 C684 1.390 . S
C683 H710 0.949 . S
C684 C683 1.390 . S
C684 C685 1.357 . S
C685 C684 1.357 . S
C685 C686 1.370 . S
C685 H711 0.950 . S
C686 N681 1.307 . S
C686 C685 1.370 . S
C686 H704 0.948 . S
Zn687 N681 2.020 . S
Zn687 O696 2.039 . S
Zn687 O702 2.034 . S
Zn687 O706 2.025 . S
Zn687 O708 2.024 . S
C688 O707 1.246 . S
C688 O708 1.249 . S
N689 C690 1.307 . S
N689 C691 1.333 . S
N689 Zn695 2.020 . S
C690 N689 1.307 . S
C690 C694 1.370 . S
C690 H701 0.948 . S
C691 N689 1.333 . S
C691 C692 1.379 . S
C691 H699 0.952 . S
C692 C691 1.379 . S
C692 C693 1.390 . S
C692 H712 0.949 . S
C693 C692 1.390 . S
C693 C694 1.357 . S
C694 C690 1.370 . S
C694 C693 1.357 . S
C694 H713 0.950 . S
Zn695 N689 2.020 . S
Zn695 O698 2.025 . S
Zn695 O703 2.024 . S
Zn695 O705 2.039 . S
Zn695 O707 2.034 . S
O696 C680 1.251 . S
O696 Zn687 2.039 . S
C697 O702 1.246 . S
C697 O703 1.249 . S
O698 C680 1.254 . S
O698 Zn695 2.025 . S
H699 C691 0.952 . S
H700 C682 0.952 . S
H701 C690 0.948 . S
O702 Zn687 2.034 . S
O702 C697 1.246 . S
O703 Zn695 2.024 . S
O703 C697 1.249 . S
H704 C686 0.948 . S
O705 Zn695 2.039 . S
O705 C709 1.251 . S
O706 Zn687 2.025 . S
O706 C709 1.254 . S
O707 C688 1.246 . S
O707 Zn695 2.034 . S
O708 Zn687 2.024 . S
O708 C688 1.249 . S
C709 O705 1.251 . S
C709 O706 1.254 . S
H710 C683 0.949 . S
H711 C685 0.950 . S
H712 C692 0.949 . S
H713 C694 0.950 . S
C714 O730 1.251 . S
C714 O732 1.254 . S
N715 C716 1.333 . S
N715 C720 1.307 . S
N715 Zn721 2.020 . S
C716 N715 1.333 . S
C716 C717 1.379 . S
C716 H734 0.952 . S
C717 C716 1.379 . S
C717 C718 1.390 . S
C717 H744 0.949 . S
C718 C717 1.390 . S
C718 C719 1.357 . S
C719 C718 1.357 . S
C719 C720 1.370 . S
C719 H745 0.950 . S
C720 N715 1.307 . S
C720 C719 1.370 . S
C720 H738 0.948 . S
Zn721 N715 2.020 . S
Zn721 O730 2.039 . S
Zn721 O736 2.034 . S
Zn721 O740 2.025 . S
Zn721 O742 2.024 . S
C722 O741 1.246 . S
C722 O742 1.249 . S
N723 C724 1.307 . S
N723 C725 1.333 . S
N723 Zn729 2.020 . S
C724 N723 1.307 . S
C724 C728 1.370 . S
C724 H735 0.948 . S
C725 N723 1.333 . S
C725 C726 1.379 . S
C725 H733 0.952 . S
C726 C725 1.379 . S
C726 C727 1.390 . S
C726 H746 0.949 . S
C727 C726 1.390 . S
C727 C728 1.357 . S
C728 C724 1.370 . S
C728 C727 1.357 . S
C728 H747 0.950 . S
Zn729 N723 2.020 . S
Zn729 O732 2.025 . S
Zn729 O737 2.024 . S
Zn729 O739 2.039 . S
Zn729 O741 2.034 . S
O730 C714 1.251 . S
O730 Zn721 2.039 . S
C731 O736 1.246 . S
C731 O737 1.249 . S
O732 C714 1.254 . S
O732 Zn729 2.025 . S
H733 C725 0.952 . S
H734 C716 0.952 . S
H735 C724 0.948 . S
O736 Zn721 2.034 . S
O736 C731 1.246 . S
O737 Zn729 2.024 . S
O737 C731 1.249 . S
H738 C720 0.948 . S
O739 Zn729 2.039 . S
O739 C743 1.251 . S
O740 Zn721 2.025 . S
O740 C743 1.254 . S
O741 C722 1.246 . S
O741 Zn729 2.034 . S
O742 Zn721 2.024 . S
O742 C722 1.249 . S
C743 O739 1.251 . S
C743 O740 1.254 . S
H744 C717 0.949 . S
H745 C719 0.950 . S
H746 C726 0.949 . S
H747 C728 0.950 . S
C748 O764 1.251 . S
C748 O766 1.254 . S
N749 C750 1.333 . S
N749 C754 1.307 . S
N749 Zn755 2.020 . S
C750 N749 1.333 . S
C750 C751 1.379 . S
C750 H768 0.952 . S
C751 C750 1.379 . S
C751 C752 1.390 . S
C751 H778 0.949 . S
C752 C751 1.390 . S
C752 C753 1.357 . S
C753 C752 1.357 . S
C753 C754 1.370 . S
C753 H779 0.950 . S
C754 N749 1.307 . S
C754 C753 1.370 . S
C754 H772 0.948 . S
Zn755 N749 2.020 . S
Zn755 O764 2.039 . S
Zn755 O770 2.034 . S
Zn755 O774 2.025 . S
Zn755 O776 2.024 . S
C756 O775 1.246 . S
C756 O776 1.249 . S
N757 C758 1.307 . S
N757 C759 1.333 . S
N757 Zn763 2.020 . S
C758 N757 1.307 . S
C758 C762 1.370 . S
C758 H769 0.948 . S
C759 N757 1.333 . S
C759 C760 1.379 . S
C759 H767 0.952 . S
C760 C759 1.379 . S
C760 C761 1.390 . S
C760 H780 0.949 . S
C761 C760 1.390 . S
C761 C762 1.357 . S
C762 C758 1.370 . S
C762 C761 1.357 . S
C762 H781 0.950 . S
Zn763 N757 2.020 . S
Zn763 O766 2.025 . S
Zn763 O771 2.024 . S
Zn763 O773 2.039 . S
Zn763 O775 2.034 . S
O764 C748 1.251 . S
O764 Zn755 2.039 . S
C765 O770 1.246 . S
C765 O771 1.249 . S
O766 C748 1.254 . S
O766 Zn763 2.025 . S
H767 C759 0.952 . S
H768 C750 0.952 . S
H769 C758 0.948 . S
O770 Zn755 2.034 . S
O770 C765 1.246 . S
O771 Zn763 2.024 . S
O771 C765 1.249 . S
H772 C754 0.948 . S
O773 Zn763 2.039 . S
O773 C777 1.251 . S
O774 Zn755 2.025 . S
O774 C777 1.254 . S
O775 C756 1.246 . S
O775 Zn763 2.034 . S
O776 Zn755 2.024 . S
O776 C756 1.249 . S
C777 O773 1.251 . S
C777 O774 1.254 . S
H778 C751 0.949 . S
H779 C753 0.950 . S
H780 C760 0.949 . S
H781 C762 0.950 . S
C782 O798 1.251 . S
C782 O800 1.254 . S
N783 C784 1.333 . S
N783 C788 1.307 . S
N783 Zn789 2.020 . S
C784 N783 1.333 . S
C784 C785 1.379 . S
C784 H802 0.952 . S
C785 C784 1.379 . S
C785 C786 1.390 . S
C785 H812 0.949 . S
C786 C785 1.390 . S
C786 C787 1.357 . S
C787 C786 1.357 . S
C787 C788 1.370 . S
C787 H813 0.950 . S
C788 N783 1.307 . S
C788 C787 1.370 . S
C788 H806 0.948 . S
Zn789 N783 2.020 . S
Zn789 O798 2.039 . S
Zn789 O804 2.034 . S
Zn789 O808 2.025 . S
Zn789 O810 2.024 . S
C790 O809 1.246 . S
C790 O810 1.249 . S
N791 C792 1.307 . S
N791 C793 1.333 . S
N791 Zn797 2.020 . S
C792 N791 1.307 . S
C792 C796 1.370 . S
C792 H803 0.948 . S
C793 N791 1.333 . S
C793 C794 1.379 . S
C793 H801 0.952 . S
C794 C793 1.379 . S
C794 C795 1.390 . S
C794 H814 0.949 . S
C795 C794 1.390 . S
C795 C796 1.357 . S
C796 C792 1.370 . S
C796 C795 1.357 . S
C796 H815 0.950 . S
Zn797 N791 2.020 . S
Zn797 O800 2.025 . S
Zn797 O805 2.024 . S
Zn797 O807 2.039 . S
Zn797 O809 2.034 . S
O798 C782 1.251 . S
O798 Zn789 2.039 . S
C799 O804 1.246 . S
C799 O805 1.249 . S
O800 C782 1.254 . S
O800 Zn797 2.025 . S
H801 C793 0.952 . S
H802 C784 0.952 . S
H803 C792 0.948 . S
O804 Zn789 2.034 . S
O804 C799 1.246 . S
O805 Zn797 2.024 . S
O805 C799 1.249 . S
H806 C788 0.948 . S
O807 Zn797 2.039 . S
O807 C811 1.251 . S
O808 Zn789 2.025 . S
O808 C811 1.254 . S
O809 C790 1.246 . S
O809 Zn797 2.034 . S
O810 Zn789 2.024 . S
O810 C790 1.249 . S
C811 O807 1.251 . S
C811 O808 1.254 . S
H812 C785 0.949 . S
H813 C787 0.950 . S
H814 C794 0.949 . S
H815 C796 0.950 . S
C816 O832 1.251 . S
C816 O834 1.254 . S
N817 C818 1.333 . S
N817 C822 1.307 . S
N817 Zn823 2.020 . S
C818 N817 1.333 . S
C818 C819 1.379 . S
C818 H836 0.952 . S
C819 C818 1.379 . S
C819 C820 1.390 . S
C819 H846 0.949 . S
C820 C819 1.390 . S
C820 C821 1.357 . S
C821 C820 1.357 . S
C821 C822 1.370 . S
C821 H847 0.950 . S
C822 N817 1.307 . S
C822 C821 1.370 . S
C822 H840 0.948 . S
Zn823 N817 2.020 . S
Zn823 O832 2.039 . S
Zn823 O838 2.034 . S
Zn823 O842 2.025 . S
Zn823 O844 2.024 . S
C824 O843 1.246 . S
C824 O844 1.249 . S
N825 C826 1.307 . S
N825 C827 1.333 . S
N825 Zn831 2.020 . S
C826 N825 1.307 . S
C826 C830 1.370 . S
C826 H837 0.948 . S
C827 N825 1.333 . S
C827 C828 1.379 . S
C827 H835 0.952 . S
C828 C827 1.379 . S
C828 C829 1.390 . S
C828 H848 0.949 . S
C829 C828 1.390 . S
C829 C830 1.357 . S
C830 C826 1.370 . S
C830 C829 1.357 . S
C830 H849 0.950 . S
Zn831 N825 2.020 . S
Zn831 O834 2.025 . S
Zn831 O839 2.024 . S
Zn831 O841 2.039 . S
Zn831 O843 2.034 . S
O832 C816 1.251 . S
O832 Zn823 2.039 . S
C833 O838 1.246 . S
C833 O839 1.249 . S
O834 C816 1.254 . S
O834 Zn831 2.025 . S
H835 C827 0.952 . S
H836 C818 0.952 . S
H837 C826 0.948 . S
O838 Zn823 2.034 . S
O838 C833 1.246 . S
O839 Zn831 2.024 . S
O839 C833 1.249 . S
H840 C822 0.948 . S
O841 Zn831 2.039 . S
O841 C845 1.251 . S
O842 Zn823 2.025 . S
O842 C845 1.254 . S
O843 C824 1.246 . S
O843 Zn831 2.034 . S
O844 Zn823 2.024 . S
O844 C824 1.249 . S
C845 O841 1.251 . S
C845 O842 1.254 . S
H846 C819 0.949 . S
H847 C821 0.950 . S
H848 C828 0.949 . S
H849 C830 0.950 . S
C850 O866 1.251 . S
C850 O868 1.254 . S
N851 C852 1.333 . S
N851 C856 1.307 . S
N851 Zn857 2.020 . S
C852 N851 1.333 . S
C852 C853 1.379 . S
C852 H870 0.952 . S
C853 C852 1.379 . S
C853 C854 1.390 . S
C853 H880 0.949 . S
C854 C853 1.390 . S
C854 C855 1.357 . S
C855 C854 1.357 . S
C855 C856 1.370 . S
C855 H881 0.950 . S
C856 N851 1.307 . S
C856 C855 1.370 . S
C856 H874 0.948 . S
Zn857 N851 2.020 . S
Zn857 O866 2.039 . S
Zn857 O872 2.034 . S
Zn857 O876 2.025 . S
Zn857 O878 2.024 . S
C858 O877 1.246 . S
C858 O878 1.249 . S
N859 C860 1.307 . S
N859 C861 1.333 . S
N859 Zn865 2.020 . S
C860 N859 1.307 . S
C860 C864 1.370 . S
C860 H871 0.948 . S
C861 N859 1.333 . S
C861 C862 1.379 . S
C861 H869 0.952 . S
C862 C861 1.379 . S
C862 C863 1.390 . S
C862 H882 0.949 . S
C863 C862 1.390 . S
C863 C864 1.357 . S
C864 C860 1.370 . S
C864 C863 1.357 . S
C864 H883 0.950 . S
Zn865 N859 2.020 . S
Zn865 O868 2.025 . S
Zn865 O873 2.024 . S
Zn865 O875 2.039 . S
Zn865 O877 2.034 . S
O866 C850 1.251 . S
O866 Zn857 2.039 . S
C867 O872 1.246 . S
C867 O873 1.249 . S
O868 C850 1.254 . S
O868 Zn865 2.025 . S
H869 C861 0.952 . S
H870 C852 0.952 . S
H871 C860 0.948 . S
O872 Zn857 2.034 . S
O872 C867 1.246 . S
O873 Zn865 2.024 . S
O873 C867 1.249 . S
H874 C856 0.948 . S
O875 Zn865 2.039 . S
O875 C879 1.251 . S
O876 Zn857 2.025 . S
O876 C879 1.254 . S
O877 C858 1.246 . S
O877 Zn865 2.034 . S
O878 Zn857 2.024 . S
O878 C858 1.249 . S
C879 O875 1.251 . S
C879 O876 1.254 . S
H880 C853 0.949 . S
H881 C855 0.950 . S
H882 C862 0.949 . S
H883 C864 0.950 . S
C884 O900 1.251 . S
C884 O902 1.254 . S
N885 C886 1.333 . S
N885 C890 1.307 . S
N885 Zn891 2.020 . S
C886 N885 1.333 . S
C886 C887 1.379 . S
C886 H904 0.952 . S
C887 C886 1.379 . S
C887 C888 1.390 . S
C887 H914 0.949 . S
C888 C887 1.390 . S
C888 C889 1.357 . S
C889 C888 1.357 . S
C889 C890 1.370 . S
C889 H915 0.950 . S
C890 N885 1.307 . S
C890 C889 1.370 . S
C890 H908 0.948 . S
Zn891 N885 2.020 . S
Zn891 O900 2.039 . S
Zn891 O906 2.034 . S
Zn891 O910 2.025 . S
Zn891 O912 2.024 . S
C892 O911 1.246 . S
C892 O912 1.249 . S
N893 C894 1.307 . S
N893 C895 1.333 . S
N893 Zn899 2.020 . S
C894 N893 1.307 . S
C894 C898 1.370 . S
C894 H905 0.948 . S
C895 N893 1.333 . S
C895 C896 1.379 . S
C895 H903 0.952 . S
C896 C895 1.379 . S
C896 C897 1.390 . S
C896 H916 0.949 . S
C897 C896 1.390 . S
C897 C898 1.357 . S
C898 C894 1.370 . S
C898 C897 1.357 . S
C898 H917 0.950 . S
Zn899 N893 2.020 . S
Zn899 O902 2.025 . S
Zn899 O907 2.024 . S
Zn899 O909 2.039 . S
Zn899 O911 2.034 . S
O900 C884 1.251 . S
O900 Zn891 2.039 . S
C901 O906 1.246 . S
C901 O907 1.249 . S
O902 C884 1.254 . S
O902 Zn899 2.025 . S
H903 C895 0.952 . S
H904 C886 0.952 . S
H905 C894 0.948 . S
O906 Zn891 2.034 . S
O906 C901 1.246 . S
O907 Zn899 2.024 . S
O907 C901 1.249 . S
H908 C890 0.948 . S
O909 Zn899 2.039 . S
O909 C913 1.251 . S
O910 Zn891 2.025 . S
O910 C913 1.254 . S
O911 C892 1.246 . S
O911 Zn899 2.034 . S
O912 Zn891 2.024 . S
O912 C892 1.249 . S
C913 O909 1.251 . S
C913 O910 1.254 . S
H914 C887 0.949 . S
H915 C889 0.950 . S
H916 C896 0.949 . S
H917 C898 0.950 . S
C918 O934 1.251 . S
C918 O936 1.254 . S
N919 C920 1.333 . S
N919 C924 1.307 . S
N919 Zn925 2.020 . S
C920 N919 1.333 . S
C920 C921 1.379 . S
C920 H938 0.952 . S
C921 C920 1.379 . S
C921 C922 1.390 . S
C921 H948 0.949 . S
C922 C921 1.390 . S
C922 C923 1.357 . S
C923 C922 1.357 . S
C923 C924 1.370 . S
C923 H949 0.950 . S
C924 N919 1.307 . S
C924 C923 1.370 . S
C924 H942 0.948 . S
Zn925 N919 2.020 . S
Zn925 O934 2.039 . S
Zn925 O940 2.034 . S
Zn925 O944 2.025 . S
Zn925 O946 2.024 . S
C926 O945 1.246 . S
C926 O946 1.249 . S
N927 C928 1.307 . S
N927 C929 1.333 . S
N927 Zn933 2.020 . S
C928 N927 1.307 . S
C928 C932 1.370 . S
C928 H939 0.948 . S
C929 N927 1.333 . S
C929 C930 1.379 . S
C929 H937 0.952 . S
C930 C929 1.379 . S
C930 C931 1.390 . S
C930 H950 0.949 . S
C931 C930 1.390 . S
C931 C932 1.357 . S
C932 C928 1.370 . S
C932 C931 1.357 . S
C932 H951 0.950 . S
Zn933 N927 2.020 . S
Zn933 O936 2.025 . S
Zn933 O941 2.024 . S
Zn933 O943 2.039 . S
Zn933 O945 2.034 . S
O934 C918 1.251 . S
O934 Zn925 2.039 . S
C935 O940 1.246 . S
C935 O941 1.249 . S
O936 C918 1.254 . S
O936 Zn933 2.025 . S
H937 C929 0.952 . S
H938 C920 0.952 . S
H939 C928 0.948 . S
O940 Zn925 2.034 . S
O940 C935 1.246 . S
O941 Zn933 2.024 . S
O941 C935 1.249 . S
H942 C924 0.948 . S
O943 Zn933 2.039 . S
O943 C947 1.251 . S
O944 Zn925 2.025 . S
O944 C947 1.254 . S
O945 C926 1.246 . S
O945 Zn933 2.034 . S
O946 Zn925 2.024 . S
O946 C926 1.249 . S
C947 O943 1.251 . S
C947 O944 1.254 . S
H948 C921 0.949 . S
H949 C923 0.950 . S
H950 C930 0.949 . S
H951 C932 0.950 . S
C952 O968 1.251 . S
C952 O970 1.254 . S
N953 C954 1.333 . S
N953 C958 1.307 . S
N953 Zn959 2.020 . S
C954 N953 1.333 . S
C954 C955 1.379 . S
C954 H972 0.952 . S
C955 C954 1.379 . S
C955 C956 1.390 . S
C955 H982 0.949 . S
C956 C955 1.390 . S
C956 C957 1.357 . S
C957 C956 1.357 . S
C957 C958 1.370 . S
C957 H983 0.950 . S
C958 N953 1.307 . S
C958 C957 1.370 . S
C958 H976 0.948 . S
Zn959 N953 2.020 . S
Zn959 O968 2.039 . S
Zn959 O974 2.034 . S
Zn959 O978 2.025 . S
Zn959 O980 2.024 . S
C960 O979 1.246 . S
C960 O980 1.249 . S
N961 C962 1.307 . S
N961 C963 1.333 . S
N961 Zn967 2.020 . S
C962 N961 1.307 . S
C962 C966 1.370 . S
C962 H973 0.948 . S
C963 N961 1.333 . S
C963 C964 1.379 . S
C963 H971 0.952 . S
C964 C963 1.379 . S
C964 C965 1.390 . S
C964 H984 0.949 . S
C965 C964 1.390 . S
C965 C966 1.357 . S
C966 C962 1.370 . S
C966 C965 1.357 . S
C966 H985 0.950 . S
Zn967 N961 2.020 . S
Zn967 O970 2.025 . S
Zn967 O975 2.024 . S
Zn967 O977 2.039 . S
Zn967 O979 2.034 . S
O968 C952 1.251 . S
O968 Zn959 2.039 . S
C969 O974 1.246 . S
C969 O975 1.249 . S
O970 C952 1.254 . S
O970 Zn967 2.025 . S
H971 C963 0.952 . S
H972 C954 0.952 . S
H973 C962 0.948 . S
O974 Zn959 2.034 . S
O974 C969 1.246 . S
O975 Zn967 2.024 . S
O975 C969 1.249 . S
H976 C958 0.948 . S
O977 Zn967 2.039 . S
O977 C981 1.251 . S
O978 Zn959 2.025 . S
O978 C981 1.254 . S
O979 C960 1.246 . S
O979 Zn967 2.034 . S
O980 Zn959 2.024 . S
O980 C960 1.249 . S
C981 O977 1.251 . S
C981 O978 1.254 . S
H982 C955 0.949 . S
H983 C957 0.950 . S
H984 C964 0.949 . S
H985 C966 0.950 . S
C986 O1002 1.251 . S
C986 O1004 1.254 . S
N987 C988 1.333 . S
N987 C992 1.307 . S
N987 Zn993 2.020 . S
C988 N987 1.333 . S
C988 C989 1.379 . S
C988 H1006 0.952 . S
C989 C988 1.379 . S
C989 C990 1.390 . S
C989 H1016 0.949 . S
C990 C989 1.390 . S
C990 C991 1.357 . S
C991 C990 1.357 . S
C991 C992 1.370 . S
C991 H1017 0.950 . S
C992 N987 1.307 . S
C992 C991 1.370 . S
C992 H1010 0.948 . S
Zn993 N987 2.020 . S
Zn993 O1002 2.039 . S
Zn993 O1008 2.034 . S
Zn993 O1012 2.025 . S
Zn993 O1014 2.024 . S
C994 O1013 1.246 . S
C994 O1014 1.249 . S
N995 C996 1.307 . S
N995 C997 1.333 . S
N995 Zn1001 2.020 . S
C996 N995 1.307 . S
C996 C1000 1.370 . S
C996 H1007 0.948 . S
C997 N995 1.333 . S
C997 C998 1.379 . S
C997 H1005 0.952 . S
C998 C997 1.379 . S
C998 C999 1.390 . S
C998 H1018 0.949 . S
C999 C998 1.390 . S
C999 C1000 1.357 . S
C1000 C996 1.370 . S
C1000 C999 1.357 . S
C1000 H1019 0.950 . S
Zn1001 N995 2.020 . S
Zn1001 O1004 2.025 . S
Zn1001 O1009 2.024 . S
Zn1001 O1011 2.039 . S
Zn1001 O1013 2.034 . S
O1002 C986 1.251 . S
O1002 Zn993 2.039 . S
C1003 O1008 1.246 . S
C1003 O1009 1.249 . S
O1004 C986 1.254 . S
O1004 Zn1001 2.025 . S
H1005 C997 0.952 . S
H1006 C988 0.952 . S
H1007 C996 0.948 . S
O1008 Zn993 2.034 . S
O1008 C1003 1.246 . S
O1009 Zn1001 2.024 . S
O1009 C1003 1.249 . S
H1010 C992 0.948 . S
O1011 Zn1001 2.039 . S
O1011 C1015 1.251 . S
O1012 Zn993 2.025 . S
O1012 C1015 1.254 . S
O1013 C994 1.246 . S
O1013 Zn1001 2.034 . S
O1014 Zn993 2.024 . S
O1014 C994 1.249 . S
C1015 O1011 1.251 . S
C1015 O1012 1.254 . S
H1016 C989 0.949 . S
H1017 C991 0.950 . S
H1018 C998 0.949 . S
H1019 C1000 0.950 . S
C1020 O1036 1.251 . S
C1020 O1038 1.254 . S
N1021 C1022 1.333 . S
N1021 C1026 1.307 . S
N1021 Zn1027 2.020 . S
C1022 N1021 1.333 . S
C1022 C1023 1.379 . S
C1022 H1040 0.952 . S
C1023 C1022 1.379 . S
C1023 C1024 1.390 . S
C1023 H1050 0.949 . S
C1024 C1023 1.390 . S
C1024 C1025 1.357 . S
C1025 C1024 1.357 . S
C1025 C1026 1.370 . S
C1025 H1051 0.950 . S
C1026 N1021 1.307 . S
C1026 C1025 1.370 . S
C1026 H1044 0.948 . S
Zn1027 N1021 2.020 . S
Zn1027 O1036 2.039 . S
Zn1027 O1042 2.034 . S
Zn1027 O1046 2.025 . S
Zn1027 O1048 2.024 . S
C1028 O1047 1.246 . S
C1028 O1048 1.249 . S
N1029 C1030 1.307 . S
N1029 C1031 1.333 . S
N1029 Zn1035 2.020 . S
C1030 N1029 1.307 . S
C1030 C1034 1.370 . S
C1030 H1041 0.948 . S
C1031 N1029 1.333 . S
C1031 C1032 1.379 . S
C1031 H1039 0.952 . S
C1032 C1031 1.379 . S
C1032 C1033 1.390 . S
C1032 H1052 0.949 . S
C1033 C1032 1.390 . S
C1033 C1034 1.357 . S
C1034 C1030 1.370 . S
C1034 C1033 1.357 . S
C1034 H1053 0.950 . S
Zn1035 N1029 2.020 . S
Zn1035 O1038 2.025 . S
Zn1035 O1043 2.024 . S
Zn1035 O1045 2.039 . S
Zn1035 O1047 2.034 . S
O1036 C1020 1.251 . S
O1036 Zn1027 2.039 . S
C1037 O1042 1.246 . S
C1037 O1043 1.249 . S
O1038 C1020 1.254 . S
O1038 Zn1035 2.025 . S
H1039 C1031 0.952 . S
H1040 C1022 0.952 . S
H1041 C1030 0.948 . S
O1042 Zn1027 2.034 . S
O1042 C1037 1.246 . S
O1043 Zn1035 2.024 . S
O1043 C1037 1.249 . S
H1044 C1026 0.948 . S
O1045 Zn1035 2.039 . S
O1045 C1049 1.251 . S
O1046 Zn1027 2.025 . S
O1046 C1049 1.254 . S
O1047 C1028 1.246 . S
O1047 Zn1035 2.034 . S
O1048 Zn1027 2.024 . S
O1048 C1028 1.249 . S
C1049 O1045 1.251 . S
C1049 O1046 1.254 . S
H1050 C1023 0.949 . S
H1051 C1025 0.950 . S
H1052 C1032 0.949 . S
H1053 C1034 0.950 . S
C1054 O1070 1.251 . S
C1054 O1072 1.254 . S
N1055 C1056 1.333 . S
N1055 C1060 1.307 . S
N1055 Zn1061 2.020 . S
C1056 N1055 1.333 . S
C1056 C1057 1.379 . S
C1056 H1074 0.952 . S
C1057 C1056 1.379 . S
C1057 C1058 1.390 . S
C1057 H1084 0.949 . S
C1058 C1057 1.390 . S
C1058 C1059 1.357 . S
C1059 C1058 1.357 . S
C1059 C1060 1.370 . S
C1059 H1085 0.950 . S
C1060 N1055 1.307 . S
C1060 C1059 1.370 . S
C1060 H1078 0.948 . S
Zn1061 N1055 2.020 . S
Zn1061 O1070 2.039 . S
Zn1061 O1076 2.034 . S
Zn1061 O1080 2.025 . S
Zn1061 O1082 2.024 . S
C1062 O1081 1.246 . S
C1062 O1082 1.249 . S
N1063 C1064 1.307 . S
N1063 C1065 1.333 . S
N1063 Zn1069 2.020 . S
C1064 N1063 1.307 . S
C1064 C1068 1.370 . S
C1064 H1075 0.948 . S
C1065 N1063 1.333 . S
C1065 C1066 1.379 . S
C1065 H1073 0.952 . S
C1066 C1065 1.379 . S
C1066 C1067 1.390 . S
C1066 H1086 0.949 . S
C1067 C1066 1.390 . S
C1067 C1068 1.357 . S
C1068 C1064 1.370 . S
C1068 C1067 1.357 . S
C1068 H1087 0.950 . S
Zn1069 N1063 2.020 . S
Zn1069 O1072 2.025 . S
Zn1069 O1077 2.024 . S
Zn1069 O1079 2.039 . S
Zn1069 O1081 2.034 . S
O1070 C1054 1.251 . S
O1070 Zn1061 2.039 . S
C1071 O1076 1.246 . S
C1071 O1077 1.249 . S
O1072 C1054 1.254 . S
O1072 Zn1069 2.025 . S
H1073 C1065 0.952 . S
H1074 C1056 0.952 . S
H1075 C1064 0.948 . S
O1076 Zn1061 2.034 . S
O1076 C1071 1.246 . S
O1077 Zn1069 2.024 . S
O1077 C1071 1.249 . S
H1078 C1060 0.948 . S
O1079 Zn1069 2.039 . S
O1079 C1083 1.251 . S
O1080 Zn1061 2.025 . S
O1080 C1083 1.254 . S
O1081 C1062 1.246 . S
O1081 Zn1069 2.034 . S
O1082 Zn1061 2.024 . S
O1082 C1062 1.249 . S
C1083 O1079 1.251 . S
C1083 O1080 1.254 . S
H1084 C1057 0.949 . S
H1085 C1059 0.950 . S
H1086 C1066 0.949 . S
H1087 C1068 0.950 . S
H1088 C1096 0.950 . S
H1089 C1101 0.950 . S
H1090 C1098 0.950 . S
H1091 C1100 0.950 . S
H1092 C1102 0.950 . S
H1093 C1104 0.950 . S
H1094 C1106 0.950 . S
H1095 C1107 0.950 . S
C1096 H1088 0.950 . S
C1096 C1097 1.386 . S
C1096 C1098 1.391 . S
C1097 C1096 1.386 . S
C1097 C1101 1.393 . S
C1098 H1090 0.950 . S
C1098 C1096 1.391 . S
C1098 C1099 1.400 . S
C1099 C1098 1.400 . S
C1099 C1100 1.398 . S
C1099 C1105 1.491 . S
C1100 H1091 0.950 . S
C1100 C1099 1.398 . S
C1100 C1101 1.391 . S
C1101 H1089 0.950 . S
C1101 C1097 1.393 . S
C1101 C1100 1.391 . S
C1102 H1092 0.950 . S
C1102 C1103 1.386 . S
C1102 C1104 1.391 . S
C1103 C1102 1.386 . S
C1103 C1107 1.393 . S
C1104 H1093 0.950 . S
C1104 C1102 1.391 . S
C1104 C1105 1.400 . S
C1105 C1099 1.491 . S
C1105 C1104 1.400 . S
C1105 C1106 1.398 . S
C1106 H1094 0.950 . S
C1106 C1105 1.398 . S
C1106 C1107 1.391 . S
C1107 H1095 0.950 . S
C1107 C1103 1.393 . S
C1107 C1106 1.391 . S
H1108 C1116 0.950 . S
H1109 C1121 0.950 . S
H1110 C1118 0.950 1_655 S
H1111 C1120 0.950 . S
H1112 C1122 0.950 . S
H1113 C1124 0.950 . S
H1114 C1126 0.950 . S
H1115 C1127 0.950 . S
C1116 H1108 0.950 . S
C1116 C1117 1.386 . S
C1116 C1118 1.391 . S
C1117 C1116 1.386 . S
C1117 C1121 1.393 . S
C1118 H1110 0.950 1_455 S
C1118 C1116 1.391 . S
C1118 C1119 1.400 1_455 S
C1119 C1118 1.400 1_655 S
C1119 C1120 1.398 . S
C1119 C1125 1.491 . S
C1120 H1111 0.950 . S
C1120 C1119 1.398 . S
C1120 C1121 1.391 1_655 S
C1121 H1109 0.950 . S
C1121 C1117 1.393 . S
C1121 C1120 1.391 1_455 S
C1122 H1112 0.950 . S
C1122 C1123 1.386 . S
C1122 C1124 1.391 . S
C1123 C1122 1.386 . S
C1123 C1127 1.393 . S
C1124 H1113 0.950 . S
C1124 C1122 1.391 . S
C1124 C1125 1.400 . S
C1125 C1119 1.491 . S
C1125 C1124 1.400 . S
C1125 C1126 1.398 . S
C1126 H1114 0.950 . S
C1126 C1125 1.398 . S
C1126 C1127 1.391 . S
C1127 H1115 0.950 . S
C1127 C1123 1.393 . S
C1127 C1126 1.391 . S
H1128 C1136 0.950 . S
H1129 C1141 0.950 . S
H1130 C1138 0.950 . S
H1131 C1140 0.950 . S
H1132 C1142 0.950 . S
H1133 C1144 0.950 . S
H1134 C1146 0.950 . S
H1135 C1147 0.950 . S
C1136 H1128 0.950 . S
C1136 C1137 1.386 . S
C1136 C1138 1.391 . S
C1137 C1136 1.386 . S
C1137 C1141 1.393 . S
C1138 H1130 0.950 . S
C1138 C1136 1.391 . S
C1138 C1139 1.400 . S
C1139 C1138 1.400 . S
C1139 C1140 1.398 . S
C1139 C1145 1.491 . S
C1140 H1131 0.950 . S
C1140 C1139 1.398 . S
C1140 C1141 1.391 . S
C1141 H1129 0.950 . S
C1141 C1137 1.393 . S
C1141 C1140 1.391 . S
C1142 H1132 0.950 . S
C1142 C1143 1.386 . S
C1142 C1144 1.391 . S
C1143 C1142 1.386 . S
C1143 C1147 1.393 . S
C1144 H1133 0.950 . S
C1144 C1142 1.391 . S
C1144 C1145 1.400 . S
C1145 C1139 1.491 . S
C1145 C1144 1.400 . S
C1145 C1146 1.398 . S
C1146 H1134 0.950 . S
C1146 C1145 1.398 . S
C1146 C1147 1.391 . S
C1147 H1135 0.950 . S
C1147 C1143 1.393 . S
C1147 C1146 1.391 . S
H1148 C1156 0.950 . S
H1149 C1161 0.950 . S
H1150 C1158 0.950 . S
H1151 C1160 0.950 . S
H1152 C1162 0.950 . S
H1153 C1164 0.950 . S
H1154 C1166 0.950 . S
H1155 C1167 0.950 . S
C1156 H1148 0.950 . S
C1156 C1157 1.386 . S
C1156 C1158 1.391 . S
C1157 C1156 1.386 . S
C1157 C1161 1.393 . S
C1158 H1150 0.950 . S
C1158 C1156 1.391 . S
C1158 C1159 1.400 . S
C1159 C1158 1.400 . S
C1159 C1160 1.398 . S
C1159 C1165 1.491 . S
C1160 H1151 0.950 . S
C1160 C1159 1.398 . S
C1160 C1161 1.391 . S
C1161 H1149 0.950 . S
C1161 C1157 1.393 . S
C1161 C1160 1.391 . S
C1162 H1152 0.950 . S
C1162 C1163 1.386 . S
C1162 C1164 1.391 . S
C1163 C1162 1.386 . S
C1163 C1167 1.393 . S
C1164 H1153 0.950 . S
C1164 C1162 1.391 . S
C1164 C1165 1.400 . S
C1165 C1159 1.491 . S
C1165 C1164 1.400 . S
C1165 C1166 1.398 . S
C1166 H1154 0.950 . S
C1166 C1165 1.398 . S
C1166 C1167 1.391 . S
C1167 H1155 0.950 . S
C1167 C1163 1.393 . S
C1167 C1166 1.391 . S
H1168 C1176 0.950 . S
H1169 C1181 0.950 . S
H1170 C1178 0.950 . S
H1171 C1180 0.950 . S
H1172 C1182 0.950 . S
H1173 C1184 0.950 . S
H1174 C1186 0.950 . S
H1175 C1187 0.950 . S
C1176 H1168 0.950 . S
C1176 C1177 1.386 . S
C1176 C1178 1.391 . S
C1177 C1176 1.386 . S
C1177 C1181 1.393 . S
C1178 H1170 0.950 . S
C1178 C1176 1.391 . S
C1178 C1179 1.400 . S
C1179 C1178 1.400 . S
C1179 C1180 1.398 . S
C1179 C1185 1.491 . S
C1180 H1171 0.950 . S
C1180 C1179 1.398 . S
C1180 C1181 1.391 . S
C1181 H1169 0.950 . S
C1181 C1177 1.393 . S
C1181 C1180 1.391 . S
C1182 H1172 0.950 . S
C1182 C1183 1.386 . S
C1182 C1184 1.391 . S
C1183 C1182 1.386 . S
C1183 C1187 1.393 . S
C1184 H1173 0.950 . S
C1184 C1182 1.391 . S
C1184 C1185 1.400 . S
C1185 C1179 1.491 . S
C1185 C1184 1.400 . S
C1185 C1186 1.398 . S
C1186 H1174 0.950 . S
C1186 C1185 1.398 . S
C1186 C1187 1.391 . S
C1187 H1175 0.950 . S
C1187 C1183 1.393 . S
C1187 C1186 1.391 . S
H1188 C1196 0.950 . S
H1189 C1201 0.950 . S
H1190 C1198 0.950 . S
H1191 C1200 0.950 . S
H1192 C1202 0.950 . S
H1193 C1204 0.950 . S
H1194 C1206 0.950 . S
H1195 C1207 0.950 . S
C1196 H1188 0.950 . S
C1196 C1197 1.386 . S
C1196 C1198 1.391 . S
C1197 C1196 1.386 . S
C1197 C1201 1.393 . S
C1198 H1190 0.950 . S
C1198 C1196 1.391 . S
C1198 C1199 1.400 . S
C1199 C1198 1.400 . S
C1199 C1200 1.398 . S
C1199 C1205 1.491 . S
C1200 H1191 0.950 . S
C1200 C1199 1.398 . S
C1200 C1201 1.391 . S
C1201 H1189 0.950 . S
C1201 C1197 1.393 . S
C1201 C1200 1.391 . S
C1202 H1192 0.950 . S
C1202 C1203 1.386 . S
C1202 C1204 1.391 . S
C1203 C1202 1.386 . S
C1203 C1207 1.393 . S
C1204 H1193 0.950 . S
C1204 C1202 1.391 . S
C1204 C1205 1.400 . S
C1205 C1199 1.491 . S
C1205 C1204 1.400 . S
C1205 C1206 1.398 . S
C1206 H1194 0.950 . S
C1206 C1205 1.398 . S
C1206 C1207 1.391 . S
C1207 H1195 0.950 . S
C1207 C1203 1.393 . S
C1207 C1206 1.391 . S
H1208 C1216 0.950 . S
H1209 C1221 0.950 . S
H1210 C1218 0.950 . S
H1211 C1220 0.950 . S
H1212 C1222 0.950 . S
H1213 C1224 0.950 . S
H1214 C1226 0.950 . S
H1215 C1227 0.950 . S
C1216 H1208 0.950 . S
C1216 C1217 1.386 . S
C1216 C1218 1.391 . S
C1217 C1216 1.386 . S
C1217 C1221 1.393 . S
C1218 H1210 0.950 . S
C1218 C1216 1.391 . S
C1218 C1219 1.400 . S
C1219 C1218 1.400 . S
C1219 C1220 1.398 . S
C1219 C1225 1.491 . S
C1220 H1211 0.950 . S
C1220 C1219 1.398 . S
C1220 C1221 1.391 . S
C1221 H1209 0.950 . S
C1221 C1217 1.393 . S
C1221 C1220 1.391 . S
C1222 H1212 0.950 . S
C1222 C1223 1.386 . S
C1222 C1224 1.391 . S
C1223 C1222 1.386 . S
C1223 C1227 1.393 . S
C1224 H1213 0.950 . S
C1224 C1222 1.391 . S
C1224 C1225 1.400 . S
C1225 C1219 1.491 . S
C1225 C1224 1.400 . S
C1225 C1226 1.398 . S
C1226 H1214 0.950 . S
C1226 C1225 1.398 . S
C1226 C1227 1.391 . S
C1227 H1215 0.950 . S
C1227 C1223 1.393 . S
C1227 C1226 1.391 . S
H1228 C1236 0.950 . S
H1229 C1241 0.950 . S
H1230 C1238 0.950 . S
H1231 C1240 0.954 . S
H1232 C1242 0.950 . S
H1233 C1244 0.950 . S
H1234 C1246 0.950 . S
H1235 C1247 0.950 . S
C1236 H1228 0.950 . S
C1236 C1237 1.386 . S
C1236 C1238 1.391 1_455 S
C1237 C1236 1.386 . S
C1237 C1241 1.393 . S
C1238 H1230 0.950 . S
C1238 C1236 1.391 1_655 S
C1238 C1239 1.400 . S
C1239 C1238 1.400 . S
C1239 C1240 1.405 . S
C1239 C1245 1.491 . S
C1240 H1231 0.954 . S
C1240 C1239 1.405 . S
C1240 C1241 1.380 1_655 S
C1241 H1229 0.950 . S
C1241 C1237 1.393 . S
C1241 C1240 1.380 1_455 S
C1242 H1232 0.950 . S
C1242 C1243 1.386 . S
C1242 C1244 1.391 . S
C1243 C1242 1.386 . S
C1243 C1247 1.393 . S
C1244 H1233 0.950 . S
C1244 C1242 1.391 . S
C1244 C1245 1.400 . S
C1245 C1239 1.491 . S
C1245 C1244 1.400 . S
C1245 C1246 1.398 . S
C1246 H1234 0.950 . S
C1246 C1245 1.398 . S
C1246 C1247 1.391 . S
C1247 H1235 0.950 . S
C1247 C1243 1.393 . S
C1247 C1246 1.391 . S
H1248 C1256 0.950 . S
H1249 C1261 0.950 . S
H1250 C1258 0.950 . S
H1251 C1260 0.950 . S
H1252 C1262 0.950 . S
H1253 C1264 0.950 . S
H1254 C1266 0.950 . S
H1255 C1267 0.950 . S
C1256 H1248 0.950 . S
C1256 C1257 1.386 . S
C1256 C1258 1.391 . S
C1257 C1256 1.386 . S
C1257 C1261 1.393 . S
C1258 H1250 0.950 . S
C1258 C1256 1.391 . S
C1258 C1259 1.400 . S
C1259 C1258 1.400 . S
C1259 C1260 1.398 . S
C1259 C1265 1.491 . S
C1260 H1251 0.950 . S
C1260 C1259 1.398 . S
C1260 C1261 1.391 . S
C1261 H1249 0.950 . S
C1261 C1257 1.393 . S
C1261 C1260 1.391 . S
C1262 H1252 0.950 . S
C1262 C1263 1.386 . S
C1262 C1264 1.391 . S
C1263 C1262 1.386 . S
C1263 C1267 1.393 . S
C1264 H1253 0.950 . S
C1264 C1262 1.391 . S
C1264 C1265 1.400 . S
C1265 C1259 1.491 . S
C1265 C1264 1.400 . S
C1265 C1266 1.398 . S
C1266 H1254 0.950 . S
C1266 C1265 1.398 . S
C1266 C1267 1.391 . S
C1267 H1255 0.950 . S
C1267 C1263 1.393 . S
C1267 C1266 1.391 . S
H1268 C1276 0.950 . S
H1269 C1281 0.950 . S
H1270 C1278 0.950 . S
H1271 C1280 0.950 . S
H1272 C1282 0.950 . S
H1273 C1284 0.950 . S
H1274 C1286 0.950 . S
H1275 C1287 0.950 . S
C1276 H1268 0.950 . S
C1276 C1277 1.386 . S
C1276 C1278 1.391 1_655 S
C1277 C1276 1.386 . S
C1277 C1281 1.393 . S
C1278 H1270 0.950 . S
C1278 C1276 1.391 1_455 S
C1278 C1279 1.400 . S
C1279 C1278 1.400 . S
C1279 C1280 1.398 1_455 S
C1279 C1285 1.491 . S
C1280 H1271 0.950 . S
C1280 C1279 1.398 1_655 S
C1280 C1281 1.391 . S
C1281 H1269 0.950 . S
C1281 C1277 1.393 . S
C1281 C1280 1.391 . S
C1282 H1272 0.950 . S
C1282 C1283 1.386 . S
C1282 C1284 1.391 . S
C1283 C1282 1.386 . S
C1283 C1287 1.393 . S
C1284 H1273 0.950 . S
C1284 C1282 1.391 . S
C1284 C1285 1.400 . S
C1285 C1279 1.491 . S
C1285 C1284 1.400 . S
C1285 C1286 1.398 . S
C1286 H1274 0.950 . S
C1286 C1285 1.398 . S
C1286 C1287 1.391 . S
C1287 H1275 0.950 . S
C1287 C1283 1.393 . S
C1287 C1286 1.391 . S
H1288 C1296 0.950 . S
H1289 C1301 0.950 . S
H1290 C1298 0.950 . S
H1291 C1300 0.950 . S
H1292 C1302 0.950 . S
H1293 C1304 0.950 . S
H1294 C1306 0.950 . S
H1295 C1307 0.950 . S
C1296 H1288 0.950 . S
C1296 C1297 1.386 . S
C1296 C1298 1.391 . S
C1297 C1296 1.386 . S
C1297 C1301 1.393 . S
C1298 H1290 0.950 . S
C1298 C1296 1.391 . S
C1298 C1299 1.400 . S
C1299 C1298 1.400 . S
C1299 C1300 1.398 . S
C1299 C1305 1.491 . S
C1300 H1291 0.950 . S
C1300 C1299 1.398 . S
C1300 C1301 1.391 . S
C1301 H1289 0.950 . S
C1301 C1297 1.393 . S
C1301 C1300 1.391 . S
C1302 H1292 0.950 . S
C1302 C1303 1.386 . S
C1302 C1304 1.391 . S
C1303 C1302 1.386 . S
C1303 C1307 1.393 . S
C1304 H1293 0.950 . S
C1304 C1302 1.391 . S
C1304 C1305 1.400 . S
C1305 C1299 1.491 . S
C1305 C1304 1.400 . S
C1305 C1306 1.398 . S
C1306 H1294 0.950 . S
C1306 C1305 1.398 . S
C1306 C1307 1.391 . S
C1307 H1295 0.950 . S
C1307 C1303 1.393 . S
C1307 C1306 1.391 . S
H1308 C1316 0.950 . S
H1309 C1321 0.950 . S
H1310 C1318 0.950 . S
H1311 C1320 0.950 . S
H1312 C1322 0.950 . S
H1313 C1324 0.950 . S
H1314 C1326 0.950 . S
H1315 C1327 0.950 . S
C1316 H1308 0.950 . S
C1316 C1317 1.386 . S
C1316 C1318 1.391 . S
C1317 C1316 1.386 . S
C1317 C1321 1.393 . S
C1318 H1310 0.950 . S
C1318 C1316 1.391 . S
C1318 C1319 1.400 . S
C1319 C1318 1.400 . S
C1319 C1320 1.398 . S
C1319 C1325 1.491 . S
C1320 H1311 0.950 . S
C1320 C1319 1.398 . S
C1320 C1321 1.391 . S
C1321 H1309 0.950 . S
C1321 C1317 1.393 . S
C1321 C1320 1.391 . S
C1322 H1312 0.950 . S
C1322 C1323 1.386 . S
C1322 C1324 1.391 . S
C1323 C1322 1.386 . S
C1323 C1327 1.393 . S
C1324 H1313 0.950 . S
C1324 C1322 1.391 . S
C1324 C1325 1.400 . S
C1325 C1319 1.491 . S
C1325 C1324 1.400 . S
C1325 C1326 1.398 . S
C1326 H1314 0.950 . S
C1326 C1325 1.398 . S
C1326 C1327 1.391 . S
C1327 H1315 0.950 . S
C1327 C1323 1.393 . S
C1327 C1326 1.391 . S
H1328 C1336 0.950 . S
H1329 C1341 0.950 . S
H1330 C1338 0.950 . S
H1331 C1340 0.950 . S
H1332 C1342 0.950 . S
H1333 C1344 0.950 . S
H1334 C1346 0.950 . S
H1335 C1347 0.950 . S
C1336 H1328 0.950 . S
C1336 C1337 1.386 . S
C1336 C1338 1.391 . S
C1337 C1336 1.386 . S
C1337 C1341 1.393 . S
C1338 H1330 0.950 . S
C1338 C1336 1.391 . S
C1338 C1339 1.400 . S
C1339 C1338 1.400 . S
C1339 C1340 1.398 . S
C1339 C1345 1.491 . S
C1340 H1331 0.950 . S
C1340 C1339 1.398 . S
C1340 C1341 1.391 . S
C1341 H1329 0.950 . S
C1341 C1337 1.393 . S
C1341 C1340 1.391 . S
C1342 H1332 0.950 . S
C1342 C1343 1.386 . S
C1342 C1344 1.391 . S
C1343 C1342 1.386 . S
C1343 C1347 1.393 . S
C1344 H1333 0.950 . S
C1344 C1342 1.391 . S
C1344 C1345 1.400 . S
C1345 C1339 1.491 . S
C1345 C1344 1.400 . S
C1345 C1346 1.398 . S
C1346 H1334 0.950 . S
C1346 C1345 1.398 . S
C1346 C1347 1.391 . S
C1347 H1335 0.950 . S
C1347 C1343 1.393 . S
C1347 C1346 1.391 . S
H1348 C1356 0.950 . S
H1349 C1361 0.950 . S
H1350 C1358 0.950 . S
H1351 C1360 0.950 . S
H1352 C1362 0.950 . S
H1353 C1364 0.950 . S
H1354 C1366 0.950 . S
H1355 C1367 0.950 . S
C1356 H1348 0.950 . S
C1356 C1357 1.386 . S
C1356 C1358 1.391 . S
C1357 C1356 1.386 . S
C1357 C1361 1.393 . S
C1358 H1350 0.950 . S
C1358 C1356 1.391 . S
C1358 C1359 1.400 . S
C1359 C1358 1.400 . S
C1359 C1360 1.398 . S
C1359 C1365 1.491 . S
C1360 H1351 0.950 . S
C1360 C1359 1.398 . S
C1360 C1361 1.391 . S
C1361 H1349 0.950 . S
C1361 C1357 1.393 . S
C1361 C1360 1.391 . S
C1362 H1352 0.950 . S
C1362 C1363 1.386 . S
C1362 C1364 1.391 . S
C1363 C1362 1.386 . S
C1363 C1367 1.393 . S
C1364 H1353 0.950 . S
C1364 C1362 1.391 . S
C1364 C1365 1.400 . S
C1365 C1359 1.491 . S
C1365 C1364 1.400 . S
C1365 C1366 1.398 . S
C1366 H1354 0.950 . S
C1366 C1365 1.398 . S
C1366 C1367 1.391 . S
C1367 H1355 0.950 . S
C1367 C1363 1.393 . S
C1367 C1366 1.391 . S
H1368 C1376 0.950 . S
H1369 C1381 0.950 . S
H1370 C1378 0.950 . S
H1371 C1380 0.950 . S
H1372 C1382 0.950 . S
H1373 C1384 0.950 . S
H1374 C1386 0.950 . S
H1375 C1387 0.950 . S
C1376 H1368 0.950 . S
C1376 C1377 1.386 . S
C1376 C1378 1.391 . S
C1377 C1376 1.386 . S
C1377 C1381 1.393 . S
C1378 H1370 0.950 . S
C1378 C1376 1.391 . S
C1378 C1379 1.400 . S
C1379 C1378 1.400 . S
C1379 C1380 1.398 . S
C1379 C1385 1.491 . S
C1380 H1371 0.950 . S
C1380 C1379 1.398 . S
C1380 C1381 1.391 . S
C1381 H1369 0.950 . S
C1381 C1377 1.393 . S
C1381 C1380 1.391 . S
C1382 H1372 0.950 . S
C1382 C1383 1.386 . S
C1382 C1384 1.391 . S
C1383 C1382 1.386 . S
C1383 C1387 1.393 . S
C1384 H1373 0.950 . S
C1384 C1382 1.391 . S
C1384 C1385 1.400 . S
C1385 C1379 1.491 . S
C1385 C1384 1.400 . S
C1385 C1386 1.398 . S
C1386 H1374 0.950 . S
C1386 C1385 1.398 . S
C1386 C1387 1.391 . S
C1387 H1375 0.950 . S
C1387 C1383 1.393 . S
C1387 C1386 1.391 . S
H1388 C1396 0.950 . S
H1389 C1401 0.950 . S
H1390 C1398 0.950 . S
H1391 C1400 0.950 . S
H1392 C1402 0.950 . S
H1393 C1404 0.950 . S
H1394 C1406 0.950 1_455 S
H1395 C1407 0.950 . S
C1396 H1388 0.950 . S
C1396 C1397 1.386 . S
C1396 C1398 1.391 . S
C1397 C1396 1.386 . S
C1397 C1401 1.393 . S
C1398 H1390 0.950 . S
C1398 C1396 1.391 . S
C1398 C1399 1.400 . S
C1399 C1398 1.400 . S
C1399 C1400 1.398 . S
C1399 C1405 1.491 . S
C1400 H1391 0.950 . S
C1400 C1399 1.398 . S
C1400 C1401 1.391 . S
C1401 H1389 0.950 . S
C1401 C1397 1.393 . S
C1401 C1400 1.391 . S
C1402 H1392 0.950 . S
C1402 C1403 1.386 . S
C1402 C1404 1.391 1_655 S
C1403 C1402 1.386 . S
C1403 C1407 1.393 . S
C1404 H1393 0.950 . S
C1404 C1402 1.391 1_455 S
C1404 C1405 1.400 . S
C1405 C1399 1.491 . S
C1405 C1404 1.400 . S
C1405 C1406 1.398 1_455 S
C1406 H1394 0.950 1_655 S
C1406 C1405 1.398 1_655 S
C1406 C1407 1.391 . S
C1407 H1395 0.950 . S
C1407 C1403 1.393 . S
C1407 C1406 1.391 . S
H1408 C1416 0.950 . S
H1409 C1421 0.950 . S
H1410 C1418 0.950 . S
H1411 C1420 0.950 . S
H1412 C1422 0.950 . S
H1413 C1424 0.950 . S
H1414 C1426 0.950 . S
H1415 C1427 0.950 . S
C1416 H1408 0.950 . S
C1416 C1417 1.386 . S
C1416 C1418 1.391 . S
C1417 C1416 1.386 . S
C1417 C1421 1.393 . S
C1418 H1410 0.950 . S
C1418 C1416 1.391 . S
C1418 C1419 1.400 . S
C1419 C1418 1.400 . S
C1419 C1420 1.398 . S
C1419 C1425 1.491 . S
C1420 H1411 0.950 . S
C1420 C1419 1.398 . S
C1420 C1421 1.391 . S
C1421 H1409 0.950 . S
C1421 C1417 1.393 . S
C1421 C1420 1.391 . S
C1422 H1412 0.950 . S
C1422 C1423 1.386 . S
C1422 C1424 1.391 . S
C1423 C1422 1.386 . S
C1423 C1427 1.393 . S
C1424 H1413 0.950 . S
C1424 C1422 1.391 . S
C1424 C1425 1.400 . S
C1425 C1419 1.491 . S
C1425 C1424 1.400 . S
C1425 C1426 1.398 . S
C1426 H1414 0.950 . S
C1426 C1425 1.398 . S
C1426 C1427 1.391 . S
C1427 H1415 0.950 . S
C1427 C1423 1.393 . S
C1427 C1426 1.391 . S
H1428 C1436 0.950 . S
H1429 C1441 0.950 . S
H1430 C1438 0.950 . S
H1431 C1440 0.950 . S
H1432 C1442 0.950 . S
H1433 C1444 0.950 . S
H1434 C1446 0.950 . S
H1435 C1447 0.950 . S
C1436 H1428 0.950 . S
C1436 C1437 1.386 . S
C1436 C1438 1.391 . S
C1437 C1436 1.386 . S
C1437 C1441 1.393 . S
C1438 H1430 0.950 . S
C1438 C1436 1.391 . S
C1438 C1439 1.400 . S
C1439 C1438 1.400 . S
C1439 C1440 1.398 . S
C1439 C1445 1.491 . S
C1440 H1431 0.950 . S
C1440 C1439 1.398 . S
C1440 C1441 1.391 . S
C1441 H1429 0.950 . S
C1441 C1437 1.393 . S
C1441 C1440 1.391 . S
C1442 H1432 0.950 . S
C1442 C1443 1.386 . S
C1442 C1444 1.391 . S
C1443 C1442 1.386 . S
C1443 C1447 1.393 . S
C1444 H1433 0.950 . S
C1444 C1442 1.391 . S
C1444 C1445 1.400 . S
C1445 C1439 1.491 . S
C1445 C1444 1.400 . S
C1445 C1446 1.398 . S
C1446 H1434 0.950 . S
C1446 C1445 1.398 . S
C1446 C1447 1.391 . S
C1447 H1435 0.950 . S
C1447 C1443 1.393 . S
C1447 C1446 1.391 . S
H1448 C1456 0.950 . S
H1449 C1461 0.950 . S
H1450 C1458 0.950 . S
H1451 C1460 0.950 . S
H1452 C1462 0.950 . S
H1453 C1464 0.950 . S
H1454 C1466 0.950 . S
H1455 C1467 0.950 . S
C1456 H1448 0.950 . S
C1456 C1457 1.386 . S
C1456 C1458 1.391 . S
C1457 C1456 1.386 . S
C1457 C1461 1.393 . S
C1458 H1450 0.950 . S
C1458 C1456 1.391 . S
C1458 C1459 1.400 . S
C1459 C1458 1.400 . S
C1459 C1460 1.398 . S
C1459 C1465 1.491 . S
C1460 H1451 0.950 . S
C1460 C1459 1.398 . S
C1460 C1461 1.391 . S
C1461 H1449 0.950 . S
C1461 C1457 1.393 . S
C1461 C1460 1.391 . S
C1462 H1452 0.950 . S
C1462 C1463 1.386 . S
C1462 C1464 1.391 . S
C1463 C1462 1.386 . S
C1463 C1467 1.393 . S
C1464 H1453 0.950 . S
C1464 C1462 1.391 . S
C1464 C1465 1.400 . S
C1465 C1459 1.491 . S
C1465 C1464 1.400 . S
C1465 C1466 1.398 . S
C1466 H1454 0.950 . S
C1466 C1465 1.398 . S
C1466 C1467 1.391 . S
C1467 H1455 0.950 . S
C1467 C1463 1.393 . S
C1467 C1466 1.391 . S
H1468 C1476 0.950 . S
H1469 C1481 0.953 . S
H1470 C1478 0.950 . S
H1471 C1480 0.950 . S
H1472 C1482 0.950 . S
H1473 C1484 0.950 . S
H1474 C1486 0.950 . S
H1475 C1487 0.950 . S
C1476 H1468 0.950 . S
C1476 C1477 1.386 . S
C1476 C1478 1.391 . S
C1477 C1476 1.386 . S
C1477 C1481 1.393 . S
C1478 H1470 0.950 . S
C1478 C1476 1.391 . S
C1478 C1479 1.400 1_655 S
C1479 C1478 1.400 1_455 S
C1479 C1480 1.398 . S
C1479 C1485 1.491 . S
C1480 H1471 0.950 . S
C1480 C1479 1.398 . S
C1480 C1481 1.391 1_455 S
C1481 H1469 0.953 . S
C1481 C1477 1.393 . S
C1481 C1480 1.391 1_655 S
C1482 H1472 0.950 . S
C1482 C1483 1.386 . S
C1482 C1484 1.391 . S
C1483 C1482 1.386 . S
C1483 C1487 1.393 . S
C1484 H1473 0.950 . S
C1484 C1482 1.391 . S
C1484 C1485 1.400 . S
C1485 C1479 1.491 . S
C1485 C1484 1.400 . S
C1485 C1486 1.398 . S
C1486 H1474 0.950 . S
C1486 C1485 1.398 . S
C1486 C1487 1.391 . S
C1487 H1475 0.950 . S
C1487 C1483 1.393 . S
C1487 C1486 1.391 . S
H1488 C1496 0.950 . S
H1489 C1501 0.950 . S
H1490 C1498 0.950 . S
H1491 C1500 0.950 . S
H1492 C1502 0.950 . S
H1493 C1504 0.950 . S
H1494 C1506 0.950 . S
H1495 C1507 0.950 . S
C1496 H1488 0.950 . S
C1496 C1497 1.386 . S
C1496 C1498 1.391 . S
C1497 C1496 1.386 . S
C1497 C1501 1.393 . S
C1498 H1490 0.950 . S
C1498 C1496 1.391 . S
C1498 C1499 1.400 . S
C1499 C1498 1.400 . S
C1499 C1500 1.398 . S
C1499 C1505 1.491 . S
C1500 H1491 0.950 . S
C1500 C1499 1.398 . S
C1500 C1501 1.391 . S
C1501 H1489 0.950 . S
C1501 C1497 1.393 . S
C1501 C1500 1.391 . S
C1502 H1492 0.950 . S
C1502 C1503 1.386 . S
C1502 C1504 1.391 . S
C1503 C1502 1.386 . S
C1503 C1507 1.393 . S
C1504 H1493 0.950 . S
C1504 C1502 1.391 . S
C1504 C1505 1.400 . S
C1505 C1499 1.491 . S
C1505 C1504 1.400 . S
C1505 C1506 1.398 . S
C1506 H1494 0.950 . S
C1506 C1505 1.398 . S
C1506 C1507 1.391 . S
C1507 H1495 0.950 . S
C1507 C1503 1.393 . S
C1507 C1506 1.391 . S
H1508 C1516 0.950 . S
H1509 C1521 0.950 . S
H1510 C1518 0.950 . S
H1511 C1520 0.950 . S
H1512 C1522 0.955 . S
H1513 C1524 0.950 . S
H1514 C1526 0.950 . S
H1515 C1527 0.950 . S
C1516 H1508 0.950 . S
C1516 C1517 1.386 . S
C1516 C1518 1.391 . S
C1517 C1516 1.386 . S
C1517 C1521 1.393 . S
C1518 H1510 0.950 . S
C1518 C1516 1.391 . S
C1518 C1519 1.400 . S
C1519 C1518 1.400 . S
C1519 C1520 1.398 . S
C1519 C1525 1.491 . S
C1520 H1511 0.950 . S
C1520 C1519 1.398 . S
C1520 C1521 1.391 . S
C1521 H1509 0.950 . S
C1521 C1517 1.393 . S
C1521 C1520 1.391 . S
C1522 H1512 0.955 . S
C1522 C1523 1.386 . S
C1522 C1524 1.391 1_655 S
C1523 C1522 1.386 . S
C1523 C1527 1.393 . S
C1524 H1513 0.950 . S
C1524 C1522 1.391 1_455 S
C1524 C1525 1.400 . S
C1525 C1519 1.491 . S
C1525 C1524 1.400 . S
C1525 C1526 1.398 1_455 S
C1526 H1514 0.950 . S
C1526 C1525 1.398 1_655 S
C1526 C1527 1.391 . S
C1527 H1515 0.950 . S
C1527 C1523 1.393 . S
C1527 C1526 1.391 . S
H1528 C1536 0.950 . S
H1529 C1541 0.950 . S
H1530 C1538 0.950 . S
H1531 C1540 0.950 . S
H1532 C1542 0.950 . S
H1533 C1544 0.950 . S
H1534 C1546 0.950 . S
H1535 C1547 0.950 . S
C1536 H1528 0.950 . S
C1536 C1537 1.386 . S
C1536 C1538 1.391 . S
C1537 C1536 1.386 . S
C1537 C1541 1.393 . S
C1538 H1530 0.950 . S
C1538 C1536 1.391 . S
C1538 C1539 1.400 . S
C1539 C1538 1.400 . S
C1539 C1540 1.398 . S
C1539 C1545 1.491 . S
C1540 H1531 0.950 . S
C1540 C1539 1.398 . S
C1540 C1541 1.391 . S
C1541 H1529 0.950 . S
C1541 C1537 1.393 . S
C1541 C1540 1.391 . S
C1542 H1532 0.950 . S
C1542 C1543 1.386 . S
C1542 C1544 1.391 . S
C1543 C1542 1.386 . S
C1543 C1547 1.393 . S
C1544 H1533 0.950 . S
C1544 C1542 1.391 . S
C1544 C1545 1.400 . S
C1545 C1539 1.491 . S
C1545 C1544 1.400 . S
C1545 C1546 1.398 . S
C1546 H1534 0.950 . S
C1546 C1545 1.398 . S
C1546 C1547 1.391 . S
C1547 H1535 0.950 . S
C1547 C1543 1.393 . S
C1547 C1546 1.391 . S
H1548 C1556 0.950 . S
H1549 C1561 0.950 . S
H1550 C1558 0.950 . S
H1551 C1560 0.950 . S
H1552 C1562 0.950 . S
H1553 C1564 0.950 . S
H1554 C1566 0.950 . S
H1555 C1567 0.950 . S
C1556 H1548 0.950 . S
C1556 C1557 1.386 . S
C1556 C1558 1.391 . S
C1557 C1556 1.386 . S
C1557 C1561 1.393 . S
C1558 H1550 0.950 . S
C1558 C1556 1.391 . S
C1558 C1559 1.400 . S
C1559 C1558 1.400 . S
C1559 C1560 1.398 . S
C1559 C1565 1.491 . S
C1560 H1551 0.950 . S
C1560 C1559 1.398 . S
C1560 C1561 1.391 . S
C1561 H1549 0.950 . S
C1561 C1557 1.393 . S
C1561 C1560 1.391 . S
C1562 H1552 0.950 . S
C1562 C1563 1.386 . S
C1562 C1564 1.391 . S
C1563 C1562 1.386 . S
C1563 C1567 1.393 . S
C1564 H1553 0.950 . S
C1564 C1562 1.391 . S
C1564 C1565 1.400 . S
C1565 C1559 1.491 . S
C1565 C1564 1.400 . S
C1565 C1566 1.398 . S
C1566 H1554 0.950 . S
C1566 C1565 1.398 . S
C1566 C1567 1.391 . S
C1567 H1555 0.950 . S
C1567 C1563 1.393 . S
C1567 C1566 1.391 . S
H1568 C1576 0.950 . S
H1569 C1581 0.950 . S
H1570 C1578 0.950 . S
H1571 C1580 0.950 . S
H1572 C1582 0.950 . S
H1573 C1584 0.950 . S
H1574 C1586 0.950 . S
H1575 C1587 0.950 . S
C1576 H1568 0.950 . S
C1576 C1577 1.386 . S
C1576 C1578 1.391 . S
C1577 C1576 1.386 . S
C1577 C1581 1.393 . S
C1578 H1570 0.950 . S
C1578 C1576 1.391 . S
C1578 C1579 1.400 . S
C1579 C1578 1.400 . S
C1579 C1580 1.398 . S
C1579 C1585 1.491 . S
C1580 H1571 0.950 . S
C1580 C1579 1.398 . S
C1580 C1581 1.391 . S
C1581 H1569 0.950 . S
C1581 C1577 1.393 . S
C1581 C1580 1.391 . S
C1582 H1572 0.950 . S
C1582 C1583 1.386 . S
C1582 C1584 1.391 . S
C1583 C1582 1.386 . S
C1583 C1587 1.393 . S
C1584 H1573 0.950 . S
C1584 C1582 1.391 . S
C1584 C1585 1.400 . S
C1585 C1579 1.491 . S
C1585 C1584 1.400 . S
C1585 C1586 1.398 . S
C1586 H1574 0.950 . S
C1586 C1585 1.398 . S
C1586 C1587 1.391 . S
C1587 H1575 0.950 . S
C1587 C1583 1.393 . S
C1587 C1586 1.391 . S
H1588 C1596 0.950 . S
H1589 C1601 0.950 . S
H1590 C1598 0.950 . S
H1591 C1600 0.950 . S
H1592 C1602 0.950 . S
H1593 C1604 0.950 . S
H1594 C1606 0.950 . S
H1595 C1607 0.950 . S
C1596 H1588 0.950 . S
C1596 C1597 1.386 . S
C1596 C1598 1.391 . S
C1597 C1596 1.386 . S
C1597 C1601 1.393 . S
C1598 H1590 0.950 . S
C1598 C1596 1.391 . S
C1598 C1599 1.400 . S
C1599 C1598 1.400 . S
C1599 C1600 1.398 . S
C1599 C1605 1.491 . S
C1600 H1591 0.950 . S
C1600 C1599 1.398 . S
C1600 C1601 1.391 . S
C1601 H1589 0.950 . S
C1601 C1597 1.393 . S
C1601 C1600 1.391 . S
C1602 H1592 0.950 . S
C1602 C1603 1.386 . S
C1602 C1604 1.391 . S
C1603 C1602 1.386 . S
C1603 C1607 1.393 . S
C1604 H1593 0.950 . S
C1604 C1602 1.391 . S
C1604 C1605 1.400 . S
C1605 C1599 1.491 . S
C1605 C1604 1.400 . S
C1605 C1606 1.398 . S
C1606 H1594 0.950 . S
C1606 C1605 1.398 . S
C1606 C1607 1.391 . S
C1607 H1595 0.950 . S
C1607 C1603 1.393 . S
C1607 C1606 1.391 . S
H1608 C1616 0.950 . S
H1609 C1621 0.950 . S
H1610 C1618 0.950 . S
H1611 C1620 0.950 . S
H1612 C1622 0.950 . S
H1613 C1624 0.950 . S
H1614 C1626 0.950 . S
H1615 C1627 0.950 . S
C1616 H1608 0.950 . S
C1616 C1617 1.386 . S
C1616 C1618 1.391 . S
C1617 C1616 1.386 . S
C1617 C1621 1.393 . S
C1618 H1610 0.950 . S
C1618 C1616 1.391 . S
C1618 C1619 1.400 . S
C1619 C1618 1.400 . S
C1619 C1620 1.398 . S
C1619 C1625 1.491 . S
C1620 H1611 0.950 . S
C1620 C1619 1.398 . S
C1620 C1621 1.391 . S
C1621 H1609 0.950 . S
C1621 C1617 1.393 . S
C1621 C1620 1.391 . S
C1622 H1612 0.950 . S
C1622 C1623 1.386 . S
C1622 C1624 1.391 . S
C1623 C1622 1.386 . S
C1623 C1627 1.393 . S
C1624 H1613 0.950 . S
C1624 C1622 1.391 . S
C1624 C1625 1.400 . S
C1625 C1619 1.491 . S
C1625 C1624 1.400 . S
C1625 C1626 1.398 . S
C1626 H1614 0.950 . S
C1626 C1625 1.398 . S
C1626 C1627 1.391 . S
C1627 H1615 0.950 . S
C1627 C1623 1.393 . S
C1627 C1626 1.391 . S
H1628 C1636 0.950 . S
H1629 C1641 0.950 . S
H1630 C1638 0.950 . S
H1631 C1640 0.950 . S
H1632 C1642 0.950 . S
H1633 C1644 0.950 . S
H1634 C1646 0.950 . S
H1635 C1647 0.950 . S
C1636 H1628 0.950 . S
C1636 C1637 1.386 . S
C1636 C1638 1.391 1_455 S
C1637 C1636 1.386 . S
C1637 C1641 1.393 . S
C1638 H1630 0.950 . S
C1638 C1636 1.391 1_655 S
C1638 C1639 1.400 . S
C1639 C1638 1.400 . S
C1639 C1640 1.398 1_655 S
C1639 C1645 1.491 . S
C1640 H1631 0.950 . S
C1640 C1639 1.398 1_455 S
C1640 C1641 1.391 . S
C1641 H1629 0.950 . S
C1641 C1637 1.393 . S
C1641 C1640 1.391 . S
C1642 H1632 0.950 . S
C1642 C1643 1.386 . S
C1642 C1644 1.391 . S
C1643 C1642 1.386 . S
C1643 C1647 1.393 . S
C1644 H1633 0.950 . S
C1644 C1642 1.391 . S
C1644 C1645 1.400 . S
C1645 C1639 1.491 . S
C1645 C1644 1.400 . S
C1645 C1646 1.398 . S
C1646 H1634 0.950 . S
C1646 C1645 1.398 . S
C1646 C1647 1.391 . S
C1647 H1635 0.950 . S
C1647 C1643 1.393 . S
C1647 C1646 1.391 . S
H1648 C1656 0.950 . S
H1649 C1661 0.950 . S
H1650 C1658 0.950 . S
H1651 C1660 0.950 . S
H1652 C1662 0.950 . S
H1653 C1664 0.950 . S
H1654 C1666 0.950 . S
H1655 C1667 0.950 . S
C1656 H1648 0.950 . S
C1656 C1657 1.386 . S
C1656 C1658 1.391 . S
C1657 C1656 1.386 . S
C1657 C1661 1.393 . S
C1658 H1650 0.950 . S
C1658 C1656 1.391 . S
C1658 C1659 1.400 . S
C1659 C1658 1.400 . S
C1659 C1660 1.398 . S
C1659 C1665 1.491 . S
C1660 H1651 0.950 . S
C1660 C1659 1.398 . S
C1660 C1661 1.391 . S
C1661 H1649 0.950 . S
C1661 C1657 1.393 . S
C1661 C1660 1.391 . S
C1662 H1652 0.950 . S
C1662 C1663 1.386 . S
C1662 C1664 1.391 . S
C1663 C1662 1.386 . S
C1663 C1667 1.393 . S
C1664 H1653 0.950 . S
C1664 C1662 1.391 . S
C1664 C1665 1.400 . S
C1665 C1659 1.491 . S
C1665 C1664 1.400 . S
C1665 C1666 1.398 . S
C1666 H1654 0.950 . S
C1666 C1665 1.398 . S
C1666 C1667 1.391 . S
C1667 H1655 0.950 . S
C1667 C1663 1.393 . S
C1667 C1666 1.391 . S
H1668 C1676 0.950 . S
H1669 C1681 0.950 . S
H1670 C1678 0.950 . S
H1671 C1680 0.950 . S
H1672 C1682 0.950 . S
H1673 C1684 0.950 . S
H1674 C1686 0.950 . S
H1675 C1687 0.950 . S
C1676 H1668 0.950 . S
C1676 C1677 1.386 . S
C1676 C1678 1.391 . S
C1677 C1676 1.386 . S
C1677 C1681 1.393 . S
C1678 H1670 0.950 . S
C1678 C1676 1.391 . S
C1678 C1679 1.400 . S
C1679 C1678 1.400 . S
C1679 C1680 1.398 . S
C1679 C1685 1.491 . S
C1680 H1671 0.950 . S
C1680 C1679 1.398 . S
C1680 C1681 1.391 . S
C1681 H1669 0.950 . S
C1681 C1677 1.393 . S
C1681 C1680 1.391 . S
C1682 H1672 0.950 . S
C1682 C1683 1.386 . S
C1682 C1684 1.391 1_455 S
C1683 C1682 1.386 . S
C1683 C1687 1.393 . S
C1684 H1673 0.950 . S
C1684 C1682 1.391 1_655 S
C1684 C1685 1.400 . S
C1685 C1679 1.491 . S
C1685 C1684 1.400 . S
C1685 C1686 1.398 1_655 S
C1686 H1674 0.950 . S
C1686 C1685 1.398 1_455 S
C1686 C1687 1.391 . S
C1687 H1675 0.950 . S
C1687 C1683 1.393 . S
C1687 C1686 1.391 . S
H1688 C1696 0.950 . S
H1689 C1701 0.950 . S
H1690 C1698 0.950 . S
H1691 C1700 0.950 . S
H1692 C1702 0.950 . S
H1693 C1704 0.950 . S
H1694 C1706 0.950 . S
H1695 C1707 0.950 . S
C1696 H1688 0.950 . S
C1696 C1697 1.386 . S
C1696 C1698 1.391 . S
C1697 C1696 1.386 . S
C1697 C1701 1.393 . S
C1698 H1690 0.950 . S
C1698 C1696 1.391 . S
C1698 C1699 1.400 . S
C1699 C1698 1.400 . S
C1699 C1700 1.398 . S
C1699 C1705 1.491 . S
C1700 H1691 0.950 . S
C1700 C1699 1.398 . S
C1700 C1701 1.391 . S
C1701 H1689 0.950 . S
C1701 C1697 1.393 . S
C1701 C1700 1.391 . S
C1702 H1692 0.950 . S
C1702 C1703 1.386 . S
C1702 C1704 1.391 . S
C1703 C1702 1.386 . S
C1703 C1707 1.393 . S
C1704 H1693 0.950 . S
C1704 C1702 1.391 . S
C1704 C1705 1.400 . S
C1705 C1699 1.491 . S
C1705 C1704 1.400 . S
C1705 C1706 1.398 . S
C1706 H1694 0.950 . S
C1706 C1705 1.398 . S
C1706 C1707 1.391 . S
C1707 H1695 0.950 . S
C1707 C1703 1.393 . S
C1707 C1706 1.391 . S
H1708 C1716 0.950 . S
H1709 C1721 0.950 . S
H1710 C1718 0.950 . S
H1711 C1720 0.950 . S
H1712 C1722 0.950 . S
H1713 C1724 0.950 . S
H1714 C1726 0.950 . S
H1715 C1727 0.950 . S
C1716 H1708 0.950 . S
C1716 C1717 1.386 . S
C1716 C1718 1.391 . S
C1717 C1716 1.386 . S
C1717 C1721 1.393 . S
C1718 H1710 0.950 . S
C1718 C1716 1.391 . S
C1718 C1719 1.400 . S
C1719 C1718 1.400 . S
C1719 C1720 1.398 . S
C1719 C1725 1.491 . S
C1720 H1711 0.950 . S
C1720 C1719 1.398 . S
C1720 C1721 1.391 . S
C1721 H1709 0.950 . S
C1721 C1717 1.393 . S
C1721 C1720 1.391 . S
C1722 H1712 0.950 . S
C1722 C1723 1.386 . S
C1722 C1724 1.391 . S
C1723 C1722 1.386 . S
C1723 C1727 1.393 . S
C1724 H1713 0.950 . S
C1724 C1722 1.391 . S
C1724 C1725 1.400 . S
C1725 C1719 1.491 . S
C1725 C1724 1.400 . S
C1725 C1726 1.398 . S
C1726 H1714 0.950 . S
C1726 C1725 1.398 . S
C1726 C1727 1.391 . S
C1727 H1715 0.950 . S
C1727 C1723 1.393 . S
C1727 C1726 1.391 . S
H1728 C1736 0.950 . S
H1729 C1741 0.950 . S
H1730 C1738 0.950 . S
H1731 C1740 0.950 . S
H1732 C1742 0.950 . S
H1733 C1744 0.950 . S
H1734 C1746 0.950 . S
H1735 C1747 0.950 . S
C1736 H1728 0.950 . S
C1736 C1737 1.386 . S
C1736 C1738 1.391 . S
C1737 C1736 1.386 . S
C1737 C1741 1.393 . S
C1738 H1730 0.950 . S
C1738 C1736 1.391 . S
C1738 C1739 1.400 . S
C1739 C1738 1.400 . S
C1739 C1740 1.398 . S
C1739 C1745 1.491 1_455 S
C1740 H1731 0.950 . S
C1740 C1739 1.398 . S
C1740 C1741 1.391 . S
C1741 H1729 0.950 . S
C1741 C1737 1.393 . S
C1741 C1740 1.391 . S
C1742 H1732 0.950 . S
C1742 C1743 1.386 . S
C1742 C1744 1.391 . S
C1743 C1742 1.386 . S
C1743 C1747 1.393 . S
C1744 H1733 0.950 . S
C1744 C1742 1.391 . S
C1744 C1745 1.400 . S
C1745 C1739 1.491 1_655 S
C1745 C1744 1.400 . S
C1745 C1746 1.398 . S
C1746 H1734 0.950 . S
C1746 C1745 1.398 . S
C1746 C1747 1.391 . S
C1747 H1735 0.950 . S
C1747 C1743 1.393 . S
C1747 C1746 1.391 . S
H1748 C1756 0.950 . S
H1749 C1761 0.950 . S
H1750 C1758 0.950 . S
H1751 C1760 0.950 . S
H1752 C1762 0.950 . S
H1753 C1764 0.950 . S
H1754 C1766 0.950 . S
H1755 C1767 0.950 . S
C1756 H1748 0.950 . S
C1756 C1757 1.386 . S
C1756 C1758 1.391 . S
C1757 C1756 1.386 . S
C1757 C1761 1.393 . S
C1758 H1750 0.950 . S
C1758 C1756 1.391 . S
C1758 C1759 1.400 . S
C1759 C1758 1.400 . S
C1759 C1760 1.398 . S
C1759 C1765 1.491 1_655 S
C1760 H1751 0.950 . S
C1760 C1759 1.398 . S
C1760 C1761 1.391 . S
C1761 H1749 0.950 . S
C1761 C1757 1.393 . S
C1761 C1760 1.391 . S
C1762 H1752 0.950 . S
C1762 C1763 1.386 . S
C1762 C1764 1.391 . S
C1763 C1762 1.386 . S
C1763 C1767 1.393 . S
C1764 H1753 0.950 . S
C1764 C1762 1.391 . S
C1764 C1765 1.400 . S
C1765 C1759 1.491 1_455 S
C1765 C1764 1.400 . S
C1765 C1766 1.398 . S
C1766 H1754 0.950 . S
C1766 C1765 1.398 . S
C1766 C1767 1.391 . S
C1767 H1755 0.950 . S
C1767 C1763 1.393 . S
C1767 C1766 1.391 . S
H1768 C1776 0.950 . S
H1769 C1781 0.950 . S
H1770 C1778 0.950 . S
H1771 C1780 0.950 . S
H1772 C1782 0.950 . S
H1773 C1784 0.950 . S
H1774 C1786 0.950 . S
H1775 C1787 0.950 . S
C1776 H1768 0.950 . S
C1776 C1777 1.386 . S
C1776 C1778 1.391 . S
C1777 C1776 1.386 . S
C1777 C1781 1.393 . S
C1778 H1770 0.950 . S
C1778 C1776 1.391 . S
C1778 C1779 1.400 . S
C1779 C1778 1.400 . S
C1779 C1780 1.398 . S
C1779 C1785 1.491 . S
C1780 H1771 0.950 . S
C1780 C1779 1.398 . S
C1780 C1781 1.391 . S
C1781 H1769 0.950 . S
C1781 C1777 1.393 . S
C1781 C1780 1.391 . S
C1782 H1772 0.950 . S
C1782 C1783 1.386 . S
C1782 C1784 1.391 . S
C1783 C1782 1.386 . S
C1783 C1787 1.393 . S
C1784 H1773 0.950 . S
C1784 C1782 1.391 . S
C1784 C1785 1.400 . S
C1785 C1779 1.491 . S
C1785 C1784 1.400 . S
C1785 C1786 1.398 . S
C1786 H1774 0.950 . S
C1786 C1785 1.398 . S
C1786 C1787 1.391 . S
C1787 H1775 0.950 . S
C1787 C1783 1.393 . S
C1787 C1786 1.391 . S
H1788 C1796 0.950 . S
H1789 C1801 0.950 . S
H1790 C1798 0.950 . S
H1791 C1800 0.950 . S
H1792 C1802 0.950 . S
H1793 C1804 0.950 . S
H1794 C1806 0.950 . S
H1795 C1807 0.950 . S
C1796 H1788 0.950 . S
C1796 C1797 1.386 . S
C1796 C1798 1.391 . S
C1797 C1796 1.386 . S
C1797 C1801 1.393 1_554 S
C1798 H1790 0.950 . S
C1798 C1796 1.391 . S
C1798 C1799 1.400 . S
C1799 C1798 1.400 . S
C1799 C1800 1.398 1_554 S
C1799 C1805 1.491 . S
C1800 H1791 0.950 . S
C1800 C1799 1.398 1_556 S
C1800 C1801 1.391 . S
C1801 H1789 0.950 . S
C1801 C1797 1.393 1_556 S
C1801 C1800 1.391 . S
C1802 H1792 0.950 . S
C1802 C1803 1.386 1_556 S
C1802 C1804 1.391 . S
C1803 C1802 1.386 1_554 S
C1803 C1807 1.393 . S
C1804 H1793 0.950 . S
C1804 C1802 1.391 . S
C1804 C1805 1.400 1_556 S
C1805 C1799 1.491 . S
C1805 C1804 1.400 1_554 S
C1805 C1806 1.398 . S
C1806 H1794 0.950 . S
C1806 C1805 1.398 . S
C1806 C1807 1.391 . S
C1807 H1795 0.950 . S
C1807 C1803 1.393 . S
C1807 C1806 1.391 . S
H1808 C1816 0.950 . S
H1809 C1821 0.950 . S
H1810 C1818 0.950 . S
H1811 C1820 0.950 1_455 S
H1812 C1822 0.950 . S
H1813 C1824 0.950 . S
H1814 C1826 0.950 1_655 S
H1815 C1827 0.950 . S
C1816 H1808 0.950 . S
C1816 C1817 1.386 . S
C1816 C1818 1.391 . S
C1817 C1816 1.386 . S
C1817 C1821 1.393 . S
C1818 H1810 0.950 . S
C1818 C1816 1.391 . S
C1818 C1819 1.400 . S
C1819 C1818 1.400 . S
C1819 C1820 1.398 . S
C1819 C1825 1.491 1_655 S
C1820 H1811 0.950 1_655 S
C1820 C1819 1.398 . S
C1820 C1821 1.391 . S
C1821 H1809 0.950 . S
C1821 C1817 1.393 . S
C1821 C1820 1.391 . S
C1822 H1812 0.950 . S
C1822 C1823 1.386 . S
C1822 C1824 1.391 . S
C1823 C1822 1.386 . S
C1823 C1827 1.393 . S
C1824 H1813 0.950 . S
C1824 C1822 1.391 . S
C1824 C1825 1.400 . S
C1825 C1819 1.491 1_455 S
C1825 C1824 1.400 . S
C1825 C1826 1.398 . S
C1826 H1814 0.950 1_455 S
C1826 C1825 1.398 . S
C1826 C1827 1.391 . S
C1827 H1815 0.950 . S
C1827 C1823 1.393 . S
C1827 C1826 1.391 . S
H1828 C1836 0.950 . S
H1829 C1841 0.950 . S
H1830 C1838 0.950 . S
H1831 C1840 0.950 . S
H1832 C1842 0.950 . S
H1833 C1844 0.950 . S
H1834 C1846 0.950 . S
H1835 C1847 0.950 . S
C1836 H1828 0.950 . S
C1836 C1837 1.386 . S
C1836 C1838 1.391 . S
C1837 C1836 1.386 . S
C1837 C1841 1.393 . S
C1838 H1830 0.950 . S
C1838 C1836 1.391 . S
C1838 C1839 1.400 . S
C1839 C1838 1.400 . S
C1839 C1840 1.398 . S
C1839 C1845 1.491 . S
C1840 H1831 0.950 . S
C1840 C1839 1.398 . S
C1840 C1841 1.391 . S
C1841 H1829 0.950 . S
C1841 C1837 1.393 . S
C1841 C1840 1.391 . S
C1842 H1832 0.950 . S
C1842 C1843 1.386 . S
C1842 C1844 1.391 . S
C1843 C1842 1.386 . S
C1843 C1847 1.393 . S
C1844 H1833 0.950 . S
C1844 C1842 1.391 . S
C1844 C1845 1.400 . S
C1845 C1839 1.491 . S
C1845 C1844 1.400 . S
C1845 C1846 1.398 . S
C1846 H1834 0.950 . S
C1846 C1845 1.398 . S
C1846 C1847 1.391 . S
C1847 H1835 0.950 . S
C1847 C1843 1.393 . S
C1847 C1846 1.391 . S
H1848 C1856 0.950 . S
H1849 C1861 0.950 . S
H1850 C1858 0.950 . S
H1851 C1860 0.950 . S
H1852 C1862 0.950 . S
H1853 C1864 0.950 . S
H1854 C1866 0.950 . S
H1855 C1867 0.950 . S
C1856 H1848 0.950 . S
C1856 C1857 1.386 . S
C1856 C1858 1.391 . S
C1857 C1856 1.386 . S
C1857 C1861 1.393 . S
C1858 H1850 0.950 . S
C1858 C1856 1.391 . S
C1858 C1859 1.400 . S
C1859 C1858 1.400 . S
C1859 C1860 1.398 . S
C1859 C1865 1.491 . S
C1860 H1851 0.950 . S
C1860 C1859 1.398 . S
C1860 C1861 1.391 . S
C1861 H1849 0.950 . S
C1861 C1857 1.393 . S
C1861 C1860 1.391 . S
C1862 H1852 0.950 . S
C1862 C1863 1.386 . S
C1862 C1864 1.391 . S
C1863 C1862 1.386 . S
C1863 C1867 1.393 . S
C1864 H1853 0.950 . S
C1864 C1862 1.391 . S
C1864 C1865 1.400 . S
C1865 C1859 1.491 . S
C1865 C1864 1.400 . S
C1865 C1866 1.398 . S
C1866 H1854 0.950 . S
C1866 C1865 1.398 . S
C1866 C1867 1.391 . S
C1867 H1855 0.950 . S
C1867 C1863 1.393 . S
C1867 C1866 1.391 . S
H1868 C1876 0.950 . S
H1869 C1881 0.950 . S
H1870 C1878 0.950 . S
H1871 C1880 0.950 1_655 S
H1872 C1882 0.950 . S
H1873 C1884 0.950 . S
H1874 C1886 0.950 1_455 S
H1875 C1887 0.950 . S
C1876 H1868 0.950 . S
C1876 C1877 1.386 . S
C1876 C1878 1.391 . S
C1877 C1876 1.386 . S
C1877 C1881 1.393 1_556 S
C1878 H1870 0.950 . S
C1878 C1876 1.391 . S
C1878 C1879 1.400 . S
C1879 C1878 1.400 . S
C1879 C1880 1.398 1_556 S
C1879 C1885 1.491 1_455 S
C1880 H1871 0.950 1_455 S
C1880 C1879 1.398 1_554 S
C1880 C1881 1.391 . S
C1881 H1869 0.950 . S
C1881 C1877 1.393 1_554 S
C1881 C1880 1.391 . S
C1882 H1872 0.950 . S
C1882 C1883 1.386 1_554 S
C1882 C1884 1.391 . S
C1883 C1882 1.386 1_556 S
C1883 C1887 1.393 . S
C1884 H1873 0.950 . S
C1884 C1882 1.391 . S
C1884 C1885 1.400 1_554 S
C1885 C1879 1.491 1_655 S
C1885 C1884 1.400 1_556 S
C1885 C1886 1.398 . S
C1886 H1874 0.950 1_655 S
C1886 C1885 1.398 . S
C1886 C1887 1.391 . S
C1887 H1875 0.950 . S
C1887 C1883 1.393 . S
C1887 C1886 1.391 . S
H1888 C1896 0.950 . S
H1889 C1901 0.950 . S
H1890 C1898 0.917 1_655 S
H1891 C1900 0.950 . S
H1892 C1902 0.950 . S
H1893 C1904 0.917 1_455 S
H1894 C1906 0.950 . S
H1895 C1907 0.950 . S
C1896 H1888 0.950 . S
C1896 C1897 1.386 . S
C1896 C1898 1.391 . S
C1897 C1896 1.386 . S
C1897 C1901 1.393 . S
C1898 H1890 0.917 1_455 S
C1898 C1896 1.391 . S
C1898 C1899 1.400 . S
C1899 C1898 1.400 . S
C1899 C1900 1.398 . S
C1899 C1905 1.491 1_455 S
C1900 H1891 0.950 . S
C1900 C1899 1.398 . S
C1900 C1901 1.391 . S
C1901 H1889 0.950 . S
C1901 C1897 1.393 . S
C1901 C1900 1.391 . S
C1902 H1892 0.950 . S
C1902 C1903 1.386 . S
C1902 C1904 1.391 . S
C1903 C1902 1.386 . S
C1903 C1907 1.393 . S
C1904 H1893 0.917 1_655 S
C1904 C1902 1.391 . S
C1904 C1905 1.400 . S
C1905 C1899 1.491 1_655 S
C1905 C1904 1.400 . S
C1905 C1906 1.398 . S
C1906 H1894 0.950 . S
C1906 C1905 1.398 . S
C1906 C1907 1.391 . S
C1907 H1895 0.950 . S
C1907 C1903 1.393 . S
C1907 C1906 1.391 . S
H1908 C1916 0.950 . S
H1909 C1921 0.950 . S
H1910 C1918 0.950 . S
H1911 C1920 0.950 . S
H1912 C1922 0.950 . S
H1913 C1924 0.950 . S
H1914 C1926 0.950 . S
H1915 C1927 0.950 . S
C1916 H1908 0.950 . S
C1916 C1917 1.386 . S
C1916 C1918 1.391 . S
C1917 C1916 1.386 . S
C1917 C1921 1.393 . S
C1918 H1910 0.950 . S
C1918 C1916 1.391 . S
C1918 C1919 1.400 . S
C1919 C1918 1.400 . S
C1919 C1920 1.398 1_655 S
C1919 C1925 1.491 1_655 S
C1920 H1911 0.950 . S
C1920 C1919 1.398 1_455 S
C1920 C1921 1.391 1_455 S
C1921 H1909 0.950 . S
C1921 C1917 1.393 . S
C1921 C1920 1.391 1_655 S
C1922 H1912 0.950 . S
C1922 C1923 1.386 . S
C1922 C1924 1.391 . S
C1923 C1922 1.386 . S
C1923 C1927 1.393 . S
C1924 H1913 0.950 . S
C1924 C1922 1.391 . S
C1924 C1925 1.400 . S
C1925 C1919 1.491 1_455 S
C1925 C1924 1.400 . S
C1925 C1926 1.398 1_455 S
C1926 H1914 0.950 . S
C1926 C1925 1.398 1_655 S
C1926 C1927 1.391 1_655 S
C1927 H1915 0.950 . S
C1927 C1923 1.393 . S
C1927 C1926 1.391 1_455 S
H1928 C1936 0.950 . S
H1929 C1941 0.950 . S
H1930 C1938 0.950 . S
H1931 C1940 0.950 . S
H1932 C1942 0.950 . S
H1933 C1944 0.950 . S
H1934 C1946 0.950 . S
H1935 C1947 0.950 . S
C1936 H1928 0.950 . S
C1936 C1937 1.386 . S
C1936 C1938 1.391 . S
C1937 C1936 1.386 . S
C1937 C1941 1.393 . S
C1938 H1930 0.950 . S
C1938 C1936 1.391 . S
C1938 C1939 1.400 . S
C1939 C1938 1.400 . S
C1939 C1940 1.398 . S
C1939 C1945 1.491 . S
C1940 H1931 0.950 . S
C1940 C1939 1.398 . S
C1940 C1941 1.391 . S
C1941 H1929 0.950 . S
C1941 C1937 1.393 . S
C1941 C1940 1.391 . S
C1942 H1932 0.950 . S
C1942 C1943 1.386 . S
C1942 C1944 1.391 . S
C1943 C1942 1.386 . S
C1943 C1947 1.393 . S
C1944 H1933 0.950 . S
C1944 C1942 1.391 . S
C1944 C1945 1.400 . S
C1945 C1939 1.491 . S
C1945 C1944 1.400 . S
C1945 C1946 1.398 . S
C1946 H1934 0.950 . S
C1946 C1945 1.398 . S
C1946 C1947 1.391 . S
C1947 H1935 0.950 . S
C1947 C1943 1.393 . S
C1947 C1946 1.391 . S
H1948 C1956 0.950 . S
H1949 C1961 0.950 . S
H1950 C1958 0.950 . S
H1951 C1960 0.950 . S
H1952 C1962 0.950 . S
H1953 C1964 0.950 . S
H1954 C1966 0.950 . S
H1955 C1967 0.950 . S
C1956 H1948 0.950 . S
C1956 C1957 1.386 . S
C1956 C1958 1.391 . S
C1957 C1956 1.386 . S
C1957 C1961 1.393 . S
C1958 H1950 0.950 . S
C1958 C1956 1.391 . S
C1958 C1959 1.400 . S
C1959 C1958 1.400 . S
C1959 C1960 1.398 . S
C1959 C1965 1.491 . S
C1960 H1951 0.950 . S
C1960 C1959 1.398 . S
C1960 C1961 1.391 . S
C1961 H1949 0.950 . S
C1961 C1957 1.393 . S
C1961 C1960 1.391 . S
C1962 H1952 0.950 . S
C1962 C1963 1.386 . S
C1962 C1964 1.391 . S
C1963 C1962 1.386 . S
C1963 C1967 1.393 . S
C1964 H1953 0.950 . S
C1964 C1962 1.391 . S
C1964 C1965 1.400 . S
C1965 C1959 1.491 . S
C1965 C1964 1.400 . S
C1965 C1966 1.398 . S
C1966 H1954 0.950 . S
C1966 C1965 1.398 . S
C1966 C1967 1.391 . S
C1967 H1955 0.950 . S
C1967 C1963 1.393 . S
C1967 C1966 1.391 . S
H1968 C1976 0.950 . S
H1969 C1981 0.950 . S
H1970 C1978 0.950 . S
H1971 C1980 0.950 . S
H1972 C1982 0.950 . S
H1973 C1984 0.950 . S
H1974 C1986 0.950 . S
H1975 C1987 0.950 . S
C1976 H1968 0.950 . S
C1976 C1977 1.386 . S
C1976 C1978 1.391 . S
C1977 C1976 1.386 . S
C1977 C1981 1.393 . S
C1978 H1970 0.950 . S
C1978 C1976 1.391 . S
C1978 C1979 1.400 . S
C1979 C1978 1.400 . S
C1979 C1980 1.398 . S
C1979 C1985 1.491 1_455 S
C1980 H1971 0.950 . S
C1980 C1979 1.398 . S
C1980 C1981 1.391 . S
C1981 H1969 0.950 . S
C1981 C1977 1.393 . S
C1981 C1980 1.391 . S
C1982 H1972 0.950 . S
C1982 C1983 1.386 . S
C1982 C1984 1.391 . S
C1983 C1982 1.386 . S
C1983 C1987 1.393 . S
C1984 H1973 0.950 . S
C1984 C1982 1.391 . S
C1984 C1985 1.400 . S
C1985 C1979 1.491 1_655 S
C1985 C1984 1.400 . S
C1985 C1986 1.398 . S
C1986 H1974 0.950 . S
C1986 C1985 1.398 . S
C1986 C1987 1.391 . S
C1987 H1975 0.950 . S
C1987 C1983 1.393 . S
C1987 C1986 1.391 . S
H1988 C1996 0.950 . S
H1989 C2001 0.950 . S
H1990 C1998 0.950 . S
H1991 C2000 0.950 . S
H1992 C2002 0.950 . S
H1993 C2004 0.950 . S
H1994 C2006 0.950 . S
H1995 C2007 0.950 . S
C1996 H1988 0.950 . S
C1996 C1997 1.386 . S
C1996 C1998 1.391 . S
C1997 C1996 1.386 . S
C1997 C2001 1.393 . S
C1998 H1990 0.950 . S
C1998 C1996 1.391 . S
C1998 C1999 1.400 . S
C1999 C1998 1.400 . S
C1999 C2000 1.398 . S
C1999 C2005 1.491 . S
C2000 H1991 0.950 . S
C2000 C1999 1.398 . S
C2000 C2001 1.391 . S
C2001 H1989 0.950 . S
C2001 C1997 1.393 . S
C2001 C2000 1.391 . S
C2002 H1992 0.950 . S
C2002 C2003 1.386 . S
C2002 C2004 1.391 . S
C2003 C2002 1.386 . S
C2003 C2007 1.393 . S
C2004 H1993 0.950 . S
C2004 C2002 1.391 . S
C2004 C2005 1.400 . S
C2005 C1999 1.491 . S
C2005 C2004 1.400 . S
C2005 C2006 1.398 . S
C2006 H1994 0.950 . S
C2006 C2005 1.398 . S
C2006 C2007 1.391 . S
C2007 H1995 0.950 . S
C2007 C2003 1.393 . S
C2007 C2006 1.391 . S
H2008 C2016 0.950 . S
H2009 C2021 0.950 . S
H2010 C2018 0.950 . S
H2011 C2020 0.950 . S
H2012 C2022 0.950 . S
H2013 C2024 0.950 . S
H2014 C2026 0.950 . S
H2015 C2027 0.950 . S
C2016 H2008 0.950 . S
C2016 C2017 1.386 . S
C2016 C2018 1.391 . S
C2017 C2016 1.386 . S
C2017 C2021 1.393 . S
C2018 H2010 0.950 . S
C2018 C2016 1.391 . S
C2018 C2019 1.400 . S
C2019 C2018 1.400 . S
C2019 C2020 1.398 . S
C2019 C2025 1.491 . S
C2020 H2011 0.950 . S
C2020 C2019 1.398 . S
C2020 C2021 1.391 . S
C2021 H2009 0.950 . S
C2021 C2017 1.393 . S
C2021 C2020 1.391 . S
C2022 H2012 0.950 . S
C2022 C2023 1.386 . S
C2022 C2024 1.391 . S
C2023 C2022 1.386 . S
C2023 C2027 1.393 . S
C2024 H2013 0.950 . S
C2024 C2022 1.391 . S
C2024 C2025 1.400 . S
C2025 C2019 1.491 . S
C2025 C2024 1.400 . S
C2025 C2026 1.398 . S
C2026 H2014 0.950 . S
C2026 C2025 1.398 . S
C2026 C2027 1.391 . S
C2027 H2015 0.950 . S
C2027 C2023 1.393 . S
C2027 C2026 1.391 . S
H2028 C2036 0.950 . S
H2029 C2041 0.950 1_455 S
H2030 C2038 0.950 . S
H2031 C2040 0.950 . S
H2032 C2042 0.950 . S
H2033 C2044 0.950 . S
H2034 C2046 0.950 . S
H2035 C2047 0.950 1_655 S
C2036 H2028 0.950 . S
C2036 C2037 1.386 . S
C2036 C2038 1.391 . S
C2037 C2036 1.386 . S
C2037 C2041 1.393 . S
C2038 H2030 0.950 . S
C2038 C2036 1.391 . S
C2038 C2039 1.400 . S
C2039 C2038 1.400 . S
C2039 C2040 1.398 1_655 S
C2039 C2045 1.491 1_655 S
C2040 H2031 0.950 . S
C2040 C2039 1.398 1_455 S
C2040 C2041 1.391 1_455 S
C2041 H2029 0.950 1_655 S
C2041 C2037 1.393 . S
C2041 C2040 1.391 1_655 S
C2042 H2032 0.950 . S
C2042 C2043 1.386 . S
C2042 C2044 1.391 . S
C2043 C2042 1.386 . S
C2043 C2047 1.393 . S
C2044 H2033 0.950 . S
C2044 C2042 1.391 . S
C2044 C2045 1.400 . S
C2045 C2039 1.491 1_455 S
C2045 C2044 1.400 . S
C2045 C2046 1.398 1_455 S
C2046 H2034 0.950 . S
C2046 C2045 1.398 1_655 S
C2046 C2047 1.391 1_655 S
C2047 H2035 0.950 1_455 S
C2047 C2043 1.393 . S
C2047 C2046 1.391 1_455 S
H2048 C2056 0.950 . S
H2049 C2061 0.950 . S
H2050 C2058 0.950 . S
H2051 C2060 0.950 . S
H2052 C2062 0.950 . S
H2053 C2064 0.950 . S
H2054 C2066 0.950 . S
H2055 C2067 0.950 . S
C2056 H2048 0.950 . S
C2056 C2057 1.386 . S
C2056 C2058 1.391 . S
C2057 C2056 1.386 . S
C2057 C2061 1.393 . S
C2058 H2050 0.950 . S
C2058 C2056 1.391 . S
C2058 C2059 1.400 . S
C2059 C2058 1.400 . S
C2059 C2060 1.398 . S
C2059 C2065 1.491 . S
C2060 H2051 0.950 . S
C2060 C2059 1.398 . S
C2060 C2061 1.391 . S
C2061 H2049 0.950 . S
C2061 C2057 1.393 . S
C2061 C2060 1.391 . S
C2062 H2052 0.950 . S
C2062 C2063 1.386 . S
C2062 C2064 1.391 . S
C2063 C2062 1.386 . S
C2063 C2067 1.393 . S
C2064 H2053 0.950 . S
C2064 C2062 1.391 . S
C2064 C2065 1.400 . S
C2065 C2059 1.491 . S
C2065 C2064 1.400 . S
C2065 C2066 1.398 . S
C2066 H2054 0.950 . S
C2066 C2065 1.398 . S
C2066 C2067 1.391 . S
C2067 H2055 0.950 . S
C2067 C2063 1.393 . S
C2067 C2066 1.391 . S
H2068 C2076 0.950 . S
H2069 C2081 0.950 . S
H2070 C2078 0.950 1_455 S
H2071 C2080 0.950 . S
H2072 C2082 0.950 . S
H2073 C2084 0.950 1_655 S
H2074 C2086 0.950 . S
H2075 C2087 0.950 . S
C2076 H2068 0.950 . S
C2076 C2077 1.386 . S
C2076 C2078 1.391 . S
C2077 C2076 1.386 . S
C2077 C2081 1.393 . S
C2078 H2070 0.950 1_655 S
C2078 C2076 1.391 . S
C2078 C2079 1.400 . S
C2079 C2078 1.400 . S
C2079 C2080 1.398 . S
C2079 C2085 1.491 1_645 S
C2080 H2071 0.950 . S
C2080 C2079 1.398 . S
C2080 C2081 1.391 . S
C2081 H2069 0.950 . S
C2081 C2077 1.393 . S
C2081 C2080 1.391 . S
C2082 H2072 0.950 . S
C2082 C2083 1.386 . S
C2082 C2084 1.391 . S
C2083 C2082 1.386 . S
C2083 C2087 1.393 . S
C2084 H2073 0.950 1_455 S
C2084 C2082 1.391 . S
C2084 C2085 1.400 . S
C2085 C2079 1.491 1_465 S
C2085 C2084 1.400 . S
C2085 C2086 1.398 . S
C2086 H2074 0.950 . S
C2086 C2085 1.398 . S
C2086 C2087 1.391 . S
C2087 H2075 0.950 . S
C2087 C2083 1.393 . S
C2087 C2086 1.391 . S
H2088 C2096 0.950 . S
H2089 C2101 0.950 . S
H2090 C2098 0.950 . S
H2091 C2100 0.950 . S
H2092 C2102 0.950 . S
H2093 C2104 0.950 . S
H2094 C2106 0.950 . S
H2095 C2107 0.950 . S
C2096 H2088 0.950 . S
C2096 C2097 1.386 . S
C2096 C2098 1.391 . S
C2097 C2096 1.386 . S
C2097 C2101 1.393 . S
C2098 H2090 0.950 . S
C2098 C2096 1.391 . S
C2098 C2099 1.400 . S
C2099 C2098 1.400 . S
C2099 C2100 1.398 . S
C2099 C2105 1.491 . S
C2100 H2091 0.950 . S
C2100 C2099 1.398 . S
C2100 C2101 1.391 . S
C2101 H2089 0.950 . S
C2101 C2097 1.393 . S
C2101 C2100 1.391 . S
C2102 H2092 0.950 . S
C2102 C2103 1.386 . S
C2102 C2104 1.391 . S
C2103 C2102 1.386 . S
C2103 C2107 1.393 . S
C2104 H2093 0.950 . S
C2104 C2102 1.391 . S
C2104 C2105 1.400 . S
C2105 C2099 1.491 . S
C2105 C2104 1.400 . S
C2105 C2106 1.398 . S
C2106 H2094 0.950 . S
C2106 C2105 1.398 . S
C2106 C2107 1.391 . S
C2107 H2095 0.950 . S
C2107 C2103 1.393 . S
C2107 C2106 1.391 . S
H2108 C2116 0.960 . S
H2109 C2121 0.950 . S
H2110 C2118 0.950 . S
H2111 C2120 0.950 . S
H2112 C2122 0.960 . S
H2113 C2124 0.950 . S
H2114 C2126 0.950 . S
H2115 C2127 0.950 . S
C2116 H2108 0.960 . S
C2116 C2117 1.370 1_556 S
C2116 C2118 1.397 . S
C2117 C2116 1.370 1_554 S
C2117 C2121 1.393 . S
C2118 H2110 0.950 . S
C2118 C2116 1.397 . S
C2118 C2119 1.400 1_556 S
C2119 C2118 1.400 1_554 S
C2119 C2120 1.398 . S
C2119 C2125 1.491 1_544 S
C2120 H2111 0.950 . S
C2120 C2119 1.398 . S
C2120 C2121 1.391 . S
C2121 H2109 0.950 . S
C2121 C2117 1.393 . S
C2121 C2120 1.391 . S
C2122 H2112 0.960 . S
C2122 C2123 1.370 1_554 S
C2122 C2124 1.397 . S
C2123 C2122 1.370 1_556 S
C2123 C2127 1.393 . S
C2124 H2113 0.950 . S
C2124 C2122 1.397 . S
C2124 C2125 1.400 1_554 S
C2125 C2119 1.491 1_566 S
C2125 C2124 1.400 1_556 S
C2125 C2126 1.398 . S
C2126 H2114 0.950 . S
C2126 C2125 1.398 . S
C2126 C2127 1.391 . S
C2127 H2115 0.950 . S
C2127 C2123 1.393 . S
C2127 C2126 1.391 . S
H2128 C2136 0.950 . S
H2129 C2141 0.950 . S
H2130 C2138 0.950 . S
H2131 C2140 0.950 . S
H2132 C2142 0.950 . S
H2133 C2144 0.950 . S
H2134 C2146 0.950 . S
H2135 C2147 0.950 . S
C2136 H2128 0.950 . S
C2136 C2137 1.386 . S
C2136 C2138 1.391 . S
C2137 C2136 1.386 . S
C2137 C2141 1.393 . S
C2138 H2130 0.950 . S
C2138 C2136 1.391 . S
C2138 C2139 1.400 . S
C2139 C2138 1.400 . S
C2139 C2140 1.398 . S
C2139 C2145 1.491 . S
C2140 H2131 0.950 . S
C2140 C2139 1.398 . S
C2140 C2141 1.391 . S
C2141 H2129 0.950 . S
C2141 C2137 1.393 . S
C2141 C2140 1.391 . S
C2142 H2132 0.950 . S
C2142 C2143 1.386 . S
C2142 C2144 1.391 . S
C2143 C2142 1.386 . S
C2143 C2147 1.393 . S
C2144 H2133 0.950 . S
C2144 C2142 1.391 . S
C2144 C2145 1.400 . S
C2145 C2139 1.491 . S
C2145 C2144 1.400 . S
C2145 C2146 1.398 . S
C2146 H2134 0.950 . S
C2146 C2145 1.398 . S
C2146 C2147 1.391 . S
C2147 H2135 0.950 . S
C2147 C2143 1.393 . S
C2147 C2146 1.391 . S
H2148 C2156 0.950 . S
H2149 C2161 0.950 . S
H2150 C2158 0.950 1_565 S
H2151 C2160 0.950 . S
H2152 C2162 0.950 . S
H2153 C2164 0.950 1_545 S
H2154 C2166 0.950 . S
H2155 C2167 0.950 . S
C2156 H2148 0.950 . S
C2156 C2157 1.386 . S
C2156 C2158 1.391 . S
C2157 C2156 1.386 . S
C2157 C2161 1.393 . S
C2158 H2150 0.950 1_545 S
C2158 C2156 1.391 . S
C2158 C2159 1.400 . S
C2159 C2158 1.400 . S
C2159 C2160 1.398 . S
C2159 C2165 1.491 1_545 S
C2160 H2151 0.950 . S
C2160 C2159 1.398 . S
C2160 C2161 1.391 . S
C2161 H2149 0.950 . S
C2161 C2157 1.393 . S
C2161 C2160 1.391 . S
C2162 H2152 0.950 . S
C2162 C2163 1.386 . S
C2162 C2164 1.391 . S
C2163 C2162 1.386 . S
C2163 C2167 1.393 . S
C2164 H2153 0.950 1_565 S
C2164 C2162 1.391 . S
C2164 C2165 1.400 . S
C2165 C2159 1.491 1_565 S
C2165 C2164 1.400 . S
C2165 C2166 1.398 . S
C2166 H2154 0.950 . S
C2166 C2165 1.398 . S
C2166 C2167 1.391 . S
C2167 H2155 0.950 . S
C2167 C2163 1.393 . S
C2167 C2166 1.391 . S
H2168 C2176 0.950 . S
H2169 C2181 0.950 . S
H2170 C2178 0.950 . S
H2171 C2180 0.950 . S
H2172 C2182 0.950 . S
H2173 C2184 0.950 . S
H2174 C2186 0.950 . S
H2175 C2187 0.950 . S
C2176 H2168 0.950 . S
C2176 C2177 1.386 . S
C2176 C2178 1.391 . S
C2177 C2176 1.386 . S
C2177 C2181 1.393 . S
C2178 H2170 0.950 . S
C2178 C2176 1.391 . S
C2178 C2179 1.400 . S
C2179 C2178 1.400 . S
C2179 C2180 1.398 . S
C2179 C2185 1.491 . S
C2180 H2171 0.950 . S
C2180 C2179 1.398 . S
C2180 C2181 1.391 . S
C2181 H2169 0.950 . S
C2181 C2177 1.393 . S
C2181 C2180 1.391 . S
C2182 H2172 0.950 . S
C2182 C2183 1.386 . S
C2182 C2184 1.391 . S
C2183 C2182 1.386 . S
C2183 C2187 1.393 . S
C2184 H2173 0.950 . S
C2184 C2182 1.391 . S
C2184 C2185 1.400 . S
C2185 C2179 1.491 . S
C2185 C2184 1.400 . S
C2185 C2186 1.398 . S
C2186 H2174 0.950 . S
C2186 C2185 1.398 . S
C2186 C2187 1.391 . S
C2187 H2175 0.950 . S
C2187 C2183 1.393 . S
C2187 C2186 1.391 . S
H2188 C2196 0.950 . S
H2189 C2201 0.950 . S
H2190 C2198 0.950 1_655 S
H2191 C2200 0.936 1_565 S
H2192 C2202 0.950 . S
H2193 C2204 0.950 1_455 S
H2194 C2206 0.936 1_545 S
H2195 C2207 0.950 . S
C2196 H2188 0.950 . S
C2196 C2197 1.386 . S
C2196 C2198 1.391 . S
C2197 C2196 1.386 . S
C2197 C2201 1.393 . S
C2198 H2190 0.950 1_455 S
C2198 C2196 1.391 . S
C2198 C2199 1.400 . S
C2199 C2198 1.400 . S
C2199 C2200 1.407 . S
C2199 C2205 1.491 1_446 S
C2200 H2191 0.936 1_545 S
C2200 C2199 1.407 . S
C2200 C2201 1.409 . S
C2201 H2189 0.950 . S
C2201 C2197 1.393 . S
C2201 C2200 1.409 . S
C2202 H2192 0.950 . S
C2202 C2203 1.386 . S
C2202 C2204 1.391 . S
C2203 C2202 1.386 . S
C2203 C2207 1.393 . S
C2204 H2193 0.950 1_655 S
C2204 C2202 1.391 . S
C2204 C2205 1.400 . S
C2205 C2199 1.491 1_664 S
C2205 C2204 1.400 . S
C2205 C2206 1.407 . S
C2206 H2194 0.936 1_565 S
C2206 C2205 1.407 . S
C2206 C2207 1.409 . S
C2207 H2195 0.950 . S
C2207 C2203 1.393 . S
C2207 C2206 1.409 . S
H2208 C2216 0.950 . S
H2209 C2221 0.950 . S
H2210 C2218 0.950 . S
H2211 C2220 0.950 . S
H2212 C2222 0.950 . S
H2213 C2224 0.950 . S
H2214 C2226 0.950 . S
H2215 C2227 0.950 . S
C2216 H2208 0.950 . S
C2216 C2217 1.386 . S
C2216 C2218 1.391 . S
C2217 C2216 1.386 . S
C2217 C2221 1.393 . S
C2218 H2210 0.950 . S
C2218 C2216 1.391 . S
C2218 C2219 1.400 . S
C2219 C2218 1.400 . S
C2219 C2220 1.398 . S
C2219 C2225 1.491 . S
C2220 H2211 0.950 . S
C2220 C2219 1.398 . S
C2220 C2221 1.391 . S
C2221 H2209 0.950 . S
C2221 C2217 1.393 . S
C2221 C2220 1.391 . S
C2222 H2212 0.950 . S
C2222 C2223 1.386 . S
C2222 C2224 1.391 . S
C2223 C2222 1.386 . S
C2223 C2227 1.393 . S
C2224 H2213 0.950 . S
C2224 C2222 1.391 . S
C2224 C2225 1.400 . S
C2225 C2219 1.491 . S
C2225 C2224 1.400 . S
C2225 C2226 1.398 . S
C2226 H2214 0.950 . S
C2226 C2225 1.398 . S
C2226 C2227 1.391 . S
C2227 H2215 0.950 . S
C2227 C2223 1.393 . S
C2227 C2226 1.391 . S
H2228 C2236 0.950 . S
H2229 C2241 0.950 . S
H2230 C2238 0.950 . S
H2231 C2240 0.950 . S
H2232 C2242 0.950 . S
H2233 C2244 0.950 . S
H2234 C2246 0.950 . S
H2235 C2247 0.950 . S
C2236 H2228 0.950 . S
C2236 C2237 1.386 . S
C2236 C2238 1.391 . S
C2237 C2236 1.386 . S
C2237 C2241 1.393 . S
C2238 H2230 0.950 . S
C2238 C2236 1.391 . S
C2238 C2239 1.400 . S
C2239 C2238 1.400 . S
C2239 C2240 1.398 . S
C2239 C2245 1.491 . S
C2240 H2231 0.950 . S
C2240 C2239 1.398 . S
C2240 C2241 1.391 . S
C2241 H2229 0.950 . S
C2241 C2237 1.393 . S
C2241 C2240 1.391 . S
C2242 H2232 0.950 . S
C2242 C2243 1.386 . S
C2242 C2244 1.391 . S
C2243 C2242 1.386 . S
C2243 C2247 1.393 . S
C2244 H2233 0.950 . S
C2244 C2242 1.391 . S
C2244 C2245 1.400 . S
C2245 C2239 1.491 . S
C2245 C2244 1.400 . S
C2245 C2246 1.398 . S
C2246 H2234 0.950 . S
C2246 C2245 1.398 . S
C2246 C2247 1.391 . S
C2247 H2235 0.950 . S
C2247 C2243 1.393 . S
C2247 C2246 1.391 . S
H2248 C2256 0.950 . S
H2249 C2261 0.950 . S
H2250 C2258 0.950 . S
H2251 C2260 0.950 . S
H2252 C2262 0.950 . S
H2253 C2264 0.950 . S
H2254 C2266 0.950 . S
H2255 C2267 0.950 . S
C2256 H2248 0.950 . S
C2256 C2257 1.386 . S
C2256 C2258 1.391 . S
C2257 C2256 1.386 . S
C2257 C2261 1.393 . S
C2258 H2250 0.950 . S
C2258 C2256 1.391 . S
C2258 C2259 1.400 . S
C2259 C2258 1.400 . S
C2259 C2260 1.398 . S
C2259 C2265 1.491 . S
C2260 H2251 0.950 . S
C2260 C2259 1.398 . S
C2260 C2261 1.391 . S
C2261 H2249 0.950 . S
C2261 C2257 1.393 . S
C2261 C2260 1.391 . S
C2262 H2252 0.950 . S
C2262 C2263 1.386 . S
C2262 C2264 1.391 . S
C2263 C2262 1.386 . S
C2263 C2267 1.393 . S
C2264 H2253 0.950 . S
C2264 C2262 1.391 . S
C2264 C2265 1.400 . S
C2265 C2259 1.491 . S
C2265 C2264 1.400 . S
C2265 C2266 1.398 . S
C2266 H2254 0.950 . S
C2266 C2265 1.398 . S
C2266 C2267 1.391 . S
C2267 H2255 0.950 . S
C2267 C2263 1.393 . S
C2267 C2266 1.391 . S
H2268 C2276 0.950 . S
H2269 C2281 0.950 . S
H2270 C2278 0.950 . S
H2271 C2280 0.950 . S
H2272 C2282 0.950 . S
H2273 C2284 0.950 . S
H2274 C2286 0.950 . S
H2275 C2287 0.950 . S
C2276 H2268 0.950 . S
C2276 C2277 1.386 . S
C2276 C2278 1.391 . S
C2277 C2276 1.386 . S
C2277 C2281 1.393 . S
C2278 H2270 0.950 . S
C2278 C2276 1.391 . S
C2278 C2279 1.400 . S
C2279 C2278 1.400 . S
C2279 C2280 1.398 . S
C2279 C2285 1.491 . S
C2280 H2271 0.950 . S
C2280 C2279 1.398 . S
C2280 C2281 1.391 . S
C2281 H2269 0.950 . S
C2281 C2277 1.393 . S
C2281 C2280 1.391 . S
C2282 H2272 0.950 . S
C2282 C2283 1.386 . S
C2282 C2284 1.391 . S
C2283 C2282 1.386 . S
C2283 C2287 1.393 . S
C2284 H2273 0.950 . S
C2284 C2282 1.391 . S
C2284 C2285 1.400 . S
C2285 C2279 1.491 . S
C2285 C2284 1.400 . S
C2285 C2286 1.398 . S
C2286 H2274 0.950 . S
C2286 C2285 1.398 . S
C2286 C2287 1.391 . S
C2287 H2275 0.950 . S
C2287 C2283 1.393 . S
C2287 C2286 1.391 . S
H2288 C2296 0.950 . S
H2289 C2301 0.950 . S
H2290 C2298 0.950 . S
H2291 C2300 0.950 1_556 S
H2292 C2302 0.950 . S
H2293 C2304 0.950 . S
H2294 C2306 0.950 1_554 S
H2295 C2307 0.950 . S
C2296 H2288 0.950 . S
C2296 C2297 1.386 . S
C2296 C2298 1.391 . S
C2297 C2296 1.386 . S
C2297 C2301 1.393 . S
C2298 H2290 0.950 . S
C2298 C2296 1.391 . S
C2298 C2299 1.400 . S
C2299 C2298 1.400 . S
C2299 C2300 1.398 . S
C2299 C2305 1.491 1_554 S
C2300 H2291 0.950 1_554 S
C2300 C2299 1.398 . S
C2300 C2301 1.391 . S
C2301 H2289 0.950 . S
C2301 C2297 1.393 . S
C2301 C2300 1.391 . S
C2302 H2292 0.950 . S
C2302 C2303 1.386 . S
C2302 C2304 1.391 . S
C2303 C2302 1.386 . S
C2303 C2307 1.393 . S
C2304 H2293 0.950 . S
C2304 C2302 1.391 . S
C2304 C2305 1.400 . S
C2305 C2299 1.491 1_556 S
C2305 C2304 1.400 . S
C2305 C2306 1.398 . S
C2306 H2294 0.950 1_556 S
C2306 C2305 1.398 . S
C2306 C2307 1.391 . S
C2307 H2295 0.950 . S
C2307 C2303 1.393 . S
C2307 C2306 1.391 . S
H2308 C2316 0.950 . S
H2309 C2321 0.950 . S
H2310 C2318 0.950 . S
H2311 C2320 0.950 1_455 S
H2312 C2322 0.950 . S
H2313 C2324 0.950 . S
H2314 C2326 0.950 1_655 S
H2315 C2327 0.950 . S
C2316 H2308 0.950 . S
C2316 C2317 1.386 . S
C2316 C2318 1.391 . S
C2317 C2316 1.386 . S
C2317 C2321 1.393 . S
C2318 H2310 0.950 . S
C2318 C2316 1.391 . S
C2318 C2319 1.400 . S
C2319 C2318 1.400 . S
C2319 C2320 1.398 . S
C2319 C2325 1.491 1_655 S
C2320 H2311 0.950 1_655 S
C2320 C2319 1.398 . S
C2320 C2321 1.391 . S
C2321 H2309 0.950 . S
C2321 C2317 1.393 . S
C2321 C2320 1.391 . S
C2322 H2312 0.950 . S
C2322 C2323 1.386 . S
C2322 C2324 1.391 . S
C2323 C2322 1.386 . S
C2323 C2327 1.393 . S
C2324 H2313 0.950 . S
C2324 C2322 1.391 . S
C2324 C2325 1.400 . S
C2325 C2319 1.491 1_455 S
C2325 C2324 1.400 . S
C2325 C2326 1.398 . S
C2326 H2314 0.950 1_455 S
C2326 C2325 1.398 . S
C2326 C2327 1.391 . S
C2327 H2315 0.950 . S
C2327 C2323 1.393 . S
C2327 C2326 1.391 . S
H2328 C2336 0.950 1_556 S
H2329 C2341 0.950 . S
H2330 C2338 0.950 . S
H2331 C2340 0.950 . S
H2332 C2342 0.950 1_554 S
H2333 C2344 0.950 . S
H2334 C2346 0.950 . S
H2335 C2347 0.950 . S
C2336 H2328 0.950 1_554 S
C2336 C2337 1.386 . S
C2336 C2338 1.391 1_554 S
C2337 C2336 1.386 . S
C2337 C2341 1.393 . S
C2338 H2330 0.950 . S
C2338 C2336 1.391 1_556 S
C2338 C2339 1.400 1_556 S
C2339 C2338 1.400 1_554 S
C2339 C2340 1.398 . S
C2339 C2345 1.491 1_454 S
C2340 H2331 0.950 . S
C2340 C2339 1.398 . S
C2340 C2341 1.391 . S
C2341 H2329 0.950 . S
C2341 C2337 1.393 . S
C2341 C2340 1.391 . S
C2342 H2332 0.950 1_556 S
C2342 C2343 1.386 . S
C2342 C2344 1.391 1_556 S
C2343 C2342 1.386 . S
C2343 C2347 1.393 . S
C2344 H2333 0.950 . S
C2344 C2342 1.391 1_554 S
C2344 C2345 1.400 1_554 S
C2345 C2339 1.491 1_656 S
C2345 C2344 1.400 1_556 S
C2345 C2346 1.398 . S
C2346 H2334 0.950 . S
C2346 C2345 1.398 . S
C2346 C2347 1.391 . S
C2347 H2335 0.950 . S
C2347 C2343 1.393 . S
C2347 C2346 1.391 . S
H2348 C2356 0.950 . S
H2349 C2361 0.950 . S
H2350 C2358 0.950 . S
H2351 C2360 0.950 . S
H2352 C2362 0.950 . S
H2353 C2364 0.950 . S
H2354 C2366 0.950 . S
H2355 C2367 0.950 . S
C2356 H2348 0.950 . S
C2356 C2357 1.386 . S
C2356 C2358 1.391 . S
C2357 C2356 1.386 . S
C2357 C2361 1.393 . S
C2358 H2350 0.950 . S
C2358 C2356 1.391 . S
C2358 C2359 1.400 . S
C2359 C2358 1.400 . S
C2359 C2360 1.398 . S
C2359 C2365 1.491 . S
C2360 H2351 0.950 . S
C2360 C2359 1.398 . S
C2360 C2361 1.391 . S
C2361 H2349 0.950 . S
C2361 C2357 1.393 . S
C2361 C2360 1.391 . S
C2362 H2352 0.950 . S
C2362 C2363 1.386 . S
C2362 C2364 1.391 . S
C2363 C2362 1.386 . S
C2363 C2367 1.393 . S
C2364 H2353 0.950 . S
C2364 C2362 1.391 . S
C2364 C2365 1.400 . S
C2365 C2359 1.491 . S
C2365 C2364 1.400 . S
C2365 C2366 1.398 . S
C2366 H2354 0.950 . S
C2366 C2365 1.398 . S
C2366 C2367 1.391 . S
C2367 H2355 0.950 . S
C2367 C2363 1.393 . S
C2367 C2366 1.391 . S
H2368 C2376 0.950 . S
H2369 C2381 0.950 . S
H2370 C2378 0.950 . S
H2371 C2380 0.950 . S
H2372 C2382 0.950 . S
H2373 C2384 0.950 . S
H2374 C2386 0.950 1_565 S
H2375 C2387 0.950 . S
C2376 H2368 0.950 . S
C2376 C2377 1.386 . S
C2376 C2378 1.391 . S
C2377 C2376 1.386 . S
C2377 C2381 1.393 . S
C2378 H2370 0.950 . S
C2378 C2376 1.391 . S
C2378 C2379 1.400 . S
C2379 C2378 1.400 . S
C2379 C2380 1.398 . S
C2379 C2385 1.491 . S
C2380 H2371 0.950 . S
C2380 C2379 1.398 . S
C2380 C2381 1.391 . S
C2381 H2369 0.950 . S
C2381 C2377 1.393 . S
C2381 C2380 1.391 . S
C2382 H2372 0.950 . S
C2382 C2383 1.386 1_545 S
C2382 C2384 1.391 . S
C2383 C2382 1.386 1_565 S
C2383 C2387 1.393 . S
C2384 H2373 0.950 . S
C2384 C2382 1.391 . S
C2384 C2385 1.400 . S
C2385 C2379 1.491 . S
C2385 C2384 1.400 . S
C2385 C2386 1.398 . S
C2386 H2374 0.950 1_545 S
C2386 C2385 1.398 . S
C2386 C2387 1.391 1_545 S
C2387 H2375 0.950 . S
C2387 C2383 1.393 . S
C2387 C2386 1.391 1_565 S
H2388 C2396 0.950 . S
H2389 C2401 0.950 . S
H2390 C2398 0.950 . S
H2391 C2400 0.950 . S
H2392 C2402 0.950 . S
H2393 C2404 0.950 . S
H2394 C2406 0.950 . S
H2395 C2407 0.963 . S
C2396 H2388 0.950 . S
C2396 C2397 1.386 . S
C2396 C2398 1.391 . S
C2397 C2396 1.386 . S
C2397 C2401 1.393 . S
C2398 H2390 0.950 . S
C2398 C2396 1.391 . S
C2398 C2399 1.400 . S
C2399 C2398 1.400 . S
C2399 C2400 1.398 . S
C2399 C2405 1.491 . S
C2400 H2391 0.950 . S
C2400 C2399 1.398 . S
C2400 C2401 1.391 . S
C2401 H2389 0.950 . S
C2401 C2397 1.393 . S
C2401 C2400 1.391 . S
C2402 H2392 0.950 . S
C2402 C2403 1.386 1_545 S
C2402 C2404 1.391 . S
C2403 C2402 1.386 1_565 S
C2403 C2407 1.399 . S
C2404 H2393 0.950 . S
C2404 C2402 1.391 . S
C2404 C2405 1.400 . S
C2405 C2399 1.491 . S
C2405 C2404 1.400 . S
C2405 C2406 1.398 . S
C2406 H2394 0.950 . S
C2406 C2405 1.398 . S
C2406 C2407 1.372 1_545 S
C2407 H2395 0.963 . S
C2407 C2403 1.399 . S
C2407 C2406 1.372 1_565 S
H2408 C2416 0.950 . S
H2409 C2421 0.950 . S
H2410 C2418 0.950 . S
H2411 C2420 0.950 . S
H2412 C2422 0.950 . S
H2413 C2424 0.950 . S
H2414 C2426 0.950 . S
H2415 C2427 0.950 . S
C2416 H2408 0.950 . S
C2416 C2417 1.386 1_565 S
C2416 C2418 1.391 . S
C2417 C2416 1.386 1_545 S
C2417 C2421 1.393 . S
C2418 H2410 0.950 . S
C2418 C2416 1.391 . S
C2418 C2419 1.400 . S
C2419 C2418 1.400 . S
C2419 C2420 1.398 1_565 S
C2419 C2425 1.491 . S
C2420 H2411 0.950 . S
C2420 C2419 1.398 1_545 S
C2420 C2421 1.391 . S
C2421 H2409 0.950 . S
C2421 C2417 1.393 . S
C2421 C2420 1.391 . S
C2422 H2412 0.950 . S
C2422 C2423 1.386 . S
C2422 C2424 1.391 . S
C2423 C2422 1.386 . S
C2423 C2427 1.393 . S
C2424 H2413 0.950 . S
C2424 C2422 1.391 . S
C2424 C2425 1.400 . S
C2425 C2419 1.491 . S
C2425 C2424 1.400 . S
C2425 C2426 1.398 . S
C2426 H2414 0.950 . S
C2426 C2425 1.398 . S
C2426 C2427 1.391 . S
C2427 H2415 0.950 . S
C2427 C2423 1.393 . S
C2427 C2426 1.391 . S
H2428 C2436 0.950 . S
H2429 C2441 0.950 . S
H2430 C2438 0.950 . S
H2431 C2440 0.950 . S
H2432 C2442 0.950 . S
H2433 C2444 0.950 . S
H2434 C2446 0.950 1_545 S
H2435 C2447 0.950 . S
C2436 H2428 0.950 . S
C2436 C2437 1.386 . S
C2436 C2438 1.391 . S
C2437 C2436 1.386 . S
C2437 C2441 1.393 . S
C2438 H2430 0.950 . S
C2438 C2436 1.391 . S
C2438 C2439 1.400 . S
C2439 C2438 1.400 . S
C2439 C2440 1.398 . S
C2439 C2445 1.491 . S
C2440 H2431 0.950 . S
C2440 C2439 1.398 . S
C2440 C2441 1.391 . S
C2441 H2429 0.950 . S
C2441 C2437 1.393 . S
C2441 C2440 1.391 . S
C2442 H2432 0.950 . S
C2442 C2443 1.386 1_565 S
C2442 C2444 1.391 . S
C2443 C2442 1.386 1_545 S
C2443 C2447 1.393 . S
C2444 H2433 0.950 . S
C2444 C2442 1.391 . S
C2444 C2445 1.400 . S
C2445 C2439 1.491 . S
C2445 C2444 1.400 . S
C2445 C2446 1.398 . S
C2446 H2434 0.950 1_565 S
C2446 C2445 1.398 . S
C2446 C2447 1.391 1_565 S
C2447 H2435 0.950 . S
C2447 C2443 1.393 . S
C2447 C2446 1.391 1_545 S
H2448 C2456 0.950 . S
H2449 C2461 0.950 . S
H2450 C2458 0.950 . S
H2451 C2460 0.950 . S
H2452 C2462 0.950 . S
H2453 C2464 0.950 . S
H2454 C2466 0.950 . S
H2455 C2467 0.964 . S
C2456 H2448 0.950 . S
C2456 C2457 1.386 . S
C2456 C2458 1.391 . S
C2457 C2456 1.386 . S
C2457 C2461 1.393 . S
C2458 H2450 0.950 . S
C2458 C2456 1.391 . S
C2458 C2459 1.400 . S
C2459 C2458 1.400 . S
C2459 C2460 1.398 . S
C2459 C2465 1.491 . S
C2460 H2451 0.950 . S
C2460 C2459 1.398 . S
C2460 C2461 1.391 . S
C2461 H2449 0.950 . S
C2461 C2457 1.393 . S
C2461 C2460 1.391 . S
C2462 H2452 0.950 . S
C2462 C2463 1.386 1_565 S
C2462 C2464 1.391 . S
C2463 C2462 1.386 1_545 S
C2463 C2467 1.400 . S
C2464 H2453 0.950 . S
C2464 C2462 1.391 . S
C2464 C2465 1.400 . S
C2465 C2459 1.491 . S
C2465 C2464 1.400 . S
C2465 C2466 1.398 . S
C2466 H2454 0.950 . S
C2466 C2465 1.398 . S
C2466 C2467 1.370 1_565 S
C2467 H2455 0.964 . S
C2467 C2463 1.400 . S
C2467 C2466 1.370 1_545 S
H2468 C2476 0.950 . S
H2469 C2481 0.950 . S
H2470 C2478 0.942 1_545 S
H2471 C2480 0.950 . S
H2472 C2482 0.950 . S
H2473 C2484 0.950 . S
H2474 C2486 0.950 . S
H2475 C2487 0.950 . S
C2476 H2468 0.950 . S
C2476 C2477 1.386 . S
C2476 C2478 1.377 1_545 S
C2477 C2476 1.386 . S
C2477 C2481 1.393 1_545 S
C2478 H2470 0.942 1_565 S
C2478 C2476 1.377 1_565 S
C2478 C2479 1.423 . S
C2479 C2478 1.423 . S
C2479 C2480 1.398 . S
C2479 C2485 1.491 . S
C2480 H2471 0.950 . S
C2480 C2479 1.398 . S
C2480 C2481 1.391 . S
C2481 H2469 0.950 . S
C2481 C2477 1.393 1_565 S
C2481 C2480 1.391 . S
C2482 H2472 0.950 . S
C2482 C2483 1.386 . S
C2482 C2484 1.391 . S
C2483 C2482 1.386 . S
C2483 C2487 1.393 . S
C2484 H2473 0.950 . S
C2484 C2482 1.391 . S
C2484 C2485 1.400 . S
C2485 C2479 1.491 . S
C2485 C2484 1.400 . S
C2485 C2486 1.398 . S
C2486 H2474 0.950 . S
C2486 C2485 1.398 . S
C2486 C2487 1.391 . S
C2487 H2475 0.950 . S
C2487 C2483 1.393 . S
C2487 C2486 1.391 . S
H2488 C2496 0.950 . S
H2489 C2501 0.950 . S
H2490 C2498 0.950 . S
H2491 C2500 0.950 . S
H2492 C2502 0.950 . S
H2493 C2504 0.950 . S
H2494 C2506 0.950 . S
H2495 C2507 0.950 . S
C2496 H2488 0.950 . S
C2496 C2497 1.386 1_545 S
C2496 C2498 1.391 . S
C2497 C2496 1.386 1_565 S
C2497 C2501 1.393 . S
C2498 H2490 0.950 . S
C2498 C2496 1.391 . S
C2498 C2499 1.400 . S
C2499 C2498 1.400 . S
C2499 C2500 1.398 1_545 S
C2499 C2505 1.491 . S
C2500 H2491 0.950 . S
C2500 C2499 1.398 1_565 S
C2500 C2501 1.391 . S
C2501 H2489 0.950 . S
C2501 C2497 1.393 . S
C2501 C2500 1.391 . S
C2502 H2492 0.950 . S
C2502 C2503 1.386 . S
C2502 C2504 1.391 . S
C2503 C2502 1.386 . S
C2503 C2507 1.393 . S
C2504 H2493 0.950 . S
C2504 C2502 1.391 . S
C2504 C2505 1.400 . S
C2505 C2499 1.491 . S
C2505 C2504 1.400 . S
C2505 C2506 1.398 . S
C2506 H2494 0.950 . S
C2506 C2505 1.398 . S
C2506 C2507 1.391 . S
C2507 H2495 0.950 . S
C2507 C2503 1.393 . S
C2507 C2506 1.391 . S
H2508 C2516 0.950 . S
H2509 C2521 0.950 . S
H2510 C2518 0.950 . S
H2511 C2520 0.950 . S
H2512 C2522 0.950 . S
H2513 C2524 0.950 . S
H2514 C2526 0.950 . S
H2515 C2527 0.950 . S
C2516 H2508 0.950 . S
C2516 C2517 1.386 1_545 S
C2516 C2518 1.391 . S
C2517 C2516 1.386 1_565 S
C2517 C2521 1.393 . S
C2518 H2510 0.950 . S
C2518 C2516 1.391 . S
C2518 C2519 1.400 . S
C2519 C2518 1.400 . S
C2519 C2520 1.398 1_545 S
C2519 C2525 1.491 . S
C2520 H2511 0.950 . S
C2520 C2519 1.398 1_565 S
C2520 C2521 1.391 . S
C2521 H2509 0.950 . S
C2521 C2517 1.393 . S
C2521 C2520 1.391 . S
C2522 H2512 0.950 . S
C2522 C2523 1.386 . S
C2522 C2524 1.391 . S
C2523 C2522 1.386 . S
C2523 C2527 1.393 . S
C2524 H2513 0.950 . S
C2524 C2522 1.391 . S
C2524 C2525 1.400 . S
C2525 C2519 1.491 . S
C2525 C2524 1.400 . S
C2525 C2526 1.398 . S
C2526 H2514 0.950 . S
C2526 C2525 1.398 . S
C2526 C2527 1.391 . S
C2527 H2515 0.950 . S
C2527 C2523 1.393 . S
C2527 C2526 1.391 . S
H2528 C2536 0.950 . S
H2529 C2541 0.950 . S
H2530 C2538 0.950 . S
H2531 C2540 0.950 . S
H2532 C2542 0.950 . S
H2533 C2544 0.950 . S
H2534 C2546 0.950 . S
H2535 C2547 0.950 . S
C2536 H2528 0.950 . S
C2536 C2537 1.386 . S
C2536 C2538 1.391 . S
C2537 C2536 1.386 . S
C2537 C2541 1.393 . S
C2538 H2530 0.950 . S
C2538 C2536 1.391 . S
C2538 C2539 1.400 . S
C2539 C2538 1.400 . S
C2539 C2540 1.398 . S
C2539 C2545 1.491 . S
C2540 H2531 0.950 . S
C2540 C2539 1.398 . S
C2540 C2541 1.391 . S
C2541 H2529 0.950 . S
C2541 C2537 1.393 . S
C2541 C2540 1.391 . S
C2542 H2532 0.950 . S
C2542 C2543 1.386 . S
C2542 C2544 1.391 . S
C2543 C2542 1.386 . S
C2543 C2547 1.393 . S
C2544 H2533 0.950 . S
C2544 C2542 1.391 . S
C2544 C2545 1.400 . S
C2545 C2539 1.491 . S
C2545 C2544 1.400 . S
C2545 C2546 1.398 . S
C2546 H2534 0.950 . S
C2546 C2545 1.398 . S
C2546 C2547 1.391 . S
C2547 H2535 0.950 . S
C2547 C2543 1.393 . S
C2547 C2546 1.391 . S
H2548 C2556 0.950 . S
H2549 C2561 0.950 . S
H2550 C2558 0.950 . S
H2551 C2560 0.950 . S
H2552 C2562 0.950 . S
H2553 C2564 0.950 . S
H2554 C2566 0.950 . S
H2555 C2567 0.950 . S
C2556 H2548 0.950 . S
C2556 C2557 1.386 . S
C2556 C2558 1.391 . S
C2557 C2556 1.386 . S
C2557 C2561 1.393 . S
C2558 H2550 0.950 . S
C2558 C2556 1.391 . S
C2558 C2559 1.400 . S
C2559 C2558 1.400 . S
C2559 C2560 1.398 . S
C2559 C2565 1.491 . S
C2560 H2551 0.950 . S
C2560 C2559 1.398 . S
C2560 C2561 1.391 . S
C2561 H2549 0.950 . S
C2561 C2557 1.393 . S
C2561 C2560 1.391 . S
C2562 H2552 0.950 . S
C2562 C2563 1.386 . S
C2562 C2564 1.391 . S
C2563 C2562 1.386 . S
C2563 C2567 1.393 . S
C2564 H2553 0.950 . S
C2564 C2562 1.391 . S
C2564 C2565 1.400 . S
C2565 C2559 1.491 . S
C2565 C2564 1.400 . S
C2565 C2566 1.398 . S
C2566 H2554 0.950 . S
C2566 C2565 1.398 . S
C2566 C2567 1.391 . S
C2567 H2555 0.950 . S
C2567 C2563 1.393 . S
C2567 C2566 1.391 . S
H2568 C2576 0.950 . S
H2569 C2581 0.950 . S
H2570 C2578 0.950 . S
H2571 C2580 0.950 . S
H2572 C2582 0.950 . S
H2573 C2584 0.950 . S
H2574 C2586 0.950 . S
H2575 C2587 0.950 . S
C2576 H2568 0.950 . S
C2576 C2577 1.386 . S
C2576 C2578 1.391 . S
C2577 C2576 1.386 . S
C2577 C2581 1.393 . S
C2578 H2570 0.950 . S
C2578 C2576 1.391 . S
C2578 C2579 1.400 . S
C2579 C2578 1.400 . S
C2579 C2580 1.398 . S
C2579 C2585 1.491 . S
C2580 H2571 0.950 . S
C2580 C2579 1.398 . S
C2580 C2581 1.391 . S
C2581 H2569 0.950 . S
C2581 C2577 1.393 . S
C2581 C2580 1.391 . S
C2582 H2572 0.950 . S
C2582 C2583 1.386 . S
C2582 C2584 1.391 . S
C2583 C2582 1.386 . S
C2583 C2587 1.393 . S
C2584 H2573 0.950 . S
C2584 C2582 1.391 . S
C2584 C2585 1.400 . S
C2585 C2579 1.491 . S
C2585 C2584 1.400 . S
C2585 C2586 1.398 . S
C2586 H2574 0.950 . S
C2586 C2585 1.398 . S
C2586 C2587 1.391 . S
C2587 H2575 0.950 . S
C2587 C2583 1.393 . S
C2587 C2586 1.391 . S
H2588 C2596 0.950 . S
H2589 C2601 0.950 . S
H2590 C2598 0.950 . S
H2591 C2600 0.950 . S
H2592 C2602 0.950 . S
H2593 C2604 0.950 . S
H2594 C2606 0.950 . S
H2595 C2607 0.950 . S
C2596 H2588 0.950 . S
C2596 C2597 1.386 . S
C2596 C2598 1.391 . S
C2597 C2596 1.386 . S
C2597 C2601 1.393 . S
C2598 H2590 0.950 . S
C2598 C2596 1.391 . S
C2598 C2599 1.400 . S
C2599 C2598 1.400 . S
C2599 C2600 1.398 . S
C2599 C2605 1.491 . S
C2600 H2591 0.950 . S
C2600 C2599 1.398 . S
C2600 C2601 1.391 . S
C2601 H2589 0.950 . S
C2601 C2597 1.393 . S
C2601 C2600 1.391 . S
C2602 H2592 0.950 . S
C2602 C2603 1.386 . S
C2602 C2604 1.391 . S
C2603 C2602 1.386 . S
C2603 C2607 1.393 . S
C2604 H2593 0.950 . S
C2604 C2602 1.391 . S
C2604 C2605 1.400 . S
C2605 C2599 1.491 . S
C2605 C2604 1.400 . S
C2605 C2606 1.398 . S
C2606 H2594 0.950 . S
C2606 C2605 1.398 . S
C2606 C2607 1.391 . S
C2607 H2595 0.950 . S
C2607 C2603 1.393 . S
C2607 C2606 1.391 . S
H2608 C2616 0.950 . S
H2609 C2621 0.950 . S
H2610 C2618 0.950 . S
H2611 C2620 0.950 . S
H2612 C2622 0.950 . S
H2613 C2624 0.950 . S
H2614 C2626 0.950 . S
H2615 C2627 0.950 . S
C2616 H2608 0.950 . S
C2616 C2617 1.386 . S
C2616 C2618 1.391 . S
C2617 C2616 1.386 . S
C2617 C2621 1.393 . S
C2618 H2610 0.950 . S
C2618 C2616 1.391 . S
C2618 C2619 1.400 . S
C2619 C2618 1.400 . S
C2619 C2620 1.398 . S
C2619 C2625 1.491 . S
C2620 H2611 0.950 . S
C2620 C2619 1.398 . S
C2620 C2621 1.391 . S
C2621 H2609 0.950 . S
C2621 C2617 1.393 . S
C2621 C2620 1.391 . S
C2622 H2612 0.950 . S
C2622 C2623 1.386 . S
C2622 C2624 1.391 . S
C2623 C2622 1.386 . S
C2623 C2627 1.393 . S
C2624 H2613 0.950 . S
C2624 C2622 1.391 . S
C2624 C2625 1.400 . S
C2625 C2619 1.491 . S
C2625 C2624 1.400 . S
C2625 C2626 1.398 . S
C2626 H2614 0.950 . S
C2626 C2625 1.398 . S
C2626 C2627 1.391 . S
C2627 H2615 0.950 . S
C2627 C2623 1.393 . S
C2627 C2626 1.391 . S
H2628 C2636 0.950 . S
H2629 C2641 0.950 . S
H2630 C2638 0.950 . S
H2631 C2640 0.950 . S
H2632 C2642 0.950 . S
H2633 C2644 0.950 . S
H2634 C2646 0.950 . S
H2635 C2647 0.950 . S
C2636 H2628 0.950 . S
C2636 C2637 1.386 . S
C2636 C2638 1.391 . S
C2637 C2636 1.386 . S
C2637 C2641 1.393 . S
C2638 H2630 0.950 . S
C2638 C2636 1.391 . S
C2638 C2639 1.400 . S
C2639 C2638 1.400 . S
C2639 C2640 1.398 . S
C2639 C2645 1.491 . S
C2640 H2631 0.950 . S
C2640 C2639 1.398 . S
C2640 C2641 1.391 . S
C2641 H2629 0.950 . S
C2641 C2637 1.393 . S
C2641 C2640 1.391 . S
C2642 H2632 0.950 . S
C2642 C2643 1.386 . S
C2642 C2644 1.391 . S
C2643 C2642 1.386 . S
C2643 C2647 1.393 . S
C2644 H2633 0.950 . S
C2644 C2642 1.391 . S
C2644 C2645 1.400 . S
C2645 C2639 1.491 . S
C2645 C2644 1.400 . S
C2645 C2646 1.398 . S
C2646 H2634 0.950 . S
C2646 C2645 1.398 . S
C2646 C2647 1.391 . S
C2647 H2635 0.950 . S
C2647 C2643 1.393 . S
C2647 C2646 1.391 . S
H2648 C2656 0.950 . S
H2649 C2661 0.950 . S
H2650 C2658 0.950 . S
H2651 C2660 0.950 . S
H2652 C2662 0.950 . S
H2653 C2664 0.950 . S
H2654 C2666 0.950 . S
H2655 C2667 0.950 . S
C2656 H2648 0.950 . S
C2656 C2657 1.386 . S
C2656 C2658 1.391 . S
C2657 C2656 1.386 . S
C2657 C2661 1.393 . S
C2658 H2650 0.950 . S
C2658 C2656 1.391 . S
C2658 C2659 1.400 . S
C2659 C2658 1.400 . S
C2659 C2660 1.398 . S
C2659 C2665 1.491 . S
C2660 H2651 0.950 . S
C2660 C2659 1.398 . S
C2660 C2661 1.391 . S
C2661 H2649 0.950 . S
C2661 C2657 1.393 . S
C2661 C2660 1.391 . S
C2662 H2652 0.950 . S
C2662 C2663 1.386 . S
C2662 C2664 1.391 . S
C2663 C2662 1.386 . S
C2663 C2667 1.393 . S
C2664 H2653 0.950 . S
C2664 C2662 1.391 . S
C2664 C2665 1.400 . S
C2665 C2659 1.491 . S
C2665 C2664 1.400 . S
C2665 C2666 1.398 . S
C2666 H2654 0.950 . S
C2666 C2665 1.398 . S
C2666 C2667 1.391 . S
C2667 H2655 0.950 . S
C2667 C2663 1.393 . S
C2667 C2666 1.391 . S
H2668 C2676 0.950 . S
H2669 C2681 0.950 . S
H2670 C2678 0.950 . S
H2671 C2680 0.950 . S
H2672 C2682 0.950 . S
H2673 C2684 0.950 . S
H2674 C2686 0.950 . S
H2675 C2687 0.950 . S
C2676 H2668 0.950 . S
C2676 C2677 1.386 . S
C2676 C2678 1.391 . S
C2677 C2676 1.386 . S
C2677 C2681 1.393 . S
C2678 H2670 0.950 . S
C2678 C2676 1.391 . S
C2678 C2679 1.400 . S
C2679 C2678 1.400 . S
C2679 C2680 1.398 . S
C2679 C2685 1.491 . S
C2680 H2671 0.950 . S
C2680 C2679 1.398 . S
C2680 C2681 1.391 . S
C2681 H2669 0.950 . S
C2681 C2677 1.393 . S
C2681 C2680 1.391 . S
C2682 H2672 0.950 . S
C2682 C2683 1.386 . S
C2682 C2684 1.391 . S
C2683 C2682 1.386 . S
C2683 C2687 1.393 . S
C2684 H2673 0.950 . S
C2684 C2682 1.391 . S
C2684 C2685 1.400 . S
C2685 C2679 1.491 . S
C2685 C2684 1.400 . S
C2685 C2686 1.398 . S
C2686 H2674 0.950 . S
C2686 C2685 1.398 . S
C2686 C2687 1.391 . S
C2687 H2675 0.950 . S
C2687 C2683 1.393 . S
C2687 C2686 1.391 . S
H2688 C2696 0.950 . S
H2689 C2701 0.950 . S
H2690 C2698 0.950 . S
H2691 C2700 0.950 . S
H2692 C2702 0.950 . S
H2693 C2704 0.950 . S
H2694 C2706 0.950 . S
H2695 C2707 0.950 . S
C2696 H2688 0.950 . S
C2696 C2697 1.386 . S
C2696 C2698 1.391 . S
C2697 C2696 1.386 . S
C2697 C2701 1.393 . S
C2698 H2690 0.950 . S
C2698 C2696 1.391 . S
C2698 C2699 1.400 . S
C2699 C2698 1.400 . S
C2699 C2700 1.398 . S
C2699 C2705 1.491 1_545 S
C2700 H2691 0.950 . S
C2700 C2699 1.398 . S
C2700 C2701 1.391 . S
C2701 H2689 0.950 . S
C2701 C2697 1.393 . S
C2701 C2700 1.391 . S
C2702 H2692 0.950 . S
C2702 C2703 1.386 . S
C2702 C2704 1.391 . S
C2703 C2702 1.386 . S
C2703 C2707 1.393 . S
C2704 H2693 0.950 . S
C2704 C2702 1.391 . S
C2704 C2705 1.400 . S
C2705 C2699 1.491 1_565 S
C2705 C2704 1.400 . S
C2705 C2706 1.398 . S
C2706 H2694 0.950 . S
C2706 C2705 1.398 . S
C2706 C2707 1.391 . S
C2707 H2695 0.950 . S
C2707 C2703 1.393 . S
C2707 C2706 1.391 . S
H2708 C2716 0.950 . S
H2709 C2721 0.950 . S
H2710 C2718 0.950 . S
H2711 C2720 0.950 . S
H2712 C2722 0.950 . S
H2713 C2724 0.950 . S
H2714 C2726 0.950 . S
H2715 C2727 0.950 . S
C2716 H2708 0.950 . S
C2716 C2717 1.386 . S
C2716 C2718 1.391 . S
C2717 C2716 1.386 . S
C2717 C2721 1.393 . S
C2718 H2710 0.950 . S
C2718 C2716 1.391 . S
C2718 C2719 1.400 . S
C2719 C2718 1.400 . S
C2719 C2720 1.398 . S
C2719 C2725 1.491 . S
C2720 H2711 0.950 . S
C2720 C2719 1.398 . S
C2720 C2721 1.391 . S
C2721 H2709 0.950 . S
C2721 C2717 1.393 . S
C2721 C2720 1.391 . S
C2722 H2712 0.950 . S
C2722 C2723 1.386 . S
C2722 C2724 1.391 . S
C2723 C2722 1.386 . S
C2723 C2727 1.393 . S
C2724 H2713 0.950 . S
C2724 C2722 1.391 . S
C2724 C2725 1.400 . S
C2725 C2719 1.491 . S
C2725 C2724 1.400 . S
C2725 C2726 1.398 . S
C2726 H2714 0.950 . S
C2726 C2725 1.398 . S
C2726 C2727 1.391 . S
C2727 H2715 0.950 . S
C2727 C2723 1.393 . S
C2727 C2726 1.391 . S
H2728 C2736 0.950 . S
H2729 C2741 0.950 . S
H2730 C2738 0.950 . S
H2731 C2740 0.950 . S
H2732 C2742 0.950 . S
H2733 C2744 0.950 . S
H2734 C2746 0.950 . S
H2735 C2747 0.950 . S
C2736 H2728 0.950 . S
C2736 C2737 1.386 . S
C2736 C2738 1.391 . S
C2737 C2736 1.386 . S
C2737 C2741 1.393 . S
C2738 H2730 0.950 . S
C2738 C2736 1.391 . S
C2738 C2739 1.400 . S
C2739 C2738 1.400 . S
C2739 C2740 1.398 . S
C2739 C2745 1.491 1_545 S
C2740 H2731 0.950 . S
C2740 C2739 1.398 . S
C2740 C2741 1.391 . S
C2741 H2729 0.950 . S
C2741 C2737 1.393 . S
C2741 C2740 1.391 . S
C2742 H2732 0.950 . S
C2742 C2743 1.386 . S
C2742 C2744 1.391 . S
C2743 C2742 1.386 . S
C2743 C2747 1.393 . S
C2744 H2733 0.950 . S
C2744 C2742 1.391 . S
C2744 C2745 1.400 . S
C2745 C2739 1.491 1_565 S
C2745 C2744 1.400 . S
C2745 C2746 1.398 . S
C2746 H2734 0.950 . S
C2746 C2745 1.398 . S
C2746 C2747 1.391 . S
C2747 H2735 0.950 . S
C2747 C2743 1.393 . S
C2747 C2746 1.391 . S
H2748 C2756 0.950 . S
H2749 C2761 0.950 . S
H2750 C2758 0.947 1_554 S
H2751 C2760 0.950 . S
H2752 C2762 0.950 . S
H2753 C2764 0.947 1_556 S
H2754 C2766 0.950 . S
H2755 C2767 0.950 . S
C2756 H2748 0.950 . S
C2756 C2757 1.386 . S
C2756 C2758 1.391 . S
C2757 C2756 1.386 . S
C2757 C2761 1.393 . S
C2758 H2750 0.947 1_556 S
C2758 C2756 1.391 . S
C2758 C2759 1.400 . S
C2759 C2758 1.400 . S
C2759 C2760 1.398 . S
C2759 C2765 1.491 1_556 S
C2760 H2751 0.950 . S
C2760 C2759 1.398 . S
C2760 C2761 1.391 . S
C2761 H2749 0.950 . S
C2761 C2757 1.393 . S
C2761 C2760 1.391 . S
C2762 H2752 0.950 . S
C2762 C2763 1.386 . S
C2762 C2764 1.391 . S
C2763 C2762 1.386 . S
C2763 C2767 1.393 . S
C2764 H2753 0.947 1_554 S
C2764 C2762 1.391 . S
C2764 C2765 1.400 . S
C2765 C2759 1.491 1_554 S
C2765 C2764 1.400 . S
C2765 C2766 1.398 . S
C2766 H2754 0.950 . S
C2766 C2765 1.398 . S
C2766 C2767 1.391 . S
C2767 H2755 0.950 . S
C2767 C2763 1.393 . S
C2767 C2766 1.391 . S
H2768 C2776 0.950 . S
H2769 C2781 0.950 . S
H2770 C2778 0.950 . S
H2771 C2780 0.950 . S
H2772 C2782 0.950 . S
H2773 C2784 0.950 . S
H2774 C2786 0.950 . S
H2775 C2787 0.950 . S
C2776 H2768 0.950 . S
C2776 C2777 1.386 . S
C2776 C2778 1.391 . S
C2777 C2776 1.386 . S
C2777 C2781 1.393 . S
C2778 H2770 0.950 . S
C2778 C2776 1.391 . S
C2778 C2779 1.400 . S
C2779 C2778 1.400 . S
C2779 C2780 1.398 . S
C2779 C2785 1.491 1_565 S
C2780 H2771 0.950 . S
C2780 C2779 1.398 . S
C2780 C2781 1.391 . S
C2781 H2769 0.950 . S
C2781 C2777 1.393 . S
C2781 C2780 1.391 . S
C2782 H2772 0.950 . S
C2782 C2783 1.386 . S
C2782 C2784 1.391 . S
C2783 C2782 1.386 . S
C2783 C2787 1.393 . S
C2784 H2773 0.950 . S
C2784 C2782 1.391 . S
C2784 C2785 1.400 . S
C2785 C2779 1.491 1_545 S
C2785 C2784 1.400 . S
C2785 C2786 1.398 . S
C2786 H2774 0.950 . S
C2786 C2785 1.398 . S
C2786 C2787 1.391 . S
C2787 H2775 0.950 . S
C2787 C2783 1.393 . S
C2787 C2786 1.391 . S
H2788 C2796 0.950 . S
H2789 C2801 0.950 . S
H2790 C2798 0.950 . S
H2791 C2800 0.950 . S
H2792 C2802 0.950 . S
H2793 C2804 0.950 . S
H2794 C2806 0.950 . S
H2795 C2807 0.950 . S
C2796 H2788 0.950 . S
C2796 C2797 1.386 . S
C2796 C2798 1.391 . S
C2797 C2796 1.386 . S
C2797 C2801 1.393 . S
C2798 H2790 0.950 . S
C2798 C2796 1.391 . S
C2798 C2799 1.400 . S
C2799 C2798 1.400 . S
C2799 C2800 1.398 . S
C2799 C2805 1.491 . S
C2800 H2791 0.950 . S
C2800 C2799 1.398 . S
C2800 C2801 1.391 . S
C2801 H2789 0.950 . S
C2801 C2797 1.393 . S
C2801 C2800 1.391 . S
C2802 H2792 0.950 . S
C2802 C2803 1.386 . S
C2802 C2804 1.391 . S
C2803 C2802 1.386 . S
C2803 C2807 1.393 . S
C2804 H2793 0.950 . S
C2804 C2802 1.391 . S
C2804 C2805 1.400 . S
C2805 C2799 1.491 . S
C2805 C2804 1.400 . S
C2805 C2806 1.398 . S
C2806 H2794 0.950 . S
C2806 C2805 1.398 . S
C2806 C2807 1.391 . S
C2807 H2795 0.950 . S
C2807 C2803 1.393 . S
C2807 C2806 1.391 . S
H2808 C2816 0.950 . S
H2809 C2821 0.950 . S
H2810 C2818 0.950 . S
H2811 C2820 0.950 . S
H2812 C2822 0.950 . S
H2813 C2824 0.950 . S
H2814 C2826 0.950 . S
H2815 C2827 0.950 . S
C2816 H2808 0.950 . S
C2816 C2817 1.386 . S
C2816 C2818 1.391 . S
C2817 C2816 1.386 . S
C2817 C2821 1.393 . S
C2818 H2810 0.950 . S
C2818 C2816 1.391 . S
C2818 C2819 1.400 . S
C2819 C2818 1.400 . S
C2819 C2820 1.398 . S
C2819 C2825 1.491 1_565 S
C2820 H2811 0.950 . S
C2820 C2819 1.398 . S
C2820 C2821 1.391 . S
C2821 H2809 0.950 . S
C2821 C2817 1.393 . S
C2821 C2820 1.391 . S
C2822 H2812 0.950 . S
C2822 C2823 1.386 . S
C2822 C2824 1.391 . S
C2823 C2822 1.386 . S
C2823 C2827 1.393 . S
C2824 H2813 0.950 . S
C2824 C2822 1.391 . S
C2824 C2825 1.400 . S
C2825 C2819 1.491 1_545 S
C2825 C2824 1.400 . S
C2825 C2826 1.398 . S
C2826 H2814 0.950 . S
C2826 C2825 1.398 . S
C2826 C2827 1.391 . S
C2827 H2815 0.950 . S
C2827 C2823 1.393 . S
C2827 C2826 1.391 . S
H2828 C2836 0.950 . S
H2829 C2841 0.950 . S
H2830 C2838 0.950 1_556 S
H2831 C2840 0.950 . S
H2832 C2842 0.950 . S
H2833 C2844 0.950 1_554 S
H2834 C2846 0.950 . S
H2835 C2847 0.950 . S
C2836 H2828 0.950 . S
C2836 C2837 1.386 . S
C2836 C2838 1.391 . S
C2837 C2836 1.386 . S
C2837 C2841 1.393 . S
C2838 H2830 0.950 1_554 S
C2838 C2836 1.391 . S
C2838 C2839 1.400 . S
C2839 C2838 1.400 . S
C2839 C2840 1.398 . S
C2839 C2845 1.491 1_554 S
C2840 H2831 0.950 . S
C2840 C2839 1.398 . S
C2840 C2841 1.391 . S
C2841 H2829 0.950 . S
C2841 C2837 1.393 . S
C2841 C2840 1.391 . S
C2842 H2832 0.950 . S
C2842 C2843 1.386 . S
C2842 C2844 1.391 . S
C2843 C2842 1.386 . S
C2843 C2847 1.393 . S
C2844 H2833 0.950 1_556 S
C2844 C2842 1.391 . S
C2844 C2845 1.400 . S
C2845 C2839 1.491 1_556 S
C2845 C2844 1.400 . S
C2845 C2846 1.398 . S
C2846 H2834 0.950 . S
C2846 C2845 1.398 . S
C2846 C2847 1.391 . S
C2847 H2835 0.950 . S
C2847 C2843 1.393 . S
C2847 C2846 1.391 . S
H2848 C2856 0.950 . S
H2849 C2861 0.950 . S
H2850 C2858 0.950 . S
H2851 C2860 0.950 . S
H2852 C2862 0.950 . S
H2853 C2864 0.950 . S
H2854 C2866 0.950 . S
H2855 C2867 0.950 . S
C2856 H2848 0.950 . S
C2856 C2857 1.386 . S
C2856 C2858 1.391 . S
C2857 C2856 1.386 . S
C2857 C2861 1.393 . S
C2858 H2850 0.950 . S
C2858 C2856 1.391 . S
C2858 C2859 1.400 . S
C2859 C2858 1.400 . S
C2859 C2860 1.398 . S
C2859 C2865 1.491 . S
C2860 H2851 0.950 . S
C2860 C2859 1.398 . S
C2860 C2861 1.391 . S
C2861 H2849 0.950 . S
C2861 C2857 1.393 . S
C2861 C2860 1.391 . S
C2862 H2852 0.950 . S
C2862 C2863 1.386 . S
C2862 C2864 1.391 . S
C2863 C2862 1.386 . S
C2863 C2867 1.393 . S
C2864 H2853 0.950 . S
C2864 C2862 1.391 . S
C2864 C2865 1.400 . S
C2865 C2859 1.491 . S
C2865 C2864 1.400 . S
C2865 C2866 1.398 . S
C2866 H2854 0.950 . S
C2866 C2865 1.398 . S
C2866 C2867 1.391 . S
C2867 H2855 0.950 . S
C2867 C2863 1.393 . S
C2867 C2866 1.391 . S
H2868 C2876 0.950 . S
H2869 C2881 0.950 . S
H2870 C2878 0.950 . S
H2871 C2880 0.950 . S
H2872 C2882 0.950 . S
H2873 C2884 0.950 . S
H2874 C2886 0.950 . S
H2875 C2887 0.950 . S
C2876 H2868 0.950 . S
C2876 C2877 1.386 . S
C2876 C2878 1.391 . S
C2877 C2876 1.386 . S
C2877 C2881 1.393 1_556 S
C2878 H2870 0.950 . S
C2878 C2876 1.391 . S
C2878 C2879 1.400 . S
C2879 C2878 1.400 . S
C2879 C2880 1.398 1_556 S
C2879 C2885 1.491 1_556 S
C2880 H2871 0.950 . S
C2880 C2879 1.398 1_554 S
C2880 C2881 1.391 . S
C2881 H2869 0.950 . S
C2881 C2877 1.393 1_554 S
C2881 C2880 1.391 . S
C2882 H2872 0.950 . S
C2882 C2883 1.386 . S
C2882 C2884 1.391 . S
C2883 C2882 1.386 . S
C2883 C2887 1.393 1_554 S
C2884 H2873 0.950 . S
C2884 C2882 1.391 . S
C2884 C2885 1.400 . S
C2885 C2879 1.491 1_554 S
C2885 C2884 1.400 . S
C2885 C2886 1.398 1_554 S
C2886 H2874 0.950 . S
C2886 C2885 1.398 1_556 S
C2886 C2887 1.391 . S
C2887 H2875 0.950 . S
C2887 C2883 1.393 1_556 S
C2887 C2886 1.391 . S
H2888 C2896 0.950 . S
H2889 C2901 0.950 . S
H2890 C2898 0.950 . S
H2891 C2900 0.950 . S
H2892 C2902 0.950 . S
H2893 C2904 0.950 . S
H2894 C2906 0.950 . S
H2895 C2907 0.950 . S
C2896 H2888 0.950 . S
C2896 C2897 1.386 . S
C2896 C2898 1.391 . S
C2897 C2896 1.386 . S
C2897 C2901 1.393 . S
C2898 H2890 0.950 . S
C2898 C2896 1.391 . S
C2898 C2899 1.400 . S
C2899 C2898 1.400 . S
C2899 C2900 1.398 . S
C2899 C2905 1.491 . S
C2900 H2891 0.950 . S
C2900 C2899 1.398 . S
C2900 C2901 1.391 . S
C2901 H2889 0.950 . S
C2901 C2897 1.393 . S
C2901 C2900 1.391 . S
C2902 H2892 0.950 . S
C2902 C2903 1.386 . S
C2902 C2904 1.391 . S
C2903 C2902 1.386 . S
C2903 C2907 1.393 . S
C2904 H2893 0.950 . S
C2904 C2902 1.391 . S
C2904 C2905 1.400 . S
C2905 C2899 1.491 . S
C2905 C2904 1.400 . S
C2905 C2906 1.398 . S
C2906 H2894 0.950 . S
C2906 C2905 1.398 . S
C2906 C2907 1.391 . S
C2907 H2895 0.950 . S
C2907 C2903 1.393 . S
C2907 C2906 1.391 . S
H2908 C2916 0.950 . S
H2909 C2921 0.950 . S
H2910 C2918 0.950 . S
H2911 C2920 0.950 . S
H2912 C2922 0.950 . S
H2913 C2924 0.950 . S
H2914 C2926 0.950 . S
H2915 C2927 0.950 . S
C2916 H2908 0.950 . S
C2916 C2917 1.386 . S
C2916 C2918 1.391 . S
C2917 C2916 1.386 . S
C2917 C2921 1.393 . S
C2918 H2910 0.950 . S
C2918 C2916 1.391 . S
C2918 C2919 1.400 . S
C2919 C2918 1.400 . S
C2919 C2920 1.398 . S
C2919 C2925 1.491 . S
C2920 H2911 0.950 . S
C2920 C2919 1.398 . S
C2920 C2921 1.391 . S
C2921 H2909 0.950 . S
C2921 C2917 1.393 . S
C2921 C2920 1.391 . S
C2922 H2912 0.950 . S
C2922 C2923 1.386 . S
C2922 C2924 1.391 . S
C2923 C2922 1.386 . S
C2923 C2927 1.393 . S
C2924 H2913 0.950 . S
C2924 C2922 1.391 . S
C2924 C2925 1.400 . S
C2925 C2919 1.491 . S
C2925 C2924 1.400 . S
C2925 C2926 1.398 . S
C2926 H2914 0.950 . S
C2926 C2925 1.398 . S
C2926 C2927 1.391 . S
C2927 H2915 0.950 . S
C2927 C2923 1.393 . S
C2927 C2926 1.391 . S
H2928 C2936 0.950 . S
H2929 C2941 0.950 . S
H2930 C2938 0.950 . S
H2931 C2940 0.950 . S
H2932 C2942 0.950 . S
H2933 C2944 0.950 . S
H2934 C2946 0.950 . S
H2935 C2947 0.950 . S
C2936 H2928 0.950 . S
C2936 C2937 1.386 . S
C2936 C2938 1.391 . S
C2937 C2936 1.386 . S
C2937 C2941 1.393 . S
C2938 H2930 0.950 . S
C2938 C2936 1.391 . S
C2938 C2939 1.400 . S
C2939 C2938 1.400 . S
C2939 C2940 1.398 . S
C2939 C2945 1.491 . S
C2940 H2931 0.950 . S
C2940 C2939 1.398 . S
C2940 C2941 1.391 . S
C2941 H2929 0.950 . S
C2941 C2937 1.393 . S
C2941 C2940 1.391 . S
C2942 H2932 0.950 . S
C2942 C2943 1.386 . S
C2942 C2944 1.391 . S
C2943 C2942 1.386 . S
C2943 C2947 1.393 . S
C2944 H2933 0.950 . S
C2944 C2942 1.391 . S
C2944 C2945 1.400 . S
C2945 C2939 1.491 . S
C2945 C2944 1.400 . S
C2945 C2946 1.398 . S
C2946 H2934 0.950 . S
C2946 C2945 1.398 . S
C2946 C2947 1.391 . S
C2947 H2935 0.950 . S
C2947 C2943 1.393 . S
C2947 C2946 1.391 . S
H2948 C2956 0.950 . S
H2949 C2961 0.950 . S
H2950 C2958 0.950 . S
H2951 C2960 0.950 . S
H2952 C2962 0.950 . S
H2953 C2964 0.950 . S
H2954 C2966 0.950 . S
H2955 C2967 0.950 . S
C2956 H2948 0.950 . S
C2956 C2957 1.386 . S
C2956 C2958 1.391 . S
C2957 C2956 1.386 . S
C2957 C2961 1.393 1_556 S
C2958 H2950 0.950 . S
C2958 C2956 1.391 . S
C2958 C2959 1.400 . S
C2959 C2958 1.400 . S
C2959 C2960 1.398 1_556 S
C2959 C2965 1.491 1_556 S
C2960 H2951 0.950 . S
C2960 C2959 1.398 1_554 S
C2960 C2961 1.391 . S
C2961 H2949 0.950 . S
C2961 C2957 1.393 1_554 S
C2961 C2960 1.391 . S
C2962 H2952 0.950 . S
C2962 C2963 1.386 . S
C2962 C2964 1.391 . S
C2963 C2962 1.386 . S
C2963 C2967 1.393 1_554 S
C2964 H2953 0.950 . S
C2964 C2962 1.391 . S
C2964 C2965 1.400 . S
C2965 C2959 1.491 1_554 S
C2965 C2964 1.400 . S
C2965 C2966 1.398 1_554 S
C2966 H2954 0.950 . S
C2966 C2965 1.398 1_556 S
C2966 C2967 1.391 . S
C2967 H2955 0.950 . S
C2967 C2963 1.393 1_556 S
C2967 C2966 1.391 . S
H2968 C2976 0.950 . S
H2969 C2981 0.950 . S
H2970 C2978 0.950 . S
H2971 C2980 0.950 . S
H2972 C2982 0.950 . S
H2973 C2984 0.950 . S
H2974 C2986 0.950 . S
H2975 C2987 0.950 . S
C2976 H2968 0.950 . S
C2976 C2977 1.386 . S
C2976 C2978 1.391 . S
C2977 C2976 1.386 . S
C2977 C2981 1.393 . S
C2978 H2970 0.950 . S
C2978 C2976 1.391 . S
C2978 C2979 1.400 . S
C2979 C2978 1.400 . S
C2979 C2980 1.398 . S
C2979 C2985 1.491 . S
C2980 H2971 0.950 . S
C2980 C2979 1.398 . S
C2980 C2981 1.391 . S
C2981 H2969 0.950 . S
C2981 C2977 1.393 . S
C2981 C2980 1.391 . S
C2982 H2972 0.950 . S
C2982 C2983 1.386 . S
C2982 C2984 1.391 . S
C2983 C2982 1.386 . S
C2983 C2987 1.393 . S
C2984 H2973 0.950 . S
C2984 C2982 1.391 . S
C2984 C2985 1.400 . S
C2985 C2979 1.491 . S
C2985 C2984 1.400 . S
C2985 C2986 1.398 . S
C2986 H2974 0.950 . S
C2986 C2985 1.398 . S
C2986 C2987 1.391 . S
C2987 H2975 0.950 . S
C2987 C2983 1.393 . S
C2987 C2986 1.391 . S
H2988 C2996 0.950 . S
H2989 C3001 0.950 . S
H2990 C2998 0.950 . S
H2991 C3000 0.950 . S
H2992 C3002 0.950 . S
H2993 C3004 0.950 . S
H2994 C3006 0.950 . S
H2995 C3007 0.950 . S
C2996 H2988 0.950 . S
C2996 C2997 1.386 . S
C2996 C2998 1.391 . S
C2997 C2996 1.386 . S
C2997 C3001 1.393 . S
C2998 H2990 0.950 . S
C2998 C2996 1.391 . S
C2998 C2999 1.400 . S
C2999 C2998 1.400 . S
C2999 C3000 1.398 . S
C2999 C3005 1.491 . S
C3000 H2991 0.950 . S
C3000 C2999 1.398 . S
C3000 C3001 1.391 . S
C3001 H2989 0.950 . S
C3001 C2997 1.393 . S
C3001 C3000 1.391 . S
C3002 H2992 0.950 . S
C3002 C3003 1.386 . S
C3002 C3004 1.391 . S
C3003 C3002 1.386 . S
C3003 C3007 1.393 . S
C3004 H2993 0.950 . S
C3004 C3002 1.391 . S
C3004 C3005 1.400 . S
C3005 C2999 1.491 . S
C3005 C3004 1.400 . S
C3005 C3006 1.398 . S
C3006 H2994 0.950 . S
C3006 C3005 1.398 . S
C3006 C3007 1.391 . S
C3007 H2995 0.950 . S
C3007 C3003 1.393 . S
C3007 C3006 1.391 . S
C1097 C29 2.039 . S
C1103 C926 2.027 . S
C1117 C63 2.039 . S
C1123 C280 2.026 . S
C1137 C97 2.036 . S
C1143 C858 2.027 . S
C1157 C348 2.028 . S
C1163 C131 2.036 . S
C1177 C165 2.038 . S
C1183 C994 2.020 . S
C1197 C484 2.025 . S
C1203 C199 2.036 . S
C1217 C1062 2.027 . S
C1223 C233 2.036 . S
C1237 C267 2.037 . S
C1243 C416 2.022 . S
C1257 C272 2.039 . S
C1263 C663 2.026 . S
C1277 C306 2.040 . S
C1283 C17 2.024 . S
C1297 C595 2.020 . S
C1303 C340 2.040 . S
C1317 C85 2.020 . S
C1323 C374 2.040 . S
C1337 C408 2.036 . S
C1343 C731 2.028 . S
C1357 C442 2.036 . S
C1363 C221 2.023 . S
C1377 C476 2.039 . S
C1383 C799 2.020 . S
C1397 C153 2.028 . S
C1403 C510 2.038 . S
C1417 C382 2.025 . S
C1423 C573 2.040 . S
C1437 C824 2.028 . S
C1443 C607 2.036 . S
C1457 C314 2.020 . S
C1463 C641 2.041 . S
C1477 C675 2.040 . S
C1483 C892 2.020 . S
C1497 C450 2.019 . S
C1503 C709 2.039 . S
C1517 C1028 2.020 . S
C1523 C743 2.040 . S
C1537 C518 2.019 . S
C1543 C777 2.040 . S
C1557 C811 2.040 . S
C1563 C960 2.019 . S
C1577 C816 2.036 . S
C1583 C119 2.028 . S
C1597 C850 2.036 . S
C1603 C561 2.027 . S
C1617 C884 2.040 . S
C1623 C51 2.024 . S
C1637 C918 2.040 . S
C1643 C629 2.022 . S
C1657 C187 2.020 . S
C1663 C952 2.040 . S
C1677 C765 2.028 . S
C1683 C986 2.038 . S
C1697 C1020 2.040 . S
C1703 C255 2.022 . S
C1717 C1054 2.036 . S
C1723 C697 2.024 . S
C1737 C13 0.514 . S
C1743 C625 0.484 . S
C1757 C659 0.524 . S
C1763 C47 0.520 . S
C1777 C81 0.495 . S
C1783 C557 0.500 . S
C1797 C115 0.517 . S
C1803 C591 0.526 . S
C1817 C761 0.525 . S
C1823 C149 0.479 . S
C1837 C183 0.531 . S
C1843 C795 0.479 . S
C1857 C693 0.528 . S
C1863 C217 0.479 . S
C1877 C251 0.516 . S
C1883 C727 0.528 . S
C1897 C888 0.539 . S
C1903 C276 0.492 . S
C1917 C310 0.538 . S
C1923 C922 0.497 . S
C1937 C344 0.479 . S
C1943 C820 0.527 . S
C1957 C378 0.537 . S
C1963 C854 0.483 . S
C1977 C1024 0.508 . S
C1983 C412 0.533 . S
C1997 C1058 0.479 . S
C2003 C446 0.526 . S
C2017 C480 0.482 . S
C2023 C956 0.517 . S
C2037 C514 0.538 . S
C2043 C990 0.484 . S
C2057 C8 2.281 . S
C2063 C833 2.281 . S
C2077 C323 2.289 . S
C2083 C42 2.289 . S
C2097 C76 2.296 . S
C2103 C901 2.296 . S
C2117 C110 2.285 . S
C2123 C391 2.285 . S
C2137 C969 2.296 . S
C2143 C144 2.296 . S
C2157 C459 2.282 . S
C2163 C178 2.282 . S
C2177 C212 2.280 . S
C2183 C1037 2.280 . S
C2197 C246 2.283 . S
C2203 C527 2.283 . S
C2217 C552 2.281 . S
C2223 C289 2.281 . S
C2237 C620 2.288 . S
C2243 C357 2.288 . S
C2257 C688 2.290 . S
C2263 C425 2.290 . S
C2277 C493 2.283 . S
C2283 C756 2.283 . S
C2297 C586 2.284 . S
C2303 C867 2.284 . S
C2317 C654 2.295 . S
C2323 C935 2.295 . S
C2337 C1003 2.295 . S
C2343 C722 2.295 . S
C2357 C1071 2.294 . S
C2363 C790 2.294 . S
C2377 C4 0.756 . S
C2383 C174 0.749 . S
C2397 C208 0.755 . S
C2403 C38 0.760 . S
C2417 C242 0.739 . S
C2423 C72 0.738 . S
C2437 C140 0.754 . S
C2443 C106 0.747 . S
C2457 C285 0.749 . S
C2463 C455 0.756 . S
C2477 C319 0.739 . S
C2483 C489 0.738 . S
C2497 C523 0.756 . S
C2503 C353 0.761 . S
C2517 C387 0.754 . S
C2523 C421 0.760 . S
C2537 C548 0.760 . S
C2543 C718 0.755 . S
C2557 C582 0.761 . S
C2563 C752 0.756 . S
C2577 C616 0.740 . S
C2583 C786 0.738 . S
C2597 C684 0.740 . S
C2603 C650 0.738 . S
C2617 C829 0.739 . S
C2623 C999 0.738 . S
C2637 C863 0.761 . S
C2643 C1033 0.757 . S
C2657 C1067 0.738 . S
C2663 C897 0.740 . S
C2677 C931 0.743 . S
C2683 C965 0.738 . S
C2697 C0 2.480 . S
C2703 C136 2.480 . S
C2717 C34 2.481 . S
C2723 C170 2.482 . S
C2737 C204 2.490 . S
C2743 C68 2.489 . S
C2757 C238 2.490 . S
C2763 C102 2.490 . S
C2777 C301 2.491 . S
C2783 C437 2.491 . S
C2797 C471 2.489 . S
C2803 C335 2.489 . S
C2817 C505 2.480 . S
C2823 C369 2.481 . S
C2837 C539 2.480 . S
C2843 C403 2.479 . S
C2857 C544 2.482 . S
C2863 C680 2.483 . S
C2877 C714 2.485 . S
C2883 C578 2.484 . S
C2897 C612 2.483 . S
C2903 C748 2.484 . S
C2917 C782 2.490 . S
C2923 C646 2.490 . S
C2937 C981 2.489 . S
C2943 C845 2.489 . S
C2957 C879 2.488 . S
C2963 C1015 2.488 . S
C2977 C913 2.490 . S
C2983 C1049 2.490 . S
C2997 C947 2.488 . S
C3003 C1083 2.488 . S
