# Generated by pormake.
# Topology umk, (4)-cn, num edge types: 1
# Building blocks:
#     Node 0, Type 0, BuildingBlock: GALJAG_clean_sbu_0, # of connection points: 4
#     Node 1, Type 0, BuildingBlock: GALJAG_clean_sbu_0, # of connection points: 4
#     Node 2, Type 0, BuildingBlock: GALJAG_clean_sbu_0, # of connection points: 4
#     Node 3, Type 0, BuildingBlock: GALJAG_clean_sbu_0, # of connection points: 4
#     Node 4, Type 0, BuildingBlock: GALJAG_clean_sbu_0, # of connection points: 4
#     Node 5, Type 0, BuildingBlock: GALJAG_clean_sbu_0, # of connection points: 4
#     Node 6, Type 0, BuildingBlock: GALJAG_clean_sbu_0, # of connection points: 4
#     Node 7, Type 0, BuildingBlock: GALJAG_clean_sbu_0, # of connection points: 4
#     Node 8, Type 0, BuildingBlock: GALJAG_clean_sbu_0, # of connection points: 4
#     Node 9, Type 0, BuildingBlock: GALJAG_clean_sbu_0, # of connection points: 4
#     Node 10, Type 0, BuildingBlock: GALJAG_clean_sbu_0, # of connection points: 4
#     Node 11, Type 0, BuildingBlock: GALJAG_clean_sbu_0, # of connection points: 4
#     Node 12, Type 0, BuildingBlock: GALJAG_clean_sbu_0, # of connection points: 4
#     Node 13, Type 0, BuildingBlock: GALJAG_clean_sbu_0, # of connection points: 4
#     Node 14, Type 0, BuildingBlock: GALJAG_clean_sbu_0, # of connection points: 4
#     Node 15, Type 0, BuildingBlock: GALJAG_clean_sbu_0, # of connection points: 4
#     Node 16, Type 0, BuildingBlock: GALJAG_clean_sbu_0, # of connection points: 4
#     Node 17, Type 0, BuildingBlock: GALJAG_clean_sbu_0, # of connection points: 4
#     Node 18, Type 0, BuildingBlock: GALJAG_clean_sbu_0, # of connection points: 4
#     Node 19, Type 0, BuildingBlock: GALJAG_clean_sbu_0, # of connection points: 4
#     Node 20, Type 0, BuildingBlock: GALJAG_clean_sbu_0, # of connection points: 4
#     Node 21, Type 0, BuildingBlock: GALJAG_clean_sbu_0, # of connection points: 4
#     Node 22, Type 0, BuildingBlock: GALJAG_clean_sbu_0, # of connection points: 4
#     Node 23, Type 0, BuildingBlock: GALJAG_clean_sbu_0, # of connection points: 4
#     Edge 24, Type (0, 0), BuildingBlock: EZIPEK_clean_linker_0, # of connection points: 2
#     Edge 25, Type (0, 0), BuildingBlock: EZIPEK_clean_linker_0, # of connection points: 2
#     Edge 26, Type (0, 0), BuildingBlock: EZIPEK_clean_linker_0, # of connection points: 2
#     Edge 27, Type (0, 0), BuildingBlock: EZIPEK_clean_linker_0, # of connection points: 2
#     Edge 28, Type (0, 0), BuildingBlock: EZIPEK_clean_linker_0, # of connection points: 2
#     Edge 29, Type (0, 0), BuildingBlock: EZIPEK_clean_linker_0, # of connection points: 2
#     Edge 30, Type (0, 0), BuildingBlock: EZIPEK_clean_linker_0, # of connection points: 2
#     Edge 31, Type (0, 0), BuildingBlock: EZIPEK_clean_linker_0, # of connection points: 2
#     Edge 32, Type (0, 0), BuildingBlock: EZIPEK_clean_linker_0, # of connection points: 2
#     Edge 33, Type (0, 0), BuildingBlock: EZIPEK_clean_linker_0, # of connection points: 2
#     Edge 34, Type (0, 0), BuildingBlock: EZIPEK_clean_linker_0, # of connection points: 2
#     Edge 35, Type (0, 0), BuildingBlock: EZIPEK_clean_linker_0, # of connection points: 2
#     Edge 36, Type (0, 0), BuildingBlock: EZIPEK_clean_linker_0, # of connection points: 2
#     Edge 37, Type (0, 0), BuildingBlock: EZIPEK_clean_linker_0, # of connection points: 2
#     Edge 38, Type (0, 0), BuildingBlock: EZIPEK_clean_linker_0, # of connection points: 2
#     Edge 39, Type (0, 0), BuildingBlock: EZIPEK_clean_linker_0, # of connection points: 2
#     Edge 40, Type (0, 0), BuildingBlock: EZIPEK_clean_linker_0, # of connection points: 2
#     Edge 41, Type (0, 0), BuildingBlock: EZIPEK_clean_linker_0, # of connection points: 2
#     Edge 42, Type (0, 0), BuildingBlock: EZIPEK_clean_linker_0, # of connection points: 2
#     Edge 43, Type (0, 0), BuildingBlock: EZIPEK_clean_linker_0, # of connection points: 2
#     Edge 44, Type (0, 0), BuildingBlock: EZIPEK_clean_linker_0, # of connection points: 2
#     Edge 45, Type (0, 0), BuildingBlock: EZIPEK_clean_linker_0, # of connection points: 2
#     Edge 46, Type (0, 0), BuildingBlock: EZIPEK_clean_linker_0, # of connection points: 2
#     Edge 47, Type (0, 0), BuildingBlock: EZIPEK_clean_linker_0, # of connection points: 2
#     Edge 48, Type (0, 0), BuildingBlock: EZIPEK_clean_linker_0, # of connection points: 2
#     Edge 49, Type (0, 0), BuildingBlock: EZIPEK_clean_linker_0, # of connection points: 2
#     Edge 50, Type (0, 0), BuildingBlock: EZIPEK_clean_linker_0, # of connection points: 2
#     Edge 51, Type (0, 0), BuildingBlock: EZIPEK_clean_linker_0, # of connection points: 2
#     Edge 52, Type (0, 0), BuildingBlock: EZIPEK_clean_linker_0, # of connection points: 2
#     Edge 53, Type (0, 0), BuildingBlock: EZIPEK_clean_linker_0, # of connection points: 2
#     Edge 54, Type (0, 0), BuildingBlock: EZIPEK_clean_linker_0, # of connection points: 2
#     Edge 55, Type (0, 0), BuildingBlock: EZIPEK_clean_linker_0, # of connection points: 2
#     Edge 56, Type (0, 0), BuildingBlock: EZIPEK_clean_linker_0, # of connection points: 2
#     Edge 57, Type (0, 0), BuildingBlock: EZIPEK_clean_linker_0, # of connection points: 2
#     Edge 58, Type (0, 0), BuildingBlock: EZIPEK_clean_linker_0, # of connection points: 2
#     Edge 59, Type (0, 0), BuildingBlock: EZIPEK_clean_linker_0, # of connection points: 2
#     Edge 60, Type (0, 0), BuildingBlock: EZIPEK_clean_linker_0, # of connection points: 2
#     Edge 61, Type (0, 0), BuildingBlock: EZIPEK_clean_linker_0, # of connection points: 2
#     Edge 62, Type (0, 0), BuildingBlock: EZIPEK_clean_linker_0, # of connection points: 2
#     Edge 63, Type (0, 0), BuildingBlock: EZIPEK_clean_linker_0, # of connection points: 2
#     Edge 64, Type (0, 0), BuildingBlock: EZIPEK_clean_linker_0, # of connection points: 2
#     Edge 65, Type (0, 0), BuildingBlock: EZIPEK_clean_linker_0, # of connection points: 2
#     Edge 66, Type (0, 0), BuildingBlock: EZIPEK_clean_linker_0, # of connection points: 2
#     Edge 67, Type (0, 0), BuildingBlock: EZIPEK_clean_linker_0, # of connection points: 2
#     Edge 68, Type (0, 0), BuildingBlock: EZIPEK_clean_linker_0, # of connection points: 2
#     Edge 69, Type (0, 0), BuildingBlock: EZIPEK_clean_linker_0, # of connection points: 2
#     Edge 70, Type (0, 0), BuildingBlock: EZIPEK_clean_linker_0, # of connection points: 2
#     Edge 71, Type (0, 0), BuildingBlock: EZIPEK_clean_linker_0, # of connection points: 2
# Relax obj value: 0.088
# Max RMSD: 0.064
# Mean RMSD: 0.064
data_MOF--net-umk--node1-GALJAG_clean_sbu_0--edge1-EZIPEK_clean_linker_0
_symmetry_space_group_name_H-M    P1
_symmetry_Int_Tables_number       1
_symmetry_cell_setting            triclinic
loop_
_symmetry_equiv_pos_as_xyz
'x, y, z'
_cell_length_a     46.780922
_cell_length_b     46.797729
_cell_length_c     34.458532
_cell_angle_alpha  90.009553
_cell_angle_beta   89.994005
_cell_angle_gamma 120.00736
loop_
_atom_site_label
_atom_site_type_symbol
_atom_site_fract_x
_atom_site_fract_y
_atom_site_fract_z
_atom_type_partial_charge
In0 In 0.33018 0.46172 0.09187 0.0
O1 O 0.29643 0.43851 0.03958 0.0
O2 O 0.2827 0.4631 0.08108 0.0
C3 C 0.34966 0.41676 0.09441 0.0
C4 C 0.37612 0.5138 0.05112 0.0
C5 C 0.32516 0.46827 0.16892 0.0
O6 O 0.32071 0.40907 0.08418 0.0
O7 O 0.3681 0.44654 0.10383 0.0
O8 O 0.34595 0.49158 0.14807 0.0
O9 O 0.30607 0.44211 0.15087 0.0
C10 C 0.27648 0.44797 0.04916 0.0
O11 O 0.35438 0.51544 0.0711 0.0
O12 O 0.37499 0.48638 0.05234 0.0
In13 In 0.86227 0.33718 0.59121 0.0
O14 O 0.84757 0.29488 0.54871 0.0
O15 O 0.80905 0.29858 0.57689 0.0
C16 C 0.92744 0.35898 0.59005 0.0
C17 C 0.85792 0.3832 0.54888 0.0
C18 C 0.85232 0.32829 0.66845 0.0
O19 O 0.90643 0.32959 0.58146 0.0
O20 O 0.91564 0.37704 0.59938 0.0
O21 O 0.85227 0.35185 0.65078 0.0
O22 O 0.85641 0.30869 0.64717 0.0
C23 C 0.817 0.28364 0.55257 0.0
O24 O 0.84406 0.37391 0.58155 0.0
O25 O 0.87358 0.3693 0.53771 0.0
In26 In 0.53093 0.86553 0.09132 0.0
O27 O 0.55874 0.85123 0.04845 0.0
O28 O 0.51697 0.81254 0.077 0.0
C29 C 0.57462 0.93039 0.09357 0.0
C30 C 0.48172 0.86257 0.04777 0.0
C31 C 0.52761 0.85463 0.16849 0.0
O32 O 0.5828 0.90964 0.08294 0.0
O33 O 0.54482 0.91848 0.10329 0.0
O34 O 0.5039 0.85308 0.14935 0.0
O35 O 0.55258 0.86034 0.14865 0.0
C36 C 0.53956 0.82063 0.05222 0.0
O37 O 0.47633 0.84717 0.07944 0.0
O38 O 0.51165 0.87943 0.03824 0.0
In39 In 0.66526 0.53368 0.58849 0.0
O40 O 0.70522 0.56173 0.54313 0.0
O41 O 0.70326 0.51968 0.56978 0.0
C42 C 0.64629 0.5792 0.59178 0.0
C43 C 0.61883 0.48283 0.54725 0.0
C44 C 0.67481 0.53027 0.66532 0.0
O45 O 0.67601 0.58715 0.5859 0.0
O46 O 0.62662 0.5488 0.59631 0.0
O47 O 0.64738 0.51234 0.64906 0.0
O48 O 0.69787 0.54892 0.64272 0.0
C49 C 0.71684 0.54256 0.54512 0.0
O50 O 0.63103 0.47843 0.57782 0.0
O51 O 0.62989 0.51252 0.53774 0.0
In52 In 0.13726 0.65994 0.08532 0.0
O53 O 0.15056 0.70356 0.04501 0.0
O54 O 0.18977 0.69772 0.06711 0.0
C55 C 0.07254 0.63992 0.08509 0.0
C56 C 0.14177 0.61329 0.0439 0.0
C57 C 0.14739 0.6681 0.16285 0.0
O58 O 0.09374 0.66737 0.07107 0.0
O59 O 0.08384 0.62269 0.0991 0.0
O60 O 0.14459 0.64335 0.14494 0.0
O61 O 0.14638 0.68953 0.14164 0.0
C62 C 0.18111 0.71376 0.04541 0.0
O63 O 0.16029 0.62771 0.07248 0.0
O64 O 0.12124 0.62243 0.03621 0.0
In65 In 0.46573 0.13307 0.59067 0.0
O66 O 0.52111 0.15437 0.58006 0.0
O67 O 0.48713 0.11669 0.54224 0.0
C68 C 0.47122 0.14242 0.66795 0.0
C69 C 0.45896 0.17917 0.55116 0.0
C70 C 0.41781 0.0695 0.59172 0.0
O71 O 0.49433 0.14395 0.64746 0.0
O72 O 0.44574 0.13714 0.64948 0.0
O73 O 0.41169 0.09234 0.58431 0.0
O74 O 0.44757 0.07875 0.59903 0.0
C75 C 0.51682 0.13626 0.55094 0.0
O76 O 0.44932 0.1507 0.53799 0.0
O77 O 0.47067 0.18404 0.58501 0.0
In78 In 0.52687 0.66496 0.91592 0.0
O79 O 0.55696 0.70824 0.95663 0.0
O80 O 0.51345 0.70411 0.93181 0.0
C81 C 0.56792 0.6405 0.91433 0.0
C82 C 0.47673 0.61893 0.95847 0.0
C83 C 0.52411 0.67329 0.83879 0.0
O84 O 0.57749 0.6698 0.92464 0.0
O85 O 0.53795 0.62373 0.90479 0.0
O86 O 0.49913 0.65393 0.85848 0.0
O87 O 0.55026 0.68973 0.85811 0.0
C88 C 0.5374 0.71934 0.95473 0.0
O89 O 0.47251 0.6269 0.92488 0.0
O90 O 0.50604 0.63421 0.97071 0.0
In91 In 0.86155 0.53342 0.40856 0.0
O92 O 0.84496 0.47919 0.42027 0.0
O93 O 0.873 0.51454 0.46377 0.0
C94 C 0.8506 0.5309 0.33144 0.0
C95 C 0.81672 0.54338 0.44603 0.0
C96 C 0.92723 0.57372 0.40691 0.0
O97 O 0.84544 0.50594 0.3509 0.0
O98 O 0.85986 0.55687 0.35099 0.0
O99 O 0.90795 0.58322 0.41933 0.0
O100 O 0.9135 0.54428 0.39518 0.0
C101 C 0.85825 0.48474 0.45337 0.0
O102 O 0.84724 0.56384 0.4473 0.0
O103 O 0.80862 0.51879 0.42439 0.0
In104 In 0.33236 0.86378 0.91029 0.0
O105 O 0.36994 0.84677 0.92036 0.0
O106 O 0.36428 0.8758 0.96406 0.0
C107 C 0.32513 0.85405 0.83287 0.0
C108 C 0.27988 0.81739 0.94953 0.0
C109 C 0.35246 0.92849 0.91061 0.0
O110 O 0.34997 0.85725 0.85101 0.0
O111 O 0.30333 0.85474 0.85374 0.0
O112 O 0.32259 0.90699 0.91611 0.0
O113 O 0.37172 0.91745 0.90493 0.0
C114 C 0.37886 0.86073 0.95305 0.0
O115 O 0.29049 0.84782 0.95395 0.0
O116 O 0.29477 0.8102 0.92425 0.0
In117 In 0.46708 0.33209 0.41224 0.0
O118 O 0.43967 0.28907 0.45409 0.0
O119 O 0.48399 0.29567 0.42861 0.0
C120 C 0.42232 0.35225 0.41352 0.0
C121 C 0.51702 0.37897 0.45441 0.0
C122 C 0.47018 0.32349 0.33508 0.0
O123 O 0.41433 0.32261 0.41972 0.0
O124 O 0.45247 0.37139 0.40648 0.0
O125 O 0.49293 0.34734 0.35336 0.0
O126 O 0.44621 0.30343 0.35571 0.0
C127 C 0.4605 0.27956 0.4519 0.0
O128 O 0.52121 0.3719 0.4203 0.0
O129 O 0.48793 0.36247 0.46711 0.0
In130 In 0.1339 0.45804 0.90914 0.0
O131 O 0.15674 0.51315 0.92125 0.0
O132 O 0.12012 0.47944 0.96032 0.0
C133 C 0.14673 0.46124 0.83215 0.0
C134 C 0.17689 0.44788 0.95026 0.0
C135 C 0.0685 0.4153 0.90902 0.0
O136 O 0.13889 0.48026 0.84883 0.0
O137 O 0.14947 0.44135 0.85436 0.0
O138 O 0.08898 0.40679 0.91977 0.0
O139 O 0.08101 0.44484 0.89806 0.0
C140 C 0.13984 0.50911 0.95146 0.0
O141 O 0.14727 0.42545 0.94541 0.0
O142 O 0.18492 0.47474 0.93331 0.0
In143 In 0.66705 0.13356 0.41675 0.0
O144 O 0.71049 0.15032 0.45807 0.0
O145 O 0.70097 0.18689 0.43431 0.0
C146 C 0.64835 0.06905 0.41756 0.0
C147 C 0.62015 0.13649 0.45879 0.0
C148 C 0.67775 0.14588 0.33995 0.0
O149 O 0.67737 0.09097 0.42634 0.0
O150 O 0.62926 0.07962 0.40836 0.0
O151 O 0.65016 0.13677 0.3556 0.0
O152 O 0.70036 0.14992 0.36309 0.0
C153 C 0.71821 0.18031 0.45678 0.0
O154 O 0.62823 0.14911 0.42536 0.0
O155 O 0.63566 0.12265 0.4708 0.0
In156 In 0.66743 0.53208 0.91063 0.0
O157 O 0.7126 0.56511 0.94717 0.0
O158 O 0.70762 0.52032 0.92665 0.0
C159 C 0.64091 0.57157 0.91006 0.0
C160 C 0.62512 0.4825 0.95687 0.0
C161 C 0.67605 0.52985 0.83325 0.0
O162 O 0.67112 0.58253 0.91695 0.0
O163 O 0.62439 0.54111 0.90315 0.0
O164 O 0.65153 0.50733 0.85099 0.0
O165 O 0.69687 0.55254 0.85467 0.0
C166 C 0.72515 0.54678 0.94519 0.0
O167 O 0.6322 0.47732 0.92314 0.0
O168 O 0.63996 0.5123 0.96741 0.0
In169 In 0.1346 0.66657 0.40793 0.0
O170 O 0.14887 0.71172 0.44585 0.0
O171 O 0.18745 0.70445 0.4247 0.0
C172 C 0.06912 0.64296 0.40613 0.0
C173 C 0.13771 0.62216 0.4547 0.0
C174 C 0.14668 0.67258 0.33082 0.0
O175 O 0.08936 0.67283 0.41362 0.0
O176 O 0.08178 0.62523 0.39916 0.0
O177 O 0.15016 0.6524 0.35166 0.0
O178 O 0.13844 0.69077 0.34893 0.0
C179 C 0.17928 0.7213 0.44564 0.0
O180 O 0.14999 0.6283 0.42102 0.0
O181 O 0.12391 0.63825 0.46469 0.0
In182 In 0.46873 0.13411 0.91317 0.0
O183 O 0.44006 0.14979 0.95277 0.0
O184 O 0.48488 0.18749 0.92794 0.0
C185 C 0.42426 0.06935 0.9131 0.0
C186 C 0.51726 0.13843 0.95901 0.0
C187 C 0.47304 0.1436 0.83572 0.0
O188 O 0.41602 0.09078 0.91982 0.0
O189 O 0.45451 0.08049 0.90661 0.0
O190 O 0.49376 0.13955 0.85474 0.0
O191 O 0.45068 0.14399 0.85573 0.0
C192 C 0.46091 0.18016 0.95044 0.0
O193 O 0.52322 0.15318 0.92678 0.0
O194 O 0.48717 0.12172 0.96796 0.0
In195 In 0.32944 0.46554 0.41444 0.0
O196 O 0.28249 0.43453 0.44916 0.0
O197 O 0.28984 0.4793 0.42566 0.0
C198 C 0.35147 0.42239 0.41636 0.0
C199 C 0.3722 0.51429 0.46138 0.0
C200 C 0.32564 0.46981 0.33669 0.0
O201 O 0.32228 0.41417 0.42577 0.0
O202 O 0.36933 0.45203 0.40617 0.0
O203 O 0.34894 0.4918 0.35646 0.0
O204 O 0.30383 0.446 0.35599 0.0
C205 C 0.27093 0.4535 0.44451 0.0
O206 O 0.36425 0.52007 0.42854 0.0
O207 O 0.35824 0.48428 0.47075 0.0
In208 In 0.86327 0.33356 0.91332 0.0
O209 O 0.84707 0.29904 0.96573 0.0
O210 O 0.81142 0.2899 0.92214 0.0
C211 C 0.92737 0.35029 0.91179 0.0
C212 C 0.8585 0.38152 0.95074 0.0
C213 C 0.85312 0.3259 0.83615 0.0
O214 O 0.90469 0.32073 0.9163 0.0
O215 O 0.91769 0.37084 0.9081 0.0
O216 O 0.85883 0.35196 0.85361 0.0
O217 O 0.85131 0.30326 0.8577 0.0
C218 C 0.81755 0.28174 0.95461 0.0
O219 O 0.84254 0.36862 0.91994 0.0
O220 O 0.87634 0.37015 0.96245 0.0
In221 In 0.53028 0.86408 0.41384 0.0
O222 O 0.4761 0.84989 0.42068 0.0
O223 O 0.50859 0.87291 0.46839 0.0
C224 C 0.52752 0.8542 0.33639 0.0
C225 C 0.53545 0.81745 0.45373 0.0
C226 C 0.57598 0.92856 0.41585 0.0
O227 O 0.50641 0.85819 0.35459 0.0
O228 O 0.54966 0.85416 0.35722 0.0
O229 O 0.58381 0.90646 0.41849 0.0
O230 O 0.5456 0.91822 0.41214 0.0
C231 C 0.47976 0.86077 0.45497 0.0
O232 O 0.55597 0.84778 0.45731 0.0
O233 O 0.51307 0.81045 0.42888 0.0
In234 In 0.47094 0.33304 0.09046 0.0
O235 O 0.52639 0.36787 0.08137 0.0
O236 O 0.4929 0.36848 0.03991 0.0
C237 C 0.47319 0.32362 0.16743 0.0
C238 C 0.46295 0.28166 0.04752 0.0
C239 C 0.42438 0.35073 0.09276 0.0
O240 O 0.49181 0.35089 0.15118 0.0
O241 O 0.45445 0.30066 0.1448 0.0
O242 O 0.41709 0.32105 0.08839 0.0
O243 O 0.45476 0.37112 0.09603 0.0
C244 C 0.52246 0.37988 0.05035 0.0
O245 O 0.44422 0.2937 0.04419 0.0
O246 O 0.48503 0.29482 0.07318 0.0
In247 In 0.13471 0.46949 0.58867 0.0
O248 O 0.15528 0.52512 0.58091 0.0
O249 O 0.12183 0.49231 0.53856 0.0
C250 C 0.14737 0.46776 0.66494 0.0
C251 C 0.17651 0.45943 0.54501 0.0
C252 C 0.06899 0.42811 0.58807 0.0
O253 O 0.14553 0.4913 0.64985 0.0
O254 O 0.1442 0.44571 0.64145 0.0
O255 O 0.08886 0.42041 0.57325 0.0
O256 O 0.08212 0.45639 0.60325 0.0
C257 C 0.13958 0.52165 0.54981 0.0
O258 O 0.14648 0.43803 0.54885 0.0
O259 O 0.18601 0.48555 0.56434 0.0
In260 In 0.66654 0.13681 0.09583 0.0
O261 O 0.70809 0.15124 0.05195 0.0
O262 O 0.70269 0.1896 0.07794 0.0
C263 C 0.64504 0.07168 0.09658 0.0
C264 C 0.61944 0.14065 0.05525 0.0
C265 C 0.67832 0.14873 0.17251 0.0
O266 O 0.67483 0.09271 0.08977 0.0
O267 O 0.62653 0.08344 0.10333 0.0
O268 O 0.65201 0.14406 0.15674 0.0
O269 O 0.69941 0.14904 0.14945 0.0
C270 C 0.71802 0.18172 0.05403 0.0
O271 O 0.62842 0.15353 0.08849 0.0
O272 O 0.63415 0.12611 0.04277 0.0
In273 In 0.52705 0.66461 0.59363 0.0
O274 O 0.47144 0.62897 0.58604 0.0
O275 O 0.50425 0.62835 0.54384 0.0
C276 C 0.52391 0.67116 0.67087 0.0
C277 C 0.53374 0.71728 0.55371 0.0
C278 C 0.57421 0.64772 0.59433 0.0
O279 O 0.50082 0.64813 0.65183 0.0
O280 O 0.54826 0.69158 0.65091 0.0
O281 O 0.58047 0.67637 0.58502 0.0
O282 O 0.54467 0.62807 0.6036 0.0
C283 C 0.47485 0.61666 0.555 0.0
O284 O 0.54509 0.6995 0.54177 0.0
O285 O 0.52008 0.70936 0.58656 0.0
In286 In 0.86556 0.53558 0.08649 0.0
O287 O 0.84801 0.48127 0.07462 0.0
O288 O 0.87708 0.51655 0.03147 0.0
C289 C 0.85293 0.53162 0.16346 0.0
C290 C 0.82202 0.54573 0.04645 0.0
C291 C 0.93131 0.57629 0.08727 0.0
O292 O 0.8527 0.5085 0.14446 0.0
O293 O 0.85822 0.5564 0.14354 0.0
O294 O 0.91169 0.58608 0.07721 0.0
O295 O 0.91791 0.54648 0.09738 0.0
C296 C 0.86165 0.48669 0.04172 0.0
O297 O 0.85207 0.56738 0.04934 0.0
O298 O 0.81343 0.51954 0.06524 0.0
In299 In 0.32955 0.86539 0.58761 0.0
O300 O 0.36287 0.84373 0.57462 0.0
O301 O 0.36744 0.88292 0.53897 0.0
C302 C 0.32339 0.85477 0.66494 0.0
C303 C 0.27727 0.82137 0.54579 0.0
C304 C 0.34715 0.92937 0.59031 0.0
O305 O 0.34644 0.85525 0.64545 0.0
O306 O 0.30256 0.85829 0.64538 0.0
O307 O 0.31833 0.90739 0.58082 0.0
O308 O 0.36673 0.91913 0.59864 0.0
C309 C 0.37697 0.86263 0.54622 0.0
O310 O 0.29103 0.852 0.54003 0.0
O311 O 0.28874 0.81289 0.5738 0.0
C312 C 0.35219 0.47039 0.23231 0.0
C313 C 0.32566 0.47001 0.21182 0.0
C314 C 0.30036 0.47222 0.27335 0.0
C315 C 0.32566 0.47024 0.29375 0.0
N316 N 0.37214 0.46124 0.29329 0.0
N317 N 0.27273 0.46707 0.21189 0.0
C318 C 0.35078 0.46788 0.27343 0.0
C319 C 0.29914 0.4698 0.23209 0.0
N320 N 0.37872 0.47294 0.21249 0.0
N321 N 0.27829 0.47768 0.29339 0.0
H322 H 0.27181 0.46704 0.18164 0.0
H323 H 0.2509 0.46291 0.22492 0.0
H324 H 0.27852 0.47959 0.32357 0.0
H325 H 0.26135 0.48281 0.2802 0.0
H326 H 0.40059 0.47759 0.22587 0.0
H327 H 0.37992 0.47251 0.18232 0.0
H328 H 0.38845 0.45532 0.2799 0.0
H329 H 0.37167 0.45865 0.32337 0.0
C330 C 0.87801 0.32641 0.73139 0.0
C331 C 0.85124 0.32584 0.71135 0.0
C332 C 0.82517 0.32499 0.77349 0.0
C333 C 0.85083 0.32314 0.79329 0.0
N334 N 0.898 0.31504 0.79071 0.0
N335 N 0.79665 0.31897 0.71249 0.0
C336 C 0.87591 0.32133 0.77211 0.0
C337 C 0.82404 0.32364 0.73217 0.0
N338 N 0.9065 0.33418 0.71198 0.0
N339 N 0.80188 0.32803 0.79417 0.0
H340 H 0.79486 0.31744 0.6823 0.0
H341 H 0.77467 0.3138 0.726 0.0
H342 H 0.80043 0.32663 0.82438 0.0
H343 H 0.78501 0.33357 0.78156 0.0
H344 H 0.92812 0.33854 0.72579 0.0
H345 H 0.90982 0.33993 0.68252 0.0
H346 H 0.91432 0.3098 0.77605 0.0
H347 H 0.89835 0.31223 0.82064 0.0
C348 C 0.53265 0.88235 0.27315 0.0
C349 C 0.52861 0.8542 0.29344 0.0
C350 C 0.52728 0.82743 0.23161 0.0
C351 C 0.52775 0.85413 0.21147 0.0
N352 N 0.52721 0.90553 0.21276 0.0
N353 N 0.51877 0.79851 0.29288 0.0
C354 C 0.52919 0.88107 0.23217 0.0
C355 C 0.52527 0.82638 0.27293 0.0
N356 N 0.54163 0.91102 0.29288 0.0
N357 N 0.52876 0.80313 0.21123 0.0
H358 H 0.5172 0.79696 0.32308 0.0
H359 H 0.51254 0.77617 0.2796 0.0
H360 H 0.52855 0.80223 0.18098 0.0
H361 H 0.53223 0.78498 0.22414 0.0
H362 H 0.54866 0.93345 0.27929 0.0
H363 H 0.54535 0.91336 0.32282 0.0
H364 H 0.52391 0.92345 0.22661 0.0
H365 H 0.52666 0.90685 0.18261 0.0
C366 C 0.68239 0.55904 0.76983 0.0
C367 C 0.67872 0.53099 0.79025 0.0
C368 C 0.67342 0.5026 0.72841 0.0
C369 C 0.67867 0.53123 0.70811 0.0
N370 N 0.69397 0.58883 0.70916 0.0
N371 N 0.67756 0.47894 0.7894 0.0
C372 C 0.68528 0.56019 0.72873 0.0
C373 C 0.67607 0.5035 0.76964 0.0
N374 N 0.68083 0.58371 0.78932 0.0
N375 N 0.66582 0.4745 0.70828 0.0
H376 H 0.68038 0.47923 0.81946 0.0
H377 H 0.67911 0.45984 0.77593 0.0
H378 H 0.66605 0.47356 0.67804 0.0
H379 H 0.65763 0.45167 0.72142 0.0
H380 H 0.67882 0.60243 0.77555 0.0
H381 H 0.67848 0.58416 0.81931 0.0
H382 H 0.70328 0.61163 0.72283 0.0
H383 H 0.69422 0.59059 0.67903 0.0
C384 C 0.17289 0.69848 0.26691 0.0
C385 C 0.1475 0.6717 0.28787 0.0
C386 C 0.12066 0.64455 0.22686 0.0
C387 C 0.14762 0.66974 0.20585 0.0
N388 N 0.20138 0.71865 0.20535 0.0
N389 N 0.09901 0.61734 0.28838 0.0
C390 C 0.17423 0.69632 0.22571 0.0
C391 C 0.12205 0.64409 0.268 0.0
N392 N 0.19566 0.72597 0.28638 0.0
N393 N 0.09278 0.62211 0.20763 0.0
H394 H 0.09743 0.61661 0.31855 0.0
H395 H 0.08264 0.59488 0.27545 0.0
H396 H 0.09028 0.6218 0.17757 0.0
H397 H 0.07082 0.60576 0.22152 0.0
H398 H 0.21252 0.74782 0.2727 0.0
H399 H 0.19644 0.7277 0.31659 0.0
H400 H 0.22308 0.7366 0.21833 0.0
H401 H 0.20326 0.71769 0.17527 0.0
C402 C 0.46776 0.11523 0.77249 0.0
C403 C 0.47272 0.14376 0.79278 0.0
C404 C 0.47455 0.17082 0.73106 0.0
C405 C 0.47255 0.14343 0.71085 0.0
N406 N 0.47115 0.09112 0.71171 0.0
N407 N 0.48465 0.20014 0.79228 0.0
C408 C 0.47052 0.11619 0.73141 0.0
C409 C 0.47699 0.17194 0.77232 0.0
N410 N 0.4585 0.08656 0.79233 0.0
N411 N 0.47397 0.19564 0.71079 0.0
H412 H 0.48657 0.20176 0.82246 0.0
H413 H 0.49151 0.22264 0.77901 0.0
H414 H 0.47397 0.19649 0.68054 0.0
H415 H 0.47154 0.21439 0.72379 0.0
H416 H 0.45076 0.06394 0.77886 0.0
H417 H 0.45541 0.08449 0.82236 0.0
H418 H 0.47387 0.07274 0.72527 0.0
H419 H 0.47121 0.08973 0.68153 0.0
C420 C 0.52575 0.69954 0.73363 0.0
C421 C 0.52391 0.67205 0.71385 0.0
C422 C 0.51995 0.64471 0.77596 0.0
C423 C 0.52385 0.67305 0.79583 0.0
N424 N 0.53447 0.72901 0.79452 0.0
N425 N 0.52583 0.62147 0.71574 0.0
C426 C 0.52811 0.70103 0.77491 0.0
C427 C 0.52261 0.64535 0.73487 0.0
N428 N 0.52378 0.72347 0.71303 0.0
N429 N 0.51377 0.61708 0.79631 0.0
H430 H 0.52816 0.62102 0.6857 0.0
H431 H 0.52927 0.60369 0.72972 0.0
H432 H 0.51408 0.6161 0.8265 0.0
H433 H 0.50633 0.59433 0.78333 0.0
H434 H 0.52147 0.74237 0.72579 0.0
H435 H 0.52181 0.72304 0.68285 0.0
H436 H 0.54153 0.75147 0.78101 0.0
H437 H 0.53468 0.73039 0.82474 0.0
C438 C 0.87534 0.52743 0.26853 0.0
C439 C 0.85069 0.53095 0.28845 0.0
C440 C 0.82627 0.53333 0.22624 0.0
C441 C 0.85194 0.53153 0.20645 0.0
N442 N 0.90442 0.53333 0.20828 0.0
N443 N 0.80507 0.54118 0.28732 0.0
C444 C 0.87733 0.53015 0.22745 0.0
C445 C 0.82692 0.53523 0.26758 0.0
N446 N 0.89703 0.52157 0.28884 0.0
N447 N 0.80061 0.53182 0.20555 0.0
H448 H 0.80373 0.54103 0.31754 0.0
H449 H 0.78957 0.54819 0.27398 0.0
H450 H 0.7994 0.5304 0.17533 0.0
H451 H 0.77936 0.52953 0.21818 0.0
H452 H 0.91243 0.51424 0.27589 0.0
H453 H 0.89852 0.52214 0.31902 0.0
H454 H 0.92568 0.5368 0.22218 0.0
H455 H 0.90712 0.53551 0.17824 0.0
C456 C 0.34822 0.88192 0.72839 0.0
C457 C 0.32322 0.85434 0.70795 0.0
C458 C 0.29975 0.82582 0.76965 0.0
C459 C 0.32384 0.85403 0.78994 0.0
N460 N 0.36655 0.9113 0.78945 0.0
N461 N 0.27281 0.80176 0.70827 0.0
C462 C 0.34695 0.8827 0.76954 0.0
C463 C 0.29814 0.82684 0.72837 0.0
N464 N 0.37329 0.90749 0.7085 0.0
N465 N 0.27936 0.79767 0.78978 0.0
H466 H 0.27176 0.80085 0.67803 0.0
H467 H 0.25183 0.78282 0.72138 0.0
H468 H 0.27979 0.7962 0.81997 0.0
H469 H 0.26361 0.77511 0.7767 0.0
H470 H 0.39445 0.92606 0.72176 0.0
H471 H 0.37407 0.90936 0.67835 0.0
H472 H 0.38103 0.93407 0.77612 0.0
H473 H 0.36622 0.91309 0.81959 0.0
C474 C 0.49646 0.32029 0.27274 0.0
C475 C 0.47016 0.32119 0.29216 0.0
C476 C 0.44311 0.31699 0.22979 0.0
C477 C 0.4712 0.32004 0.21019 0.0
N478 N 0.52585 0.32707 0.21226 0.0
N479 N 0.42214 0.32762 0.28885 0.0
C480 C 0.4983 0.32248 0.23148 0.0
C481 C 0.44428 0.32117 0.27065 0.0
N482 N 0.51896 0.31616 0.29366 0.0
N483 N 0.41538 0.31047 0.20949 0.0
H484 H 0.42322 0.33273 0.3184 0.0
H485 H 0.40496 0.33155 0.27411 0.0
H486 H 0.4137 0.30856 0.17936 0.0
H487 H 0.39303 0.30431 0.22279 0.0
H488 H 0.53679 0.312 0.2811 0.0
H489 H 0.51804 0.31401 0.32383 0.0
H490 H 0.54791 0.33297 0.22611 0.0
H491 H 0.52727 0.32676 0.18206 0.0
C492 C 0.17598 0.48992 0.72874 0.0
C493 C 0.14938 0.4646 0.70752 0.0
C494 C 0.12581 0.43373 0.76777 0.0
C495 C 0.14995 0.46097 0.78938 0.0
N496 N 0.19738 0.51577 0.79125 0.0
N497 N 0.09574 0.4152 0.70733 0.0
C498 C 0.17489 0.48932 0.77006 0.0
C499 C 0.1236 0.43702 0.72707 0.0
N500 N 0.20275 0.51391 0.70933 0.0
N501 N 0.10458 0.40481 0.78603 0.0
H502 H 0.09231 0.41727 0.67782 0.0
H503 H 0.07453 0.3969 0.72085 0.0
H504 H 0.10419 0.40154 0.81594 0.0
H505 H 0.08911 0.38306 0.77116 0.0
H506 H 0.2244 0.53127 0.72297 0.0
H507 H 0.20449 0.51476 0.67912 0.0
H508 H 0.21356 0.53867 0.77916 0.0
H509 H 0.19883 0.51532 0.82144 0.0
C510 C 0.69017 0.12829 0.2763 0.0
C511 C 0.68244 0.14968 0.29729 0.0
C512 C 0.67917 0.175 0.23623 0.0
C513 C 0.68273 0.15088 0.21525 0.0
N514 N 0.6882 0.10216 0.21497 0.0
N515 N 0.66885 0.19306 0.29804 0.0
C516 C 0.68786 0.1272 0.23512 0.0
C517 C 0.67675 0.17298 0.27744 0.0
N518 N 0.69927 0.10854 0.29561 0.0
N519 N 0.67938 0.20056 0.21671 0.0
H520 H 0.66953 0.19428 0.32827 0.0
H521 H 0.66022 0.20749 0.28535 0.0
H522 H 0.68187 0.20312 0.18662 0.0
H523 H 0.68011 0.22077 0.23029 0.0
H524 H 0.70939 0.0958 0.28193 0.0
H525 H 0.69897 0.10648 0.32568 0.0
H526 H 0.6871 0.08161 0.22812 0.0
H527 H 0.68692 0.10024 0.18486 0.0
C528 C 0.23264 0.45407 0.95939 0.0
C529 C 0.20074 0.44373 0.97447 0.0
C530 C 0.217 0.42992 0.03626 0.0
C531 C 0.25005 0.44497 0.02294 0.0
N532 N 0.29052 0.4778 0.97429 0.0
N533 N 0.16395 0.42664 0.02981 0.0
C534 C 0.25824 0.45863 0.98506 0.0
C535 C 0.19308 0.43263 0.01353 0.0
N536 N 0.23838 0.45893 0.92039 0.0
N537 N 0.20831 0.41256 0.07026 0.0
H538 H 0.14609 0.42936 0.01489 0.0
H539 H 0.1588 0.42197 0.05929 0.0
H540 H 0.22517 0.40987 0.08745 0.0
H541 H 0.18391 0.39825 0.07939 0.0
H542 H 0.26046 0.46356 0.90755 0.0
H543 H 0.2199 0.45473 0.90043 0.0
H544 H 0.29772 0.49105 0.94838 0.0
H545 H 0.31016 0.48353 0.99297 0.0
C546 C 0.77129 0.23359 0.46368 0.0
C547 C 0.74441 0.2058 0.48135 0.0
C548 C 0.76749 0.22723 0.54572 0.0
C549 C 0.79239 0.25655 0.52814 0.0
N550 N 0.8146 0.29044 0.47089 0.0
N551 N 0.71352 0.17857 0.53917 0.0
C552 C 0.79349 0.2605 0.48721 0.0
C553 C 0.74161 0.20314 0.5224 0.0
N554 N 0.77614 0.23386 0.42452 0.0
N555 N 0.7691 0.22198 0.58449 0.0
H556 H 0.69368 0.16068 0.52322 0.0
H557 H 0.7086 0.17762 0.56876 0.0
H558 H 0.78782 0.23903 0.60247 0.0
H559 H 0.75364 0.19956 0.59811 0.0
H560 H 0.79726 0.2519 0.41059 0.0
H561 H 0.76054 0.2144 0.40636 0.0
H562 H 0.81389 0.29571 0.44166 0.0
H563 H 0.8308 0.31111 0.48707 0.0
C564 C 0.54501 0.77043 0.04422 0.0
C565 C 0.54157 0.79608 0.02716 0.0
C566 C 0.54144 0.7744 0.96237 0.0
C567 C 0.54077 0.74659 0.97963 0.0
N568 N 0.53633 0.71522 0.03739 0.0
N569 N 0.53058 0.81944 0.97041 0.0
C570 C 0.54127 0.74385 0.02069 0.0
C571 C 0.53837 0.79742 0.9863 0.0
N572 N 0.55266 0.77187 0.08273 0.0
N573 N 0.54589 0.77928 0.92321 0.0
H574 H 0.52723 0.83625 0.98682 0.0
H575 H 0.52435 0.81898 0.9413 0.0
H576 H 0.54874 0.76317 0.90481 0.0
H577 H 0.54999 0.80087 0.90954 0.0
H578 H 0.55891 0.7557 0.09587 0.0
H579 H 0.55582 0.79113 0.10082 0.0
H580 H 0.53262 0.71055 0.06706 0.0
H581 H 0.53288 0.69479 0.0215 0.0
C582 C 0.73894 0.54291 0.47858 0.0
C583 C 0.74359 0.54569 0.51944 0.0
C584 C 0.79591 0.54622 0.51216 0.0
C585 C 0.79252 0.54604 0.47117 0.0
N586 N 0.76422 0.55055 0.41513 0.0
N587 N 0.77937 0.55695 0.5746 0.0
C588 C 0.76503 0.5463 0.45429 0.0
C589 C 0.77298 0.54946 0.53608 0.0
N590 N 0.70904 0.53528 0.46304 0.0
N591 N 0.81985 0.54141 0.52841 0.0
H592 H 0.76328 0.55989 0.59296 0.0
H593 H 0.80195 0.56339 0.58747 0.0
H594 H 0.83676 0.5381 0.51216 0.0
H595 H 0.82102 0.53756 0.558 0.0
H596 H 0.70309 0.5293 0.43393 0.0
H597 H 0.68904 0.53199 0.47975 0.0
H598 H 0.74649 0.55437 0.40162 0.0
H599 H 0.78304 0.55332 0.39652 0.0
C600 C 0.2588 0.79195 0.01482 0.0
C601 C 0.25359 0.79205 0.97424 0.0
C602 C 0.2009 0.74039 0.98003 0.0
C603 C 0.20501 0.74156 0.02101 0.0
N604 N 0.23424 0.77201 0.07807 0.0
N605 N 0.21737 0.7702 0.91903 0.0
C606 C 0.23293 0.76841 0.03861 0.0
C607 C 0.22393 0.76738 0.95706 0.0
N608 N 0.289 0.81326 0.03045 0.0
N609 N 0.17602 0.71284 0.96275 0.0
H610 H 0.23368 0.78967 0.90134 0.0
H611 H 0.19461 0.75496 0.90598 0.0
H612 H 0.15855 0.69242 0.97821 0.0
H613 H 0.17427 0.70902 0.93286 0.0
H614 H 0.29532 0.81175 0.05905 0.0
H615 H 0.30885 0.83062 0.01405 0.0
H616 H 0.25234 0.79291 0.09227 0.0
H617 H 0.21542 0.75562 0.09644 0.0
C618 C 0.42963 0.19886 0.50699 0.0
C619 C 0.45868 0.20543 0.52739 0.0
C620 C 0.4868 0.26201 0.50253 0.0
C621 C 0.45948 0.25398 0.47798 0.0
N622 N 0.40645 0.21328 0.45262 0.0
N623 N 0.51729 0.24156 0.53803 0.0
C624 C 0.43123 0.22199 0.47908 0.0
C625 C 0.48794 0.23656 0.5235 0.0
N626 N 0.40025 0.17118 0.51531 0.0
N627 N 0.51106 0.29416 0.50724 0.0
H628 H 0.51985 0.22353 0.5527 0.0
H629 H 0.53981 0.26263 0.53203 0.0
H630 H 0.51044 0.31381 0.49383 0.0
H631 H 0.5298 0.30161 0.5278 0.0
H632 H 0.37774 0.16678 0.50407 0.0
H633 H 0.39784 0.15424 0.53655 0.0
H634 H 0.38693 0.18923 0.44945 0.0
H635 H 0.40693 0.22943 0.43143 0.0
C636 C 0.7916 0.53079 0.98335 0.0
C637 C 0.79986 0.549 0.01854 0.0
C638 C 0.76865 0.57564 0.99793 0.0
C639 C 0.75616 0.55358 0.96583 0.0
N640 N 0.76863 0.52346 0.91867 0.0
N641 N 0.79543 0.58752 0.06091 0.0
C642 C 0.7713 0.53482 0.95582 0.0
C643 C 0.78845 0.57136 0.0261 0.0
N644 N 0.80274 0.50923 0.97648 0.0
N645 N 0.76416 0.60229 0.99989 0.0
H646 H 0.81024 0.58533 0.08198 0.0
H647 H 0.78445 0.60094 0.07023 0.0
H648 H 0.75477 0.60952 0.97695 0.0
H649 H 0.77459 0.62036 0.02127 0.0
H650 H 0.79394 0.49195 0.95413 0.0
H651 H 0.81955 0.50721 0.99447 0.0
H652 H 0.78113 0.51185 0.9083 0.0
H653 H 0.75742 0.52968 0.89664 0.0
C654 C 0.23226 0.77462 0.45458 0.0
C655 C 0.20326 0.74822 0.47093 0.0
C656 C 0.22066 0.77291 0.53556 0.0
C657 C 0.25133 0.79702 0.51983 0.0
N658 N 0.28895 0.81712 0.46536 0.0
N659 N 0.1728 0.71863 0.52812 0.0
C660 C 0.25786 0.79703 0.47954 0.0
C661 C 0.1981 0.74641 0.51174 0.0
N662 N 0.23502 0.7788 0.41523 0.0
N663 N 0.21271 0.77573 0.573 0.0
H664 H 0.15624 0.69805 0.51211 0.0
H665 H 0.17018 0.71464 0.55797 0.0
H666 H 0.22849 0.79503 0.59123 0.0
H667 H 0.1893 0.76079 0.58472 0.0
H668 H 0.25413 0.79955 0.40189 0.0
H669 H 0.21653 0.76313 0.39603 0.0
H670 H 0.29587 0.81548 0.43708 0.0
H671 H 0.30879 0.83326 0.48268 0.0
C672 C 0.45887 0.2021 0.01609 0.0
C673 C 0.45918 0.20513 0.97505 0.0
C674 C 0.46336 0.25921 0.98149 0.0
C675 C 0.4601 0.25478 0.02236 0.0
N676 N 0.44775 0.21916 0.07792 0.0
N677 N 0.45546 0.23335 0.91842 0.0
C678 C 0.45575 0.22535 0.03948 0.0
C679 C 0.45957 0.23276 0.95764 0.0
N680 N 0.46341 0.17819 0.03288 0.0
N681 N 0.4718 0.28917 0.96556 0.0
H682 H 0.45229 0.21423 0.90008 0.0
H683 H 0.45211 0.25125 0.90459 0.0
H684 H 0.47554 0.30947 0.98198 0.0
H685 H 0.47807 0.29484 0.93645 0.0
H686 H 0.46705 0.17722 0.06257 0.0
H687 H 0.46684 0.16117 0.01701 0.0
H688 H 0.44091 0.19656 0.09099 0.0
H689 H 0.44477 0.23542 0.09592 0.0
C690 C 0.20638 0.43049 0.52288 0.0
C691 C 0.19793 0.4553 0.5168 0.0
C692 C 0.22779 0.47 0.45488 0.0
C693 C 0.24004 0.4485 0.46381 0.0
N694 N 0.22615 0.39653 0.49398 0.0
N695 N 0.19911 0.49822 0.47677 0.0
C696 C 0.22505 0.42516 0.49424 0.0
C697 C 0.20807 0.47485 0.48259 0.0
N698 N 0.19779 0.41297 0.55679 0.0
N699 N 0.23245 0.48324 0.41849 0.0
H700 H 0.18254 0.50075 0.49466 0.0
H701 H 0.20926 0.51623 0.45529 0.0
H702 H 0.24283 0.4764 0.39611 0.0
H703 H 0.22227 0.49728 0.40881 0.0
H704 H 0.2067 0.39741 0.56487 0.0
H705 H 0.18401 0.41608 0.57845 0.0
H706 H 0.21371 0.3776 0.514 0.0
H707 H 0.23481 0.38925 0.47029 0.0
C708 C 0.76072 0.25335 0.98416 0.0
C709 C 0.79169 0.25507 0.97883 0.0
C710 C 0.77515 0.2096 0.02513 0.0
C711 C 0.74329 0.2061 0.02744 0.0
N712 N 0.70314 0.21844 1.0002 0.0
N713 N 0.82516 0.22951 0.98729 0.0
C714 C 0.73528 0.22614 0.00431 0.0
C715 C 0.79805 0.23168 0.99736 0.0
N716 N 0.75588 0.27836 0.97184 0.0
N717 N 0.78399 0.19278 0.05027 0.0
H718 H 0.84174 0.24415 0.96582 0.0
H719 H 0.82925 0.21082 0.99721 0.0
H720 H 0.76803 0.17666 0.07129 0.0
H721 H 0.80804 0.19709 0.05257 0.0
H722 H 0.73489 0.27966 0.97886 0.0
H723 H 0.77404 0.29957 0.95829 0.0
H724 H 0.69571 0.23047 0.98068 0.0
H725 H 0.68351 0.1976 0.01279 0.0
C726 C 0.56404 0.78935 0.48338 0.0
C727 C 0.53548 0.79238 0.47985 0.0
C728 C 0.50526 0.74517 0.52318 0.0
C729 C 0.53466 0.74401 0.52968 0.0
N730 N 0.5938 0.76983 0.52254 0.0
N731 N 0.48192 0.77901 0.50479 0.0
C732 C 0.56461 0.76749 0.51163 0.0
C733 C 0.50693 0.77198 0.50216 0.0
N734 N 0.59018 0.80641 0.45889 0.0
N735 N 0.4754 0.71998 0.53531 0.0
H736 H 0.48279 0.7994 0.49139 0.0
H737 H 0.46207 0.76681 0.52378 0.0
H738 H 0.47258 0.69923 0.54983 0.0
H739 H 0.45301 0.71808 0.5274 0.0
H740 H 0.6102 0.80249 0.45747 0.0
H741 H 0.59047 0.82227 0.43742 0.0
H742 H 0.61672 0.78861 0.51308 0.0
H743 H 0.59543 0.75513 0.54418 0.0
C744 C 0.36501 0.37881 0.06042 0.0
C745 C 0.36196 0.3932 0.09532 0.0
C746 C 0.39621 0.37555 0.12983 0.0
C747 C 0.39952 0.36135 0.09492 0.0
N748 N 0.38165 0.34287 0.02938 0.0
N749 N 0.36666 0.39781 0.16486 0.0
C750 C 0.3818 0.3605 0.0611 0.0
C751 C 0.37505 0.38914 0.1306 0.0
N752 N 0.35408 0.38466 0.02616 0.0
N753 N 0.41394 0.37679 0.16198 0.0
H754 H 0.35056 0.40715 0.16624 0.0
H755 H 0.37293 0.39286 0.19201 0.0
H756 H 0.42849 0.36571 0.16319 0.0
H757 H 0.41574 0.3903 0.18678 0.0
H758 H 0.35929 0.37845 0.99912 0.0
H759 H 0.34159 0.39784 0.0243 0.0
H760 H 0.36632 0.33834 0.00551 0.0
H761 H 0.39497 0.33052 0.02801 0.0
C762 C 0.01539 0.41725 0.55971 0.0
C763 C 0.03281 0.40712 0.58462 0.0
C764 C 0.98066 0.36198 0.60981 0.0
C765 C 0.96335 0.37269 0.5855 0.0
N766 N 0.9632 0.40395 0.53007 0.0
N767 N 0.03307 0.36636 0.62712 0.0
C768 C 0.98045 0.39846 0.55831 0.0
C769 C 0.01574 0.37821 0.60757 0.0
N770 N 0.03229 0.44498 0.5375 0.0
N771 N 0.96368 0.33734 0.63615 0.0
H772 H 0.05877 0.37801 0.62661 0.0
H773 H 0.02214 0.34376 0.64143 0.0
H774 H 0.93798 0.32394 0.63734 0.0
H775 H 0.97487 0.33113 0.6581 0.0
H776 H 0.02117 0.4564 0.52304 0.0
H777 H 0.05789 0.4575 0.53471 0.0
H778 H 0.97419 0.42032 0.50712 0.0
H779 H 0.93763 0.38969 0.52729 0.0
C780 C 0.61062 0.98418 0.05978 0.0
C781 C 0.59793 0.96625 0.09476 0.0
C782 C 0.61908 0.0176 0.13153 0.0
C783 C 0.63215 0.0357 0.09666 0.0
N784 N 0.64594 0.03697 0.0289 0.0
N785 N 0.59718 0.96498 0.16456 0.0
C786 C 0.63003 0.0192 0.06126 0.0
C787 C 0.60438 0.98274 0.13088 0.0
N788 N 0.60232 0.96794 0.02498 0.0
N789 N 0.62005 0.03367 0.16509 0.0
H790 H 0.58729 0.93945 0.16485 0.0
H791 H 0.60395 0.97566 0.19197 0.0
H792 H 0.63189 0.05929 0.16726 0.0
H793 H 0.60744 0.02163 0.19023 0.0
H794 H 0.60728 0.9798 0.99823 0.0
H795 H 0.58836 0.94232 0.02266 0.0
H796 H 0.64843 0.02632 0.00353 0.0
H797 H 0.65879 0.06267 0.02807 0.0
C798 C 0.62215 0.60773 0.62934 0.0
C799 C 0.63467 0.60328 0.59373 0.0
C800 C 0.61226 0.63342 0.55893 0.0
C801 C 0.5992 0.63724 0.59446 0.0
N802 N 0.59882 0.63638 0.66424 0.0
N803 N 0.64834 0.61765 0.52638 0.0
C804 C 0.60646 0.62702 0.62997 0.0
C805 C 0.6322 0.61835 0.55914 0.0
N806 N 0.62455 0.5928 0.66231 0.0
N807 N 0.60379 0.64213 0.52477 0.0
H808 H 0.66205 0.60569 0.52504 0.0
H809 H 0.65032 0.63104 0.50141 0.0
H810 H 0.58959 0.65359 0.52343 0.0
H811 H 0.60901 0.63623 0.49755 0.0
H812 H 0.61249 0.59169 0.68813 0.0
H813 H 0.63745 0.57997 0.66337 0.0
H814 H 0.60584 0.63218 0.69134 0.0
H815 H 0.58809 0.65128 0.66537 0.0
C816 C 0.98407 0.60299 0.04984 0.0
C817 C 0.96754 0.59748 0.08593 0.0
C818 C 0.02055 0.62635 0.12004 0.0
C819 C 0.03682 0.62818 0.08463 0.0
N820 N 0.03501 0.61709 0.01609 0.0
N821 N 0.96881 0.6033 0.15545 0.0
C822 C 0.0189 0.61663 0.04944 0.0
C823 C 0.98547 0.60916 0.12108 0.0
N824 N 0.96638 0.59495 0.01604 0.0
N825 N 0.03881 0.64183 0.15231 0.0
H826 H 0.94325 0.59306 0.15687 0.0
H827 H 0.97997 0.60734 0.18257 0.0
H828 H 0.06457 0.65503 0.15218 0.0
H829 H 0.02875 0.64396 0.17833 0.0
H830 H 0.9771 0.60138 0.98864 0.0
H831 H 0.94072 0.58386 0.01531 0.0
H832 H 0.02308 0.6055 0.99046 0.0
H833 H 0.06057 0.62742 0.01451 0.0
C834 C 0.37941 0.01746 0.5566 0.0
C835 C 0.39243 0.03419 0.59219 0.0
C836 C 0.36622 0.98155 0.62715 0.0
C837 C 0.35798 0.96486 0.59104 0.0
N838 N 0.35652 0.96581 0.52114 0.0
N839 N 0.39734 0.03344 0.6617 0.0
C840 C 0.36385 0.98244 0.55567 0.0
C841 C 0.38526 0.01656 0.62769 0.0
N842 N 0.38249 0.03509 0.52368 0.0
N843 N 0.35528 0.96374 0.66076 0.0
H844 H 0.4091 0.05913 0.66332 0.0
H845 H 0.39672 0.02229 0.68806 0.0
H846 H 0.34069 0.93806 0.66093 0.0
H847 H 0.35815 0.97421 0.68813 0.0
H848 H 0.37077 0.02439 0.49763 0.0
H849 H 0.39474 0.0608 0.52308 0.0
H850 H 0.36385 0.97731 0.49423 0.0
H851 H 0.34457 0.94014 0.51932 0.0
C852 C 0.60344 0.62192 0.94765 0.0
C853 C 0.59007 0.62657 0.91287 0.0
C854 C 0.61101 0.59617 0.87601 0.0
C855 C 0.62546 0.59246 0.91051 0.0
N856 N 0.63974 0.60553 0.97813 0.0
N857 N 0.58713 0.6251 0.84307 0.0
C858 C 0.62333 0.60683 0.94593 0.0
C859 C 0.59561 0.61571 0.87675 0.0
N860 N 0.59543 0.63002 0.98255 0.0
N861 N 0.61152 0.5806 0.84264 0.0
H862 H 0.57649 0.64009 0.84261 0.0
H863 H 0.59342 0.62082 0.81557 0.0
H864 H 0.62388 0.56735 0.8402 0.0
H865 H 0.59796 0.57901 0.81797 0.0
H866 H 0.601 0.62362 0.00927 0.0
H867 H 0.58096 0.64111 0.98507 0.0
H868 H 0.64247 0.61895 0.00331 0.0
H869 H 0.65254 0.59263 0.97911 0.0
C870 C 0.98047 0.60388 0.37073 0.0
C871 C 0.96349 0.59507 0.40672 0.0
C872 C 0.01605 0.62366 0.44185 0.0
C873 C 0.03301 0.6292 0.40605 0.0
N874 N 0.03242 0.62436 0.33638 0.0
N875 N 0.96425 0.59326 0.47664 0.0
C876 C 0.01549 0.6193 0.37042 0.0
C877 C 0.981 0.60445 0.44237 0.0
N878 N 0.96304 0.59835 0.33698 0.0
N879 N 0.03347 0.63651 0.47539 0.0
H880 H 0.93859 0.57918 0.47831 0.0
H881 H 0.97571 0.59578 0.50332 0.0
H882 H 0.05919 0.64932 0.47652 0.0
H883 H 0.02259 0.63659 0.50171 0.0
H884 H 0.9739 0.60681 0.30993 0.0
H885 H 0.93739 0.58747 0.33631 0.0
H886 H 0.02123 0.61416 0.30993 0.0
H887 H 0.05813 0.63779 0.3348 0.0
C888 C 0.37956 0.01715 0.88367 0.0
C889 C 0.40096 0.03356 0.91532 0.0
C890 C 0.38306 0.98071 0.94776 0.0
C891 C 0.36511 0.96423 0.91399 0.0
N892 N 0.34595 0.96538 0.84951 0.0
N893 N 0.42399 0.03206 0.97738 0.0
C894 C 0.36281 0.98204 0.88203 0.0
C895 C 0.40275 0.01564 0.94753 0.0
N896 N 0.37563 0.0352 0.85513 0.0
N897 N 0.38075 0.96281 0.9802 0.0
H898 H 0.43714 0.05773 0.97949 0.0
H899 H 0.42982 0.02046 0.9992 0.0
H900 H 0.3663 0.93714 0.98126 0.0
H901 H 0.39073 0.97327 0.00701 0.0
H902 H 0.35828 0.02494 0.83299 0.0
H903 H 0.38836 0.06095 0.85498 0.0
H904 H 0.34639 0.97674 0.8234 0.0
H905 H 0.33251 0.93967 0.84803 0.0
C906 C 0.38886 0.40611 0.44865 0.0
C907 C 0.36492 0.3999 0.41965 0.0
C908 C 0.37398 0.35721 0.39064 0.0
C909 C 0.39923 0.36486 0.41836 0.0
N910 N 0.4249 0.38938 0.4793 0.0
N911 N 0.33008 0.36638 0.36738 0.0
C912 C 0.40493 0.38722 0.44908 0.0
C913 C 0.35582 0.3742 0.39215 0.0
N914 N 0.39644 0.43042 0.47548 0.0
N915 N 0.36843 0.33476 0.36206 0.0
H916 H 0.31712 0.37915 0.36688 0.0
H917 H 0.32014 0.34617 0.34878 0.0
H918 H 0.37983 0.3205 0.36174 0.0
H919 H 0.35333 0.33064 0.33812 0.0
H920 H 0.41666 0.43948 0.49405 0.0
H921 H 0.38293 0.44251 0.47841 0.0
H922 H 0.42818 0.4031 0.50434 0.0
H923 H 0.43616 0.375 0.48095 0.0
C924 C 0.01497 0.37789 0.94333 0.0
C925 C 0.03235 0.3927 0.9085 0.0
C926 C 0.98029 0.37561 0.87455 0.0
C927 C 0.96282 0.36068 0.90926 0.0
N928 N 0.96249 0.34121 0.97419 0.0
N929 N 0.03177 0.39806 0.83902 0.0
C930 C 0.97984 0.3594 0.94271 0.0
C931 C 0.01501 0.38913 0.87347 0.0
N932 N 0.03181 0.38351 0.97752 0.0
N933 N 0.96381 0.3777 0.84287 0.0
H934 H 0.05722 0.4077 0.83723 0.0
H935 H 0.02026 0.39301 0.81202 0.0
H936 H 0.9382 0.36675 0.8417 0.0
H937 H 0.97559 0.39191 0.81851 0.0
H938 H 0.02037 0.37684 0.00454 0.0
H939 H 0.05745 0.39712 0.97946 0.0
H940 H 0.97342 0.33639 0.9977 0.0
H941 H 0.9368 0.32865 0.97561 0.0
C942 C 0.6226 0.98138 0.38962 0.0
C943 C 0.5999 0.96406 0.41988 0.0
C944 C 0.61394 0.01596 0.45235 0.0
C945 C 0.63597 0.03336 0.42157 0.0
N946 N 0.66746 0.03367 0.36619 0.0
N947 N 0.57956 0.9634 0.48427 0.0
C948 C 0.64248 0.01634 0.392 0.0
C949 C 0.59736 0.98096 0.45264 0.0
N950 N 0.62373 0.96463 0.35767 0.0
N951 N 0.60835 0.03299 0.48076 0.0
H952 H 0.56752 0.93769 0.48551 0.0
H953 H 0.57897 0.97411 0.5105 0.0
H954 H 0.62201 0.05863 0.48315 0.0
H955 H 0.58941 0.02198 0.50106 0.0
H956 H 0.63685 0.9761 0.33258 0.0
H957 H 0.60985 0.939 0.35526 0.0
H958 H 0.67542 0.0227 0.34589 0.0
H959 H 0.68223 0.05928 0.36736 0.0
C960 C 0.44264 0.59963 0.01902 0.0
C961 C 0.44964 0.5926 0.98133 0.0
C962 C 0.4048 0.53545 0.98743 0.0
C963 C 0.40061 0.54139 0.02691 0.0
N964 N 0.41968 0.57795 0.08235 0.0
N965 N 0.44146 0.55245 0.93209 0.0
C966 C 0.42052 0.57322 0.0433 0.0
C967 C 0.43176 0.56017 0.96607 0.0
N968 N 0.45637 0.63163 0.03122 0.0
N969 N 0.38245 0.50664 0.96982 0.0
H970 H 0.46151 0.56958 0.91576 0.0
H971 H 0.43162 0.52835 0.92199 0.0
H972 H 0.36206 0.48785 0.98406 0.0
H973 H 0.3823 0.50269 0.94004 0.0
H974 H 0.44961 0.63844 0.05689 0.0
H975 H 0.4721 0.65165 0.01384 0.0
H976 H 0.43623 0.5998 0.09633 0.0
H977 H 0.40467 0.55911 0.10149 0.0
C978 C 0.82719 0.40548 0.51153 0.0
C979 C 0.85746 0.40961 0.52587 0.0
C980 C 0.88809 0.46115 0.48939 0.0
C981 C 0.85778 0.45856 0.47782 0.0
N982 N 0.79848 0.43159 0.48346 0.0
N983 N 0.91616 0.44443 0.53518 0.0
C984 C 0.82726 0.43162 0.49039 0.0
C985 C 0.88778 0.43832 0.5167 0.0
N986 N 0.79859 0.37616 0.51673 0.0
N987 N 0.91711 0.48457 0.4731 0.0
H988 H 0.91681 0.42874 0.55621 0.0
H989 H 0.93839 0.46656 0.53258 0.0
H990 H 0.91843 0.5014 0.45235 0.0
H991 H 0.93952 0.4853 0.47731 0.0
H992 H 0.77643 0.37043 0.50324 0.0
H993 H 0.79754 0.35637 0.53192 0.0
H994 H 0.77591 0.41441 0.49552 0.0
H995 H 0.79754 0.45047 0.46846 0.0
C996 C 0.43304 0.89142 0.98751 0.0
C997 C 0.40545 0.86082 0.97638 0.0
C998 C 0.42941 0.83126 0.00928 0.0
C999 C 0.45509 0.86174 0.0238 0.0
N1000 N 0.47794 0.92034 0.03296 0.0
N1001 N 0.37424 0.8015 0.98228 0.0
C1002 C 0.456 0.89173 0.01462 0.0
C1003 C 0.40275 0.83064 0.98872 0.0
N1004 N 0.43806 0.92016 0.97104 0.0
N1005 N 0.43109 0.80311 0.01374 0.0
H1006 H 0.35396 0.80002 0.96783 0.0
H1007 H 0.36956 0.77915 0.99432 0.0
H1008 H 0.45047 0.8026 0.02809 0.0
H1009 H 0.41491 0.78091 1.00016 0.0
H1010 H 0.45954 0.94278 0.97503 0.0
H1011 H 0.42232 0.92101 0.95023 0.0
H1012 H 0.47732 0.9422 0.03047 0.0
H1013 H 0.49474 0.92155 0.05371 0.0
C1014 C 0.57316 0.40518 0.48564 0.0
C1015 C 0.54369 0.40574 0.47742 0.0
C1016 C 0.562 0.45412 0.51925 0.0
C1017 C 0.5927 0.45545 0.52451 0.0
N1018 N 0.62998 0.43587 0.50756 0.0
N1019 N 0.51324 0.43487 0.47939 0.0
C1020 C 0.59899 0.43193 0.50638 0.0
C1021 C 0.53894 0.43134 0.49233 0.0
N1022 N 0.57606 0.37862 0.47494 0.0
N1023 N 0.55439 0.47389 0.54094 0.0
H1024 H 0.49655 0.41955 0.45841 0.0
H1025 H 0.51049 0.45503 0.48632 0.0
H1026 H 0.5704 0.49054 0.56154 0.0
H1027 H 0.53102 0.47149 0.54129 0.0
H1028 H 0.59531 0.37512 0.4841 0.0
H1029 H 0.55787 0.35862 0.45952 0.0
H1030 H 0.63698 0.42164 0.49125 0.0
H1031 H 0.64961 0.45523 0.52226 0.0
C1032 C 0.14647 0.53688 0.01581 0.0
C1033 C 0.14272 0.53698 0.97493 0.0
C1034 C 0.14557 0.59055 0.97951 0.0
C1035 C 0.144 0.58784 0.02056 0.0
N1036 N 0.13724 0.55514 0.0778 0.0
N1037 N 0.13248 0.56128 0.91848 0.0
C1038 C 0.14305 0.56019 0.03883 0.0
C1039 C 0.14071 0.56317 0.95683 0.0
N1040 N 0.15441 0.5153 0.03262 0.0
N1041 N 0.15287 0.61967 0.96212 0.0
H1042 H 0.12731 0.54111 0.90095 0.0
H1043 H 0.1274 0.57822 0.90508 0.0
H1044 H 0.15813 0.64077 0.97784 0.0
H1045 H 0.1574 0.6239 0.93247 0.0
H1046 H 0.16055 0.51637 0.06186 0.0
H1047 H 0.15841 0.49867 0.01666 0.0
H1048 H 0.13286 0.53353 0.09166 0.0
H1049 H 0.1335 0.57094 0.0957 0.0
C1050 C 0.54474 0.10726 0.52299 0.0
C1051 C 0.5443 0.13705 0.52876 0.0
C1052 C 0.59564 0.16723 0.49161 0.0
C1053 C 0.5938 0.13685 0.4821 0.0
N1054 N 0.56283 0.07725 0.48225 0.0
N1055 N 0.56595 0.19449 0.51271 0.0
C1056 C 0.56732 0.10663 0.49603 0.0
C1057 C 0.56888 0.16687 0.51157 0.0
N1058 N 0.52442 0.07983 0.5443 0.0
N1059 N 0.62343 0.19643 0.48298 0.0
H1060 H 0.54637 0.19508 0.52629 0.0
H1061 H 0.58123 0.21584 0.49709 0.0
H1062 H 0.64384 0.19777 0.46898 0.0
H1063 H 0.62748 0.21918 0.49293 0.0
H1064 H 0.52611 0.05846 0.54407 0.0
H1065 H 0.50822 0.07953 0.5653 0.0
H1066 H 0.54204 0.05459 0.48853 0.0
H1067 H 0.57805 0.07566 0.4613 0.0
C1068 C 0.57497 0.40151 0.01178 0.0
C1069 C 0.55011 0.40659 0.02843 0.0
C1070 C 0.5727 0.45969 0.99508 0.0
C1071 C 0.59935 0.45611 0.98126 0.0
N1072 N 0.62924 0.42646 0.9822 0.0
N1073 N 0.52959 0.44351 0.0431 0.0
C1074 C 0.60146 0.42778 0.99118 0.0
C1075 C 0.55025 0.43658 0.02219 0.0
N1076 N 0.57258 0.37123 0.0142 0.0
N1077 N 0.56775 0.48417 0.98089 0.0
H1078 H 0.51325 0.42753 0.06395 0.0
H1079 H 0.53108 0.46647 0.04268 0.0
H1080 H 0.58279 0.50098 0.95986 0.0
H1081 H 0.54673 0.48569 0.98692 0.0
H1082 H 0.58794 0.36503 0.99896 0.0
H1083 H 0.55349 0.35133 0.02884 0.0
H1084 H 0.63361 0.408 0.99224 0.0
H1085 H 0.64933 0.44539 0.96763 0.0
C1086 C 0.10883 0.5711 0.49539 0.0
C1087 C 0.13872 0.59738 0.48044 0.0
C1088 C 0.16992 0.5744 0.51172 0.0
C1089 C 0.14024 0.54945 0.52868 0.0
N1090 N 0.08309 0.529 0.54477 0.0
N1091 N 0.1983 0.62819 0.48101 0.0
C1092 C 0.11016 0.54929 0.52293 0.0
C1093 C 0.1695 0.60025 0.49047 0.0
N1094 N 0.0791 0.56594 0.48196 0.0
N1095 N 0.19821 0.57277 0.51456 0.0
H1096 H 0.19901 0.64795 0.46615 0.0
H1097 H 0.22133 0.63312 0.49105 0.0
H1098 H 0.19968 0.55455 0.53034 0.0
H1099 H 0.21956 0.58801 0.49889 0.0
H1100 H 0.05669 0.54507 0.48882 0.0
H1101 H 0.07689 0.58076 0.46097 0.0
H1102 H 0.06136 0.53005 0.54448 0.0
H1103 H 0.08353 0.51354 0.56628 0.0
C1104 C 0.59409 0.17072 0.02214 0.0
C1105 C 0.5923 0.14059 0.03305 0.0
C1106 C 0.54289 0.10963 0.99295 0.0
C1107 C 0.54337 0.13945 0.9841 0.0
N1108 N 0.56534 0.19753 0.99596 0.0
N1109 N 0.56073 0.08114 0.0366 0.0
C1110 C 0.56785 0.16982 1.00026 0.0
C1111 C 0.56545 0.10995 0.02067 0.0
N1112 N 0.62135 0.20017 0.03133 0.0
N1113 N 0.52175 0.08117 0.97377 0.0
H1114 H 0.57607 0.08036 0.05801 0.0
H1115 H 0.53971 0.05833 0.03166 0.0
H1116 H 0.50514 0.07991 0.95272 0.0
H1117 H 0.52281 0.05952 0.97599 0.0
H1118 H 0.62584 0.22271 0.0201 0.0
H1119 H 0.64081 0.20203 0.04795 0.0
H1120 H 0.58034 0.21952 0.01061 0.0
H1121 H 0.54636 0.19778 0.98034 0.0
C1122 C 0.41984 0.59291 0.52088 0.0
C1123 C 0.44694 0.58959 0.53362 0.0
C1124 C 0.42632 0.53868 0.496 0.0
C1125 C 0.39782 0.54041 0.48603 0.0
N1126 N 0.36426 0.5657 0.49471 0.0
N1127 N 0.47136 0.55506 0.54123 0.0
C1128 C 0.39362 0.56654 0.50012 0.0
C1129 C 0.44881 0.56119 0.52353 0.0
N1130 N 0.41981 0.62175 0.52688 0.0
N1131 N 0.43283 0.51659 0.47778 0.0
H1132 H 0.48748 0.57029 0.56274 0.0
H1133 H 0.47161 0.53307 0.5377 0.0
H1134 H 0.41775 0.50064 0.4561 0.0
H1135 H 0.45493 0.51653 0.48117 0.0
H1136 H 0.40261 0.6269 0.51437 0.0
H1137 H 0.43854 0.64173 0.54168 0.0
H1138 H 0.3585 0.5822 0.50794 0.0
H1139 H 0.34447 0.54673 0.47977 0.0
C1140 C 0.82861 0.40577 0.98651 0.0
C1141 C 0.8583 0.40936 0.97087 0.0
C1142 C 0.89018 0.46264 0.00362 0.0
C1143 C 0.86035 0.46016 0.01711 0.0
N1144 N 0.80084 0.43281 0.0146 0.0
N1145 N 0.9161 0.4446 0.95641 0.0
C1146 C 0.82942 0.4327 0.00663 0.0
C1147 C 0.88873 0.43885 0.97699 0.0
N1148 N 0.79991 0.37625 0.98368 0.0
N1149 N 0.91991 0.48673 0.01766 0.0
H1150 H 0.91579 0.42814 0.93577 0.0
H1151 H 0.93811 0.46711 0.95676 0.0
H1152 H 0.92221 0.50411 0.03821 0.0
H1153 H 0.94214 0.48748 0.0119 0.0
H1154 H 0.77841 0.37094 0.99852 0.0
H1155 H 0.79825 0.35608 0.96887 0.0
H1156 H 0.77788 0.41513 0.00394 0.0
H1157 H 0.80034 0.45221 0.02885 0.0
C1158 C 0.42241 0.83129 0.48323 0.0
C1159 C 0.45283 0.86097 0.47737 0.0
C1160 C 0.43461 0.89046 0.5204 0.0
C1161 C 0.40316 0.86164 0.52328 0.0
N1162 N 0.36483 0.80635 0.50165 0.0
N1163 N 0.48489 0.92036 0.48319 0.0
C1164 C 0.39638 0.83247 0.50314 0.0
C1165 C 0.45814 0.89102 0.49399 0.0
N1166 N 0.41872 0.8018 0.47121 0.0
N1167 N 0.44249 0.91694 0.5439 0.0
H1168 H 0.50206 0.92212 0.46267 0.0
H1169 H 0.48815 0.94323 0.49141 0.0
H1170 H 0.42616 0.91733 0.56423 0.0
H1171 H 0.46624 0.93721 0.54596 0.0
H1172 H 0.3985 0.77909 0.47868 0.0
H1173 H 0.4371 0.79971 0.4566 0.0
H1174 H 0.35779 0.7859 0.48384 0.0
H1175 H 0.34499 0.80635 0.51546 0.0
loop_
_geom_bond_atom_site_label_1
_geom_bond_atom_site_label_2
_geom_bond_distance
_geom_bond_site_symmetry_2
_ccdc_geom_bond_type
In0 O1 2.294 . S
In0 O2 2.326 . S
In0 O6 2.266 . S
In0 O7 2.326 . S
In0 O8 2.266 . S
In0 O9 2.326 . S
In0 O11 2.294 . S
In0 O12 2.326 . S
O1 In0 2.294 . S
O1 C10 1.240 . S
O2 In0 2.326 . S
O2 C10 1.252 . S
C3 O6 1.252 . S
C3 O7 1.260 . S
C4 O11 1.240 . S
C4 O12 1.252 . S
C5 O8 1.252 . S
C5 O9 1.260 . S
O6 In0 2.266 . S
O6 C3 1.252 . S
O7 In0 2.326 . S
O7 C3 1.260 . S
O8 In0 2.266 . S
O8 C5 1.252 . S
O9 In0 2.326 . S
O9 C5 1.260 . S
C10 O1 1.240 . S
C10 O2 1.252 . S
O11 In0 2.294 . S
O11 C4 1.240 . S
O12 In0 2.326 . S
O12 C4 1.252 . S
In13 O14 2.294 . S
In13 O15 2.326 . S
In13 O19 2.266 . S
In13 O20 2.326 . S
In13 O21 2.266 . S
In13 O22 2.326 . S
In13 O24 2.294 . S
In13 O25 2.326 . S
O14 In13 2.294 . S
O14 C23 1.240 . S
O15 In13 2.326 . S
O15 C23 1.252 . S
C16 O19 1.252 . S
C16 O20 1.260 . S
C17 O24 1.240 . S
C17 O25 1.252 . S
C18 O21 1.252 . S
C18 O22 1.260 . S
O19 In13 2.266 . S
O19 C16 1.252 . S
O20 In13 2.326 . S
O20 C16 1.260 . S
O21 In13 2.266 . S
O21 C18 1.252 . S
O22 In13 2.326 . S
O22 C18 1.260 . S
C23 O14 1.240 . S
C23 O15 1.252 . S
O24 In13 2.294 . S
O24 C17 1.240 . S
O25 In13 2.326 . S
O25 C17 1.252 . S
In26 O27 2.294 . S
In26 O28 2.326 . S
In26 O32 2.266 . S
In26 O33 2.326 . S
In26 O34 2.266 . S
In26 O35 2.326 . S
In26 O37 2.294 . S
In26 O38 2.326 . S
O27 In26 2.294 . S
O27 C36 1.240 . S
O28 In26 2.326 . S
O28 C36 1.252 . S
C29 O32 1.252 . S
C29 O33 1.260 . S
C30 O37 1.240 . S
C30 O38 1.252 . S
C31 O34 1.252 . S
C31 O35 1.260 . S
O32 In26 2.266 . S
O32 C29 1.252 . S
O33 In26 2.326 . S
O33 C29 1.260 . S
O34 In26 2.266 . S
O34 C31 1.252 . S
O35 In26 2.326 . S
O35 C31 1.260 . S
C36 O27 1.240 . S
C36 O28 1.252 . S
O37 In26 2.294 . S
O37 C30 1.240 . S
O38 In26 2.326 . S
O38 C30 1.252 . S
In39 O40 2.294 . S
In39 O41 2.326 . S
In39 O45 2.266 . S
In39 O46 2.326 . S
In39 O47 2.266 . S
In39 O48 2.326 . S
In39 O50 2.294 . S
In39 O51 2.326 . S
O40 In39 2.294 . S
O40 C49 1.240 . S
O41 In39 2.326 . S
O41 C49 1.252 . S
C42 O45 1.252 . S
C42 O46 1.260 . S
C43 O50 1.240 . S
C43 O51 1.252 . S
C44 O47 1.252 . S
C44 O48 1.260 . S
O45 In39 2.266 . S
O45 C42 1.252 . S
O46 In39 2.326 . S
O46 C42 1.260 . S
O47 In39 2.266 . S
O47 C44 1.252 . S
O48 In39 2.326 . S
O48 C44 1.260 . S
C49 O40 1.240 . S
C49 O41 1.252 . S
O50 In39 2.294 . S
O50 C43 1.240 . S
O51 In39 2.326 . S
O51 C43 1.252 . S
In52 O53 2.294 . S
In52 O54 2.326 . S
In52 O58 2.266 . S
In52 O59 2.326 . S
In52 O60 2.266 . S
In52 O61 2.326 . S
In52 O63 2.294 . S
In52 O64 2.326 . S
O53 In52 2.294 . S
O53 C62 1.240 . S
O54 In52 2.326 . S
O54 C62 1.252 . S
C55 O58 1.252 . S
C55 O59 1.260 . S
C56 O63 1.240 . S
C56 O64 1.252 . S
C57 O60 1.252 . S
C57 O61 1.260 . S
O58 In52 2.266 . S
O58 C55 1.252 . S
O59 In52 2.326 . S
O59 C55 1.260 . S
O60 In52 2.266 . S
O60 C57 1.252 . S
O61 In52 2.326 . S
O61 C57 1.260 . S
C62 O53 1.240 . S
C62 O54 1.252 . S
O63 In52 2.294 . S
O63 C56 1.240 . S
O64 In52 2.326 . S
O64 C56 1.252 . S
In65 O66 2.294 . S
In65 O67 2.326 . S
In65 O71 2.266 . S
In65 O72 2.326 . S
In65 O73 2.266 . S
In65 O74 2.326 . S
In65 O76 2.294 . S
In65 O77 2.326 . S
O66 In65 2.294 . S
O66 C75 1.240 . S
O67 In65 2.326 . S
O67 C75 1.252 . S
C68 O71 1.252 . S
C68 O72 1.260 . S
C69 O76 1.240 . S
C69 O77 1.252 . S
C70 O73 1.252 . S
C70 O74 1.260 . S
O71 In65 2.266 . S
O71 C68 1.252 . S
O72 In65 2.326 . S
O72 C68 1.260 . S
O73 In65 2.266 . S
O73 C70 1.252 . S
O74 In65 2.326 . S
O74 C70 1.260 . S
C75 O66 1.240 . S
C75 O67 1.252 . S
O76 In65 2.294 . S
O76 C69 1.240 . S
O77 In65 2.326 . S
O77 C69 1.252 . S
In78 O79 2.294 . S
In78 O80 2.326 . S
In78 O84 2.266 . S
In78 O85 2.326 . S
In78 O86 2.266 . S
In78 O87 2.326 . S
In78 O89 2.294 . S
In78 O90 2.326 . S
O79 In78 2.294 . S
O79 C88 1.240 . S
O80 In78 2.326 . S
O80 C88 1.252 . S
C81 O84 1.252 . S
C81 O85 1.260 . S
C82 O89 1.240 . S
C82 O90 1.252 . S
C83 O86 1.252 . S
C83 O87 1.260 . S
O84 In78 2.266 . S
O84 C81 1.252 . S
O85 In78 2.326 . S
O85 C81 1.260 . S
O86 In78 2.266 . S
O86 C83 1.252 . S
O87 In78 2.326 . S
O87 C83 1.260 . S
C88 O79 1.240 . S
C88 O80 1.252 . S
O89 In78 2.294 . S
O89 C82 1.240 . S
O90 In78 2.326 . S
O90 C82 1.252 . S
In91 O92 2.294 . S
In91 O93 2.326 . S
In91 O97 2.266 . S
In91 O98 2.326 . S
In91 O99 2.266 . S
In91 O100 2.326 . S
In91 O102 2.294 . S
In91 O103 2.326 . S
O92 In91 2.294 . S
O92 C101 1.240 . S
O93 In91 2.326 . S
O93 C101 1.252 . S
C94 O97 1.252 . S
C94 O98 1.260 . S
C95 O102 1.240 . S
C95 O103 1.252 . S
C96 O99 1.252 . S
C96 O100 1.260 . S
O97 In91 2.266 . S
O97 C94 1.252 . S
O98 In91 2.326 . S
O98 C94 1.260 . S
O99 In91 2.266 . S
O99 C96 1.252 . S
O100 In91 2.326 . S
O100 C96 1.260 . S
C101 O92 1.240 . S
C101 O93 1.252 . S
O102 In91 2.294 . S
O102 C95 1.240 . S
O103 In91 2.326 . S
O103 C95 1.252 . S
In104 O105 2.294 . S
In104 O106 2.326 . S
In104 O110 2.266 . S
In104 O111 2.326 . S
In104 O112 2.266 . S
In104 O113 2.326 . S
In104 O115 2.294 . S
In104 O116 2.326 . S
O105 In104 2.294 . S
O105 C114 1.240 . S
O106 In104 2.326 . S
O106 C114 1.252 . S
C107 O110 1.252 . S
C107 O111 1.260 . S
C108 O115 1.240 . S
C108 O116 1.252 . S
C109 O112 1.252 . S
C109 O113 1.260 . S
O110 In104 2.266 . S
O110 C107 1.252 . S
O111 In104 2.326 . S
O111 C107 1.260 . S
O112 In104 2.266 . S
O112 C109 1.252 . S
O113 In104 2.326 . S
O113 C109 1.260 . S
C114 O105 1.240 . S
C114 O106 1.252 . S
O115 In104 2.294 . S
O115 C108 1.240 . S
O116 In104 2.326 . S
O116 C108 1.252 . S
In117 O118 2.294 . S
In117 O119 2.326 . S
In117 O123 2.266 . S
In117 O124 2.326 . S
In117 O125 2.266 . S
In117 O126 2.326 . S
In117 O128 2.294 . S
In117 O129 2.326 . S
O118 In117 2.294 . S
O118 C127 1.240 . S
O119 In117 2.326 . S
O119 C127 1.252 . S
C120 O123 1.252 . S
C120 O124 1.260 . S
C121 O128 1.240 . S
C121 O129 1.252 . S
C122 O125 1.252 . S
C122 O126 1.260 . S
O123 In117 2.266 . S
O123 C120 1.252 . S
O124 In117 2.326 . S
O124 C120 1.260 . S
O125 In117 2.266 . S
O125 C122 1.252 . S
O126 In117 2.326 . S
O126 C122 1.260 . S
C127 O118 1.240 . S
C127 O119 1.252 . S
O128 In117 2.294 . S
O128 C121 1.240 . S
O129 In117 2.326 . S
O129 C121 1.252 . S
In130 O131 2.294 . S
In130 O132 2.326 . S
In130 O136 2.266 . S
In130 O137 2.326 . S
In130 O138 2.266 . S
In130 O139 2.326 . S
In130 O141 2.294 . S
In130 O142 2.326 . S
O131 In130 2.294 . S
O131 C140 1.240 . S
O132 In130 2.326 . S
O132 C140 1.252 . S
C133 O136 1.252 . S
C133 O137 1.260 . S
C134 O141 1.240 . S
C134 O142 1.252 . S
C135 O138 1.252 . S
C135 O139 1.260 . S
O136 In130 2.266 . S
O136 C133 1.252 . S
O137 In130 2.326 . S
O137 C133 1.260 . S
O138 In130 2.266 . S
O138 C135 1.252 . S
O139 In130 2.326 . S
O139 C135 1.260 . S
C140 O131 1.240 . S
C140 O132 1.252 . S
O141 In130 2.294 . S
O141 C134 1.240 . S
O142 In130 2.326 . S
O142 C134 1.252 . S
In143 O144 2.294 . S
In143 O145 2.326 . S
In143 O149 2.266 . S
In143 O150 2.326 . S
In143 O151 2.266 . S
In143 O152 2.326 . S
In143 O154 2.294 . S
In143 O155 2.326 . S
O144 In143 2.294 . S
O144 C153 1.240 . S
O145 In143 2.326 . S
O145 C153 1.252 . S
C146 O149 1.252 . S
C146 O150 1.260 . S
C147 O154 1.240 . S
C147 O155 1.252 . S
C148 O151 1.252 . S
C148 O152 1.260 . S
O149 In143 2.266 . S
O149 C146 1.252 . S
O150 In143 2.326 . S
O150 C146 1.260 . S
O151 In143 2.266 . S
O151 C148 1.252 . S
O152 In143 2.326 . S
O152 C148 1.260 . S
C153 O144 1.240 . S
C153 O145 1.252 . S
O154 In143 2.294 . S
O154 C147 1.240 . S
O155 In143 2.326 . S
O155 C147 1.252 . S
In156 O157 2.294 . S
In156 O158 2.326 . S
In156 O162 2.266 . S
In156 O163 2.326 . S
In156 O164 2.266 . S
In156 O165 2.326 . S
In156 O167 2.294 . S
In156 O168 2.326 . S
O157 In156 2.294 . S
O157 C166 1.240 . S
O158 In156 2.326 . S
O158 C166 1.252 . S
C159 O162 1.252 . S
C159 O163 1.260 . S
C160 O167 1.240 . S
C160 O168 1.252 . S
C161 O164 1.252 . S
C161 O165 1.260 . S
O162 In156 2.266 . S
O162 C159 1.252 . S
O163 In156 2.326 . S
O163 C159 1.260 . S
O164 In156 2.266 . S
O164 C161 1.252 . S
O165 In156 2.326 . S
O165 C161 1.260 . S
C166 O157 1.240 . S
C166 O158 1.252 . S
O167 In156 2.294 . S
O167 C160 1.240 . S
O168 In156 2.326 . S
O168 C160 1.252 . S
In169 O170 2.294 . S
In169 O171 2.326 . S
In169 O175 2.266 . S
In169 O176 2.326 . S
In169 O177 2.266 . S
In169 O178 2.326 . S
In169 O180 2.294 . S
In169 O181 2.326 . S
O170 In169 2.294 . S
O170 C179 1.240 . S
O171 In169 2.326 . S
O171 C179 1.252 . S
C172 O175 1.252 . S
C172 O176 1.260 . S
C173 O180 1.240 . S
C173 O181 1.252 . S
C174 O177 1.252 . S
C174 O178 1.260 . S
O175 In169 2.266 . S
O175 C172 1.252 . S
O176 In169 2.326 . S
O176 C172 1.260 . S
O177 In169 2.266 . S
O177 C174 1.252 . S
O178 In169 2.326 . S
O178 C174 1.260 . S
C179 O170 1.240 . S
C179 O171 1.252 . S
O180 In169 2.294 . S
O180 C173 1.240 . S
O181 In169 2.326 . S
O181 C173 1.252 . S
In182 O183 2.294 . S
In182 O184 2.326 . S
In182 O188 2.266 . S
In182 O189 2.326 . S
In182 O190 2.266 . S
In182 O191 2.326 . S
In182 O193 2.294 . S
In182 O194 2.326 . S
O183 In182 2.294 . S
O183 C192 1.240 . S
O184 In182 2.326 . S
O184 C192 1.252 . S
C185 O188 1.252 . S
C185 O189 1.260 . S
C186 O193 1.240 . S
C186 O194 1.252 . S
C187 O190 1.252 . S
C187 O191 1.260 . S
O188 In182 2.266 . S
O188 C185 1.252 . S
O189 In182 2.326 . S
O189 C185 1.260 . S
O190 In182 2.266 . S
O190 C187 1.252 . S
O191 In182 2.326 . S
O191 C187 1.260 . S
C192 O183 1.240 . S
C192 O184 1.252 . S
O193 In182 2.294 . S
O193 C186 1.240 . S
O194 In182 2.326 . S
O194 C186 1.252 . S
In195 O196 2.294 . S
In195 O197 2.326 . S
In195 O201 2.266 . S
In195 O202 2.326 . S
In195 O203 2.266 . S
In195 O204 2.326 . S
In195 O206 2.294 . S
In195 O207 2.326 . S
O196 In195 2.294 . S
O196 C205 1.240 . S
O197 In195 2.326 . S
O197 C205 1.252 . S
C198 O201 1.252 . S
C198 O202 1.260 . S
C199 O206 1.240 . S
C199 O207 1.252 . S
C200 O203 1.252 . S
C200 O204 1.260 . S
O201 In195 2.266 . S
O201 C198 1.252 . S
O202 In195 2.326 . S
O202 C198 1.260 . S
O203 In195 2.266 . S
O203 C200 1.252 . S
O204 In195 2.326 . S
O204 C200 1.260 . S
C205 O196 1.240 . S
C205 O197 1.252 . S
O206 In195 2.294 . S
O206 C199 1.240 . S
O207 In195 2.326 . S
O207 C199 1.252 . S
In208 O209 2.294 . S
In208 O210 2.326 . S
In208 O214 2.266 . S
In208 O215 2.326 . S
In208 O216 2.266 . S
In208 O217 2.326 . S
In208 O219 2.294 . S
In208 O220 2.326 . S
O209 In208 2.294 . S
O209 C218 1.240 . S
O210 In208 2.326 . S
O210 C218 1.252 . S
C211 O214 1.252 . S
C211 O215 1.260 . S
C212 O219 1.240 . S
C212 O220 1.252 . S
C213 O216 1.252 . S
C213 O217 1.260 . S
O214 In208 2.266 . S
O214 C211 1.252 . S
O215 In208 2.326 . S
O215 C211 1.260 . S
O216 In208 2.266 . S
O216 C213 1.252 . S
O217 In208 2.326 . S
O217 C213 1.260 . S
C218 O209 1.240 . S
C218 O210 1.252 . S
O219 In208 2.294 . S
O219 C212 1.240 . S
O220 In208 2.326 . S
O220 C212 1.252 . S
In221 O222 2.294 . S
In221 O223 2.326 . S
In221 O227 2.266 . S
In221 O228 2.326 . S
In221 O229 2.266 . S
In221 O230 2.326 . S
In221 O232 2.294 . S
In221 O233 2.326 . S
O222 In221 2.294 . S
O222 C231 1.240 . S
O223 In221 2.326 . S
O223 C231 1.252 . S
C224 O227 1.252 . S
C224 O228 1.260 . S
C225 O232 1.240 . S
C225 O233 1.252 . S
C226 O229 1.252 . S
C226 O230 1.260 . S
O227 In221 2.266 . S
O227 C224 1.252 . S
O228 In221 2.326 . S
O228 C224 1.260 . S
O229 In221 2.266 . S
O229 C226 1.252 . S
O230 In221 2.326 . S
O230 C226 1.260 . S
C231 O222 1.240 . S
C231 O223 1.252 . S
O232 In221 2.294 . S
O232 C225 1.240 . S
O233 In221 2.326 . S
O233 C225 1.252 . S
In234 O235 2.294 . S
In234 O236 2.326 . S
In234 O240 2.266 . S
In234 O241 2.326 . S
In234 O242 2.266 . S
In234 O243 2.326 . S
In234 O245 2.294 . S
In234 O246 2.326 . S
O235 In234 2.294 . S
O235 C244 1.240 . S
O236 In234 2.326 . S
O236 C244 1.252 . S
C237 O240 1.252 . S
C237 O241 1.260 . S
C238 O245 1.240 . S
C238 O246 1.252 . S
C239 O242 1.252 . S
C239 O243 1.260 . S
O240 In234 2.266 . S
O240 C237 1.252 . S
O241 In234 2.326 . S
O241 C237 1.260 . S
O242 In234 2.266 . S
O242 C239 1.252 . S
O243 In234 2.326 . S
O243 C239 1.260 . S
C244 O235 1.240 . S
C244 O236 1.252 . S
O245 In234 2.294 . S
O245 C238 1.240 . S
O246 In234 2.326 . S
O246 C238 1.252 . S
In247 O248 2.294 . S
In247 O249 2.326 . S
In247 O253 2.266 . S
In247 O254 2.326 . S
In247 O255 2.266 . S
In247 O256 2.326 . S
In247 O258 2.294 . S
In247 O259 2.326 . S
O248 In247 2.294 . S
O248 C257 1.240 . S
O249 In247 2.326 . S
O249 C257 1.252 . S
C250 O253 1.252 . S
C250 O254 1.260 . S
C251 O258 1.240 . S
C251 O259 1.252 . S
C252 O255 1.252 . S
C252 O256 1.260 . S
O253 In247 2.266 . S
O253 C250 1.252 . S
O254 In247 2.326 . S
O254 C250 1.260 . S
O255 In247 2.266 . S
O255 C252 1.252 . S
O256 In247 2.326 . S
O256 C252 1.260 . S
C257 O248 1.240 . S
C257 O249 1.252 . S
O258 In247 2.294 . S
O258 C251 1.240 . S
O259 In247 2.326 . S
O259 C251 1.252 . S
In260 O261 2.294 . S
In260 O262 2.326 . S
In260 O266 2.266 . S
In260 O267 2.326 . S
In260 O268 2.266 . S
In260 O269 2.326 . S
In260 O271 2.294 . S
In260 O272 2.326 . S
O261 In260 2.294 . S
O261 C270 1.240 . S
O262 In260 2.326 . S
O262 C270 1.252 . S
C263 O266 1.252 . S
C263 O267 1.260 . S
C264 O271 1.240 . S
C264 O272 1.252 . S
C265 O268 1.252 . S
C265 O269 1.260 . S
O266 In260 2.266 . S
O266 C263 1.252 . S
O267 In260 2.326 . S
O267 C263 1.260 . S
O268 In260 2.266 . S
O268 C265 1.252 . S
O269 In260 2.326 . S
O269 C265 1.260 . S
C270 O261 1.240 . S
C270 O262 1.252 . S
O271 In260 2.294 . S
O271 C264 1.240 . S
O272 In260 2.326 . S
O272 C264 1.252 . S
In273 O274 2.294 . S
In273 O275 2.326 . S
In273 O279 2.266 . S
In273 O280 2.326 . S
In273 O281 2.266 . S
In273 O282 2.326 . S
In273 O284 2.294 . S
In273 O285 2.326 . S
O274 In273 2.294 . S
O274 C283 1.240 . S
O275 In273 2.326 . S
O275 C283 1.252 . S
C276 O279 1.252 . S
C276 O280 1.260 . S
C277 O284 1.240 . S
C277 O285 1.252 . S
C278 O281 1.252 . S
C278 O282 1.260 . S
O279 In273 2.266 . S
O279 C276 1.252 . S
O280 In273 2.326 . S
O280 C276 1.260 . S
O281 In273 2.266 . S
O281 C278 1.252 . S
O282 In273 2.326 . S
O282 C278 1.260 . S
C283 O274 1.240 . S
C283 O275 1.252 . S
O284 In273 2.294 . S
O284 C277 1.240 . S
O285 In273 2.326 . S
O285 C277 1.252 . S
In286 O287 2.294 . S
In286 O288 2.326 . S
In286 O292 2.266 . S
In286 O293 2.326 . S
In286 O294 2.266 . S
In286 O295 2.326 . S
In286 O297 2.294 . S
In286 O298 2.326 . S
O287 In286 2.294 . S
O287 C296 1.240 . S
O288 In286 2.326 . S
O288 C296 1.252 . S
C289 O292 1.252 . S
C289 O293 1.260 . S
C290 O297 1.240 . S
C290 O298 1.252 . S
C291 O294 1.252 . S
C291 O295 1.260 . S
O292 In286 2.266 . S
O292 C289 1.252 . S
O293 In286 2.326 . S
O293 C289 1.260 . S
O294 In286 2.266 . S
O294 C291 1.252 . S
O295 In286 2.326 . S
O295 C291 1.260 . S
C296 O287 1.240 . S
C296 O288 1.252 . S
O297 In286 2.294 . S
O297 C290 1.240 . S
O298 In286 2.326 . S
O298 C290 1.252 . S
In299 O300 2.294 . S
In299 O301 2.326 . S
In299 O305 2.266 . S
In299 O306 2.326 . S
In299 O307 2.266 . S
In299 O308 2.326 . S
In299 O310 2.294 . S
In299 O311 2.326 . S
O300 In299 2.294 . S
O300 C309 1.240 . S
O301 In299 2.326 . S
O301 C309 1.252 . S
C302 O305 1.252 . S
C302 O306 1.260 . S
C303 O310 1.240 . S
C303 O311 1.252 . S
C304 O307 1.252 . S
C304 O308 1.260 . S
O305 In299 2.266 . S
O305 C302 1.252 . S
O306 In299 2.326 . S
O306 C302 1.260 . S
O307 In299 2.266 . S
O307 C304 1.252 . S
O308 In299 2.326 . S
O308 C304 1.260 . S
C309 O300 1.240 . S
C309 O301 1.252 . S
O310 In299 2.294 . S
O310 C303 1.240 . S
O311 In299 2.326 . S
O311 C303 1.252 . S
C312 C313 1.363 . S
C312 C318 1.379 . S
C312 N320 1.356 . S
C313 C312 1.363 . S
C313 C319 1.363 . S
C314 C315 1.363 . S
C314 C319 1.379 . S
C314 N321 1.356 . S
C315 C314 1.363 . S
C315 C318 1.363 . S
N316 C318 1.356 . S
N316 H328 0.984 . S
N316 H329 0.985 . S
N317 C319 1.356 . S
N317 H322 0.984 . S
N317 H323 0.985 . S
C318 C312 1.379 . S
C318 C315 1.363 . S
C318 N316 1.356 . S
C319 C313 1.363 . S
C319 C314 1.379 . S
C319 N317 1.356 . S
N320 C312 1.356 . S
N320 H326 0.984 . S
N320 H327 0.984 . S
N321 C314 1.356 . S
N321 H324 0.984 . S
N321 H325 0.985 . S
H322 N317 0.984 . S
H323 N317 0.985 . S
H324 N321 0.984 . S
H325 N321 0.985 . S
H326 N320 0.984 . S
H327 N320 0.984 . S
H328 N316 0.984 . S
H329 N316 0.985 . S
C330 C331 1.363 . S
C330 C336 1.379 . S
C330 N338 1.356 . S
C331 C330 1.363 . S
C331 C337 1.363 . S
C332 C333 1.363 . S
C332 C337 1.379 . S
C332 N339 1.356 . S
C333 C332 1.363 . S
C333 C336 1.363 . S
N334 C336 1.356 . S
N334 H346 0.984 . S
N334 H347 0.985 . S
N335 C337 1.356 . S
N335 H340 0.984 . S
N335 H341 0.985 . S
C336 C330 1.379 . S
C336 C333 1.363 . S
C336 N334 1.356 . S
C337 C331 1.363 . S
C337 C332 1.379 . S
C337 N335 1.356 . S
N338 C330 1.356 . S
N338 H344 0.984 . S
N338 H345 0.984 . S
N339 C332 1.356 . S
N339 H342 0.984 . S
N339 H343 0.985 . S
H340 N335 0.984 . S
H341 N335 0.985 . S
H342 N339 0.984 . S
H343 N339 0.985 . S
H344 N338 0.984 . S
H345 N338 0.984 . S
H346 N334 0.984 . S
H347 N334 0.985 . S
C348 C349 1.363 . S
C348 C354 1.379 . S
C348 N356 1.356 . S
C349 C348 1.363 . S
C349 C355 1.363 . S
C350 C351 1.363 . S
C350 C355 1.379 . S
C350 N357 1.356 . S
C351 C350 1.363 . S
C351 C354 1.363 . S
N352 C354 1.356 . S
N352 H364 0.984 . S
N352 H365 0.985 . S
N353 C355 1.356 . S
N353 H358 0.984 . S
N353 H359 0.985 . S
C354 C348 1.379 . S
C354 C351 1.363 . S
C354 N352 1.356 . S
C355 C349 1.363 . S
C355 C350 1.379 . S
C355 N353 1.356 . S
N356 C348 1.356 . S
N356 H362 0.984 . S
N356 H363 0.984 . S
N357 C350 1.356 . S
N357 H360 0.984 . S
N357 H361 0.985 . S
H358 N353 0.984 . S
H359 N353 0.985 . S
H360 N357 0.984 . S
H361 N357 0.985 . S
H362 N356 0.984 . S
H363 N356 0.984 . S
H364 N352 0.984 . S
H365 N352 0.985 . S
C366 C367 1.363 . S
C366 C372 1.379 . S
C366 N374 1.356 . S
C367 C366 1.363 . S
C367 C373 1.363 . S
C368 C369 1.363 . S
C368 C373 1.379 . S
C368 N375 1.356 . S
C369 C368 1.363 . S
C369 C372 1.363 . S
N370 C372 1.356 . S
N370 H382 0.984 . S
N370 H383 0.985 . S
N371 C373 1.356 . S
N371 H376 0.984 . S
N371 H377 0.985 . S
C372 C366 1.379 . S
C372 C369 1.363 . S
C372 N370 1.356 . S
C373 C367 1.363 . S
C373 C368 1.379 . S
C373 N371 1.356 . S
N374 C366 1.356 . S
N374 H380 0.984 . S
N374 H381 0.984 . S
N375 C368 1.356 . S
N375 H378 0.984 . S
N375 H379 0.985 . S
H376 N371 0.984 . S
H377 N371 0.985 . S
H378 N375 0.984 . S
H379 N375 0.985 . S
H380 N374 0.984 . S
H381 N374 0.984 . S
H382 N370 0.984 . S
H383 N370 0.985 . S
C384 C385 1.363 . S
C384 C390 1.379 . S
C384 N392 1.356 . S
C385 C384 1.363 . S
C385 C391 1.363 . S
C386 C387 1.363 . S
C386 C391 1.379 . S
C386 N393 1.356 . S
C387 C386 1.363 . S
C387 C390 1.363 . S
N388 C390 1.356 . S
N388 H400 0.984 . S
N388 H401 0.985 . S
N389 C391 1.356 . S
N389 H394 0.984 . S
N389 H395 0.985 . S
C390 C384 1.379 . S
C390 C387 1.363 . S
C390 N388 1.356 . S
C391 C385 1.363 . S
C391 C386 1.379 . S
C391 N389 1.356 . S
N392 C384 1.356 . S
N392 H398 0.984 . S
N392 H399 0.984 . S
N393 C386 1.356 . S
N393 H396 0.984 . S
N393 H397 0.985 . S
H394 N389 0.984 . S
H395 N389 0.985 . S
H396 N393 0.984 . S
H397 N393 0.985 . S
H398 N392 0.984 . S
H399 N392 0.984 . S
H400 N388 0.984 . S
H401 N388 0.985 . S
C402 C403 1.363 . S
C402 C408 1.379 . S
C402 N410 1.356 . S
C403 C402 1.363 . S
C403 C409 1.363 . S
C404 C405 1.363 . S
C404 C409 1.379 . S
C404 N411 1.356 . S
C405 C404 1.363 . S
C405 C408 1.363 . S
N406 C408 1.356 . S
N406 H418 0.984 . S
N406 H419 0.985 . S
N407 C409 1.356 . S
N407 H412 0.984 . S
N407 H413 0.985 . S
C408 C402 1.379 . S
C408 C405 1.363 . S
C408 N406 1.356 . S
C409 C403 1.363 . S
C409 C404 1.379 . S
C409 N407 1.356 . S
N410 C402 1.356 . S
N410 H416 0.984 . S
N410 H417 0.984 . S
N411 C404 1.356 . S
N411 H414 0.984 . S
N411 H415 0.985 . S
H412 N407 0.984 . S
H413 N407 0.985 . S
H414 N411 0.984 . S
H415 N411 0.985 . S
H416 N410 0.984 . S
H417 N410 0.984 . S
H418 N406 0.984 . S
H419 N406 0.985 . S
C420 C421 1.363 . S
C420 C426 1.379 . S
C420 N428 1.356 . S
C421 C420 1.363 . S
C421 C427 1.363 . S
C422 C423 1.363 . S
C422 C427 1.379 . S
C422 N429 1.356 . S
C423 C422 1.363 . S
C423 C426 1.363 . S
N424 C426 1.356 . S
N424 H436 0.984 . S
N424 H437 0.985 . S
N425 C427 1.356 . S
N425 H430 0.984 . S
N425 H431 0.985 . S
C426 C420 1.379 . S
C426 C423 1.363 . S
C426 N424 1.356 . S
C427 C421 1.363 . S
C427 C422 1.379 . S
C427 N425 1.356 . S
N428 C420 1.356 . S
N428 H434 0.984 . S
N428 H435 0.984 . S
N429 C422 1.356 . S
N429 H432 0.984 . S
N429 H433 0.985 . S
H430 N425 0.984 . S
H431 N425 0.985 . S
H432 N429 0.984 . S
H433 N429 0.985 . S
H434 N428 0.984 . S
H435 N428 0.984 . S
H436 N424 0.984 . S
H437 N424 0.985 . S
C438 C439 1.363 . S
C438 C444 1.379 . S
C438 N446 1.356 . S
C439 C438 1.363 . S
C439 C445 1.363 . S
C440 C441 1.363 . S
C440 C445 1.379 . S
C440 N447 1.356 . S
C441 C440 1.363 . S
C441 C444 1.363 . S
N442 C444 1.356 . S
N442 H454 0.984 . S
N442 H455 0.985 . S
N443 C445 1.356 . S
N443 H448 0.984 . S
N443 H449 0.985 . S
C444 C438 1.379 . S
C444 C441 1.363 . S
C444 N442 1.356 . S
C445 C439 1.363 . S
C445 C440 1.379 . S
C445 N443 1.356 . S
N446 C438 1.356 . S
N446 H452 0.984 . S
N446 H453 0.984 . S
N447 C440 1.356 . S
N447 H450 0.984 . S
N447 H451 0.985 . S
H448 N443 0.984 . S
H449 N443 0.985 . S
H450 N447 0.984 . S
H451 N447 0.985 . S
H452 N446 0.984 . S
H453 N446 0.984 . S
H454 N442 0.984 . S
H455 N442 0.985 . S
C456 C457 1.363 . S
C456 C462 1.379 . S
C456 N464 1.356 . S
C457 C456 1.363 . S
C457 C463 1.363 . S
C458 C459 1.363 . S
C458 C463 1.379 . S
C458 N465 1.356 . S
C459 C458 1.363 . S
C459 C462 1.363 . S
N460 C462 1.356 . S
N460 H472 0.984 . S
N460 H473 0.985 . S
N461 C463 1.356 . S
N461 H466 0.984 . S
N461 H467 0.985 . S
C462 C456 1.379 . S
C462 C459 1.363 . S
C462 N460 1.356 . S
C463 C457 1.363 . S
C463 C458 1.379 . S
C463 N461 1.356 . S
N464 C456 1.356 . S
N464 H470 0.984 . S
N464 H471 0.984 . S
N465 C458 1.356 . S
N465 H468 0.984 . S
N465 H469 0.985 . S
H466 N461 0.984 . S
H467 N461 0.985 . S
H468 N465 0.984 . S
H469 N465 0.985 . S
H470 N464 0.984 . S
H471 N464 0.984 . S
H472 N460 0.984 . S
H473 N460 0.985 . S
C474 C475 1.363 . S
C474 C480 1.379 . S
C474 N482 1.356 . S
C475 C474 1.363 . S
C475 C481 1.363 . S
C476 C477 1.363 . S
C476 C481 1.379 . S
C476 N483 1.356 . S
C477 C476 1.363 . S
C477 C480 1.363 . S
N478 C480 1.356 . S
N478 H490 0.984 . S
N478 H491 0.985 . S
N479 C481 1.356 . S
N479 H484 0.984 . S
N479 H485 0.985 . S
C480 C474 1.379 . S
C480 C477 1.363 . S
C480 N478 1.356 . S
C481 C475 1.363 . S
C481 C476 1.379 . S
C481 N479 1.356 . S
N482 C474 1.356 . S
N482 H488 0.984 . S
N482 H489 0.984 . S
N483 C476 1.356 . S
N483 H486 0.984 . S
N483 H487 0.985 . S
H484 N479 0.984 . S
H485 N479 0.985 . S
H486 N483 0.984 . S
H487 N483 0.985 . S
H488 N482 0.984 . S
H489 N482 0.984 . S
H490 N478 0.984 . S
H491 N478 0.985 . S
C492 C493 1.363 . S
C492 C498 1.379 . S
C492 N500 1.356 . S
C493 C492 1.363 . S
C493 C499 1.363 . S
C494 C495 1.363 . S
C494 C499 1.379 . S
C494 N501 1.356 . S
C495 C494 1.363 . S
C495 C498 1.363 . S
N496 C498 1.356 . S
N496 H508 0.984 . S
N496 H509 0.985 . S
N497 C499 1.356 . S
N497 H502 0.984 . S
N497 H503 0.985 . S
C498 C492 1.379 . S
C498 C495 1.363 . S
C498 N496 1.356 . S
C499 C493 1.363 . S
C499 C494 1.379 . S
C499 N497 1.356 . S
N500 C492 1.356 . S
N500 H506 0.984 . S
N500 H507 0.984 . S
N501 C494 1.356 . S
N501 H504 0.984 . S
N501 H505 0.985 . S
H502 N497 0.984 . S
H503 N497 0.985 . S
H504 N501 0.984 . S
H505 N501 0.985 . S
H506 N500 0.984 . S
H507 N500 0.984 . S
H508 N496 0.984 . S
H509 N496 0.985 . S
C510 C511 1.363 . S
C510 C516 1.379 . S
C510 N518 1.356 . S
C511 C510 1.363 . S
C511 C517 1.363 . S
C512 C513 1.363 . S
C512 C517 1.379 . S
C512 N519 1.356 . S
C513 C512 1.363 . S
C513 C516 1.363 . S
N514 C516 1.356 . S
N514 H526 0.984 . S
N514 H527 0.985 . S
N515 C517 1.356 . S
N515 H520 0.984 . S
N515 H521 0.985 . S
C516 C510 1.379 . S
C516 C513 1.363 . S
C516 N514 1.356 . S
C517 C511 1.363 . S
C517 C512 1.379 . S
C517 N515 1.356 . S
N518 C510 1.356 . S
N518 H524 0.984 . S
N518 H525 0.984 . S
N519 C512 1.356 . S
N519 H522 0.984 . S
N519 H523 0.985 . S
H520 N515 0.984 . S
H521 N515 0.985 . S
H522 N519 0.984 . S
H523 N519 0.985 . S
H524 N518 0.984 . S
H525 N518 0.984 . S
H526 N514 0.984 . S
H527 N514 0.985 . S
C528 C529 1.363 . S
C528 C534 1.363 1_556 S
C528 N536 1.356 . S
C529 C528 1.363 . S
C529 C535 1.379 . S
C530 C531 1.363 . S
C530 C535 1.363 1_554 S
C530 N537 1.356 . S
C531 C530 1.363 . S
C531 C534 1.379 . S
N532 C534 1.362 . S
N532 H544 0.984 1_554 S
N532 H545 0.985 . S
N533 C535 1.362 . S
N533 H538 0.984 . S
N533 H539 0.985 1_556 S
C534 C528 1.363 1_554 S
C534 C531 1.379 . S
C534 N532 1.362 . S
C535 C529 1.379 . S
C535 C530 1.363 1_556 S
C535 N533 1.362 . S
N536 C528 1.356 . S
N536 H542 0.984 . S
N536 H543 0.984 . S
N537 C530 1.356 . S
N537 H540 0.984 . S
N537 H541 0.985 . S
H538 N533 0.984 . S
H539 N533 0.985 1_554 S
H540 N537 0.984 . S
H541 N537 0.985 . S
H542 N536 0.984 . S
H543 N536 0.984 . S
H544 N532 0.984 1_556 S
H545 N532 0.985 . S
C546 C547 1.363 . S
C546 C552 1.379 . S
C546 N554 1.356 . S
C547 C546 1.363 . S
C547 C553 1.363 . S
C548 C549 1.363 . S
C548 C553 1.379 . S
C548 N555 1.356 . S
C549 C548 1.363 . S
C549 C552 1.363 . S
N550 C552 1.356 . S
N550 H562 0.984 . S
N550 H563 0.985 . S
N551 C553 1.356 . S
N551 H556 0.984 . S
N551 H557 0.985 . S
C552 C546 1.379 . S
C552 C549 1.363 . S
C552 N550 1.356 . S
C553 C547 1.363 . S
C553 C548 1.379 . S
C553 N551 1.356 . S
N554 C546 1.356 . S
N554 H560 0.984 . S
N554 H561 0.984 . S
N555 C548 1.356 . S
N555 H558 0.984 . S
N555 H559 0.985 . S
H556 N551 0.984 . S
H557 N551 0.985 . S
H558 N555 0.984 . S
H559 N555 0.985 . S
H560 N554 0.984 . S
H561 N554 0.984 . S
H562 N550 0.984 . S
H563 N550 0.985 . S
C564 C565 1.363 . S
C564 C570 1.379 . S
C564 N572 1.356 . S
C565 C564 1.363 . S
C565 C571 1.363 1_554 S
C566 C567 1.363 . S
C566 C571 1.379 . S
C566 N573 1.356 . S
C567 C566 1.363 . S
C567 C570 1.363 1_556 S
N568 C570 1.356 . S
N568 H580 0.984 . S
N568 H581 0.985 1_554 S
N569 C571 1.356 . S
N569 H574 0.984 1_556 S
N569 H575 0.985 . S
C570 C564 1.379 . S
C570 C567 1.363 1_554 S
C570 N568 1.356 . S
C571 C565 1.363 1_556 S
C571 C566 1.379 . S
C571 N569 1.356 . S
N572 C564 1.356 . S
N572 H578 0.984 . S
N572 H579 0.984 . S
N573 C566 1.356 . S
N573 H576 0.984 . S
N573 H577 0.985 . S
H574 N569 0.984 1_554 S
H575 N569 0.985 . S
H576 N573 0.984 . S
H577 N573 0.985 . S
H578 N572 0.984 . S
H579 N572 0.984 . S
H580 N568 0.984 . S
H581 N568 0.985 1_556 S
C582 C583 1.363 . S
C582 C588 1.379 . S
C582 N590 1.356 . S
C583 C582 1.363 . S
C583 C589 1.363 . S
C584 C585 1.363 . S
C584 C589 1.379 . S
C584 N591 1.356 . S
C585 C584 1.363 . S
C585 C588 1.363 . S
N586 C588 1.356 . S
N586 H598 0.984 . S
N586 H599 0.985 . S
N587 C589 1.356 . S
N587 H592 0.984 . S
N587 H593 0.985 . S
C588 C582 1.379 . S
C588 C585 1.363 . S
C588 N586 1.356 . S
C589 C583 1.363 . S
C589 C584 1.379 . S
C589 N587 1.356 . S
N590 C582 1.356 . S
N590 H596 0.984 . S
N590 H597 0.984 . S
N591 C584 1.356 . S
N591 H594 0.984 . S
N591 H595 0.985 . S
H592 N587 0.984 . S
H593 N587 0.985 . S
H594 N591 0.984 . S
H595 N591 0.985 . S
H596 N590 0.984 . S
H597 N590 0.984 . S
H598 N586 0.984 . S
H599 N586 0.985 . S
C600 C601 1.363 1_554 S
C600 C606 1.379 . S
C600 N608 1.356 1_554 S
C601 C600 1.363 1_556 S
C601 C607 1.363 . S
C602 C603 1.363 1_556 S
C602 C607 1.379 . S
C602 N609 1.356 1_556 S
C603 C602 1.363 1_554 S
C603 C606 1.363 . S
N604 C606 1.356 . S
N604 H616 0.984 . S
N604 H617 0.985 . S
N605 C607 1.356 . S
N605 H610 0.984 . S
N605 H611 0.985 . S
C606 C600 1.379 . S
C606 C603 1.363 . S
C606 N604 1.356 . S
C607 C601 1.363 . S
C607 C602 1.379 . S
C607 N605 1.356 . S
N608 C600 1.356 1_556 S
N608 H614 0.984 1_556 S
N608 H615 0.984 . S
N609 C602 1.356 1_554 S
N609 H612 0.984 . S
N609 H613 0.985 1_554 S
H610 N605 0.984 . S
H611 N605 0.985 . S
H612 N609 0.984 . S
H613 N609 0.985 1_556 S
H614 N608 0.984 1_554 S
H615 N608 0.984 . S
H616 N604 0.984 . S
H617 N604 0.985 . S
C618 C619 1.363 . S
C618 C624 1.379 . S
C618 N626 1.356 . S
C619 C618 1.363 . S
C619 C625 1.363 . S
C620 C621 1.363 . S
C620 C625 1.379 . S
C620 N627 1.356 . S
C621 C620 1.363 . S
C621 C624 1.363 . S
N622 C624 1.356 . S
N622 H634 0.984 . S
N622 H635 0.985 . S
N623 C625 1.356 . S
N623 H628 0.984 . S
N623 H629 0.985 . S
C624 C618 1.379 . S
C624 C621 1.363 . S
C624 N622 1.356 . S
C625 C619 1.363 . S
C625 C620 1.379 . S
C625 N623 1.356 . S
N626 C618 1.356 . S
N626 H632 0.984 . S
N626 H633 0.984 . S
N627 C620 1.356 . S
N627 H630 0.984 . S
N627 H631 0.985 . S
H628 N623 0.984 . S
H629 N623 0.985 . S
H630 N627 0.984 . S
H631 N627 0.985 . S
H632 N626 0.984 . S
H633 N626 0.984 . S
H634 N622 0.984 . S
H635 N622 0.985 . S
C636 C637 1.379 . S
C636 C642 1.363 1_554 S
C636 N644 1.362 . S
C637 C636 1.379 . S
C637 C643 1.363 . S
C638 C639 1.379 . S
C638 C643 1.363 1_556 S
C638 N645 1.362 . S
C639 C638 1.379 . S
C639 C642 1.363 . S
N640 C642 1.356 . S
N640 H652 0.984 . S
N640 H653 0.985 . S
N641 C643 1.356 . S
N641 H646 0.984 . S
N641 H647 0.985 . S
C642 C636 1.363 1_556 S
C642 C639 1.363 . S
C642 N640 1.356 . S
C643 C637 1.363 . S
C643 C638 1.363 1_554 S
C643 N641 1.356 . S
N644 C636 1.362 . S
N644 H650 0.984 1_554 S
N644 H651 0.984 . S
N645 C638 1.362 . S
N645 H648 0.984 . S
N645 H649 0.985 1_556 S
H646 N641 0.984 . S
H647 N641 0.985 . S
H648 N645 0.984 . S
H649 N645 0.985 1_554 S
H650 N644 0.984 1_556 S
H651 N644 0.984 . S
H652 N640 0.984 . S
H653 N640 0.985 . S
C654 C655 1.363 . S
C654 C660 1.379 . S
C654 N662 1.356 . S
C655 C654 1.363 . S
C655 C661 1.363 . S
C656 C657 1.363 . S
C656 C661 1.379 . S
C656 N663 1.356 . S
C657 C656 1.363 . S
C657 C660 1.363 . S
N658 C660 1.356 . S
N658 H670 0.984 . S
N658 H671 0.985 . S
N659 C661 1.356 . S
N659 H664 0.984 . S
N659 H665 0.985 . S
C660 C654 1.379 . S
C660 C657 1.363 . S
C660 N658 1.356 . S
C661 C655 1.363 . S
C661 C656 1.379 . S
C661 N659 1.356 . S
N662 C654 1.356 . S
N662 H668 0.984 . S
N662 H669 0.984 . S
N663 C656 1.356 . S
N663 H666 0.984 . S
N663 H667 0.985 . S
H664 N659 0.984 . S
H665 N659 0.985 . S
H666 N663 0.984 . S
H667 N663 0.985 . S
H668 N662 0.984 . S
H669 N662 0.984 . S
H670 N658 0.984 . S
H671 N658 0.985 . S
C672 C673 1.363 1_554 S
C672 C678 1.379 . S
C672 N680 1.356 . S
C673 C672 1.363 1_556 S
C673 C679 1.363 . S
C674 C675 1.363 1_556 S
C674 C679 1.379 . S
C674 N681 1.356 . S
C675 C674 1.363 1_554 S
C675 C678 1.363 . S
N676 C678 1.356 . S
N676 H688 0.984 . S
N676 H689 0.985 . S
N677 C679 1.356 . S
N677 H682 0.984 . S
N677 H683 0.985 . S
C678 C672 1.379 . S
C678 C675 1.363 . S
C678 N676 1.356 . S
C679 C673 1.363 . S
C679 C674 1.379 . S
C679 N677 1.356 . S
N680 C672 1.356 . S
N680 H686 0.984 . S
N680 H687 0.984 1_554 S
N681 C674 1.356 . S
N681 H684 0.984 1_556 S
N681 H685 0.985 . S
H682 N677 0.984 . S
H683 N677 0.985 . S
H684 N681 0.984 1_554 S
H685 N681 0.985 . S
H686 N680 0.984 . S
H687 N680 0.984 1_556 S
H688 N676 0.984 . S
H689 N676 0.985 . S
C690 C691 1.363 . S
C690 C696 1.379 . S
C690 N698 1.356 . S
C691 C690 1.363 . S
C691 C697 1.363 . S
C692 C693 1.363 . S
C692 C697 1.379 . S
C692 N699 1.356 . S
C693 C692 1.363 . S
C693 C696 1.363 . S
N694 C696 1.356 . S
N694 H706 0.984 . S
N694 H707 0.985 . S
N695 C697 1.356 . S
N695 H700 0.984 . S
N695 H701 0.985 . S
C696 C690 1.379 . S
C696 C693 1.363 . S
C696 N694 1.356 . S
C697 C691 1.363 . S
C697 C692 1.379 . S
C697 N695 1.356 . S
N698 C690 1.356 . S
N698 H704 0.984 . S
N698 H705 0.984 . S
N699 C692 1.356 . S
N699 H702 0.984 . S
N699 H703 0.985 . S
H700 N695 0.984 . S
H701 N695 0.985 . S
H702 N699 0.984 . S
H703 N699 0.985 . S
H704 N698 0.984 . S
H705 N698 0.984 . S
H706 N694 0.984 . S
H707 N694 0.985 . S
C708 C709 1.363 . S
C708 C714 1.379 1_556 S
C708 N716 1.356 . S
C709 C708 1.363 . S
C709 C715 1.363 . S
C710 C711 1.363 . S
C710 C715 1.379 1_554 S
C710 N717 1.356 . S
C711 C710 1.363 . S
C711 C714 1.363 . S
N712 C714 1.356 . S
N712 H724 0.984 . S
N712 H725 0.985 . S
N713 C715 1.356 . S
N713 H718 0.984 . S
N713 H719 0.985 . S
C714 C708 1.379 1_554 S
C714 C711 1.363 . S
C714 N712 1.356 . S
C715 C709 1.363 . S
C715 C710 1.379 1_556 S
C715 N713 1.356 . S
N716 C708 1.356 . S
N716 H722 0.984 . S
N716 H723 0.984 . S
N717 C710 1.356 . S
N717 H720 0.984 . S
N717 H721 0.985 . S
H718 N713 0.984 . S
H719 N713 0.985 . S
H720 N717 0.984 . S
H721 N717 0.985 . S
H722 N716 0.984 . S
H723 N716 0.984 . S
H724 N712 0.984 . S
H725 N712 0.985 . S
C726 C727 1.363 . S
C726 C732 1.379 . S
C726 N734 1.356 . S
C727 C726 1.363 . S
C727 C733 1.363 . S
C728 C729 1.363 . S
C728 C733 1.379 . S
C728 N735 1.356 . S
C729 C728 1.363 . S
C729 C732 1.363 . S
N730 C732 1.356 . S
N730 H742 0.984 . S
N730 H743 0.985 . S
N731 C733 1.356 . S
N731 H736 0.984 . S
N731 H737 0.985 . S
C732 C726 1.379 . S
C732 C729 1.363 . S
C732 N730 1.356 . S
C733 C727 1.363 . S
C733 C728 1.379 . S
C733 N731 1.356 . S
N734 C726 1.356 . S
N734 H740 0.984 . S
N734 H741 0.984 . S
N735 C728 1.356 . S
N735 H738 0.984 . S
N735 H739 0.985 . S
H736 N731 0.984 . S
H737 N731 0.985 . S
H738 N735 0.984 . S
H739 N735 0.985 . S
H740 N734 0.984 . S
H741 N734 0.984 . S
H742 N730 0.984 . S
H743 N730 0.985 . S
C744 C745 1.363 . S
C744 C750 1.379 . S
C744 N752 1.356 . S
C745 C744 1.363 . S
C745 C751 1.363 . S
C746 C747 1.363 . S
C746 C751 1.379 . S
C746 N753 1.356 . S
C747 C746 1.363 . S
C747 C750 1.363 . S
N748 C750 1.356 . S
N748 H760 0.984 . S
N748 H761 0.985 . S
N749 C751 1.356 . S
N749 H754 0.984 . S
N749 H755 0.985 . S
C750 C744 1.379 . S
C750 C747 1.363 . S
C750 N748 1.356 . S
C751 C745 1.363 . S
C751 C746 1.379 . S
C751 N749 1.356 . S
N752 C744 1.356 . S
N752 H758 0.984 . S
N752 H759 0.984 . S
N753 C746 1.356 . S
N753 H756 0.984 . S
N753 H757 0.985 . S
H754 N749 0.984 . S
H755 N749 0.985 . S
H756 N753 0.984 . S
H757 N753 0.985 . S
H758 N752 0.984 . S
H759 N752 0.984 . S
H760 N748 0.984 . S
H761 N748 0.985 . S
C762 C763 1.363 . S
C762 C768 1.379 1_455 S
C762 N770 1.356 . S
C763 C762 1.363 . S
C763 C769 1.363 . S
C764 C765 1.363 . S
C764 C769 1.379 1_655 S
C764 N771 1.356 . S
C765 C764 1.363 . S
C765 C768 1.363 . S
N766 C768 1.356 . S
N766 H778 0.984 . S
N766 H779 0.985 . S
N767 C769 1.356 . S
N767 H772 0.984 . S
N767 H773 0.985 . S
C768 C762 1.379 1_655 S
C768 C765 1.363 . S
C768 N766 1.356 . S
C769 C763 1.363 . S
C769 C764 1.379 1_455 S
C769 N767 1.356 . S
N770 C762 1.356 . S
N770 H776 0.984 . S
N770 H777 0.984 . S
N771 C764 1.356 . S
N771 H774 0.984 . S
N771 H775 0.985 . S
H772 N767 0.984 . S
H773 N767 0.985 . S
H774 N771 0.984 . S
H775 N771 0.985 . S
H776 N770 0.984 . S
H777 N770 0.984 . S
H778 N766 0.984 . S
H779 N766 0.985 . S
C780 C781 1.363 . S
C780 C786 1.379 1_565 S
C780 N788 1.356 . S
C781 C780 1.363 . S
C781 C787 1.363 . S
C782 C783 1.363 . S
C782 C787 1.379 1_545 S
C782 N789 1.356 . S
C783 C782 1.363 . S
C783 C786 1.363 . S
N784 C786 1.356 . S
N784 H796 0.984 . S
N784 H797 0.985 . S
N785 C787 1.356 . S
N785 H790 0.984 . S
N785 H791 0.985 . S
C786 C780 1.379 1_545 S
C786 C783 1.363 . S
C786 N784 1.356 . S
C787 C781 1.363 . S
C787 C782 1.379 1_565 S
C787 N785 1.356 . S
N788 C780 1.356 . S
N788 H794 0.984 . S
N788 H795 0.984 . S
N789 C782 1.356 . S
N789 H792 0.984 . S
N789 H793 0.985 . S
H790 N785 0.984 . S
H791 N785 0.985 . S
H792 N789 0.984 . S
H793 N789 0.985 . S
H794 N788 0.984 . S
H795 N788 0.984 . S
H796 N784 0.984 . S
H797 N784 0.985 . S
C798 C799 1.363 . S
C798 C804 1.379 . S
C798 N806 1.356 . S
C799 C798 1.363 . S
C799 C805 1.363 . S
C800 C801 1.363 . S
C800 C805 1.379 . S
C800 N807 1.356 . S
C801 C800 1.363 . S
C801 C804 1.363 . S
N802 C804 1.356 . S
N802 H814 0.984 . S
N802 H815 0.985 . S
N803 C805 1.356 . S
N803 H808 0.984 . S
N803 H809 0.985 . S
C804 C798 1.379 . S
C804 C801 1.363 . S
C804 N802 1.356 . S
C805 C799 1.363 . S
C805 C800 1.379 . S
C805 N803 1.356 . S
N806 C798 1.356 . S
N806 H812 0.984 . S
N806 H813 0.984 . S
N807 C800 1.356 . S
N807 H810 0.984 . S
N807 H811 0.985 . S
H808 N803 0.984 . S
H809 N803 0.985 . S
H810 N807 0.984 . S
H811 N807 0.985 . S
H812 N806 0.984 . S
H813 N806 0.984 . S
H814 N802 0.984 . S
H815 N802 0.985 . S
C816 C817 1.363 . S
C816 C822 1.379 1_655 S
C816 N824 1.356 . S
C817 C816 1.363 . S
C817 C823 1.363 . S
C818 C819 1.363 . S
C818 C823 1.379 1_455 S
C818 N825 1.356 . S
C819 C818 1.363 . S
C819 C822 1.363 . S
N820 C822 1.356 . S
N820 H832 0.984 . S
N820 H833 0.985 . S
N821 C823 1.356 . S
N821 H826 0.984 . S
N821 H827 0.985 . S
C822 C816 1.379 1_455 S
C822 C819 1.363 . S
C822 N820 1.356 . S
C823 C817 1.363 . S
C823 C818 1.379 1_655 S
C823 N821 1.356 . S
N824 C816 1.356 . S
N824 H830 0.984 . S
N824 H831 0.984 . S
N825 C818 1.356 . S
N825 H828 0.984 . S
N825 H829 0.985 . S
H826 N821 0.984 . S
H827 N821 0.985 . S
H828 N825 0.984 . S
H829 N825 0.985 . S
H830 N824 0.984 . S
H831 N824 0.984 . S
H832 N820 0.984 . S
H833 N820 0.985 . S
C834 C835 1.363 . S
C834 C840 1.379 1_545 S
C834 N842 1.356 . S
C835 C834 1.363 . S
C835 C841 1.363 . S
C836 C837 1.363 . S
C836 C841 1.379 1_565 S
C836 N843 1.356 . S
C837 C836 1.363 . S
C837 C840 1.363 . S
N838 C840 1.356 . S
N838 H850 0.984 . S
N838 H851 0.985 . S
N839 C841 1.356 . S
N839 H844 0.984 . S
N839 H845 0.985 . S
C840 C834 1.379 1_565 S
C840 C837 1.363 . S
C840 N838 1.356 . S
C841 C835 1.363 . S
C841 C836 1.379 1_545 S
C841 N839 1.356 . S
N842 C834 1.356 . S
N842 H848 0.984 . S
N842 H849 0.984 . S
N843 C836 1.356 . S
N843 H846 0.984 . S
N843 H847 0.985 . S
H844 N839 0.984 . S
H845 N839 0.985 . S
H846 N843 0.984 . S
H847 N843 0.985 . S
H848 N842 0.984 . S
H849 N842 0.984 . S
H850 N838 0.984 . S
H851 N838 0.985 . S
C852 C853 1.363 . S
C852 C858 1.379 . S
C852 N860 1.356 . S
C853 C852 1.363 . S
C853 C859 1.363 . S
C854 C855 1.363 . S
C854 C859 1.379 . S
C854 N861 1.356 . S
C855 C854 1.363 . S
C855 C858 1.363 . S
N856 C858 1.356 . S
N856 H868 0.984 . S
N856 H869 0.985 . S
N857 C859 1.356 . S
N857 H862 0.984 . S
N857 H863 0.985 . S
C858 C852 1.379 . S
C858 C855 1.363 . S
C858 N856 1.356 . S
C859 C853 1.363 . S
C859 C854 1.379 . S
C859 N857 1.356 . S
N860 C852 1.356 . S
N860 H866 0.984 . S
N860 H867 0.984 . S
N861 C854 1.356 . S
N861 H864 0.984 . S
N861 H865 0.985 . S
H862 N857 0.984 . S
H863 N857 0.985 . S
H864 N861 0.984 . S
H865 N861 0.985 . S
H866 N860 0.984 . S
H867 N860 0.984 . S
H868 N856 0.984 . S
H869 N856 0.985 . S
C870 C871 1.363 . S
C870 C876 1.379 1_655 S
C870 N878 1.356 . S
C871 C870 1.363 . S
C871 C877 1.363 . S
C872 C873 1.363 . S
C872 C877 1.379 1_455 S
C872 N879 1.356 . S
C873 C872 1.363 . S
C873 C876 1.363 . S
N874 C876 1.356 . S
N874 H886 0.984 . S
N874 H887 0.985 . S
N875 C877 1.356 . S
N875 H880 0.984 . S
N875 H881 0.985 . S
C876 C870 1.379 1_455 S
C876 C873 1.363 . S
C876 N874 1.356 . S
C877 C871 1.363 . S
C877 C872 1.379 1_655 S
C877 N875 1.356 . S
N878 C870 1.356 . S
N878 H884 0.984 . S
N878 H885 0.984 . S
N879 C872 1.356 . S
N879 H882 0.984 . S
N879 H883 0.985 . S
H880 N875 0.984 . S
H881 N875 0.985 . S
H882 N879 0.984 . S
H883 N879 0.985 . S
H884 N878 0.984 . S
H885 N878 0.984 . S
H886 N874 0.984 . S
H887 N874 0.985 . S
C888 C889 1.363 . S
C888 C894 1.379 1_545 S
C888 N896 1.356 . S
C889 C888 1.363 . S
C889 C895 1.363 . S
C890 C891 1.363 . S
C890 C895 1.379 1_565 S
C890 N897 1.356 . S
C891 C890 1.363 . S
C891 C894 1.363 . S
N892 C894 1.356 . S
N892 H904 0.984 . S
N892 H905 0.985 . S
N893 C895 1.356 . S
N893 H898 0.984 . S
N893 H899 0.985 . S
C894 C888 1.379 1_565 S
C894 C891 1.363 . S
C894 N892 1.356 . S
C895 C889 1.363 . S
C895 C890 1.379 1_545 S
C895 N893 1.356 . S
N896 C888 1.356 . S
N896 H902 0.984 . S
N896 H903 0.984 . S
N897 C890 1.356 . S
N897 H900 0.984 . S
N897 H901 0.985 . S
H898 N893 0.984 . S
H899 N893 0.985 . S
H900 N897 0.984 . S
H901 N897 0.985 . S
H902 N896 0.984 . S
H903 N896 0.984 . S
H904 N892 0.984 . S
H905 N892 0.985 . S
C906 C907 1.363 . S
C906 C912 1.379 . S
C906 N914 1.356 . S
C907 C906 1.363 . S
C907 C913 1.363 . S
C908 C909 1.363 . S
C908 C913 1.379 . S
C908 N915 1.356 . S
C909 C908 1.363 . S
C909 C912 1.363 . S
N910 C912 1.356 . S
N910 H922 0.984 . S
N910 H923 0.985 . S
N911 C913 1.356 . S
N911 H916 0.984 . S
N911 H917 0.985 . S
C912 C906 1.379 . S
C912 C909 1.363 . S
C912 N910 1.356 . S
C913 C907 1.363 . S
C913 C908 1.379 . S
C913 N911 1.356 . S
N914 C906 1.356 . S
N914 H920 0.984 . S
N914 H921 0.984 . S
N915 C908 1.356 . S
N915 H918 0.984 . S
N915 H919 0.985 . S
H916 N911 0.984 . S
H917 N911 0.985 . S
H918 N915 0.984 . S
H919 N915 0.985 . S
H920 N914 0.984 . S
H921 N914 0.984 . S
H922 N910 0.984 . S
H923 N910 0.985 . S
C924 C925 1.363 . S
C924 C930 1.379 1_455 S
C924 N932 1.356 . S
C925 C924 1.363 . S
C925 C931 1.363 . S
C926 C927 1.363 . S
C926 C931 1.379 1_655 S
C926 N933 1.356 . S
C927 C926 1.363 . S
C927 C930 1.363 . S
N928 C930 1.356 . S
N928 H940 0.984 . S
N928 H941 0.985 . S
N929 C931 1.356 . S
N929 H934 0.984 . S
N929 H935 0.985 . S
C930 C924 1.379 1_655 S
C930 C927 1.363 . S
C930 N928 1.356 . S
C931 C925 1.363 . S
C931 C926 1.379 1_455 S
C931 N929 1.356 . S
N932 C924 1.356 . S
N932 H938 0.984 . S
N932 H939 0.984 . S
N933 C926 1.356 . S
N933 H936 0.984 . S
N933 H937 0.985 . S
H934 N929 0.984 . S
H935 N929 0.985 . S
H936 N933 0.984 . S
H937 N933 0.985 . S
H938 N932 0.984 . S
H939 N932 0.984 . S
H940 N928 0.984 . S
H941 N928 0.985 . S
C942 C943 1.363 . S
C942 C948 1.379 1_565 S
C942 N950 1.356 . S
C943 C942 1.363 . S
C943 C949 1.363 . S
C944 C945 1.363 . S
C944 C949 1.379 1_545 S
C944 N951 1.356 . S
C945 C944 1.363 . S
C945 C948 1.363 . S
N946 C948 1.356 . S
N946 H958 0.984 . S
N946 H959 0.985 . S
N947 C949 1.356 . S
N947 H952 0.984 . S
N947 H953 0.985 . S
C948 C942 1.379 1_545 S
C948 C945 1.363 . S
C948 N946 1.356 . S
C949 C943 1.363 . S
C949 C944 1.379 1_565 S
C949 N947 1.356 . S
N950 C942 1.356 . S
N950 H956 0.984 . S
N950 H957 0.984 . S
N951 C944 1.356 . S
N951 H954 0.984 . S
N951 H955 0.985 . S
H952 N947 0.984 . S
H953 N947 0.985 . S
H954 N951 0.984 . S
H955 N951 0.985 . S
H956 N950 0.984 . S
H957 N950 0.984 . S
H958 N946 0.984 . S
H959 N946 0.985 . S
C960 C961 1.363 1_554 S
C960 C966 1.379 . S
C960 N968 1.356 . S
C961 C960 1.363 1_556 S
C961 C967 1.363 . S
C962 C963 1.363 1_556 S
C962 C967 1.379 . S
C962 N969 1.356 . S
C963 C962 1.363 1_554 S
C963 C966 1.363 . S
N964 C966 1.356 . S
N964 H976 0.984 . S
N964 H977 0.985 . S
N965 C967 1.356 . S
N965 H970 0.984 . S
N965 H971 0.985 . S
C966 C960 1.379 . S
C966 C963 1.363 . S
C966 N964 1.356 . S
C967 C961 1.363 . S
C967 C962 1.379 . S
C967 N965 1.356 . S
N968 C960 1.356 . S
N968 H974 0.984 . S
N968 H975 0.984 . S
N969 C962 1.356 . S
N969 H972 0.984 . S
N969 H973 0.985 . S
H970 N965 0.984 . S
H971 N965 0.985 . S
H972 N969 0.984 . S
H973 N969 0.985 . S
H974 N968 0.984 . S
H975 N968 0.984 . S
H976 N964 0.984 . S
H977 N964 0.985 . S
C978 C979 1.363 . S
C978 C984 1.379 . S
C978 N986 1.356 . S
C979 C978 1.363 . S
C979 C985 1.363 . S
C980 C981 1.363 . S
C980 C985 1.379 . S
C980 N987 1.356 . S
C981 C980 1.363 . S
C981 C984 1.363 . S
N982 C984 1.356 . S
N982 H994 0.984 . S
N982 H995 0.985 . S
N983 C985 1.356 . S
N983 H988 0.984 . S
N983 H989 0.985 . S
C984 C978 1.379 . S
C984 C981 1.363 . S
C984 N982 1.356 . S
C985 C979 1.363 . S
C985 C980 1.379 . S
C985 N983 1.356 . S
N986 C978 1.356 . S
N986 H992 0.984 . S
N986 H993 0.984 . S
N987 C980 1.356 . S
N987 H990 0.984 . S
N987 H991 0.985 . S
H988 N983 0.984 . S
H989 N983 0.985 . S
H990 N987 0.984 . S
H991 N987 0.985 . S
H992 N986 0.984 . S
H993 N986 0.984 . S
H994 N982 0.984 . S
H995 N982 0.985 . S
C996 C997 1.363 . S
C996 C1002 1.379 . S
C996 N1004 1.356 . S
C997 C996 1.363 . S
C997 C1003 1.363 1_556 S
C998 C999 1.363 . S
C998 C1003 1.379 . S
C998 N1005 1.356 . S
C999 C998 1.363 . S
C999 C1002 1.363 1_554 S
N1000 C1002 1.356 . S
N1000 H1012 0.984 . S
N1000 H1013 0.985 1_556 S
N1001 C1003 1.356 . S
N1001 H1006 0.984 1_554 S
N1001 H1007 0.985 . S
C1002 C996 1.379 . S
C1002 C999 1.363 1_556 S
C1002 N1000 1.356 . S
C1003 C997 1.363 1_554 S
C1003 C998 1.379 . S
C1003 N1001 1.356 . S
N1004 C996 1.356 . S
N1004 H1010 0.984 . S
N1004 H1011 0.984 . S
N1005 C998 1.356 . S
N1005 H1008 0.984 . S
N1005 H1009 0.985 . S
H1006 N1001 0.984 1_556 S
H1007 N1001 0.985 . S
H1008 N1005 0.984 . S
H1009 N1005 0.985 . S
H1010 N1004 0.984 . S
H1011 N1004 0.984 . S
H1012 N1000 0.984 . S
H1013 N1000 0.985 1_554 S
C1014 C1015 1.363 . S
C1014 C1020 1.379 . S
C1014 N1022 1.356 . S
C1015 C1014 1.363 . S
C1015 C1021 1.363 . S
C1016 C1017 1.363 . S
C1016 C1021 1.379 . S
C1016 N1023 1.356 . S
C1017 C1016 1.363 . S
C1017 C1020 1.363 . S
N1018 C1020 1.356 . S
N1018 H1030 0.984 . S
N1018 H1031 0.985 . S
N1019 C1021 1.356 . S
N1019 H1024 0.984 . S
N1019 H1025 0.985 . S
C1020 C1014 1.379 . S
C1020 C1017 1.363 . S
C1020 N1018 1.356 . S
C1021 C1015 1.363 . S
C1021 C1016 1.379 . S
C1021 N1019 1.356 . S
N1022 C1014 1.356 . S
N1022 H1028 0.984 . S
N1022 H1029 0.984 . S
N1023 C1016 1.356 . S
N1023 H1026 0.984 . S
N1023 H1027 0.985 . S
H1024 N1019 0.984 . S
H1025 N1019 0.985 . S
H1026 N1023 0.984 . S
H1027 N1023 0.985 . S
H1028 N1022 0.984 . S
H1029 N1022 0.984 . S
H1030 N1018 0.984 . S
H1031 N1018 0.985 . S
C1032 C1033 1.363 1_554 S
C1032 C1038 1.379 . S
C1032 N1040 1.356 . S
C1033 C1032 1.363 1_556 S
C1033 C1039 1.363 . S
C1034 C1035 1.363 1_556 S
C1034 C1039 1.379 . S
C1034 N1041 1.356 . S
C1035 C1034 1.363 1_554 S
C1035 C1038 1.363 . S
N1036 C1038 1.356 . S
N1036 H1048 0.984 . S
N1036 H1049 0.985 . S
N1037 C1039 1.356 . S
N1037 H1042 0.984 . S
N1037 H1043 0.985 . S
C1038 C1032 1.379 . S
C1038 C1035 1.363 . S
C1038 N1036 1.356 . S
C1039 C1033 1.363 . S
C1039 C1034 1.379 . S
C1039 N1037 1.356 . S
N1040 C1032 1.356 . S
N1040 H1046 0.984 . S
N1040 H1047 0.984 . S
N1041 C1034 1.356 . S
N1041 H1044 0.984 . S
N1041 H1045 0.985 . S
H1042 N1037 0.984 . S
H1043 N1037 0.985 . S
H1044 N1041 0.984 . S
H1045 N1041 0.985 . S
H1046 N1040 0.984 . S
H1047 N1040 0.984 . S
H1048 N1036 0.984 . S
H1049 N1036 0.985 . S
C1050 C1051 1.363 . S
C1050 C1056 1.379 . S
C1050 N1058 1.356 . S
C1051 C1050 1.363 . S
C1051 C1057 1.363 . S
C1052 C1053 1.363 . S
C1052 C1057 1.379 . S
C1052 N1059 1.356 . S
C1053 C1052 1.363 . S
C1053 C1056 1.363 . S
N1054 C1056 1.356 . S
N1054 H1066 0.984 . S
N1054 H1067 0.985 . S
N1055 C1057 1.356 . S
N1055 H1060 0.984 . S
N1055 H1061 0.985 . S
C1056 C1050 1.379 . S
C1056 C1053 1.363 . S
C1056 N1054 1.356 . S
C1057 C1051 1.363 . S
C1057 C1052 1.379 . S
C1057 N1055 1.356 . S
N1058 C1050 1.356 . S
N1058 H1064 0.984 . S
N1058 H1065 0.984 . S
N1059 C1052 1.356 . S
N1059 H1062 0.984 . S
N1059 H1063 0.985 . S
H1060 N1055 0.984 . S
H1061 N1055 0.985 . S
H1062 N1059 0.984 . S
H1063 N1059 0.985 . S
H1064 N1058 0.984 . S
H1065 N1058 0.984 . S
H1066 N1054 0.984 . S
H1067 N1054 0.985 . S
C1068 C1069 1.363 1_556 S
C1068 C1074 1.379 . S
C1068 N1076 1.356 . S
C1069 C1068 1.363 1_554 S
C1069 C1075 1.363 . S
C1070 C1071 1.363 1_554 S
C1070 C1075 1.379 . S
C1070 N1077 1.356 . S
C1071 C1070 1.363 1_556 S
C1071 C1074 1.363 . S
N1072 C1074 1.356 . S
N1072 H1084 0.984 . S
N1072 H1085 0.985 . S
N1073 C1075 1.356 . S
N1073 H1078 0.984 . S
N1073 H1079 0.985 . S
C1074 C1068 1.379 . S
C1074 C1071 1.363 . S
C1074 N1072 1.356 . S
C1075 C1069 1.363 . S
C1075 C1070 1.379 . S
C1075 N1073 1.356 . S
N1076 C1068 1.356 . S
N1076 H1082 0.984 . S
N1076 H1083 0.984 . S
N1077 C1070 1.356 . S
N1077 H1080 0.984 . S
N1077 H1081 0.985 . S
H1078 N1073 0.984 . S
H1079 N1073 0.985 . S
H1080 N1077 0.984 . S
H1081 N1077 0.985 . S
H1082 N1076 0.984 . S
H1083 N1076 0.984 . S
H1084 N1072 0.984 . S
H1085 N1072 0.985 . S
C1086 C1087 1.363 . S
C1086 C1092 1.379 . S
C1086 N1094 1.356 . S
C1087 C1086 1.363 . S
C1087 C1093 1.363 . S
C1088 C1089 1.363 . S
C1088 C1093 1.379 . S
C1088 N1095 1.356 . S
C1089 C1088 1.363 . S
C1089 C1092 1.363 . S
N1090 C1092 1.356 . S
N1090 H1102 0.984 . S
N1090 H1103 0.985 . S
N1091 C1093 1.356 . S
N1091 H1096 0.984 . S
N1091 H1097 0.985 . S
C1092 C1086 1.379 . S
C1092 C1089 1.363 . S
C1092 N1090 1.356 . S
C1093 C1087 1.363 . S
C1093 C1088 1.379 . S
C1093 N1091 1.356 . S
N1094 C1086 1.356 . S
N1094 H1100 0.984 . S
N1094 H1101 0.984 . S
N1095 C1088 1.356 . S
N1095 H1098 0.984 . S
N1095 H1099 0.985 . S
H1096 N1091 0.984 . S
H1097 N1091 0.985 . S
H1098 N1095 0.984 . S
H1099 N1095 0.985 . S
H1100 N1094 0.984 . S
H1101 N1094 0.984 . S
H1102 N1090 0.984 . S
H1103 N1090 0.985 . S
C1104 C1105 1.363 . S
C1104 C1110 1.379 . S
C1104 N1112 1.356 . S
C1105 C1104 1.363 . S
C1105 C1111 1.363 1_554 S
C1106 C1107 1.363 . S
C1106 C1111 1.379 . S
C1106 N1113 1.356 . S
C1107 C1106 1.363 . S
C1107 C1110 1.363 1_556 S
N1108 C1110 1.356 . S
N1108 H1120 0.984 . S
N1108 H1121 0.985 1_554 S
N1109 C1111 1.356 . S
N1109 H1114 0.984 1_556 S
N1109 H1115 0.985 . S
C1110 C1104 1.379 . S
C1110 C1107 1.363 1_554 S
C1110 N1108 1.356 . S
C1111 C1105 1.363 1_556 S
C1111 C1106 1.379 . S
C1111 N1109 1.356 . S
N1112 C1104 1.356 . S
N1112 H1118 0.984 . S
N1112 H1119 0.984 . S
N1113 C1106 1.356 . S
N1113 H1116 0.984 . S
N1113 H1117 0.985 . S
H1114 N1109 0.984 1_554 S
H1115 N1109 0.985 . S
H1116 N1113 0.984 . S
H1117 N1113 0.985 . S
H1118 N1112 0.984 . S
H1119 N1112 0.984 . S
H1120 N1108 0.984 . S
H1121 N1108 0.985 1_556 S
C1122 C1123 1.363 . S
C1122 C1128 1.379 . S
C1122 N1130 1.356 . S
C1123 C1122 1.363 . S
C1123 C1129 1.363 . S
C1124 C1125 1.363 . S
C1124 C1129 1.379 . S
C1124 N1131 1.356 . S
C1125 C1124 1.363 . S
C1125 C1128 1.363 . S
N1126 C1128 1.356 . S
N1126 H1138 0.984 . S
N1126 H1139 0.985 . S
N1127 C1129 1.356 . S
N1127 H1132 0.984 . S
N1127 H1133 0.985 . S
C1128 C1122 1.379 . S
C1128 C1125 1.363 . S
C1128 N1126 1.356 . S
C1129 C1123 1.363 . S
C1129 C1124 1.379 . S
C1129 N1127 1.356 . S
N1130 C1122 1.356 . S
N1130 H1136 0.984 . S
N1130 H1137 0.984 . S
N1131 C1124 1.356 . S
N1131 H1134 0.984 . S
N1131 H1135 0.985 . S
H1132 N1127 0.984 . S
H1133 N1127 0.985 . S
H1134 N1131 0.984 . S
H1135 N1131 0.985 . S
H1136 N1130 0.984 . S
H1137 N1130 0.984 . S
H1138 N1126 0.984 . S
H1139 N1126 0.985 . S
C1140 C1141 1.363 1_554 S
C1140 C1146 1.379 . S
C1140 N1148 1.356 . S
C1141 C1140 1.363 1_556 S
C1141 C1147 1.363 . S
C1142 C1143 1.363 1_556 S
C1142 C1147 1.379 . S
C1142 N1149 1.356 . S
C1143 C1142 1.363 1_554 S
C1143 C1146 1.363 . S
N1144 C1146 1.356 . S
N1144 H1156 0.984 . S
N1144 H1157 0.985 . S
N1145 C1147 1.356 . S
N1145 H1150 0.984 . S
N1145 H1151 0.985 . S
C1146 C1140 1.379 . S
C1146 C1143 1.363 . S
C1146 N1144 1.356 . S
C1147 C1141 1.363 . S
C1147 C1142 1.379 . S
C1147 N1145 1.356 . S
N1148 C1140 1.356 . S
N1148 H1154 0.984 . S
N1148 H1155 0.984 1_554 S
N1149 C1142 1.356 . S
N1149 H1152 0.984 1_556 S
N1149 H1153 0.985 . S
H1150 N1145 0.984 . S
H1151 N1145 0.985 . S
H1152 N1149 0.984 1_554 S
H1153 N1149 0.985 . S
H1154 N1148 0.984 . S
H1155 N1148 0.984 1_556 S
H1156 N1144 0.984 . S
H1157 N1144 0.985 . S
C1158 C1159 1.363 . S
C1158 C1164 1.379 . S
C1158 N1166 1.356 . S
C1159 C1158 1.363 . S
C1159 C1165 1.363 . S
C1160 C1161 1.363 . S
C1160 C1165 1.379 . S
C1160 N1167 1.356 . S
C1161 C1160 1.363 . S
C1161 C1164 1.363 . S
N1162 C1164 1.356 . S
N1162 H1174 0.984 . S
N1162 H1175 0.985 . S
N1163 C1165 1.356 . S
N1163 H1168 0.984 . S
N1163 H1169 0.985 . S
C1164 C1158 1.379 . S
C1164 C1161 1.363 . S
C1164 N1162 1.356 . S
C1165 C1159 1.363 . S
C1165 C1160 1.379 . S
C1165 N1163 1.356 . S
N1166 C1158 1.356 . S
N1166 H1172 0.984 . S
N1166 H1173 0.984 . S
N1167 C1160 1.356 . S
N1167 H1170 0.984 . S
N1167 H1171 0.985 . S
H1168 N1163 0.984 . S
H1169 N1163 0.985 . S
H1170 N1167 0.984 . S
H1171 N1167 0.985 . S
H1172 N1166 0.984 . S
H1173 N1166 0.984 . S
H1174 N1162 0.984 . S
H1175 N1162 0.985 . S
C313 C5 1.486 . S
C315 C200 1.486 . S
C331 C18 1.486 . S
C333 C213 1.486 . S
C349 C224 1.486 . S
C351 C31 1.486 . S
C367 C161 1.486 . S
C369 C44 1.486 . S
C385 C174 1.486 . S
C387 C57 1.486 . S
C403 C187 1.486 . S
C405 C68 1.486 . S
C421 C276 1.486 . S
C423 C83 1.486 . S
C439 C94 1.486 . S
C441 C289 1.486 . S
C457 C302 1.486 . S
C459 C107 1.486 . S
C475 C122 1.486 . S
C477 C237 1.486 . S
C493 C250 1.486 . S
C495 C133 1.486 . S
C511 C148 1.486 . S
C513 C265 1.486 . S
C529 C134 1.523 . S
C531 C10 1.523 . S
C547 C153 1.523 . S
C549 C23 1.523 . S
C565 C36 1.523 . S
C567 C88 1.523 . S
C583 C49 1.523 . S
C585 C95 1.523 . S
C601 C108 1.523 . S
C603 C62 1.523 . S
C619 C69 1.523 . S
C621 C127 1.523 . S
C637 C290 1.523 . S
C639 C166 1.523 . S
C655 C179 1.523 . S
C657 C303 1.523 . S
C673 C192 1.523 . S
C675 C238 1.523 . S
C691 C251 1.523 . S
C693 C205 1.523 . S
C709 C218 1.523 . S
C711 C270 1.523 . S
C727 C225 1.523 . S
C729 C277 1.523 . S
C745 C3 1.556 . S
C747 C239 1.556 . S
C763 C252 1.556 . S
C765 C16 1.556 . S
C781 C29 1.556 . S
C783 C263 1.556 . S
C799 C42 1.555 . S
C801 C278 1.555 . S
C817 C291 1.556 . S
C819 C55 1.556 . S
C835 C70 1.556 . S
C837 C304 1.556 . S
C853 C81 1.555 . S
C855 C159 1.555 . S
C871 C96 1.556 . S
C873 C172 1.556 . S
C889 C185 1.556 . S
C891 C109 1.556 . S
C907 C198 1.555 . S
C909 C120 1.555 . S
C925 C135 1.556 . S
C927 C211 1.556 . S
C943 C226 1.556 . S
C945 C146 1.556 . S
C961 C82 1.519 . S
C963 C4 1.519 . S
C979 C17 1.519 . S
C981 C101 1.519 . S
C997 C114 1.519 . S
C999 C30 1.519 . S
C1015 C121 1.519 . S
C1017 C43 1.519 . S
C1033 C140 1.519 . S
C1035 C56 1.519 . S
C1051 C75 1.519 . S
C1053 C147 1.519 . S
C1069 C244 1.519 . S
C1071 C160 1.519 . S
C1087 C173 1.519 . S
C1089 C257 1.519 . S
C1105 C264 1.519 . S
C1107 C186 1.519 . S
C1123 C283 1.519 . S
C1125 C199 1.519 . S
C1141 C212 1.519 . S
C1143 C296 1.519 . S
C1159 C231 1.519 . S
C1161 C309 1.519 . S
