# Generated by pormake.
# Topology wmc, (6)-cn, num edge types: 1
# Building blocks:
#     Node 0, Type 0, BuildingBlock: IZENUY_clean_sbu_0, # of connection points: 6
#     Node 1, Type 0, BuildingBlock: IZENUY_clean_sbu_0, # of connection points: 6
#     Node 2, Type 0, BuildingBlock: IZENUY_clean_sbu_0, # of connection points: 6
#     Node 3, Type 0, BuildingBlock: IZENUY_clean_sbu_0, # of connection points: 6
#     Node 4, Type 0, BuildingBlock: IZENUY_clean_sbu_0, # of connection points: 6
#     Node 5, Type 0, BuildingBlock: IZENUY_clean_sbu_0, # of connection points: 6
#     Node 6, Type 0, BuildingBlock: IZENUY_clean_sbu_0, # of connection points: 6
#     Node 7, Type 0, BuildingBlock: IZENUY_clean_sbu_0, # of connection points: 6
#     Node 8, Type 0, BuildingBlock: IZENUY_clean_sbu_0, # of connection points: 6
#     Node 9, Type 0, BuildingBlock: IZENUY_clean_sbu_0, # of connection points: 6
#     Node 10, Type 0, BuildingBlock: IZENUY_clean_sbu_0, # of connection points: 6
#     Node 11, Type 0, BuildingBlock: IZENUY_clean_sbu_0, # of connection points: 6
#     Node 12, Type 0, BuildingBlock: IZENUY_clean_sbu_0, # of connection points: 6
#     Node 13, Type 0, BuildingBlock: IZENUY_clean_sbu_0, # of connection points: 6
#     Node 14, Type 0, BuildingBlock: IZENUY_clean_sbu_0, # of connection points: 6
#     Node 15, Type 0, BuildingBlock: IZENUY_clean_sbu_0, # of connection points: 6
#     Node 16, Type 0, BuildingBlock: IZENUY_clean_sbu_0, # of connection points: 6
#     Node 17, Type 0, BuildingBlock: IZENUY_clean_sbu_0, # of connection points: 6
#     Edge 18, Type (0, 0), BuildingBlock: CIFDUS_clean_linker_0, # of connection points: 2
#     Edge 19, Type (0, 0), BuildingBlock: CIFDUS_clean_linker_0, # of connection points: 2
#     Edge 20, Type (0, 0), BuildingBlock: CIFDUS_clean_linker_0, # of connection points: 2
#     Edge 21, Type (0, 0), BuildingBlock: CIFDUS_clean_linker_0, # of connection points: 2
#     Edge 22, Type (0, 0), BuildingBlock: CIFDUS_clean_linker_0, # of connection points: 2
#     Edge 23, Type (0, 0), BuildingBlock: CIFDUS_clean_linker_0, # of connection points: 2
#     Edge 24, Type (0, 0), BuildingBlock: CIFDUS_clean_linker_0, # of connection points: 2
#     Edge 25, Type (0, 0), BuildingBlock: CIFDUS_clean_linker_0, # of connection points: 2
#     Edge 26, Type (0, 0), BuildingBlock: CIFDUS_clean_linker_0, # of connection points: 2
#     Edge 27, Type (0, 0), BuildingBlock: CIFDUS_clean_linker_0, # of connection points: 2
#     Edge 28, Type (0, 0), BuildingBlock: CIFDUS_clean_linker_0, # of connection points: 2
#     Edge 29, Type (0, 0), BuildingBlock: CIFDUS_clean_linker_0, # of connection points: 2
#     Edge 30, Type (0, 0), BuildingBlock: CIFDUS_clean_linker_0, # of connection points: 2
#     Edge 31, Type (0, 0), BuildingBlock: CIFDUS_clean_linker_0, # of connection points: 2
#     Edge 32, Type (0, 0), BuildingBlock: CIFDUS_clean_linker_0, # of connection points: 2
#     Edge 33, Type (0, 0), BuildingBlock: CIFDUS_clean_linker_0, # of connection points: 2
#     Edge 34, Type (0, 0), BuildingBlock: CIFDUS_clean_linker_0, # of connection points: 2
#     Edge 35, Type (0, 0), BuildingBlock: CIFDUS_clean_linker_0, # of connection points: 2
#     Edge 36, Type (0, 0), BuildingBlock: CIFDUS_clean_linker_0, # of connection points: 2
#     Edge 37, Type (0, 0), BuildingBlock: CIFDUS_clean_linker_0, # of connection points: 2
#     Edge 38, Type (0, 0), BuildingBlock: CIFDUS_clean_linker_0, # of connection points: 2
#     Edge 39, Type (0, 0), BuildingBlock: CIFDUS_clean_linker_0, # of connection points: 2
#     Edge 40, Type (0, 0), BuildingBlock: CIFDUS_clean_linker_0, # of connection points: 2
#     Edge 41, Type (0, 0), BuildingBlock: CIFDUS_clean_linker_0, # of connection points: 2
#     Edge 42, Type (0, 0), BuildingBlock: CIFDUS_clean_linker_0, # of connection points: 2
#     Edge 43, Type (0, 0), BuildingBlock: CIFDUS_clean_linker_0, # of connection points: 2
#     Edge 44, Type (0, 0), BuildingBlock: CIFDUS_clean_linker_0, # of connection points: 2
#     Edge 45, Type (0, 0), BuildingBlock: CIFDUS_clean_linker_0, # of connection points: 2
#     Edge 46, Type (0, 0), BuildingBlock: CIFDUS_clean_linker_0, # of connection points: 2
#     Edge 47, Type (0, 0), BuildingBlock: CIFDUS_clean_linker_0, # of connection points: 2
#     Edge 48, Type (0, 0), BuildingBlock: CIFDUS_clean_linker_0, # of connection points: 2
#     Edge 49, Type (0, 0), BuildingBlock: CIFDUS_clean_linker_0, # of connection points: 2
#     Edge 50, Type (0, 0), BuildingBlock: CIFDUS_clean_linker_0, # of connection points: 2
#     Edge 51, Type (0, 0), BuildingBlock: CIFDUS_clean_linker_0, # of connection points: 2
#     Edge 52, Type (0, 0), BuildingBlock: CIFDUS_clean_linker_0, # of connection points: 2
#     Edge 53, Type (0, 0), BuildingBlock: CIFDUS_clean_linker_0, # of connection points: 2
#     Edge 54, Type (0, 0), BuildingBlock: CIFDUS_clean_linker_0, # of connection points: 2
#     Edge 55, Type (0, 0), BuildingBlock: CIFDUS_clean_linker_0, # of connection points: 2
#     Edge 56, Type (0, 0), BuildingBlock: CIFDUS_clean_linker_0, # of connection points: 2
#     Edge 57, Type (0, 0), BuildingBlock: CIFDUS_clean_linker_0, # of connection points: 2
#     Edge 58, Type (0, 0), BuildingBlock: CIFDUS_clean_linker_0, # of connection points: 2
#     Edge 59, Type (0, 0), BuildingBlock: CIFDUS_clean_linker_0, # of connection points: 2
#     Edge 60, Type (0, 0), BuildingBlock: CIFDUS_clean_linker_0, # of connection points: 2
#     Edge 61, Type (0, 0), BuildingBlock: CIFDUS_clean_linker_0, # of connection points: 2
#     Edge 62, Type (0, 0), BuildingBlock: CIFDUS_clean_linker_0, # of connection points: 2
#     Edge 63, Type (0, 0), BuildingBlock: CIFDUS_clean_linker_0, # of connection points: 2
#     Edge 64, Type (0, 0), BuildingBlock: CIFDUS_clean_linker_0, # of connection points: 2
#     Edge 65, Type (0, 0), BuildingBlock: CIFDUS_clean_linker_0, # of connection points: 2
#     Edge 66, Type (0, 0), BuildingBlock: CIFDUS_clean_linker_0, # of connection points: 2
#     Edge 67, Type (0, 0), BuildingBlock: CIFDUS_clean_linker_0, # of connection points: 2
#     Edge 68, Type (0, 0), BuildingBlock: CIFDUS_clean_linker_0, # of connection points: 2
#     Edge 69, Type (0, 0), BuildingBlock: CIFDUS_clean_linker_0, # of connection points: 2
#     Edge 70, Type (0, 0), BuildingBlock: CIFDUS_clean_linker_0, # of connection points: 2
#     Edge 71, Type (0, 0), BuildingBlock: CIFDUS_clean_linker_0, # of connection points: 2
# Relax obj value: 0.348
# Max RMSD: 0.273
# Mean RMSD: 0.273
data_MOF--net-wmc--node1-IZENUY_clean_sbu_0--edge1-CIFDUS_clean_linker_0
_symmetry_space_group_name_H-M    P1
_symmetry_Int_Tables_number       1
_symmetry_cell_setting            triclinic
loop_
_symmetry_equiv_pos_as_xyz
'x, y, z'
_cell_length_a     39.930721
_cell_length_b     39.860389
_cell_length_c     26.562873
_cell_angle_alpha  90.240928
_cell_angle_beta   89.96334
_cell_angle_gamma 119.99307
loop_
_atom_site_label
_atom_site_type_symbol
_atom_site_fract_x
_atom_site_fract_y
_atom_site_fract_z
_atom_type_partial_charge
Fe0 Fe 0.6654 0.13204 0.97655 0.0
Fe1 Fe 0.60202 0.14628 0.02053 0.0
O2 O 0.65056 0.15657 0.019 0.0
Fe3 Fe 0.68484 0.19397 0.0587 0.0
O4 O 0.72572 0.20925 0.01699 0.0
O5 O 0.70006 0.17822 0.94682 0.0
O6 O 0.63183 0.12745 0.92676 0.0
C7 C 0.61378 0.14547 0.91849 0.0
C8 C 0.71293 0.1452 0.0663 0.0
O9 O 0.60388 0.15981 0.95435 0.0
C10 C 0.62028 0.15395 0.12062 0.0
O11 O 0.62861 0.08296 -0.00029 0.0
O12 O 0.58115 0.09613 0.00308 0.0
O13 O 0.69643 0.16061 0.08974 0.0
O14 O 0.70399 0.13469 0.0202 0.0
C15 C 0.6427 0.22593 0.02342 0.0
O16 O 0.59791 0.13185 0.08646 0.0
O17 O 0.65035 0.18523 0.10907 0.0
C18 C 0.59231 0.07179 -0.00012 0.0
O19 O 0.6136 0.19507 0.03765 0.0
O20 O 0.6759 0.22979 0.02793 0.0
C21 C 0.72605 0.20732 0.96995 0.0
Fe22 Fe 0.94569 0.55312 0.96173 0.0
Fe23 Fe 0.95406 0.48402 -0.00322 0.0
O24 O 0.92877 0.50966 -0.00262 0.0
Fe25 Fe 0.88596 0.49199 0.03194 0.0
O26 O 0.8611 0.4873 0.97363 0.0
O27 O 0.89648 0.54752 0.95263 0.0
O28 O 0.93826 0.52644 0.90408 0.0
C29 C 0.95223 0.50481 0.89466 0.0
C30 C 0.92271 0.57517 0.04569 0.0
O31 O 0.9662 0.49337 0.92916 0.0
C32 C 0.93139 0.48126 0.09901 0.0
O33 O 0.99831 0.56565 0.96127 0.0
O34 O 0.99624 0.52695 0.0187 0.0
O35 O 0.89346 0.54106 0.04656 0.0
O36 O 0.95222 0.58211 0.01909 0.0
C37 C 0.8806 0.42277 0.99371 0.0
O38 O 0.9443 0.46957 0.06336 0.0
O39 O 0.91002 0.49555 0.09068 0.0
C40 C 1.01588 0.55198 0.98681 0.0
O41 O 0.91371 0.43956 0.97499 0.0
O42 O 0.87022 0.44003 0.02468 0.0
C43 C 0.86348 0.51686 0.9539 0.0
Fe44 Fe 0.52987 0.41241 0.97032 0.0
Fe45 Fe 0.59595 0.4904 0.00985 0.0
O46 O 0.56917 0.4394 0.01203 0.0
Fe47 Fe 0.5822 0.41539 0.05638 0.0
O48 O 0.59512 0.39401 0.00629 0.0
O49 O 0.53979 0.37122 0.96568 0.0
O50 O 0.5607 0.43204 0.91639 0.0
C51 C 0.58247 0.46734 0.90675 0.0
C52 C 0.49987 0.36539 0.05216 0.0
O53 O 0.59238 0.49311 0.94064 0.0
C54 C 0.58615 0.47309 0.11419 0.0
O55 O 0.51634 0.452 0.96447 0.0
O56 O 0.55266 0.49183 0.02261 0.0
O57 O 0.53374 0.37209 0.06175 0.0
O58 O 0.49527 0.38804 0.0226 0.0
C59 C 0.6546 0.47657 0.02591 0.0
O60 O 0.60448 0.49618 0.07843 0.0
O61 O 0.56985 0.43688 0.10779 0.0
C62 C 0.52892 0.48441 0.98792 0.0
O63 O 0.64071 0.49129 -0.0029 0.0
O64 O 0.63366 0.45295 0.05954 0.0
C65 C 0.57156 0.37156 0.97379 0.0
Fe66 Fe 0.94497 0.48324 0.49765 0.0
Fe67 Fe 0.88184 0.40703 0.53967 0.0
O68 O 0.92133 0.43217 0.49904 0.0
Fe69 Fe 0.93701 0.40627 0.46012 0.0
O70 O 0.92803 0.42577 0.40409 0.0
O71 O 0.95564 0.48655 0.4295 0.0
O72 O 0.90201 0.48374 0.479 0.0
C73 C 0.87067 0.4666 0.50238 0.0
C74 C 1.00753 0.47841 0.48378 0.0
O75 O 0.86578 0.44297 0.53718 0.0
C76 C 0.91744 0.35975 0.54285 0.0
O77 O 0.93746 0.48853 0.56488 0.0
O78 O 0.91171 0.42923 0.59436 0.0
O79 O 0.98962 0.44664 0.45874 0.0
O80 O 0.98881 0.48474 0.51635 0.0
C81 C 0.85485 0.36264 0.45603 0.0
O82 O 0.88904 0.36521 0.54932 0.0
O83 O 0.94536 0.38269 0.51445 0.0
C84 C 0.93079 0.46538 0.6011 0.0
O85 O 0.8511 0.38472 0.4865 0.0
O86 O 0.88726 0.3638 0.45178 0.0
C87 C 0.94171 0.4612 0.39484 0.0
Fe88 Fe 0.59151 0.48335 0.51033 0.0
Fe89 Fe 0.66952 0.49373 0.54036 0.0
O90 O 0.64238 0.51041 0.50797 0.0
Fe91 Fe 0.66646 0.55428 0.47301 0.0
O92 O 0.6448 0.52868 0.41536 0.0
O93 O 0.58523 0.49337 0.44419 0.0
O94 O 0.58896 0.4403 0.48529 0.0
C95 C 0.60617 0.42401 0.5029 0.0
C96 C 0.59524 0.55061 0.50539 0.0
O97 O 0.63341 0.44143 0.53442 0.0
C98 C 0.71598 0.57657 0.55273 0.0
O99 O 0.58973 0.46801 0.57602 0.0
O100 O 0.65069 0.49778 0.6005 0.0
O101 O 0.62613 0.56611 0.47896 0.0
O102 O 0.5912 0.52497 0.53552 0.0
C103 C 0.71093 0.51766 0.45514 0.0
O104 O 0.71168 0.54271 0.55231 0.0
O105 O 0.69157 0.58285 0.52963 0.0
C106 C 0.61512 0.48167 0.6106 0.0
O107 O 0.68846 0.48897 0.48143 0.0
O108 O 0.70902 0.54861 0.45733 0.0
C109 C 0.60906 0.50669 0.40796 0.0
Fe110 Fe 0.60513 0.14452 0.52071 0.0
Fe111 Fe 0.56949 0.19177 0.55895 0.0
O112 O 0.5671 0.15524 0.5181 0.0
Fe113 Fe 0.52917 0.13254 0.47332 0.0
O114 O 0.55964 0.12965 0.42457 0.0
O115 O 0.61906 0.16011 0.45533 0.0
O116 O 0.64164 0.19252 0.54125 0.0
C117 C 0.64415 0.22349 0.52622 0.0
C118 C 0.54128 0.07113 0.4929 0.0
O119 O 0.6151 0.2279 0.53005 0.0
C120 C 0.49244 0.1438 0.56224 0.0
O121 O 0.59274 0.12808 0.58579 0.0
O122 O 0.59347 0.18117 0.60988 0.0
O123 O 0.51608 0.08233 0.49319 0.0
O124 O 0.5764 0.09514 0.5002 0.0
C125 C 0.54425 0.20831 0.47032 0.0
O126 O 0.52357 0.15792 0.58731 0.0
O127 O 0.492 0.13398 0.516 0.0
C128 C 0.59205 0.1496 0.62058 0.0
O129 O 0.54545 0.20878 0.51737 0.0
O130 O 0.54165 0.17986 0.44596 0.0
C131 C 0.59586 0.14723 0.41825 0.0
Fe132 Fe 0.34102 0.46364 0.30621 0.0
Fe133 Fe 0.26473 0.46176 0.33278 0.0
O134 O 0.31529 0.48286 0.33875 0.0
Fe135 Fe 0.34078 0.52393 0.37677 0.0
O136 O 0.36531 0.55089 0.32159 0.0
O137 O 0.38645 0.5119 0.29966 0.0
O138 O 0.32634 0.47315 0.2468 0.0
C139 C 0.29199 0.46039 0.23253 0.0
C140 C 0.38239 0.48345 0.39311 0.0
O141 O 0.2645 0.4496 0.26438 0.0
C142 C 0.28022 0.47894 0.43765 0.0
O143 O 0.29835 0.412 0.30343 0.0
O144 O 0.25933 0.41699 0.35508 0.0
O145 O 0.37964 0.51378 0.39315 0.0
O146 O 0.35967 0.45465 0.36541 0.0
C147 C 0.28492 0.53769 0.33241 0.0
O148 O 0.25769 0.47115 0.39981 0.0
O149 O 0.31637 0.49761 0.43231 0.0
C150 C 0.26531 0.39637 0.32524 0.0
O151 O 0.26727 0.50566 0.31026 0.0
O152 O 0.30755 0.54269 0.36848 0.0
C153 C 0.39054 0.54579 0.30044 0.0
Fe154 Fe 0.61243 0.88731 0.30027 0.0
Fe155 Fe 0.62356 0.82015 0.33669 0.0
O156 O 0.59961 0.84706 0.34053 0.0
Fe157 Fe 0.56253 0.83343 0.3846 0.0
O158 O 0.52922 0.82282 0.33367 0.0
O159 O 0.56229 0.87974 0.29798 0.0
O160 O 0.59993 0.85676 0.24544 0.0
C161 C 0.6132 0.83486 0.23464 0.0
C162 C 0.59701 0.91647 0.38477 0.0
O163 O 0.62956 0.82492 0.26755 0.0
C164 C 0.61505 0.82713 0.44155 0.0
O165 O 0.66498 0.89972 0.29272 0.0
O166 O 0.66794 0.86359 0.35071 0.0
O167 O 0.56959 0.88251 0.39372 0.0
O168 O 0.6237 0.92115 0.3539 0.0
C169 C 0.5513 0.76086 0.35151 0.0
O170 O 0.62065 0.81007 0.40477 0.0
O171 O 0.59533 0.84359 0.43622 0.0
C172 C 0.6845 0.88685 0.31579 0.0
O173 O 0.57998 0.77531 0.32283 0.0
O174 O 0.54747 0.78154 0.38476 0.0
C175 C 0.53008 0.84941 0.30738 0.0
Fe176 Fe 0.19189 0.74231 0.30485 0.0
Fe177 Fe 0.25952 0.81637 0.35123 0.0
O178 O 0.23139 0.76549 0.34761 0.0
Fe179 Fe 0.2431 0.73729 0.38661 0.0
O180 O 0.25439 0.71847 0.33188 0.0
O181 O 0.19865 0.69953 0.29441 0.0
O182 O 0.22324 0.76409 0.25178 0.0
C183 C 0.24664 0.7997 0.246 0.0
C184 C 0.16068 0.69213 0.38295 0.0
O185 O 0.25748 0.82345 0.28265 0.0
C186 C 0.24929 0.79111 0.45385 0.0
O187 O 0.18069 0.78333 0.30425 0.0
O188 O 0.21701 0.81906 0.36523 0.0
O189 O 0.19372 0.69571 0.3895 0.0
O190 O 0.15722 0.71684 0.35633 0.0
C191 C 0.31668 0.7994 0.36212 0.0
O192 O 0.26661 0.81701 0.42035 0.0
O193 O 0.23245 0.75563 0.44259 0.0
C194 C 0.19425 0.81458 0.33025 0.0
O195 O 0.30378 0.81685 0.33691 0.0
O196 O 0.29496 0.77271 0.39188 0.0
C197 C 0.22931 0.69738 0.29989 0.0
Fe198 Fe 0.60899 0.7442 0.80082 0.0
Fe199 Fe 0.61307 0.81997 0.83711 0.0
O200 O 0.59053 0.76894 0.83747 0.0
Fe201 Fe 0.54839 0.74199 0.87272 0.0
O202 O 0.52306 0.72104 0.81488 0.0
O203 O 0.5606 0.69926 0.79096 0.0
O204 O 0.60087 0.76334 0.74358 0.0
C205 C 0.61433 0.79898 0.73493 0.0
C206 C 0.58771 0.69812 0.88356 0.0
O207 O 0.62633 0.82398 0.77012 0.0
C208 C 0.59217 0.79932 0.9393 0.0
O209 O 0.66074 0.786 0.80164 0.0
O210 O 0.65722 0.82297 0.85861 0.0
O211 O 0.55788 0.70177 0.88572 0.0
O212 O 0.61673 0.7218 0.85716 0.0
C213 C 0.53748 0.80142 0.83365 0.0
O214 O 0.60233 0.82367 0.9037 0.0
O215 O 0.57297 0.76336 0.93099 0.0
C216 C 0.67737 0.8177 0.82694 0.0
O217 O 0.57053 0.82014 0.81482 0.0
O218 O 0.53031 0.7761 0.86689 0.0
C219 C 0.52684 0.6951 0.79359 0.0
Fe220 Fe 0.26794 0.80867 0.85189 0.0
Fe221 Fe 0.35035 0.84549 0.89398 0.0
O222 O 0.31659 0.84759 0.85202 0.0
Fe223 Fe 0.33137 0.88629 0.80852 0.0
O224 O 0.29922 0.85578 0.75852 0.0
O225 O 0.27204 0.79584 0.78677 0.0
O226 O 0.27836 0.77179 0.87329 0.0
C227 C 0.30771 0.76954 0.86273 0.0
C228 C 0.25728 0.87202 0.82654 0.0
O229 O 0.34064 0.79904 0.86748 0.0
C230 C 0.38082 0.92322 0.89611 0.0
O231 O 0.26139 0.81987 0.91607 0.0
O232 O 0.31496 0.82346 0.94485 0.0
O233 O 0.29329 0.89784 0.82896 0.0
O234 O 0.24712 0.83686 0.83073 0.0
C235 C 0.39291 0.87221 0.80474 0.0
O236 O 0.36452 0.89243 0.92167 0.0
O237 O 0.36868 0.92347 0.85155 0.0
C238 C 0.28297 0.82221 0.95233 0.0
O239 O 0.39108 0.86735 0.85152 0.0
O240 O 0.36783 0.87639 0.78105 0.0
C241 C 0.28205 0.81961 0.75056 0.0
Fe242 Fe 0.19541 0.47072 0.79492 0.0
Fe243 Fe 0.25701 0.45444 0.8398 0.0
O244 O 0.2327 0.48101 0.83913 0.0
Fe245 Fe 0.24559 0.51821 0.88343 0.0
O246 O 0.2621 0.55258 0.83337 0.0
O247 O 0.20736 0.52263 0.79127 0.0
O248 O 0.22794 0.48152 0.74299 0.0
C249 C 0.24803 0.46587 0.73452 0.0
C250 C 0.1642 0.48761 0.87548 0.0
O251 O 0.25639 0.44956 0.76966 0.0
C252 C 0.24256 0.46223 0.94345 0.0
O253 O 0.17998 0.41727 0.78753 0.0
O254 O 0.21164 0.41092 0.84898 0.0
O255 O 0.19796 0.51507 0.8851 0.0
O256 O 0.15961 0.46059 0.84536 0.0
C257 C 0.31759 0.52556 0.85936 0.0
O258 O 0.26177 0.45585 0.90996 0.0
O259 O 0.22924 0.4843 0.93442 0.0
C260 C 0.19 0.39595 0.81189 0.0
O261 O 0.3037 0.49683 0.8305 0.0
O262 O 0.2961 0.5296 0.8909 0.0
C263 C 0.23959 0.55333 0.80087 0.0
Fe264 Fe 1.00739 0.80143 0.63423 0.0
Fe265 Fe 0.9312 0.79995 0.6591 0.0
O266 O 0.98169 0.82095 0.66622 0.0
Fe267 Fe 1.00698 0.86183 0.70495 0.0
O268 O 1.03328 0.88911 0.65078 0.0
O269 O 0.05341 0.84928 0.62914 0.0
O270 O 0.99389 0.8117 0.57453 0.0
C271 C 0.95979 0.79919 0.55941 0.0
C272 C 0.04795 0.82034 0.72179 0.0
O273 O 0.93181 0.78802 0.59063 0.0
C274 C 0.94508 0.81652 0.76412 0.0
O275 O 0.96422 0.74979 0.63046 0.0
O276 O 0.92508 0.75497 0.68165 0.0
O277 O 1.04493 0.85056 0.72332 0.0
O278 O 1.02495 0.79194 0.69363 0.0
C279 C 0.95129 0.87593 0.65882 0.0
O280 O 0.92311 0.80898 0.72579 0.0
O281 O 0.98127 0.83551 0.75973 0.0
C282 C 0.93122 0.73413 0.65246 0.0
O283 O 0.9341 0.84388 0.63662 0.0
O284 O 0.9745 0.88154 0.69456 0.0
C285 C 0.05872 0.8836 0.63116 0.0
Fe286 Fe 0.27384 0.21478 0.62713 0.0
Fe287 Fe 0.29279 0.15662 0.6765 0.0
O288 O 0.26448 0.17899 0.67307 0.0
Fe289 Fe 0.2267 0.16592 0.7161 0.0
O290 O 0.19286 0.14763 0.66516 0.0
O291 O 0.22174 0.20176 0.62223 0.0
O292 O 0.26377 0.18062 0.57723 0.0
C293 C 0.28118 0.16197 0.57038 0.0
C294 C 0.25577 0.2472 0.70519 0.0
O295 O 0.29845 0.15579 0.60654 0.0
C296 C 0.28287 0.17218 0.77886 0.0
O297 O 0.32752 0.2313 0.6206 0.0
O298 O 0.33477 0.20341 0.68531 0.0
O299 O 0.22876 0.21333 0.71566 0.0
O300 O 0.28304 0.25171 0.67582 0.0
C301 C 0.22266 0.09449 0.69537 0.0
O302 O 0.29082 0.15331 0.74663 0.0
O303 O 0.25984 0.18398 0.76809 0.0
C304 C 0.34951 0.22326 0.64694 0.0
O305 O 0.25194 0.10888 0.66777 0.0
O306 O 0.21664 0.11578 0.72522 0.0
C307 C 0.19137 0.16952 0.63242 0.0
Fe308 Fe 0.858 0.07864 0.63657 0.0
Fe309 Fe 0.93545 0.14532 0.67723 0.0
O310 O 0.89732 0.09638 0.6798 0.0
Fe311 Fe 0.90031 0.06488 0.72444 0.0
O312 O 0.87719 1.02174 0.68526 0.0
O313 O 0.86943 0.04232 0.61211 0.0
O314 O 0.88716 0.10945 0.58497 0.0
C315 C 0.92319 0.12757 0.57667 0.0
C316 C 0.82295 0.03514 0.72831 0.0
O317 O 0.94736 0.13925 0.61261 0.0
C318 C 0.92391 0.13402 0.77847 0.0
O319 O 0.84532 0.1165 0.65435 0.0
O320 O 0.90579 0.16427 0.65486 0.0
O321 O 0.85434 0.05333 0.75239 0.0
O322 O 0.82185 0.04217 0.68155 0.0
C323 C 0.97545 0.10617 0.69136 0.0
O324 O 0.92533 0.15422 0.74113 0.0
O325 O 0.92375 0.10243 0.77252 0.0
C326 C 0.87033 0.15278 0.65074 0.0
O327 O 0.97327 0.13614 0.69884 0.0
O328 O 0.9461 0.07331 0.69804 0.0
C329 C 0.87378 1.01838 0.63825 0.0
Fe330 Fe 0.28287 0.07372 0.13818 0.0
Fe331 Fe 0.28523 0.14978 0.16908 0.0
O332 O 0.26439 0.09896 0.17325 0.0
Fe333 Fe 0.22434 0.073 0.21268 0.0
O334 O 0.1953 0.04896 0.15881 0.0
O335 O 0.23403 1.02909 0.12966 0.0
O336 O 0.27341 0.09008 0.08014 0.0
C337 C 0.2863 0.12473 0.06745 0.0
C338 C 0.26316 1.02939 0.2225 0.0
O339 O 0.2966 0.15151 0.10039 0.0
C340 C 0.27101 0.13285 0.27382 0.0
O341 O 0.33482 0.11644 0.13648 0.0
O342 O 0.33069 0.15575 0.18917 0.0
O343 O 0.23346 0.03297 0.22493 0.0
O344 O 0.29181 0.05288 0.19545 0.0
C345 C 0.20946 0.12905 0.17217 0.0
O346 O 0.27696 0.15566 0.23691 0.0
O347 O 0.2528 0.09667 0.26751 0.0
C348 C 0.35073 0.14975 0.1584 0.0
O349 O 0.24068 0.14672 0.14858 0.0
O350 O 0.20606 0.10697 0.20819 0.0
C351 C 0.20059 1.02608 0.13165 0.0
Fe352 Fe 1.00312 0.21899 0.13351 0.0
Fe353 Fe 0.92734 0.15256 0.17724 0.0
O354 O 0.97827 0.17887 0.17473 0.0
Fe355 Fe 1.00478 0.1649 0.21338 0.0
O356 O 1.02319 0.15363 0.1583 0.0
O357 O 1.04487 0.21061 0.12353 0.0
O358 O 0.98098 0.18867 0.07927 0.0
C359 C 0.94515 0.16688 0.07249 0.0
C360 C 0.0526 0.24747 0.21334 0.0
O361 O 0.9212 0.15644 0.10872 0.0
C362 C 0.95134 0.15974 0.28018 0.0
O363 O 0.96346 0.23211 0.13269 0.0
O364 O 0.92722 0.19634 0.19306 0.0
O365 O 1.04755 0.21367 0.21876 0.0
O366 O 1.02893 0.25251 0.18643 0.0
C367 C 0.94098 0.09278 0.18549 0.0
O368 O 0.92562 0.14382 0.246 0.0
O369 O 0.98677 0.17547 0.26963 0.0
C370 C 0.93236 0.21956 0.15849 0.0
O371 O 0.92453 0.10722 0.16113 0.0
O372 O 0.96781 0.11328 0.21609 0.0
C373 C 1.04602 0.17933 0.12843 0.0
Fe374 Fe 0.92653 0.79209 0.16497 0.0
Fe375 Fe 0.91279 0.85689 0.19944 0.0
O376 O 0.89874 0.81527 0.16309 0.0
Fe377 Fe 0.85726 0.79817 0.12338 0.0
O378 O 0.88662 0.80738 0.06839 0.0
O379 O 0.92151 0.7819 0.09563 0.0
O380 O 0.97115 0.83497 0.14803 0.0
C381 C 0.98481 0.86737 0.16888 0.0
C382 C 0.86018 0.72849 0.14793 0.0
O383 O 0.96478 0.87396 0.19978 0.0
C384 C 0.82985 0.81865 0.20438 0.0
O385 O 0.93568 0.79974 0.23435 0.0
O386 O 0.90512 0.83087 0.25693 0.0
O387 O 0.84637 0.74588 0.12213 0.0
O388 O 0.88406 0.7476 0.18153 0.0
C389 C 0.89272 0.88073 0.11818 0.0
O390 O 0.86322 0.84841 0.20764 0.0
O391 O 0.82493 0.78969 0.17775 0.0
C392 C 0.91904 0.80959 0.26775 0.0
O393 O 0.92106 0.88336 0.1418 0.0
O394 O 0.86244 0.84743 0.11423 0.0
C395 C 0.90921 0.79448 0.05999 0.0
H396 H 0.57455 0.21964 -0.00364 0.0
H397 H 0.69725 0.30114 0.00155 0.0
H398 H 0.68547 0.3525 0.97216 0.0
H399 H 0.63976 0.37558 0.95781 0.0
H400 H 0.517 0.29512 0.96059 0.0
H401 H 0.52938 0.24131 0.97154 0.0
C402 C 0.59884 0.24863 0.99104 0.0
C403 C 0.6367 0.25692 0.00273 0.0
C404 C 0.59177 0.27789 0.97475 0.0
C405 C 0.66783 0.29427 0.99397 0.0
C406 C 0.66109 0.32352 0.9769 0.0
C407 C 0.61573 0.34604 0.95913 0.0
C408 C 0.57751 0.33924 0.95907 0.0
C409 C 0.62311 0.31584 0.96877 0.0
C410 C 0.54659 0.30102 0.96029 0.0
C411 C 0.55373 0.2704 0.96757 0.0
H412 H 0.80277 0.24223 0.97818 0.0
H413 H 0.71074 0.25424 0.91299 0.0
H414 H 0.75157 0.3249 0.91483 0.0
H415 H 0.80974 0.38302 0.94921 0.0
H416 H 0.90041 0.3695 0.01663 0.0
H417 H 0.86365 0.29968 0.00122 0.0
C418 C 0.7925 0.26037 0.96187 0.0
C419 C 0.7541 0.24324 0.94501 0.0
C420 C 0.81526 0.30072 0.966 0.0
C421 C 0.7406 0.26685 0.92493 0.0
C422 C 0.76358 0.30728 0.92741 0.0
C423 C 0.82115 0.36456 0.9605 0.0
C424 C 0.85702 0.38081 0.98527 0.0
C425 C 0.80016 0.32446 0.95048 0.0
C426 C 0.87239 0.35718 -0.00155 0.0
C427 C 0.85163 0.31744 0.9892 0.0
H428 H 0.70402 0.51372 0.94785 0.0
H429 H 0.69753 0.46508 0.09519 0.0
H430 H 0.76338 0.47767 0.08652 0.0
H431 H 0.81935 0.49614 0.0353 0.0
H432 H 0.82867 0.54355 0.88698 0.0
H433 H 0.76471 0.53816 0.89797 0.0
C434 C 0.71728 0.50638 0.97827 0.0
C435 C 0.69578 0.48807 0.02197 0.0
C436 C 0.75522 0.5132 0.97273 0.0
C437 C 0.71324 0.47872 0.06104 0.0
C438 C 0.75088 0.48595 0.05616 0.0
C439 C 0.80776 0.50581 0.00533 0.0
C440 C 0.82836 0.51983 0.9601 0.0
C441 C 0.77157 0.50219 0.01181 0.0
C442 C 0.81318 0.53262 0.92204 0.0
C443 C 0.77666 0.52931 0.92834 0.0
H444 H 0.71635 0.45543 0.43226 0.0
H445 H 0.7851 0.5797 0.44573 0.0
H446 H 0.84349 0.57472 0.45651 0.0
H447 H 0.87216 0.53372 0.47874 0.0
H448 H 0.79737 0.40994 0.48811 0.0
H449 H 0.7437 0.41556 0.45423 0.0
C450 C 0.74432 0.48157 0.43634 0.0
C451 C 0.74636 0.51776 0.43917 0.0
C452 C 0.77634 0.47818 0.44902 0.0
C453 C 0.78273 0.55145 0.44337 0.0
C454 C 0.81594 0.5485 0.4508 0.0
C455 C 0.844 0.50817 0.47332 0.0
C456 C 0.83839 0.47145 0.48583 0.0
C457 C 0.81261 0.51189 0.45674 0.0
C458 C 0.80204 0.4384 0.47893 0.0
C459 C 0.77154 0.44159 0.45921 0.0
H460 H 0.50331 0.24362 0.4842 0.0
H461 H 0.60525 0.2562 0.41152 0.0
H462 H 0.63526 0.32691 0.41562 0.0
H463 H 0.63628 0.38478 0.45368 0.0
H464 H 0.53452 0.37019 0.52984 0.0
H465 H 0.50101 0.30066 0.51236 0.0
C466 C 0.5313 0.26194 0.46692 0.0
C467 C 0.55192 0.24487 0.44722 0.0
C468 C 0.54918 0.30221 0.47269 0.0
C469 C 0.58845 0.26871 0.42577 0.0
C470 C 0.60604 0.30916 0.42953 0.0
C471 C 0.60688 0.36613 0.46657 0.0
C472 C 0.5881 0.38204 0.49429 0.0
C473 C 0.58749 0.32613 0.4555 0.0
C474 C 0.54964 0.35814 0.50948 0.0
C475 C 0.53038 0.31857 0.49899 0.0
H476 H 0.70596 0.21542 0.50486 0.0
H477 H 0.66263 0.29474 0.4883 0.0
H478 H 0.72281 0.3411 0.44647 0.0
H479 H 0.7905 0.36232 0.42683 0.0
H480 H 0.83621 0.28668 0.45644 0.0
H481 H 0.77128 0.23412 0.47688 0.0
C482 C 0.70951 0.24284 0.49217 0.0
C483 C 0.68017 0.25207 0.50087 0.0
C484 C 0.74426 0.26941 0.4691 0.0
C485 C 0.68502 0.28729 0.48294 0.0
C486 C 0.71927 0.3136 0.45869 0.0
C487 C 0.78587 0.33385 0.43619 0.0
C488 C 0.81802 0.3285 0.44134 0.0
C489 C 0.74942 0.30535 0.45295 0.0
C490 C 0.81193 0.29147 0.45215 0.0
C491 C 0.77496 0.26178 0.4652 0.0
H492 H 0.2943 0.69545 0.28433 0.0
H493 H 0.17029 0.62291 0.28093 0.0
H494 H 0.17692 0.56496 0.28482 0.0
H495 H 0.21819 0.53614 0.30479 0.0
H496 H 0.3412 0.61173 0.32222 0.0
H497 H 0.33495 0.66735 0.29844 0.0
C498 C 0.26869 0.66687 0.28307 0.0
C499 C 0.2319 0.66341 0.28294 0.0
C500 C 0.27268 0.6343 0.28962 0.0
C501 C 0.19896 0.62633 0.28076 0.0
C502 C 0.20278 0.59325 0.28399 0.0
C503 C 0.2435 0.56482 0.30286 0.0
C504 C 0.28004 0.57016 0.31585 0.0
C505 C 0.23945 0.59703 0.29108 0.0
C506 C 0.31276 0.60723 0.31326 0.0
C507 C 0.30924 0.63893 0.29931 0.0
H508 H 0.53407 0.71148 0.27174 0.0
H509 H 0.50937 0.71593 0.42924 0.0
H510 H 0.46259 0.64693 0.42798 0.0
H511 H 0.42392 0.58827 0.38102 0.0
H512 H 0.44178 0.5822 0.22209 0.0
H513 H 0.49705 0.64904 0.2249 0.0
C514 C 0.51863 0.69711 0.30578 0.0
C515 C 0.5247 0.71874 0.35043 0.0
C516 C 0.49091 0.65741 0.30447 0.0
C517 C 0.50467 0.70001 0.39433 0.0
C518 C 0.47813 0.66057 0.39371 0.0
C519 C 0.4406 0.6011 0.34714 0.0
C520 C 0.42925 0.58042 0.30151 0.0
C521 C 0.47044 0.6394 0.34883 0.0
C522 C 0.45054 0.59748 0.25775 0.0
C523 C 0.48166 0.63575 0.25937 0.0
H524 H 0.48769 0.83861 0.38852 0.0
H525 H 0.49241 0.86373 0.23016 0.0
H526 H 0.42629 0.85378 0.2345 0.0
H527 H 0.36503 0.83032 0.2824 0.0
H528 H 0.36092 0.79873 0.43855 0.0
H529 H 0.42931 0.81834 0.43605 0.0
C530 C 0.47436 0.84219 0.35488 0.0
C531 C 0.49425 0.85116 0.30886 0.0
C532 C 0.43646 0.83465 0.35734 0.0
C533 C 0.47732 0.85666 0.26585 0.0
C534 C 0.43956 0.85061 0.26837 0.0
C535 C 0.37938 0.82812 0.31585 0.0
C536 C 0.35819 0.81288 0.36055 0.0
C537 C 0.41847 0.83836 0.31366 0.0
C538 C 0.37668 0.8099 0.40369 0.0
C539 C 0.41571 0.82127 0.40233 0.0
H540 H 0.54434 0.87057 0.80742 0.0
H541 H 0.46216 0.74844 0.81884 0.0
H542 H 0.41041 0.75963 0.79065 0.0
H543 H 0.38659 0.80499 0.77958 0.0
H544 H 0.46643 0.92768 0.78208 0.0
H545 H 0.52101 0.91588 0.78634 0.0
C546 C 0.51503 0.84651 0.80367 0.0
C547 C 0.50674 0.80887 0.81635 0.0
C548 C 0.485 0.85342 0.78979 0.0
C549 C 0.46888 0.77779 0.8108 0.0
C550 C 0.43934 0.78416 0.79449 0.0
C551 C 0.4161 0.82903 0.77836 0.0
C552 C 0.42268 0.86708 0.7796 0.0
C553 C 0.44677 0.82195 0.78583 0.0
C554 C 0.46083 0.89817 0.77966 0.0
C555 C 0.49192 0.89136 0.78352 0.0
H556 H 0.30865 0.61839 0.79699 0.0
H557 H 0.18638 0.57647 0.78281 0.0
H558 H 0.19794 0.64217 0.79745 0.0
H559 H 0.24128 0.70831 0.82836 0.0
H560 H 0.36218 0.74754 0.85299 0.0
H561 H 0.35265 0.68558 0.8213 0.0
C562 C 0.2846 0.62384 0.79573 0.0
C563 C 0.24662 0.59256 0.78952 0.0
C564 C 0.29116 0.66083 0.80787 0.0
C565 C 0.21583 0.6 0.78729 0.0
C566 C 0.22241 0.63743 0.79669 0.0
C567 C 0.2656 0.70334 0.82689 0.0
C568 C 0.30244 0.73232 0.84362 0.0
C569 C 0.25965 0.66748 0.80963 0.0
C570 C 0.33369 0.72569 0.84044 0.0
C571 C 0.3282 0.69034 0.82227 0.0
H572 H 0.36734 0.53915 0.78124 0.0
H573 H 0.36105 0.57667 0.93211 0.0
H574 H 0.42761 0.62923 0.92587 0.0
H575 H 0.4838 0.66813 0.87558 0.0
H576 H 0.49229 0.63542 0.72324 0.0
H577 H 0.42829 0.57652 0.73211 0.0
C578 C 0.38084 0.55852 0.81297 0.0
C579 C 0.3592 0.55431 0.85701 0.0
C580 C 0.41909 0.58938 0.8087 0.0
C581 C 0.3769 0.57958 0.89774 0.0
C582 C 0.41494 0.60958 0.89422 0.0
C583 C 0.47212 0.64786 0.84433 0.0
C584 C 0.49256 0.65611 0.79865 0.0
C585 C 0.43571 0.61527 0.84952 0.0
C586 C 0.47709 0.62953 0.75877 0.0
C587 C 0.44048 0.59615 0.76385 0.0
H588 H 0.94251 1.02636 0.61824 0.0
H589 H 0.82073 0.94346 0.616 0.0
H590 H 0.83468 0.89011 0.61717 0.0
H591 H 0.88152 0.86795 0.63426 0.0
H592 H 1.00259 0.95244 0.64945 0.0
H593 H 0.98941 1.00409 0.62696 0.0
C594 C 0.91917 0.99654 0.61579 0.0
C595 C 0.88073 0.98868 0.61597 0.0
C596 C 0.92743 0.96639 0.62071 0.0
C597 C 0.85053 0.95007 0.61437 0.0
C598 C 0.85856 0.91966 0.61621 0.0
C599 C 0.90492 0.89775 0.63251 0.0
C600 C 0.94288 0.90664 0.64433 0.0
C601 C 0.89683 0.92757 0.62204 0.0
C602 C 0.97306 0.94516 0.64172 0.0
C603 C 0.96553 0.97466 0.62881 0.0
H604 H 0.20757 0.04661 0.61513 0.0
H605 H 0.17761 0.04831 0.77098 0.0
H606 H 0.12917 0.9796 0.76594 0.0
H607 H 0.09048 0.92257 0.7153 0.0
H608 H 0.1135 0.92095 0.55708 0.0
H609 H 0.17063 0.98625 0.56494 0.0
C610 C 0.19076 1.03168 0.64811 0.0
C611 C 0.19586 0.05238 0.69338 0.0
C612 C 0.162 0.99247 0.64437 0.0
C613 C 0.17383 0.033 0.73574 0.0
C614 C 0.1463 0.99378 0.73288 0.0
C615 C 0.10861 0.93595 0.6827 0.0
C616 C 0.09808 0.91707 0.63569 0.0
C617 C 0.13951 0.97368 0.68712 0.0
C618 C 0.12142 0.93488 0.59367 0.0
C619 C 0.15365 0.97229 0.59817 0.0
H620 H 1.03696 0.17072 0.65348 0.0
H621 H 0.99738 0.05133 0.69059 0.0
H622 H 0.05902 0.05881 0.66213 0.0
H623 H 0.12569 0.10074 0.63561 0.0
H624 H 0.16832 0.22213 0.60853 0.0
H625 H 0.10315 0.21202 0.62166 0.0
C626 C 1.0418 0.1463 0.65545 0.0
C627 C 1.0127 0.11047 0.67455 0.0
C628 C 0.07754 0.15109 0.63993 0.0
C629 C 1.01925 0.07906 0.67601 0.0
C630 C 0.05443 0.08336 0.65968 0.0
C631 C 0.12059 0.1249 0.6314 0.0
C632 C 0.15193 0.16228 0.6218 0.0
C633 C 0.08392 0.11939 0.64247 0.0
C634 C 0.14477 0.19311 0.61573 0.0
C635 C 0.10764 0.18742 0.62418 0.0
H636 H 0.20899 0.19396 0.14032 0.0
H637 H 0.1353 0.07185 0.16853 0.0
H638 H 0.07884 0.0757 0.1425 0.0
H639 H 0.04973 0.11434 0.12128 0.0
H640 H 0.12027 0.23844 0.10871 0.0
H641 H 0.17883 0.2333 0.11626 0.0
C642 C 0.18051 0.16832 0.1405 0.0
C643 C 0.17607 0.13271 0.15667 0.0
C644 C 0.14779 0.17113 0.12757 0.0
C645 C 0.13921 0.09959 0.15686 0.0
C646 C 0.10701 0.10173 0.14164 0.0
C647 C 0.07796 0.1403 0.11913 0.0
C648 C 0.08063 0.17674 0.11499 0.0
C649 C 0.11089 0.13743 0.12807 0.0
C650 C 0.11737 0.21001 0.11156 0.0
C651 C 0.15082 0.2071 0.11688 0.0
H652 H 0.90483 0.92209 0.20128 0.0
H653 H 0.87501 0.91899 0.04474 0.0
H654 H 0.88385 0.9847 0.05322 0.0
H655 H 0.90783 0.04545 0.10406 0.0
H656 H 0.94217 0.04658 0.25855 0.0
H657 H 0.92355 0.97856 0.25205 0.0
C658 C 0.89944 0.93531 0.16899 0.0
C659 C 0.88936 0.91586 0.12236 0.0
C660 C 0.90592 0.97282 0.17386 0.0
C661 C 0.88254 0.93339 0.08103 0.0
C662 C 0.88798 0.97099 0.0859 0.0
C663 C 0.91072 1.03049 0.13633 0.0
C664 C 0.92669 0.05094 0.18166 0.0
C665 C 0.90089 0.99141 0.13186 0.0
C666 C 0.93048 1.03155 0.22321 0.0
C667 C 0.91971 0.99269 0.21956 0.0
H668 H 0.13352 1.02159 0.10876 0.0
H669 H 0.18616 0.95059 0.12463 0.0
H670 H 0.12181 0.89284 0.13356 0.0
H671 H 0.05124 0.8649 0.15108 0.0
H672 H 1.00332 0.94088 0.15083 0.0
H673 H 0.06516 0.99464 0.1236 0.0
C674 C 0.13092 0.99332 0.11315 0.0
C675 C 0.16454 0.99047 0.11697 0.0
C676 C 0.0946 0.96139 0.12306 0.0
C677 C 0.16075 0.95362 0.12156 0.0
C678 C 0.12398 0.92074 0.1277 0.0
C679 C 0.05456 0.89328 0.14492 0.0
C680 C 1.02305 0.89921 0.15359 0.0
C681 C 0.09086 0.92465 0.13109 0.0
C682 C 1.02741 0.93592 0.14537 0.0
C683 C 0.0626 0.96653 0.12928 0.0
H684 H 0.55518 0.10234 0.33977 0.0
H685 H 0.66697 0.19917 0.3788 0.0
H686 H 0.68471 0.20867 0.28932 0.0
H687 H 0.66629 0.19216 0.20044 0.0
H688 H 0.55355 0.0962 0.16244 0.0
H689 H 0.53811 0.08385 0.25193 0.0
C690 C 0.58358 0.12553 0.32889 0.0
C691 C 0.60962 0.15039 0.36584 0.0
C692 C 0.5931 0.13117 0.27777 0.0
C693 C 0.64649 0.17968 0.35111 0.0
C694 C 0.65644 0.18525 0.3 0.0
C695 C 0.63825 0.16854 0.2116 0.0
C696 C 0.6108 0.14548 0.17465 0.0
C697 C 0.6296 0.16168 0.26303 0.0
C698 C 0.57499 0.1146 0.18995 0.0
C699 C 0.56621 0.1075 0.24109 0.0
H700 H 0.9481 0.42458 0.31294 0.0
H701 H 0.94035 0.52446 0.35867 0.0
H702 H 0.93788 0.54042 0.27026 0.0
H703 H 0.93394 0.52341 0.18043 0.0
H704 H 0.94445 0.42496 0.13518 0.0
H705 H 0.9501 0.41102 0.22332 0.0
C706 C 0.94602 0.44993 0.30351 0.0
C707 C 0.94383 0.47305 0.34201 0.0
C708 C 0.94502 0.45904 0.25291 0.0
C709 C 0.94196 0.50624 0.32949 0.0
C710 C 0.9404 0.51525 0.27907 0.0
C711 C 0.93766 0.49902 0.18996 0.0
C712 C 0.93831 0.47491 0.15162 0.0
C713 C 0.94127 0.49146 0.24055 0.0
C714 C 0.94384 0.44385 0.16417 0.0
C715 C 0.9469 0.4358 0.21447 0.0
H716 H 0.64208 0.5507 0.32603 0.0
H717 H 0.54441 0.44252 0.37339 0.0
H718 H 0.52623 0.42383 0.28537 0.0
H719 H 0.54239 0.43568 0.19546 0.0
H720 H 0.63992 0.54446 0.14889 0.0
H721 H 0.65358 0.56577 0.23639 0.0
C722 C 0.61661 0.52317 0.31704 0.0
C723 C 0.59498 0.49765 0.35581 0.0
C724 C 0.60644 0.51273 0.26668 0.0
C725 C 0.56157 0.46249 0.34395 0.0
C726 C 0.5513 0.45176 0.29374 0.0
C727 C 0.56636 0.46422 0.20448 0.0
C728 C 0.59053 0.48818 0.16593 0.0
C729 C 0.57417 0.47624 0.25485 0.0
C730 C 0.62103 0.52537 0.17793 0.0
C731 C 0.62898 0.53752 0.22795 0.0
H732 H 0.95534 0.54543 0.81219 0.0
H733 H 0.95296 0.44086 0.85958 0.0
H734 H 0.9481 0.42008 0.77172 0.0
H735 H 0.93949 0.42965 0.6823 0.0
H736 H 0.94366 0.53528 0.63549 0.0
H737 H 0.95316 0.55787 0.7226 0.0
C738 C 0.954 0.5182 0.80322 0.0
C739 C 0.9539 0.49437 0.84202 0.0
C740 C 0.95137 0.50663 0.75296 0.0
C741 C 0.95296 0.45957 0.83011 0.0
C742 C 0.95001 0.44764 0.78002 0.0
C743 C 0.94271 0.4577 0.69124 0.0
C744 C 0.94031 0.48053 0.65282 0.0
C745 C 0.94837 0.47059 0.74128 0.0
C746 C 0.94525 0.51713 0.66454 0.0
C747 C 0.95056 0.53001 0.7143 0.0
H748 H 0.65523 0.52487 0.69165 0.0
H749 H 0.54713 0.42469 0.64822 0.0
H750 H 0.52725 0.41252 0.7362 0.0
H751 H 0.54139 0.42876 0.82508 0.0
H752 H 0.6478 0.53009 0.87001 0.0
H753 H 0.66751 0.54382 0.78145 0.0
C754 C 0.62734 0.5004 0.70159 0.0
C755 C 0.60282 0.47545 0.66368 0.0
C756 C 0.61584 0.4939 0.75224 0.0
C757 C 0.56649 0.44425 0.67677 0.0
C758 C 0.55514 0.43724 0.72702 0.0
C759 C 0.56889 0.45393 0.81551 0.0
C760 C 0.5934 0.47816 0.85382 0.0
C761 C 0.57971 0.46165 0.76497 0.0
C762 C 0.62855 0.51107 0.84098 0.0
C763 C 0.63984 0.51876 0.79049 0.0
H764 H 0.61495 0.10311 0.83913 0.0
H765 H 0.58941 0.19316 0.87876 0.0
H766 H 0.57867 0.20076 0.78976 0.0
H767 H 0.58049 0.18453 0.70101 0.0
H768 H 0.60688 0.09507 0.66146 0.0
H769 H 0.61327 0.08444 0.75082 0.0
C770 C 0.60689 0.12438 0.82849 0.0
C771 C 0.60336 0.14786 0.86561 0.0
C772 C 0.60117 0.12879 0.77742 0.0
C773 C 0.59232 0.17476 0.85105 0.0
C774 C 0.58637 0.17922 0.80016 0.0
C775 C 0.58766 0.16265 0.71179 0.0
C776 C 0.5938 0.14099 0.67445 0.0
C777 C 0.5914 0.15685 0.76306 0.0
C778 C 0.60229 0.1123 0.68929 0.0
C779 C 0.60598 0.10627 0.74037 0.0
H780 H 0.31529 0.46867 0.51847 0.0
H781 H 0.21199 0.47006 0.47435 0.0
H782 H 0.19237 0.46435 0.56278 0.0
H783 H 0.20713 0.46391 0.65242 0.0
H784 H 0.30945 0.46082 0.6969 0.0
H785 H 0.32697 0.46206 0.60802 0.0
C786 C 0.2883 0.46744 0.52817 0.0
C787 C 0.26532 0.47033 0.48993 0.0
C788 C 0.27729 0.46413 0.57896 0.0
C789 C 0.23015 0.46795 0.50297 0.0
C790 C 0.21909 0.46491 0.55354 0.0
C791 C 0.23328 0.46343 0.64273 0.0
C792 C 0.25743 0.46303 0.68123 0.0
C793 C 0.24286 0.46382 0.59181 0.0
C794 C 0.2906 0.46139 0.66802 0.0
C795 C 0.30061 0.4622 0.61726 0.0
H796 H 0.62327 0.87114 0.52288 0.0
H797 H 0.62641 0.76902 0.47556 0.0
H798 H 0.62854 0.75222 0.56342 0.0
H799 H 0.62235 0.76303 0.6531 0.0
H800 H 0.6193 0.86527 0.7001 0.0
H801 H 0.62418 0.88561 0.61252 0.0
C802 C 0.62495 0.84548 0.53185 0.0
C803 C 0.62406 0.821 0.4931 0.0
C804 C 0.62558 0.83577 0.58215 0.0
C805 C 0.62697 0.78825 0.50491 0.0
C806 C 0.62785 0.77846 0.55506 0.0
C807 C 0.62282 0.78978 0.64409 0.0
C808 C 0.61965 0.81226 0.6826 0.0
C809 C 0.62588 0.80136 0.59388 0.0
C810 C 0.62133 0.84736 0.67082 0.0
C811 C 0.62412 0.85899 0.62088 0.0
H812 H 0.29119 0.86461 0.67025 0.0
H813 H 0.24722 0.74518 0.71213 0.0
H814 H 0.23087 0.72562 0.62372 0.0
H815 H 0.23179 0.74322 0.53467 0.0
H816 H 0.27787 0.86334 0.49446 0.0
H817 H 0.29049 0.88185 0.58306 0.0
C818 C 0.278 0.83417 0.66042 0.0
C819 C 0.2707 0.80638 0.6979 0.0
C820 C 0.26905 0.82334 0.60997 0.0
C821 C 0.25326 0.76715 0.6841 0.0
C822 C 0.24395 0.75601 0.6336 0.0
C823 C 0.2443 0.77345 0.54523 0.0
C824 C 0.25403 0.80194 0.50782 0.0
C825 C 0.25205 0.78397 0.59621 0.0
C826 C 0.27028 0.8409 0.52232 0.0
C827 C 0.27754 0.8515 0.57296 0.0
H828 H 0.59791 0.76126 0.01993 0.0
H829 H 0.60345 0.86809 0.97611 0.0
H830 H 0.61156 0.88885 0.06409 0.0
H831 H 0.61406 0.87531 0.15323 0.0
H832 H 0.61129 0.76995 0.19759 0.0
H833 H 0.60536 0.74988 0.10915 0.0
C834 C 0.60097 0.78911 0.02972 0.0
C835 C 0.59961 0.81295 0.99185 0.0
C836 C 0.60605 0.80101 0.0802 0.0
C837 C 0.60433 0.84926 0.00472 0.0
C838 C 0.60885 0.86107 0.05494 0.0
C839 C 0.61221 0.84796 0.14351 0.0
C840 C 0.61255 0.82382 0.18163 0.0
C841 C 0.60925 0.83696 0.09293 0.0
C842 C 0.61098 0.78889 0.16868 0.0
C843 C 0.60746 0.7774 0.11827 0.0
H844 H 0.32626 0.85526 0.0353 0.0
H845 H 0.2086 0.78164 0.98568 0.0
H846 H 0.18661 0.77038 0.07318 0.0
H847 H 0.20178 0.77719 0.16343 0.0
H848 H 0.31869 0.85297 0.21372 0.0
H849 H 0.34026 0.86827 0.12599 0.0
C850 C 0.29578 0.83699 0.04379 0.0
C851 C 0.26908 0.81876 0.00443 0.0
C852 C 0.28337 0.83109 0.09402 0.0
C853 C 0.2296 0.79581 0.01551 0.0
C854 C 0.21708 0.78929 0.06544 0.0
C855 C 0.23191 0.7974 0.15503 0.0
C856 C 0.25884 0.81363 0.19446 0.0
C857 C 0.24383 0.80613 0.1049 0.0
C858 C 0.29761 0.84025 0.18365 0.0
C859 C 0.3099 0.84874 0.13365 0.0
H860 H 0.29793 0.45603 0.9953 0.0
H861 H 0.18551 0.44509 0.01133 0.0
H862 H 0.18883 0.44027 0.10269 0.0
H863 H 0.22707 0.44658 0.17909 0.0
H864 H 0.34105 0.46088 0.16136 0.0
H865 H 0.33362 0.45691 0.07071 0.0
C866 C 0.27378 0.45154 0.01873 0.0
C867 C 0.24161 0.45093 -0.00335 0.0
C868 C 0.27643 0.45018 0.07143 0.0
C869 C 0.21071 0.44572 0.02758 0.0
C870 C 0.21266 0.4432 0.07988 0.0
C871 C 0.25006 0.44845 0.15537 0.0
C872 C 0.28474 0.45471 0.17738 0.0
C873 C 0.24595 0.44667 0.10247 0.0
C874 C 0.31418 0.45679 0.14582 0.0
C875 C 0.31001 0.45436 0.09367 0.0
H876 H 0.9802 0.8059 0.84444 0.0
H877 H 0.87507 0.80359 0.80023 0.0
H878 H 0.85375 0.79381 0.88824 0.0
H879 H 0.86754 0.79115 0.97778 0.0
H880 H 0.97238 0.79286 0.02204 0.0
H881 H 0.99125 0.7973 0.93335 0.0
C882 C 0.95247 0.80305 0.85398 0.0
C883 C 0.92945 0.80609 0.81591 0.0
C884 C 0.94054 0.79748 0.90447 0.0
C885 C 0.89332 0.80151 0.82874 0.0
C886 C 0.88127 0.79609 0.87907 0.0
C887 C 0.89447 0.79227 0.96811 0.0
C888 C 0.91888 0.79228 0.00659 0.0
C889 C 0.90503 0.79486 0.91726 0.0
C890 C 0.9532 0.79293 0.99326 0.0
C891 C 0.96402 0.79564 0.9426 0.0
H892 H 0.29687 0.12197 0.83121 0.0
H893 H 0.29172 0.22695 0.84719 0.0
H894 H 0.29609 0.22418 0.93865 0.0
H895 H 0.29349 0.18744 0.01493 0.0
H896 H 0.29552 0.08073 -0.00291 0.0
H897 H 0.30043 0.08883 0.90654 0.0
C898 C 0.29769 0.14472 0.85466 0.0
C899 C 0.29373 0.17439 0.83252 0.0
C900 C 0.29894 0.14232 0.90735 0.0
C901 C 0.29446 0.20355 0.86347 0.0
C902 C 0.29678 0.20193 0.91583 0.0
C903 C 0.29547 0.1663 0.99118 0.0
C904 C 0.29329 0.13321 0.01291 0.0
C905 C 0.29769 0.1707 0.93839 0.0
C906 C 0.2962 0.10615 0.98151 0.0
C907 C 0.29921 0.11074 0.9295 0.0
H908 H 0.88689 0.09168 0.85955 0.0
H909 H 0.96705 0.20843 0.81287 0.0
H910 H 0.97862 0.22965 0.90111 0.0
H911 H 0.97069 0.21315 0.99123 0.0
H912 H 0.88862 0.09698 0.0378 0.0
H913 H 0.87248 0.07714 0.94952 0.0
C914 C 0.90654 0.12187 0.86883 0.0
C915 C 0.92662 0.14846 0.83021 0.0
C916 C 0.91274 0.13373 0.91933 0.0
C917 C 0.95142 0.18758 0.8422 0.0
C918 C 0.95815 0.19959 0.89253 0.0
C919 C 0.94897 0.18361 0.98188 0.0
C920 C 0.93124 0.15626 0.02047 0.0
C921 C 0.93975 0.17267 0.93134 0.0
C922 C 0.9026 0.11832 0.00844 0.0
C923 C 0.89358 0.10702 0.95811 0.0
H924 H 0.27999 0.09612 0.35396 0.0
H925 H 0.28283 0.20199 0.31174 0.0
H926 H 0.28926 0.2213 0.40038 0.0
H927 H 0.28802 0.20529 0.4895 0.0
H928 H 0.28574 0.1 0.53274 0.0
H929 H 0.28557 0.08327 0.44349 0.0
C930 C 0.28233 0.1236 0.36411 0.0
C931 C 0.28029 0.14736 0.32633 0.0
C932 C 0.28588 0.13438 0.4151 0.0
C933 C 0.28415 0.18316 0.33998 0.0
C934 C 0.28764 0.19409 0.39067 0.0
C935 C 0.28764 0.17869 0.47944 0.0
C936 C 0.28602 0.15338 0.51752 0.0
C937 C 0.28753 0.16946 0.42846 0.0
C938 C 0.28669 0.11969 0.50404 0.0
C939 C 0.28643 0.11013 0.45311 0.0
H940 H 0.99893 0.1783 0.36156 0.0
H941 H 0.87878 0.12945 0.31987 0.0
H942 H 0.86018 0.11636 0.40827 0.0
H943 H 0.87755 0.11621 0.49591 0.0
H944 H 0.99725 0.1635 0.53865 0.0
H945 H 1.01657 0.17981 0.4505 0.0
C946 C 0.96864 0.16503 0.3717 0.0
C947 C 0.94022 0.15467 0.33396 0.0
C948 C 0.95812 0.15708 0.4225 0.0
C949 C 0.9012 0.13755 0.34799 0.0
C950 C 0.89055 0.12999 0.39852 0.0
C951 C 0.90797 0.13007 0.48625 0.0
C952 C 0.93594 0.13836 0.52393 0.0
C953 C 0.91872 0.13915 0.43586 0.0
C954 C 0.97515 0.15668 0.51044 0.0
C955 C 0.98616 0.166 0.46009 0.0
H956 H 0.97137 0.7989 0.32205 0.0
H957 H 0.86332 0.79805 0.33479 0.0
H958 H 0.864 0.79143 0.4259 0.0
H959 H 0.89848 0.79224 0.50352 0.0
H960 H 1.00777 0.79538 0.49012 0.0
H961 H 1.00319 0.79449 0.39903 0.0
C962 C 0.94767 0.79649 0.34473 0.0
C963 C 0.9176 0.7993 0.32164 0.0
C964 C 0.94862 0.7936 0.39757 0.0
C965 C 0.88714 0.79639 0.35169 0.0
C966 C 0.88746 0.79266 0.40392 0.0
C967 C 0.92098 0.79224 0.48063 0.0
C968 C 0.9536 0.79449 0.50398 0.0
C969 C 0.91859 0.79229 0.42757 0.0
C970 C 0.98251 0.79436 0.47348 0.0
C971 C 0.97998 0.79373 0.42109 0.0
H972 H 0.4259 0.92601 0.9781 0.0
H973 H 0.42935 0.98979 0.84524 0.0
H974 H 0.49776 0.03502 0.85969 0.0
H975 H 0.55623 0.05886 0.91115 0.0
H976 H 0.55304 1.00123 0.04909 0.0
H977 H 0.48616 0.95047 0.03032 0.0
C978 C 0.44136 0.95009 0.95259 0.0
C979 C 0.42146 0.95427 0.91069 0.0
C980 C 0.48145 0.97653 0.96115 0.0
C981 C 0.44292 0.98564 0.87806 0.0
C982 C 0.48247 1.01145 0.88599 0.0
C983 C 0.54153 0.03432 0.93623 0.0
C984 C 0.56077 0.03341 0.98068 0.0
C985 C 0.50209 1.00716 0.92718 0.0
C986 C 0.54015 1.00213 0.01363 0.0
C987 C 0.50132 0.97361 0.00344 0.0
H988 H 1.02106 0.48636 0.98091 0.0
H989 H 0.08193 0.60641 0.9364 0.0
H990 H 0.13253 0.59668 0.89751 0.0
H991 H 0.15994 0.55389 0.87788 0.0
H992 H 0.09445 0.43251 0.9147 0.0
H993 H 1.04457 0.44276 0.95404 0.0
C994 C 1.04535 0.5107 0.96283 0.0
C995 C 0.04775 0.54753 0.96264 0.0
C996 C 0.07326 0.50437 0.93869 0.0
C997 C 0.07928 0.57803 0.93782 0.0
C998 C 0.10816 0.57233 0.91542 0.0
C999 C 0.13451 0.52954 0.89408 0.0
C1000 C 0.13112 0.4923 0.89348 0.0
C1001 C 0.10551 0.53562 0.91576 0.0
C1002 C 0.09781 0.4612 0.91426 0.0
C1003 C 0.06944 0.46722 0.93711 0.0
H1004 H 0.52236 0.62624 0.88538 0.0
H1005 H 0.64344 0.6846 0.92419 0.0
H1006 H 0.63511 0.62395 0.95915 0.0
H1007 H 0.59341 0.55552 0.9812 0.0
H1008 H 0.47338 0.49457 0.93657 0.0
H1009 H 0.4813 0.55528 0.90116 0.0
C1010 C 0.54703 0.62585 0.90146 0.0
C1011 C 0.58359 0.66061 0.90266 0.0
C1012 C 0.54208 0.59039 0.92044 0.0
C1013 C 0.61514 0.65882 0.92278 0.0
C1014 C 0.61025 0.62402 0.94289 0.0
C1015 C 0.5687 0.55507 0.96357 0.0
C1016 C 0.53244 0.51995 0.96234 0.0
C1017 C 0.57384 0.58978 0.94232 0.0
C1018 C 0.50142 0.52064 0.93844 0.0
C1019 C 0.50605 0.55554 0.91829 0.0
H1020 H 1.0133 0.54921 0.47844 0.0
H1021 H 0.07366 0.48939 0.43366 0.0
H1022 H 0.12559 0.55015 0.39753 0.0
H1023 H 0.15452 0.62085 0.3816 0.0
H1024 H 0.09051 0.67808 0.42057 0.0
H1025 H 1.03866 0.61716 0.45551 0.0
C1026 C 1.03776 0.54909 0.46087 0.0
C1027 C 1.03967 0.51441 0.45984 0.0
C1028 C 0.06663 0.58369 0.43891 0.0
C1029 C 0.07138 0.51531 0.43564 0.0
C1030 C 0.10104 0.55015 0.41494 0.0
C1031 C 0.12906 0.61999 0.39743 0.0
C1032 C 0.12666 0.65439 0.39886 0.0
C1033 C 0.09909 0.58458 0.41674 0.0
C1034 C 0.0932 0.65237 0.41882 0.0
C1035 C 0.06369 0.61752 0.43908 0.0
H1036 H 0.52234 0.48743 0.51262 0.0
H1037 H 0.58408 0.6009 0.44524 0.0
H1038 H 0.52398 0.58909 0.40408 0.0
H1039 H 0.45438 0.54618 0.38654 0.0
H1040 H 0.3938 0.43131 0.44893 0.0
H1041 H 0.45362 0.44354 0.49164 0.0
C1042 C 0.52289 0.51004 0.48948 0.0
C1043 C 0.55817 0.54568 0.48316 0.0
C1044 C 0.48855 0.50233 0.46428 0.0
C1045 C 0.55775 0.57367 0.45164 0.0
C1046 C 0.52333 0.5667 0.42778 0.0
C1047 C 0.45408 0.52375 0.40955 0.0
C1048 C 0.41917 0.48788 0.41482 0.0
C1049 C 0.48865 0.53109 0.43367 0.0
C1050 C 0.41993 0.45897 0.4439 0.0
C1051 C 0.45416 0.4662 0.46865 0.0
H1052 H 0.54302 0.91511 0.45147 0.0
H1053 H 0.63454 0.99214 0.35161 0.0
H1054 H 0.61878 0.04298 0.36913 0.0
H1055 H 0.58108 0.06666 0.41433 0.0
H1056 H 0.49418 0.9936 0.52131 0.0
H1057 H 0.50458 0.93957 0.49753 0.0
C1058 C 0.55991 0.94313 0.43375 0.0
C1059 C 0.59058 0.94949 0.40036 0.0
C1060 C 0.55063 0.97262 0.44425 0.0
C1061 C 0.61146 0.98614 0.37785 0.0
C1062 C 0.60206 1.0152 0.3875 0.0
C1063 C 0.56348 0.0386 0.4317 0.0
C1064 C 0.53598 0.03435 0.46895 0.0
C1065 C 0.57175 1.00877 0.42048 0.0
C1066 C 0.51445 0.99781 0.49155 0.0
C1067 C 0.52118 0.96712 0.47865 0.0
H1068 H 0.19669 0.39423 0.31164 0.0
H1069 H 0.25237 0.32748 0.28005 0.0
H1070 H 0.19174 0.27629 0.24217 0.0
H1071 H 0.12215 0.24983 0.22073 0.0
H1072 H 0.06912 0.31972 0.24722 0.0
H1073 H 0.1299 0.37074 0.28399 0.0
C1074 C 0.1959 0.3685 0.29665 0.0
C1075 C 0.22942 0.36467 0.29985 0.0
C1076 C 0.16132 0.33984 0.27385 0.0
C1077 C 0.22739 0.33133 0.27878 0.0
C1078 C 0.19259 0.30205 0.2571 0.0
C1079 C 0.12382 0.27629 0.23443 0.0
C1080 C 0.09052 0.28055 0.23167 0.0
C1081 C 0.15925 0.30585 0.25485 0.0
C1082 C 0.09384 0.31544 0.24876 0.0
C1083 C 0.12865 0.34455 0.27003 0.0
H1084 H 0.68937 0.82108 0.31255 0.0
H1085 H 0.74689 0.93822 0.2564 0.0
H1086 H 0.79583 0.92658 0.21602 0.0
H1087 H 0.82308 0.88341 0.19943 0.0
H1088 H 0.76225 0.7652 0.25106 0.0
H1089 H 0.71299 0.77679 0.28978 0.0
C1090 C 0.71253 0.84439 0.29151 0.0
C1091 C 0.7145 0.88102 0.2885 0.0
C1092 C 0.73971 0.83701 0.26732 0.0
C1093 C 0.74452 0.91006 0.25992 0.0
C1094 C 0.77249 0.90327 0.2368 0.0
C1095 C 0.79896 0.86002 0.21894 0.0
C1096 C 0.79677 0.82337 0.22267 0.0
C1097 C 0.77052 0.86693 0.24063 0.0
C1098 C 0.7648 0.79343 0.24736 0.0
C1099 C 0.73678 0.80025 0.26979 0.0
H1100 H 0.2598 0.88579 0.33143 0.0
H1101 H 0.14324 0.82715 0.27316 0.0
H1102 H 0.15497 0.88816 0.23458 0.0
H1103 H 0.19803 0.95848 0.21935 0.0
H1104 H 0.3165 1.01497 0.27 0.0
H1105 H 0.30447 0.95411 0.30921 0.0
C1106 C 0.23666 0.88608 0.31048 0.0
C1107 C 0.2001 0.85151 0.30633 0.0
C1108 C 0.24422 0.9209 0.28672 0.0
C1109 C 0.17126 0.85293 0.27774 0.0
C1110 C 0.17812 0.88792 0.25554 0.0
C1111 C 0.22149 0.9575 0.23845 0.0
C1112 C 0.25832 0.99173 0.24173 0.0
C1113 C 0.21445 0.9221 0.25995 0.0
C1114 C 0.28814 0.98946 0.26652 0.0
C1115 C 0.28107 0.9546 0.28924 0.0
H1116 H 0.78738 0.96168 0.68729 0.0
H1117 H 0.79286 1.02388 0.82293 0.0
H1118 H 0.75195 0.96257 0.86629 0.0
H1119 H 0.71497 0.89121 0.86654 0.0
H1120 H 0.71046 0.82795 0.73213 0.0
H1121 H 0.75141 0.88919 0.68842 0.0
C1122 C 0.77883 0.96182 0.72598 0.0
C1123 C 0.79232 0.9978 0.7512 0.0
C1124 C 0.75632 0.92602 0.75152 0.0
C1125 C 0.78219 0.99702 0.80207 0.0
C1126 C 0.75914 0.96181 0.82712 0.0
C1127 C 0.72338 0.89055 0.82789 0.0
C1128 C 0.70949 0.85427 0.80326 0.0
C1129 C 0.74633 0.92609 0.80248 0.0
C1130 C 0.72089 0.85482 0.75286 0.0
C1131 C 0.74395 0.89009 0.72744 0.0
H1132 H 0.1019 0.87542 0.78679 0.0
H1133 H 0.08188 0.77792 0.69376 0.0
H1134 H 0.1477 0.79181 0.71041 0.0
H1135 H 0.21019 0.83017 0.75138 0.0
H1136 H 0.22978 0.92226 0.85406 0.0
H1137 H 0.16589 0.91357 0.83126 0.0
C1138 C 0.11167 0.85677 0.77069 0.0
C1139 C 0.08611 0.82509 0.73922 0.0
C1140 C 0.15001 0.86484 0.78087 0.0
C1141 C 0.09998 0.80183 0.7186 0.0
C1142 C 0.138 0.81016 0.72762 0.0
C1143 C 0.20097 0.84899 0.7685 0.0
C1144 C 0.22556 0.87737 0.80415 0.0
C1145 C 0.16322 0.84159 0.75838 0.0
C1146 C 0.21247 0.90099 0.82573 0.0
C1147 C 0.1754 0.89529 0.81341 0.0
H1148 H 0.19029 0.25307 0.70025 0.0
H1149 H 0.3093 0.31571 0.74871 0.0
H1150 H 0.29845 0.36578 0.7864 0.0
H1151 H 0.25473 0.38959 0.80978 0.0
H1152 H 0.13766 0.33276 0.75343 0.0
H1153 H 0.14798 0.28218 0.71489 0.0
C1154 C 0.21402 0.27801 0.71847 0.0
C1155 C 0.25074 0.28047 0.72177 0.0
C1156 C 0.2077 0.30733 0.73906 0.0
C1157 C 0.28105 0.31309 0.74526 0.0
C1158 C 0.27468 0.34158 0.76714 0.0
C1159 C 0.23126 0.36648 0.78865 0.0
C1160 C 0.19507 0.36516 0.78517 0.0
C1161 C 0.23804 0.33868 0.76492 0.0
C1162 C 0.16561 0.33476 0.75714 0.0
C1163 C 0.17163 0.30582 0.73508 0.0
H1164 H 0.78708 0.58072 0.55922 0.0
H1165 H 0.73109 0.64744 0.58916 0.0
H1166 H 0.79207 0.70054 0.62191 0.0
H1167 H 0.8605 0.72789 0.64316 0.0
H1168 H 0.91942 0.66469 0.60898 0.0
H1169 H 0.8582 0.61056 0.57633 0.0
C1170 C 0.78809 0.60682 0.57313 0.0
C1171 C 0.7538 0.60954 0.57225 0.0
C1172 C 0.82387 0.63791 0.59103 0.0
C1173 C 0.75641 0.64413 0.58946 0.0
C1174 C 0.79144 0.67457 0.60826 0.0
C1175 C 0.86032 0.70227 0.62889 0.0
C1176 C 0.89507 0.70052 0.62969 0.0
C1177 C 0.82524 0.67174 0.60947 0.0
C1178 C 0.89362 0.66716 0.60945 0.0
C1179 C 0.8584 0.6361 0.59085 0.0
H1180 H 0.39307 0.19641 0.69127 0.0
H1181 H 0.37363 0.23216 0.54639 0.0
H1182 H 0.41283 0.20759 0.50649 0.0
H1183 H 0.45155 0.17353 0.51273 0.0
H1184 H 0.46778 0.13691 0.65878 0.0
H1185 H 0.42975 0.16261 0.69746 0.0
C1186 C 0.39762 0.19946 0.65091 0.0
C1187 C 0.38026 0.21681 0.62236 0.0
C1188 C 0.41877 0.18372 0.62799 0.0
C1189 C 0.38686 0.21987 0.56996 0.0
C1190 C 0.40886 0.2051 0.54693 0.0
C1191 C 0.44588 0.17024 0.55283 0.0
C1192 C 0.46201 0.15216 0.58252 0.0
C1193 C 0.42443 0.18623 0.57542 0.0
C1194 C 0.45529 0.14969 0.63472 0.0
C1195 C 0.43388 0.16494 0.65703 0.0
H1196 H 0.86484 0.30684 0.61057 0.0
H1197 H 0.95635 0.32356 0.50891 0.0
H1198 H 0.94293 0.25785 0.5261 0.0
H1199 H 0.90744 0.19672 0.57131 0.0
H1200 H 0.82157 0.18085 0.68149 0.0
H1201 H 0.82897 0.24405 0.65776 0.0
C1202 C 0.88217 0.29632 0.59246 0.0
C1203 C 0.91212 0.32095 0.55858 0.0
C1204 C 0.87446 0.2581 0.60305 0.0
C1205 C 0.93376 0.30615 0.53554 0.0
C1206 C 0.92573 0.26821 0.54498 0.0
C1207 C 0.88952 0.20653 0.58959 0.0
C1208 C 0.86327 0.18319 0.62771 0.0
C1209 C 0.89623 0.24399 0.57853 0.0
C1210 C 0.84103 0.19712 0.65118 0.0
C1211 C 0.84603 0.23383 0.63826 0.0
H1212 H 0.35185 0.21801 0.14317 0.0
H1213 H 0.42112 0.16446 0.11616 0.0
H1214 H 0.47257 0.226 0.08098 0.0
H1215 H 0.49876 0.29612 0.06086 0.0
H1216 H 0.42609 0.34664 0.08152 0.0
H1217 H 0.37492 0.285 0.11571 0.0
C1218 C 0.37808 0.21937 0.12949 0.0
C1219 C 0.38239 0.18604 0.13329 0.0
C1220 C 0.40699 0.25455 0.10808 0.0
C1221 C 0.41665 0.18907 0.11426 0.0
C1222 C 0.44616 0.22448 0.09417 0.0
C1223 C 0.47163 0.29369 0.07262 0.0
C1224 C 0.46673 0.32669 0.06898 0.0
C1225 C 0.44183 0.25758 0.09134 0.0
C1226 C 0.43099 0.3223 0.08372 0.0
C1227 C 0.40173 0.28692 0.10352 0.0
H1228 H 0.86048 0.18817 0.20075 0.0
H1229 H 0.91981 0.23614 0.06082 0.0
H1230 H 0.85742 0.21402 0.01881 0.0
H1231 H 0.78485 0.17862 0.02111 0.0
H1232 H 0.72712 0.13206 0.16217 0.0
H1233 H 0.78953 0.15458 0.20354 0.0
C1234 C 0.86009 0.19447 0.16114 0.0
C1235 C 0.89557 0.21442 0.13452 0.0
C1236 C 0.82392 0.18059 0.13682 0.0
C1237 C 0.89361 0.22171 0.083 0.0
C1238 C 0.85766 0.20838 0.05864 0.0
C1239 C 0.78592 0.17259 0.06064 0.0
C1240 C 0.75081 0.15238 0.08805 0.0
C1241 C 0.82246 0.18709 0.0849 0.0
C1242 C 0.75321 0.14641 0.13974 0.0
C1243 C 0.78908 0.15983 0.16362 0.0
H1244 H 0.85646 0.58006 0.04768 0.0
H1245 H 0.97693 0.64397 0.08942 0.0
H1246 H 0.9673 0.69535 0.12544 0.0
H1247 H 0.92484 0.72173 0.1461 0.0
H1248 H 0.80576 0.66172 0.09749 0.0
H1249 H 0.81461 0.6091 0.06313 0.0
C1250 C 0.88069 0.60515 0.06476 0.0
C1251 C 0.91748 0.6076 0.06634 0.0
C1252 C 0.87505 0.63523 0.08422 0.0
C1253 C 0.94846 0.64097 0.08772 0.0
C1254 C 0.94284 0.67036 0.10843 0.0
C1255 C 0.90051 0.69713 0.12819 0.0
C1256 C 0.86422 0.69571 0.12543 0.0
C1257 C 0.90627 0.66772 0.10715 0.0
C1258 C 0.83375 0.66377 0.10077 0.0
C1259 C 0.83893 0.63364 0.08109 0.0
loop_
_geom_bond_atom_site_label_1
_geom_bond_atom_site_label_2
_geom_bond_distance
_geom_bond_site_symmetry_2
_ccdc_geom_bond_type
Fe0 O2 1.918 1_556 S
Fe0 O5 1.997 . S
Fe0 O6 2.002 . S
Fe0 O11 1.976 . S
Fe0 O14 1.996 1_556 S
Fe1 O2 1.918 . S
Fe1 O9 1.997 1_554 S
Fe1 O12 1.996 1_554 S
Fe1 O16 1.976 . S
Fe1 O19 2.002 . S
O2 Fe0 1.918 1_554 S
O2 Fe1 1.918 . S
O2 Fe3 1.918 . S
Fe3 O2 1.918 . S
Fe3 O4 2.002 . S
Fe3 O13 1.976 . S
Fe3 O17 1.996 . S
Fe3 O20 1.997 . S
O4 Fe3 2.002 . S
O4 C21 1.295 1_554 S
O5 Fe0 1.997 . S
O5 C21 1.235 . S
O6 Fe0 2.002 . S
O6 C7 1.295 . S
C7 O6 1.295 . S
C7 O9 1.235 . S
C8 O13 1.287 . S
C8 O14 1.255 . S
O9 Fe1 1.997 1_556 S
O9 C7 1.235 . S
C10 O16 1.287 . S
C10 O17 1.255 . S
O11 Fe0 1.976 . S
O11 C18 1.287 . S
O12 Fe1 1.996 1_556 S
O12 C18 1.255 . S
O13 Fe3 1.976 . S
O13 C8 1.287 . S
O14 Fe0 1.996 1_554 S
O14 C8 1.255 . S
C15 O19 1.295 . S
C15 O20 1.235 . S
O16 Fe1 1.976 . S
O16 C10 1.287 . S
O17 Fe3 1.996 . S
O17 C10 1.255 . S
C18 O11 1.287 . S
C18 O12 1.255 . S
O19 Fe1 2.002 . S
O19 C15 1.295 . S
O20 Fe3 1.997 . S
O20 C15 1.235 . S
C21 O4 1.295 1_556 S
C21 O5 1.235 . S
Fe22 O24 1.918 1_556 S
Fe22 O27 1.997 . S
Fe22 O28 2.002 . S
Fe22 O33 1.976 . S
Fe22 O36 1.996 1_556 S
Fe23 O24 1.918 . S
Fe23 O31 1.997 1_554 S
Fe23 O34 1.996 1_554 S
Fe23 O38 1.976 . S
Fe23 O41 2.002 . S
O24 Fe22 1.918 1_554 S
O24 Fe23 1.918 . S
O24 Fe25 1.918 . S
Fe25 O24 1.918 . S
Fe25 O26 2.002 . S
Fe25 O35 1.976 . S
Fe25 O39 1.996 . S
Fe25 O42 1.997 . S
O26 Fe25 2.002 . S
O26 C43 1.295 1_554 S
O27 Fe22 1.997 . S
O27 C43 1.235 . S
O28 Fe22 2.002 . S
O28 C29 1.295 . S
C29 O28 1.295 . S
C29 O31 1.235 . S
C30 O35 1.287 . S
C30 O36 1.255 . S
O31 Fe23 1.997 1_556 S
O31 C29 1.235 . S
C32 O38 1.287 . S
C32 O39 1.255 . S
O33 Fe22 1.976 . S
O33 C40 1.287 . S
O34 Fe23 1.996 1_556 S
O34 C40 1.255 . S
O35 Fe25 1.976 . S
O35 C30 1.287 . S
O36 Fe22 1.996 1_554 S
O36 C30 1.255 . S
C37 O41 1.295 . S
C37 O42 1.235 . S
O38 Fe23 1.976 . S
O38 C32 1.287 . S
O39 Fe25 1.996 . S
O39 C32 1.255 . S
C40 O33 1.287 . S
C40 O34 1.255 . S
O41 Fe23 2.002 . S
O41 C37 1.295 . S
O42 Fe25 1.997 . S
O42 C37 1.235 . S
C43 O26 1.295 1_556 S
C43 O27 1.235 . S
Fe44 O46 1.918 1_556 S
Fe44 O49 1.997 . S
Fe44 O50 2.002 . S
Fe44 O55 1.976 . S
Fe44 O58 1.996 1_556 S
Fe45 O46 1.918 . S
Fe45 O53 1.997 1_554 S
Fe45 O56 1.996 1_554 S
Fe45 O60 1.976 . S
Fe45 O63 2.002 . S
O46 Fe44 1.918 1_554 S
O46 Fe45 1.918 . S
O46 Fe47 1.918 . S
Fe47 O46 1.918 . S
Fe47 O48 2.002 . S
Fe47 O57 1.976 . S
Fe47 O61 1.996 . S
Fe47 O64 1.997 . S
O48 Fe47 2.002 . S
O48 C65 1.295 1_554 S
O49 Fe44 1.997 . S
O49 C65 1.235 . S
O50 Fe44 2.002 . S
O50 C51 1.295 . S
C51 O50 1.295 . S
C51 O53 1.235 . S
C52 O57 1.287 . S
C52 O58 1.255 . S
O53 Fe45 1.997 1_556 S
O53 C51 1.235 . S
C54 O60 1.287 . S
C54 O61 1.255 . S
O55 Fe44 1.976 . S
O55 C62 1.287 . S
O56 Fe45 1.996 1_556 S
O56 C62 1.255 . S
O57 Fe47 1.976 . S
O57 C52 1.287 . S
O58 Fe44 1.996 1_554 S
O58 C52 1.255 . S
C59 O63 1.295 . S
C59 O64 1.235 . S
O60 Fe45 1.976 . S
O60 C54 1.287 . S
O61 Fe47 1.996 . S
O61 C54 1.255 . S
C62 O55 1.287 . S
C62 O56 1.255 . S
O63 Fe45 2.002 . S
O63 C59 1.295 . S
O64 Fe47 1.997 . S
O64 C59 1.235 . S
C65 O48 1.295 1_556 S
C65 O49 1.235 . S
Fe66 O68 1.918 . S
Fe66 O71 1.997 . S
Fe66 O72 2.002 . S
Fe66 O77 1.976 . S
Fe66 O80 1.996 . S
Fe67 O68 1.918 . S
Fe67 O75 1.997 . S
Fe67 O78 1.996 . S
Fe67 O82 1.976 . S
Fe67 O85 2.002 . S
O68 Fe66 1.918 . S
O68 Fe67 1.918 . S
O68 Fe69 1.918 . S
Fe69 O68 1.918 . S
Fe69 O70 2.002 . S
Fe69 O79 1.976 . S
Fe69 O83 1.996 . S
Fe69 O86 1.997 . S
O70 Fe69 2.002 . S
O70 C87 1.295 . S
O71 Fe66 1.997 . S
O71 C87 1.235 . S
O72 Fe66 2.002 . S
O72 C73 1.295 . S
C73 O72 1.295 . S
C73 O75 1.235 . S
C74 O79 1.287 . S
C74 O80 1.255 . S
O75 Fe67 1.997 . S
O75 C73 1.235 . S
C76 O82 1.287 . S
C76 O83 1.255 . S
O77 Fe66 1.976 . S
O77 C84 1.287 . S
O78 Fe67 1.996 . S
O78 C84 1.255 . S
O79 Fe69 1.976 . S
O79 C74 1.287 . S
O80 Fe66 1.996 . S
O80 C74 1.255 . S
C81 O85 1.295 . S
C81 O86 1.235 . S
O82 Fe67 1.976 . S
O82 C76 1.287 . S
O83 Fe69 1.996 . S
O83 C76 1.255 . S
C84 O77 1.287 . S
C84 O78 1.255 . S
O85 Fe67 2.002 . S
O85 C81 1.295 . S
O86 Fe69 1.997 . S
O86 C81 1.235 . S
C87 O70 1.295 . S
C87 O71 1.235 . S
Fe88 O90 1.918 . S
Fe88 O93 1.997 . S
Fe88 O94 2.002 . S
Fe88 O99 1.976 . S
Fe88 O102 1.996 . S
Fe89 O90 1.918 . S
Fe89 O97 1.997 . S
Fe89 O100 1.996 . S
Fe89 O104 1.976 . S
Fe89 O107 2.002 . S
O90 Fe88 1.918 . S
O90 Fe89 1.918 . S
O90 Fe91 1.918 . S
Fe91 O90 1.918 . S
Fe91 O92 2.002 . S
Fe91 O101 1.976 . S
Fe91 O105 1.996 . S
Fe91 O108 1.997 . S
O92 Fe91 2.002 . S
O92 C109 1.295 . S
O93 Fe88 1.997 . S
O93 C109 1.235 . S
O94 Fe88 2.002 . S
O94 C95 1.295 . S
C95 O94 1.295 . S
C95 O97 1.235 . S
C96 O101 1.287 . S
C96 O102 1.255 . S
O97 Fe89 1.997 . S
O97 C95 1.235 . S
C98 O104 1.287 . S
C98 O105 1.255 . S
O99 Fe88 1.976 . S
O99 C106 1.287 . S
O100 Fe89 1.996 . S
O100 C106 1.255 . S
O101 Fe91 1.976 . S
O101 C96 1.287 . S
O102 Fe88 1.996 . S
O102 C96 1.255 . S
C103 O107 1.295 . S
C103 O108 1.235 . S
O104 Fe89 1.976 . S
O104 C98 1.287 . S
O105 Fe91 1.996 . S
O105 C98 1.255 . S
C106 O99 1.287 . S
C106 O100 1.255 . S
O107 Fe89 2.002 . S
O107 C103 1.295 . S
O108 Fe91 1.997 . S
O108 C103 1.235 . S
C109 O92 1.295 . S
C109 O93 1.235 . S
Fe110 O112 1.918 . S
Fe110 O115 1.997 . S
Fe110 O116 2.002 . S
Fe110 O121 1.976 . S
Fe110 O124 1.996 . S
Fe111 O112 1.918 . S
Fe111 O119 1.997 . S
Fe111 O122 1.996 . S
Fe111 O126 1.976 . S
Fe111 O129 2.002 . S
O112 Fe110 1.918 . S
O112 Fe111 1.918 . S
O112 Fe113 1.918 . S
Fe113 O112 1.918 . S
Fe113 O114 2.002 . S
Fe113 O123 1.976 . S
Fe113 O127 1.996 . S
Fe113 O130 1.997 . S
O114 Fe113 2.002 . S
O114 C131 1.295 . S
O115 Fe110 1.997 . S
O115 C131 1.235 . S
O116 Fe110 2.002 . S
O116 C117 1.295 . S
C117 O116 1.295 . S
C117 O119 1.235 . S
C118 O123 1.287 . S
C118 O124 1.255 . S
O119 Fe111 1.997 . S
O119 C117 1.235 . S
C120 O126 1.287 . S
C120 O127 1.255 . S
O121 Fe110 1.976 . S
O121 C128 1.287 . S
O122 Fe111 1.996 . S
O122 C128 1.255 . S
O123 Fe113 1.976 . S
O123 C118 1.287 . S
O124 Fe110 1.996 . S
O124 C118 1.255 . S
C125 O129 1.295 . S
C125 O130 1.235 . S
O126 Fe111 1.976 . S
O126 C120 1.287 . S
O127 Fe113 1.996 . S
O127 C120 1.255 . S
C128 O121 1.287 . S
C128 O122 1.255 . S
O129 Fe111 2.002 . S
O129 C125 1.295 . S
O130 Fe113 1.997 . S
O130 C125 1.235 . S
C131 O114 1.295 . S
C131 O115 1.235 . S
Fe132 O134 1.918 . S
Fe132 O137 1.997 . S
Fe132 O138 2.002 . S
Fe132 O143 1.976 . S
Fe132 O146 1.996 . S
Fe133 O134 1.918 . S
Fe133 O141 1.997 . S
Fe133 O144 1.996 . S
Fe133 O148 1.976 . S
Fe133 O151 2.002 . S
O134 Fe132 1.918 . S
O134 Fe133 1.918 . S
O134 Fe135 1.918 . S
Fe135 O134 1.918 . S
Fe135 O136 2.002 . S
Fe135 O145 1.976 . S
Fe135 O149 1.996 . S
Fe135 O152 1.997 . S
O136 Fe135 2.002 . S
O136 C153 1.295 . S
O137 Fe132 1.997 . S
O137 C153 1.235 . S
O138 Fe132 2.002 . S
O138 C139 1.295 . S
C139 O138 1.295 . S
C139 O141 1.235 . S
C140 O145 1.287 . S
C140 O146 1.255 . S
O141 Fe133 1.997 . S
O141 C139 1.235 . S
C142 O148 1.287 . S
C142 O149 1.255 . S
O143 Fe132 1.976 . S
O143 C150 1.287 . S
O144 Fe133 1.996 . S
O144 C150 1.255 . S
O145 Fe135 1.976 . S
O145 C140 1.287 . S
O146 Fe132 1.996 . S
O146 C140 1.255 . S
C147 O151 1.295 . S
C147 O152 1.235 . S
O148 Fe133 1.976 . S
O148 C142 1.287 . S
O149 Fe135 1.996 . S
O149 C142 1.255 . S
C150 O143 1.287 . S
C150 O144 1.255 . S
O151 Fe133 2.002 . S
O151 C147 1.295 . S
O152 Fe135 1.997 . S
O152 C147 1.235 . S
C153 O136 1.295 . S
C153 O137 1.235 . S
Fe154 O156 1.918 . S
Fe154 O159 1.997 . S
Fe154 O160 2.002 . S
Fe154 O165 1.976 . S
Fe154 O168 1.996 . S
Fe155 O156 1.918 . S
Fe155 O163 1.997 . S
Fe155 O166 1.996 . S
Fe155 O170 1.976 . S
Fe155 O173 2.002 . S
O156 Fe154 1.918 . S
O156 Fe155 1.918 . S
O156 Fe157 1.918 . S
Fe157 O156 1.918 . S
Fe157 O158 2.002 . S
Fe157 O167 1.976 . S
Fe157 O171 1.996 . S
Fe157 O174 1.997 . S
O158 Fe157 2.002 . S
O158 C175 1.295 . S
O159 Fe154 1.997 . S
O159 C175 1.235 . S
O160 Fe154 2.002 . S
O160 C161 1.295 . S
C161 O160 1.295 . S
C161 O163 1.235 . S
C162 O167 1.287 . S
C162 O168 1.255 . S
O163 Fe155 1.997 . S
O163 C161 1.235 . S
C164 O170 1.287 . S
C164 O171 1.255 . S
O165 Fe154 1.976 . S
O165 C172 1.287 . S
O166 Fe155 1.996 . S
O166 C172 1.255 . S
O167 Fe157 1.976 . S
O167 C162 1.287 . S
O168 Fe154 1.996 . S
O168 C162 1.255 . S
C169 O173 1.295 . S
C169 O174 1.235 . S
O170 Fe155 1.976 . S
O170 C164 1.287 . S
O171 Fe157 1.996 . S
O171 C164 1.255 . S
C172 O165 1.287 . S
C172 O166 1.255 . S
O173 Fe155 2.002 . S
O173 C169 1.295 . S
O174 Fe157 1.997 . S
O174 C169 1.235 . S
C175 O158 1.295 . S
C175 O159 1.235 . S
Fe176 O178 1.918 . S
Fe176 O181 1.997 . S
Fe176 O182 2.002 . S
Fe176 O187 1.976 . S
Fe176 O190 1.996 . S
Fe177 O178 1.918 . S
Fe177 O185 1.997 . S
Fe177 O188 1.996 . S
Fe177 O192 1.976 . S
Fe177 O195 2.002 . S
O178 Fe176 1.918 . S
O178 Fe177 1.918 . S
O178 Fe179 1.918 . S
Fe179 O178 1.918 . S
Fe179 O180 2.002 . S
Fe179 O189 1.976 . S
Fe179 O193 1.996 . S
Fe179 O196 1.997 . S
O180 Fe179 2.002 . S
O180 C197 1.295 . S
O181 Fe176 1.997 . S
O181 C197 1.235 . S
O182 Fe176 2.002 . S
O182 C183 1.295 . S
C183 O182 1.295 . S
C183 O185 1.235 . S
C184 O189 1.287 . S
C184 O190 1.255 . S
O185 Fe177 1.997 . S
O185 C183 1.235 . S
C186 O192 1.287 . S
C186 O193 1.255 . S
O187 Fe176 1.976 . S
O187 C194 1.287 . S
O188 Fe177 1.996 . S
O188 C194 1.255 . S
O189 Fe179 1.976 . S
O189 C184 1.287 . S
O190 Fe176 1.996 . S
O190 C184 1.255 . S
C191 O195 1.295 . S
C191 O196 1.235 . S
O192 Fe177 1.976 . S
O192 C186 1.287 . S
O193 Fe179 1.996 . S
O193 C186 1.255 . S
C194 O187 1.287 . S
C194 O188 1.255 . S
O195 Fe177 2.002 . S
O195 C191 1.295 . S
O196 Fe179 1.997 . S
O196 C191 1.235 . S
C197 O180 1.295 . S
C197 O181 1.235 . S
Fe198 O200 1.918 . S
Fe198 O203 1.997 . S
Fe198 O204 2.002 . S
Fe198 O209 1.976 . S
Fe198 O212 1.996 . S
Fe199 O200 1.918 . S
Fe199 O207 1.997 . S
Fe199 O210 1.996 . S
Fe199 O214 1.976 . S
Fe199 O217 2.002 . S
O200 Fe198 1.918 . S
O200 Fe199 1.918 . S
O200 Fe201 1.918 . S
Fe201 O200 1.918 . S
Fe201 O202 2.002 . S
Fe201 O211 1.976 . S
Fe201 O215 1.996 . S
Fe201 O218 1.997 . S
O202 Fe201 2.002 . S
O202 C219 1.295 . S
O203 Fe198 1.997 . S
O203 C219 1.235 . S
O204 Fe198 2.002 . S
O204 C205 1.295 . S
C205 O204 1.295 . S
C205 O207 1.235 . S
C206 O211 1.287 . S
C206 O212 1.255 . S
O207 Fe199 1.997 . S
O207 C205 1.235 . S
C208 O214 1.287 . S
C208 O215 1.255 . S
O209 Fe198 1.976 . S
O209 C216 1.287 . S
O210 Fe199 1.996 . S
O210 C216 1.255 . S
O211 Fe201 1.976 . S
O211 C206 1.287 . S
O212 Fe198 1.996 . S
O212 C206 1.255 . S
C213 O217 1.295 . S
C213 O218 1.235 . S
O214 Fe199 1.976 . S
O214 C208 1.287 . S
O215 Fe201 1.996 . S
O215 C208 1.255 . S
C216 O209 1.287 . S
C216 O210 1.255 . S
O217 Fe199 2.002 . S
O217 C213 1.295 . S
O218 Fe201 1.997 . S
O218 C213 1.235 . S
C219 O202 1.295 . S
C219 O203 1.235 . S
Fe220 O222 1.918 . S
Fe220 O225 1.997 . S
Fe220 O226 2.002 . S
Fe220 O231 1.976 . S
Fe220 O234 1.996 . S
Fe221 O222 1.918 . S
Fe221 O229 1.997 . S
Fe221 O232 1.996 . S
Fe221 O236 1.976 . S
Fe221 O239 2.002 . S
O222 Fe220 1.918 . S
O222 Fe221 1.918 . S
O222 Fe223 1.918 . S
Fe223 O222 1.918 . S
Fe223 O224 2.002 . S
Fe223 O233 1.976 . S
Fe223 O237 1.996 . S
Fe223 O240 1.997 . S
O224 Fe223 2.002 . S
O224 C241 1.295 . S
O225 Fe220 1.997 . S
O225 C241 1.235 . S
O226 Fe220 2.002 . S
O226 C227 1.295 . S
C227 O226 1.295 . S
C227 O229 1.235 . S
C228 O233 1.287 . S
C228 O234 1.255 . S
O229 Fe221 1.997 . S
O229 C227 1.235 . S
C230 O236 1.287 . S
C230 O237 1.255 . S
O231 Fe220 1.976 . S
O231 C238 1.287 . S
O232 Fe221 1.996 . S
O232 C238 1.255 . S
O233 Fe223 1.976 . S
O233 C228 1.287 . S
O234 Fe220 1.996 . S
O234 C228 1.255 . S
C235 O239 1.295 . S
C235 O240 1.235 . S
O236 Fe221 1.976 . S
O236 C230 1.287 . S
O237 Fe223 1.996 . S
O237 C230 1.255 . S
C238 O231 1.287 . S
C238 O232 1.255 . S
O239 Fe221 2.002 . S
O239 C235 1.295 . S
O240 Fe223 1.997 . S
O240 C235 1.235 . S
C241 O224 1.295 . S
C241 O225 1.235 . S
Fe242 O244 1.918 . S
Fe242 O247 1.997 . S
Fe242 O248 2.002 . S
Fe242 O253 1.976 . S
Fe242 O256 1.996 . S
Fe243 O244 1.918 . S
Fe243 O251 1.997 . S
Fe243 O254 1.996 . S
Fe243 O258 1.976 . S
Fe243 O261 2.002 . S
O244 Fe242 1.918 . S
O244 Fe243 1.918 . S
O244 Fe245 1.918 . S
Fe245 O244 1.918 . S
Fe245 O246 2.002 . S
Fe245 O255 1.976 . S
Fe245 O259 1.996 . S
Fe245 O262 1.997 . S
O246 Fe245 2.002 . S
O246 C263 1.295 . S
O247 Fe242 1.997 . S
O247 C263 1.235 . S
O248 Fe242 2.002 . S
O248 C249 1.295 . S
C249 O248 1.295 . S
C249 O251 1.235 . S
C250 O255 1.287 . S
C250 O256 1.255 . S
O251 Fe243 1.997 . S
O251 C249 1.235 . S
C252 O258 1.287 . S
C252 O259 1.255 . S
O253 Fe242 1.976 . S
O253 C260 1.287 . S
O254 Fe243 1.996 . S
O254 C260 1.255 . S
O255 Fe245 1.976 . S
O255 C250 1.287 . S
O256 Fe242 1.996 . S
O256 C250 1.255 . S
C257 O261 1.295 . S
C257 O262 1.235 . S
O258 Fe243 1.976 . S
O258 C252 1.287 . S
O259 Fe245 1.996 . S
O259 C252 1.255 . S
C260 O253 1.287 . S
C260 O254 1.255 . S
O261 Fe243 2.002 . S
O261 C257 1.295 . S
O262 Fe245 1.997 . S
O262 C257 1.235 . S
C263 O246 1.295 . S
C263 O247 1.235 . S
Fe264 O266 1.918 . S
Fe264 O269 1.997 1_655 S
Fe264 O270 2.002 . S
Fe264 O275 1.976 . S
Fe264 O278 1.996 . S
Fe265 O266 1.918 . S
Fe265 O273 1.997 . S
Fe265 O276 1.996 . S
Fe265 O280 1.976 . S
Fe265 O283 2.002 . S
O266 Fe264 1.918 . S
O266 Fe265 1.918 . S
O266 Fe267 1.918 . S
Fe267 O266 1.918 . S
Fe267 O268 2.002 1_655 S
Fe267 O277 1.976 . S
Fe267 O281 1.996 . S
Fe267 O284 1.997 . S
O268 Fe267 2.002 1_455 S
O268 C285 1.295 . S
O269 Fe264 1.997 1_455 S
O269 C285 1.235 . S
O270 Fe264 2.002 . S
O270 C271 1.295 . S
C271 O270 1.295 . S
C271 O273 1.235 . S
C272 O277 1.287 1_455 S
C272 O278 1.255 1_455 S
O273 Fe265 1.997 . S
O273 C271 1.235 . S
C274 O280 1.287 . S
C274 O281 1.255 . S
O275 Fe264 1.976 . S
O275 C282 1.287 . S
O276 Fe265 1.996 . S
O276 C282 1.255 . S
O277 Fe267 1.976 . S
O277 C272 1.287 1_655 S
O278 Fe264 1.996 . S
O278 C272 1.255 1_655 S
C279 O283 1.295 . S
C279 O284 1.235 . S
O280 Fe265 1.976 . S
O280 C274 1.287 . S
O281 Fe267 1.996 . S
O281 C274 1.255 . S
C282 O275 1.287 . S
C282 O276 1.255 . S
O283 Fe265 2.002 . S
O283 C279 1.295 . S
O284 Fe267 1.997 . S
O284 C279 1.235 . S
C285 O268 1.295 . S
C285 O269 1.235 . S
Fe286 O288 1.918 . S
Fe286 O291 1.997 . S
Fe286 O292 2.002 . S
Fe286 O297 1.976 . S
Fe286 O300 1.996 . S
Fe287 O288 1.918 . S
Fe287 O295 1.997 . S
Fe287 O298 1.996 . S
Fe287 O302 1.976 . S
Fe287 O305 2.002 . S
O288 Fe286 1.918 . S
O288 Fe287 1.918 . S
O288 Fe289 1.918 . S
Fe289 O288 1.918 . S
Fe289 O290 2.002 . S
Fe289 O299 1.976 . S
Fe289 O303 1.996 . S
Fe289 O306 1.997 . S
O290 Fe289 2.002 . S
O290 C307 1.295 . S
O291 Fe286 1.997 . S
O291 C307 1.235 . S
O292 Fe286 2.002 . S
O292 C293 1.295 . S
C293 O292 1.295 . S
C293 O295 1.235 . S
C294 O299 1.287 . S
C294 O300 1.255 . S
O295 Fe287 1.997 . S
O295 C293 1.235 . S
C296 O302 1.287 . S
C296 O303 1.255 . S
O297 Fe286 1.976 . S
O297 C304 1.287 . S
O298 Fe287 1.996 . S
O298 C304 1.255 . S
O299 Fe289 1.976 . S
O299 C294 1.287 . S
O300 Fe286 1.996 . S
O300 C294 1.255 . S
C301 O305 1.295 . S
C301 O306 1.235 . S
O302 Fe287 1.976 . S
O302 C296 1.287 . S
O303 Fe289 1.996 . S
O303 C296 1.255 . S
C304 O297 1.287 . S
C304 O298 1.255 . S
O305 Fe287 2.002 . S
O305 C301 1.295 . S
O306 Fe289 1.997 . S
O306 C301 1.235 . S
C307 O290 1.295 . S
C307 O291 1.235 . S
Fe308 O310 1.918 . S
Fe308 O313 1.997 1_545 S
Fe308 O314 2.002 . S
Fe308 O319 1.976 . S
Fe308 O322 1.996 . S
Fe309 O310 1.918 . S
Fe309 O317 1.997 . S
Fe309 O320 1.996 . S
Fe309 O324 1.976 . S
Fe309 O327 2.002 . S
O310 Fe308 1.918 . S
O310 Fe309 1.918 . S
O310 Fe311 1.918 . S
Fe311 O310 1.918 . S
Fe311 O312 2.002 1_545 S
Fe311 O321 1.976 . S
Fe311 O325 1.996 . S
Fe311 O328 1.997 . S
O312 Fe311 2.002 1_565 S
O312 C329 1.295 . S
O313 Fe308 1.997 1_565 S
O313 C329 1.235 . S
O314 Fe308 2.002 . S
O314 C315 1.295 . S
C315 O314 1.295 . S
C315 O317 1.235 . S
C316 O321 1.287 1_565 S
C316 O322 1.255 1_565 S
O317 Fe309 1.997 . S
O317 C315 1.235 . S
C318 O324 1.287 . S
C318 O325 1.255 . S
O319 Fe308 1.976 . S
O319 C326 1.287 . S
O320 Fe309 1.996 . S
O320 C326 1.255 . S
O321 Fe311 1.976 . S
O321 C316 1.287 1_545 S
O322 Fe308 1.996 . S
O322 C316 1.255 1_545 S
C323 O327 1.295 . S
C323 O328 1.235 . S
O324 Fe309 1.976 . S
O324 C318 1.287 . S
O325 Fe311 1.996 . S
O325 C318 1.255 . S
C326 O319 1.287 . S
C326 O320 1.255 . S
O327 Fe309 2.002 . S
O327 C323 1.295 . S
O328 Fe311 1.997 . S
O328 C323 1.235 . S
C329 O312 1.295 . S
C329 O313 1.235 . S
Fe330 O332 1.918 . S
Fe330 O335 1.997 1_545 S
Fe330 O336 2.002 . S
Fe330 O341 1.976 . S
Fe330 O344 1.996 . S
Fe331 O332 1.918 . S
Fe331 O339 1.997 . S
Fe331 O342 1.996 . S
Fe331 O346 1.976 . S
Fe331 O349 2.002 . S
O332 Fe330 1.918 . S
O332 Fe331 1.918 . S
O332 Fe333 1.918 . S
Fe333 O332 1.918 . S
Fe333 O334 2.002 1_545 S
Fe333 O343 1.976 . S
Fe333 O347 1.996 . S
Fe333 O350 1.997 . S
O334 Fe333 2.002 1_565 S
O334 C351 1.295 . S
O335 Fe330 1.997 1_565 S
O335 C351 1.235 . S
O336 Fe330 2.002 . S
O336 C337 1.295 . S
C337 O336 1.295 . S
C337 O339 1.235 . S
C338 O343 1.287 1_565 S
C338 O344 1.255 1_565 S
O339 Fe331 1.997 . S
O339 C337 1.235 . S
C340 O346 1.287 . S
C340 O347 1.255 . S
O341 Fe330 1.976 . S
O341 C348 1.287 . S
O342 Fe331 1.996 . S
O342 C348 1.255 . S
O343 Fe333 1.976 . S
O343 C338 1.287 1_545 S
O344 Fe330 1.996 . S
O344 C338 1.255 1_545 S
C345 O349 1.295 . S
C345 O350 1.235 . S
O346 Fe331 1.976 . S
O346 C340 1.287 . S
O347 Fe333 1.996 . S
O347 C340 1.255 . S
C348 O341 1.287 . S
C348 O342 1.255 . S
O349 Fe331 2.002 . S
O349 C345 1.295 . S
O350 Fe333 1.997 . S
O350 C345 1.235 . S
C351 O334 1.295 . S
C351 O335 1.235 . S
Fe352 O354 1.918 . S
Fe352 O357 1.997 1_655 S
Fe352 O358 2.002 . S
Fe352 O363 1.976 . S
Fe352 O366 1.996 . S
Fe353 O354 1.918 . S
Fe353 O361 1.997 . S
Fe353 O364 1.996 . S
Fe353 O368 1.976 . S
Fe353 O371 2.002 . S
O354 Fe352 1.918 . S
O354 Fe353 1.918 . S
O354 Fe355 1.918 . S
Fe355 O354 1.918 . S
Fe355 O356 2.002 1_655 S
Fe355 O365 1.976 . S
Fe355 O369 1.996 . S
Fe355 O372 1.997 . S
O356 Fe355 2.002 1_455 S
O356 C373 1.295 . S
O357 Fe352 1.997 1_455 S
O357 C373 1.235 . S
O358 Fe352 2.002 . S
O358 C359 1.295 . S
C359 O358 1.295 . S
C359 O361 1.235 . S
C360 O365 1.287 1_455 S
C360 O366 1.255 1_455 S
O361 Fe353 1.997 . S
O361 C359 1.235 . S
C362 O368 1.287 . S
C362 O369 1.255 . S
O363 Fe352 1.976 . S
O363 C370 1.287 . S
O364 Fe353 1.996 . S
O364 C370 1.255 . S
O365 Fe355 1.976 . S
O365 C360 1.287 1_655 S
O366 Fe352 1.996 . S
O366 C360 1.255 1_655 S
C367 O371 1.295 . S
C367 O372 1.235 . S
O368 Fe353 1.976 . S
O368 C362 1.287 . S
O369 Fe355 1.996 . S
O369 C362 1.255 . S
C370 O363 1.287 . S
C370 O364 1.255 . S
O371 Fe353 2.002 . S
O371 C367 1.295 . S
O372 Fe355 1.997 . S
O372 C367 1.235 . S
C373 O356 1.295 . S
C373 O357 1.235 . S
Fe374 O376 1.918 . S
Fe374 O379 1.997 . S
Fe374 O380 2.002 . S
Fe374 O385 1.976 . S
Fe374 O388 1.996 . S
Fe375 O376 1.918 . S
Fe375 O383 1.997 . S
Fe375 O386 1.996 . S
Fe375 O390 1.976 . S
Fe375 O393 2.002 . S
O376 Fe374 1.918 . S
O376 Fe375 1.918 . S
O376 Fe377 1.918 . S
Fe377 O376 1.918 . S
Fe377 O378 2.002 . S
Fe377 O387 1.976 . S
Fe377 O391 1.996 . S
Fe377 O394 1.997 . S
O378 Fe377 2.002 . S
O378 C395 1.295 . S
O379 Fe374 1.997 . S
O379 C395 1.235 . S
O380 Fe374 2.002 . S
O380 C381 1.295 . S
C381 O380 1.295 . S
C381 O383 1.235 . S
C382 O387 1.287 . S
C382 O388 1.255 . S
O383 Fe375 1.997 . S
O383 C381 1.235 . S
C384 O390 1.287 . S
C384 O391 1.255 . S
O385 Fe374 1.976 . S
O385 C392 1.287 . S
O386 Fe375 1.996 . S
O386 C392 1.255 . S
O387 Fe377 1.976 . S
O387 C382 1.287 . S
O388 Fe374 1.996 . S
O388 C382 1.255 . S
C389 O393 1.295 . S
C389 O394 1.235 . S
O390 Fe375 1.976 . S
O390 C384 1.287 . S
O391 Fe377 1.996 . S
O391 C384 1.255 . S
C392 O385 1.287 . S
C392 O386 1.255 . S
O393 Fe375 2.002 . S
O393 C389 1.295 . S
O394 Fe377 1.997 . S
O394 C389 1.235 . S
C395 O378 1.295 . S
C395 O379 1.235 . S
H396 C402 0.930 . S
H397 C405 0.930 . S
H398 C406 0.930 . S
H399 C407 0.930 . S
H400 C410 0.930 . S
H401 C411 0.930 . S
C402 H396 0.930 . S
C402 C403 1.355 . S
C402 C404 1.415 . S
C403 C402 1.355 . S
C403 C405 1.419 1_554 S
C404 C402 1.415 . S
C404 C409 1.425 1_554 S
C404 C411 1.409 . S
C405 H397 0.930 . S
C405 C403 1.419 1_556 S
C405 C406 1.362 . S
C406 H398 0.930 . S
C406 C405 1.362 . S
C406 C409 1.409 . S
C407 H399 0.930 . S
C407 C408 1.355 . S
C407 C409 1.415 . S
C408 C407 1.355 . S
C408 C410 1.419 1_556 S
C409 C404 1.425 1_556 S
C409 C406 1.409 . S
C409 C407 1.415 . S
C410 H400 0.930 . S
C410 C408 1.419 1_554 S
C410 C411 1.362 . S
C411 H401 0.930 . S
C411 C404 1.409 . S
C411 C410 1.362 . S
H412 C418 0.930 . S
H413 C421 0.930 1_554 S
H414 C422 0.930 . S
H415 C423 0.930 . S
H416 C426 0.930 . S
H417 C427 0.930 . S
C418 H412 0.930 . S
C418 C419 1.355 . S
C418 C420 1.415 . S
C419 C418 1.355 . S
C419 C421 1.418 . S
C420 C418 1.415 . S
C420 C425 1.425 1_556 S
C420 C427 1.409 . S
C421 H413 0.930 1_556 S
C421 C419 1.418 . S
C421 C422 1.363 1_556 S
C422 H414 0.930 . S
C422 C421 1.363 1_554 S
C422 C425 1.409 . S
C423 H415 0.930 . S
C423 C424 1.355 . S
C423 C425 1.415 . S
C424 C423 1.355 . S
C424 C426 1.419 1_554 S
C425 C420 1.425 1_554 S
C425 C422 1.409 . S
C425 C423 1.415 . S
C426 H416 0.930 . S
C426 C424 1.419 1_556 S
C426 C427 1.362 . S
C427 H417 0.930 . S
C427 C420 1.409 . S
C427 C426 1.362 . S
H428 C434 0.930 . S
H429 C437 0.930 . S
H430 C438 0.930 . S
H431 C439 0.930 . S
H432 C442 0.930 . S
H433 C443 0.930 . S
C434 H428 0.930 . S
C434 C435 1.355 . S
C434 C436 1.415 . S
C435 C434 1.355 . S
C435 C437 1.419 . S
C436 C434 1.415 . S
C436 C441 1.425 1_554 S
C436 C443 1.409 . S
C437 H429 0.930 . S
C437 C435 1.419 . S
C437 C438 1.362 1_554 S
C438 H430 0.930 . S
C438 C437 1.362 1_556 S
C438 C441 1.409 . S
C439 H431 0.930 . S
C439 C440 1.355 . S
C439 C441 1.415 . S
C440 C439 1.355 . S
C440 C442 1.419 . S
C441 C436 1.425 1_556 S
C441 C438 1.409 . S
C441 C439 1.415 . S
C442 H432 0.930 . S
C442 C440 1.419 . S
C442 C443 1.362 1_556 S
C443 H433 0.930 . S
C443 C436 1.409 . S
C443 C442 1.362 1_554 S
H444 C450 0.930 . S
H445 C453 0.930 . S
H446 C454 0.930 . S
H447 C455 0.930 . S
H448 C458 0.930 . S
H449 C459 0.930 . S
C450 H444 0.930 . S
C450 C451 1.355 . S
C450 C452 1.415 . S
C451 C450 1.355 . S
C451 C453 1.419 . S
C452 C450 1.415 . S
C452 C457 1.425 . S
C452 C459 1.409 . S
C453 H445 0.930 . S
C453 C451 1.419 . S
C453 C454 1.362 . S
C454 H446 0.930 . S
C454 C453 1.362 . S
C454 C457 1.409 . S
C455 H447 0.930 . S
C455 C456 1.355 . S
C455 C457 1.415 . S
C456 C455 1.355 . S
C456 C458 1.419 . S
C457 C452 1.425 . S
C457 C454 1.409 . S
C457 C455 1.415 . S
C458 H448 0.930 . S
C458 C456 1.419 . S
C458 C459 1.362 . S
C459 H449 0.930 . S
C459 C452 1.409 . S
C459 C458 1.362 . S
H460 C466 0.930 . S
H461 C469 0.930 . S
H462 C470 0.930 . S
H463 C471 0.930 . S
H464 C474 0.930 . S
H465 C475 0.930 . S
C466 H460 0.930 . S
C466 C467 1.355 . S
C466 C468 1.415 . S
C467 C466 1.355 . S
C467 C469 1.419 . S
C468 C466 1.415 . S
C468 C473 1.425 . S
C468 C475 1.409 . S
C469 H461 0.930 . S
C469 C467 1.419 . S
C469 C470 1.362 . S
C470 H462 0.930 . S
C470 C469 1.362 . S
C470 C473 1.409 . S
C471 H463 0.930 . S
C471 C472 1.355 . S
C471 C473 1.415 . S
C472 C471 1.355 . S
C472 C474 1.419 . S
C473 C468 1.425 . S
C473 C470 1.409 . S
C473 C471 1.415 . S
C474 H464 0.930 . S
C474 C472 1.419 . S
C474 C475 1.362 . S
C475 H465 0.930 . S
C475 C468 1.409 . S
C475 C474 1.362 . S
H476 C482 0.930 . S
H477 C485 0.930 . S
H478 C486 0.930 . S
H479 C487 0.930 . S
H480 C490 0.930 . S
H481 C491 0.930 . S
C482 H476 0.930 . S
C482 C483 1.355 . S
C482 C484 1.415 . S
C483 C482 1.355 . S
C483 C485 1.419 . S
C484 C482 1.415 . S
C484 C489 1.425 . S
C484 C491 1.409 . S
C485 H477 0.930 . S
C485 C483 1.419 . S
C485 C486 1.362 . S
C486 H478 0.930 . S
C486 C485 1.362 . S
C486 C489 1.409 . S
C487 H479 0.930 . S
C487 C488 1.355 . S
C487 C489 1.415 . S
C488 C487 1.355 . S
C488 C490 1.419 . S
C489 C484 1.425 . S
C489 C486 1.409 . S
C489 C487 1.415 . S
C490 H480 0.930 . S
C490 C488 1.419 . S
C490 C491 1.362 . S
C491 H481 0.930 . S
C491 C484 1.409 . S
C491 C490 1.362 . S
H492 C498 0.930 . S
H493 C501 0.930 . S
H494 C502 0.930 . S
H495 C503 0.930 . S
H496 C506 0.930 . S
H497 C507 0.930 . S
C498 H492 0.930 . S
C498 C499 1.355 . S
C498 C500 1.415 . S
C499 C498 1.355 . S
C499 C501 1.419 . S
C500 C498 1.415 . S
C500 C505 1.425 . S
C500 C507 1.409 . S
C501 H493 0.930 . S
C501 C499 1.419 . S
C501 C502 1.362 . S
C502 H494 0.930 . S
C502 C501 1.362 . S
C502 C505 1.409 . S
C503 H495 0.930 . S
C503 C504 1.355 . S
C503 C505 1.415 . S
C504 C503 1.355 . S
C504 C506 1.419 . S
C505 C500 1.425 . S
C505 C502 1.409 . S
C505 C503 1.415 . S
C506 H496 0.930 . S
C506 C504 1.419 . S
C506 C507 1.362 . S
C507 H497 0.930 . S
C507 C500 1.409 . S
C507 C506 1.362 . S
H508 C514 0.930 . S
H509 C517 0.930 . S
H510 C518 0.930 . S
H511 C519 0.930 . S
H512 C522 0.930 . S
H513 C523 0.930 . S
C514 H508 0.930 . S
C514 C515 1.355 . S
C514 C516 1.415 . S
C515 C514 1.355 . S
C515 C517 1.419 . S
C516 C514 1.415 . S
C516 C521 1.425 . S
C516 C523 1.409 . S
C517 H509 0.930 . S
C517 C515 1.419 . S
C517 C518 1.362 . S
C518 H510 0.930 . S
C518 C517 1.362 . S
C518 C521 1.409 . S
C519 H511 0.930 . S
C519 C520 1.355 . S
C519 C521 1.415 . S
C520 C519 1.355 . S
C520 C522 1.419 . S
C521 C516 1.425 . S
C521 C518 1.409 . S
C521 C519 1.415 . S
C522 H512 0.930 . S
C522 C520 1.419 . S
C522 C523 1.362 . S
C523 H513 0.930 . S
C523 C516 1.409 . S
C523 C522 1.362 . S
H524 C530 0.930 . S
H525 C533 0.930 . S
H526 C534 0.930 . S
H527 C535 0.930 . S
H528 C538 0.930 . S
H529 C539 0.930 . S
C530 H524 0.930 . S
C530 C531 1.355 . S
C530 C532 1.415 . S
C531 C530 1.355 . S
C531 C533 1.419 . S
C532 C530 1.415 . S
C532 C537 1.425 . S
C532 C539 1.409 . S
C533 H525 0.930 . S
C533 C531 1.419 . S
C533 C534 1.362 . S
C534 H526 0.930 . S
C534 C533 1.362 . S
C534 C537 1.409 . S
C535 H527 0.930 . S
C535 C536 1.355 . S
C535 C537 1.415 . S
C536 C535 1.355 . S
C536 C538 1.419 . S
C537 C532 1.425 . S
C537 C534 1.409 . S
C537 C535 1.415 . S
C538 H528 0.930 . S
C538 C536 1.419 . S
C538 C539 1.362 . S
C539 H529 0.930 . S
C539 C532 1.409 . S
C539 C538 1.362 . S
H540 C546 0.930 . S
H541 C549 0.930 . S
H542 C550 0.930 . S
H543 C551 0.930 . S
H544 C554 0.930 . S
H545 C555 0.930 . S
C546 H540 0.930 . S
C546 C547 1.355 . S
C546 C548 1.415 . S
C547 C546 1.355 . S
C547 C549 1.419 . S
C548 C546 1.415 . S
C548 C553 1.425 . S
C548 C555 1.409 . S
C549 H541 0.930 . S
C549 C547 1.419 . S
C549 C550 1.362 . S
C550 H542 0.930 . S
C550 C549 1.362 . S
C550 C553 1.409 . S
C551 H543 0.930 . S
C551 C552 1.355 . S
C551 C553 1.415 . S
C552 C551 1.355 . S
C552 C554 1.419 . S
C553 C548 1.425 . S
C553 C550 1.409 . S
C553 C551 1.415 . S
C554 H544 0.930 . S
C554 C552 1.419 . S
C554 C555 1.362 . S
C555 H545 0.930 . S
C555 C548 1.409 . S
C555 C554 1.362 . S
H556 C562 0.930 . S
H557 C565 0.930 . S
H558 C566 0.930 . S
H559 C567 0.930 . S
H560 C570 0.930 . S
H561 C571 0.930 . S
C562 H556 0.930 . S
C562 C563 1.355 . S
C562 C564 1.415 . S
C563 C562 1.355 . S
C563 C565 1.419 . S
C564 C562 1.415 . S
C564 C569 1.425 . S
C564 C571 1.409 . S
C565 H557 0.930 . S
C565 C563 1.419 . S
C565 C566 1.362 . S
C566 H558 0.930 . S
C566 C565 1.362 . S
C566 C569 1.409 . S
C567 H559 0.930 . S
C567 C568 1.355 . S
C567 C569 1.415 . S
C568 C567 1.355 . S
C568 C570 1.419 . S
C569 C564 1.425 . S
C569 C566 1.409 . S
C569 C567 1.415 . S
C570 H560 0.930 . S
C570 C568 1.419 . S
C570 C571 1.362 . S
C571 H561 0.930 . S
C571 C564 1.409 . S
C571 C570 1.362 . S
H572 C578 0.930 . S
H573 C581 0.930 . S
H574 C582 0.930 . S
H575 C583 0.930 . S
H576 C586 0.930 . S
H577 C587 0.930 . S
C578 H572 0.930 . S
C578 C579 1.355 . S
C578 C580 1.415 . S
C579 C578 1.355 . S
C579 C581 1.419 . S
C580 C578 1.415 . S
C580 C585 1.425 . S
C580 C587 1.409 . S
C581 H573 0.930 . S
C581 C579 1.419 . S
C581 C582 1.362 . S
C582 H574 0.930 . S
C582 C581 1.362 . S
C582 C585 1.409 . S
C583 H575 0.930 . S
C583 C584 1.355 . S
C583 C585 1.415 . S
C584 C583 1.355 . S
C584 C586 1.419 . S
C585 C580 1.425 . S
C585 C582 1.409 . S
C585 C583 1.415 . S
C586 H576 0.930 . S
C586 C584 1.419 . S
C586 C587 1.362 . S
C587 H577 0.930 . S
C587 C580 1.409 . S
C587 C586 1.362 . S
H588 C594 0.930 . S
H589 C597 0.930 . S
H590 C598 0.930 . S
H591 C599 0.930 . S
H592 C602 0.930 . S
H593 C603 0.930 . S
C594 H588 0.930 . S
C594 C595 1.355 . S
C594 C596 1.415 . S
C595 C594 1.355 . S
C595 C597 1.419 . S
C596 C594 1.415 . S
C596 C601 1.425 . S
C596 C603 1.409 . S
C597 H589 0.930 . S
C597 C595 1.419 . S
C597 C598 1.362 . S
C598 H590 0.930 . S
C598 C597 1.362 . S
C598 C601 1.409 . S
C599 H591 0.930 . S
C599 C600 1.355 . S
C599 C601 1.415 . S
C600 C599 1.355 . S
C600 C602 1.419 . S
C601 C596 1.425 . S
C601 C598 1.409 . S
C601 C599 1.415 . S
C602 H592 0.930 . S
C602 C600 1.419 . S
C602 C603 1.362 . S
C603 H593 0.930 . S
C603 C596 1.409 . S
C603 C602 1.362 . S
H604 C610 0.930 . S
H605 C613 0.930 1_545 S
H606 C614 0.930 . S
H607 C615 0.930 . S
H608 C618 0.930 . S
H609 C619 0.930 . S
C610 H604 0.930 . S
C610 C611 1.355 . S
C610 C612 1.415 1_545 S
C611 C610 1.355 . S
C611 C613 1.419 1_545 S
C612 C610 1.415 1_565 S
C612 C617 1.425 . S
C612 C619 1.409 . S
C613 H605 0.930 1_565 S
C613 C611 1.419 1_565 S
C613 C614 1.362 . S
C614 H606 0.930 . S
C614 C613 1.362 . S
C614 C617 1.409 . S
C615 H607 0.930 . S
C615 C616 1.355 . S
C615 C617 1.415 . S
C616 C615 1.355 . S
C616 C618 1.419 . S
C617 C612 1.425 . S
C617 C614 1.409 . S
C617 C615 1.415 . S
C618 H608 0.930 . S
C618 C616 1.419 . S
C618 C619 1.362 . S
C619 H609 0.930 . S
C619 C612 1.409 . S
C619 C618 1.362 . S
H620 C626 0.930 . S
H621 C629 0.930 . S
H622 C630 0.930 . S
H623 C631 0.930 . S
H624 C634 0.930 . S
H625 C635 0.930 . S
C626 H620 0.930 . S
C626 C627 1.355 1_455 S
C626 C628 1.415 . S
C627 C626 1.355 1_655 S
C627 C629 1.419 . S
C628 C626 1.415 . S
C628 C633 1.425 . S
C628 C635 1.409 . S
C629 H621 0.930 . S
C629 C627 1.419 . S
C629 C630 1.362 1_655 S
C630 H622 0.930 . S
C630 C629 1.362 1_455 S
C630 C633 1.409 . S
C631 H623 0.930 . S
C631 C632 1.355 . S
C631 C633 1.415 . S
C632 C631 1.355 . S
C632 C634 1.419 . S
C633 C628 1.425 . S
C633 C630 1.409 . S
C633 C631 1.415 . S
C634 H624 0.930 . S
C634 C632 1.419 . S
C634 C635 1.362 . S
C635 H625 0.930 . S
C635 C628 1.409 . S
C635 C634 1.362 . S
H636 C642 0.930 . S
H637 C645 0.930 . S
H638 C646 0.930 . S
H639 C647 0.930 . S
H640 C650 0.930 . S
H641 C651 0.930 . S
C642 H636 0.930 . S
C642 C643 1.355 . S
C642 C644 1.415 . S
C643 C642 1.355 . S
C643 C645 1.419 . S
C644 C642 1.415 . S
C644 C649 1.425 . S
C644 C651 1.409 . S
C645 H637 0.930 . S
C645 C643 1.419 . S
C645 C646 1.362 . S
C646 H638 0.930 . S
C646 C645 1.362 . S
C646 C649 1.409 . S
C647 H639 0.930 . S
C647 C648 1.355 . S
C647 C649 1.415 . S
C648 C647 1.355 . S
C648 C650 1.419 . S
C649 C644 1.425 . S
C649 C646 1.409 . S
C649 C647 1.415 . S
C650 H640 0.930 . S
C650 C648 1.419 . S
C650 C651 1.362 . S
C651 H641 0.930 . S
C651 C644 1.409 . S
C651 C650 1.362 . S
H652 C658 0.930 . S
H653 C661 0.930 . S
H654 C662 0.930 . S
H655 C663 0.930 . S
H656 C666 0.930 . S
H657 C667 0.930 . S
C658 H652 0.930 . S
C658 C659 1.355 . S
C658 C660 1.415 . S
C659 C658 1.355 . S
C659 C661 1.419 . S
C660 C658 1.415 . S
C660 C665 1.425 . S
C660 C667 1.409 . S
C661 H653 0.930 . S
C661 C659 1.419 . S
C661 C662 1.362 . S
C662 H654 0.930 . S
C662 C661 1.362 . S
C662 C665 1.409 . S
C663 H655 0.930 . S
C663 C664 1.355 . S
C663 C665 1.415 1_545 S
C664 C663 1.355 . S
C664 C666 1.419 . S
C665 C660 1.425 . S
C665 C662 1.409 . S
C665 C663 1.415 1_565 S
C666 H656 0.930 . S
C666 C664 1.419 . S
C666 C667 1.362 1_545 S
C667 H657 0.930 . S
C667 C660 1.409 . S
C667 C666 1.362 1_565 S
H668 C674 0.930 . S
H669 C677 0.930 . S
H670 C678 0.930 . S
H671 C679 0.930 . S
H672 C682 0.930 . S
H673 C683 0.930 . S
C674 H668 0.930 . S
C674 C675 1.355 . S
C674 C676 1.415 . S
C675 C674 1.355 . S
C675 C677 1.419 . S
C676 C674 1.415 . S
C676 C681 1.425 . S
C676 C683 1.409 . S
C677 H669 0.930 . S
C677 C675 1.419 . S
C677 C678 1.362 . S
C678 H670 0.930 . S
C678 C677 1.362 . S
C678 C681 1.409 . S
C679 H671 0.930 . S
C679 C680 1.355 1_455 S
C679 C681 1.415 . S
C680 C679 1.355 1_655 S
C680 C682 1.419 . S
C681 C676 1.425 . S
C681 C678 1.409 . S
C681 C679 1.415 . S
C682 H672 0.930 . S
C682 C680 1.419 . S
C682 C683 1.362 1_655 S
C683 H673 0.930 . S
C683 C676 1.409 . S
C683 C682 1.362 1_455 S
H684 C690 0.930 . S
H685 C693 0.930 . S
H686 C694 0.930 . S
H687 C695 0.930 . S
H688 C698 0.930 . S
H689 C699 0.930 . S
C690 H684 0.930 . S
C690 C691 1.355 . S
C690 C692 1.415 . S
C691 C690 1.355 . S
C691 C693 1.419 . S
C692 C690 1.415 . S
C692 C697 1.425 . S
C692 C699 1.409 . S
C693 H685 0.930 . S
C693 C691 1.419 . S
C693 C694 1.362 . S
C694 H686 0.930 . S
C694 C693 1.362 . S
C694 C697 1.409 . S
C695 H687 0.930 . S
C695 C696 1.355 . S
C695 C697 1.415 . S
C696 C695 1.355 . S
C696 C698 1.419 . S
C697 C692 1.425 . S
C697 C694 1.409 . S
C697 C695 1.415 . S
C698 H688 0.930 . S
C698 C696 1.419 . S
C698 C699 1.362 . S
C699 H689 0.930 . S
C699 C692 1.409 . S
C699 C698 1.362 . S
H700 C706 0.930 . S
H701 C709 0.930 . S
H702 C710 0.930 . S
H703 C711 0.930 . S
H704 C714 0.930 . S
H705 C715 0.930 . S
C706 H700 0.930 . S
C706 C707 1.355 . S
C706 C708 1.415 . S
C707 C706 1.355 . S
C707 C709 1.419 . S
C708 C706 1.415 . S
C708 C713 1.425 . S
C708 C715 1.409 . S
C709 H701 0.930 . S
C709 C707 1.419 . S
C709 C710 1.362 . S
C710 H702 0.930 . S
C710 C709 1.362 . S
C710 C713 1.409 . S
C711 H703 0.930 . S
C711 C712 1.355 . S
C711 C713 1.415 . S
C712 C711 1.355 . S
C712 C714 1.419 . S
C713 C708 1.425 . S
C713 C710 1.409 . S
C713 C711 1.415 . S
C714 H704 0.930 . S
C714 C712 1.419 . S
C714 C715 1.362 . S
C715 H705 0.930 . S
C715 C708 1.409 . S
C715 C714 1.362 . S
H716 C722 0.930 . S
H717 C725 0.930 . S
H718 C726 0.930 . S
H719 C727 0.930 . S
H720 C730 0.930 . S
H721 C731 0.930 . S
C722 H716 0.930 . S
C722 C723 1.355 . S
C722 C724 1.415 . S
C723 C722 1.355 . S
C723 C725 1.419 . S
C724 C722 1.415 . S
C724 C729 1.425 . S
C724 C731 1.409 . S
C725 H717 0.930 . S
C725 C723 1.419 . S
C725 C726 1.362 . S
C726 H718 0.930 . S
C726 C725 1.362 . S
C726 C729 1.409 . S
C727 H719 0.930 . S
C727 C728 1.355 . S
C727 C729 1.415 . S
C728 C727 1.355 . S
C728 C730 1.419 . S
C729 C724 1.425 . S
C729 C726 1.409 . S
C729 C727 1.415 . S
C730 H720 0.930 . S
C730 C728 1.419 . S
C730 C731 1.362 . S
C731 H721 0.930 . S
C731 C724 1.409 . S
C731 C730 1.362 . S
H732 C738 0.930 . S
H733 C741 0.930 . S
H734 C742 0.930 . S
H735 C743 0.930 . S
H736 C746 0.930 . S
H737 C747 0.930 . S
C738 H732 0.930 . S
C738 C739 1.355 . S
C738 C740 1.415 . S
C739 C738 1.355 . S
C739 C741 1.419 . S
C740 C738 1.415 . S
C740 C745 1.425 . S
C740 C747 1.409 . S
C741 H733 0.930 . S
C741 C739 1.419 . S
C741 C742 1.362 . S
C742 H734 0.930 . S
C742 C741 1.362 . S
C742 C745 1.409 . S
C743 H735 0.930 . S
C743 C744 1.355 . S
C743 C745 1.415 . S
C744 C743 1.355 . S
C744 C746 1.419 . S
C745 C740 1.425 . S
C745 C742 1.409 . S
C745 C743 1.415 . S
C746 H736 0.930 . S
C746 C744 1.419 . S
C746 C747 1.362 . S
C747 H737 0.930 . S
C747 C740 1.409 . S
C747 C746 1.362 . S
H748 C754 0.930 . S
H749 C757 0.930 . S
H750 C758 0.930 . S
H751 C759 0.930 . S
H752 C762 0.930 . S
H753 C763 0.930 . S
C754 H748 0.930 . S
C754 C755 1.355 . S
C754 C756 1.415 . S
C755 C754 1.355 . S
C755 C757 1.419 . S
C756 C754 1.415 . S
C756 C761 1.425 . S
C756 C763 1.409 . S
C757 H749 0.930 . S
C757 C755 1.419 . S
C757 C758 1.362 . S
C758 H750 0.930 . S
C758 C757 1.362 . S
C758 C761 1.409 . S
C759 H751 0.930 . S
C759 C760 1.355 . S
C759 C761 1.415 . S
C760 C759 1.355 . S
C760 C762 1.419 . S
C761 C756 1.425 . S
C761 C758 1.409 . S
C761 C759 1.415 . S
C762 H752 0.930 . S
C762 C760 1.419 . S
C762 C763 1.362 . S
C763 H753 0.930 . S
C763 C756 1.409 . S
C763 C762 1.362 . S
H764 C770 0.930 . S
H765 C773 0.930 . S
H766 C774 0.930 . S
H767 C775 0.930 . S
H768 C778 0.930 . S
H769 C779 0.930 . S
C770 H764 0.930 . S
C770 C771 1.355 . S
C770 C772 1.415 . S
C771 C770 1.355 . S
C771 C773 1.419 . S
C772 C770 1.415 . S
C772 C777 1.425 . S
C772 C779 1.409 . S
C773 H765 0.930 . S
C773 C771 1.419 . S
C773 C774 1.362 . S
C774 H766 0.930 . S
C774 C773 1.362 . S
C774 C777 1.409 . S
C775 H767 0.930 . S
C775 C776 1.355 . S
C775 C777 1.415 . S
C776 C775 1.355 . S
C776 C778 1.419 . S
C777 C772 1.425 . S
C777 C774 1.409 . S
C777 C775 1.415 . S
C778 H768 0.930 . S
C778 C776 1.419 . S
C778 C779 1.362 . S
C779 H769 0.930 . S
C779 C772 1.409 . S
C779 C778 1.362 . S
H780 C786 0.930 . S
H781 C789 0.930 . S
H782 C790 0.930 . S
H783 C791 0.930 . S
H784 C794 0.930 . S
H785 C795 0.930 . S
C786 H780 0.930 . S
C786 C787 1.355 . S
C786 C788 1.415 . S
C787 C786 1.355 . S
C787 C789 1.419 . S
C788 C786 1.415 . S
C788 C793 1.425 . S
C788 C795 1.409 . S
C789 H781 0.930 . S
C789 C787 1.419 . S
C789 C790 1.362 . S
C790 H782 0.930 . S
C790 C789 1.362 . S
C790 C793 1.409 . S
C791 H783 0.930 . S
C791 C792 1.355 . S
C791 C793 1.415 . S
C792 C791 1.355 . S
C792 C794 1.419 . S
C793 C788 1.425 . S
C793 C790 1.409 . S
C793 C791 1.415 . S
C794 H784 0.930 . S
C794 C792 1.419 . S
C794 C795 1.362 . S
C795 H785 0.930 . S
C795 C788 1.409 . S
C795 C794 1.362 . S
H796 C802 0.930 . S
H797 C805 0.930 . S
H798 C806 0.930 . S
H799 C807 0.930 . S
H800 C810 0.930 . S
H801 C811 0.930 . S
C802 H796 0.930 . S
C802 C803 1.355 . S
C802 C804 1.415 . S
C803 C802 1.355 . S
C803 C805 1.419 . S
C804 C802 1.415 . S
C804 C809 1.425 . S
C804 C811 1.409 . S
C805 H797 0.930 . S
C805 C803 1.419 . S
C805 C806 1.362 . S
C806 H798 0.930 . S
C806 C805 1.362 . S
C806 C809 1.409 . S
C807 H799 0.930 . S
C807 C808 1.355 . S
C807 C809 1.415 . S
C808 C807 1.355 . S
C808 C810 1.419 . S
C809 C804 1.425 . S
C809 C806 1.409 . S
C809 C807 1.415 . S
C810 H800 0.930 . S
C810 C808 1.419 . S
C810 C811 1.362 . S
C811 H801 0.930 . S
C811 C804 1.409 . S
C811 C810 1.362 . S
H812 C818 0.930 . S
H813 C821 0.930 . S
H814 C822 0.930 . S
H815 C823 0.930 . S
H816 C826 0.930 . S
H817 C827 0.930 . S
C818 H812 0.930 . S
C818 C819 1.355 . S
C818 C820 1.415 . S
C819 C818 1.355 . S
C819 C821 1.419 . S
C820 C818 1.415 . S
C820 C825 1.425 . S
C820 C827 1.409 . S
C821 H813 0.930 . S
C821 C819 1.419 . S
C821 C822 1.362 . S
C822 H814 0.930 . S
C822 C821 1.362 . S
C822 C825 1.409 . S
C823 H815 0.930 . S
C823 C824 1.355 . S
C823 C825 1.415 . S
C824 C823 1.355 . S
C824 C826 1.419 . S
C825 C820 1.425 . S
C825 C822 1.409 . S
C825 C823 1.415 . S
C826 H816 0.930 . S
C826 C824 1.419 . S
C826 C827 1.362 . S
C827 H817 0.930 . S
C827 C820 1.409 . S
C827 C826 1.362 . S
H828 C834 0.930 . S
H829 C837 0.930 1_556 S
H830 C838 0.930 . S
H831 C839 0.930 . S
H832 C842 0.930 . S
H833 C843 0.930 . S
C834 H828 0.930 . S
C834 C835 1.355 1_554 S
C834 C836 1.415 . S
C835 C834 1.355 1_556 S
C835 C837 1.419 1_556 S
C836 C834 1.415 . S
C836 C841 1.425 . S
C836 C843 1.409 . S
C837 H829 0.930 1_554 S
C837 C835 1.419 1_554 S
C837 C838 1.362 . S
C838 H830 0.930 . S
C838 C837 1.362 . S
C838 C841 1.409 . S
C839 H831 0.930 . S
C839 C840 1.355 . S
C839 C841 1.415 . S
C840 C839 1.355 . S
C840 C842 1.419 . S
C841 C836 1.425 . S
C841 C838 1.409 . S
C841 C839 1.415 . S
C842 H832 0.930 . S
C842 C840 1.419 . S
C842 C843 1.362 . S
C843 H833 0.930 . S
C843 C836 1.409 . S
C843 C842 1.362 . S
H844 C850 0.930 . S
H845 C853 0.937 . S
H846 C854 0.930 . S
H847 C855 0.930 . S
H848 C858 0.930 . S
H849 C859 0.930 . S
C850 H844 0.930 . S
C850 C851 1.355 1_554 S
C850 C852 1.415 . S
C851 C850 1.355 1_556 S
C851 C853 1.419 1_556 S
C852 C850 1.415 . S
C852 C857 1.425 . S
C852 C859 1.409 . S
C853 H845 0.937 . S
C853 C851 1.419 1_554 S
C853 C854 1.362 . S
C854 H846 0.930 . S
C854 C853 1.362 . S
C854 C857 1.409 . S
C855 H847 0.930 . S
C855 C856 1.355 . S
C855 C857 1.415 . S
C856 C855 1.355 . S
C856 C858 1.419 . S
C857 C852 1.425 . S
C857 C854 1.409 . S
C857 C855 1.415 . S
C858 H848 0.930 . S
C858 C856 1.419 . S
C858 C859 1.362 . S
C859 H849 0.930 . S
C859 C852 1.409 . S
C859 C858 1.362 . S
H860 C866 0.930 . S
H861 C869 0.930 1_556 S
H862 C870 0.930 . S
H863 C871 0.930 . S
H864 C874 0.930 . S
H865 C875 0.930 . S
C866 H860 0.930 . S
C866 C867 1.355 1_554 S
C866 C868 1.415 . S
C867 C866 1.355 1_556 S
C867 C869 1.419 1_556 S
C868 C866 1.415 . S
C868 C873 1.425 . S
C868 C875 1.409 . S
C869 H861 0.930 1_554 S
C869 C867 1.419 1_554 S
C869 C870 1.362 . S
C870 H862 0.930 . S
C870 C869 1.362 . S
C870 C873 1.409 . S
C871 H863 0.930 . S
C871 C872 1.355 . S
C871 C873 1.415 . S
C872 C871 1.355 . S
C872 C874 1.419 . S
C873 C868 1.425 . S
C873 C870 1.409 . S
C873 C871 1.415 . S
C874 H864 0.930 . S
C874 C872 1.419 . S
C874 C875 1.362 . S
C875 H865 0.930 . S
C875 C868 1.409 . S
C875 C874 1.362 . S
H876 C882 0.930 . S
H877 C885 0.930 . S
H878 C886 0.930 . S
H879 C887 0.930 . S
H880 C890 0.933 . S
H881 C891 0.930 . S
C882 H876 0.930 . S
C882 C883 1.355 . S
C882 C884 1.415 . S
C883 C882 1.355 . S
C883 C885 1.419 . S
C884 C882 1.415 . S
C884 C889 1.425 . S
C884 C891 1.409 . S
C885 H877 0.930 . S
C885 C883 1.419 . S
C885 C886 1.362 . S
C886 H878 0.930 . S
C886 C885 1.362 . S
C886 C889 1.409 . S
C887 H879 0.930 . S
C887 C888 1.355 1_556 S
C887 C889 1.415 . S
C888 C887 1.355 1_554 S
C888 C890 1.421 . S
C889 C884 1.425 . S
C889 C886 1.409 . S
C889 C887 1.415 . S
C890 H880 0.933 . S
C890 C888 1.421 . S
C890 C891 1.357 1_554 S
C891 H881 0.930 . S
C891 C884 1.409 . S
C891 C890 1.357 1_556 S
H892 C898 0.930 . S
H893 C901 0.930 . S
H894 C902 0.930 . S
H895 C903 0.930 . S
H896 C906 0.930 1_554 S
H897 C907 0.930 . S
C898 H892 0.930 . S
C898 C899 1.355 . S
C898 C900 1.415 . S
C899 C898 1.355 . S
C899 C901 1.419 . S
C900 C898 1.415 . S
C900 C905 1.425 . S
C900 C907 1.409 . S
C901 H893 0.930 . S
C901 C899 1.419 . S
C901 C902 1.362 . S
C902 H894 0.930 . S
C902 C901 1.362 . S
C902 C905 1.409 . S
C903 H895 0.930 . S
C903 C904 1.355 1_556 S
C903 C905 1.415 . S
C904 C903 1.355 1_554 S
C904 C906 1.419 1_554 S
C905 C900 1.425 . S
C905 C902 1.409 . S
C905 C903 1.415 . S
C906 H896 0.930 1_556 S
C906 C904 1.419 1_556 S
C906 C907 1.362 . S
C907 H897 0.930 . S
C907 C900 1.409 . S
C907 C906 1.362 . S
H908 C914 0.930 . S
H909 C917 0.930 . S
H910 C918 0.930 . S
H911 C919 0.930 . S
H912 C922 0.930 1_554 S
H913 C923 0.930 . S
C914 H908 0.930 . S
C914 C915 1.355 . S
C914 C916 1.415 . S
C915 C914 1.355 . S
C915 C917 1.419 . S
C916 C914 1.415 . S
C916 C921 1.425 . S
C916 C923 1.409 . S
C917 H909 0.930 . S
C917 C915 1.419 . S
C917 C918 1.362 . S
C918 H910 0.930 . S
C918 C917 1.362 . S
C918 C921 1.409 . S
C919 H911 0.930 . S
C919 C920 1.355 1_556 S
C919 C921 1.415 . S
C920 C919 1.355 1_554 S
C920 C922 1.419 1_554 S
C921 C916 1.425 . S
C921 C918 1.409 . S
C921 C919 1.415 . S
C922 H912 0.930 1_556 S
C922 C920 1.419 1_556 S
C922 C923 1.362 . S
C923 H913 0.930 . S
C923 C916 1.409 . S
C923 C922 1.362 . S
H924 C930 0.930 . S
H925 C933 0.930 . S
H926 C934 0.930 . S
H927 C935 0.930 . S
H928 C938 0.930 . S
H929 C939 0.930 . S
C930 H924 0.930 . S
C930 C931 1.355 . S
C930 C932 1.415 . S
C931 C930 1.355 . S
C931 C933 1.419 . S
C932 C930 1.415 . S
C932 C937 1.425 . S
C932 C939 1.409 . S
C933 H925 0.930 . S
C933 C931 1.419 . S
C933 C934 1.362 . S
C934 H926 0.930 . S
C934 C933 1.362 . S
C934 C937 1.409 . S
C935 H927 0.930 . S
C935 C936 1.355 . S
C935 C937 1.415 . S
C936 C935 1.355 . S
C936 C938 1.419 . S
C937 C932 1.425 . S
C937 C934 1.409 . S
C937 C935 1.415 . S
C938 H928 0.930 . S
C938 C936 1.419 . S
C938 C939 1.362 . S
C939 H929 0.930 . S
C939 C932 1.409 . S
C939 C938 1.362 . S
H940 C946 0.930 . S
H941 C949 0.930 . S
H942 C950 0.930 . S
H943 C951 0.930 . S
H944 C954 0.930 . S
H945 C955 0.930 . S
C946 H940 0.930 . S
C946 C947 1.355 . S
C946 C948 1.415 . S
C947 C946 1.355 . S
C947 C949 1.419 . S
C948 C946 1.415 . S
C948 C953 1.425 . S
C948 C955 1.409 . S
C949 H941 0.930 . S
C949 C947 1.419 . S
C949 C950 1.362 . S
C950 H942 0.930 . S
C950 C949 1.362 . S
C950 C953 1.409 . S
C951 H943 0.930 . S
C951 C952 1.355 . S
C951 C953 1.415 . S
C952 C951 1.355 . S
C952 C954 1.419 . S
C953 C948 1.425 . S
C953 C950 1.409 . S
C953 C951 1.415 . S
C954 H944 0.930 . S
C954 C952 1.419 . S
C954 C955 1.362 . S
C955 H945 0.930 . S
C955 C948 1.409 . S
C955 C954 1.362 . S
H956 C962 0.930 . S
H957 C965 0.930 . S
H958 C966 0.930 . S
H959 C967 0.930 . S
H960 C970 0.930 . S
H961 C971 0.930 . S
C962 H956 0.930 . S
C962 C963 1.355 . S
C962 C964 1.415 . S
C963 C962 1.355 . S
C963 C965 1.419 . S
C964 C962 1.415 . S
C964 C969 1.425 . S
C964 C971 1.409 . S
C965 H957 0.930 . S
C965 C963 1.419 . S
C965 C966 1.362 . S
C966 H958 0.930 . S
C966 C965 1.362 . S
C966 C969 1.409 . S
C967 H959 0.930 . S
C967 C968 1.355 . S
C967 C969 1.415 . S
C968 C967 1.355 . S
C968 C970 1.419 . S
C969 C964 1.425 . S
C969 C966 1.409 . S
C969 C967 1.415 . S
C970 H960 0.930 . S
C970 C968 1.419 . S
C970 C971 1.362 . S
C971 H961 0.930 . S
C971 C964 1.409 . S
C971 C970 1.362 . S
H972 C978 0.930 . S
H973 C981 0.930 . S
H974 C982 0.930 . S
H975 C983 0.930 . S
H976 C986 0.930 1_554 S
H977 C987 0.930 1_544 S
C978 H972 0.930 . S
C978 C979 1.355 . S
C978 C980 1.415 . S
C979 C978 1.355 . S
C979 C981 1.419 . S
C980 C978 1.415 . S
C980 C985 1.425 . S
C980 C987 1.409 . S
C981 H973 0.930 . S
C981 C979 1.419 . S
C981 C982 1.362 . S
C982 H974 0.930 . S
C982 C981 1.362 . S
C982 C985 1.409 . S
C983 H975 0.930 . S
C983 C984 1.355 1_565 S
C983 C985 1.415 . S
C984 C983 1.355 1_545 S
C984 C986 1.419 . S
C985 C980 1.425 . S
C985 C982 1.409 . S
C985 C983 1.415 . S
C986 H976 0.930 1_556 S
C986 C984 1.419 . S
C986 C987 1.362 1_545 S
C987 H977 0.930 1_566 S
C987 C980 1.409 . S
C987 C986 1.362 1_565 S
H988 C994 0.930 . S
H989 C997 0.930 . S
H990 C998 0.930 . S
H991 C999 0.930 . S
H992 C1002 0.930 . S
H993 C1003 0.930 . S
C994 H988 0.930 . S
C994 C995 1.355 . S
C994 C996 1.415 1_655 S
C995 C994 1.355 . S
C995 C997 1.419 1_656 S
C996 C994 1.415 1_455 S
C996 C1001 1.425 . S
C996 C1003 1.409 . S
C997 H989 0.930 . S
C997 C995 1.419 1_454 S
C997 C998 1.362 . S
C998 H990 0.930 . S
C998 C997 1.362 . S
C998 C1001 1.409 1_554 S
C999 H991 0.930 . S
C999 C1000 1.355 . S
C999 C1001 1.415 . S
C1000 C999 1.355 . S
C1000 C1002 1.419 . S
C1001 C996 1.425 . S
C1001 C998 1.409 1_556 S
C1001 C999 1.415 . S
C1002 H992 0.930 . S
C1002 C1000 1.419 . S
C1002 C1003 1.362 . S
C1003 H993 0.930 . S
C1003 C996 1.409 . S
C1003 C1002 1.362 . S
H1004 C1010 0.930 . S
H1005 C1013 0.930 . S
H1006 C1014 0.930 . S
H1007 C1015 0.930 . S
H1008 C1018 0.930 . S
H1009 C1019 0.930 . S
C1010 H1004 0.930 . S
C1010 C1011 1.355 . S
C1010 C1012 1.415 . S
C1011 C1010 1.355 . S
C1011 C1013 1.419 . S
C1012 C1010 1.415 . S
C1012 C1017 1.425 . S
C1012 C1019 1.409 . S
C1013 H1005 0.930 . S
C1013 C1011 1.419 . S
C1013 C1014 1.362 . S
C1014 H1006 0.930 . S
C1014 C1013 1.362 . S
C1014 C1017 1.409 . S
C1015 H1007 0.930 . S
C1015 C1016 1.355 . S
C1015 C1017 1.415 . S
C1016 C1015 1.355 . S
C1016 C1018 1.419 . S
C1017 C1012 1.425 . S
C1017 C1014 1.409 . S
C1017 C1015 1.415 . S
C1018 H1008 0.930 . S
C1018 C1016 1.419 . S
C1018 C1019 1.362 . S
C1019 H1009 0.930 . S
C1019 C1012 1.409 . S
C1019 C1018 1.362 . S
H1020 C1026 0.930 . S
H1021 C1029 0.930 . S
H1022 C1030 0.930 . S
H1023 C1031 0.930 . S
H1024 C1034 0.930 . S
H1025 C1035 0.930 . S
C1026 H1020 0.930 . S
C1026 C1027 1.355 1_455 S
C1026 C1028 1.415 . S
C1027 C1026 1.355 1_655 S
C1027 C1029 1.419 . S
C1028 C1026 1.415 . S
C1028 C1033 1.425 . S
C1028 C1035 1.409 . S
C1029 H1021 0.930 . S
C1029 C1027 1.419 . S
C1029 C1030 1.362 1_655 S
C1030 H1022 0.930 . S
C1030 C1029 1.362 1_455 S
C1030 C1033 1.409 . S
C1031 H1023 0.930 . S
C1031 C1032 1.355 . S
C1031 C1033 1.415 . S
C1032 C1031 1.355 . S
C1032 C1034 1.419 . S
C1033 C1028 1.425 . S
C1033 C1030 1.409 . S
C1033 C1031 1.415 . S
C1034 H1024 0.930 . S
C1034 C1032 1.419 . S
C1034 C1035 1.362 . S
C1035 H1025 0.930 . S
C1035 C1028 1.409 . S
C1035 C1034 1.362 . S
H1036 C1042 0.930 . S
H1037 C1045 0.930 . S
H1038 C1046 0.930 . S
H1039 C1047 0.930 . S
H1040 C1050 0.930 . S
H1041 C1051 0.930 . S
C1042 H1036 0.930 . S
C1042 C1043 1.355 . S
C1042 C1044 1.415 . S
C1043 C1042 1.355 . S
C1043 C1045 1.419 . S
C1044 C1042 1.415 . S
C1044 C1049 1.425 . S
C1044 C1051 1.409 . S
C1045 H1037 0.930 . S
C1045 C1043 1.419 . S
C1045 C1046 1.362 . S
C1046 H1038 0.930 . S
C1046 C1045 1.362 . S
C1046 C1049 1.409 . S
C1047 H1039 0.930 . S
C1047 C1048 1.355 . S
C1047 C1049 1.415 . S
C1048 C1047 1.355 . S
C1048 C1050 1.419 . S
C1049 C1044 1.425 . S
C1049 C1046 1.409 . S
C1049 C1047 1.415 . S
C1050 H1040 0.930 . S
C1050 C1048 1.419 . S
C1050 C1051 1.362 . S
C1051 H1041 0.930 . S
C1051 C1044 1.409 . S
C1051 C1050 1.362 . S
H1052 C1058 0.930 . S
H1053 C1061 0.930 . S
H1054 C1062 0.930 . S
H1055 C1063 0.930 . S
H1056 C1066 0.930 . S
H1057 C1067 0.930 . S
C1058 H1052 0.930 . S
C1058 C1059 1.355 . S
C1058 C1060 1.415 . S
C1059 C1058 1.355 . S
C1059 C1061 1.419 . S
C1060 C1058 1.415 . S
C1060 C1065 1.425 . S
C1060 C1067 1.409 1_565 S
C1061 H1053 0.930 . S
C1061 C1059 1.419 . S
C1061 C1062 1.362 . S
C1062 H1054 0.930 . S
C1062 C1061 1.362 . S
C1062 C1065 1.409 . S
C1063 H1055 0.930 . S
C1063 C1064 1.355 1_565 S
C1063 C1065 1.415 . S
C1064 C1063 1.355 1_545 S
C1064 C1066 1.419 . S
C1065 C1060 1.425 . S
C1065 C1062 1.409 . S
C1065 C1063 1.415 . S
C1066 H1056 0.930 . S
C1066 C1064 1.419 . S
C1066 C1067 1.362 . S
C1067 H1057 0.930 . S
C1067 C1060 1.409 1_545 S
C1067 C1066 1.362 . S
H1068 C1074 0.930 . S
H1069 C1077 0.930 . S
H1070 C1078 0.930 . S
H1071 C1079 0.930 . S
H1072 C1082 0.930 . S
H1073 C1083 0.930 . S
C1074 H1068 0.930 . S
C1074 C1075 1.355 . S
C1074 C1076 1.415 . S
C1075 C1074 1.355 . S
C1075 C1077 1.419 . S
C1076 C1074 1.415 . S
C1076 C1081 1.425 . S
C1076 C1083 1.409 . S
C1077 H1069 0.930 . S
C1077 C1075 1.419 . S
C1077 C1078 1.362 . S
C1078 H1070 0.930 . S
C1078 C1077 1.362 . S
C1078 C1081 1.409 . S
C1079 H1071 0.930 . S
C1079 C1080 1.355 . S
C1079 C1081 1.415 . S
C1080 C1079 1.355 . S
C1080 C1082 1.419 . S
C1081 C1076 1.425 . S
C1081 C1078 1.409 . S
C1081 C1079 1.415 . S
C1082 H1072 0.930 . S
C1082 C1080 1.419 . S
C1082 C1083 1.362 . S
C1083 H1073 0.930 . S
C1083 C1076 1.409 . S
C1083 C1082 1.362 . S
H1084 C1090 0.930 . S
H1085 C1093 0.930 . S
H1086 C1094 0.930 . S
H1087 C1095 0.930 . S
H1088 C1098 0.930 . S
H1089 C1099 0.930 . S
C1090 H1084 0.930 . S
C1090 C1091 1.355 . S
C1090 C1092 1.415 . S
C1091 C1090 1.355 . S
C1091 C1093 1.419 . S
C1092 C1090 1.415 . S
C1092 C1097 1.425 . S
C1092 C1099 1.409 . S
C1093 H1085 0.930 . S
C1093 C1091 1.419 . S
C1093 C1094 1.362 . S
C1094 H1086 0.930 . S
C1094 C1093 1.362 . S
C1094 C1097 1.409 . S
C1095 H1087 0.930 . S
C1095 C1096 1.355 . S
C1095 C1097 1.415 . S
C1096 C1095 1.355 . S
C1096 C1098 1.419 . S
C1097 C1092 1.425 . S
C1097 C1094 1.409 . S
C1097 C1095 1.415 . S
C1098 H1088 0.930 . S
C1098 C1096 1.419 . S
C1098 C1099 1.362 . S
C1099 H1089 0.930 . S
C1099 C1092 1.409 . S
C1099 C1098 1.362 . S
H1100 C1106 0.930 . S
H1101 C1109 0.930 . S
H1102 C1110 0.930 . S
H1103 C1111 0.930 . S
H1104 C1114 0.930 . S
H1105 C1115 0.930 . S
C1106 H1100 0.930 . S
C1106 C1107 1.355 . S
C1106 C1108 1.415 . S
C1107 C1106 1.355 . S
C1107 C1109 1.419 . S
C1108 C1106 1.415 . S
C1108 C1113 1.425 . S
C1108 C1115 1.409 . S
C1109 H1101 0.930 . S
C1109 C1107 1.419 . S
C1109 C1110 1.362 . S
C1110 H1102 0.930 . S
C1110 C1109 1.362 . S
C1110 C1113 1.409 . S
C1111 H1103 0.930 . S
C1111 C1112 1.355 . S
C1111 C1113 1.415 . S
C1112 C1111 1.355 . S
C1112 C1114 1.419 . S
C1113 C1108 1.425 . S
C1113 C1110 1.409 . S
C1113 C1111 1.415 . S
C1114 H1104 0.930 . S
C1114 C1112 1.419 . S
C1114 C1115 1.362 . S
C1115 H1105 0.930 . S
C1115 C1108 1.409 . S
C1115 C1114 1.362 . S
H1116 C1122 0.930 . S
H1117 C1125 0.930 . S
H1118 C1126 0.930 . S
H1119 C1127 0.930 . S
H1120 C1130 0.930 . S
H1121 C1131 0.930 . S
C1122 H1116 0.930 . S
C1122 C1123 1.355 . S
C1122 C1124 1.415 . S
C1123 C1122 1.355 . S
C1123 C1125 1.419 . S
C1124 C1122 1.415 . S
C1124 C1129 1.425 . S
C1124 C1131 1.409 . S
C1125 H1117 0.930 . S
C1125 C1123 1.419 . S
C1125 C1126 1.362 . S
C1126 H1118 0.930 . S
C1126 C1125 1.362 . S
C1126 C1129 1.409 . S
C1127 H1119 0.930 . S
C1127 C1128 1.355 . S
C1127 C1129 1.415 . S
C1128 C1127 1.355 . S
C1128 C1130 1.419 . S
C1129 C1124 1.425 . S
C1129 C1126 1.409 . S
C1129 C1127 1.415 . S
C1130 H1120 0.930 . S
C1130 C1128 1.419 . S
C1130 C1131 1.362 . S
C1131 H1121 0.930 . S
C1131 C1124 1.409 . S
C1131 C1130 1.362 . S
H1132 C1138 0.930 . S
H1133 C1141 0.930 . S
H1134 C1142 0.930 . S
H1135 C1143 0.930 . S
H1136 C1146 0.930 . S
H1137 C1147 0.930 . S
C1138 H1132 0.930 . S
C1138 C1139 1.355 . S
C1138 C1140 1.415 . S
C1139 C1138 1.355 . S
C1139 C1141 1.419 . S
C1140 C1138 1.415 . S
C1140 C1145 1.425 . S
C1140 C1147 1.409 . S
C1141 H1133 0.930 . S
C1141 C1139 1.419 . S
C1141 C1142 1.362 . S
C1142 H1134 0.930 . S
C1142 C1141 1.362 . S
C1142 C1145 1.409 . S
C1143 H1135 0.930 . S
C1143 C1144 1.355 . S
C1143 C1145 1.415 . S
C1144 C1143 1.355 . S
C1144 C1146 1.419 . S
C1145 C1140 1.425 . S
C1145 C1142 1.409 . S
C1145 C1143 1.415 . S
C1146 H1136 0.930 . S
C1146 C1144 1.419 . S
C1146 C1147 1.362 . S
C1147 H1137 0.930 . S
C1147 C1140 1.409 . S
C1147 C1146 1.362 . S
H1148 C1154 0.930 . S
H1149 C1157 0.930 . S
H1150 C1158 0.930 . S
H1151 C1159 0.930 . S
H1152 C1162 0.930 . S
H1153 C1163 0.930 . S
C1154 H1148 0.930 . S
C1154 C1155 1.355 . S
C1154 C1156 1.415 . S
C1155 C1154 1.355 . S
C1155 C1157 1.419 . S
C1156 C1154 1.415 . S
C1156 C1161 1.425 . S
C1156 C1163 1.409 . S
C1157 H1149 0.930 . S
C1157 C1155 1.419 . S
C1157 C1158 1.362 . S
C1158 H1150 0.930 . S
C1158 C1157 1.362 . S
C1158 C1161 1.409 . S
C1159 H1151 0.930 . S
C1159 C1160 1.355 . S
C1159 C1161 1.415 . S
C1160 C1159 1.355 . S
C1160 C1162 1.419 . S
C1161 C1156 1.425 . S
C1161 C1158 1.409 . S
C1161 C1159 1.415 . S
C1162 H1152 0.930 . S
C1162 C1160 1.419 . S
C1162 C1163 1.362 . S
C1163 H1153 0.930 . S
C1163 C1156 1.409 . S
C1163 C1162 1.362 . S
H1164 C1170 0.930 . S
H1165 C1173 0.930 . S
H1166 C1174 0.930 . S
H1167 C1175 0.930 . S
H1168 C1178 0.930 . S
H1169 C1179 0.930 . S
C1170 H1164 0.930 . S
C1170 C1171 1.355 . S
C1170 C1172 1.415 . S
C1171 C1170 1.355 . S
C1171 C1173 1.419 . S
C1172 C1170 1.415 . S
C1172 C1177 1.425 . S
C1172 C1179 1.409 . S
C1173 H1165 0.930 . S
C1173 C1171 1.419 . S
C1173 C1174 1.362 . S
C1174 H1166 0.930 . S
C1174 C1173 1.362 . S
C1174 C1177 1.409 . S
C1175 H1167 0.930 . S
C1175 C1176 1.355 . S
C1175 C1177 1.415 . S
C1176 C1175 1.355 . S
C1176 C1178 1.419 . S
C1177 C1172 1.425 . S
C1177 C1174 1.409 . S
C1177 C1175 1.415 . S
C1178 H1168 0.930 . S
C1178 C1176 1.419 . S
C1178 C1179 1.362 . S
C1179 H1169 0.930 . S
C1179 C1172 1.409 . S
C1179 C1178 1.362 . S
H1180 C1186 0.930 . S
H1181 C1189 0.930 . S
H1182 C1190 0.930 . S
H1183 C1191 0.930 . S
H1184 C1194 0.930 . S
H1185 C1195 0.930 . S
C1186 H1180 0.930 . S
C1186 C1187 1.355 . S
C1186 C1188 1.415 . S
C1187 C1186 1.355 . S
C1187 C1189 1.419 . S
C1188 C1186 1.415 . S
C1188 C1193 1.425 . S
C1188 C1195 1.409 . S
C1189 H1181 0.930 . S
C1189 C1187 1.419 . S
C1189 C1190 1.362 . S
C1190 H1182 0.930 . S
C1190 C1189 1.362 . S
C1190 C1193 1.409 . S
C1191 H1183 0.930 . S
C1191 C1192 1.355 . S
C1191 C1193 1.415 . S
C1192 C1191 1.355 . S
C1192 C1194 1.419 . S
C1193 C1188 1.425 . S
C1193 C1190 1.409 . S
C1193 C1191 1.415 . S
C1194 H1184 0.930 . S
C1194 C1192 1.419 . S
C1194 C1195 1.362 . S
C1195 H1185 0.930 . S
C1195 C1188 1.409 . S
C1195 C1194 1.362 . S
H1196 C1202 0.930 . S
H1197 C1205 0.930 . S
H1198 C1206 0.930 . S
H1199 C1207 0.930 . S
H1200 C1210 0.930 . S
H1201 C1211 0.930 . S
C1202 H1196 0.930 . S
C1202 C1203 1.355 . S
C1202 C1204 1.415 . S
C1203 C1202 1.355 . S
C1203 C1205 1.419 . S
C1204 C1202 1.415 . S
C1204 C1209 1.425 . S
C1204 C1211 1.409 . S
C1205 H1197 0.930 . S
C1205 C1203 1.419 . S
C1205 C1206 1.362 . S
C1206 H1198 0.930 . S
C1206 C1205 1.362 . S
C1206 C1209 1.409 . S
C1207 H1199 0.930 . S
C1207 C1208 1.355 . S
C1207 C1209 1.415 . S
C1208 C1207 1.355 . S
C1208 C1210 1.419 . S
C1209 C1204 1.425 . S
C1209 C1206 1.409 . S
C1209 C1207 1.415 . S
C1210 H1200 0.930 . S
C1210 C1208 1.419 . S
C1210 C1211 1.362 . S
C1211 H1201 0.930 . S
C1211 C1204 1.409 . S
C1211 C1210 1.362 . S
H1212 C1218 0.930 . S
H1213 C1221 0.930 . S
H1214 C1222 0.930 . S
H1215 C1223 0.930 . S
H1216 C1226 0.930 . S
H1217 C1227 0.930 . S
C1218 H1212 0.930 . S
C1218 C1219 1.355 . S
C1218 C1220 1.415 . S
C1219 C1218 1.355 . S
C1219 C1221 1.419 . S
C1220 C1218 1.415 . S
C1220 C1225 1.425 . S
C1220 C1227 1.409 . S
C1221 H1213 0.930 . S
C1221 C1219 1.419 . S
C1221 C1222 1.362 . S
C1222 H1214 0.930 . S
C1222 C1221 1.362 . S
C1222 C1225 1.409 . S
C1223 H1215 0.930 . S
C1223 C1224 1.355 . S
C1223 C1225 1.415 . S
C1224 C1223 1.355 . S
C1224 C1226 1.419 . S
C1225 C1220 1.425 . S
C1225 C1222 1.409 . S
C1225 C1223 1.415 . S
C1226 H1216 0.930 . S
C1226 C1224 1.419 . S
C1226 C1227 1.362 . S
C1227 H1217 0.930 . S
C1227 C1220 1.409 . S
C1227 C1226 1.362 . S
H1228 C1234 0.930 . S
H1229 C1237 0.930 . S
H1230 C1238 0.930 . S
H1231 C1239 0.930 . S
H1232 C1242 0.930 . S
H1233 C1243 0.930 . S
C1234 H1228 0.930 . S
C1234 C1235 1.355 . S
C1234 C1236 1.415 . S
C1235 C1234 1.355 . S
C1235 C1237 1.419 . S
C1236 C1234 1.415 . S
C1236 C1241 1.425 . S
C1236 C1243 1.409 . S
C1237 H1229 0.930 . S
C1237 C1235 1.419 . S
C1237 C1238 1.362 . S
C1238 H1230 0.930 . S
C1238 C1237 1.362 . S
C1238 C1241 1.409 . S
C1239 H1231 0.930 . S
C1239 C1240 1.355 . S
C1239 C1241 1.415 . S
C1240 C1239 1.355 . S
C1240 C1242 1.419 . S
C1241 C1236 1.425 . S
C1241 C1238 1.409 . S
C1241 C1239 1.415 . S
C1242 H1232 0.930 . S
C1242 C1240 1.419 . S
C1242 C1243 1.362 . S
C1243 H1233 0.930 . S
C1243 C1236 1.409 . S
C1243 C1242 1.362 . S
H1244 C1250 0.930 . S
H1245 C1253 0.930 . S
H1246 C1254 0.930 . S
H1247 C1255 0.930 . S
H1248 C1258 0.930 . S
H1249 C1259 0.930 . S
C1250 H1244 0.930 . S
C1250 C1251 1.355 . S
C1250 C1252 1.415 . S
C1251 C1250 1.355 . S
C1251 C1253 1.419 . S
C1252 C1250 1.415 . S
C1252 C1257 1.425 . S
C1252 C1259 1.409 . S
C1253 H1245 0.930 . S
C1253 C1251 1.419 . S
C1253 C1254 1.362 . S
C1254 H1246 0.930 . S
C1254 C1253 1.362 . S
C1254 C1257 1.409 . S
C1255 H1247 0.930 . S
C1255 C1256 1.355 . S
C1255 C1257 1.415 . S
C1256 C1255 1.355 . S
C1256 C1258 1.419 . S
C1257 C1252 1.425 . S
C1257 C1254 1.409 . S
C1257 C1255 1.415 . S
C1258 H1248 0.930 . S
C1258 C1256 1.419 . S
C1258 C1259 1.362 . S
C1259 H1249 0.930 . S
C1259 C1252 1.409 . S
C1259 C1258 1.362 . S
C403 C15 0.917 . S
C408 C65 0.830 . S
C419 C21 0.829 . S
C424 C37 0.918 . S
C435 C59 0.932 . S
C440 C43 0.884 . S
C451 C103 0.851 . S
C456 C73 0.944 . S
C467 C125 0.866 . S
C472 C95 0.925 . S
C483 C117 1.004 . S
C488 C81 0.978 . S
C499 C197 0.901 . S
C504 C147 0.972 . S
C515 C169 1.006 . S
C520 C153 0.988 . S
C531 C175 0.989 . S
C536 C191 0.992 . S
C547 C213 1.006 . S
C552 C235 0.986 . S
C563 C263 0.973 . S
C568 C227 1.003 . S
C579 C257 0.949 . S
C584 C219 0.922 . S
C595 C329 0.965 . S
C600 C279 1.000 . S
C611 C301 0.984 . S
C616 C285 0.980 . S
C627 C323 0.941 . S
C632 C307 0.848 . S
C643 C345 0.958 . S
C648 C373 0.876 . S
C659 C389 0.958 . S
C664 C367 0.970 . S
C675 C351 0.880 . S
C680 C381 0.961 . S
C691 C131 1.249 . S
C696 C10 1.246 . S
C707 C87 1.224 . S
C712 C32 1.221 . S
C723 C109 1.209 . S
C728 C54 1.186 . S
C739 C29 1.246 . S
C744 C84 1.243 . S
C755 C106 1.194 . S
C760 C51 1.217 . S
C771 C7 1.176 . S
C776 C128 1.162 . S
C787 C142 1.230 . S
C792 C249 1.232 . S
C803 C164 1.234 . S
C808 C205 1.236 . S
C819 C241 1.231 . S
C824 C186 1.211 . S
C835 C208 1.181 . S
C840 C161 1.205 . S
C851 C238 1.244 . S
C856 C183 1.247 . S
C867 C252 1.169 . S
C872 C139 1.180 . S
C883 C274 1.234 . S
C888 C395 1.249 . S
C899 C296 1.169 . S
C904 C337 1.180 . S
C915 C318 1.164 . S
C920 C359 1.177 . S
C931 C340 1.236 . S
C936 C293 1.250 . S
C947 C362 1.162 . S
C952 C315 1.186 . S
C963 C392 1.193 . S
C968 C271 1.198 . S
C979 C230 2.055 . S
C984 C18 1.983 . S
C995 C40 1.997 . S
C1000 C250 2.062 . S
C1011 C206 2.062 . S
C1016 C62 1.967 . S
C1027 C74 1.997 . S
C1032 C184 2.061 . S
C1043 C96 1.996 . S
C1048 C140 2.088 . S
C1059 C162 2.071 . S
C1064 C118 1.974 . S
C1075 C150 2.002 . S
C1080 C360 2.092 . S
C1091 C172 1.977 . S
C1096 C384 2.073 . S
C1107 C194 2.020 . S
C1112 C338 2.101 . S
C1123 C316 2.091 . S
C1128 C216 2.000 . S
C1139 C272 2.051 . S
C1144 C228 1.967 . S
C1155 C294 2.063 . S
C1160 C260 1.967 . S
C1171 C98 2.102 . S
C1176 C282 2.037 . S
C1187 C304 1.976 . S
C1192 C120 2.072 . S
C1203 C76 2.095 . S
C1208 C326 2.035 . S
C1219 C348 2.035 . S
C1224 C52 2.094 . S
C1235 C370 2.011 . S
C1240 C8 2.097 . S
C1251 C30 2.055 . S
C1256 C382 1.964 . S
