# Generated by pormake.
# Topology mon, (4)-cn, num edge types: 1
# Building blocks:
#     Node 0, Type 0, BuildingBlock: TATPOV_clean_sbu_0, # of connection points: 4
#     Node 1, Type 0, BuildingBlock: TATPOV_clean_sbu_0, # of connection points: 4
#     Node 2, Type 0, BuildingBlock: TATPOV_clean_sbu_0, # of connection points: 4
#     Node 3, Type 0, BuildingBlock: TATPOV_clean_sbu_0, # of connection points: 4
#     Node 4, Type 0, BuildingBlock: TATPOV_clean_sbu_0, # of connection points: 4
#     Node 5, Type 0, BuildingBlock: TATPOV_clean_sbu_0, # of connection points: 4
#     Node 6, Type 0, BuildingBlock: TATPOV_clean_sbu_0, # of connection points: 4
#     Node 7, Type 0, BuildingBlock: TATPOV_clean_sbu_0, # of connection points: 4
#     Node 8, Type 0, BuildingBlock: TATPOV_clean_sbu_0, # of connection points: 4
#     Node 9, Type 0, BuildingBlock: TATPOV_clean_sbu_0, # of connection points: 4
#     Node 10, Type 0, BuildingBlock: TATPOV_clean_sbu_0, # of connection points: 4
#     Node 11, Type 0, BuildingBlock: TATPOV_clean_sbu_0, # of connection points: 4
#     Node 12, Type 0, BuildingBlock: TATPOV_clean_sbu_0, # of connection points: 4
#     Node 13, Type 0, BuildingBlock: TATPOV_clean_sbu_0, # of connection points: 4
#     Node 14, Type 0, BuildingBlock: TATPOV_clean_sbu_0, # of connection points: 4
#     Node 15, Type 0, BuildingBlock: TATPOV_clean_sbu_0, # of connection points: 4
#     Edge 16, Type (0, 0), BuildingBlock: XUDNAN_clean_linker_2, # of connection points: 2
#     Edge 17, Type (0, 0), BuildingBlock: XUDNAN_clean_linker_2, # of connection points: 2
#     Edge 18, Type (0, 0), BuildingBlock: XUDNAN_clean_linker_2, # of connection points: 2
#     Edge 19, Type (0, 0), BuildingBlock: XUDNAN_clean_linker_2, # of connection points: 2
#     Edge 20, Type (0, 0), BuildingBlock: XUDNAN_clean_linker_2, # of connection points: 2
#     Edge 21, Type (0, 0), BuildingBlock: XUDNAN_clean_linker_2, # of connection points: 2
#     Edge 22, Type (0, 0), BuildingBlock: XUDNAN_clean_linker_2, # of connection points: 2
#     Edge 23, Type (0, 0), BuildingBlock: XUDNAN_clean_linker_2, # of connection points: 2
#     Edge 24, Type (0, 0), BuildingBlock: XUDNAN_clean_linker_2, # of connection points: 2
#     Edge 25, Type (0, 0), BuildingBlock: XUDNAN_clean_linker_2, # of connection points: 2
#     Edge 26, Type (0, 0), BuildingBlock: XUDNAN_clean_linker_2, # of connection points: 2
#     Edge 27, Type (0, 0), BuildingBlock: XUDNAN_clean_linker_2, # of connection points: 2
#     Edge 28, Type (0, 0), BuildingBlock: XUDNAN_clean_linker_2, # of connection points: 2
#     Edge 29, Type (0, 0), BuildingBlock: XUDNAN_clean_linker_2, # of connection points: 2
#     Edge 30, Type (0, 0), BuildingBlock: XUDNAN_clean_linker_2, # of connection points: 2
#     Edge 31, Type (0, 0), BuildingBlock: XUDNAN_clean_linker_2, # of connection points: 2
#     Edge 32, Type (0, 0), BuildingBlock: XUDNAN_clean_linker_2, # of connection points: 2
#     Edge 33, Type (0, 0), BuildingBlock: XUDNAN_clean_linker_2, # of connection points: 2
#     Edge 34, Type (0, 0), BuildingBlock: XUDNAN_clean_linker_2, # of connection points: 2
#     Edge 35, Type (0, 0), BuildingBlock: XUDNAN_clean_linker_2, # of connection points: 2
#     Edge 36, Type (0, 0), BuildingBlock: XUDNAN_clean_linker_2, # of connection points: 2
#     Edge 37, Type (0, 0), BuildingBlock: XUDNAN_clean_linker_2, # of connection points: 2
#     Edge 38, Type (0, 0), BuildingBlock: XUDNAN_clean_linker_2, # of connection points: 2
#     Edge 39, Type (0, 0), BuildingBlock: XUDNAN_clean_linker_2, # of connection points: 2
#     Edge 40, Type (0, 0), BuildingBlock: XUDNAN_clean_linker_2, # of connection points: 2
#     Edge 41, Type (0, 0), BuildingBlock: XUDNAN_clean_linker_2, # of connection points: 2
#     Edge 42, Type (0, 0), BuildingBlock: XUDNAN_clean_linker_2, # of connection points: 2
#     Edge 43, Type (0, 0), BuildingBlock: XUDNAN_clean_linker_2, # of connection points: 2
#     Edge 44, Type (0, 0), BuildingBlock: XUDNAN_clean_linker_2, # of connection points: 2
#     Edge 45, Type (0, 0), BuildingBlock: XUDNAN_clean_linker_2, # of connection points: 2
#     Edge 46, Type (0, 0), BuildingBlock: XUDNAN_clean_linker_2, # of connection points: 2
#     Edge 47, Type (0, 0), BuildingBlock: XUDNAN_clean_linker_2, # of connection points: 2
# Relax obj value: 0.114
# Max RMSD: 0.120
# Mean RMSD: 0.120
data_MOF--net-mon--node1-TATPOV_clean_sbu_0--edge1-XUDNAN_clean_linker_2
_symmetry_space_group_name_H-M    P1
_symmetry_Int_Tables_number       1
_symmetry_cell_setting            triclinic
loop_
_symmetry_equiv_pos_as_xyz
'x, y, z'
_cell_length_a     33.492414
_cell_length_b     33.489796
_cell_length_c     85.856896
_cell_angle_alpha  90.108926
_cell_angle_beta   89.994942
_cell_angle_gamma 89.996909
loop_
_atom_site_label
_atom_site_type_symbol
_atom_site_fract_x
_atom_site_fract_y
_atom_site_fract_z
_atom_type_partial_charge
Zn0 Zn 0.05247 0.91128 0.54188 0.0
Zn1 Zn 0.04128 0.98541 0.55095 0.0
O2 O 0.10131 0.97472 0.55561 0.0
O3 O 0.11166 0.91713 0.54386 0.0
O4 O 0.03346 0.04366 0.55626 0.0
O5 O 0.02702 0.92083 0.52129 0.0
O6 O 0.02399 0.98423 0.5279 0.0
C7 C 0.12499 0.94715 0.55113 0.0
C8 C 0.99827 0.91787 0.56764 0.0
O9 O 0.00215 0.9552 0.5652 0.0
O10 O 0.01869 0.89293 0.55992 0.0
C11 C 0.04711 0.06099 0.56833 0.0
O12 O 0.06745 0.04016 0.57857 0.0
C13 C 0.01849 0.95654 0.51792 0.0
Zn14 Zn 0.32397 0.74541 0.79677 0.0
Zn15 Zn 0.24542 0.75246 0.80367 0.0
O16 O 0.26903 0.80079 0.81541 0.0
O17 O 0.33331 0.79409 0.81018 0.0
O18 O 0.18551 0.75488 0.8068 0.0
O19 O 0.31403 0.75248 0.77412 0.0
O20 O 0.24995 0.75595 0.77967 0.0
C21 C 0.30498 0.81283 0.81666 0.0
C22 C 0.2921 0.67681 0.81248 0.0
O23 O 0.26064 0.69812 0.8133 0.0
O24 O 0.32296 0.68976 0.80565 0.0
C25 C 0.16696 0.76953 0.81841 0.0
O26 O 0.18735 0.78556 0.8299 0.0
C27 C 0.27821 0.756 0.7697 0.0
Zn28 Zn 0.53092 0.07556 0.07425 0.0
Zn29 Zn 0.51389 0.00218 0.08271 0.0
O30 O 0.47555 0.03355 0.09715 0.0
O31 O 0.49684 0.09452 0.09215 0.0
O32 O 0.50546 0.94311 0.08695 0.0
O33 O 0.50669 0.06955 0.05326 0.0
O34 O 0.49679 0.00671 0.05966 0.0
C35 C 0.47426 0.07111 0.09967 0.0
C36 C 0.60011 0.0359 0.08394 0.0
O37 O 0.57422 0.00992 0.08794 0.0
O38 O 0.58947 0.06689 0.07668 0.0
C39 C 0.51573 0.92711 0.09975 0.0
O40 O 0.53012 0.9499 0.11089 0.0
C41 C 0.49452 0.03499 0.04976 0.0
Zn42 Zn 0.22201 0.23015 0.34161 0.0
Zn43 Zn 0.29928 0.23702 0.33829 0.0
O44 O 0.29336 0.17794 0.34525 0.0
O45 O 0.22977 0.17699 0.35185 0.0
O46 O 0.3587 0.24364 0.33454 0.0
O47 O 0.21164 0.23345 0.31876 0.0
O48 O 0.2755 0.24761 0.3164 0.0
C49 C 0.26334 0.15982 0.35099 0.0
C50 C 0.25202 0.29558 0.35888 0.0
O51 O 0.28562 0.28073 0.35489 0.0
O52 O 0.21985 0.28036 0.35399 0.0
C53 C 0.38554 0.23403 0.34434 0.0
O54 O 0.37482 0.21918 0.35786 0.0
C55 C 0.24087 0.24368 0.31036 0.0
Zn56 Zn 0.01289 0.99858 0.37769 0.0
Zn57 Zn 0.01346 0.9238 0.37808 0.0
O58 O 0.07256 0.93745 0.37189 0.0
O59 O 0.07185 0.00152 0.37756 0.0
O60 O 0.01344 0.86363 0.37995 0.0
O61 O 0.98517 0.0049 0.39811 0.0
O62 O 0.99895 0.94106 0.40046 0.0
C63 C 0.09098 0.97044 0.37385 0.0
C64 C 0.9619 0.9694 0.35476 0.0
O65 O 0.96799 0.93715 0.36228 0.0
O66 O 0.98201 1.00028 0.35794 0.0
C67 C 0.01736 0.84018 0.3684 0.0
O68 O 0.02113 0.85532 0.35437 0.0
C69 C 0.9864 0.97373 0.40636 0.0
Zn70 Zn 0.25366 0.7298 0.62419 0.0
Zn71 Zn 0.33156 0.73163 0.62792 0.0
O72 O 0.32026 0.77811 0.61238 0.0
O73 O 0.25457 0.77791 0.61076 0.0
O74 O 0.39181 0.73183 0.62936 0.0
O75 O 0.24621 0.73814 0.64704 0.0
O76 O 0.31131 0.74322 0.65022 0.0
C77 C 0.28785 0.79325 0.60731 0.0
C78 C 0.2883 0.65555 0.61644 0.0
O79 O 0.31963 0.67313 0.62132 0.0
O80 O 0.25554 0.67418 0.61563 0.0
C81 C 0.41068 0.72557 0.61674 0.0
O82 O 0.39017 0.71983 0.60388 0.0
C83 C 0.27598 0.74408 0.65581 0.0
Zn84 Zn 0.50957 0.95333 0.91539 0.0
Zn85 Zn 0.50667 0.02978 0.908 0.0
O86 O 0.46824 0.00417 0.89178 0.0
O87 O 0.47525 0.94017 0.89709 0.0
O88 O 0.50856 0.08871 0.90252 0.0
O89 O 0.48197 0.96344 0.93537 0.0
O90 O 0.48524 0.02806 0.9307 0.0
C91 C 0.45952 0.96768 0.88909 0.0
C92 C 0.5867 0.98357 0.90937 0.0
O93 O 0.56617 0.01418 0.90567 0.0
O94 O 0.56954 0.95272 0.91458 0.0
C95 C 0.48343 0.11473 0.90707 0.0
O96 O 0.4529 0.10341 0.9156 0.0
C97 C 0.47567 0.99905 0.93958 0.0
Zn98 Zn 0.30181 0.3304 0.17423 0.0
Zn99 Zn 0.2299 0.31027 0.16418 0.0
O100 O 0.26431 0.26525 0.15461 0.0
O101 O 0.32458 0.28602 0.16095 0.0
O102 O 0.17334 0.29888 0.15714 0.0
O103 O 0.28703 0.31895 0.19622 0.0
O104 O 0.22597 0.30603 0.18819 0.0
C105 C 0.30215 0.26092 0.15419 0.0
C106 C 0.26672 0.39325 0.15731 0.0
O107 O 0.24039 0.36647 0.15483 0.0
O108 O 0.29606 0.38609 0.16613 0.0
C109 C 0.16443 0.29544 0.1428 0.0
O110 O 0.19294 0.29806 0.13234 0.0
C111 C 0.25134 0.30933 0.19921 0.0
Zn112 Zn 0.72823 0.24409 0.15966 0.0
Zn113 Zn 0.79867 0.26508 0.14955 0.0
O114 O 0.76494 0.30945 0.13914 0.0
O115 O 0.70574 0.28867 0.1468 0.0
O116 O 0.85655 0.2763 0.14443 0.0
O117 O 0.73996 0.25471 0.18183 0.0
O118 O 0.79966 0.2717 0.17351 0.0
C119 C 0.72706 0.31355 0.13944 0.0
C120 C 0.76261 0.18151 0.14256 0.0
O121 O 0.78924 0.20816 0.1403 0.0
O122 O 0.73314 0.18897 0.15128 0.0
C123 C 0.87311 0.2691 0.1314 0.0
O124 O 0.85138 0.25532 0.11984 0.0
C125 C 0.77476 0.26732 0.18462 0.0
Zn126 Zn 0.83891 0.71645 0.66743 0.0
Zn127 Zn 0.76574 0.72071 0.65662 0.0
O128 O 0.7789 0.65985 0.65564 0.0
O129 O 0.83697 0.65716 0.66755 0.0
O130 O 0.70881 0.72329 0.64889 0.0
O131 O 0.82435 0.7461 0.6867 0.0
O132 O 0.76202 0.74579 0.67854 0.0
C133 C 0.80788 0.63954 0.66114 0.0
C134 C 0.83452 0.76209 0.63953 0.0
O135 O 0.79715 0.75634 0.64126 0.0
O136 O 0.8592 0.74614 0.64879 0.0
C137 C 0.70089 0.71618 0.63468 0.0
O138 O 0.73028 0.70738 0.62513 0.0
C139 C 0.78801 0.75469 0.68884 0.0
Zn140 Zn 0.84071 0.26121 0.32349 0.0
Zn141 Zn 0.76204 0.25525 0.3258 0.0
O142 O 0.7772 0.29219 0.34445 0.0
O143 O 0.84266 0.2964 0.34206 0.0
O144 O 0.70151 0.25518 0.32561 0.0
O145 O 0.83982 0.2868 0.30281 0.0
O146 O 0.77482 0.27735 0.30376 0.0
C147 C 0.81077 0.30597 0.34899 0.0
C148 C 0.81238 0.17978 0.32659 0.0
O149 O 0.77804 0.19578 0.32811 0.0
O150 O 0.84297 0.20138 0.32457 0.0
C151 C 0.6791 0.24382 0.33672 0.0
O152 O 0.69543 0.23065 0.34964 0.0
C153 C 0.80592 0.28898 0.29645 0.0
Zn154 Zn 0.71897 0.83976 0.82572 0.0
Zn155 Zn 0.79119 0.81127 0.82786 0.0
O156 O 0.75959 0.76233 0.83584 0.0
O157 O 0.69924 0.78823 0.83494 0.0
O158 O 0.84877 0.79269 0.82635 0.0
O159 O 0.71784 0.84675 0.80296 0.0
O160 O 0.77926 0.82395 0.80456 0.0
C161 C 0.72205 0.75909 0.838 0.0
C162 C 0.76576 0.88603 0.84627 0.0
O163 O 0.79102 0.85816 0.8439 0.0
O164 O 0.73286 0.88606 0.83906 0.0
C165 C 0.87807 0.80417 0.83467 0.0
O166 O 0.87181 0.82943 0.84614 0.0
C167 C 0.7501 0.83691 0.79641 0.0
Zn168 Zn 0.47025 0.48999 0.07411 0.0
Zn169 Zn 0.48924 0.56163 0.07595 0.0
O170 O 0.53561 0.53376 0.08794 0.0
O171 O 0.50844 0.47452 0.09084 0.0
O172 O 0.49961 0.62108 0.07883 0.0
O173 O 0.48814 0.48497 0.05233 0.0
O174 O 0.4932 0.55047 0.052 0.0
C175 C 0.53655 0.49866 0.09368 0.0
C176 C 0.40569 0.52911 0.08569 0.0
O177 O 0.433 0.55567 0.08641 0.0
O178 O 0.41273 0.4965 0.07882 0.0
C179 C 0.50283 0.63331 0.09282 0.0
O180 O 0.50075 0.60701 0.10414 0.0
C181 C 0.49476 0.51685 0.04494 0.0
Zn182 Zn 0.03774 0.50586 0.61072 0.0
Zn183 Zn 0.03293 0.43132 0.59956 0.0
O184 O 0.98622 0.43384 0.61536 0.0
O185 O 0.99151 0.49488 0.62477 0.0
O186 O 0.02939 0.37523 0.59102 0.0
O187 O 0.02889 0.52768 0.5888 0.0
O188 O 0.02134 0.46571 0.58062 0.0
C189 C 0.97397 0.46145 0.6244 0.0
C190 C 0.111 0.4643 0.61396 0.0
O191 O 0.09226 0.43734 0.6064 0.0
O192 O 0.09321 0.4958 0.61819 0.0
C193 C 0.04238 0.34485 0.59829 0.0
O194 O 0.05923 0.34973 0.61198 0.0
C195 C 0.02146 0.50311 0.57794 0.0
Zn196 Zn 0.47461 0.56363 0.90405 0.0
Zn197 Zn 0.49831 0.49159 0.89704 0.0
O198 O 0.54429 0.52311 0.88668 0.0
O199 O 0.51956 0.58333 0.89055 0.0
O200 O 0.50997 0.43274 0.89364 0.0
O201 O 0.4825 0.55789 0.92683 0.0
O202 O 0.49901 0.496 0.92114 0.0
C203 C 0.5462 0.56084 0.8848 0.0
C204 C 0.41668 0.52567 0.88605 0.0
O205 O 0.44452 0.4997 0.88531 0.0
O206 O 0.42068 0.55587 0.89476 0.0
C207 C 0.48509 0.40803 0.89936 0.0
O208 O 0.45374 0.42197 0.9068 0.0
C209 C 0.49316 0.52352 0.9312 0.0
Zn210 Zn 0.02937 0.43594 0.44467 0.0
Zn211 Zn 0.02662 0.50723 0.43095 0.0
O212 O 0.97704 0.478 0.42219 0.0
O213 O 0.97978 0.41881 0.43336 0.0
O214 O 0.02488 0.56085 0.4201 0.0
O215 O 0.02184 0.46168 0.46516 0.0
O216 O 0.02227 0.52154 0.45454 0.0
C217 C 0.96245 0.4433 0.42442 0.0
C218 C 0.09961 0.45146 0.42704 0.0
O219 O 0.0804 0.48308 0.42353 0.0
O220 O 0.08475 0.42629 0.43635 0.0
C221 C 0.02618 0.56198 0.4053 0.0
O222 O 0.02868 0.52823 0.39753 0.0
C223 C 0.01958 0.4992 0.46652 0.0
H224 H 0.07275 0.1083 0.59262 0.0
H225 H 0.00792 0.11235 0.54884 0.0
H226 H 0.99917 0.18503 0.55191 0.0
H227 H 0.01291 0.18233 0.61272 0.0
H228 H 0.05487 0.20369 0.6229 0.0
H229 H 0.05553 0.15176 0.61741 0.0
H230 H 0.12213 0.16269 0.60266 0.0
H231 H 0.12163 0.21466 0.60807 0.0
H232 H 0.12499 0.20065 0.58784 0.0
H233 H 0.99866 0.25742 0.55936 0.0
H234 H 0.00547 0.32454 0.57094 0.0
H235 H 0.07021 0.27365 0.60998 0.0
C236 C 0.05657 0.12441 0.5837 0.0
C237 C 0.04104 0.10451 0.57048 0.0
C238 C 0.0201 0.12682 0.55908 0.0
C239 C 0.01496 0.16816 0.56071 0.0
C240 C 0.03082 0.18684 0.57382 0.0
C241 C 0.05109 0.16573 0.58515 0.0
C242 C 0.06544 0.19315 0.59806 0.0
C243 C 0.04602 0.18207 0.6137 0.0
C244 C 0.11127 0.19276 0.59922 0.0
C245 C 0.05024 0.23298 0.59216 0.0
C246 C 0.03036 0.22864 0.57816 0.0
C247 C 0.01406 0.26119 0.57035 0.0
C248 C 0.01814 0.29923 0.57702 0.0
C249 C 0.03833 0.30444 0.59139 0.0
C250 C 0.05451 0.27072 0.59902 0.0
H251 H 0.94824 0.82359 0.84964 0.0
H252 H 0.90129 0.75643 0.81038 0.0
H253 H 0.96984 0.73867 0.80254 0.0
H254 H 0.03218 0.86412 0.83023 0.0
H255 H 0.06544 0.86015 0.84665 0.0
H256 H 0.0126 0.86589 0.84978 0.0
H257 H 0.01173 0.8014 0.8664 0.0
H258 H 0.06465 0.79555 0.86338 0.0
H259 H 0.03101 0.75562 0.85827 0.0
H260 H 0.04331 0.73118 0.79807 0.0
H261 H 0.11689 0.73266 0.79772 0.0
H262 H 0.11667 0.80394 0.84004 0.0
C263 C 0.95231 0.8048 0.83949 0.0
C264 C 0.91925 0.79141 0.83064 0.0
C265 C 0.92602 0.76701 0.81739 0.0
C266 C 0.96489 0.75676 0.81282 0.0
C267 C 0.99677 0.77089 0.82167 0.0
C268 C 0.99097 0.79414 0.83479 0.0
C269 C 0.03052 0.80611 0.84203 0.0
C270 C 0.03546 0.85178 0.84217 0.0
C271 C 0.03471 0.78862 0.8585 0.0
C272 C 0.05944 0.78654 0.83077 0.0
C273 C 0.03929 0.76628 0.81915 0.0
C274 C 0.05943 0.7467 0.80717 0.0
C275 C 0.10128 0.74781 0.80706 0.0
C276 C 0.12268 0.76835 0.81886 0.0
C277 C 0.10128 0.78781 0.83089 0.0
H278 H 0.49541 0.69817 0.07312 0.0
H279 H 0.51997 0.66604 0.12115 0.0
H280 H 0.5252 0.73726 0.12806 0.0
H281 H 0.56217 0.78322 0.07143 0.0
H282 H 0.52906 0.81269 0.05955 0.0
H283 H 0.52796 0.75902 0.05824 0.0
H284 H 0.45223 0.75961 0.06437 0.0
H285 H 0.45314 0.81327 0.06578 0.0
H286 H 0.43467 0.78394 0.08182 0.0
H287 H 0.52779 0.81175 0.12993 0.0
H288 H 0.52782 0.88488 0.12657 0.0
H289 H 0.5002 0.86962 0.07749 0.0
C290 C 0.50214 0.70613 0.08506 0.0
C291 C 0.50736 0.67638 0.09658 0.0
C292 C 0.51581 0.68814 0.11211 0.0
C293 C 0.51885 0.72859 0.11617 0.0
C294 C 0.51321 0.75711 0.1046 0.0
C295 C 0.50505 0.74651 0.08936 0.0
C296 C 0.49983 0.7833 0.07926 0.0
C297 C 0.53166 0.78463 0.06636 0.0
C298 C 0.45744 0.78512 0.07241 0.0
C299 C 0.5064 0.81612 0.0912 0.0
C300 C 0.51415 0.80029 0.10574 0.0
C301 C 0.52169 0.82452 0.11861 0.0
C302 C 0.52162 0.86608 0.11658 0.0
C303 C 0.51388 0.88312 0.10179 0.0
C304 C 0.50594 0.85761 0.08898 0.0
H305 H 0.62177 0.22144 0.35802 0.0
H306 H 0.63647 0.27026 0.31154 0.0
H307 H 0.56331 0.27344 0.30857 0.0
H308 H 0.53645 0.16008 0.34931 0.0
H309 H 0.51243 0.16905 0.36777 0.0
H310 H 0.56604 0.17087 0.36634 0.0
H311 H 0.56578 0.24245 0.37785 0.0
H312 H 0.51215 0.24086 0.37931 0.0
H313 H 0.53602 0.28061 0.36868 0.0
H314 H 0.48854 0.27123 0.31054 0.0
H315 H 0.41736 0.26343 0.31728 0.0
H316 H 0.45094 0.21597 0.36247 0.0
C317 C 0.60965 0.23283 0.34722 0.0
C318 C 0.63501 0.24561 0.33502 0.0
C319 C 0.61779 0.26028 0.32107 0.0
C320 C 0.57621 0.26223 0.31926 0.0
C321 C 0.55212 0.24941 0.33149 0.0
C322 C 0.56815 0.23497 0.3452 0.0
C323 C 0.53554 0.22295 0.35652 0.0
C324 C 0.53775 0.17807 0.3602 0.0
C325 C 0.5375 0.24824 0.37147 0.0
C326 C 0.49869 0.23283 0.34701 0.0
C327 C 0.50895 0.24809 0.33262 0.0
C328 C 0.48013 0.25932 0.32178 0.0
C329 C 0.43974 0.25477 0.32573 0.0
C330 C 0.42842 0.23909 0.34041 0.0
C331 C 0.45849 0.22807 0.35116 0.0
H332 H 0.0143 0.79938 0.39615 0.0
H333 H 0.02302 0.78166 0.34614 0.0
H334 H 0.0257 0.70872 0.35016 0.0
H335 H 0.08184 0.72118 0.40697 0.0
H336 H 0.05376 0.70671 0.42396 0.0
H337 H 0.0518 0.7575 0.41715 0.0
H338 H 0.9747 0.75324 0.41542 0.0
H339 H 0.97639 0.70244 0.42224 0.0
H340 H 0.95198 0.71397 0.40409 0.0
H341 H 0.02792 0.6377 0.35962 0.0
H342 H 0.0297 0.57373 0.3738 0.0
H343 H 0.0199 0.6377 0.41768 0.0
C344 C 0.01665 0.78021 0.38602 0.0
C345 C 0.0184 0.79633 0.37081 0.0
C346 C 0.02161 0.7701 0.3579 0.0
C347 C 0.02314 0.72859 0.36006 0.0
C348 C 0.02147 0.71374 0.3752 0.0
C349 C 0.01829 0.73873 0.38796 0.0
C350 C 0.01741 0.71516 0.40302 0.0
C351 C 0.05335 0.72577 0.41338 0.0
C352 C 0.97775 0.72159 0.4117 0.0
C353 C 0.02066 0.67297 0.39673 0.0
C354 C 0.0229 0.67283 0.38066 0.0
C355 C 0.02616 0.63744 0.3722 0.0
C356 C 0.02715 0.60123 0.38038 0.0
C357 C 0.02496 0.60059 0.39687 0.0
C358 C 0.02165 0.63709 0.40509 0.0
H359 H 0.46313 0.73477 0.64126 0.0
H360 H 0.45839 0.71282 0.59141 0.0
H361 H 0.53183 0.70909 0.5906 0.0
H362 H 0.55204 0.79639 0.64074 0.0
H363 H 0.5713 0.77649 0.65873 0.0
H364 H 0.51821 0.77809 0.65542 0.0
H365 H 0.51364 0.70201 0.66055 0.0
H366 H 0.5667 0.70017 0.66386 0.0
H367 H 0.54431 0.66828 0.64935 0.0
H368 H 0.60554 0.70644 0.59514 0.0
H369 H 0.67491 0.70544 0.60476 0.0
H370 H 0.63231 0.72938 0.65165 0.0
C371 C 0.47753 0.72932 0.63016 0.0
C372 C 0.4549 0.72409 0.61639 0.0
C373 C 0.47497 0.71693 0.60212 0.0
C374 C 0.51673 0.71477 0.60153 0.0
C375 C 0.5381 0.71989 0.61529 0.0
C376 C 0.51928 0.72708 0.62934 0.0
C377 C 0.54938 0.7311 0.64244 0.0
C378 C 0.54762 0.77302 0.64976 0.0
C379 C 0.54313 0.69844 0.65478 0.0
C380 C 0.588 0.72482 0.63356 0.0
C381 C 0.58077 0.71846 0.61791 0.0
C382 C 0.61161 0.71149 0.60736 0.0
C383 C 0.65094 0.71095 0.61295 0.0
C384 C 0.65915 0.71735 0.62896 0.0
C385 C 0.62711 0.72448 0.63934 0.0
H386 H 0.43741 0.34852 0.91088 0.0
H387 H 0.54697 0.36836 0.885 0.0
H388 H 0.55757 0.29534 0.88345 0.0
H389 H 0.47249 0.26696 0.93359 0.0
H390 H 0.42571 0.24038 0.93313 0.0
H391 H 0.4262 0.29399 0.93169 0.0
H392 H 0.38666 0.28984 0.90578 0.0
H393 H 0.38605 0.23617 0.90715 0.0
H394 H 0.40589 0.25994 0.88999 0.0
H395 H 0.55675 0.21981 0.88531 0.0
H396 H 0.54508 0.14828 0.89059 0.0
H397 H 0.43605 0.17839 0.91533 0.0
C398 C 0.46358 0.33762 0.90481 0.0
C399 C 0.49136 0.36427 0.89804 0.0
C400 C 0.52524 0.34859 0.89026 0.0
C401 C 0.53149 0.30715 0.88931 0.0
C402 C 0.50356 0.28177 0.89618 0.0
C403 C 0.47026 0.29645 0.90376 0.0
C404 C 0.44511 0.26297 0.91042 0.0
C405 C 0.44223 0.26628 0.92826 0.0
C406 C 0.40347 0.26219 0.90288 0.0
C407 C 0.46964 0.22708 0.90555 0.0
C408 C 0.50314 0.2385 0.89728 0.0
C409 C 0.53054 0.21056 0.89173 0.0
C410 C 0.52362 0.16996 0.89479 0.0
C411 C 0.48961 0.15759 0.90337 0.0
C412 C 0.46228 0.18673 0.90871 0.0
H413 H 0.09721 0.29811 0.16115 0.0
H414 H 0.13615 0.28092 0.11337 0.0
H415 H 0.0659 0.2733 0.10512 0.0
H416 H 0.01645 0.22739 0.16033 0.0
H417 H 0.98415 0.25748 0.17236 0.0
H418 H 0.03752 0.26126 0.17445 0.0
H419 H 0.0334 0.33753 0.16965 0.0
H420 H 0.98004 0.33395 0.16748 0.0
H421 H 0.00974 0.35579 0.1522 0.0
H422 H 0.99106 0.26688 0.10214 0.0
H423 H 0.91767 0.26232 0.10469 0.0
H424 H 0.92796 0.28524 0.15432 0.0
C425 C 0.09104 0.2926 0.14896 0.0
C426 C 0.12228 0.29003 0.13792 0.0
C427 C 0.11279 0.28301 0.12206 0.0
C428 C 0.07295 0.27866 0.11725 0.0
C429 C 0.04289 0.28156 0.12842 0.0
C430 C 0.05147 0.28842 0.14394 0.0
C431 C 0.01369 0.29051 0.15361 0.0
C432 C 0.01292 0.25717 0.16591 0.0
C433 C 0.00895 0.33191 0.16118 0.0
C434 C 0.98251 0.28363 0.14112 0.0
C435 C 0.99992 0.27847 0.12667 0.0
C436 C 0.9771 0.271 0.11339 0.0
C437 C 0.93542 0.26848 0.11496 0.0
C438 C 0.91696 0.27358 0.12968 0.0
C439 C 0.94102 0.2815 0.14287 0.0
H440 H 0.99222 0.9145 0.4281 0.0
H441 H 0.96215 0.03981 0.42265 0.0
H442 H 0.95878 0.04728 0.45117 0.0
H443 H 0.93111 0.89696 0.46424 0.0
H444 H 0.96867 0.86417 0.47212 0.0
H445 H 0.96137 0.86706 0.45135 0.0
H446 H 0.0363 0.88414 0.44782 0.0
H447 H 0.04377 0.88182 0.46851 0.0
H448 H 0.05706 0.92644 0.45801 0.0
H449 H 0.96988 0.04386 0.47997 0.0
H450 H 0.99093 0.02849 0.50691 0.0
H451 H 0.01266 0.90542 0.49332 0.0
C452 C 0.98368 0.94321 0.43288 0.0
C453 C 0.97749 0.97653 0.42316 0.0
C454 C 0.96696 0.01378 0.42987 0.0
C455 C 0.96487 0.01834 0.44607 0.0
C456 C 0.97283 0.98525 0.45535 0.0
C457 C 0.98142 0.94825 0.44899 0.0
C458 C 0.99258 0.91841 0.46143 0.0
C459 C 0.96157 0.88466 0.46234 0.0
C460 C 0.03493 0.90177 0.45878 0.0
C461 C 0.9908 0.94491 0.47567 0.0
C462 C 0.97886 0.98322 0.472 0.0
C463 C 0.9784 0.01374 0.48307 0.0
C464 C 0.99062 0.00481 0.4983 0.0
C465 C 0.00325 0.96575 0.50222 0.0
C466 C 0.00269 0.93546 0.49076 0.0
H467 H 0.33193 0.75335 0.74577 0.0
H468 H 0.20521 0.76519 0.75556 0.0
H469 H 0.19145 0.76754 0.72729 0.0
H470 H 0.3345 0.81838 0.7118 0.0
H471 H 0.37024 0.7875 0.70171 0.0
H472 H 0.37026 0.78944 0.72268 0.0
H473 H 0.36303 0.71243 0.72376 0.0
H474 H 0.36294 0.71024 0.70281 0.0
H475 H 0.32219 0.68874 0.71365 0.0
H476 H 0.19134 0.76484 0.69817 0.0
H477 H 0.20433 0.7569 0.67012 0.0
H478 H 0.33143 0.74673 0.67944 0.0
C479 C 0.30127 0.75688 0.74202 0.0
C480 C 0.2696 0.75918 0.75288 0.0
C481 C 0.22992 0.76345 0.74745 0.0
C482 C 0.22184 0.76489 0.73143 0.0
C483 C 0.25379 0.76216 0.72107 0.0
C484 C 0.2927 0.75832 0.72614 0.0
C485 C 0.32149 0.75421 0.71264 0.0
C486 C 0.35085 0.78949 0.71218 0.0
C487 C 0.3437 0.71401 0.71326 0.0
C488 C 0.2926 0.75569 0.69914 0.0
C489 C 0.25374 0.76055 0.70426 0.0
C490 C 0.22164 0.76133 0.69401 0.0
C491 C 0.22939 0.75668 0.67809 0.0
C492 C 0.26896 0.75121 0.67257 0.0
C493 C 0.30094 0.75116 0.68327 0.0
H494 H 0.50444 0.08149 0.02406 0.0
H495 H 0.44945 0.9715 0.03993 0.0
H496 H 0.42623 0.95787 0.01313 0.0
H497 H 0.43024 0.10607 -0.00732 0.0
H498 H 0.46906 0.12384 0.97991 0.0
H499 H 0.4743 0.12915 0.00071 0.0
H500 H 0.54195 0.09158 -0.00036 0.0
H501 H 0.53702 0.08644 0.97892 0.0
H502 H 0.54405 0.04272 -0.00918 0.0
H503 H 0.41745 0.95142 0.98472 0.0
H504 H 0.429 0.94902 0.95643 0.0
H505 H 0.49064 0.06275 0.9587 0.0
C506 C 0.48657 0.05507 0.02198 0.0
C507 C 0.47842 0.02767 0.03405 0.0
C508 C 0.45591 0.9929 0.03082 0.0
C509 C 0.44226 0.98516 0.01569 0.0
C510 C 0.45135 0.01253 0.00399 0.0
C511 C 0.47312 0.04674 0.00695 0.0
C512 C 0.48378 0.06838 -0.00795 0.0
C513 C 0.4631 0.10929 -0.0087 0.0
C514 C 0.52938 0.07248 -0.00974 0.0
C515 C 0.46643 0.03985 0.98017 0.0
C516 C 0.44684 0.00846 0.98735 0.0
C517 C 0.43198 0.97618 0.97895 0.0
C518 C 0.43879 0.97504 0.9629 0.0
C519 C 0.46057 0.00582 0.95545 0.0
C520 C 0.47309 0.03938 0.96408 0.0
H521 H 0.30003 0.31125 0.22467 0.0
H522 H 0.17804 0.28608 0.21054 0.0
H523 H 0.1617 0.26728 0.23768 0.0
H524 H 0.31019 0.23025 0.25073 0.0
H525 H 0.33994 0.25763 0.26461 0.0
H526 H 0.34135 0.27091 0.24431 0.0
H527 H 0.32149 0.34364 0.25124 0.0
H528 H 0.32027 0.33065 0.27158 0.0
H529 H 0.277 0.35266 0.26253 0.0
H530 H 0.15967 0.24938 0.26619 0.0
H531 H 0.17137 0.23473 0.29395 0.0
H532 H 0.29519 0.27115 0.28896 0.0
C533 C 0.26971 0.30214 0.22724 0.0
C534 C 0.24025 0.3002 0.21548 0.0
C535 C 0.20106 0.28789 0.21938 0.0
C536 C 0.19154 0.27713 0.23473 0.0
C537 C 0.22155 0.27892 0.24598 0.0
C538 C 0.25979 0.29125 0.24241 0.0
C539 C 0.28693 0.28975 0.25647 0.0
C540 C 0.32164 0.26038 0.25387 0.0
C541 C 0.30231 0.33167 0.2607 0.0
C542 C 0.25805 0.27436 0.26856 0.0
C543 C 0.22048 0.2684 0.2623 0.0
C544 C 0.18893 0.25405 0.27122 0.0
C545 C 0.19594 0.24577 0.28698 0.0
C546 C 0.23424 0.25178 0.29364 0.0
C547 C 0.26562 0.26618 0.28424 0.0
H548 H 0.72958 0.25693 0.2107 0.0
H549 H 0.84382 0.30298 0.1949 0.0
H550 H 0.86019 0.32252 0.22194 0.0
H551 H 0.71112 0.33212 0.24094 0.0
H552 H 0.68925 0.29618 0.25401 0.0
H553 H 0.68497 0.28937 0.23324 0.0
H554 H 0.71686 0.21903 0.23552 0.0
H555 H 0.72073 0.22545 0.25625 0.0
H556 H 0.76462 0.21374 0.24498 0.0
H557 H 0.86587 0.33236 0.25072 0.0
H558 H 0.86323 0.32666 0.27931 0.0
H559 H 0.74489 0.27443 0.27608 0.0
C560 C 0.75792 0.27149 0.21285 0.0
C561 C 0.78541 0.27855 0.20069 0.0
C562 C 0.82233 0.29728 0.20405 0.0
C563 C 0.83172 0.30877 0.21933 0.0
C564 C 0.80376 0.30149 0.23102 0.0
C565 C 0.76771 0.2831 0.22796 0.0
C566 C 0.74414 0.27573 0.24269 0.0
C567 C 0.70506 0.2998 0.24271 0.0
C568 C 0.73616 0.23083 0.24499 0.0
C569 C 0.77316 0.2917 0.25464 0.0
C570 C 0.80705 0.30708 0.24765 0.0
C571 C 0.83931 0.32087 0.25633 0.0
C572 C 0.83751 0.31748 0.27255 0.0
C573 C 0.80378 0.30016 0.27989 0.0
C574 C 0.77072 0.28843 0.27082 0.0
H575 H 0.83242 0.76156 0.71525 0.0
H576 H 0.7171 0.79226 0.69551 0.0
H577 H 0.69808 0.82458 0.72037 0.0
H578 H 0.79669 0.73444 0.75182 0.0
H579 H 0.839 0.7536 0.76244 0.0
H580 H 0.84497 0.73735 0.74261 0.0
H581 H 0.87386 0.80669 0.73531 0.0
H582 H 0.86773 0.82324 0.75516 0.0
H583 H 0.84532 0.85108 0.73948 0.0
H584 H 0.69042 0.84957 0.74771 0.0
H585 H 0.69185 0.86026 0.77607 0.0
H586 H 0.81188 0.81135 0.77795 0.0
C587 C 0.80336 0.77563 0.71604 0.0
C588 C 0.77629 0.77471 0.70344 0.0
C589 C 0.73828 0.79272 0.70504 0.0
C590 C 0.72738 0.81137 0.71905 0.0
C591 C 0.75483 0.8116 0.73126 0.0
C592 C 0.79194 0.79397 0.72991 0.0
C593 C 0.81464 0.79507 0.74513 0.0
C594 C 0.82436 0.7526 0.75083 0.0
C595 C 0.85264 0.82055 0.74368 0.0
C596 C 0.78405 0.81516 0.75543 0.0
C597 C 0.75009 0.82515 0.74714 0.0
C598 C 0.71695 0.8422 0.75429 0.0
C599 C 0.71811 0.84813 0.77043 0.0
C600 C 0.752 0.83655 0.77924 0.0
C601 C 0.7857 0.82081 0.77153 0.0
H602 H 0.48001 0.5752 0.95539 0.0
H603 H 0.52034 0.45479 0.9449 0.0
H604 H 0.53068 0.44265 0.97297 0.0
H605 H 0.5482 0.59399 0.98776 0.0
H606 H 0.51148 0.62137 -0.00119 0.0
H607 H 0.50968 0.62162 0.97783 0.0
H608 H 0.43669 0.59598 0.9786 0.0
H609 H 0.43819 0.59583 -0.00045 0.0
H610 H 0.42531 0.55086 0.98913 0.0
H611 H 0.53321 0.44235 0.00184 0.0
H612 H 0.52526 0.45238 0.03004 0.0
H613 H 0.48345 0.57333 0.022 0.0
C614 C 0.49133 0.54634 0.95895 0.0
C615 C 0.49948 0.51592 0.94794 0.0
C616 C 0.51393 0.47851 0.95312 0.0
C617 C 0.52007 0.47142 0.96902 0.0
C618 C 0.51174 0.50209 0.97953 0.0
C619 C 0.4976 0.53877 0.97474 0.0
C620 C 0.48905 0.56594 0.98848 0.0
C621 C 0.51623 0.60292 0.9882 0.0
C622 C 0.44468 0.57783 0.98897 0.0
C623 C 0.49978 0.53845 0.0018 0.0
C624 C 0.51318 0.50194 -0.00368 0.0
C625 C 0.52306 0.47086 0.00628 0.0
C626 C 0.51831 0.47688 0.02227 0.0
C627 C 0.50372 0.51367 0.02818 0.0
C628 C 0.49516 0.54515 0.01781 0.0
H629 H 0.98246 0.46375 0.55496 0.0
H630 H 0.04637 0.57355 0.56465 0.0
H631 H 0.0434 0.59124 0.53666 0.0
H632 H 0.03167 0.43886 0.52222 0.0
H633 H 0.98941 0.41835 0.51196 0.0
H634 H 0.98982 0.41877 0.53285 0.0
H635 H 0.92284 0.45768 0.53312 0.0
H636 H 0.92214 0.45725 0.51213 0.0
H637 H 0.91867 0.50392 0.52253 0.0
H638 H 0.04312 0.59052 0.50683 0.0
H639 H 0.04514 0.57121 0.47885 0.0
H640 H 0.98022 0.46288 0.48975 0.0
C641 C 0.99493 0.49203 0.55127 0.0
C642 C 0.01469 0.51724 0.5619 0.0
C643 C 0.0308 0.55394 0.55666 0.0
C644 C 0.0292 0.56423 0.54079 0.0
C645 C 0.01063 0.53788 0.53047 0.0
C646 C 0.99323 0.5028 0.53562 0.0
C647 C 0.9786 0.47743 0.52228 0.0
C648 C 0.99859 0.43595 0.52233 0.0
C649 C 0.93284 0.47389 0.52253 0.0
C650 C 0.99251 0.50245 0.50874 0.0
C651 C 0.01022 0.53765 0.51355 0.0
C652 C 0.02853 0.56346 0.50293 0.0
C653 C 0.02955 0.55237 0.48709 0.0
C654 C 0.01296 0.51556 0.48224 0.0
C655 C 0.99315 0.49123 0.49316 0.0
H656 H 0.25084 0.86107 0.61509 0.0
H657 H 0.32016 0.80585 0.5785 0.0
H658 H 0.29881 0.85878 0.56024 0.0
H659 H 0.17113 0.87505 0.59617 0.0
H660 H 0.15584 0.92291 0.60376 0.0
H661 H 0.18807 0.89181 0.61503 0.0
H662 H 0.24036 0.94858 0.61666 0.0
H663 H 0.20785 0.98031 0.60539 0.0
H664 H 0.25844 0.97164 0.59906 0.0
H665 H 0.25309 0.90005 0.54483 0.0
H666 H 0.19018 0.92649 0.53413 0.0
H667 H 0.15144 0.95929 0.58042 0.0
C668 C 0.26331 0.8618 0.60346 0.0
C669 C 0.28744 0.83015 0.59814 0.0
C670 C 0.30241 0.83057 0.58279 0.0
C671 C 0.29034 0.86056 0.57239 0.0
C672 C 0.26405 0.89012 0.57768 0.0
C673 C 0.25158 0.89159 0.59304 0.0
C674 C 0.21779 0.92118 0.59525 0.0
C675 C 0.18109 0.90152 0.60297 0.0
C676 C 0.23197 0.95759 0.60464 0.0
C677 C 0.20976 0.93243 0.57848 0.0
C678 C 0.23774 0.91543 0.56856 0.0
C679 C 0.23209 0.91495 0.55246 0.0
C680 C 0.19625 0.93002 0.54645 0.0
C681 C 0.16665 0.94563 0.55649 0.0
C682 C 0.17452 0.94902 0.57254 0.0
H683 H 0.31758 0.81256 0.84762 0.0
H684 H 0.3194 0.88868 0.80701 0.0
H685 H 0.35179 0.94233 0.82245 0.0
H686 H 0.30585 0.89378 0.87803 0.0
H687 H 0.339 0.86794 0.89112 0.0
H688 H 0.3079 0.83999 0.87787 0.0
H689 H 0.37076 0.8043 0.86706 0.0
H690 H 0.40204 0.83244 0.88004 0.0
H691 H 0.41125 0.83377 0.85936 0.0
H692 H 0.39257 0.98368 0.84156 0.0
H693 H 0.43896 0.00758 0.86214 0.0
H694 H 0.41263 0.90194 0.8894 0.0
C695 C 0.32313 0.84129 0.84226 0.0
C696 C 0.31501 0.84737 0.82638 0.0
C697 C 0.32445 0.8843 0.81935 0.0
C698 C 0.34288 0.91477 0.82802 0.0
C699 C 0.35179 0.9075 0.84364 0.0
C700 C 0.34192 0.87166 0.8507 0.0
C701 C 0.35932 0.86888 0.86689 0.0
C702 C 0.32603 0.86759 0.87921 0.0
C703 C 0.38751 0.83273 0.86841 0.0
C704 C 0.38199 0.90785 0.8676 0.0
C705 C 0.37664 0.9303 0.85429 0.0
C706 C 0.39652 0.96657 0.85212 0.0
C707 C 0.42283 0.9799 0.86382 0.0
C708 C 0.42954 0.95645 0.87725 0.0
C709 C 0.40828 0.92041 0.87919 0.0
H710 H 0.4808 0.14115 0.11536 0.0
H711 H 0.39989 0.0422 0.10732 0.0
H712 H 0.34624 0.07908 0.12116 0.0
H713 H 0.44261 0.1683 0.15432 0.0
H714 H 0.45021 0.22079 0.15078 0.0
H715 H 0.48235 0.1845 0.14166 0.0
H716 H 0.46515 0.21441 0.11465 0.0
H717 H 0.43241 0.25026 0.12363 0.0
H718 H 0.41366 0.21749 0.10865 0.0
H719 H 0.29942 0.13144 0.13324 0.0
H720 H 0.26641 0.19039 0.14513 0.0
H721 H 0.37991 0.25284 0.14549 0.0
C722 C 0.45204 0.12682 0.1168 0.0
C723 C 0.44441 0.08886 0.1103 0.0
C724 C 0.40642 0.07111 0.11238 0.0
C725 C 0.37575 0.09197 0.12012 0.0
C726 C 0.38392 0.13013 0.12589 0.0
C727 C 0.42148 0.14692 0.12459 0.0
C728 C 0.42272 0.18862 0.13131 0.0
C729 C 0.45115 0.19065 0.14535 0.0
C730 C 0.43415 0.21949 0.11881 0.0
C731 C 0.37972 0.19328 0.13627 0.0
C732 C 0.35761 0.1594 0.13306 0.0
C733 C 0.31664 0.15785 0.13601 0.0
C734 C 0.29809 0.19155 0.14265 0.0
C735 C 0.32061 0.22612 0.14633 0.0
C736 C 0.36188 0.22676 0.14299 0.0
H737 H 0.14105 0.00788 0.39309 0.0
H738 H 0.13632 0.94634 0.34889 0.0
H739 H 0.2008 0.97689 0.34142 0.0
H740 H 0.16011 0.09311 0.37993 0.0
H741 H 0.19346 0.11168 0.39477 0.0
H742 H 0.15903 0.07282 0.39938 0.0
H743 H 0.21711 0.02761 0.40856 0.0
H744 H 0.2521 0.06688 0.40404 0.0
H745 H 0.25858 0.01785 0.39573 0.0
H746 H 0.25088 0.02935 0.33551 0.0
H747 H 0.27707 0.09749 0.33147 0.0
H748 H 0.2476 0.12791 0.37898 0.0
C749 C 0.15508 0.99907 0.38224 0.0
C750 C 0.13435 0.97461 0.37162 0.0
C751 C 0.15238 0.96431 0.35731 0.0
C752 C 0.189 0.9817 0.353 0.0
C753 C 0.2072 0.00876 0.36324 0.0
C754 C 0.19106 0.0167 0.37778 0.0
C755 C 0.21024 0.05294 0.38525 0.0
C756 C 0.17884 0.08445 0.39007 0.0
C757 C 0.23605 0.04056 0.39922 0.0
C758 C 0.23605 0.06718 0.37192 0.0
C759 C 0.23577 0.04021 0.35965 0.0
C760 C 0.2525 0.04991 0.34523 0.0
C761 C 0.26755 0.08865 0.34302 0.0
C762 C 0.26489 0.1173 0.35507 0.0
C763 C 0.251 0.1058 0.36985 0.0
H764 H 0.95965 0.00522 0.32687 0.0
H765 H 0.88502 0.95151 0.36206 0.0
H766 H 0.82777 0.9916 0.35303 0.0
H767 H 0.93685 0.09366 0.33323 0.0
H768 H 0.93563 0.11407 0.31382 0.0
H769 H 0.96448 0.07031 0.31763 0.0
H770 H 0.92636 0.03085 0.29642 0.0
H771 H 0.89784 0.07514 0.29206 0.0
H772 H 0.87257 0.02919 0.29675 0.0
H773 H 0.78795 0.05277 0.34694 0.0
H774 H 0.76877 0.12347 0.34275 0.0
H775 H 0.8695 0.138 0.31168 0.0
C776 C 0.93038 0.99984 0.3318 0.0
C777 C 0.92639 0.97517 0.34496 0.0
C778 C 0.88831 0.96957 0.35169 0.0
C779 C 0.85567 0.99259 0.34669 0.0
C780 C 0.86159 0.02021 0.33473 0.0
C781 C 0.89784 0.02283 0.32697 0.0
C782 C 0.89963 0.05965 0.3168 0.0
C783 C 0.93625 0.08592 0.32063 0.0
C784 C 0.89904 0.048 0.29948 0.0
C785 C 0.86101 0.0797 0.32145 0.0
C786 C 0.83858 0.05602 0.33131 0.0
C787 C 0.80456 0.07096 0.33879 0.0
C788 C 0.79392 0.11118 0.33642 0.0
C789 C 0.81784 0.13603 0.32696 0.0
C790 C 0.85069 0.1195 0.31896 0.0
H791 H 0.62323 0.02086 0.11344 0.0
H792 H 0.66788 0.05273 0.06793 0.0
H793 H 0.73112 0.0752 0.07962 0.0
H794 H 0.64454 0.10186 0.12981 0.0
H795 H 0.65971 0.08492 0.14884 0.0
H796 H 0.6277 0.05437 0.13722 0.0
H797 H 0.67775 0.99572 0.13907 0.0
H798 H 0.71011 0.02622 0.15096 0.0
H799 H 0.72912 0.00306 0.1335 0.0
H800 H 0.77664 0.11435 0.09574 0.0
H801 H 0.79736 0.16687 0.1142 0.0
H802 H 0.72362 0.11326 0.1499 0.0
C803 C 0.6476 0.02994 0.10595 0.0
C804 C 0.64131 0.03443 0.08984 0.0
C805 C 0.67266 0.04842 0.0803 0.0
C806 C 0.70874 0.06117 0.08687 0.0
C807 C 0.71292 0.05995 0.10303 0.0
C808 C 0.68333 0.04397 0.11248 0.0
C809 C 0.69033 0.0548 0.12941 0.0
C810 C 0.65342 0.07524 0.13671 0.0
C811 C 0.70257 0.01774 0.13879 0.0
C812 C 0.72514 0.08336 0.12774 0.0
C813 C 0.73922 0.08426 0.1126 0.0
C814 C 0.76684 0.11297 0.10774 0.0
C815 C 0.77852 0.1428 0.11831 0.0
C816 C 0.76189 0.14408 0.13342 0.0
C817 C 0.73695 0.11261 0.13842 0.0
H818 H 0.74305 0.96296 0.84682 0.0
H819 H 0.79215 0.86929 0.87551 0.0
H820 H 0.76492 0.90199 0.89887 0.0
H821 H 0.74117 0.04735 0.88059 0.0
H822 H 0.69485 0.06515 0.87248 0.0
H823 H 0.73396 0.04733 0.85979 0.0
H824 H 0.6838 0.99829 0.84726 0.0
H825 H 0.64511 0.01475 0.86002 0.0
H826 H 0.65822 0.96254 0.8594 0.0
H827 H 0.7108 0.92439 0.91562 0.0
H828 H 0.64284 0.93979 0.92474 0.0
H829 H 0.62695 0.02141 0.88624 0.0
C830 C 0.75046 0.95126 0.85821 0.0
C831 C 0.76945 0.91384 0.85948 0.0
C832 C 0.77817 0.89831 0.87435 0.0
C833 C 0.76248 0.9167 0.8877 0.0
C834 C 0.7391 0.95099 0.88592 0.0
C835 C 0.73448 0.96921 0.87155 0.0
C836 C 0.70139 1.00017 0.87197 0.0
C837 C 0.7189 0.04251 0.87117 0.0
C838 C 0.67033 0.99342 0.85892 0.0
C839 C 0.6841 0.99208 0.88794 0.0
C840 C 0.70731 0.96492 0.89608 0.0
C841 C 0.69339 0.94694 0.90969 0.0
C842 C 0.65454 0.95557 0.91473 0.0
C843 C 0.62998 0.98204 0.90621 0.0
C844 C 0.64571 0.00199 0.89315 0.0
H845 H 0.9058 0.75666 0.62473 0.0
H846 H 0.79835 0.82857 0.6273 0.0
H847 H 0.82904 0.87819 0.6095 0.0
H848 H 0.97569 0.83485 0.62446 0.0
H849 H 0.00886 0.81132 0.6107 0.0
H850 H 0.97785 0.78116 0.62311 0.0
H851 H 0.94755 0.74566 0.59898 0.0
H852 H 0.97899 0.77521 0.5865 0.0
H853 H 0.92567 0.77515 0.58365 0.0
H854 H 0.87488 0.92255 0.59308 0.0
H855 H 0.92741 0.95255 0.57641 0.0
H856 H 0.00218 0.84865 0.58394 0.0
C857 C 0.88854 0.78264 0.62141 0.0
C858 C 0.84986 0.78902 0.62738 0.0
C859 C 0.82799 0.82314 0.62272 0.0
C860 C 0.84529 0.85154 0.61274 0.0
C861 C 0.88407 0.84483 0.60738 0.0
C862 C 0.90499 0.81072 0.61131 0.0
C863 C 0.94584 0.80989 0.60388 0.0
C864 C 0.979 0.80928 0.61628 0.0
C865 C 0.94972 0.77438 0.59258 0.0
C866 C 0.94503 0.84915 0.59528 0.0
C867 C 0.90943 0.86923 0.59755 0.0
C868 C 0.90266 0.90684 0.5911 0.0
C869 C 0.93271 0.92378 0.58177 0.0
C870 C 0.96863 0.90275 0.57887 0.0
C871 C 0.97484 0.86523 0.58587 0.0
H872 H 0.64734 0.32756 0.13845 0.0
H873 H 0.76076 0.37783 0.12386 0.0
H874 H 0.72481 0.43597 0.11264 0.0
H875 H 0.59245 0.35411 0.10527 0.0
H876 H 0.54734 0.36402 0.11605 0.0
H877 H 0.58289 0.32846 0.12333 0.0
H878 H 0.58673 0.3678 0.14936 0.0
H879 H 0.55158 0.4039 0.14204 0.0
H880 H 0.59963 0.42006 0.1491 0.0
H881 H 0.67408 0.48783 0.10213 0.0
H882 H 0.61489 0.5238 0.09179 0.0
H883 H 0.53734 0.43775 0.11425 0.0
C884 C 0.66495 0.35072 0.13296 0.0
C885 C 0.70694 0.34809 0.13205 0.0
C886 C 0.72853 0.37916 0.12467 0.0
C887 C 0.70837 0.41238 0.11837 0.0
C888 C 0.66679 0.41403 0.11965 0.0
C889 C 0.64553 0.38375 0.12675 0.0
C890 C 0.60113 0.39099 0.12617 0.0
C891 C 0.57972 0.35742 0.11716 0.0
C892 C 0.58376 0.396 0.14265 0.0
C893 C 0.60032 0.42983 0.11735 0.0
C894 C 0.63831 0.44319 0.11379 0.0
C895 C 0.64428 0.47773 0.10499 0.0
C896 C 0.61055 0.49815 0.09927 0.0
C897 C 0.57161 0.48354 0.10227 0.0
C898 C 0.56673 0.44972 0.11182 0.0
H899 H 0.85115 0.37522 0.34929 0.0
H900 H 0.78055 0.29698 0.37839 0.0
H901 H 0.80295 0.33429 0.40178 0.0
H902 H 0.93201 0.37749 0.37079 0.0
H903 H 0.9456 0.42909 0.36808 0.0
H904 H 0.91605 0.40411 0.35364 0.0
H905 H 0.86093 0.45797 0.35612 0.0
H906 H 0.89071 0.48375 0.37046 0.0
H907 H 0.84016 0.46939 0.37498 0.0
H908 H 0.84672 0.36706 0.42151 0.0
H909 H 0.9026 0.39748 0.4361 0.0
H910 H 0.94193 0.45793 0.39429 0.0
C911 C 0.83897 0.3673 0.36056 0.0
C912 C 0.81397 0.33371 0.36218 0.0
C913 C 0.79913 0.3232 0.377 0.0
C914 C 0.81182 0.34418 0.3903 0.0
C915 C 0.83837 0.37602 0.38841 0.0
C916 C 0.85087 0.38828 0.37383 0.0
C917 C 0.88309 0.4199 0.37492 0.0
C918 C 0.92142 0.40682 0.36636 0.0
C919 C 0.86779 0.46015 0.36876 0.0
C920 C 0.88915 0.42132 0.39235 0.0
C921 C 0.86267 0.39624 0.39996 0.0
C922 C 0.86654 0.3879 0.41578 0.0
C923 C 0.89849 0.40505 0.42394 0.0
C924 C 0.92593 0.43048 0.4163 0.0
C925 C 0.92048 0.43963 0.40045 0.0
H926 H 0.95947 0.47661 0.6546 0.0
H927 H 0.90224 0.44552 0.61122 0.0
H928 H 0.83879 0.4735 0.62083 0.0
H929 H 0.85918 0.47129 0.68056 0.0
H930 H 0.87796 0.51281 0.69176 0.0
H931 H 0.91182 0.47501 0.68468 0.0
H932 H 0.9541 0.53002 0.67152 0.0
H933 H 0.92044 0.56759 0.67818 0.0
H934 H 0.93076 0.56304 0.65763 0.0
H935 H 0.7938 0.52693 0.62999 0.0
H936 H 0.77114 0.59348 0.63872 0.0
H937 H 0.85421 0.58831 0.67727 0.0
C938 C 0.93261 0.47306 0.64772 0.0
C939 C 0.93527 0.45869 0.63235 0.0
C940 C 0.90037 0.45557 0.62321 0.0
C941 C 0.86421 0.47167 0.62858 0.0
C942 C 0.86335 0.48963 0.64328 0.0
C943 C 0.89638 0.48884 0.65304 0.0
C944 C 0.89084 0.51654 0.66682 0.0
C945 C 0.88456 0.49247 0.68184 0.0
C946 C 0.92607 0.54603 0.66859 0.0
C947 C 0.85269 0.53741 0.66208 0.0
C948 C 0.83619 0.52044 0.64885 0.0
C949 C 0.8054 0.53943 0.6407 0.0
C950 C 0.79266 0.57735 0.64572 0.0
C951 C 0.81112 0.59596 0.65863 0.0
C952 C 0.83949 0.57451 0.66741 0.0
H953 H 0.64315 0.74455 0.84234 0.0
H954 H 0.75961 0.68919 0.84727 0.0
H955 H 0.72713 0.62828 0.85784 0.0
H956 H 0.60276 0.71001 0.87715 0.0
H957 H 0.55325 0.70338 0.86933 0.0
H958 H 0.58597 0.74023 0.86107 0.0
H959 H 0.57739 0.70774 0.83381 0.0
H960 H 0.54471 0.67059 0.84202 0.0
H961 H 0.58839 0.65544 0.83126 0.0
H962 H 0.67987 0.57413 0.86926 0.0
H963 H 0.62444 0.53563 0.88136 0.0
H964 H 0.54164 0.62949 0.8686 0.0
C965 C 0.66209 0.71963 0.84549 0.0
C966 C 0.70398 0.7217 0.84396 0.0
C967 C 0.72741 0.68827 0.84831 0.0
C968 C 0.7092 0.65354 0.85427 0.0
C969 C 0.66763 0.65278 0.8557 0.0
C970 C 0.64458 0.68516 0.85138 0.0
C971 C 0.6009 0.6785 0.85471 0.0
C972 C 0.58481 0.70987 0.86625 0.0
C973 C 0.57642 0.67803 0.83955 0.0
C974 C 0.60273 0.6376 0.86195 0.0
C975 C 0.64121 0.62267 0.86227 0.0
C976 C 0.64966 0.58556 0.86895 0.0
C977 C 0.61807 0.56382 0.87573 0.0
C978 C 0.57891 0.57975 0.87595 0.0
C979 C 0.57133 0.61664 0.86867 0.0
H980 H 0.34787 0.56845 0.88762 0.0
H981 H 0.41273 0.48543 0.85829 0.0
H982 H 0.37078 0.50457 0.83598 0.0
H983 H 0.24645 0.56323 0.86452 0.0
H984 H 0.23929 0.61584 0.86799 0.0
H985 H 0.26304 0.58524 0.88257 0.0
H986 H 0.32355 0.63328 0.88265 0.0
H987 H 0.30064 0.66345 0.86799 0.0
H988 H 0.34966 0.64288 0.86466 0.0
H989 H 0.3413 0.54806 0.81613 0.0
H990 H 0.32153 0.60733 0.80095 0.0
H991 H 0.27225 0.66153 0.84246 0.0
C992 C 0.35171 0.55276 0.87669 0.0
C993 C 0.3836 0.52564 0.87465 0.0
C994 C 0.38826 0.50603 0.86017 0.0
C995 C 0.3645 0.51681 0.8474 0.0
C996 C 0.33564 0.54647 0.84943 0.0
C997 C 0.32825 0.56333 0.86387 0.0
C998 C 0.30091 0.59927 0.86255 0.0
C999 C 0.25999 0.59034 0.86983 0.0
C1000 C 0.31987 0.63689 0.86987 0.0
C1001 C 0.29772 0.6027 0.84502 0.0
C1002 C 0.31698 0.57126 0.83766 0.0
C1003 C 0.32458 0.57179 0.82168 0.0
C1004 C 0.31346 0.60563 0.81315 0.0
C1005 C 0.29459 0.63826 0.82056 0.0
C1006 C 0.28515 0.63607 0.83651 0.0
H1007 H 0.15638 0.48552 0.63853 0.0
H1008 H 0.16259 0.44919 0.59032 0.0
H1009 H 0.2279 0.48227 0.58776 0.0
H1010 H 0.17932 0.57414 0.63474 0.0
H1011 H 0.21067 0.58285 0.65149 0.0
H1012 H 0.17556 0.54279 0.65176 0.0
H1013 H 0.23179 0.4921 0.6576 0.0
H1014 H 0.2675 0.53243 0.65767 0.0
H1015 H 0.27511 0.48981 0.64516 0.0
H1016 H 0.27312 0.54025 0.58736 0.0
H1017 H 0.29869 0.60914 0.59048 0.0
H1018 H 0.26865 0.60615 0.63935 0.0
C1019 C 0.17317 0.48209 0.62784 0.0
C1020 C 0.1549 0.46474 0.61469 0.0
C1021 C 0.17657 0.46162 0.60062 0.0
C1022 C 0.21368 0.48066 0.59906 0.0
C1023 C 0.22915 0.50149 0.61182 0.0
C1024 C 0.21033 0.50078 0.62621 0.0
C1025 C 0.22852 0.53112 0.63723 0.0
C1026 C 0.19662 0.55937 0.64416 0.0
C1027 C 0.25215 0.5101 0.65018 0.0
C1028 C 0.25638 0.55271 0.62622 0.0
C1029 C 0.25749 0.53444 0.61173 0.0
C1030 C 0.27432 0.55365 0.59883 0.0
C1031 C 0.28884 0.59278 0.60065 0.0
C1032 C 0.28676 0.6119 0.61527 0.0
C1033 C 0.27211 0.59101 0.62827 0.0
H1034 H 0.11503 0.45591 0.39611 0.0
H1035 H 0.1668 0.42056 0.44013 0.0
H1036 H 0.22378 0.38987 0.42627 0.0
H1037 H 0.12864 0.36812 0.37908 0.0
H1038 H 0.13905 0.38578 0.35967 0.0
H1039 H 0.11022 0.41602 0.37274 0.0
H1040 H 0.16002 0.4745 0.36914 0.0
H1041 H 0.18914 0.44426 0.35595 0.0
H1042 H 0.21245 0.46661 0.37276 0.0
H1043 H 0.26739 0.35193 0.40788 0.0
H1044 H 0.28872 0.30506 0.38711 0.0
H1045 H 0.20558 0.36052 0.35522 0.0
C1046 C 0.13952 0.44354 0.40278 0.0
C1047 C 0.13731 0.4414 0.41913 0.0
C1048 C 0.16857 0.42308 0.42757 0.0
C1049 C 0.20109 0.40577 0.41979 0.0
C1050 C 0.20165 0.40664 0.40355 0.0
C1051 C 0.17155 0.42508 0.39513 0.0
C1052 C 0.17447 0.41497 0.37798 0.0
C1053 C 0.13584 0.39502 0.37204 0.0
C1054 C 0.18464 0.45232 0.36839 0.0
C1055 C 0.20916 0.38599 0.3782 0.0
C1056 C 0.22559 0.38281 0.39292 0.0
C1057 C 0.25542 0.35487 0.39624 0.0
C1058 C 0.26752 0.32845 0.38439 0.0
C1059 C 0.24898 0.32969 0.36963 0.0
C1060 C 0.22062 0.35967 0.36639 0.0
H1061 H 0.33771 0.48613 0.08215 0.0
H1062 H 0.39267 0.57632 0.11128 0.0
H1063 H 0.34327 0.5627 0.13183 0.0
H1064 H 0.22913 0.4953 0.10012 0.0
H1065 H 0.22352 0.44199 0.09819 0.0
H1066 H 0.25109 0.46967 0.08374 0.0
H1067 H 0.31171 0.42303 0.08796 0.0
H1068 H 0.28486 0.39575 0.10243 0.0
H1069 H 0.33239 0.41785 0.10726 0.0
H1070 H 0.30788 0.52395 0.15156 0.0
H1071 H 0.28696 0.4671 0.1678 0.0
H1072 H 0.25157 0.40191 0.12654 0.0
C1073 C 0.33784 0.50449 0.09254 0.0
C1074 C 0.369 0.53208 0.09518 0.0
C1075 C 0.36882 0.5553 0.10894 0.0
C1076 C 0.34076 0.54769 0.1207 0.0
C1077 C 0.31263 0.51745 0.11835 0.0
C1078 C 0.31016 0.49697 0.10437 0.0
C1079 C 0.28299 0.4609 0.10571 0.0
C1080 C 0.24438 0.46737 0.09639 0.0
C1081 C 0.30431 0.42216 0.10056 0.0
C1082 C 0.27466 0.46135 0.12303 0.0
C1083 C 0.29071 0.49508 0.13003 0.0
C1084 C 0.29368 0.49838 0.14619 0.0
C1085 C 0.28186 0.46589 0.15535 0.0
C1086 C 0.26702 0.43067 0.14835 0.0
C1087 C 0.26138 0.42924 0.13211 0.0
loop_
_geom_bond_atom_site_label_1
_geom_bond_atom_site_label_2
_geom_bond_distance
_geom_bond_site_symmetry_2
_ccdc_geom_bond_type
Zn0 O3 2.031 . S
Zn0 O5 2.049 . S
Zn0 O10 2.067 1_455 S
Zn1 O2 1.962 . S
Zn1 O4 1.986 . S
Zn1 O6 1.996 . S
Zn1 O9 1.943 1_455 S
O2 Zn1 1.962 . S
O2 C7 1.254 1_545 S
O3 Zn0 2.031 . S
O3 C7 1.269 . S
O4 Zn1 1.986 . S
O4 C11 1.262 . S
O5 Zn0 2.049 . S
O5 C13 1.260 1_565 S
O6 Zn1 1.996 . S
O6 C13 1.257 . S
C7 O2 1.254 1_565 S
C7 O3 1.269 . S
C8 O9 1.249 1_565 S
C8 O10 1.270 . S
O9 Zn1 1.943 1_655 S
O9 C8 1.249 1_545 S
O10 Zn0 2.067 1_655 S
O10 C8 1.270 . S
C11 O4 1.262 . S
C11 O12 1.232 . S
O12 C11 1.232 . S
C13 O5 1.260 1_545 S
C13 O6 1.257 . S
Zn14 O17 2.031 . S
Zn14 O19 2.049 . S
Zn14 O24 2.067 . S
Zn15 O16 1.962 . S
Zn15 O18 1.986 . S
Zn15 O20 1.996 . S
Zn15 O23 1.943 . S
O16 Zn15 1.962 . S
O16 C21 1.254 . S
O17 Zn14 2.031 . S
O17 C21 1.269 . S
O18 Zn15 1.986 . S
O18 C25 1.262 . S
O19 Zn14 2.049 . S
O19 C27 1.260 . S
O20 Zn15 1.996 . S
O20 C27 1.257 . S
C21 O16 1.254 . S
C21 O17 1.269 . S
C22 O23 1.249 . S
C22 O24 1.270 . S
O23 Zn15 1.943 . S
O23 C22 1.249 . S
O24 Zn14 2.067 . S
O24 C22 1.270 . S
C25 O18 1.262 . S
C25 O26 1.232 . S
O26 C25 1.232 . S
C27 O19 1.260 . S
C27 O20 1.257 . S
Zn28 O31 2.031 . S
Zn28 O33 2.049 . S
Zn28 O38 2.067 . S
Zn29 O30 1.962 . S
Zn29 O32 1.986 . S
Zn29 O34 1.996 . S
Zn29 O37 1.943 . S
O30 Zn29 1.962 . S
O30 C35 1.254 1_565 S
O31 Zn28 2.031 . S
O31 C35 1.269 . S
O32 Zn29 1.986 . S
O32 C39 1.262 . S
O33 Zn28 2.049 . S
O33 C41 1.260 1_545 S
O34 Zn29 1.996 . S
O34 C41 1.257 . S
C35 O30 1.254 1_545 S
C35 O31 1.269 . S
C36 O37 1.249 1_545 S
C36 O38 1.270 . S
O37 Zn29 1.943 . S
O37 C36 1.249 1_565 S
O38 Zn28 2.067 . S
O38 C36 1.270 . S
C39 O32 1.262 . S
C39 O40 1.232 . S
O40 C39 1.232 . S
C41 O33 1.260 1_565 S
C41 O34 1.257 . S
Zn42 O45 2.031 . S
Zn42 O47 2.049 . S
Zn42 O52 2.067 . S
Zn43 O44 1.962 . S
Zn43 O46 1.986 . S
Zn43 O48 1.996 . S
Zn43 O51 1.943 . S
O44 Zn43 1.962 . S
O44 C49 1.254 . S
O45 Zn42 2.031 . S
O45 C49 1.269 . S
O46 Zn43 1.986 . S
O46 C53 1.262 . S
O47 Zn42 2.049 . S
O47 C55 1.260 . S
O48 Zn43 1.996 . S
O48 C55 1.257 . S
C49 O44 1.254 . S
C49 O45 1.269 . S
C50 O51 1.249 . S
C50 O52 1.270 . S
O51 Zn43 1.943 . S
O51 C50 1.249 . S
O52 Zn42 2.067 . S
O52 C50 1.270 . S
C53 O46 1.262 . S
C53 O54 1.232 . S
O54 C53 1.232 . S
C55 O47 1.260 . S
C55 O48 1.257 . S
Zn56 O59 2.031 . S
Zn56 O61 2.049 . S
Zn56 O66 2.067 1_455 S
Zn57 O58 1.962 . S
Zn57 O60 1.986 . S
Zn57 O62 1.996 . S
Zn57 O65 1.943 1_455 S
O58 Zn57 1.962 . S
O58 C63 1.254 1_565 S
O59 Zn56 2.031 . S
O59 C63 1.269 . S
O60 Zn57 1.986 . S
O60 C67 1.262 . S
O61 Zn56 2.049 . S
O61 C69 1.260 1_545 S
O62 Zn57 1.996 . S
O62 C69 1.257 . S
C63 O58 1.254 1_545 S
C63 O59 1.269 . S
C64 O65 1.249 1_545 S
C64 O66 1.270 . S
O65 Zn57 1.943 1_655 S
O65 C64 1.249 1_565 S
O66 Zn56 2.067 1_655 S
O66 C64 1.270 . S
C67 O60 1.262 . S
C67 O68 1.232 . S
O68 C67 1.232 . S
C69 O61 1.260 1_565 S
C69 O62 1.257 . S
Zn70 O73 2.031 . S
Zn70 O75 2.049 . S
Zn70 O80 2.067 . S
Zn71 O72 1.962 . S
Zn71 O74 1.986 . S
Zn71 O76 1.996 . S
Zn71 O79 1.943 . S
O72 Zn71 1.962 . S
O72 C77 1.254 . S
O73 Zn70 2.031 . S
O73 C77 1.269 . S
O74 Zn71 1.986 . S
O74 C81 1.262 . S
O75 Zn70 2.049 . S
O75 C83 1.260 . S
O76 Zn71 1.996 . S
O76 C83 1.257 . S
C77 O72 1.254 . S
C77 O73 1.269 . S
C78 O79 1.249 . S
C78 O80 1.270 . S
O79 Zn71 1.943 . S
O79 C78 1.249 . S
O80 Zn70 2.067 . S
O80 C78 1.270 . S
C81 O74 1.262 . S
C81 O82 1.232 . S
O82 C81 1.232 . S
C83 O75 1.260 . S
C83 O76 1.257 . S
Zn84 O87 2.031 . S
Zn84 O89 2.049 . S
Zn84 O94 2.067 . S
Zn85 O86 1.962 . S
Zn85 O88 1.986 . S
Zn85 O90 1.996 . S
Zn85 O93 1.943 . S
O86 Zn85 1.962 . S
O86 C91 1.254 1_545 S
O87 Zn84 2.031 . S
O87 C91 1.269 . S
O88 Zn85 1.986 . S
O88 C95 1.262 . S
O89 Zn84 2.049 . S
O89 C97 1.260 1_565 S
O90 Zn85 1.996 . S
O90 C97 1.257 . S
C91 O86 1.254 1_565 S
C91 O87 1.269 . S
C92 O93 1.249 1_565 S
C92 O94 1.270 . S
O93 Zn85 1.943 . S
O93 C92 1.249 1_545 S
O94 Zn84 2.067 . S
O94 C92 1.270 . S
C95 O88 1.262 . S
C95 O96 1.232 . S
O96 C95 1.232 . S
C97 O89 1.260 1_545 S
C97 O90 1.257 . S
Zn98 O101 2.031 . S
Zn98 O103 2.049 . S
Zn98 O108 2.067 . S
Zn99 O100 1.962 . S
Zn99 O102 1.986 . S
Zn99 O104 1.996 . S
Zn99 O107 1.943 . S
O100 Zn99 1.962 . S
O100 C105 1.254 . S
O101 Zn98 2.031 . S
O101 C105 1.269 . S
O102 Zn99 1.986 . S
O102 C109 1.262 . S
O103 Zn98 2.049 . S
O103 C111 1.260 . S
O104 Zn99 1.996 . S
O104 C111 1.257 . S
C105 O100 1.254 . S
C105 O101 1.269 . S
C106 O107 1.249 . S
C106 O108 1.270 . S
O107 Zn99 1.943 . S
O107 C106 1.249 . S
O108 Zn98 2.067 . S
O108 C106 1.270 . S
C109 O102 1.262 . S
C109 O110 1.232 . S
O110 C109 1.232 . S
C111 O103 1.260 . S
C111 O104 1.257 . S
Zn112 O115 2.031 . S
Zn112 O117 2.049 . S
Zn112 O122 2.067 . S
Zn113 O114 1.962 . S
Zn113 O116 1.986 . S
Zn113 O118 1.996 . S
Zn113 O121 1.943 . S
O114 Zn113 1.962 . S
O114 C119 1.254 . S
O115 Zn112 2.031 . S
O115 C119 1.269 . S
O116 Zn113 1.986 . S
O116 C123 1.262 . S
O117 Zn112 2.049 . S
O117 C125 1.260 . S
O118 Zn113 1.996 . S
O118 C125 1.257 . S
C119 O114 1.254 . S
C119 O115 1.269 . S
C120 O121 1.249 . S
C120 O122 1.270 . S
O121 Zn113 1.943 . S
O121 C120 1.249 . S
O122 Zn112 2.067 . S
O122 C120 1.270 . S
C123 O116 1.262 . S
C123 O124 1.232 . S
O124 C123 1.232 . S
C125 O117 1.260 . S
C125 O118 1.257 . S
Zn126 O129 2.031 . S
Zn126 O131 2.049 . S
Zn126 O136 2.067 . S
Zn127 O128 1.962 . S
Zn127 O130 1.986 . S
Zn127 O132 1.996 . S
Zn127 O135 1.943 . S
O128 Zn127 1.962 . S
O128 C133 1.254 . S
O129 Zn126 2.031 . S
O129 C133 1.269 . S
O130 Zn127 1.986 . S
O130 C137 1.262 . S
O131 Zn126 2.049 . S
O131 C139 1.260 . S
O132 Zn127 1.996 . S
O132 C139 1.257 . S
C133 O128 1.254 . S
C133 O129 1.269 . S
C134 O135 1.249 . S
C134 O136 1.270 . S
O135 Zn127 1.943 . S
O135 C134 1.249 . S
O136 Zn126 2.067 . S
O136 C134 1.270 . S
C137 O130 1.262 . S
C137 O138 1.232 . S
O138 C137 1.232 . S
C139 O131 1.260 . S
C139 O132 1.257 . S
Zn140 O143 2.031 . S
Zn140 O145 2.049 . S
Zn140 O150 2.067 . S
Zn141 O142 1.962 . S
Zn141 O144 1.986 . S
Zn141 O146 1.996 . S
Zn141 O149 1.943 . S
O142 Zn141 1.962 . S
O142 C147 1.254 . S
O143 Zn140 2.031 . S
O143 C147 1.269 . S
O144 Zn141 1.986 . S
O144 C151 1.262 . S
O145 Zn140 2.049 . S
O145 C153 1.260 . S
O146 Zn141 1.996 . S
O146 C153 1.257 . S
C147 O142 1.254 . S
C147 O143 1.269 . S
C148 O149 1.249 . S
C148 O150 1.270 . S
O149 Zn141 1.943 . S
O149 C148 1.249 . S
O150 Zn140 2.067 . S
O150 C148 1.270 . S
C151 O144 1.262 . S
C151 O152 1.232 . S
O152 C151 1.232 . S
C153 O145 1.260 . S
C153 O146 1.257 . S
Zn154 O157 2.031 . S
Zn154 O159 2.049 . S
Zn154 O164 2.067 . S
Zn155 O156 1.962 . S
Zn155 O158 1.986 . S
Zn155 O160 1.996 . S
Zn155 O163 1.943 . S
O156 Zn155 1.962 . S
O156 C161 1.254 . S
O157 Zn154 2.031 . S
O157 C161 1.269 . S
O158 Zn155 1.986 . S
O158 C165 1.262 . S
O159 Zn154 2.049 . S
O159 C167 1.260 . S
O160 Zn155 1.996 . S
O160 C167 1.257 . S
C161 O156 1.254 . S
C161 O157 1.269 . S
C162 O163 1.249 . S
C162 O164 1.270 . S
O163 Zn155 1.943 . S
O163 C162 1.249 . S
O164 Zn154 2.067 . S
O164 C162 1.270 . S
C165 O158 1.262 . S
C165 O166 1.232 . S
O166 C165 1.232 . S
C167 O159 1.260 . S
C167 O160 1.257 . S
Zn168 O171 2.031 . S
Zn168 O173 2.049 . S
Zn168 O178 2.067 . S
Zn169 O170 1.962 . S
Zn169 O172 1.986 . S
Zn169 O174 1.996 . S
Zn169 O177 1.943 . S
O170 Zn169 1.962 . S
O170 C175 1.254 . S
O171 Zn168 2.031 . S
O171 C175 1.269 . S
O172 Zn169 1.986 . S
O172 C179 1.262 . S
O173 Zn168 2.049 . S
O173 C181 1.260 . S
O174 Zn169 1.996 . S
O174 C181 1.257 . S
C175 O170 1.254 . S
C175 O171 1.269 . S
C176 O177 1.249 . S
C176 O178 1.270 . S
O177 Zn169 1.943 . S
O177 C176 1.249 . S
O178 Zn168 2.067 . S
O178 C176 1.270 . S
C179 O172 1.262 . S
C179 O180 1.232 . S
O180 C179 1.232 . S
C181 O173 1.260 . S
C181 O174 1.257 . S
Zn182 O185 2.035 . S
Zn182 O187 2.049 . S
Zn182 O192 2.067 . S
Zn183 O184 1.962 1_455 S
Zn183 O186 1.986 . S
Zn183 O188 1.996 . S
Zn183 O191 1.943 . S
O184 Zn183 1.962 1_655 S
O184 C189 1.254 . S
O185 Zn182 2.035 . S
O185 C189 1.263 1_455 S
O186 Zn183 1.986 . S
O186 C193 1.262 . S
O187 Zn182 2.049 . S
O187 C195 1.260 . S
O188 Zn183 1.996 . S
O188 C195 1.257 . S
C189 O184 1.254 . S
C189 O185 1.263 1_655 S
C190 O191 1.249 . S
C190 O192 1.270 . S
O191 Zn183 1.943 . S
O191 C190 1.249 . S
O192 Zn182 2.067 . S
O192 C190 1.270 . S
C193 O186 1.262 . S
C193 O194 1.232 . S
O194 C193 1.232 . S
C195 O187 1.260 . S
C195 O188 1.257 . S
Zn196 O199 2.031 . S
Zn196 O201 2.049 . S
Zn196 O206 2.067 . S
Zn197 O198 1.962 . S
Zn197 O200 1.986 . S
Zn197 O202 1.996 . S
Zn197 O205 1.943 . S
O198 Zn197 1.962 . S
O198 C203 1.254 . S
O199 Zn196 2.031 . S
O199 C203 1.269 . S
O200 Zn197 1.986 . S
O200 C207 1.262 . S
O201 Zn196 2.049 . S
O201 C209 1.260 . S
O202 Zn197 1.996 . S
O202 C209 1.257 . S
C203 O198 1.254 . S
C203 O199 1.269 . S
C204 O205 1.249 . S
C204 O206 1.270 . S
O205 Zn197 1.943 . S
O205 C204 1.249 . S
O206 Zn196 2.067 . S
O206 C204 1.270 . S
C207 O200 1.262 . S
C207 O208 1.232 . S
O208 C207 1.232 . S
C209 O201 1.260 . S
C209 O202 1.257 . S
Zn210 O213 2.035 . S
Zn210 O215 2.049 . S
Zn210 O220 2.067 . S
Zn211 O212 1.962 1_455 S
Zn211 O214 1.986 . S
Zn211 O216 1.996 . S
Zn211 O219 1.943 . S
O212 Zn211 1.962 1_655 S
O212 C217 1.254 . S
O213 Zn210 2.035 . S
O213 C217 1.263 1_455 S
O214 Zn211 1.986 . S
O214 C221 1.262 . S
O215 Zn210 2.049 . S
O215 C223 1.260 . S
O216 Zn211 1.996 . S
O216 C223 1.257 . S
C217 O212 1.254 . S
C217 O213 1.263 1_655 S
C218 O219 1.249 . S
C218 O220 1.270 . S
O219 Zn211 1.943 . S
O219 C218 1.249 . S
O220 Zn210 2.067 . S
O220 C218 1.270 . S
C221 O214 1.262 . S
C221 O222 1.232 . S
O222 C221 1.232 . S
C223 O215 1.260 . S
C223 O216 1.257 . S
H224 C236 0.930 1_655 S
H225 C238 0.930 . S
H226 C239 0.930 . S
H227 C243 0.959 . S
H228 C243 0.959 . S
H229 C243 0.961 . S
H230 C244 0.960 . S
H231 C244 0.961 . S
H232 C244 0.959 . S
H233 C247 0.929 . S
H234 C248 0.931 . S
H235 C250 0.930 . S
C236 H224 0.930 1_455 S
C236 C237 1.399 . S
C236 C241 1.399 . S
C237 C236 1.399 . S
C237 C238 1.376 . S
C238 H225 0.930 . S
C238 C237 1.376 . S
C238 C239 1.388 . S
C239 H226 0.930 . S
C239 C238 1.388 . S
C239 C240 1.390 . S
C240 C239 1.390 . S
C240 C241 1.394 . S
C240 C246 1.465 . S
C241 C236 1.399 . S
C241 C240 1.394 . S
C241 C242 1.516 . S
C242 C241 1.516 . S
C242 C243 1.502 1_455 S
C242 C244 1.561 . S
C242 C245 1.526 . S
C243 H227 0.959 . S
C243 H228 0.959 . S
C243 H229 0.961 . S
C243 C242 1.502 1_655 S
C244 H230 0.960 . S
C244 H231 0.961 . S
C244 H232 0.959 . S
C244 C242 1.561 . S
C245 C242 1.526 . S
C245 C246 1.396 . S
C245 C250 1.390 . S
C246 C240 1.465 . S
C246 C245 1.396 . S
C246 C247 1.399 . S
C247 H233 0.929 . S
C247 C246 1.399 . S
C247 C248 1.385 . S
C248 H234 0.931 . S
C248 C247 1.385 . S
C248 C249 1.389 . S
C249 C248 1.389 . S
C249 C250 1.387 . S
C250 H235 0.930 . S
C250 C245 1.390 . S
C250 C249 1.387 . S
H251 C263 0.930 . S
H252 C265 0.930 . S
H253 C266 0.930 . S
H254 C270 0.959 . S
H255 C270 0.959 . S
H256 C270 0.961 . S
H257 C271 0.960 1_655 S
H258 C271 0.961 . S
H259 C271 0.959 . S
H260 C274 0.929 . S
H261 C275 0.931 . S
H262 C277 0.930 . S
C263 H251 0.930 . S
C263 C264 1.399 . S
C263 C268 1.399 . S
C264 C263 1.399 . S
C264 C265 1.376 . S
C265 H252 0.930 . S
C265 C264 1.376 . S
C265 C266 1.388 . S
C266 H253 0.930 . S
C266 C265 1.388 . S
C266 C267 1.390 . S
C267 C266 1.390 . S
C267 C268 1.394 . S
C267 C273 1.465 1_655 S
C268 C263 1.399 . S
C268 C267 1.394 . S
C268 C269 1.516 1_655 S
C269 C268 1.516 1_455 S
C269 C270 1.502 . S
C269 C271 1.561 . S
C269 C272 1.526 . S
C270 H254 0.959 . S
C270 H255 0.959 . S
C270 H256 0.961 . S
C270 C269 1.502 . S
C271 H257 0.960 1_455 S
C271 H258 0.961 . S
C271 H259 0.959 . S
C271 C269 1.561 . S
C272 C269 1.526 . S
C272 C273 1.396 . S
C272 C277 1.390 . S
C273 C267 1.465 1_455 S
C273 C272 1.396 . S
C273 C274 1.399 . S
C274 H260 0.929 . S
C274 C273 1.399 . S
C274 C275 1.385 . S
C275 H261 0.931 . S
C275 C274 1.385 . S
C275 C276 1.389 . S
C276 C275 1.389 . S
C276 C277 1.387 . S
C277 H262 0.930 . S
C277 C272 1.390 . S
C277 C276 1.387 . S
H278 C290 0.930 . S
H279 C292 0.930 . S
H280 C293 0.930 . S
H281 C297 0.959 . S
H282 C297 0.959 . S
H283 C297 0.961 . S
H284 C298 0.960 . S
H285 C298 0.961 . S
H286 C298 0.959 . S
H287 C301 0.929 . S
H288 C302 0.931 . S
H289 C304 0.930 . S
C290 H278 0.930 . S
C290 C291 1.399 . S
C290 C295 1.399 . S
C291 C290 1.399 . S
C291 C292 1.376 . S
C292 H279 0.930 . S
C292 C291 1.376 . S
C292 C293 1.388 . S
C293 H280 0.930 . S
C293 C292 1.388 . S
C293 C294 1.390 . S
C294 C293 1.390 . S
C294 C295 1.394 . S
C294 C300 1.465 . S
C295 C290 1.399 . S
C295 C294 1.394 . S
C295 C296 1.516 . S
C296 C295 1.516 . S
C296 C297 1.502 . S
C296 C298 1.561 . S
C296 C299 1.526 . S
C297 H281 0.959 . S
C297 H282 0.959 . S
C297 H283 0.961 . S
C297 C296 1.502 . S
C298 H284 0.960 . S
C298 H285 0.961 . S
C298 H286 0.959 . S
C298 C296 1.561 . S
C299 C296 1.526 . S
C299 C300 1.396 . S
C299 C304 1.390 . S
C300 C294 1.465 . S
C300 C299 1.396 . S
C300 C301 1.399 . S
C301 H287 0.929 . S
C301 C300 1.399 . S
C301 C302 1.385 . S
C302 H288 0.931 . S
C302 C301 1.385 . S
C302 C303 1.389 . S
C303 C302 1.389 . S
C303 C304 1.387 . S
C304 H289 0.930 . S
C304 C299 1.390 . S
C304 C303 1.387 . S
H305 C317 0.930 . S
H306 C319 0.930 . S
H307 C320 0.930 . S
H308 C324 0.959 . S
H309 C324 0.959 . S
H310 C324 0.961 . S
H311 C325 0.960 . S
H312 C325 0.961 . S
H313 C325 0.959 . S
H314 C328 0.929 . S
H315 C329 0.931 . S
H316 C331 0.930 . S
C317 H305 0.930 . S
C317 C318 1.399 . S
C317 C322 1.399 . S
C318 C317 1.399 . S
C318 C319 1.376 . S
C319 H306 0.930 . S
C319 C318 1.376 . S
C319 C320 1.388 . S
C320 H307 0.930 . S
C320 C319 1.388 . S
C320 C321 1.390 . S
C321 C320 1.390 . S
C321 C322 1.394 . S
C321 C327 1.465 . S
C322 C317 1.399 . S
C322 C321 1.394 . S
C322 C323 1.516 . S
C323 C322 1.516 . S
C323 C324 1.502 . S
C323 C325 1.561 . S
C323 C326 1.526 . S
C324 H308 0.959 . S
C324 H309 0.959 . S
C324 H310 0.961 . S
C324 C323 1.502 . S
C325 H311 0.960 . S
C325 H312 0.961 . S
C325 H313 0.959 . S
C325 C323 1.561 . S
C326 C323 1.526 . S
C326 C327 1.396 . S
C326 C331 1.390 . S
C327 C321 1.465 . S
C327 C326 1.396 . S
C327 C328 1.399 . S
C328 H314 0.929 . S
C328 C327 1.399 . S
C328 C329 1.385 . S
C329 H315 0.931 . S
C329 C328 1.385 . S
C329 C330 1.389 . S
C330 C329 1.389 . S
C330 C331 1.387 . S
C331 H316 0.930 . S
C331 C326 1.390 . S
C331 C330 1.387 . S
H332 C344 0.930 . S
H333 C346 0.930 . S
H334 C347 0.930 . S
H335 C351 0.959 . S
H336 C351 0.959 . S
H337 C351 0.961 . S
H338 C352 0.960 . S
H339 C352 0.961 . S
H340 C352 0.959 . S
H341 C355 0.929 . S
H342 C356 0.931 . S
H343 C358 0.930 . S
C344 H332 0.930 . S
C344 C345 1.399 . S
C344 C349 1.399 . S
C345 C344 1.399 . S
C345 C346 1.376 1_455 S
C346 H333 0.930 . S
C346 C345 1.376 1_655 S
C346 C347 1.388 . S
C347 H334 0.930 . S
C347 C346 1.388 . S
C347 C348 1.390 1_655 S
C348 C347 1.390 1_455 S
C348 C349 1.394 . S
C348 C354 1.465 . S
C349 C344 1.399 . S
C349 C348 1.394 . S
C349 C350 1.516 . S
C350 C349 1.516 . S
C350 C351 1.502 . S
C350 C352 1.561 . S
C350 C353 1.526 . S
C351 H335 0.959 . S
C351 H336 0.959 . S
C351 H337 0.961 . S
C351 C350 1.502 . S
C352 H338 0.960 . S
C352 H339 0.961 . S
C352 H340 0.959 . S
C352 C350 1.561 . S
C353 C350 1.526 . S
C353 C354 1.396 . S
C353 C358 1.390 . S
C354 C348 1.465 . S
C354 C353 1.396 . S
C354 C355 1.399 1_455 S
C355 H341 0.929 . S
C355 C354 1.399 1_655 S
C355 C356 1.385 . S
C356 H342 0.931 . S
C356 C355 1.385 . S
C356 C357 1.389 1_655 S
C357 C356 1.389 1_455 S
C357 C358 1.387 . S
C358 H343 0.930 . S
C358 C353 1.390 . S
C358 C357 1.387 . S
H359 C371 0.930 . S
H360 C373 0.930 . S
H361 C374 0.930 . S
H362 C378 0.959 . S
H363 C378 0.959 . S
H364 C378 0.961 . S
H365 C379 0.960 . S
H366 C379 0.961 . S
H367 C379 0.959 . S
H368 C382 0.929 . S
H369 C383 0.931 . S
H370 C385 0.930 . S
C371 H359 0.930 . S
C371 C372 1.399 . S
C371 C376 1.399 . S
C372 C371 1.399 . S
C372 C373 1.376 . S
C373 H360 0.930 . S
C373 C372 1.376 . S
C373 C374 1.388 . S
C374 H361 0.930 . S
C374 C373 1.388 . S
C374 C375 1.390 . S
C375 C374 1.390 . S
C375 C376 1.394 . S
C375 C381 1.465 . S
C376 C371 1.399 . S
C376 C375 1.394 . S
C376 C377 1.516 . S
C377 C376 1.516 . S
C377 C378 1.502 . S
C377 C379 1.561 . S
C377 C380 1.526 . S
C378 H362 0.959 . S
C378 H363 0.959 . S
C378 H364 0.961 . S
C378 C377 1.502 . S
C379 H365 0.960 . S
C379 H366 0.961 . S
C379 H367 0.959 . S
C379 C377 1.561 . S
C380 C377 1.526 . S
C380 C381 1.396 . S
C380 C385 1.390 . S
C381 C375 1.465 . S
C381 C380 1.396 . S
C381 C382 1.399 . S
C382 H368 0.929 . S
C382 C381 1.399 . S
C382 C383 1.385 . S
C383 H369 0.931 . S
C383 C382 1.385 . S
C383 C384 1.389 . S
C384 C383 1.389 . S
C384 C385 1.387 . S
C385 H370 0.930 . S
C385 C380 1.390 . S
C385 C384 1.387 . S
H386 C398 0.930 . S
H387 C400 0.930 . S
H388 C401 0.930 . S
H389 C405 0.959 . S
H390 C405 0.959 . S
H391 C405 0.961 . S
H392 C406 0.960 . S
H393 C406 0.961 . S
H394 C406 0.959 . S
H395 C409 0.929 . S
H396 C410 0.931 . S
H397 C412 0.930 . S
C398 H386 0.930 . S
C398 C399 1.399 . S
C398 C403 1.399 . S
C399 C398 1.399 . S
C399 C400 1.376 . S
C400 H387 0.930 . S
C400 C399 1.376 . S
C400 C401 1.388 . S
C401 H388 0.930 . S
C401 C400 1.388 . S
C401 C402 1.390 . S
C402 C401 1.390 . S
C402 C403 1.394 . S
C402 C408 1.465 . S
C403 C398 1.399 . S
C403 C402 1.394 . S
C403 C404 1.516 . S
C404 C403 1.516 . S
C404 C405 1.502 . S
C404 C406 1.561 . S
C404 C407 1.526 . S
C405 H389 0.959 . S
C405 H390 0.959 . S
C405 H391 0.961 . S
C405 C404 1.502 . S
C406 H392 0.960 . S
C406 H393 0.961 . S
C406 H394 0.959 . S
C406 C404 1.561 . S
C407 C404 1.526 . S
C407 C408 1.396 . S
C407 C412 1.390 . S
C408 C402 1.465 . S
C408 C407 1.396 . S
C408 C409 1.399 . S
C409 H395 0.929 . S
C409 C408 1.399 . S
C409 C410 1.385 . S
C410 H396 0.931 . S
C410 C409 1.385 . S
C410 C411 1.389 . S
C411 C410 1.389 . S
C411 C412 1.387 . S
C412 H397 0.930 . S
C412 C407 1.390 . S
C412 C411 1.387 . S
H413 C425 0.930 . S
H414 C427 0.930 . S
H415 C428 0.930 . S
H416 C432 0.959 . S
H417 C432 0.959 . S
H418 C432 0.961 . S
H419 C433 0.960 . S
H420 C433 0.957 1_655 S
H421 C433 0.959 . S
H422 C436 0.929 . S
H423 C437 0.931 . S
H424 C439 0.930 . S
C425 H413 0.930 . S
C425 C426 1.399 . S
C425 C430 1.399 . S
C426 C425 1.399 . S
C426 C427 1.376 . S
C427 H414 0.930 . S
C427 C426 1.376 . S
C427 C428 1.388 . S
C428 H415 0.930 . S
C428 C427 1.388 . S
C428 C429 1.390 . S
C429 C428 1.390 . S
C429 C430 1.394 . S
C429 C435 1.465 1_455 S
C430 C425 1.399 . S
C430 C429 1.394 . S
C430 C431 1.516 . S
C431 C430 1.516 . S
C431 C432 1.502 . S
C431 C433 1.561 . S
C431 C434 1.526 1_455 S
C432 H416 0.959 . S
C432 H417 0.959 . S
C432 H418 0.961 . S
C432 C431 1.502 . S
C433 H419 0.960 . S
C433 H420 0.957 1_455 S
C433 H421 0.959 . S
C433 C431 1.561 . S
C434 C431 1.526 1_655 S
C434 C435 1.396 . S
C434 C439 1.390 . S
C435 C429 1.465 1_655 S
C435 C434 1.396 . S
C435 C436 1.399 . S
C436 H422 0.929 . S
C436 C435 1.399 . S
C436 C437 1.385 . S
C437 H423 0.931 . S
C437 C436 1.385 . S
C437 C438 1.389 . S
C438 C437 1.389 . S
C438 C439 1.387 . S
C439 H424 0.930 . S
C439 C434 1.390 . S
C439 C438 1.387 . S
H440 C452 0.930 1_655 S
H441 C454 0.930 . S
H442 C455 0.930 . S
H443 C459 0.959 . S
H444 C459 0.959 . S
H445 C459 0.961 . S
H446 C460 0.960 . S
H447 C460 0.961 . S
H448 C460 0.959 . S
H449 C463 0.929 . S
H450 C464 0.931 . S
H451 C466 0.930 1_655 S
C452 H440 0.930 1_455 S
C452 C453 1.399 . S
C452 C457 1.399 . S
C453 C452 1.399 . S
C453 C454 1.376 1_565 S
C454 H441 0.930 . S
C454 C453 1.376 1_545 S
C454 C455 1.388 . S
C455 H442 0.930 . S
C455 C454 1.388 . S
C455 C456 1.390 . S
C456 C455 1.390 . S
C456 C457 1.394 1_545 S
C456 C462 1.465 . S
C457 C452 1.399 . S
C457 C456 1.394 1_565 S
C457 C458 1.516 . S
C458 C457 1.516 . S
C458 C459 1.502 1_455 S
C458 C460 1.561 . S
C458 C461 1.526 . S
C459 H443 0.959 . S
C459 H444 0.959 . S
C459 H445 0.961 . S
C459 C458 1.502 1_655 S
C460 H446 0.960 . S
C460 H447 0.961 . S
C460 H448 0.959 . S
C460 C458 1.561 . S
C461 C458 1.526 . S
C461 C462 1.396 1_565 S
C461 C466 1.390 . S
C462 C456 1.465 . S
C462 C461 1.396 1_545 S
C462 C463 1.399 . S
C463 H449 0.929 . S
C463 C462 1.399 . S
C463 C464 1.385 . S
C464 H450 0.931 . S
C464 C463 1.385 . S
C464 C465 1.389 . S
C465 C464 1.389 . S
C465 C466 1.387 1_545 S
C466 H451 0.930 1_455 S
C466 C461 1.390 . S
C466 C465 1.387 1_565 S
H467 C479 0.930 . S
H468 C481 0.930 . S
H469 C482 0.930 . S
H470 C486 0.959 . S
H471 C486 0.959 . S
H472 C486 0.961 . S
H473 C487 0.960 . S
H474 C487 0.961 . S
H475 C487 0.959 . S
H476 C490 0.929 . S
H477 C491 0.931 . S
H478 C493 0.930 . S
C479 H467 0.930 . S
C479 C480 1.399 . S
C479 C484 1.399 . S
C480 C479 1.399 . S
C480 C481 1.376 . S
C481 H468 0.930 . S
C481 C480 1.376 . S
C481 C482 1.388 . S
C482 H469 0.930 . S
C482 C481 1.388 . S
C482 C483 1.390 . S
C483 C482 1.390 . S
C483 C484 1.394 . S
C483 C489 1.465 . S
C484 C479 1.399 . S
C484 C483 1.394 . S
C484 C485 1.516 . S
C485 C484 1.516 . S
C485 C486 1.502 . S
C485 C487 1.561 . S
C485 C488 1.526 . S
C486 H470 0.959 . S
C486 H471 0.959 . S
C486 H472 0.961 . S
C486 C485 1.502 . S
C487 H473 0.960 . S
C487 H474 0.961 . S
C487 H475 0.959 . S
C487 C485 1.561 . S
C488 C485 1.526 . S
C488 C489 1.396 . S
C488 C493 1.390 . S
C489 C483 1.465 . S
C489 C488 1.396 . S
C489 C490 1.399 . S
C490 H476 0.929 . S
C490 C489 1.399 . S
C490 C491 1.385 . S
C491 H477 0.931 . S
C491 C490 1.385 . S
C491 C492 1.389 . S
C492 C491 1.389 . S
C492 C493 1.387 . S
C493 H478 0.930 . S
C493 C488 1.390 . S
C493 C492 1.387 . S
H494 C506 0.930 . S
H495 C508 0.930 . S
H496 C509 0.930 . S
H497 C513 0.959 . S
H498 C513 0.959 1_556 S
H499 C513 0.961 . S
H500 C514 0.960 . S
H501 C514 0.961 1_556 S
H502 C514 0.959 . S
H503 C517 0.929 . S
H504 C518 0.931 . S
H505 C520 0.930 . S
C506 H494 0.930 . S
C506 C507 1.399 1_545 S
C506 C511 1.399 . S
C507 C506 1.399 1_565 S
C507 C508 1.376 . S
C508 H495 0.930 . S
C508 C507 1.376 . S
C508 C509 1.388 . S
C509 H496 0.930 . S
C509 C508 1.388 . S
C509 C510 1.390 . S
C510 C509 1.390 . S
C510 C511 1.394 1_565 S
C510 C516 1.465 1_554 S
C511 C506 1.399 . S
C511 C510 1.394 1_545 S
C511 C512 1.516 . S
C512 C511 1.516 . S
C512 C513 1.502 . S
C512 C514 1.561 . S
C512 C515 1.526 1_554 S
C513 H497 0.959 . S
C513 H498 0.959 1_554 S
C513 H499 0.961 . S
C513 C512 1.502 . S
C514 H500 0.960 . S
C514 H501 0.961 1_554 S
C514 H502 0.959 . S
C514 C512 1.561 . S
C515 C512 1.526 1_556 S
C515 C516 1.396 1_545 S
C515 C520 1.390 . S
C516 C510 1.465 1_556 S
C516 C515 1.396 1_565 S
C516 C517 1.399 . S
C517 H503 0.929 . S
C517 C516 1.399 . S
C517 C518 1.385 . S
C518 H504 0.931 . S
C518 C517 1.385 . S
C518 C519 1.389 1_565 S
C519 C518 1.389 1_545 S
C519 C520 1.387 . S
C520 H505 0.930 . S
C520 C515 1.390 . S
C520 C519 1.387 . S
H521 C533 0.930 . S
H522 C535 0.930 . S
H523 C536 0.930 . S
H524 C540 0.959 . S
H525 C540 0.959 . S
H526 C540 0.961 . S
H527 C541 0.960 . S
H528 C541 0.961 . S
H529 C541 0.959 . S
H530 C544 0.929 . S
H531 C545 0.931 . S
H532 C547 0.930 . S
C533 H521 0.930 . S
C533 C534 1.399 . S
C533 C538 1.399 . S
C534 C533 1.399 . S
C534 C535 1.376 . S
C535 H522 0.930 . S
C535 C534 1.376 . S
C535 C536 1.388 . S
C536 H523 0.930 . S
C536 C535 1.388 . S
C536 C537 1.390 . S
C537 C536 1.390 . S
C537 C538 1.394 . S
C537 C543 1.465 . S
C538 C533 1.399 . S
C538 C537 1.394 . S
C538 C539 1.516 . S
C539 C538 1.516 . S
C539 C540 1.502 . S
C539 C541 1.561 . S
C539 C542 1.526 . S
C540 H524 0.959 . S
C540 H525 0.959 . S
C540 H526 0.961 . S
C540 C539 1.502 . S
C541 H527 0.960 . S
C541 H528 0.961 . S
C541 H529 0.959 . S
C541 C539 1.561 . S
C542 C539 1.526 . S
C542 C543 1.396 . S
C542 C547 1.390 . S
C543 C537 1.465 . S
C543 C542 1.396 . S
C543 C544 1.399 . S
C544 H530 0.929 . S
C544 C543 1.399 . S
C544 C545 1.385 . S
C545 H531 0.931 . S
C545 C544 1.385 . S
C545 C546 1.389 . S
C546 C545 1.389 . S
C546 C547 1.387 . S
C547 H532 0.930 . S
C547 C542 1.390 . S
C547 C546 1.387 . S
H548 C560 0.930 . S
H549 C562 0.930 . S
H550 C563 0.930 . S
H551 C567 0.959 . S
H552 C567 0.959 . S
H553 C567 0.961 . S
H554 C568 0.960 . S
H555 C568 0.961 . S
H556 C568 0.959 . S
H557 C571 0.929 . S
H558 C572 0.931 . S
H559 C574 0.930 . S
C560 H548 0.930 . S
C560 C561 1.399 . S
C560 C565 1.399 . S
C561 C560 1.399 . S
C561 C562 1.376 . S
C562 H549 0.930 . S
C562 C561 1.376 . S
C562 C563 1.388 . S
C563 H550 0.930 . S
C563 C562 1.388 . S
C563 C564 1.390 . S
C564 C563 1.390 . S
C564 C565 1.394 . S
C564 C570 1.465 . S
C565 C560 1.399 . S
C565 C564 1.394 . S
C565 C566 1.516 . S
C566 C565 1.516 . S
C566 C567 1.502 . S
C566 C568 1.561 . S
C566 C569 1.526 . S
C567 H551 0.959 . S
C567 H552 0.959 . S
C567 H553 0.961 . S
C567 C566 1.502 . S
C568 H554 0.960 . S
C568 H555 0.961 . S
C568 H556 0.959 . S
C568 C566 1.561 . S
C569 C566 1.526 . S
C569 C570 1.396 . S
C569 C574 1.390 . S
C570 C564 1.465 . S
C570 C569 1.396 . S
C570 C571 1.399 . S
C571 H557 0.929 . S
C571 C570 1.399 . S
C571 C572 1.385 . S
C572 H558 0.931 . S
C572 C571 1.385 . S
C572 C573 1.389 . S
C573 C572 1.389 . S
C573 C574 1.387 . S
C574 H559 0.930 . S
C574 C569 1.390 . S
C574 C573 1.387 . S
H575 C587 0.930 . S
H576 C589 0.930 . S
H577 C590 0.930 . S
H578 C594 0.959 . S
H579 C594 0.959 . S
H580 C594 0.961 . S
H581 C595 0.960 . S
H582 C595 0.961 . S
H583 C595 0.959 . S
H584 C598 0.929 . S
H585 C599 0.931 . S
H586 C601 0.930 . S
C587 H575 0.930 . S
C587 C588 1.399 . S
C587 C592 1.399 . S
C588 C587 1.399 . S
C588 C589 1.376 . S
C589 H576 0.930 . S
C589 C588 1.376 . S
C589 C590 1.388 . S
C590 H577 0.930 . S
C590 C589 1.388 . S
C590 C591 1.390 . S
C591 C590 1.390 . S
C591 C592 1.394 . S
C591 C597 1.465 . S
C592 C587 1.399 . S
C592 C591 1.394 . S
C592 C593 1.516 . S
C593 C592 1.516 . S
C593 C594 1.502 . S
C593 C595 1.561 . S
C593 C596 1.526 . S
C594 H578 0.959 . S
C594 H579 0.959 . S
C594 H580 0.961 . S
C594 C593 1.502 . S
C595 H581 0.960 . S
C595 H582 0.961 . S
C595 H583 0.959 . S
C595 C593 1.561 . S
C596 C593 1.526 . S
C596 C597 1.396 . S
C596 C601 1.390 . S
C597 C591 1.465 . S
C597 C596 1.396 . S
C597 C598 1.399 . S
C598 H584 0.929 . S
C598 C597 1.399 . S
C598 C599 1.385 . S
C599 H585 0.931 . S
C599 C598 1.385 . S
C599 C600 1.389 . S
C600 C599 1.389 . S
C600 C601 1.387 . S
C601 H586 0.930 . S
C601 C596 1.390 . S
C601 C600 1.387 . S
H602 C614 0.930 . S
H603 C616 0.930 . S
H604 C617 0.930 . S
H605 C621 0.961 . S
H606 C621 0.959 1_554 S
H607 C621 0.961 . S
H608 C622 0.960 . S
H609 C622 0.961 1_554 S
H610 C622 0.959 . S
H611 C625 0.929 . S
H612 C626 0.931 . S
H613 C628 0.930 . S
C614 H602 0.930 . S
C614 C615 1.399 . S
C614 C619 1.399 . S
C615 C614 1.399 . S
C615 C616 1.376 . S
C616 H603 0.930 . S
C616 C615 1.376 . S
C616 C617 1.388 . S
C617 H604 0.930 . S
C617 C616 1.388 . S
C617 C618 1.390 . S
C618 C617 1.390 . S
C618 C619 1.394 . S
C618 C624 1.465 1_556 S
C619 C614 1.399 . S
C619 C618 1.394 . S
C619 C620 1.516 . S
C620 C619 1.516 . S
C620 C621 1.502 . S
C620 C622 1.561 . S
C620 C623 1.526 1_556 S
C621 H605 0.961 . S
C621 H606 0.959 1_556 S
C621 H607 0.961 . S
C621 C620 1.502 . S
C622 H608 0.960 . S
C622 H609 0.961 1_556 S
C622 H610 0.959 . S
C622 C620 1.561 . S
C623 C620 1.526 1_554 S
C623 C624 1.396 . S
C623 C628 1.390 . S
C624 C618 1.465 1_554 S
C624 C623 1.396 . S
C624 C625 1.399 . S
C625 H611 0.929 . S
C625 C624 1.399 . S
C625 C626 1.385 . S
C626 H612 0.931 . S
C626 C625 1.385 . S
C626 C627 1.389 . S
C627 C626 1.389 . S
C627 C628 1.387 . S
C628 H613 0.930 . S
C628 C623 1.390 . S
C628 C627 1.387 . S
H629 C641 0.930 1_655 S
H630 C643 0.930 . S
H631 C644 0.930 . S
H632 C648 0.959 . S
H633 C648 0.959 . S
H634 C648 0.961 . S
H635 C649 0.960 . S
H636 C649 0.961 . S
H637 C649 0.959 . S
H638 C652 0.929 . S
H639 C653 0.931 . S
H640 C655 0.930 1_655 S
C641 H629 0.930 1_455 S
C641 C642 1.399 . S
C641 C646 1.399 . S
C642 C641 1.399 . S
C642 C643 1.376 . S
C643 H630 0.930 . S
C643 C642 1.376 . S
C643 C644 1.388 . S
C644 H631 0.930 . S
C644 C643 1.388 . S
C644 C645 1.390 . S
C645 C644 1.390 . S
C645 C646 1.394 . S
C645 C651 1.465 . S
C646 C641 1.399 . S
C646 C645 1.394 . S
C646 C647 1.516 1_455 S
C647 C646 1.516 1_655 S
C647 C648 1.502 . S
C647 C649 1.561 . S
C647 C650 1.526 1_655 S
C648 H632 0.959 . S
C648 H633 0.959 . S
C648 H634 0.961 . S
C648 C647 1.502 . S
C649 H635 0.960 . S
C649 H636 0.961 . S
C649 H637 0.959 . S
C649 C647 1.561 . S
C650 C647 1.526 1_455 S
C650 C651 1.396 . S
C650 C655 1.390 . S
C651 C645 1.465 . S
C651 C650 1.396 . S
C651 C652 1.399 . S
C652 H638 0.929 . S
C652 C651 1.399 . S
C652 C653 1.385 . S
C653 H639 0.931 . S
C653 C652 1.385 . S
C653 C654 1.389 . S
C654 C653 1.389 . S
C654 C655 1.387 . S
C655 H640 0.930 1_455 S
C655 C650 1.390 . S
C655 C654 1.387 . S
H656 C668 0.930 . S
H657 C670 0.930 . S
H658 C671 0.930 . S
H659 C675 0.959 . S
H660 C675 0.959 . S
H661 C675 0.961 . S
H662 C676 0.960 . S
H663 C676 0.961 . S
H664 C676 0.959 . S
H665 C679 0.929 . S
H666 C680 0.931 . S
H667 C682 0.930 . S
C668 H656 0.930 . S
C668 C669 1.399 . S
C668 C673 1.399 . S
C669 C668 1.399 . S
C669 C670 1.376 . S
C670 H657 0.930 . S
C670 C669 1.376 . S
C670 C671 1.388 . S
C671 H658 0.930 . S
C671 C670 1.388 . S
C671 C672 1.390 . S
C672 C671 1.390 . S
C672 C673 1.394 . S
C672 C678 1.465 . S
C673 C668 1.399 . S
C673 C672 1.394 . S
C673 C674 1.516 . S
C674 C673 1.516 . S
C674 C675 1.502 . S
C674 C676 1.561 . S
C674 C677 1.526 . S
C675 H659 0.959 . S
C675 H660 0.959 . S
C675 H661 0.961 . S
C675 C674 1.502 . S
C676 H662 0.960 . S
C676 H663 0.961 . S
C676 H664 0.959 . S
C676 C674 1.561 . S
C677 C674 1.526 . S
C677 C678 1.396 . S
C677 C682 1.390 . S
C678 C672 1.465 . S
C678 C677 1.396 . S
C678 C679 1.399 . S
C679 H665 0.929 . S
C679 C678 1.399 . S
C679 C680 1.385 . S
C680 H666 0.931 . S
C680 C679 1.385 . S
C680 C681 1.389 . S
C681 C680 1.389 . S
C681 C682 1.387 . S
C682 H667 0.930 . S
C682 C677 1.390 . S
C682 C681 1.387 . S
H683 C695 0.930 . S
H684 C697 0.930 . S
H685 C698 0.930 . S
H686 C702 0.959 . S
H687 C702 0.959 . S
H688 C702 0.961 . S
H689 C703 0.960 . S
H690 C703 0.961 . S
H691 C703 0.959 . S
H692 C706 0.929 . S
H693 C707 0.931 . S
H694 C709 0.930 . S
C695 H683 0.930 . S
C695 C696 1.399 . S
C695 C700 1.399 . S
C696 C695 1.399 . S
C696 C697 1.376 . S
C697 H684 0.930 . S
C697 C696 1.376 . S
C697 C698 1.388 . S
C698 H685 0.930 . S
C698 C697 1.388 . S
C698 C699 1.390 . S
C699 C698 1.390 . S
C699 C700 1.394 . S
C699 C705 1.465 . S
C700 C695 1.399 . S
C700 C699 1.394 . S
C700 C701 1.516 . S
C701 C700 1.516 . S
C701 C702 1.502 . S
C701 C703 1.561 . S
C701 C704 1.526 . S
C702 H686 0.959 . S
C702 H687 0.959 . S
C702 H688 0.961 . S
C702 C701 1.502 . S
C703 H689 0.960 . S
C703 H690 0.961 . S
C703 H691 0.959 . S
C703 C701 1.561 . S
C704 C701 1.526 . S
C704 C705 1.396 . S
C704 C709 1.390 . S
C705 C699 1.465 . S
C705 C704 1.396 . S
C705 C706 1.399 . S
C706 H692 0.929 . S
C706 C705 1.399 . S
C706 C707 1.385 . S
C707 H693 0.931 . S
C707 C706 1.385 . S
C707 C708 1.389 . S
C708 C707 1.389 . S
C708 C709 1.387 . S
C709 H694 0.930 . S
C709 C704 1.390 . S
C709 C708 1.387 . S
H710 C722 0.930 . S
H711 C724 0.930 . S
H712 C725 0.930 . S
H713 C729 0.959 . S
H714 C729 0.959 . S
H715 C729 0.961 . S
H716 C730 0.960 . S
H717 C730 0.961 . S
H718 C730 0.959 . S
H719 C733 0.929 . S
H720 C734 0.931 . S
H721 C736 0.930 . S
C722 H710 0.930 . S
C722 C723 1.399 . S
C722 C727 1.399 . S
C723 C722 1.399 . S
C723 C724 1.376 . S
C724 H711 0.930 . S
C724 C723 1.376 . S
C724 C725 1.388 . S
C725 H712 0.930 . S
C725 C724 1.388 . S
C725 C726 1.390 . S
C726 C725 1.390 . S
C726 C727 1.394 . S
C726 C732 1.465 . S
C727 C722 1.399 . S
C727 C726 1.394 . S
C727 C728 1.516 . S
C728 C727 1.516 . S
C728 C729 1.502 . S
C728 C730 1.561 . S
C728 C731 1.526 . S
C729 H713 0.959 . S
C729 H714 0.959 . S
C729 H715 0.961 . S
C729 C728 1.502 . S
C730 H716 0.960 . S
C730 H717 0.961 . S
C730 H718 0.959 . S
C730 C728 1.561 . S
C731 C728 1.526 . S
C731 C732 1.396 . S
C731 C736 1.390 . S
C732 C726 1.465 . S
C732 C731 1.396 . S
C732 C733 1.399 . S
C733 H719 0.929 . S
C733 C732 1.399 . S
C733 C734 1.385 . S
C734 H720 0.931 . S
C734 C733 1.385 . S
C734 C735 1.389 . S
C735 C734 1.389 . S
C735 C736 1.387 . S
C736 H721 0.930 . S
C736 C731 1.390 . S
C736 C735 1.387 . S
H737 C749 0.930 . S
H738 C751 0.930 1_565 S
H739 C752 0.930 . S
H740 C756 0.959 . S
H741 C756 0.959 . S
H742 C756 0.961 . S
H743 C757 0.960 . S
H744 C757 0.961 . S
H745 C757 0.959 . S
H746 C760 0.929 . S
H747 C761 0.931 . S
H748 C763 0.930 . S
C749 H737 0.930 . S
C749 C750 1.399 . S
C749 C754 1.399 . S
C750 C749 1.399 . S
C750 C751 1.376 . S
C751 H738 0.930 1_545 S
C751 C750 1.376 . S
C751 C752 1.388 . S
C752 H739 0.930 . S
C752 C751 1.388 . S
C752 C753 1.390 . S
C753 C752 1.390 . S
C753 C754 1.394 . S
C753 C759 1.465 . S
C754 C749 1.399 . S
C754 C753 1.394 . S
C754 C755 1.516 . S
C755 C754 1.516 . S
C755 C756 1.502 . S
C755 C757 1.561 . S
C755 C758 1.526 . S
C756 H740 0.959 . S
C756 H741 0.959 . S
C756 H742 0.961 . S
C756 C755 1.502 . S
C757 H743 0.960 . S
C757 H744 0.961 . S
C757 H745 0.959 . S
C757 C755 1.561 . S
C758 C755 1.526 . S
C758 C759 1.396 . S
C758 C763 1.390 . S
C759 C753 1.465 . S
C759 C758 1.396 . S
C759 C760 1.399 . S
C760 H746 0.929 . S
C760 C759 1.399 . S
C760 C761 1.385 . S
C761 H747 0.931 . S
C761 C760 1.385 . S
C761 C762 1.389 . S
C762 C761 1.389 . S
C762 C763 1.387 . S
C763 H748 0.930 . S
C763 C758 1.390 . S
C763 C762 1.387 . S
H764 C776 0.930 . S
H765 C778 0.930 . S
H766 C779 0.930 . S
H767 C783 0.959 . S
H768 C783 0.959 . S
H769 C783 0.961 . S
H770 C784 0.960 . S
H771 C784 0.961 . S
H772 C784 0.959 . S
H773 C787 0.929 . S
H774 C788 0.931 . S
H775 C790 0.930 . S
C776 H764 0.930 . S
C776 C777 1.399 . S
C776 C781 1.399 . S
C777 C776 1.399 . S
C777 C778 1.376 . S
C778 H765 0.930 . S
C778 C777 1.376 . S
C778 C779 1.388 . S
C779 H766 0.930 . S
C779 C778 1.388 . S
C779 C780 1.390 . S
C780 C779 1.390 . S
C780 C781 1.394 . S
C780 C786 1.465 . S
C781 C776 1.399 . S
C781 C780 1.394 . S
C781 C782 1.516 . S
C782 C781 1.516 . S
C782 C783 1.502 . S
C782 C784 1.561 . S
C782 C785 1.526 . S
C783 H767 0.959 . S
C783 H768 0.959 . S
C783 H769 0.961 . S
C783 C782 1.502 . S
C784 H770 0.960 . S
C784 H771 0.961 . S
C784 H772 0.959 . S
C784 C782 1.561 . S
C785 C782 1.526 . S
C785 C786 1.396 . S
C785 C790 1.390 . S
C786 C780 1.465 . S
C786 C785 1.396 . S
C786 C787 1.399 . S
C787 H773 0.929 . S
C787 C786 1.399 . S
C787 C788 1.385 . S
C788 H774 0.931 . S
C788 C787 1.385 . S
C788 C789 1.389 . S
C789 C788 1.389 . S
C789 C790 1.387 . S
C790 H775 0.930 . S
C790 C785 1.390 . S
C790 C789 1.387 . S
H791 C803 0.930 . S
H792 C805 0.930 . S
H793 C806 0.930 . S
H794 C810 0.959 . S
H795 C810 0.959 . S
H796 C810 0.961 . S
H797 C811 0.960 . S
H798 C811 0.961 . S
H799 C811 0.959 . S
H800 C814 0.929 . S
H801 C815 0.931 . S
H802 C817 0.930 . S
C803 H791 0.930 . S
C803 C804 1.399 . S
C803 C808 1.399 . S
C804 C803 1.399 . S
C804 C805 1.376 . S
C805 H792 0.930 . S
C805 C804 1.376 . S
C805 C806 1.388 . S
C806 H793 0.930 . S
C806 C805 1.388 . S
C806 C807 1.390 . S
C807 C806 1.390 . S
C807 C808 1.394 . S
C807 C813 1.465 . S
C808 C803 1.399 . S
C808 C807 1.394 . S
C808 C809 1.516 . S
C809 C808 1.516 . S
C809 C810 1.502 . S
C809 C811 1.561 . S
C809 C812 1.526 . S
C810 H794 0.959 . S
C810 H795 0.959 . S
C810 H796 0.961 . S
C810 C809 1.502 . S
C811 H797 0.960 . S
C811 H798 0.961 . S
C811 H799 0.959 . S
C811 C809 1.561 . S
C812 C809 1.526 . S
C812 C813 1.396 . S
C812 C817 1.390 . S
C813 C807 1.465 . S
C813 C812 1.396 . S
C813 C814 1.399 . S
C814 H800 0.929 . S
C814 C813 1.399 . S
C814 C815 1.385 . S
C815 H801 0.931 . S
C815 C814 1.385 . S
C815 C816 1.389 . S
C816 C815 1.389 . S
C816 C817 1.387 . S
C817 H802 0.930 . S
C817 C812 1.390 . S
C817 C816 1.387 . S
H818 C830 0.930 . S
H819 C832 0.930 . S
H820 C833 0.930 . S
H821 C837 0.959 . S
H822 C837 0.959 . S
H823 C837 0.961 . S
H824 C838 0.960 . S
H825 C838 0.961 . S
H826 C838 0.959 . S
H827 C841 0.929 . S
H828 C842 0.931 . S
H829 C844 0.930 . S
C830 H818 0.930 . S
C830 C831 1.399 . S
C830 C835 1.399 . S
C831 C830 1.399 . S
C831 C832 1.376 . S
C832 H819 0.930 . S
C832 C831 1.376 . S
C832 C833 1.388 . S
C833 H820 0.930 . S
C833 C832 1.388 . S
C833 C834 1.390 . S
C834 C833 1.390 . S
C834 C835 1.394 . S
C834 C840 1.465 . S
C835 C830 1.399 . S
C835 C834 1.394 . S
C835 C836 1.516 . S
C836 C835 1.516 . S
C836 C837 1.502 . S
C836 C838 1.561 . S
C836 C839 1.526 . S
C837 H821 0.959 . S
C837 H822 0.959 . S
C837 H823 0.961 . S
C837 C836 1.502 . S
C838 H824 0.960 . S
C838 H825 0.961 . S
C838 H826 0.959 . S
C838 C836 1.561 . S
C839 C836 1.526 . S
C839 C840 1.396 . S
C839 C844 1.390 . S
C840 C834 1.465 . S
C840 C839 1.396 . S
C840 C841 1.399 . S
C841 H827 0.929 . S
C841 C840 1.399 . S
C841 C842 1.385 . S
C842 H828 0.931 . S
C842 C841 1.385 . S
C842 C843 1.389 . S
C843 C842 1.389 . S
C843 C844 1.387 . S
C844 H829 0.930 . S
C844 C839 1.390 . S
C844 C843 1.387 . S
H845 C857 0.930 . S
H846 C859 0.930 . S
H847 C860 0.930 . S
H848 C864 0.959 . S
H849 C864 0.959 . S
H850 C864 0.961 . S
H851 C865 0.960 . S
H852 C865 0.961 . S
H853 C865 0.959 . S
H854 C868 0.929 . S
H855 C869 0.931 1_545 S
H856 C871 0.930 . S
C857 H845 0.930 . S
C857 C858 1.399 . S
C857 C862 1.399 . S
C858 C857 1.399 . S
C858 C859 1.376 . S
C859 H846 0.930 . S
C859 C858 1.376 . S
C859 C860 1.388 . S
C860 H847 0.930 . S
C860 C859 1.388 . S
C860 C861 1.390 . S
C861 C860 1.390 . S
C861 C862 1.394 . S
C861 C867 1.465 . S
C862 C857 1.399 . S
C862 C861 1.394 . S
C862 C863 1.516 . S
C863 C862 1.516 . S
C863 C864 1.502 . S
C863 C865 1.561 . S
C863 C866 1.526 . S
C864 H848 0.959 . S
C864 H849 0.959 . S
C864 H850 0.961 . S
C864 C863 1.502 . S
C865 H851 0.960 . S
C865 H852 0.961 . S
C865 H853 0.959 . S
C865 C863 1.561 . S
C866 C863 1.526 . S
C866 C867 1.396 . S
C866 C871 1.390 . S
C867 C861 1.465 . S
C867 C866 1.396 . S
C867 C868 1.399 . S
C868 H854 0.929 . S
C868 C867 1.399 . S
C868 C869 1.385 . S
C869 H855 0.931 1_565 S
C869 C868 1.385 . S
C869 C870 1.389 . S
C870 C869 1.389 . S
C870 C871 1.387 . S
C871 H856 0.930 . S
C871 C866 1.390 . S
C871 C870 1.387 . S
H872 C884 0.930 . S
H873 C886 0.930 . S
H874 C887 0.930 . S
H875 C891 0.959 . S
H876 C891 0.959 . S
H877 C891 0.961 . S
H878 C892 0.960 . S
H879 C892 0.961 . S
H880 C892 0.959 . S
H881 C895 0.929 . S
H882 C896 0.931 . S
H883 C898 0.930 . S
C884 H872 0.930 . S
C884 C885 1.399 . S
C884 C889 1.399 . S
C885 C884 1.399 . S
C885 C886 1.376 . S
C886 H873 0.930 . S
C886 C885 1.376 . S
C886 C887 1.388 . S
C887 H874 0.930 . S
C887 C886 1.388 . S
C887 C888 1.390 . S
C888 C887 1.390 . S
C888 C889 1.394 . S
C888 C894 1.465 . S
C889 C884 1.399 . S
C889 C888 1.394 . S
C889 C890 1.516 . S
C890 C889 1.516 . S
C890 C891 1.502 . S
C890 C892 1.561 . S
C890 C893 1.526 . S
C891 H875 0.959 . S
C891 H876 0.959 . S
C891 H877 0.961 . S
C891 C890 1.502 . S
C892 H878 0.960 . S
C892 H879 0.961 . S
C892 H880 0.959 . S
C892 C890 1.561 . S
C893 C890 1.526 . S
C893 C894 1.396 . S
C893 C898 1.390 . S
C894 C888 1.465 . S
C894 C893 1.396 . S
C894 C895 1.399 . S
C895 H881 0.929 . S
C895 C894 1.399 . S
C895 C896 1.385 . S
C896 H882 0.931 . S
C896 C895 1.385 . S
C896 C897 1.389 . S
C897 C896 1.389 . S
C897 C898 1.387 . S
C898 H883 0.930 . S
C898 C893 1.390 . S
C898 C897 1.387 . S
H899 C911 0.930 . S
H900 C913 0.930 . S
H901 C914 0.930 . S
H902 C918 0.959 . S
H903 C918 0.959 . S
H904 C918 0.961 . S
H905 C919 0.960 . S
H906 C919 0.961 . S
H907 C919 0.959 . S
H908 C922 0.929 . S
H909 C923 0.931 . S
H910 C925 0.930 . S
C911 H899 0.930 . S
C911 C912 1.399 . S
C911 C916 1.399 . S
C912 C911 1.399 . S
C912 C913 1.376 . S
C913 H900 0.930 . S
C913 C912 1.376 . S
C913 C914 1.388 . S
C914 H901 0.930 . S
C914 C913 1.388 . S
C914 C915 1.390 . S
C915 C914 1.390 . S
C915 C916 1.394 . S
C915 C921 1.465 . S
C916 C911 1.399 . S
C916 C915 1.394 . S
C916 C917 1.516 . S
C917 C916 1.516 . S
C917 C918 1.502 . S
C917 C919 1.561 . S
C917 C920 1.526 . S
C918 H902 0.959 . S
C918 H903 0.959 . S
C918 H904 0.961 . S
C918 C917 1.502 . S
C919 H905 0.960 . S
C919 H906 0.961 . S
C919 H907 0.959 . S
C919 C917 1.561 . S
C920 C917 1.526 . S
C920 C921 1.396 . S
C920 C925 1.390 . S
C921 C915 1.465 . S
C921 C920 1.396 . S
C921 C922 1.399 . S
C922 H908 0.929 . S
C922 C921 1.399 . S
C922 C923 1.385 . S
C923 H909 0.931 . S
C923 C922 1.385 . S
C923 C924 1.389 . S
C924 C923 1.389 . S
C924 C925 1.387 . S
C925 H910 0.930 . S
C925 C920 1.390 . S
C925 C924 1.387 . S
H926 C938 0.930 . S
H927 C940 0.930 . S
H928 C941 0.930 . S
H929 C945 0.959 . S
H930 C945 0.959 . S
H931 C945 0.961 . S
H932 C946 0.960 . S
H933 C946 0.961 . S
H934 C946 0.959 . S
H935 C949 0.929 . S
H936 C950 0.931 . S
H937 C952 0.930 . S
C938 H926 0.930 . S
C938 C939 1.399 . S
C938 C943 1.399 . S
C939 C938 1.399 . S
C939 C940 1.376 . S
C940 H927 0.930 . S
C940 C939 1.376 . S
C940 C941 1.388 . S
C941 H928 0.930 . S
C941 C940 1.388 . S
C941 C942 1.390 . S
C942 C941 1.390 . S
C942 C943 1.394 . S
C942 C948 1.465 . S
C943 C938 1.399 . S
C943 C942 1.394 . S
C943 C944 1.516 . S
C944 C943 1.516 . S
C944 C945 1.502 . S
C944 C946 1.561 . S
C944 C947 1.526 . S
C945 H929 0.959 . S
C945 H930 0.959 . S
C945 H931 0.961 . S
C945 C944 1.502 . S
C946 H932 0.960 . S
C946 H933 0.961 . S
C946 H934 0.959 . S
C946 C944 1.561 . S
C947 C944 1.526 . S
C947 C948 1.396 . S
C947 C952 1.390 . S
C948 C942 1.465 . S
C948 C947 1.396 . S
C948 C949 1.399 . S
C949 H935 0.929 . S
C949 C948 1.399 . S
C949 C950 1.385 . S
C950 H936 0.931 . S
C950 C949 1.385 . S
C950 C951 1.389 . S
C951 C950 1.389 . S
C951 C952 1.387 . S
C952 H937 0.930 . S
C952 C947 1.390 . S
C952 C951 1.387 . S
H953 C965 0.930 . S
H954 C967 0.930 . S
H955 C968 0.930 . S
H956 C972 0.959 . S
H957 C972 0.959 . S
H958 C972 0.961 . S
H959 C973 0.960 . S
H960 C973 0.961 . S
H961 C973 0.959 . S
H962 C976 0.929 . S
H963 C977 0.931 . S
H964 C979 0.930 . S
C965 H953 0.930 . S
C965 C966 1.399 . S
C965 C970 1.399 . S
C966 C965 1.399 . S
C966 C967 1.376 . S
C967 H954 0.930 . S
C967 C966 1.376 . S
C967 C968 1.388 . S
C968 H955 0.930 . S
C968 C967 1.388 . S
C968 C969 1.390 . S
C969 C968 1.390 . S
C969 C970 1.394 . S
C969 C975 1.465 . S
C970 C965 1.399 . S
C970 C969 1.394 . S
C970 C971 1.516 . S
C971 C970 1.516 . S
C971 C972 1.502 . S
C971 C973 1.561 . S
C971 C974 1.526 . S
C972 H956 0.959 . S
C972 H957 0.959 . S
C972 H958 0.961 . S
C972 C971 1.502 . S
C973 H959 0.960 . S
C973 H960 0.961 . S
C973 H961 0.959 . S
C973 C971 1.561 . S
C974 C971 1.526 . S
C974 C975 1.396 . S
C974 C979 1.390 . S
C975 C969 1.465 . S
C975 C974 1.396 . S
C975 C976 1.399 . S
C976 H962 0.929 . S
C976 C975 1.399 . S
C976 C977 1.385 . S
C977 H963 0.931 . S
C977 C976 1.385 . S
C977 C978 1.389 . S
C978 C977 1.389 . S
C978 C979 1.387 . S
C979 H964 0.930 . S
C979 C974 1.390 . S
C979 C978 1.387 . S
H980 C992 0.930 . S
H981 C994 0.930 . S
H982 C995 0.930 . S
H983 C999 0.959 . S
H984 C999 0.959 . S
H985 C999 0.961 . S
H986 C1000 0.960 . S
H987 C1000 0.961 . S
H988 C1000 0.959 . S
H989 C1003 0.929 . S
H990 C1004 0.931 . S
H991 C1006 0.930 . S
C992 H980 0.930 . S
C992 C993 1.399 . S
C992 C997 1.399 . S
C993 C992 1.399 . S
C993 C994 1.376 . S
C994 H981 0.930 . S
C994 C993 1.376 . S
C994 C995 1.388 . S
C995 H982 0.930 . S
C995 C994 1.388 . S
C995 C996 1.390 . S
C996 C995 1.390 . S
C996 C997 1.394 . S
C996 C1002 1.465 . S
C997 C992 1.399 . S
C997 C996 1.394 . S
C997 C998 1.516 . S
C998 C997 1.516 . S
C998 C999 1.502 . S
C998 C1000 1.561 . S
C998 C1001 1.526 . S
C999 H983 0.959 . S
C999 H984 0.959 . S
C999 H985 0.961 . S
C999 C998 1.502 . S
C1000 H986 0.960 . S
C1000 H987 0.961 . S
C1000 H988 0.959 . S
C1000 C998 1.561 . S
C1001 C998 1.526 . S
C1001 C1002 1.396 . S
C1001 C1006 1.390 . S
C1002 C996 1.465 . S
C1002 C1001 1.396 . S
C1002 C1003 1.399 . S
C1003 H989 0.929 . S
C1003 C1002 1.399 . S
C1003 C1004 1.385 . S
C1004 H990 0.931 . S
C1004 C1003 1.385 . S
C1004 C1005 1.389 . S
C1005 C1004 1.389 . S
C1005 C1006 1.387 . S
C1006 H991 0.930 . S
C1006 C1001 1.390 . S
C1006 C1005 1.387 . S
H1007 C1019 0.930 . S
H1008 C1021 0.930 . S
H1009 C1022 0.930 . S
H1010 C1026 0.959 . S
H1011 C1026 0.959 . S
H1012 C1026 0.961 . S
H1013 C1027 0.960 . S
H1014 C1027 0.961 . S
H1015 C1027 0.959 . S
H1016 C1030 0.929 . S
H1017 C1031 0.931 . S
H1018 C1033 0.930 . S
C1019 H1007 0.930 . S
C1019 C1020 1.399 . S
C1019 C1024 1.399 . S
C1020 C1019 1.399 . S
C1020 C1021 1.376 . S
C1021 H1008 0.930 . S
C1021 C1020 1.376 . S
C1021 C1022 1.388 . S
C1022 H1009 0.930 . S
C1022 C1021 1.388 . S
C1022 C1023 1.390 . S
C1023 C1022 1.390 . S
C1023 C1024 1.394 . S
C1023 C1029 1.465 . S
C1024 C1019 1.399 . S
C1024 C1023 1.394 . S
C1024 C1025 1.516 . S
C1025 C1024 1.516 . S
C1025 C1026 1.502 . S
C1025 C1027 1.561 . S
C1025 C1028 1.526 . S
C1026 H1010 0.959 . S
C1026 H1011 0.959 . S
C1026 H1012 0.961 . S
C1026 C1025 1.502 . S
C1027 H1013 0.960 . S
C1027 H1014 0.961 . S
C1027 H1015 0.959 . S
C1027 C1025 1.561 . S
C1028 C1025 1.526 . S
C1028 C1029 1.396 . S
C1028 C1033 1.390 . S
C1029 C1023 1.465 . S
C1029 C1028 1.396 . S
C1029 C1030 1.399 . S
C1030 H1016 0.929 . S
C1030 C1029 1.399 . S
C1030 C1031 1.385 . S
C1031 H1017 0.931 . S
C1031 C1030 1.385 . S
C1031 C1032 1.389 . S
C1032 C1031 1.389 . S
C1032 C1033 1.387 . S
C1033 H1018 0.930 . S
C1033 C1028 1.390 . S
C1033 C1032 1.387 . S
H1034 C1046 0.930 . S
H1035 C1048 0.930 . S
H1036 C1049 0.930 . S
H1037 C1053 0.959 . S
H1038 C1053 0.959 . S
H1039 C1053 0.961 . S
H1040 C1054 0.960 . S
H1041 C1054 0.961 . S
H1042 C1054 0.959 . S
H1043 C1057 0.929 . S
H1044 C1058 0.931 . S
H1045 C1060 0.930 . S
C1046 H1034 0.930 . S
C1046 C1047 1.399 . S
C1046 C1051 1.399 . S
C1047 C1046 1.399 . S
C1047 C1048 1.376 . S
C1048 H1035 0.930 . S
C1048 C1047 1.376 . S
C1048 C1049 1.388 . S
C1049 H1036 0.930 . S
C1049 C1048 1.388 . S
C1049 C1050 1.390 . S
C1050 C1049 1.390 . S
C1050 C1051 1.394 . S
C1050 C1056 1.465 . S
C1051 C1046 1.399 . S
C1051 C1050 1.394 . S
C1051 C1052 1.516 . S
C1052 C1051 1.516 . S
C1052 C1053 1.502 . S
C1052 C1054 1.561 . S
C1052 C1055 1.526 . S
C1053 H1037 0.959 . S
C1053 H1038 0.959 . S
C1053 H1039 0.961 . S
C1053 C1052 1.502 . S
C1054 H1040 0.960 . S
C1054 H1041 0.961 . S
C1054 H1042 0.959 . S
C1054 C1052 1.561 . S
C1055 C1052 1.526 . S
C1055 C1056 1.396 . S
C1055 C1060 1.390 . S
C1056 C1050 1.465 . S
C1056 C1055 1.396 . S
C1056 C1057 1.399 . S
C1057 H1043 0.929 . S
C1057 C1056 1.399 . S
C1057 C1058 1.385 . S
C1058 H1044 0.931 . S
C1058 C1057 1.385 . S
C1058 C1059 1.389 . S
C1059 C1058 1.389 . S
C1059 C1060 1.387 . S
C1060 H1045 0.930 . S
C1060 C1055 1.390 . S
C1060 C1059 1.387 . S
H1061 C1073 0.930 . S
H1062 C1075 0.930 . S
H1063 C1076 0.930 . S
H1064 C1080 0.959 . S
H1065 C1080 0.959 . S
H1066 C1080 0.961 . S
H1067 C1081 0.960 . S
H1068 C1081 0.961 . S
H1069 C1081 0.959 . S
H1070 C1084 0.929 . S
H1071 C1085 0.931 . S
H1072 C1087 0.930 . S
C1073 H1061 0.930 . S
C1073 C1074 1.399 . S
C1073 C1078 1.399 . S
C1074 C1073 1.399 . S
C1074 C1075 1.376 . S
C1075 H1062 0.930 . S
C1075 C1074 1.376 . S
C1075 C1076 1.388 . S
C1076 H1063 0.930 . S
C1076 C1075 1.388 . S
C1076 C1077 1.390 . S
C1077 C1076 1.390 . S
C1077 C1078 1.394 . S
C1077 C1083 1.465 . S
C1078 C1073 1.399 . S
C1078 C1077 1.394 . S
C1078 C1079 1.516 . S
C1079 C1078 1.516 . S
C1079 C1080 1.502 . S
C1079 C1081 1.561 . S
C1079 C1082 1.526 . S
C1080 H1064 0.959 . S
C1080 H1065 0.959 . S
C1080 H1066 0.961 . S
C1080 C1079 1.502 . S
C1081 H1067 0.960 . S
C1081 H1068 0.961 . S
C1081 H1069 0.959 . S
C1081 C1079 1.561 . S
C1082 C1079 1.526 . S
C1082 C1083 1.396 . S
C1082 C1087 1.390 . S
C1083 C1077 1.465 . S
C1083 C1082 1.396 . S
C1083 C1084 1.399 . S
C1084 H1070 0.929 . S
C1084 C1083 1.399 . S
C1084 C1085 1.385 . S
C1085 H1071 0.931 . S
C1085 C1084 1.385 . S
C1085 C1086 1.389 . S
C1086 C1085 1.389 . S
C1086 C1087 1.387 . S
C1087 H1072 0.930 . S
C1087 C1082 1.390 . S
C1087 C1086 1.387 . S
C237 C11 1.036 . S
C249 C193 1.056 . S
C264 C165 1.035 . S
C276 C25 1.057 . S
C291 C179 1.070 . S
C303 C39 1.048 . S
C318 C151 1.036 . S
C330 C53 1.056 . S
C345 C67 1.070 . S
C357 C221 1.044 . S
C372 C81 1.070 . S
C384 C137 1.048 . S
C399 C207 1.037 . S
C411 C95 1.054 . S
C426 C109 1.070 . S
C438 C123 1.047 . S
C453 C69 1.433 . S
C465 C13 1.522 . S
C480 C27 1.500 . S
C492 C83 1.452 . S
C507 C41 1.525 . S
C519 C97 1.443 . S
C534 C111 1.495 . S
C546 C55 1.456 . S
C561 C125 1.509 . S
C573 C153 1.444 . S
C588 C139 1.518 . S
C600 C167 1.437 . S
C615 C209 1.519 . S
C627 C181 1.452 . S
C642 C195 1.460 . S
C654 C223 1.512 . S
C669 C77 1.396 . S
C681 C7 1.353 . S
C696 C21 1.335 . S
C708 C91 1.350 . S
C723 C35 1.343 . S
C735 C105 1.396 . S
C750 C63 1.386 . S
C762 C49 1.375 . S
C777 C64 1.255 . S
C789 C148 1.298 . S
C804 C36 1.210 . S
C816 C120 1.268 . S
C831 C162 1.270 . S
C843 C92 1.212 . S
C858 C134 1.276 . S
C870 C8 1.294 . S
C885 C119 1.337 . S
C897 C175 1.395 . S
C912 C147 1.390 . S
C924 C217 1.331 . S
C939 C189 1.335 . S
C951 C133 1.350 . S
C966 C161 1.392 . S
C978 C203 1.366 . S
C993 C204 1.272 . S
C1005 C22 1.213 . S
C1020 C190 1.280 . S
C1032 C78 1.292 . S
C1047 C218 1.209 . S
C1059 C50 1.267 . S
C1074 C176 1.240 . S
C1086 C106 1.209 . S
