# Generated by pormake.
# Topology smm, (6)-cn, num edge types: 1
# Building blocks:
#     Node 0, Type 0, BuildingBlock: CUKXOW_clean_sbu_0, # of connection points: 6
#     Node 1, Type 0, BuildingBlock: CUKXOW_clean_sbu_0, # of connection points: 6
#     Node 2, Type 0, BuildingBlock: CUKXOW_clean_sbu_0, # of connection points: 6
#     Node 3, Type 0, BuildingBlock: CUKXOW_clean_sbu_0, # of connection points: 6
#     Node 4, Type 0, BuildingBlock: CUKXOW_clean_sbu_0, # of connection points: 6
#     Node 5, Type 0, BuildingBlock: CUKXOW_clean_sbu_0, # of connection points: 6
#     Node 6, Type 0, BuildingBlock: CUKXOW_clean_sbu_0, # of connection points: 6
#     Node 7, Type 0, BuildingBlock: CUKXOW_clean_sbu_0, # of connection points: 6
#     Node 8, Type 0, BuildingBlock: CUKXOW_clean_sbu_0, # of connection points: 6
#     Edge 9, Type (0, 0), BuildingBlock: KIFKEQ_clean_linker_1, # of connection points: 2
#     Edge 10, Type (0, 0), BuildingBlock: KIFKEQ_clean_linker_1, # of connection points: 2
#     Edge 11, Type (0, 0), BuildingBlock: KIFKEQ_clean_linker_1, # of connection points: 2
#     Edge 12, Type (0, 0), BuildingBlock: KIFKEQ_clean_linker_1, # of connection points: 2
#     Edge 13, Type (0, 0), BuildingBlock: KIFKEQ_clean_linker_1, # of connection points: 2
#     Edge 14, Type (0, 0), BuildingBlock: KIFKEQ_clean_linker_1, # of connection points: 2
#     Edge 15, Type (0, 0), BuildingBlock: KIFKEQ_clean_linker_1, # of connection points: 2
#     Edge 16, Type (0, 0), BuildingBlock: KIFKEQ_clean_linker_1, # of connection points: 2
#     Edge 17, Type (0, 0), BuildingBlock: KIFKEQ_clean_linker_1, # of connection points: 2
#     Edge 18, Type (0, 0), BuildingBlock: KIFKEQ_clean_linker_1, # of connection points: 2
#     Edge 19, Type (0, 0), BuildingBlock: KIFKEQ_clean_linker_1, # of connection points: 2
#     Edge 20, Type (0, 0), BuildingBlock: KIFKEQ_clean_linker_1, # of connection points: 2
#     Edge 21, Type (0, 0), BuildingBlock: KIFKEQ_clean_linker_1, # of connection points: 2
#     Edge 22, Type (0, 0), BuildingBlock: KIFKEQ_clean_linker_1, # of connection points: 2
#     Edge 23, Type (0, 0), BuildingBlock: KIFKEQ_clean_linker_1, # of connection points: 2
#     Edge 24, Type (0, 0), BuildingBlock: KIFKEQ_clean_linker_1, # of connection points: 2
#     Edge 25, Type (0, 0), BuildingBlock: KIFKEQ_clean_linker_1, # of connection points: 2
#     Edge 26, Type (0, 0), BuildingBlock: KIFKEQ_clean_linker_1, # of connection points: 2
#     Edge 27, Type (0, 0), BuildingBlock: KIFKEQ_clean_linker_1, # of connection points: 2
#     Edge 28, Type (0, 0), BuildingBlock: KIFKEQ_clean_linker_1, # of connection points: 2
#     Edge 29, Type (0, 0), BuildingBlock: KIFKEQ_clean_linker_1, # of connection points: 2
#     Edge 30, Type (0, 0), BuildingBlock: KIFKEQ_clean_linker_1, # of connection points: 2
#     Edge 31, Type (0, 0), BuildingBlock: KIFKEQ_clean_linker_1, # of connection points: 2
#     Edge 32, Type (0, 0), BuildingBlock: KIFKEQ_clean_linker_1, # of connection points: 2
#     Edge 33, Type (0, 0), BuildingBlock: KIFKEQ_clean_linker_1, # of connection points: 2
#     Edge 34, Type (0, 0), BuildingBlock: KIFKEQ_clean_linker_1, # of connection points: 2
#     Edge 35, Type (0, 0), BuildingBlock: KIFKEQ_clean_linker_1, # of connection points: 2
# Relax obj value: 0.090
# Max RMSD: 0.189
# Mean RMSD: 0.153
data_MOF--net-smm--node1-CUKXOW_clean_sbu_0--edge1-KIFKEQ_clean_linker_1
_symmetry_space_group_name_H-M    P1
_symmetry_Int_Tables_number       1
_symmetry_cell_setting            triclinic
loop_
_symmetry_equiv_pos_as_xyz
'x, y, z'
_cell_length_a     59.142714
_cell_length_b     51.357761
_cell_length_c     15.255586
_cell_angle_alpha  92.692432
_cell_angle_beta   92.759013
_cell_angle_gamma 120.86859
loop_
_atom_site_label
_atom_site_type_symbol
_atom_site_fract_x
_atom_site_fract_y
_atom_site_fract_z
_atom_type_partial_charge
Tb0 Tb 1.02818 0.24495 0.95535 0.0
C1 C 0.05691 0.23985 0.12675 0.0
Tb2 Tb 0.06849 0.22219 0.93918 0.0
O3 O 0.99337 0.20137 -0.01913 0.0
O4 O 1.02826 0.20378 0.96064 0.0
O5 O 0.0438 0.25154 0.0897 0.0
C6 C 0.09763 0.19553 0.94169 0.0
O7 O 0.06691 0.22586 0.0817 0.0
C8 C 0.08464 0.27798 0.89109 0.0
C9 C 0.03698 0.22318 0.77206 0.0
O10 O 0.10582 0.22353 0.96953 0.0
O11 O 0.07277 0.18233 0.9133 0.0
O12 O 0.09293 0.26053 0.86138 0.0
O13 O 0.06984 0.2649 0.9516 0.0
O14 O 0.04598 0.20738 0.81172 0.0
O15 O 0.03171 0.24232 0.81511 0.0
C16 C 1.00533 0.27778 -0.01344 0.0
O17 O 0.99536 0.25305 0.93421 0.0
O18 O 1.02883 0.28487 0.01717 0.0
C19 C 1.00471 0.1855 0.97693 0.0
Tb20 Tb 0.84185 0.90236 0.03946 0.0
C21 C 0.86943 0.89496 0.87443 0.0
Tb22 Tb 0.89912 0.91253 0.06469 0.0
O23 O 0.85417 0.951 0.03227 0.0
O24 O 0.8812 0.93805 0.04876 0.0
O25 O 0.84739 0.89011 0.90722 0.0
C26 C 0.95048 0.93544 0.04924 0.0
O27 O 0.89157 0.90341 0.92317 0.0
C28 C 0.86031 0.85919 0.1017 0.0
C29 C 0.87245 0.91982 0.22755 0.0
O30 O 0.93703 0.9477 0.0249 0.0
O31 O 0.93512 0.91031 0.08438 0.0
O32 O 0.88455 0.87187 0.13612 0.0
O33 O 0.85938 0.87492 0.04132 0.0
O34 O 0.89521 0.93048 0.1906 0.0
O35 O 0.84882 0.90571 0.1821 0.0
C36 C 0.79014 0.87673 -0.0033 0.0
O37 O 0.80041 0.86974 0.06237 0.0
O38 O 0.80891 0.89864 0.95875 0.0
C39 C 0.87939 0.96109 0.03949 0.0
Tb40 Tb 0.24734 0.08309 0.92242 0.0
C41 C 0.21581 0.04798 0.08141 0.0
Tb42 Tb 0.18797 0.03606 0.89113 0.0
O43 O 0.24007 0.1198 0.89097 0.0
O44 O 0.2116 0.08146 0.94664 0.0
O45 O 0.23893 0.06589 0.05059 0.0
C46 C 0.13584 1.00947 0.89109 0.0
O47 O 0.19305 1.03481 0.03224 0.0
C48 C 0.21883 1.0161 0.84178 0.0
C49 C 0.22009 0.06778 0.73381 0.0
O50 O 0.14935 0.99681 0.91205 0.0
O51 O 0.15162 0.03663 0.86795 0.0
O52 O 0.19483 1.00531 0.80737 0.0
O53 O 0.22324 1.03482 0.90669 0.0
O54 O 0.1972 0.05777 0.76847 0.0
O55 O 0.24236 0.07576 0.78113 0.0
C56 C 0.29859 0.10861 0.97461 0.0
O57 O 0.28302 0.11739 0.00305 0.0
O58 O 0.28555 0.08658 0.91331 0.0
C59 C 0.21598 0.10562 0.91442 0.0
Tb60 Tb 0.70509 0.59555 0.35553 0.0
C61 C 0.67495 0.55618 0.1794 0.0
Tb62 Tb 0.66571 0.5241 0.35224 0.0
O63 O 0.73752 0.5896 0.40408 0.0
O64 O 0.70563 0.55458 0.3261 0.0
O65 O 0.68314 0.58211 0.22717 0.0
C66 C 0.64618 0.46375 0.35265 0.0
O67 O 0.67075 0.53107 0.21426 0.0
C68 C 0.64057 0.55448 0.3756 0.0
C69 C 0.68799 0.56566 0.5313 0.0
O70 O 0.63787 0.47682 0.29987 0.0
O71 O 0.66576 0.48481 0.40508 0.0
O72 O 0.62926 0.525 0.37177 0.0
O73 O 0.66452 0.56442 0.36438 0.0
O74 O 0.68076 0.53898 0.48887 0.0
O75 O 0.69586 0.59121 0.4919 0.0
C76 C 0.73274 0.65314 0.30852 0.0
O77 O 0.71915 0.64478 0.37752 0.0
O78 O 0.7308 0.62922 0.26804 0.0
C79 C 0.72654 0.56151 0.3721 0.0
Tb80 Tb 0.50902 0.17535 0.40515 0.0
C81 C 0.54094 0.17752 0.24128 0.0
Tb82 Tb 0.56921 0.19451 0.43355 0.0
O83 O 0.51571 0.22137 0.39049 0.0
O84 O 0.54665 0.21505 0.41525 0.0
O85 O 0.51861 0.17296 0.27102 0.0
C86 C 0.62215 0.22811 0.42886 0.0
O87 O 0.56257 0.18479 0.29183 0.0
C88 C 0.5342 0.13724 0.4637 0.0
C89 C 0.53828 0.19366 0.59203 0.0
O90 O 0.60472 0.22732 0.37225 0.0
O91 O 0.60976 0.20966 0.48845 0.0
O92 O 0.55903 0.1519 0.49368 0.0
O93 O 0.53143 0.15348 0.40938 0.0
O94 O 0.5608 0.21005 0.5551 0.0
O95 O 0.5154 0.17459 0.54591 0.0
C96 C 0.45722 0.1439 0.35579 0.0
O97 O 0.46862 0.16563 0.41895 0.0
O98 O 0.47485 0.13902 0.32484 0.0
C99 C 0.54131 0.2354 0.40214 0.0
Tb100 Tb 0.87215 0.37394 0.37224 0.0
C101 C 0.86748 0.40704 0.20862 0.0
Tb102 Tb 0.852 0.41874 0.39303 0.0
O103 O 0.83506 0.33648 0.41024 0.0
O104 O 0.83521 0.37192 0.34797 0.0
O105 O 0.87804 0.39264 0.24613 0.0
C106 C 0.82417 0.44686 0.39017 0.0
O107 O 0.85419 0.41721 0.25136 0.0
C108 C 0.90276 0.44165 0.44283 0.0
C109 C 0.8616 0.39067 0.55645 0.0
O110 O 0.84838 0.45838 0.36957 0.0
O111 O 0.81566 0.41946 0.41302 0.0
O112 O 0.88854 0.45184 0.47501 0.0
O113 O 0.88888 0.42168 0.38093 0.0
O114 O 0.84571 0.39855 0.51748 0.0
O115 O 0.87748 0.38439 0.51353 0.0
C116 C 0.89653 0.34535 0.31395 0.0
O117 O 0.90483 0.36488 0.38289 0.0
O118 O 0.8741 0.3411 0.28149 0.0
C119 C 0.82095 0.34805 0.38623 0.0
Tb120 Tb 0.34552 0.88555 0.6282 0.0
C121 C 0.37242 0.87733 0.79879 0.0
Tb122 Tb 0.38226 0.85648 0.61601 0.0
O123 O 0.30755 0.84195 0.63104 0.0
O124 O 0.34182 0.84199 0.62605 0.0
O125 O 0.36442 0.89399 0.75958 0.0
C126 C 0.40236 0.81984 0.60622 0.0
O127 O 0.37762 0.85823 0.7557 0.0
C128 C 0.41022 0.91737 0.60823 0.0
C129 C 0.35761 0.86745 0.44728 0.0
O130 O 0.39515 0.82767 0.67698 0.0
O131 O 0.39757 0.83204 0.5406 0.0
O132 O 0.42004 0.89982 0.6077 0.0
O133 O 0.38589 0.89991 0.61669 0.0
O134 O 0.36239 0.8478 0.48529 0.0
O135 O 0.35425 0.88788 0.49201 0.0
C136 C 0.32685 0.92281 0.66098 0.0
O137 O 0.32578 0.90997 0.58384 0.0
O138 O 0.33892 0.91515 0.71794 0.0
C139 C 0.31725 0.82429 0.62894 0.0
Tb140 Tb 0.14803 0.53819 0.65895 0.0
C141 C 0.17484 0.53144 0.49627 0.0
Tb142 Tb 0.20565 0.55059 0.6836 0.0
O143 O 0.16332 0.58227 0.60042 0.0
O144 O 0.18736 0.57692 0.68991 0.0
O145 O 0.15235 0.5215 0.53261 0.0
C146 C 0.25817 0.57841 0.68329 0.0
O147 O 0.19816 0.54663 0.54174 0.0
C148 C 0.17119 0.49131 0.68819 0.0
C149 C 0.17523 0.54666 0.84808 0.0
O150 O 0.24259 0.58131 0.627 0.0
O151 O 0.24421 0.56046 0.74163 0.0
O152 O 0.19671 0.50376 0.69337 0.0
O153 O 0.16658 0.51248 0.6764 0.0
O154 O 0.1988 0.56032 0.81609 0.0
O155 O 0.15249 0.53343 0.79806 0.0
C156 C 0.09548 0.51524 0.63399 0.0
O157 O 0.11138 0.53648 0.69477 0.0
O158 O 0.10916 0.5068 0.58996 0.0
C159 C 0.18728 0.59492 0.63681 0.0
Tb160 Tb 0.55725 0.71523 0.62371 0.0
C161 C 0.52678 0.67753 0.78088 0.0
Tb162 Tb 0.49871 0.66528 0.59227 0.0
O163 O 0.5469 0.74871 0.58306 0.0
O164 O 0.52033 0.71106 0.64486 0.0
O165 O 0.54985 0.69482 0.74865 0.0
C166 C 0.44648 0.64079 0.58583 0.0
O167 O 0.50387 0.66509 0.73314 0.0
C168 C 0.53145 0.64746 0.54637 0.0
C169 C 0.53136 0.69628 0.43381 0.0
O170 O 0.45905 0.62786 0.61532 0.0
O171 O 0.46324 0.66671 0.55757 0.0
O172 O 0.50689 0.63451 0.51447 0.0
O173 O 0.53539 0.66672 0.60921 0.0
O174 O 0.50825 0.68544 0.46759 0.0
O175 O 0.55392 0.70652 0.48247 0.0
C176 C 0.60718 0.75169 0.69014 0.0
O177 O 0.58666 0.75103 0.71877 0.0
O178 O 0.59979 0.73219 0.62153 0.0
C179 C 0.52317 0.73388 0.60831 0.0
H180 H 0.10403 0.29715 0.73467 0.0
H181 H 0.0812 0.32626 0.96621 0.0
H182 H 0.11971 0.34641 0.67775 0.0
H183 H 0.09802 0.37676 0.91041 0.0
H184 H 0.12133 0.46302 0.75477 0.0
H185 H 0.09652 0.41055 0.80061 0.0
H186 H 0.1571 0.39501 0.71085 0.0
H187 H 0.18096 0.44609 0.66484 0.0
C188 C 0.10236 0.31418 0.7737 0.0
C189 C 0.09164 0.30774 0.85569 0.0
C190 C 0.11153 0.34268 0.74111 0.0
C191 C 0.11085 0.36624 0.78994 0.0
C192 C 0.09894 0.35939 0.8705 0.0
C193 C 0.08937 0.33044 0.90284 0.0
C194 C 0.12885 0.44798 0.74304 0.0
C195 C 0.15301 0.45871 0.70493 0.0
C196 C 0.11484 0.41801 0.77039 0.0
C197 C 0.12455 0.39805 0.75925 0.0
C198 C 0.14843 0.409 0.71929 0.0
C199 C 0.1623 0.43861 0.69291 0.0
H200 H 0.74702 0.82975 0.0643 0.0
H201 H 0.77122 0.8836 0.84042 0.0
H202 H 0.70214 0.79837 -0.00941 0.0
H203 H 0.72696 0.85205 0.7668 0.0
H204 H 0.65412 0.76398 0.62826 0.0
H205 H 0.69835 0.79409 0.70666 0.0
H206 H 0.66427 0.80866 0.93399 0.0
H207 H 0.62034 0.7793 0.85543 0.0
C208 C 0.74269 0.83499 -5e-05 0.0
C209 C 0.76249 0.85914 0.95827 0.0
C210 C 0.71714 0.81705 0.95775 0.0
C211 C 0.71129 0.82267 0.87268 0.0
C212 C 0.73107 0.84701 0.83179 0.0
C213 C 0.75632 0.8652 0.87441 0.0
C214 C 0.65617 0.7737 0.69483 0.0
C215 C 0.63394 0.76959 0.73559 0.0
C216 C 0.68137 0.79086 0.7396 0.0
C217 C 0.6846 0.80356 0.82638 0.0
C218 C 0.66227 0.79891 0.86749 0.0
C219 C 0.63721 0.78233 0.82222 0.0
H220 H 0.21137 0.97906 0.69639 0.0
H221 H 0.2663 1.02845 0.92302 0.0
H222 H 0.23876 0.959 0.65098 0.0
H223 H 0.29482 1.01001 0.87511 0.0
H224 H 0.32289 0.94273 0.82456 0.0
H225 H 0.29843 0.96697 0.8662 0.0
H226 H 0.27722 0.96733 0.5912 0.0
H227 H 0.30091 0.94167 0.55024 0.0
C228 C 0.22957 0.98599 0.73597 0.0
C229 C 0.2367 1.00549 0.81317 0.0
C230 C 0.24552 0.97472 0.70934 0.0
C231 C 0.26927 0.98275 0.75882 0.0
C232 C 0.27659 1.0028 0.83552 0.0
C233 C 0.26042 1.01383 0.86258 0.0
C234 C 0.31315 0.94817 0.77289 0.0
C235 C 0.31379 0.94016 0.68403 0.0
C236 C 0.29919 0.96235 0.79679 0.0
C237 C 0.28558 0.96925 0.73246 0.0
C238 C 0.28692 0.96196 0.64312 0.0
C239 C 0.30072 0.94746 0.61929 0.0
H240 H 0.43932 0.11296 0.19516 0.0
H241 H 0.41811 0.15403 0.40376 0.0
H242 H 0.40228 0.10577 0.10009 0.0
H243 H 0.37956 0.14494 0.31046 0.0
H244 H 0.3302 0.15615 0.09605 0.0
H245 H 0.36762 0.16289 0.19062 0.0
H246 H 0.35781 0.08014 0.06366 0.0
H247 H 0.32184 0.07489 0.96601 0.0
C248 C 0.42617 0.1196 0.22166 0.0
C249 C 0.43159 0.13405 0.30692 0.0
C250 C 0.40476 0.11541 0.16697 0.0
C251 C 0.3878 0.12497 0.19669 0.0
C252 C 0.3925 0.13799 0.28408 0.0
C253 C 0.41432 0.14275 0.33832 0.0
C254 C 0.33656 0.13989 0.08739 0.0
C255 C 0.32339 0.11526 0.02314 0.0
C256 C 0.35772 0.14338 0.1426 0.0
C257 C 0.36577 0.1219 0.13603 0.0
C258 C 0.35268 0.09752 0.07028 0.0
C259 C 0.33197 0.09445 0.01397 0.0
H260 H 0.88481 0.31617 0.1508 0.0
H261 H 0.94373 0.35094 0.37159 0.0
H262 H 0.91151 0.3024 0.06705 0.0
H263 H 0.97014 0.33554 0.28956 0.0
H264 H 1.02366 0.32948 0.09626 0.0
H265 H 0.99761 0.34614 0.17467 0.0
H266 H 0.92588 0.26876 0.048 0.0
H267 H 0.95207 0.25337 0.9668 0.0
C268 C 0.90331 0.3203 0.18217 0.0
C269 C 0.91206 0.33443 0.26811 0.0
C270 C 0.91868 0.31227 0.13407 0.0
C271 C 0.94316 0.31766 0.17092 0.0
C272 C 0.9517 0.33143 0.25788 0.0
C273 C 0.93642 0.33992 0.30562 0.0
C274 C 1.00232 0.31647 0.08402 0.0
C275 C 0.98992 0.29028 0.02479 0.0
C276 C 0.9873 0.32573 0.13001 0.0
C277 C 0.95944 0.30875 0.11889 0.0
C278 C 0.9472 0.28287 0.05783 0.0
C279 C 0.96224 0.27393 0.01101 0.0
H280 H 0.85834 0.8377 0.2613 0.0
H281 H 0.81216 0.81685 0.01281 0.0
H282 H 0.82484 0.78942 0.31155 0.0
H283 H 0.77847 0.76781 0.06286 0.0
H284 H 0.75065 0.66858 0.14715 0.0
H285 H 0.77796 0.71931 0.09708 0.0
H286 H 0.77749 0.75949 0.35131 0.0
H287 H 0.74963 0.70838 0.40109 0.0
C288 C 0.84084 0.82284 0.21754 0.0
C289 C 0.83802 0.83103 0.13274 0.0
C290 C 0.82152 0.79519 0.2467 0.0
C291 C 0.79893 0.77455 0.19136 0.0
C292 C 0.79571 0.78306 0.10705 0.0
C293 C 0.81492 0.81118 0.07842 0.0
C294 C 0.75614 0.68823 0.19223 0.0
C295 C 0.74805 0.6844 0.27836 0.0
C296 C 0.77166 0.71736 0.16319 0.0
C297 C 0.77998 0.7436 0.21993 0.0
C298 C 0.77154 0.73979 0.30588 0.0
C299 C 0.75553 0.71054 0.33445 0.0
H300 H 0.05918 0.51758 0.73641 0.0
H301 H 0.06773 0.48862 0.47685 0.0
H302 H 1.01254 0.49869 0.69432 0.0
H303 H 1.02224 0.47205 0.43187 0.0
H304 H 0.93435 0.42207 0.37887 0.0
H305 H 0.97923 0.43751 0.43102 0.0
H306 H 0.9806 0.50356 0.62172 0.0
H307 H 0.93459 0.48547 0.57439 0.0
C308 C 0.05111 0.50741 0.67007 0.0
C309 C 0.0671 0.50437 0.61029 0.0
C310 C 1.02431 0.49674 0.64524 0.0
C311 C 1.01294 0.48343 0.55912 0.0
C312 C 1.02943 0.48108 0.49944 0.0
C313 C 0.05586 0.49095 0.525 0.0
C314 C 0.94406 0.43935 0.4333 0.0
C315 C 0.93068 0.45208 0.47329 0.0
C316 C 0.97022 0.44884 0.46248 0.0
C317 C 0.9843 0.47226 0.53088 0.0
C318 C 0.97075 0.48516 0.57026 0.0
C319 C 0.94429 0.47503 0.5424 0.0
H320 H 0.58177 0.66568 0.61945 0.0
H321 H 0.52345 0.60765 0.4087 0.0
H322 H 0.61029 0.64619 0.57549 0.0
H323 H 0.55167 0.58866 0.36445 0.0
H324 H 0.58835 0.53029 0.38635 0.0
H325 H 0.56445 0.5552 0.42649 0.0
H326 H 0.63751 0.64215 0.45648 0.0
H327 H 0.66182 0.61663 0.41618 0.0
C328 C 0.57514 0.64899 0.56342 0.0
C329 C 0.55014 0.63788 0.51844 0.0
C330 C 0.59154 0.63793 0.53788 0.0
C331 C 0.58321 0.61545 0.46701 0.0
C332 C 0.55861 0.60541 0.42044 0.0
C333 C 0.54238 0.61639 0.44575 0.0
C334 C 0.59944 0.55477 0.40092 0.0
C335 C 0.62701 0.57144 0.39731 0.0
C336 C 0.58565 0.56915 0.42369 0.0
C337 C 0.59888 0.60083 0.44406 0.0
C338 C 0.62663 0.61771 0.44142 0.0
C339 C 0.64056 0.60317 0.41773 0.0
H340 H 0.48286 0.09759 0.38859 0.0
H341 H 0.53904 0.10616 0.59544 0.0
H342 H 0.45123 0.0459 0.42756 0.0
H343 H 0.50776 0.0553 0.63524 0.0
H344 H 0.46321 0.95227 0.61223 0.0
H345 H 0.49076 1.0046 0.57884 0.0
H346 H 0.4215 1.01163 0.53492 0.0
H347 H 0.39341 0.95797 0.56787 0.0
C348 C 0.48838 0.08867 0.44301 0.0
C349 C 0.5137 0.10618 0.48829 0.0
C350 C 0.47016 0.05894 0.4657 0.0
C351 C 0.47677 0.0458 0.53422 0.0
C352 C 0.50187 0.06393 0.58082 0.0
C353 C 0.51993 0.09339 0.55815 0.0
C354 C 0.45366 0.96488 0.59634 0.0
C355 C 0.42596 0.95069 0.59369 0.0
C356 C 0.46964 0.99526 0.57743 0.0
C357 C 0.45871 1.01302 0.55469 0.0
C358 C 0.43083 0.99889 0.5518 0.0
C359 C 0.41466 0.96816 0.57152 0.0
H360 H 0.22337 0.15792 0.8488 0.0
H361 H 0.16856 0.08225 -0.01243 0.0
H362 H 0.19458 0.1791 0.85507 0.0
H363 H 0.13943 0.10293 -0.00803 0.0
H364 H 0.08222 0.13568 0.90133 0.0
H365 H 0.11035 0.11353 0.89376 0.0
H366 H 0.17929 0.20219 0.96671 0.0
H367 H 0.15119 0.22415 0.97478 0.0
C368 C 0.20509 0.14569 0.88016 0.0
C369 C 0.19815 0.11817 0.91663 0.0
C370 C 0.1886 0.15788 0.88407 0.0
C371 C 0.16457 0.14274 0.92388 0.0
C372 C 0.15756 0.11505 0.95977 0.0
C373 C 0.17425 0.10311 0.95696 0.0
C374 C 0.10338 0.15038 0.916 0.0
C375 C 0.11445 0.18168 0.93872 0.0
C376 C 0.11951 0.13768 0.91196 0.0
C377 C 0.14718 0.15605 0.92925 0.0
C378 C 0.15816 0.18737 0.95191 0.0
C379 C 0.14201 0.19995 0.9571 0.0
H380 H 0.87326 1.00475 0.97122 0.0
H381 H 0.9334 0.99074 0.08984 0.0
H382 H 0.90618 0.05779 0.95748 0.0
H383 H 0.96697 0.04436 0.07416 0.0
H384 H 1.01807 0.14116 0.93954 0.0
H385 H 0.99001 0.0859 0.95594 0.0
H386 H 0.93217 0.10144 0.0701 0.0
H387 H 0.95946 0.1553 0.05365 0.0
C388 C 0.89363 1.01293 -0.00616 0.0
C389 C 0.90066 0.99324 0.03059 0.0
C390 C 0.91259 0.04345 -0.0141 0.0
C391 C 0.93934 0.05554 0.01479 0.0
C392 C 0.94664 1.03577 0.05015 0.0
C393 C 0.92743 1.00497 0.05864 0.0
C394 C 0.99954 0.13265 0.96919 0.0
C395 C 0.9909 0.15266 -0.00575 0.0
C396 C 0.98346 0.10105 0.97861 0.0
C397 C 0.95852 0.08908 0.01282 0.0
C398 C 0.95085 0.10956 0.0416 0.0
C399 C 0.96667 0.14064 0.03235 0.0
H400 H 0.97772 0.97687 0.93474 0.0
H401 H 0.9842 0.91814 0.11447 0.0
H402 H 1.02156 0.99306 0.89028 0.0
H403 H 1.02907 0.93574 0.07422 0.0
H404 H 0.09907 0.95161 0.92453 0.0
H405 H 0.0538 0.93307 0.96152 0.0
H406 H 0.06601 1.02296 0.9373 0.0
H407 H 0.11041 0.04066 0.89567 0.0
C408 C 0.98882 0.96784 0.96586 0.0
C409 C 0.97774 0.94639 0.02821 0.0
C410 C 1.01404 0.97722 0.94072 0.0
C411 C 1.02904 0.96586 0.97882 0.0
C412 C 1.01796 0.94459 0.04229 0.0
C413 C 0.99241 0.93473 0.06617 0.0
C414 C 0.09177 0.96713 0.9259 0.0
C415 C 0.108 0.99741 0.90657 0.0
C416 C 0.06599 0.95667 0.94811 0.0
C417 C 0.05617 0.9765 0.95279 0.0
C418 C 0.07258 1.00681 0.93272 0.0
C419 C 0.09811 1.01704 0.90908 0.0
H420 H 0.77403 0.57812 0.4565 0.0
H421 H 0.70805 0.50328 0.29894 0.0
H422 H 0.79661 0.54961 0.46116 0.0
H423 H 0.73069 0.47439 0.30412 0.0
H424 H 0.77162 0.42315 0.41321 0.0
H425 H 0.74683 0.44956 0.40914 0.0
H426 H 0.81767 0.53229 0.3562 0.0
H427 H 0.84225 0.50596 0.36019 0.0
C428 C 0.76427 0.55547 0.42309 0.0
C429 C 0.73925 0.54299 0.37727 0.0
C430 C 0.7773 0.53916 0.4254 0.0
C431 C 0.7656 0.50976 0.3825 0.0
C432 C 0.74023 0.49691 0.33828 0.0
C433 C 0.72726 0.51345 0.33518 0.0
C434 C 0.78183 0.44698 0.40071 0.0
C435 C 0.80891 0.46253 0.38742 0.0
C436 C 0.76761 0.46206 0.39786 0.0
C437 C 0.78026 0.49312 0.38278 0.0
C438 C 0.80735 0.50851 0.36915 0.0
C439 C 0.82144 0.49338 0.37106 0.0
H440 H 0.65804 0.43266 0.47088 0.0
H441 H 0.60647 0.41891 0.24136 0.0
H442 H 0.63491 0.37739 0.48152 0.0
H443 H 0.58389 0.36406 0.25023 0.0
H444 H 0.52662 0.27486 0.35655 0.0
H445 H 0.55359 0.32904 0.34346 0.0
H446 H 0.62387 0.32654 0.41687 0.0
H447 H 0.59621 0.27146 0.43218 0.0
C448 C 0.64198 0.41781 0.4221 0.0
C449 C 0.63391 0.43021 0.3558 0.0
C450 C 0.62879 0.38609 0.42788 0.0
C451 C 0.6072 0.36603 0.36749 0.0
C452 C 0.59997 0.37863 0.29928 0.0
C453 C 0.61304 0.41018 0.29375 0.0
C454 C 0.54784 0.28569 0.36976 0.0
C455 C 0.55923 0.26864 0.39459 0.0
C456 C 0.56343 0.31693 0.36153 0.0
C457 C 0.59109 0.33242 0.3777 0.0
C458 C 0.60264 0.31547 0.40382 0.0
C459 C 0.58685 0.28386 0.41196 0.0
H460 H 0.66109 0.23676 0.55218 0.0
H461 H 0.64901 0.26282 0.2976 0.0
H462 H 0.70887 0.26805 0.54566 0.0
H463 H 0.69675 0.29316 0.28875 0.0
H464 H 0.78536 0.36418 0.32444 0.0
H465 H 0.73762 0.33726 0.33916 0.0
H466 H 0.74353 0.26901 0.47674 0.0
H467 H 0.79087 0.29658 0.46568 0.0
C468 C 0.66869 0.24905 0.49452 0.0
C469 C 0.65127 0.24716 0.42528 0.0
C470 C 0.69615 0.26693 0.49032 0.0
C471 C 0.707 0.28318 0.41623 0.0
C472 C 0.68939 0.28145 0.34743 0.0
C473 C 0.66193 0.26379 0.35209 0.0
C474 C 0.77641 0.34367 0.35885 0.0
C475 C 0.79198 0.3327 0.39445 0.0
C476 C 0.74895 0.32797 0.36658 0.0
C477 C 0.73641 0.3008 0.40958 0.0
C478 C 0.75224 0.29006 0.44491 0.0
C479 C 0.77952 0.3058 0.43779 0.0
H480 H 0.52548 0.77975 0.51845 0.0
H481 H 0.47733 0.71167 0.69066 0.0
H482 H 0.49466 0.79808 0.51546 0.0
H483 H 0.44603 0.72943 0.68613 0.0
H484 H 0.4153 0.79541 0.74133 0.0
H485 H 0.44306 0.77289 0.73936 0.0
H486 H 0.45054 0.78495 0.46178 0.0
H487 H 0.42306 0.80779 0.46441 0.0
C488 C 0.50816 0.76854 0.55511 0.0
C489 C 0.50381 0.74419 0.60444 0.0
C490 C 0.49034 0.77889 0.55293 0.0
C491 C 0.46771 0.76526 0.60042 0.0
C492 C 0.46333 0.74073 0.64946 0.0
C493 C 0.48116 0.73035 0.65146 0.0
C494 C 0.42265 0.79294 0.67973 0.0
C495 C 0.41702 0.80344 0.60309 0.0
C496 C 0.43852 0.77991 0.67844 0.0
C497 C 0.44928 0.77721 0.6005 0.0
C498 C 0.443 0.78706 0.52334 0.0
C499 C 0.42705 0.79995 0.52461 0.0
H500 H 0.18574 0.63635 0.53514 0.0
H501 H 0.23731 0.62795 0.72589 0.0
H502 H 0.21854 0.6901 0.52982 0.0
H503 H 0.27047 0.68236 0.7213 0.0
H504 H 0.33231 0.78049 0.63423 0.0
H505 H 0.30276 0.72469 0.63406 0.0
H506 H 0.23517 0.73583 0.62347 0.0
H507 H 0.26413 0.79036 0.62295 0.0
C508 C 0.20416 0.64595 0.57598 0.0
C509 C 0.20862 0.62763 0.63143 0.0
C510 C 0.22308 0.67703 0.57331 0.0
C511 C 0.24732 0.69116 0.62596 0.0
C512 C 0.25222 0.67256 0.67945 0.0
C513 C 0.2331 0.64129 0.68242 0.0
C514 C 0.31113 0.77087 0.63148 0.0
C515 C 0.30072 0.79013 0.62793 0.0
C516 C 0.29412 0.73885 0.63187 0.0
C517 C 0.26629 0.72529 0.62769 0.0
C518 C 0.25625 0.74488 0.62476 0.0
C519 C 0.27305 0.77648 0.62498 0.0
H520 H 0.40848 0.5878 0.64746 0.0
H521 H 0.42168 0.67153 0.54903 0.0
H522 H 0.36303 0.5733 0.67255 0.0
H523 H 0.37688 0.65776 0.57658 0.0
H524 H 0.287 0.60996 0.55156 0.0
H525 H 0.33201 0.62395 0.52547 0.0
H526 H 0.33813 0.5862 0.76668 0.0
H527 H 0.29259 0.57132 0.79093 0.0
C528 C 0.40159 0.60299 0.63086 0.0
C529 C 0.41848 0.63062 0.59563 0.0
C530 C 0.37568 0.5949 0.64608 0.0
C531 C 0.36622 0.61438 0.62683 0.0
C532 C 0.38323 0.64193 0.59093 0.0
C533 C 0.40899 0.64988 0.57527 0.0
C534 C 0.29806 0.60491 0.59939 0.0
C535 C 0.28635 0.58962 0.67335 0.0
C536 C 0.32392 0.61299 0.5846 0.0
C537 C 0.33878 0.60614 0.64378 0.0
C538 C 0.32716 0.59137 0.71891 0.0
C539 C 0.30118 0.58315 0.73342 0.0
H540 H 0.04577 0.27056 0.67989 0.0
H541 H 0.03324 0.17982 0.65135 0.0
H542 H 0.05489 0.27681 0.52726 0.0
H543 H 0.04077 0.18532 0.49524 0.0
H544 H 0.07825 0.21547 0.23657 0.0
H545 H 0.07432 0.21168 0.39509 0.0
H546 H 0.03157 0.25928 0.38954 0.0
H547 H 0.03675 0.26464 0.23541 0.0
C548 C 0.04419 0.25157 0.64011 0.0
C549 C 0.03838 0.2245 0.6768 0.0
C550 C 0.04953 0.25519 0.55256 0.0
C551 C 0.0484 0.23149 0.49897 0.0
C552 C 0.04217 0.20415 0.5353 0.0
C553 C 0.03744 0.2008 0.62399 0.0
C554 C 0.06852 0.22562 0.26996 0.0
C555 C 0.05781 0.24029 0.22331 0.0
C556 C 0.06599 0.22313 0.36029 0.0
C557 C 0.05256 0.23509 0.40468 0.0
C558 C 0.04247 0.2503 0.35798 0.0
C559 C 0.04532 0.25318 0.26887 0.0
H560 H 0.91277 0.92435 0.78375 0.0
H561 H 0.82779 0.86541 0.74893 0.0
H562 H 0.91385 0.93192 0.62844 0.0
H563 H 0.82895 0.87151 0.59136 0.0
H564 H 0.83582 0.91616 0.33695 0.0
H565 H 0.83527 0.90842 0.49366 0.0
H566 H 0.90926 0.91049 0.48741 0.0
H567 H 0.91051 0.92003 0.33358 0.0
C568 C 0.89437 0.9122 0.74225 0.0
C569 C 0.87019 0.89429 0.77833 0.0
C570 C 0.89498 0.91656 0.65292 0.0
C571 C 0.87145 0.90256 0.59728 0.0
C572 C 0.84736 0.88328 0.63274 0.0
C573 C 0.84671 0.87942 0.72268 0.0
C574 C 0.85216 0.91555 0.36995 0.0
C575 C 0.87336 0.91912 0.32364 0.0
C576 C 0.85169 0.91066 0.45925 0.0
C577 C 0.87213 0.90858 0.50313 0.0
C578 C 0.89343 0.91253 0.45648 0.0
C579 C 0.89418 0.91807 0.36806 0.0
H580 H 0.18544 0.06884 0.61201 0.0
H581 H 0.25327 0.05817 0.64167 0.0
H582 H 0.18326 0.05941 0.45249 0.0
H583 H 0.25042 0.04748 0.48384 0.0
H584 H 0.17304 1.01748 0.1773 0.0
H585 H 0.17347 1.01964 0.3376 0.0
H586 H 0.2588 0.07575 0.35856 0.0
H587 H 0.25856 0.07258 0.20047 0.0
C588 C 0.19986 0.06456 0.58419 0.0
C589 C 0.21982 0.06483 0.63827 0.0
C590 C 0.1984 0.05874 0.49343 0.0
C591 C 0.21664 0.05265 0.45614 0.0
C592 C 0.23639 0.05261 0.51075 0.0
C593 C 0.23812 0.05893 0.60097 0.0
C594 C 0.19187 1.02973 0.21638 0.0
C595 C 0.21572 0.04513 0.17645 0.0
C596 C 0.19209 1.03119 0.30786 0.0
C597 C 0.21614 0.04814 0.36014 0.0
C598 C 0.23997 0.06225 0.31998 0.0
C599 C 0.23978 0.06057 0.2291 0.0
H600 H 0.65476 0.51724 0.61611 0.0
H601 H 0.71296 0.61344 0.65833 0.0
H602 H 0.64877 0.51515 0.77166 0.0
H603 H 0.70755 0.61107 0.81659 0.0
H604 H 0.67408 0.59939 0.08466 0.0
H605 H 0.67583 0.60251 0.926 0.0
H606 H 0.6748 0.51768 0.9006 0.0
H607 H 0.67223 0.51404 0.0581 0.0
C608 C 0.66654 0.53794 0.659 0.0
C609 C 0.68473 0.56545 0.62573 0.0
C610 C 0.66306 0.53668 0.74812 0.0
C611 C 0.67794 0.56281 0.80614 0.0
C612 C 0.6957 0.59061 0.77288 0.0
C613 C 0.69896 0.59197 0.68282 0.0
C614 C 0.67389 0.58123 0.04487 0.0
C615 C 0.67299 0.55643 0.08345 0.0
C616 C 0.67512 0.58318 0.95437 0.0
C617 C 0.67557 0.56044 0.90135 0.0
C618 C 0.67408 0.53533 0.93984 0.0
C619 C 0.67262 0.53324 0.03004 0.0
H620 H 0.58027 0.20404 0.69914 0.0
H621 H 0.49921 0.18174 0.69956 0.0
H622 H 0.58149 0.19753 0.85522 0.0
H623 H 0.50082 0.17708 0.85774 0.0
H624 H 0.50125 0.14067 0.11743 0.0
H625 H 0.50133 0.14446 0.95893 0.0
H626 H 0.58276 0.21883 -0.0057 0.0
H627 H 0.58297 0.21353 0.15178 0.0
C628 C 0.56292 0.19853 0.73339 0.0
C629 C 0.53966 0.19352 0.6879 0.0
C630 C 0.56361 0.19479 0.82291 0.0
C631 C 0.54123 0.18663 0.86905 0.0
C632 C 0.51821 0.18263 0.82374 0.0
C633 C 0.51734 0.18567 0.73357 0.0
C634 C 0.51926 0.15736 0.09058 0.0
C635 C 0.54212 0.17676 0.14594 0.0
C636 C 0.51924 0.15984 0.00018 0.0
C637 C 0.54191 0.1823 0.96403 0.0
C638 C 0.56505 0.20103 0.01966 0.0
C639 C 0.56523 0.19803 0.10984 0.0
H640 H 0.82242 0.37845 0.66131 0.0
H641 H 0.90552 0.40901 0.66501 0.0
H642 H 0.8267 0.38763 0.82094 0.0
H643 H 0.91018 0.41944 0.82451 0.0
H644 H 0.89671 0.39277 0.10783 0.0
H645 H 0.89667 0.39091 0.94992 0.0
H646 H 0.84606 0.42873 0.93673 0.0
H647 H 0.84506 0.42938 0.09672 0.0
C648 C 0.84157 0.38705 0.69676 0.0
C649 C 0.86359 0.39269 0.65208 0.0
C650 C 0.84412 0.39276 0.78762 0.0
C651 C 0.86884 0.40462 0.83473 0.0
C652 C 0.89085 0.41005 0.78972 0.0
C653 C 0.88818 0.40387 0.69888 0.0
C654 C 0.88569 0.40098 0.07179 0.0
C655 C 0.87041 0.41068 0.11449 0.0
C656 C 0.88593 0.40018 -0.01893 0.0
C657 C 0.87118 0.4094 0.93118 0.0
C658 C 0.85721 0.42093 0.97398 0.0
C659 C 0.85677 0.42151 0.0653 0.0
H660 H 0.3693 0.916 0.35513 0.0
H661 H 0.35039 0.8226 0.32624 0.0
H662 H 0.3762 0.92043 0.19976 0.0
H663 H 0.35621 0.82662 0.1693 0.0
H664 H 0.39259 0.85242 0.90971 0.0
H665 H 0.39015 0.851 0.06884 0.0
H666 H 0.35069 0.9023 0.06231 0.0
H667 H 0.35403 0.90481 0.9056 0.0
C668 C 0.36609 0.89622 0.31504 0.0
C669 C 0.3591 0.86887 0.35214 0.0
C670 C 0.37011 0.89879 0.22616 0.0
C671 C 0.36677 0.87388 0.17253 0.0
C672 C 0.35941 0.84636 0.2095 0.0
C673 C 0.35577 0.84393 0.29888 0.0
C674 C 0.38374 0.86371 0.9427 0.0
C675 C 0.37349 0.87867 0.89525 0.0
C676 C 0.38215 0.86269 0.03347 0.0
C677 C 0.37009 0.87639 0.0777 0.0
C678 C 0.36045 0.89193 0.03033 0.0
C679 C 0.3623 0.89325 0.94021 0.0
H680 H 0.13523 0.50275 0.93036 0.0
H681 H 0.21346 0.58271 0.97787 0.0
H682 H 0.13503 0.49447 0.08592 0.0
H683 H 0.21287 0.57517 0.13434 0.0
H684 H 0.21482 0.54061 0.39561 0.0
H685 H 0.21436 0.54157 0.236 0.0
H686 H 0.13245 0.51701 0.22186 0.0
H687 H 0.13256 0.51485 0.37995 0.0
C688 C 0.15217 0.51888 0.97449 0.0
C689 C 0.17429 0.54351 0.94271 0.0
C690 C 0.15209 0.51407 0.06339 0.0
C691 C 0.17398 0.53409 0.12207 0.0
C692 C 0.19596 0.55899 0.09026 0.0
C693 C 0.19619 0.56354 0.00107 0.0
C694 C 0.19663 0.53493 0.35806 0.0
C695 C 0.17381 0.52793 0.40008 0.0
C696 C 0.19642 0.5357 0.26695 0.0
C697 C 0.17348 0.5298 0.21683 0.0
C698 C 0.15035 0.52138 0.25863 0.0
C699 C 0.15046 0.52026 0.34938 0.0
H700 H 0.49146 0.65233 0.32473 0.0
H701 H 0.57069 0.73029 0.32957 0.0
H702 H 0.49076 0.64299 0.16732 0.0
H703 H 0.56952 0.72198 0.16988 0.0
H704 H 0.56772 0.6866 0.89398 0.0
H705 H 0.56911 0.68851 0.0542 0.0
H706 H 0.48753 0.66536 0.04017 0.0
H707 H 0.48582 0.66209 0.88102 0.0
C708 C 0.50856 0.66785 0.29152 0.0
C709 C 0.53098 0.69238 0.33838 0.0
C710 C 0.50817 0.66245 0.20144 0.0
C711 C 0.52998 0.68187 0.1562 0.0
C712 C 0.55255 0.70637 0.20331 0.0
C713 C 0.55314 0.71139 0.29418 0.0
C714 C 0.54999 0.68137 0.92545 0.0
C715 C 0.52669 0.67431 0.87555 0.0
C716 C 0.55085 0.68273 0.01695 0.0
C717 C 0.52854 0.67743 0.05962 0.0
C718 C 0.50496 0.66915 0.00925 0.0
C719 C 0.50398 0.66734 0.91797 0.0
loop_
_geom_bond_atom_site_label_1
_geom_bond_atom_site_label_2
_geom_bond_distance
_geom_bond_site_symmetry_2
_ccdc_geom_bond_type
Tb0 O3 2.453 . S
Tb0 O4 2.596 1_655 S
Tb0 O5 2.374 . S
Tb0 O13 2.343 1_655 S
Tb0 O15 2.353 1_554 S
Tb0 O17 2.427 1_554 S
Tb0 O18 2.513 . S
C1 O5 1.251 1_455 S
C1 O7 1.263 . S
Tb2 O4 2.343 . S
Tb2 O7 2.353 . S
Tb2 O10 2.427 . S
Tb2 O11 2.513 1_554 S
Tb2 O12 2.453 . S
Tb2 O13 2.596 . S
Tb2 O14 2.374 1_554 S
O3 Tb0 2.453 . S
O3 C19 1.245 . S
O4 Tb0 2.596 1_455 S
O4 Tb2 2.343 . S
O4 C19 1.259 1_455 S
O5 Tb0 2.374 . S
O5 C1 1.251 1_655 S
C6 O10 1.275 . S
C6 O11 1.246 1_554 S
O7 C1 1.263 . S
O7 Tb2 2.353 . S
C8 O12 1.245 . S
C8 O13 1.259 . S
C9 O14 1.250 . S
C9 O15 1.263 1_455 S
O10 Tb2 2.427 . S
O10 C6 1.275 . S
O11 Tb2 2.513 1_556 S
O11 C6 1.246 1_556 S
O12 Tb2 2.453 . S
O12 C8 1.245 . S
O13 Tb0 2.343 1_455 S
O13 Tb2 2.596 . S
O13 C8 1.259 . S
O14 Tb2 2.374 1_556 S
O14 C9 1.250 . S
O15 Tb0 2.353 1_556 S
O15 C9 1.263 1_655 S
C16 O17 1.275 1_554 S
C16 O18 1.246 . S
O17 Tb0 2.427 1_556 S
O17 C16 1.275 1_556 S
O18 Tb0 2.513 . S
O18 C16 1.246 . S
C19 O3 1.245 . S
C19 O4 1.259 1_655 S
Tb20 O23 2.453 . S
Tb20 O24 2.596 . S
Tb20 O25 2.374 1_554 S
Tb20 O33 2.343 . S
Tb20 O35 2.353 . S
Tb20 O37 2.427 . S
Tb20 O38 2.513 1_554 S
C21 O25 1.251 . S
C21 O27 1.263 . S
Tb22 O24 2.343 . S
Tb22 O27 2.353 1_554 S
Tb22 O30 2.427 . S
Tb22 O31 2.513 . S
Tb22 O32 2.453 . S
Tb22 O33 2.596 . S
Tb22 O34 2.374 . S
O23 Tb20 2.453 . S
O23 C39 1.245 . S
O24 Tb20 2.596 . S
O24 Tb22 2.343 . S
O24 C39 1.259 . S
O25 Tb20 2.374 1_556 S
O25 C21 1.251 . S
C26 O30 1.275 . S
C26 O31 1.246 . S
O27 C21 1.263 . S
O27 Tb22 2.353 1_556 S
C28 O32 1.245 . S
C28 O33 1.259 . S
C29 O34 1.250 . S
C29 O35 1.263 . S
O30 Tb22 2.427 . S
O30 C26 1.275 . S
O31 Tb22 2.513 . S
O31 C26 1.246 . S
O32 Tb22 2.453 . S
O32 C28 1.245 . S
O33 Tb20 2.343 . S
O33 Tb22 2.596 . S
O33 C28 1.259 . S
O34 Tb22 2.374 . S
O34 C29 1.250 . S
O35 Tb20 2.353 . S
O35 C29 1.263 . S
C36 O37 1.275 . S
C36 O38 1.246 1_554 S
O37 Tb20 2.427 . S
O37 C36 1.275 . S
O38 Tb20 2.513 1_556 S
O38 C36 1.246 1_556 S
C39 O23 1.245 . S
C39 O24 1.259 . S
Tb40 O43 2.453 . S
Tb40 O44 2.596 . S
Tb40 O45 2.374 . S
Tb40 O53 2.343 1_554 S
Tb40 O55 2.353 1_554 S
Tb40 O57 2.427 1_554 S
Tb40 O58 2.513 . S
C41 O45 1.251 . S
C41 O47 1.263 1_545 S
Tb42 O44 2.343 1_566 S
Tb42 O47 2.353 1_556 S
Tb42 O50 2.427 1_556 S
Tb42 O51 2.513 . S
Tb42 O52 2.453 . S
Tb42 O53 2.596 1_565 S
Tb42 O54 2.374 . S
O43 Tb40 2.453 . S
O43 C59 1.245 . S
O44 Tb40 2.596 . S
O44 Tb42 2.343 1_544 S
O44 C59 1.259 . S
O45 Tb40 2.374 . S
O45 C41 1.251 . S
C46 O50 1.275 1_556 S
C46 O51 1.246 . S
O47 C41 1.263 1_565 S
O47 Tb42 2.353 1_554 S
C48 O52 1.245 . S
C48 O53 1.259 1_565 S
C49 O54 1.250 1_545 S
C49 O55 1.263 . S
O50 Tb42 2.427 1_554 S
O50 C46 1.275 1_554 S
O51 Tb42 2.513 . S
O51 C46 1.246 . S
O52 Tb42 2.453 . S
O52 C48 1.245 . S
O53 Tb40 2.343 1_556 S
O53 Tb42 2.596 1_545 S
O53 C48 1.259 1_545 S
O54 Tb42 2.374 . S
O54 C49 1.250 1_565 S
O55 Tb40 2.353 1_556 S
O55 C49 1.263 . S
C56 O57 1.275 1_554 S
C56 O58 1.246 . S
O57 Tb40 2.427 1_556 S
O57 C56 1.275 1_556 S
O58 Tb40 2.513 . S
O58 C56 1.246 . S
C59 O43 1.245 . S
C59 O44 1.259 . S
Tb60 O63 2.453 . S
Tb60 O64 2.596 . S
Tb60 O65 2.374 . S
Tb60 O73 2.343 . S
Tb60 O75 2.353 . S
Tb60 O77 2.427 . S
Tb60 O78 2.513 . S
C61 O65 1.251 . S
C61 O67 1.263 . S
Tb62 O64 2.343 . S
Tb62 O67 2.353 . S
Tb62 O70 2.427 . S
Tb62 O71 2.513 . S
Tb62 O72 2.453 . S
Tb62 O73 2.596 . S
Tb62 O74 2.374 . S
O63 Tb60 2.453 . S
O63 C79 1.245 . S
O64 Tb60 2.596 . S
O64 Tb62 2.343 . S
O64 C79 1.259 . S
O65 Tb60 2.374 . S
O65 C61 1.251 . S
C66 O70 1.275 . S
C66 O71 1.246 . S
O67 C61 1.263 . S
O67 Tb62 2.353 . S
C68 O72 1.245 . S
C68 O73 1.259 . S
C69 O74 1.250 . S
C69 O75 1.263 . S
O70 Tb62 2.427 . S
O70 C66 1.275 . S
O71 Tb62 2.513 . S
O71 C66 1.246 . S
O72 Tb62 2.453 . S
O72 C68 1.245 . S
O73 Tb60 2.343 . S
O73 Tb62 2.596 . S
O73 C68 1.259 . S
O74 Tb62 2.374 . S
O74 C69 1.250 . S
O75 Tb60 2.353 . S
O75 C69 1.263 . S
C76 O77 1.275 . S
C76 O78 1.246 . S
O77 Tb60 2.427 . S
O77 C76 1.275 . S
O78 Tb60 2.513 . S
O78 C76 1.246 . S
C79 O63 1.245 . S
C79 O64 1.259 . S
Tb80 O83 2.453 . S
Tb80 O84 2.596 . S
Tb80 O85 2.374 . S
Tb80 O93 2.343 . S
Tb80 O95 2.353 . S
Tb80 O97 2.427 . S
Tb80 O98 2.513 . S
C81 O85 1.251 . S
C81 O87 1.263 . S
Tb82 O84 2.343 . S
Tb82 O87 2.353 . S
Tb82 O90 2.427 . S
Tb82 O91 2.513 . S
Tb82 O92 2.453 . S
Tb82 O93 2.596 . S
Tb82 O94 2.374 . S
O83 Tb80 2.453 . S
O83 C99 1.245 . S
O84 Tb80 2.596 . S
O84 Tb82 2.343 . S
O84 C99 1.259 . S
O85 Tb80 2.374 . S
O85 C81 1.251 . S
C86 O90 1.275 . S
C86 O91 1.246 . S
O87 C81 1.263 . S
O87 Tb82 2.353 . S
C88 O92 1.245 . S
C88 O93 1.259 . S
C89 O94 1.250 . S
C89 O95 1.263 . S
O90 Tb82 2.427 . S
O90 C86 1.275 . S
O91 Tb82 2.513 . S
O91 C86 1.246 . S
O92 Tb82 2.453 . S
O92 C88 1.245 . S
O93 Tb80 2.343 . S
O93 Tb82 2.596 . S
O93 C88 1.259 . S
O94 Tb82 2.374 . S
O94 C89 1.250 . S
O95 Tb80 2.353 . S
O95 C89 1.263 . S
C96 O97 1.275 . S
C96 O98 1.246 . S
O97 Tb80 2.427 . S
O97 C96 1.275 . S
O98 Tb80 2.513 . S
O98 C96 1.246 . S
C99 O83 1.245 . S
C99 O84 1.259 . S
Tb100 O103 2.453 . S
Tb100 O104 2.596 . S
Tb100 O105 2.374 . S
Tb100 O113 2.343 . S
Tb100 O115 2.353 . S
Tb100 O117 2.427 . S
Tb100 O118 2.513 . S
C101 O105 1.251 . S
C101 O107 1.263 . S
Tb102 O104 2.343 . S
Tb102 O107 2.353 . S
Tb102 O110 2.427 . S
Tb102 O111 2.513 . S
Tb102 O112 2.453 . S
Tb102 O113 2.596 . S
Tb102 O114 2.374 . S
O103 Tb100 2.453 . S
O103 C119 1.245 . S
O104 Tb100 2.596 . S
O104 Tb102 2.343 . S
O104 C119 1.259 . S
O105 Tb100 2.374 . S
O105 C101 1.251 . S
C106 O110 1.275 . S
C106 O111 1.246 . S
O107 C101 1.263 . S
O107 Tb102 2.353 . S
C108 O112 1.245 . S
C108 O113 1.259 . S
C109 O114 1.250 . S
C109 O115 1.263 . S
O110 Tb102 2.427 . S
O110 C106 1.275 . S
O111 Tb102 2.513 . S
O111 C106 1.246 . S
O112 Tb102 2.453 . S
O112 C108 1.245 . S
O113 Tb100 2.343 . S
O113 Tb102 2.596 . S
O113 C108 1.259 . S
O114 Tb102 2.374 . S
O114 C109 1.250 . S
O115 Tb100 2.353 . S
O115 C109 1.263 . S
C116 O117 1.275 . S
C116 O118 1.246 . S
O117 Tb100 2.427 . S
O117 C116 1.275 . S
O118 Tb100 2.513 . S
O118 C116 1.246 . S
C119 O103 1.245 . S
C119 O104 1.259 . S
Tb120 O123 2.453 . S
Tb120 O124 2.596 . S
Tb120 O125 2.374 . S
Tb120 O133 2.343 . S
Tb120 O135 2.353 . S
Tb120 O137 2.427 . S
Tb120 O138 2.513 . S
C121 O125 1.251 . S
C121 O127 1.263 . S
Tb122 O124 2.343 . S
Tb122 O127 2.353 . S
Tb122 O130 2.427 . S
Tb122 O131 2.513 . S
Tb122 O132 2.453 . S
Tb122 O133 2.596 . S
Tb122 O134 2.374 . S
O123 Tb120 2.453 . S
O123 C139 1.245 . S
O124 Tb120 2.596 . S
O124 Tb122 2.343 . S
O124 C139 1.259 . S
O125 Tb120 2.374 . S
O125 C121 1.251 . S
C126 O130 1.275 . S
C126 O131 1.246 . S
O127 C121 1.263 . S
O127 Tb122 2.353 . S
C128 O132 1.245 . S
C128 O133 1.259 . S
C129 O134 1.250 . S
C129 O135 1.263 . S
O130 Tb122 2.427 . S
O130 C126 1.275 . S
O131 Tb122 2.513 . S
O131 C126 1.246 . S
O132 Tb122 2.453 . S
O132 C128 1.245 . S
O133 Tb120 2.343 . S
O133 Tb122 2.596 . S
O133 C128 1.259 . S
O134 Tb122 2.374 . S
O134 C129 1.250 . S
O135 Tb120 2.353 . S
O135 C129 1.263 . S
C136 O137 1.275 . S
C136 O138 1.246 . S
O137 Tb120 2.427 . S
O137 C136 1.275 . S
O138 Tb120 2.513 . S
O138 C136 1.246 . S
C139 O123 1.245 . S
C139 O124 1.259 . S
Tb140 O143 2.453 . S
Tb140 O144 2.596 . S
Tb140 O145 2.374 . S
Tb140 O153 2.343 . S
Tb140 O155 2.353 . S
Tb140 O157 2.427 . S
Tb140 O158 2.513 . S
C141 O145 1.251 . S
C141 O147 1.263 . S
Tb142 O144 2.343 . S
Tb142 O147 2.353 . S
Tb142 O150 2.427 . S
Tb142 O151 2.513 . S
Tb142 O152 2.453 . S
Tb142 O153 2.596 . S
Tb142 O154 2.374 . S
O143 Tb140 2.453 . S
O143 C159 1.245 . S
O144 Tb140 2.596 . S
O144 Tb142 2.343 . S
O144 C159 1.259 . S
O145 Tb140 2.374 . S
O145 C141 1.251 . S
C146 O150 1.275 . S
C146 O151 1.246 . S
O147 C141 1.263 . S
O147 Tb142 2.353 . S
C148 O152 1.245 . S
C148 O153 1.259 . S
C149 O154 1.250 . S
C149 O155 1.263 . S
O150 Tb142 2.427 . S
O150 C146 1.275 . S
O151 Tb142 2.513 . S
O151 C146 1.246 . S
O152 Tb142 2.453 . S
O152 C148 1.245 . S
O153 Tb140 2.343 . S
O153 Tb142 2.596 . S
O153 C148 1.259 . S
O154 Tb142 2.374 . S
O154 C149 1.250 . S
O155 Tb140 2.353 . S
O155 C149 1.263 . S
C156 O157 1.275 . S
C156 O158 1.246 . S
O157 Tb140 2.427 . S
O157 C156 1.275 . S
O158 Tb140 2.513 . S
O158 C156 1.246 . S
C159 O143 1.245 . S
C159 O144 1.259 . S
Tb160 O163 2.453 . S
Tb160 O164 2.596 . S
Tb160 O165 2.374 . S
Tb160 O173 2.343 . S
Tb160 O175 2.353 . S
Tb160 O177 2.427 . S
Tb160 O178 2.513 . S
C161 O165 1.251 . S
C161 O167 1.263 . S
Tb162 O164 2.343 . S
Tb162 O167 2.353 . S
Tb162 O170 2.427 . S
Tb162 O171 2.513 . S
Tb162 O172 2.453 . S
Tb162 O173 2.596 . S
Tb162 O174 2.374 . S
O163 Tb160 2.453 . S
O163 C179 1.245 . S
O164 Tb160 2.596 . S
O164 Tb162 2.343 . S
O164 C179 1.259 . S
O165 Tb160 2.374 . S
O165 C161 1.251 . S
C166 O170 1.275 . S
C166 O171 1.246 . S
O167 C161 1.263 . S
O167 Tb162 2.353 . S
C168 O172 1.245 . S
C168 O173 1.259 . S
C169 O174 1.250 . S
C169 O175 1.263 . S
O170 Tb162 2.427 . S
O170 C166 1.275 . S
O171 Tb162 2.513 . S
O171 C166 1.246 . S
O172 Tb162 2.453 . S
O172 C168 1.245 . S
O173 Tb160 2.343 . S
O173 Tb162 2.596 . S
O173 C168 1.259 . S
O174 Tb162 2.374 . S
O174 C169 1.250 . S
O175 Tb160 2.353 . S
O175 C169 1.263 . S
C176 O177 1.275 . S
C176 O178 1.246 . S
O177 Tb160 2.427 . S
O177 C176 1.275 . S
O178 Tb160 2.513 . S
O178 C176 1.246 . S
C179 O163 1.245 . S
C179 O164 1.259 . S
H180 C188 0.946 1_554 S
H181 C193 0.950 . S
H182 C190 0.950 . S
H183 C192 0.950 . S
H184 C194 0.950 . S
H185 C196 0.950 . S
H186 C198 0.950 . S
H187 C199 0.950 . S
C188 H180 0.946 1_556 S
C188 C189 1.385 . S
C188 C190 1.396 . S
C189 C188 1.385 . S
C189 C193 1.393 . S
C190 H182 0.950 . S
C190 C188 1.396 . S
C190 C191 1.400 . S
C191 C190 1.400 . S
C191 C192 1.398 . S
C191 C197 1.491 . S
C192 H183 0.950 . S
C192 C191 1.398 . S
C192 C193 1.391 . S
C193 H181 0.950 . S
C193 C189 1.393 . S
C193 C192 1.391 . S
C194 H184 0.950 . S
C194 C195 1.386 . S
C194 C196 1.391 . S
C195 C194 1.386 . S
C195 C199 1.393 . S
C196 H185 0.950 . S
C196 C194 1.391 . S
C196 C197 1.400 . S
C197 C191 1.491 . S
C197 C196 1.400 . S
C197 C198 1.398 . S
C198 H186 0.950 . S
C198 C197 1.398 . S
C198 C199 1.391 . S
C199 H187 0.950 . S
C199 C195 1.393 . S
C199 C198 1.391 . S
H200 C208 0.950 . S
H201 C213 0.950 . S
H202 C210 0.950 . S
H203 C212 0.950 . S
H204 C214 0.950 . S
H205 C216 0.950 . S
H206 C218 0.950 . S
H207 C219 0.950 . S
C208 H200 0.950 . S
C208 C209 1.386 . S
C208 C210 1.391 . S
C209 C208 1.386 . S
C209 C213 1.393 1_554 S
C210 H202 0.950 . S
C210 C208 1.391 . S
C210 C211 1.400 1_554 S
C211 C210 1.400 1_556 S
C211 C212 1.398 . S
C211 C217 1.491 . S
C212 H203 0.950 . S
C212 C211 1.398 . S
C212 C213 1.391 . S
C213 H201 0.950 . S
C213 C209 1.393 1_556 S
C213 C212 1.391 . S
C214 H204 0.950 . S
C214 C215 1.386 . S
C214 C216 1.391 . S
C215 C214 1.386 . S
C215 C219 1.393 . S
C216 H205 0.950 . S
C216 C214 1.391 . S
C216 C217 1.400 . S
C217 C211 1.491 . S
C217 C216 1.400 . S
C217 C218 1.398 . S
C218 H206 0.950 . S
C218 C217 1.398 . S
C218 C219 1.391 . S
C219 H207 0.950 . S
C219 C215 1.393 . S
C219 C218 1.391 . S
H220 C228 0.950 . S
H221 C233 0.950 1_554 S
H222 C230 0.950 . S
H223 C232 0.950 . S
H224 C234 0.950 . S
H225 C236 0.950 . S
H226 C238 0.950 . S
H227 C239 0.950 . S
C228 H220 0.950 . S
C228 C229 1.386 . S
C228 C230 1.391 . S
C229 C228 1.386 . S
C229 C233 1.393 . S
C230 H222 0.950 . S
C230 C228 1.391 . S
C230 C231 1.400 . S
C231 C230 1.400 . S
C231 C232 1.398 . S
C231 C237 1.491 . S
C232 H223 0.950 . S
C232 C231 1.398 . S
C232 C233 1.391 . S
C233 H221 0.950 1_556 S
C233 C229 1.393 . S
C233 C232 1.391 . S
C234 H224 0.950 . S
C234 C235 1.386 . S
C234 C236 1.391 . S
C235 C234 1.386 . S
C235 C239 1.393 . S
C236 H225 0.950 . S
C236 C234 1.391 . S
C236 C237 1.400 . S
C237 C231 1.491 . S
C237 C236 1.400 . S
C237 C238 1.398 . S
C238 H226 0.950 . S
C238 C237 1.398 . S
C238 C239 1.391 . S
C239 H227 0.950 . S
C239 C235 1.393 . S
C239 C238 1.391 . S
H240 C248 0.950 . S
H241 C253 0.950 . S
H242 C250 0.950 . S
H243 C252 0.950 . S
H244 C254 0.950 1_556 S
H245 C256 0.950 . S
H246 C258 0.950 . S
H247 C259 0.950 . S
C248 H240 0.950 . S
C248 C249 1.386 . S
C248 C250 1.391 . S
C249 C248 1.386 . S
C249 C253 1.393 . S
C250 H242 0.950 . S
C250 C248 1.391 . S
C250 C251 1.400 . S
C251 C250 1.400 . S
C251 C252 1.398 . S
C251 C257 1.491 . S
C252 H243 0.950 . S
C252 C251 1.398 . S
C252 C253 1.391 . S
C253 H241 0.950 . S
C253 C249 1.393 . S
C253 C252 1.391 . S
C254 H244 0.950 1_554 S
C254 C255 1.386 . S
C254 C256 1.391 . S
C255 C254 1.386 . S
C255 C259 1.393 . S
C256 H245 0.950 . S
C256 C254 1.391 . S
C256 C257 1.400 . S
C257 C251 1.491 . S
C257 C256 1.400 . S
C257 C258 1.398 . S
C258 H246 0.950 . S
C258 C257 1.398 . S
C258 C259 1.391 . S
C259 H247 0.950 . S
C259 C255 1.393 . S
C259 C258 1.391 . S
H260 C268 0.950 . S
H261 C273 0.950 . S
H262 C270 0.950 . S
H263 C272 0.950 . S
H264 C274 0.950 . S
H265 C276 0.950 . S
H266 C278 0.950 . S
H267 C279 0.950 1_556 S
C268 H260 0.950 . S
C268 C269 1.386 . S
C268 C270 1.391 . S
C269 C268 1.386 . S
C269 C273 1.393 . S
C270 H262 0.950 . S
C270 C268 1.391 . S
C270 C271 1.400 . S
C271 C270 1.400 . S
C271 C272 1.398 . S
C271 C277 1.491 . S
C272 H263 0.950 . S
C272 C271 1.398 . S
C272 C273 1.391 . S
C273 H261 0.950 . S
C273 C269 1.393 . S
C273 C272 1.391 . S
C274 H264 0.950 . S
C274 C275 1.386 . S
C274 C276 1.391 . S
C275 C274 1.386 . S
C275 C279 1.393 . S
C276 H265 0.950 . S
C276 C274 1.391 . S
C276 C277 1.400 . S
C277 C271 1.491 . S
C277 C276 1.400 . S
C277 C278 1.398 . S
C278 H266 0.950 . S
C278 C277 1.398 . S
C278 C279 1.391 . S
C279 H267 0.950 1_554 S
C279 C275 1.393 . S
C279 C278 1.391 . S
H280 C288 0.950 . S
H281 C293 0.950 . S
H282 C290 0.950 . S
H283 C292 0.950 . S
H284 C294 0.950 . S
H285 C296 0.950 . S
H286 C298 0.950 . S
H287 C299 0.950 . S
C288 H280 0.950 . S
C288 C289 1.386 . S
C288 C290 1.391 . S
C289 C288 1.386 . S
C289 C293 1.393 . S
C290 H282 0.950 . S
C290 C288 1.391 . S
C290 C291 1.400 . S
C291 C290 1.400 . S
C291 C292 1.398 . S
C291 C297 1.491 . S
C292 H283 0.950 . S
C292 C291 1.398 . S
C292 C293 1.391 . S
C293 H281 0.950 . S
C293 C289 1.393 . S
C293 C292 1.391 . S
C294 H284 0.950 . S
C294 C295 1.386 . S
C294 C296 1.391 . S
C295 C294 1.386 . S
C295 C299 1.393 . S
C296 H285 0.950 . S
C296 C294 1.391 . S
C296 C297 1.400 . S
C297 C291 1.491 . S
C297 C296 1.400 . S
C297 C298 1.398 . S
C298 H286 0.950 . S
C298 C297 1.398 . S
C298 C299 1.391 . S
C299 H287 0.950 . S
C299 C295 1.393 . S
C299 C298 1.391 . S
H300 C308 0.950 . S
H301 C313 0.950 . S
H302 C310 0.950 . S
H303 C312 0.950 . S
H304 C314 0.950 . S
H305 C316 0.950 . S
H306 C318 0.950 . S
H307 C319 0.950 . S
C308 H300 0.950 . S
C308 C309 1.386 . S
C308 C310 1.391 . S
C309 C308 1.386 . S
C309 C313 1.393 . S
C310 H302 0.950 . S
C310 C308 1.391 . S
C310 C311 1.400 1_455 S
C311 C310 1.400 1_655 S
C311 C312 1.398 . S
C311 C317 1.491 . S
C312 H303 0.950 . S
C312 C311 1.398 . S
C312 C313 1.391 1_655 S
C313 H301 0.950 . S
C313 C309 1.393 . S
C313 C312 1.391 1_455 S
C314 H304 0.950 . S
C314 C315 1.386 . S
C314 C316 1.391 . S
C315 C314 1.386 . S
C315 C319 1.393 . S
C316 H305 0.950 . S
C316 C314 1.391 . S
C316 C317 1.400 . S
C317 C311 1.491 . S
C317 C316 1.400 . S
C317 C318 1.398 . S
C318 H306 0.950 . S
C318 C317 1.398 . S
C318 C319 1.391 . S
C319 H307 0.950 . S
C319 C315 1.393 . S
C319 C318 1.391 . S
H320 C328 0.950 . S
H321 C333 0.950 . S
H322 C330 0.950 . S
H323 C332 0.950 . S
H324 C334 0.950 . S
H325 C336 0.950 . S
H326 C338 0.950 . S
H327 C339 0.950 . S
C328 H320 0.950 . S
C328 C329 1.386 . S
C328 C330 1.391 . S
C329 C328 1.386 . S
C329 C333 1.393 . S
C330 H322 0.950 . S
C330 C328 1.391 . S
C330 C331 1.400 . S
C331 C330 1.400 . S
C331 C332 1.398 . S
C331 C337 1.491 . S
C332 H323 0.950 . S
C332 C331 1.398 . S
C332 C333 1.391 . S
C333 H321 0.950 . S
C333 C329 1.393 . S
C333 C332 1.391 . S
C334 H324 0.950 . S
C334 C335 1.386 . S
C334 C336 1.391 . S
C335 C334 1.386 . S
C335 C339 1.393 . S
C336 H325 0.950 . S
C336 C334 1.391 . S
C336 C337 1.400 . S
C337 C331 1.491 . S
C337 C336 1.400 . S
C337 C338 1.398 . S
C338 H326 0.950 . S
C338 C337 1.398 . S
C338 C339 1.391 . S
C339 H327 0.950 . S
C339 C335 1.393 . S
C339 C338 1.391 . S
H340 C348 0.950 . S
H341 C353 0.950 . S
H342 C350 0.950 1_565 S
H343 C352 0.950 . S
H344 C354 0.950 . S
H345 C356 0.950 1_545 S
H346 C358 0.950 . S
H347 C359 0.950 . S
C348 H340 0.950 . S
C348 C349 1.386 . S
C348 C350 1.391 . S
C349 C348 1.386 . S
C349 C353 1.393 . S
C350 H342 0.950 1_545 S
C350 C348 1.391 . S
C350 C351 1.400 . S
C351 C350 1.400 . S
C351 C352 1.398 . S
C351 C357 1.491 1_545 S
C352 H343 0.950 . S
C352 C351 1.398 . S
C352 C353 1.391 . S
C353 H341 0.950 . S
C353 C349 1.393 . S
C353 C352 1.391 . S
C354 H344 0.950 . S
C354 C355 1.386 . S
C354 C356 1.391 . S
C355 C354 1.386 . S
C355 C359 1.393 . S
C356 H345 0.950 1_565 S
C356 C354 1.391 . S
C356 C357 1.400 . S
C357 C351 1.491 1_565 S
C357 C356 1.400 . S
C357 C358 1.398 . S
C358 H346 0.950 . S
C358 C357 1.398 . S
C358 C359 1.391 . S
C359 H347 0.950 . S
C359 C355 1.393 . S
C359 C358 1.391 . S
H360 C368 0.950 . S
H361 C373 0.950 . S
H362 C370 0.950 . S
H363 C372 0.950 . S
H364 C374 0.950 . S
H365 C376 0.950 . S
H366 C378 0.950 . S
H367 C379 0.950 . S
C368 H360 0.950 . S
C368 C369 1.386 . S
C368 C370 1.391 . S
C369 C368 1.386 . S
C369 C373 1.393 . S
C370 H362 0.950 . S
C370 C368 1.391 . S
C370 C371 1.400 . S
C371 C370 1.400 . S
C371 C372 1.398 . S
C371 C377 1.491 . S
C372 H363 0.950 . S
C372 C371 1.398 . S
C372 C373 1.391 . S
C373 H361 0.950 . S
C373 C369 1.393 . S
C373 C372 1.391 . S
C374 H364 0.950 . S
C374 C375 1.386 . S
C374 C376 1.391 . S
C375 C374 1.386 . S
C375 C379 1.393 . S
C376 H365 0.950 . S
C376 C374 1.391 . S
C376 C377 1.400 . S
C377 C371 1.491 . S
C377 C376 1.400 . S
C377 C378 1.398 . S
C378 H366 0.950 . S
C378 C377 1.398 . S
C378 C379 1.391 . S
C379 H367 0.950 . S
C379 C375 1.393 . S
C379 C378 1.391 . S
H380 C388 0.950 . S
H381 C393 0.950 . S
H382 C390 0.950 1_545 S
H383 C392 0.950 . S
H384 C394 0.950 1_455 S
H385 C396 0.950 . S
H386 C398 0.950 . S
H387 C399 0.950 . S
C388 H380 0.950 . S
C388 C389 1.386 . S
C388 C390 1.391 . S
C389 C388 1.386 . S
C389 C393 1.393 . S
C390 H382 0.950 1_565 S
C390 C388 1.391 . S
C390 C391 1.400 1_565 S
C391 C390 1.400 1_545 S
C391 C392 1.398 1_545 S
C391 C397 1.491 . S
C392 H383 0.950 . S
C392 C391 1.398 1_565 S
C392 C393 1.391 . S
C393 H381 0.950 . S
C393 C389 1.393 . S
C393 C392 1.391 . S
C394 H384 0.950 1_655 S
C394 C395 1.386 . S
C394 C396 1.391 . S
C395 C394 1.386 . S
C395 C399 1.393 . S
C396 H385 0.950 . S
C396 C394 1.391 . S
C396 C397 1.400 . S
C397 C391 1.491 . S
C397 C396 1.400 . S
C397 C398 1.398 . S
C398 H386 0.950 . S
C398 C397 1.398 . S
C398 C399 1.391 . S
C399 H387 0.950 . S
C399 C395 1.393 . S
C399 C398 1.391 . S
H400 C408 0.950 1_556 S
H401 C413 0.950 . S
H402 C410 0.950 1_556 S
H403 C412 0.950 . S
H404 C414 0.950 . S
H405 C416 0.950 . S
H406 C418 0.950 . S
H407 C419 0.950 . S
C408 H400 0.950 1_554 S
C408 C409 1.386 . S
C408 C410 1.391 . S
C409 C408 1.386 . S
C409 C413 1.393 . S
C410 H402 0.950 1_554 S
C410 C408 1.391 . S
C410 C411 1.400 . S
C411 C410 1.400 . S
C411 C412 1.398 . S
C411 C417 1.491 1_655 S
C412 H403 0.950 . S
C412 C411 1.398 . S
C412 C413 1.391 . S
C413 H401 0.950 . S
C413 C409 1.393 . S
C413 C412 1.391 . S
C414 H404 0.950 . S
C414 C415 1.386 1_554 S
C414 C416 1.391 . S
C415 C414 1.386 1_556 S
C415 C419 1.393 . S
C416 H405 0.950 . S
C416 C414 1.391 . S
C416 C417 1.400 . S
C417 C411 1.491 1_455 S
C417 C416 1.400 . S
C417 C418 1.398 1_554 S
C418 H406 0.950 . S
C418 C417 1.398 1_556 S
C418 C419 1.391 . S
C419 H407 0.950 . S
C419 C415 1.393 . S
C419 C418 1.391 . S
H420 C428 0.950 . S
H421 C433 0.950 . S
H422 C430 0.950 . S
H423 C432 0.950 . S
H424 C434 0.950 . S
H425 C436 0.950 . S
H426 C438 0.950 . S
H427 C439 0.950 . S
C428 H420 0.950 . S
C428 C429 1.386 . S
C428 C430 1.391 . S
C429 C428 1.386 . S
C429 C433 1.393 . S
C430 H422 0.950 . S
C430 C428 1.391 . S
C430 C431 1.400 . S
C431 C430 1.400 . S
C431 C432 1.398 . S
C431 C437 1.491 . S
C432 H423 0.950 . S
C432 C431 1.398 . S
C432 C433 1.391 . S
C433 H421 0.950 . S
C433 C429 1.393 . S
C433 C432 1.391 . S
C434 H424 0.950 . S
C434 C435 1.386 . S
C434 C436 1.391 . S
C435 C434 1.386 . S
C435 C439 1.393 . S
C436 H425 0.950 . S
C436 C434 1.391 . S
C436 C437 1.400 . S
C437 C431 1.491 . S
C437 C436 1.400 . S
C437 C438 1.398 . S
C438 H426 0.950 . S
C438 C437 1.398 . S
C438 C439 1.391 . S
C439 H427 0.950 . S
C439 C435 1.393 . S
C439 C438 1.391 . S
H440 C448 0.950 . S
H441 C453 0.950 . S
H442 C450 0.950 . S
H443 C452 0.950 . S
H444 C454 0.950 . S
H445 C456 0.950 . S
H446 C458 0.950 . S
H447 C459 0.950 . S
C448 H440 0.950 . S
C448 C449 1.386 . S
C448 C450 1.391 . S
C449 C448 1.386 . S
C449 C453 1.393 . S
C450 H442 0.950 . S
C450 C448 1.391 . S
C450 C451 1.400 . S
C451 C450 1.400 . S
C451 C452 1.398 . S
C451 C457 1.491 . S
C452 H443 0.950 . S
C452 C451 1.398 . S
C452 C453 1.391 . S
C453 H441 0.950 . S
C453 C449 1.393 . S
C453 C452 1.391 . S
C454 H444 0.950 . S
C454 C455 1.386 . S
C454 C456 1.391 . S
C455 C454 1.386 . S
C455 C459 1.393 . S
C456 H445 0.950 . S
C456 C454 1.391 . S
C456 C457 1.400 . S
C457 C451 1.491 . S
C457 C456 1.400 . S
C457 C458 1.398 . S
C458 H446 0.950 . S
C458 C457 1.398 . S
C458 C459 1.391 . S
C459 H447 0.950 . S
C459 C455 1.393 . S
C459 C458 1.391 . S
H460 C468 0.950 . S
H461 C473 0.950 . S
H462 C470 0.950 . S
H463 C472 0.950 . S
H464 C474 0.950 . S
H465 C476 0.950 . S
H466 C478 0.950 . S
H467 C479 0.950 . S
C468 H460 0.950 . S
C468 C469 1.386 . S
C468 C470 1.391 . S
C469 C468 1.386 . S
C469 C473 1.393 . S
C470 H462 0.950 . S
C470 C468 1.391 . S
C470 C471 1.400 . S
C471 C470 1.400 . S
C471 C472 1.398 . S
C471 C477 1.491 . S
C472 H463 0.950 . S
C472 C471 1.398 . S
C472 C473 1.391 . S
C473 H461 0.950 . S
C473 C469 1.393 . S
C473 C472 1.391 . S
C474 H464 0.950 . S
C474 C475 1.386 . S
C474 C476 1.391 . S
C475 C474 1.386 . S
C475 C479 1.393 . S
C476 H465 0.950 . S
C476 C474 1.391 . S
C476 C477 1.400 . S
C477 C471 1.491 . S
C477 C476 1.400 . S
C477 C478 1.398 . S
C478 H466 0.950 . S
C478 C477 1.398 . S
C478 C479 1.391 . S
C479 H467 0.950 . S
C479 C475 1.393 . S
C479 C478 1.391 . S
H480 C488 0.950 . S
H481 C493 0.950 . S
H482 C490 0.950 . S
H483 C492 0.950 . S
H484 C494 0.950 . S
H485 C496 0.950 . S
H486 C498 0.950 . S
H487 C499 0.950 . S
C488 H480 0.950 . S
C488 C489 1.386 . S
C488 C490 1.391 . S
C489 C488 1.386 . S
C489 C493 1.393 . S
C490 H482 0.950 . S
C490 C488 1.391 . S
C490 C491 1.400 . S
C491 C490 1.400 . S
C491 C492 1.398 . S
C491 C497 1.491 . S
C492 H483 0.950 . S
C492 C491 1.398 . S
C492 C493 1.391 . S
C493 H481 0.950 . S
C493 C489 1.393 . S
C493 C492 1.391 . S
C494 H484 0.950 . S
C494 C495 1.386 . S
C494 C496 1.391 . S
C495 C494 1.386 . S
C495 C499 1.393 . S
C496 H485 0.950 . S
C496 C494 1.391 . S
C496 C497 1.400 . S
C497 C491 1.491 . S
C497 C496 1.400 . S
C497 C498 1.398 . S
C498 H486 0.950 . S
C498 C497 1.398 . S
C498 C499 1.391 . S
C499 H487 0.950 . S
C499 C495 1.393 . S
C499 C498 1.391 . S
H500 C508 0.950 . S
H501 C513 0.950 . S
H502 C510 0.950 . S
H503 C512 0.950 . S
H504 C514 0.950 . S
H505 C516 0.950 . S
H506 C518 0.950 . S
H507 C519 0.950 . S
C508 H500 0.950 . S
C508 C509 1.386 . S
C508 C510 1.391 . S
C509 C508 1.386 . S
C509 C513 1.393 . S
C510 H502 0.950 . S
C510 C508 1.391 . S
C510 C511 1.400 . S
C511 C510 1.400 . S
C511 C512 1.398 . S
C511 C517 1.491 . S
C512 H503 0.950 . S
C512 C511 1.398 . S
C512 C513 1.391 . S
C513 H501 0.950 . S
C513 C509 1.393 . S
C513 C512 1.391 . S
C514 H504 0.950 . S
C514 C515 1.386 . S
C514 C516 1.391 . S
C515 C514 1.386 . S
C515 C519 1.393 . S
C516 H505 0.950 . S
C516 C514 1.391 . S
C516 C517 1.400 . S
C517 C511 1.491 . S
C517 C516 1.400 . S
C517 C518 1.398 . S
C518 H506 0.950 . S
C518 C517 1.398 . S
C518 C519 1.391 . S
C519 H507 0.950 . S
C519 C515 1.393 . S
C519 C518 1.391 . S
H520 C528 0.950 . S
H521 C533 0.950 . S
H522 C530 0.950 . S
H523 C532 0.950 . S
H524 C534 0.950 . S
H525 C536 0.950 . S
H526 C538 0.950 . S
H527 C539 0.950 . S
C528 H520 0.950 . S
C528 C529 1.386 . S
C528 C530 1.391 . S
C529 C528 1.386 . S
C529 C533 1.393 . S
C530 H522 0.950 . S
C530 C528 1.391 . S
C530 C531 1.400 . S
C531 C530 1.400 . S
C531 C532 1.398 . S
C531 C537 1.491 . S
C532 H523 0.950 . S
C532 C531 1.398 . S
C532 C533 1.391 . S
C533 H521 0.950 . S
C533 C529 1.393 . S
C533 C532 1.391 . S
C534 H524 0.950 . S
C534 C535 1.386 . S
C534 C536 1.391 . S
C535 C534 1.386 . S
C535 C539 1.393 . S
C536 H525 0.950 . S
C536 C534 1.391 . S
C536 C537 1.400 . S
C537 C531 1.491 . S
C537 C536 1.400 . S
C537 C538 1.398 . S
C538 H526 0.950 . S
C538 C537 1.398 . S
C538 C539 1.391 . S
C539 H527 0.950 . S
C539 C535 1.393 . S
C539 C538 1.391 . S
H540 C548 0.950 . S
H541 C553 0.950 1_655 S
H542 C550 0.950 . S
H543 C552 0.950 . S
H544 C554 0.950 . S
H545 C556 0.950 . S
H546 C558 0.950 . S
H547 C559 0.950 . S
C548 H540 0.950 . S
C548 C549 1.386 . S
C548 C550 1.391 . S
C549 C548 1.386 . S
C549 C553 1.393 . S
C550 H542 0.950 . S
C550 C548 1.391 . S
C550 C551 1.400 . S
C551 C550 1.400 . S
C551 C552 1.398 . S
C551 C557 1.491 . S
C552 H543 0.950 . S
C552 C551 1.398 . S
C552 C553 1.391 . S
C553 H541 0.950 1_455 S
C553 C549 1.393 . S
C553 C552 1.391 . S
C554 H544 0.950 . S
C554 C555 1.386 . S
C554 C556 1.391 . S
C555 C554 1.386 . S
C555 C559 1.393 . S
C556 H545 0.950 . S
C556 C554 1.391 . S
C556 C557 1.400 . S
C557 C551 1.491 . S
C557 C556 1.400 . S
C557 C558 1.398 . S
C558 H546 0.950 . S
C558 C557 1.398 . S
C558 C559 1.391 . S
C559 H547 0.950 . S
C559 C555 1.393 . S
C559 C558 1.391 . S
H560 C568 0.950 . S
H561 C573 0.950 . S
H562 C570 0.950 . S
H563 C572 0.950 . S
H564 C574 0.950 . S
H565 C576 0.950 . S
H566 C578 0.950 . S
H567 C579 0.950 . S
C568 H560 0.950 . S
C568 C569 1.386 . S
C568 C570 1.391 . S
C569 C568 1.386 . S
C569 C573 1.393 . S
C570 H562 0.950 . S
C570 C568 1.391 . S
C570 C571 1.400 . S
C571 C570 1.400 . S
C571 C572 1.398 . S
C571 C577 1.491 . S
C572 H563 0.950 . S
C572 C571 1.398 . S
C572 C573 1.391 . S
C573 H561 0.950 . S
C573 C569 1.393 . S
C573 C572 1.391 . S
C574 H564 0.950 . S
C574 C575 1.386 . S
C574 C576 1.391 . S
C575 C574 1.386 . S
C575 C579 1.393 . S
C576 H565 0.950 . S
C576 C574 1.391 . S
C576 C577 1.400 . S
C577 C571 1.491 . S
C577 C576 1.400 . S
C577 C578 1.398 . S
C578 H566 0.950 . S
C578 C577 1.398 . S
C578 C579 1.391 . S
C579 H567 0.950 . S
C579 C575 1.393 . S
C579 C578 1.391 . S
H580 C588 0.950 . S
H581 C593 0.950 . S
H582 C590 0.950 . S
H583 C592 0.950 . S
H584 C594 0.950 . S
H585 C596 0.950 . S
H586 C598 0.950 . S
H587 C599 0.950 . S
C588 H580 0.950 . S
C588 C589 1.386 . S
C588 C590 1.391 . S
C589 C588 1.386 . S
C589 C593 1.393 1_545 S
C590 H582 0.950 . S
C590 C588 1.391 . S
C590 C591 1.400 . S
C591 C590 1.400 . S
C591 C592 1.398 1_545 S
C591 C597 1.491 . S
C592 H583 0.950 . S
C592 C591 1.398 1_565 S
C592 C593 1.391 . S
C593 H581 0.950 . S
C593 C589 1.393 1_565 S
C593 C592 1.391 . S
C594 H584 0.950 . S
C594 C595 1.386 1_565 S
C594 C596 1.391 . S
C595 C594 1.386 1_545 S
C595 C599 1.393 . S
C596 H585 0.950 . S
C596 C594 1.391 . S
C596 C597 1.400 1_565 S
C597 C591 1.491 . S
C597 C596 1.400 1_545 S
C597 C598 1.398 . S
C598 H586 0.950 . S
C598 C597 1.398 . S
C598 C599 1.391 . S
C599 H587 0.950 . S
C599 C595 1.393 . S
C599 C598 1.391 . S
H600 C608 0.950 . S
H601 C613 0.950 . S
H602 C610 0.950 . S
H603 C612 0.950 . S
H604 C614 0.950 1_554 S
H605 C616 0.950 . S
H606 C618 0.950 . S
H607 C619 0.950 . S
C608 H600 0.950 . S
C608 C609 1.386 . S
C608 C610 1.391 . S
C609 C608 1.386 . S
C609 C613 1.393 . S
C610 H602 0.950 . S
C610 C608 1.391 . S
C610 C611 1.400 . S
C611 C610 1.400 . S
C611 C612 1.398 . S
C611 C617 1.491 . S
C612 H603 0.950 . S
C612 C611 1.398 . S
C612 C613 1.391 . S
C613 H601 0.950 . S
C613 C609 1.393 . S
C613 C612 1.391 . S
C614 H604 0.950 1_556 S
C614 C615 1.386 1_556 S
C614 C616 1.391 . S
C615 C614 1.386 1_554 S
C615 C619 1.393 . S
C616 H605 0.950 . S
C616 C614 1.391 . S
C616 C617 1.400 . S
C617 C611 1.491 . S
C617 C616 1.400 . S
C617 C618 1.398 . S
C618 H606 0.950 . S
C618 C617 1.398 . S
C618 C619 1.391 1_556 S
C619 H607 0.950 . S
C619 C615 1.393 . S
C619 C618 1.391 1_554 S
H620 C628 0.950 . S
H621 C633 0.950 . S
H622 C630 0.950 . S
H623 C632 0.950 . S
H624 C634 0.950 . S
H625 C636 0.950 . S
H626 C638 0.950 . S
H627 C639 0.950 . S
C628 H620 0.950 . S
C628 C629 1.386 . S
C628 C630 1.391 . S
C629 C628 1.386 . S
C629 C633 1.393 . S
C630 H622 0.950 . S
C630 C628 1.391 . S
C630 C631 1.400 . S
C631 C630 1.400 . S
C631 C632 1.398 . S
C631 C637 1.491 . S
C632 H623 0.950 . S
C632 C631 1.398 . S
C632 C633 1.391 . S
C633 H621 0.950 . S
C633 C629 1.393 . S
C633 C632 1.391 . S
C634 H624 0.950 . S
C634 C635 1.386 . S
C634 C636 1.391 . S
C635 C634 1.386 . S
C635 C639 1.393 . S
C636 H625 0.950 . S
C636 C634 1.391 . S
C636 C637 1.400 . S
C637 C631 1.491 . S
C637 C636 1.400 . S
C637 C638 1.398 . S
C638 H626 0.950 . S
C638 C637 1.398 . S
C638 C639 1.391 . S
C639 H627 0.950 . S
C639 C635 1.393 . S
C639 C638 1.391 . S
H640 C648 0.950 . S
H641 C653 0.950 . S
H642 C650 0.950 . S
H643 C652 0.950 . S
H644 C654 0.950 . S
H645 C656 0.950 . S
H646 C658 0.950 . S
H647 C659 0.950 1_554 S
C648 H640 0.950 . S
C648 C649 1.386 . S
C648 C650 1.391 . S
C649 C648 1.386 . S
C649 C653 1.393 . S
C650 H642 0.950 . S
C650 C648 1.391 . S
C650 C651 1.400 . S
C651 C650 1.400 . S
C651 C652 1.398 . S
C651 C657 1.491 . S
C652 H643 0.950 . S
C652 C651 1.398 . S
C652 C653 1.391 . S
C653 H641 0.950 . S
C653 C649 1.393 . S
C653 C652 1.391 . S
C654 H644 0.950 . S
C654 C655 1.386 . S
C654 C656 1.391 1_554 S
C655 C654 1.386 . S
C655 C659 1.393 1_554 S
C656 H645 0.950 . S
C656 C654 1.391 1_556 S
C656 C657 1.400 . S
C657 C651 1.491 . S
C657 C656 1.400 . S
C657 C658 1.398 . S
C658 H646 0.950 . S
C658 C657 1.398 . S
C658 C659 1.391 . S
C659 H647 0.950 1_556 S
C659 C655 1.393 1_556 S
C659 C658 1.391 . S
H660 C668 0.950 . S
H661 C673 0.950 . S
H662 C670 0.950 . S
H663 C672 0.950 . S
H664 C674 0.950 . S
H665 C676 0.950 . S
H666 C678 0.950 . S
H667 C679 0.950 . S
C668 H660 0.950 . S
C668 C669 1.386 . S
C668 C670 1.391 . S
C669 C668 1.386 . S
C669 C673 1.393 . S
C670 H662 0.950 . S
C670 C668 1.391 . S
C670 C671 1.400 . S
C671 C670 1.400 . S
C671 C672 1.398 . S
C671 C677 1.491 . S
C672 H663 0.950 . S
C672 C671 1.398 . S
C672 C673 1.391 . S
C673 H661 0.950 . S
C673 C669 1.393 . S
C673 C672 1.391 . S
C674 H664 0.950 . S
C674 C675 1.386 . S
C674 C676 1.391 1_556 S
C675 C674 1.386 . S
C675 C679 1.393 . S
C676 H665 0.950 . S
C676 C674 1.391 1_554 S
C676 C677 1.400 . S
C677 C671 1.491 . S
C677 C676 1.400 . S
C677 C678 1.398 . S
C678 H666 0.950 . S
C678 C677 1.398 . S
C678 C679 1.391 1_554 S
C679 H667 0.950 . S
C679 C675 1.393 . S
C679 C678 1.391 1_556 S
H680 C688 0.950 . S
H681 C693 0.950 . S
H682 C690 0.950 . S
H683 C692 0.950 . S
H684 C694 0.950 . S
H685 C696 0.950 . S
H686 C698 0.950 . S
H687 C699 0.950 . S
C688 H680 0.950 . S
C688 C689 1.386 1_554 S
C688 C690 1.391 . S
C689 C688 1.386 1_556 S
C689 C693 1.393 1_556 S
C690 H682 0.950 . S
C690 C688 1.391 . S
C690 C691 1.400 . S
C691 C690 1.400 . S
C691 C692 1.398 . S
C691 C697 1.491 . S
C692 H683 0.950 . S
C692 C691 1.398 . S
C692 C693 1.391 . S
C693 H681 0.950 . S
C693 C689 1.393 1_554 S
C693 C692 1.391 . S
C694 H684 0.950 . S
C694 C695 1.386 . S
C694 C696 1.391 . S
C695 C694 1.386 . S
C695 C699 1.393 . S
C696 H685 0.950 . S
C696 C694 1.391 . S
C696 C697 1.400 . S
C697 C691 1.491 . S
C697 C696 1.400 . S
C697 C698 1.398 . S
C698 H686 0.950 . S
C698 C697 1.398 . S
C698 C699 1.391 . S
C699 H687 0.950 . S
C699 C695 1.393 . S
C699 C698 1.391 . S
H700 C708 0.950 . S
H701 C713 0.950 . S
H702 C710 0.950 . S
H703 C712 0.950 . S
H704 C714 0.950 1_556 S
H705 C716 0.950 . S
H706 C718 0.950 . S
H707 C719 0.950 1_556 S
C708 H700 0.950 . S
C708 C709 1.386 . S
C708 C710 1.391 . S
C709 C708 1.386 . S
C709 C713 1.393 . S
C710 H702 0.950 . S
C710 C708 1.391 . S
C710 C711 1.400 . S
C711 C710 1.400 . S
C711 C712 1.398 . S
C711 C717 1.491 . S
C712 H703 0.950 . S
C712 C711 1.398 . S
C712 C713 1.391 . S
C713 H701 0.950 . S
C713 C709 1.393 . S
C713 C712 1.391 . S
C714 H704 0.950 1_554 S
C714 C715 1.386 1_554 S
C714 C716 1.391 . S
C715 C714 1.386 1_556 S
C715 C719 1.393 1_556 S
C716 H705 0.950 . S
C716 C714 1.391 . S
C716 C717 1.400 . S
C717 C711 1.491 . S
C717 C716 1.400 . S
C717 C718 1.398 . S
C718 H706 0.950 . S
C718 C717 1.398 . S
C718 C719 1.391 . S
C719 H707 0.950 1_554 S
C719 C715 1.393 1_554 S
C719 C718 1.391 . S
C189 C8 2.172 1_556 S
C195 C148 2.128 . S
C209 C36 1.569 . S
C215 C176 1.554 . S
C229 C48 1.929 . S
C235 C136 1.813 . S
C249 C96 1.213 . S
C255 C56 1.262 . S
C269 C116 1.473 . S
C275 C16 1.414 . S
C289 C28 1.775 . S
C295 C76 1.663 . S
C309 C156 2.026 . S
C315 C108 2.113 . S
C329 C168 2.287 . S
C335 C68 2.251 . S
C349 C88 2.533 . S
C355 C128 2.487 . S
C369 C59 1.572 . S
C375 C6 1.597 . S
C389 C39 1.726 . S
C395 C19 1.668 . S
C409 C26 1.298 . S
C415 C46 1.311 . S
C429 C79 1.546 . S
C435 C106 1.658 . S
C449 C66 1.664 . S
C455 C99 1.575 . S
C469 C86 1.709 . S
C475 C119 1.595 . S
C489 C179 1.652 . S
C495 C126 1.703 . S
C509 C159 2.012 . S
C515 C139 1.972 . S
C529 C166 1.545 . S
C535 C146 1.496 . S
C549 C9 1.070 . S
C555 C1 1.070 . S
C569 C21 1.050 . S
C575 C29 1.050 . S
C589 C49 1.071 . S
C595 C41 1.071 . S
C609 C69 1.103 . S
C615 C61 1.103 . S
C629 C89 1.065 . S
C635 C81 1.065 1_556 S
C649 C109 1.090 . S
C655 C101 1.090 . S
C669 C129 1.074 . S
C675 C121 1.074 . S
C689 C149 1.073 . S
C695 C141 1.073 . S
C709 C169 1.069 . S
C715 C161 1.069 . S
