# Generated by pormake.
# Topology wmi, (6)-cn, num edge types: 1
# Building blocks:
#     Node 0, Type 0, BuildingBlock: CUWYAW_clean_sbu_0, # of connection points: 6
#     Node 1, Type 0, BuildingBlock: CUWYAW_clean_sbu_0, # of connection points: 6
#     Node 2, Type 0, BuildingBlock: CUWYAW_clean_sbu_0, # of connection points: 6
#     Node 3, Type 0, BuildingBlock: CUWYAW_clean_sbu_0, # of connection points: 6
#     Node 4, Type 0, BuildingBlock: CUWYAW_clean_sbu_0, # of connection points: 6
#     Node 5, Type 0, BuildingBlock: CUWYAW_clean_sbu_0, # of connection points: 6
#     Node 6, Type 0, BuildingBlock: CUWYAW_clean_sbu_0, # of connection points: 6
#     Node 7, Type 0, BuildingBlock: CUWYAW_clean_sbu_0, # of connection points: 6
#     Node 8, Type 0, BuildingBlock: CUWYAW_clean_sbu_0, # of connection points: 6
#     Node 9, Type 0, BuildingBlock: CUWYAW_clean_sbu_0, # of connection points: 6
#     Node 10, Type 0, BuildingBlock: CUWYAW_clean_sbu_0, # of connection points: 6
#     Node 11, Type 0, BuildingBlock: CUWYAW_clean_sbu_0, # of connection points: 6
#     Node 12, Type 0, BuildingBlock: CUWYAW_clean_sbu_0, # of connection points: 6
#     Node 13, Type 0, BuildingBlock: CUWYAW_clean_sbu_0, # of connection points: 6
#     Node 14, Type 0, BuildingBlock: CUWYAW_clean_sbu_0, # of connection points: 6
#     Node 15, Type 0, BuildingBlock: CUWYAW_clean_sbu_0, # of connection points: 6
#     Node 16, Type 0, BuildingBlock: CUWYAW_clean_sbu_0, # of connection points: 6
#     Node 17, Type 0, BuildingBlock: CUWYAW_clean_sbu_0, # of connection points: 6
#     Edge 18, Type (0, 0), BuildingBlock: UVAHIK_clean_linker_0, # of connection points: 2
#     Edge 19, Type (0, 0), BuildingBlock: UVAHIK_clean_linker_0, # of connection points: 2
#     Edge 20, Type (0, 0), BuildingBlock: UVAHIK_clean_linker_0, # of connection points: 2
#     Edge 21, Type (0, 0), BuildingBlock: UVAHIK_clean_linker_0, # of connection points: 2
#     Edge 22, Type (0, 0), BuildingBlock: UVAHIK_clean_linker_0, # of connection points: 2
#     Edge 23, Type (0, 0), BuildingBlock: UVAHIK_clean_linker_0, # of connection points: 2
#     Edge 24, Type (0, 0), BuildingBlock: UVAHIK_clean_linker_0, # of connection points: 2
#     Edge 25, Type (0, 0), BuildingBlock: UVAHIK_clean_linker_0, # of connection points: 2
#     Edge 26, Type (0, 0), BuildingBlock: UVAHIK_clean_linker_0, # of connection points: 2
#     Edge 27, Type (0, 0), BuildingBlock: UVAHIK_clean_linker_0, # of connection points: 2
#     Edge 28, Type (0, 0), BuildingBlock: UVAHIK_clean_linker_0, # of connection points: 2
#     Edge 29, Type (0, 0), BuildingBlock: UVAHIK_clean_linker_0, # of connection points: 2
#     Edge 30, Type (0, 0), BuildingBlock: UVAHIK_clean_linker_0, # of connection points: 2
#     Edge 31, Type (0, 0), BuildingBlock: UVAHIK_clean_linker_0, # of connection points: 2
#     Edge 32, Type (0, 0), BuildingBlock: UVAHIK_clean_linker_0, # of connection points: 2
#     Edge 33, Type (0, 0), BuildingBlock: UVAHIK_clean_linker_0, # of connection points: 2
#     Edge 34, Type (0, 0), BuildingBlock: UVAHIK_clean_linker_0, # of connection points: 2
#     Edge 35, Type (0, 0), BuildingBlock: UVAHIK_clean_linker_0, # of connection points: 2
#     Edge 36, Type (0, 0), BuildingBlock: UVAHIK_clean_linker_0, # of connection points: 2
#     Edge 37, Type (0, 0), BuildingBlock: UVAHIK_clean_linker_0, # of connection points: 2
#     Edge 38, Type (0, 0), BuildingBlock: UVAHIK_clean_linker_0, # of connection points: 2
#     Edge 39, Type (0, 0), BuildingBlock: UVAHIK_clean_linker_0, # of connection points: 2
#     Edge 40, Type (0, 0), BuildingBlock: UVAHIK_clean_linker_0, # of connection points: 2
#     Edge 41, Type (0, 0), BuildingBlock: UVAHIK_clean_linker_0, # of connection points: 2
#     Edge 42, Type (0, 0), BuildingBlock: UVAHIK_clean_linker_0, # of connection points: 2
#     Edge 43, Type (0, 0), BuildingBlock: UVAHIK_clean_linker_0, # of connection points: 2
#     Edge 44, Type (0, 0), BuildingBlock: UVAHIK_clean_linker_0, # of connection points: 2
#     Edge 45, Type (0, 0), BuildingBlock: UVAHIK_clean_linker_0, # of connection points: 2
#     Edge 46, Type (0, 0), BuildingBlock: UVAHIK_clean_linker_0, # of connection points: 2
#     Edge 47, Type (0, 0), BuildingBlock: UVAHIK_clean_linker_0, # of connection points: 2
#     Edge 48, Type (0, 0), BuildingBlock: UVAHIK_clean_linker_0, # of connection points: 2
#     Edge 49, Type (0, 0), BuildingBlock: UVAHIK_clean_linker_0, # of connection points: 2
#     Edge 50, Type (0, 0), BuildingBlock: UVAHIK_clean_linker_0, # of connection points: 2
#     Edge 51, Type (0, 0), BuildingBlock: UVAHIK_clean_linker_0, # of connection points: 2
#     Edge 52, Type (0, 0), BuildingBlock: UVAHIK_clean_linker_0, # of connection points: 2
#     Edge 53, Type (0, 0), BuildingBlock: UVAHIK_clean_linker_0, # of connection points: 2
#     Edge 54, Type (0, 0), BuildingBlock: UVAHIK_clean_linker_0, # of connection points: 2
#     Edge 55, Type (0, 0), BuildingBlock: UVAHIK_clean_linker_0, # of connection points: 2
#     Edge 56, Type (0, 0), BuildingBlock: UVAHIK_clean_linker_0, # of connection points: 2
#     Edge 57, Type (0, 0), BuildingBlock: UVAHIK_clean_linker_0, # of connection points: 2
#     Edge 58, Type (0, 0), BuildingBlock: UVAHIK_clean_linker_0, # of connection points: 2
#     Edge 59, Type (0, 0), BuildingBlock: UVAHIK_clean_linker_0, # of connection points: 2
#     Edge 60, Type (0, 0), BuildingBlock: UVAHIK_clean_linker_0, # of connection points: 2
#     Edge 61, Type (0, 0), BuildingBlock: UVAHIK_clean_linker_0, # of connection points: 2
#     Edge 62, Type (0, 0), BuildingBlock: UVAHIK_clean_linker_0, # of connection points: 2
#     Edge 63, Type (0, 0), BuildingBlock: UVAHIK_clean_linker_0, # of connection points: 2
#     Edge 64, Type (0, 0), BuildingBlock: UVAHIK_clean_linker_0, # of connection points: 2
#     Edge 65, Type (0, 0), BuildingBlock: UVAHIK_clean_linker_0, # of connection points: 2
#     Edge 66, Type (0, 0), BuildingBlock: UVAHIK_clean_linker_0, # of connection points: 2
#     Edge 67, Type (0, 0), BuildingBlock: UVAHIK_clean_linker_0, # of connection points: 2
#     Edge 68, Type (0, 0), BuildingBlock: UVAHIK_clean_linker_0, # of connection points: 2
#     Edge 69, Type (0, 0), BuildingBlock: UVAHIK_clean_linker_0, # of connection points: 2
#     Edge 70, Type (0, 0), BuildingBlock: UVAHIK_clean_linker_0, # of connection points: 2
#     Edge 71, Type (0, 0), BuildingBlock: UVAHIK_clean_linker_0, # of connection points: 2
# Relax obj value: 0.084
# Max RMSD: 0.193
# Mean RMSD: 0.193
data_MOF--net-wmi--node1-CUWYAW_clean_sbu_0--edge1-UVAHIK_clean_linker_0
_symmetry_space_group_name_H-M    P1
_symmetry_Int_Tables_number       1
_symmetry_cell_setting            triclinic
loop_
_symmetry_equiv_pos_as_xyz
'x, y, z'
_cell_length_a     49.528253
_cell_length_b     49.526642
_cell_length_c     102.32966
_cell_angle_alpha  89.94999
_cell_angle_beta   90.097409
_cell_angle_gamma 120.0294
loop_
_atom_site_label
_atom_site_type_symbol
_atom_site_fract_x
_atom_site_fract_y
_atom_site_fract_z
_atom_type_partial_charge
C0 C 0.38623 0.96193 0.11359 0.0
Eu1 Eu 0.44533 0.999 0.10936 0.0
C2 C 0.36328 0.92908 0.11105 0.0
C3 C 0.37176 0.90975 0.10434 0.0
C4 C 0.35076 0.87768 0.10333 0.0
C5 C 0.32098 0.86445 0.10907 0.0
C6 C 0.31255 0.88419 0.11557 0.0
C7 C 0.33352 0.91618 0.11655 0.0
C8 C 0.47851 1.00729 0.08716 0.0
C9 C 0.48889 0.96687 0.11361 0.0
C10 C 0.57663 0.07851 0.11924 0.0
Eu11 Eu 0.51708 0.0404 0.11604 0.0
C12 C 0.60602 0.1075 0.11634 0.0
C13 C 0.62775 0.12129 0.12649 0.0
C14 C 0.65749 0.14642 0.12402 0.0
C15 C 0.66621 0.15849 0.11132 0.0
C16 C 0.64398 0.14549 0.1012 0.0
C17 C 0.61413 0.12 0.10368 0.0
C18 C 0.47575 0.01737 0.13636 0.0
C19 C 0.47862 0.07382 0.10621 0.0
O20 O 0.40814 0.96627 0.12192 0.0
O21 O 0.39685 0.98067 0.10345 0.0
O22 O 0.4483 0.99107 0.08776 0.0
O23 O 0.48951 0.0181 0.09833 0.0
O24 O 0.46042 0.96316 0.11377 0.0
O25 O 0.51428 0.99454 0.11303 0.0
O26 O 0.56512 0.05631 0.11043 0.0
O27 O 0.55526 0.08011 0.12617 0.0
O28 O 0.50262 0.01882 0.1365 0.0
O29 O 0.47268 0.02844 0.12581 0.0
O30 O 0.50589 0.07496 0.10671 0.0
O31 O 0.45181 0.04777 0.10845 0.0
H32 H 0.39485 0.91935 0.10016 0.0
H33 H 0.35791 0.86325 0.09815 0.0
H34 H 0.29008 0.8748 0.1203 0.0
H35 H 0.32681 0.93071 0.12195 0.0
H36 H 0.62201 0.11197 0.13632 0.0
H37 H 0.67385 0.15622 0.13206 0.0
H38 H 0.65005 0.15427 0.09131 0.0
H39 H 0.59774 0.10963 0.09568 0.0
C40 C 0.08794 0.44395 0.1144 0.0
Eu41 Eu 0.05083 0.46521 0.10875 0.0
C42 C 0.12093 0.45432 0.11197 0.0
C43 C 0.14018 0.48284 0.10569 0.0
C44 C 0.17223 0.49416 0.10458 0.0
C45 C 0.18556 0.47713 0.10973 0.0
C46 C 0.16597 0.44826 0.1158 0.0
C47 C 0.13394 0.43702 0.11693 0.0
C48 C 0.04493 0.48834 0.08552 0.0
C49 C 0.08281 0.54109 0.11171 0.0
C50 C 0.9707 0.5171 0.11481 0.0
Eu51 Eu 1.00938 0.49587 0.11333 0.0
C52 C 0.9425 0.51742 0.11011 0.0
C53 C 0.91266 0.49571 0.11477 0.0
C54 C 0.88706 0.49973 0.11227 0.0
C55 C 0.89075 0.52569 0.10514 0.0
C56 C 0.92033 0.5466 0.1 0.0
C57 C 0.94587 0.54256 0.10249 0.0
C58 C 0.03014 0.47843 0.13478 0.0
C59 C 0.9765 0.42348 0.10453 0.0
O60 O 0.08323 0.46227 0.12212 0.0
O61 O 0.06919 0.43434 0.10424 0.0
O62 O 0.06037 0.4738 0.0872 0.0
O63 O 0.03303 0.48969 0.09626 0.0
O64 O 0.08624 0.51634 0.11312 0.0
O65 O 0.05528 0.53861 0.11002 0.0
O66 O 0.99569 0.52967 0.10745 0.0
O67 O 0.96741 0.49309 0.12152 0.0
O68 O 0.02938 0.50419 0.13422 0.0
O69 O 0.01987 0.46384 0.12428 0.0
O70 O 0.97573 0.44981 0.10393 0.0
O71 O 1.00217 0.42289 0.1078 0.0
H72 H 0.13049 0.49662 0.10188 0.0
H73 H 0.18659 0.51628 0.09973 0.0
H74 H 0.17551 0.43476 0.12003 0.0
H75 H 0.11946 0.41517 0.12196 0.0
H76 H 0.90927 0.47632 0.12083 0.0
H77 H 0.8647 0.48331 0.11647 0.0
H78 H 0.92394 0.56657 0.09431 0.0
H79 H 0.96859 0.55992 0.09888 0.0
C80 C 0.60486 0.6618 0.11526 0.0
Eu81 Eu 0.58308 0.60248 0.11186 0.0
C82 C 0.59311 0.68355 0.11297 0.0
C83 C 0.61356 0.71414 0.10885 0.0
C84 C 0.60302 0.73547 0.10744 0.0
C85 C 0.57181 0.72667 0.11022 0.0
C86 C 0.55123 0.69571 0.11405 0.0
C87 C 0.56173 0.67438 0.11536 0.0
C88 C 0.55731 0.56762 0.09009 0.0
C89 C 0.50733 0.55965 0.11566 0.0
C90 C 0.53027 0.47164 0.12329 0.0
Eu91 Eu 0.55205 0.53106 0.11938 0.0
C92 C 0.52968 0.44234 0.12005 0.0
C93 C 0.52084 0.4197 0.12985 0.0
C94 C 0.51659 0.39025 0.12701 0.0
C95 C 0.52118 0.38273 0.11427 0.0
C96 C 0.53111 0.40585 0.10451 0.0
C97 C 0.53517 0.43541 0.10736 0.0
C98 C 0.57121 0.57375 0.13918 0.0
C99 C 0.62359 0.56824 0.10877 0.0
O100 O 0.59036 0.64081 0.12437 0.0
O101 O 0.61147 0.65053 0.10492 0.0
O102 O 0.57152 0.59786 0.09025 0.0
O103 O 0.55738 0.55759 0.10143 0.0
O104 O 0.53229 0.58797 0.11619 0.0
O105 O 0.50942 0.53413 0.11537 0.0
O106 O 0.51836 0.48271 0.11484 0.0
O107 O 0.55448 0.49341 0.12955 0.0
O108 O 0.54544 0.54718 0.13954 0.0
O109 O 0.58516 0.57594 0.12867 0.0
O110 O 0.59728 0.5412 0.10987 0.0
O111 O 0.62492 0.59546 0.11056 0.0
H112 H 0.6378 0.72165 0.10689 0.0
H113 H 0.61942 0.75891 0.10423 0.0
H114 H 0.52717 0.6881 0.11643 0.0
H115 H 0.54541 0.65087 0.11852 0.0
H116 H 0.51644 0.42456 0.1397 0.0
H117 H 0.50951 0.37324 0.13481 0.0
H118 H 0.53477 0.40076 0.09459 0.0
H119 H 0.5419 0.45254 0.09962 0.0
C120 C 0.96347 0.3819 0.92546 0.0
Eu121 Eu 1.00098 0.44065 0.93016 0.0
C122 C 0.93007 0.35982 0.92773 0.0
C123 C 0.92015 0.32887 0.93119 0.0
C124 C 0.88834 0.30732 0.9326 0.0
C125 C 0.86578 0.31627 0.93047 0.0
C126 C 0.87597 0.34757 0.92728 0.0
C127 C 0.90773 0.36911 0.926 0.0
C128 C 1.00721 0.4715 0.95287 0.0
C129 C 0.96852 0.48403 0.9263 0.0
C130 C 0.07998 0.57198 0.92166 0.0
Eu131 Eu 0.04194 0.51232 0.92445 0.0
C132 C 0.10873 0.60156 0.9246 0.0
C133 C 0.12261 0.62307 0.9144 0.0
C134 C 0.14747 0.65298 0.91686 0.0
C135 C 0.15916 0.66208 0.92959 0.0
C136 C 0.14609 0.64008 0.93977 0.0
C137 C 0.12087 0.61006 0.93731 0.0
C138 C 0.02062 0.47236 0.90362 0.0
C139 C 0.0753 0.47385 0.93436 0.0
O140 O 0.96962 0.40413 0.91699 0.0
O141 O 0.98169 0.39175 0.93578 0.0
O142 O 0.99192 0.44139 0.95165 0.0
O143 O 0.01886 0.48399 0.94197 0.0
O144 O 0.96506 0.45569 0.9258 0.0
O145 O 0.99606 0.50943 0.92725 0.0
O146 O 0.05771 0.56015 0.93041 0.0
O147 O 0.08182 0.5509 0.91462 0.0
O148 O 0.021 0.49871 0.90383 0.0
O149 O 0.0314 0.4689 0.91418 0.0
O150 O 0.07617 0.50101 0.93405 0.0
O151 O 0.04962 0.44711 0.93162 0.0
H152 H 0.937 0.32127 0.93265 0.0
H153 H 0.88146 0.28361 0.93532 0.0
H154 H 0.85941 0.35532 0.9254 0.0
H155 H 0.91475 0.39292 0.92337 0.0
H156 H 0.11356 0.61703 0.90453 0.0
H157 H 0.15733 0.66919 0.90878 0.0
H158 H 0.15462 0.64647 0.94968 0.0
H159 H 0.1104 0.59384 0.94535 0.0
C160 C 0.66488 0.60155 0.92947 0.0
Eu161 Eu 0.60613 0.58015 0.9342 0.0
C162 C 0.68668 0.58969 0.93138 0.0
C163 C 0.71736 0.60989 0.93548 0.0
C164 C 0.73865 0.5992 0.93656 0.0
C165 C 0.7297 0.56809 0.93346 0.0
C166 C 0.69867 0.54777 0.92963 0.0
C167 C 0.6774 0.55841 0.92866 0.0
C168 C 0.57478 0.55636 0.95692 0.0
C169 C 0.56359 0.50394 0.93165 0.0
C170 C 0.47384 0.52453 0.92576 0.0
Eu171 Eu 0.53376 0.54753 0.92846 0.0
C172 C 0.44468 0.52482 0.92835 0.0
C173 C 0.42364 0.51774 0.91798 0.0
C174 C 0.39406 0.51378 0.92015 0.0
C175 C 0.38478 0.51687 0.93277 0.0
C176 C 0.40631 0.52517 0.94311 0.0
C177 C 0.43601 0.52893 0.94094 0.0
C178 C 0.57373 0.5649 0.90774 0.0
C179 C 0.57175 0.62062 0.93713 0.0
O180 O 0.64271 0.58642 0.92086 0.0
O181 O 0.65506 0.60919 0.93999 0.0
O182 O 0.60495 0.57116 0.95593 0.0
O183 O 0.5629 0.55502 0.94583 0.0
O184 O 0.59157 0.5291 0.93031 0.0
O185 O 0.53795 0.50564 0.93264 0.0
O186 O 0.48633 0.51642 0.93518 0.0
O187 O 0.49444 0.5456 0.91788 0.0
O188 O 0.54766 0.53861 0.9082 0.0
O189 O 0.57698 0.58 0.91801 0.0
O190 O 0.54468 0.59413 0.93685 0.0
O191 O 0.59881 0.62189 0.93493 0.0
H192 H 0.72498 0.63405 0.9377 0.0
H193 H 0.76216 0.61539 0.93978 0.0
H194 H 0.69094 0.52382 0.927 0.0
H195 H 0.65383 0.54224 0.9255 0.0
H196 H 0.42979 0.51435 0.9082 0.0
H197 H 0.37827 0.50795 0.91194 0.0
H198 H 0.39982 0.52766 0.95295 0.0
H199 H 0.45181 0.53427 0.94911 0.0
C200 C 0.44599 0.08468 0.92632 0.0
Eu201 Eu 0.46662 0.04649 0.93066 0.0
C202 C 0.45719 0.11766 0.92922 0.0
C203 C 0.48672 0.13643 0.93482 0.0
C204 C 0.49856 0.16847 0.9364 0.0
C205 C 0.48101 0.18227 0.93243 0.0
C206 C 0.45115 0.16316 0.92705 0.0
C207 C 0.4394 0.13114 0.92543 0.0
C208 C 0.49083 0.03833 0.95316 0.0
C209 C 0.54215 0.07737 0.92661 0.0
C210 C 0.51637 0.96515 0.92168 0.0
Eu211 Eu 0.4958 1.00403 0.92451 0.0
C212 C 0.51657 0.93614 0.92481 0.0
C213 C 0.5234 0.92138 0.91472 0.0
C214 C 0.52779 0.89617 0.91736 0.0
C215 C 0.52532 0.88499 0.93018 0.0
C216 C 0.51728 0.89904 0.94026 0.0
C217 C 0.51313 0.92459 0.93761 0.0
C218 C 0.47838 0.02717 0.90387 0.0
C219 C 0.42394 0.97194 0.93416 0.0
O220 O 0.46332 0.07988 0.91804 0.0
O221 O 0.43688 0.06543 0.9363 0.0
O222 O 0.4772 0.05482 0.95224 0.0
O223 O 0.49106 0.02707 0.9421 0.0
O224 O 0.5177 0.08153 0.92624 0.0
O225 O 0.53938 0.04953 0.92743 0.0
O226 O 0.52756 0.98777 0.9303 0.0
O227 O 0.49334 0.96352 0.91475 0.0
O228 O 0.50353 0.02525 0.90394 0.0
O229 O 0.46399 0.01647 0.91439 0.0
O230 O 0.4498 0.97028 0.93386 0.0
O231 O 0.42376 0.99817 0.93166 0.0
H232 H 0.50084 0.12637 0.93775 0.0
H233 H 0.52146 0.18245 0.94071 0.0
H234 H 0.43719 0.17308 0.92374 0.0
H235 H 0.41671 0.11704 0.92095 0.0
H236 H 0.52627 0.92998 0.90478 0.0
H237 H 0.53342 0.88557 0.90935 0.0
H238 H 0.51528 0.89099 0.95025 0.0
H239 H 0.50802 0.93572 0.94557 0.0
C240 C 0.05043 0.29014 0.44352 0.0
Eu241 Eu 0.11035 0.3259 0.44063 0.0
C242 C 0.02973 0.25823 0.44831 0.0
C243 C 0.04126 0.23785 0.45048 0.0
C244 C 0.02077 0.20614 0.45282 0.0
C245 C 0.98833 0.19423 0.45307 0.0
C246 C 0.9771 0.21521 0.45167 0.0
C247 C 0.99763 0.24688 0.44926 0.0
C248 C 0.14467 0.34692 0.41826 0.0
C249 C 0.15273 0.29306 0.44459 0.0
C250 C 0.24439 0.39695 0.44732 0.0
Eu251 Eu 0.18361 0.3691 0.44714 0.0
C252 C 0.27378 0.42671 0.44536 0.0
C253 C 0.27908 0.4548 0.45102 0.0
C254 C 0.3084 0.48186 0.44997 0.0
C255 C 0.33296 0.48129 0.44328 0.0
C256 C 0.32713 0.45329 0.43731 0.0
C257 C 0.29791 0.42636 0.43836 0.0
C258 C 0.14254 0.34982 0.46742 0.0
C259 C 0.14403 0.40261 0.44125 0.0
O260 O 0.06805 0.31126 0.45216 0.0
O261 O 0.06536 0.29189 0.43273 0.0
O262 O 0.11476 0.3281 0.41837 0.0
O263 O 0.15378 0.35322 0.4299 0.0
O264 O 0.12425 0.28893 0.44322 0.0
O265 O 0.1779 0.32098 0.44578 0.0
O266 O 0.22744 0.38323 0.43696 0.0
O267 O 0.22764 0.39411 0.45767 0.0
O268 O 0.16786 0.377 0.46711 0.0
O269 O 0.14126 0.33432 0.45749 0.0
O270 O 0.17187 0.40505 0.44052 0.0
O271 O 0.11783 0.37537 0.44297 0.0
H272 H 0.066 0.24615 0.44976 0.0
H273 H 0.0303 0.19075 0.45375 0.0
H274 H 0.95234 0.20701 0.45208 0.0
H275 H 0.9883 0.26227 0.44764 0.0
H276 H 0.26083 0.45569 0.45649 0.0
H277 H 0.3121 0.50294 0.45475 0.0
H278 H 0.34525 0.4521 0.43188 0.0
H279 H 0.29436 0.40497 0.43392 0.0
C280 C 0.74867 0.77111 0.45359 0.0
Eu281 Eu 0.71471 0.79566 0.44755 0.0
C282 C 0.78125 0.78015 0.45102 0.0
C283 C 0.79973 0.80569 0.44291 0.0
C284 C 0.83151 0.81611 0.44141 0.0
C285 C 0.84536 0.8012 0.44803 0.0
C286 C 0.82652 0.7753 0.45601 0.0
C287 C 0.79475 0.76492 0.4575 0.0
C288 C 0.71214 0.82041 0.42419 0.0
C289 C 0.75136 0.87184 0.44981 0.0
C290 C 0.6436 0.85852 0.45099 0.0
Eu291 Eu 0.67741 0.8316 0.45122 0.0
C292 C 0.61265 0.85616 0.44992 0.0
C293 C 0.6011 0.86474 0.46071 0.0
C294 C 0.5745 0.86754 0.45954 0.0
C295 C 0.55878 0.86195 0.44753 0.0
C296 C 0.56964 0.85222 0.43683 0.0
C297 C 0.5964 0.84948 0.43799 0.0
C298 C 0.69523 0.81238 0.47296 0.0
C299 C 0.6391 0.75688 0.44482 0.0
O300 O 0.74511 0.79025 0.46128 0.0
O301 O 0.72989 0.76213 0.44344 0.0
O302 O 0.72593 0.80429 0.42599 0.0
O303 O 0.70057 0.82249 0.43487 0.0
O304 O 0.75228 0.84597 0.45223 0.0
O305 O 0.72506 0.87146 0.4473 0.0
O306 O 0.65641 0.85459 0.4405 0.0
O307 O 0.64998 0.84808 0.46162 0.0
O308 O 0.69734 0.83954 0.47209 0.0
O309 O 0.68426 0.7976 0.46254 0.0
O310 O 0.63894 0.78356 0.44536 0.0
O311 O 0.66491 0.75524 0.44639 0.0
H312 H 0.78967 0.81791 0.43793 0.0
H313 H 0.84523 0.83588 0.43509 0.0
H314 H 0.83651 0.76357 0.4614 0.0
H315 H 0.78088 0.74545 0.46394 0.0
H316 H 0.61331 0.87034 0.46999 0.0
H317 H 0.56648 0.87455 0.46804 0.0
H318 H 0.5582 0.8479 0.42741 0.0
H319 H 0.60487 0.84314 0.42945 0.0
C320 C 0.26927 0.99184 0.44286 0.0
Eu321 Eu 0.2446 0.93163 0.44116 0.0
C322 C 0.25859 0.01323 0.44715 0.0
C323 C 0.27773 0.04533 0.44518 0.0
C324 C 0.26628 0.06562 0.44742 0.0
C325 C 0.23538 0.0541 0.45167 0.0
C326 C 0.21664 0.02192 0.45409 0.0
C327 C 0.22813 1.00166 0.45181 0.0
C328 C 0.23086 0.89521 0.41943 0.0
C329 C 0.16952 0.88923 0.4443 0.0
C330 C 0.18245 0.79869 0.45099 0.0
Eu331 Eu 0.21496 0.85944 0.4491 0.0
C332 C 0.18317 0.76914 0.4506 0.0
C333 C 0.16849 0.74724 0.46063 0.0
C334 C 0.1653 0.71757 0.45984 0.0
C335 C 0.17661 0.70895 0.44894 0.0
C336 C 0.19221 0.7313 0.43907 0.0
C337 C 0.19542 0.76105 0.43988 0.0
C338 C 0.23758 0.90298 0.46859 0.0
C339 C 0.28743 0.89802 0.44223 0.0
O340 O 0.27291 0.97508 0.45188 0.0
O341 O 0.25536 0.97574 0.43236 0.0
O342 O 0.24228 0.92514 0.41903 0.0
O343 O 0.228 0.88707 0.43122 0.0
O344 O 0.1937 0.9179 0.44326 0.0
O345 O 0.17257 0.86439 0.44604 0.0
O346 O 0.1868 0.81399 0.44002 0.0
O347 O 0.19488 0.81709 0.46108 0.0
O348 O 0.24005 0.87801 0.46867 0.0
O349 O 0.22263 0.9029 0.45863 0.0
O350 O 0.26199 0.87016 0.44214 0.0
O351 O 0.28667 0.92441 0.44365 0.0
H352 H 0.30118 0.0546 0.44143 0.0
H353 H 0.28124 0.09015 0.44528 0.0
H354 H 0.19291 0.0123 0.45753 0.0
H355 H 0.21289 0.97687 0.45327 0.0
H356 H 0.15873 0.75283 0.46897 0.0
H357 H 0.15368 0.70125 0.46774 0.0
H358 H 0.20101 0.72549 0.43049 0.0
H359 H 0.20673 0.77737 0.43195 0.0
C360 C 0.63277 0.72043 0.26587 0.0
Eu361 Eu 0.66594 0.78109 0.26684 0.0
C362 C 0.59915 0.6982 0.26423 0.0
C363 C 0.57676 0.7059 0.2683 0.0
C364 C 0.54491 0.68473 0.26664 0.0
C365 C 0.53475 0.65547 0.26077 0.0
C366 C 0.5574 0.64816 0.25651 0.0
C367 C 0.58924 0.6693 0.25824 0.0
C368 C 0.67856 0.81684 0.28841 0.0
C369 C 0.63167 0.82043 0.2644 0.0
C370 C 0.73522 0.91054 0.26025 0.0
Eu371 Eu 0.70669 0.84956 0.26149 0.0
C372 C 0.76555 0.94005 0.26075 0.0
C373 C 0.7723 0.96253 0.25103 0.0
C374 C 0.79899 0.99204 0.25186 0.0
C375 C 0.81965 0.99993 0.26249 0.0
C376 C 0.81336 0.97701 0.27206 0.0
C377 C 0.78654 0.9474 0.27122 0.0
C378 C 0.68827 0.81101 0.24019 0.0
C379 C 0.74266 0.8131 0.26625 0.0
O380 O 0.64699 0.73774 0.2557 0.0
O381 O 0.64118 0.73625 0.2768 0.0
O382 O 0.65192 0.79222 0.28596 0.0
O383 O 0.69836 0.82112 0.27961 0.0
O384 O 0.62784 0.79231 0.2627 0.0
O385 O 0.65975 0.84514 0.26554 0.0
O386 O 0.72425 0.89464 0.27106 0.0
O387 O 0.72921 0.89267 0.25001 0.0
O388 O 0.71643 0.83421 0.24172 0.0
O389 O 0.6718 0.80979 0.24971 0.0
O390 O 0.74481 0.84063 0.26711 0.0
O391 O 0.71517 0.78721 0.2648 0.0
H392 H 0.58389 0.72826 0.27282 0.0
H393 H 0.52828 0.69113 0.27016 0.0
H394 H 0.55057 0.62618 0.25171 0.0
H395 H 0.60615 0.66309 0.25487 0.0
H396 H 0.75645 0.95749 0.24288 0.0
H397 H 0.80331 0.00879 0.24418 0.0
H398 H 0.8286 0.98227 0.28042 0.0
H399 H 0.78189 0.93058 0.2789 0.0
C400 C 0.33062 0.93813 0.25842 0.0
Eu401 Eu 0.27157 0.91416 0.26324 0.0
C402 C 0.3534 0.92849 0.26172 0.0
C403 C 0.34393 0.90072 0.26865 0.0
C404 C 0.36464 0.88967 0.27059 0.0
C405 C 0.39519 0.90625 0.26566 0.0
C406 C 0.40476 0.93451 0.25899 0.0
C407 C 0.38396 0.94547 0.257 0.0
C408 C 0.24236 0.89011 0.28633 0.0
C409 C 0.23166 0.83803 0.26116 0.0
C410 C 0.13888 0.85451 0.25622 0.0
Eu411 Eu 0.19931 0.87927 0.25813 0.0
C412 C 0.10981 0.85418 0.26003 0.0
C413 C 0.10199 0.87554 0.25467 0.0
C414 C 0.07219 0.87159 0.25653 0.0
C415 C 0.04943 0.8461 0.26373 0.0
C416 C 0.05773 0.82548 0.2695 0.0
C417 C 0.08749 0.82943 0.26764 0.0
C418 C 0.23826 0.89732 0.23697 0.0
C419 C 0.23517 0.95245 0.26643 0.0
O420 O 0.30858 0.91915 0.25042 0.0
O421 O 0.32002 0.94735 0.26817 0.0
O422 O 0.27237 0.90598 0.28488 0.0
O423 O 0.2292 0.88787 0.27546 0.0
O424 O 0.25893 0.86372 0.2593 0.0
O425 O 0.2055 0.83861 0.26252 0.0
O426 O 0.15238 0.84534 0.26475 0.0
O427 O 0.15881 0.87687 0.24859 0.0
O428 O 0.21268 0.87061 0.23768 0.0
O429 O 0.24146 0.9125 0.24721 0.0
O430 O 0.20871 0.92537 0.26652 0.0
O431 O 0.26247 0.95463 0.26392 0.0
H432 H 0.32029 0.88722 0.27229 0.0
H433 H 0.35668 0.86804 0.27589 0.0
H434 H 0.42802 0.94763 0.25494 0.0
H435 H 0.3915 0.96676 0.2515 0.0
H436 H 0.11843 0.89464 0.24861 0.0
H437 H 0.06661 0.88778 0.25182 0.0
H438 H 0.04101 0.80588 0.27527 0.0
H439 H 0.09266 0.81237 0.27177 0.0
C440 C 0.11506 0.41919 0.25485 0.0
Eu441 Eu 0.13576 0.38196 0.26107 0.0
C442 C 0.12536 0.45258 0.25665 0.0
C443 C 0.13023 0.46617 0.26911 0.0
C444 C 0.14219 0.49834 0.27041 0.0
C445 C 0.14986 0.51749 0.25928 0.0
C446 C 0.14452 0.50373 0.24685 0.0
C447 C 0.13224 0.47161 0.24555 0.0
C448 C 0.15905 0.37672 0.28438 0.0
C449 C 0.21175 0.41356 0.25777 0.0
C450 C 0.18757 0.30127 0.25635 0.0
Eu451 Eu 0.16628 0.33995 0.25698 0.0
C452 C 0.18686 0.27279 0.26133 0.0
C453 C 0.16505 0.24305 0.25659 0.0
C454 C 0.16827 0.21713 0.25945 0.0
C455 C 0.1935 0.22041 0.26702 0.0
C456 C 0.21442 0.2499 0.27224 0.0
C457 C 0.21118 0.27576 0.2694 0.0
C458 C 0.14873 0.35982 0.23532 0.0
C459 C 0.09347 0.30741 0.26537 0.0
O460 O 0.13299 0.41365 0.24724 0.0
O461 O 0.10511 0.40082 0.26513 0.0
O462 O 0.14495 0.39258 0.28261 0.0
O463 O 0.16009 0.36446 0.27369 0.0
O464 O 0.18695 0.417 0.25644 0.0
O465 O 0.20925 0.38609 0.25969 0.0
O466 O 0.19915 0.32596 0.26389 0.0
O467 O 0.16464 0.29838 0.24895 0.0
O468 O 0.17435 0.35878 0.23591 0.0
O469 O 0.13431 0.35019 0.24588 0.0
O470 O 0.11967 0.30637 0.26598 0.0
O471 O 0.09317 0.33332 0.26223 0.0
H472 H 0.12534 0.45213 0.27785 0.0
H473 H 0.1462 0.50836 0.28011 0.0
H474 H 0.14979 0.51783 0.2381 0.0
H475 H 0.12863 0.46166 0.23584 0.0
H476 H 0.14626 0.23998 0.2502 0.0
H477 H 0.15187 0.19483 0.25517 0.0
H478 H 0.23382 0.25318 0.27828 0.0
H479 H 0.22857 0.29839 0.27309 0.0
C480 C 0.7174 0.62432 0.78426 0.0
Eu481 Eu 0.77618 0.66149 0.77948 0.0
C482 C 0.69574 0.59118 0.78156 0.0
C483 C 0.70672 0.57258 0.776 0.0
C484 C 0.68675 0.54049 0.77447 0.0
C485 C 0.65539 0.52646 0.7784 0.0
C486 C 0.64439 0.54537 0.78373 0.0
C487 C 0.66445 0.57745 0.78533 0.0
C488 C 0.80715 0.66739 0.75688 0.0
C489 C 0.8194 0.62894 0.78323 0.0
C490 C 0.90815 0.74117 0.78711 0.0
Eu491 Eu 0.84825 0.70253 0.78513 0.0
C492 C 0.93676 0.76891 0.78214 0.0
C493 C 0.94475 0.79924 0.78606 0.0
C494 C 0.97429 0.82466 0.78323 0.0
C495 C 0.99661 0.82031 0.7765 0.0
C496 C 0.98809 0.79015 0.77214 0.0
C497 C 0.95861 0.7648 0.77496 0.0
C498 C 0.80852 0.68157 0.80601 0.0
C499 C 0.80977 0.73569 0.77497 0.0
O500 O 0.7397 0.62957 0.79256 0.0
O501 O 0.72738 0.64306 0.77411 0.0
O502 O 0.77703 0.65173 0.758 0.0
O503 O 0.81945 0.67917 0.76778 0.0
O504 O 0.79113 0.62559 0.78389 0.0
O505 O 0.84487 0.65641 0.7822 0.0
O506 O 0.89602 0.71546 0.7802 0.0
O507 O 0.88711 0.74508 0.79322 0.0
O508 O 0.83523 0.68268 0.80595 0.0
O509 O 0.8049 0.69199 0.7954 0.0
O510 O 0.83676 0.73618 0.77514 0.0
O511 O 0.78299 0.71021 0.77784 0.0
H512 H 0.73088 0.58282 0.77305 0.0
H513 H 0.69584 0.52666 0.77019 0.0
H514 H 0.62045 0.53524 0.78698 0.0
H515 H 0.65569 0.59144 0.78975 0.0
H516 H 0.92869 0.80322 0.79178 0.0
H517 H 0.9801 0.84749 0.78684 0.0
H518 H 1.00448 0.78599 0.76676 0.0
H519 H 0.95339 0.74172 0.77192 0.0
C520 C 0.41803 0.1058 0.78124 0.0
Eu521 Eu 0.38224 0.12835 0.77509 0.0
C522 C 0.45073 0.11464 0.779 0.0
C523 C 0.47053 0.14129 0.77168 0.0
C524 C 0.50243 0.15147 0.77082 0.0
C525 C 0.51508 0.1352 0.77729 0.0
C526 C 0.4949 0.10817 0.78441 0.0
C527 C 0.46305 0.09804 0.78527 0.0
C528 C 0.3766 0.15055 0.75157 0.0
C529 C 0.41736 0.20482 0.77651 0.0
C530 C 0.30791 0.1871 0.78054 0.0
Eu531 Eu 0.34379 0.16253 0.77931 0.0
C532 C 0.27774 0.18581 0.77833 0.0
C533 C 0.26434 0.19321 0.7888 0.0
C534 C 0.23825 0.19659 0.78687 0.0
C535 C 0.22484 0.19265 0.7744 0.0
C536 C 0.23753 0.18404 0.76398 0.0
C537 C 0.26388 0.18082 0.7659 0.0
C538 C 0.3648 0.14578 0.80086 0.0
C539 C 0.307 0.08826 0.77253 0.0
O540 O 0.41422 0.1252 0.78864 0.0
O541 O 0.39927 0.09613 0.77109 0.0
O542 O 0.39079 0.1348 0.7534 0.0
O543 O 0.36562 0.15338 0.76232 0.0
O544 O 0.41954 0.17946 0.77841 0.0
O545 O 0.39033 0.20357 0.77507 0.0
O546 O 0.32586 0.19062 0.77053 0.0
O547 O 0.30975 0.16999 0.78987 0.0
O548 O 0.36596 0.17247 0.7998 0.0
O549 O 0.35304 0.13014 0.79069 0.0
O550 O 0.30674 0.11489 0.77241 0.0
O551 O 0.33284 0.08701 0.77466 0.0
H552 H 0.46141 0.15459 0.76688 0.0
H553 H 0.51719 0.17216 0.76514 0.0
H554 H 0.50384 0.09534 0.7897 0.0
H555 H 0.44818 0.07771 0.79113 0.0
H556 H 0.27469 0.19737 0.79846 0.0
H557 H 0.22879 0.20269 0.79516 0.0
H558 H 0.22781 0.18092 0.75424 0.0
H559 H 0.27385 0.1753 0.75763 0.0
C560 C 0.93481 0.32467 0.77922 0.0
Eu561 Eu 0.91454 0.26576 0.77544 0.0
C562 C 0.92273 0.34612 0.77691 0.0
C563 C 0.94292 0.37668 0.7727 0.0
C564 C 0.93219 0.39787 0.77141 0.0
C565 C 0.90106 0.38895 0.77443 0.0
C566 C 0.88069 0.35797 0.77829 0.0
C567 C 0.89137 0.33677 0.77946 0.0
C568 C 0.88972 0.23211 0.75328 0.0
C569 C 0.83929 0.22056 0.7796 0.0
C570 C 0.86736 0.13529 0.78501 0.0
Eu571 Eu 0.88632 0.19452 0.78214 0.0
C572 C 0.86565 0.10653 0.77978 0.0
C573 C 0.88717 0.09756 0.78384 0.0
C574 C 0.88235 0.06786 0.78086 0.0
C575 C 0.85574 0.04632 0.77384 0.0
C576 C 0.83494 0.0558 0.76932 0.0
C577 C 0.83979 0.08548 0.77227 0.0
C578 C 0.90471 0.23573 0.80254 0.0
C579 C 0.95695 0.23406 0.77126 0.0
O580 O 0.91997 0.30314 0.7881 0.0
O581 O 0.94245 0.31421 0.76891 0.0
O582 O 0.90286 0.26224 0.75387 0.0
O583 O 0.89012 0.2214 0.76444 0.0
O584 O 0.86358 0.24925 0.78041 0.0
O585 O 0.84259 0.19584 0.77848 0.0
O586 O 0.85097 0.14593 0.7792 0.0
O587 O 0.89396 0.15753 0.78964 0.0
O588 O 0.87999 0.20834 0.80284 0.0
O589 O 0.91838 0.23923 0.79185 0.0
O590 O 0.93088 0.20669 0.77149 0.0
O591 O 0.9575 0.26049 0.77413 0.0
H592 H 0.96713 0.38431 0.77061 0.0
H593 H 0.94839 0.42132 0.76815 0.0
H594 H 0.85671 0.35027 0.78085 0.0
H595 H 0.87522 0.31325 0.78268 0.0
H596 H 0.90706 0.11297 0.78982 0.0
H597 H 0.89869 0.06126 0.78461 0.0
H598 H 0.81445 0.03998 0.76373 0.0
H599 H 0.82253 0.09142 0.7691 0.0
C600 C 0.30681 0.05443 0.58961 0.0
Eu601 Eu 0.34169 0.1135 0.59463 0.0
C602 C 0.27444 0.03064 0.5924 0.0
C603 C 0.25508 0.03815 0.59965 0.0
C604 C 0.2234 0.01632 0.60112 0.0
C605 C 0.21057 0.98664 0.59533 0.0
C606 C 0.23033 0.97913 0.58828 0.0
C607 C 0.26198 1.00098 0.58682 0.0
C608 C 0.34768 0.14294 0.61767 0.0
C609 C 0.30613 0.15413 0.59232 0.0
C610 C 0.41556 0.24477 0.58583 0.0
Eu611 Eu 0.37949 0.18474 0.58896 0.0
C612 C 0.44463 0.27447 0.58842 0.0
C613 C 0.45938 0.29458 0.57786 0.0
C614 C 0.48451 0.32461 0.5799 0.0
C615 C 0.49558 0.33529 0.5926 0.0
C616 C 0.48154 0.31469 0.60317 0.0
C617 C 0.45614 0.28456 0.60111 0.0
C618 C 0.35804 0.14467 0.56814 0.0
C619 C 0.4164 0.14914 0.59799 0.0
O620 O 0.30986 0.07656 0.58168 0.0
O621 O 0.32599 0.06501 0.59961 0.0
O622 O 0.3333 0.11291 0.61619 0.0
O623 O 0.35858 0.15639 0.6068 0.0
O624 O 0.30385 0.12639 0.59102 0.0
O625 O 0.33327 0.18002 0.59316 0.0
O626 O 0.3946 0.23239 0.59508 0.0
O627 O 0.41681 0.22402 0.57834 0.0
O628 O 0.35621 0.16985 0.56873 0.0
O629 O 0.3704 0.14215 0.57841 0.0
O630 O 0.41619 0.17576 0.59762 0.0
O631 O 0.39101 0.12188 0.59569 0.0
H632 H 0.26436 0.06113 0.60394 0.0
H633 H 0.20893 0.02273 0.60672 0.0
H634 H 0.22117 0.9567 0.58352 0.0
H635 H 0.27655 0.99499 0.58104 0.0
H636 H 0.45084 0.28737 0.56799 0.0
H637 H 0.49508 0.33963 0.57153 0.0
H638 H 0.48947 0.32225 0.61307 0.0
H639 H 0.44505 0.26954 0.60944 0.0
C640 C 1.0032 0.27052 0.59071 0.0
Eu641 Eu 0.94476 0.24891 0.59625 0.0
C642 C 0.02531 0.25938 0.59297 0.0
C643 C 0.01517 0.23003 0.59864 0.0
C644 C 0.0355 0.21822 0.59971 0.0
C645 C 0.06637 0.23561 0.59516 0.0
C646 C 0.07651 0.26526 0.58969 0.0
C647 C 0.0561 0.27698 0.58858 0.0
C648 C 0.91502 0.22535 0.61933 0.0
C649 C 0.90167 0.1728 0.59356 0.0
C650 C 0.81209 0.19508 0.59025 0.0
Eu651 Eu 0.87212 0.2169 0.59151 0.0
C652 C 0.7842 0.19565 0.59513 0.0
C653 C 0.77636 0.21752 0.59038 0.0
C654 C 0.74721 0.21431 0.59315 0.0
C655 C 0.72514 0.18905 0.60065 0.0
C656 C 0.7336 0.16805 0.60588 0.0
C657 C 0.76271 0.17126 0.60312 0.0
C658 C 0.91035 0.23466 0.57018 0.0
C659 C 0.91103 0.28965 0.60026 0.0
O660 O 0.98031 0.25322 0.5827 0.0
O661 O 0.99394 0.27938 0.60105 0.0
O662 O 0.9451 0.23985 0.61794 0.0
O663 O 0.90244 0.2241 0.60843 0.0
O664 O 0.92964 0.19785 0.59202 0.0
O665 O 0.87625 0.17471 0.59505 0.0
O666 O 0.82496 0.18326 0.59781 0.0
O667 O 0.83241 0.2184 0.58311 0.0
O668 O 0.88393 0.20873 0.57069 0.0
O669 O 0.91458 0.24933 0.58065 0.0
O670 O 0.8841 0.26306 0.60068 0.0
O671 O 0.93768 0.29081 0.59723 0.0
H672 H 0.99136 0.21603 0.60203 0.0
H673 H 0.02705 0.19549 0.60411 0.0
H674 H 0.1 0.27909 0.58595 0.0
H675 H 0.06419 0.29952 0.58404 0.0
H676 H 0.79218 0.23637 0.58405 0.0
H677 H 0.7414 0.23077 0.58887 0.0
H678 H 0.71739 0.14861 0.61186 0.0
H679 H 0.76787 0.15383 0.60681 0.0
C680 C 0.78713 0.75226 0.60031 0.0
Eu681 Eu 0.81316 0.7177 0.60009 0.0
C682 C 0.79917 0.78603 0.59923 0.0
C683 C 0.83082 0.80745 0.60149 0.0
C684 C 0.84206 0.83954 0.60054 0.0
C685 C 0.82188 0.85082 0.59725 0.0
C686 C 0.79027 0.82913 0.59477 0.0
C687 C 0.77905 0.79706 0.59576 0.0
C688 C 0.83712 0.70402 0.62119 0.0
C689 C 0.88614 0.74923 0.59576 0.0
C690 C 0.86654 0.64336 0.59145 0.0
Eu691 Eu 0.83692 0.67449 0.59392 0.0
C692 C 0.8653 0.61307 0.59334 0.0
C693 C 0.86922 0.59818 0.58244 0.0
C694 C 0.87155 0.57136 0.58393 0.0
C695 C 0.87017 0.55872 0.59639 0.0
C696 C 0.86569 0.57334 0.60732 0.0
C697 C 0.86329 0.60024 0.60581 0.0
C698 C 0.81599 0.69384 0.57313 0.0
C699 C 0.76582 0.64178 0.60052 0.0
O700 O 0.78952 0.73863 0.58979 0.0
O701 O 0.79482 0.74289 0.6109 0.0
O702 O 0.84069 0.73128 0.61867 0.0
O703 O 0.82004 0.68435 0.6126 0.0
O704 O 0.86247 0.75437 0.59506 0.0
O705 O 0.88154 0.72064 0.59663 0.0
O706 O 0.86872 0.65998 0.60175 0.0
O707 O 0.8491 0.64514 0.58228 0.0
O708 O 0.80962 0.66526 0.57469 0.0
O709 O 0.8329 0.71021 0.58235 0.0
O710 O 0.79057 0.6386 0.60153 0.0
O711 O 0.76865 0.6695 0.59823 0.0
H712 H 0.84679 0.79937 0.60411 0.0
H713 H 0.86643 0.85548 0.60265 0.0
H714 H 0.77417 0.83693 0.59199 0.0
H715 H 0.75462 0.78086 0.59383 0.0
H716 H 0.87133 0.60783 0.57273 0.0
H717 H 0.87546 0.56111 0.57531 0.0
H718 H 0.86414 0.56406 0.61705 0.0
H719 H 0.86044 0.61124 0.61443 0.0
C720 C 0.4692 0.90941 0.11029 0.0
C721 C 0.49327 0.93936 0.11378 0.0
C722 C 0.47505 0.88448 0.10937 0.0
C723 C 0.54129 0.87037 0.10486 0.0
H724 H 0.48464 0.78703 0.11761 0.0
C725 C 0.5808 0.78086 0.11366 0.0
C726 C 0.56103 0.74992 0.1096 0.0
C727 C 0.57065 0.80258 0.11339 0.0
C728 C 0.50052 0.81012 0.11386 0.0
H729 H 0.5418 0.96613 0.11975 0.0
H730 H 0.55166 0.92306 0.1184 0.0
H731 H 0.46964 0.8272 0.11882 0.0
H732 H 0.51495 0.71781 0.10193 0.0
H733 H 0.49712 0.75574 0.10169 0.0
H734 H 0.5724 0.85364 0.10014 0.0
C735 C 0.52856 0.91881 0.11596 0.0
C736 C 0.49191 0.8331 0.11455 0.0
C737 C 0.52281 0.94354 0.11682 0.0
C738 C 0.53072 0.74129 0.10529 0.0
C739 C 0.52047 0.76302 0.10513 0.0
C740 C 0.54991 0.84755 0.10425 0.0
C741 C 0.50504 0.88912 0.11195 0.0
C742 C 0.51251 0.86369 0.11029 0.0
C743 C 0.54038 0.79393 0.10914 0.0
C744 C 0.5299 0.81731 0.10895 0.0
H745 H 0.44619 0.90545 0.10788 0.0
H746 H 0.4564 0.86188 0.10626 0.0
H747 H 0.5574 0.89344 0.10116 0.0
H748 H 0.604 0.78826 0.11732 0.0
H749 H 0.58638 0.8261 0.11675 0.0
C750 C 0.30989 0.80895 0.11051 0.0
C751 C 0.29906 0.83014 0.10872 0.0
C752 C 0.28889 0.7768 0.11113 0.0
C753 C 0.20708 0.72168 0.11919 0.0
H754 H 0.21851 0.66016 0.10039 0.0
C755 C 0.10577 0.59882 0.11083 0.0
C756 C 0.11032 0.57307 0.112 0.0
C757 C 0.13092 0.62914 0.11112 0.0
C758 C 0.21527 0.67702 0.10587 0.0
H759 H 0.25773 0.83383 0.10551 0.0
H760 H 0.22126 0.77801 0.10673 0.0
H761 H 0.25866 0.71544 0.0992 0.0
H762 H 0.14529 0.55925 0.11423 0.0
H763 H 0.18968 0.61284 0.11479 0.0
H764 H 0.16381 0.68369 0.12581 0.0
C765 C 0.24594 0.78629 0.10788 0.0
C766 C 0.23819 0.70865 0.10515 0.0
C767 C 0.26686 0.81831 0.10719 0.0
C768 C 0.14095 0.57854 0.11336 0.0
C769 C 0.16635 0.60919 0.11361 0.0
C770 C 0.18437 0.69023 0.11995 0.0
C771 C 0.25665 0.76519 0.11006 0.0
C772 C 0.23392 0.73137 0.11155 0.0
C773 C 0.1615 0.63481 0.11262 0.0
C774 C 0.18775 0.66759 0.11303 0.0
H775 H 0.3345 0.81724 0.11187 0.0
H776 H 0.29782 0.76112 0.11287 0.0
H777 H 0.20347 0.73853 0.1245 0.0
H778 H 0.08264 0.59572 0.10968 0.0
H779 H 0.12634 0.64825 0.11002 0.0
C780 C 0.23163 0.46975 0.10622 0.0
C781 C 0.21982 0.48963 0.10905 0.0
C782 C 0.26376 0.48116 0.106 0.0
C783 C 0.33851 0.54503 0.11849 0.0
H784 H 0.37296 0.51295 0.0929 0.0
C785 C 0.47052 0.58114 0.11593 0.0
C786 C 0.47566 0.55575 0.11473 0.0
C787 C 0.44032 0.5767 0.11461 0.0
C788 C 0.36368 0.52211 0.10012 0.0
H789 H 0.23265 0.53722 0.11389 0.0
H790 H 0.28885 0.55727 0.11332 0.0
H791 H 0.31824 0.49846 0.09151 0.0
H792 H 0.45285 0.50578 0.11127 0.0
H793 H 0.40094 0.4983 0.109 0.0
H794 H 0.38411 0.56834 0.12718 0.0
C795 C 0.27318 0.53276 0.11135 0.0
C796 C 0.3323 0.51373 0.09935 0.0
C797 C 0.24098 0.52133 0.11154 0.0
C798 C 0.44998 0.52597 0.11226 0.0
C799 C 0.4201 0.52164 0.11084 0.0
C800 C 0.37004 0.55352 0.11924 0.0
C801 C 0.28495 0.51278 0.10861 0.0
C802 C 0.3191 0.52443 0.10871 0.0
C803 C 0.41488 0.5469 0.1119 0.0
C804 C 0.38273 0.54148 0.11025 0.0
H805 H 0.21603 0.44529 0.10414 0.0
H806 H 0.27196 0.465 0.10402 0.0
H807 H 0.32905 0.55357 0.1259 0.0
H808 H 0.48974 0.60437 0.11783 0.0
H809 H 0.43695 0.59661 0.11547 0.0
C810 C 0.91105 0.46406 0.92969 0.0
C811 C 0.94092 0.48825 0.9262 0.0
C812 C 0.88618 0.46992 0.93091 0.0
C813 C 0.87268 0.5361 0.93661 0.0
H814 H 0.78881 0.48061 0.92404 0.0
C815 C 0.78371 0.57698 0.92963 0.0
C816 C 0.75283 0.55715 0.93372 0.0
C817 C 0.80526 0.56661 0.92949 0.0
C818 C 0.81206 0.49615 0.92774 0.0
H819 H 0.96756 0.53692 0.92045 0.0
H820 H 0.92457 0.54679 0.92232 0.0
H821 H 0.82865 0.46529 0.92203 0.0
H822 H 0.72067 0.51075 0.94105 0.0
H823 H 0.75829 0.49255 0.94057 0.0
H824 H 0.85646 0.56719 0.9421 0.0
C825 C 0.92035 0.52361 0.92454 0.0
C826 C 0.83484 0.48737 0.9266 0.0
C827 C 0.94503 0.51785 0.92338 0.0
C828 C 0.7441 0.52658 0.93766 0.0
C829 C 0.76565 0.51611 0.93741 0.0
C830 C 0.85006 0.54489 0.93769 0.0
C831 C 0.89082 0.50001 0.92863 0.0
C832 C 0.8656 0.50758 0.93078 0.0
C833 C 0.79648 0.53606 0.93335 0.0
C834 C 0.81965 0.52532 0.93306 0.0
H835 H 0.90716 0.44101 0.93193 0.0
H836 H 0.86366 0.45121 0.93406 0.0
H837 H 0.89591 0.55188 0.94026 0.0
H838 H 0.79118 0.6004 0.92624 0.0
H839 H 0.82872 0.58239 0.92609 0.0
C840 C 0.47495 0.22841 0.93781 0.0
C841 C 0.49395 0.21652 0.93362 0.0
C842 C 0.48673 0.26056 0.93855 0.0
C843 C 0.5483 0.33555 0.92538 0.0
H844 H 0.5225 0.36938 0.95375 0.0
C845 C 0.58519 0.46739 0.92971 0.0
C846 C 0.56026 0.47249 0.93245 0.0
C847 C 0.58112 0.43726 0.93057 0.0
C848 C 0.5299 0.3603 0.94575 0.0
H849 H 0.54034 0.22919 0.92691 0.0
H850 H 0.56104 0.28545 0.92835 0.0
H851 H 0.50778 0.31452 0.95404 0.0
H852 H 0.5116 0.44979 0.93834 0.0
H853 H 0.50472 0.39799 0.93978 0.0
H854 H 0.56991 0.38142 0.91699 0.0
C855 C 0.53694 0.26982 0.93099 0.0
C856 C 0.52139 0.32884 0.9459 0.0
C857 C 0.52516 0.2376 0.9303 0.0
C858 C 0.53139 0.44691 0.93612 0.0
C859 C 0.52745 0.4171 0.93708 0.0
C860 C 0.55686 0.36715 0.92524 0.0
C861 C 0.51783 0.28168 0.93511 0.0
C862 C 0.5298 0.31587 0.93556 0.0
C863 C 0.5522 0.41185 0.93435 0.0
C864 C 0.54704 0.37964 0.93526 0.0
H865 H 0.4509 0.21284 0.94055 0.0
H866 H 0.47123 0.26887 0.9416 0.0
H867 H 0.55502 0.32627 0.91723 0.0
H868 H 0.60771 0.48655 0.92685 0.0
H869 H 0.60064 0.43389 0.92842 0.0
C870 C 0.58049 0.13458 0.92999 0.0
C871 C 0.57419 0.10457 0.92641 0.0
C872 C 0.6114 0.15922 0.93092 0.0
C873 C 0.69157 0.17233 0.9351 0.0
H874 H 0.71851 0.25644 0.92329 0.0
C875 C 0.82055 0.26237 0.92644 0.0
C876 C 0.8318 0.29291 0.93107 0.0
C877 C 0.78869 0.24061 0.92665 0.0
C878 C 0.71122 0.23311 0.92676 0.0
H879 H 0.59527 0.07737 0.92026 0.0
H880 H 0.64851 0.12003 0.92157 0.0
H881 H 0.66328 0.21649 0.92189 0.0
H882 H 0.81798 0.3242 0.93971 0.0
H883 H 0.7622 0.28624 0.93979 0.0
H884 H 0.73944 0.18864 0.93969 0.0
C885 C 0.62989 0.12453 0.9241 0.0
C886 C 0.6796 0.21026 0.92598 0.0
C887 C 0.59925 0.10004 0.92327 0.0
C888 C 0.81021 0.30107 0.93589 0.0
C889 C 0.77823 0.27933 0.93597 0.0
C890 C 0.72305 0.19502 0.93579 0.0
C891 C 0.63647 0.15426 0.92823 0.0
C892 C 0.66951 0.17943 0.92991 0.0
C893 C 0.76717 0.24886 0.93138 0.0
C894 C 0.73333 0.22553 0.93144 0.0
H895 H 0.56166 0.13878 0.93248 0.0
H896 H 0.61566 0.18185 0.93414 0.0
H897 H 0.68453 0.14906 0.93856 0.0
H898 H 0.83628 0.25536 0.92238 0.0
H899 H 0.7808 0.21742 0.92286 0.0
C900 C 0.24079 0.10587 0.45764 0.0
C901 C 0.22237 0.07539 0.45282 0.0
C902 C 0.22941 0.12661 0.45779 0.0
C903 C 0.17062 0.14102 0.44189 0.0
H904 H 0.19455 0.20272 0.46937 0.0
C905 C 0.13239 0.23508 0.4434 0.0
C906 C 0.15698 0.26555 0.44581 0.0
C907 C 0.13695 0.20946 0.44487 0.0
C908 C 0.1877 0.18563 0.46162 0.0
H909 H 0.17718 0.04275 0.44456 0.0
H910 H 0.15703 0.07866 0.44518 0.0
H911 H 0.20845 0.16212 0.47122 0.0
H912 H 0.20562 0.29277 0.45167 0.0
H913 H 0.21329 0.24843 0.45425 0.0
H914 H 0.15003 0.16489 0.43228 0.0
C915 C 0.1805 0.08667 0.44866 0.0
C916 C 0.19576 0.16243 0.46265 0.0
C917 C 0.19193 0.06594 0.44847 0.0
C918 C 0.18609 0.26974 0.44971 0.0
C919 C 0.19049 0.24425 0.4513 0.0
C920 C 0.16236 0.16417 0.44091 0.0
C921 C 0.19922 0.1174 0.45318 0.0
C922 C 0.18795 0.14022 0.45267 0.0
C923 C 0.16602 0.21384 0.44895 0.0
C924 C 0.17144 0.18713 0.45062 0.0
H925 H 0.26419 0.11385 0.4612 0.0
H926 H 0.24467 0.15018 0.46121 0.0
H927 H 0.16447 0.12452 0.43395 0.0
H928 H 0.10968 0.23102 0.44039 0.0
H929 H 0.11765 0.18622 0.443 0.0
C930 C 0.93944 0.14637 0.44571 0.0
C931 C 0.96628 0.15992 0.45363 0.0
C932 C 0.9196 0.1141 0.44547 0.0
C933 C 0.89628 0.04123 0.46369 0.0
H934 H 0.86064 1.0037 0.43017 0.0
C935 C 0.80725 0.90814 0.45661 0.0
C936 C 0.78036 0.90264 0.44972 0.0
C937 C 0.83351 0.93827 0.45704 0.0
C938 C 0.87043 0.01381 0.43961 0.0
H939 H 0.9928 0.14986 0.46774 0.0
H940 H 0.95822 0.09326 0.46718 0.0
H941 H 0.89938 0.05894 0.43131 0.0
H942 H 0.7604 0.92414 0.43753 0.0
H943 H 0.8058 0.97594 0.43818 0.0
H944 H 0.8667 0.99586 0.47195 0.0
C945 C 0.95253 0.1078 0.46121 0.0
C946 C 0.89252 0.04551 0.44028 0.0
C947 C 0.97247 0.14023 0.46145 0.0
C948 C 0.78061 0.92753 0.443 0.0
C949 C 0.80678 0.95727 0.44328 0.0
C950 C 0.87415 0.00933 0.46301 0.0
C951 C 0.92605 0.09433 0.45308 0.0
C952 C 0.90508 0.05986 0.45236 0.0
C953 C 0.83346 0.96313 0.45038 0.0
C954 C 0.86036 0.99551 0.45099 0.0
H955 H 0.93407 0.16063 0.43941 0.0
H956 H 0.89913 0.10462 0.43927 0.0
H957 H 0.90544 0.05153 0.47316 0.0
H958 H 0.8077 0.88943 0.4619 0.0
H959 H 0.85382 0.94213 0.46256 0.0
C960 C 0.13115 0.90878 0.44456 0.0
C961 C 0.1373 0.88397 0.444 0.0
C962 C 0.10028 0.90278 0.44495 0.0
C963 C 0.02134 0.83998 0.4539 0.0
H964 H 0.99116 0.88421 0.43263 0.0
C965 C 0.89066 0.79202 0.4461 0.0
C966 C 0.87941 0.81298 0.44691 0.0
C967 C 0.92267 0.80294 0.44571 0.0
C968 C 0.99935 0.8719 0.43873 0.0
H969 H 0.11571 0.83352 0.44281 0.0
H970 H 0.06266 0.82335 0.44339 0.0
H971 H 0.04664 0.90005 0.43218 0.0
H972 H 0.89313 0.86199 0.4478 0.0
H973 H 0.94913 0.88105 0.44704 0.0
H974 H 0.97432 0.81165 0.46036 0.0
C975 C 0.08146 0.84735 0.44385 0.0
C976 C 0.0311 0.88101 0.43849 0.0
C977 C 0.11202 0.85326 0.44346 0.0
C978 C 0.90099 0.84521 0.44702 0.0
C979 C 0.93308 0.85615 0.44661 0.0
C980 C 0.98978 0.83091 0.45412 0.0
C981 C 0.07515 0.87191 0.44481 0.0
C982 C 0.04227 0.86469 0.44588 0.0
C983 C 0.94427 0.83511 0.44613 0.0
C984 C 0.97828 0.84633 0.44637 0.0
H985 H 0.15008 0.9327 0.44496 0.0
H986 H 0.0961 0.9222 0.44569 0.0
H987 H 0.02935 0.8274 0.45994 0.0
H988 H 0.8747 0.7671 0.44573 0.0
H989 H 0.93052 0.78613 0.44506 0.0
C990 C 0.44821 0.91354 0.27029 0.0
C991 C 0.4167 0.89368 0.26708 0.0
C992 C 0.46869 0.90193 0.27118 0.0
C993 C 0.47988 0.83794 0.2596 0.0
H994 H 0.5439 0.86865 0.28639 0.0
C995 C 0.57375 0.80011 0.26347 0.0
C996 C 0.60434 0.82493 0.26535 0.0
C997 C 0.54831 0.80503 0.26458 0.0
C998 C 0.5262 0.85991 0.27883 0.0
H999 H 0.38196 0.84601 0.26231 0.0
H1000 H 0.41773 0.82567 0.264 0.0
H1001 H 0.50409 0.88382 0.28683 0.0
H1002 H 0.63208 0.87432 0.2699 0.0
H1003 H 0.58811 0.88272 0.27174 0.0
H1004 H 0.5025 0.81452 0.25147 0.0
C1005 C 0.42659 0.85026 0.26576 0.0
C1006 C 0.50343 0.86864 0.27907 0.0
C1007 C 0.40605 0.86186 0.26493 0.0
C1008 C 0.60889 0.85461 0.26838 0.0
C1009 C 0.58361 0.85943 0.26956 0.0
C1010 C 0.50272 0.82918 0.25936 0.0
C1011 C 0.45817 0.87019 0.26885 0.0
C1012 C 0.48043 0.85835 0.26929 0.0
C1013 C 0.55303 0.83475 0.26771 0.0
C1014 C 0.52655 0.8407 0.2688 0.0
H1015 H 0.45707 0.9381 0.27211 0.0
H1016 H 0.49296 0.91799 0.27342 0.0
H1017 H 0.46259 0.82977 0.25188 0.0
H1018 H 0.56945 0.77695 0.26116 0.0
H1019 H 0.52496 0.78554 0.26314 0.0
C1020 C 0.25259 0.80193 0.25649 0.0
C1021 C 0.22982 0.80733 0.26208 0.0
C1022 C 0.24921 0.77205 0.25693 0.0
C1023 C 0.20927 0.69743 0.2748 0.0
H1024 H 0.21082 0.6591 0.24202 0.0
C1025 C 0.15057 0.56418 0.26917 0.0
C1026 C 0.16359 0.55175 0.26057 0.0
C1027 C 0.16276 0.59642 0.26997 0.0
C1028 C 0.21087 0.66953 0.25132 0.0
H1029 H 0.18644 0.78608 0.273 0.0
H1030 H 0.1809 0.73456 0.27391 0.0
H1031 H 0.22639 0.71426 0.24253 0.0
H1032 H 0.20029 0.56331 0.24642 0.0
H1033 H 0.22208 0.61959 0.24801 0.0
H1034 H 0.19368 0.65291 0.28364 0.0
C1035 C 0.2012 0.75315 0.26911 0.0
C1036 C 0.2198 0.70117 0.25159 0.0
C1037 C 0.20427 0.78266 0.26848 0.0
C1038 C 0.18949 0.57224 0.25299 0.0
C1039 C 0.20191 0.6045 0.25389 0.0
C1040 C 0.20067 0.66592 0.27457 0.0
C1041 C 0.22339 0.74739 0.26323 0.0
C1042 C 0.21836 0.71523 0.26327 0.0
C1043 C 0.18853 0.61704 0.2623 0.0
C1044 C 0.20061 0.65132 0.26277 0.0
H1045 H 0.27254 0.82051 0.25152 0.0
H1046 H 0.2667 0.76821 0.25235 0.0
H1047 H 0.20831 0.7078 0.28398 0.0
H1048 H 0.13039 0.54893 0.27502 0.0
H1049 H 0.15141 0.60508 0.27637 0.0
C1050 C 0.48945 0.60041 0.26104 0.0
C1051 C 0.50075 0.63249 0.25928 0.0
C1052 C 0.45767 0.57879 0.25972 0.0
C1053 C 0.37945 0.57036 0.26106 0.0
H1054 H 0.35503 0.49221 0.24341 0.0
C1055 C 0.24939 0.47138 0.25472 0.0
C1056 C 0.24382 0.441 0.25706 0.0
C1057 C 0.28007 0.49666 0.25397 0.0
C1058 C 0.36141 0.51382 0.24845 0.0
H1059 H 0.48705 0.66674 0.25463 0.0
H1060 H 0.43146 0.62891 0.25254 0.0
H1061 H 0.40977 0.53249 0.24409 0.0
H1062 H 0.26647 0.41374 0.26064 0.0
H1063 H 0.31907 0.45724 0.25948 0.0
H1064 H 0.33097 0.55124 0.26565 0.0
C1065 C 0.44734 0.62063 0.25501 0.0
C1066 C 0.39284 0.53693 0.24884 0.0
C1067 C 0.47923 0.64231 0.25624 0.0
C1068 C 0.2696 0.43664 0.25872 0.0
C1069 C 0.29998 0.46168 0.25796 0.0
C1070 C 0.34789 0.5471 0.26071 0.0
C1071 C 0.4362 0.58858 0.25668 0.0
C1072 C 0.40237 0.56523 0.25537 0.0
C1073 C 0.30574 0.492 0.25548 0.0
C1074 C 0.33858 0.51825 0.25465 0.0
H1075 H 0.50509 0.59194 0.26366 0.0
H1076 H 0.44983 0.55434 0.26132 0.0
H1077 H 0.38603 0.59187 0.26622 0.0
H1078 H 0.23011 0.47562 0.25341 0.0
H1079 H 0.2837 0.51974 0.25202 0.0
C1080 C 0.85295 0.60502 0.78568 0.0
C1081 C 0.82335 0.60121 0.78311 0.0
C1082 C 0.85838 0.5802 0.78426 0.0
C1083 C 0.82138 0.4947 0.78189 0.0
H1084 H 0.90045 0.51584 0.76579 0.0
C1085 C 0.85969 0.40354 0.7702 0.0
C1086 C 0.89024 0.41216 0.77414 0.0
C1087 C 0.84934 0.42518 0.77049 0.0
C1088 C 0.87835 0.50958 0.77034 0.0
H1089 H 0.77582 0.56784 0.77755 0.0
H1090 H 0.78546 0.52408 0.77496 0.0
H1091 H 0.8856 0.55558 0.768 0.0
H1092 H 0.93358 0.4504 0.78166 0.0
H1093 H 0.91579 0.48808 0.78185 0.0
H1094 H 0.81438 0.44854 0.78423 0.0
C1095 C 0.8044 0.54647 0.77812 0.0
C1096 C 0.86984 0.53235 0.77165 0.0
C1097 C 0.79888 0.57149 0.77961 0.0
C1098 C 0.91018 0.44302 0.77826 0.0
C1099 C 0.89994 0.46464 0.77843 0.0
C1100 C 0.82988 0.47176 0.78052 0.0
C1101 C 0.83446 0.55082 0.78014 0.0
C1102 C 0.84163 0.52544 0.77772 0.0
C1103 C 0.8694 0.45597 0.77459 0.0
C1104 C 0.85879 0.4792 0.77499 0.0
H1105 H 0.87224 0.62745 0.78861 0.0
H1106 H 0.88157 0.58416 0.78628 0.0
H1107 H 0.79954 0.48865 0.78663 0.0
H1108 H 0.84379 0.38012 0.7668 0.0
H1109 H 0.82578 0.41792 0.76735 0.0
C1110 C 0.6036 0.48012 0.77262 0.0
C1111 C 0.63432 0.4922 0.77713 0.0
C1112 C 0.58359 0.44793 0.77161 0.0
C1113 C 0.56992 0.37277 0.78452 0.0
H1114 H 0.51358 0.33964 0.75495 0.0
C1115 C 0.4755 0.24099 0.77912 0.0
C1116 C 0.44582 0.23605 0.77572 0.0
C1117 C 0.50176 0.27107 0.7785 0.0
C1118 C 0.52914 0.34851 0.76329 0.0
H1119 H 0.66804 0.47988 0.78422 0.0
H1120 H 0.63304 0.42354 0.78239 0.0
H1121 H 0.55324 0.39469 0.75539 0.0
H1122 H 0.42072 0.25889 0.7688 0.0
H1123 H 0.4659 0.31053 0.7678 0.0
H1124 H 0.54511 0.32656 0.79255 0.0
C1125 C 0.62448 0.43904 0.77966 0.0
C1126 C 0.55181 0.38008 0.76355 0.0
C1127 C 0.64459 0.4713 0.78058 0.0
C1128 C 0.4431 0.26165 0.77154 0.0
C1129 C 0.46915 0.29139 0.77084 0.0
C1130 C 0.54711 0.34108 0.78427 0.0
C1131 C 0.59374 0.427 0.77514 0.0
C1132 C 0.57195 0.39277 0.77431 0.0
C1133 C 0.49879 0.29656 0.7743 0.0
C1134 C 0.52593 0.32882 0.7738 0.0
H1135 H 0.59504 0.49557 0.76978 0.0
H1136 H 0.55993 0.43943 0.76826 0.0
H1137 H 0.58501 0.38187 0.79298 0.0
H1138 H 0.4784 0.22177 0.78236 0.0
H1139 H 0.52436 0.27437 0.78121 0.0
C1140 C 0.57109 0.1788 0.77799 0.0
C1141 C 0.54925 0.14673 0.77699 0.0
C1142 C 0.60313 0.18934 0.77848 0.0
C1143 C 0.65786 0.16206 0.78703 0.0
H1144 H 0.71872 0.23364 0.76729 0.0
C1145 C 0.78162 0.1846 0.7792 0.0
C1146 C 0.80699 0.21526 0.77985 0.0
C1147 C 0.75104 0.17879 0.77936 0.0
C1148 C 0.70207 0.2139 0.77302 0.0
H1149 H 0.54425 0.10082 0.77513 0.0
H1150 H 0.5999 0.11914 0.77606 0.0
H1151 H 0.6635 0.21852 0.76627 0.0
H1152 H 0.81982 0.26396 0.78108 0.0
H1153 H 0.76594 0.25368 0.78144 0.0
H1154 H 0.69608 0.15721 0.79374 0.0
C1155 C 0.59225 0.13611 0.77671 0.0
C1156 C 0.67043 0.2052 0.77241 0.0
C1157 C 0.56031 0.12559 0.77618 0.0
C1158 C 0.80087 0.24007 0.7806 0.0
C1159 C 0.77002 0.23419 0.78074 0.0
C1160 C 0.68934 0.17078 0.78766 0.0
C1161 C 0.61404 0.16806 0.77803 0.0
C1162 C 0.64791 0.17878 0.77921 0.0
C1163 C 0.74475 0.2034 0.78021 0.0
C1164 C 0.71179 0.1964 0.78046 0.0
H1165 H 0.56343 0.19572 0.7788 0.0
H1166 H 0.6193 0.21408 0.77959 0.0
H1167 H 0.64123 0.14208 0.79265 0.0
H1168 H 0.78523 0.16481 0.77852 0.0
H1169 H 0.73224 0.15484 0.77865 0.0
C1170 C 0.11914 0.24198 0.59963 0.0
C1171 C 0.08783 0.22276 0.59595 0.0
C1172 C 0.13951 0.23018 0.60014 0.0
C1173 C 0.15166 0.16757 0.58723 0.0
H1174 H 0.2134 0.19512 0.6149 0.0
C1175 C 0.24763 0.13161 0.59104 0.0
C1176 C 0.27775 0.15701 0.59326 0.0
C1177 C 0.2214 0.13539 0.59208 0.0
C1178 C 0.1963 0.1872 0.6071 0.0
H1179 H 0.05345 0.176 0.58984 0.0
H1180 H 0.08904 0.1553 0.59086 0.0
H1181 H 0.17334 0.2099 0.61545 0.0
H1182 H 0.30369 0.20623 0.59838 0.0
H1183 H 0.25856 0.21255 0.60014 0.0
H1184 H 0.17525 0.14539 0.57877 0.0
C1185 C 0.09781 0.17956 0.5933 0.0
C1186 C 0.17341 0.19576 0.60739 0.0
C1187 C 0.07736 0.19136 0.59284 0.0
C1188 C 0.28097 0.18605 0.59658 0.0
C1189 C 0.25498 0.1897 0.59771 0.0
C1190 C 0.17465 0.15895 0.58695 0.0
C1191 C 0.12915 0.19884 0.59697 0.0
C1192 C 0.1513 0.18678 0.59729 0.0
C1193 C 0.22488 0.16449 0.59553 0.0
C1194 C 0.19773 0.16942 0.5967 0.0
H1195 H 0.12792 0.26618 0.6022 0.0
H1196 H 0.1636 0.24581 0.60283 0.0
H1197 H 0.13504 0.16035 0.57927 0.0
H1198 H 0.24433 0.10894 0.58848 0.0
H1199 H 0.19843 0.11553 0.59035 0.0
C1200 C 0.86314 0.90597 0.59164 0.0
C1201 C 0.83352 0.88502 0.59677 0.0
C1202 C 0.87415 0.93813 0.59148 0.0
C1203 C 0.86099 0.99802 0.60726 0.0
H1204 H 0.90378 0.04864 0.57702 0.0
C1205 C 0.86955 0.11574 0.59803 0.0
C1206 C 0.89813 0.14121 0.59399 0.0
C1207 C 0.86546 0.08582 0.59869 0.0
C1208 C 0.89229 0.03489 0.58561 0.0
H1209 H 0.79241 0.88172 0.60584 0.0
H1210 H 0.81113 0.93737 0.60525 0.0
H1211 H 0.88894 0.99346 0.57742 0.0
H1212 H 0.94486 0.15496 0.58739 0.0
H1213 H 0.93743 0.10204 0.58839 0.0
H1214 H 0.86353 0.03908 0.6153 0.0
C1215 C 0.82613 0.92909 0.60151 0.0
C1216 C 0.88376 1.00327 0.58585 0.0
C1217 C 0.81516 0.89704 0.60167 0.0
C1218 C 0.92256 0.13587 0.59054 0.0
C1219 C 0.91829 0.10561 0.59107 0.0
C1220 C 0.86935 0.02944 0.60699 0.0
C1221 C 0.85584 0.95011 0.5965 0.0
C1222 C 0.86738 0.98429 0.59657 0.0
C1223 C 0.88971 0.08033 0.59526 0.0
C1224 C 0.88448 0.04808 0.59606 0.0
H1225 H 0.87779 0.89753 0.58765 0.0
H1226 H 0.89719 0.95362 0.58761 0.0
H1227 H 0.84917 0.98437 0.61583 0.0
H1228 H 0.85016 0.1188 0.6008 0.0
H1229 H 0.84302 0.06681 0.60176 0.0
C1230 C 0.16586 0.93195 0.59788 0.0
C1231 C 0.17658 0.96391 0.5962 0.0
C1232 C 0.13396 0.91031 0.59784 0.0
C1233 C 0.05591 0.90136 0.60193 0.0
H1234 H 0.02958 0.82551 0.5821 0.0
C1235 C 0.92543 0.80666 0.5943 0.0
C1236 C 0.91867 0.7756 0.59551 0.0
C1237 C 0.95646 0.83117 0.59409 0.0
C1238 C 0.03653 0.84643 0.58778 0.0
H1239 H 0.16201 0.99818 0.59335 0.0
H1240 H 0.10622 0.9603 0.59339 0.0
H1241 H 0.08451 0.86519 0.58273 0.0
H1242 H 0.93926 0.74606 0.59766 0.0
H1243 H 0.99275 0.78842 0.59743 0.0
H1244 H 1.00778 0.88226 0.60709 0.0
C1245 C 0.12258 0.95209 0.59482 0.0
C1246 C 0.06804 0.86917 0.58815 0.0
C1247 C 0.15455 0.97377 0.59483 0.0
C1248 C 0.9435 0.76963 0.5966 0.0
C1249 C 0.9743 0.79397 0.59639 0.0
C1250 C 0.02427 0.87848 0.6016 0.0
C1251 C 0.11197 0.92007 0.59613 0.0
C1252 C 0.07818 0.89669 0.59538 0.0
C1253 C 0.98123 0.82501 0.59504 0.0
C1254 C 0.01432 0.85054 0.59467 0.0
H1255 H 0.18214 0.92361 0.59922 0.0
H1256 H 0.1265 0.88585 0.59914 0.0
H1257 H 0.06303 0.92229 0.60763 0.0
H1258 H 0.90684 0.81206 0.59347 0.0
H1259 H 0.96105 0.85484 0.59298 0.0
C1260 C 0.48853 0.98354 0.06791 0.0
C1261 C 0.49574 0.01057 0.07499 0.0
C1262 C 0.49729 0.98537 0.05482 0.0
C1263 C 0.54158 0.04097 0.02752 0.0
H1264 H 0.47494 0.97722 1.0065 0.0
C1265 C 0.51535 0.05945 0.97461 0.0
C1266 C 0.5038 0.03472 0.96562 0.0
C1267 C 0.52207 0.05538 0.98746 0.0
C1268 C 0.49414 0.99486 1.01218 0.0
H1269 H 0.51867 0.06085 0.07418 0.0
H1270 H 0.53334 0.06432 0.05114 0.0
H1271 H 0.47254 0.97269 0.03013 0.0
H1272 H 0.49143 0.98659 0.96282 0.0
H1273 H 0.50271 0.97907 0.98558 0.0
H1274 H 0.5621 0.06395 1.00941 0.0
C1275 C 0.52172 0.04159 0.05574 0.0
C1276 C 0.49284 0.9923 0.02582 0.0
C1277 C 0.51344 0.03972 0.06898 0.0
C1278 C 0.50059 1.0061 0.96955 0.0
C1279 C 0.5068 1.00178 0.98258 0.0
C1280 C 0.54272 0.04366 1.01386 0.0
C1281 C 0.51267 0.0143 0.04833 0.0
C1282 C 0.51622 0.01561 0.03374 0.0
C1283 C 0.51689 0.02623 0.99176 0.0
C1284 C 0.51866 0.02095 1.00603 0.0
H1285 H 0.47469 0.96076 0.07235 0.0
H1286 H 0.49071 0.96389 0.04965 0.0
H1287 H 0.56033 0.05912 0.0332 0.0
H1288 H 0.51795 0.08176 0.97183 0.0
H1289 H 0.52945 0.0746 0.99424 0.0
C1290 C 0.98857 0.46911 0.97544 0.0
C1291 C 1.00958 0.48694 0.96554 0.0
C1292 C 0.99192 0.48061 0.9881 0.0
C1293 C 0.05263 0.53499 1.01053 0.0
H1294 H 0.98196 0.5013 0.03414 0.0
C1295 C 0.06218 0.50115 0.06256 0.0
C1296 C 0.04278 0.50079 0.07263 0.0
C1297 C 0.05946 0.50985 0.04991 0.0
C1298 C 1.00206 0.51161 0.02775 0.0
H1299 H 0.04983 0.53167 0.96097 0.0
H1300 H 0.05588 0.55227 0.98337 0.0
H1301 H 0.97331 0.49903 1.01067 0.0
H1302 H 1.00598 0.51053 0.07745 0.0
H1303 H 1.00106 0.52603 0.05507 0.0
H1304 H 0.08138 0.54759 0.0276 0.0
C1305 C 0.03682 0.52906 0.98127 0.0
C1306 C 0.99709 0.50991 1.01422 0.0
C1307 C 0.03331 0.51743 0.96843 0.0
C1308 C 0.02119 0.51055 0.06986 0.0
C1309 C 0.01835 0.51927 0.05704 0.0
C1310 C 0.05763 0.5371 0.02405 0.0
C1311 C 0.01646 0.51046 0.99134 0.0
C1312 C 0.02219 0.51995 1.00542 0.0
C1313 C 0.03724 0.51861 0.04685 0.0
C1314 C 0.03234 0.52383 0.03284 0.0
H1315 H 0.96991 0.44555 0.97352 0.0
H1316 H 0.9761 0.4652 0.9955 0.0
H1317 H 0.07262 0.54317 1.00413 0.0
H1318 H 0.07915 0.49386 0.06436 0.0
H1319 H 0.07399 0.50826 0.0424 0.0
C1320 C 0.53166 0.54363 0.97308 0.0
C1321 C 0.55854 0.54289 0.96937 0.0
C1322 C 0.52079 0.53658 0.98602 0.0
C1323 C 0.52871 0.50197 1.01726 0.0
H1324 H 0.52312 0.56939 0.03369 0.0
C1325 C 0.5553 0.53281 0.07205 0.0
C1326 C 0.54274 0.54931 0.07821 0.0
C1327 C 0.54822 0.52386 0.05891 0.0
C1328 C 0.52375 0.54981 0.02933 0.0
H1329 H 0.5938 0.53219 0.97583 0.0
H1330 H 0.57457 0.5192 0.9981 0.0
H1331 H 0.52546 0.56745 1.01005 0.0
H1332 H 0.51141 0.56751 0.07599 0.0
H1333 H 0.49744 0.55029 0.05343 0.0
H1334 H 0.52776 0.48468 0.03655 0.0
C1335 C 0.56186 0.52533 0.99122 0.0
C1336 C 0.52513 0.54877 1.0157 0.0
C1337 C 0.57299 0.53294 0.97846 0.0
C1338 C 0.52118 0.55457 0.07143 0.0
C1339 C 0.51362 0.54513 0.05842 0.0
C1340 C 0.52703 0.50281 0.03091 0.0
C1341 C 0.53627 0.52802 0.99531 0.0
C1342 C 0.52856 0.52539 1.0095 0.0
C1343 C 0.52822 0.53105 0.05175 0.0
C1344 C 0.52543 0.52726 0.03719 0.0
H1345 H 0.52028 0.55148 0.96625 0.0
H1346 H 0.50093 0.53876 0.98889 0.0
H1347 H 0.53106 0.48346 1.01276 0.0
H1348 H 0.57253 0.52914 0.07703 0.0
H1349 H 0.5602 0.51333 0.05416 0.0
C1350 C 0.16276 0.32775 0.39986 0.0
C1351 C 0.16372 0.35306 0.40642 0.0
C1352 C 0.17247 0.33062 0.38686 0.0
C1353 C 0.20949 0.3873 0.35923 0.0
H1354 H 0.15021 0.31712 0.33833 0.0
C1355 C 0.17918 0.3988 0.30627 0.0
C1356 C 0.17159 0.37471 0.29723 0.0
C1357 C 0.18645 0.39605 0.31918 0.0
C1358 C 0.16746 0.33667 0.34399 0.0
H1359 H 0.17641 0.40149 0.40482 0.0
H1360 H 0.19305 0.40669 0.38201 0.0
H1361 H 0.1483 0.31311 0.36202 0.0
H1362 H 0.16685 0.32924 0.29445 0.0
H1363 H 0.17917 0.324 0.31735 0.0
H1364 H 0.22752 0.41132 0.34109 0.0
C1365 C 0.1856 0.38472 0.38693 0.0
C1366 C 0.1664 0.33442 0.35764 0.0
C1367 C 0.17619 0.38187 0.40003 0.0
C1368 C 0.17278 0.3482 0.30123 0.0
C1369 C 0.17962 0.34518 0.31433 0.0
C1370 C 0.21044 0.38959 0.34556 0.0
C1371 C 0.1827 0.35874 0.38001 0.0
C1372 C 0.18688 0.35996 0.36548 0.0
C1373 C 0.18594 0.36889 0.32351 0.0
C1374 C 0.18887 0.36459 0.33778 0.0
H1375 H 0.15281 0.30517 0.40458 0.0
H1376 H 0.17054 0.31031 0.382 0.0
H1377 H 0.22603 0.40725 0.36489 0.0
H1378 H 0.17847 0.41954 0.30344 0.0
H1379 H 0.19078 0.4146 0.32596 0.0
C1380 C 0.68558 0.83642 0.40734 0.0
C1381 C 0.7111 0.83346 0.41134 0.0
C1382 C 0.68295 0.84338 0.39423 0.0
C1383 C 0.72706 0.87159 0.36288 0.0
H1384 H 0.64871 0.81207 0.3468 0.0
C1385 C 0.71476 0.84149 0.30755 0.0
C1386 C 0.68564 0.83094 0.30159 0.0
C1387 C 0.71871 0.8488 0.32093 0.0
C1388 C 0.67059 0.82943 0.35107 0.0
H1389 H 0.75473 0.83741 0.40513 0.0
H1390 H 0.75052 0.85003 0.38256 0.0
H1391 H 0.65364 0.81372 0.37044 0.0
H1392 H 0.63867 0.8222 0.30455 0.0
H1393 H 0.6458 0.83619 0.32759 0.0
H1394 H 0.74424 0.88688 0.34348 0.0
C1395 C 0.73244 0.84693 0.38935 0.0
C1396 C 0.67336 0.83034 0.3647 0.0
C1397 C 0.73476 0.83951 0.4023 0.0
C1398 C 0.6613 0.82998 0.30896 0.0
C1399 C 0.66533 0.8377 0.32222 0.0
C1400 C 0.72424 0.87084 0.34923 0.0
C1401 C 0.70612 0.84807 0.38503 0.0
C1402 C 0.70183 0.85091 0.37077 0.0
C1403 C 0.69368 0.84604 0.32854 0.0
C1404 C 0.69614 0.84929 0.34311 0.0
H1405 H 0.66694 0.83167 0.41412 0.0
H1406 H 0.66244 0.84425 0.3912 0.0
H1407 H 0.74925 0.88794 0.36726 0.0
H1408 H 0.73385 0.84224 0.30208 0.0
H1409 H 0.74086 0.85496 0.32543 0.0
C1410 C 0.24492 0.86807 0.30764 0.0
C1411 C 0.22773 0.87557 0.29893 0.0
C1412 C 0.23489 0.85906 0.32044 0.0
C1413 C 0.19195 0.87241 0.34602 0.0
H1414 H 0.20983 0.81584 0.36546 0.0
C1415 C 0.1908 0.87308 0.40208 0.0
C1416 C 0.2175 0.87522 0.40787 0.0
C1417 C 0.18323 0.86352 0.38907 0.0
C1418 C 0.20467 0.83171 0.3602 0.0
H1419 H 0.18575 0.87829 0.29658 0.0
H1420 H 0.16808 0.86281 0.3193 0.0
H1421 H 0.21142 0.8161 0.34161 0.0
H1422 H 0.25668 0.86815 0.40489 0.0
H1423 H 0.24362 0.85132 0.38215 0.0
H1424 H 0.18659 0.88906 0.36455 0.0
C1425 C 0.1894 0.86383 0.31611 0.0
C1426 C 0.20549 0.83182 0.34651 0.0
C1427 C 0.19932 0.87246 0.3031 0.0
C1428 C 0.23549 0.86583 0.40072 0.0
C1429 C 0.22801 0.85634 0.38767 0.0
C1430 C 0.19113 0.87232 0.35971 0.0
C1431 C 0.20748 0.85764 0.325 0.0
C1432 C 0.20018 0.85291 0.33926 0.0
C1433 C 0.20251 0.85634 0.3815 0.0
C1434 C 0.19842 0.85264 0.367 0.0
H1435 H 0.26691 0.87021 0.30467 0.0
H1436 H 0.24969 0.85494 0.32697 0.0
H1437 H 0.1881 0.88921 0.34079 0.0
H1438 H 0.17694 0.88082 0.40736 0.0
H1439 H 0.16315 0.86331 0.38474 0.0
C1440 C 0.8452 0.69722 0.73897 0.0
C1441 C 0.82289 0.66876 0.74449 0.0
C1442 C 0.85313 0.69867 0.72569 0.0
C1443 C 0.81626 0.65545 0.69529 0.0
H1444 H 0.89547 0.71266 0.67926 0.0
C1445 C 0.82783 0.66557 0.63921 0.0
C1446 C 0.84309 0.6963 0.63447 0.0
C1447 C 0.83012 0.65967 0.65247 0.0
C1448 C 0.87315 0.69657 0.68359 0.0
H1449 H 0.79344 0.6193 0.74099 0.0
H1450 H 0.80822 0.62146 0.71819 0.0
H1451 H 0.89168 0.70783 0.70308 0.0
H1452 H 0.87433 0.74465 0.63965 0.0
H1453 H 0.87806 0.73451 0.66261 0.0
H1454 H 0.7974 0.64481 0.67596 0.0
C1455 C 0.81886 0.64288 0.7238 0.0
C1456 C 0.871 0.69386 0.69725 0.0
C1457 C 0.81066 0.64155 0.73691 0.0
C1458 C 0.86213 0.7207 0.64303 0.0
C1459 C 0.86447 0.71485 0.65622 0.0
C1460 C 0.8184 0.65817 0.68169 0.0
C1461 C 0.83899 0.67162 0.71782 0.0
C1462 C 0.84241 0.67345 0.70329 0.0
C1463 C 0.84781 0.68438 0.66122 0.0
C1464 C 0.84674 0.67905 0.67563 0.0
H1465 H 0.85458 0.71857 0.7446 0.0
H1466 H 0.86869 0.72123 0.72142 0.0
H1467 H 0.79365 0.63999 0.69955 0.0
H1468 H 0.81309 0.6463 0.63282 0.0
H1469 H 0.81736 0.63584 0.65594 0.0
C1470 C 0.37323 0.18726 0.63404 0.0
C1471 C 0.34921 0.15737 0.63053 0.0
C1472 C 0.37611 0.19753 0.64709 0.0
C1473 C 0.33412 0.17614 0.67955 0.0
H1474 H 0.41716 0.20988 0.69392 0.0
C1475 C 0.35486 0.17421 0.73556 0.0
C1476 C 0.37521 0.16303 0.73855 0.0
C1477 C 0.3529 0.18319 0.72267 0.0
C1478 C 0.39376 0.20051 0.69009 0.0
H1479 H 0.30836 0.11575 0.63764 0.0
H1480 H 0.31334 0.13317 0.65997 0.0
H1481 H 0.41009 0.20767 0.67034 0.0
H1482 H 0.41025 0.15369 0.73053 0.0
H1483 H 0.40668 0.16872 0.70848 0.0
H1484 H 0.31758 0.16665 0.69929 0.0
C1485 C 0.32994 0.14907 0.6529 0.0
C1486 C 0.38975 0.19966 0.67651 0.0
C1487 C 0.32726 0.13887 0.64004 0.0
C1488 C 0.39422 0.16211 0.72859 0.0
C1489 C 0.39244 0.17114 0.71588 0.0
C1490 C 0.3381 0.1767 0.69314 0.0
C1491 C 0.3548 0.1782 0.65676 0.0
C1492 C 0.35973 0.18611 0.67102 0.0
C1493 C 0.37154 0.18147 0.71262 0.0
C1494 C 0.36786 0.18756 0.69857 0.0
H1495 H 0.3905 0.20197 0.62691 0.0
H1496 H 0.39544 0.22022 0.64967 0.0
H1497 H 0.31067 0.16631 0.67572 0.0
H1498 H 0.33993 0.17517 0.74305 0.0
H1499 H 0.33658 0.19113 0.72054 0.0
C1500 C 0.87184 0.21179 0.63558 0.0
C1501 C 0.89951 0.21247 0.63197 0.0
C1502 C 0.861 0.20466 0.64853 0.0
C1503 C 0.86981 0.17112 0.6798 0.0
H1504 H 0.86012 0.23617 0.69621 0.0
C1505 C 0.89063 0.19907 0.73508 0.0
C1506 C 0.87684 0.21462 0.74106 0.0
C1507 C 0.88511 0.19095 0.7218 0.0
C1508 C 0.86189 0.21721 0.69186 0.0
H1509 H 0.93635 0.20435 0.63868 0.0
H1510 H 0.91716 0.19122 0.66097 0.0
H1511 H 0.86402 0.23519 0.6726 0.0
H1512 H 0.84492 0.23196 0.73834 0.0
H1513 H 0.83352 0.21601 0.71555 0.0
H1514 H 0.86822 0.15337 0.69906 0.0
C1515 C 0.90385 0.19632 0.65398 0.0
C1516 C 0.86419 0.21675 0.67824 0.0
C1517 C 0.91495 0.20403 0.64122 0.0
C1518 C 0.85565 0.21975 0.73392 0.0
C1519 C 0.84957 0.21107 0.72078 0.0
C1520 C 0.86713 0.17133 0.69344 0.0
C1521 C 0.87728 0.19742 0.65793 0.0
C1522 C 0.86905 0.19425 0.67207 0.0
C1523 C 0.8654 0.19797 0.71432 0.0
C1524 C 0.86398 0.19489 0.69972 0.0
H1525 H 0.85965 0.21841 0.62864 0.0
H1526 H 0.84039 0.20562 0.65128 0.0
H1527 H 0.87328 0.15329 0.67531 0.0
H1528 H 0.90762 0.19553 0.74034 0.0
H1529 H 0.89801 0.18118 0.71724 0.0
C1530 C 0.25879 0.88845 0.21578 0.0
C1531 C 0.26165 0.90808 0.22624 0.0
C1532 C 0.28164 0.89887 0.20595 0.0
C1533 C 0.36455 0.95707 0.19962 0.0
H1534 H 0.34133 0.94289 0.16301 0.0
C1535 C 0.45546 0.98911 0.15776 0.0
C1536 C 0.45169 1.00407 0.14681 0.0
C1537 C 0.43234 0.97626 0.16746 0.0
C1538 C 0.34822 0.94708 0.17319 0.0
H1539 H 0.29028 0.95432 0.23438 0.0
H1540 H 0.33017 0.97222 0.21744 0.0
H1541 H 0.30072 0.92247 0.1798 0.0
H1542 H 0.42102 0.0179 0.13763 0.0
H1543 H 0.3806 0.99512 0.15437 0.0
H1544 H 0.41202 0.98184 0.19303 0.0
C1545 C 0.31052 0.9487 0.21685 0.0
C1546 C 0.32493 0.93513 0.18282 0.0
C1547 C 0.28755 0.93846 0.22654 0.0
C1548 C 0.42448 1.00618 0.14586 0.0
C1549 C 0.40123 0.993 0.15544 0.0
C1550 C 0.38784 0.96867 0.19 0.0
C1551 C 0.30799 0.92905 0.20644 0.0
C1552 C 0.33276 0.94028 0.19616 0.0
C1553 C 0.40479 0.97783 0.16638 0.0
C1554 C 0.38 0.96416 0.17665 0.0
H1555 H 0.23906 0.86496 0.21525 0.0
H1556 H 0.27899 0.88309 0.19809 0.0
H1557 H 0.37146 0.96122 0.2098 0.0
H1558 H 0.4762 0.98719 0.1588 0.0
H1559 H 0.43581 0.96464 0.17573 0.0
C1560 C 0.05942 0.4879 0.15607 0.0
C1561 C 0.04335 0.46827 0.14549 0.0
C1562 C 0.07271 0.47812 0.16581 0.0
C1563 C 0.10077 0.42234 0.17174 0.0
H1564 H 0.08967 0.43373 0.20841 0.0
C1565 C 0.1583 0.38886 0.21396 0.0
C1566 C 0.13859 0.37281 0.22451 0.0
C1567 C 0.14857 0.40213 0.20419 0.0
C1568 C 0.09299 0.43037 0.19821 0.0
H1569 H 0.02782 0.42268 0.13705 0.0
H1570 H 0.05117 0.40587 0.15385 0.0
H1571 H 0.06907 0.45406 0.19175 0.0
H1572 H 0.09291 0.3572 0.23284 0.0
H1573 H 0.07621 0.38053 0.216 0.0
H1574 H 0.12435 0.3983 0.1782 0.0
C1575 C 0.05391 0.42893 0.15459 0.0
C1576 C 0.08141 0.44227 0.18866 0.0
C1577 C 0.04036 0.43852 0.145 0.0
C1578 C 0.1088 0.36974 0.22492 0.0
C1579 C 0.09928 0.38329 0.2153 0.0
C1580 C 0.11267 0.41075 0.18129 0.0
C1581 C 0.07041 0.44861 0.1651 0.0
C1582 C 0.0847 0.43798 0.1753 0.0
C1583 C 0.11905 0.39982 0.20484 0.0
C1584 C 0.10849 0.41416 0.19465 0.0
H1585 H 0.06202 0.51091 0.15674 0.0
H1586 H 0.08529 0.49388 0.17377 0.0
H1587 H 0.10404 0.41892 0.16154 0.0
H1588 H 0.18134 0.39152 0.21336 0.0
H1589 H 0.16438 0.41473 0.19626 0.0
C1590 C 0.64517 0.76501 0.22868 0.0
C1591 C 0.67686 0.78803 0.22932 0.0
C1592 C 0.63406 0.74241 0.21881 0.0
C1593 C 0.66042 0.70533 0.19402 0.0
H1594 H 0.57721 0.67442 0.18005 0.0
C1595 C 0.61398 0.62293 0.14909 0.0
C1596 C 0.58306 0.59805 0.14953 0.0
C1597 C 0.62546 0.64612 0.15873 0.0
C1598 C 0.60038 0.68254 0.18393 0.0
H1599 H 0.72165 0.80582 0.21987 0.0
H1600 H 0.70222 0.76685 0.20237 0.0
H1601 H 0.5974 0.71538 0.19656 0.0
H1602 H 0.53995 0.57791 0.16048 0.0
H1603 H 0.55993 0.61849 0.17737 0.0
H1604 H 0.66342 0.67266 0.18123 0.0
C1605 C 0.68597 0.76575 0.2097 0.0
C1606 C 0.61202 0.70609 0.19344 0.0
C1607 C 0.69713 0.7883 0.21967 0.0
C1608 C 0.56386 0.59682 0.15987 0.0
C1609 C 0.57528 0.62019 0.16949 0.0
C1610 C 0.64884 0.68192 0.18444 0.0
C1611 C 0.65425 0.74234 0.20915 0.0
C1612 C 0.64218 0.71778 0.1987 0.0
C1613 C 0.60628 0.64515 0.16906 0.0
C1614 C 0.61861 0.67011 0.17929 0.0
H1615 H 0.62886 0.7642 0.23593 0.0
H1616 H 0.60964 0.72463 0.21892 0.0
H1617 H 0.6835 0.7132 0.19794 0.0
H1618 H 0.62938 0.62451 0.14125 0.0
H1619 H 0.64929 0.6651 0.15798 0.0
C1620 C 0.99258 0.45221 0.88214 0.0
C1621 C 1.00822 0.44886 0.89294 0.0
C1622 C 0.98038 0.42937 0.87229 0.0
C1623 C 0.97331 0.38592 0.84939 0.0
H1624 H 0.93232 0.29871 0.85939 0.0
C1625 C 0.94455 0.28713 0.81205 0.0
C1626 C 0.91545 0.25965 0.81305 0.0
C1627 C 0.95464 0.31021 0.82171 0.0
C1628 C 0.94349 0.32292 0.85642 0.0
H1629 H 0.02403 0.41934 0.9017 0.0
H1630 H 1.00267 0.37958 0.88467 0.0
H1631 H 0.95183 0.33902 0.87625 0.0
H1632 H 0.87442 0.23453 0.82514 0.0
H1633 H 0.89216 0.2747 0.84215 0.0
H1634 H 0.96502 0.36981 0.82955 0.0
C1635 C 0.99939 0.39955 0.88384 0.0
C1636 C 0.95497 0.34609 0.86609 0.0
C1637 C 1.01179 0.42246 0.89358 0.0
C1638 C 0.89692 0.25547 0.82409 0.0
C1639 C 0.90715 0.27848 0.83384 0.0
C1640 C 0.96207 0.36276 0.83971 0.0
C1641 C 0.9834 0.40259 0.87307 0.0
C1642 C 0.9702 0.37792 0.86272 0.0
C1643 C 0.93608 0.30626 0.83274 0.0
C1644 C 0.94715 0.33093 0.84308 0.0
H1645 H 0.98951 0.47232 0.88136 0.0
H1646 H 0.96808 0.43242 0.86418 0.0
H1647 H 0.98506 0.41016 0.84642 0.0
H1648 H 0.95957 0.29089 0.80374 0.0
H1649 H 0.97725 0.331 0.82063 0.0
C1650 C 0.59581 0.55534 0.88719 0.0
C1651 C 0.59714 0.57568 0.89706 0.0
C1652 C 0.61865 0.56595 0.87735 0.0
C1653 C 0.67831 0.63874 0.86113 0.0
H1654 H 0.7126 0.58792 0.84908 0.0
C1655 C 0.75907 0.67352 0.81611 0.0
C1656 C 0.78491 0.66903 0.81662 0.0
C1657 C 0.73626 0.66149 0.82586 0.0
C1658 C 0.70343 0.60251 0.85239 0.0
H1659 H 0.62321 0.6231 0.90429 0.0
H1660 H 0.66286 0.64149 0.88729 0.0
H1661 H 0.67258 0.56803 0.86611 0.0
H1662 H 0.8072 0.64852 0.82784 0.0
H1663 H 0.76739 0.62762 0.84504 0.0
H1664 H 0.70932 0.67337 0.84762 0.0
C1665 C 0.6442 0.61743 0.88701 0.0
C1666 C 0.68019 0.59094 0.86206 0.0
C1667 C 0.62152 0.60683 0.89681 0.0
C1668 C 0.78753 0.65233 0.82718 0.0
C1669 C 0.76458 0.64016 0.83697 0.0
C1670 C 0.70137 0.65021 0.85146 0.0
C1671 C 0.64313 0.5972 0.87711 0.0
C1672 C 0.66738 0.60896 0.8666 0.0
C1673 C 0.73865 0.64467 0.83646 0.0
C1674 C 0.71429 0.6323 0.84694 0.0
H1675 H 0.57727 0.53121 0.88712 0.0
H1676 H 0.61688 0.54977 0.86983 0.0
H1677 H 0.66883 0.6532 0.86425 0.0
H1678 H 0.75636 0.68627 0.80809 0.0
H1679 H 0.71648 0.66508 0.825 0.0
C1680 C 0.37235 0.10492 0.81193 0.0
C1681 C 0.37711 0.13541 0.81187 0.0
C1682 C 0.38479 0.09497 0.82188 0.0
C1683 C 0.41253 0.1099 0.85599 0.0
H1684 H 0.45183 0.06169 0.84669 0.0
C1685 C 0.43923 0.03938 0.89404 0.0
C1686 C 0.46818 0.04062 0.89324 0.0
C1687 C 0.42963 0.05256 0.88425 0.0
C1688 C 0.44113 0.07529 0.84947 0.0
H1689 H 0.39784 0.17903 0.82251 0.0
H1690 H 0.41917 0.16141 0.84012 0.0
H1691 H 0.43257 0.08207 0.82951 0.0
H1692 H 0.50942 0.05607 0.88133 0.0
H1693 H 0.49244 0.07867 0.86407 0.0
H1694 H 0.42083 0.10282 0.87595 0.0
C1695 C 0.40604 0.14532 0.83234 0.0
C1696 C 0.42983 0.08676 0.83961 0.0
C1697 C 0.39387 0.15545 0.82225 0.0
C1698 C 0.48704 0.0548 0.88226 0.0
C1699 C 0.47725 0.06769 0.87235 0.0
C1700 C 0.42351 0.0981 0.86585 0.0
C1701 C 0.40193 0.11502 0.8322 0.0
C1702 C 0.41519 0.10405 0.84273 0.0
C1703 C 0.44848 0.06691 0.87326 0.0
C1704 C 0.43781 0.08048 0.86273 0.0
H1705 H 0.35923 0.08875 0.80417 0.0
H1706 H 0.38068 0.07134 0.82155 0.0
H1707 H 0.40126 0.12296 0.85875 0.0
H1708 H 0.42396 0.02829 0.90231 0.0
H1709 H 0.40714 0.05106 0.8852 0.0
C1710 C 0.95819 0.27642 0.55925 0.0
C1711 C 0.93306 0.24563 0.55925 0.0
C1712 C 0.98041 0.28711 0.54926 0.0
C1713 C 0.99438 0.26987 0.51531 0.0
H1714 H 0.08088 0.32673 0.52427 0.0
C1715 C 0.09517 0.30644 0.47812 0.0
C1716 C 0.11888 0.33793 0.478 0.0
C1717 C 0.07239 0.29498 0.48791 0.0
C1718 C 0.0568 0.31114 0.52156 0.0
H1719 H 0.91127 0.20198 0.54864 0.0
H1720 H 0.95035 0.22046 0.53118 0.0
H1721 H 0.04148 0.30661 0.54139 0.0
H1722 H 0.13765 0.38194 0.48823 0.0
H1723 H 0.09798 0.36195 0.50543 0.0
H1724 H 1.0099 0.27425 0.49546 0.0
C1725 C 0.95274 0.23653 0.53886 0.0
C1726 C 0.03411 0.29957 0.5314 0.0
C1727 C 0.93037 0.22584 0.54889 0.0
C1728 C 0.11965 0.3576 0.48805 0.0
C1729 C 0.09696 0.34607 0.49792 0.0
C1730 C 0.01713 0.28134 0.50547 0.0
C1731 C 0.97822 0.26731 0.53895 0.0
C1732 C 1.0025 0.2789 0.52843 0.0
C1733 C 0.07293 0.31461 0.49796 0.0
C1734 C 0.04865 0.30226 0.50845 0.0
H1735 H 0.96077 0.29235 0.56704 0.0
H1736 H 0.9992 0.31111 0.54958 0.0
H1737 H 0.9703 0.25439 0.51257 0.0
H1738 H 0.09421 0.29055 0.47062 0.0
H1739 H 0.0546 0.27056 0.48771 0.0
C1740 C 0.69869 0.76941 0.48416 0.0
C1741 C 0.70691 0.80099 0.4838 0.0
C1742 C 0.71052 0.75823 0.49386 0.0
C1743 C 0.74854 0.77692 0.52663 0.0
H1744 H 0.76977 0.71404 0.51707 0.0
C1745 C 0.81426 0.73784 0.56186 0.0
C1746 C 0.80412 0.7058 0.56258 0.0
C1747 C 0.80254 0.74947 0.55229 0.0
C1748 C 0.76366 0.73134 0.51996 0.0
H1749 H 0.73363 0.84556 0.49347 0.0
H1750 H 0.75474 0.82619 0.51042 0.0
H1751 H 0.74969 0.73485 0.50052 0.0
H1752 H 0.77411 0.66089 0.55363 0.0
H1753 H 0.75368 0.6812 0.53679 0.0
H1754 H 0.76288 0.77357 0.54606 0.0
C1755 C 0.73882 0.80991 0.50326 0.0
C1756 C 0.75207 0.74331 0.51045 0.0
C1757 C 0.72682 0.8211 0.49353 0.0
C1758 C 0.78238 0.68569 0.55332 0.0
C1759 C 0.77077 0.69738 0.54366 0.0
C1760 C 0.76029 0.76505 0.53613 0.0
C1761 C 0.73103 0.77832 0.50349 0.0
C1762 C 0.74417 0.76618 0.51364 0.0
C1763 C 0.78054 0.72943 0.54308 0.0
C1764 C 0.76793 0.74202 0.53294 0.0
H1765 H 0.68319 0.75325 0.47685 0.0
H1766 H 0.70336 0.73369 0.49382 0.0
H1767 H 0.74233 0.79412 0.52955 0.0
H1768 H 0.83125 0.75403 0.56877 0.0
H1769 H 0.81101 0.77431 0.55204 0.0
C1770 C 0.26957 0.9284 0.48877 0.0
C1771 C 0.24977 0.92776 0.47878 0.0
C1772 C 0.28102 0.95198 0.4983 0.0
C1773 C 0.29419 0.0318 0.50497 0.0
H1774 H 0.30027 0.01118 0.54099 0.0
C1775 C 0.327 0.12178 0.54741 0.0
C1776 C 0.34581 0.12092 0.55752 0.0
C1777 C 0.31499 0.09853 0.53771 0.0
C1778 C 0.29915 0.01755 0.53096 0.0
H1779 H 0.22585 0.95096 0.47118 0.0
H1780 H 0.24583 0.99209 0.48766 0.0
H1781 H 0.28045 0.9704 0.52444 0.0
H1782 H 0.36735 0.0954 0.56517 0.0
H1783 H 0.34698 0.0554 0.54829 0.0
H1784 H 0.31306 0.07902 0.5115 0.0
C1785 C 0.25301 0.97473 0.48808 0.0
C1786 C 0.28772 0.99403 0.52143 0.0
C1787 C 0.24146 0.95108 0.47862 0.0
C1788 C 0.35272 0.09663 0.55758 0.0
C1789 C 0.34079 0.07349 0.54792 0.0
C1790 C 0.30573 0.05537 0.51451 0.0
C1791 C 0.27297 0.97557 0.49809 0.0
C1792 C 0.28513 1.00078 0.50828 0.0
C1793 C 0.32156 0.07389 0.53786 0.0
C1794 C 0.30853 0.04866 0.52766 0.0
H1795 H 0.27639 0.91077 0.48917 0.0
H1796 H 0.29657 0.95196 0.50575 0.0
H1797 H 0.29295 0.03806 0.49494 0.0
H1798 H 0.32122 0.14017 0.54711 0.0
H1799 H 0.30007 0.09958 0.53022 0.0
C1800 C 0.48826 0.3245 0.11641 0.0
C1801 C 0.51488 0.35062 0.11129 0.0
C1802 C 0.48285 0.29432 0.11421 0.0
C1803 C 0.52425 0.25191 0.1068 0.0
H1804 H 0.4415 0.18245 0.09968 0.0
C1805 C 0.50537 0.12895 0.09824 0.0
C1806 C 0.47909 0.10369 0.104 0.0
C1807 C 0.50818 0.15844 0.09762 0.0
C1808 C 0.46471 0.2015 0.10179 0.0
H1809 H 0.55641 0.36535 0.09962 0.0
H1810 H 0.54698 0.31254 0.09576 0.0
H1811 H 0.44955 0.23518 0.10139 0.0
H1812 H 0.4346 0.08944 0.11321 0.0
H1813 H 0.43974 0.14115 0.1124 0.0
H1814 H 0.53941 0.21845 0.10758 0.0
C1815 C 0.53037 0.3155 0.10156 0.0
C1816 C 0.46934 0.23177 0.10274 0.0
C1817 C 0.53565 0.34574 0.10367 0.0
C1818 C 0.45505 0.10836 0.10864 0.0
C1819 C 0.45802 0.13806 0.10815 0.0
C1820 C 0.51961 0.22169 0.10594 0.0
C1821 C 0.50401 0.28942 0.10689 0.0
C1822 C 0.49916 0.25735 0.10529 0.0
C1823 C 0.48499 0.16369 0.1029 0.0
C1824 C 0.48977 0.19599 0.10345 0.0
H1825 H 0.47157 0.3274 0.12218 0.0
H1826 H 0.46246 0.27484 0.11855 0.0
H1827 H 0.54741 0.27095 0.10901 0.0
H1828 H 0.52418 0.12611 0.09441 0.0
H1829 H 0.52887 0.17727 0.09316 0.0
C1830 C 0.70505 0.21006 0.10123 0.0
C1831 C 0.69879 0.18378 0.10874 0.0
C1832 C 0.7358 0.23449 0.09954 0.0
C1833 C 0.81477 0.26772 0.11454 0.0
H1834 H 0.84197 0.31602 0.08256 0.0
C1835 C 0.94278 0.3653 0.1071 0.0
C1836 C 0.9467 0.39381 0.10251 0.0
C1837 C 0.9134 0.33818 0.10669 0.0
C1838 C 0.83469 0.3028 0.09157 0.0
H1839 H 0.72 0.16182 0.11976 0.0
H1840 H 0.77336 0.20381 0.1166 0.0
H1841 H 0.78897 0.27172 0.08408 0.0
H1842 H 0.92303 0.41573 0.09328 0.0
H1843 H 0.87213 0.36856 0.09247 0.0
H1844 H 0.86048 0.29879 0.12201 0.0
C1845 C 0.75464 0.20623 0.11236 0.0
C1846 C 0.80423 0.27745 0.09247 0.0
C1847 C 0.72399 0.18203 0.11414 0.0
C1848 C 0.92089 0.39422 0.09695 0.0
C1849 C 0.89167 0.3671 0.09642 0.0
C1850 C 0.84525 0.29287 0.11359 0.0
C1851 C 0.76103 0.23306 0.10521 0.0
C1852 C 0.79375 0.25965 0.10401 0.0
C1853 C 0.88738 0.33888 0.10153 0.0
C1854 C 0.85554 0.31088 0.10214 0.0
H1855 H 0.68612 0.21215 0.097 0.0
H1856 H 0.73966 0.25487 0.09409 0.0
H1857 H 0.80751 0.25509 0.12369 0.0
H1858 H 0.9621 0.36414 0.11147 0.0
H1859 H 0.91094 0.31672 0.11057 0.0
C1860 C 0.65067 0.53865 0.10295 0.0
C1861 C 0.65257 0.56722 0.10607 0.0
C1862 C 0.67759 0.53657 0.10146 0.0
C1863 C 0.76039 0.57557 0.11121 0.0
H1864 H 0.76407 0.51966 0.08569 0.0
C1865 C 0.86958 0.56251 0.10527 0.0
C1866 C 0.86441 0.53202 0.10377 0.0
C1867 C 0.84481 0.56845 0.1046 0.0
C1868 C 0.76332 0.53519 0.09294 0.0
H1869 H 0.6846 0.61627 0.10973 0.0
H1870 H 0.73181 0.61269 0.107 0.0
H1871 H 0.71952 0.52796 0.08583 0.0
H1872 H 0.829 0.48397 0.10015 0.0
H1873 H 0.7857 0.49426 0.09911 0.0
H1874 H 0.80406 0.58254 0.1184 0.0
C1875 C 0.7093 0.59179 0.10586 0.0
C1876 C 0.73778 0.53999 0.09302 0.0
C1877 C 0.68224 0.5939 0.10732 0.0
C1878 C 0.83381 0.50768 0.10143 0.0
C1879 C 0.80903 0.51365 0.10071 0.0
C1880 C 0.78598 0.57081 0.11112 0.0
C1881 C 0.70729 0.56299 0.10304 0.0
C1882 C 0.73575 0.55993 0.10227 0.0
C1883 C 0.81417 0.54409 0.10237 0.0
C1884 C 0.78761 0.55027 0.10208 0.0
H1885 H 0.62829 0.51755 0.10188 0.0
H1886 H 0.67503 0.51393 0.09947 0.0
H1887 H 0.75945 0.59073 0.1186 0.0
H1888 H 0.89275 0.58178 0.10727 0.0
H1889 H 0.84969 0.5922 0.10581 0.0
C1890 C 0.3466 0.53054 0.94273 0.0
C1891 C 0.3524 0.5105 0.93503 0.0
C1892 C 0.31616 0.52519 0.94419 0.0
C1893 C 0.23277 0.46456 0.94096 0.0
H1894 H 0.22013 0.53504 0.93608 0.0
C1895 C 0.1103 0.45072 0.93245 0.0
C1896 C 0.10502 0.4744 0.93706 0.0
C1897 C 0.13993 0.45371 0.93354 0.0
C1898 C 0.22314 0.51511 0.93771 0.0
H1899 H 0.3306 0.46839 0.9233 0.0
H1900 H 0.27768 0.45912 0.92583 0.0
H1901 H 0.27273 0.54308 0.93581 0.0
H1902 H 0.12617 0.51882 0.94719 0.0
H1903 H 0.17717 0.52351 0.94949 0.0
H1904 H 0.18315 0.43656 0.94288 0.0
C1905 C 0.29659 0.479 0.93072 0.0
C1906 C 0.25342 0.51977 0.93753 0.0
C1907 C 0.32698 0.48451 0.92916 0.0
C1908 C 0.12953 0.50031 0.94337 0.0
C1909 C 0.15893 0.50313 0.94459 0.0
C1910 C 0.20244 0.45991 0.94125 0.0
C1911 C 0.29081 0.49946 0.93812 0.0
C1912 C 0.25863 0.49455 0.93905 0.0
C1913 C 0.16485 0.48031 0.93939 0.0
C1914 C 0.19717 0.48511 0.93956 0.0
H1915 H 0.36568 0.5508 0.94735 0.0
H1916 H 0.31246 0.54124 0.95006 0.0
H1917 H 0.23601 0.44467 0.9423 0.0
H1918 H 0.09196 0.43055 0.92747 0.0
H1919 H 0.14356 0.43574 0.92932 0.0
C1920 C 0.51235 0.83406 0.94096 0.0
C1921 C 0.53204 0.85936 0.93292 0.0
C1922 C 0.518 0.80926 0.94287 0.0
C1923 C 0.57905 0.78699 0.9404 0.0
H1924 H 0.50903 0.70317 0.9365 0.0
C1925 C 0.59429 0.67853 0.93431 0.0
C1926 C 0.57075 0.64979 0.93919 0.0
C1927 C 0.59092 0.70503 0.9348 0.0
C1928 C 0.52885 0.72633 0.93787 0.0
H1929 H 0.57384 0.87904 0.92104 0.0
H1930 H 0.58366 0.83592 0.92436 0.0
H1931 H 0.50049 0.74737 0.93537 0.0
H1932 H 0.52614 0.62682 0.94915 0.0
H1933 H 0.52082 0.6729 0.95043 0.0
H1934 H 0.60744 0.76598 0.94296 0.0
C1935 C 0.56381 0.83514 0.92917 0.0
C1936 C 0.52389 0.75173 0.93719 0.0
C1937 C 0.558 0.85971 0.92716 0.0
C1938 C 0.54456 0.6485 0.94514 0.0
C1939 C 0.54138 0.67496 0.94577 0.0
C1940 C 0.584 0.76153 0.94121 0.0
C1941 C 0.5437 0.80941 0.93692 0.0
C1942 C 0.54893 0.7824 0.93835 0.0
C1943 C 0.56408 0.70344 0.94031 0.0
C1944 C 0.55897 0.73079 0.93989 0.0
H1945 H 0.49214 0.83305 0.94551 0.0
H1946 H 0.5022 0.78991 0.94899 0.0
H1947 H 0.59882 0.81032 0.94146 0.0
H1948 H 0.61466 0.68026 0.92959 0.0
H1949 H 0.60883 0.72641 0.93039 0.0
C1950 C 0.39458 0.91673 0.9421 0.0
C1951 C 0.39418 0.94251 0.93651 0.0
C1952 C 0.36729 0.88775 0.94296 0.0
C1953 C 0.29227 0.84128 0.92648 0.0
H1954 H 0.27217 0.78614 0.95631 0.0
C1955 C 0.18197 0.71968 0.92662 0.0
C1956 C 0.18412 0.69481 0.93212 0.0
C1957 C 0.20595 0.75047 0.92829 0.0
C1958 C 0.2776 0.80108 0.94784 0.0
H1959 H 0.36444 0.9582 0.92785 0.0
H1960 H 0.31665 0.90735 0.92929 0.0
H1961 H 0.31655 0.83918 0.95744 0.0
H1962 H 0.21292 0.68282 0.94392 0.0
H1963 H 0.25532 0.73661 0.94661 0.0
H1964 H 0.25418 0.80316 0.91667 0.0
C1965 C 0.33824 0.90968 0.93296 0.0
C1966 C 0.30297 0.83156 0.94852 0.0
C1967 C 0.36556 0.93886 0.93224 0.0
C1968 C 0.21054 0.70151 0.93962 0.0
C1969 C 0.23478 0.7324 0.94118 0.0
C1970 C 0.26711 0.81078 0.92575 0.0
C1971 C 0.3389 0.88367 0.93814 0.0
C1972 C 0.3107 0.85198 0.93782 0.0
C1973 C 0.23298 0.75731 0.9354 0.0
C1974 C 0.25944 0.79014 0.9364 0.0
H1975 H 0.4162 0.91872 0.94554 0.0
H1976 H 0.3687 0.8682 0.94691 0.0
H1977 H 0.29792 0.8562 0.91798 0.0
H1978 H 0.16162 0.71531 0.921 0.0
H1979 H 0.20324 0.76894 0.92396 0.0
C1980 C 0.14277 0.65069 0.45164 0.0
C1981 C 0.17126 0.67653 0.44772 0.0
C1982 C 0.1375 0.62026 0.45038 0.0
C1983 C 0.16573 0.57365 0.43269 0.0
H1984 H 0.12364 0.51326 0.46031 0.0
C1985 C 0.16956 0.45963 0.4362 0.0
C1986 C 0.14306 0.43214 0.4405 0.0
C1987 C 0.17029 0.48817 0.43633 0.0
C1988 C 0.13498 0.52966 0.4524 0.0
H1989 H 0.21671 0.69031 0.43953 0.0
H1990 H 0.20756 0.63735 0.43734 0.0
H1991 H 0.13079 0.56558 0.46223 0.0
H1992 H 0.0962 0.41326 0.44809 0.0
H1993 H 0.09742 0.46341 0.44828 0.0
H1994 H 0.17026 0.53791 0.42293 0.0
C1995 C 0.18905 0.64059 0.44122 0.0
C1996 C 0.13916 0.55974 0.45351 0.0
C1997 C 0.19433 0.67104 0.44249 0.0
C1998 C 0.11695 0.43392 0.44468 0.0
C1999 C 0.11776 0.46271 0.44489 0.0
C2000 C 0.16156 0.54363 0.43159 0.0
C2001 C 0.16054 0.61476 0.44513 0.0
C2002 C 0.15494 0.58228 0.44374 0.0
C2003 C 0.14457 0.49025 0.44079 0.0
C2004 C 0.14651 0.52133 0.4415 0.0
H2005 H 0.1242 0.65389 0.45548 0.0
H2006 H 0.1151 0.60099 0.45331 0.0
H2007 H 0.17737 0.59011 0.42484 0.0
H2008 H 0.19014 0.45929 0.43287 0.0
H2009 H 0.19149 0.50884 0.43327 0.0
C2010 C 0.58134 0.72919 0.4409 0.0
C2011 C 0.60861 0.72769 0.44315 0.0
C2012 C 0.55224 0.70202 0.44011 0.0
C2013 C 0.5107 0.61931 0.45019 0.0
H2014 H 0.44796 0.61312 0.42572 0.0
C2015 C 0.3914 0.50629 0.44431 0.0
C2016 C 0.3648 0.50936 0.44283 0.0
C2017 C 0.42134 0.53245 0.44392 0.0
C2018 C 0.46509 0.61459 0.43271 0.0
H2019 H 0.62647 0.69609 0.44607 0.0
H2020 H 0.57559 0.64858 0.44457 0.0
H2021 H 0.49998 0.65903 0.4254 0.0
H2022 H 0.34906 0.54259 0.43971 0.0
H2023 H 0.40132 0.58833 0.43923 0.0
H2024 H 0.47575 0.57496 0.45756 0.0
C2025 C 0.57679 0.67093 0.44358 0.0
C2026 C 0.49497 0.64092 0.43252 0.0
C2027 C 0.60602 0.69818 0.44434 0.0
C2028 C 0.36898 0.53936 0.44097 0.0
C2029 C 0.39898 0.56556 0.44055 0.0
C2030 C 0.48081 0.59297 0.45038 0.0
C2031 C 0.54949 0.67252 0.44155 0.0
C2032 C 0.51813 0.64374 0.44131 0.0
C2033 C 0.42556 0.56245 0.44204 0.0
C2034 C 0.45755 0.59033 0.44169 0.0
H2035 H 0.5823 0.75143 0.43992 0.0
H2036 H 0.53175 0.70424 0.43871 0.0
H2037 H 0.52774 0.62088 0.45725 0.0
H2038 H 0.38911 0.48362 0.44593 0.0
H2039 H 0.44123 0.52909 0.44498 0.0
C2040 C 0.53284 0.89362 0.45191 0.0
C2041 C 0.53189 0.86738 0.44612 0.0
C2042 C 0.50758 0.89872 0.45077 0.0
C2043 C 0.4229 0.857 0.44467 0.0
H2044 H 0.43485 0.93955 0.43839 0.0
C2045 C 0.31823 0.87354 0.43495 0.0
C2046 C 0.31761 0.89876 0.44094 0.0
C2047 C 0.34542 0.8717 0.43486 0.0
C2048 C 0.43112 0.91641 0.44029 0.0
H2049 H 0.50359 0.82607 0.43449 0.0
H2050 H 0.45953 0.83503 0.43243 0.0
H2051 H 0.4801 0.93221 0.4396 0.0
H2052 H 0.34552 0.94254 0.45109 0.0
H2053 H 0.39326 0.93911 0.45115 0.0
H2054 H 0.37414 0.84114 0.44557 0.0
C2055 C 0.47979 0.85156 0.43795 0.0
C2056 C 0.45706 0.91219 0.44096 0.0
C2057 C 0.50515 0.84655 0.43903 0.0
C2058 C 0.3453 0.92286 0.44637 0.0
C2059 C 0.37263 0.92087 0.44639 0.0
C2060 C 0.39706 0.86122 0.44406 0.0
C2061 C 0.48063 0.87763 0.44386 0.0
C2062 C 0.45322 0.88238 0.44309 0.0
C2063 C 0.37279 0.89486 0.44088 0.0
C2064 C 0.40074 0.89092 0.44176 0.0
H2065 H 0.55325 0.91041 0.45728 0.0
H2066 H 0.50894 0.91889 0.45553 0.0
H2067 H 0.4191 0.83385 0.4466 0.0
H2068 H 0.29744 0.85482 0.43047 0.0
H2069 H 0.34482 0.85181 0.43017 0.0
C2070 C 0.80055 0.84031 0.26877 0.0
C2071 C 0.77232 0.81232 0.26667 0.0
C2072 C 0.82905 0.8411 0.26838 0.0
C2073 C 0.86749 0.79435 0.27121 0.0
H2074 H 0.93396 0.86443 0.25269 0.0
C2075 C 0.99115 0.80977 0.26363 0.0
C2076 C 0.01682 0.84025 0.26466 0.0
C2077 C 0.96055 0.80439 0.26384 0.0
C2078 C 0.91582 0.8449 0.25803 0.0
H2079 H 0.75215 0.76286 0.26289 0.0
H2080 H 0.80251 0.76425 0.26227 0.0
H2081 H 0.88185 0.85771 0.25293 0.0
H2082 H 0.03012 0.88881 0.26717 0.0
H2083 H 0.97694 0.87948 0.26756 0.0
H2084 H 0.90177 0.7818 0.27644 0.0
C2085 C 0.80223 0.7856 0.2642 0.0
C2086 C 0.88586 0.84097 0.25813 0.0
C2087 C 0.77341 0.78481 0.26454 0.0
C2088 C 1.01101 0.86511 0.26613 0.0
C2089 C 0.98045 0.85974 0.26633 0.0
C2090 C 0.89762 0.79832 0.27114 0.0
C2091 C 0.8304 0.81395 0.26589 0.0
C2092 C 0.86142 0.81599 0.26491 0.0
C2093 C 0.95479 0.82934 0.26505 0.0
C2094 C 0.9223 0.82398 0.26472 0.0
H2095 H 0.80087 0.86201 0.27059 0.0
H2096 H 0.85018 0.86318 0.27002 0.0
H2097 H 0.84922 0.77496 0.27658 0.0
H2098 H 0.99467 0.79006 0.26229 0.0
H2099 H 0.94143 0.78073 0.26269 0.0
C2100 C 0.20456 0.97906 0.27133 0.0
C2101 C 0.23342 0.98122 0.26858 0.0
C2102 C 0.20209 1.00584 0.27244 0.0
C2103 C 0.24119 0.08848 0.26236 0.0
H2104 H 0.18444 0.09277 0.28723 0.0
C2105 C 0.2296 0.19847 0.26763 0.0
C2106 C 0.19921 0.19376 0.26872 0.0
C2107 C 0.23501 0.1734 0.26855 0.0
C2108 C 0.20019 0.09183 0.28016 0.0
H2109 H 0.28252 0.01359 0.26518 0.0
H2110 H 0.27824 0.06046 0.26728 0.0
H2111 H 0.19239 0.04798 0.28746 0.0
H2112 H 0.15076 0.15888 0.27188 0.0
H2113 H 0.16016 0.11503 0.27335 0.0
H2114 H 0.24881 0.13222 0.255 0.0
C2115 C 0.25742 0.03789 0.26839 0.0
C2116 C 0.20478 0.06615 0.28029 0.0
C2117 C 0.25992 0.011 0.26728 0.0
C2118 C 0.17442 0.16333 0.27092 0.0
C2119 C 0.17986 0.13823 0.27188 0.0
C2120 C 0.23665 0.11419 0.26225 0.0
C2121 C 0.22838 0.03563 0.27086 0.0
C2122 C 0.2251 0.06396 0.27131 0.0
C2123 C 0.21021 0.14292 0.2706 0.0
C2124 C 0.21588 0.11607 0.27107 0.0
H2125 H 0.18358 0.95658 0.27238 0.0
H2126 H 0.17928 1.00311 0.27417 0.0
H2127 H 0.25662 0.0874 0.25517 0.0
H2128 H 0.24921 0.2215 0.26576 0.0
H2129 H 0.25871 0.17792 0.26764 0.0
C2130 C 0.87608 0.03728 0.26824 0.0
C2131 C 0.84704 0.03219 0.26372 0.0
C2132 C 0.90168 0.0676 0.26925 0.0
C2133 C 0.93157 0.14843 0.25703 0.0
H2134 H 0.98939 0.17078 0.28601 0.0
C2135 C 0.03473 0.27475 0.26394 0.0
C2136 C 0.06361 0.27758 0.26727 0.0
C2137 C 1.00721 0.24562 0.26442 0.0
C2138 C 0.97361 0.16491 0.27779 0.0
H2139 H 0.82217 0.05539 0.25712 0.0
H2140 H 0.86661 0.108 0.25887 0.0
H2141 H 0.94411 0.11843 0.28486 0.0
H2142 H 0.08579 0.25189 0.27417 0.0
H2143 H 0.03825 0.20159 0.27495 0.0
H2144 H 0.96123 0.19482 0.2499 0.0
C2145 C 0.86983 0.08855 0.26139 0.0
C2146 C 0.94763 0.1348 0.27712 0.0
C2147 C 0.84428 0.05828 0.26037 0.0
C2148 C 0.06406 0.25075 0.27152 0.0
C2149 C 0.03665 0.22178 0.27204 0.0
C2150 C 0.95756 0.17855 0.25771 0.0
C2151 C 0.89895 0.09368 0.2658 0.0
C2152 C 0.92634 0.12604 0.26668 0.0
C2153 C 1.00788 0.21865 0.26832 0.0
C2154 C 0.9791 0.18716 0.26804 0.0
H2155 H 0.87921 0.01779 0.27076 0.0
H2156 H 0.92381 0.07055 0.2725 0.0
H2157 H 0.91598 0.14249 0.24875 0.0
H2158 H 0.03346 0.29484 0.2606 0.0
H2159 H 0.98543 0.24419 0.26164 0.0
C2160 C 0.83869 0.79197 0.76843 0.0
C2161 C 0.81055 0.76557 0.77224 0.0
C2162 C 0.84079 0.82102 0.76707 0.0
C2163 C 0.80384 0.86552 0.77842 0.0
H2164 H 0.85699 0.92477 0.75215 0.0
C2165 C 0.81811 0.98852 0.77379 0.0
C2166 C 0.84865 0.01354 0.772 0.0
C2167 C 0.81155 0.95764 0.77275 0.0
C2168 C 0.84223 0.90858 0.7596 0.0
H2169 H 0.76221 0.74903 0.77719 0.0
H2170 H 0.76579 0.79986 0.77466 0.0
H2171 H 0.84796 0.87163 0.75184 0.0
H2172 H 0.89609 0.02554 0.76743 0.0
H2173 H 0.88471 0.97165 0.76573 0.0
H2174 H 0.79836 0.90259 0.78625 0.0
C2175 C 0.78638 0.79804 0.7729 0.0
C2176 C 0.83702 0.87807 0.75943 0.0
C2177 C 0.78424 0.76883 0.77425 0.0
C2178 C 0.87237 1.00686 0.76895 0.0
C2179 C 0.86577 0.97595 0.76785 0.0
C2180 C 0.80898 0.89601 0.77857 0.0
C2181 C 0.81483 0.8246 0.76946 0.0
C2182 C 0.81811 0.85624 0.76894 0.0
C2183 C 0.83532 0.95094 0.76985 0.0
C2184 C 0.82856 0.91805 0.76926 0.0
H2185 H 0.8595 0.79048 0.76678 0.0
H2186 H 0.86319 0.84092 0.76458 0.0
H2187 H 0.78953 0.84955 0.78602 0.0
H2188 H 0.79932 0.99275 0.77631 0.0
H2189 H 0.7878 0.93899 0.77423 0.0
C2190 C 0.24963 0.06042 0.76779 0.0
C2191 C 0.27654 0.05895 0.77095 0.0
C2192 C 0.22039 0.0334 0.76725 0.0
C2193 C 0.17718 0.95254 0.77962 0.0
H2194 H 0.11541 0.94438 0.75416 0.0
C2195 C 0.05474 0.84211 0.77654 0.0
C2196 C 0.02915 0.8467 0.7747 0.0
C2197 C 0.08534 0.86694 0.77533 0.0
C2198 C 0.13229 0.9464 0.76141 0.0
H2199 H 0.29364 0.02748 0.77571 0.0
H2200 H 0.24244 0.98011 0.77464 0.0
H2201 H 0.16822 0.98889 0.75305 0.0
H2202 H 0.0159 0.88116 0.76993 0.0
H2203 H 0.06927 0.92457 0.76796 0.0
H2204 H 0.14113 0.91015 0.78804 0.0
C2205 C 0.24405 1.00238 0.77273 0.0
C2206 C 0.16263 0.97194 0.76077 0.0
C2207 C 0.27346 0.02953 0.77325 0.0
C2208 C 0.03501 0.87679 0.7715 0.0
C2209 C 0.06564 0.90163 0.77024 0.0
C2210 C 0.14683 0.92695 0.78025 0.0
C2211 C 0.21708 1.00402 0.76984 0.0
C2212 C 0.18541 0.97557 0.76995 0.0
C2213 C 0.09123 0.89707 0.77221 0.0
C2214 C 0.12388 0.9237 0.77123 0.0
H2215 H 0.25094 0.08258 0.76595 0.0
H2216 H 0.2002 0.03572 0.76517 0.0
H2217 H 0.19392 0.95475 0.78697 0.0
H2218 H 0.05119 0.81938 0.77918 0.0
H2219 H 0.10442 0.86247 0.77679 0.0
C2220 C 0.17243 0.17834 0.7647 0.0
C2221 C 0.19841 0.19857 0.77233 0.0
C2222 C 0.14722 0.18353 0.76324 0.0
C2223 C 0.12445 0.24422 0.76628 0.0
H2224 H 0.04108 0.17362 0.77041 0.0
C2225 C 0.01514 0.25766 0.77353 0.0
C2226 C 0.98642 0.23399 0.76867 0.0
C2227 C 0.04191 0.25481 0.77273 0.0
C2228 C 0.06411 0.19359 0.76899 0.0
H2229 H 0.21869 0.24079 0.784 0.0
H2230 H 0.1748 0.24971 0.7815 0.0
H2231 H 0.08565 0.16561 0.77116 0.0
H2232 H 0.96378 0.18978 0.75837 0.0
H2233 H 1.01032 0.18535 0.75658 0.0
H2234 H 0.1029 0.27223 0.76409 0.0
C2235 C 0.17384 0.22982 0.77665 0.0
C2236 C 0.08974 0.18895 0.76945 0.0
C2237 C 0.19887 0.22449 0.7782 0.0
C2238 C 0.98545 0.20829 0.76237 0.0
C2239 C 1.01216 0.20561 0.76145 0.0
C2240 C 0.09876 0.24886 0.76572 0.0
C2241 C 0.14755 0.20927 0.76925 0.0
C2242 C 0.12026 0.2142 0.76818 0.0
C2243 C 0.04061 0.22835 0.76693 0.0
C2244 C 0.06819 0.22361 0.76712 0.0
H2245 H 0.17128 0.15812 0.76009 0.0
H2246 H 0.12746 0.16739 0.75737 0.0
H2247 H 0.14764 0.26415 0.76512 0.0
H2248 H 0.01664 0.27765 0.77852 0.0
H2249 H 0.06328 0.27274 0.77715 0.0
C2250 C 0.47349 0.17939 0.60322 0.0
C2251 C 0.44671 0.15061 0.60042 0.0
C2252 C 0.5026 0.18161 0.60461 0.0
C2253 C 0.54579 0.14187 0.59515 0.0
H2254 H 0.60645 0.19863 0.62022 0.0
C2255 C 0.66706 0.15304 0.60113 0.0
C2256 C 0.6928 0.1834 0.60226 0.0
C2257 C 0.63659 0.14771 0.60191 0.0
C2258 C 0.58987 0.18287 0.6131 0.0
H2259 H 0.4296 0.10137 0.59721 0.0
H2260 H 0.4805 0.10521 0.59977 0.0
H2261 H 0.55382 0.191 0.62008 0.0
H2262 H 0.70648 0.23189 0.6054 0.0
H2263 H 0.65327 0.22264 0.60661 0.0
H2264 H 0.58191 0.13396 0.5881 0.0
C2265 C 0.47894 0.12617 0.60073 0.0
C2266 C 0.55966 0.17845 0.61302 0.0
C2267 C 0.44971 0.12392 0.59935 0.0
C2268 C 0.68723 0.20825 0.60439 0.0
C2269 C 0.65671 0.20289 0.60522 0.0
C2270 C 0.57597 0.14623 0.59525 0.0
C2271 C 0.50582 0.15512 0.60324 0.0
C2272 C 0.53731 0.15815 0.60395 0.0
C2273 C 0.63099 0.17257 0.60387 0.0
C2274 C 0.5985 0.16701 0.60414 0.0
H2275 H 0.47219 0.2005 0.60412 0.0
H2276 H 0.52276 0.20436 0.60637 0.0
H2277 H 0.52938 0.12643 0.5879 0.0
H2278 H 0.67041 0.13338 0.59931 0.0
H2279 H 0.61737 0.12403 0.60096 0.0
C2280 C 0.88318 0.31754 0.60751 0.0
C2281 C 0.91014 0.31894 0.60231 0.0
C2282 C 0.88017 0.3441 0.60799 0.0
C2283 C 0.92345 0.43068 0.60545 0.0
H2284 H 0.84209 0.41763 0.59566 0.0
C2285 C 0.89223 0.52921 0.60821 0.0
C2286 C 0.87425 0.53095 0.59792 0.0
C2287 C 0.89714 0.50376 0.60927 0.0
C2288 C 0.86503 0.4218 0.59834 0.0
H2289 H 0.95566 0.3499 0.59402 0.0
H2290 H 0.95029 0.3964 0.59475 0.0
H2291 H 0.85066 0.37346 0.59659 0.0
H2292 H 0.8468 0.50669 0.58085 0.0
H2293 H 0.85575 0.46277 0.58256 0.0
H2294 H 0.93795 0.47928 0.60686 0.0
C2295 C 0.93154 0.37467 0.59856 0.0
C2296 C 0.86986 0.39633 0.59904 0.0
C2297 C 0.93463 0.34799 0.59813 0.0
C2298 C 0.86104 0.50637 0.58883 0.0
C2299 C 0.8659 0.48095 0.58989 0.0
C2300 C 0.9186 0.45623 0.60476 0.0
C2301 C 0.90394 0.37289 0.60323 0.0
C2302 C 0.89911 0.40035 0.60262 0.0
C2303 C 0.8841 0.4793 0.60011 0.0
C2304 C 0.88932 0.45214 0.60114 0.0
H2305 H 0.86395 0.29568 0.61097 0.0
H2306 H 0.85892 0.34193 0.61196 0.0
H2307 H 0.94622 0.43466 0.60832 0.0
H2308 H 0.90306 0.54784 0.61532 0.0
H2309 H 0.911 0.50316 0.61734 0.0
C2310 C 0.52069 0.39268 0.58787 0.0
C2311 C 0.52098 0.36814 0.59468 0.0
C2312 C 0.54484 0.42348 0.58943 0.0
C2313 C 0.61197 0.47495 0.61105 0.0
H2314 H 0.64077 0.52814 0.58041 0.0
C2315 C 0.73216 0.58695 0.60814 0.0
C2316 C 0.73476 0.61325 0.60169 0.0
C2317 C 0.70396 0.55874 0.60825 0.0
C2318 C 0.63271 0.51377 0.58911 0.0
H2319 H 0.54691 0.35689 0.60857 0.0
H2320 H 0.58943 0.41055 0.61115 0.0
H2321 H 0.59635 0.47544 0.57862 0.0
H2322 H 0.70946 0.63069 0.59056 0.0
H2323 H 0.65991 0.58097 0.59064 0.0
H2324 H 0.6491 0.51311 0.62141 0.0
C2325 C 0.57019 0.40611 0.60476 0.0
C2326 C 0.60718 0.48347 0.5881 0.0
C2327 C 0.54585 0.37527 0.60326 0.0
C2328 C 0.70815 0.61089 0.59566 0.0
C2329 C 0.67989 0.58238 0.59562 0.0
C2330 C 0.63764 0.50517 0.61203 0.0
C2331 C 0.57014 0.43067 0.5978 0.0
C2332 C 0.5966 0.46347 0.59903 0.0
C2333 C 0.6776 0.55588 0.60181 0.0
C2334 C 0.64854 0.52485 0.60104 0.0
H2335 H 0.50157 0.38809 0.58137 0.0
H2336 H 0.54352 0.44171 0.58412 0.0
H2337 H 0.6042 0.46059 0.61975 0.0
H2338 H 0.75217 0.58797 0.61293 0.0
H2339 H 0.70317 0.53879 0.613 0.0
loop_
_geom_bond_atom_site_label_1
_geom_bond_atom_site_label_2
_geom_bond_distance
_geom_bond_site_symmetry_2
_ccdc_geom_bond_type
C0 Eu1 2.835 . S
C0 C2 1.500 . S
C0 O20 1.257 . S
C0 O21 1.260 . S
Eu1 C0 2.835 . S
Eu1 O20 2.473 . S
Eu1 O21 2.480 . S
Eu1 O22 2.430 . S
Eu1 O23 2.670 1_565 S
Eu1 O24 2.394 . S
Eu1 O29 2.355 . S
Eu1 O31 2.374 1_565 S
C2 C0 1.500 . S
C2 C3 1.377 . S
C2 C7 1.377 . S
C3 C2 1.377 . S
C3 C4 1.395 . S
C3 H32 0.931 . S
C4 C3 1.395 . S
C4 C5 1.383 . S
C4 H33 0.931 . S
C5 C4 1.383 . S
C5 C6 1.394 . S
C6 C5 1.394 . S
C6 C7 1.378 . S
C6 H34 0.931 . S
C7 C2 1.377 . S
C7 C6 1.378 . S
C7 H35 0.931 . S
C8 O22 1.259 1_545 S
C8 O23 1.270 . S
C9 O24 1.251 . S
C9 O25 1.251 . S
C10 Eu11 2.835 . S
C10 C12 1.500 . S
C10 O26 1.257 . S
C10 O27 1.260 . S
Eu11 C10 2.835 . S
Eu11 O23 2.355 . S
Eu11 O25 2.374 1_545 S
Eu11 O26 2.473 . S
Eu11 O27 2.480 . S
Eu11 O28 2.430 . S
Eu11 O29 2.670 1_545 S
Eu11 O30 2.394 . S
C12 C10 1.500 . S
C12 C13 1.377 . S
C12 C17 1.377 . S
C13 C12 1.377 . S
C13 C14 1.395 . S
C13 H36 0.931 . S
C14 C13 1.395 . S
C14 C15 1.383 . S
C14 H37 0.931 . S
C15 C14 1.383 . S
C15 C16 1.394 . S
C16 C15 1.394 . S
C16 C17 1.378 . S
C16 H38 0.931 . S
C17 C12 1.377 . S
C17 C16 1.378 . S
C17 H39 0.931 . S
C18 O28 1.259 . S
C18 O29 1.270 1_545 S
C19 O30 1.251 . S
C19 O31 1.251 . S
O20 C0 1.257 . S
O20 Eu1 2.473 . S
O21 C0 1.260 . S
O21 Eu1 2.480 . S
O22 Eu1 2.430 . S
O22 C8 1.259 1_565 S
O23 Eu1 2.670 1_545 S
O23 C8 1.270 . S
O23 Eu11 2.355 . S
O24 Eu1 2.394 . S
O24 C9 1.251 . S
O25 C9 1.251 . S
O25 Eu11 2.374 1_565 S
O26 C10 1.257 . S
O26 Eu11 2.473 . S
O27 C10 1.260 . S
O27 Eu11 2.480 . S
O28 Eu11 2.430 . S
O28 C18 1.259 . S
O29 Eu1 2.355 . S
O29 Eu11 2.670 1_565 S
O29 C18 1.270 1_565 S
O30 Eu11 2.394 . S
O30 C19 1.251 . S
O31 Eu1 2.374 1_545 S
O31 C19 1.251 . S
H32 C3 0.931 . S
H33 C4 0.931 . S
H34 C6 0.931 . S
H35 C7 0.931 . S
H36 C13 0.931 . S
H37 C14 0.931 . S
H38 C16 0.931 . S
H39 C17 0.931 . S
C40 Eu41 2.835 . S
C40 C42 1.500 . S
C40 O60 1.257 . S
C40 O61 1.260 . S
Eu41 C40 2.835 . S
Eu41 O60 2.473 . S
Eu41 O61 2.480 . S
Eu41 O62 2.430 . S
Eu41 O63 2.670 . S
Eu41 O64 2.394 . S
Eu41 O69 2.355 . S
Eu41 O71 2.374 1_455 S
C42 C40 1.500 . S
C42 C43 1.377 . S
C42 C47 1.377 . S
C43 C42 1.377 . S
C43 C44 1.395 . S
C43 H72 0.931 . S
C44 C43 1.395 . S
C44 C45 1.383 . S
C44 H73 0.931 . S
C45 C44 1.383 . S
C45 C46 1.394 . S
C46 C45 1.394 . S
C46 C47 1.378 . S
C46 H74 0.931 . S
C47 C42 1.377 . S
C47 C46 1.378 . S
C47 H75 0.931 . S
C48 O62 1.259 . S
C48 O63 1.270 . S
C49 O64 1.251 . S
C49 O65 1.251 . S
C50 Eu51 2.843 . S
C50 C52 1.500 . S
C50 O66 1.257 . S
C50 O67 1.260 . S
Eu51 C50 2.843 . S
Eu51 O63 2.352 1_655 S
Eu51 O65 2.367 1_655 S
Eu51 O66 2.480 . S
Eu51 O67 2.487 . S
Eu51 O68 2.427 1_655 S
Eu51 O69 2.662 1_655 S
Eu51 O70 2.395 . S
C52 C50 1.500 . S
C52 C53 1.377 . S
C52 C57 1.377 . S
C53 C52 1.377 . S
C53 C54 1.395 . S
C53 H76 0.931 . S
C54 C53 1.395 . S
C54 C55 1.383 . S
C54 H77 0.931 . S
C55 C54 1.383 . S
C55 C56 1.394 . S
C56 C55 1.394 . S
C56 C57 1.378 . S
C56 H78 0.931 . S
C57 C52 1.377 . S
C57 C56 1.378 . S
C57 H79 0.931 . S
C58 O68 1.259 . S
C58 O69 1.270 . S
C59 O70 1.251 . S
C59 O71 1.251 . S
O60 C40 1.257 . S
O60 Eu41 2.473 . S
O61 C40 1.260 . S
O61 Eu41 2.480 . S
O62 Eu41 2.430 . S
O62 C48 1.259 . S
O63 Eu41 2.670 . S
O63 C48 1.270 . S
O63 Eu51 2.352 1_455 S
O64 Eu41 2.394 . S
O64 C49 1.251 . S
O65 C49 1.251 . S
O65 Eu51 2.367 1_455 S
O66 C50 1.257 . S
O66 Eu51 2.480 . S
O67 C50 1.260 . S
O67 Eu51 2.487 . S
O68 Eu51 2.427 1_455 S
O68 C58 1.259 . S
O69 Eu41 2.355 . S
O69 Eu51 2.662 1_455 S
O69 C58 1.270 . S
O70 Eu51 2.395 . S
O70 C59 1.251 . S
O71 Eu41 2.374 1_655 S
O71 C59 1.251 . S
H72 C43 0.931 . S
H73 C44 0.931 . S
H74 C46 0.931 . S
H75 C47 0.931 . S
H76 C53 0.931 . S
H77 C54 0.931 . S
H78 C56 0.931 . S
H79 C57 0.931 . S
C80 Eu81 2.835 . S
C80 C82 1.500 . S
C80 O100 1.257 . S
C80 O101 1.260 . S
Eu81 C80 2.835 . S
Eu81 O100 2.473 . S
Eu81 O101 2.480 . S
Eu81 O102 2.430 . S
Eu81 O103 2.670 . S
Eu81 O104 2.394 . S
Eu81 O109 2.355 . S
Eu81 O111 2.374 . S
C82 C80 1.500 . S
C82 C83 1.377 . S
C82 C87 1.377 . S
C83 C82 1.377 . S
C83 C84 1.395 . S
C83 H112 0.931 . S
C84 C83 1.395 . S
C84 C85 1.383 . S
C84 H113 0.931 . S
C85 C84 1.383 . S
C85 C86 1.394 . S
C86 C85 1.394 . S
C86 C87 1.378 . S
C86 H114 0.931 . S
C87 C82 1.377 . S
C87 C86 1.378 . S
C87 H115 0.931 . S
C88 O102 1.259 . S
C88 O103 1.270 . S
C89 O104 1.251 . S
C89 O105 1.251 . S
C90 Eu91 2.835 . S
C90 C92 1.500 . S
C90 O106 1.257 . S
C90 O107 1.260 . S
Eu91 C90 2.835 . S
Eu91 O103 2.355 . S
Eu91 O105 2.374 . S
Eu91 O106 2.473 . S
Eu91 O107 2.480 . S
Eu91 O108 2.430 . S
Eu91 O109 2.670 . S
Eu91 O110 2.394 . S
C92 C90 1.500 . S
C92 C93 1.377 . S
C92 C97 1.377 . S
C93 C92 1.377 . S
C93 C94 1.395 . S
C93 H116 0.931 . S
C94 C93 1.395 . S
C94 C95 1.383 . S
C94 H117 0.931 . S
C95 C94 1.383 . S
C95 C96 1.394 . S
C96 C95 1.394 . S
C96 C97 1.378 . S
C96 H118 0.931 . S
C97 C92 1.377 . S
C97 C96 1.378 . S
C97 H119 0.931 . S
C98 O108 1.259 . S
C98 O109 1.270 . S
C99 O110 1.251 . S
C99 O111 1.251 . S
O100 C80 1.257 . S
O100 Eu81 2.473 . S
O101 C80 1.260 . S
O101 Eu81 2.480 . S
O102 Eu81 2.430 . S
O102 C88 1.259 . S
O103 Eu81 2.670 . S
O103 C88 1.270 . S
O103 Eu91 2.355 . S
O104 Eu81 2.394 . S
O104 C89 1.251 . S
O105 C89 1.251 . S
O105 Eu91 2.374 . S
O106 C90 1.257 . S
O106 Eu91 2.473 . S
O107 C90 1.260 . S
O107 Eu91 2.480 . S
O108 Eu91 2.430 . S
O108 C98 1.259 . S
O109 Eu81 2.355 . S
O109 Eu91 2.670 . S
O109 C98 1.270 . S
O110 Eu91 2.394 . S
O110 C99 1.251 . S
O111 Eu81 2.374 . S
O111 C99 1.251 . S
H112 C83 0.931 . S
H113 C84 0.931 . S
H114 C86 0.931 . S
H115 C87 0.931 . S
H116 C93 0.931 . S
H117 C94 0.931 . S
H118 C96 0.931 . S
H119 C97 0.931 . S
C120 Eu121 2.835 . S
C120 C122 1.500 . S
C120 O140 1.257 . S
C120 O141 1.260 . S
Eu121 C120 2.835 . S
Eu121 O140 2.473 . S
Eu121 O141 2.480 . S
Eu121 O142 2.430 . S
Eu121 O143 2.670 1_655 S
Eu121 O144 2.394 . S
Eu121 O149 2.355 . S
Eu121 O151 2.374 1_655 S
C122 C120 1.500 . S
C122 C123 1.377 . S
C122 C127 1.377 . S
C123 C122 1.377 . S
C123 C124 1.395 . S
C123 H152 0.931 . S
C124 C123 1.395 . S
C124 C125 1.383 . S
C124 H153 0.931 . S
C125 C124 1.383 . S
C125 C126 1.394 . S
C126 C125 1.394 . S
C126 C127 1.378 . S
C126 H154 0.931 . S
C127 C122 1.377 . S
C127 C126 1.378 . S
C127 H155 0.931 . S
C128 O142 1.259 1_455 S
C128 O143 1.270 . S
C129 O144 1.251 . S
C129 O145 1.251 . S
C130 Eu131 2.835 . S
C130 C132 1.500 . S
C130 O146 1.257 . S
C130 O147 1.260 . S
Eu131 C130 2.835 . S
Eu131 O143 2.355 . S
Eu131 O145 2.374 1_455 S
Eu131 O146 2.473 . S
Eu131 O147 2.480 . S
Eu131 O148 2.430 . S
Eu131 O149 2.670 1_455 S
Eu131 O150 2.394 . S
C132 C130 1.500 . S
C132 C133 1.377 . S
C132 C137 1.377 . S
C133 C132 1.377 . S
C133 C134 1.395 . S
C133 H156 0.931 . S
C134 C133 1.395 . S
C134 C135 1.383 . S
C134 H157 0.931 . S
C135 C134 1.383 . S
C135 C136 1.394 . S
C136 C135 1.394 . S
C136 C137 1.378 . S
C136 H158 0.931 . S
C137 C132 1.377 . S
C137 C136 1.378 . S
C137 H159 0.931 . S
C138 O148 1.259 . S
C138 O149 1.270 1_455 S
C139 O150 1.251 . S
C139 O151 1.251 . S
O140 C120 1.257 . S
O140 Eu121 2.473 . S
O141 C120 1.260 . S
O141 Eu121 2.480 . S
O142 Eu121 2.430 . S
O142 C128 1.259 1_655 S
O143 Eu121 2.670 1_455 S
O143 C128 1.270 . S
O143 Eu131 2.355 . S
O144 Eu121 2.394 . S
O144 C129 1.251 . S
O145 C129 1.251 . S
O145 Eu131 2.374 1_655 S
O146 C130 1.257 . S
O146 Eu131 2.473 . S
O147 C130 1.260 . S
O147 Eu131 2.480 . S
O148 Eu131 2.430 . S
O148 C138 1.259 . S
O149 Eu121 2.355 . S
O149 Eu131 2.670 1_655 S
O149 C138 1.270 1_655 S
O150 Eu131 2.394 . S
O150 C139 1.251 . S
O151 Eu121 2.374 1_455 S
O151 C139 1.251 . S
H152 C123 0.931 . S
H153 C124 0.931 . S
H154 C126 0.931 . S
H155 C127 0.931 . S
H156 C133 0.931 . S
H157 C134 0.931 . S
H158 C136 0.931 . S
H159 C137 0.931 . S
C160 Eu161 2.835 . S
C160 C162 1.500 . S
C160 O180 1.257 . S
C160 O181 1.260 . S
Eu161 C160 2.835 . S
Eu161 O180 2.473 . S
Eu161 O181 2.480 . S
Eu161 O182 2.430 . S
Eu161 O183 2.670 . S
Eu161 O184 2.394 . S
Eu161 O189 2.355 . S
Eu161 O191 2.374 . S
C162 C160 1.500 . S
C162 C163 1.377 . S
C162 C167 1.377 . S
C163 C162 1.377 . S
C163 C164 1.395 . S
C163 H192 0.931 . S
C164 C163 1.395 . S
C164 C165 1.383 . S
C164 H193 0.931 . S
C165 C164 1.383 . S
C165 C166 1.394 . S
C166 C165 1.394 . S
C166 C167 1.378 . S
C166 H194 0.931 . S
C167 C162 1.377 . S
C167 C166 1.378 . S
C167 H195 0.931 . S
C168 O182 1.259 . S
C168 O183 1.270 . S
C169 O184 1.251 . S
C169 O185 1.251 . S
C170 Eu171 2.835 . S
C170 C172 1.500 . S
C170 O186 1.257 . S
C170 O187 1.260 . S
Eu171 C170 2.835 . S
Eu171 O183 2.355 . S
Eu171 O185 2.374 . S
Eu171 O186 2.473 . S
Eu171 O187 2.480 . S
Eu171 O188 2.430 . S
Eu171 O189 2.670 . S
Eu171 O190 2.394 . S
C172 C170 1.500 . S
C172 C173 1.377 . S
C172 C177 1.377 . S
C173 C172 1.377 . S
C173 C174 1.395 . S
C173 H196 0.931 . S
C174 C173 1.395 . S
C174 C175 1.383 . S
C174 H197 0.931 . S
C175 C174 1.383 . S
C175 C176 1.394 . S
C176 C175 1.394 . S
C176 C177 1.378 . S
C176 H198 0.931 . S
C177 C172 1.377 . S
C177 C176 1.378 . S
C177 H199 0.931 . S
C178 O188 1.259 . S
C178 O189 1.270 . S
C179 O190 1.251 . S
C179 O191 1.251 . S
O180 C160 1.257 . S
O180 Eu161 2.473 . S
O181 C160 1.260 . S
O181 Eu161 2.480 . S
O182 Eu161 2.430 . S
O182 C168 1.259 . S
O183 Eu161 2.670 . S
O183 C168 1.270 . S
O183 Eu171 2.355 . S
O184 Eu161 2.394 . S
O184 C169 1.251 . S
O185 C169 1.251 . S
O185 Eu171 2.374 . S
O186 C170 1.257 . S
O186 Eu171 2.473 . S
O187 C170 1.260 . S
O187 Eu171 2.480 . S
O188 Eu171 2.430 . S
O188 C178 1.259 . S
O189 Eu161 2.355 . S
O189 Eu171 2.670 . S
O189 C178 1.270 . S
O190 Eu171 2.394 . S
O190 C179 1.251 . S
O191 Eu161 2.374 . S
O191 C179 1.251 . S
H192 C163 0.931 . S
H193 C164 0.931 . S
H194 C166 0.931 . S
H195 C167 0.931 . S
H196 C173 0.931 . S
H197 C174 0.931 . S
H198 C176 0.931 . S
H199 C177 0.931 . S
C200 Eu201 2.835 . S
C200 C202 1.500 . S
C200 O220 1.257 . S
C200 O221 1.260 . S
Eu201 C200 2.835 . S
Eu201 O220 2.473 . S
Eu201 O221 2.480 . S
Eu201 O222 2.430 . S
Eu201 O223 2.670 . S
Eu201 O224 2.394 . S
Eu201 O229 2.355 . S
Eu201 O231 2.374 1_545 S
C202 C200 1.500 . S
C202 C203 1.377 . S
C202 C207 1.377 . S
C203 C202 1.377 . S
C203 C204 1.395 . S
C203 H232 0.931 . S
C204 C203 1.395 . S
C204 C205 1.383 . S
C204 H233 0.931 . S
C205 C204 1.383 . S
C205 C206 1.394 . S
C206 C205 1.394 . S
C206 C207 1.378 . S
C206 H234 0.931 . S
C207 C202 1.377 . S
C207 C206 1.378 . S
C207 H235 0.931 . S
C208 O222 1.259 . S
C208 O223 1.270 . S
C209 O224 1.251 . S
C209 O225 1.251 . S
C210 Eu211 2.843 . S
C210 C212 1.500 . S
C210 O226 1.257 . S
C210 O227 1.260 . S
Eu211 C210 2.843 . S
Eu211 O223 2.352 1_565 S
Eu211 O225 2.367 1_565 S
Eu211 O226 2.480 . S
Eu211 O227 2.487 . S
Eu211 O228 2.427 1_565 S
Eu211 O229 2.662 1_565 S
Eu211 O230 2.395 . S
C212 C210 1.500 . S
C212 C213 1.377 . S
C212 C217 1.377 . S
C213 C212 1.377 . S
C213 C214 1.395 . S
C213 H236 0.931 . S
C214 C213 1.395 . S
C214 C215 1.383 . S
C214 H237 0.931 . S
C215 C214 1.383 . S
C215 C216 1.394 . S
C216 C215 1.394 . S
C216 C217 1.378 . S
C216 H238 0.931 . S
C217 C212 1.377 . S
C217 C216 1.378 . S
C217 H239 0.931 . S
C218 O228 1.259 . S
C218 O229 1.270 . S
C219 O230 1.251 . S
C219 O231 1.251 . S
O220 C200 1.257 . S
O220 Eu201 2.473 . S
O221 C200 1.260 . S
O221 Eu201 2.480 . S
O222 Eu201 2.430 . S
O222 C208 1.259 . S
O223 Eu201 2.670 . S
O223 C208 1.270 . S
O223 Eu211 2.352 1_545 S
O224 Eu201 2.394 . S
O224 C209 1.251 . S
O225 C209 1.251 . S
O225 Eu211 2.367 1_545 S
O226 C210 1.257 . S
O226 Eu211 2.480 . S
O227 C210 1.260 . S
O227 Eu211 2.487 . S
O228 Eu211 2.427 1_545 S
O228 C218 1.259 . S
O229 Eu201 2.355 . S
O229 Eu211 2.662 1_545 S
O229 C218 1.270 . S
O230 Eu211 2.395 . S
O230 C219 1.251 . S
O231 Eu201 2.374 1_565 S
O231 C219 1.251 . S
H232 C203 0.931 . S
H233 C204 0.931 . S
H234 C206 0.931 . S
H235 C207 0.931 . S
H236 C213 0.931 . S
H237 C214 0.931 . S
H238 C216 0.931 . S
H239 C217 0.931 . S
C240 Eu241 2.835 . S
C240 C242 1.500 . S
C240 O260 1.257 . S
C240 O261 1.260 . S
Eu241 C240 2.835 . S
Eu241 O260 2.473 . S
Eu241 O261 2.480 . S
Eu241 O262 2.430 . S
Eu241 O263 2.670 . S
Eu241 O264 2.394 . S
Eu241 O269 2.355 . S
Eu241 O271 2.374 . S
C242 C240 1.500 . S
C242 C243 1.377 . S
C242 C247 1.377 . S
C243 C242 1.377 . S
C243 C244 1.395 1_455 S
C243 H272 0.931 . S
C244 C243 1.395 1_655 S
C244 C245 1.383 . S
C244 H273 0.931 . S
C245 C244 1.383 . S
C245 C246 1.405 . S
C246 C245 1.405 . S
C246 C247 1.365 1_655 S
C246 H274 0.934 . S
C247 C242 1.377 . S
C247 C246 1.365 1_455 S
C247 H275 0.931 . S
C248 O262 1.259 . S
C248 O263 1.270 . S
C249 O264 1.251 . S
C249 O265 1.251 . S
C250 Eu251 2.835 . S
C250 C252 1.500 . S
C250 O266 1.257 . S
C250 O267 1.260 . S
Eu251 C250 2.835 . S
Eu251 O263 2.355 . S
Eu251 O265 2.374 . S
Eu251 O266 2.473 . S
Eu251 O267 2.480 . S
Eu251 O268 2.430 . S
Eu251 O269 2.670 . S
Eu251 O270 2.394 . S
C252 C250 1.500 . S
C252 C253 1.377 . S
C252 C257 1.377 . S
C253 C252 1.377 . S
C253 C254 1.395 . S
C253 H276 0.931 . S
C254 C253 1.395 . S
C254 C255 1.383 . S
C254 H277 0.931 . S
C255 C254 1.383 . S
C255 C256 1.394 . S
C256 C255 1.394 . S
C256 C257 1.378 . S
C256 H278 0.931 . S
C257 C252 1.377 . S
C257 C256 1.378 . S
C257 H279 0.931 . S
C258 O268 1.259 . S
C258 O269 1.270 . S
C259 O270 1.251 . S
C259 O271 1.251 . S
O260 C240 1.257 . S
O260 Eu241 2.473 . S
O261 C240 1.260 . S
O261 Eu241 2.480 . S
O262 Eu241 2.430 . S
O262 C248 1.259 . S
O263 Eu241 2.670 . S
O263 C248 1.270 . S
O263 Eu251 2.355 . S
O264 Eu241 2.394 . S
O264 C249 1.251 . S
O265 C249 1.251 . S
O265 Eu251 2.374 . S
O266 C250 1.257 . S
O266 Eu251 2.473 . S
O267 C250 1.260 . S
O267 Eu251 2.480 . S
O268 Eu251 2.430 . S
O268 C258 1.259 . S
O269 Eu241 2.355 . S
O269 Eu251 2.670 . S
O269 C258 1.270 . S
O270 Eu251 2.394 . S
O270 C259 1.251 . S
O271 Eu241 2.374 . S
O271 C259 1.251 . S
H272 C243 0.931 . S
H273 C244 0.931 . S
H274 C246 0.934 . S
H275 C247 0.931 . S
H276 C253 0.931 . S
H277 C254 0.931 . S
H278 C256 0.931 . S
H279 C257 0.931 . S
C280 Eu281 2.835 . S
C280 C282 1.500 . S
C280 O300 1.257 . S
C280 O301 1.260 . S
Eu281 C280 2.835 . S
Eu281 O300 2.473 . S
Eu281 O301 2.480 . S
Eu281 O302 2.430 . S
Eu281 O303 2.670 . S
Eu281 O304 2.394 . S
Eu281 O309 2.355 . S
Eu281 O311 2.374 . S
C282 C280 1.500 . S
C282 C283 1.377 . S
C282 C287 1.377 . S
C283 C282 1.377 . S
C283 C284 1.395 . S
C283 H312 0.931 . S
C284 C283 1.395 . S
C284 C285 1.383 . S
C284 H313 0.931 . S
C285 C284 1.383 . S
C285 C286 1.394 . S
C286 C285 1.394 . S
C286 C287 1.378 . S
C286 H314 0.931 . S
C287 C282 1.377 . S
C287 C286 1.378 . S
C287 H315 0.931 . S
C288 O302 1.259 . S
C288 O303 1.270 . S
C289 O304 1.251 . S
C289 O305 1.251 . S
C290 Eu291 2.835 . S
C290 C292 1.500 . S
C290 O306 1.257 . S
C290 O307 1.260 . S
Eu291 C290 2.835 . S
Eu291 O303 2.355 . S
Eu291 O305 2.374 . S
Eu291 O306 2.473 . S
Eu291 O307 2.480 . S
Eu291 O308 2.430 . S
Eu291 O309 2.670 . S
Eu291 O310 2.394 . S
C292 C290 1.500 . S
C292 C293 1.377 . S
C292 C297 1.377 . S
C293 C292 1.377 . S
C293 C294 1.395 . S
C293 H316 0.931 . S
C294 C293 1.395 . S
C294 C295 1.383 . S
C294 H317 0.931 . S
C295 C294 1.383 . S
C295 C296 1.394 . S
C296 C295 1.394 . S
C296 C297 1.378 . S
C296 H318 0.931 . S
C297 C292 1.377 . S
C297 C296 1.378 . S
C297 H319 0.931 . S
C298 O308 1.259 . S
C298 O309 1.270 . S
C299 O310 1.251 . S
C299 O311 1.251 . S
O300 C280 1.257 . S
O300 Eu281 2.473 . S
O301 C280 1.260 . S
O301 Eu281 2.480 . S
O302 Eu281 2.430 . S
O302 C288 1.259 . S
O303 Eu281 2.670 . S
O303 C288 1.270 . S
O303 Eu291 2.355 . S
O304 Eu281 2.394 . S
O304 C289 1.251 . S
O305 C289 1.251 . S
O305 Eu291 2.374 . S
O306 C290 1.257 . S
O306 Eu291 2.473 . S
O307 C290 1.260 . S
O307 Eu291 2.480 . S
O308 Eu291 2.430 . S
O308 C298 1.259 . S
O309 Eu281 2.355 . S
O309 Eu291 2.670 . S
O309 C298 1.270 . S
O310 Eu291 2.394 . S
O310 C299 1.251 . S
O311 Eu281 2.374 . S
O311 C299 1.251 . S
H312 C283 0.931 . S
H313 C284 0.931 . S
H314 C286 0.931 . S
H315 C287 0.931 . S
H316 C293 0.931 . S
H317 C294 0.931 . S
H318 C296 0.931 . S
H319 C297 0.931 . S
C320 Eu321 2.835 . S
C320 C322 1.500 . S
C320 O340 1.257 . S
C320 O341 1.260 . S
Eu321 C320 2.835 . S
Eu321 O340 2.473 . S
Eu321 O341 2.480 . S
Eu321 O342 2.430 . S
Eu321 O343 2.670 . S
Eu321 O344 2.394 . S
Eu321 O349 2.355 . S
Eu321 O351 2.374 . S
C322 C320 1.500 . S
C322 C323 1.377 1_565 S
C322 C327 1.377 1_565 S
C323 C322 1.377 1_545 S
C323 C324 1.395 . S
C323 H352 0.924 1_545 S
C324 C323 1.395 . S
C324 C325 1.383 . S
C324 H353 0.931 . S
C325 C324 1.383 . S
C325 C326 1.394 . S
C326 C325 1.394 . S
C326 C327 1.378 . S
C326 H354 0.931 . S
C327 C322 1.377 1_545 S
C327 C326 1.378 . S
C327 H355 0.931 1_545 S
C328 O342 1.259 . S
C328 O343 1.270 . S
C329 O344 1.251 . S
C329 O345 1.251 . S
C330 Eu331 2.835 . S
C330 C332 1.500 . S
C330 O346 1.257 . S
C330 O347 1.260 . S
Eu331 C330 2.835 . S
Eu331 O343 2.355 . S
Eu331 O345 2.374 . S
Eu331 O346 2.473 . S
Eu331 O347 2.480 . S
Eu331 O348 2.430 . S
Eu331 O349 2.670 . S
Eu331 O350 2.394 . S
C332 C330 1.500 . S
C332 C333 1.377 . S
C332 C337 1.377 . S
C333 C332 1.377 . S
C333 C334 1.395 . S
C333 H356 0.931 . S
C334 C333 1.395 . S
C334 C335 1.383 . S
C334 H357 0.931 . S
C335 C334 1.383 . S
C335 C336 1.394 . S
C336 C335 1.394 . S
C336 C337 1.378 . S
C336 H358 0.931 . S
C337 C332 1.377 . S
C337 C336 1.378 . S
C337 H359 0.931 . S
C338 O348 1.259 . S
C338 O349 1.270 . S
C339 O350 1.251 . S
C339 O351 1.251 . S
O340 C320 1.257 . S
O340 Eu321 2.473 . S
O341 C320 1.260 . S
O341 Eu321 2.480 . S
O342 Eu321 2.430 . S
O342 C328 1.259 . S
O343 Eu321 2.670 . S
O343 C328 1.270 . S
O343 Eu331 2.355 . S
O344 Eu321 2.394 . S
O344 C329 1.251 . S
O345 C329 1.251 . S
O345 Eu331 2.374 . S
O346 C330 1.257 . S
O346 Eu331 2.473 . S
O347 C330 1.260 . S
O347 Eu331 2.480 . S
O348 Eu331 2.430 . S
O348 C338 1.259 . S
O349 Eu321 2.355 . S
O349 Eu331 2.670 . S
O349 C338 1.270 . S
O350 Eu331 2.394 . S
O350 C339 1.251 . S
O351 Eu321 2.374 . S
O351 C339 1.251 . S
H352 C323 0.924 1_565 S
H353 C324 0.931 . S
H354 C326 0.931 . S
H355 C327 0.931 1_565 S
H356 C333 0.931 . S
H357 C334 0.931 . S
H358 C336 0.931 . S
H359 C337 0.931 . S
C360 Eu361 2.835 . S
C360 C362 1.500 . S
C360 O380 1.257 . S
C360 O381 1.260 . S
Eu361 C360 2.835 . S
Eu361 O380 2.473 . S
Eu361 O381 2.480 . S
Eu361 O382 2.430 . S
Eu361 O383 2.670 . S
Eu361 O384 2.394 . S
Eu361 O389 2.355 . S
Eu361 O391 2.374 . S
C362 C360 1.500 . S
C362 C363 1.377 . S
C362 C367 1.377 . S
C363 C362 1.377 . S
C363 C364 1.395 . S
C363 H392 0.931 . S
C364 C363 1.395 . S
C364 C365 1.383 . S
C364 H393 0.931 . S
C365 C364 1.383 . S
C365 C366 1.394 . S
C366 C365 1.394 . S
C366 C367 1.378 . S
C366 H394 0.931 . S
C367 C362 1.377 . S
C367 C366 1.378 . S
C367 H395 0.931 . S
C368 O382 1.259 . S
C368 O383 1.270 . S
C369 O384 1.251 . S
C369 O385 1.251 . S
C370 Eu371 2.835 . S
C370 C372 1.500 . S
C370 O386 1.257 . S
C370 O387 1.260 . S
Eu371 C370 2.835 . S
Eu371 O383 2.355 . S
Eu371 O385 2.374 . S
Eu371 O386 2.473 . S
Eu371 O387 2.480 . S
Eu371 O388 2.430 . S
Eu371 O389 2.670 . S
Eu371 O390 2.394 . S
C372 C370 1.500 . S
C372 C373 1.377 . S
C372 C377 1.377 . S
C373 C372 1.377 . S
C373 C374 1.395 . S
C373 H396 0.931 . S
C374 C373 1.395 . S
C374 C375 1.383 . S
C374 H397 0.931 . S
C375 C374 1.383 . S
C375 C376 1.394 . S
C376 C375 1.394 . S
C376 C377 1.378 . S
C376 H398 0.931 . S
C377 C372 1.377 . S
C377 C376 1.378 . S
C377 H399 0.931 . S
C378 O388 1.259 . S
C378 O389 1.270 . S
C379 O390 1.251 . S
C379 O391 1.251 . S
O380 C360 1.257 . S
O380 Eu361 2.473 . S
O381 C360 1.260 . S
O381 Eu361 2.480 . S
O382 Eu361 2.430 . S
O382 C368 1.259 . S
O383 Eu361 2.670 . S
O383 C368 1.270 . S
O383 Eu371 2.355 . S
O384 Eu361 2.394 . S
O384 C369 1.251 . S
O385 C369 1.251 . S
O385 Eu371 2.374 . S
O386 C370 1.257 . S
O386 Eu371 2.473 . S
O387 C370 1.260 . S
O387 Eu371 2.480 . S
O388 Eu371 2.430 . S
O388 C378 1.259 . S
O389 Eu361 2.355 . S
O389 Eu371 2.670 . S
O389 C378 1.270 . S
O390 Eu371 2.394 . S
O390 C379 1.251 . S
O391 Eu361 2.374 . S
O391 C379 1.251 . S
H392 C363 0.931 . S
H393 C364 0.931 . S
H394 C366 0.931 . S
H395 C367 0.931 . S
H396 C373 0.931 . S
H397 C374 0.931 . S
H398 C376 0.931 . S
H399 C377 0.931 . S
C400 Eu401 2.835 . S
C400 C402 1.500 . S
C400 O420 1.257 . S
C400 O421 1.260 . S
Eu401 C400 2.835 . S
Eu401 O420 2.473 . S
Eu401 O421 2.480 . S
Eu401 O422 2.430 . S
Eu401 O423 2.670 . S
Eu401 O424 2.394 . S
Eu401 O429 2.355 . S
Eu401 O431 2.374 . S
C402 C400 1.500 . S
C402 C403 1.377 . S
C402 C407 1.377 . S
C403 C402 1.377 . S
C403 C404 1.395 . S
C403 H432 0.931 . S
C404 C403 1.395 . S
C404 C405 1.383 . S
C404 H433 0.931 . S
C405 C404 1.383 . S
C405 C406 1.394 . S
C406 C405 1.394 . S
C406 C407 1.378 . S
C406 H434 0.931 . S
C407 C402 1.377 . S
C407 C406 1.378 . S
C407 H435 0.931 . S
C408 O422 1.259 . S
C408 O423 1.270 . S
C409 O424 1.251 . S
C409 O425 1.251 . S
C410 Eu411 2.835 . S
C410 C412 1.500 . S
C410 O426 1.257 . S
C410 O427 1.260 . S
Eu411 C410 2.835 . S
Eu411 O423 2.355 . S
Eu411 O425 2.374 . S
Eu411 O426 2.473 . S
Eu411 O427 2.480 . S
Eu411 O428 2.430 . S
Eu411 O429 2.670 . S
Eu411 O430 2.394 . S
C412 C410 1.500 . S
C412 C413 1.377 . S
C412 C417 1.377 . S
C413 C412 1.377 . S
C413 C414 1.395 . S
C413 H436 0.931 . S
C414 C413 1.395 . S
C414 C415 1.383 . S
C414 H437 0.931 . S
C415 C414 1.383 . S
C415 C416 1.394 . S
C416 C415 1.394 . S
C416 C417 1.378 . S
C416 H438 0.931 . S
C417 C412 1.377 . S
C417 C416 1.378 . S
C417 H439 0.931 . S
C418 O428 1.259 . S
C418 O429 1.270 . S
C419 O430 1.251 . S
C419 O431 1.251 . S
O420 C400 1.257 . S
O420 Eu401 2.473 . S
O421 C400 1.260 . S
O421 Eu401 2.480 . S
O422 Eu401 2.430 . S
O422 C408 1.259 . S
O423 Eu401 2.670 . S
O423 C408 1.270 . S
O423 Eu411 2.355 . S
O424 Eu401 2.394 . S
O424 C409 1.251 . S
O425 C409 1.251 . S
O425 Eu411 2.374 . S
O426 C410 1.257 . S
O426 Eu411 2.473 . S
O427 C410 1.260 . S
O427 Eu411 2.480 . S
O428 Eu411 2.430 . S
O428 C418 1.259 . S
O429 Eu401 2.355 . S
O429 Eu411 2.670 . S
O429 C418 1.270 . S
O430 Eu411 2.394 . S
O430 C419 1.251 . S
O431 Eu401 2.374 . S
O431 C419 1.251 . S
H432 C403 0.931 . S
H433 C404 0.931 . S
H434 C406 0.931 . S
H435 C407 0.931 . S
H436 C413 0.931 . S
H437 C414 0.931 . S
H438 C416 0.931 . S
H439 C417 0.931 . S
C440 Eu441 2.835 . S
C440 C442 1.500 . S
C440 O460 1.257 . S
C440 O461 1.260 . S
Eu441 C440 2.835 . S
Eu441 O460 2.473 . S
Eu441 O461 2.480 . S
Eu441 O462 2.430 . S
Eu441 O463 2.670 . S
Eu441 O464 2.394 . S
Eu441 O469 2.355 . S
Eu441 O471 2.374 . S
C442 C440 1.500 . S
C442 C443 1.377 . S
C442 C447 1.377 . S
C443 C442 1.377 . S
C443 C444 1.395 . S
C443 H472 0.931 . S
C444 C443 1.395 . S
C444 C445 1.383 . S
C444 H473 0.931 . S
C445 C444 1.383 . S
C445 C446 1.394 . S
C446 C445 1.394 . S
C446 C447 1.378 . S
C446 H474 0.931 . S
C447 C442 1.377 . S
C447 C446 1.378 . S
C447 H475 0.931 . S
C448 O462 1.259 . S
C448 O463 1.270 . S
C449 O464 1.251 . S
C449 O465 1.251 . S
C450 Eu451 2.835 . S
C450 C452 1.500 . S
C450 O466 1.257 . S
C450 O467 1.260 . S
Eu451 C450 2.835 . S
Eu451 O463 2.355 . S
Eu451 O465 2.374 . S
Eu451 O466 2.473 . S
Eu451 O467 2.480 . S
Eu451 O468 2.430 . S
Eu451 O469 2.670 . S
Eu451 O470 2.394 . S
C452 C450 1.500 . S
C452 C453 1.377 . S
C452 C457 1.377 . S
C453 C452 1.377 . S
C453 C454 1.395 . S
C453 H476 0.931 . S
C454 C453 1.395 . S
C454 C455 1.383 . S
C454 H477 0.931 . S
C455 C454 1.383 . S
C455 C456 1.394 . S
C456 C455 1.394 . S
C456 C457 1.378 . S
C456 H478 0.931 . S
C457 C452 1.377 . S
C457 C456 1.378 . S
C457 H479 0.931 . S
C458 O468 1.259 . S
C458 O469 1.270 . S
C459 O470 1.251 . S
C459 O471 1.251 . S
O460 C440 1.257 . S
O460 Eu441 2.473 . S
O461 C440 1.260 . S
O461 Eu441 2.480 . S
O462 Eu441 2.430 . S
O462 C448 1.259 . S
O463 Eu441 2.670 . S
O463 C448 1.270 . S
O463 Eu451 2.355 . S
O464 Eu441 2.394 . S
O464 C449 1.251 . S
O465 C449 1.251 . S
O465 Eu451 2.374 . S
O466 C450 1.257 . S
O466 Eu451 2.473 . S
O467 C450 1.260 . S
O467 Eu451 2.480 . S
O468 Eu451 2.430 . S
O468 C458 1.259 . S
O469 Eu441 2.355 . S
O469 Eu451 2.670 . S
O469 C458 1.270 . S
O470 Eu451 2.394 . S
O470 C459 1.251 . S
O471 Eu441 2.374 . S
O471 C459 1.251 . S
H472 C443 0.931 . S
H473 C444 0.931 . S
H474 C446 0.931 . S
H475 C447 0.931 . S
H476 C453 0.931 . S
H477 C454 0.931 . S
H478 C456 0.931 . S
H479 C457 0.931 . S
C480 Eu481 2.835 . S
C480 C482 1.500 . S
C480 O500 1.257 . S
C480 O501 1.260 . S
Eu481 C480 2.835 . S
Eu481 O500 2.473 . S
Eu481 O501 2.480 . S
Eu481 O502 2.430 . S
Eu481 O503 2.670 . S
Eu481 O504 2.394 . S
Eu481 O509 2.355 . S
Eu481 O511 2.374 . S
C482 C480 1.500 . S
C482 C483 1.377 . S
C482 C487 1.377 . S
C483 C482 1.377 . S
C483 C484 1.395 . S
C483 H512 0.931 . S
C484 C483 1.395 . S
C484 C485 1.383 . S
C484 H513 0.931 . S
C485 C484 1.383 . S
C485 C486 1.394 . S
C486 C485 1.394 . S
C486 C487 1.378 . S
C486 H514 0.931 . S
C487 C482 1.377 . S
C487 C486 1.378 . S
C487 H515 0.931 . S
C488 O502 1.259 . S
C488 O503 1.270 . S
C489 O504 1.251 . S
C489 O505 1.251 . S
C490 Eu491 2.835 . S
C490 C492 1.500 . S
C490 O506 1.257 . S
C490 O507 1.260 . S
Eu491 C490 2.835 . S
Eu491 O503 2.355 . S
Eu491 O505 2.374 . S
Eu491 O506 2.473 . S
Eu491 O507 2.480 . S
Eu491 O508 2.430 . S
Eu491 O509 2.670 . S
Eu491 O510 2.394 . S
C492 C490 1.500 . S
C492 C493 1.377 . S
C492 C497 1.377 . S
C493 C492 1.377 . S
C493 C494 1.395 . S
C493 H516 0.931 . S
C494 C493 1.395 . S
C494 C495 1.383 . S
C494 H517 0.931 . S
C495 C494 1.383 . S
C495 C496 1.394 . S
C496 C495 1.394 . S
C496 C497 1.378 . S
C496 H518 0.931 . S
C497 C492 1.377 . S
C497 C496 1.378 . S
C497 H519 0.931 . S
C498 O508 1.259 . S
C498 O509 1.270 . S
C499 O510 1.251 . S
C499 O511 1.251 . S
O500 C480 1.257 . S
O500 Eu481 2.473 . S
O501 C480 1.260 . S
O501 Eu481 2.480 . S
O502 Eu481 2.430 . S
O502 C488 1.259 . S
O503 Eu481 2.670 . S
O503 C488 1.270 . S
O503 Eu491 2.355 . S
O504 Eu481 2.394 . S
O504 C489 1.251 . S
O505 C489 1.251 . S
O505 Eu491 2.374 . S
O506 C490 1.257 . S
O506 Eu491 2.473 . S
O507 C490 1.260 . S
O507 Eu491 2.480 . S
O508 Eu491 2.430 . S
O508 C498 1.259 . S
O509 Eu481 2.355 . S
O509 Eu491 2.670 . S
O509 C498 1.270 . S
O510 Eu491 2.394 . S
O510 C499 1.251 . S
O511 Eu481 2.374 . S
O511 C499 1.251 . S
H512 C483 0.931 . S
H513 C484 0.931 . S
H514 C486 0.931 . S
H515 C487 0.931 . S
H516 C493 0.931 . S
H517 C494 0.931 . S
H518 C496 0.931 . S
H519 C497 0.931 . S
C520 Eu521 2.835 . S
C520 C522 1.500 . S
C520 O540 1.257 . S
C520 O541 1.260 . S
Eu521 C520 2.835 . S
Eu521 O540 2.473 . S
Eu521 O541 2.480 . S
Eu521 O542 2.430 . S
Eu521 O543 2.670 . S
Eu521 O544 2.394 . S
Eu521 O549 2.355 . S
Eu521 O551 2.374 . S
C522 C520 1.500 . S
C522 C523 1.377 . S
C522 C527 1.377 . S
C523 C522 1.377 . S
C523 C524 1.395 . S
C523 H552 0.931 . S
C524 C523 1.395 . S
C524 C525 1.383 . S
C524 H553 0.931 . S
C525 C524 1.383 . S
C525 C526 1.394 . S
C526 C525 1.394 . S
C526 C527 1.378 . S
C526 H554 0.931 . S
C527 C522 1.377 . S
C527 C526 1.378 . S
C527 H555 0.931 . S
C528 O542 1.259 . S
C528 O543 1.270 . S
C529 O544 1.251 . S
C529 O545 1.251 . S
C530 Eu531 2.835 . S
C530 C532 1.500 . S
C530 O546 1.257 . S
C530 O547 1.260 . S
Eu531 C530 2.835 . S
Eu531 O543 2.355 . S
Eu531 O545 2.374 . S
Eu531 O546 2.473 . S
Eu531 O547 2.480 . S
Eu531 O548 2.430 . S
Eu531 O549 2.670 . S
Eu531 O550 2.394 . S
C532 C530 1.500 . S
C532 C533 1.377 . S
C532 C537 1.377 . S
C533 C532 1.377 . S
C533 C534 1.395 . S
C533 H556 0.931 . S
C534 C533 1.395 . S
C534 C535 1.383 . S
C534 H557 0.931 . S
C535 C534 1.383 . S
C535 C536 1.394 . S
C536 C535 1.394 . S
C536 C537 1.378 . S
C536 H558 0.931 . S
C537 C532 1.377 . S
C537 C536 1.378 . S
C537 H559 0.931 . S
C538 O548 1.259 . S
C538 O549 1.270 . S
C539 O550 1.251 . S
C539 O551 1.251 . S
O540 C520 1.257 . S
O540 Eu521 2.473 . S
O541 C520 1.260 . S
O541 Eu521 2.480 . S
O542 Eu521 2.430 . S
O542 C528 1.259 . S
O543 Eu521 2.670 . S
O543 C528 1.270 . S
O543 Eu531 2.355 . S
O544 Eu521 2.394 . S
O544 C529 1.251 . S
O545 C529 1.251 . S
O545 Eu531 2.374 . S
O546 C530 1.257 . S
O546 Eu531 2.473 . S
O547 C530 1.260 . S
O547 Eu531 2.480 . S
O548 Eu531 2.430 . S
O548 C538 1.259 . S
O549 Eu521 2.355 . S
O549 Eu531 2.670 . S
O549 C538 1.270 . S
O550 Eu531 2.394 . S
O550 C539 1.251 . S
O551 Eu521 2.374 . S
O551 C539 1.251 . S
H552 C523 0.931 . S
H553 C524 0.931 . S
H554 C526 0.931 . S
H555 C527 0.931 . S
H556 C533 0.931 . S
H557 C534 0.931 . S
H558 C536 0.931 . S
H559 C537 0.931 . S
C560 Eu561 2.835 . S
C560 C562 1.500 . S
C560 O580 1.257 . S
C560 O581 1.260 . S
Eu561 C560 2.835 . S
Eu561 O580 2.473 . S
Eu561 O581 2.480 . S
Eu561 O582 2.430 . S
Eu561 O583 2.670 . S
Eu561 O584 2.394 . S
Eu561 O589 2.355 . S
Eu561 O591 2.374 . S
C562 C560 1.500 . S
C562 C563 1.377 . S
C562 C567 1.377 . S
C563 C562 1.377 . S
C563 C564 1.395 . S
C563 H592 0.931 . S
C564 C563 1.395 . S
C564 C565 1.383 . S
C564 H593 0.931 . S
C565 C564 1.383 . S
C565 C566 1.394 . S
C566 C565 1.394 . S
C566 C567 1.378 . S
C566 H594 0.931 . S
C567 C562 1.377 . S
C567 C566 1.378 . S
C567 H595 0.931 . S
C568 O582 1.259 . S
C568 O583 1.270 . S
C569 O584 1.251 . S
C569 O585 1.251 . S
C570 Eu571 2.835 . S
C570 C572 1.500 . S
C570 O586 1.257 . S
C570 O587 1.260 . S
Eu571 C570 2.835 . S
Eu571 O583 2.355 . S
Eu571 O585 2.374 . S
Eu571 O586 2.473 . S
Eu571 O587 2.480 . S
Eu571 O588 2.430 . S
Eu571 O589 2.670 . S
Eu571 O590 2.394 . S
C572 C570 1.500 . S
C572 C573 1.377 . S
C572 C577 1.377 . S
C573 C572 1.377 . S
C573 C574 1.395 . S
C573 H596 0.931 . S
C574 C573 1.395 . S
C574 C575 1.383 . S
C574 H597 0.931 . S
C575 C574 1.383 . S
C575 C576 1.394 . S
C576 C575 1.394 . S
C576 C577 1.378 . S
C576 H598 0.931 . S
C577 C572 1.377 . S
C577 C576 1.378 . S
C577 H599 0.931 . S
C578 O588 1.259 . S
C578 O589 1.270 . S
C579 O590 1.251 . S
C579 O591 1.251 . S
O580 C560 1.257 . S
O580 Eu561 2.473 . S
O581 C560 1.260 . S
O581 Eu561 2.480 . S
O582 Eu561 2.430 . S
O582 C568 1.259 . S
O583 Eu561 2.670 . S
O583 C568 1.270 . S
O583 Eu571 2.355 . S
O584 Eu561 2.394 . S
O584 C569 1.251 . S
O585 C569 1.251 . S
O585 Eu571 2.374 . S
O586 C570 1.257 . S
O586 Eu571 2.473 . S
O587 C570 1.260 . S
O587 Eu571 2.480 . S
O588 Eu571 2.430 . S
O588 C578 1.259 . S
O589 Eu561 2.355 . S
O589 Eu571 2.670 . S
O589 C578 1.270 . S
O590 Eu571 2.394 . S
O590 C579 1.251 . S
O591 Eu561 2.374 . S
O591 C579 1.251 . S
H592 C563 0.931 . S
H593 C564 0.931 . S
H594 C566 0.931 . S
H595 C567 0.931 . S
H596 C573 0.931 . S
H597 C574 0.931 . S
H598 C576 0.931 . S
H599 C577 0.931 . S
C600 Eu601 2.835 . S
C600 C602 1.500 . S
C600 O620 1.257 . S
C600 O621 1.260 . S
Eu601 C600 2.835 . S
Eu601 O620 2.473 . S
Eu601 O621 2.480 . S
Eu601 O622 2.430 . S
Eu601 O623 2.670 . S
Eu601 O624 2.394 . S
Eu601 O629 2.355 . S
Eu601 O631 2.374 . S
C602 C600 1.500 . S
C602 C603 1.377 . S
C602 C607 1.377 . S
C603 C602 1.377 . S
C603 C604 1.395 1_545 S
C603 H632 0.931 . S
C604 C603 1.395 1_565 S
C604 C605 1.383 . S
C604 H633 0.931 . S
C605 C604 1.383 . S
C605 C606 1.405 . S
C606 C605 1.405 . S
C606 C607 1.365 1_565 S
C606 H634 0.934 . S
C607 C602 1.377 . S
C607 C606 1.365 1_545 S
C607 H635 0.931 . S
C608 O622 1.259 . S
C608 O623 1.270 . S
C609 O624 1.251 . S
C609 O625 1.251 . S
C610 Eu611 2.835 . S
C610 C612 1.500 . S
C610 O626 1.257 . S
C610 O627 1.260 . S
Eu611 C610 2.835 . S
Eu611 O623 2.355 . S
Eu611 O625 2.374 . S
Eu611 O626 2.473 . S
Eu611 O627 2.480 . S
Eu611 O628 2.430 . S
Eu611 O629 2.670 . S
Eu611 O630 2.394 . S
C612 C610 1.500 . S
C612 C613 1.377 . S
C612 C617 1.377 . S
C613 C612 1.377 . S
C613 C614 1.395 . S
C613 H636 0.931 . S
C614 C613 1.395 . S
C614 C615 1.383 . S
C614 H637 0.931 . S
C615 C614 1.383 . S
C615 C616 1.394 . S
C616 C615 1.394 . S
C616 C617 1.378 . S
C616 H638 0.931 . S
C617 C612 1.377 . S
C617 C616 1.378 . S
C617 H639 0.931 . S
C618 O628 1.259 . S
C618 O629 1.270 . S
C619 O630 1.251 . S
C619 O631 1.251 . S
O620 C600 1.257 . S
O620 Eu601 2.473 . S
O621 C600 1.260 . S
O621 Eu601 2.480 . S
O622 Eu601 2.430 . S
O622 C608 1.259 . S
O623 Eu601 2.670 . S
O623 C608 1.270 . S
O623 Eu611 2.355 . S
O624 Eu601 2.394 . S
O624 C609 1.251 . S
O625 C609 1.251 . S
O625 Eu611 2.374 . S
O626 C610 1.257 . S
O626 Eu611 2.473 . S
O627 C610 1.260 . S
O627 Eu611 2.480 . S
O628 Eu611 2.430 . S
O628 C618 1.259 . S
O629 Eu601 2.355 . S
O629 Eu611 2.670 . S
O629 C618 1.270 . S
O630 Eu611 2.394 . S
O630 C619 1.251 . S
O631 Eu601 2.374 . S
O631 C619 1.251 . S
H632 C603 0.931 . S
H633 C604 0.931 . S
H634 C606 0.934 . S
H635 C607 0.931 . S
H636 C613 0.931 . S
H637 C614 0.931 . S
H638 C616 0.931 . S
H639 C617 0.931 . S
C640 Eu641 2.835 . S
C640 C642 1.500 . S
C640 O660 1.257 . S
C640 O661 1.260 . S
Eu641 C640 2.835 . S
Eu641 O660 2.473 . S
Eu641 O661 2.480 . S
Eu641 O662 2.430 . S
Eu641 O663 2.670 . S
Eu641 O664 2.394 . S
Eu641 O669 2.355 . S
Eu641 O671 2.374 . S
C642 C640 1.500 . S
C642 C643 1.377 1_655 S
C642 C647 1.377 1_655 S
C643 C642 1.377 1_455 S
C643 C644 1.395 . S
C643 H672 0.924 1_455 S
C644 C643 1.395 . S
C644 C645 1.383 . S
C644 H673 0.931 . S
C645 C644 1.383 . S
C645 C646 1.394 . S
C646 C645 1.394 . S
C646 C647 1.378 . S
C646 H674 0.931 . S
C647 C642 1.377 1_455 S
C647 C646 1.378 . S
C647 H675 0.931 1_455 S
C648 O662 1.259 . S
C648 O663 1.270 . S
C649 O664 1.251 . S
C649 O665 1.251 . S
C650 Eu651 2.835 . S
C650 C652 1.500 . S
C650 O666 1.257 . S
C650 O667 1.260 . S
Eu651 C650 2.835 . S
Eu651 O663 2.355 . S
Eu651 O665 2.374 . S
Eu651 O666 2.473 . S
Eu651 O667 2.480 . S
Eu651 O668 2.430 . S
Eu651 O669 2.670 . S
Eu651 O670 2.394 . S
C652 C650 1.500 . S
C652 C653 1.377 . S
C652 C657 1.377 . S
C653 C652 1.377 . S
C653 C654 1.395 . S
C653 H676 0.931 . S
C654 C653 1.395 . S
C654 C655 1.383 . S
C654 H677 0.931 . S
C655 C654 1.383 . S
C655 C656 1.394 . S
C656 C655 1.394 . S
C656 C657 1.378 . S
C656 H678 0.931 . S
C657 C652 1.377 . S
C657 C656 1.378 . S
C657 H679 0.931 . S
C658 O668 1.259 . S
C658 O669 1.270 . S
C659 O670 1.251 . S
C659 O671 1.251 . S
O660 C640 1.257 . S
O660 Eu641 2.473 . S
O661 C640 1.260 . S
O661 Eu641 2.480 . S
O662 Eu641 2.430 . S
O662 C648 1.259 . S
O663 Eu641 2.670 . S
O663 C648 1.270 . S
O663 Eu651 2.355 . S
O664 Eu641 2.394 . S
O664 C649 1.251 . S
O665 C649 1.251 . S
O665 Eu651 2.374 . S
O666 C650 1.257 . S
O666 Eu651 2.473 . S
O667 C650 1.260 . S
O667 Eu651 2.480 . S
O668 Eu651 2.430 . S
O668 C658 1.259 . S
O669 Eu641 2.355 . S
O669 Eu651 2.670 . S
O669 C658 1.270 . S
O670 Eu651 2.394 . S
O670 C659 1.251 . S
O671 Eu641 2.374 . S
O671 C659 1.251 . S
H672 C643 0.924 1_655 S
H673 C644 0.931 . S
H674 C646 0.931 . S
H675 C647 0.931 1_655 S
H676 C653 0.931 . S
H677 C654 0.931 . S
H678 C656 0.931 . S
H679 C657 0.931 . S
C680 Eu681 2.835 . S
C680 C682 1.500 . S
C680 O700 1.257 . S
C680 O701 1.260 . S
Eu681 C680 2.835 . S
Eu681 O700 2.473 . S
Eu681 O701 2.480 . S
Eu681 O702 2.430 . S
Eu681 O703 2.670 . S
Eu681 O704 2.394 . S
Eu681 O709 2.355 . S
Eu681 O711 2.374 . S
C682 C680 1.500 . S
C682 C683 1.377 . S
C682 C687 1.377 . S
C683 C682 1.377 . S
C683 C684 1.395 . S
C683 H712 0.931 . S
C684 C683 1.395 . S
C684 C685 1.383 . S
C684 H713 0.931 . S
C685 C684 1.383 . S
C685 C686 1.394 . S
C686 C685 1.394 . S
C686 C687 1.378 . S
C686 H714 0.931 . S
C687 C682 1.377 . S
C687 C686 1.378 . S
C687 H715 0.931 . S
C688 O702 1.259 . S
C688 O703 1.270 . S
C689 O704 1.251 . S
C689 O705 1.251 . S
C690 Eu691 2.835 . S
C690 C692 1.500 . S
C690 O706 1.257 . S
C690 O707 1.260 . S
Eu691 C690 2.835 . S
Eu691 O703 2.355 . S
Eu691 O705 2.374 . S
Eu691 O706 2.473 . S
Eu691 O707 2.480 . S
Eu691 O708 2.430 . S
Eu691 O709 2.670 . S
Eu691 O710 2.394 . S
C692 C690 1.500 . S
C692 C693 1.377 . S
C692 C697 1.377 . S
C693 C692 1.377 . S
C693 C694 1.395 . S
C693 H716 0.931 . S
C694 C693 1.395 . S
C694 C695 1.383 . S
C694 H717 0.931 . S
C695 C694 1.383 . S
C695 C696 1.394 . S
C696 C695 1.394 . S
C696 C697 1.378 . S
C696 H718 0.931 . S
C697 C692 1.377 . S
C697 C696 1.378 . S
C697 H719 0.931 . S
C698 O708 1.259 . S
C698 O709 1.270 . S
C699 O710 1.251 . S
C699 O711 1.251 . S
O700 C680 1.257 . S
O700 Eu681 2.473 . S
O701 C680 1.260 . S
O701 Eu681 2.480 . S
O702 Eu681 2.430 . S
O702 C688 1.259 . S
O703 Eu681 2.670 . S
O703 C688 1.270 . S
O703 Eu691 2.355 . S
O704 Eu681 2.394 . S
O704 C689 1.251 . S
O705 C689 1.251 . S
O705 Eu691 2.374 . S
O706 C690 1.257 . S
O706 Eu691 2.473 . S
O707 C690 1.260 . S
O707 Eu691 2.480 . S
O708 Eu691 2.430 . S
O708 C698 1.259 . S
O709 Eu681 2.355 . S
O709 Eu691 2.670 . S
O709 C698 1.270 . S
O710 Eu691 2.394 . S
O710 C699 1.251 . S
O711 Eu681 2.374 . S
O711 C699 1.251 . S
H712 C683 0.931 . S
H713 C684 0.931 . S
H714 C686 0.931 . S
H715 C687 0.931 . S
H716 C693 0.931 . S
H717 C694 0.931 . S
H718 C696 0.931 . S
H719 C697 0.931 . S
C720 C721 1.349 . S
C720 C722 1.327 . S
C720 H745 0.950 . S
C721 C720 1.349 . S
C721 C737 1.349 . S
C722 C720 1.327 . S
C722 C741 1.429 . S
C722 H746 0.950 . S
C723 C740 1.574 . S
C723 C742 1.368 . S
C723 H747 0.949 . S
H724 C728 0.949 . S
C725 C726 1.349 . S
C725 C727 1.327 . S
C725 H748 0.950 . S
C726 C725 1.349 . S
C726 C738 1.349 . S
C727 C725 1.327 . S
C727 C743 1.429 . S
C727 H749 0.950 . S
C728 H724 0.949 . S
C728 C736 1.574 . S
C728 C744 1.368 . S
H729 C737 0.950 . S
H730 C735 0.950 . S
H731 C736 0.949 . S
H732 C738 0.950 . S
H733 C739 0.950 . S
H734 C740 0.949 . S
C735 H730 0.950 . S
C735 C737 1.327 . S
C735 C741 1.429 . S
C736 C728 1.574 . S
C736 H731 0.949 . S
C736 C742 1.368 . S
C737 C721 1.349 . S
C737 H729 0.950 . S
C737 C735 1.327 . S
C738 C726 1.349 . S
C738 H732 0.950 . S
C738 C739 1.327 . S
C739 H733 0.950 . S
C739 C738 1.327 . S
C739 C743 1.429 . S
C740 C723 1.574 . S
C740 H734 0.949 . S
C740 C744 1.368 . S
C741 C722 1.429 . S
C741 C735 1.429 . S
C741 C742 1.523 . S
C742 C723 1.368 . S
C742 C736 1.368 . S
C742 C741 1.523 . S
C743 C727 1.429 . S
C743 C739 1.429 . S
C743 C744 1.523 . S
C744 C728 1.368 . S
C744 C740 1.368 . S
C744 C743 1.523 . S
H745 C720 0.950 . S
H746 C722 0.950 . S
H747 C723 0.949 . S
H748 C725 0.950 . S
H749 C727 0.950 . S
C750 C751 1.349 . S
C750 C752 1.327 . S
C750 H775 0.950 . S
C751 C750 1.349 . S
C751 C767 1.349 . S
C752 C750 1.327 . S
C752 C771 1.429 . S
C752 H776 0.950 . S
C753 C770 1.574 . S
C753 C772 1.368 . S
C753 H777 0.949 . S
H754 C758 0.949 . S
C755 C756 1.349 . S
C755 C757 1.327 . S
C755 H778 0.950 . S
C756 C755 1.349 . S
C756 C768 1.349 . S
C757 C755 1.327 . S
C757 C773 1.429 . S
C757 H779 0.950 . S
C758 H754 0.949 . S
C758 C766 1.574 . S
C758 C774 1.368 . S
H759 C767 0.950 . S
H760 C765 0.950 . S
H761 C766 0.949 . S
H762 C768 0.950 . S
H763 C769 0.950 . S
H764 C770 0.949 . S
C765 H760 0.950 . S
C765 C767 1.327 . S
C765 C771 1.429 . S
C766 C758 1.574 . S
C766 H761 0.949 . S
C766 C772 1.368 . S
C767 C751 1.349 . S
C767 H759 0.950 . S
C767 C765 1.327 . S
C768 C756 1.349 . S
C768 H762 0.950 . S
C768 C769 1.327 . S
C769 H763 0.950 . S
C769 C768 1.327 . S
C769 C773 1.429 . S
C770 C753 1.574 . S
C770 H764 0.949 . S
C770 C774 1.368 . S
C771 C752 1.429 . S
C771 C765 1.429 . S
C771 C772 1.523 . S
C772 C753 1.368 . S
C772 C766 1.368 . S
C772 C771 1.523 . S
C773 C757 1.429 . S
C773 C769 1.429 . S
C773 C774 1.523 . S
C774 C758 1.368 . S
C774 C770 1.368 . S
C774 C773 1.523 . S
H775 C750 0.950 . S
H776 C752 0.950 . S
H777 C753 0.949 . S
H778 C755 0.950 . S
H779 C757 0.950 . S
C780 C781 1.349 . S
C780 C782 1.327 . S
C780 H805 0.950 . S
C781 C780 1.349 . S
C781 C797 1.349 . S
C782 C780 1.327 . S
C782 C801 1.429 . S
C782 H806 0.950 . S
C783 C800 1.574 . S
C783 C802 1.368 . S
C783 H807 0.949 . S
H784 C788 0.949 . S
C785 C786 1.349 . S
C785 C787 1.327 . S
C785 H808 0.950 . S
C786 C785 1.349 . S
C786 C798 1.349 . S
C787 C785 1.327 . S
C787 C803 1.429 . S
C787 H809 0.950 . S
C788 H784 0.949 . S
C788 C796 1.574 . S
C788 C804 1.368 . S
H789 C797 0.950 . S
H790 C795 0.950 . S
H791 C796 0.949 . S
H792 C798 0.950 . S
H793 C799 0.950 . S
H794 C800 0.949 . S
C795 H790 0.950 . S
C795 C797 1.327 . S
C795 C801 1.429 . S
C796 C788 1.574 . S
C796 H791 0.949 . S
C796 C802 1.368 . S
C797 C781 1.349 . S
C797 H789 0.950 . S
C797 C795 1.327 . S
C798 C786 1.349 . S
C798 H792 0.950 . S
C798 C799 1.327 . S
C799 H793 0.950 . S
C799 C798 1.327 . S
C799 C803 1.429 . S
C800 C783 1.574 . S
C800 H794 0.949 . S
C800 C804 1.368 . S
C801 C782 1.429 . S
C801 C795 1.429 . S
C801 C802 1.523 . S
C802 C783 1.368 . S
C802 C796 1.368 . S
C802 C801 1.523 . S
C803 C787 1.429 . S
C803 C799 1.429 . S
C803 C804 1.523 . S
C804 C788 1.368 . S
C804 C800 1.368 . S
C804 C803 1.523 . S
H805 C780 0.950 . S
H806 C782 0.950 . S
H807 C783 0.949 . S
H808 C785 0.950 . S
H809 C787 0.950 . S
C810 C811 1.349 . S
C810 C812 1.327 . S
C810 H835 0.950 . S
C811 C810 1.349 . S
C811 C827 1.349 . S
C812 C810 1.327 . S
C812 C831 1.429 . S
C812 H836 0.950 . S
C813 C830 1.574 . S
C813 C832 1.368 . S
C813 H837 0.949 . S
H814 C818 0.949 . S
C815 C816 1.349 . S
C815 C817 1.327 . S
C815 H838 0.950 . S
C816 C815 1.349 . S
C816 C828 1.349 . S
C817 C815 1.327 . S
C817 C833 1.429 . S
C817 H839 0.950 . S
C818 H814 0.949 . S
C818 C826 1.574 . S
C818 C834 1.368 . S
H819 C827 0.950 . S
H820 C825 0.950 . S
H821 C826 0.949 . S
H822 C828 0.950 . S
H823 C829 0.950 . S
H824 C830 0.949 . S
C825 H820 0.950 . S
C825 C827 1.327 . S
C825 C831 1.429 . S
C826 C818 1.574 . S
C826 H821 0.949 . S
C826 C832 1.368 . S
C827 C811 1.349 . S
C827 H819 0.950 . S
C827 C825 1.327 . S
C828 C816 1.349 . S
C828 H822 0.950 . S
C828 C829 1.327 . S
C829 H823 0.950 . S
C829 C828 1.327 . S
C829 C833 1.429 . S
C830 C813 1.574 . S
C830 H824 0.949 . S
C830 C834 1.368 . S
C831 C812 1.429 . S
C831 C825 1.429 . S
C831 C832 1.523 . S
C832 C813 1.368 . S
C832 C826 1.368 . S
C832 C831 1.523 . S
C833 C817 1.429 . S
C833 C829 1.429 . S
C833 C834 1.523 . S
C834 C818 1.368 . S
C834 C830 1.368 . S
C834 C833 1.523 . S
H835 C810 0.950 . S
H836 C812 0.950 . S
H837 C813 0.949 . S
H838 C815 0.950 . S
H839 C817 0.950 . S
C840 C841 1.349 . S
C840 C842 1.327 . S
C840 H865 0.950 . S
C841 C840 1.349 . S
C841 C857 1.349 . S
C842 C840 1.327 . S
C842 C861 1.429 . S
C842 H866 0.950 . S
C843 C860 1.574 . S
C843 C862 1.368 . S
C843 H867 0.949 . S
H844 C848 0.949 . S
C845 C846 1.349 . S
C845 C847 1.327 . S
C845 H868 0.950 . S
C846 C845 1.349 . S
C846 C858 1.349 . S
C847 C845 1.327 . S
C847 C863 1.429 . S
C847 H869 0.950 . S
C848 H844 0.949 . S
C848 C856 1.574 . S
C848 C864 1.368 . S
H849 C857 0.950 . S
H850 C855 0.950 . S
H851 C856 0.949 . S
H852 C858 0.950 . S
H853 C859 0.950 . S
H854 C860 0.949 . S
C855 H850 0.950 . S
C855 C857 1.327 . S
C855 C861 1.429 . S
C856 C848 1.574 . S
C856 H851 0.949 . S
C856 C862 1.368 . S
C857 C841 1.349 . S
C857 H849 0.950 . S
C857 C855 1.327 . S
C858 C846 1.349 . S
C858 H852 0.950 . S
C858 C859 1.327 . S
C859 H853 0.950 . S
C859 C858 1.327 . S
C859 C863 1.429 . S
C860 C843 1.574 . S
C860 H854 0.949 . S
C860 C864 1.368 . S
C861 C842 1.429 . S
C861 C855 1.429 . S
C861 C862 1.523 . S
C862 C843 1.368 . S
C862 C856 1.368 . S
C862 C861 1.523 . S
C863 C847 1.429 . S
C863 C859 1.429 . S
C863 C864 1.523 . S
C864 C848 1.368 . S
C864 C860 1.368 . S
C864 C863 1.523 . S
H865 C840 0.950 . S
H866 C842 0.950 . S
H867 C843 0.949 . S
H868 C845 0.950 . S
H869 C847 0.950 . S
C870 C871 1.349 . S
C870 C872 1.327 . S
C870 H895 0.950 . S
C871 C870 1.349 . S
C871 C887 1.349 . S
C872 C870 1.327 . S
C872 C891 1.429 . S
C872 H896 0.950 . S
C873 C890 1.574 . S
C873 C892 1.368 . S
C873 H897 0.949 . S
H874 C878 0.949 . S
C875 C876 1.349 . S
C875 C877 1.327 . S
C875 H898 0.950 . S
C876 C875 1.349 . S
C876 C888 1.349 . S
C877 C875 1.327 . S
C877 C893 1.429 . S
C877 H899 0.950 . S
C878 H874 0.949 . S
C878 C886 1.574 . S
C878 C894 1.368 . S
H879 C887 0.950 . S
H880 C885 0.950 . S
H881 C886 0.949 . S
H882 C888 0.950 . S
H883 C889 0.950 . S
H884 C890 0.949 . S
C885 H880 0.950 . S
C885 C887 1.327 . S
C885 C891 1.429 . S
C886 C878 1.574 . S
C886 H881 0.949 . S
C886 C892 1.368 . S
C887 C871 1.349 . S
C887 H879 0.950 . S
C887 C885 1.327 . S
C888 C876 1.349 . S
C888 H882 0.950 . S
C888 C889 1.327 . S
C889 H883 0.950 . S
C889 C888 1.327 . S
C889 C893 1.429 . S
C890 C873 1.574 . S
C890 H884 0.949 . S
C890 C894 1.368 . S
C891 C872 1.429 . S
C891 C885 1.429 . S
C891 C892 1.523 . S
C892 C873 1.368 . S
C892 C886 1.368 . S
C892 C891 1.523 . S
C893 C877 1.429 . S
C893 C889 1.429 . S
C893 C894 1.523 . S
C894 C878 1.368 . S
C894 C890 1.368 . S
C894 C893 1.523 . S
H895 C870 0.950 . S
H896 C872 0.950 . S
H897 C873 0.949 . S
H898 C875 0.950 . S
H899 C877 0.950 . S
C900 C901 1.349 . S
C900 C902 1.327 . S
C900 H925 0.950 . S
C901 C900 1.349 . S
C901 C917 1.349 . S
C902 C900 1.327 . S
C902 C921 1.429 . S
C902 H926 0.950 . S
C903 C920 1.574 . S
C903 C922 1.368 . S
C903 H927 0.949 . S
H904 C908 0.949 . S
C905 C906 1.349 . S
C905 C907 1.327 . S
C905 H928 0.950 . S
C906 C905 1.349 . S
C906 C918 1.349 . S
C907 C905 1.327 . S
C907 C923 1.429 . S
C907 H929 0.950 . S
C908 H904 0.949 . S
C908 C916 1.574 . S
C908 C924 1.368 . S
H909 C917 0.950 . S
H910 C915 0.950 . S
H911 C916 0.949 . S
H912 C918 0.950 . S
H913 C919 0.950 . S
H914 C920 0.949 . S
C915 H910 0.950 . S
C915 C917 1.327 . S
C915 C921 1.429 . S
C916 C908 1.574 . S
C916 H911 0.949 . S
C916 C922 1.368 . S
C917 C901 1.349 . S
C917 H909 0.950 . S
C917 C915 1.327 . S
C918 C906 1.349 . S
C918 H912 0.950 . S
C918 C919 1.327 . S
C919 H913 0.950 . S
C919 C918 1.327 . S
C919 C923 1.429 . S
C920 C903 1.574 . S
C920 H914 0.949 . S
C920 C924 1.368 . S
C921 C902 1.429 . S
C921 C915 1.429 . S
C921 C922 1.523 . S
C922 C903 1.368 . S
C922 C916 1.368 . S
C922 C921 1.523 . S
C923 C907 1.429 . S
C923 C919 1.429 . S
C923 C924 1.523 . S
C924 C908 1.368 . S
C924 C920 1.368 . S
C924 C923 1.523 . S
H925 C900 0.950 . S
H926 C902 0.950 . S
H927 C903 0.949 . S
H928 C905 0.950 . S
H929 C907 0.950 . S
C930 C931 1.349 . S
C930 C932 1.327 . S
C930 H955 0.950 . S
C931 C930 1.349 . S
C931 C947 1.349 . S
C932 C930 1.327 . S
C932 C951 1.429 . S
C932 H956 0.950 . S
C933 C950 1.574 1_545 S
C933 C952 1.368 . S
C933 H957 0.949 . S
H934 C938 0.949 . S
C935 C936 1.349 . S
C935 C937 1.327 . S
C935 H958 0.950 . S
C936 C935 1.349 . S
C936 C948 1.349 . S
C937 C935 1.327 . S
C937 C953 1.429 . S
C937 H959 0.950 . S
C938 H934 0.949 . S
C938 C946 1.574 . S
C938 C954 1.368 1_545 S
H939 C947 0.950 . S
H940 C945 0.950 . S
H941 C946 0.949 . S
H942 C948 0.950 . S
H943 C949 0.950 . S
H944 C950 0.949 . S
C945 H940 0.950 . S
C945 C947 1.327 . S
C945 C951 1.429 . S
C946 C938 1.574 . S
C946 H941 0.949 . S
C946 C952 1.368 . S
C947 C931 1.349 . S
C947 H939 0.950 . S
C947 C945 1.327 . S
C948 C936 1.349 . S
C948 H942 0.950 . S
C948 C949 1.327 . S
C949 H943 0.950 . S
C949 C948 1.327 . S
C949 C953 1.429 . S
C950 C933 1.574 1_565 S
C950 H944 0.949 . S
C950 C954 1.368 . S
C951 C932 1.429 . S
C951 C945 1.429 . S
C951 C952 1.523 . S
C952 C933 1.368 . S
C952 C946 1.368 . S
C952 C951 1.523 . S
C953 C937 1.429 . S
C953 C949 1.429 . S
C953 C954 1.523 . S
C954 C938 1.368 1_565 S
C954 C950 1.368 . S
C954 C953 1.523 . S
H955 C930 0.950 . S
H956 C932 0.950 . S
H957 C933 0.949 . S
H958 C935 0.950 . S
H959 C937 0.950 . S
C960 C961 1.349 . S
C960 C962 1.327 . S
C960 H985 0.950 . S
C961 C960 1.349 . S
C961 C977 1.349 . S
C962 C960 1.327 . S
C962 C981 1.429 . S
C962 H986 0.950 . S
C963 C980 1.574 1_455 S
C963 C982 1.368 . S
C963 H987 0.949 . S
H964 C968 0.949 . S
C965 C966 1.349 . S
C965 C967 1.327 . S
C965 H988 0.950 . S
C966 C965 1.349 . S
C966 C978 1.349 . S
C967 C965 1.327 . S
C967 C983 1.429 . S
C967 H989 0.950 . S
C968 H964 0.949 . S
C968 C976 1.574 1_655 S
C968 C984 1.368 . S
H969 C977 0.950 . S
H970 C975 0.950 . S
H971 C976 0.949 . S
H972 C978 0.950 . S
H973 C979 0.950 . S
H974 C980 0.949 . S
C975 H970 0.950 . S
C975 C977 1.327 . S
C975 C981 1.429 . S
C976 C968 1.574 1_455 S
C976 H971 0.949 . S
C976 C982 1.368 . S
C977 C961 1.349 . S
C977 H969 0.950 . S
C977 C975 1.327 . S
C978 C966 1.349 . S
C978 H972 0.950 . S
C978 C979 1.327 . S
C979 H973 0.950 . S
C979 C978 1.327 . S
C979 C983 1.429 . S
C980 C963 1.574 1_655 S
C980 H974 0.949 . S
C980 C984 1.368 . S
C981 C962 1.429 . S
C981 C975 1.429 . S
C981 C982 1.523 . S
C982 C963 1.368 . S
C982 C976 1.368 . S
C982 C981 1.523 . S
C983 C967 1.429 . S
C983 C979 1.429 . S
C983 C984 1.523 . S
C984 C968 1.368 . S
C984 C980 1.368 . S
C984 C983 1.523 . S
H985 C960 0.950 . S
H986 C962 0.950 . S
H987 C963 0.949 . S
H988 C965 0.950 . S
H989 C967 0.950 . S
C990 C991 1.349 . S
C990 C992 1.327 . S
C990 H1015 0.950 . S
C991 C990 1.349 . S
C991 C1007 1.349 . S
C992 C990 1.327 . S
C992 C1011 1.429 . S
C992 H1016 0.950 . S
C993 C1010 1.574 . S
C993 C1012 1.368 . S
C993 H1017 0.949 . S
H994 C998 0.949 . S
C995 C996 1.349 . S
C995 C997 1.327 . S
C995 H1018 0.950 . S
C996 C995 1.349 . S
C996 C1008 1.349 . S
C997 C995 1.327 . S
C997 C1013 1.429 . S
C997 H1019 0.950 . S
C998 H994 0.949 . S
C998 C1006 1.574 . S
C998 C1014 1.368 . S
H999 C1007 0.950 . S
H1000 C1005 0.950 . S
H1001 C1006 0.949 . S
H1002 C1008 0.950 . S
H1003 C1009 0.950 . S
H1004 C1010 0.949 . S
C1005 H1000 0.950 . S
C1005 C1007 1.327 . S
C1005 C1011 1.429 . S
C1006 C998 1.574 . S
C1006 H1001 0.949 . S
C1006 C1012 1.368 . S
C1007 C991 1.349 . S
C1007 H999 0.950 . S
C1007 C1005 1.327 . S
C1008 C996 1.349 . S
C1008 H1002 0.950 . S
C1008 C1009 1.327 . S
C1009 H1003 0.950 . S
C1009 C1008 1.327 . S
C1009 C1013 1.429 . S
C1010 C993 1.574 . S
C1010 H1004 0.949 . S
C1010 C1014 1.368 . S
C1011 C992 1.429 . S
C1011 C1005 1.429 . S
C1011 C1012 1.523 . S
C1012 C993 1.368 . S
C1012 C1006 1.368 . S
C1012 C1011 1.523 . S
C1013 C997 1.429 . S
C1013 C1009 1.429 . S
C1013 C1014 1.523 . S
C1014 C998 1.368 . S
C1014 C1010 1.368 . S
C1014 C1013 1.523 . S
H1015 C990 0.950 . S
H1016 C992 0.950 . S
H1017 C993 0.949 . S
H1018 C995 0.950 . S
H1019 C997 0.950 . S
C1020 C1021 1.349 . S
C1020 C1022 1.327 . S
C1020 H1045 0.950 . S
C1021 C1020 1.349 . S
C1021 C1037 1.349 . S
C1022 C1020 1.327 . S
C1022 C1041 1.429 . S
C1022 H1046 0.950 . S
C1023 C1040 1.574 . S
C1023 C1042 1.368 . S
C1023 H1047 0.949 . S
H1024 C1028 0.949 . S
C1025 C1026 1.349 . S
C1025 C1027 1.327 . S
C1025 H1048 0.950 . S
C1026 C1025 1.349 . S
C1026 C1038 1.349 . S
C1027 C1025 1.327 . S
C1027 C1043 1.429 . S
C1027 H1049 0.950 . S
C1028 H1024 0.949 . S
C1028 C1036 1.574 . S
C1028 C1044 1.368 . S
H1029 C1037 0.950 . S
H1030 C1035 0.950 . S
H1031 C1036 0.949 . S
H1032 C1038 0.950 . S
H1033 C1039 0.950 . S
H1034 C1040 0.949 . S
C1035 H1030 0.950 . S
C1035 C1037 1.327 . S
C1035 C1041 1.429 . S
C1036 C1028 1.574 . S
C1036 H1031 0.949 . S
C1036 C1042 1.368 . S
C1037 C1021 1.349 . S
C1037 H1029 0.950 . S
C1037 C1035 1.327 . S
C1038 C1026 1.349 . S
C1038 H1032 0.950 . S
C1038 C1039 1.327 . S
C1039 H1033 0.950 . S
C1039 C1038 1.327 . S
C1039 C1043 1.429 . S
C1040 C1023 1.574 . S
C1040 H1034 0.949 . S
C1040 C1044 1.368 . S
C1041 C1022 1.429 . S
C1041 C1035 1.429 . S
C1041 C1042 1.523 . S
C1042 C1023 1.368 . S
C1042 C1036 1.368 . S
C1042 C1041 1.523 . S
C1043 C1027 1.429 . S
C1043 C1039 1.429 . S
C1043 C1044 1.523 . S
C1044 C1028 1.368 . S
C1044 C1040 1.368 . S
C1044 C1043 1.523 . S
H1045 C1020 0.950 . S
H1046 C1022 0.950 . S
H1047 C1023 0.949 . S
H1048 C1025 0.950 . S
H1049 C1027 0.950 . S
C1050 C1051 1.349 . S
C1050 C1052 1.327 . S
C1050 H1075 0.950 . S
C1051 C1050 1.349 . S
C1051 C1067 1.349 . S
C1052 C1050 1.327 . S
C1052 C1071 1.429 . S
C1052 H1076 0.950 . S
C1053 C1070 1.574 . S
C1053 C1072 1.368 . S
C1053 H1077 0.949 . S
H1054 C1058 0.949 . S
C1055 C1056 1.349 . S
C1055 C1057 1.327 . S
C1055 H1078 0.950 . S
C1056 C1055 1.349 . S
C1056 C1068 1.349 . S
C1057 C1055 1.327 . S
C1057 C1073 1.429 . S
C1057 H1079 0.950 . S
C1058 H1054 0.949 . S
C1058 C1066 1.574 . S
C1058 C1074 1.368 . S
H1059 C1067 0.950 . S
H1060 C1065 0.950 . S
H1061 C1066 0.949 . S
H1062 C1068 0.950 . S
H1063 C1069 0.950 . S
H1064 C1070 0.949 . S
C1065 H1060 0.950 . S
C1065 C1067 1.327 . S
C1065 C1071 1.429 . S
C1066 C1058 1.574 . S
C1066 H1061 0.949 . S
C1066 C1072 1.368 . S
C1067 C1051 1.349 . S
C1067 H1059 0.950 . S
C1067 C1065 1.327 . S
C1068 C1056 1.349 . S
C1068 H1062 0.950 . S
C1068 C1069 1.327 . S
C1069 H1063 0.950 . S
C1069 C1068 1.327 . S
C1069 C1073 1.429 . S
C1070 C1053 1.574 . S
C1070 H1064 0.949 . S
C1070 C1074 1.368 . S
C1071 C1052 1.429 . S
C1071 C1065 1.429 . S
C1071 C1072 1.523 . S
C1072 C1053 1.368 . S
C1072 C1066 1.368 . S
C1072 C1071 1.523 . S
C1073 C1057 1.429 . S
C1073 C1069 1.429 . S
C1073 C1074 1.523 . S
C1074 C1058 1.368 . S
C1074 C1070 1.368 . S
C1074 C1073 1.523 . S
H1075 C1050 0.950 . S
H1076 C1052 0.950 . S
H1077 C1053 0.949 . S
H1078 C1055 0.950 . S
H1079 C1057 0.950 . S
C1080 C1081 1.349 . S
C1080 C1082 1.327 . S
C1080 H1105 0.950 . S
C1081 C1080 1.349 . S
C1081 C1097 1.349 . S
C1082 C1080 1.327 . S
C1082 C1101 1.429 . S
C1082 H1106 0.950 . S
C1083 C1100 1.574 . S
C1083 C1102 1.368 . S
C1083 H1107 0.949 . S
H1084 C1088 0.949 . S
C1085 C1086 1.349 . S
C1085 C1087 1.327 . S
C1085 H1108 0.950 . S
C1086 C1085 1.349 . S
C1086 C1098 1.349 . S
C1087 C1085 1.327 . S
C1087 C1103 1.429 . S
C1087 H1109 0.950 . S
C1088 H1084 0.949 . S
C1088 C1096 1.574 . S
C1088 C1104 1.368 . S
H1089 C1097 0.950 . S
H1090 C1095 0.950 . S
H1091 C1096 0.949 . S
H1092 C1098 0.950 . S
H1093 C1099 0.950 . S
H1094 C1100 0.949 . S
C1095 H1090 0.950 . S
C1095 C1097 1.327 . S
C1095 C1101 1.429 . S
C1096 C1088 1.574 . S
C1096 H1091 0.949 . S
C1096 C1102 1.368 . S
C1097 C1081 1.349 . S
C1097 H1089 0.950 . S
C1097 C1095 1.327 . S
C1098 C1086 1.349 . S
C1098 H1092 0.950 . S
C1098 C1099 1.327 . S
C1099 H1093 0.950 . S
C1099 C1098 1.327 . S
C1099 C1103 1.429 . S
C1100 C1083 1.574 . S
C1100 H1094 0.949 . S
C1100 C1104 1.368 . S
C1101 C1082 1.429 . S
C1101 C1095 1.429 . S
C1101 C1102 1.523 . S
C1102 C1083 1.368 . S
C1102 C1096 1.368 . S
C1102 C1101 1.523 . S
C1103 C1087 1.429 . S
C1103 C1099 1.429 . S
C1103 C1104 1.523 . S
C1104 C1088 1.368 . S
C1104 C1100 1.368 . S
C1104 C1103 1.523 . S
H1105 C1080 0.950 . S
H1106 C1082 0.950 . S
H1107 C1083 0.949 . S
H1108 C1085 0.950 . S
H1109 C1087 0.950 . S
C1110 C1111 1.349 . S
C1110 C1112 1.327 . S
C1110 H1135 0.950 . S
C1111 C1110 1.349 . S
C1111 C1127 1.349 . S
C1112 C1110 1.327 . S
C1112 C1131 1.429 . S
C1112 H1136 0.950 . S
C1113 C1130 1.574 . S
C1113 C1132 1.368 . S
C1113 H1137 0.949 . S
H1114 C1118 0.949 . S
C1115 C1116 1.349 . S
C1115 C1117 1.327 . S
C1115 H1138 0.950 . S
C1116 C1115 1.349 . S
C1116 C1128 1.349 . S
C1117 C1115 1.327 . S
C1117 C1133 1.429 . S
C1117 H1139 0.950 . S
C1118 H1114 0.949 . S
C1118 C1126 1.574 . S
C1118 C1134 1.368 . S
H1119 C1127 0.950 . S
H1120 C1125 0.950 . S
H1121 C1126 0.949 . S
H1122 C1128 0.950 . S
H1123 C1129 0.950 . S
H1124 C1130 0.949 . S
C1125 H1120 0.950 . S
C1125 C1127 1.327 . S
C1125 C1131 1.429 . S
C1126 C1118 1.574 . S
C1126 H1121 0.949 . S
C1126 C1132 1.368 . S
C1127 C1111 1.349 . S
C1127 H1119 0.950 . S
C1127 C1125 1.327 . S
C1128 C1116 1.349 . S
C1128 H1122 0.950 . S
C1128 C1129 1.327 . S
C1129 H1123 0.950 . S
C1129 C1128 1.327 . S
C1129 C1133 1.429 . S
C1130 C1113 1.574 . S
C1130 H1124 0.949 . S
C1130 C1134 1.368 . S
C1131 C1112 1.429 . S
C1131 C1125 1.429 . S
C1131 C1132 1.523 . S
C1132 C1113 1.368 . S
C1132 C1126 1.368 . S
C1132 C1131 1.523 . S
C1133 C1117 1.429 . S
C1133 C1129 1.429 . S
C1133 C1134 1.523 . S
C1134 C1118 1.368 . S
C1134 C1130 1.368 . S
C1134 C1133 1.523 . S
H1135 C1110 0.950 . S
H1136 C1112 0.950 . S
H1137 C1113 0.949 . S
H1138 C1115 0.950 . S
H1139 C1117 0.950 . S
C1140 C1141 1.349 . S
C1140 C1142 1.327 . S
C1140 H1165 0.950 . S
C1141 C1140 1.349 . S
C1141 C1157 1.349 . S
C1142 C1140 1.327 . S
C1142 C1161 1.429 . S
C1142 H1166 0.950 . S
C1143 C1160 1.574 . S
C1143 C1162 1.368 . S
C1143 H1167 0.949 . S
H1144 C1148 0.949 . S
C1145 C1146 1.349 . S
C1145 C1147 1.327 . S
C1145 H1168 0.950 . S
C1146 C1145 1.349 . S
C1146 C1158 1.349 . S
C1147 C1145 1.327 . S
C1147 C1163 1.429 . S
C1147 H1169 0.950 . S
C1148 H1144 0.949 . S
C1148 C1156 1.574 . S
C1148 C1164 1.368 . S
H1149 C1157 0.950 . S
H1150 C1155 0.950 . S
H1151 C1156 0.949 . S
H1152 C1158 0.950 . S
H1153 C1159 0.950 . S
H1154 C1160 0.949 . S
C1155 H1150 0.950 . S
C1155 C1157 1.327 . S
C1155 C1161 1.429 . S
C1156 C1148 1.574 . S
C1156 H1151 0.949 . S
C1156 C1162 1.368 . S
C1157 C1141 1.349 . S
C1157 H1149 0.950 . S
C1157 C1155 1.327 . S
C1158 C1146 1.349 . S
C1158 H1152 0.950 . S
C1158 C1159 1.327 . S
C1159 H1153 0.950 . S
C1159 C1158 1.327 . S
C1159 C1163 1.429 . S
C1160 C1143 1.574 . S
C1160 H1154 0.949 . S
C1160 C1164 1.368 . S
C1161 C1142 1.429 . S
C1161 C1155 1.429 . S
C1161 C1162 1.523 . S
C1162 C1143 1.368 . S
C1162 C1156 1.368 . S
C1162 C1161 1.523 . S
C1163 C1147 1.429 . S
C1163 C1159 1.429 . S
C1163 C1164 1.523 . S
C1164 C1148 1.368 . S
C1164 C1160 1.368 . S
C1164 C1163 1.523 . S
H1165 C1140 0.950 . S
H1166 C1142 0.950 . S
H1167 C1143 0.949 . S
H1168 C1145 0.950 . S
H1169 C1147 0.950 . S
C1170 C1171 1.349 . S
C1170 C1172 1.327 . S
C1170 H1195 0.950 . S
C1171 C1170 1.349 . S
C1171 C1187 1.349 . S
C1172 C1170 1.327 . S
C1172 C1191 1.429 . S
C1172 H1196 0.950 . S
C1173 C1190 1.574 . S
C1173 C1192 1.368 . S
C1173 H1197 0.949 . S
H1174 C1178 0.949 . S
C1175 C1176 1.349 . S
C1175 C1177 1.327 . S
C1175 H1198 0.950 . S
C1176 C1175 1.349 . S
C1176 C1188 1.349 . S
C1177 C1175 1.327 . S
C1177 C1193 1.429 . S
C1177 H1199 0.950 . S
C1178 H1174 0.949 . S
C1178 C1186 1.574 . S
C1178 C1194 1.368 . S
H1179 C1187 0.950 . S
H1180 C1185 0.950 . S
H1181 C1186 0.949 . S
H1182 C1188 0.950 . S
H1183 C1189 0.950 . S
H1184 C1190 0.949 . S
C1185 H1180 0.950 . S
C1185 C1187 1.327 . S
C1185 C1191 1.429 . S
C1186 C1178 1.574 . S
C1186 H1181 0.949 . S
C1186 C1192 1.368 . S
C1187 C1171 1.349 . S
C1187 H1179 0.950 . S
C1187 C1185 1.327 . S
C1188 C1176 1.349 . S
C1188 H1182 0.950 . S
C1188 C1189 1.327 . S
C1189 H1183 0.950 . S
C1189 C1188 1.327 . S
C1189 C1193 1.429 . S
C1190 C1173 1.574 . S
C1190 H1184 0.949 . S
C1190 C1194 1.368 . S
C1191 C1172 1.429 . S
C1191 C1185 1.429 . S
C1191 C1192 1.523 . S
C1192 C1173 1.368 . S
C1192 C1186 1.368 . S
C1192 C1191 1.523 . S
C1193 C1177 1.429 . S
C1193 C1189 1.429 . S
C1193 C1194 1.523 . S
C1194 C1178 1.368 . S
C1194 C1190 1.368 . S
C1194 C1193 1.523 . S
H1195 C1170 0.950 . S
H1196 C1172 0.950 . S
H1197 C1173 0.949 . S
H1198 C1175 0.950 . S
H1199 C1177 0.950 . S
C1200 C1201 1.349 . S
C1200 C1202 1.327 . S
C1200 H1225 0.950 . S
C1201 C1200 1.349 . S
C1201 C1217 1.349 . S
C1202 C1200 1.327 . S
C1202 C1221 1.429 . S
C1202 H1226 0.950 . S
C1203 C1220 1.574 1_565 S
C1203 C1222 1.368 . S
C1203 H1227 0.949 . S
H1204 C1208 0.949 . S
C1205 C1206 1.349 . S
C1205 C1207 1.327 . S
C1205 H1228 0.950 . S
C1206 C1205 1.349 . S
C1206 C1218 1.349 . S
C1207 C1205 1.327 . S
C1207 C1223 1.429 . S
C1207 H1229 0.950 . S
C1208 H1204 0.949 . S
C1208 C1216 1.574 1_545 S
C1208 C1224 1.368 . S
H1209 C1217 0.950 . S
H1210 C1215 0.950 . S
H1211 C1216 0.949 . S
H1212 C1218 0.950 . S
H1213 C1219 0.950 . S
H1214 C1220 0.949 . S
C1215 H1210 0.950 . S
C1215 C1217 1.327 . S
C1215 C1221 1.429 . S
C1216 C1208 1.574 1_565 S
C1216 H1211 0.949 . S
C1216 C1222 1.368 . S
C1217 C1201 1.349 . S
C1217 H1209 0.950 . S
C1217 C1215 1.327 . S
C1218 C1206 1.349 . S
C1218 H1212 0.950 . S
C1218 C1219 1.327 . S
C1219 H1213 0.950 . S
C1219 C1218 1.327 . S
C1219 C1223 1.429 . S
C1220 C1203 1.574 1_545 S
C1220 H1214 0.949 . S
C1220 C1224 1.368 . S
C1221 C1202 1.429 . S
C1221 C1215 1.429 . S
C1221 C1222 1.523 . S
C1222 C1203 1.368 . S
C1222 C1216 1.368 . S
C1222 C1221 1.523 . S
C1223 C1207 1.429 . S
C1223 C1219 1.429 . S
C1223 C1224 1.523 . S
C1224 C1208 1.368 . S
C1224 C1220 1.368 . S
C1224 C1223 1.523 . S
H1225 C1200 0.950 . S
H1226 C1202 0.950 . S
H1227 C1203 0.949 . S
H1228 C1205 0.950 . S
H1229 C1207 0.950 . S
C1230 C1231 1.349 . S
C1230 C1232 1.327 . S
C1230 H1255 0.950 . S
C1231 C1230 1.349 . S
C1231 C1247 1.349 . S
C1232 C1230 1.327 . S
C1232 C1251 1.429 . S
C1232 H1256 0.950 . S
C1233 C1250 1.557 1_455 S
C1233 C1252 1.368 . S
C1233 H1257 0.949 . S
H1234 C1238 0.945 1_655 S
C1235 C1236 1.349 . S
C1235 C1237 1.327 . S
C1235 H1258 0.950 . S
C1236 C1235 1.349 . S
C1236 C1248 1.349 . S
C1237 C1235 1.327 . S
C1237 C1253 1.429 . S
C1237 H1259 0.950 . S
C1238 H1234 0.945 1_455 S
C1238 C1246 1.574 . S
C1238 C1254 1.368 1_455 S
H1239 C1247 0.950 . S
H1240 C1245 0.950 . S
H1241 C1246 0.949 . S
H1242 C1248 0.950 . S
H1243 C1249 0.950 . S
H1244 C1250 0.964 . S
C1245 H1240 0.950 . S
C1245 C1247 1.327 . S
C1245 C1251 1.429 . S
C1246 C1238 1.574 . S
C1246 H1241 0.949 . S
C1246 C1252 1.368 . S
C1247 C1231 1.349 . S
C1247 H1239 0.950 . S
C1247 C1245 1.327 . S
C1248 C1236 1.349 . S
C1248 H1242 0.950 . S
C1248 C1249 1.327 . S
C1249 H1243 0.950 . S
C1249 C1248 1.327 . S
C1249 C1253 1.429 . S
C1250 C1233 1.557 1_655 S
C1250 H1244 0.964 . S
C1250 C1254 1.369 . S
C1251 C1232 1.429 . S
C1251 C1245 1.429 . S
C1251 C1252 1.523 . S
C1252 C1233 1.368 . S
C1252 C1246 1.368 . S
C1252 C1251 1.523 . S
C1253 C1237 1.429 . S
C1253 C1249 1.429 . S
C1253 C1254 1.523 . S
C1254 C1238 1.368 1_655 S
C1254 C1250 1.369 . S
C1254 C1253 1.523 . S
H1255 C1230 0.950 . S
H1256 C1232 0.950 . S
H1257 C1233 0.949 . S
H1258 C1235 0.950 . S
H1259 C1237 0.950 . S
C1260 C1261 1.349 1_565 S
C1260 C1262 1.327 . S
C1260 H1285 0.950 . S
C1261 C1260 1.349 1_545 S
C1261 C1277 1.349 . S
C1262 C1260 1.327 . S
C1262 C1281 1.429 1_565 S
C1262 H1286 0.950 . S
C1263 C1280 1.574 1_554 S
C1263 C1282 1.368 . S
C1263 H1287 0.949 . S
H1264 C1268 0.949 . S
C1265 C1266 1.349 . S
C1265 C1267 1.327 . S
C1265 H1288 0.950 . S
C1266 C1265 1.349 . S
C1266 C1278 1.349 1_545 S
C1267 C1265 1.327 . S
C1267 C1283 1.429 . S
C1267 H1289 0.950 . S
C1268 H1264 0.949 . S
C1268 C1276 1.574 1_556 S
C1268 C1284 1.368 1_565 S
H1269 C1277 0.950 . S
H1270 C1275 0.950 . S
H1271 C1276 0.949 . S
H1272 C1278 0.950 . S
H1273 C1279 0.950 . S
H1274 C1280 0.949 . S
C1275 H1270 0.950 . S
C1275 C1277 1.327 . S
C1275 C1281 1.429 . S
C1276 C1268 1.574 1_554 S
C1276 H1271 0.949 . S
C1276 C1282 1.368 1_565 S
C1277 C1261 1.349 . S
C1277 H1269 0.950 . S
C1277 C1275 1.327 . S
C1278 C1266 1.349 1_565 S
C1278 H1272 0.950 . S
C1278 C1279 1.327 . S
C1279 H1273 0.950 . S
C1279 C1278 1.327 . S
C1279 C1283 1.429 1_565 S
C1280 C1263 1.574 1_556 S
C1280 H1274 0.949 . S
C1280 C1284 1.368 . S
C1281 C1262 1.429 1_545 S
C1281 C1275 1.429 . S
C1281 C1282 1.523 . S
C1282 C1263 1.368 . S
C1282 C1276 1.368 1_545 S
C1282 C1281 1.523 . S
C1283 C1267 1.429 . S
C1283 C1279 1.429 1_545 S
C1283 C1284 1.523 . S
C1284 C1268 1.368 1_545 S
C1284 C1280 1.368 . S
C1284 C1283 1.523 . S
H1285 C1260 0.950 . S
H1286 C1262 0.950 . S
H1287 C1263 0.949 . S
H1288 C1265 0.950 . S
H1289 C1267 0.950 . S
C1290 C1291 1.349 . S
C1290 C1292 1.327 . S
C1290 H1315 0.950 . S
C1291 C1290 1.349 . S
C1291 C1307 1.349 . S
C1292 C1290 1.327 . S
C1292 C1311 1.429 . S
C1292 H1316 0.950 . S
C1293 C1310 1.574 1_556 S
C1293 C1312 1.368 . S
C1293 H1317 0.949 . S
H1294 C1298 0.949 . S
C1295 C1296 1.349 . S
C1295 C1297 1.327 . S
C1295 H1318 0.950 . S
C1296 C1295 1.349 . S
C1296 C1308 1.349 . S
C1297 C1295 1.327 . S
C1297 C1313 1.429 . S
C1297 H1319 0.950 . S
C1298 H1294 0.949 . S
C1298 C1306 1.574 1_554 S
C1298 C1314 1.368 . S
H1299 C1307 0.950 . S
H1300 C1305 0.950 . S
H1301 C1306 0.949 . S
H1302 C1308 0.950 . S
H1303 C1309 0.950 . S
H1304 C1310 0.949 . S
C1305 H1300 0.950 . S
C1305 C1307 1.327 . S
C1305 C1311 1.429 . S
C1306 C1298 1.574 1_556 S
C1306 H1301 0.949 . S
C1306 C1312 1.368 . S
C1307 C1291 1.349 . S
C1307 H1299 0.950 . S
C1307 C1305 1.327 . S
C1308 C1296 1.349 . S
C1308 H1302 0.950 . S
C1308 C1309 1.327 . S
C1309 H1303 0.950 . S
C1309 C1308 1.327 . S
C1309 C1313 1.429 . S
C1310 C1293 1.574 1_554 S
C1310 H1304 0.949 . S
C1310 C1314 1.368 . S
C1311 C1292 1.429 . S
C1311 C1305 1.429 . S
C1311 C1312 1.523 . S
C1312 C1293 1.368 . S
C1312 C1306 1.368 . S
C1312 C1311 1.523 . S
C1313 C1297 1.429 . S
C1313 C1309 1.429 . S
C1313 C1314 1.523 . S
C1314 C1298 1.368 . S
C1314 C1310 1.368 . S
C1314 C1313 1.523 . S
H1315 C1290 0.950 . S
H1316 C1292 0.950 . S
H1317 C1293 0.949 . S
H1318 C1295 0.950 . S
H1319 C1297 0.950 . S
C1320 C1321 1.349 . S
C1320 C1322 1.327 . S
C1320 H1345 0.950 . S
C1321 C1320 1.349 . S
C1321 C1337 1.349 . S
C1322 C1320 1.327 . S
C1322 C1341 1.429 . S
C1322 H1346 0.950 . S
C1323 C1340 1.574 1_556 S
C1323 C1342 1.368 . S
C1323 H1347 0.949 . S
H1324 C1328 0.949 . S
C1325 C1326 1.349 . S
C1325 C1327 1.327 . S
C1325 H1348 0.950 . S
C1326 C1325 1.349 . S
C1326 C1338 1.349 . S
C1327 C1325 1.327 . S
C1327 C1343 1.429 . S
C1327 H1349 0.950 . S
C1328 H1324 0.949 . S
C1328 C1336 1.574 1_554 S
C1328 C1344 1.368 . S
H1329 C1337 0.950 . S
H1330 C1335 0.950 . S
H1331 C1336 0.949 . S
H1332 C1338 0.950 . S
H1333 C1339 0.950 . S
H1334 C1340 0.949 . S
C1335 H1330 0.950 . S
C1335 C1337 1.327 . S
C1335 C1341 1.429 . S
C1336 C1328 1.574 1_556 S
C1336 H1331 0.949 . S
C1336 C1342 1.368 . S
C1337 C1321 1.349 . S
C1337 H1329 0.950 . S
C1337 C1335 1.327 . S
C1338 C1326 1.349 . S
C1338 H1332 0.950 . S
C1338 C1339 1.327 . S
C1339 H1333 0.950 . S
C1339 C1338 1.327 . S
C1339 C1343 1.429 . S
C1340 C1323 1.574 1_554 S
C1340 H1334 0.949 . S
C1340 C1344 1.368 . S
C1341 C1322 1.429 . S
C1341 C1335 1.429 . S
C1341 C1342 1.523 . S
C1342 C1323 1.368 . S
C1342 C1336 1.368 . S
C1342 C1341 1.523 . S
C1343 C1327 1.429 . S
C1343 C1339 1.429 . S
C1343 C1344 1.523 . S
C1344 C1328 1.368 . S
C1344 C1340 1.368 . S
C1344 C1343 1.523 . S
H1345 C1320 0.950 . S
H1346 C1322 0.950 . S
H1347 C1323 0.949 . S
H1348 C1325 0.950 . S
H1349 C1327 0.950 . S
C1350 C1351 1.349 . S
C1350 C1352 1.327 . S
C1350 H1375 0.950 . S
C1351 C1350 1.349 . S
C1351 C1367 1.349 . S
C1352 C1350 1.327 . S
C1352 C1371 1.429 . S
C1352 H1376 0.950 . S
C1353 C1370 1.574 . S
C1353 C1372 1.368 . S
C1353 H1377 0.949 . S
H1354 C1358 0.949 . S
C1355 C1356 1.349 . S
C1355 C1357 1.327 . S
C1355 H1378 0.950 . S
C1356 C1355 1.349 . S
C1356 C1368 1.349 . S
C1357 C1355 1.327 . S
C1357 C1373 1.429 . S
C1357 H1379 0.950 . S
C1358 H1354 0.949 . S
C1358 C1366 1.574 . S
C1358 C1374 1.368 . S
H1359 C1367 0.950 . S
H1360 C1365 0.950 . S
H1361 C1366 0.949 . S
H1362 C1368 0.950 . S
H1363 C1369 0.950 . S
H1364 C1370 0.949 . S
C1365 H1360 0.950 . S
C1365 C1367 1.327 . S
C1365 C1371 1.429 . S
C1366 C1358 1.574 . S
C1366 H1361 0.949 . S
C1366 C1372 1.368 . S
C1367 C1351 1.349 . S
C1367 H1359 0.950 . S
C1367 C1365 1.327 . S
C1368 C1356 1.349 . S
C1368 H1362 0.950 . S
C1368 C1369 1.327 . S
C1369 H1363 0.950 . S
C1369 C1368 1.327 . S
C1369 C1373 1.429 . S
C1370 C1353 1.574 . S
C1370 H1364 0.949 . S
C1370 C1374 1.368 . S
C1371 C1352 1.429 . S
C1371 C1365 1.429 . S
C1371 C1372 1.523 . S
C1372 C1353 1.368 . S
C1372 C1366 1.368 . S
C1372 C1371 1.523 . S
C1373 C1357 1.429 . S
C1373 C1369 1.429 . S
C1373 C1374 1.523 . S
C1374 C1358 1.368 . S
C1374 C1370 1.368 . S
C1374 C1373 1.523 . S
H1375 C1350 0.950 . S
H1376 C1352 0.950 . S
H1377 C1353 0.949 . S
H1378 C1355 0.950 . S
H1379 C1357 0.950 . S
C1380 C1381 1.349 . S
C1380 C1382 1.327 . S
C1380 H1405 0.950 . S
C1381 C1380 1.349 . S
C1381 C1397 1.349 . S
C1382 C1380 1.327 . S
C1382 C1401 1.429 . S
C1382 H1406 0.950 . S
C1383 C1400 1.574 . S
C1383 C1402 1.368 . S
C1383 H1407 0.949 . S
H1384 C1388 0.949 . S
C1385 C1386 1.349 . S
C1385 C1387 1.327 . S
C1385 H1408 0.950 . S
C1386 C1385 1.349 . S
C1386 C1398 1.349 . S
C1387 C1385 1.327 . S
C1387 C1403 1.429 . S
C1387 H1409 0.950 . S
C1388 H1384 0.949 . S
C1388 C1396 1.574 . S
C1388 C1404 1.368 . S
H1389 C1397 0.950 . S
H1390 C1395 0.950 . S
H1391 C1396 0.949 . S
H1392 C1398 0.950 . S
H1393 C1399 0.950 . S
H1394 C1400 0.949 . S
C1395 H1390 0.950 . S
C1395 C1397 1.327 . S
C1395 C1401 1.429 . S
C1396 C1388 1.574 . S
C1396 H1391 0.949 . S
C1396 C1402 1.368 . S
C1397 C1381 1.349 . S
C1397 H1389 0.950 . S
C1397 C1395 1.327 . S
C1398 C1386 1.349 . S
C1398 H1392 0.950 . S
C1398 C1399 1.327 . S
C1399 H1393 0.950 . S
C1399 C1398 1.327 . S
C1399 C1403 1.429 . S
C1400 C1383 1.574 . S
C1400 H1394 0.949 . S
C1400 C1404 1.368 . S
C1401 C1382 1.429 . S
C1401 C1395 1.429 . S
C1401 C1402 1.523 . S
C1402 C1383 1.368 . S
C1402 C1396 1.368 . S
C1402 C1401 1.523 . S
C1403 C1387 1.429 . S
C1403 C1399 1.429 . S
C1403 C1404 1.523 . S
C1404 C1388 1.368 . S
C1404 C1400 1.368 . S
C1404 C1403 1.523 . S
H1405 C1380 0.950 . S
H1406 C1382 0.950 . S
H1407 C1383 0.949 . S
H1408 C1385 0.950 . S
H1409 C1387 0.950 . S
C1410 C1411 1.349 . S
C1410 C1412 1.327 . S
C1410 H1435 0.950 . S
C1411 C1410 1.349 . S
C1411 C1427 1.349 . S
C1412 C1410 1.327 . S
C1412 C1431 1.429 . S
C1412 H1436 0.950 . S
C1413 C1430 1.574 . S
C1413 C1432 1.368 . S
C1413 H1437 0.949 . S
H1414 C1418 0.949 . S
C1415 C1416 1.349 . S
C1415 C1417 1.327 . S
C1415 H1438 0.950 . S
C1416 C1415 1.349 . S
C1416 C1428 1.349 . S
C1417 C1415 1.327 . S
C1417 C1433 1.429 . S
C1417 H1439 0.950 . S
C1418 H1414 0.949 . S
C1418 C1426 1.574 . S
C1418 C1434 1.368 . S
H1419 C1427 0.950 . S
H1420 C1425 0.950 . S
H1421 C1426 0.949 . S
H1422 C1428 0.950 . S
H1423 C1429 0.950 . S
H1424 C1430 0.949 . S
C1425 H1420 0.950 . S
C1425 C1427 1.327 . S
C1425 C1431 1.429 . S
C1426 C1418 1.574 . S
C1426 H1421 0.949 . S
C1426 C1432 1.368 . S
C1427 C1411 1.349 . S
C1427 H1419 0.950 . S
C1427 C1425 1.327 . S
C1428 C1416 1.349 . S
C1428 H1422 0.950 . S
C1428 C1429 1.327 . S
C1429 H1423 0.950 . S
C1429 C1428 1.327 . S
C1429 C1433 1.429 . S
C1430 C1413 1.574 . S
C1430 H1424 0.949 . S
C1430 C1434 1.368 . S
C1431 C1412 1.429 . S
C1431 C1425 1.429 . S
C1431 C1432 1.523 . S
C1432 C1413 1.368 . S
C1432 C1426 1.368 . S
C1432 C1431 1.523 . S
C1433 C1417 1.429 . S
C1433 C1429 1.429 . S
C1433 C1434 1.523 . S
C1434 C1418 1.368 . S
C1434 C1430 1.368 . S
C1434 C1433 1.523 . S
H1435 C1410 0.950 . S
H1436 C1412 0.950 . S
H1437 C1413 0.949 . S
H1438 C1415 0.950 . S
H1439 C1417 0.950 . S
C1440 C1441 1.349 . S
C1440 C1442 1.327 . S
C1440 H1465 0.950 . S
C1441 C1440 1.349 . S
C1441 C1457 1.349 . S
C1442 C1440 1.327 . S
C1442 C1461 1.429 . S
C1442 H1466 0.950 . S
C1443 C1460 1.574 . S
C1443 C1462 1.368 . S
C1443 H1467 0.949 . S
H1444 C1448 0.949 . S
C1445 C1446 1.349 . S
C1445 C1447 1.327 . S
C1445 H1468 0.950 . S
C1446 C1445 1.349 . S
C1446 C1458 1.349 . S
C1447 C1445 1.327 . S
C1447 C1463 1.429 . S
C1447 H1469 0.950 . S
C1448 H1444 0.949 . S
C1448 C1456 1.574 . S
C1448 C1464 1.368 . S
H1449 C1457 0.950 . S
H1450 C1455 0.950 . S
H1451 C1456 0.949 . S
H1452 C1458 0.950 . S
H1453 C1459 0.950 . S
H1454 C1460 0.949 . S
C1455 H1450 0.950 . S
C1455 C1457 1.327 . S
C1455 C1461 1.429 . S
C1456 C1448 1.574 . S
C1456 H1451 0.949 . S
C1456 C1462 1.368 . S
C1457 C1441 1.349 . S
C1457 H1449 0.950 . S
C1457 C1455 1.327 . S
C1458 C1446 1.349 . S
C1458 H1452 0.950 . S
C1458 C1459 1.327 . S
C1459 H1453 0.950 . S
C1459 C1458 1.327 . S
C1459 C1463 1.429 . S
C1460 C1443 1.574 . S
C1460 H1454 0.949 . S
C1460 C1464 1.368 . S
C1461 C1442 1.429 . S
C1461 C1455 1.429 . S
C1461 C1462 1.523 . S
C1462 C1443 1.368 . S
C1462 C1456 1.368 . S
C1462 C1461 1.523 . S
C1463 C1447 1.429 . S
C1463 C1459 1.429 . S
C1463 C1464 1.523 . S
C1464 C1448 1.368 . S
C1464 C1460 1.368 . S
C1464 C1463 1.523 . S
H1465 C1440 0.950 . S
H1466 C1442 0.950 . S
H1467 C1443 0.949 . S
H1468 C1445 0.950 . S
H1469 C1447 0.950 . S
C1470 C1471 1.349 . S
C1470 C1472 1.327 . S
C1470 H1495 0.950 . S
C1471 C1470 1.349 . S
C1471 C1487 1.349 . S
C1472 C1470 1.327 . S
C1472 C1491 1.429 . S
C1472 H1496 0.950 . S
C1473 C1490 1.574 . S
C1473 C1492 1.368 . S
C1473 H1497 0.949 . S
H1474 C1478 0.949 . S
C1475 C1476 1.349 . S
C1475 C1477 1.327 . S
C1475 H1498 0.950 . S
C1476 C1475 1.349 . S
C1476 C1488 1.349 . S
C1477 C1475 1.327 . S
C1477 C1493 1.429 . S
C1477 H1499 0.950 . S
C1478 H1474 0.949 . S
C1478 C1486 1.574 . S
C1478 C1494 1.368 . S
H1479 C1487 0.950 . S
H1480 C1485 0.950 . S
H1481 C1486 0.949 . S
H1482 C1488 0.950 . S
H1483 C1489 0.950 . S
H1484 C1490 0.949 . S
C1485 H1480 0.950 . S
C1485 C1487 1.327 . S
C1485 C1491 1.429 . S
C1486 C1478 1.574 . S
C1486 H1481 0.949 . S
C1486 C1492 1.368 . S
C1487 C1471 1.349 . S
C1487 H1479 0.950 . S
C1487 C1485 1.327 . S
C1488 C1476 1.349 . S
C1488 H1482 0.950 . S
C1488 C1489 1.327 . S
C1489 H1483 0.950 . S
C1489 C1488 1.327 . S
C1489 C1493 1.429 . S
C1490 C1473 1.574 . S
C1490 H1484 0.949 . S
C1490 C1494 1.368 . S
C1491 C1472 1.429 . S
C1491 C1485 1.429 . S
C1491 C1492 1.523 . S
C1492 C1473 1.368 . S
C1492 C1486 1.368 . S
C1492 C1491 1.523 . S
C1493 C1477 1.429 . S
C1493 C1489 1.429 . S
C1493 C1494 1.523 . S
C1494 C1478 1.368 . S
C1494 C1490 1.368 . S
C1494 C1493 1.523 . S
H1495 C1470 0.950 . S
H1496 C1472 0.950 . S
H1497 C1473 0.949 . S
H1498 C1475 0.950 . S
H1499 C1477 0.950 . S
C1500 C1501 1.349 . S
C1500 C1502 1.327 . S
C1500 H1525 0.950 . S
C1501 C1500 1.349 . S
C1501 C1517 1.349 . S
C1502 C1500 1.327 . S
C1502 C1521 1.429 . S
C1502 H1526 0.950 . S
C1503 C1520 1.574 . S
C1503 C1522 1.368 . S
C1503 H1527 0.949 . S
H1504 C1508 0.949 . S
C1505 C1506 1.349 . S
C1505 C1507 1.327 . S
C1505 H1528 0.950 . S
C1506 C1505 1.349 . S
C1506 C1518 1.349 . S
C1507 C1505 1.327 . S
C1507 C1523 1.429 . S
C1507 H1529 0.950 . S
C1508 H1504 0.949 . S
C1508 C1516 1.574 . S
C1508 C1524 1.368 . S
H1509 C1517 0.950 . S
H1510 C1515 0.950 . S
H1511 C1516 0.949 . S
H1512 C1518 0.950 . S
H1513 C1519 0.950 . S
H1514 C1520 0.949 . S
C1515 H1510 0.950 . S
C1515 C1517 1.327 . S
C1515 C1521 1.429 . S
C1516 C1508 1.574 . S
C1516 H1511 0.949 . S
C1516 C1522 1.368 . S
C1517 C1501 1.349 . S
C1517 H1509 0.950 . S
C1517 C1515 1.327 . S
C1518 C1506 1.349 . S
C1518 H1512 0.950 . S
C1518 C1519 1.327 . S
C1519 H1513 0.950 . S
C1519 C1518 1.327 . S
C1519 C1523 1.429 . S
C1520 C1503 1.574 . S
C1520 H1514 0.949 . S
C1520 C1524 1.368 . S
C1521 C1502 1.429 . S
C1521 C1515 1.429 . S
C1521 C1522 1.523 . S
C1522 C1503 1.368 . S
C1522 C1516 1.368 . S
C1522 C1521 1.523 . S
C1523 C1507 1.429 . S
C1523 C1519 1.429 . S
C1523 C1524 1.523 . S
C1524 C1508 1.368 . S
C1524 C1520 1.368 . S
C1524 C1523 1.523 . S
H1525 C1500 0.950 . S
H1526 C1502 0.950 . S
H1527 C1503 0.949 . S
H1528 C1505 0.950 . S
H1529 C1507 0.950 . S
C1530 C1531 1.349 . S
C1530 C1532 1.327 . S
C1530 H1555 0.950 . S
C1531 C1530 1.349 . S
C1531 C1547 1.349 . S
C1532 C1530 1.327 . S
C1532 C1551 1.429 . S
C1532 H1556 0.950 . S
C1533 C1550 1.574 . S
C1533 C1552 1.368 . S
C1533 H1557 0.949 . S
H1534 C1538 0.949 . S
C1535 C1536 1.349 . S
C1535 C1537 1.327 . S
C1535 H1558 0.950 1_565 S
C1536 C1535 1.349 . S
C1536 C1548 1.349 . S
C1537 C1535 1.327 . S
C1537 C1553 1.429 . S
C1537 H1559 0.950 . S
C1538 H1534 0.949 . S
C1538 C1546 1.574 . S
C1538 C1554 1.368 . S
H1539 C1547 0.950 . S
H1540 C1545 0.950 . S
H1541 C1546 0.949 . S
H1542 C1548 0.950 . S
H1543 C1549 0.950 . S
H1544 C1550 0.949 . S
C1545 H1540 0.950 . S
C1545 C1547 1.327 . S
C1545 C1551 1.429 . S
C1546 C1538 1.574 . S
C1546 H1541 0.949 . S
C1546 C1552 1.368 . S
C1547 C1531 1.349 . S
C1547 H1539 0.950 . S
C1547 C1545 1.327 . S
C1548 C1536 1.349 . S
C1548 H1542 0.950 . S
C1548 C1549 1.327 . S
C1549 H1543 0.950 . S
C1549 C1548 1.327 . S
C1549 C1553 1.429 . S
C1550 C1533 1.574 . S
C1550 H1544 0.949 . S
C1550 C1554 1.368 . S
C1551 C1532 1.429 . S
C1551 C1545 1.429 . S
C1551 C1552 1.523 . S
C1552 C1533 1.368 . S
C1552 C1546 1.368 . S
C1552 C1551 1.523 . S
C1553 C1537 1.429 . S
C1553 C1549 1.429 . S
C1553 C1554 1.523 . S
C1554 C1538 1.368 . S
C1554 C1550 1.368 . S
C1554 C1553 1.523 . S
H1555 C1530 0.950 . S
H1556 C1532 0.950 . S
H1557 C1533 0.949 . S
H1558 C1535 0.950 1_545 S
H1559 C1537 0.950 . S
C1560 C1561 1.349 . S
C1560 C1562 1.327 . S
C1560 H1585 0.950 . S
C1561 C1560 1.349 . S
C1561 C1577 1.349 . S
C1562 C1560 1.327 . S
C1562 C1581 1.429 . S
C1562 H1586 0.950 . S
C1563 C1580 1.574 . S
C1563 C1582 1.368 . S
C1563 H1587 0.949 . S
H1564 C1568 0.949 . S
C1565 C1566 1.349 . S
C1565 C1567 1.327 . S
C1565 H1588 0.950 . S
C1566 C1565 1.349 . S
C1566 C1578 1.349 . S
C1567 C1565 1.327 . S
C1567 C1583 1.429 . S
C1567 H1589 0.950 . S
C1568 H1564 0.949 . S
C1568 C1576 1.574 . S
C1568 C1584 1.368 . S
H1569 C1577 0.950 . S
H1570 C1575 0.950 . S
H1571 C1576 0.949 . S
H1572 C1578 0.950 . S
H1573 C1579 0.950 . S
H1574 C1580 0.949 . S
C1575 H1570 0.950 . S
C1575 C1577 1.327 . S
C1575 C1581 1.429 . S
C1576 C1568 1.574 . S
C1576 H1571 0.949 . S
C1576 C1582 1.368 . S
C1577 C1561 1.349 . S
C1577 H1569 0.950 . S
C1577 C1575 1.327 . S
C1578 C1566 1.349 . S
C1578 H1572 0.950 . S
C1578 C1579 1.327 . S
C1579 H1573 0.950 . S
C1579 C1578 1.327 . S
C1579 C1583 1.429 . S
C1580 C1563 1.574 . S
C1580 H1574 0.949 . S
C1580 C1584 1.368 . S
C1581 C1562 1.429 . S
C1581 C1575 1.429 . S
C1581 C1582 1.523 . S
C1582 C1563 1.368 . S
C1582 C1576 1.368 . S
C1582 C1581 1.523 . S
C1583 C1567 1.429 . S
C1583 C1579 1.429 . S
C1583 C1584 1.523 . S
C1584 C1568 1.368 . S
C1584 C1580 1.368 . S
C1584 C1583 1.523 . S
H1585 C1560 0.950 . S
H1586 C1562 0.950 . S
H1587 C1563 0.949 . S
H1588 C1565 0.950 . S
H1589 C1567 0.950 . S
C1590 C1591 1.349 . S
C1590 C1592 1.327 . S
C1590 H1615 0.950 . S
C1591 C1590 1.349 . S
C1591 C1607 1.349 . S
C1592 C1590 1.327 . S
C1592 C1611 1.429 . S
C1592 H1616 0.950 . S
C1593 C1610 1.574 . S
C1593 C1612 1.368 . S
C1593 H1617 0.949 . S
H1594 C1598 0.949 . S
C1595 C1596 1.349 . S
C1595 C1597 1.327 . S
C1595 H1618 0.950 . S
C1596 C1595 1.349 . S
C1596 C1608 1.349 . S
C1597 C1595 1.327 . S
C1597 C1613 1.429 . S
C1597 H1619 0.950 . S
C1598 H1594 0.949 . S
C1598 C1606 1.574 . S
C1598 C1614 1.368 . S
H1599 C1607 0.950 . S
H1600 C1605 0.950 . S
H1601 C1606 0.949 . S
H1602 C1608 0.950 . S
H1603 C1609 0.950 . S
H1604 C1610 0.949 . S
C1605 H1600 0.950 . S
C1605 C1607 1.327 . S
C1605 C1611 1.429 . S
C1606 C1598 1.574 . S
C1606 H1601 0.949 . S
C1606 C1612 1.368 . S
C1607 C1591 1.349 . S
C1607 H1599 0.950 . S
C1607 C1605 1.327 . S
C1608 C1596 1.349 . S
C1608 H1602 0.950 . S
C1608 C1609 1.327 . S
C1609 H1603 0.950 . S
C1609 C1608 1.327 . S
C1609 C1613 1.429 . S
C1610 C1593 1.574 . S
C1610 H1604 0.949 . S
C1610 C1614 1.368 . S
C1611 C1592 1.429 . S
C1611 C1605 1.429 . S
C1611 C1612 1.523 . S
C1612 C1593 1.368 . S
C1612 C1606 1.368 . S
C1612 C1611 1.523 . S
C1613 C1597 1.429 . S
C1613 C1609 1.429 . S
C1613 C1614 1.523 . S
C1614 C1598 1.368 . S
C1614 C1610 1.368 . S
C1614 C1613 1.523 . S
H1615 C1590 0.950 . S
H1616 C1592 0.950 . S
H1617 C1593 0.949 . S
H1618 C1595 0.950 . S
H1619 C1597 0.950 . S
C1620 C1621 1.349 . S
C1620 C1622 1.327 . S
C1620 H1645 0.950 . S
C1621 C1620 1.349 . S
C1621 C1637 1.349 1_655 S
C1622 C1620 1.327 . S
C1622 C1641 1.429 . S
C1622 H1646 0.950 . S
C1623 C1640 1.574 . S
C1623 C1642 1.368 . S
C1623 H1647 0.949 . S
H1624 C1628 0.949 . S
C1625 C1626 1.349 . S
C1625 C1627 1.327 . S
C1625 H1648 0.950 . S
C1626 C1625 1.349 . S
C1626 C1638 1.349 . S
C1627 C1625 1.327 . S
C1627 C1643 1.429 . S
C1627 H1649 0.950 . S
C1628 H1624 0.949 . S
C1628 C1636 1.574 . S
C1628 C1644 1.368 . S
H1629 C1637 0.950 . S
H1630 C1635 0.950 1_455 S
H1631 C1636 0.949 . S
H1632 C1638 0.950 . S
H1633 C1639 0.950 . S
H1634 C1640 0.949 . S
C1635 H1630 0.950 1_655 S
C1635 C1637 1.327 1_655 S
C1635 C1641 1.429 . S
C1636 C1628 1.574 . S
C1636 H1631 0.949 . S
C1636 C1642 1.368 . S
C1637 C1621 1.349 1_455 S
C1637 H1629 0.950 . S
C1637 C1635 1.327 1_455 S
C1638 C1626 1.349 . S
C1638 H1632 0.950 . S
C1638 C1639 1.327 . S
C1639 H1633 0.950 . S
C1639 C1638 1.327 . S
C1639 C1643 1.429 . S
C1640 C1623 1.574 . S
C1640 H1634 0.949 . S
C1640 C1644 1.368 . S
C1641 C1622 1.429 . S
C1641 C1635 1.429 . S
C1641 C1642 1.523 . S
C1642 C1623 1.368 . S
C1642 C1636 1.368 . S
C1642 C1641 1.523 . S
C1643 C1627 1.429 . S
C1643 C1639 1.429 . S
C1643 C1644 1.523 . S
C1644 C1628 1.368 . S
C1644 C1640 1.368 . S
C1644 C1643 1.523 . S
H1645 C1620 0.950 . S
H1646 C1622 0.950 . S
H1647 C1623 0.949 . S
H1648 C1625 0.950 . S
H1649 C1627 0.950 . S
C1650 C1651 1.349 . S
C1650 C1652 1.327 . S
C1650 H1675 0.950 . S
C1651 C1650 1.349 . S
C1651 C1667 1.349 . S
C1652 C1650 1.327 . S
C1652 C1671 1.429 . S
C1652 H1676 0.950 . S
C1653 C1670 1.574 . S
C1653 C1672 1.368 . S
C1653 H1677 0.949 . S
H1654 C1658 0.949 . S
C1655 C1656 1.349 . S
C1655 C1657 1.327 . S
C1655 H1678 0.950 . S
C1656 C1655 1.349 . S
C1656 C1668 1.349 . S
C1657 C1655 1.327 . S
C1657 C1673 1.429 . S
C1657 H1679 0.950 . S
C1658 H1654 0.949 . S
C1658 C1666 1.574 . S
C1658 C1674 1.368 . S
H1659 C1667 0.950 . S
H1660 C1665 0.950 . S
H1661 C1666 0.949 . S
H1662 C1668 0.950 . S
H1663 C1669 0.950 . S
H1664 C1670 0.949 . S
C1665 H1660 0.950 . S
C1665 C1667 1.327 . S
C1665 C1671 1.429 . S
C1666 C1658 1.574 . S
C1666 H1661 0.949 . S
C1666 C1672 1.368 . S
C1667 C1651 1.349 . S
C1667 H1659 0.950 . S
C1667 C1665 1.327 . S
C1668 C1656 1.349 . S
C1668 H1662 0.950 . S
C1668 C1669 1.327 . S
C1669 H1663 0.950 . S
C1669 C1668 1.327 . S
C1669 C1673 1.429 . S
C1670 C1653 1.574 . S
C1670 H1664 0.949 . S
C1670 C1674 1.368 . S
C1671 C1652 1.429 . S
C1671 C1665 1.429 . S
C1671 C1672 1.523 . S
C1672 C1653 1.368 . S
C1672 C1666 1.368 . S
C1672 C1671 1.523 . S
C1673 C1657 1.429 . S
C1673 C1669 1.429 . S
C1673 C1674 1.523 . S
C1674 C1658 1.368 . S
C1674 C1670 1.368 . S
C1674 C1673 1.523 . S
H1675 C1650 0.950 . S
H1676 C1652 0.950 . S
H1677 C1653 0.949 . S
H1678 C1655 0.950 . S
H1679 C1657 0.950 . S
C1680 C1681 1.349 . S
C1680 C1682 1.327 . S
C1680 H1705 0.950 . S
C1681 C1680 1.349 . S
C1681 C1697 1.349 . S
C1682 C1680 1.327 . S
C1682 C1701 1.429 . S
C1682 H1706 0.950 . S
C1683 C1700 1.574 . S
C1683 C1702 1.368 . S
C1683 H1707 0.949 . S
H1684 C1688 0.949 . S
C1685 C1686 1.349 . S
C1685 C1687 1.327 . S
C1685 H1708 0.950 . S
C1686 C1685 1.349 . S
C1686 C1698 1.349 . S
C1687 C1685 1.327 . S
C1687 C1703 1.429 . S
C1687 H1709 0.950 . S
C1688 H1684 0.949 . S
C1688 C1696 1.574 . S
C1688 C1704 1.368 . S
H1689 C1697 0.950 . S
H1690 C1695 0.950 . S
H1691 C1696 0.949 . S
H1692 C1698 0.950 . S
H1693 C1699 0.950 . S
H1694 C1700 0.949 . S
C1695 H1690 0.950 . S
C1695 C1697 1.327 . S
C1695 C1701 1.429 . S
C1696 C1688 1.574 . S
C1696 H1691 0.949 . S
C1696 C1702 1.368 . S
C1697 C1681 1.349 . S
C1697 H1689 0.950 . S
C1697 C1695 1.327 . S
C1698 C1686 1.349 . S
C1698 H1692 0.950 . S
C1698 C1699 1.327 . S
C1699 H1693 0.950 . S
C1699 C1698 1.327 . S
C1699 C1703 1.429 . S
C1700 C1683 1.574 . S
C1700 H1694 0.949 . S
C1700 C1704 1.368 . S
C1701 C1682 1.429 . S
C1701 C1695 1.429 . S
C1701 C1702 1.523 . S
C1702 C1683 1.368 . S
C1702 C1696 1.368 . S
C1702 C1701 1.523 . S
C1703 C1687 1.429 . S
C1703 C1699 1.429 . S
C1703 C1704 1.523 . S
C1704 C1688 1.368 . S
C1704 C1700 1.368 . S
C1704 C1703 1.523 . S
H1705 C1680 0.950 . S
H1706 C1682 0.950 . S
H1707 C1683 0.949 . S
H1708 C1685 0.950 . S
H1709 C1687 0.950 . S
C1710 C1711 1.349 . S
C1710 C1712 1.327 . S
C1710 H1735 0.950 . S
C1711 C1710 1.349 . S
C1711 C1727 1.349 . S
C1712 C1710 1.327 . S
C1712 C1731 1.429 . S
C1712 H1736 0.950 . S
C1713 C1730 1.574 1_655 S
C1713 C1732 1.368 . S
C1713 H1737 0.949 . S
H1714 C1718 0.949 . S
C1715 C1716 1.349 . S
C1715 C1717 1.327 . S
C1715 H1738 0.950 . S
C1716 C1715 1.349 . S
C1716 C1728 1.349 . S
C1717 C1715 1.327 . S
C1717 C1733 1.429 . S
C1717 H1739 0.950 . S
C1718 H1714 0.949 . S
C1718 C1726 1.574 . S
C1718 C1734 1.368 . S
H1719 C1727 0.950 . S
H1720 C1725 0.950 . S
H1721 C1726 0.949 . S
H1722 C1728 0.950 . S
H1723 C1729 0.950 . S
H1724 C1730 0.949 . S
C1725 H1720 0.950 . S
C1725 C1727 1.327 . S
C1725 C1731 1.429 . S
C1726 C1718 1.574 . S
C1726 H1721 0.949 . S
C1726 C1732 1.368 1_455 S
C1727 C1711 1.349 . S
C1727 H1719 0.950 . S
C1727 C1725 1.327 . S
C1728 C1716 1.349 . S
C1728 H1722 0.950 . S
C1728 C1729 1.327 . S
C1729 H1723 0.950 . S
C1729 C1728 1.327 . S
C1729 C1733 1.429 . S
C1730 C1713 1.574 1_455 S
C1730 H1724 0.949 . S
C1730 C1734 1.368 . S
C1731 C1712 1.429 . S
C1731 C1725 1.429 . S
C1731 C1732 1.523 . S
C1732 C1713 1.368 . S
C1732 C1726 1.368 1_655 S
C1732 C1731 1.523 . S
C1733 C1717 1.429 . S
C1733 C1729 1.429 . S
C1733 C1734 1.523 . S
C1734 C1718 1.368 . S
C1734 C1730 1.368 . S
C1734 C1733 1.523 . S
H1735 C1710 0.950 . S
H1736 C1712 0.950 . S
H1737 C1713 0.949 . S
H1738 C1715 0.950 . S
H1739 C1717 0.950 . S
C1740 C1741 1.349 . S
C1740 C1742 1.327 . S
C1740 H1765 0.950 . S
C1741 C1740 1.349 . S
C1741 C1757 1.349 . S
C1742 C1740 1.327 . S
C1742 C1761 1.429 . S
C1742 H1766 0.950 . S
C1743 C1760 1.574 . S
C1743 C1762 1.368 . S
C1743 H1767 0.949 . S
H1744 C1748 0.949 . S
C1745 C1746 1.349 . S
C1745 C1747 1.327 . S
C1745 H1768 0.950 . S
C1746 C1745 1.349 . S
C1746 C1758 1.349 . S
C1747 C1745 1.327 . S
C1747 C1763 1.429 . S
C1747 H1769 0.950 . S
C1748 H1744 0.949 . S
C1748 C1756 1.574 . S
C1748 C1764 1.368 . S
H1749 C1757 0.950 . S
H1750 C1755 0.950 . S
H1751 C1756 0.949 . S
H1752 C1758 0.950 . S
H1753 C1759 0.950 . S
H1754 C1760 0.949 . S
C1755 H1750 0.950 . S
C1755 C1757 1.327 . S
C1755 C1761 1.429 . S
C1756 C1748 1.574 . S
C1756 H1751 0.949 . S
C1756 C1762 1.368 . S
C1757 C1741 1.349 . S
C1757 H1749 0.950 . S
C1757 C1755 1.327 . S
C1758 C1746 1.349 . S
C1758 H1752 0.950 . S
C1758 C1759 1.327 . S
C1759 H1753 0.950 . S
C1759 C1758 1.327 . S
C1759 C1763 1.429 . S
C1760 C1743 1.574 . S
C1760 H1754 0.949 . S
C1760 C1764 1.368 . S
C1761 C1742 1.429 . S
C1761 C1755 1.429 . S
C1761 C1762 1.523 . S
C1762 C1743 1.368 . S
C1762 C1756 1.368 . S
C1762 C1761 1.523 . S
C1763 C1747 1.429 . S
C1763 C1759 1.429 . S
C1763 C1764 1.523 . S
C1764 C1748 1.368 . S
C1764 C1760 1.368 . S
C1764 C1763 1.523 . S
H1765 C1740 0.950 . S
H1766 C1742 0.950 . S
H1767 C1743 0.949 . S
H1768 C1745 0.950 . S
H1769 C1747 0.950 . S
C1770 C1771 1.349 . S
C1770 C1772 1.327 . S
C1770 H1795 0.950 . S
C1771 C1770 1.349 . S
C1771 C1787 1.349 . S
C1772 C1770 1.327 . S
C1772 C1791 1.429 . S
C1772 H1796 0.950 . S
C1773 C1790 1.574 . S
C1773 C1792 1.368 1_545 S
C1773 H1797 0.949 . S
H1774 C1778 0.949 . S
C1775 C1776 1.349 . S
C1775 C1777 1.327 . S
C1775 H1798 0.950 . S
C1776 C1775 1.349 . S
C1776 C1788 1.349 . S
C1777 C1775 1.327 . S
C1777 C1793 1.429 . S
C1777 H1799 0.950 . S
C1778 H1774 0.949 . S
C1778 C1786 1.574 1_545 S
C1778 C1794 1.368 . S
H1779 C1787 0.950 . S
H1780 C1785 0.950 . S
H1781 C1786 0.949 . S
H1782 C1788 0.950 . S
H1783 C1789 0.950 . S
H1784 C1790 0.949 . S
C1785 H1780 0.950 . S
C1785 C1787 1.327 . S
C1785 C1791 1.429 . S
C1786 C1778 1.574 1_565 S
C1786 H1781 0.949 . S
C1786 C1792 1.368 . S
C1787 C1771 1.349 . S
C1787 H1779 0.950 . S
C1787 C1785 1.327 . S
C1788 C1776 1.349 . S
C1788 H1782 0.950 . S
C1788 C1789 1.327 . S
C1789 H1783 0.950 . S
C1789 C1788 1.327 . S
C1789 C1793 1.429 . S
C1790 C1773 1.574 . S
C1790 H1784 0.949 . S
C1790 C1794 1.368 . S
C1791 C1772 1.429 . S
C1791 C1785 1.429 . S
C1791 C1792 1.523 . S
C1792 C1773 1.368 1_565 S
C1792 C1786 1.368 . S
C1792 C1791 1.523 . S
C1793 C1777 1.429 . S
C1793 C1789 1.429 . S
C1793 C1794 1.523 . S
C1794 C1778 1.368 . S
C1794 C1790 1.368 . S
C1794 C1793 1.523 . S
H1795 C1770 0.950 . S
H1796 C1772 0.950 . S
H1797 C1773 0.949 . S
H1798 C1775 0.950 . S
H1799 C1777 0.950 . S
C1800 C1801 1.349 . S
C1800 C1802 1.327 . S
C1800 H1825 0.950 . S
C1801 C1800 1.349 . S
C1801 C1817 1.349 . S
C1802 C1800 1.327 . S
C1802 C1821 1.429 . S
C1802 H1826 0.950 . S
C1803 C1820 1.574 . S
C1803 C1822 1.368 . S
C1803 H1827 0.949 . S
H1804 C1808 0.949 . S
C1805 C1806 1.349 . S
C1805 C1807 1.327 . S
C1805 H1828 0.950 . S
C1806 C1805 1.349 . S
C1806 C1818 1.349 . S
C1807 C1805 1.327 . S
C1807 C1823 1.429 . S
C1807 H1829 0.950 . S
C1808 H1804 0.949 . S
C1808 C1816 1.574 . S
C1808 C1824 1.368 . S
H1809 C1817 0.950 . S
H1810 C1815 0.950 . S
H1811 C1816 0.949 . S
H1812 C1818 0.950 . S
H1813 C1819 0.950 . S
H1814 C1820 0.949 . S
C1815 H1810 0.950 . S
C1815 C1817 1.327 . S
C1815 C1821 1.429 . S
C1816 C1808 1.574 . S
C1816 H1811 0.949 . S
C1816 C1822 1.368 . S
C1817 C1801 1.349 . S
C1817 H1809 0.950 . S
C1817 C1815 1.327 . S
C1818 C1806 1.349 . S
C1818 H1812 0.950 . S
C1818 C1819 1.327 . S
C1819 H1813 0.950 . S
C1819 C1818 1.327 . S
C1819 C1823 1.429 . S
C1820 C1803 1.574 . S
C1820 H1814 0.949 . S
C1820 C1824 1.368 . S
C1821 C1802 1.429 . S
C1821 C1815 1.429 . S
C1821 C1822 1.523 . S
C1822 C1803 1.368 . S
C1822 C1816 1.368 . S
C1822 C1821 1.523 . S
C1823 C1807 1.429 . S
C1823 C1819 1.429 . S
C1823 C1824 1.523 . S
C1824 C1808 1.368 . S
C1824 C1820 1.368 . S
C1824 C1823 1.523 . S
H1825 C1800 0.950 . S
H1826 C1802 0.950 . S
H1827 C1803 0.949 . S
H1828 C1805 0.950 . S
H1829 C1807 0.950 . S
C1830 C1831 1.349 . S
C1830 C1832 1.327 . S
C1830 H1855 0.950 . S
C1831 C1830 1.349 . S
C1831 C1847 1.349 . S
C1832 C1830 1.327 . S
C1832 C1851 1.429 . S
C1832 H1856 0.950 . S
C1833 C1850 1.574 . S
C1833 C1852 1.368 . S
C1833 H1857 0.949 . S
H1834 C1838 0.949 . S
C1835 C1836 1.349 . S
C1835 C1837 1.327 . S
C1835 H1858 0.950 . S
C1836 C1835 1.349 . S
C1836 C1848 1.349 . S
C1837 C1835 1.327 . S
C1837 C1853 1.429 . S
C1837 H1859 0.950 . S
C1838 H1834 0.949 . S
C1838 C1846 1.574 . S
C1838 C1854 1.368 . S
H1839 C1847 0.950 . S
H1840 C1845 0.950 . S
H1841 C1846 0.949 . S
H1842 C1848 0.950 . S
H1843 C1849 0.950 . S
H1844 C1850 0.949 . S
C1845 H1840 0.950 . S
C1845 C1847 1.327 . S
C1845 C1851 1.429 . S
C1846 C1838 1.574 . S
C1846 H1841 0.949 . S
C1846 C1852 1.368 . S
C1847 C1831 1.349 . S
C1847 H1839 0.950 . S
C1847 C1845 1.327 . S
C1848 C1836 1.349 . S
C1848 H1842 0.950 . S
C1848 C1849 1.327 . S
C1849 H1843 0.950 . S
C1849 C1848 1.327 . S
C1849 C1853 1.429 . S
C1850 C1833 1.574 . S
C1850 H1844 0.949 . S
C1850 C1854 1.368 . S
C1851 C1832 1.429 . S
C1851 C1845 1.429 . S
C1851 C1852 1.523 . S
C1852 C1833 1.368 . S
C1852 C1846 1.368 . S
C1852 C1851 1.523 . S
C1853 C1837 1.429 . S
C1853 C1849 1.429 . S
C1853 C1854 1.523 . S
C1854 C1838 1.368 . S
C1854 C1850 1.368 . S
C1854 C1853 1.523 . S
H1855 C1830 0.950 . S
H1856 C1832 0.950 . S
H1857 C1833 0.949 . S
H1858 C1835 0.950 . S
H1859 C1837 0.950 . S
C1860 C1861 1.349 . S
C1860 C1862 1.327 . S
C1860 H1885 0.950 . S
C1861 C1860 1.349 . S
C1861 C1877 1.349 . S
C1862 C1860 1.327 . S
C1862 C1881 1.429 . S
C1862 H1886 0.950 . S
C1863 C1880 1.574 . S
C1863 C1882 1.368 . S
C1863 H1887 0.949 . S
H1864 C1868 0.949 . S
C1865 C1866 1.349 . S
C1865 C1867 1.327 . S
C1865 H1888 0.950 . S
C1866 C1865 1.349 . S
C1866 C1878 1.349 . S
C1867 C1865 1.327 . S
C1867 C1883 1.429 . S
C1867 H1889 0.950 . S
C1868 H1864 0.949 . S
C1868 C1876 1.574 . S
C1868 C1884 1.368 . S
H1869 C1877 0.950 . S
H1870 C1875 0.950 . S
H1871 C1876 0.949 . S
H1872 C1878 0.950 . S
H1873 C1879 0.950 . S
H1874 C1880 0.949 . S
C1875 H1870 0.950 . S
C1875 C1877 1.327 . S
C1875 C1881 1.429 . S
C1876 C1868 1.574 . S
C1876 H1871 0.949 . S
C1876 C1882 1.368 . S
C1877 C1861 1.349 . S
C1877 H1869 0.950 . S
C1877 C1875 1.327 . S
C1878 C1866 1.349 . S
C1878 H1872 0.950 . S
C1878 C1879 1.327 . S
C1879 H1873 0.950 . S
C1879 C1878 1.327 . S
C1879 C1883 1.429 . S
C1880 C1863 1.574 . S
C1880 H1874 0.949 . S
C1880 C1884 1.368 . S
C1881 C1862 1.429 . S
C1881 C1875 1.429 . S
C1881 C1882 1.523 . S
C1882 C1863 1.368 . S
C1882 C1876 1.368 . S
C1882 C1881 1.523 . S
C1883 C1867 1.429 . S
C1883 C1879 1.429 . S
C1883 C1884 1.523 . S
C1884 C1868 1.368 . S
C1884 C1880 1.368 . S
C1884 C1883 1.523 . S
H1885 C1860 0.950 . S
H1886 C1862 0.950 . S
H1887 C1863 0.949 . S
H1888 C1865 0.950 . S
H1889 C1867 0.950 . S
C1890 C1891 1.349 . S
C1890 C1892 1.327 . S
C1890 H1915 0.950 . S
C1891 C1890 1.349 . S
C1891 C1907 1.349 . S
C1892 C1890 1.327 . S
C1892 C1911 1.429 . S
C1892 H1916 0.950 . S
C1893 C1910 1.574 . S
C1893 C1912 1.368 . S
C1893 H1917 0.949 . S
H1894 C1898 0.949 . S
C1895 C1896 1.349 . S
C1895 C1897 1.327 . S
C1895 H1918 0.950 . S
C1896 C1895 1.349 . S
C1896 C1908 1.349 . S
C1897 C1895 1.327 . S
C1897 C1913 1.429 . S
C1897 H1919 0.950 . S
C1898 H1894 0.949 . S
C1898 C1906 1.574 . S
C1898 C1914 1.368 . S
H1899 C1907 0.950 . S
H1900 C1905 0.950 . S
H1901 C1906 0.949 . S
H1902 C1908 0.950 . S
H1903 C1909 0.950 . S
H1904 C1910 0.949 . S
C1905 H1900 0.950 . S
C1905 C1907 1.327 . S
C1905 C1911 1.429 . S
C1906 C1898 1.574 . S
C1906 H1901 0.949 . S
C1906 C1912 1.368 . S
C1907 C1891 1.349 . S
C1907 H1899 0.950 . S
C1907 C1905 1.327 . S
C1908 C1896 1.349 . S
C1908 H1902 0.950 . S
C1908 C1909 1.327 . S
C1909 H1903 0.950 . S
C1909 C1908 1.327 . S
C1909 C1913 1.429 . S
C1910 C1893 1.574 . S
C1910 H1904 0.949 . S
C1910 C1914 1.368 . S
C1911 C1892 1.429 . S
C1911 C1905 1.429 . S
C1911 C1912 1.523 . S
C1912 C1893 1.368 . S
C1912 C1906 1.368 . S
C1912 C1911 1.523 . S
C1913 C1897 1.429 . S
C1913 C1909 1.429 . S
C1913 C1914 1.523 . S
C1914 C1898 1.368 . S
C1914 C1910 1.368 . S
C1914 C1913 1.523 . S
H1915 C1890 0.950 . S
H1916 C1892 0.950 . S
H1917 C1893 0.949 . S
H1918 C1895 0.950 . S
H1919 C1897 0.950 . S
C1920 C1921 1.349 . S
C1920 C1922 1.327 . S
C1920 H1945 0.950 . S
C1921 C1920 1.349 . S
C1921 C1937 1.349 . S
C1922 C1920 1.327 . S
C1922 C1941 1.429 . S
C1922 H1946 0.950 . S
C1923 C1940 1.574 . S
C1923 C1942 1.368 . S
C1923 H1947 0.949 . S
H1924 C1928 0.949 . S
C1925 C1926 1.349 . S
C1925 C1927 1.327 . S
C1925 H1948 0.950 . S
C1926 C1925 1.349 . S
C1926 C1938 1.349 . S
C1927 C1925 1.327 . S
C1927 C1943 1.429 . S
C1927 H1949 0.950 . S
C1928 H1924 0.949 . S
C1928 C1936 1.574 . S
C1928 C1944 1.368 . S
H1929 C1937 0.950 . S
H1930 C1935 0.950 . S
H1931 C1936 0.949 . S
H1932 C1938 0.950 . S
H1933 C1939 0.950 . S
H1934 C1940 0.949 . S
C1935 H1930 0.950 . S
C1935 C1937 1.327 . S
C1935 C1941 1.429 . S
C1936 C1928 1.574 . S
C1936 H1931 0.949 . S
C1936 C1942 1.368 . S
C1937 C1921 1.349 . S
C1937 H1929 0.950 . S
C1937 C1935 1.327 . S
C1938 C1926 1.349 . S
C1938 H1932 0.950 . S
C1938 C1939 1.327 . S
C1939 H1933 0.950 . S
C1939 C1938 1.327 . S
C1939 C1943 1.429 . S
C1940 C1923 1.574 . S
C1940 H1934 0.949 . S
C1940 C1944 1.368 . S
C1941 C1922 1.429 . S
C1941 C1935 1.429 . S
C1941 C1942 1.523 . S
C1942 C1923 1.368 . S
C1942 C1936 1.368 . S
C1942 C1941 1.523 . S
C1943 C1927 1.429 . S
C1943 C1939 1.429 . S
C1943 C1944 1.523 . S
C1944 C1928 1.368 . S
C1944 C1940 1.368 . S
C1944 C1943 1.523 . S
H1945 C1920 0.950 . S
H1946 C1922 0.950 . S
H1947 C1923 0.949 . S
H1948 C1925 0.950 . S
H1949 C1927 0.950 . S
C1950 C1951 1.349 . S
C1950 C1952 1.327 . S
C1950 H1975 0.950 . S
C1951 C1950 1.349 . S
C1951 C1967 1.349 . S
C1952 C1950 1.327 . S
C1952 C1971 1.429 . S
C1952 H1976 0.950 . S
C1953 C1970 1.574 . S
C1953 C1972 1.368 . S
C1953 H1977 0.949 . S
H1954 C1958 0.949 . S
C1955 C1956 1.349 . S
C1955 C1957 1.327 . S
C1955 H1978 0.950 . S
C1956 C1955 1.349 . S
C1956 C1968 1.349 . S
C1957 C1955 1.327 . S
C1957 C1973 1.429 . S
C1957 H1979 0.950 . S
C1958 H1954 0.949 . S
C1958 C1966 1.574 . S
C1958 C1974 1.368 . S
H1959 C1967 0.950 . S
H1960 C1965 0.950 . S
H1961 C1966 0.949 . S
H1962 C1968 0.950 . S
H1963 C1969 0.950 . S
H1964 C1970 0.949 . S
C1965 H1960 0.950 . S
C1965 C1967 1.327 . S
C1965 C1971 1.429 . S
C1966 C1958 1.574 . S
C1966 H1961 0.949 . S
C1966 C1972 1.368 . S
C1967 C1951 1.349 . S
C1967 H1959 0.950 . S
C1967 C1965 1.327 . S
C1968 C1956 1.349 . S
C1968 H1962 0.950 . S
C1968 C1969 1.327 . S
C1969 H1963 0.950 . S
C1969 C1968 1.327 . S
C1969 C1973 1.429 . S
C1970 C1953 1.574 . S
C1970 H1964 0.949 . S
C1970 C1974 1.368 . S
C1971 C1952 1.429 . S
C1971 C1965 1.429 . S
C1971 C1972 1.523 . S
C1972 C1953 1.368 . S
C1972 C1966 1.368 . S
C1972 C1971 1.523 . S
C1973 C1957 1.429 . S
C1973 C1969 1.429 . S
C1973 C1974 1.523 . S
C1974 C1958 1.368 . S
C1974 C1970 1.368 . S
C1974 C1973 1.523 . S
H1975 C1950 0.950 . S
H1976 C1952 0.950 . S
H1977 C1953 0.949 . S
H1978 C1955 0.950 . S
H1979 C1957 0.950 . S
C1980 C1981 1.349 . S
C1980 C1982 1.327 . S
C1980 H2005 0.950 . S
C1981 C1980 1.349 . S
C1981 C1997 1.349 . S
C1982 C1980 1.327 . S
C1982 C2001 1.429 . S
C1982 H2006 0.950 . S
C1983 C2000 1.574 . S
C1983 C2002 1.368 . S
C1983 H2007 0.949 . S
H1984 C1988 0.949 . S
C1985 C1986 1.349 . S
C1985 C1987 1.327 . S
C1985 H2008 0.950 . S
C1986 C1985 1.349 . S
C1986 C1998 1.349 . S
C1987 C1985 1.327 . S
C1987 C2003 1.429 . S
C1987 H2009 0.950 . S
C1988 H1984 0.949 . S
C1988 C1996 1.574 . S
C1988 C2004 1.368 . S
H1989 C1997 0.950 . S
H1990 C1995 0.950 . S
H1991 C1996 0.949 . S
H1992 C1998 0.950 . S
H1993 C1999 0.950 . S
H1994 C2000 0.949 . S
C1995 H1990 0.950 . S
C1995 C1997 1.327 . S
C1995 C2001 1.429 . S
C1996 C1988 1.574 . S
C1996 H1991 0.949 . S
C1996 C2002 1.368 . S
C1997 C1981 1.349 . S
C1997 H1989 0.950 . S
C1997 C1995 1.327 . S
C1998 C1986 1.349 . S
C1998 H1992 0.950 . S
C1998 C1999 1.327 . S
C1999 H1993 0.950 . S
C1999 C1998 1.327 . S
C1999 C2003 1.429 . S
C2000 C1983 1.574 . S
C2000 H1994 0.949 . S
C2000 C2004 1.368 . S
C2001 C1982 1.429 . S
C2001 C1995 1.429 . S
C2001 C2002 1.523 . S
C2002 C1983 1.368 . S
C2002 C1996 1.368 . S
C2002 C2001 1.523 . S
C2003 C1987 1.429 . S
C2003 C1999 1.429 . S
C2003 C2004 1.523 . S
C2004 C1988 1.368 . S
C2004 C2000 1.368 . S
C2004 C2003 1.523 . S
H2005 C1980 0.950 . S
H2006 C1982 0.950 . S
H2007 C1983 0.949 . S
H2008 C1985 0.950 . S
H2009 C1987 0.950 . S
C2010 C2011 1.349 . S
C2010 C2012 1.327 . S
C2010 H2035 0.950 . S
C2011 C2010 1.349 . S
C2011 C2027 1.349 . S
C2012 C2010 1.327 . S
C2012 C2031 1.429 . S
C2012 H2036 0.950 . S
C2013 C2030 1.574 . S
C2013 C2032 1.368 . S
C2013 H2037 0.949 . S
H2014 C2018 0.949 . S
C2015 C2016 1.349 . S
C2015 C2017 1.327 . S
C2015 H2038 0.950 . S
C2016 C2015 1.349 . S
C2016 C2028 1.349 . S
C2017 C2015 1.327 . S
C2017 C2033 1.429 . S
C2017 H2039 0.950 . S
C2018 H2014 0.949 . S
C2018 C2026 1.574 . S
C2018 C2034 1.368 . S
H2019 C2027 0.950 . S
H2020 C2025 0.950 . S
H2021 C2026 0.949 . S
H2022 C2028 0.950 . S
H2023 C2029 0.950 . S
H2024 C2030 0.949 . S
C2025 H2020 0.950 . S
C2025 C2027 1.327 . S
C2025 C2031 1.429 . S
C2026 C2018 1.574 . S
C2026 H2021 0.949 . S
C2026 C2032 1.368 . S
C2027 C2011 1.349 . S
C2027 H2019 0.950 . S
C2027 C2025 1.327 . S
C2028 C2016 1.349 . S
C2028 H2022 0.950 . S
C2028 C2029 1.327 . S
C2029 H2023 0.950 . S
C2029 C2028 1.327 . S
C2029 C2033 1.429 . S
C2030 C2013 1.574 . S
C2030 H2024 0.949 . S
C2030 C2034 1.368 . S
C2031 C2012 1.429 . S
C2031 C2025 1.429 . S
C2031 C2032 1.523 . S
C2032 C2013 1.368 . S
C2032 C2026 1.368 . S
C2032 C2031 1.523 . S
C2033 C2017 1.429 . S
C2033 C2029 1.429 . S
C2033 C2034 1.523 . S
C2034 C2018 1.368 . S
C2034 C2030 1.368 . S
C2034 C2033 1.523 . S
H2035 C2010 0.950 . S
H2036 C2012 0.950 . S
H2037 C2013 0.949 . S
H2038 C2015 0.950 . S
H2039 C2017 0.950 . S
C2040 C2041 1.349 . S
C2040 C2042 1.327 . S
C2040 H2065 0.950 . S
C2041 C2040 1.349 . S
C2041 C2057 1.349 . S
C2042 C2040 1.327 . S
C2042 C2061 1.429 . S
C2042 H2066 0.950 . S
C2043 C2060 1.574 . S
C2043 C2062 1.368 . S
C2043 H2067 0.949 . S
H2044 C2048 0.949 . S
C2045 C2046 1.349 . S
C2045 C2047 1.327 . S
C2045 H2068 0.950 . S
C2046 C2045 1.349 . S
C2046 C2058 1.349 . S
C2047 C2045 1.327 . S
C2047 C2063 1.429 . S
C2047 H2069 0.950 . S
C2048 H2044 0.949 . S
C2048 C2056 1.574 . S
C2048 C2064 1.368 . S
H2049 C2057 0.950 . S
H2050 C2055 0.950 . S
H2051 C2056 0.949 . S
H2052 C2058 0.950 . S
H2053 C2059 0.950 . S
H2054 C2060 0.949 . S
C2055 H2050 0.950 . S
C2055 C2057 1.327 . S
C2055 C2061 1.429 . S
C2056 C2048 1.574 . S
C2056 H2051 0.949 . S
C2056 C2062 1.368 . S
C2057 C2041 1.349 . S
C2057 H2049 0.950 . S
C2057 C2055 1.327 . S
C2058 C2046 1.349 . S
C2058 H2052 0.950 . S
C2058 C2059 1.327 . S
C2059 H2053 0.950 . S
C2059 C2058 1.327 . S
C2059 C2063 1.429 . S
C2060 C2043 1.574 . S
C2060 H2054 0.949 . S
C2060 C2064 1.368 . S
C2061 C2042 1.429 . S
C2061 C2055 1.429 . S
C2061 C2062 1.523 . S
C2062 C2043 1.368 . S
C2062 C2056 1.368 . S
C2062 C2061 1.523 . S
C2063 C2047 1.429 . S
C2063 C2059 1.429 . S
C2063 C2064 1.523 . S
C2064 C2048 1.368 . S
C2064 C2060 1.368 . S
C2064 C2063 1.523 . S
H2065 C2040 0.950 . S
H2066 C2042 0.950 . S
H2067 C2043 0.949 . S
H2068 C2045 0.950 . S
H2069 C2047 0.950 . S
C2070 C2071 1.349 . S
C2070 C2072 1.327 . S
C2070 H2095 0.950 . S
C2071 C2070 1.349 . S
C2071 C2087 1.349 . S
C2072 C2070 1.327 . S
C2072 C2091 1.429 . S
C2072 H2096 0.950 . S
C2073 C2090 1.574 . S
C2073 C2092 1.368 . S
C2073 H2097 0.949 . S
H2074 C2078 0.949 . S
C2075 C2076 1.349 1_655 S
C2075 C2077 1.327 . S
C2075 H2098 0.950 1_655 S
C2076 C2075 1.349 1_455 S
C2076 C2088 1.349 1_455 S
C2077 C2075 1.327 . S
C2077 C2093 1.429 . S
C2077 H2099 0.950 . S
C2078 H2074 0.949 . S
C2078 C2086 1.574 . S
C2078 C2094 1.368 . S
H2079 C2087 0.950 . S
H2080 C2085 0.950 . S
H2081 C2086 0.949 . S
H2082 C2088 0.950 1_455 S
H2083 C2089 0.950 . S
H2084 C2090 0.949 . S
C2085 H2080 0.950 . S
C2085 C2087 1.327 . S
C2085 C2091 1.429 . S
C2086 C2078 1.574 . S
C2086 H2081 0.949 . S
C2086 C2092 1.368 . S
C2087 C2071 1.349 . S
C2087 H2079 0.950 . S
C2087 C2085 1.327 . S
C2088 C2076 1.349 1_655 S
C2088 H2082 0.950 1_655 S
C2088 C2089 1.327 . S
C2089 H2083 0.950 . S
C2089 C2088 1.327 . S
C2089 C2093 1.429 . S
C2090 C2073 1.574 . S
C2090 H2084 0.949 . S
C2090 C2094 1.368 . S
C2091 C2072 1.429 . S
C2091 C2085 1.429 . S
C2091 C2092 1.523 . S
C2092 C2073 1.368 . S
C2092 C2086 1.368 . S
C2092 C2091 1.523 . S
C2093 C2077 1.429 . S
C2093 C2089 1.429 . S
C2093 C2094 1.523 . S
C2094 C2078 1.368 . S
C2094 C2090 1.368 . S
C2094 C2093 1.523 . S
H2095 C2070 0.950 . S
H2096 C2072 0.950 . S
H2097 C2073 0.949 . S
H2098 C2075 0.950 1_455 S
H2099 C2077 0.950 . S
C2100 C2101 1.349 . S
C2100 C2102 1.327 . S
C2100 H2125 0.950 . S
C2101 C2100 1.349 . S
C2101 C2117 1.349 . S
C2102 C2100 1.327 . S
C2102 C2121 1.429 1_565 S
C2102 H2126 0.950 . S
C2103 C2120 1.574 . S
C2103 C2122 1.368 . S
C2103 H2127 0.949 . S
H2104 C2108 0.949 . S
C2105 C2106 1.349 . S
C2105 C2107 1.327 . S
C2105 H2128 0.950 . S
C2106 C2105 1.349 . S
C2106 C2118 1.349 . S
C2107 C2105 1.327 . S
C2107 C2123 1.429 . S
C2107 H2129 0.950 . S
C2108 H2104 0.949 . S
C2108 C2116 1.574 . S
C2108 C2124 1.368 . S
H2109 C2117 0.950 . S
H2110 C2115 0.950 1_545 S
H2111 C2116 0.949 . S
H2112 C2118 0.950 . S
H2113 C2119 0.950 . S
H2114 C2120 0.949 . S
C2115 H2110 0.950 1_565 S
C2115 C2117 1.327 . S
C2115 C2121 1.429 1_565 S
C2116 C2108 1.574 . S
C2116 H2111 0.949 . S
C2116 C2122 1.368 . S
C2117 C2101 1.349 . S
C2117 H2109 0.950 . S
C2117 C2115 1.327 . S
C2118 C2106 1.349 . S
C2118 H2112 0.950 . S
C2118 C2119 1.327 . S
C2119 H2113 0.950 . S
C2119 C2118 1.327 . S
C2119 C2123 1.429 . S
C2120 C2103 1.574 . S
C2120 H2114 0.949 . S
C2120 C2124 1.368 . S
C2121 C2102 1.429 1_545 S
C2121 C2115 1.429 1_545 S
C2121 C2122 1.523 . S
C2122 C2103 1.368 . S
C2122 C2116 1.368 . S
C2122 C2121 1.523 . S
C2123 C2107 1.429 . S
C2123 C2119 1.429 . S
C2123 C2124 1.523 . S
C2124 C2108 1.368 . S
C2124 C2120 1.368 . S
C2124 C2123 1.523 . S
H2125 C2100 0.950 . S
H2126 C2102 0.950 . S
H2127 C2103 0.949 . S
H2128 C2105 0.950 . S
H2129 C2107 0.950 . S
C2130 C2131 1.349 . S
C2130 C2132 1.327 . S
C2130 H2155 0.950 . S
C2131 C2130 1.349 . S
C2131 C2147 1.349 . S
C2132 C2130 1.327 . S
C2132 C2151 1.429 . S
C2132 H2156 0.950 . S
C2133 C2150 1.574 . S
C2133 C2152 1.368 . S
C2133 H2157 0.949 . S
H2134 C2138 0.946 . S
C2135 C2136 1.349 . S
C2135 C2137 1.327 . S
C2135 H2158 0.950 . S
C2136 C2135 1.349 . S
C2136 C2148 1.349 . S
C2137 C2135 1.327 . S
C2137 C2153 1.429 . S
C2137 H2159 0.950 . S
C2138 H2134 0.946 . S
C2138 C2146 1.575 1_455 S
C2138 C2154 1.360 1_455 S
H2139 C2147 0.950 . S
H2140 C2145 0.950 . S
H2141 C2146 0.949 . S
H2142 C2148 0.950 . S
H2143 C2149 0.950 . S
H2144 C2150 0.949 . S
C2145 H2140 0.950 . S
C2145 C2147 1.327 . S
C2145 C2151 1.429 . S
C2146 C2138 1.575 1_655 S
C2146 H2141 0.949 . S
C2146 C2152 1.368 . S
C2147 C2131 1.349 . S
C2147 H2139 0.950 . S
C2147 C2145 1.327 . S
C2148 C2136 1.349 . S
C2148 H2142 0.950 . S
C2148 C2149 1.327 . S
C2149 H2143 0.950 . S
C2149 C2148 1.327 . S
C2149 C2153 1.429 . S
C2150 C2133 1.574 . S
C2150 H2144 0.949 . S
C2150 C2154 1.386 . S
C2151 C2132 1.429 . S
C2151 C2145 1.429 . S
C2151 C2152 1.523 . S
C2152 C2133 1.368 . S
C2152 C2146 1.368 . S
C2152 C2151 1.523 . S
C2153 C2137 1.429 . S
C2153 C2149 1.429 . S
C2153 C2154 1.514 1_455 S
C2154 C2138 1.360 1_655 S
C2154 C2150 1.386 . S
C2154 C2153 1.514 1_655 S
H2155 C2130 0.950 . S
H2156 C2132 0.950 . S
H2157 C2133 0.949 . S
H2158 C2135 0.950 . S
H2159 C2137 0.950 . S
C2160 C2161 1.349 . S
C2160 C2162 1.327 . S
C2160 H2185 0.950 . S
C2161 C2160 1.349 . S
C2161 C2177 1.349 . S
C2162 C2160 1.327 . S
C2162 C2181 1.429 . S
C2162 H2186 0.950 . S
C2163 C2180 1.574 . S
C2163 C2182 1.368 . S
C2163 H2187 0.949 . S
H2164 C2168 0.949 . S
C2165 C2166 1.349 1_565 S
C2165 C2167 1.327 . S
C2165 H2188 0.950 . S
C2166 C2165 1.349 1_545 S
C2166 C2178 1.349 1_545 S
C2167 C2165 1.327 . S
C2167 C2183 1.429 . S
C2167 H2189 0.950 . S
C2168 H2164 0.949 . S
C2168 C2176 1.574 . S
C2168 C2184 1.368 . S
H2169 C2177 0.950 . S
H2170 C2175 0.950 . S
H2171 C2176 0.949 . S
H2172 C2178 0.950 1_545 S
H2173 C2179 0.950 . S
H2174 C2180 0.949 . S
C2175 H2170 0.950 . S
C2175 C2177 1.327 . S
C2175 C2181 1.429 . S
C2176 C2168 1.574 . S
C2176 H2171 0.949 . S
C2176 C2182 1.368 . S
C2177 C2161 1.349 . S
C2177 H2169 0.950 . S
C2177 C2175 1.327 . S
C2178 C2166 1.349 1_565 S
C2178 H2172 0.950 1_565 S
C2178 C2179 1.327 . S
C2179 H2173 0.950 . S
C2179 C2178 1.327 . S
C2179 C2183 1.429 . S
C2180 C2163 1.574 . S
C2180 H2174 0.949 . S
C2180 C2184 1.368 . S
C2181 C2162 1.429 . S
C2181 C2175 1.429 . S
C2181 C2182 1.523 . S
C2182 C2163 1.368 . S
C2182 C2176 1.368 . S
C2182 C2181 1.523 . S
C2183 C2167 1.429 . S
C2183 C2179 1.429 . S
C2183 C2184 1.523 . S
C2184 C2168 1.368 . S
C2184 C2180 1.368 . S
C2184 C2183 1.523 . S
H2185 C2160 0.950 . S
H2186 C2162 0.950 . S
H2187 C2163 0.949 . S
H2188 C2165 0.950 . S
H2189 C2167 0.950 . S
C2190 C2191 1.349 . S
C2190 C2192 1.327 . S
C2190 H2215 0.950 . S
C2191 C2190 1.349 . S
C2191 C2207 1.349 . S
C2192 C2190 1.327 . S
C2192 C2211 1.429 . S
C2192 H2216 0.950 . S
C2193 C2210 1.574 . S
C2193 C2212 1.390 . S
C2193 H2217 0.949 . S
H2194 C2198 0.949 . S
C2195 C2196 1.349 . S
C2195 C2197 1.327 . S
C2195 H2218 0.950 . S
C2196 C2195 1.349 . S
C2196 C2208 1.349 . S
C2197 C2195 1.327 . S
C2197 C2213 1.429 . S
C2197 H2219 0.950 . S
C2198 H2194 0.949 . S
C2198 C2206 1.574 1_565 S
C2198 C2214 1.368 . S
H2199 C2207 0.950 . S
H2200 C2205 0.950 . S
H2201 C2206 0.949 . S
H2202 C2208 0.950 . S
H2203 C2209 0.950 . S
H2204 C2210 0.949 . S
C2205 H2200 0.950 . S
C2205 C2207 1.327 . S
C2205 C2211 1.429 . S
C2206 C2198 1.574 1_545 S
C2206 H2201 0.949 . S
C2206 C2212 1.355 1_545 S
C2207 C2191 1.349 . S
C2207 H2199 0.950 . S
C2207 C2205 1.327 . S
C2208 C2196 1.349 . S
C2208 H2202 0.950 . S
C2208 C2209 1.327 . S
C2209 H2203 0.950 . S
C2209 C2208 1.327 . S
C2209 C2213 1.429 . S
C2210 C2193 1.574 . S
C2210 H2204 0.949 . S
C2210 C2214 1.368 . S
C2211 C2192 1.429 . S
C2211 C2205 1.429 . S
C2211 C2212 1.514 1_545 S
C2212 C2193 1.390 . S
C2212 C2206 1.355 1_565 S
C2212 C2211 1.514 1_565 S
C2213 C2197 1.429 . S
C2213 C2209 1.429 . S
C2213 C2214 1.523 . S
C2214 C2198 1.368 . S
C2214 C2210 1.368 . S
C2214 C2213 1.523 . S
H2215 C2190 0.950 . S
H2216 C2192 0.950 . S
H2217 C2193 0.949 . S
H2218 C2195 0.950 . S
H2219 C2197 0.950 . S
C2220 C2221 1.349 . S
C2220 C2222 1.327 . S
C2220 H2245 0.950 . S
C2221 C2220 1.349 . S
C2221 C2237 1.349 . S
C2222 C2220 1.327 . S
C2222 C2241 1.429 . S
C2222 H2246 0.950 . S
C2223 C2240 1.574 . S
C2223 C2242 1.368 . S
C2223 H2247 0.949 . S
H2224 C2228 0.949 . S
C2225 C2226 1.349 . S
C2225 C2227 1.324 1_655 S
C2225 H2248 0.950 . S
C2226 C2225 1.349 . S
C2226 C2238 1.349 . S
C2227 C2225 1.324 1_455 S
C2227 C2243 1.430 . S
C2227 H2249 0.951 . S
C2228 H2224 0.949 . S
C2228 C2236 1.574 . S
C2228 C2244 1.368 . S
H2229 C2237 0.950 . S
H2230 C2235 0.950 . S
H2231 C2236 0.949 . S
H2232 C2238 0.950 . S
H2233 C2239 0.950 . S
H2234 C2240 0.949 . S
C2235 H2230 0.950 . S
C2235 C2237 1.327 . S
C2235 C2241 1.429 . S
C2236 C2228 1.574 . S
C2236 H2231 0.949 . S
C2236 C2242 1.368 . S
C2237 C2221 1.349 . S
C2237 H2229 0.950 . S
C2237 C2235 1.327 . S
C2238 C2226 1.349 . S
C2238 H2232 0.950 . S
C2238 C2239 1.327 . S
C2239 H2233 0.950 . S
C2239 C2238 1.327 . S
C2239 C2243 1.429 1_655 S
C2240 C2223 1.574 . S
C2240 H2234 0.949 . S
C2240 C2244 1.368 . S
C2241 C2222 1.429 . S
C2241 C2235 1.429 . S
C2241 C2242 1.523 . S
C2242 C2223 1.368 . S
C2242 C2236 1.368 . S
C2242 C2241 1.523 . S
C2243 C2227 1.430 . S
C2243 C2239 1.429 1_455 S
C2243 C2244 1.523 . S
C2244 C2228 1.368 . S
C2244 C2240 1.368 . S
C2244 C2243 1.523 . S
H2245 C2220 0.950 . S
H2246 C2222 0.950 . S
H2247 C2223 0.949 . S
H2248 C2225 0.950 . S
H2249 C2227 0.951 . S
C2250 C2251 1.349 . S
C2250 C2252 1.327 . S
C2250 H2275 0.950 . S
C2251 C2250 1.349 . S
C2251 C2267 1.349 . S
C2252 C2250 1.327 . S
C2252 C2271 1.429 . S
C2252 H2276 0.950 . S
C2253 C2270 1.574 . S
C2253 C2272 1.368 . S
C2253 H2277 0.949 . S
H2254 C2258 0.949 . S
C2255 C2256 1.349 . S
C2255 C2257 1.327 . S
C2255 H2278 0.950 . S
C2256 C2255 1.349 . S
C2256 C2268 1.349 . S
C2257 C2255 1.327 . S
C2257 C2273 1.429 . S
C2257 H2279 0.950 . S
C2258 H2254 0.949 . S
C2258 C2266 1.574 . S
C2258 C2274 1.368 . S
H2259 C2267 0.950 . S
H2260 C2265 0.950 . S
H2261 C2266 0.949 . S
H2262 C2268 0.950 . S
H2263 C2269 0.950 . S
H2264 C2270 0.949 . S
C2265 H2260 0.950 . S
C2265 C2267 1.327 . S
C2265 C2271 1.429 . S
C2266 C2258 1.574 . S
C2266 H2261 0.949 . S
C2266 C2272 1.368 . S
C2267 C2251 1.349 . S
C2267 H2259 0.950 . S
C2267 C2265 1.327 . S
C2268 C2256 1.349 . S
C2268 H2262 0.950 . S
C2268 C2269 1.327 . S
C2269 H2263 0.950 . S
C2269 C2268 1.327 . S
C2269 C2273 1.429 . S
C2270 C2253 1.574 . S
C2270 H2264 0.949 . S
C2270 C2274 1.368 . S
C2271 C2252 1.429 . S
C2271 C2265 1.429 . S
C2271 C2272 1.523 . S
C2272 C2253 1.368 . S
C2272 C2266 1.368 . S
C2272 C2271 1.523 . S
C2273 C2257 1.429 . S
C2273 C2269 1.429 . S
C2273 C2274 1.523 . S
C2274 C2258 1.368 . S
C2274 C2270 1.368 . S
C2274 C2273 1.523 . S
H2275 C2250 0.950 . S
H2276 C2252 0.950 . S
H2277 C2253 0.949 . S
H2278 C2255 0.950 . S
H2279 C2257 0.950 . S
C2280 C2281 1.349 . S
C2280 C2282 1.327 . S
C2280 H2305 0.950 . S
C2281 C2280 1.349 . S
C2281 C2297 1.349 . S
C2282 C2280 1.327 . S
C2282 C2301 1.429 . S
C2282 H2306 0.950 . S
C2283 C2300 1.574 . S
C2283 C2302 1.368 . S
C2283 H2307 0.949 . S
H2284 C2288 0.949 . S
C2285 C2286 1.349 . S
C2285 C2287 1.327 . S
C2285 H2308 0.950 . S
C2286 C2285 1.349 . S
C2286 C2298 1.349 . S
C2287 C2285 1.327 . S
C2287 C2303 1.429 . S
C2287 H2309 0.950 . S
C2288 H2284 0.949 . S
C2288 C2296 1.574 . S
C2288 C2304 1.368 . S
H2289 C2297 0.950 . S
H2290 C2295 0.950 . S
H2291 C2296 0.949 . S
H2292 C2298 0.950 . S
H2293 C2299 0.950 . S
H2294 C2300 0.949 . S
C2295 H2290 0.950 . S
C2295 C2297 1.327 . S
C2295 C2301 1.429 . S
C2296 C2288 1.574 . S
C2296 H2291 0.949 . S
C2296 C2302 1.368 . S
C2297 C2281 1.349 . S
C2297 H2289 0.950 . S
C2297 C2295 1.327 . S
C2298 C2286 1.349 . S
C2298 H2292 0.950 . S
C2298 C2299 1.327 . S
C2299 H2293 0.950 . S
C2299 C2298 1.327 . S
C2299 C2303 1.429 . S
C2300 C2283 1.574 . S
C2300 H2294 0.949 . S
C2300 C2304 1.368 . S
C2301 C2282 1.429 . S
C2301 C2295 1.429 . S
C2301 C2302 1.523 . S
C2302 C2283 1.368 . S
C2302 C2296 1.368 . S
C2302 C2301 1.523 . S
C2303 C2287 1.429 . S
C2303 C2299 1.429 . S
C2303 C2304 1.523 . S
C2304 C2288 1.368 . S
C2304 C2300 1.368 . S
C2304 C2303 1.523 . S
H2305 C2280 0.950 . S
H2306 C2282 0.950 . S
H2307 C2283 0.949 . S
H2308 C2285 0.950 . S
H2309 C2287 0.950 . S
C2310 C2311 1.349 . S
C2310 C2312 1.327 . S
C2310 H2335 0.950 . S
C2311 C2310 1.349 . S
C2311 C2327 1.349 . S
C2312 C2310 1.327 . S
C2312 C2331 1.429 . S
C2312 H2336 0.950 . S
C2313 C2330 1.574 . S
C2313 C2332 1.368 . S
C2313 H2337 0.949 . S
H2314 C2318 0.949 . S
C2315 C2316 1.349 . S
C2315 C2317 1.327 . S
C2315 H2338 0.950 . S
C2316 C2315 1.349 . S
C2316 C2328 1.349 . S
C2317 C2315 1.327 . S
C2317 C2333 1.429 . S
C2317 H2339 0.950 . S
C2318 H2314 0.949 . S
C2318 C2326 1.574 . S
C2318 C2334 1.368 . S
H2319 C2327 0.950 . S
H2320 C2325 0.950 . S
H2321 C2326 0.949 . S
H2322 C2328 0.950 . S
H2323 C2329 0.950 . S
H2324 C2330 0.949 . S
C2325 H2320 0.950 . S
C2325 C2327 1.327 . S
C2325 C2331 1.429 . S
C2326 C2318 1.574 . S
C2326 H2321 0.949 . S
C2326 C2332 1.368 . S
C2327 C2311 1.349 . S
C2327 H2319 0.950 . S
C2327 C2325 1.327 . S
C2328 C2316 1.349 . S
C2328 H2322 0.950 . S
C2328 C2329 1.327 . S
C2329 H2323 0.950 . S
C2329 C2328 1.327 . S
C2329 C2333 1.429 . S
C2330 C2313 1.574 . S
C2330 H2324 0.949 . S
C2330 C2334 1.368 . S
C2331 C2312 1.429 . S
C2331 C2325 1.429 . S
C2331 C2332 1.523 . S
C2332 C2313 1.368 . S
C2332 C2326 1.368 . S
C2332 C2331 1.523 . S
C2333 C2317 1.429 . S
C2333 C2329 1.429 . S
C2333 C2334 1.523 . S
C2334 C2318 1.368 . S
C2334 C2330 1.368 . S
C2334 C2333 1.523 . S
H2335 C2310 0.950 . S
H2336 C2312 0.950 . S
H2337 C2313 0.949 . S
H2338 C2315 0.950 . S
H2339 C2317 0.950 . S
C721 C9 1.089 . S
C726 C85 1.107 . S
C751 C5 1.107 . S
C756 C49 1.089 . S
C781 C45 1.107 . S
C786 C89 1.089 . S
C811 C129 1.089 . S
C816 C165 1.107 . S
C841 C205 1.107 . S
C846 C169 1.089 . S
C871 C209 1.089 . S
C876 C125 1.107 . S
C901 C325 1.107 . S
C906 C249 1.089 . S
C931 C245 1.107 . S
C936 C289 1.089 . S
C961 C329 1.089 . S
C966 C285 1.107 . S
C991 C405 1.107 . S
C996 C369 1.089 . S
C1021 C409 1.089 . S
C1026 C445 1.107 . S
C1051 C365 1.107 . S
C1056 C449 1.089 . S
C1081 C489 1.089 . S
C1086 C565 1.107 . S
C1111 C485 1.107 . S
C1116 C529 1.089 . S
C1141 C525 1.107 . S
C1146 C569 1.089 . S
C1171 C645 1.107 . S
C1176 C609 1.089 . S
C1201 C685 1.107 . S
C1206 C649 1.089 . S
C1231 C605 1.107 . S
C1236 C689 1.089 . S
C1261 C8 1.732 . S
C1266 C208 1.732 . S
C1291 C128 1.733 . S
C1296 C48 1.733 . S
C1321 C168 1.733 . S
C1326 C88 1.733 . S
C1351 C248 1.733 . S
C1356 C448 1.733 . S
C1381 C288 1.733 . S
C1386 C368 1.733 . S
C1411 C408 1.733 . S
C1416 C328 1.732 . S
C1441 C488 1.733 . S
C1446 C688 1.733 . S
C1471 C608 1.732 . S
C1476 C528 1.732 . S
C1501 C648 1.733 . S
C1506 C568 1.733 . S
C1531 C418 2.220 . S
C1536 C18 2.220 1_565 S
C1561 C58 2.221 . S
C1566 C458 2.221 . S
C1591 C378 2.221 . S
C1596 C98 2.221 . S
C1621 C138 2.220 1_655 S
C1626 C578 2.220 . S
C1651 C178 2.221 . S
C1656 C498 2.221 . S
C1681 C538 2.221 . S
C1686 C218 2.221 . S
C1711 C658 2.220 . S
C1716 C258 2.220 . S
C1741 C298 2.221 . S
C1746 C698 2.221 . S
C1771 C338 2.221 . S
C1776 C618 2.221 . S
C1801 C95 1.728 . S
C1806 C19 1.727 . S
C1831 C15 1.728 . S
C1836 C59 1.727 . S
C1861 C99 1.727 . S
C1866 C55 1.728 . S
C1891 C175 1.728 . S
C1896 C139 1.727 . S
C1921 C215 1.728 . S
C1926 C179 1.727 . S
C1951 C219 1.727 . S
C1956 C135 1.728 . S
C1981 C335 1.728 . S
C1986 C259 1.727 . S
C2011 C299 1.727 . S
C2016 C255 1.728 . S
C2041 C295 1.728 . S
C2046 C339 1.727 . S
C2071 C379 1.727 . S
C2076 C415 1.728 . S
C2101 C419 1.727 . S
C2106 C455 1.728 . S
C2131 C375 1.728 1_545 S
C2136 C459 1.727 . S
C2161 C499 1.727 . S
C2166 C575 1.728 . S
C2191 C539 1.727 . S
C2196 C495 1.728 1_455 S
C2221 C535 1.728 . S
C2226 C579 1.727 . S
C2251 C619 1.727 . S
C2256 C655 1.728 . S
C2281 C659 1.727 . S
C2286 C695 1.728 . S
C2311 C615 1.728 . S
C2316 C699 1.727 . S
