# Generated by pormake.
# Topology wke, (5)-cn, num edge types: 1
# Building blocks:
#     Node 0, Type 0, BuildingBlock: BEQFEK_clean_sbu_0, # of connection points: 5
#     Node 1, Type 0, BuildingBlock: BEQFEK_clean_sbu_0, # of connection points: 5
#     Node 2, Type 0, BuildingBlock: BEQFEK_clean_sbu_0, # of connection points: 5
#     Node 3, Type 0, BuildingBlock: BEQFEK_clean_sbu_0, # of connection points: 5
#     Node 4, Type 0, BuildingBlock: BEQFEK_clean_sbu_0, # of connection points: 5
#     Node 5, Type 0, BuildingBlock: BEQFEK_clean_sbu_0, # of connection points: 5
#     Node 6, Type 0, BuildingBlock: BEQFEK_clean_sbu_0, # of connection points: 5
#     Node 7, Type 0, BuildingBlock: BEQFEK_clean_sbu_0, # of connection points: 5
#     Node 8, Type 0, BuildingBlock: BEQFEK_clean_sbu_0, # of connection points: 5
#     Node 9, Type 0, BuildingBlock: BEQFEK_clean_sbu_0, # of connection points: 5
#     Node 10, Type 0, BuildingBlock: BEQFEK_clean_sbu_0, # of connection points: 5
#     Node 11, Type 0, BuildingBlock: BEQFEK_clean_sbu_0, # of connection points: 5
#     Edge 12, Type (0, 0), BuildingBlock: EYOCIG_clean_linker_4, # of connection points: 2
#     Edge 13, Type (0, 0), BuildingBlock: EYOCIG_clean_linker_4, # of connection points: 2
#     Edge 14, Type (0, 0), BuildingBlock: EYOCIG_clean_linker_4, # of connection points: 2
#     Edge 15, Type (0, 0), BuildingBlock: EYOCIG_clean_linker_4, # of connection points: 2
#     Edge 16, Type (0, 0), BuildingBlock: EYOCIG_clean_linker_4, # of connection points: 2
#     Edge 17, Type (0, 0), BuildingBlock: EYOCIG_clean_linker_4, # of connection points: 2
#     Edge 18, Type (0, 0), BuildingBlock: EYOCIG_clean_linker_4, # of connection points: 2
#     Edge 19, Type (0, 0), BuildingBlock: EYOCIG_clean_linker_4, # of connection points: 2
#     Edge 20, Type (0, 0), BuildingBlock: EYOCIG_clean_linker_4, # of connection points: 2
#     Edge 21, Type (0, 0), BuildingBlock: EYOCIG_clean_linker_4, # of connection points: 2
#     Edge 22, Type (0, 0), BuildingBlock: EYOCIG_clean_linker_4, # of connection points: 2
#     Edge 23, Type (0, 0), BuildingBlock: EYOCIG_clean_linker_4, # of connection points: 2
#     Edge 24, Type (0, 0), BuildingBlock: EYOCIG_clean_linker_4, # of connection points: 2
#     Edge 25, Type (0, 0), BuildingBlock: EYOCIG_clean_linker_4, # of connection points: 2
#     Edge 26, Type (0, 0), BuildingBlock: EYOCIG_clean_linker_4, # of connection points: 2
#     Edge 27, Type (0, 0), BuildingBlock: EYOCIG_clean_linker_4, # of connection points: 2
#     Edge 28, Type (0, 0), BuildingBlock: EYOCIG_clean_linker_4, # of connection points: 2
#     Edge 29, Type (0, 0), BuildingBlock: EYOCIG_clean_linker_4, # of connection points: 2
#     Edge 30, Type (0, 0), BuildingBlock: EYOCIG_clean_linker_4, # of connection points: 2
#     Edge 31, Type (0, 0), BuildingBlock: EYOCIG_clean_linker_4, # of connection points: 2
#     Edge 32, Type (0, 0), BuildingBlock: EYOCIG_clean_linker_4, # of connection points: 2
#     Edge 33, Type (0, 0), BuildingBlock: EYOCIG_clean_linker_4, # of connection points: 2
#     Edge 34, Type (0, 0), BuildingBlock: EYOCIG_clean_linker_4, # of connection points: 2
#     Edge 35, Type (0, 0), BuildingBlock: EYOCIG_clean_linker_4, # of connection points: 2
#     Edge 36, Type (0, 0), BuildingBlock: EYOCIG_clean_linker_4, # of connection points: 2
#     Edge 37, Type (0, 0), BuildingBlock: EYOCIG_clean_linker_4, # of connection points: 2
#     Edge 38, Type (0, 0), BuildingBlock: EYOCIG_clean_linker_4, # of connection points: 2
#     Edge 39, Type (0, 0), BuildingBlock: EYOCIG_clean_linker_4, # of connection points: 2
#     Edge 40, Type (0, 0), BuildingBlock: EYOCIG_clean_linker_4, # of connection points: 2
#     Edge 41, Type (0, 0), BuildingBlock: EYOCIG_clean_linker_4, # of connection points: 2
# Relax obj value: 0.237
# Max RMSD: 0.187
# Mean RMSD: 0.187
data_MOF--net-wke--node1-BEQFEK_clean_sbu_0--edge1-EYOCIG_clean_linker_4
_symmetry_space_group_name_H-M    P1
_symmetry_Int_Tables_number       1
_symmetry_cell_setting            triclinic
loop_
_symmetry_equiv_pos_as_xyz
'x, y, z'
_cell_length_a     56.88507
_cell_length_b     56.923579
_cell_length_c     15.787071
_cell_angle_alpha  89.987913
_cell_angle_beta   90.019068
_cell_angle_gamma 120.0222
loop_
_atom_site_label
_atom_site_type_symbol
_atom_site_fract_x
_atom_site_fract_y
_atom_site_fract_z
_atom_type_partial_charge
Co0 Co 0.10869 0.4531 0.24538 0.0
Co1 Co 0.12834 0.47146 0.43205 0.0
C2 C 0.07037 0.42858 0.38578 0.0
O3 O 0.0743 0.42799 0.30651 0.0
O4 O 0.08915 0.44464 0.43524 0.0
C5 C 0.09445 0.4262 0.07634 0.0
O6 O 0.07976 0.40231 0.11161 0.0
C7 C 0.1287 0.45672 0.60745 0.0
C8 C 0.15499 0.49601 0.67009 0.0
C9 C 0.13771 0.46869 0.68556 0.0
N10 N 0.13969 0.47607 0.54762 0.0
N11 N 0.1558 0.4995 0.58533 0.0
C12 C 0.10824 0.42764 0.59067 0.0
H13 H 0.11132 0.42165 0.52655 0.0
H14 H 0.10975 0.41432 0.63911 0.0
H15 H 0.08755 0.42496 0.59431 0.0
C16 C 0.15659 0.44545 0.24749 0.0
N17 N 0.13883 0.45083 0.28714 0.0
N18 N 0.14733 0.45879 0.36511 0.0
C19 C 0.17074 0.45871 0.37745 0.0
C20 C 0.17734 0.45038 0.30309 0.0
C21 C 0.15503 0.43803 0.15592 0.0
H22 H 0.15531 0.45429 0.11646 0.0
H23 H 0.13571 0.41894 0.14416 0.0
H24 H 0.17219 0.43513 0.13684 0.0
O25 O 0.11639 0.49098 0.25631 0.0
O26 O 0.13331 0.50604 0.3849 0.0
H27 H 0.19202 0.48955 0.47027 0.0
H28 H 0.20664 0.46812 0.45053 0.0
C29 C 0.18742 0.46856 0.45644 0.0
H30 H 0.17548 0.45557 0.5104 0.0
H31 H 0.16621 0.51804 0.55369 0.0
O32 O 0.10632 0.44746 0.12128 0.0
C33 C 0.12648 0.50975 0.31146 0.0
Co34 Co 0.66375 0.10418 0.74569 0.0
Co35 Co 0.66502 0.12382 0.93234 0.0
C36 C 0.65007 0.06593 0.8862 0.0
O37 O 0.65456 0.06985 0.80692 0.0
O38 O 0.65274 0.08468 0.93561 0.0
C39 C 0.67651 0.09003 0.57667 0.0
O40 O 0.68583 0.07544 0.61199 0.0
C41 C 0.68017 0.12423 0.10774 0.0
C42 C 0.66707 0.15043 0.17034 0.0
C43 C 0.67718 0.13322 0.18584 0.0
N44 N 0.67177 0.13518 0.04789 0.0
N45 N 0.66438 0.15123 0.08558 0.0
C46 C 0.68886 0.10383 0.09099 0.0
H47 H 0.69794 0.10693 0.02686 0.0
H48 H 0.70373 0.10539 0.13943 0.0
H49 H 0.67087 0.08314 0.09466 0.0
C50 C 0.71928 0.15216 0.74766 0.0
N51 N 0.69616 0.13436 0.78737 0.0
N52 N 0.69669 0.14285 0.86534 0.0
C53 C 0.72016 0.16629 0.87761 0.0
C54 C 0.73507 0.17291 0.80321 0.0
C55 C 0.72513 0.15063 0.65606 0.0
H56 H 0.70908 0.15082 0.61666 0.0
H57 H 0.725 0.13137 0.64431 0.0
H58 H 0.74515 0.16783 0.6369 0.0
O59 O 0.6335 0.11179 0.75661 0.0
O60 O 0.63534 0.12871 0.88518 0.0
H61 H 0.71052 0.1875 0.97039 0.0
H62 H 0.7466 0.20219 0.95061 0.0
C63 C 0.72696 0.18296 0.95656 0.0
H64 H 0.72805 0.17105 0.01055 0.0
H65 H 0.6562 0.1616 0.05393 0.0
O66 O 0.66702 0.1018 0.62159 0.0
C67 C 0.62479 0.12185 0.81175 0.0
Co68 Co 0.56773 0.65949 0.24607 0.0
Co69 Co 0.54939 0.66076 0.43276 0.0
C70 C 0.59229 0.64574 0.38649 0.0
O71 O 0.59287 0.65026 0.30722 0.0
O72 O 0.57623 0.64843 0.43597 0.0
C73 C 0.59468 0.67226 0.07713 0.0
O74 O 0.61859 0.68157 0.1125 0.0
C75 C 0.56415 0.67587 0.60816 0.0
C76 C 0.52485 0.6629 0.67073 0.0
C77 C 0.55218 0.67294 0.68624 0.0
N78 N 0.5448 0.6675 0.54831 0.0
N79 N 0.52136 0.66019 0.58598 0.0
C80 C 0.59324 0.68448 0.59142 0.0
H81 H 0.59926 0.69356 0.52729 0.0
H82 H 0.60659 0.69932 0.63986 0.0
H83 H 0.5959 0.66647 0.59507 0.0
C84 C 0.57536 0.71501 0.24811 0.0
N85 N 0.57 0.69189 0.28778 0.0
N86 N 0.56207 0.69242 0.36578 0.0
C87 C 0.56215 0.7159 0.37811 0.0
C88 C 0.57045 0.73082 0.30373 0.0
C89 C 0.58273 0.72087 0.1565 0.0
H90 H 0.56647 0.70483 0.11713 0.0
H91 H 0.60187 0.72074 0.14469 0.0
H92 H 0.58554 0.74087 0.13735 0.0
O93 O 0.52984 0.62927 0.25704 0.0
O94 O 0.51478 0.63111 0.38563 0.0
H95 H 0.53132 0.70632 0.47101 0.0
H96 H 0.55279 0.74237 0.45125 0.0
C97 C 0.55233 0.72271 0.45714 0.0
H98 H 0.56533 0.72375 0.51107 0.0
H99 H 0.5028 0.65206 0.55432 0.0
O100 O 0.57339 0.66277 0.12199 0.0
C101 C 0.51107 0.62057 0.31221 0.0
Co102 Co 0.91662 0.56328 0.74539 0.0
Co103 Co 0.89697 0.54489 0.93204 0.0
C104 C 0.95493 0.58781 0.88586 0.0
O105 O 0.95101 0.5884 0.80658 0.0
O106 O 0.93616 0.57173 0.93529 0.0
C107 C 0.93085 0.59018 0.57631 0.0
O108 O 0.94555 0.61408 0.61155 0.0
C109 C 0.8966 0.55962 0.10742 0.0
C110 C 0.87033 0.52032 0.17004 0.0
C111 C 0.88759 0.54764 0.18552 0.0
N112 N 0.88562 0.54027 0.04759 0.0
N113 N 0.86952 0.51684 0.08528 0.0
C114 C 0.91704 0.5887 0.09066 0.0
H115 H 0.91396 0.59469 0.02651 0.0
H116 H 0.91551 0.60202 0.13907 0.0
H117 H 0.93774 0.5914 0.09434 0.0
C118 C 0.86871 0.5709 0.74741 0.0
N119 N 0.88647 0.56554 0.7871 0.0
N120 N 0.87797 0.55756 0.86504 0.0
C121 C 0.85454 0.55761 0.87732 0.0
C122 C 0.84794 0.56594 0.80295 0.0
C123 C 0.87027 0.57834 0.65584 0.0
H124 H 0.86998 0.56208 0.61637 0.0
H125 H 0.88959 0.59743 0.64412 0.0
H126 H 0.85311 0.58124 0.63673 0.0
O127 O 0.90894 0.52541 0.75632 0.0
O128 O 0.89202 0.51032 0.88488 0.0
H129 H 0.83328 0.52674 0.97008 0.0
H130 H 0.81863 0.54814 0.95029 0.0
C131 C 0.83786 0.54773 0.95626 0.0
H132 H 0.84978 0.56071 0.01026 0.0
H133 H 0.85912 0.49829 0.05364 0.0
O134 O 0.91899 0.56893 0.6213 0.0
C135 C 0.89886 0.50664 0.81145 0.0
Co136 Co 0.36157 0.9123 0.24581 0.0
Co137 Co 0.36026 0.89268 0.43252 0.0
C138 C 0.37523 0.95057 0.38624 0.0
O139 O 0.37075 0.94664 0.30696 0.0
O140 O 0.37255 0.93183 0.43572 0.0
C141 C 0.34884 0.92648 0.07678 0.0
O142 O 0.33955 0.94109 0.11207 0.0
C143 C 0.34513 0.89229 0.6079 0.0
C144 C 0.35814 0.86602 0.67052 0.0
C145 C 0.34809 0.88327 0.686 0.0
N146 N 0.3535 0.88132 0.54807 0.0
N147 N 0.36084 0.86523 0.58576 0.0
C148 C 0.33649 0.91273 0.59113 0.0
H149 H 0.3274 0.90965 0.52701 0.0
H150 H 0.32165 0.91121 0.63957 0.0
H151 H 0.35451 0.93341 0.59476 0.0
C152 C 0.30603 0.86434 0.24769 0.0
N153 N 0.32915 0.88213 0.28744 0.0
N154 N 0.3286 0.87365 0.36543 0.0
C155 C 0.30512 0.85022 0.37769 0.0
C156 C 0.29022 0.84359 0.30324 0.0
C157 C 0.30019 0.86587 0.15605 0.0
H158 H 0.31625 0.86567 0.11673 0.0
H159 H 0.30033 0.88512 0.14423 0.0
H160 H 0.28017 0.84866 0.13685 0.0
O161 O 0.39182 0.9047 0.25689 0.0
O162 O 0.38995 0.88779 0.38551 0.0
H163 H 0.31471 0.82899 0.47058 0.0
H164 H 0.27864 0.81435 0.45074 0.0
C165 C 0.2983 0.83357 0.45668 0.0
H166 H 0.29724 0.8455 0.51062 0.0
H167 H 0.36898 0.85483 0.55413 0.0
O168 O 0.3583 0.91468 0.12171 0.0
C169 C 0.40052 0.89464 0.31211 0.0
Co170 Co 0.4575 0.35705 0.74572 0.0
Co171 Co 0.47587 0.35576 0.9324 0.0
C172 C 0.43298 0.3708 0.88617 0.0
O173 O 0.43237 0.36629 0.8069 0.0
O174 O 0.44905 0.3681 0.93561 0.0
C175 C 0.43057 0.3443 0.57665 0.0
O176 O 0.40664 0.33496 0.61192 0.0
C177 C 0.46112 0.34064 0.10779 0.0
C178 C 0.50042 0.3536 0.17042 0.0
C179 C 0.4731 0.34358 0.18589 0.0
N180 N 0.48047 0.34899 0.04796 0.0
N181 N 0.50391 0.3563 0.08566 0.0
C182 C 0.43203 0.33203 0.09102 0.0
H183 H 0.42601 0.32295 0.02689 0.0
H184 H 0.41868 0.31719 0.13945 0.0
H185 H 0.42938 0.35004 0.09466 0.0
C186 C 0.44988 0.30153 0.74768 0.0
N187 N 0.45523 0.32464 0.7874 0.0
N188 N 0.46318 0.3241 0.86538 0.0
C189 C 0.46312 0.30063 0.87767 0.0
C190 C 0.45482 0.28573 0.80325 0.0
C191 C 0.44252 0.2957 0.65604 0.0
H192 H 0.45878 0.31175 0.61672 0.0
H193 H 0.42338 0.29582 0.64422 0.0
H194 H 0.43971 0.2757 0.63686 0.0
O195 O 0.49539 0.38725 0.75672 0.0
O196 O 0.51048 0.38539 0.88529 0.0
H197 H 0.49399 0.31021 0.97049 0.0
H198 H 0.47251 0.27416 0.95073 0.0
C199 C 0.47297 0.29381 0.95665 0.0
H200 H 0.45999 0.29277 0.01061 0.0
H201 H 0.52247 0.36443 0.05403 0.0
O202 O 0.45185 0.35379 0.62161 0.0
C203 C 0.51418 0.39594 0.81187 0.0
Co204 Co 0.56789 0.91238 0.24219 0.0
Co205 Co 0.54949 0.89272 0.05553 0.0
C206 C 0.59246 0.95064 0.1017 0.0
O207 O 0.59305 0.94673 0.18099 0.0
O208 O 0.57637 0.93188 0.05229 0.0
C209 C 0.59481 0.92658 0.41127 0.0
O210 O 0.61873 0.94123 0.37603 0.0
C211 C 0.56424 0.89234 0.88016 0.0
C212 C 0.52492 0.8661 0.8175 0.0
C213 C 0.55226 0.88334 0.80204 0.0
N214 N 0.54488 0.88137 0.93997 0.0
N215 N 0.52143 0.86529 0.90226 0.0
C216 C 0.59334 0.91277 0.89695 0.0
H217 H 0.59934 0.90969 0.96109 0.0
H218 H 0.60667 0.91125 0.84854 0.0
H219 H 0.59604 0.93346 0.89328 0.0
C220 C 0.57548 0.86446 0.24025 0.0
N221 N 0.57012 0.88222 0.20053 0.0
N222 N 0.56215 0.87373 0.12257 0.0
C223 C 0.5622 0.85031 0.1103 0.0
C224 C 0.57051 0.84371 0.1847 0.0
C225 C 0.58289 0.86601 0.33184 0.0
H226 H 0.56664 0.86577 0.37125 0.0
H227 H 0.60202 0.88531 0.34358 0.0
H228 H 0.58576 0.84885 0.35098 0.0
O229 O 0.53 0.90473 0.23119 0.0
O230 O 0.51491 0.8878 0.10262 0.0
H231 H 0.53133 0.82907 0.01746 0.0
H232 H 0.55274 0.81443 0.0373 0.0
C233 C 0.55233 0.83365 0.03134 0.0
H234 H 0.56533 0.84557 0.97737 0.0
H235 H 0.50287 0.8549 0.93388 0.0
O236 O 0.57354 0.91475 0.36629 0.0
C237 C 0.51122 0.89466 0.17603 0.0
Co238 Co 0.66368 0.56328 0.7414 0.0
Co239 Co 0.66493 0.54495 0.55471 0.0
C240 C 0.64993 0.58784 0.601 0.0
O241 O 0.65444 0.5884 0.68027 0.0
O242 O 0.65261 0.57179 0.5515 0.0
C243 C 0.67643 0.5902 0.91037 0.0
O244 O 0.68571 0.6141 0.87502 0.0
C245 C 0.68006 0.5597 0.37933 0.0
C246 C 0.66703 0.52042 0.3167 0.0
C247 C 0.6771 0.54773 0.30123 0.0
N248 N 0.67168 0.54035 0.43916 0.0
N249 N 0.66432 0.51692 0.40146 0.0
C250 C 0.68872 0.58878 0.3961 0.0
H251 H 0.6978 0.59477 0.46024 0.0
H252 H 0.70358 0.6021 0.34769 0.0
H253 H 0.67071 0.59145 0.39243 0.0
C254 C 0.71923 0.5709 0.73937 0.0
N255 N 0.69609 0.56555 0.69968 0.0
N256 N 0.69662 0.55762 0.62169 0.0
C257 C 0.72011 0.55768 0.60937 0.0
C258 C 0.73503 0.56597 0.68377 0.0
C259 C 0.72509 0.57826 0.83099 0.0
H260 H 0.70905 0.56201 0.87035 0.0
H261 H 0.72494 0.59738 0.84281 0.0
H262 H 0.74512 0.58109 0.85013 0.0
O263 O 0.63346 0.5254 0.73046 0.0
O264 O 0.63529 0.51036 0.60184 0.0
H265 H 0.71049 0.52685 0.51652 0.0
H266 H 0.74657 0.54827 0.5363 0.0
C267 C 0.72691 0.54784 0.53038 0.0
H268 H 0.72797 0.56083 0.47643 0.0
H269 H 0.65617 0.49837 0.43309 0.0
O270 O 0.66697 0.56893 0.86549 0.0
C271 C 0.62476 0.50664 0.67528 0.0
Co272 Co 0.10874 0.65922 0.24136 0.0
Co273 Co 0.12839 0.66056 0.05469 0.0
C274 C 0.07043 0.6455 0.10089 0.0
O275 O 0.07436 0.64998 0.18018 0.0
O276 O 0.0892 0.64821 0.05144 0.0
C277 C 0.0945 0.67188 0.41036 0.0
O278 O 0.07983 0.6811 0.37504 0.0
C279 C 0.12875 0.67566 0.87928 0.0
C280 C 0.15511 0.66273 0.81676 0.0
C281 C 0.1378 0.67273 0.80121 0.0
N282 N 0.13976 0.66734 0.93916 0.0
N283 N 0.1559 0.66005 0.90152 0.0
C284 C 0.10826 0.68424 0.89597 0.0
H285 H 0.11132 0.69333 0.96008 0.0
H286 H 0.10974 0.69905 0.84749 0.0
H287 H 0.08758 0.6662 0.89234 0.0
C288 C 0.15665 0.71478 0.23944 0.0
N289 N 0.13889 0.69165 0.19972 0.0
N290 N 0.14738 0.69221 0.12175 0.0
C291 C 0.1708 0.71571 0.10947 0.0
C292 C 0.17739 0.73061 0.18388 0.0
C293 C 0.1551 0.72061 0.33104 0.0
H294 H 0.15535 0.70461 0.37044 0.0
H295 H 0.13579 0.72041 0.34279 0.0
H296 H 0.17227 0.74065 0.35021 0.0
O297 O 0.11642 0.62904 0.23035 0.0
O298 O 0.13335 0.63093 0.10177 0.0
H299 H 0.19209 0.7062 0.0166 0.0
H300 H 0.20666 0.74224 0.03642 0.0
C301 C 0.18746 0.72257 0.03048 0.0
H302 H 0.17549 0.7236 0.97654 0.0
H303 H 0.16634 0.65194 0.9332 0.0
O304 O 0.10636 0.66248 0.36545 0.0
C305 C 0.12651 0.62037 0.17517 0.0
Co306 Co 0.45749 0.10425 0.74163 0.0
Co307 Co 0.47583 0.12387 0.55493 0.0
C308 C 0.43288 0.06597 0.60119 0.0
O309 O 0.43231 0.0699 0.68047 0.0
O310 O 0.44896 0.08472 0.55173 0.0
C311 C 0.43056 0.09009 0.91059 0.0
O312 O 0.40664 0.07552 0.87521 0.0
C313 C 0.46108 0.12425 0.37952 0.0
C314 C 0.50039 0.15056 0.31696 0.0
C315 C 0.47306 0.13328 0.30144 0.0
N316 N 0.48043 0.13523 0.43938 0.0
N317 N 0.50388 0.15135 0.40172 0.0
C318 C 0.43198 0.10378 0.39624 0.0
H319 H 0.42597 0.10685 0.46034 0.0
H320 H 0.41865 0.10528 0.34776 0.0
H321 H 0.42932 0.08312 0.39263 0.0
C322 C 0.44994 0.15219 0.73966 0.0
N323 N 0.45527 0.13441 0.69996 0.0
N324 N 0.4632 0.14288 0.62196 0.0
C325 C 0.46314 0.16629 0.60964 0.0
C326 C 0.45487 0.17292 0.68406 0.0
C327 C 0.4426 0.15068 0.83129 0.0
H328 H 0.45884 0.15085 0.87063 0.0
H329 H 0.42344 0.13143 0.84311 0.0
H330 H 0.43983 0.16789 0.85048 0.0
O331 O 0.49537 0.11188 0.73062 0.0
O332 O 0.51042 0.12879 0.60202 0.0
H333 H 0.49396 0.18754 0.51671 0.0
H334 H 0.4725 0.20213 0.5365 0.0
C335 C 0.47295 0.18293 0.53061 0.0
H336 H 0.45994 0.17097 0.4767 0.0
H337 H 0.52243 0.16176 0.43338 0.0
O338 O 0.45185 0.10186 0.86572 0.0
C339 C 0.51413 0.12194 0.67543 0.0
Co340 Co 0.36166 0.45314 0.24173 0.0
Co341 Co 0.36036 0.47149 0.05505 0.0
C342 C 0.37542 0.42863 0.10128 0.0
O343 O 0.37092 0.42805 0.18056 0.0
O344 O 0.37271 0.44468 0.05183 0.0
C345 C 0.34899 0.42624 0.4108 0.0
O346 O 0.33976 0.40234 0.37555 0.0
C347 C 0.34524 0.45675 0.87965 0.0
C348 C 0.35826 0.49603 0.81703 0.0
C349 C 0.34821 0.46872 0.80155 0.0
N350 N 0.3536 0.47609 0.93949 0.0
N351 N 0.36094 0.49951 0.90179 0.0
C352 C 0.33661 0.42767 0.89643 0.0
H353 H 0.32753 0.42167 0.96055 0.0
H354 H 0.32175 0.41434 0.84799 0.0
H355 H 0.35462 0.42501 0.89278 0.0
C356 C 0.30608 0.44545 0.23969 0.0
N357 N 0.32922 0.45083 0.2 0.0
N358 N 0.32868 0.45878 0.12203 0.0
C359 C 0.30517 0.45869 0.10973 0.0
C360 C 0.29026 0.45037 0.18411 0.0
C361 C 0.30023 0.43805 0.33128 0.0
H362 H 0.31624 0.45432 0.3707 0.0
H363 H 0.30044 0.41896 0.34306 0.0
H364 H 0.28018 0.43515 0.3504 0.0
O365 O 0.39186 0.49104 0.2308 0.0
O366 O 0.38998 0.50608 0.10221 0.0
H367 H 0.31476 0.48955 0.01694 0.0
H368 H 0.27869 0.46809 0.03669 0.0
C369 C 0.29835 0.46854 0.03076 0.0
H370 H 0.2973 0.45557 0.97679 0.0
H371 H 0.36908 0.51806 0.93343 0.0
O372 O 0.35839 0.44749 0.36583 0.0
C373 C 0.40053 0.5098 0.17565 0.0
Co374 Co 0.91661 0.3572 0.74118 0.0
Co375 Co 0.89693 0.35587 0.55449 0.0
C376 C 0.95489 0.37092 0.60074 0.0
O377 O 0.95098 0.36643 0.68002 0.0
O378 O 0.93612 0.36821 0.55128 0.0
C379 C 0.93082 0.34453 0.91027 0.0
O380 O 0.94546 0.33526 0.87502 0.0
C381 C 0.89656 0.34077 0.37908 0.0
C382 C 0.8702 0.35371 0.31651 0.0
C383 C 0.88751 0.3437 0.301 0.0
N384 N 0.88556 0.3491 0.43894 0.0
N385 N 0.86942 0.35639 0.40127 0.0
C386 C 0.91705 0.33219 0.39581 0.0
H387 H 0.91399 0.3231 0.45992 0.0
H388 H 0.91556 0.31737 0.34734 0.0
H389 H 0.93772 0.35022 0.3922 0.0
C390 C 0.86867 0.30167 0.73929 0.0
N391 N 0.88644 0.32479 0.69954 0.0
N392 N 0.87794 0.32423 0.62156 0.0
C393 C 0.85451 0.30074 0.6093 0.0
C394 C 0.84791 0.28585 0.68373 0.0
C395 C 0.87021 0.29584 0.83091 0.0
H396 H 0.86999 0.31187 0.87025 0.0
H397 H 0.88951 0.29602 0.84271 0.0
H398 H 0.85303 0.27582 0.8501 0.0
O399 O 0.90894 0.38739 0.73013 0.0
O400 O 0.89199 0.3855 0.60153 0.0
H401 H 0.83321 0.31028 0.51644 0.0
H402 H 0.81862 0.27423 0.53626 0.0
C403 C 0.83783 0.2939 0.53031 0.0
H404 H 0.84978 0.29286 0.47637 0.0
H405 H 0.85899 0.3645 0.43293 0.0
O406 O 0.91899 0.35396 0.86529 0.0
C407 C 0.89885 0.39606 0.67493 0.0
C408 C 0.02399 0.39926 0.46581 0.0
C409 C 0.04409 0.41149 0.42272 0.0
C410 C 1.00126 0.38792 0.52069 0.0
C411 C 0.98117 0.38008 0.56378 0.0
C412 C 0.63313 0.01963 0.96644 0.0
C413 C 0.64095 0.03969 0.92322 0.0
C414 C 0.6218 0.99695 0.02147 0.0
C415 C 0.60957 0.97689 0.06468 0.0
C416 C 0.63295 0.61723 0.52112 0.0
C417 C 0.64078 0.60496 0.5641 0.0
C418 C 0.6216 0.62865 0.46638 0.0
C419 C 0.60937 0.63653 0.42337 0.0
C420 C 0.02405 0.62848 0.02083 0.0
C421 C 0.04415 0.63633 0.06393 0.0
C422 C 1.00132 0.61713 0.96595 0.0
C423 C 0.98121 0.60489 0.92284 0.0
C424 C 0.40352 0.01962 0.52116 0.0
C425 C 0.41577 0.0397 0.56427 0.0
C426 C 0.39218 0.9969 0.46628 0.0
C427 C 0.38436 0.97682 0.42318 0.0
C428 C 0.40371 0.38789 0.96627 0.0
C429 C 0.41592 0.38001 0.92314 0.0
C430 C 0.3924 0.39928 0.02118 0.0
C431 C 0.38457 0.41153 0.0643 0.0
C432 C 0.13171 0.57906 0.22554 0.0
C433 C 0.12998 0.59789 0.19802 0.0
C434 C 0.13171 0.55627 0.26099 0.0
C435 C 0.12996 0.5357 0.28854 0.0
C436 C 0.56066 0.12707 0.7258 0.0
C437 C 0.54009 0.12537 0.69827 0.0
C438 C 0.58345 0.12704 0.76124 0.0
C439 C 0.6023 0.12531 0.7888 0.0
C440 C 0.46456 0.57919 0.26174 0.0
C441 C 0.48512 0.59805 0.28933 0.0
C442 C 0.4418 0.55638 0.22621 0.0
C443 C 0.42298 0.53578 0.19861 0.0
C444 C 0.89364 0.46013 0.76089 0.0
C445 C 0.89538 0.48069 0.7885 0.0
C446 C 0.89364 0.43736 0.72536 0.0
C447 C 0.89537 0.41853 0.69779 0.0
C448 C 0.46469 0.88948 0.22643 0.0
C449 C 0.48526 0.89121 0.19891 0.0
C450 C 0.44189 0.88948 0.26182 0.0
C451 C 0.42303 0.8912 0.2893 0.0
C452 C 0.5607 0.43729 0.76137 0.0
C453 C 0.54014 0.41844 0.78898 0.0
C454 C 0.58347 0.46009 0.72582 0.0
C455 C 0.60229 0.48067 0.69821 0.0
C456 C 0.11853 0.4458 0.83449 0.0
C457 C 0.12733 0.45633 0.76673 0.0
C458 C 0.10792 0.43513 0.91532 0.0
C459 C 0.10041 0.42876 0.9874 0.0
C460 C 0.68103 0.10349 0.41565 0.0
C461 C 0.67991 0.096 0.48773 0.0
C462 C 0.68093 0.11408 0.3348 0.0
C463 C 0.67919 0.12286 0.26702 0.0
C464 C 0.57509 0.6767 0.83522 0.0
C465 C 0.56455 0.67496 0.76744 0.0
C466 C 0.58577 0.6768 0.91608 0.0
C467 C 0.59213 0.67567 0.98818 0.0
C468 C 0.91737 0.58123 0.41529 0.0
C469 C 0.92488 0.58761 0.48737 0.0
C470 C 0.90677 0.57054 0.33446 0.0
C471 C 0.89796 0.56001 0.2667 0.0
C472 C 0.34437 0.90243 0.83494 0.0
C473 C 0.34609 0.89363 0.76717 0.0
C474 C 0.34429 0.91302 0.91576 0.0
C475 C 0.34542 0.92052 0.98784 0.0
C476 C 0.43952 0.33976 0.41566 0.0
C477 C 0.43314 0.34089 0.48772 0.0
C478 C 0.4502 0.33985 0.33483 0.0
C479 C 0.46073 0.34158 0.26707 0.0
C480 C 0.58586 0.91311 0.57229 0.0
C481 C 0.59224 0.92061 0.50021 0.0
C482 C 0.57517 0.90251 0.65311 0.0
C483 C 0.56463 0.89371 0.72087 0.0
C484 C 0.68087 0.57063 0.15227 0.0
C485 C 0.67912 0.5601 0.22005 0.0
C486 C 0.68097 0.5813 0.07142 0.0
C487 C 0.67984 0.58767 -0.00068 0.0
C488 C 0.10799 0.67645 0.57138 0.0
C489 C 0.10047 0.6753 0.4993 0.0
C490 C 0.1186 0.6764 0.65223 0.0
C491 C 0.12742 0.6747 0.72 0.0
C492 C 0.43948 0.10355 0.07161 0.0
C493 C 0.43311 0.09606 -0.00048 0.0
C494 C 0.45016 0.11413 0.15246 0.0
C495 C 0.46069 0.12293 0.22024 0.0
C496 C 0.34451 0.44584 0.65262 0.0
C497 C 0.34623 0.45637 0.72038 0.0
C498 C 0.34444 0.43517 0.5718 0.0
C499 C 0.34558 0.4288 0.49973 0.0
C500 C 0.9067 0.34003 0.15206 0.0
C501 C 0.89788 0.34174 0.21981 0.0
C502 C 0.91732 0.33997 0.07125 0.0
C503 C 0.92483 0.34111 -0.00081 0.0
C504 C 0.22194 0.44996 0.25898 0.0
C505 C 0.20205 0.45048 0.28246 0.0
C506 C 0.24524 0.44995 0.2283 0.0
C507 C 0.26565 0.45048 0.2048 0.0
C508 C 0.80331 0.24085 0.72806 0.0
C509 C 0.82319 0.26125 0.70446 0.0
C510 C 0.78004 0.21755 0.7589 0.0
C511 C 0.75965 0.19765 0.7825 0.0
C512 C 0.57089 0.79912 0.22892 0.0
C513 C 0.57038 0.819 0.2054 0.0
C514 C 0.57087 0.77582 0.25961 0.0
C515 C 0.57035 0.75541 0.2831 0.0
C516 C 0.80333 0.56634 0.75871 0.0
C517 C 0.82322 0.56582 0.78225 0.0
C518 C 0.78004 0.56635 0.72797 0.0
C519 C 0.75963 0.56584 0.70444 0.0
C520 C 0.24524 0.79896 0.25893 0.0
C521 C 0.26563 0.81886 0.28251 0.0
C522 C 0.22197 0.77565 0.22815 0.0
C523 C 0.20209 0.75523 0.20458 0.0
C524 C 0.45446 0.24077 0.75899 0.0
C525 C 0.45496 0.26115 0.78255 0.0
C526 C 0.45447 0.2175 0.72824 0.0
C527 C 0.45499 0.19762 0.7047 0.0
loop_
_geom_bond_atom_site_label_1
_geom_bond_atom_site_label_2
_geom_bond_distance
_geom_bond_site_symmetry_2
_ccdc_geom_bond_type
Co0 O3 1.970 . S
Co0 N17 1.989 . S
Co0 O25 1.967 . S
Co0 O32 1.920 . S
Co1 O4 1.966 . S
Co1 N10 2.022 . S
Co1 N18 1.993 . S
Co1 O26 1.941 . S
C2 O3 1.258 . S
C2 O4 1.263 . S
O3 Co0 1.970 . S
O3 C2 1.258 . S
O4 Co1 1.966 . S
O4 C2 1.263 . S
C5 O6 1.235 . S
C5 O32 1.289 . S
O6 C5 1.235 . S
C7 C9 1.400 . S
C7 N10 1.351 . S
C7 C12 1.501 . S
C8 C9 1.387 . S
C8 N11 1.341 . S
C9 C7 1.400 . S
C9 C8 1.387 . S
N10 Co1 2.022 . S
N10 C7 1.351 . S
N10 N11 1.365 . S
N11 C8 1.341 . S
N11 N10 1.365 . S
N11 H31 0.862 . S
C12 C7 1.501 . S
C12 H13 0.961 . S
C12 H14 0.961 . S
C12 H15 0.960 . S
H13 C12 0.961 . S
H14 C12 0.961 . S
H15 C12 0.960 . S
C16 N17 1.342 . S
C16 C20 1.401 . S
C16 C21 1.499 . S
N17 Co0 1.989 . S
N17 C16 1.342 . S
N17 N18 1.388 . S
N18 Co1 1.993 . S
N18 N17 1.388 . S
N18 C19 1.346 . S
C19 N18 1.346 . S
C19 C20 1.396 . S
C19 C29 1.510 . S
C20 C16 1.401 . S
C20 C19 1.396 . S
C21 C16 1.499 . S
C21 H22 0.959 . S
C21 H23 0.960 . S
C21 H24 0.961 . S
H22 C21 0.959 . S
H23 C21 0.960 . S
H24 C21 0.961 . S
O25 Co0 1.967 . S
O25 C33 1.258 . S
O26 Co1 1.941 . S
O26 C33 1.266 . S
H27 C29 0.959 . S
H28 C29 0.961 . S
C29 C19 1.510 . S
C29 H27 0.959 . S
C29 H28 0.961 . S
C29 H30 0.960 . S
H30 C29 0.960 . S
H31 N11 0.862 . S
O32 Co0 1.920 . S
O32 C5 1.289 . S
C33 O25 1.258 . S
C33 O26 1.266 . S
Co34 O37 1.970 . S
Co34 N51 1.989 . S
Co34 O59 1.967 . S
Co34 O66 1.920 . S
Co35 O38 1.966 . S
Co35 N44 2.022 1_556 S
Co35 N52 1.993 . S
Co35 O60 1.941 . S
C36 O37 1.258 . S
C36 O38 1.263 . S
O37 Co34 1.970 . S
O37 C36 1.258 . S
O38 Co35 1.966 . S
O38 C36 1.263 . S
C39 O40 1.235 . S
C39 O66 1.289 . S
O40 C39 1.235 . S
C41 C43 1.400 . S
C41 N44 1.351 . S
C41 C46 1.501 . S
C42 C43 1.387 . S
C42 N45 1.341 . S
C43 C41 1.400 . S
C43 C42 1.387 . S
N44 Co35 2.022 1_554 S
N44 C41 1.351 . S
N44 N45 1.365 . S
N45 C42 1.341 . S
N45 N44 1.365 . S
N45 H65 0.862 . S
C46 C41 1.501 . S
C46 H47 0.961 . S
C46 H48 0.961 . S
C46 H49 0.960 . S
H47 C46 0.961 . S
H48 C46 0.961 . S
H49 C46 0.960 . S
C50 N51 1.342 . S
C50 C54 1.401 . S
C50 C55 1.499 . S
N51 Co34 1.989 . S
N51 C50 1.342 . S
N51 N52 1.388 . S
N52 Co35 1.993 . S
N52 N51 1.388 . S
N52 C53 1.346 . S
C53 N52 1.346 . S
C53 C54 1.396 . S
C53 C63 1.510 . S
C54 C50 1.401 . S
C54 C53 1.396 . S
C55 C50 1.499 . S
C55 H56 0.959 . S
C55 H57 0.960 . S
C55 H58 0.961 . S
H56 C55 0.959 . S
H57 C55 0.960 . S
H58 C55 0.961 . S
O59 Co34 1.967 . S
O59 C67 1.258 . S
O60 Co35 1.941 . S
O60 C67 1.266 . S
H61 C63 0.959 . S
H62 C63 0.961 1_554 S
C63 C53 1.510 . S
C63 H61 0.959 . S
C63 H62 0.961 1_556 S
C63 H64 0.960 1_556 S
H64 C63 0.960 1_554 S
H65 N45 0.862 . S
O66 Co34 1.920 . S
O66 C39 1.289 . S
C67 O59 1.258 . S
C67 O60 1.266 . S
Co68 O71 1.970 . S
Co68 N85 1.989 . S
Co68 O93 1.967 . S
Co68 O100 1.920 . S
Co69 O72 1.966 . S
Co69 N78 2.022 . S
Co69 N86 1.993 . S
Co69 O94 1.941 . S
C70 O71 1.258 . S
C70 O72 1.263 . S
O71 Co68 1.970 . S
O71 C70 1.258 . S
O72 Co69 1.966 . S
O72 C70 1.263 . S
C73 O74 1.235 . S
C73 O100 1.289 . S
O74 C73 1.235 . S
C75 C77 1.400 . S
C75 N78 1.351 . S
C75 C80 1.501 . S
C76 C77 1.387 . S
C76 N79 1.341 . S
C77 C75 1.400 . S
C77 C76 1.387 . S
N78 Co69 2.022 . S
N78 C75 1.351 . S
N78 N79 1.365 . S
N79 C76 1.341 . S
N79 N78 1.365 . S
N79 H99 0.862 . S
C80 C75 1.501 . S
C80 H81 0.961 . S
C80 H82 0.961 . S
C80 H83 0.960 . S
H81 C80 0.961 . S
H82 C80 0.961 . S
H83 C80 0.960 . S
C84 N85 1.342 . S
C84 C88 1.401 . S
C84 C89 1.499 . S
N85 Co68 1.989 . S
N85 C84 1.342 . S
N85 N86 1.388 . S
N86 Co69 1.993 . S
N86 N85 1.388 . S
N86 C87 1.346 . S
C87 N86 1.346 . S
C87 C88 1.396 . S
C87 C97 1.510 . S
C88 C84 1.401 . S
C88 C87 1.396 . S
C89 C84 1.499 . S
C89 H90 0.959 . S
C89 H91 0.960 . S
C89 H92 0.961 . S
H90 C89 0.959 . S
H91 C89 0.960 . S
H92 C89 0.961 . S
O93 Co68 1.967 . S
O93 C101 1.258 . S
O94 Co69 1.941 . S
O94 C101 1.266 . S
H95 C97 0.959 . S
H96 C97 0.961 . S
C97 C87 1.510 . S
C97 H95 0.959 . S
C97 H96 0.961 . S
C97 H98 0.960 . S
H98 C97 0.960 . S
H99 N79 0.862 . S
O100 Co68 1.920 . S
O100 C73 1.289 . S
C101 O93 1.258 . S
C101 O94 1.266 . S
Co102 O105 1.970 . S
Co102 N119 1.989 . S
Co102 O127 1.967 . S
Co102 O134 1.920 . S
Co103 O106 1.966 . S
Co103 N112 2.022 1_556 S
Co103 N120 1.993 . S
Co103 O128 1.941 . S
C104 O105 1.258 . S
C104 O106 1.263 . S
O105 Co102 1.970 . S
O105 C104 1.258 . S
O106 Co103 1.966 . S
O106 C104 1.263 . S
C107 O108 1.235 . S
C107 O134 1.289 . S
O108 C107 1.235 . S
C109 C111 1.400 . S
C109 N112 1.351 . S
C109 C114 1.501 . S
C110 C111 1.387 . S
C110 N113 1.341 . S
C111 C109 1.400 . S
C111 C110 1.387 . S
N112 Co103 2.022 1_554 S
N112 C109 1.351 . S
N112 N113 1.365 . S
N113 C110 1.341 . S
N113 N112 1.365 . S
N113 H133 0.862 . S
C114 C109 1.501 . S
C114 H115 0.961 . S
C114 H116 0.961 . S
C114 H117 0.960 . S
H115 C114 0.961 . S
H116 C114 0.961 . S
H117 C114 0.960 . S
C118 N119 1.342 . S
C118 C122 1.401 . S
C118 C123 1.499 . S
N119 Co102 1.989 . S
N119 C118 1.342 . S
N119 N120 1.388 . S
N120 Co103 1.993 . S
N120 N119 1.388 . S
N120 C121 1.346 . S
C121 N120 1.346 . S
C121 C122 1.396 . S
C121 C131 1.510 . S
C122 C118 1.401 . S
C122 C121 1.396 . S
C123 C118 1.499 . S
C123 H124 0.959 . S
C123 H125 0.960 . S
C123 H126 0.961 . S
H124 C123 0.959 . S
H125 C123 0.960 . S
H126 C123 0.961 . S
O127 Co102 1.967 . S
O127 C135 1.258 . S
O128 Co103 1.941 . S
O128 C135 1.266 . S
H129 C131 0.959 . S
H130 C131 0.961 1_554 S
C131 C121 1.510 . S
C131 H129 0.959 . S
C131 H130 0.961 1_556 S
C131 H132 0.960 1_556 S
H132 C131 0.960 1_554 S
H133 N113 0.862 . S
O134 Co102 1.920 . S
O134 C107 1.289 . S
C135 O127 1.258 . S
C135 O128 1.266 . S
Co136 O139 1.970 . S
Co136 N153 1.989 . S
Co136 O161 1.967 . S
Co136 O168 1.920 . S
Co137 O140 1.966 . S
Co137 N146 2.022 . S
Co137 N154 1.993 . S
Co137 O162 1.941 . S
C138 O139 1.258 . S
C138 O140 1.263 . S
O139 Co136 1.970 . S
O139 C138 1.258 . S
O140 Co137 1.966 . S
O140 C138 1.263 . S
C141 O142 1.235 . S
C141 O168 1.289 . S
O142 C141 1.235 . S
C143 C145 1.400 . S
C143 N146 1.351 . S
C143 C148 1.501 . S
C144 C145 1.387 . S
C144 N147 1.341 . S
C145 C143 1.400 . S
C145 C144 1.387 . S
N146 Co137 2.022 . S
N146 C143 1.351 . S
N146 N147 1.365 . S
N147 C144 1.341 . S
N147 N146 1.365 . S
N147 H167 0.862 . S
C148 C143 1.501 . S
C148 H149 0.961 . S
C148 H150 0.961 . S
C148 H151 0.960 . S
H149 C148 0.961 . S
H150 C148 0.961 . S
H151 C148 0.960 . S
C152 N153 1.342 . S
C152 C156 1.401 . S
C152 C157 1.499 . S
N153 Co136 1.989 . S
N153 C152 1.342 . S
N153 N154 1.388 . S
N154 Co137 1.993 . S
N154 N153 1.388 . S
N154 C155 1.346 . S
C155 N154 1.346 . S
C155 C156 1.396 . S
C155 C165 1.510 . S
C156 C152 1.401 . S
C156 C155 1.396 . S
C157 C152 1.499 . S
C157 H158 0.959 . S
C157 H159 0.960 . S
C157 H160 0.961 . S
H158 C157 0.959 . S
H159 C157 0.960 . S
H160 C157 0.961 . S
O161 Co136 1.967 . S
O161 C169 1.258 . S
O162 Co137 1.941 . S
O162 C169 1.266 . S
H163 C165 0.959 . S
H164 C165 0.961 . S
C165 C155 1.510 . S
C165 H163 0.959 . S
C165 H164 0.961 . S
C165 H166 0.960 . S
H166 C165 0.960 . S
H167 N147 0.862 . S
O168 Co136 1.920 . S
O168 C141 1.289 . S
C169 O161 1.258 . S
C169 O162 1.266 . S
Co170 O173 1.970 . S
Co170 N187 1.989 . S
Co170 O195 1.967 . S
Co170 O202 1.920 . S
Co171 O174 1.966 . S
Co171 N180 2.022 1_556 S
Co171 N188 1.993 . S
Co171 O196 1.941 . S
C172 O173 1.258 . S
C172 O174 1.263 . S
O173 Co170 1.970 . S
O173 C172 1.258 . S
O174 Co171 1.966 . S
O174 C172 1.263 . S
C175 O176 1.235 . S
C175 O202 1.289 . S
O176 C175 1.235 . S
C177 C179 1.400 . S
C177 N180 1.351 . S
C177 C182 1.501 . S
C178 C179 1.387 . S
C178 N181 1.341 . S
C179 C177 1.400 . S
C179 C178 1.387 . S
N180 Co171 2.022 1_554 S
N180 C177 1.351 . S
N180 N181 1.365 . S
N181 C178 1.341 . S
N181 N180 1.365 . S
N181 H201 0.862 . S
C182 C177 1.501 . S
C182 H183 0.961 . S
C182 H184 0.961 . S
C182 H185 0.960 . S
H183 C182 0.961 . S
H184 C182 0.961 . S
H185 C182 0.960 . S
C186 N187 1.342 . S
C186 C190 1.401 . S
C186 C191 1.499 . S
N187 Co170 1.989 . S
N187 C186 1.342 . S
N187 N188 1.388 . S
N188 Co171 1.993 . S
N188 N187 1.388 . S
N188 C189 1.346 . S
C189 N188 1.346 . S
C189 C190 1.396 . S
C189 C199 1.510 . S
C190 C186 1.401 . S
C190 C189 1.396 . S
C191 C186 1.499 . S
C191 H192 0.959 . S
C191 H193 0.960 . S
C191 H194 0.961 . S
H192 C191 0.959 . S
H193 C191 0.960 . S
H194 C191 0.961 . S
O195 Co170 1.967 . S
O195 C203 1.258 . S
O196 Co171 1.941 . S
O196 C203 1.266 . S
H197 C199 0.959 . S
H198 C199 0.961 1_554 S
C199 C189 1.510 . S
C199 H197 0.959 . S
C199 H198 0.961 1_556 S
C199 H200 0.960 1_556 S
H200 C199 0.960 1_554 S
H201 N181 0.862 . S
O202 Co170 1.920 . S
O202 C175 1.289 . S
C203 O195 1.258 . S
C203 O196 1.266 . S
Co204 O207 1.970 . S
Co204 N221 1.989 . S
Co204 O229 1.967 . S
Co204 O236 1.920 . S
Co205 O208 1.966 . S
Co205 N214 2.022 1_554 S
Co205 N222 1.993 . S
Co205 O230 1.941 . S
C206 O207 1.258 . S
C206 O208 1.263 . S
O207 Co204 1.970 . S
O207 C206 1.258 . S
O208 Co205 1.966 . S
O208 C206 1.263 . S
C209 O210 1.235 . S
C209 O236 1.289 . S
O210 C209 1.235 . S
C211 C213 1.400 . S
C211 N214 1.351 . S
C211 C216 1.501 . S
C212 C213 1.387 . S
C212 N215 1.341 . S
C213 C211 1.400 . S
C213 C212 1.387 . S
N214 Co205 2.022 1_556 S
N214 C211 1.351 . S
N214 N215 1.365 . S
N215 C212 1.341 . S
N215 N214 1.365 . S
N215 H235 0.862 . S
C216 C211 1.501 . S
C216 H217 0.961 . S
C216 H218 0.961 . S
C216 H219 0.960 . S
H217 C216 0.961 . S
H218 C216 0.961 . S
H219 C216 0.960 . S
C220 N221 1.342 . S
C220 C224 1.401 . S
C220 C225 1.499 . S
N221 Co204 1.989 . S
N221 C220 1.342 . S
N221 N222 1.388 . S
N222 Co205 1.993 . S
N222 N221 1.388 . S
N222 C223 1.346 . S
C223 N222 1.346 . S
C223 C224 1.396 . S
C223 C233 1.510 . S
C224 C220 1.401 . S
C224 C223 1.396 . S
C225 C220 1.499 . S
C225 H226 0.959 . S
C225 H227 0.960 . S
C225 H228 0.961 . S
H226 C225 0.959 . S
H227 C225 0.960 . S
H228 C225 0.961 . S
O229 Co204 1.967 . S
O229 C237 1.258 . S
O230 Co205 1.941 . S
O230 C237 1.266 . S
H231 C233 0.959 . S
H232 C233 0.961 1_556 S
C233 C223 1.510 . S
C233 H231 0.959 . S
C233 H232 0.961 1_554 S
C233 H234 0.960 1_554 S
H234 C233 0.960 1_556 S
H235 N215 0.862 . S
O236 Co204 1.920 . S
O236 C209 1.289 . S
C237 O229 1.258 . S
C237 O230 1.266 . S
Co238 O241 1.970 . S
Co238 N255 1.989 . S
Co238 O263 1.967 . S
Co238 O270 1.920 . S
Co239 O242 1.966 . S
Co239 N248 2.022 . S
Co239 N256 1.993 . S
Co239 O264 1.941 . S
C240 O241 1.258 . S
C240 O242 1.263 . S
O241 Co238 1.970 . S
O241 C240 1.258 . S
O242 Co239 1.966 . S
O242 C240 1.263 . S
C243 O244 1.235 . S
C243 O270 1.289 . S
O244 C243 1.235 . S
C245 C247 1.400 . S
C245 N248 1.351 . S
C245 C250 1.501 . S
C246 C247 1.387 . S
C246 N249 1.341 . S
C247 C245 1.400 . S
C247 C246 1.387 . S
N248 Co239 2.022 . S
N248 C245 1.351 . S
N248 N249 1.365 . S
N249 C246 1.341 . S
N249 N248 1.365 . S
N249 H269 0.862 . S
C250 C245 1.501 . S
C250 H251 0.961 . S
C250 H252 0.961 . S
C250 H253 0.960 . S
H251 C250 0.961 . S
H252 C250 0.961 . S
H253 C250 0.960 . S
C254 N255 1.342 . S
C254 C258 1.401 . S
C254 C259 1.499 . S
N255 Co238 1.989 . S
N255 C254 1.342 . S
N255 N256 1.388 . S
N256 Co239 1.993 . S
N256 N255 1.388 . S
N256 C257 1.346 . S
C257 N256 1.346 . S
C257 C258 1.396 . S
C257 C267 1.510 . S
C258 C254 1.401 . S
C258 C257 1.396 . S
C259 C254 1.499 . S
C259 H260 0.959 . S
C259 H261 0.960 . S
C259 H262 0.961 . S
H260 C259 0.959 . S
H261 C259 0.960 . S
H262 C259 0.961 . S
O263 Co238 1.967 . S
O263 C271 1.258 . S
O264 Co239 1.941 . S
O264 C271 1.266 . S
H265 C267 0.959 . S
H266 C267 0.961 . S
C267 C257 1.510 . S
C267 H265 0.959 . S
C267 H266 0.961 . S
C267 H268 0.960 . S
H268 C267 0.960 . S
H269 N249 0.862 . S
O270 Co238 1.920 . S
O270 C243 1.289 . S
C271 O263 1.258 . S
C271 O264 1.266 . S
Co272 O275 1.970 . S
Co272 N289 1.989 . S
Co272 O297 1.967 . S
Co272 O304 1.920 . S
Co273 O276 1.966 . S
Co273 N282 2.022 1_554 S
Co273 N290 1.993 . S
Co273 O298 1.941 . S
C274 O275 1.258 . S
C274 O276 1.263 . S
O275 Co272 1.970 . S
O275 C274 1.258 . S
O276 Co273 1.966 . S
O276 C274 1.263 . S
C277 O278 1.235 . S
C277 O304 1.289 . S
O278 C277 1.235 . S
C279 C281 1.400 . S
C279 N282 1.351 . S
C279 C284 1.501 . S
C280 C281 1.387 . S
C280 N283 1.341 . S
C281 C279 1.400 . S
C281 C280 1.387 . S
N282 Co273 2.022 1_556 S
N282 C279 1.351 . S
N282 N283 1.365 . S
N283 C280 1.341 . S
N283 N282 1.365 . S
N283 H303 0.862 . S
C284 C279 1.501 . S
C284 H285 0.961 . S
C284 H286 0.961 . S
C284 H287 0.960 . S
H285 C284 0.961 . S
H286 C284 0.961 . S
H287 C284 0.960 . S
C288 N289 1.342 . S
C288 C292 1.401 . S
C288 C293 1.499 . S
N289 Co272 1.989 . S
N289 C288 1.342 . S
N289 N290 1.388 . S
N290 Co273 1.993 . S
N290 N289 1.388 . S
N290 C291 1.346 . S
C291 N290 1.346 . S
C291 C292 1.396 . S
C291 C301 1.510 . S
C292 C288 1.401 . S
C292 C291 1.396 . S
C293 C288 1.499 . S
C293 H294 0.959 . S
C293 H295 0.960 . S
C293 H296 0.961 . S
H294 C293 0.959 . S
H295 C293 0.960 . S
H296 C293 0.961 . S
O297 Co272 1.967 . S
O297 C305 1.258 . S
O298 Co273 1.941 . S
O298 C305 1.266 . S
H299 C301 0.959 . S
H300 C301 0.961 1_556 S
C301 C291 1.510 . S
C301 H299 0.959 . S
C301 H300 0.961 1_554 S
C301 H302 0.960 1_554 S
H302 C301 0.960 1_556 S
H303 N283 0.862 . S
O304 Co272 1.920 . S
O304 C277 1.289 . S
C305 O297 1.258 . S
C305 O298 1.266 . S
Co306 O309 1.970 . S
Co306 N323 1.989 . S
Co306 O331 1.967 . S
Co306 O338 1.920 . S
Co307 O310 1.966 . S
Co307 N316 2.022 . S
Co307 N324 1.993 . S
Co307 O332 1.941 . S
C308 O309 1.258 . S
C308 O310 1.263 . S
O309 Co306 1.970 . S
O309 C308 1.258 . S
O310 Co307 1.966 . S
O310 C308 1.263 . S
C311 O312 1.235 . S
C311 O338 1.289 . S
O312 C311 1.235 . S
C313 C315 1.400 . S
C313 N316 1.351 . S
C313 C318 1.501 . S
C314 C315 1.387 . S
C314 N317 1.341 . S
C315 C313 1.400 . S
C315 C314 1.387 . S
N316 Co307 2.022 . S
N316 C313 1.351 . S
N316 N317 1.365 . S
N317 C314 1.341 . S
N317 N316 1.365 . S
N317 H337 0.862 . S
C318 C313 1.501 . S
C318 H319 0.961 . S
C318 H320 0.961 . S
C318 H321 0.960 . S
H319 C318 0.961 . S
H320 C318 0.961 . S
H321 C318 0.960 . S
C322 N323 1.342 . S
C322 C326 1.401 . S
C322 C327 1.499 . S
N323 Co306 1.989 . S
N323 C322 1.342 . S
N323 N324 1.388 . S
N324 Co307 1.993 . S
N324 N323 1.388 . S
N324 C325 1.346 . S
C325 N324 1.346 . S
C325 C326 1.396 . S
C325 C335 1.510 . S
C326 C322 1.401 . S
C326 C325 1.396 . S
C327 C322 1.499 . S
C327 H328 0.959 . S
C327 H329 0.960 . S
C327 H330 0.961 . S
H328 C327 0.959 . S
H329 C327 0.960 . S
H330 C327 0.961 . S
O331 Co306 1.967 . S
O331 C339 1.258 . S
O332 Co307 1.941 . S
O332 C339 1.266 . S
H333 C335 0.959 . S
H334 C335 0.961 . S
C335 C325 1.510 . S
C335 H333 0.959 . S
C335 H334 0.961 . S
C335 H336 0.960 . S
H336 C335 0.960 . S
H337 N317 0.862 . S
O338 Co306 1.920 . S
O338 C311 1.289 . S
C339 O331 1.258 . S
C339 O332 1.266 . S
Co340 O343 1.970 . S
Co340 N357 1.989 . S
Co340 O365 1.967 . S
Co340 O372 1.920 . S
Co341 O344 1.966 . S
Co341 N350 2.022 1_554 S
Co341 N358 1.993 . S
Co341 O366 1.941 . S
C342 O343 1.258 . S
C342 O344 1.263 . S
O343 Co340 1.970 . S
O343 C342 1.258 . S
O344 Co341 1.966 . S
O344 C342 1.263 . S
C345 O346 1.235 . S
C345 O372 1.289 . S
O346 C345 1.235 . S
C347 C349 1.400 . S
C347 N350 1.351 . S
C347 C352 1.501 . S
C348 C349 1.387 . S
C348 N351 1.341 . S
C349 C347 1.400 . S
C349 C348 1.387 . S
N350 Co341 2.022 1_556 S
N350 C347 1.351 . S
N350 N351 1.365 . S
N351 C348 1.341 . S
N351 N350 1.365 . S
N351 H371 0.862 . S
C352 C347 1.501 . S
C352 H353 0.961 . S
C352 H354 0.961 . S
C352 H355 0.960 . S
H353 C352 0.961 . S
H354 C352 0.961 . S
H355 C352 0.960 . S
C356 N357 1.342 . S
C356 C360 1.401 . S
C356 C361 1.499 . S
N357 Co340 1.989 . S
N357 C356 1.342 . S
N357 N358 1.388 . S
N358 Co341 1.993 . S
N358 N357 1.388 . S
N358 C359 1.346 . S
C359 N358 1.346 . S
C359 C360 1.396 . S
C359 C369 1.510 . S
C360 C356 1.401 . S
C360 C359 1.396 . S
C361 C356 1.499 . S
C361 H362 0.959 . S
C361 H363 0.960 . S
C361 H364 0.961 . S
H362 C361 0.959 . S
H363 C361 0.960 . S
H364 C361 0.961 . S
O365 Co340 1.967 . S
O365 C373 1.258 . S
O366 Co341 1.941 . S
O366 C373 1.266 . S
H367 C369 0.959 . S
H368 C369 0.961 1_556 S
C369 C359 1.510 . S
C369 H367 0.959 . S
C369 H368 0.961 1_554 S
C369 H370 0.960 1_554 S
H370 C369 0.960 1_556 S
H371 N351 0.862 . S
O372 Co340 1.920 . S
O372 C345 1.289 . S
C373 O365 1.258 . S
C373 O366 1.266 . S
Co374 O377 1.970 . S
Co374 N391 1.989 . S
Co374 O399 1.967 . S
Co374 O406 1.920 . S
Co375 O378 1.966 . S
Co375 N384 2.022 . S
Co375 N392 1.993 . S
Co375 O400 1.941 . S
C376 O377 1.258 . S
C376 O378 1.263 . S
O377 Co374 1.970 . S
O377 C376 1.258 . S
O378 Co375 1.966 . S
O378 C376 1.263 . S
C379 O380 1.235 . S
C379 O406 1.289 . S
O380 C379 1.235 . S
C381 C383 1.400 . S
C381 N384 1.351 . S
C381 C386 1.501 . S
C382 C383 1.387 . S
C382 N385 1.341 . S
C383 C381 1.400 . S
C383 C382 1.387 . S
N384 Co375 2.022 . S
N384 C381 1.351 . S
N384 N385 1.365 . S
N385 C382 1.341 . S
N385 N384 1.365 . S
N385 H405 0.862 . S
C386 C381 1.501 . S
C386 H387 0.961 . S
C386 H388 0.961 . S
C386 H389 0.960 . S
H387 C386 0.961 . S
H388 C386 0.961 . S
H389 C386 0.960 . S
C390 N391 1.342 . S
C390 C394 1.401 . S
C390 C395 1.499 . S
N391 Co374 1.989 . S
N391 C390 1.342 . S
N391 N392 1.388 . S
N392 Co375 1.993 . S
N392 N391 1.388 . S
N392 C393 1.346 . S
C393 N392 1.346 . S
C393 C394 1.396 . S
C393 C403 1.510 . S
C394 C390 1.401 . S
C394 C393 1.396 . S
C395 C390 1.499 . S
C395 H396 0.959 . S
C395 H397 0.960 . S
C395 H398 0.961 . S
H396 C395 0.959 . S
H397 C395 0.960 . S
H398 C395 0.961 . S
O399 Co374 1.967 . S
O399 C407 1.258 . S
O400 Co375 1.941 . S
O400 C407 1.266 . S
H401 C403 0.959 . S
H402 C403 0.961 . S
C403 C393 1.510 . S
C403 H401 0.959 . S
C403 H402 0.961 . S
C403 H404 0.960 . S
H404 C403 0.960 . S
H405 N385 0.862 . S
O406 Co374 1.920 . S
O406 C379 1.289 . S
C407 O399 1.258 . S
C407 O400 1.266 . S
C408 C409 1.170 . S
C408 C410 1.380 1_455 S
C409 C408 1.170 . S
C410 C408 1.380 1_655 S
C410 C411 1.170 . S
C411 C410 1.170 . S
C412 C413 1.170 . S
C412 C414 1.380 1_546 S
C413 C412 1.170 . S
C414 C412 1.380 1_564 S
C414 C415 1.170 . S
C415 C414 1.170 . S
C416 C417 1.170 . S
C416 C418 1.380 . S
C417 C416 1.170 . S
C418 C416 1.380 . S
C418 C419 1.170 . S
C419 C418 1.170 . S
C420 C421 1.170 . S
C420 C422 1.380 1_454 S
C421 C420 1.170 . S
C422 C420 1.380 1_656 S
C422 C423 1.170 . S
C423 C422 1.170 . S
C424 C425 1.170 . S
C424 C426 1.380 1_545 S
C425 C424 1.170 . S
C426 C424 1.380 1_565 S
C426 C427 1.170 . S
C427 C426 1.170 . S
C428 C429 1.170 . S
C428 C430 1.380 1_556 S
C429 C428 1.170 . S
C430 C428 1.380 1_554 S
C430 C431 1.170 . S
C431 C430 1.170 . S
C432 C433 1.170 . S
C432 C434 1.380 . S
C433 C432 1.170 . S
C434 C432 1.380 . S
C434 C435 1.170 . S
C435 C434 1.170 . S
C436 C437 1.170 . S
C436 C438 1.380 . S
C437 C436 1.170 . S
C438 C436 1.380 . S
C438 C439 1.170 . S
C439 C438 1.170 . S
C440 C441 1.170 . S
C440 C442 1.380 . S
C441 C440 1.170 . S
C442 C440 1.380 . S
C442 C443 1.170 . S
C443 C442 1.170 . S
C444 C445 1.170 . S
C444 C446 1.380 . S
C445 C444 1.170 . S
C446 C444 1.380 . S
C446 C447 1.170 . S
C447 C446 1.170 . S
C448 C449 1.170 . S
C448 C450 1.380 . S
C449 C448 1.170 . S
C450 C448 1.380 . S
C450 C451 1.170 . S
C451 C450 1.170 . S
C452 C453 1.170 . S
C452 C454 1.380 . S
C453 C452 1.170 . S
C454 C452 1.380 . S
C454 C455 1.170 . S
C455 C454 1.170 . S
C456 C457 1.170 . S
C456 C458 1.380 . S
C457 C456 1.170 . S
C458 C456 1.380 . S
C458 C459 1.170 . S
C459 C458 1.170 . S
C460 C461 1.170 . S
C460 C462 1.380 . S
C461 C460 1.170 . S
C462 C460 1.380 . S
C462 C463 1.170 . S
C463 C462 1.170 . S
C464 C465 1.170 . S
C464 C466 1.380 . S
C465 C464 1.170 . S
C466 C464 1.380 . S
C466 C467 1.170 . S
C467 C466 1.170 . S
C468 C469 1.170 . S
C468 C470 1.380 . S
C469 C468 1.170 . S
C470 C468 1.380 . S
C470 C471 1.170 . S
C471 C470 1.170 . S
C472 C473 1.170 . S
C472 C474 1.380 . S
C473 C472 1.170 . S
C474 C472 1.380 . S
C474 C475 1.170 . S
C475 C474 1.170 . S
C476 C477 1.170 . S
C476 C478 1.380 . S
C477 C476 1.170 . S
C478 C476 1.380 . S
C478 C479 1.170 . S
C479 C478 1.170 . S
C480 C481 1.170 . S
C480 C482 1.380 . S
C481 C480 1.170 . S
C482 C480 1.380 . S
C482 C483 1.170 . S
C483 C482 1.170 . S
C484 C485 1.170 . S
C484 C486 1.380 . S
C485 C484 1.170 . S
C486 C484 1.380 . S
C486 C487 1.170 . S
C487 C486 1.170 . S
C488 C489 1.170 . S
C488 C490 1.380 . S
C489 C488 1.170 . S
C490 C488 1.380 . S
C490 C491 1.170 . S
C491 C490 1.170 . S
C492 C493 1.170 . S
C492 C494 1.380 . S
C493 C492 1.170 . S
C494 C492 1.380 . S
C494 C495 1.170 . S
C495 C494 1.170 . S
C496 C497 1.170 . S
C496 C498 1.380 . S
C497 C496 1.170 . S
C498 C496 1.380 . S
C498 C499 1.170 . S
C499 C498 1.170 . S
C500 C501 1.170 . S
C500 C502 1.380 . S
C501 C500 1.170 . S
C502 C500 1.380 . S
C502 C503 1.170 . S
C503 C502 1.170 . S
C504 C505 1.170 . S
C504 C506 1.380 . S
C505 C504 1.170 . S
C506 C504 1.380 . S
C506 C507 1.170 . S
C507 C506 1.170 . S
C508 C509 1.170 . S
C508 C510 1.380 . S
C509 C508 1.170 . S
C510 C508 1.380 . S
C510 C511 1.170 . S
C511 C510 1.170 . S
C512 C513 1.170 . S
C512 C514 1.380 . S
C513 C512 1.170 . S
C514 C512 1.380 . S
C514 C515 1.170 . S
C515 C514 1.170 . S
C516 C517 1.170 . S
C516 C518 1.380 . S
C517 C516 1.170 . S
C518 C516 1.380 . S
C518 C519 1.170 . S
C519 C518 1.170 . S
C520 C521 1.170 . S
C520 C522 1.380 . S
C521 C520 1.170 . S
C522 C520 1.380 . S
C522 C523 1.170 . S
C523 C522 1.170 . S
C524 C525 1.170 . S
C524 C526 1.380 . S
C525 C524 1.170 . S
C526 C524 1.380 . S
C526 C527 1.170 . S
C527 C526 1.170 . S
C409 C2 1.655 . S
C411 C376 1.662 . S
C413 C36 1.649 . S
C415 C206 1.669 . S
C417 C240 1.669 . S
C419 C70 1.649 . S
C421 C274 1.673 . S
C423 C104 1.646 . S
C425 C308 1.668 . S
C427 C138 1.649 . S
C429 C172 1.662 . S
C431 C342 1.656 . S
C433 C305 1.608 . S
C435 C33 1.596 . S
C437 C339 1.607 . S
C439 C67 1.598 . S
C441 C101 1.608 . S
C443 C373 1.597 . S
C445 C135 1.596 . S
C447 C407 1.609 . S
C449 C237 1.596 . S
C451 C169 1.609 . S
C453 C203 1.600 . S
C455 C271 1.605 . S
C457 C9 1.317 . S
C459 C5 1.351 1_556 S
C461 C39 1.350 . S
C463 C43 1.340 . S
C465 C77 1.347 . S
C467 C73 1.338 1_556 S
C469 C107 1.338 . S
C471 C111 1.304 . S
C473 C145 1.336 . S
C475 C141 1.352 1_556 S
C477 C175 1.326 . S
C479 C179 1.344 . S
C481 C209 1.353 . S
C483 C213 1.329 . S
C485 C247 1.327 . S
C487 C243 1.353 1_554 S
C489 C277 1.331 . S
C491 C281 1.303 . S
C493 C311 1.336 1_554 S
C495 C315 1.347 . S
C497 C349 1.321 . S
C499 C345 1.353 . S
C501 C383 1.308 . S
C503 C379 1.319 1_554 S
C505 C20 1.567 . S
C507 C360 1.555 . S
C509 C394 1.554 . S
C511 C54 1.569 . S
C513 C224 1.554 . S
C515 C88 1.570 . S
C517 C122 1.560 . S
C519 C258 1.577 . S
C521 C156 1.557 . S
C523 C292 1.562 . S
C525 C190 1.560 . S
C527 C326 1.560 . S
