# Generated by pormake.
# Topology sxb, (6)-cn, num edge types: 1
# Building blocks:
#     Node 0, Type 0, BuildingBlock: KUMBUR_clean_sbu_1, # of connection points: 6
#     Node 1, Type 0, BuildingBlock: KUMBUR_clean_sbu_1, # of connection points: 6
#     Node 2, Type 0, BuildingBlock: KUMBUR_clean_sbu_1, # of connection points: 6
#     Node 3, Type 0, BuildingBlock: KUMBUR_clean_sbu_1, # of connection points: 6
#     Edge 4, Type (0, 0), BuildingBlock: FUNLAD_clean_linker_1, # of connection points: 2
#     Edge 5, Type (0, 0), BuildingBlock: FUNLAD_clean_linker_1, # of connection points: 2
#     Edge 6, Type (0, 0), BuildingBlock: FUNLAD_clean_linker_1, # of connection points: 2
#     Edge 7, Type (0, 0), BuildingBlock: FUNLAD_clean_linker_1, # of connection points: 2
#     Edge 8, Type (0, 0), BuildingBlock: FUNLAD_clean_linker_1, # of connection points: 2
#     Edge 9, Type (0, 0), BuildingBlock: FUNLAD_clean_linker_1, # of connection points: 2
#     Edge 10, Type (0, 0), BuildingBlock: FUNLAD_clean_linker_1, # of connection points: 2
#     Edge 11, Type (0, 0), BuildingBlock: FUNLAD_clean_linker_1, # of connection points: 2
#     Edge 12, Type (0, 0), BuildingBlock: FUNLAD_clean_linker_1, # of connection points: 2
#     Edge 13, Type (0, 0), BuildingBlock: FUNLAD_clean_linker_1, # of connection points: 2
#     Edge 14, Type (0, 0), BuildingBlock: FUNLAD_clean_linker_1, # of connection points: 2
#     Edge 15, Type (0, 0), BuildingBlock: FUNLAD_clean_linker_1, # of connection points: 2
# Relax obj value: 0.013
# Max RMSD: 0.056
# Mean RMSD: 0.056
data_MOF--net-sxb--node1-KUMBUR_clean_sbu_1--edge1-FUNLAD_clean_linker_1
_symmetry_space_group_name_H-M    P1
_symmetry_Int_Tables_number       1
_symmetry_cell_setting            triclinic
loop_
_symmetry_equiv_pos_as_xyz
'x, y, z'
_cell_length_a     15.871343
_cell_length_b     49.277274
_cell_length_c     30.824491
_cell_angle_alpha  115.08605
_cell_angle_beta   90.0483
_cell_angle_gamma 90.156362
loop_
_atom_site_label
_atom_site_type_symbol
_atom_site_fract_x
_atom_site_fract_y
_atom_site_fract_z
_atom_type_partial_charge
Tb0 Tb 1.01575 0.96319 0.98221 0.0
C1 C 0.19684 0.08778 0.08939 0.0
N2 N 0.11915 0.07876 0.09679 0.0
C3 C 0.1394 0.10465 0.18184 0.0
C4 C 0.24952 0.10519 0.12813 0.0
C5 C 0.08917 0.0875 0.14231 0.0
C6 C 0.22009 0.11338 0.17477 0.0
C7 C 0.30333 0.08859 0.03338 0.0
C8 C 0.22369 0.07949 0.04261 0.0
C9 C 0.35623 0.10578 0.07188 0.0
C10 C 0.32947 0.11399 0.11912 0.0
Tb11 Tb 0.04386 0.05146 0.02876 0.0
N12 N 0.17254 0.06159 0.00615 0.0
C13 C 0.32742 0.08002 0.98571 0.0
C14 C 0.1941 0.05431 0.95972 0.0
C15 C 0.27202 0.06317 0.94877 0.0
H16 H 1.02578 0.08202 0.14855 0.0
H17 H 0.28927 0.05703 0.91184 0.0
H18 H 0.0394 0.93164 0.86282 0.0
H19 H 0.76615 0.95718 0.09642 0.0
H20 H 0.15096 0.04223 0.93113 0.0
H21 H 0.38811 0.08656 0.97707 0.0
H22 H 0.90506 0.97244 0.07859 0.0
H23 H 0.11544 0.11146 0.21778 0.0
H24 H 0.41791 0.11283 0.06552 0.0
H25 H 0.37092 0.12731 0.14844 0.0
H26 H 0.95299 0.9013 0.79255 0.0
H27 H 0.25863 0.12677 0.20552 0.0
H28 H 0.6699 0.92704 0.03013 0.0
N29 N 0.94355 0.93507 0.91338 0.0
C30 C 0.8655 0.92592 0.91991 0.0
C31 C 0.92728 0.90839 0.82817 0.0
C32 C 0.81459 0.90804 0.8806 0.0
C33 C 0.97568 0.92602 0.86825 0.0
C34 C 0.84619 0.89954 0.83431 0.0
N35 N 0.88635 0.95263 0.00332 0.0
C36 C 0.86307 0.96002 0.04954 0.0
C37 C 0.75678 0.92506 0.97473 0.0
C38 C 0.83669 0.9344 0.96635 0.0
C39 C 0.73086 0.93375 0.02214 0.0
C40 C 0.78481 0.95093 0.05966 0.0
H41 H 0.80908 0.88578 0.80314 0.0
H42 H 0.69417 0.88536 0.85894 0.0
H43 H 0.64367 0.90021 0.94134 0.0
O44 O 0.05087 0.94006 0.02312 0.0
O45 O 0.89892 0.98897 0.98359 0.0
O46 O 0.91685 0.03788 0.04069 0.0
O47 O 0.05504 0.9183 0.94626 0.0
O48 O 0.05608 0.99095 0.05652 0.0
O49 O 0.99056 0.0365 0.08046 0.0
O50 O 1.00888 0.07555 0.9893 0.0
O51 O 0.16014 0.02545 0.02761 0.0
O52 O 0.14217 0.97688 0.96954 0.0
O53 O 1.00592 0.09642 0.06618 0.0
O54 O 1.00346 0.02405 0.95423 0.0
O55 O 0.06811 0.97829 0.93052 0.0
C56 C 0.86834 0.01539 0.01286 0.0
C57 C 0.14901 0.901 0.98837 0.0
C58 C 0.22058 0.85895 0.99505 0.0
C59 C 0.2986 0.87256 0.99429 0.0
C60 C 0.22708 0.91422 0.98814 0.0
C61 C 0.30143 0.89999 0.99098 0.0
C62 C 0.14608 0.87349 0.99185 0.0
C63 C 1.01909 0.01443 0.08954 0.0
C64 C 0.06974 0.91562 0.98573 0.0
C65 C 0.73429 0.89904 0.88872 0.0
C66 C 0.70554 0.90746 0.93565 0.0
C67 C 0.19082 0.99921 0.99768 0.0
C68 C 0.91234 0.115 0.02563 0.0
C69 C 0.8423 0.15809 0.02149 0.0
C70 C 0.7638 0.14471 0.02199 0.0
C71 C 0.83377 0.10196 0.02543 0.0
C72 C 0.91628 0.14296 0.02365 0.0
C73 C 0.75995 0.11683 0.02375 0.0
C74 C 0.03856 1.00009 0.9211 0.0
C75 C 0.99107 0.09978 0.02729 0.0
H76 H 0.35783 0.86229 0.99588 0.0
H77 H 0.2305 0.93545 0.98574 0.0
H78 H 0.36163 0.91026 0.99056 0.0
H79 H 0.08537 0.86345 0.9923 0.0
H80 H 0.70503 0.15561 0.02162 0.0
H81 H 0.82955 0.08041 0.02667 0.0
H82 H 0.97732 0.15289 0.02358 0.0
H83 H 0.69936 0.10674 0.02397 0.0
Tb84 Tb 1.02198 0.05106 0.53419 0.0
C85 C 0.19504 0.92632 0.4161 0.0
N86 N 0.11881 0.93605 0.40828 0.0
C87 C 0.14295 0.91263 0.32348 0.0
C88 C 0.24896 0.90973 0.37773 0.0
C89 C 0.09139 0.92891 0.36268 0.0
C90 C 0.22224 0.90313 0.33101 0.0
C91 C 0.29749 0.92338 0.47257 0.0
C92 C 0.21925 0.93314 0.46295 0.0
C93 C 0.35159 0.90695 0.43443 0.0
C94 C 0.32747 0.9002 0.38716 0.0
Tb95 Tb 0.04127 0.96188 0.47553 0.0
N96 N 0.1671 0.95036 0.49919 0.0
C97 C 0.31901 0.93057 0.52025 0.0
C98 C 0.18622 0.95643 0.54557 0.0
C99 C 0.26265 0.94685 0.55683 0.0
H100 H 0.02901 0.93509 0.35624 0.0
H101 H 0.27813 0.95205 0.59373 0.0
H102 H 0.03398 0.07741 0.65337 0.0
H103 H 0.78674 0.06252 0.41658 0.0
H104 H 0.14254 0.96837 0.57387 0.0
H105 H 0.37857 0.92348 0.52918 0.0
H106 H 0.92193 0.04588 0.43629 0.0
H107 H 0.12115 0.90713 0.28742 0.0
H108 H 0.41222 0.89939 0.4411 0.0
H109 H 0.36986 0.88748 0.35812 0.0
H110 H 0.94201 0.10529 0.72232 0.0
H111 H 0.26185 0.89043 0.30054 0.0
H112 H 0.68628 0.09099 0.48119 0.0
N113 N 0.94469 0.07708 0.60153 0.0
C114 C 0.86881 0.08711 0.59389 0.0
C115 C 0.9204 0.10009 0.68634 0.0
C116 C 0.81497 0.10366 0.63234 0.0
C117 C 0.97187 0.08386 0.64706 0.0
C118 C 0.84144 0.10989 0.67896 0.0
N119 N 0.89705 0.0635 0.51088 0.0
C120 C 0.87825 0.05775 0.46459 0.0
C121 C 0.76697 0.09067 0.53767 0.0
C122 C 0.84493 0.08067 0.54717 0.0
C123 C 0.74566 0.08375 0.49004 0.0
C124 C 0.80201 0.06752 0.45343 0.0
H125 H 0.80188 0.12254 0.7095 0.0
H126 H 0.69443 0.12615 0.65214 0.0
H127 H 0.65248 0.1148 0.5693 0.0
O128 O 0.06662 0.0772 0.49975 0.0
O129 O 0.9014 0.02524 0.52497 0.0
O130 O 0.91782 0.97771 0.46321 0.0
O131 O 0.06454 0.09507 0.57633 0.0
O132 O 0.06856 0.02622 0.46056 0.0
O133 O 0.9995 0.98087 0.42629 0.0
O134 O 1.00532 0.93476 0.50988 0.0
O135 O 0.16056 0.98813 0.48309 0.0
O136 O 0.14319 0.03422 0.54748 0.0
O137 O 0.99661 0.91806 0.43345 0.0
O138 O 0.992 0.98662 0.54859 0.0
O139 O 0.06247 0.0316 0.58305 0.0
C140 C 0.86995 0.99974 0.49251 0.0
C141 C 0.1703 0.11334 0.54131 0.0
C142 C 0.26181 0.14993 0.52955 0.0
C143 C 0.33177 0.13639 0.54022 0.0
C144 C 0.24129 0.10081 0.55278 0.0
C145 C 0.32146 0.11223 0.5521 0.0
C146 C 0.18054 0.13817 0.53006 0.0
C147 C 0.03402 1.00436 0.42336 0.0
C148 C 0.08611 0.1 0.53961 0.0
C149 C 0.73678 0.11347 0.62306 0.0
C150 C 0.71291 0.10704 0.57587 0.0
C151 C 0.19184 0.01316 0.51677 0.0
C152 C 0.90434 0.89682 0.47152 0.0
C153 C 0.83214 0.8546 0.47856 0.0
C154 C 0.75439 0.8681 0.47729 0.0
C155 C 0.82627 0.90958 0.47016 0.0
C156 C 0.90694 0.86941 0.47574 0.0
C157 C 0.75186 0.89524 0.473 0.0
C158 C 1.02604 0.00843 0.58601 0.0
C159 C 0.98376 0.91216 0.47025 0.0
H160 H 0.39489 0.14467 0.53961 0.0
H161 H 0.23471 0.08208 0.56204 0.0
H162 H 0.37597 0.1022 0.56057 0.0
H163 H 0.12588 0.14765 0.52059 0.0
H164 H 0.69502 0.85825 0.48014 0.0
H165 H 0.82291 0.93068 0.46727 0.0
H166 H 0.96754 0.85971 0.47715 0.0
H167 H 0.69173 0.90535 0.47224 0.0
Tb168 Tb 0.55085 0.463 0.97595 0.0
C169 C 0.67571 0.5924 0.09968 0.0
N170 N 0.60248 0.57887 0.10312 0.0
C171 C 0.61994 0.59899 0.18855 0.0
C172 C 0.72527 0.60883 0.14052 0.0
C173 C 0.57241 0.58319 0.14716 0.0
C174 C 0.69715 0.61156 0.18518 0.0
C175 C 0.77559 0.604 0.05005 0.0
C176 C 0.70049 0.59031 0.05507 0.0
C177 C 0.82562 0.61996 0.09057 0.0
C178 C 0.80043 0.62243 0.13567 0.0
Tb179 Tb 0.53096 0.55483 0.03219 0.0
N180 N 0.65233 0.57363 0.01614 0.0
C181 C 0.79815 0.60113 0.00438 0.0
C182 C 0.67225 0.57171 0.97184 0.0
C183 C 0.74588 0.58514 0.96521 0.0
H184 H 0.51057 0.57543 0.15103 0.0
H185 H 0.76209 0.58325 0.92994 0.0
H186 H 0.59712 0.43928 0.85905 0.0
H187 H 0.30183 0.43203 0.06533 0.0
H188 H 0.63137 0.55985 0.94175 0.0
H189 H 0.85535 0.61137 0.99905 0.0
H190 H 0.43652 0.45613 0.06032 0.0
H191 H 0.59619 0.60197 0.22319 0.0
H192 H 0.88379 0.63055 0.08745 0.0
H193 H 0.83939 0.63504 0.16665 0.0
H194 H 0.52539 0.41079 0.78217 0.0
H195 H 0.73339 0.62401 0.2174 0.0
H196 H 0.21756 0.40452 0.99189 0.0
N197 N 0.49332 0.43705 0.90142 0.0
C198 C 0.41739 0.42396 0.90109 0.0
C199 C 0.49367 0.41478 0.81539 0.0
C200 C 0.37506 0.40683 0.85774 0.0
C201 C 0.53348 0.43147 0.85922 0.0
C202 C 0.41352 0.40285 0.81463 0.0
N203 N 0.42604 0.44323 0.98555 0.0
C204 C 0.39965 0.44424 0.0284 0.0
C205 C 0.30662 0.41253 0.94535 0.0
C206 C 0.38357 0.42653 0.94429 0.0
C207 C 0.27647 0.41499 0.98958 0.0
C208 C 0.32375 0.43057 0.03117 0.0
H209 H 0.38315 0.38977 0.78056 0.0
H210 H 0.26334 0.38048 0.82575 0.0
H211 H 0.20328 0.38563 0.90242 0.0
O212 O 0.59237 0.43836 0.0137 0.0
O213 O 0.42442 0.48351 0.9897 0.0
O214 O 0.40475 0.53514 0.02266 0.0
O215 O 0.6024 0.42027 0.93709 0.0
O216 O 0.58015 0.49325 0.05046 0.0
O217 O 0.48937 0.53294 0.07808 0.0
O218 O 0.49102 0.58398 1.00226 0.0
O219 O 0.65714 0.53368 0.01835 0.0
O220 O 0.67655 0.48205 0.97821 0.0
O221 O 0.47786 0.59627 0.07754 0.0
O222 O 0.50389 0.52769 0.95552 0.0
O223 O 0.58816 0.4853 0.93039 0.0
C224 C 0.37613 0.50744 0.0045 0.0
C225 C 0.69633 0.40115 0.97652 0.0
C226 C 0.76961 0.35953 0.98362 0.0
C227 C 0.84639 0.37065 0.97457 0.0
C228 C 0.77303 0.41152 0.96685 0.0
C229 C 0.84778 0.39651 0.96643 0.0
C230 C 0.69495 0.3752 0.98476 0.0
C231 C 0.52691 0.51049 0.08282 0.0
C232 C 0.61614 0.41562 0.97491 0.0
C233 C 0.29708 0.39349 0.85869 0.0
C234 C 0.26295 0.39635 0.90236 0.0
C235 C 0.70554 0.50972 0.99999 0.0
C236 C 0.38299 0.61827 0.04263 0.0
C237 C 0.30519 0.65892 0.03509 0.0
C238 C 0.22983 0.64698 0.04411 0.0
C239 C 0.30751 0.60689 0.0518 0.0
C240 C 0.38146 0.6442 0.03436 0.0
C241 C 0.23131 0.62112 0.05223 0.0
C242 C 0.54882 0.50638 0.92258 0.0
C243 C 0.46458 0.60424 0.04298 0.0
H244 H 0.90523 0.35913 0.97224 0.0
H245 H 0.77461 0.43071 0.95852 0.0
H246 H 0.90685 0.40459 0.95872 0.0
H247 H 0.63512 0.36683 0.99112 0.0
H248 H 0.16972 0.65765 0.04601 0.0
H249 H 0.30778 0.58733 0.05926 0.0
H250 H 0.44021 0.65311 0.02777 0.0
H251 H 0.17317 0.6123 0.05952 0.0
Tb252 Tb 0.50282 0.5509 0.5283 0.0
C253 C 0.63027 0.42296 0.42019 0.0
N254 N 0.55956 0.43503 0.41059 0.0
C255 C 0.59125 0.41173 0.32671 0.0
C256 C 0.6853 0.40523 0.38325 0.0
C257 C 0.53866 0.42931 0.36455 0.0
C258 C 0.66516 0.39983 0.33607 0.0
C259 C 0.71896 0.41592 0.47869 0.0
C260 C 0.64717 0.42848 0.46744 0.0
C261 C 0.77455 0.39851 0.44206 0.0
C262 C 0.75782 0.39321 0.39447 0.0
Tb263 Tb 0.47669 0.46156 0.47502 0.0
N264 N 0.59282 0.44598 0.50219 0.0
C265 C 0.73193 0.42077 0.52629 0.0
C266 C 0.60341 0.44956 0.54821 0.0
C267 C 0.6736 0.43752 0.56115 0.0
H268 H 0.48046 0.43759 0.35666 0.0
H269 H 0.68166 0.44063 0.59784 0.0
H270 H 0.5524 0.57684 0.6445 0.0
H271 H 0.24952 0.57755 0.436 0.0
H272 H 0.55636 0.46043 0.57469 0.0
H273 H 0.78561 0.41112 0.53626 0.0
H274 H 0.38164 0.55319 0.44199 0.0
H275 H 0.57427 0.40703 0.29026 0.0
H276 H 0.83028 0.38882 0.4501 0.0
H277 H 0.80094 0.37955 0.36656 0.0
H278 H 0.48833 0.61022 0.7216 0.0
H279 H 0.70553 0.38616 0.3066 0.0
H280 H 0.17478 0.61112 0.5096 0.0
N281 N 0.45161 0.58142 0.60243 0.0
C282 C 0.37864 0.5959 0.6025 0.0
C283 C 0.45645 0.60609 0.68834 0.0
C284 C 0.34083 0.61564 0.6457 0.0
C285 C 0.49187 0.5868 0.64455 0.0
C286 C 0.38034 0.6204 0.68896 0.0
N287 N 0.37927 0.57118 0.51801 0.0
C288 C 0.34876 0.56713 0.47425 0.0
C289 C 0.26682 0.60572 0.55725 0.0
C290 C 0.34208 0.5911 0.5589 0.0
C291 C 0.23261 0.60034 0.51244 0.0
C292 C 0.27438 0.58126 0.47079 0.0
H293 H 0.35334 0.63542 0.72295 0.0
H294 H 0.23527 0.64533 0.67719 0.0
H295 H 0.17046 0.6366 0.59976 0.0
O296 O 0.55355 0.57255 0.48783 0.0
O297 O 0.3737 0.53346 0.52992 0.0
O298 O 0.35464 0.48336 0.47707 0.0
O299 O 0.56199 0.59291 0.56447 0.0
O300 O 0.5138 0.52401 0.44997 0.0
O301 O 0.43024 0.48145 0.42802 0.0
O302 O 0.42916 0.43205 0.50295 0.0
O303 O 0.59614 0.48227 0.4649 0.0
O304 O 0.61953 0.52716 0.53024 0.0
O305 O 0.41341 0.42226 0.42879 0.0
O306 O 0.44998 0.48951 0.55129 0.0
O307 O 0.54302 0.52916 0.57427 0.0
C308 C 0.32511 0.50998 0.50584 0.0
C309 C 0.65892 0.61011 0.52303 0.0
C310 C 0.73446 0.65121 0.51431 0.0
C311 C 0.81079 0.63926 0.52201 0.0
C312 C 0.73548 0.59894 0.53091 0.0
C313 C 0.81089 0.61346 0.53034 0.0
C314 C 0.65876 0.63615 0.51473 0.0
C315 C 0.46642 0.5025 0.41865 0.0
C316 C 0.57797 0.59601 0.52552 0.0
C317 C 0.26536 0.63013 0.64434 0.0
C318 C 0.22847 0.62519 0.60024 0.0
C319 C 0.64793 0.50212 0.49594 0.0
C320 C 0.42464 0.38051 0.44829 0.0
C321 C 0.39882 0.33323 0.45542 0.0
C322 C 0.46138 0.31958 0.4205 0.0
C323 C 0.48627 0.36602 0.41358 0.0
C324 C 0.3807 0.36388 0.46897 0.0
C325 C 0.50476 0.33593 0.40014 0.0
C326 C 0.49438 0.51092 0.58439 0.0
C327 C 0.40318 0.41238 0.46145 0.0
H328 H 0.87089 0.64957 0.52204 0.0
H329 H 0.7367 0.57921 0.5379 0.0
H330 H 0.8699 0.60481 0.53676 0.0
H331 H 0.59916 0.64493 0.50916 0.0
H332 H 0.47551 0.29598 0.40735 0.0
H333 H 0.51897 0.37765 0.39582 0.0
H334 H 0.33192 0.37471 0.49519 0.0
H335 H 0.55189 0.32501 0.37296 0.0
H336 H 0.36979 0.69716 0.02923 0.0
C337 C 0.30819 0.68714 0.02815 0.0
H338 H 0.17738 0.69209 0.01893 0.0
H339 H 0.19983 0.8326 0.08837 0.0
H340 H 0.12833 0.82949 0.15555 0.0
H341 H 0.11066 0.78094 0.15982 0.0
H342 H 0.16479 0.73519 0.09701 0.0
C343 C 0.2404 0.70091 0.02032 0.0
C344 C 0.24854 0.72997 0.01628 0.0
C345 C 0.21497 0.75647 0.05278 0.0
C346 C 0.22425 0.78446 0.05002 0.0
C347 C 0.19289 0.81066 0.08798 0.0
C348 C 0.15209 0.80923 0.12695 0.0
C349 C 0.14221 0.7819 0.12938 0.0
C350 C 0.17343 0.75579 0.09298 0.0
H351 H 0.15088 0.81979 0.99476 0.0
C352 C 0.21333 0.82973 0.99875 0.0
H353 H 0.34202 0.82365 0.01151 0.0
H354 H 0.3122 0.68313 0.9375 0.0
H355 H 0.38301 0.6862 0.87007 0.0
H356 H 0.4015 0.73481 0.86607 0.0
H357 H 0.34866 0.78064 0.92935 0.0
C358 C 0.27815 0.81517 0.00763 0.0
C359 C 0.26594 0.78586 0.01031 0.0
C360 C 0.29864 0.75932 0.97354 0.0
C361 C 0.28921 0.73132 0.97624 0.0
C362 C 0.31968 0.70508 0.93802 0.0
C363 C 0.35998 0.70649 0.8989 0.0
C364 C 0.3703 0.73386 0.89661 0.0
C365 C 0.33987 0.76001 0.93327 0.0
H366 H 0.70144 0.32072 0.98557 0.0
C367 C 0.76356 0.33081 0.9889 0.0
H368 H 0.8921 0.32639 0.00371 0.0
H369 H 0.81316 0.2375 0.09895 0.0
H370 H 0.84554 0.28303 0.16933 0.0
H371 H 0.86669 0.3309 0.16324 0.0
H372 H 0.85489 0.33356 0.08666 0.0
C373 C 0.82966 0.31647 0.99708 0.0
C374 C 0.8189 0.28722 1.00022 0.0
C375 C 0.82806 0.28581 0.04498 0.0
C376 C 0.81732 0.25804 0.04834 0.0
C377 C 0.82311 0.25771 0.09397 0.0
C378 C 0.8411 0.28376 0.13479 0.0
C379 C 0.85291 0.31072 0.13138 0.0
C380 C 0.84618 0.3119 0.08716 0.0
H381 H 0.91224 0.19833 0.02623 0.0
C382 C 0.85025 0.18786 0.01972 0.0
H383 H 0.7246 0.19204 0.99992 0.0
H384 H 0.80396 0.28139 0.90809 0.0
H385 H 0.77259 0.23582 0.83754 0.0
H386 H 0.75318 0.1878 0.84336 0.0
H387 H 0.76537 0.18503 0.91977 0.0
C388 C 0.78636 0.20227 0.00964 0.0
C389 C 0.79926 0.23149 0.00664 0.0
C390 C 0.79068 0.23289 0.96179 0.0
C391 C 0.80104 0.26068 0.95851 0.0
C392 C 0.79478 0.2611 0.91294 0.0
C393 C 0.7773 0.23504 0.87204 0.0
C394 C 0.76642 0.208 0.8753 0.0
C395 C 0.77329 0.20677 0.91948 0.0
H396 H 0.34019 0.17595 0.50133 0.0
C397 C 0.27815 0.17507 0.51569 0.0
H398 H 0.16429 0.199 0.54002 0.0
H399 H 0.35696 0.32007 0.56766 0.0
H400 H 0.33059 0.32907 0.65023 0.0
H401 H 0.26675 0.28989 0.66968 0.0
H402 H 0.22916 0.24134 0.60671 0.0
C403 C 0.22453 0.19771 0.52259 0.0
C404 C 0.25087 0.22299 0.51052 0.0
C405 C 0.27021 0.2516 0.54755 0.0
C406 C 0.30667 0.27438 0.53628 0.0
C407 C 0.32852 0.30218 0.57416 0.0
C408 C 0.3138 0.30761 0.6217 0.0
C409 C 0.27785 0.28554 0.63266 0.0
C410 C 0.25651 0.25778 0.59619 0.0
H411 H 0.28583 0.32316 0.48921 0.0
C412 C 0.34841 0.31531 0.47537 0.0
H413 H 0.43953 0.28155 0.46322 0.0
H414 H 0.20723 0.17293 0.43067 0.0
H415 H 0.22871 0.16455 0.34797 0.0
H416 H 0.29303 0.20364 0.32847 0.0
H417 H 0.33579 0.25146 0.39151 0.0
C418 C 0.37656 0.28949 0.47569 0.0
C419 C 0.32289 0.26867 0.48793 0.0
C420 C 0.29801 0.24078 0.45082 0.0
C421 C 0.26165 0.21806 0.46206 0.0
C422 C 0.23674 0.19066 0.42412 0.0
C423 C 0.24826 0.18563 0.37651 0.0
C424 C 0.28443 0.20765 0.36553 0.0
C425 C 0.30904 0.23494 0.40207 0.0
H426 H 0.90085 0.81843 0.48881 0.0
C427 C 0.83835 0.82574 0.484 0.0
H428 H 0.70888 0.81368 0.47645 0.0
H429 H 0.74688 0.67592 0.41765 0.0
H430 H 0.70083 0.67616 0.34291 0.0
H431 H 0.69104 0.72347 0.33399 0.0
H432 H 0.72791 0.77084 0.39968 0.0
C433 C 0.772 0.80827 0.48349 0.0
C434 C 0.78142 0.77955 0.48898 0.0
C435 C 0.75834 0.75192 0.45054 0.0
C436 C 0.76286 0.72456 0.45592 0.0
C437 C 0.74246 0.69738 0.41615 0.0
C438 C 0.71643 0.69717 0.37284 0.0
C439 C 0.71098 0.7238 0.3678 0.0
C440 C 0.73199 0.75088 0.40594 0.0
H441 H 0.66831 0.68681 0.50125 0.0
C442 C 0.7303 0.67931 0.50647 0.0
H443 H 0.86057 0.69029 0.51234 0.0
H444 H 0.82297 0.82841 0.57171 0.0
H445 H 0.86924 0.82811 0.64632 0.0
H446 H 0.87984 0.78076 0.65504 0.0
H447 H 0.84339 0.73339 0.58925 0.0
C448 C 0.79759 0.69608 0.50583 0.0
C449 C 0.78925 0.72475 0.50008 0.0
C450 C 0.81252 0.75236 0.53849 0.0
C451 C 0.8078 0.77973 0.53317 0.0
C452 C 0.8278 0.80691 0.57305 0.0
C453 C 0.85391 0.8071 0.61632 0.0
C454 C 0.8598 0.78044 0.62125 0.0
C455 C 0.83902 0.75337 0.58306 0.0
H456 H 0.30593 0.97385 0.96269 0.0
C457 C 0.28469 0.99469 0.99131 0.0
H458 H 0.32379 0.0347 0.04848 0.0
H459 H 0.69631 1.0047 0.07993 0.0
H460 H 0.62869 0.00919 0.15275 0.0
H461 H 0.47447 0.01414 0.16175 0.0
H462 H 0.38679 0.01426 0.09758 0.0
C463 C 0.3441 0.01468 0.01803 0.0
C464 C 0.43875 0.00978 0.01046 0.0
C465 C 0.49072 0.01024 0.04848 0.0
C466 C 0.5807 0.00761 0.04339 0.0
C467 C 0.62876 0.00714 0.08176 0.0
C468 C 0.59057 0.0096 0.12389 0.0
C469 C 0.50374 0.01238 0.12895 0.0
C470 C 0.45416 0.0126 0.09183 0.0
H471 H 0.75318 0.0409 0.04743 0.0
C472 C 0.77445 0.01994 0.01912 0.0
H473 H 0.73537 0.97966 0.96251 0.0
H474 H 0.363 0.01011 0.93091 0.0
H475 H 0.43063 0.00554 0.85805 0.0
H476 H 0.5848 1.00035 0.84893 0.0
H477 H 0.67242 1.00011 0.91305 0.0
C478 C 0.71507 0.99982 0.99269 0.0
C479 C 0.62044 1.00476 1.00024 0.0
C480 C 0.56848 1.00428 0.96222 0.0
C481 C 0.47851 0.00697 0.96733 0.0
C482 C 0.43051 0.00754 0.92902 0.0
C483 C 0.46871 0.00506 0.88687 0.0
C484 C 0.55551 1.00215 0.88174 0.0
C485 C 0.60506 1.00187 0.91883 0.0
H486 H 0.30788 0.03692 0.55462 0.0
C487 C 0.286 0.01744 0.52349 0.0
H488 H 0.32386 0.9803 0.46114 0.0
H489 H 0.69212 0.01703 0.43341 0.0
H490 H 0.61944 0.01824 0.36536 0.0
H491 H 0.46499 0.01287 0.35797 0.0
H492 H 0.38203 0.00662 0.41898 0.0
C493 C 0.34498 0.99895 0.49363 0.0
C494 C 0.43994 1.00408 0.5005 0.0
C495 C 0.48919 0.00721 0.46423 0.0
C496 C 0.57937 0.01008 0.4683 0.0
C497 C 0.62459 0.01421 0.43201 0.0
C498 C 0.58349 0.01507 0.3927 0.0
C499 C 0.49652 0.01205 0.38855 0.0
C500 C 0.44966 0.00828 0.42378 0.0
H501 H 0.75368 0.9757 0.45557 0.0
C502 C 0.77578 0.9956 0.48594 0.0
H503 H 0.7384 0.0336 0.54721 0.0
H504 H 0.37023 0.99667 0.57585 0.0
H505 H 0.44296 0.9956 0.64392 0.0
H506 H 0.5974 1.00107 0.65131 0.0
H507 H 0.68022 0.00728 0.5902 0.0
C508 C 0.71712 0.01459 0.51526 0.0
C509 C 0.62216 0.00955 0.50857 0.0
C510 C 0.57297 0.00649 0.54489 0.0
C511 C 0.48278 1.0036 0.54082 0.0
C512 C 0.4377 0.99951 0.57718 0.0
C513 C 0.47886 0.99873 0.61654 0.0
C514 C 0.56581 1.00181 0.62069 0.0
C515 C 0.61258 0.00553 0.58539 0.0
H516 H 0.81741 0.53711 1.00178 0.0
C517 C 0.79806 0.51556 1.0002 0.0
H518 H 0.84005 0.47532 1.00095 0.0
H519 H 0.20726 0.4741 0.92105 0.0
H520 H 0.14326 0.43103 0.85746 0.0
H521 H 0.99193 0.42019 0.8591 0.0
H522 H 0.90315 0.45278 0.92396 0.0
C523 C 0.85843 0.49662 1.0014 0.0
C524 C 0.95166 0.50325 1.00189 0.0
C525 C 1.0041 0.48362 0.96435 0.0
C526 C 0.09257 0.4894 0.96415 0.0
C527 C 0.14111 0.47021 0.92448 0.0
C528 C 0.10493 0.44548 0.88732 0.0
C529 C 1.01966 0.43942 0.88817 0.0
C530 C 0.96945 0.45829 0.92584 0.0
H531 H 0.26353 0.48021 1.00183 0.0
C532 C 0.28344 0.50179 0.00372 0.0
H533 H 0.24217 0.54255 0.0045 0.0
H534 H 0.87433 0.54355 0.08315 0.0
H535 H 0.93897 0.58597 0.14768 0.0
H536 H 0.09063 0.59646 0.14661 0.0
H537 H 0.17919 0.56407 0.08149 0.0
C538 C 0.22343 0.521 1.00302 0.0
C539 C 0.13012 0.51439 1.00246 0.0
C540 C 0.07779 0.53385 0.04024 0.0
C541 C 0.98922 0.52818 0.04026 0.0
C542 C 0.94068 0.5473 0.07998 0.0
C543 C 0.97716 0.57168 0.11763 0.0
C544 C 0.06263 0.57753 0.11712 0.0
C545 C 0.11271 0.5588 0.07926 0.0
H546 H 0.21076 0.53769 0.53476 0.0
C547 C 0.23137 0.51518 0.51138 0.0
H548 H 0.19071 0.47123 0.46735 0.0
H549 H 0.82587 0.47809 0.55404 0.0
H550 H 0.89812 0.44636 0.58451 0.0
H551 H 0.05126 0.43825 0.57413 0.0
H552 H 0.1342 0.46244 0.5345 0.0
C553 C 0.17128 0.49409 0.4895 0.0
C554 C 0.07708 0.50013 0.49699 0.0
C555 C 1.028 0.48529 0.51913 0.0
C556 C 0.93852 0.48964 0.52457 0.0
C557 C 0.89313 0.47526 0.5484 0.0
C558 C 0.93379 0.45699 0.56603 0.0
C559 C 1.02016 0.45248 0.56029 0.0
C560 C 0.06699 0.46643 0.53728 0.0
H561 H 0.76055 0.47598 0.45832 0.0
C562 C 0.74134 0.49647 0.4884 0.0
H563 H 0.78521 0.53561 0.5463 0.0
H564 H 0.1471 0.53092 0.45021 0.0
H565 H 0.07503 0.56344 0.42157 0.0
H566 H 0.92125 0.57063 0.43068 0.0
H567 H 0.83837 0.54525 0.46858 0.0
C568 C 0.80272 0.51494 0.51618 0.0
C569 C 0.89631 0.50843 0.50712 0.0
C570 C 0.94513 0.52308 0.48465 0.0
C571 C 0.03479 0.51901 0.4796 0.0
C572 C 0.07995 0.53368 0.45611 0.0
C573 C 0.03918 0.55226 0.43913 0.0
C574 C 0.95256 0.55629 0.44423 0.0
C575 C 0.90578 0.54177 0.46634 0.0
H576 H 0.10191 0.01667 0.37196 0.0
C577 C 0.04691 1.00473 0.37592 0.0
H578 H 0.93553 0.98182 0.34368 0.0
H579 H 0.08336 0.05487 0.21561 0.0
H580 H 0.07588 0.10024 0.28925 0.0
H581 H 1.02752 0.09872 0.36417 0.0
H582 H 0.99022 0.05166 0.36633 0.0
C583 C 0.99109 0.99344 0.33955 0.0
C584 C 1.00418 0.99553 0.29256 0.0
C585 C 1.01784 0.02363 0.2908 0.0
C586 C 0.03759 0.02489 0.24644 0.0
C587 C 0.06138 0.05282 0.24724 0.0
C588 C 0.05833 0.07905 0.28944 0.0
C589 C 0.03171 0.07817 0.3317 0.0
C590 C 1.01149 0.05089 0.33256 0.0
H591 H 0.96089 0.03178 0.16141 0.0
C592 C 1.00778 0.01627 0.13861 0.0
H593 H 0.09813 0.98363 0.13198 0.0
H594 H 0.97982 0.93795 0.28166 0.0
H595 H 0.97502 0.89319 0.20718 0.0
H596 H 0.99319 0.89602 0.12977 0.0
H597 H 1.01798 0.94353 0.12645 0.0
C598 C 0.05177 0.99921 0.1552 0.0
C599 C 0.03442 0.99846 0.20275 0.0
C600 C 1.01637 0.97058 0.20425 0.0
C601 C 1.0029 0.96905 0.24899 0.0
C602 C 0.98883 0.94064 0.24897 0.0
C603 C 0.98594 0.91467 0.20637 0.0
C604 C 0.99637 0.91625 0.16281 0.0
C605 C 1.01112 0.94376 0.1615 0.0
H606 H 0.09482 0.98182 0.84872 0.0
C607 C 0.04908 0.9978 0.87172 0.0
H608 H 0.96106 0.03116 0.87845 0.0
H609 H 0.08573 0.07448 0.72696 0.0
H610 H 0.09551 0.1193 0.8011 0.0
H611 H 0.0765 0.11709 0.87892 0.0
H612 H 0.04584 0.07015 0.88298 0.0
C613 C 1.00614 0.01504 0.85507 0.0
C614 C 1.02374 0.01531 0.80722 0.0
C615 C 0.04489 0.04283 0.80525 0.0
C616 C 0.05884 0.04395 0.76025 0.0
C617 C 0.07621 0.07206 0.75984 0.0
C618 C 0.08197 0.09807 0.80224 0.0
C619 C 0.07107 0.09684 0.84603 0.0
C620 C 0.05297 0.06966 0.84777 0.0
H621 H 0.95638 0.99673 0.63758 0.0
C622 C 1.01237 0.00815 0.63344 0.0
H623 H 0.12514 0.03009 0.66517 0.0
H624 H 0.96968 0.95964 0.79547 0.0
H625 H 0.97316 0.91396 0.7221 0.0
H626 H 1.02223 0.9145 0.64663 0.0
H627 H 0.06416 0.9609 0.64356 0.0
C628 C 0.06861 0.01906 0.66964 0.0
C629 C 0.05492 0.01738 0.71689 0.0
C630 C 0.03847 0.98957 0.71912 0.0
C631 C 1.01828 0.98879 0.76377 0.0
C632 C 0.99192 0.96125 0.76353 0.0
C633 C 0.99273 0.93486 0.72152 0.0
C634 C 1.01973 0.93519 0.67894 0.0
C635 C 0.04258 0.96211 0.67756 0.0
H636 H 0.40761 0.48568 0.34658 0.0
C637 C 0.45544 0.50085 0.36944 0.0
H638 H 0.54935 0.53249 0.37526 0.0
H639 H 0.47148 0.46173 0.13835 0.0
H640 H 0.50759 0.41564 0.14376 0.0
H641 H 0.5414 0.41543 0.22153 0.0
H642 H 0.53608 0.46124 0.29484 0.0
C643 C 0.50239 0.517 0.35214 0.0
C644 C 0.48865 0.51673 0.30345 0.0
C645 C 0.49788 0.49011 0.26049 0.0
C646 C 0.48557 0.49063 0.21483 0.0
C647 C 0.48659 0.46312 0.17335 0.0
C648 C 0.50617 0.43637 0.17603 0.0
C649 C 0.52467 0.43625 0.21994 0.0
C650 C 0.52061 0.46269 0.26177 0.0
H651 H 0.58271 0.49855 0.13796 0.0
C652 C 0.52862 0.50934 0.13039 0.0
H653 H 0.41228 0.53035 0.15583 0.0
H654 H 0.46118 0.57157 0.37754 0.0
H655 H 0.43308 0.61813 0.37167 0.0
H656 H 0.42324 0.61977 0.29299 0.0
H657 H 0.44018 0.57484 0.21975 0.0
C658 C 0.46656 0.51964 0.16334 0.0
C659 C 0.47159 0.51821 0.21143 0.0
C660 C 0.4622 0.5448 0.25443 0.0
C661 C 0.46988 0.54399 0.30013 0.0
C662 C 0.45815 0.57089 0.34203 0.0
C663 C 0.44156 0.59782 0.33923 0.0
C664 C 0.43587 0.59873 0.29494 0.0
C665 C 0.44582 0.57266 0.25303 0.0
H666 H 0.42342 0.50929 0.64481 0.0
C667 C 0.48495 0.51437 0.63463 0.0
H668 H 0.61177 0.52425 0.65516 0.0
H669 H 0.57923 0.57507 0.87929 0.0
H670 H 0.63635 0.61741 0.8686 0.0
H671 H 0.64955 0.61604 0.78799 0.0
H672 H 0.6065 0.57225 0.7176 0.0
C673 C 0.5498 0.51975 0.66564 0.0
C674 C 0.53989 0.52031 0.71491 0.0
C675 C 0.56527 0.54612 0.75621 0.0
C676 C 0.55672 0.54707 0.80304 0.0
C677 C 0.58343 0.57315 0.8431 0.0
C678 C 0.61649 0.59766 0.83749 0.0
C679 C 0.62401 0.59688 0.79211 0.0
C680 C 0.59898 0.57151 0.75191 0.0
H681 H 0.59493 0.48789 0.84775 0.0
C682 C 0.55477 0.50503 0.87334 0.0
H683 H 0.47501 0.54157 0.88449 0.0
H684 H 0.49922 0.46476 0.64501 0.0
H685 H 0.43504 0.42368 0.65602 0.0
H686 H 0.40445 0.42782 0.73693 0.0
H687 H 0.44186 0.47263 0.80735 0.0
C688 C 0.51334 0.52373 0.85893 0.0
C689 C 0.52259 0.52225 0.80921 0.0
C690 C 0.49598 0.49659 0.76811 0.0
C691 C 0.50746 0.49515 0.72112 0.0
C692 C 0.48714 0.46805 0.68124 0.0
C693 C 0.4509 0.44406 0.6871 0.0
C694 C 0.43425 0.44631 0.73266 0.0
C695 C 0.45662 0.47214 0.7728 0.0
loop_
_geom_bond_atom_site_label_1
_geom_bond_atom_site_label_2
_geom_bond_distance
_geom_bond_site_symmetry_2
_ccdc_geom_bond_type
Tb0 N29 2.617 . S
Tb0 N35 2.572 . S
Tb0 O44 2.465 1_655 S
Tb0 O45 2.387 . S
Tb0 O47 2.428 1_655 S
Tb0 O48 2.308 1_556 S
Tb0 O52 2.349 1_655 S
Tb0 O55 2.393 1_655 S
Tb0 C64 2.802 1_655 S
C1 N2 1.379 . S
C1 C4 1.416 . S
C1 C8 1.424 . S
N2 C1 1.379 . S
N2 C5 1.334 . S
N2 Tb11 2.617 . S
C3 C5 1.390 . S
C3 C6 1.339 . S
C3 H23 0.930 . S
C4 C1 1.416 . S
C4 C6 1.416 . S
C4 C10 1.448 . S
C5 N2 1.334 . S
C5 C3 1.390 . S
C5 H16 0.930 . S
C6 C3 1.339 . S
C6 C4 1.416 . S
C6 H27 0.930 . S
C7 C8 1.413 . S
C7 C9 1.427 . S
C7 C13 1.416 . S
C8 C1 1.424 . S
C8 C7 1.413 . S
C8 N12 1.361 . S
C9 C7 1.427 . S
C9 C10 1.328 . S
C9 H24 0.929 . S
C10 C4 1.448 . S
C10 C9 1.328 . S
C10 H25 0.930 . S
Tb11 N2 2.617 . S
Tb11 N12 2.572 . S
Tb11 O46 2.349 1_455 S
Tb11 O49 2.393 1_455 S
Tb11 O50 2.465 1_455 S
Tb11 O51 2.387 . S
Tb11 O53 2.428 1_455 S
Tb11 O54 2.308 1_554 S
Tb11 C75 2.802 1_455 S
N12 C8 1.361 . S
N12 Tb11 2.572 . S
N12 C14 1.340 1_554 S
C13 C7 1.416 . S
C13 C15 1.332 1_554 S
C13 H21 0.931 1_554 S
C14 N12 1.340 1_556 S
C14 C15 1.407 . S
C14 H20 0.930 . S
C15 C13 1.332 1_556 S
C15 C14 1.407 . S
C15 H17 0.929 . S
H16 C5 0.930 . S
H17 C15 0.929 . S
H18 C33 0.930 . S
H19 C40 0.929 . S
H20 C14 0.930 . S
H21 C13 0.931 1_556 S
H22 C36 0.930 . S
H23 C3 0.930 . S
H24 C9 0.929 . S
H25 C10 0.930 . S
H26 C31 0.930 . S
H27 C6 0.930 . S
H28 C39 0.928 1_554 S
N29 Tb0 2.617 . S
N29 C30 1.379 . S
N29 C33 1.334 . S
C30 N29 1.379 . S
C30 C32 1.416 . S
C30 C38 1.424 . S
C31 H26 0.930 . S
C31 C33 1.390 . S
C31 C34 1.339 . S
C32 C30 1.416 . S
C32 C34 1.416 . S
C32 C65 1.448 . S
C33 H18 0.930 . S
C33 N29 1.334 . S
C33 C31 1.390 . S
C34 C31 1.339 . S
C34 C32 1.416 . S
C34 H41 0.930 . S
N35 Tb0 2.572 . S
N35 C36 1.340 1_556 S
N35 C38 1.361 . S
C36 H22 0.930 . S
C36 N35 1.340 1_554 S
C36 C40 1.407 . S
C37 C38 1.413 . S
C37 C39 1.422 . S
C37 C66 1.427 . S
C38 C30 1.424 . S
C38 N35 1.361 . S
C38 C37 1.413 . S
C39 H28 0.928 1_556 S
C39 C37 1.422 . S
C39 C40 1.329 1_556 S
C40 H19 0.929 . S
C40 C36 1.407 . S
C40 C39 1.329 1_554 S
H41 C34 0.930 . S
H42 C65 0.930 . S
H43 C66 0.929 . S
O44 Tb0 2.465 1_455 S
O44 C64 1.264 . S
O45 Tb0 2.387 . S
O45 C56 1.264 1_565 S
O46 Tb11 2.349 1_655 S
O46 C56 1.243 1_554 S
O47 Tb0 2.428 1_455 S
O47 C64 1.256 . S
O48 Tb0 2.308 1_554 S
O48 C63 1.266 1_565 S
O49 Tb11 2.393 1_655 S
O49 C63 1.248 . S
O50 Tb11 2.465 1_655 S
O50 C75 1.264 . S
O51 Tb11 2.387 . S
O51 C67 1.264 1_545 S
O52 Tb0 2.349 1_455 S
O52 C67 1.243 1_556 S
O53 Tb11 2.428 1_655 S
O53 C75 1.256 . S
O54 Tb11 2.308 1_556 S
O54 C74 1.266 1_545 S
O55 Tb0 2.393 1_455 S
O55 C74 1.248 . S
C56 O45 1.264 1_545 S
C56 O46 1.243 1_556 S
C57 C60 1.399 . S
C57 C62 1.383 . S
C57 C64 1.496 . S
C58 C59 1.399 . S
C58 C62 1.389 . S
C59 C58 1.399 . S
C59 C61 1.380 . S
C59 H76 0.929 . S
C60 C57 1.399 . S
C60 C61 1.392 . S
C60 H77 0.929 . S
C61 C59 1.380 . S
C61 C60 1.392 . S
C61 H78 0.929 . S
C62 C57 1.383 . S
C62 C58 1.389 . S
C62 H79 0.931 1_556 S
C63 O48 1.266 1_545 S
C63 O49 1.248 . S
C64 Tb0 2.802 1_455 S
C64 O44 1.264 . S
C64 O47 1.256 . S
C64 C57 1.496 . S
C65 C32 1.448 . S
C65 H42 0.930 . S
C65 C66 1.328 . S
C66 C37 1.427 . S
C66 H43 0.929 . S
C66 C65 1.328 . S
C67 O51 1.264 1_565 S
C67 O52 1.243 1_554 S
C68 C71 1.399 . S
C68 C72 1.383 . S
C68 C75 1.496 . S
C69 C70 1.399 . S
C69 C72 1.389 . S
C70 C69 1.399 . S
C70 C73 1.380 . S
C70 H80 0.929 . S
C71 C68 1.399 . S
C71 C73 1.392 . S
C71 H81 0.929 . S
C72 C68 1.383 . S
C72 C69 1.389 . S
C72 H82 0.931 1_554 S
C73 C70 1.380 . S
C73 C71 1.392 . S
C73 H83 0.929 . S
C74 O54 1.266 1_565 S
C74 O55 1.248 . S
C75 Tb11 2.802 1_655 S
C75 O50 1.264 . S
C75 O53 1.256 . S
C75 C68 1.496 . S
H76 C59 0.929 . S
H77 C60 0.929 . S
H78 C61 0.929 . S
H79 C62 0.931 1_554 S
H80 C70 0.929 . S
H81 C71 0.929 . S
H82 C72 0.931 1_556 S
H83 C73 0.929 . S
Tb84 N113 2.617 . S
Tb84 N119 2.572 . S
Tb84 O128 2.465 1_655 S
Tb84 O129 2.387 . S
Tb84 O131 2.428 1_655 S
Tb84 O132 2.308 . S
Tb84 O136 2.349 1_655 S
Tb84 O139 2.393 1_655 S
Tb84 C148 2.802 1_655 S
C85 N86 1.379 . S
C85 C88 1.416 . S
C85 C92 1.424 . S
N86 C85 1.379 . S
N86 C89 1.334 . S
N86 Tb95 2.617 . S
C87 C89 1.390 . S
C87 C90 1.339 . S
C87 H107 0.930 . S
C88 C85 1.416 . S
C88 C90 1.416 . S
C88 C94 1.448 . S
C89 N86 1.334 . S
C89 C87 1.390 . S
C89 H100 0.930 . S
C90 C87 1.339 . S
C90 C88 1.416 . S
C90 H111 0.930 . S
C91 C92 1.413 . S
C91 C93 1.427 . S
C91 C97 1.416 . S
C92 C85 1.424 . S
C92 C91 1.413 . S
C92 N96 1.361 . S
C93 C91 1.427 . S
C93 C94 1.328 . S
C93 H108 0.929 . S
C94 C88 1.448 . S
C94 C93 1.328 . S
C94 H109 0.930 . S
Tb95 N86 2.617 . S
Tb95 N96 2.572 . S
Tb95 O130 2.349 1_455 S
Tb95 O133 2.393 1_455 S
Tb95 O134 2.465 1_455 S
Tb95 O135 2.387 . S
Tb95 O137 2.428 1_455 S
Tb95 O138 2.308 . S
Tb95 C159 2.802 1_455 S
N96 C92 1.361 . S
N96 Tb95 2.572 . S
N96 C98 1.340 . S
C97 C91 1.416 . S
C97 C99 1.332 . S
C97 H105 0.931 . S
C98 N96 1.340 . S
C98 C99 1.407 . S
C98 H104 0.930 . S
C99 C97 1.332 . S
C99 C98 1.407 . S
C99 H101 0.929 . S
H100 C89 0.930 . S
H101 C99 0.929 . S
H102 C117 0.930 . S
H103 C124 0.929 . S
H104 C98 0.930 . S
H105 C97 0.931 . S
H106 C120 0.930 . S
H107 C87 0.930 . S
H108 C93 0.929 . S
H109 C94 0.930 . S
H110 C115 0.930 . S
H111 C90 0.930 . S
H112 C123 0.931 . S
N113 Tb84 2.617 . S
N113 C114 1.379 . S
N113 C117 1.334 . S
C114 N113 1.379 . S
C114 C116 1.416 . S
C114 C122 1.424 . S
C115 H110 0.930 . S
C115 C117 1.390 . S
C115 C118 1.339 . S
C116 C114 1.416 . S
C116 C118 1.416 . S
C116 C149 1.448 . S
C117 H102 0.930 . S
C117 N113 1.334 . S
C117 C115 1.390 . S
C118 C115 1.339 . S
C118 C116 1.416 . S
C118 H125 0.930 . S
N119 Tb84 2.572 . S
N119 C120 1.340 . S
N119 C122 1.361 . S
C120 H106 0.930 . S
C120 N119 1.340 . S
C120 C124 1.407 . S
C121 C122 1.413 . S
C121 C123 1.416 . S
C121 C150 1.427 . S
C122 C114 1.424 . S
C122 N119 1.361 . S
C122 C121 1.413 . S
C123 H112 0.931 . S
C123 C121 1.416 . S
C123 C124 1.332 . S
C124 H103 0.929 . S
C124 C120 1.407 . S
C124 C123 1.332 . S
H125 C118 0.930 . S
H126 C149 0.930 . S
H127 C150 0.929 . S
O128 Tb84 2.465 1_455 S
O128 C148 1.264 . S
O129 Tb84 2.387 . S
O129 C140 1.264 1_545 S
O130 Tb95 2.349 1_655 S
O130 C140 1.243 . S
O131 Tb84 2.428 1_455 S
O131 C148 1.256 . S
O132 Tb84 2.308 . S
O132 C147 1.266 1_545 S
O133 Tb95 2.393 1_655 S
O133 C147 1.248 . S
O134 Tb95 2.465 1_655 S
O134 C159 1.264 . S
O135 Tb95 2.387 . S
O135 C151 1.264 1_565 S
O136 Tb84 2.349 1_455 S
O136 C151 1.243 . S
O137 Tb95 2.428 1_655 S
O137 C159 1.256 . S
O138 Tb95 2.308 . S
O138 C158 1.266 1_565 S
O139 Tb84 2.393 1_455 S
O139 C158 1.248 . S
C140 O129 1.264 1_565 S
C140 O130 1.243 . S
C141 C144 1.399 . S
C141 C146 1.383 . S
C141 C148 1.496 . S
C142 C143 1.399 . S
C142 C146 1.389 . S
C143 C142 1.399 . S
C143 C145 1.380 . S
C143 H160 0.929 . S
C144 C141 1.399 . S
C144 C145 1.392 . S
C144 H161 0.929 . S
C145 C143 1.380 . S
C145 C144 1.392 . S
C145 H162 0.929 . S
C146 C141 1.383 . S
C146 C142 1.389 . S
C146 H163 0.931 . S
C147 O132 1.266 1_565 S
C147 O133 1.248 . S
C148 Tb84 2.802 1_455 S
C148 O128 1.264 . S
C148 O131 1.256 . S
C148 C141 1.496 . S
C149 C116 1.448 . S
C149 H126 0.930 . S
C149 C150 1.328 . S
C150 C121 1.427 . S
C150 H127 0.929 . S
C150 C149 1.328 . S
C151 O135 1.264 1_545 S
C151 O136 1.243 . S
C152 C155 1.399 . S
C152 C156 1.383 . S
C152 C159 1.496 . S
C153 C154 1.399 . S
C153 C156 1.389 . S
C154 C153 1.399 . S
C154 C157 1.380 . S
C154 H164 0.929 . S
C155 C152 1.399 . S
C155 C157 1.392 . S
C155 H165 0.929 . S
C156 C152 1.383 . S
C156 C153 1.389 . S
C156 H166 0.931 . S
C157 C154 1.380 . S
C157 C155 1.392 . S
C157 H167 0.929 . S
C158 O138 1.266 1_545 S
C158 O139 1.248 . S
C159 Tb95 2.802 1_655 S
C159 O134 1.264 . S
C159 O137 1.256 . S
C159 C152 1.496 . S
H160 C143 0.929 . S
H161 C144 0.929 . S
H162 C145 0.929 . S
H163 C146 0.931 . S
H164 C154 0.929 . S
H165 C155 0.929 . S
H166 C156 0.931 . S
H167 C157 0.929 . S
Tb168 N197 2.617 . S
Tb168 N203 2.572 . S
Tb168 O212 2.465 . S
Tb168 O213 2.387 . S
Tb168 O215 2.428 . S
Tb168 O216 2.308 1_556 S
Tb168 O220 2.349 . S
Tb168 O223 2.393 . S
Tb168 C232 2.802 . S
C169 N170 1.379 . S
C169 C172 1.416 . S
C169 C176 1.424 . S
N170 C169 1.379 . S
N170 C173 1.334 . S
N170 Tb179 2.617 . S
C171 C173 1.390 . S
C171 C174 1.339 . S
C171 H191 0.930 . S
C172 C169 1.416 . S
C172 C174 1.416 . S
C172 C178 1.448 . S
C173 N170 1.334 . S
C173 C171 1.390 . S
C173 H184 0.930 . S
C174 C171 1.339 . S
C174 C172 1.416 . S
C174 H195 0.930 . S
C175 C176 1.413 . S
C175 C177 1.427 . S
C175 C181 1.416 . S
C176 C169 1.424 . S
C176 C175 1.413 . S
C176 N180 1.361 . S
C177 C175 1.427 . S
C177 C178 1.328 . S
C177 H192 0.929 . S
C178 C172 1.448 . S
C178 C177 1.328 . S
C178 H193 0.930 . S
Tb179 N170 2.617 . S
Tb179 N180 2.572 . S
Tb179 O214 2.349 . S
Tb179 O217 2.393 . S
Tb179 O218 2.465 . S
Tb179 O219 2.387 . S
Tb179 O221 2.428 . S
Tb179 O222 2.308 1_554 S
Tb179 C243 2.802 . S
N180 C176 1.361 . S
N180 Tb179 2.572 . S
N180 C182 1.340 1_554 S
C181 C175 1.416 . S
C181 C183 1.332 1_554 S
C181 H189 0.931 1_554 S
C182 N180 1.340 1_556 S
C182 C183 1.407 . S
C182 H188 0.930 . S
C183 C181 1.332 1_556 S
C183 C182 1.407 . S
C183 H185 0.929 . S
H184 C173 0.930 . S
H185 C183 0.929 . S
H186 C201 0.930 . S
H187 C208 0.929 . S
H188 C182 0.930 . S
H189 C181 0.931 1_556 S
H190 C204 0.930 . S
H191 C171 0.930 . S
H192 C177 0.929 . S
H193 C178 0.930 . S
H194 C199 0.930 . S
H195 C174 0.930 . S
H196 C207 0.929 1_554 S
N197 Tb168 2.617 . S
N197 C198 1.379 . S
N197 C201 1.334 . S
C198 N197 1.379 . S
C198 C200 1.416 . S
C198 C206 1.424 . S
C199 H194 0.930 . S
C199 C201 1.390 . S
C199 C202 1.339 . S
C200 C198 1.416 . S
C200 C202 1.416 . S
C200 C233 1.448 . S
C201 H186 0.930 . S
C201 N197 1.334 . S
C201 C199 1.390 . S
C202 C199 1.339 . S
C202 C200 1.416 . S
C202 H209 0.930 . S
N203 Tb168 2.572 . S
N203 C204 1.340 1_556 S
N203 C206 1.361 . S
C204 H190 0.930 . S
C204 N203 1.340 1_554 S
C204 C208 1.407 . S
C205 C206 1.413 . S
C205 C207 1.421 . S
C205 C234 1.427 . S
C206 C198 1.424 . S
C206 N203 1.361 . S
C206 C205 1.413 . S
C207 H196 0.929 1_556 S
C207 C205 1.421 . S
C207 C208 1.329 1_556 S
C208 H187 0.929 . S
C208 C204 1.407 . S
C208 C207 1.329 1_554 S
H209 C202 0.930 . S
H210 C233 0.930 . S
H211 C234 0.929 . S
O212 Tb168 2.465 . S
O212 C232 1.264 . S
O213 Tb168 2.387 . S
O213 C224 1.264 . S
O214 Tb179 2.349 . S
O214 C224 1.243 1_554 S
O215 Tb168 2.428 . S
O215 C232 1.256 . S
O216 Tb168 2.308 1_554 S
O216 C231 1.266 . S
O217 Tb179 2.393 . S
O217 C231 1.248 . S
O218 Tb179 2.465 . S
O218 C243 1.264 . S
O219 Tb179 2.387 . S
O219 C235 1.264 . S
O220 Tb168 2.349 . S
O220 C235 1.243 1_556 S
O221 Tb179 2.428 . S
O221 C243 1.256 . S
O222 Tb179 2.308 1_556 S
O222 C242 1.266 . S
O223 Tb168 2.393 . S
O223 C242 1.248 . S
C224 O213 1.264 . S
C224 O214 1.243 1_556 S
C225 C228 1.399 . S
C225 C230 1.383 . S
C225 C232 1.496 . S
C226 C227 1.399 . S
C226 C230 1.389 . S
C227 C226 1.399 . S
C227 C229 1.380 . S
C227 H244 0.929 . S
C228 C225 1.399 . S
C228 C229 1.392 . S
C228 H245 0.929 . S
C229 C227 1.380 . S
C229 C228 1.392 . S
C229 H246 0.929 . S
C230 C225 1.383 . S
C230 C226 1.389 . S
C230 H247 0.931 1_556 S
C231 O216 1.266 . S
C231 O217 1.248 . S
C232 Tb168 2.802 . S
C232 O212 1.264 . S
C232 O215 1.256 . S
C232 C225 1.496 . S
C233 C200 1.448 . S
C233 H210 0.930 . S
C233 C234 1.328 . S
C234 C205 1.427 . S
C234 H211 0.929 . S
C234 C233 1.328 . S
C235 O219 1.264 . S
C235 O220 1.243 1_554 S
C236 C239 1.399 . S
C236 C240 1.383 . S
C236 C243 1.496 . S
C237 C238 1.399 . S
C237 C240 1.389 . S
C238 C237 1.399 . S
C238 C241 1.380 . S
C238 H248 0.929 . S
C239 C236 1.399 . S
C239 C241 1.392 . S
C239 H249 0.929 . S
C240 C236 1.383 . S
C240 C237 1.389 . S
C240 H250 0.931 1_554 S
C241 C238 1.380 . S
C241 C239 1.392 . S
C241 H251 0.929 . S
C242 O222 1.266 . S
C242 O223 1.248 . S
C243 Tb179 2.802 . S
C243 O218 1.264 . S
C243 O221 1.256 . S
C243 C236 1.496 . S
H244 C227 0.929 . S
H245 C228 0.929 . S
H246 C229 0.929 . S
H247 C230 0.931 1_554 S
H248 C238 0.929 . S
H249 C239 0.929 . S
H250 C240 0.931 1_556 S
H251 C241 0.929 . S
Tb252 N281 2.617 . S
Tb252 N287 2.572 . S
Tb252 O296 2.465 . S
Tb252 O297 2.387 . S
Tb252 O299 2.428 . S
Tb252 O300 2.308 . S
Tb252 O304 2.349 . S
Tb252 O307 2.393 . S
Tb252 C316 2.802 . S
C253 N254 1.379 . S
C253 C256 1.416 . S
C253 C260 1.424 . S
N254 C253 1.379 . S
N254 C257 1.334 . S
N254 Tb263 2.617 . S
C255 C257 1.390 . S
C255 C258 1.339 . S
C255 H275 0.930 . S
C256 C253 1.416 . S
C256 C258 1.416 . S
C256 C262 1.448 . S
C257 N254 1.334 . S
C257 C255 1.390 . S
C257 H268 0.930 . S
C258 C255 1.339 . S
C258 C256 1.416 . S
C258 H279 0.930 . S
C259 C260 1.413 . S
C259 C261 1.427 . S
C259 C265 1.416 . S
C260 C253 1.424 . S
C260 C259 1.413 . S
C260 N264 1.361 . S
C261 C259 1.427 . S
C261 C262 1.328 . S
C261 H276 0.929 . S
C262 C256 1.448 . S
C262 C261 1.328 . S
C262 H277 0.930 . S
Tb263 N254 2.617 . S
Tb263 N264 2.572 . S
Tb263 O298 2.349 . S
Tb263 O301 2.393 . S
Tb263 O302 2.465 . S
Tb263 O303 2.387 . S
Tb263 O305 2.428 . S
Tb263 O306 2.308 . S
Tb263 C327 2.802 . S
N264 C260 1.361 . S
N264 Tb263 2.572 . S
N264 C266 1.340 . S
C265 C259 1.416 . S
C265 C267 1.332 . S
C265 H273 0.931 . S
C266 N264 1.340 . S
C266 C267 1.407 . S
C266 H272 0.930 . S
C267 C265 1.332 . S
C267 C266 1.407 . S
C267 H269 0.929 . S
H268 C257 0.930 . S
H269 C267 0.929 . S
H270 C285 0.930 . S
H271 C292 0.929 . S
H272 C266 0.930 . S
H273 C265 0.931 . S
H274 C288 0.930 . S
H275 C255 0.930 . S
H276 C261 0.929 . S
H277 C262 0.930 . S
H278 C283 0.930 . S
H279 C258 0.930 . S
H280 C291 0.931 . S
N281 Tb252 2.617 . S
N281 C282 1.379 . S
N281 C285 1.334 . S
C282 N281 1.379 . S
C282 C284 1.416 . S
C282 C290 1.424 . S
C283 H278 0.930 . S
C283 C285 1.390 . S
C283 C286 1.339 . S
C284 C282 1.416 . S
C284 C286 1.416 . S
C284 C317 1.448 . S
C285 H270 0.930 . S
C285 N281 1.334 . S
C285 C283 1.390 . S
C286 C283 1.339 . S
C286 C284 1.416 . S
C286 H293 0.930 . S
N287 Tb252 2.572 . S
N287 C288 1.340 . S
N287 C290 1.361 . S
C288 H274 0.930 . S
C288 N287 1.340 . S
C288 C292 1.407 . S
C289 C290 1.413 . S
C289 C291 1.416 . S
C289 C318 1.427 . S
C290 C282 1.424 . S
C290 N287 1.361 . S
C290 C289 1.413 . S
C291 H280 0.931 . S
C291 C289 1.416 . S
C291 C292 1.332 . S
C292 H271 0.929 . S
C292 C288 1.407 . S
C292 C291 1.332 . S
H293 C286 0.930 . S
H294 C317 0.930 . S
H295 C318 0.929 . S
O296 Tb252 2.465 . S
O296 C316 1.264 . S
O297 Tb252 2.387 . S
O297 C308 1.264 . S
O298 Tb263 2.349 . S
O298 C308 1.243 . S
O299 Tb252 2.428 . S
O299 C316 1.256 . S
O300 Tb252 2.308 . S
O300 C315 1.266 . S
O301 Tb263 2.393 . S
O301 C315 1.248 . S
O302 Tb263 2.465 . S
O302 C327 1.264 . S
O303 Tb263 2.387 . S
O303 C319 1.264 . S
O304 Tb252 2.349 . S
O304 C319 1.243 . S
O305 Tb263 2.428 . S
O305 C327 1.256 . S
O306 Tb263 2.308 . S
O306 C326 1.266 . S
O307 Tb252 2.393 . S
O307 C326 1.248 . S
C308 O297 1.264 . S
C308 O298 1.243 . S
C309 C312 1.399 . S
C309 C314 1.383 . S
C309 C316 1.496 . S
C310 C311 1.399 . S
C310 C314 1.389 . S
C311 C310 1.399 . S
C311 C313 1.380 . S
C311 H328 0.929 . S
C312 C309 1.399 . S
C312 C313 1.392 . S
C312 H329 0.929 . S
C313 C311 1.380 . S
C313 C312 1.392 . S
C313 H330 0.929 . S
C314 C309 1.383 . S
C314 C310 1.389 . S
C314 H331 0.931 . S
C315 O300 1.266 . S
C315 O301 1.248 . S
C316 Tb252 2.802 . S
C316 O296 1.264 . S
C316 O299 1.256 . S
C316 C309 1.496 . S
C317 C284 1.448 . S
C317 H294 0.930 . S
C317 C318 1.328 . S
C318 C289 1.427 . S
C318 H295 0.929 . S
C318 C317 1.328 . S
C319 O303 1.264 . S
C319 O304 1.243 . S
C320 C323 1.399 . S
C320 C324 1.383 . S
C320 C327 1.496 . S
C321 C322 1.399 . S
C321 C324 1.389 . S
C322 C321 1.399 . S
C322 C325 1.380 . S
C322 H332 0.929 . S
C323 C320 1.399 . S
C323 C325 1.392 . S
C323 H333 0.929 . S
C324 C320 1.383 . S
C324 C321 1.389 . S
C324 H334 0.931 . S
C325 C322 1.380 . S
C325 C323 1.392 . S
C325 H335 0.929 . S
C326 O306 1.266 . S
C326 O307 1.248 . S
C327 Tb263 2.802 . S
C327 O302 1.264 . S
C327 O305 1.256 . S
C327 C320 1.496 . S
H328 C311 0.929 . S
H329 C312 0.929 . S
H330 C313 0.929 . S
H331 C314 0.931 . S
H332 C322 0.929 . S
H333 C323 0.929 . S
H334 C324 0.931 . S
H335 C325 0.929 . S
H336 C337 0.951 . S
C337 H336 0.951 . S
C337 C343 1.263 1_554 S
H338 C343 0.950 . S
H339 C347 0.949 . S
H340 C348 0.950 . S
H341 C349 0.951 . S
H342 C350 0.951 . S
C343 C337 1.263 1_556 S
C343 H338 0.950 . S
C343 C344 1.478 . S
C344 C343 1.478 . S
C344 C345 1.397 1_556 S
C344 C361 1.394 . S
C345 C344 1.397 1_554 S
C345 C346 1.438 . S
C345 C350 1.429 . S
C346 C345 1.438 . S
C346 C347 1.428 . S
C346 C359 1.394 . S
C347 H339 0.949 . S
C347 C346 1.428 . S
C347 C348 1.345 . S
C348 H340 0.950 . S
C348 C347 1.345 . S
C348 C349 1.424 . S
C349 H341 0.951 . S
C349 C348 1.424 . S
C349 C350 1.347 . S
C350 H342 0.951 . S
C350 C345 1.429 . S
C350 C349 1.347 . S
H351 C352 0.951 1_556 S
C352 H351 0.951 1_554 S
C352 C358 1.265 . S
H353 C358 0.950 . S
H354 C362 0.949 . S
H355 C363 0.950 . S
H356 C364 0.951 . S
H357 C365 0.951 . S
C358 C352 1.265 . S
C358 H353 0.950 . S
C358 C359 1.478 . S
C359 C346 1.394 . S
C359 C358 1.478 . S
C359 C360 1.397 1_554 S
C360 C359 1.397 1_556 S
C360 C361 1.438 . S
C360 C365 1.429 . S
C361 C344 1.394 . S
C361 C360 1.438 . S
C361 C362 1.428 . S
C362 H354 0.949 . S
C362 C361 1.428 . S
C362 C363 1.345 . S
C363 H355 0.950 . S
C363 C362 1.345 . S
C363 C364 1.424 . S
C364 H356 0.951 . S
C364 C363 1.424 . S
C364 C365 1.347 . S
C365 H357 0.951 . S
C365 C360 1.429 . S
C365 C364 1.347 . S
H366 C367 0.951 1_556 S
C367 H366 0.951 1_554 S
C367 C373 1.265 . S
H368 C373 0.950 . S
H369 C377 0.949 . S
H370 C378 0.950 . S
H371 C379 0.951 . S
H372 C380 0.951 . S
C373 C367 1.265 . S
C373 H368 0.950 . S
C373 C374 1.478 . S
C374 C373 1.478 . S
C374 C375 1.397 . S
C374 C391 1.394 1_554 S
C375 C374 1.397 . S
C375 C376 1.438 . S
C375 C380 1.429 . S
C376 C375 1.438 . S
C376 C377 1.428 . S
C376 C389 1.394 1_554 S
C377 H369 0.949 . S
C377 C376 1.428 . S
C377 C378 1.345 . S
C378 H370 0.950 . S
C378 C377 1.345 . S
C378 C379 1.424 . S
C379 H371 0.951 . S
C379 C378 1.424 . S
C379 C380 1.347 . S
C380 H372 0.951 . S
C380 C375 1.429 . S
C380 C379 1.347 . S
H381 C382 0.951 1_554 S
C382 H381 0.951 1_556 S
C382 C388 1.269 . S
H383 C388 0.950 . S
H384 C392 0.949 . S
H385 C393 0.950 . S
H386 C394 0.951 . S
H387 C395 0.951 . S
C388 C382 1.269 . S
C388 H383 0.950 . S
C388 C389 1.478 . S
C389 C376 1.394 1_556 S
C389 C388 1.478 . S
C389 C390 1.397 . S
C390 C389 1.397 . S
C390 C391 1.438 . S
C390 C395 1.429 . S
C391 C374 1.394 1_556 S
C391 C390 1.438 . S
C391 C392 1.428 . S
C392 H384 0.949 . S
C392 C391 1.428 . S
C392 C393 1.345 . S
C393 H385 0.950 . S
C393 C392 1.345 . S
C393 C394 1.424 . S
C394 H386 0.951 . S
C394 C393 1.424 . S
C394 C395 1.347 . S
C395 H387 0.951 . S
C395 C390 1.429 . S
C395 C394 1.347 . S
H396 C397 0.951 . S
C397 H396 0.951 . S
C397 C403 1.265 . S
H398 C403 0.950 . S
H399 C407 0.949 . S
H400 C408 0.950 . S
H401 C409 0.951 . S
H402 C410 0.951 . S
C403 C397 1.265 . S
C403 H398 0.950 . S
C403 C404 1.478 . S
C404 C403 1.478 . S
C404 C405 1.397 . S
C404 C421 1.394 . S
C405 C404 1.397 . S
C405 C406 1.438 . S
C405 C410 1.429 . S
C406 C405 1.438 . S
C406 C407 1.428 . S
C406 C419 1.394 . S
C407 H399 0.949 . S
C407 C406 1.428 . S
C407 C408 1.345 . S
C408 H400 0.950 . S
C408 C407 1.345 . S
C408 C409 1.424 . S
C409 H401 0.951 . S
C409 C408 1.424 . S
C409 C410 1.347 . S
C410 H402 0.951 . S
C410 C405 1.429 . S
C410 C409 1.347 . S
H411 C412 0.951 . S
C412 H411 0.951 . S
C412 C418 1.265 . S
H413 C418 0.950 . S
H414 C422 0.949 . S
H415 C423 0.950 . S
H416 C424 0.951 . S
H417 C425 0.951 . S
C418 C412 1.265 . S
C418 H413 0.950 . S
C418 C419 1.478 . S
C419 C406 1.394 . S
C419 C418 1.478 . S
C419 C420 1.397 . S
C420 C419 1.397 . S
C420 C421 1.438 . S
C420 C425 1.429 . S
C421 C404 1.394 . S
C421 C420 1.438 . S
C421 C422 1.428 . S
C422 H414 0.949 . S
C422 C421 1.428 . S
C422 C423 1.345 . S
C423 H415 0.950 . S
C423 C422 1.345 . S
C423 C424 1.424 . S
C424 H416 0.951 . S
C424 C423 1.424 . S
C424 C425 1.347 . S
C425 H417 0.951 . S
C425 C420 1.429 . S
C425 C424 1.347 . S
H426 C427 0.951 . S
C427 H426 0.951 . S
C427 C433 1.265 . S
H428 C433 0.950 . S
H429 C437 0.949 . S
H430 C438 0.950 . S
H431 C439 0.951 . S
H432 C440 0.951 . S
C433 C427 1.265 . S
C433 H428 0.950 . S
C433 C434 1.478 . S
C434 C433 1.478 . S
C434 C435 1.397 . S
C434 C451 1.394 . S
C435 C434 1.397 . S
C435 C436 1.438 . S
C435 C440 1.429 . S
C436 C435 1.438 . S
C436 C437 1.428 . S
C436 C449 1.394 . S
C437 H429 0.949 . S
C437 C436 1.428 . S
C437 C438 1.345 . S
C438 H430 0.950 . S
C438 C437 1.345 . S
C438 C439 1.424 . S
C439 H431 0.951 . S
C439 C438 1.424 . S
C439 C440 1.347 . S
C440 H432 0.951 . S
C440 C435 1.429 . S
C440 C439 1.347 . S
H441 C442 0.951 . S
C442 H441 0.951 . S
C442 C448 1.265 . S
H443 C448 0.950 . S
H444 C452 0.949 . S
H445 C453 0.950 . S
H446 C454 0.951 . S
H447 C455 0.951 . S
C448 C442 1.265 . S
C448 H443 0.950 . S
C448 C449 1.478 . S
C449 C436 1.394 . S
C449 C448 1.478 . S
C449 C450 1.397 . S
C450 C449 1.397 . S
C450 C451 1.438 . S
C450 C455 1.429 . S
C451 C434 1.394 . S
C451 C450 1.438 . S
C451 C452 1.428 . S
C452 H444 0.949 . S
C452 C451 1.428 . S
C452 C453 1.345 . S
C453 H445 0.950 . S
C453 C452 1.345 . S
C453 C454 1.424 . S
C454 H446 0.951 . S
C454 C453 1.424 . S
C454 C455 1.347 . S
C455 H447 0.951 . S
C455 C450 1.429 . S
C455 C454 1.347 . S
H456 C457 0.951 . S
C457 H456 0.951 . S
C457 C463 1.265 1_566 S
H458 C463 0.950 . S
H459 C467 0.949 . S
H460 C468 0.950 . S
H461 C469 0.951 . S
H462 C470 0.951 . S
C463 C457 1.265 1_544 S
C463 H458 0.950 . S
C463 C464 1.478 . S
C464 C463 1.478 . S
C464 C465 1.397 . S
C464 C481 1.394 1_544 S
C465 C464 1.397 . S
C465 C466 1.438 . S
C465 C470 1.429 . S
C466 C465 1.438 . S
C466 C467 1.428 . S
C466 C479 1.394 1_544 S
C467 H459 0.949 . S
C467 C466 1.428 . S
C467 C468 1.345 . S
C468 H460 0.950 . S
C468 C467 1.345 . S
C468 C469 1.424 . S
C469 H461 0.951 . S
C469 C468 1.424 . S
C469 C470 1.347 . S
C470 H462 0.951 . S
C470 C465 1.429 . S
C470 C469 1.347 . S
H471 C472 0.951 . S
C472 H471 0.951 . S
C472 C478 1.265 1_544 S
H473 C478 0.950 . S
H474 C482 0.949 . S
H475 C483 0.950 . S
H476 C484 0.951 . S
H477 C485 0.951 . S
C478 C472 1.265 1_566 S
C478 H473 0.950 . S
C478 C479 1.478 . S
C479 C466 1.394 1_566 S
C479 C478 1.478 . S
C479 C480 1.397 . S
C480 C479 1.397 . S
C480 C481 1.438 . S
C480 C485 1.429 . S
C481 C464 1.394 1_566 S
C481 C480 1.438 . S
C481 C482 1.428 . S
C482 H474 0.949 . S
C482 C481 1.428 . S
C482 C483 1.345 . S
C483 H475 0.950 . S
C483 C482 1.345 . S
C483 C484 1.424 . S
C484 H476 0.951 . S
C484 C483 1.424 . S
C484 C485 1.347 . S
C485 H477 0.951 . S
C485 C480 1.429 . S
C485 C484 1.347 . S
H486 C487 0.951 . S
C487 H486 0.951 . S
C487 C493 1.265 1_545 S
H488 C493 0.950 . S
H489 C497 0.949 . S
H490 C498 0.950 . S
H491 C499 0.951 . S
H492 C500 0.951 . S
C493 C487 1.265 1_565 S
C493 H488 0.950 . S
C493 C494 1.478 . S
C494 C493 1.478 . S
C494 C495 1.397 . S
C494 C511 1.394 1_565 S
C495 C494 1.397 . S
C495 C496 1.438 . S
C495 C500 1.429 . S
C496 C495 1.438 . S
C496 C497 1.428 . S
C496 C509 1.394 1_565 S
C497 H489 0.949 . S
C497 C496 1.428 . S
C497 C498 1.345 . S
C498 H490 0.950 . S
C498 C497 1.345 . S
C498 C499 1.424 . S
C499 H491 0.951 . S
C499 C498 1.424 . S
C499 C500 1.347 . S
C500 H492 0.951 . S
C500 C495 1.429 . S
C500 C499 1.347 . S
H501 C502 0.951 . S
C502 H501 0.951 . S
C502 C508 1.265 1_565 S
H503 C508 0.950 . S
H504 C512 0.949 . S
H505 C513 0.950 . S
H506 C514 0.951 . S
H507 C515 0.951 . S
C508 C502 1.265 1_545 S
C508 H503 0.950 . S
C508 C509 1.478 . S
C509 C496 1.394 1_545 S
C509 C508 1.478 . S
C509 C510 1.397 . S
C510 C509 1.397 . S
C510 C511 1.438 . S
C510 C515 1.429 . S
C511 C494 1.394 1_545 S
C511 C510 1.438 . S
C511 C512 1.428 . S
C512 H504 0.949 . S
C512 C511 1.428 . S
C512 C513 1.345 . S
C513 H505 0.950 . S
C513 C512 1.345 . S
C513 C514 1.424 . S
C514 H506 0.951 . S
C514 C513 1.424 . S
C514 C515 1.347 . S
C515 H507 0.951 . S
C515 C510 1.429 . S
C515 C514 1.347 . S
H516 C517 0.951 . S
C517 H516 0.951 . S
C517 C523 1.265 1_554 S
H518 C523 0.950 . S
H519 C527 0.949 . S
H520 C528 0.950 . S
H521 C529 0.951 . S
H522 C530 0.951 . S
C523 C517 1.265 1_556 S
C523 H518 0.950 . S
C523 C524 1.478 . S
C524 C523 1.478 . S
C524 C525 1.397 . S
C524 C541 1.394 1_556 S
C525 C524 1.397 . S
C525 C526 1.438 1_655 S
C525 C530 1.429 . S
C526 C525 1.438 1_455 S
C526 C527 1.428 . S
C526 C539 1.394 1_556 S
C527 H519 0.949 . S
C527 C526 1.428 . S
C527 C528 1.345 . S
C528 H520 0.950 . S
C528 C527 1.345 . S
C528 C529 1.424 1_455 S
C529 H521 0.951 . S
C529 C528 1.424 1_655 S
C529 C530 1.347 . S
C530 H522 0.951 . S
C530 C525 1.429 . S
C530 C529 1.347 . S
H531 C532 0.950 1_556 S
C532 H531 0.950 1_554 S
C532 C538 1.265 . S
H533 C538 0.950 . S
H534 C542 0.949 . S
H535 C543 0.950 . S
H536 C544 0.951 . S
H537 C545 0.951 . S
C538 C532 1.265 . S
C538 H533 0.950 . S
C538 C539 1.478 . S
C539 C526 1.394 1_554 S
C539 C538 1.478 . S
C539 C540 1.397 . S
C540 C539 1.397 . S
C540 C541 1.438 1_455 S
C540 C545 1.429 . S
C541 C524 1.394 1_554 S
C541 C540 1.438 1_655 S
C541 C542 1.428 . S
C542 H534 0.949 . S
C542 C541 1.428 . S
C542 C543 1.345 . S
C543 H535 0.950 . S
C543 C542 1.345 . S
C543 C544 1.424 1_655 S
C544 H536 0.951 . S
C544 C543 1.424 1_455 S
C544 C545 1.347 . S
C545 H537 0.951 . S
C545 C540 1.429 . S
C545 C544 1.347 . S
H546 C547 0.951 . S
C547 H546 0.951 . S
C547 C553 1.265 . S
H548 C553 0.950 . S
H549 C557 0.949 . S
H550 C558 0.950 . S
H551 C559 0.951 . S
H552 C560 0.951 . S
C553 C547 1.265 . S
C553 H548 0.950 . S
C553 C554 1.478 . S
C554 C553 1.478 . S
C554 C555 1.397 . S
C554 C571 1.394 . S
C555 C554 1.397 . S
C555 C556 1.438 1_455 S
C555 C560 1.429 . S
C556 C555 1.438 1_655 S
C556 C557 1.428 . S
C556 C569 1.394 . S
C557 H549 0.949 . S
C557 C556 1.428 . S
C557 C558 1.345 . S
C558 H550 0.950 . S
C558 C557 1.345 . S
C558 C559 1.424 1_655 S
C559 H551 0.951 . S
C559 C558 1.424 1_455 S
C559 C560 1.347 . S
C560 H552 0.951 . S
C560 C555 1.429 . S
C560 C559 1.347 . S
H561 C562 0.951 . S
C562 H561 0.951 . S
C562 C568 1.265 . S
H563 C568 0.950 . S
H564 C572 0.949 . S
H565 C573 0.950 . S
H566 C574 0.951 . S
H567 C575 0.951 . S
C568 C562 1.265 . S
C568 H563 0.950 . S
C568 C569 1.478 . S
C569 C556 1.394 . S
C569 C568 1.478 . S
C569 C570 1.397 . S
C570 C569 1.397 . S
C570 C571 1.438 1_655 S
C570 C575 1.429 . S
C571 C554 1.394 . S
C571 C570 1.438 1_455 S
C571 C572 1.428 . S
C572 H564 0.949 . S
C572 C571 1.428 . S
C572 C573 1.345 . S
C573 H565 0.950 . S
C573 C572 1.345 . S
C573 C574 1.424 1_455 S
C574 H566 0.951 . S
C574 C573 1.424 1_655 S
C574 C575 1.347 . S
C575 H567 0.951 . S
C575 C570 1.429 . S
C575 C574 1.347 . S
H576 C577 0.951 . S
C577 H576 0.951 . S
C577 C583 1.265 1_455 S
H578 C583 0.950 . S
H579 C587 0.949 . S
H580 C588 0.950 . S
H581 C589 0.951 . S
H582 C590 0.951 . S
C583 C577 1.265 1_655 S
C583 H578 0.950 . S
C583 C584 1.478 . S
C584 C583 1.478 . S
C584 C585 1.397 . S
C584 C601 1.394 1_645 S
C585 C584 1.397 . S
C585 C586 1.438 . S
C585 C590 1.429 . S
C586 C585 1.438 . S
C586 C587 1.428 . S
C586 C599 1.394 1_655 S
C587 H579 0.949 . S
C587 C586 1.428 . S
C587 C588 1.345 . S
C588 H580 0.950 . S
C588 C587 1.345 . S
C588 C589 1.424 . S
C589 H581 0.951 . S
C589 C588 1.424 . S
C589 C590 1.347 . S
C590 H582 0.951 . S
C590 C585 1.429 . S
C590 C589 1.347 . S
H591 C592 0.951 . S
C592 H591 0.951 . S
C592 C598 1.262 1_645 S
H593 C598 0.950 . S
H594 C602 0.949 . S
H595 C603 0.950 . S
H596 C604 0.951 . S
H597 C605 0.951 . S
C598 C592 1.262 1_465 S
C598 H593 0.950 . S
C598 C599 1.481 1_565 S
C599 C586 1.394 1_455 S
C599 C598 1.481 1_545 S
C599 C600 1.397 1_545 S
C600 C599 1.397 1_565 S
C600 C601 1.438 . S
C600 C605 1.429 . S
C601 C584 1.394 1_465 S
C601 C600 1.438 . S
C601 C602 1.428 . S
C602 H594 0.949 . S
C602 C601 1.428 . S
C602 C603 1.345 . S
C603 H595 0.950 . S
C603 C602 1.345 . S
C603 C604 1.424 . S
C604 H596 0.951 . S
C604 C603 1.424 . S
C604 C605 1.347 . S
C605 H597 0.951 . S
C605 C600 1.429 . S
C605 C604 1.347 . S
H606 C607 0.951 1_565 S
C607 H606 0.951 1_545 S
C607 C613 1.265 1_455 S
H608 C613 0.950 . S
H609 C617 0.949 . S
H610 C618 0.950 . S
H611 C619 0.951 . S
H612 C620 0.951 . S
C613 C607 1.265 1_655 S
C613 H608 0.950 . S
C613 C614 1.478 . S
C614 C613 1.478 . S
C614 C615 1.397 . S
C614 C631 1.394 1_645 S
C615 C614 1.397 . S
C615 C616 1.438 . S
C615 C620 1.429 . S
C616 C615 1.438 . S
C616 C617 1.428 . S
C616 C629 1.403 1_655 S
C617 H609 0.949 . S
C617 C616 1.428 . S
C617 C618 1.345 . S
C618 H610 0.950 . S
C618 C617 1.345 . S
C618 C619 1.424 . S
C619 H611 0.951 . S
C619 C618 1.424 . S
C619 C620 1.347 . S
C620 H612 0.951 . S
C620 C615 1.429 . S
C620 C619 1.347 . S
H621 C622 0.951 . S
C622 H621 0.951 . S
C622 C628 1.265 1_645 S
H623 C628 0.950 . S
H624 C632 0.949 . S
H625 C633 0.950 . S
H626 C634 0.951 . S
H627 C635 0.951 . S
C628 C622 1.265 1_465 S
C628 H623 0.950 . S
C628 C629 1.484 1_565 S
C629 C616 1.403 1_455 S
C629 C628 1.484 1_545 S
C629 C630 1.381 1_545 S
C630 C629 1.381 1_565 S
C630 C631 1.438 . S
C630 C635 1.429 . S
C631 C614 1.394 1_465 S
C631 C630 1.438 . S
C631 C632 1.428 . S
C632 H624 0.949 . S
C632 C631 1.428 . S
C632 C633 1.345 . S
C633 H625 0.950 . S
C633 C632 1.345 . S
C633 C634 1.424 . S
C634 H626 0.951 . S
C634 C633 1.424 . S
C634 C635 1.347 . S
C635 H627 0.951 . S
C635 C630 1.429 . S
C635 C634 1.347 . S
H636 C637 0.951 . S
C637 H636 0.951 . S
C637 C643 1.265 . S
H638 C643 0.950 . S
H639 C647 0.949 . S
H640 C648 0.950 . S
H641 C649 0.951 . S
H642 C650 0.951 . S
C643 C637 1.265 . S
C643 H638 0.950 . S
C643 C644 1.478 . S
C644 C643 1.478 . S
C644 C645 1.397 . S
C644 C661 1.394 . S
C645 C644 1.397 . S
C645 C646 1.438 . S
C645 C650 1.429 . S
C646 C645 1.438 . S
C646 C647 1.428 . S
C646 C659 1.394 . S
C647 H639 0.949 . S
C647 C646 1.428 . S
C647 C648 1.345 . S
C648 H640 0.950 . S
C648 C647 1.345 . S
C648 C649 1.424 . S
C649 H641 0.951 . S
C649 C648 1.424 . S
C649 C650 1.347 . S
C650 H642 0.951 . S
C650 C645 1.429 . S
C650 C649 1.347 . S
H651 C652 0.951 . S
C652 H651 0.951 . S
C652 C658 1.265 . S
H653 C658 0.950 . S
H654 C662 0.949 . S
H655 C663 0.950 . S
H656 C664 0.951 . S
H657 C665 0.951 . S
C658 C652 1.265 . S
C658 H653 0.950 . S
C658 C659 1.478 . S
C659 C646 1.394 . S
C659 C658 1.478 . S
C659 C660 1.397 . S
C660 C659 1.397 . S
C660 C661 1.438 . S
C660 C665 1.429 . S
C661 C644 1.394 . S
C661 C660 1.438 . S
C661 C662 1.428 . S
C662 H654 0.949 . S
C662 C661 1.428 . S
C662 C663 1.345 . S
C663 H655 0.950 . S
C663 C662 1.345 . S
C663 C664 1.424 . S
C664 H656 0.951 . S
C664 C663 1.424 . S
C664 C665 1.347 . S
C665 H657 0.951 . S
C665 C660 1.429 . S
C665 C664 1.347 . S
H666 C667 0.951 . S
C667 H666 0.951 . S
C667 C673 1.265 . S
H668 C673 0.950 . S
H669 C677 0.949 . S
H670 C678 0.950 . S
H671 C679 0.951 . S
H672 C680 0.951 . S
C673 C667 1.265 . S
C673 H668 0.950 . S
C673 C674 1.478 . S
C674 C673 1.478 . S
C674 C675 1.397 . S
C674 C691 1.394 . S
C675 C674 1.397 . S
C675 C676 1.438 . S
C675 C680 1.429 . S
C676 C675 1.438 . S
C676 C677 1.428 . S
C676 C689 1.394 . S
C677 H669 0.949 . S
C677 C676 1.428 . S
C677 C678 1.345 . S
C678 H670 0.950 . S
C678 C677 1.345 . S
C678 C679 1.424 . S
C679 H671 0.951 . S
C679 C678 1.424 . S
C679 C680 1.347 . S
C680 H672 0.951 . S
C680 C675 1.429 . S
C680 C679 1.347 . S
H681 C682 0.951 . S
C682 H681 0.951 . S
C682 C688 1.265 . S
H683 C688 0.950 . S
H684 C692 0.949 . S
H685 C693 0.950 . S
H686 C694 0.951 . S
H687 C695 0.951 . S
C688 C682 1.265 . S
C688 H683 0.950 . S
C688 C689 1.478 . S
C689 C676 1.394 . S
C689 C688 1.478 . S
C689 C690 1.397 . S
C690 C689 1.397 . S
C690 C691 1.438 . S
C690 C695 1.429 . S
C691 C674 1.394 . S
C691 C690 1.438 . S
C691 C692 1.428 . S
C692 H684 0.949 . S
C692 C691 1.428 . S
C692 C693 1.345 . S
C693 H685 0.950 . S
C693 C692 1.345 . S
C693 C694 1.424 . S
C694 H686 0.951 . S
C694 C693 1.424 . S
C694 C695 1.347 . S
C695 H687 0.951 . S
C695 C690 1.429 . S
C695 C694 1.347 . S
C337 C237 1.373 . S
C352 C58 1.370 1_554 S
C367 C226 1.378 1_554 S
C382 C69 1.369 1_556 S
C397 C142 1.429 . S
C412 C321 1.429 . S
C427 C153 1.377 . S
C442 C310 1.377 . S
C457 C67 1.956 1_556 S
C472 C56 1.956 1_554 S
C487 C151 1.956 . S
C502 C140 1.956 . S
C517 C235 1.948 . S
C532 C224 1.948 1_554 S
C547 C308 1.947 . S
C562 C319 1.947 . S
C577 C147 1.487 1_445 S
C592 C63 1.449 . S
C607 C74 1.447 1_545 S
C622 C158 1.484 1_655 S
C637 C315 1.464 . S
C652 C231 1.496 . S
C667 C326 1.491 . S
C682 C242 1.454 . S
