# Generated by pormake.
# Topology lcs, (4)-cn, num edge types: 1
# Building blocks:
#     Node 0, Type 0, BuildingBlock: UXUYUI_clean_sbu_0, # of connection points: 4
#     Node 1, Type 0, BuildingBlock: UXUYUI_clean_sbu_0, # of connection points: 4
#     Node 2, Type 0, BuildingBlock: UXUYUI_clean_sbu_0, # of connection points: 4
#     Node 3, Type 0, BuildingBlock: UXUYUI_clean_sbu_0, # of connection points: 4
#     Node 4, Type 0, BuildingBlock: UXUYUI_clean_sbu_0, # of connection points: 4
#     Node 5, Type 0, BuildingBlock: UXUYUI_clean_sbu_0, # of connection points: 4
#     Node 6, Type 0, BuildingBlock: UXUYUI_clean_sbu_0, # of connection points: 4
#     Node 7, Type 0, BuildingBlock: UXUYUI_clean_sbu_0, # of connection points: 4
#     Node 8, Type 0, BuildingBlock: UXUYUI_clean_sbu_0, # of connection points: 4
#     Node 9, Type 0, BuildingBlock: UXUYUI_clean_sbu_0, # of connection points: 4
#     Node 10, Type 0, BuildingBlock: UXUYUI_clean_sbu_0, # of connection points: 4
#     Node 11, Type 0, BuildingBlock: UXUYUI_clean_sbu_0, # of connection points: 4
#     Node 12, Type 0, BuildingBlock: UXUYUI_clean_sbu_0, # of connection points: 4
#     Node 13, Type 0, BuildingBlock: UXUYUI_clean_sbu_0, # of connection points: 4
#     Node 14, Type 0, BuildingBlock: UXUYUI_clean_sbu_0, # of connection points: 4
#     Node 15, Type 0, BuildingBlock: UXUYUI_clean_sbu_0, # of connection points: 4
#     Node 16, Type 0, BuildingBlock: UXUYUI_clean_sbu_0, # of connection points: 4
#     Node 17, Type 0, BuildingBlock: UXUYUI_clean_sbu_0, # of connection points: 4
#     Node 18, Type 0, BuildingBlock: UXUYUI_clean_sbu_0, # of connection points: 4
#     Node 19, Type 0, BuildingBlock: UXUYUI_clean_sbu_0, # of connection points: 4
#     Node 20, Type 0, BuildingBlock: UXUYUI_clean_sbu_0, # of connection points: 4
#     Node 21, Type 0, BuildingBlock: UXUYUI_clean_sbu_0, # of connection points: 4
#     Node 22, Type 0, BuildingBlock: UXUYUI_clean_sbu_0, # of connection points: 4
#     Node 23, Type 0, BuildingBlock: UXUYUI_clean_sbu_0, # of connection points: 4
#     Edge 24, Type (0, 0), BuildingBlock: EZIPEK_clean_linker_0, # of connection points: 2
#     Edge 25, Type (0, 0), BuildingBlock: EZIPEK_clean_linker_0, # of connection points: 2
#     Edge 26, Type (0, 0), BuildingBlock: EZIPEK_clean_linker_0, # of connection points: 2
#     Edge 27, Type (0, 0), BuildingBlock: EZIPEK_clean_linker_0, # of connection points: 2
#     Edge 28, Type (0, 0), BuildingBlock: EZIPEK_clean_linker_0, # of connection points: 2
#     Edge 29, Type (0, 0), BuildingBlock: EZIPEK_clean_linker_0, # of connection points: 2
#     Edge 30, Type (0, 0), BuildingBlock: EZIPEK_clean_linker_0, # of connection points: 2
#     Edge 31, Type (0, 0), BuildingBlock: EZIPEK_clean_linker_0, # of connection points: 2
#     Edge 32, Type (0, 0), BuildingBlock: EZIPEK_clean_linker_0, # of connection points: 2
#     Edge 33, Type (0, 0), BuildingBlock: EZIPEK_clean_linker_0, # of connection points: 2
#     Edge 34, Type (0, 0), BuildingBlock: EZIPEK_clean_linker_0, # of connection points: 2
#     Edge 35, Type (0, 0), BuildingBlock: EZIPEK_clean_linker_0, # of connection points: 2
#     Edge 36, Type (0, 0), BuildingBlock: EZIPEK_clean_linker_0, # of connection points: 2
#     Edge 37, Type (0, 0), BuildingBlock: EZIPEK_clean_linker_0, # of connection points: 2
#     Edge 38, Type (0, 0), BuildingBlock: EZIPEK_clean_linker_0, # of connection points: 2
#     Edge 39, Type (0, 0), BuildingBlock: EZIPEK_clean_linker_0, # of connection points: 2
#     Edge 40, Type (0, 0), BuildingBlock: EZIPEK_clean_linker_0, # of connection points: 2
#     Edge 41, Type (0, 0), BuildingBlock: EZIPEK_clean_linker_0, # of connection points: 2
#     Edge 42, Type (0, 0), BuildingBlock: EZIPEK_clean_linker_0, # of connection points: 2
#     Edge 43, Type (0, 0), BuildingBlock: EZIPEK_clean_linker_0, # of connection points: 2
#     Edge 44, Type (0, 0), BuildingBlock: EZIPEK_clean_linker_0, # of connection points: 2
#     Edge 45, Type (0, 0), BuildingBlock: EZIPEK_clean_linker_0, # of connection points: 2
#     Edge 46, Type (0, 0), BuildingBlock: EZIPEK_clean_linker_0, # of connection points: 2
#     Edge 47, Type (0, 0), BuildingBlock: EZIPEK_clean_linker_0, # of connection points: 2
#     Edge 48, Type (0, 0), BuildingBlock: EZIPEK_clean_linker_0, # of connection points: 2
#     Edge 49, Type (0, 0), BuildingBlock: EZIPEK_clean_linker_0, # of connection points: 2
#     Edge 50, Type (0, 0), BuildingBlock: EZIPEK_clean_linker_0, # of connection points: 2
#     Edge 51, Type (0, 0), BuildingBlock: EZIPEK_clean_linker_0, # of connection points: 2
#     Edge 52, Type (0, 0), BuildingBlock: EZIPEK_clean_linker_0, # of connection points: 2
#     Edge 53, Type (0, 0), BuildingBlock: EZIPEK_clean_linker_0, # of connection points: 2
#     Edge 54, Type (0, 0), BuildingBlock: EZIPEK_clean_linker_0, # of connection points: 2
#     Edge 55, Type (0, 0), BuildingBlock: EZIPEK_clean_linker_0, # of connection points: 2
#     Edge 56, Type (0, 0), BuildingBlock: EZIPEK_clean_linker_0, # of connection points: 2
#     Edge 57, Type (0, 0), BuildingBlock: EZIPEK_clean_linker_0, # of connection points: 2
#     Edge 58, Type (0, 0), BuildingBlock: EZIPEK_clean_linker_0, # of connection points: 2
#     Edge 59, Type (0, 0), BuildingBlock: EZIPEK_clean_linker_0, # of connection points: 2
#     Edge 60, Type (0, 0), BuildingBlock: EZIPEK_clean_linker_0, # of connection points: 2
#     Edge 61, Type (0, 0), BuildingBlock: EZIPEK_clean_linker_0, # of connection points: 2
#     Edge 62, Type (0, 0), BuildingBlock: EZIPEK_clean_linker_0, # of connection points: 2
#     Edge 63, Type (0, 0), BuildingBlock: EZIPEK_clean_linker_0, # of connection points: 2
#     Edge 64, Type (0, 0), BuildingBlock: EZIPEK_clean_linker_0, # of connection points: 2
#     Edge 65, Type (0, 0), BuildingBlock: EZIPEK_clean_linker_0, # of connection points: 2
#     Edge 66, Type (0, 0), BuildingBlock: EZIPEK_clean_linker_0, # of connection points: 2
#     Edge 67, Type (0, 0), BuildingBlock: EZIPEK_clean_linker_0, # of connection points: 2
#     Edge 68, Type (0, 0), BuildingBlock: EZIPEK_clean_linker_0, # of connection points: 2
#     Edge 69, Type (0, 0), BuildingBlock: EZIPEK_clean_linker_0, # of connection points: 2
#     Edge 70, Type (0, 0), BuildingBlock: EZIPEK_clean_linker_0, # of connection points: 2
#     Edge 71, Type (0, 0), BuildingBlock: EZIPEK_clean_linker_0, # of connection points: 2
# Relax obj value: 0.148
# Max RMSD: 0.190
# Mean RMSD: 0.190
data_MOF--net-lcs--node1-UXUYUI_clean_sbu_0--edge1-EZIPEK_clean_linker_0
_symmetry_space_group_name_H-M    P1
_symmetry_Int_Tables_number       1
_symmetry_cell_setting            triclinic
loop_
_symmetry_equiv_pos_as_xyz
'x, y, z'
_cell_length_a     58.793063
_cell_length_b     58.78545
_cell_length_c     58.784568
_cell_angle_alpha  90.018915
_cell_angle_beta   89.993405
_cell_angle_gamma 89.982303
loop_
_atom_site_label
_atom_site_type_symbol
_atom_site_fract_x
_atom_site_fract_y
_atom_site_fract_z
_atom_type_partial_charge
Li0 Li 0.01261 0.2682 0.3608 0.0
Li1 Li 0.02486 0.24324 0.39218 0.0
Li2 Li 0.99762 0.2298 0.36217 0.0
Li3 Li 0.98445 0.25627 0.39117 0.0
C4 C 0.04663 0.24259 0.34327 0.0
N5 N 0.08045 0.25066 0.31165 0.0
C6 C 0.06939 0.24346 0.35008 0.0
C7 C 0.0411 0.24552 0.32034 0.0
C8 C 0.08624 0.24762 0.33385 0.0
C9 C 0.05843 0.24968 0.30463 0.0
C10 C 0.01867 0.28903 0.41123 0.0
C11 C 0.01475 0.30191 0.45003 0.0
N12 N 0.03028 0.31856 0.44598 0.0
C13 C 0.03435 0.30649 0.40739 0.0
C14 C 0.00859 0.2869 0.43267 0.0
C15 C 0.0401 0.32115 0.4252 0.0
C16 C 0.00758 0.30602 0.33088 0.0
N17 N 0.02275 0.29343 0.34301 0.0
C18 C 0.05281 0.31912 0.33357 0.0
C19 C 0.04502 0.29952 0.34443 0.0
C20 C 0.03745 0.33271 0.32143 0.0
C21 C 0.01462 0.32592 0.31989 0.0
H22 H 0.9899 0.30098 0.33033 0.0
H23 H 0.05659 0.2896 0.35468 0.0
C24 C 0.05487 0.21365 0.4161 0.0
N25 N 0.05096 0.23566 0.41003 0.0
C26 C 0.07516 0.20765 0.42702 0.0
C27 C 0.08681 0.24706 0.42543 0.0
C28 C 0.0664 0.25228 0.41452 0.0
C29 C 0.09141 0.2245 0.43153 0.0
H30 H 0.0425 0.2007 0.41192 0.0
H31 H 0.06329 0.26944 0.40884 0.0
C32 C 0.96411 0.25243 0.34229 0.0
N33 N 0.93157 0.2384 0.31141 0.0
C34 C 0.94241 0.24626 0.34978 0.0
C35 C 0.96915 0.25182 0.31906 0.0
C36 C 0.92622 0.23913 0.33391 0.0
C37 C 0.9525 0.24457 0.30373 0.0
C38 C 0.99107 0.21557 0.41645 0.0
C39 C 0.97637 0.19692 0.41781 0.0
C40 C 1.00065 0.22439 0.43633 0.0
C41 C 0.9711 0.18777 0.43909 0.0
C42 C 0.995 0.21475 0.45729 0.0
N43 N 0.98043 0.19681 0.45824 0.0
C44 C 1.00066 0.19467 0.32837 0.0
C45 C 0.96735 0.19479 0.35114 0.0
C46 C 0.9931 0.1753 0.31676 0.0
N47 N 0.98773 0.20396 0.34518 0.0
C48 C 0.95911 0.17556 0.33995 0.0
C49 C 0.97212 0.16561 0.32266 0.0
H50 H 0.01691 0.20213 0.32413 0.0
H51 H 0.95752 0.20242 0.36468 0.0
C52 C 0.95495 0.28923 0.40911 0.0
N53 N 0.95847 0.26639 0.40791 0.0
C54 C 0.93531 0.29783 0.41937 0.0
C55 C 0.92325 0.25927 0.42703 0.0
C56 C 0.94312 0.2514 0.4166 0.0
C57 C 0.91916 0.28273 0.42825 0.0
H58 H 0.96723 0.30074 0.40169 0.0
H59 H 0.94591 0.23334 0.41482 0.0
O60 O 0.02988 0.23878 0.35897 0.0
O61 O 0.01264 0.27472 0.39386 0.0
O62 O 0.98035 0.25894 0.35762 0.0
O63 O 0.9964 0.22469 0.3957 0.0
H64 H 0.07402 0.241 0.3677 0.0
H65 H 0.02362 0.24471 0.31476 0.0
H66 H 0.10391 0.24844 0.3389 0.0
H67 H 0.05438 0.25214 0.28685 0.0
H68 H 0.0071 0.30039 0.4667 0.0
H69 H 0.04214 0.30865 0.39089 0.0
H70 H 0.9959 0.27401 0.43587 0.0
H71 H 0.05234 0.33461 0.42247 0.0
H72 H 0.07049 0.32405 0.33523 0.0
H73 H 0.00236 0.3362 0.31076 0.0
H74 H 0.07838 0.19005 0.43142 0.0
H75 H 0.09919 0.26036 0.4285 0.0
H76 H 0.93819 0.24669 0.36768 0.0
H77 H 0.98573 0.25688 0.31295 0.0
H78 H 0.90942 0.23413 0.33949 0.0
H79 H 0.95622 0.24386 0.28572 0.0
H80 H 0.969 0.18966 0.4026 0.0
H81 H 0.01256 0.23834 0.43559 0.0
H82 H 0.95962 0.17345 0.44039 0.0
H83 H 0.00227 0.22147 0.4728 0.0
H84 H 0.0035 0.16788 0.30349 0.0
H85 H 0.94288 0.16838 0.34486 0.0
H86 H 0.93253 0.31604 0.41999 0.0
H87 H 0.91097 0.24722 0.43361 0.0
Li88 Li 0.00732 0.77181 0.64281 0.0
Li89 Li 0.98175 0.75745 0.61304 0.0
Li90 Li 0.99565 0.7319 0.64322 0.0
Li91 Li 0.02107 0.74567 0.61305 0.0
C92 C 0.96554 0.77293 0.66133 0.0
N93 N 0.94519 0.80245 0.69172 0.0
C94 C 0.95079 0.78985 0.65348 0.0
C95 C 0.96975 0.77085 0.68462 0.0
C96 C 0.94071 0.80465 0.66912 0.0
C97 C 0.95936 0.786 0.69972 0.0
C98 C 0.02462 0.786 0.59523 0.0
C99 C 0.04149 0.78918 0.55798 0.0
N100 N 0.05817 0.80255 0.56681 0.0
C101 C 0.04188 0.79984 0.60394 0.0
C102 C 0.02433 0.78071 0.57205 0.0
C103 C 0.05869 0.80803 0.58929 0.0
C104 C 0.03288 0.79958 0.67396 0.0
N105 N 0.01472 0.79866 0.65962 0.0
C106 C 0.00799 0.83848 0.66434 0.0
C107 C 0.00239 0.81757 0.65463 0.0
C108 C 0.02688 0.84006 0.6788 0.0
C109 C 0.03935 0.82032 0.68378 0.0
H110 H 0.04276 0.78441 0.67718 0.0
H111 H 0.9886 0.81655 0.64252 0.0
C112 C 0.93521 0.75612 0.60125 0.0
N113 N 0.95556 0.76564 0.5957 0.0
C114 C 0.91525 0.76351 0.59069 0.0
C115 C 0.93756 0.79027 0.56883 0.0
C116 C 0.95712 0.78227 0.5797 0.0
C117 C 0.91635 0.78101 0.57456 0.0
H118 H 0.93442 0.7433 0.61442 0.0
H119 H 0.97345 0.78984 0.57595 0.0
C120 C 0.03736 0.73166 0.66209 0.0
N121 N 0.05755 0.70374 0.69402 0.0
C122 C 0.05291 0.71501 0.65526 0.0
C123 C 0.03226 0.73428 0.68515 0.0
C124 C 0.0629 0.70102 0.67167 0.0
C125 C 0.04259 0.71995 0.70104 0.0
C126 C 0.97829 0.71664 0.59593 0.0
C127 C 0.96152 0.7023 0.60478 0.0
C128 C 0.9782 0.72196 0.57276 0.0
C129 C 0.9448 0.69365 0.59029 0.0
C130 C 0.96114 0.71302 0.55884 0.0
N131 N 0.94494 0.69917 0.56782 0.0
C132 C 0.96961 0.70441 0.67411 0.0
C133 C 1.0014 0.6867 0.6567 0.0
C134 C 0.96323 0.68379 0.68424 0.0
N135 N 0.98835 0.7054 0.66055 0.0
C136 C 0.99596 0.66596 0.66683 0.0
C137 C 0.97645 0.66427 0.68045 0.0
H138 H 0.95919 0.7194 0.67642 0.0
H139 H 0.01564 0.68771 0.64513 0.0
C140 C 0.0677 0.74596 0.60153 0.0
N141 N 0.04714 0.73706 0.59572 0.0
C142 C 0.08753 0.73816 0.59101 0.0
C143 C 0.06466 0.71241 0.5685 0.0
C144 C 0.04524 0.72075 0.57942 0.0
C145 C 0.08607 0.72097 0.57456 0.0
H146 H 0.06874 0.75856 0.6149 0.0
H147 H 0.02875 0.71369 0.57543 0.0
O148 O 0.97579 0.75845 0.64628 0.0
O149 O 0.0083 0.77736 0.60937 0.0
O150 O 0.02719 0.74533 0.64626 0.0
O151 O 0.99452 0.72569 0.60992 0.0
H152 H 0.94736 0.79173 0.6355 0.0
H153 H 0.98094 0.7577 0.69097 0.0
H154 H 0.92937 0.81792 0.66329 0.0
H155 H 0.96255 0.78466 0.71779 0.0
H156 H 0.04157 0.7851 0.54003 0.0
H157 H 0.04243 0.80404 0.62184 0.0
H158 H 0.01113 0.76996 0.56507 0.0
H159 H 0.07221 0.81868 0.59581 0.0
H160 H 0.99815 0.85345 0.66002 0.0
H161 H 0.05413 0.82106 0.69475 0.0
H162 H 0.89905 0.75623 0.59559 0.0
H163 H 0.93884 0.80396 0.55655 0.0
H164 H 0.05702 0.71271 0.63747 0.0
H165 H 0.02041 0.74721 0.69071 0.0
H166 H 0.07485 0.68796 0.66663 0.0
H167 H 0.03872 0.72171 0.71894 0.0
H168 H 0.96129 0.69803 0.62267 0.0
H169 H 0.99101 0.7331 0.56566 0.0
H170 H 0.93166 0.6826 0.59692 0.0
H171 H 0.96076 0.71713 0.54091 0.0
H172 H 0.94798 0.68296 0.69454 0.0
H173 H 0.0064 0.65116 0.66342 0.0
H174 H 0.10389 0.74492 0.59614 0.0
H175 H 0.06308 0.699 0.55597 0.0
Li176 Li 0.50908 0.77079 0.86271 0.0
Li177 Li 0.52088 0.74359 0.89096 0.0
Li178 Li 0.49417 0.73241 0.86162 0.0
Li179 Li 0.48212 0.75795 0.89143 0.0
C180 C 0.5321 0.73982 0.83519 0.0
N181 N 0.54384 0.73523 0.78989 0.0
C182 C 0.55223 0.72873 0.82911 0.0
C183 C 0.51797 0.74865 0.81821 0.0
C184 C 0.55786 0.72657 0.80612 0.0
C185 C 0.52419 0.74614 0.79541 0.0
C186 C 0.52824 0.78978 0.90123 0.0
C187 C 0.54263 0.82374 0.91917 0.0
N188 N 0.56366 0.81917 0.91067 0.0
C189 C 0.54999 0.78542 0.89266 0.0
C190 C 0.5245 0.80908 0.91458 0.0
C191 C 0.56768 0.80048 0.89764 0.0
C192 C 0.50433 0.81447 0.84304 0.0
N193 N 0.51898 0.79679 0.84587 0.0
C194 C 0.54887 0.81762 0.8278 0.0
C195 C 0.54085 0.79793 0.83834 0.0
C196 C 0.53422 0.83621 0.82501 0.0
C197 C 0.51165 0.83451 0.83251 0.0
H198 H 0.48712 0.81317 0.84942 0.0
H199 H 0.55225 0.78376 0.84102 0.0
C200 C 0.55883 0.71616 0.89848 0.0
N201 N 0.54609 0.73271 0.90842 0.0
C202 C 0.57812 0.70766 0.9094 0.0
C203 C 0.5706 0.73302 0.94092 0.0
C204 C 0.55151 0.74119 0.92928 0.0
C205 C 0.58419 0.71618 0.93083 0.0
H206 H 0.55404 0.70966 0.88195 0.0
H207 H 0.54116 0.75442 0.93679 0.0
C208 C 0.45451 0.75774 0.85344 0.0
N209 N 0.40888 0.75081 0.84456 0.0
C210 C 0.44353 0.73832 0.86169 0.0
C211 C 0.44228 0.77363 0.8407 0.0
C212 C 0.42047 0.73512 0.857 0.0
C213 C 0.41922 0.76983 0.83639 0.0
C214 C 0.49077 0.71893 0.91691 0.0
C215 C 0.48591 0.69624 0.92205 0.0
C216 C 0.49395 0.73455 0.93458 0.0
C217 C 0.48437 0.68953 0.9448 0.0
C218 C 0.49228 0.72717 0.9571 0.0
N219 N 0.48757 0.705 0.9617 0.0
C220 C 0.48813 0.68625 0.85198 0.0
C221 C 0.47443 0.71029 0.82262 0.0
C222 C 0.4801 0.66703 0.84058 0.0
N223 N 0.48488 0.70734 0.84308 0.0
C224 C 0.46628 0.69149 0.81053 0.0
C225 C 0.46877 0.66962 0.81976 0.0
H226 H 0.49658 0.68442 0.86822 0.0
H227 H 0.4719 0.72725 0.81597 0.0
C228 C 0.45159 0.7895 0.91172 0.0
N229 N 0.45612 0.76696 0.90899 0.0
C230 C 0.43143 0.79651 0.92231 0.0
C231 C 0.42123 0.757 0.92739 0.0
C232 C 0.4415 0.75076 0.91671 0.0
C233 C 0.41596 0.78008 0.93003 0.0
H234 H 0.46334 0.80202 0.9051 0.0
H235 H 0.44519 0.73297 0.91395 0.0
O236 O 0.52645 0.74203 0.85768 0.0
O237 O 0.51051 0.77553 0.89631 0.0
O238 O 0.47701 0.7615 0.85806 0.0
O239 O 0.49235 0.72566 0.89467 0.0
H240 H 0.56342 0.72189 0.84203 0.0
H241 H 0.5024 0.75741 0.8225 0.0
H242 H 0.57339 0.71801 0.80118 0.0
H243 H 0.51341 0.75287 0.78212 0.0
H244 H 0.53998 0.83876 0.92947 0.0
H245 H 0.5532 0.77066 0.88216 0.0
H246 H 0.50773 0.81272 0.92127 0.0
H247 H 0.58458 0.79733 0.89109 0.0
H248 H 0.56642 0.81854 0.82227 0.0
H249 H 0.50003 0.84869 0.83068 0.0
H250 H 0.58823 0.6946 0.90123 0.0
H251 H 0.57486 0.73987 0.95749 0.0
H252 H 0.45266 0.72588 0.87169 0.0
H253 H 0.45052 0.78878 0.83425 0.0
H254 H 0.41177 0.72018 0.86329 0.0
H255 H 0.40953 0.782 0.82657 0.0
H256 H 0.4833 0.68394 0.90861 0.0
H257 H 0.4976 0.75221 0.93102 0.0
H258 H 0.48063 0.67201 0.94901 0.0
H259 H 0.49472 0.73908 0.97091 0.0
H260 H 0.48228 0.65036 0.84811 0.0
H261 H 0.45758 0.69399 0.79448 0.0
H262 H 0.42769 0.81447 0.924 0.0
H263 H 0.4095 0.74396 0.93302 0.0
Li264 Li 0.50913 0.27178 0.13745 0.0
Li265 Li 0.48396 0.26031 0.10911 0.0
Li266 Li 0.49409 0.23308 0.13911 0.0
Li267 Li 0.52269 0.24545 0.10772 0.0
C268 C 0.46969 0.27354 0.16031 0.0
N269 N 0.4545 0.29766 0.19767 0.0
C270 C 0.46324 0.29631 0.15801 0.0
C271 C 0.46817 0.26295 0.18154 0.0
C272 C 0.45571 0.30825 0.17713 0.0
C273 C 0.46048 0.27546 0.20024 0.0
C274 C 0.50797 0.29212 0.08769 0.0
C275 C 0.51081 0.30399 0.04854 0.0
N276 N 0.49748 0.32231 0.05327 0.0
C277 C 0.49451 0.3112 0.09223 0.0
C278 C 0.51634 0.28854 0.06573 0.0
C279 C 0.4893 0.3262 0.07456 0.0
C280 C 0.53091 0.31382 0.14307 0.0
N281 N 0.51981 0.29743 0.15506 0.0
C282 C 0.52526 0.3183 0.18965 0.0
C283 C 0.51713 0.2992 0.17802 0.0
C284 C 0.53646 0.33547 0.1775 0.0
C285 C 0.53939 0.3331 0.154 0.0
H286 H 0.53338 0.31189 0.12498 0.0
H287 H 0.50888 0.28576 0.18739 0.0
C288 C 0.43863 0.27381 0.10319 0.0
N289 N 0.45805 0.26975 0.09126 0.0
C290 C 0.41917 0.28174 0.09218 0.0
C291 C 0.43968 0.28066 0.05657 0.0
C292 C 0.45875 0.27258 0.06827 0.0
C293 C 0.41973 0.2855 0.06869 0.0
H294 H 0.43825 0.27106 0.12134 0.0
H295 H 0.47414 0.26882 0.059 0.0
C296 C 0.54123 0.24917 0.15834 0.0
N297 N 0.5703 0.2641 0.19208 0.0
C298 C 0.56116 0.26078 0.15262 0.0
C299 C 0.53612 0.24502 0.18118 0.0
C300 C 0.57561 0.26826 0.16994 0.0
C301 C 0.55105 0.2527 0.19799 0.0
C302 C 0.481 0.22174 0.08687 0.0
C303 C 0.45844 0.21492 0.08993 0.0
C304 C 0.49011 0.22287 0.06495 0.0
C305 C 0.44526 0.20952 0.0709 0.0
C306 C 0.47641 0.21724 0.04636 0.0
N307 N 0.45444 0.21078 0.0497 0.0
C308 C 0.46134 0.20334 0.1571 0.0
C309 C 0.49936 0.19341 0.16628 0.0
C310 C 0.45319 0.18384 0.16793 0.0
N311 N 0.48405 0.2076 0.1563 0.0
C312 C 0.49192 0.17381 0.17754 0.0
C313 C 0.4686 0.16875 0.17813 0.0
H314 H 0.44959 0.21495 0.14899 0.0
H315 H 0.51734 0.1971 0.16516 0.0
C316 C 0.56527 0.25013 0.08563 0.0
N317 N 0.54834 0.23526 0.09088 0.0
C318 C 0.58523 0.24237 0.07528 0.0
C319 C 0.56973 0.20425 0.07557 0.0
C320 C 0.55011 0.21273 0.08596 0.0
C321 C 0.58763 0.21914 0.0704 0.0
H322 H 0.56348 0.26792 0.09001 0.0
H323 H 0.53647 0.20128 0.0906 0.0
O324 O 0.47701 0.26154 0.14178 0.0
O325 O 0.51319 0.2772 0.10473 0.0
O326 O 0.52652 0.24236 0.14167 0.0
O327 O 0.494 0.22768 0.10521 0.0
H328 H 0.46412 0.30467 0.14165 0.0
H329 H 0.47307 0.24533 0.18363 0.0
H330 H 0.4508 0.32592 0.17564 0.0
H331 H 0.45933 0.26753 0.2168 0.0
H332 H 0.51704 0.30137 0.03142 0.0
H333 H 0.48806 0.31428 0.10918 0.0
H334 H 0.52679 0.27385 0.06195 0.0
H335 H 0.47874 0.34093 0.07778 0.0
H336 H 0.523 0.31961 0.20788 0.0
H337 H 0.54818 0.34602 0.14425 0.0
H338 H 0.40394 0.28528 0.10193 0.0
H339 H 0.44053 0.28335 0.03836 0.0
H340 H 0.56525 0.26426 0.13502 0.0
H341 H 0.52063 0.23626 0.18588 0.0
H342 H 0.591 0.27744 0.1658 0.0
H343 H 0.54726 0.24974 0.21575 0.0
H344 H 0.4511 0.2141 0.10678 0.0
H345 H 0.50749 0.22831 0.06228 0.0
H346 H 0.42772 0.20438 0.07298 0.0
H347 H 0.48319 0.21814 0.02928 0.0
H348 H 0.43509 0.18039 0.16813 0.0
H349 H 0.50421 0.16247 0.18527 0.0
H350 H 0.59885 0.25421 0.07159 0.0
H351 H 0.57119 0.18621 0.0721 0.0
Li352 Li 0.01061 0.73466 0.14112 0.0
Li353 Li 0.02208 0.76102 0.11042 0.0
Li354 Li 0.99408 0.77294 0.14042 0.0
Li355 Li 0.98226 0.74655 0.11072 0.0
C356 C 0.0435 0.763 0.15954 0.0
N357 N 0.07783 0.75948 0.19146 0.0
C358 C 0.06628 0.76368 0.15273 0.0
C359 C 0.0382 0.76078 0.18261 0.0
C360 C 0.08338 0.76182 0.16912 0.0
C361 C 0.05579 0.75894 0.19847 0.0
C362 C 0.0202 0.71557 0.09122 0.0
C363 C 0.02166 0.7028 0.05223 0.0
N364 N 0.03825 0.6877 0.0579 0.0
C365 C 0.03707 0.69972 0.09669 0.0
C366 C 0.01225 0.71695 0.06885 0.0
C367 C 0.04606 0.68587 0.0796 0.0
C368 C 0.00535 0.69385 0.16601 0.0
N369 N 0.02098 0.70916 0.15846 0.0
C370 C 0.05145 0.6856 0.17155 0.0
C371 C 0.04367 0.70542 0.16106 0.0
C372 C 0.03573 0.6693 0.179 0.0
C373 C 0.01241 0.67362 0.17637 0.0
H374 H 0.98743 0.69703 0.16333 0.0
H375 H 0.05579 0.71732 0.15415 0.0
C376 C 0.04996 0.79364 0.08932 0.0
N377 N 0.04779 0.77092 0.09314 0.0
C378 C 0.06964 0.80226 0.07915 0.0
C379 C 0.08433 0.76392 0.07665 0.0
C380 C 0.06443 0.75605 0.08697 0.0
C381 C 0.08716 0.7873 0.07298 0.0
H382 H 0.03665 0.80512 0.09478 0.0
H383 H 0.0627 0.73821 0.09081 0.0
C384 C 0.96298 0.74726 0.1614 0.0
N385 N 0.93278 0.75631 0.19624 0.0
C386 C 0.94068 0.75382 0.15646 0.0
C387 C 0.96982 0.7449 0.18403 0.0
C388 C 0.92569 0.75844 0.17432 0.0
C389 C 0.95432 0.74966 0.20142 0.0
C390 C 0.98652 0.78718 0.0864 0.0
C391 C 0.96992 0.80418 0.08528 0.0
C392 C 0.99667 0.77935 0.06638 0.0
C393 C 0.96343 0.81273 0.06408 0.0
C394 C 0.98975 0.78835 0.04551 0.0
N395 N 0.97338 0.80469 0.0448 0.0
C396 C 0.99662 0.80878 0.17344 0.0
C397 C 0.96222 0.80634 0.15253 0.0
C398 C 0.98877 0.82817 0.1848 0.0
N399 N 0.9833 0.79831 0.15767 0.0
C400 C 0.95368 0.82559 0.16351 0.0
C401 C 0.96711 0.83676 0.17971 0.0
H402 H 0.01349 0.80237 0.1769 0.0
H403 H 0.95215 0.79794 0.13964 0.0
C404 C 0.95551 0.71409 0.08742 0.0
N405 N 0.95665 0.73637 0.09354 0.0
C406 C 0.936 0.70554 0.07686 0.0
C407 C 0.91918 0.74302 0.07909 0.0
C408 C 0.93903 0.75085 0.08957 0.0
C409 C 0.91752 0.72007 0.07285 0.0
H410 H 0.96949 0.7028 0.09133 0.0
H411 H 0.94004 0.76828 0.0953 0.0
O412 O 0.02655 0.76467 0.1437 0.0
O413 O 0.01107 0.7291 0.10783 0.0
O414 O 0.97802 0.74305 0.14416 0.0
O415 O 0.993 0.77857 0.10703 0.0
H416 H 0.07073 0.76556 0.13499 0.0
H417 H 0.02069 0.76048 0.1882 0.0
H418 H 0.10108 0.76223 0.16408 0.0
H419 H 0.05191 0.75711 0.21637 0.0
H420 H 0.01568 0.70374 0.03485 0.0
H421 H 0.04329 0.69823 0.11392 0.0
H422 H 0.99875 0.72862 0.06438 0.0
H423 H 0.05923 0.67365 0.08358 0.0
H424 H 0.06957 0.68262 0.17313 0.0
H425 H 0.99988 0.66125 0.18179 0.0
H426 H 0.07142 0.82042 0.07661 0.0
H427 H 0.09767 0.752 0.0722 0.0
H428 H 0.93507 0.75556 0.13902 0.0
H429 H 0.98687 0.73937 0.18813 0.0
H430 H 0.90843 0.76373 0.17075 0.0
H431 H 0.95942 0.74802 0.21902 0.0
H432 H 0.96204 0.81061 0.10061 0.0
H433 H 0.00988 0.7666 0.06694 0.0
H434 H 0.9505 0.82577 0.06296 0.0
H435 H 0.99743 0.78239 0.02989 0.0
H436 H 0.99954 0.83657 0.19717 0.0
H437 H 0.93693 0.83193 0.15917 0.0
H438 H 0.93507 0.68768 0.07244 0.0
H439 H 0.90505 0.75454 0.07647 0.0
Li440 Li 0.49393 0.76987 0.36439 0.0
Li441 Li 0.5209 0.75827 0.39385 0.0
Li442 Li 0.50916 0.73185 0.36395 0.0
Li443 Li 0.48279 0.74303 0.39414 0.0
C444 C 0.53357 0.77743 0.3467 0.0
N445 N 0.54623 0.81323 0.31901 0.0
C446 C 0.54528 0.79601 0.35581 0.0
C447 C 0.5284 0.77699 0.32349 0.0
C448 C 0.55154 0.81394 0.34152 0.0
C449 C 0.5349 0.79529 0.30979 0.0
C450 C 0.47631 0.78304 0.41243 0.0
C451 C 0.46045 0.78479 0.45023 0.0
N452 N 0.44253 0.7969 0.44203 0.0
C453 C 0.45777 0.79557 0.40438 0.0
C454 C 0.47774 0.77769 0.43555 0.0
C455 C 0.44086 0.80241 0.41962 0.0
C456 C 0.46996 0.79307 0.32891 0.0
N457 N 0.48383 0.79553 0.34725 0.0
C458 C 0.48237 0.83604 0.34398 0.0
C459 C 0.49021 0.81644 0.35483 0.0
C460 C 0.46781 0.83399 0.32522 0.0
C461 C 0.46174 0.81225 0.31748 0.0
H462 H 0.46494 0.77626 0.32341 0.0
H463 H 0.50106 0.81786 0.36963 0.0
C464 C 0.56734 0.76044 0.40469 0.0
N465 N 0.5465 0.76811 0.41118 0.0
C466 C 0.58691 0.76818 0.41566 0.0
C467 C 0.56325 0.79177 0.43971 0.0
C468 C 0.54408 0.78342 0.42837 0.0
C469 C 0.5849 0.7842 0.43319 0.0
H470 H 0.56877 0.74866 0.39062 0.0
H471 H 0.52736 0.78956 0.43288 0.0
C472 C 0.46913 0.72454 0.34698 0.0
N473 N 0.45577 0.68916 0.31907 0.0
C474 C 0.45733 0.70599 0.35603 0.0
C475 C 0.47403 0.72515 0.32372 0.0
C476 C 0.45071 0.68828 0.34164 0.0
C477 C 0.46719 0.70707 0.3099 0.0
C478 C 0.52786 0.71807 0.4113 0.0
C479 C 0.54648 0.70618 0.4025 0.0
C480 C 0.52678 0.72267 0.43461 0.0
C481 C 0.56382 0.69921 0.41718 0.0
C482 C 0.54449 0.71547 0.44872 0.0
N483 N 0.56249 0.70399 0.43978 0.0
C484 C 0.53281 0.70907 0.32797 0.0
C485 C 0.51255 0.68542 0.35363 0.0
C486 C 0.54098 0.69002 0.3163 0.0
N487 N 0.51897 0.70641 0.34631 0.0
C488 C 0.52033 0.66594 0.3425 0.0
C489 C 0.53489 0.66819 0.32377 0.0
H490 H 0.53789 0.72593 0.32271 0.0
H491 H 0.50175 0.68384 0.36845 0.0
C492 C 0.43669 0.74127 0.40643 0.0
N493 N 0.45757 0.7329 0.41184 0.0
C494 C 0.41733 0.73336 0.41764 0.0
C495 C 0.44125 0.70807 0.4396 0.0
C496 C 0.46022 0.71668 0.42812 0.0
C497 C 0.41955 0.71638 0.43421 0.0
H498 H 0.43504 0.75372 0.39299 0.0
H499 H 0.47695 0.71 0.43175 0.0
O500 O 0.52667 0.76003 0.36051 0.0
O501 O 0.49279 0.77572 0.3977 0.0
O502 O 0.47635 0.74174 0.3609 0.0
O503 O 0.51098 0.72555 0.39714 0.0
H504 H 0.54925 0.79675 0.37375 0.0
H505 H 0.51913 0.76287 0.31621 0.0
H506 H 0.56051 0.82847 0.34836 0.0
H507 H 0.53085 0.79527 0.29184 0.0
H508 H 0.46126 0.78063 0.46813 0.0
H509 H 0.45625 0.79969 0.38652 0.0
H510 H 0.49191 0.76792 0.44204 0.0
H511 H 0.42636 0.81201 0.4136 0.0
H512 H 0.48724 0.85262 0.35037 0.0
H513 H 0.45044 0.8102 0.30308 0.0
H514 H 0.60346 0.76225 0.41015 0.0
H515 H 0.56127 0.8043 0.45307 0.0
H516 H 0.45353 0.70513 0.37401 0.0
H517 H 0.48336 0.73925 0.31648 0.0
H518 H 0.44165 0.67377 0.34842 0.0
H519 H 0.47103 0.70722 0.29191 0.0
H520 H 0.54772 0.70264 0.38449 0.0
H521 H 0.51254 0.73193 0.44169 0.0
H522 H 0.57839 0.69011 0.41058 0.0
H523 H 0.54396 0.71906 0.46676 0.0
H524 H 0.55232 0.69222 0.30194 0.0
H525 H 0.51546 0.64929 0.3487 0.0
H526 H 0.40074 0.73987 0.41298 0.0
H527 H 0.44339 0.69479 0.45219 0.0
Li528 Li 0.51047 0.23565 0.63975 0.0
Li529 Li 0.52122 0.26264 0.61016 0.0
Li530 Li 0.49371 0.27475 0.64004 0.0
Li531 Li 0.48236 0.24831 0.60944 0.0
C532 C 0.53511 0.26765 0.66515 0.0
N533 N 0.55258 0.27207 0.70856 0.0
C534 C 0.55826 0.27201 0.66832 0.0
C535 C 0.52083 0.26575 0.68404 0.0
C536 C 0.56678 0.27412 0.69041 0.0
C537 C 0.52997 0.26799 0.70585 0.0
C538 C 0.52638 0.22252 0.59086 0.0
C539 C 0.53815 0.21609 0.5521 0.0
N540 N 0.55821 0.20745 0.55974 0.0
C541 C 0.547 0.21337 0.59835 0.0
C542 C 0.5218 0.22373 0.56758 0.0
C543 C 0.56291 0.20592 0.58235 0.0
C544 C 0.50607 0.19172 0.6582 0.0
N545 N 0.52038 0.20984 0.65674 0.0
C546 C 0.54978 0.18911 0.67571 0.0
C547 C 0.54187 0.20892 0.66525 0.0
C548 C 0.53547 0.17009 0.67714 0.0
C549 C 0.51331 0.17152 0.66847 0.0
H550 H 0.48922 0.19279 0.6509 0.0
H551 H 0.55316 0.22327 0.66326 0.0
C552 C 0.54526 0.28573 0.57428 0.0
N553 N 0.54716 0.27228 0.59302 0.0
C554 C 0.56477 0.29374 0.56326 0.0
C555 C 0.58777 0.27376 0.59088 0.0
C556 C 0.56786 0.26608 0.6013 0.0
C557 C 0.58629 0.28796 0.5718 0.0
H558 H 0.52867 0.29067 0.56818 0.0
H559 H 0.56887 0.25543 0.61625 0.0
C560 C 0.46115 0.24156 0.65832 0.0
N561 N 0.42662 0.23395 0.68935 0.0
C562 C 0.4386 0.24645 0.6526 0.0
C563 C 0.46606 0.23241 0.67972 0.0
C564 C 0.4214 0.24261 0.66854 0.0
C565 C 0.4484 0.2288 0.6952 0.0
C566 C 0.48016 0.29049 0.59009 0.0
C567 C 0.46567 0.30861 0.59532 0.0
C568 C 0.48143 0.28251 0.56773 0.0
C569 C 0.45251 0.31832 0.57808 0.0
C570 C 0.46798 0.29265 0.55098 0.0
N571 N 0.45391 0.31019 0.55645 0.0
C572 C 0.49828 0.31516 0.66651 0.0
C573 C 0.46029 0.30344 0.65982 0.0
C574 C 0.49069 0.33456 0.678 0.0
N575 N 0.48308 0.30001 0.65779 0.0
C576 C 0.45196 0.32264 0.67106 0.0
C577 C 0.46726 0.33849 0.68015 0.0
H578 H 0.51631 0.31246 0.66412 0.0
H579 H 0.44856 0.2917 0.65201 0.0
C580 C 0.457 0.21591 0.58487 0.0
N581 N 0.45675 0.23788 0.59216 0.0
C582 C 0.43778 0.20648 0.57452 0.0
C583 C 0.41861 0.24262 0.57874 0.0
C584 C 0.43811 0.25129 0.58919 0.0
C585 C 0.41823 0.21985 0.57166 0.0
H586 H 0.47191 0.20552 0.58775 0.0
H587 H 0.438 0.26847 0.59569 0.0
O588 O 0.52656 0.26531 0.64362 0.0
O589 O 0.51082 0.23037 0.60626 0.0
O590 O 0.47818 0.24482 0.64274 0.0
O591 O 0.49299 0.28064 0.60681 0.0
H592 H 0.56956 0.2737 0.6539 0.0
H593 H 0.50284 0.26291 0.68187 0.0
H594 H 0.58468 0.27741 0.69312 0.0
H595 H 0.51908 0.26657 0.72061 0.0
H596 H 0.53488 0.21701 0.53402 0.0
H597 H 0.55079 0.21229 0.61632 0.0
H598 H 0.50578 0.23044 0.56152 0.0
H599 H 0.57903 0.19898 0.58789 0.0
H600 H 0.56706 0.18839 0.68207 0.0
H601 H 0.50196 0.15703 0.66919 0.0
H602 H 0.56313 0.30476 0.54859 0.0
H603 H 0.60415 0.26905 0.59789 0.0
H604 H 0.4344 0.25337 0.63611 0.0
H605 H 0.48331 0.22799 0.68434 0.0
H606 H 0.40391 0.2465 0.66436 0.0
H607 H 0.45199 0.22181 0.71184 0.0
H608 H 0.46459 0.31511 0.6125 0.0
H609 H 0.49254 0.26852 0.56341 0.0
H610 H 0.44118 0.33231 0.58189 0.0
H611 H 0.4687 0.28655 0.53363 0.0
H612 H 0.5029 0.34662 0.6847 0.0
H613 H 0.43377 0.32538 0.67225 0.0
H614 H 0.43794 0.1888 0.56931 0.0
H615 H 0.40371 0.25331 0.57689 0.0
Li616 Li 0.99555 0.27164 0.86024 0.0
Li617 Li 0.02201 0.26023 0.88983 0.0
Li618 Li 0.01071 0.2326 0.85992 0.0
Li619 Li 0.98344 0.2441 0.88993 0.0
C620 C 0.0423 0.27531 0.84534 0.0
N621 N 0.07216 0.30343 0.8224 0.0
C622 C 0.04961 0.29564 0.85528 0.0
C623 C 0.05041 0.26914 0.82385 0.0
C624 C 0.06466 0.30965 0.84338 0.0
C625 C 0.06542 0.28363 0.81249 0.0
C626 C 0.99204 0.29627 0.90503 0.0
C627 C 0.98184 0.31816 0.93822 0.0
N628 N 0.99103 0.33702 0.92847 0.0
C629 C 1.00118 0.31592 0.89526 0.0
C630 C 0.98208 0.29743 0.92659 0.0
C631 C 1.00057 0.33634 0.90741 0.0
C632 C 0.96462 0.30601 0.85041 0.0
N633 N 0.98447 0.29684 0.84283 0.0
C634 C 0.98768 0.32573 0.81433 0.0
C635 C 0.99585 0.30602 0.82487 0.0
C636 C 0.96756 0.33578 0.82227 0.0
C637 C 0.95579 0.3256 0.84031 0.0
H638 H 0.95593 0.29834 0.8647 0.0
H639 H 0.01139 0.29833 0.81889 0.0
C640 C 0.06832 0.26366 0.89935 0.0
N641 N 0.04756 0.26969 0.9076 0.0
C642 C 0.08814 0.27154 0.90978 0.0
C643 C 0.06492 0.29087 0.9377 0.0
C644 C 0.04551 0.28262 0.9267 0.0
C645 C 0.08647 0.28559 0.92895 0.0
H646 H 0.06944 0.25324 0.88422 0.0
H647 H 0.02889 0.28689 0.93321 0.0
C648 C 0.9709 0.24051 0.83439 0.0
N649 N 0.95571 0.23688 0.79007 0.0
C650 C 0.94842 0.23419 0.82996 0.0
C651 C 0.98564 0.24501 0.8163 0.0
C652 C 0.94107 0.23243 0.80743 0.0
C653 C 0.97765 0.24308 0.79401 0.0
C654 C 0.01709 0.22065 0.91523 0.0
C655 C 0.02924 0.2006 0.91919 0.0
C656 C 0.00944 0.23363 0.93362 0.0
C657 C 0.03349 0.19384 0.94158 0.0
C658 C 0.01405 0.2263 0.95574 0.0
N659 N 0.02587 0.20672 0.95923 0.0
C660 C 0.04366 0.20486 0.83896 0.0
C661 C 0.00589 0.191 0.83586 0.0
C662 C 0.05212 0.18532 0.82836 0.0
N663 N 0.02095 0.20722 0.84262 0.0
C664 C 0.01361 0.17122 0.82512 0.0
C665 C 0.037 0.16816 0.82159 0.0
H666 H 0.05524 0.21789 0.84483 0.0
H667 H 0.98795 0.19316 0.83933 0.0
C668 C 0.94084 0.24834 0.91172 0.0
N669 N 0.95822 0.23372 0.90726 0.0
C670 C 0.92118 0.24059 0.92261 0.0
C671 C 0.93784 0.203 0.92439 0.0
C672 C 0.95715 0.21145 0.91343 0.0
C673 C 0.91952 0.21762 0.92882 0.0
H674 H 0.94206 0.26588 0.90629 0.0
H675 H 0.97108 0.20015 0.90933 0.0
O676 O 0.02763 0.26123 0.85668 0.0
O677 O 0.99228 0.27609 0.89341 0.0
O678 O 0.97827 0.24244 0.85636 0.0
O679 O 0.01297 0.22756 0.89342 0.0
H680 H 0.04398 0.30045 0.87208 0.0
H681 H 0.04513 0.25335 0.816 0.0
H682 H 0.07044 0.32543 0.85088 0.0
H683 H 0.07174 0.27913 0.7958 0.0
H684 H 0.97431 0.31926 0.95498 0.0
H685 H 0.00843 0.31554 0.87839 0.0
H686 H 0.97468 0.28245 0.93432 0.0
H687 H 0.0076 0.35166 0.90004 0.0
H688 H 0.99704 0.3332 0.80034 0.0
H689 H 0.9402 0.33302 0.84676 0.0
H690 H 0.10458 0.26718 0.90268 0.0
H691 H 0.06316 0.30164 0.95255 0.0
H692 H 0.9368 0.23069 0.84382 0.0
H693 H 0.00305 0.24997 0.81943 0.0
H694 H 0.92372 0.22755 0.80374 0.0
H695 H 0.98888 0.24652 0.77985 0.0
H696 H 0.03531 0.19041 0.9051 0.0
H697 H 1.00009 0.2492 0.93084 0.0
H698 H 0.04286 0.17836 0.94491 0.0
H699 H 0.00823 0.2362 0.97013 0.0
H700 H 0.07028 0.18336 0.82592 0.0
H701 H 1.00156 0.1582 0.82015 0.0
H702 H 0.90721 0.25221 0.92568 0.0
H703 H 0.93694 0.18515 0.92886 0.0
Li704 Li 0.39409 0.02174 0.24536 0.0
Li705 Li 0.36359 0.00968 0.27059 0.0
Li706 Li 0.39342 0.98169 0.2596 0.0
Li707 Li 0.36385 0.99381 0.23259 0.0
C708 C 0.41826 0.01401 0.28624 0.0
N709 N 0.4613 0.02043 0.30405 0.0
C710 C 0.42121 0.02679 0.30608 0.0
C711 C 0.43718 0.00427 0.27565 0.0
C712 C 0.44311 0.02991 0.31477 0.0
C713 C 0.4588 0.00776 0.28486 0.0
C714 C 0.34636 0.04334 0.2477 0.0
C715 C 0.30841 0.05738 0.25442 0.0
N716 N 0.31729 0.07712 0.26261 0.0
C717 C 0.35512 0.06382 0.25602 0.0
C718 C 0.32283 0.04012 0.24673 0.0
C719 C 0.34013 0.08067 0.26352 0.0
C720 C 0.40618 0.05417 0.21338 0.0
N721 N 0.41131 0.04728 0.23486 0.0
C722 C 0.43728 0.0783 0.23933 0.0
C723 C 0.42654 0.05888 0.24789 0.0
C724 C 0.43196 0.08594 0.21736 0.0
C725 C 0.41633 0.0736 0.20425 0.0
H726 H 0.39385 0.04474 0.20351 0.0
H727 H 0.43012 0.05343 0.26502 0.0
C728 C 0.32555 0.0107 0.30157 0.0
N729 N 0.3456 0.02051 0.29548 0.0
C730 C 0.31347 0.01882 0.32043 0.0
C731 C 0.34294 0.04689 0.32633 0.0
C732 C 0.35429 0.03839 0.3073 0.0
C733 C 0.32238 0.03696 0.33315 0.0
H734 H 0.31903 0.99646 0.29196 0.0
H735 H 0.37012 0.04602 0.30192 0.0
C736 C 0.41444 0.98572 0.214 0.0
N737 N 0.44878 0.97179 0.18497 0.0
C738 C 0.41102 0.96735 0.19929 0.0
C739 C 0.43525 0.99724 0.21362 0.0
C740 C 0.4286 0.96049 0.18485 0.0
C741 C 0.45242 0.98988 0.19892 0.0
C742 C 0.34413 0.96102 0.25752 0.0
C743 C 0.35014 0.93802 0.25811 0.0
C744 C 0.32185 0.96722 0.25203 0.0
C745 C 0.33377 0.92159 0.25291 0.0
C746 C 0.30599 0.95029 0.24688 0.0
N747 N 0.31224 0.92802 0.24742 0.0
C748 C 0.41483 0.95402 0.29236 0.0
C749 C 0.4158 0.93877 0.25501 0.0
C750 C 0.42525 0.9345 0.30102 0.0
N751 N 0.41031 0.95578 0.26973 0.0
C752 C 0.42618 0.91891 0.26296 0.0
C753 C 0.4308 0.91663 0.28624 0.0
H754 H 0.40983 0.96757 0.30376 0.0
H755 H 0.41139 0.94023 0.23727 0.0
C756 C 0.33609 0.9992 0.19327 0.0
N757 N 0.3471 0.98374 0.20651 0.0
C758 C 0.32546 0.99231 0.1731 0.0
C759 C 0.33739 0.95371 0.18081 0.0
C760 C 0.3478 0.96133 0.20074 0.0
C761 C 0.32631 0.96935 0.16667 0.0
H762 H 0.336 0.01695 0.19811 0.0
H763 H 0.35692 0.94941 0.21134 0.0
O764 O 0.3969 0.01079 0.27753 0.0
O765 O 0.36076 0.02636 0.24099 0.0
O766 O 0.39722 0.99297 0.22797 0.0
O767 O 0.36 0.97734 0.26229 0.0
H768 H 0.40678 0.03424 0.31471 0.0
H769 H 0.4352 0.99388 0.26066 0.0
H770 H 0.44565 0.03985 0.33005 0.0
H771 H 0.47357 1.00031 0.2768 0.0
H772 H 0.29017 0.05507 0.25391 0.0
H773 H 0.37329 0.06654 0.25699 0.0
H774 H 0.31579 0.02441 0.24023 0.0
H775 H 0.34666 0.09654 0.27017 0.0
H776 H 0.44925 0.08753 0.24985 0.0
H777 H 0.41187 0.07911 0.18724 0.0
H778 H 0.29758 0.01086 0.32526 0.0
H779 H 0.35018 0.06099 0.33573 0.0
H780 H 0.39505 0.9583 0.19914 0.0
H781 H 0.43819 0.01178 0.22448 0.0
H782 H 0.4262 0.94618 0.17352 0.0
H783 H 0.46861 0.99861 0.19856 0.0
H784 H 0.36726 0.9329 0.26249 0.0
H785 H 0.31694 0.98494 0.25143 0.0
H786 H 0.33821 0.90373 0.25322 0.0
H787 H 0.28874 0.95487 0.24241 0.0
H788 H 0.42844 0.9331 0.31911 0.0
H789 H 0.43004 0.90525 0.25121 0.0
H790 H 0.31703 0.00476 0.16245 0.0
H791 H 0.33835 0.93589 0.17622 0.0
Li792 Li 0.2333 0.14117 0.49434 0.0
Li793 Li 0.24402 0.11089 0.51991 0.0
Li794 Li 0.27186 0.13933 0.50921 0.0
Li795 Li 0.25923 0.11155 0.48178 0.0
C796 C 0.24208 0.1661 0.5338 0.0
N797 N 0.23974 0.21072 0.54843 0.0
C798 C 0.23687 0.171 0.55647 0.0
C799 C 0.24605 0.18391 0.51855 0.0
C800 C 0.23578 0.19367 0.56355 0.0
C801 C 0.2448 0.20635 0.52628 0.0
C802 C 0.2042 0.10432 0.49475 0.0
C803 C 0.16845 0.08735 0.48397 0.0
N804 N 0.15854 0.09656 0.50275 0.0
C805 C 0.19365 0.11363 0.51394 0.0
C806 C 0.19152 0.09108 0.47964 0.0
C807 C 0.17056 0.10949 0.51769 0.0
C808 C 0.20693 0.16453 0.46199 0.0
N809 N 0.20905 0.16055 0.48459 0.0
C810 C 0.17614 0.18323 0.49212 0.0
C811 C 0.19375 0.16912 0.4996 0.0
C812 C 0.17466 0.18992 0.46901 0.0
C813 C 0.18963 0.17863 0.45382 0.0
H814 H 0.21855 0.15644 0.45022 0.0
H815 H 0.19498 0.16474 0.51742 0.0
C816 C 0.23908 0.1009 0.56607 0.0
N817 N 0.23403 0.09277 0.54501 0.0
C818 C 0.23095 0.08985 0.58546 0.0
C819 C 0.21303 0.06189 0.56117 0.0
C820 C 0.22157 0.07345 0.54221 0.0
C821 C 0.21754 0.07031 0.58303 0.0
H822 H 0.24908 0.11625 0.56775 0.0
H823 H 0.21779 0.06732 0.52529 0.0
C824 C 0.27997 0.14945 0.46307 0.0
N825 N 0.31578 0.15819 0.43392 0.0
C826 C 0.30153 0.14051 0.4676 0.0
C827 C 0.27662 0.16282 0.44372 0.0
C828 C 0.31942 0.14513 0.45267 0.0
C829 C 0.29493 0.16704 0.42918 0.0
C830 C 0.28113 0.08318 0.51258 0.0
C831 C 0.30128 0.07632 0.52316 0.0
C832 C 0.26615 0.06677 0.50408 0.0
C833 C 0.3061 0.05313 0.52512 0.0
C834 C 0.27158 0.04375 0.50638 0.0
N835 N 0.29127 0.03746 0.51677 0.0
C836 C 0.31025 0.14603 0.5366 0.0
C837 C 0.30311 0.17695 0.51168 0.0
C838 C 0.32976 0.15671 0.54493 0.0
N839 N 0.29748 0.15617 0.5202 0.0
C840 C 0.32242 0.18832 0.51966 0.0
C841 C 0.33602 0.17807 0.53637 0.0
H842 H 0.30533 0.12954 0.54308 0.0
H843 H 0.29277 0.18459 0.49853 0.0
C844 C 0.25356 0.09144 0.43839 0.0
N845 N 0.26861 0.0945 0.45569 0.0
C846 C 0.26047 0.08089 0.41821 0.0
C847 C 0.29817 0.07672 0.43413 0.0
C848 C 0.29049 0.08711 0.45405 0.0
C849 C 0.28314 0.07376 0.41585 0.0
H850 H 0.23632 0.09765 0.4401 0.0
H851 H 0.30215 0.08981 0.46801 0.0
O852 O 0.24317 0.14395 0.52673 0.0
O853 O 0.22681 0.10803 0.49066 0.0
O854 O 0.26209 0.14501 0.47729 0.0
O855 O 0.27627 0.10587 0.5106 0.0
H856 H 0.23367 0.15741 0.56848 0.0
H857 H 0.24998 0.18052 0.50092 0.0
H858 H 0.23177 0.1977 0.58105 0.0
H859 H 0.24784 0.22028 0.51466 0.0
H860 H 0.15843 0.07713 0.4724 0.0
H861 H 0.20317 0.12385 0.5259 0.0
H862 H 0.19945 0.08374 0.46471 0.0
H863 H 0.16221 0.11656 0.53249 0.0
H864 H 0.16366 0.18796 0.50466 0.0
H865 H 0.18796 0.1799 0.4356 0.0
H866 H 0.23468 0.09672 0.60215 0.0
H867 H 0.20269 0.04683 0.55884 0.0
H868 H 0.30444 0.13001 0.48242 0.0
H869 H 0.26001 0.16984 0.43996 0.0
H870 H 0.33619 0.13831 0.45596 0.0
H871 H 0.29258 0.17735 0.41412 0.0
H872 H 0.3131 0.0888 0.52976 0.0
H873 H 0.25053 0.07167 0.49574 0.0
H874 H 0.32163 0.04759 0.53328 0.0
H875 H 0.26014 0.03089 0.49989 0.0
H876 H 0.3399 0.14841 0.55788 0.0
H877 H 0.32683 0.20483 0.51276 0.0
H878 H 0.24848 0.0788 0.40438 0.0
H879 H 0.31576 0.07137 0.43281 0.0
Li880 Li 0.14163 0.00756 0.73093 0.0
Li881 Li 0.1134 0.02037 0.75786 0.0
Li882 Li 0.14129 0.99211 0.76887 0.0
Li883 Li 0.11152 0.98179 0.74264 0.0
C884 C 0.16944 0.02906 0.7627 0.0
N885 N 0.21505 0.03879 0.76858 0.0
C886 C 0.17606 0.0486 0.7745 0.0
C887 C 0.18603 0.01448 0.75385 0.0
C888 C 0.1992 0.05323 0.7773 0.0
C889 C 0.20899 0.01969 0.75702 0.0
C890 C 0.1046 0.02834 0.71106 0.0
C891 C 0.08914 0.04247 0.67579 0.0
N892 N 0.0978 0.0634 0.68051 0.0
C893 C 0.11338 0.04998 0.71554 0.0
C894 C 0.09241 0.02452 0.69102 0.0
C895 C 0.10974 0.06748 0.6999 0.0
C896 C 0.16086 0.00256 0.6872 0.0
N897 N 0.15897 0.01707 0.70513 0.0
C898 C 0.17781 0.04649 0.68433 0.0
C899 C 0.16738 0.03861 0.70415 0.0
C900 C 0.17957 0.03202 0.66547 0.0
C901 C 0.17125 0.00973 0.66704 0.0
H902 H 0.15374 0.98563 0.68838 0.0
H903 H 0.16535 0.04992 0.71851 0.0
C904 C 0.10632 0.05782 0.78624 0.0
N905 N 0.09674 0.04613 0.76874 0.0
C906 C 0.09591 0.07743 0.7947 0.0
C907 C 0.0657 0.07243 0.76723 0.0
C908 C 0.07675 0.05292 0.75923 0.0
C909 C 0.07544 0.08494 0.78506 0.0
H910 H 0.12217 0.05197 0.7935 0.0
H911 H 0.0695 0.04335 0.74529 0.0
C912 C 0.14809 0.95243 0.74392 0.0
N913 N 0.15522 0.90675 0.75236 0.0
C914 C 0.13764 0.94194 0.76254 0.0
C915 C 0.16214 0.93969 0.7296 0.0
C916 C 0.14148 0.91884 0.76652 0.0
C917 C 0.16554 0.91661 0.73415 0.0
C918 C 0.08568 0.99069 0.78143 0.0
C919 C 0.08 0.98492 0.80378 0.0
C920 C 0.06842 0.99552 0.7658 0.0
C921 C 0.05711 0.98412 0.81014 0.0
C922 C 0.04574 0.99453 0.77282 0.0
N923 N 0.0406 0.9889 0.79466 0.0
C924 C 0.1505 0.98632 0.81513 0.0
C925 C 0.179 0.97051 0.79132 0.0
C926 C 0.16185 0.97864 0.83452 0.0
N927 N 0.15906 0.98197 0.79409 0.0
C928 C 0.19098 0.96259 0.81028 0.0
C929 C 0.18222 0.96647 0.83214 0.0
H930 H 0.13468 0.99555 0.81681 0.0
H931 H 0.18544 0.96725 0.7744 0.0
C932 C 0.09107 0.95499 0.70904 0.0
N933 N 0.09235 0.95776 0.73188 0.0
C934 C 0.07748 0.93788 0.6997 0.0
C935 C 0.06769 0.9259 0.7375 0.0
C936 C 0.08158 0.94317 0.74616 0.0
C937 C 0.06374 0.92393 0.71379 0.0
H938 H 0.10099 0.9659 0.69802 0.0
H939 H 0.08401 0.94469 0.76433 0.0
O940 O 0.14681 0.02435 0.75995 0.0
O941 O 0.1084 0.01076 0.72582 0.0
O942 O 0.14472 0.97506 0.73961 0.0
O943 O 0.10806 0.99156 0.77508 0.0
H944 H 0.16345 0.0601 0.78142 0.0
H945 H 0.1813 0.99931 0.74461 0.0
H946 H 0.20457 0.06829 0.78641 0.0
H947 H 0.22199 0.00855 0.75027 0.0
H948 H 0.07975 0.03975 0.6602 0.0
H949 H 0.1231 0.0532 0.73083 0.0
H950 H 0.08561 0.00782 0.68725 0.0
H951 H 0.11648 0.0843 0.70314 0.0
H952 H 0.18398 0.06383 0.68351 0.0
H953 H 0.17228 0.99826 0.65265 0.0
H954 H 0.10378 0.08672 0.80854 0.0
H955 H 0.04987 0.07782 0.75951 0.0
H956 H 0.12676 0.95149 0.77387 0.0
H957 H 0.17035 0.94758 0.71513 0.0
H958 H 0.13353 0.91051 0.78088 0.0
H959 H 0.17638 0.90654 0.7232 0.0
H960 H 0.09314 0.98109 0.81609 0.0
H961 H 0.07241 0.99989 0.7484 0.0
H962 H 0.05248 0.97969 0.82739 0.0
H963 H 0.03223 0.99822 0.76089 0.0
H964 H 0.15471 0.98188 0.8512 0.0
H965 H 0.20667 0.95323 0.80795 0.0
H966 H 0.07866 0.93559 0.68157 0.0
H967 H 0.0608 0.91398 0.74963 0.0
Li968 Li 0.27315 0.86403 0.99223 0.0
Li969 Li 0.26252 0.89438 0.01852 0.0
Li970 Li 0.23357 0.86521 0.00897 0.0
Li971 Li 0.24548 0.8938 0.98176 0.0
C972 C 0.26515 0.83939 0.03274 0.0
N973 N 0.26774 0.79544 0.04914 0.0
C974 C 0.27058 0.83547 0.05553 0.0
C975 C 0.26099 0.82097 0.01827 0.0
C976 C 0.27182 0.81312 0.06351 0.0
C977 C 0.2624 0.79887 0.0269 0.0
C978 C 0.29516 0.91172 0.99457 0.0
C979 C 0.30905 0.94993 0.99991 0.0
N980 N 0.32872 0.94143 0.00863 0.0
C981 C 0.31559 0.90334 0.00336 0.0
C982 C 0.2919 0.93518 0.99263 0.0
C983 C 0.33233 0.91864 0.01045 0.0
C984 C 0.30119 0.84236 0.95955 0.0
N985 N 0.29781 0.84514 0.98219 0.0
C986 C 0.33036 0.82203 0.99019 0.0
C987 C 0.31249 0.83598 0.99746 0.0
C988 C 0.33278 0.81623 0.9669 0.0
C989 C 0.31875 0.82845 0.95158 0.0
H990 H 0.2905 0.85132 0.94762 0.0
H991 H 0.31062 0.83984 0.01535 0.0
C992 C 0.26433 0.93108 0.05084 0.0
N993 N 0.27423 0.9114 0.0437 0.0
C994 C 0.27234 0.94216 0.07032 0.0
C995 C 0.30063 0.91262 0.07464 0.0
C996 C 0.29205 0.90209 0.05515 0.0
C997 C 0.29058 0.93276 0.08247 0.0
H998 H 0.24994 0.93794 0.04175 0.0
H999 H 0.29939 0.88626 0.04928 0.0
C1000 C 0.22792 0.85753 0.95931 0.0
N1001 N 0.19782 0.85334 0.9234 0.0
C1002 C 0.20449 0.85934 0.96302 0.0
C1003 C 0.236 0.85365 0.93729 0.0
C1004 C 0.18956 0.85715 0.94466 0.0
C1005 C 0.22053 0.85155 0.91937 0.0
C1006 C 0.21437 0.91535 0.00767 0.0
C1007 C 0.19108 0.91054 0.00845 0.0
C1008 C 0.22161 0.93745 0.00275 0.0
C1009 C 0.17545 0.92792 0.00417 0.0
C1010 C 0.20545 0.95435 0.99853 0.0
N1011 N 0.1829 0.94928 0.99932 0.0
C1012 C 0.19803 0.85662 0.03948 0.0
C1013 C 0.20252 0.82766 0.01173 0.0
C1014 C 0.17875 0.84586 0.04821 0.0
N1015 N 0.20915 0.84769 0.02128 0.0
C1016 C 0.18336 0.81625 0.02 0.0
C1017 C 0.17109 0.82563 0.0382 0.0
H1018 H 0.20381 0.87248 0.04682 0.0
H1019 H 0.21176 0.82087 0.99734 0.0
C1020 C 0.25098 0.91876 0.94078 0.0
N1021 N 0.23514 0.9109 0.95573 0.0
C1022 C 0.24423 0.92898 0.92036 0.0
C1023 C 0.20503 0.92326 0.93128 0.0
C1024 C 0.2125 0.91312 0.95137 0.0
C1025 C 0.22098 0.93106 0.91544 0.0
H1026 H 0.26887 0.91648 0.94442 0.0
H1027 H 0.20014 0.90633 0.96307 0.0
O1028 O 0.26372 0.8612 0.02477 0.0
O1029 O 0.27829 0.89702 0.98824 0.0
O1030 O 0.24283 0.85981 0.97708 0.0
O1031 O 0.22993 0.89854 0.01179 0.0
H1032 H 0.27379 0.84957 0.06694 0.0
H1033 H 0.25675 0.82366 1.00058 0.0
H1034 H 0.27602 0.80983 0.08112 0.0
H1035 H 0.25924 0.78446 0.0159 0.0
H1036 H 0.30672 0.96814 0.99863 0.0
H1037 H 0.31835 0.88523 0.00501 0.0
H1038 H 0.27631 0.94193 0.98559 0.0
H1039 H 0.34814 0.91241 0.01749 0.0
H1040 H 0.34226 0.81676 0.00305 0.0
H1041 H 0.32135 0.82797 0.93341 0.0
H1042 H 0.2642 0.95767 0.07607 0.0
H1043 H 0.31469 0.90495 0.08374 0.0
H1044 H 0.19787 0.86301 0.97976 0.0
H1045 H 0.25401 0.85235 0.93398 0.0
H1046 H 0.17142 0.85867 0.94731 0.0
H1047 H 0.22658 0.84859 0.90225 0.0
H1048 H 0.18512 0.89352 0.01203 0.0
H1049 H 0.23952 0.94146 0.00198 0.0
H1050 H 0.1574 0.9244 0.00461 0.0
H1051 H 0.21084 0.9715 0.99458 0.0
H1052 H 0.16967 0.85342 0.06235 0.0
H1053 H 0.17788 0.80057 0.01203 0.0
H1054 H 0.25694 0.9347 0.90832 0.0
H1055 H 0.18696 0.92445 0.92784 0.0
Li1056 Li 0.24517 0.3928 0.0212 0.0
Li1057 Li 0.27236 0.36394 0.00816 0.0
Li1058 Li 0.25908 0.39551 0.98226 0.0
Li1059 Li 0.23343 0.36385 0.99161 0.0
C1060 C 0.28552 0.41317 0.02571 0.0
N1061 N 0.30162 0.44488 0.05645 0.0
C1062 C 0.30052 0.40657 0.04293 0.0
C1063 C 0.279 0.43595 0.02391 0.0
C1064 C 0.30841 0.42284 0.05836 0.0
C1065 C 0.28723 0.45171 0.03968 0.0
C1066 C 0.24149 0.33946 0.0362 0.0
C1067 C 0.23648 0.29877 0.03815 0.0
N1068 N 0.2385 0.29973 0.06118 0.0
C1069 C 0.24315 0.34008 0.05992 0.0
C1070 C 0.23783 0.31868 0.02525 0.0
C1071 C 0.24175 0.3198 0.07223 0.0
C1072 C 0.21587 0.42164 0.04669 0.0
N1073 N 0.23505 0.40873 0.04774 0.0
C1074 C 0.23861 0.41601 0.08765 0.0
C1075 C 0.24647 0.4058 0.06767 0.0
C1076 C 0.21871 0.42911 0.08705 0.0
C1077 C 0.20733 0.43206 0.0663 0.0
H1078 H 0.2069 0.4234 0.03074 0.0
H1079 H 0.26141 0.39511 0.06816 0.0
C1080 C 0.31403 0.34038 1.00154 0.0
N1081 N 0.29815 0.34634 0.01731 0.0
C1082 C 0.33396 0.32922 0.00819 0.0
C1083 C 0.32094 0.33073 0.04718 0.0
C1084 C 0.30122 0.34171 0.03978 0.0
C1085 C 0.33758 0.32455 0.03129 0.0
H1086 H 0.31148 0.34478 0.98387 0.0
H1087 H 0.2888 0.34734 0.05207 0.0
C1088 C 0.21697 0.41291 0.97922 0.0
N1089 N 0.1976 0.44482 0.95065 0.0
C1090 C 0.20332 0.40596 0.96103 0.0
C1091 C 0.22044 0.4361 0.98309 0.0
C1092 C 0.19375 0.42235 0.94673 0.0
C1093 C 0.21061 0.45197 0.9684 0.0
C1094 C 0.26575 0.34468 0.96084 0.0
C1095 C 0.26574 0.34832 0.93734 0.0
C1096 C 0.26887 0.32268 0.96929 0.0
C1097 C 0.26831 0.3298 0.92267 0.0
C1098 C 0.27141 0.3046 0.95408 0.0
N1099 N 0.27104 0.30849 0.93127 0.0
C1100 C 0.28606 0.42938 0.96081 0.0
C1101 C 0.25686 0.41427 0.93787 0.0
C1102 C 0.29284 0.44392 0.94325 0.0
N1103 N 0.26795 0.41538 0.95806 0.0
C1104 C 0.26296 0.42862 0.91996 0.0
C1105 C 0.28025 0.44517 0.92272 0.0
H1106 H 0.29562 0.42892 0.97652 0.0
H1107 H 0.24345 0.40192 0.93551 0.0
C1108 C 0.19146 0.34118 0.99588 0.0
N1109 N 0.20833 0.34617 0.98084 0.0
C1110 C 0.17168 0.33024 0.98854 0.0
C1111 C 0.18705 0.32957 0.95039 0.0
C1112 C 0.20652 0.34053 0.95846 0.0
C1113 C 0.1693 0.32456 0.9655 0.0
H1114 H 0.19317 0.34622 0.0135 0.0
H1115 H 0.21973 0.34531 0.94668 0.0
O1116 O 0.2773 0.39741 0.01067 0.0
O1117 O 0.24268 0.35921 0.02392 0.0
O1118 O 0.22677 0.39708 0.9932 0.0
O1119 O 0.26328 0.36268 0.97542 0.0
H1120 H 0.30593 0.38907 0.04446 0.0
H1121 H 0.26771 0.44141 0.01048 0.0
H1122 H 0.31991 0.41794 0.07186 0.0
H1123 H 0.2822 0.46938 0.03856 0.0
H1124 H 0.23373 0.28258 0.02986 0.0
H1125 H 0.24565 0.35602 0.06874 0.0
H1126 H 0.23576 0.31791 0.00701 0.0
H1127 H 0.2432 0.32002 0.09057 0.0
H1128 H 0.24761 0.41329 0.10349 0.0
H1129 H 0.19182 0.44196 0.06541 0.0
H1130 H 0.34667 0.32484 0.9956 0.0
H1131 H 0.32345 0.32757 0.06516 0.0
H1132 H 0.2003 0.38812 0.95784 0.0
H1133 H 0.23061 0.4418 0.9973 0.0
H1134 H 0.1833 0.4172 0.93249 0.0
H1135 H 0.21329 0.46997 0.97112 0.0
H1136 H 0.26364 0.36526 0.93049 0.0
H1137 H 0.26967 0.31962 0.98738 0.0
H1138 H 0.26816 0.33236 0.90445 0.0
H1139 H 0.27379 0.28749 0.9604 0.0
H1140 H 0.30834 0.4532 0.94605 0.0
H1141 H 0.25437 0.426 0.90394 0.0
H1142 H 0.15814 0.32673 1.00054 0.0
H1143 H 0.18554 0.3256 0.93246 0.0
Li1144 Li 0.73495 0.14094 0.00857 0.0
Li1145 Li 0.76099 0.11088 0.0207 0.0
Li1146 Li 0.77325 0.14038 0.99397 0.0
Li1147 Li 0.74645 0.1108 0.98213 0.0
C1148 C 0.78003 0.1583 0.03355 0.0
N1149 N 0.81535 0.18649 0.04648 0.0
C1150 C 0.7987 0.14944 0.0453 0.0
C1151 C 0.77929 0.18151 0.02843 0.0
C1152 C 0.81638 0.16397 0.05171 0.0
C1153 C 0.79733 0.19547 0.03508 0.0
C1154 C 0.72076 0.09385 0.027 0.0
C1155 C 0.71603 0.05639 0.04301 0.0
N1156 N 0.70654 0.0658 0.0619 0.0
C1157 C 0.71088 0.10316 0.04652 0.0
C1158 C 0.72328 0.07028 0.02515 0.0
C1159 C 0.70381 0.08869 0.06399 0.0
C1160 C 0.68845 0.15096 0.01142 0.0
N1161 N 0.7093 0.15847 0.01809 0.0
C1162 C 0.69235 0.18823 0.04005 0.0
C1163 C 0.71161 0.17678 0.03205 0.0
C1164 C 0.67067 0.18056 0.03369 0.0
C1165 C 0.66878 0.16186 0.01903 0.0
H1166 H 0.68714 0.13617 1.00055 0.0
H1167 H 0.72835 0.18217 0.03738 0.0
C1168 C 0.78214 0.07388 0.04465 0.0
N1169 N 0.76999 0.09347 0.04666 0.0
C1170 C 0.78969 0.06244 0.0641 0.0
C1171 C 0.77193 0.09145 0.08725 0.0
C1172 C 0.76465 0.10225 0.0674 0.0
C1173 C 0.7848 0.07145 0.08566 0.0
H1174 H 0.78639 0.0674 0.02799 0.0
H1175 H 0.75513 0.11797 0.06848 0.0
C1176 C 0.72839 0.1581 0.9685 0.0
N1177 N 0.69337 0.1862 0.95461 0.0
C1178 C 0.71006 0.14918 0.95626 0.0
C1179 C 0.72899 0.18133 0.97354 0.0
C1180 C 0.69252 0.16367 0.94939 0.0
C1181 C 0.71108 0.19524 0.96642 0.0
C1182 C 0.78673 0.0917 0.97718 0.0
C1183 C 0.80159 0.09869 0.95998 0.0
C1184 C 0.77968 0.06901 0.97811 0.0
C1185 C 0.80907 0.08284 0.94391 0.0
C1186 C 0.7875 0.0537 0.9617 0.0
N1187 N 0.80192 0.06087 0.94508 0.0
C1188 C 0.81993 0.1504 0.99101 0.0
C1189 C 0.79654 0.17532 0.96956 0.0
C1190 C 0.8395 0.16118 0.98301 0.0
N1191 N 0.79902 0.1575 0.98409 0.0
C1192 C 0.81568 0.18663 0.96114 0.0
C1193 C 0.83743 0.17933 0.96771 0.0
H1194 H 0.82138 0.13596 0.00232 0.0
H1195 H 0.77974 0.18041 0.9641 0.0
C1196 C 0.71821 0.07968 0.95774 0.0
N1197 N 0.73663 0.09361 0.95636 0.0
C1198 C 0.70962 0.06924 0.93815 0.0
C1199 C 0.73958 0.08705 0.91632 0.0
C1200 C 0.7473 0.09749 0.93619 0.0
C1201 C 0.72026 0.0731 0.91712 0.0
H1202 H 0.70975 0.07731 0.9739 0.0
H1203 H 0.76143 0.10922 0.93545 0.0
O1204 O 0.76286 0.14425 0.02655 0.0
O1205 O 0.72849 0.10776 0.01004 0.0
O1206 O 0.7454 0.14409 0.97597 0.0
O1207 O 0.77894 0.10702 0.99288 0.0
H1208 H 0.79974 0.13148 0.04915 0.0
H1209 H 0.76511 0.18861 0.01911 0.0
H1210 H 0.83098 0.15733 0.06072 0.0
H1211 H 0.79706 0.21343 0.03108 0.0
H1212 H 0.71799 0.03813 0.04188 0.0
H1213 H 0.709 0.12138 0.04833 0.0
H1214 H 0.73093 0.06282 0.01017 0.0
H1215 H 0.69627 0.09566 0.07926 0.0
H1216 H 0.69428 0.20256 0.05148 0.0
H1217 H 0.65225 0.1555 0.01396 0.0
H1218 H 0.79967 0.04705 0.06238 0.0
H1219 H 0.76797 0.09884 0.10366 0.0
H1220 H 0.70923 0.13124 0.95229 0.0
H1221 H 0.74295 0.18848 0.98315 0.0
H1222 H 0.67818 0.15699 0.94 0.0
H1223 H 0.71122 0.21322 0.97038 0.0
H1224 H 0.80709 0.1162 0.95885 0.0
H1225 H 0.76803 0.06336 0.99116 0.0
H1226 H 0.8205 0.08804 0.93046 0.0
H1227 H 0.78206 0.03613 0.96212 0.0
H1228 H 0.85609 0.15512 0.98825 0.0
H1229 H 0.81362 0.20053 0.94923 0.0
H1230 H 0.69456 0.0587 0.93928 0.0
H1231 H 0.74805 0.0905 0.90032 0.0
Li1232 Li 0.14059 0.50934 0.2713 0.0
Li1233 Li 0.1117 0.48267 0.25964 0.0
Li1234 Li 0.13975 0.49317 0.23299 0.0
Li1235 Li 0.10965 0.52073 0.243 0.0
C1236 C 0.1508 0.46525 0.28125 0.0
N1237 N 0.16213 0.44137 0.32013 0.0
C1238 C 0.13831 0.46829 0.30123 0.0
C1239 C 0.16908 0.45005 0.28104 0.0
C1240 C 0.14428 0.45607 0.32071 0.0
C1241 C 0.17454 0.43813 0.30087 0.0
C1242 C 0.08708 0.51399 0.28749 0.0
C1243 C 0.04663 0.52093 0.28857 0.0
N1244 N 0.04692 0.51846 0.31157 0.0
C1245 C 0.08699 0.51173 0.31118 0.0
C1246 C 0.06675 0.51878 0.27611 0.0
C1247 C 0.0665 0.51395 0.32302 0.0
C1248 C 0.14661 0.53532 0.31049 0.0
N1249 N 0.15771 0.52075 0.29635 0.0
C1250 C 0.19098 0.52231 0.31975 0.0
C1251 C 0.17951 0.51419 0.30051 0.0
C1252 C 0.1797 0.53706 0.3348 0.0
C1253 C 0.15729 0.54361 0.32998 0.0
H1254 H 0.12935 0.54038 0.30667 0.0
H1255 H 0.18791 0.50253 0.289 0.0
C1256 C 0.10514 0.43589 0.26679 0.0
N1257 N 0.09454 0.45629 0.26965 0.0
C1258 C 0.09494 0.41581 0.2743 0.0
C1259 C 0.06246 0.43777 0.2866 0.0
C1260 C 0.07337 0.45747 0.27897 0.0
C1261 C 0.07349 0.41673 0.28458 0.0
H1262 H 0.12166 0.43519 0.25876 0.0
H1263 H 0.06483 0.47356 0.28057 0.0
C1264 C 0.15939 0.53242 0.22679 0.0
N1265 N 0.19189 0.54364 0.19481 0.0
C1266 C 0.15305 0.54354 0.20677 0.0
C1267 C 0.18224 0.52715 0.23067 0.0
C1268 C 0.16976 0.54905 0.19078 0.0
C1269 C 0.19842 0.53291 0.21425 0.0
C1270 C 0.09336 0.47361 0.22053 0.0
C1271 C 0.10319 0.45355 0.21236 0.0
C1272 C 0.06974 0.47505 0.22283 0.0
C1273 C 0.0892 0.43518 0.20676 0.0
C1274 C 0.05634 0.45629 0.21708 0.0
N1275 N 0.06627 0.4369 0.20925 0.0
C1276 C 0.17589 0.46985 0.21007 0.0
C1277 C 0.1495 0.48925 0.1865 0.0
C1278 C 0.18732 0.46142 0.19096 0.0
N1279 N 0.15726 0.48331 0.20747 0.0
C1280 C 0.16048 0.48135 0.16697 0.0
C1281 C 0.17942 0.46706 0.16916 0.0
H1282 H 0.1816 0.46532 0.22696 0.0
H1283 H 0.1345 0.4998 0.18498 0.0
C1284 C 0.09934 0.56698 0.24046 0.0
N1285 N 0.09298 0.54631 0.23228 0.0
C1286 C 0.08905 0.58677 0.2323 0.0
C1287 C 0.06545 0.56358 0.20783 0.0
C1288 C 0.07639 0.54422 0.21628 0.0
C1289 C 0.07201 0.58516 0.2157 0.0
H1290 H 0.11274 0.56807 0.25302 0.0
H1291 H 0.07189 0.52757 0.20989 0.0
O1292 O 0.14544 0.47717 0.26197 0.0
O1293 O 0.10706 0.51229 0.27564 0.0
O1294 O 0.14322 0.52616 0.24226 0.0
O1295 O 0.10684 0.49147 0.22687 0.0
H1296 H 0.1241 0.47987 0.30168 0.0
H1297 H 0.17897 0.44749 0.26572 0.0
H1298 H 0.13471 0.45827 0.33627 0.0
H1299 H 0.18865 0.42632 0.30095 0.0
H1300 H 0.03078 0.52448 0.27994 0.0
H1301 H 0.10256 0.50838 0.32039 0.0
H1302 H 0.06641 0.52049 0.25785 0.0
H1303 H 0.06619 0.51216 0.34134 0.0
H1304 H 0.20833 0.51703 0.32299 0.0
H1305 H 0.14819 0.55505 0.3412 0.0
H1306 H 0.1038 0.39977 0.27235 0.0
H1307 H 0.04577 0.43895 0.2943 0.0
H1308 H 0.1354 0.54761 0.20349 0.0
H1309 H 0.18735 0.51841 0.24605 0.0
H1310 H 0.16511 0.55754 0.17514 0.0
H1311 H 0.21615 0.52879 0.21692 0.0
H1312 H 0.12146 0.45205 0.21068 0.0
H1313 H 0.06185 0.49038 0.22927 0.0
H1314 H 0.09659 0.4195 0.20056 0.0
H1315 H 0.03805 0.4571 0.21893 0.0
H1316 H 0.20187 0.45033 0.19311 0.0
H1317 H 0.15395 0.48586 0.15034 0.0
H1318 H 0.09453 0.60319 0.23862 0.0
H1319 H 0.05238 0.56184 0.19496 0.0
Li1320 Li 0.74436 0.89058 0.52391 0.0
Li1321 Li 0.7702 0.86022 0.51168 0.0
Li1322 Li 0.7579 0.88985 0.48499 0.0
Li1323 Li 0.73146 0.86043 0.49812 0.0
C1324 C 0.78521 0.90797 0.52838 0.0
N1325 N 0.80177 0.93723 0.56121 0.0
C1326 C 0.79819 0.89954 0.54643 0.0
C1327 C 0.78079 0.93128 0.52693 0.0
C1328 C 0.8064 0.91462 0.56287 0.0
C1329 C 0.78925 0.94579 0.54373 0.0
C1330 C 0.72614 0.84347 0.53884 0.0
C1331 C 0.70901 0.80635 0.54218 0.0
N1332 N 0.69203 0.81548 0.55498 0.0
C1333 C 0.70857 0.85248 0.5521 0.0
C1334 C 0.72645 0.82021 0.53392 0.0
C1335 C 0.69148 0.83804 0.5601 0.0
C1336 C 0.71871 0.92434 0.54752 0.0
N1337 N 0.73535 0.90839 0.54957 0.0
C1338 C 0.7365 0.91366 0.58991 0.0
C1339 C 0.74436 0.90298 0.57019 0.0
C1340 C 0.71897 0.92973 0.58831 0.0
C1341 C 0.71019 0.9353 0.56685 0.0
H1342 H 0.7115 0.92796 0.531 0.0
H1343 H 0.75711 0.88977 0.5714 0.0
C1344 C 0.81652 0.84813 0.51225 0.0
N1345 N 0.79582 0.84256 0.52097 0.0
C1346 C 0.83611 0.83706 0.51985 0.0
C1347 C 0.81275 0.81471 0.5453 0.0
C1348 C 0.79356 0.82612 0.53709 0.0
C1349 C 0.83428 0.82037 0.53675 0.0
H1350 H 0.81784 0.86161 0.4998 0.0
H1351 H 0.77696 0.82232 0.54401 0.0
C1352 C 0.71731 0.90816 0.4803 0.0
N1353 N 0.70098 0.93725 0.44722 0.0
C1354 C 0.70334 0.89986 0.46294 0.0
C1355 C 0.72284 0.93127 0.48094 0.0
C1356 C 0.69527 0.91485 0.44636 0.0
C1357 C 0.71447 0.94569 0.46401 0.0
C1358 C 0.77512 0.84199 0.47141 0.0
C1359 C 0.79295 0.8503 0.45806 0.0
C1360 C 0.77423 0.81885 0.47678 0.0
C1361 C 0.80973 0.83529 0.45043 0.0
C1362 C 0.79138 0.8044 0.46888 0.0
N1363 N 0.80862 0.81285 0.45598 0.0
C1364 C 0.78423 0.92196 0.45982 0.0
C1365 C 0.75699 0.90115 0.43854 0.0
C1366 C 0.79234 0.93229 0.43998 0.0
N1367 N 0.76696 0.90661 0.4587 0.0
C1368 C 0.76435 0.91128 0.41837 0.0
C1369 C 0.78248 0.92676 0.41895 0.0
H1370 H 0.79215 0.92564 0.476 0.0
H1371 H 0.74373 0.88842 0.43807 0.0
C1372 C 0.68495 0.84917 0.49792 0.0
N1373 N 0.70552 0.84321 0.48913 0.0
C1374 C 0.66513 0.83862 0.49021 0.0
C1375 C 0.68799 0.81601 0.46451 0.0
C1376 C 0.70742 0.82688 0.47285 0.0
C1377 C 0.66659 0.82211 0.47309 0.0
H1378 H 0.68391 0.86262 0.51043 0.0
H1379 H 0.72392 0.8228 0.46585 0.0
O1380 O 0.77664 0.89345 0.51236 0.0
O1381 O 0.74277 0.85739 0.53044 0.0
O1382 O 0.72572 0.8937 0.49647 0.0
O1383 O 0.7588 0.85648 0.47948 0.0
H1384 H 0.80168 0.88154 0.5479 0.0
H1385 H 0.77078 0.93806 0.51306 0.0
H1386 H 0.81637 0.90833 0.57699 0.0
H1387 H 0.78585 0.96386 0.5429 0.0
H1388 H 0.70894 0.78835 0.53836 0.0
H1389 H 0.70796 0.87045 0.55599 0.0
H1390 H 0.73988 0.81299 0.52361 0.0
H1391 H 0.67772 0.84479 0.57029 0.0
H1392 H 0.7434 0.90885 0.6063 0.0
H1393 H 0.6965 0.94752 0.56518 0.0
H1394 H 0.85256 0.84191 0.51313 0.0
H1395 H 0.81091 0.80201 0.55851 0.0
H1396 H 0.69896 0.88201 0.46211 0.0
H1397 H 0.73364 0.93795 0.49425 0.0
H1398 H 0.68453 0.90865 0.43277 0.0
H1399 H 0.71874 0.96359 0.46421 0.0
H1400 H 0.79398 0.86816 0.45381 0.0
H1401 H 0.76059 0.81216 0.48715 0.0
H1402 H 0.82368 0.84149 0.44016 0.0
H1403 H 0.791 0.78648 0.47305 0.0
H1404 H 0.80646 0.94408 0.44093 0.0
H1405 H 0.75649 0.90657 0.40238 0.0
H1406 H 0.64878 0.8438 0.49695 0.0
H1407 H 0.68954 0.80343 0.45113 0.0
Li1408 Li 0.88943 0.02053 0.26219 0.0
Li1409 Li 0.86157 0.99386 0.27354 0.0
Li1410 Li 0.89041 0.9827 0.24652 0.0
Li1411 Li 0.85859 0.00898 0.23459 0.0
C1412 C 0.91087 0.99969 0.29317 0.0
N1413 N 0.94322 0.01829 0.3218 0.0
C1414 C 0.90437 0.00942 0.3139 0.0
C1415 C 0.93385 0.99936 0.28708 0.0
C1416 C 0.92098 0.01872 0.32813 0.0
C1417 C 0.94994 0.00888 0.30175 0.0
C1418 C 0.83642 0.03137 0.27554 0.0
C1419 C 0.79602 0.0386 0.27616 0.0
N1420 N 0.79712 0.0423 0.29897 0.0
C1421 C 0.83714 0.03529 0.29901 0.0
C1422 C 0.81568 0.03304 0.26402 0.0
C1423 C 0.81709 0.04075 0.31054 0.0
C1424 C 0.92613 0.05268 0.25967 0.0
N1425 N 0.90698 0.04661 0.27119 0.0
C1426 C 0.91133 0.07818 0.29649 0.0
C1427 C 0.89938 0.05905 0.28916 0.0
C1428 C 0.9311 0.08474 0.28498 0.0
C1429 C 0.93855 0.07188 0.26632 0.0
H1430 H 0.93171 0.04271 0.24528 0.0
H1431 H 0.88407 0.05405 0.2979 0.0
C1432 C 0.85661 0.97141 0.3155 0.0
N1433 N 0.84428 0.98163 0.29879 0.0
C1434 C 0.84587 0.9625 0.33469 0.0
C1435 C 0.80966 0.97357 0.31874 0.0
C1436 C 0.82114 0.98245 0.29988 0.0
C1437 C 0.82216 0.96371 0.3365 0.0
H1438 H 0.87486 0.9701 0.31394 0.0
H1439 H 0.81155 0.99002 0.28618 0.0
C1440 C 0.90631 0.00637 0.21193 0.0
N1441 N 0.93436 0.99303 0.1766 0.0
C1442 C 0.89763 0.00425 0.18989 0.0
C1443 C 0.92934 0.00196 0.21592 0.0
C1444 C 0.91207 0.99746 0.17227 0.0
C1445 C 0.94321 0.99513 0.19787 0.0
C1446 C 0.84214 0.96063 0.25005 0.0
C1447 C 0.8497 0.94108 0.26126 0.0
C1448 C 0.81898 0.96348 0.24557 0.0
C1449 C 0.83384 0.92476 0.26807 0.0
C1450 C 0.80366 0.94673 0.2526 0.0
N1451 N 0.81134 0.9279 0.26364 0.0
C1452 C 0.92349 0.94687 0.24829 0.0
C1453 C 0.90139 0.94901 0.2146 0.0
C1454 C 0.93463 0.92746 0.24018 0.0
N1455 N 0.90732 0.95726 0.23539 0.0
C1456 C 0.91212 0.92972 0.20583 0.0
C1457 C 0.92884 0.91872 0.21875 0.0
H1458 H 0.92741 0.95336 0.26503 0.0
H1459 H 0.88808 0.95728 0.20496 0.0
C1460 C 0.83955 0.04142 0.2053 0.0
N1461 N 0.84091 0.01868 0.20928 0.0
C1462 C 0.82916 0.04951 0.18553 0.0
C1463 C 0.8216 0.01062 0.17438 0.0
C1464 C 0.83202 0.00327 0.19447 0.0
C1465 C 0.82037 0.03399 0.16969 0.0
H1466 H 0.8471 0.05323 0.21723 0.0
H1467 H 0.8338 0.98527 0.19786 0.0
O1468 O 0.89476 0.99111 0.27869 0.0
O1469 O 0.85588 0.02609 0.26386 0.0
O1470 O 0.89232 0.0125 0.22952 0.0
O1471 O 0.85731 0.97708 0.24385 0.0
H1472 H 0.88667 0.01017 0.3188 0.0
H1473 H 0.93923 0.99204 0.27111 0.0
H1474 H 0.91616 0.02643 0.34413 0.0
H1475 H 0.96775 0.00885 0.29717 0.0
H1476 H 0.77986 0.0399 0.26745 0.0
H1477 H 0.85285 0.03359 0.30836 0.0
H1478 H 0.81469 0.02993 0.24594 0.0
H1479 H 0.81738 0.04361 0.32872 0.0
H1480 H 0.90516 0.08786 0.31091 0.0
H1481 H 0.95375 0.07665 0.25707 0.0
H1482 H 0.85595 0.95466 0.34797 0.0
H1483 H 0.79127 0.97445 0.31953 0.0
H1484 H 0.87993 0.00772 0.18639 0.0
H1485 H 0.93636 0.00346 0.23283 0.0
H1486 H 0.90553 0.99566 0.15517 0.0
H1487 H 0.961 0.99144 0.20079 0.0
H1488 H 0.8676 0.93871 0.2649 0.0
H1489 H 0.81287 0.97862 0.23705 0.0
H1490 H 0.83939 0.90962 0.27693 0.0
H1491 H 0.78566 0.94876 0.24939 0.0
H1492 H 0.94737 0.91917 0.25059 0.0
H1493 H 0.90721 0.92324 0.18929 0.0
H1494 H 0.82857 0.06764 0.18228 0.0
H1495 H 0.81512 0.99826 0.16236 0.0
Li1496 Li 0.23203 0.64175 0.51107 0.0
Li1497 Li 0.25912 0.61049 0.52189 0.0
Li1498 Li 0.27099 0.64063 0.49622 0.0
Li1499 Li 0.24538 0.61162 0.48274 0.0
C1500 C 0.2761 0.65916 0.53587 0.0
N1501 N 0.30876 0.69053 0.54825 0.0
C1502 C 0.29624 0.65193 0.54619 0.0
C1503 C 0.27245 0.68232 0.53196 0.0
C1504 C 0.31257 0.66807 0.55231 0.0
C1505 C 0.28921 0.69792 0.53831 0.0
C1506 C 0.2172 0.59297 0.52564 0.0
C1507 C 0.21079 0.55455 0.53849 0.0
N1508 N 0.19861 0.5627 0.5564 0.0
C1509 C 0.20445 0.60097 0.54405 0.0
C1510 C 0.22024 0.56958 0.52269 0.0
C1511 C 0.19524 0.58539 0.55945 0.0
C1512 C 0.18727 0.65873 0.50838 0.0
N1513 N 0.2066 0.65902 0.52109 0.0
C1514 C 0.18836 0.68134 0.54979 0.0
C1515 C 0.20758 0.67015 0.54135 0.0
C1516 C 0.16812 0.68097 0.53719 0.0
C1517 C 0.16768 0.66973 0.51615 0.0
H1518 H 0.187 0.64956 0.49242 0.0
H1519 H 0.22311 0.66985 0.5512 0.0
C1520 C 0.28531 0.57663 0.5445 0.0
N1521 N 0.26797 0.59164 0.54689 0.0
C1522 C 0.29179 0.56271 0.56266 0.0
C1523 C 0.2635 0.58091 0.58585 0.0
C1524 C 0.25769 0.59462 0.56732 0.0
C1525 C 0.27965 0.56316 0.58349 0.0
H1526 H 0.29452 0.57578 0.52861 0.0
H1527 H 0.24513 0.60792 0.56935 0.0
C1528 C 0.24268 0.66367 0.46522 0.0
N1529 N 0.24324 0.70123 0.43699 0.0
C1530 C 0.25151 0.66194 0.44322 0.0
C1531 C 0.234 0.68448 0.47283 0.0
C1532 C 0.25169 0.68114 0.42922 0.0
C1533 C 0.23447 0.70328 0.4583 0.0
C1534 C 0.28588 0.59149 0.47974 0.0
C1535 C 0.30096 0.59755 0.46237 0.0
C1536 C 0.27967 0.56871 0.48246 0.0
C1537 C 0.30944 0.5807 0.44791 0.0
C1538 C 0.2885 0.55237 0.46763 0.0
N1539 N 0.30307 0.55865 0.4508 0.0
C1540 C 0.31772 0.64779 0.49245 0.0
C1541 C 0.29675 0.67894 0.47782 0.0
C1542 C 0.33814 0.65771 0.4855 0.0
N1543 N 0.2975 0.65815 0.48799 0.0
C1544 C 0.31675 0.68932 0.47025 0.0
C1545 C 0.33765 0.67842 0.47374 0.0
H1546 H 0.31793 0.63147 0.50094 0.0
H1547 H 0.28075 0.68744 0.47523 0.0
C1548 C 0.21557 0.58319 0.45741 0.0
N1549 N 0.23558 0.59478 0.45657 0.0
C1550 C 0.20702 0.57257 0.43789 0.0
C1551 C 0.24015 0.58541 0.41721 0.0
C1552 C 0.24787 0.59605 0.43699 0.0
C1553 C 0.21931 0.57384 0.41746 0.0
H1554 H 0.20593 0.58273 0.47307 0.0
H1555 H 0.2634 0.6058 0.43653 0.0
O1556 O 0.26032 0.64356 0.52898 0.0
O1557 O 0.22671 0.60796 0.51062 0.0
O1558 O 0.24203 0.64501 0.47908 0.0
O1559 O 0.27726 0.60775 0.494 0.0
H1560 H 0.29933 0.63402 0.54919 0.0
H1561 H 0.25699 0.68812 0.52383 0.0
H1562 H 0.32832 0.66274 0.56019 0.0
H1563 H 0.28672 0.71589 0.53526 0.0
H1564 H 0.21312 0.5364 0.53649 0.0
H1565 H 0.2019 0.61902 0.54657 0.0
H1566 H 0.22981 0.5631 0.50838 0.0
H1567 H 0.18548 0.59135 0.57387 0.0
H1568 H 0.18911 0.68978 0.56615 0.0
H1569 H 0.15222 0.66908 0.50615 0.0
H1570 H 0.30674 0.55248 0.56004 0.0
H1571 H 0.25561 0.58492 0.60193 0.0
H1572 H 0.2583 0.646 0.43706 0.0
H1573 H 0.22715 0.68618 0.48981 0.0
H1574 H 0.25856 0.68006 0.41218 0.0
H1575 H 0.22789 0.7195 0.46399 0.0
H1576 H 0.30577 0.61512 0.4598 0.0
H1577 H 0.26811 0.56371 0.49586 0.0
H1578 H 0.32101 0.58518 0.43431 0.0
H1579 H 0.28376 0.53469 0.4695 0.0
H1580 H 0.35408 0.64898 0.48854 0.0
H1581 H 0.31591 0.70548 0.46144 0.0
H1582 H 0.19081 0.56386 0.43858 0.0
H1583 H 0.24996 0.5868 0.40167 0.0
Li1584 Li 0.3892 0.52245 0.75948 0.0
Li1585 Li 0.35849 0.49734 0.77327 0.0
Li1586 Li 0.38804 0.48354 0.74588 0.0
Li1587 Li 0.35843 0.50893 0.73228 0.0
C1588 C 0.40741 0.49793 0.7944 0.0
N1589 N 0.4388 0.50694 0.82818 0.0
C1590 C 0.40052 0.49895 0.81714 0.0
C1591 C 0.43028 0.50127 0.78886 0.0
C1592 C 0.41665 0.50357 0.83397 0.0
C1593 C 0.44588 0.50589 0.80618 0.0
C1594 C 0.3396 0.54405 0.76515 0.0
C1595 C 0.30198 0.5597 0.76003 0.0
N1596 N 0.30695 0.57643 0.77522 0.0
C1597 C 0.34439 0.56156 0.78053 0.0
C1598 C 0.31826 0.54325 0.75466 0.0
C1599 C 0.32764 0.57769 0.78548 0.0
C1600 C 0.41836 0.5608 0.75289 0.0
N1601 N 0.40696 0.54819 0.7686 0.0
C1602 C 0.41773 0.57394 0.7982 0.0
C1603 C 0.40653 0.55435 0.7909 0.0
C1604 C 0.42922 0.58749 0.78233 0.0
C1605 C 0.42966 0.58073 0.75943 0.0
H1606 H 0.41819 0.55569 0.73521 0.0
H1607 H 0.39685 0.54445 0.80296 0.0
C1608 C 0.33812 0.4678 0.80547 0.0
N1609 N 0.34098 0.49004 0.79972 0.0
C1610 C 0.32686 0.46196 0.82562 0.0
C1611 C 0.32148 0.502 0.83336 0.0
C1612 C 0.33294 0.50706 0.8132 0.0
C1613 C 0.31856 0.47924 0.83981 0.0
H1614 H 0.34493 0.45462 0.79457 0.0
H1615 H 0.33585 0.52456 0.8086 0.0
C1616 C 0.40707 0.50458 0.71156 0.0
N1617 N 0.43773 0.48813 0.67996 0.0
C1618 C 0.39937 0.49623 0.69067 0.0
C1619 C 0.43036 0.50486 0.71627 0.0
C1620 C 0.41514 0.48792 0.67494 0.0
C1621 C 0.44559 0.49638 0.70011 0.0
C1622 C 0.33336 0.46866 0.74288 0.0
C1623 C 0.33062 0.44786 0.73167 0.0
C1624 C 0.31433 0.4798 0.75174 0.0
C1625 C 0.30881 0.4388 0.72912 0.0
C1626 C 0.2928 0.47017 0.74889 0.0
N1627 N 0.2905 0.45005 0.73769 0.0
C1628 C 0.42425 0.45041 0.7468 0.0
C1629 C 0.39668 0.44649 0.71762 0.0
C1630 C 0.43594 0.43126 0.7388 0.0
N1631 N 0.40503 0.4576 0.73611 0.0
C1632 C 0.40777 0.42733 0.70908 0.0
C1633 C 0.42759 0.41953 0.71976 0.0
H1634 H 0.43049 0.45947 0.76152 0.0
H1635 H 0.38142 0.45266 0.70941 0.0
C1636 C 0.33981 0.53931 0.69976 0.0
N1637 N 0.3409 0.51706 0.70607 0.0
C1638 C 0.32844 0.54561 0.67981 0.0
C1639 C 0.3195 0.506 0.67329 0.0
C1640 C 0.33115 0.50046 0.69322 0.0
C1641 C 0.31824 0.52877 0.66635 0.0
H1642 H 0.34805 0.55212 0.71009 0.0
H1643 H 0.33286 0.48286 0.6981 0.0
O1644 O 0.39181 0.49361 0.77768 0.0
O1645 O 0.35595 0.52828 0.75988 0.0
O1646 O 0.39185 0.51213 0.72744 0.0
O1647 O 0.35464 0.47773 0.74552 0.0
H1648 H 0.38292 0.4963 0.82176 0.0
H1649 H 0.43588 0.50052 0.77137 0.0
H1650 H 0.41156 0.5045 0.85163 0.0
H1651 H 0.46361 0.50866 0.80212 0.0
H1652 H 0.2854 0.55922 0.75205 0.0
H1653 H 0.36076 0.56262 0.78874 0.0
H1654 H 0.31428 0.5302 0.74234 0.0
H1655 H 0.33111 0.59122 0.79746 0.0
H1656 H 0.41692 0.57884 0.81595 0.0
H1657 H 0.43827 0.59097 0.74677 0.0
H1658 H 0.32487 0.44423 0.83021 0.0
H1659 H 0.31532 0.51569 0.84405 0.0
H1660 H 0.38139 0.49589 0.68676 0.0
H1661 H 0.43659 0.51146 0.73227 0.0
H1662 H 0.40942 0.48123 0.65878 0.0
H1663 H 0.46366 0.49634 0.70358 0.0
H1664 H 0.34518 0.43884 0.72493 0.0
H1665 H 0.31616 0.49553 0.761 0.0
H1666 H 0.30644 0.42278 0.72036 0.0
H1667 H 0.27793 0.47865 0.75566 0.0
H1668 H 0.45125 0.4256 0.74734 0.0
H1669 H 0.40098 0.41866 0.69431 0.0
H1670 H 0.3278 0.56332 0.67481 0.0
H1671 H 0.31192 0.49262 0.66313 0.0
Li1672 Li 0.6392 0.0103 0.77145 0.0
Li1673 Li 0.60985 0.98409 0.76007 0.0
Li1674 Li 0.63812 0.99398 0.73329 0.0
Li1675 Li 0.60848 0.02203 0.74317 0.0
C1676 C 0.64843 0.966 0.78167 0.0
N1677 N 0.65875 0.9417 0.82057 0.0
C1678 C 0.63627 0.9698 0.80174 0.0
C1679 C 0.66586 0.94983 0.78139 0.0
C1680 C 0.64172 0.95735 0.82122 0.0
C1681 C 0.67082 0.93772 0.80123 0.0
C1682 C 0.5855 0.0161 0.78726 0.0
C1683 C 0.54512 0.0235 0.78729 0.0
N1684 N 0.54484 0.02138 0.81032 0.0
C1685 C 0.58482 0.01413 0.81096 0.0
C1686 C 0.56549 0.02092 0.77533 0.0
C1687 C 0.5641 0.01679 0.82229 0.0
C1688 C 0.64559 0.03527 0.81124 0.0
N1689 N 0.65667 0.02145 0.79637 0.0
C1690 C 0.69059 0.02339 0.81879 0.0
C1691 C 0.67877 0.01542 0.79969 0.0
C1692 C 0.67934 0.03732 0.83462 0.0
C1693 C 0.65658 0.04326 0.83068 0.0
H1694 H 0.62813 0.04 0.80805 0.0
H1695 H 0.68714 0.00434 0.78762 0.0
C1696 C 0.60233 0.93743 0.76667 0.0
N1697 N 0.59243 0.95804 0.77049 0.0
C1698 C 0.59218 0.91749 0.77463 0.0
C1699 C 0.56136 0.94007 0.78976 0.0
C1700 C 0.57207 0.95959 0.78143 0.0
C1701 C 0.57164 0.91882 0.78658 0.0
H1702 H 0.61832 0.93649 0.75764 0.0
H1703 H 0.56408 0.97583 0.78395 0.0
C1704 C 0.65796 0.03313 0.72653 0.0
N1705 N 0.68981 0.0442 0.69384 0.0
C1706 C 0.65127 0.04448 0.70675 0.0
C1707 C 0.68084 0.02757 0.72981 0.0
C1708 C 0.66765 0.04991 0.6904 0.0
C1709 C 0.69668 0.03326 0.71303 0.0
C1710 C 0.59143 0.97507 0.72086 0.0
C1711 C 0.60095 0.95493 0.71253 0.0
C1712 C 0.56784 0.97687 0.72317 0.0
C1713 C 0.58668 0.9368 0.70686 0.0
C1714 C 0.55415 0.95834 0.71735 0.0
N1715 N 0.56378 0.93885 0.7094 0.0
C1716 C 0.67394 0.97 0.71057 0.0
C1717 C 0.64816 0.99 0.68682 0.0
C1718 C 0.68549 0.96158 0.69153 0.0
N1719 N 0.65556 0.98378 0.70784 0.0
C1720 C 0.65929 0.98214 0.66737 0.0
C1721 C 0.678 0.96757 0.66968 0.0
H1722 H 0.67938 0.96528 0.72749 0.0
H1723 H 0.63335 1.00081 0.6852 0.0
C1724 C 0.59619 0.06801 0.74229 0.0
N1725 N 0.59212 0.04763 0.73215 0.0
C1726 C 0.58607 0.08779 0.73389 0.0
C1727 C 0.56738 0.06514 0.70504 0.0
C1728 C 0.57797 0.04578 0.71394 0.0
C1729 C 0.57165 0.08644 0.71494 0.0
H1730 H 0.60769 0.06891 0.75663 0.0
H1731 H 0.57525 0.02935 0.70611 0.0
O1732 O 0.64345 0.97798 0.76232 0.0
O1733 O 0.60572 0.01391 0.77589 0.0
O1734 O 0.6421 0.02696 0.74236 0.0
O1735 O 0.60518 0.99271 0.72723 0.0
H1736 H 0.62272 0.98214 0.80226 0.0
H1737 H 0.67545 0.94666 0.766 0.0
H1738 H 0.6324 0.96012 0.83684 0.0
H1739 H 0.68426 0.92515 0.80125 0.0
H1740 H 0.52951 0.02712 0.77824 0.0
H1741 H 0.60011 0.01059 0.82057 0.0
H1742 H 0.56556 0.02236 0.75704 0.0
H1743 H 0.56333 0.01524 0.84061 0.0
H1744 H 0.7082 0.0186 0.82132 0.0
H1745 H 0.64747 0.05408 0.8425 0.0
H1746 H 0.60046 0.90126 0.77186 0.0
H1747 H 0.5454 0.94154 0.79884 0.0
H1748 H 0.6336 0.04881 0.70394 0.0
H1749 H 0.68622 0.01865 0.74499 0.0
H1750 H 0.66272 0.05858 0.67494 0.0
H1751 H 0.71442 0.02889 0.71523 0.0
H1752 H 0.61919 0.95317 0.7108 0.0
H1753 H 0.56019 0.99233 0.72957 0.0
H1754 H 0.59383 0.92105 0.70055 0.0
H1755 H 0.53588 0.95943 0.7192 0.0
H1756 H 0.69986 0.95026 0.69377 0.0
H1757 H 0.65308 0.98693 0.6507 0.0
H1758 H 0.58973 0.10402 0.74181 0.0
H1759 H 0.55638 0.06363 0.69035 0.0
Li1760 Li 0.75933 0.61163 0.98581 0.0
Li1761 Li 0.7699 0.64183 0.01217 0.0
Li1762 Li 0.74383 0.61131 0.02542 0.0
Li1763 Li 0.73073 0.64126 0.99911 0.0
C1764 C 0.78538 0.58743 0.01767 0.0
N1765 N 0.80374 0.54452 0.02318 0.0
C1766 C 0.80858 0.58485 0.02218 0.0
C1767 C 0.7715 0.56821 0.01616 0.0
C1768 C 0.81755 0.563 0.02484 0.0
C1769 C 0.7811 0.54666 0.01896 0.0
C1770 C 0.77329 0.66124 0.97241 0.0
C1771 C 0.78404 0.70055 0.96798 0.0
N1772 N 0.80367 0.69389 0.95769 0.0
C1773 C 0.79345 0.65476 0.96161 0.0
C1774 C 0.76842 0.6843 0.97548 0.0
C1775 C 0.80863 0.67154 0.95435 0.0
C1776 C 0.75509 0.59219 0.94205 0.0
N1777 N 0.76945 0.59466 0.96004 0.0
C1778 C 0.79967 0.57703 0.93927 0.0
C1779 C 0.79136 0.58729 0.95903 0.0
C1780 C 0.78534 0.57464 0.92036 0.0
C1781 C 0.76273 0.58211 0.9219 0.0
H1782 H 0.73789 0.59862 0.94318 0.0
H1783 H 0.80266 0.5901 0.97323 0.0
C1784 C 0.79344 0.67788 0.0352 0.0
N1785 N 0.79555 0.65965 0.02109 0.0
C1786 C 0.81281 0.68928 0.04299 0.0
C1787 C 0.83608 0.66317 0.02132 0.0
C1788 C 0.8163 0.65228 0.01397 0.0
C1789 C 0.83439 0.68169 0.03622 0.0
H1790 H 0.7768 0.68319 0.04089 0.0
H1791 H 0.81747 0.63761 0.00292 0.0
C1792 C 0.71039 0.59199 0.99362 0.0
N1793 N 0.67586 0.56064 0.98765 0.0
C1794 C 0.6881 0.5974 0.99987 0.0
C1795 C 0.71504 0.57072 0.98404 0.0
C1796 C 0.6709 0.5813 0.99681 0.0
C1797 C 0.69738 0.55507 0.98125 0.0
C1798 C 0.72817 0.65966 0.04173 0.0
C1799 C 0.71379 0.65226 0.05916 0.0
C1800 C 0.72814 0.68257 0.03538 0.0
C1801 C 0.69943 0.66792 0.06982 0.0
C1802 C 0.7135 0.69768 0.04643 0.0
N1803 N 0.69957 0.69011 0.06327 0.0
C1804 C 0.75281 0.59103 0.06734 0.0
C1805 C 0.71463 0.58563 0.05554 0.0
C1806 C 0.74836 0.58037 0.08807 0.0
N1807 N 0.73603 0.59355 0.05161 0.0
C1808 C 0.70939 0.57492 0.07615 0.0
C1809 C 0.72637 0.57247 0.0927 0.0
H1810 H 0.76955 0.59789 0.064 0.0
H1811 H 0.70142 0.58829 0.04312 0.0
C1812 C 0.70468 0.66599 0.96743 0.0
N1813 N 0.7046 0.65817 0.98921 0.0
C1814 C 0.68539 0.67659 0.95839 0.0
C1815 C 0.66647 0.67145 0.99453 0.0
C1816 C 0.68602 0.66076 0.00279 0.0
C1817 C 0.66595 0.67917 0.97198 0.0
H1818 H 0.71954 0.66347 0.95689 0.0
H1819 H 0.68604 0.65393 0.01983 0.0
O1820 O 0.77638 0.60872 0.01495 0.0
O1821 O 0.75851 0.64506 0.98019 0.0
O1822 O 0.72739 0.60772 0.99603 0.0
O1823 O 0.74229 0.64455 0.03106 0.0
H1824 H 0.81955 0.59957 0.02354 0.0
H1825 H 0.75349 0.56993 0.01313 0.0
H1826 H 0.83549 0.56075 0.02825 0.0
H1827 H 0.77053 0.53164 0.01784 0.0
H1828 H 0.78056 0.71847 0.97035 0.0
H1829 H 0.79746 0.63698 0.95911 0.0
H1830 H 0.75277 0.68957 0.98359 0.0
H1831 H 0.82439 0.66678 0.94612 0.0
H1832 H 0.81727 0.57163 0.93848 0.0
H1833 H 0.75135 0.58066 0.90749 0.0
H1834 H 0.81104 0.70348 0.05461 0.0
H1835 H 0.85253 0.65688 0.01591 0.0
H1836 H 0.68415 0.61373 0.00729 0.0
H1837 H 0.7321 0.56632 0.9787 0.0
H1838 H 0.6536 0.58523 1.00173 0.0
H1839 H 0.70077 0.53854 0.97392 0.0
H1840 H 0.71369 0.63463 0.06439 0.0
H1841 H 0.73917 0.68857 0.02195 0.0
H1842 H 0.68817 0.66242 0.08329 0.0
H1843 H 0.71321 0.71544 0.0416 0.0
H1844 H 0.76175 0.57886 0.10064 0.0
H1845 H 0.6922 0.56916 0.07939 0.0
H1846 H 0.68546 0.6823 0.94088 0.0
H1847 H 0.65166 0.67309 0.00538 0.0
Li1848 Li 0.89203 0.52254 0.74358 0.0
Li1849 Li 0.86161 0.51212 0.77219 0.0
Li1850 Li 0.89126 0.48387 0.76015 0.0
Li1851 Li 0.86221 0.49598 0.73418 0.0
C1852 C 0.91748 0.51485 0.78412 0.0
N1853 N 0.96165 0.5173 0.79993 0.0
C1854 C 0.92171 0.52002 0.80692 0.0
C1855 C 0.93569 0.51086 0.76935 0.0
C1856 C 0.94417 0.5212 0.81459 0.0
C1857 C 0.9579 0.5122 0.77767 0.0
C1858 C 0.84251 0.53449 0.72726 0.0
C1859 C 0.80343 0.53445 0.71479 0.0
N1860 N 0.80998 0.54371 0.69462 0.0
C1861 C 0.84884 0.54416 0.70649 0.0
C1862 C 0.81962 0.52972 0.73153 0.0
C1863 C 0.83214 0.54864 0.69018 0.0
C1864 C 0.91577 0.54694 0.71017 0.0
N1865 N 0.91101 0.54647 0.73271 0.0
C1866 C 0.9329 0.58024 0.73851 0.0
C1867 C 0.91874 0.56301 0.74682 0.0
C1868 C 0.94018 0.58024 0.71551 0.0
C1869 C 0.92962 0.564 0.70114 0.0
H1870 H 0.90839 0.53424 0.69907 0.0
H1871 H 0.91375 0.56294 0.76454 0.0
C1872 C 0.84944 0.51247 0.81824 0.0
N1873 N 0.8451 0.52265 0.79793 0.0
C1874 C 0.83888 0.52029 0.83805 0.0
C1875 C 0.81924 0.54862 0.81558 0.0
C1876 C 0.83029 0.54034 0.7962 0.0
C1877 C 0.82373 0.53868 0.83681 0.0
H1878 H 0.86141 0.49852 0.81906 0.0
H1879 H 0.82736 0.54825 0.77986 0.0
C1880 C 0.90192 0.47525 0.71471 0.0
N1881 N 0.91554 0.43897 0.68812 0.0
C1882 C 0.8899 0.45477 0.71538 0.0
C1883 C 0.92086 0.47731 0.70051 0.0
C1884 C 0.89703 0.43663 0.7018 0.0
C1885 C 0.9275 0.45876 0.68721 0.0
C1886 C 0.84 0.4659 0.76615 0.0
C1887 C 0.84242 0.44249 0.76269 0.0
C1888 C 0.81895 0.47466 0.77294 0.0
C1889 C 0.82357 0.42831 0.76549 0.0
C1890 C 0.80052 0.45991 0.77559 0.0
N1891 N 0.80318 0.43724 0.7718 0.0
C1892 C 0.89948 0.44723 0.7892 0.0
C1893 C 0.92811 0.45159 0.7611 0.0
C1894 C 0.91003 0.42763 0.79749 0.0
N1895 N 0.90846 0.4586 0.77117 0.0
C1896 C 0.93915 0.43196 0.76876 0.0
C1897 C 0.92994 0.41973 0.78705 0.0
H1898 H 0.88388 0.45323 0.79691 0.0
H1899 H 0.93505 0.46103 0.74694 0.0
C1900 C 0.854 0.49009 0.68762 0.0
N1901 N 0.84443 0.48604 0.70831 0.0
C1902 C 0.84358 0.48231 0.66776 0.0
C1903 C 0.813 0.46713 0.69062 0.0
C1904 C 0.82406 0.47516 0.71009 0.0
C1905 C 0.82302 0.4704 0.66924 0.0
H1906 H 0.86999 0.49912 0.68657 0.0
H1907 H 0.81641 0.47249 0.72651 0.0
O1908 O 0.89559 0.51343 0.77642 0.0
O1909 O 0.85871 0.52915 0.74307 0.0
O1910 O 0.89535 0.49324 0.72792 0.0
O1911 O 0.85832 0.48002 0.76377 0.0
H1912 H 0.90776 0.52306 0.81857 0.0
H1913 H 0.93272 0.50673 0.75166 0.0
H1914 H 0.94771 0.5252 0.8322 0.0
H1915 H 0.97215 0.50916 0.76643 0.0
H1916 H 0.78568 0.53067 0.71779 0.0
H1917 H 0.86648 0.54791 0.70289 0.0
H1918 H 0.81444 0.52216 0.74747 0.0
H1919 H 0.83681 0.55596 0.67396 0.0
H1920 H 0.93744 0.59364 0.75021 0.0
H1921 H 0.93104 0.56432 0.68291 0.0
H1922 H 0.84273 0.51234 0.85422 0.0
H1923 H 0.80768 0.5629 0.81414 0.0
H1924 H 0.87515 0.45299 0.72617 0.0
H1925 H 0.93038 0.49306 0.69985 0.0
H1926 H 0.88785 0.42069 0.70213 0.0
H1927 H 0.94216 0.46009 0.67616 0.0
H1928 H 0.8587 0.43529 0.75802 0.0
H1929 H 0.81682 0.49266 0.77604 0.0
H1930 H 0.82518 0.41018 0.76274 0.0
H1931 H 0.7841 0.46648 0.78068 0.0
H1932 H 0.90257 0.41851 0.81166 0.0
H1933 H 0.95456 0.42624 0.76043 0.0
H1934 H 0.85166 0.48518 0.65145 0.0
H1935 H 0.79703 0.45809 0.69224 0.0
Li1936 Li 0.77493 0.36334 0.49366 0.0
Li1937 Li 0.76366 0.39283 0.52018 0.0
Li1938 Li 0.73542 0.36337 0.51039 0.0
Li1939 Li 0.74655 0.39282 0.48341 0.0
C1940 C 0.78054 0.35725 0.54364 0.0
N1941 N 0.81062 0.35442 0.57971 0.0
C1942 C 0.804 0.35829 0.53982 0.0
C1943 C 0.77242 0.35491 0.56587 0.0
C1944 C 0.81892 0.35679 0.55825 0.0
C1945 C 0.78789 0.35345 0.58386 0.0
C1946 C 0.79555 0.41268 0.49377 0.0
C1947 C 0.80629 0.45155 0.50136 0.0
N1948 N 0.82856 0.44528 0.50133 0.0
C1949 C 0.81856 0.40664 0.49372 0.0
C1950 C 0.78936 0.43533 0.4975 0.0
C1951 C 0.83498 0.42337 0.4976 0.0
C1952 C 0.80963 0.35321 0.46273 0.0
N1953 N 0.7989 0.34506 0.48152 0.0
C1954 C 0.8244 0.31339 0.48325 0.0
C1955 C 0.80555 0.3253 0.49158 0.0
C1956 C 0.83626 0.32196 0.4644 0.0
C1957 C 0.82854 0.34189 0.45387 0.0
H1958 H 0.80384 0.36887 0.455 0.0
H1959 H 0.79659 0.31912 0.50641 0.0
C1960 C 0.75796 0.41914 0.56018 0.0
N1961 N 0.77399 0.41066 0.54578 0.0
C1962 C 0.76442 0.43009 0.58032 0.0
C1963 C 0.80377 0.42375 0.57027 0.0
C1964 C 0.79657 0.41288 0.55044 0.0
C1965 C 0.78758 0.43224 0.58555 0.0
H1966 H 0.74012 0.41681 0.55636 0.0
H1967 H 0.80908 0.40558 0.53921 0.0
C1968 C 0.74281 0.33755 0.47068 0.0
N1969 N 0.73924 0.29317 0.45564 0.0
C1970 C 0.73738 0.33303 0.44799 0.0
C1971 C 0.74644 0.31951 0.48574 0.0
C1972 C 0.73564 0.31047 0.44071 0.0
C1973 C 0.74455 0.29719 0.4778 0.0
C1974 C 0.71489 0.41213 0.50757 0.0
C1975 C 0.69368 0.40493 0.49963 0.0
C1976 C 0.71961 0.43537 0.50909 0.0
C1977 C 0.67765 0.42115 0.49291 0.0
C1978 C 0.70314 0.45106 0.50222 0.0
N1979 N 0.68269 0.44368 0.4943 0.0
C1980 C 0.70637 0.34314 0.54314 0.0
C1981 C 0.69418 0.33861 0.50497 0.0
C1982 C 0.68665 0.33256 0.55111 0.0
N1983 N 0.70975 0.346 0.52044 0.0
C1984 C 0.67414 0.32804 0.5122 0.0
C1985 C 0.67019 0.32513 0.53554 0.0
H1986 H 0.71863 0.34973 0.55508 0.0
H1987 H 0.69695 0.34161 0.48704 0.0
C1988 C 0.74506 0.42848 0.44996 0.0
N1989 N 0.73475 0.40943 0.45809 0.0
C1990 C 0.73652 0.43936 0.43059 0.0
C1991 C 0.70693 0.41087 0.42846 0.0
C1992 C 0.71608 0.4005 0.44776 0.0
C1993 C 0.71731 0.43042 0.41966 0.0
H1994 H 0.76009 0.43502 0.45821 0.0
H1995 H 0.70843 0.38515 0.45442 0.0
O1996 O 0.76565 0.35886 0.52578 0.0
O1997 O 0.77922 0.39653 0.48999 0.0
O1998 O 0.74469 0.35956 0.47796 0.0
O1999 O 0.73104 0.3965 0.51358 0.0
H2000 H 0.81067 0.36081 0.52289 0.0
H2001 H 0.7544 0.35436 0.56929 0.0
H2002 H 0.83709 0.35771 0.55551 0.0
H2003 H 0.78181 0.35166 0.60113 0.0
H2004 H 0.80171 0.46912 0.50439 0.0
H2005 H 0.82371 0.3892 0.491 0.0
H2006 H 0.77168 0.44031 0.4976 0.0
H2007 H 0.85284 0.41891 0.49772 0.0
H2008 H 0.82995 0.29796 0.49164 0.0
H2009 H 0.83732 0.34883 0.43923 0.0
H2010 H 0.75154 0.43631 0.59193 0.0
H2011 H 0.82177 0.42496 0.57399 0.0
H2012 H 0.73455 0.34684 0.43613 0.0
H2013 H 0.75066 0.32267 0.50336 0.0
H2014 H 0.73145 0.30672 0.42319 0.0
H2015 H 0.74732 0.28306 0.48926 0.0
H2016 H 0.68974 0.38701 0.49835 0.0
H2017 H 0.73581 0.44123 0.51552 0.0
H2018 H 0.66124 0.41581 0.48653 0.0
H2019 H 0.70661 0.46911 0.50318 0.0
H2020 H 0.68394 0.33076 0.56925 0.0
H2021 H 0.66161 0.32269 0.4998 0.0
H2022 H 0.74491 0.4544 0.42405 0.0
H2023 H 0.69213 0.40356 0.42028 0.0
Li2024 Li 0.64313 0.50962 0.23392 0.0
Li2025 Li 0.61152 0.52168 0.2584 0.0
Li2026 Li 0.64082 0.4935 0.27194 0.0
Li2027 Li 0.61197 0.48181 0.24426 0.0
C2028 C 0.66047 0.54272 0.26031 0.0
N2029 N 0.69229 0.57643 0.25255 0.0
C2030 C 0.65354 0.5653 0.25755 0.0
C2031 C 0.68361 0.53736 0.2595 0.0
C2032 C 0.66987 0.58208 0.25356 0.0
C2033 C 0.69943 0.55462 0.25543 0.0
C2034 C 0.59246 0.51898 0.21373 0.0
C2035 C 0.55282 0.51866 0.20311 0.0
N2036 N 0.55685 0.53559 0.18788 0.0
C2037 C 0.59627 0.53613 0.19771 0.0
C2038 C 0.57061 0.50996 0.21624 0.0
C2039 C 0.57803 0.5444 0.18492 0.0
C2040 C 0.67654 0.50467 0.19924 0.0
N2041 N 0.66281 0.51974 0.21004 0.0
C2042 C 0.67656 0.54983 0.1865 0.0
C2043 C 0.66207 0.54183 0.2035 0.0
C2044 C 0.69282 0.5353 0.17623 0.0
C2045 C 0.69121 0.51194 0.18195 0.0
H2046 H 0.67587 0.48686 0.2038 0.0
H2047 H 0.65005 0.5533 0.21138 0.0
C2048 C 0.58845 0.54865 0.29031 0.0
N2049 N 0.59368 0.54723 0.26782 0.0
C2050 C 0.57761 0.56795 0.29894 0.0
C2051 C 0.57758 0.58402 0.26108 0.0
C2052 C 0.58837 0.56436 0.25316 0.0
C2053 C 0.57235 0.58598 0.28426 0.0
H2054 H 0.59329 0.53501 0.30168 0.0
H2055 H 0.59338 0.56324 0.23555 0.0
C2056 C 0.66107 0.46069 0.24826 0.0
N2057 N 0.69237 0.42791 0.26078 0.0
C2058 C 0.65407 0.43827 0.25198 0.0
C2059 C 0.68404 0.46634 0.25053 0.0
C2060 C 0.67014 0.42197 0.25838 0.0
C2061 C 0.69959 0.44956 0.25699 0.0
C2062 C 0.58705 0.48616 0.28535 0.0
C2063 C 0.5868 0.46998 0.30277 0.0
C2064 C 0.5666 0.49585 0.27806 0.0
C2065 C 0.56602 0.46335 0.31221 0.0
C2066 C 0.54618 0.4888 0.28794 0.0
N2067 N 0.54631 0.4728 0.30464 0.0
C2068 C 0.67161 0.49697 0.30932 0.0
C2069 C 0.65271 0.46153 0.30561 0.0
C2070 C 0.68257 0.48948 0.32907 0.0
N2071 N 0.65702 0.48297 0.29807 0.0
C2072 C 0.66335 0.45332 0.32519 0.0
C2073 C 0.67833 0.46745 0.33716 0.0
H2074 H 0.67447 0.51406 0.30318 0.0
H2075 H 0.64078 0.45087 0.29655 0.0
C2076 C 0.59032 0.45455 0.21107 0.0
N2077 N 0.59476 0.45633 0.23371 0.0
C2078 C 0.57961 0.43517 0.20243 0.0
C2079 C 0.57823 0.41977 0.24054 0.0
C2080 C 0.58891 0.43947 0.24846 0.0
C2081 C 0.5737 0.41747 0.21726 0.0
H2082 H 0.59559 0.46797 0.19965 0.0
H2083 H 0.59332 0.44089 0.26622 0.0
O2084 O 0.64468 0.52598 0.26386 0.0
O2085 O 0.61019 0.51059 0.22628 0.0
O2086 O 0.64552 0.47699 0.24242 0.0
O2087 O 0.60728 0.49287 0.27597 0.0
H2088 H 0.63574 0.56982 0.25831 0.0
H2089 H 0.68931 0.52006 0.26191 0.0
H2090 H 0.66473 0.5996 0.25124 0.0
H2091 H 0.71738 0.55067 0.25459 0.0
H2092 H 0.53582 0.51186 0.20496 0.0
H2093 H 0.6131 0.5431 0.19527 0.0
H2094 H 0.56742 0.49618 0.22797 0.0
H2095 H 0.58072 0.5578 0.1726 0.0
H2096 H 0.67452 0.56736 0.18133 0.0
H2097 H 0.70035 0.49877 0.1732 0.0
H2098 H 0.57395 0.56911 0.31696 0.0
H2099 H 0.57397 0.59782 0.24942 0.0
H2100 H 0.63642 0.43354 0.25014 0.0
H2101 H 0.68981 0.48349 0.24735 0.0
H2102 H 0.66493 0.4046 0.26148 0.0
H2103 H 0.71739 0.45375 0.25895 0.0
H2104 H 0.60246 0.46252 0.30887 0.0
H2105 H 0.56649 0.5089 0.26515 0.0
H2106 H 0.56558 0.45071 0.32558 0.0
H2107 H 0.53024 0.49613 0.28241 0.0
H2108 H 0.69402 0.50077 0.33807 0.0
H2109 H 0.65971 0.43626 0.33112 0.0
H2110 H 0.57646 0.43373 0.18433 0.0
H2111 H 0.57406 0.40624 0.25233 0.0
C2112 C 0.05473 0.37868 0.27887 0.0
C2113 C 0.06298 0.39569 0.29389 0.0
C2114 C 0.05085 0.37287 0.3266 0.0
C2115 C 0.04517 0.35475 0.3117 0.0
N2116 N 0.04433 0.33908 0.27378 0.0
N2117 N 0.07231 0.40759 0.33208 0.0
C2118 C 0.04773 0.35731 0.28782 0.0
C2119 C 0.06191 0.39245 0.3178 0.0
N2120 N 0.05307 0.38319 0.25611 0.0
N2121 N 0.04515 0.37161 0.34912 0.0
H2122 H 0.08077 0.42208 0.32635 0.0
H2123 H 0.0743 0.40475 0.34946 0.0
H2124 H 0.03683 0.35762 0.3562 0.0
H2125 H 0.0467 0.38525 0.36033 0.0
H2126 H 0.04503 0.37239 0.2446 0.0
H2127 H 0.05798 0.39868 0.24899 0.0
H2128 H 0.04836 0.33918 0.25654 0.0
H2129 H 0.03914 0.32318 0.27971 0.0
C2130 C 0.8856 0.78144 0.54481 0.0
C2131 C 0.89515 0.7908 0.56491 0.0
C2132 C 0.86543 0.82012 0.56588 0.0
C2133 C 0.8551 0.80995 0.54656 0.0
N2134 N 0.85333 0.77966 0.51902 0.0
N2135 N 0.89292 0.8169 0.5965 0.0
C2136 C 0.86463 0.79022 0.5364 0.0
C2137 C 0.8847 0.80955 0.576 0.0
N2138 N 0.89691 0.76452 0.53352 0.0
N2139 N 0.85715 0.84024 0.57415 0.0
H2140 H 0.90738 0.81005 0.60417 0.0
H2141 H 0.88458 0.82867 0.60677 0.0
H2142 H 0.84268 0.84818 0.56765 0.0
H2143 H 0.86543 0.84997 0.58642 0.0
H2144 H 0.89229 0.75857 0.51751 0.0
H2145 H 0.91197 0.75731 0.53955 0.0
H2146 H 0.85796 0.76391 0.5124 0.0
H2147 H 0.83824 0.78596 0.51211 0.0
C2148 C 0.46357 0.61161 0.79127 0.0
C2149 C 0.43958 0.60936 0.78976 0.0
C2150 C 0.43469 0.64653 0.80806 0.0
C2151 C 0.45866 0.64943 0.8083 0.0
N2152 N 0.49575 0.637 0.796 0.0
N2153 N 0.40245 0.62667 0.79182 0.0
C2154 C 0.47307 0.63264 0.79861 0.0
C2155 C 0.42518 0.62748 0.79663 0.0
N2156 N 0.47725 0.59338 0.78663 0.0
N2157 N 0.42102 0.66135 0.81967 0.0
H2158 H 0.39489 0.61307 0.78327 0.0
H2159 H 0.39149 0.64038 0.79431 0.0
H2160 H 0.42725 0.67542 0.82852 0.0
H2161 H 0.40371 0.65862 0.82224 0.0
H2162 H 0.49466 0.59319 0.78989 0.0
H2163 H 0.47095 0.57772 0.78117 0.0
H2164 H 0.50673 0.62641 0.78699 0.0
H2165 H 0.50323 0.65228 0.80106 0.0
C2166 C 0.62434 0.19799 0.07559 0.0
C2167 C 0.60935 0.21012 0.06106 0.0
C2168 C 0.63609 0.2054 0.02933 0.0
C2169 C 0.64986 0.19129 0.04327 0.0
N2170 N 0.65543 0.1711 0.07858 0.0
N2171 N 0.59924 0.22308 0.0235 0.0
C2172 C 0.64356 0.18678 0.06614 0.0
C2173 C 0.61478 0.21327 0.03775 0.0
N2174 N 0.62055 0.19772 0.09854 0.0
N2175 N 0.64368 0.21172 0.00828 0.0
H2176 H 0.58355 0.2292 0.0291 0.0
H2177 H 0.6011 0.22361 0.0059 0.0
H2178 H 0.65916 0.20621 1.00156 0.0
H2179 H 0.63561 0.22387 0.99823 0.0
H2180 H 0.63218 0.19131 0.11026 0.0
H2181 H 0.60666 0.20575 0.10614 0.0
H2182 H 0.65011 0.16518 0.0944 0.0
H2183 H 0.66963 0.16249 0.07231 0.0
C2184 C 0.06641 0.61245 0.1832 0.0
C2185 C 0.06169 0.60617 0.20604 0.0
C2186 C 0.04075 0.64187 0.21162 0.0
C2187 C 0.04387 0.64719 0.18828 0.0
N2188 N 0.05523 0.63513 0.1507 0.0
N2189 N 0.04067 0.61261 0.24068 0.0
C2190 C 0.05538 0.63174 0.17371 0.0
C2191 C 0.04774 0.62022 0.21988 0.0
N2192 N 0.08217 0.60061 0.17085 0.0
N2193 N 0.03193 0.6578 0.22609 0.0
H2194 H 0.04526 0.59675 0.24718 0.0
H2195 H 0.02861 0.62106 0.25054 0.0
H2196 H 0.02675 0.6739 0.22072 0.0
H2197 H 0.03156 0.6558 0.24369 0.0
H2198 H 0.08808 0.60595 0.15503 0.0
H2199 H 0.09096 0.58659 0.17725 0.0
H2200 H 0.06131 0.62318 0.1391 0.0
H2201 H 0.04701 0.64885 0.14302 0.0
C2202 C 0.61528 0.78361 0.46325 0.0
C2203 C 0.60563 0.79404 0.44374 0.0
C2204 C 0.63505 0.82363 0.44446 0.0
C2205 C 0.64557 0.81236 0.46305 0.0
N2206 N 0.64754 0.78069 0.48896 0.0
N2207 N 0.60724 0.82222 0.41398 0.0
C2208 C 0.63618 0.79207 0.47214 0.0
C2209 C 0.61576 0.8136 0.43385 0.0
N2210 N 0.60419 0.7659 0.47348 0.0
N2211 N 0.64326 0.84419 0.43727 0.0
H2212 H 0.59265 0.81587 0.40612 0.0
H2213 H 0.61534 0.8347 0.4044 0.0
H2214 H 0.65783 0.85172 0.44404 0.0
H2215 H 0.63489 0.85461 0.42567 0.0
H2216 H 0.6089 0.75902 0.48909 0.0
H2217 H 0.58921 0.7589 0.46703 0.0
H2218 H 0.64306 0.76458 0.49472 0.0
H2219 H 0.6625 0.78678 0.4963 0.0
C2220 C 0.45985 0.38064 0.67935 0.0
C2221 C 0.45863 0.35959 0.69114 0.0
C2222 C 0.43707 0.37783 0.7219 0.0
C2223 C 0.43946 0.3991 0.71073 0.0
N2224 N 0.4568 0.42176 0.6813 0.0
N2225 N 0.45002 0.33879 0.72539 0.0
C2226 C 0.45201 0.4008 0.69019 0.0
C2227 C 0.44842 0.35839 0.71298 0.0
N2228 N 0.46759 0.38122 0.65741 0.0
N2229 N 0.42323 0.376 0.7405 0.0
H2230 H 0.45819 0.32422 0.71935 0.0
H2231 H 0.44504 0.33754 0.74234 0.0
H2232 H 0.41479 0.38987 0.74767 0.0
H2233 H 0.4187 0.36052 0.74779 0.0
H2234 H 0.46648 0.39555 0.64707 0.0
H2235 H 0.47347 0.36685 0.64883 0.0
H2236 H 0.46786 0.42428 0.6677 0.0
H2237 H 0.45129 0.43688 0.6888 0.0
C2238 C 0.88337 0.19532 0.92491 0.0
C2239 C 0.89812 0.20852 0.93873 0.0
C2240 C 0.87163 0.20484 0.9708 0.0
C2241 C 0.8581 0.18981 0.95763 0.0
N2242 N 0.8528 0.16774 0.92341 0.0
N2243 N 0.9081 0.2236 0.97553 0.0
C2244 C 0.86441 0.18424 0.93499 0.0
C2245 C 0.89273 0.21272 0.96189 0.0
N2246 N 0.88712 0.19391 0.90199 0.0
N2247 N 0.86403 0.212 0.99158 0.0
H2248 H 0.92363 0.22976 0.96954 0.0
H2249 H 0.90632 0.22499 0.9931 0.0
H2250 H 0.84873 0.20646 0.99867 0.0
H2251 H 0.87188 0.22478 1.001 0.0
H2252 H 0.8756 0.18665 0.89066 0.0
H2253 H 0.90084 0.20178 0.89393 0.0
H2254 H 0.85818 0.1611 0.90789 0.0
H2255 H 0.83878 0.15922 0.93016 0.0
C2256 C 0.29812 0.04059 0.39335 0.0
C2257 C 0.29146 0.06378 0.3941 0.0
C2258 C 0.30102 0.0678 0.35367 0.0
C2259 C 0.31048 0.04559 0.35379 0.0
N2260 N 0.32116 0.01193 0.37477 0.0
N2261 N 0.28986 0.10061 0.37595 0.0
C2262 C 0.30979 0.0322 0.37389 0.0
C2263 C 0.29369 0.07771 0.37448 0.0
N2264 N 0.29287 0.02647 0.41106 0.0
N2265 N 0.29862 0.07924 0.33357 0.0
H2266 H 0.28481 0.10865 0.39093 0.0
H2267 H 0.29365 0.11193 0.36286 0.0
H2268 H 0.30359 0.0724 0.31796 0.0
H2269 H 0.28976 0.09451 0.3321 0.0
H2270 H 0.29521 0.00892 0.4105 0.0
H2271 H 0.28417 0.032 0.42551 0.0
H2272 H 0.32338 0.00269 0.38973 0.0
H2273 H 0.33013 0.00524 0.36101 0.0
C2274 C 0.21215 0.03653 0.63809 0.0
C2275 C 0.18905 0.04071 0.64372 0.0
C2276 C 0.18468 0.06449 0.6097 0.0
C2277 C 0.20744 0.05935 0.60345 0.0
N2278 N 0.24181 0.03784 0.60936 0.0
N2279 N 0.15214 0.05533 0.63339 0.0
C2280 C 0.22088 0.04456 0.61698 0.0
C2281 C 0.17495 0.0537 0.62904 0.0
N2282 N 0.22588 0.0255 0.65328 0.0
N2283 N 0.17265 0.0803 0.59759 0.0
H2284 H 0.14446 0.04796 0.64759 0.0
H2285 H 0.1405 0.0624 0.62209 0.0
H2286 H 0.17902 0.08827 0.58307 0.0
H2287 H 0.15702 0.0868 0.60278 0.0
H2288 H 0.24344 0.02414 0.65144 0.0
H2289 H 0.21994 0.01898 0.66868 0.0
H2290 H 0.25151 0.02525 0.61717 0.0
H2291 H 0.2488 0.0436 0.5941 0.0
C2292 C 0.1926 0.9336 0.85743 0.0
C2293 C 0.19386 0.95722 0.8526 0.0
C2294 C 0.21327 0.96388 0.88897 0.0
C2295 C 0.21309 0.94011 0.89318 0.0
N2296 N 0.20711 0.90192 0.87948 0.0
N2297 N 0.20911 0.99426 0.86133 0.0
C2298 C 0.20414 0.92483 0.87677 0.0
C2299 C 0.20535 0.9722 0.86766 0.0
N2300 N 0.17955 0.91968 0.84412 0.0
N2301 N 0.22017 0.97854 0.90565 0.0
H2302 H 0.20356 1.00089 0.84583 0.0
H2303 H 0.21938 0.00542 0.87048 0.0
H2304 H 0.2263 0.97306 0.92137 0.0
H2305 H 0.21826 0.99611 0.9046 0.0
H2306 H 0.17587 0.90287 0.8483 0.0
H2307 H 0.17079 0.92539 0.82979 0.0
H2308 H 0.20305 0.89001 0.86701 0.0
H2309 H 0.21561 0.89491 0.89339 0.0
C2310 C 0.2872 0.93949 0.12457 0.0
C2311 C 0.29883 0.94355 0.1038 0.0
C2312 C 0.3285 0.96465 0.1242 0.0
C2313 C 0.31626 0.96157 0.1448 0.0
N2314 N 0.28227 0.94965 0.16431 0.0
N2315 N 0.32819 0.96306 0.08292 0.0
C2316 C 0.29506 0.95006 0.14488 0.0
C2317 C 0.31879 0.9571 0.10334 0.0
N2318 N 0.26912 0.92485 0.12501 0.0
N2319 N 0.34979 0.974 0.12469 0.0
H2320 H 0.32168 0.95759 0.06734 0.0
H2321 H 0.34128 0.97487 0.08126 0.0
H2322 H 0.35736 0.98003 0.13956 0.0
H2323 H 0.36067 0.97431 0.11072 0.0
H2324 H 0.26155 0.9191 0.13995 0.0
H2325 H 0.26262 0.91708 0.11045 0.0
H2326 H 0.26562 0.94365 0.16494 0.0
H2327 H 0.28762 0.95704 0.17953 0.0
C2328 C 0.37753 0.32889 0.04554 0.0
C2329 C 0.35934 0.31437 0.03912 0.0
C2330 C 0.38231 0.28082 0.04866 0.0
C2331 C 0.39958 0.2954 0.05713 0.0
N2332 N 0.41351 0.33308 0.06535 0.0
N2333 N 0.34324 0.27684 0.03578 0.0
C2334 C 0.39722 0.3194 0.05591 0.0
C2335 C 0.36145 0.29039 0.04089 0.0
N2336 N 0.37606 0.35174 0.04137 0.0
N2337 N 0.38606 0.25787 0.04779 0.0
H2338 H 0.32798 0.28323 0.02937 0.0
H2339 H 0.34265 0.25947 0.0391 0.0
H2340 H 0.40097 0.25032 0.05377 0.0
H2341 H 0.37524 0.24643 0.03973 0.0
H2342 H 0.38959 0.36298 0.04328 0.0
H2343 H 0.36166 0.35939 0.03436 0.0
H2344 H 0.41162 0.35053 0.06759 0.0
H2345 H 0.4286 0.3268 0.07228 0.0
C2346 C 0.94293 0.85608 0.20913 0.0
C2347 C 0.95856 0.8578 0.19083 0.0
C2348 C 0.95717 0.89947 0.19325 0.0
C2349 C 0.93981 0.89772 0.20993 0.0
N2350 N 0.91411 0.87469 0.2321 0.0
N2351 N 0.97888 0.88073 0.16356 0.0
C2352 C 0.93219 0.8761 0.21752 0.0
C2353 C 0.96532 0.87941 0.18242 0.0
N2354 N 0.93869 0.83533 0.21874 0.0
N2355 N 0.96616 0.9203 0.18814 0.0
H2356 H 0.98551 0.86644 0.15539 0.0
H2357 H 0.98227 0.89585 0.15499 0.0
H2358 H 0.96043 0.93537 0.19559 0.0
H2359 H 0.98047 0.92255 0.17796 0.0
H2360 H 0.92938 0.83316 0.23365 0.0
H2361 H 0.94605 0.82029 0.21283 0.0
H2362 H 0.90605 0.85948 0.23624 0.0
H2363 H 0.906 0.88895 0.23886 0.0
C2364 C 0.13445 0.67933 0.56336 0.0
C2365 C 0.14704 0.6913 0.5466 0.0
C2366 C 0.11865 0.72195 0.54681 0.0
C2367 C 0.10708 0.71081 0.56484 0.0
N2368 N 0.10562 0.68084 0.59281 0.0
N2369 N 0.15315 0.72515 0.52432 0.0
C2370 C 0.11544 0.69002 0.57382 0.0
C2371 C 0.13968 0.71295 0.53883 0.0
N2372 N 0.14026 0.65746 0.56877 0.0
N2373 N 0.10919 0.74079 0.53698 0.0
H2374 H 0.1685 0.71895 0.51792 0.0
H2375 H 0.15004 0.74202 0.51992 0.0
H2376 H 0.094 0.74801 0.54265 0.0
H2377 H 0.11543 0.74829 0.52221 0.0
H2378 H 0.13027 0.64692 0.5789 0.0
H2379 H 0.1542 0.64909 0.56164 0.0
H2380 H 0.11249 0.66717 0.60173 0.0
H2381 H 0.0915 0.688 0.60084 0.0
C2382 C 0.97238 0.63662 0.71313 0.0
C2383 C 0.96959 0.64168 0.68964 0.0
C2384 C 0.95972 0.60188 0.6828 0.0
C2385 C 0.95618 0.59864 0.70641 0.0
N2386 N 0.97623 0.60665 0.74112 0.0
N2387 N 0.95941 0.62871 0.65189 0.0
C2388 C 0.96732 0.61428 0.7211 0.0
C2389 C 0.96297 0.62418 0.67439 0.0
N2390 N 0.97977 0.65303 0.72782 0.0
N2391 N 0.9644 0.58374 0.66916 0.0
H2392 H 0.96102 0.64495 0.64493 0.0
H2393 H 0.95286 0.61655 0.64074 0.0
H2394 H 0.96724 0.56758 0.67598 0.0
H2395 H 0.969 0.58546 0.6521 0.0
H2396 H 0.97953 0.65101 0.74542 0.0
H2397 H 0.98494 0.66913 0.72248 0.0
H2398 H 0.9864 0.61653 0.75174 0.0
H2399 H 0.97596 0.58941 0.7454 0.0
C2400 C 0.13873 0.21459 0.47465 0.0
C2401 C 0.15615 0.20598 0.46031 0.0
C2402 C 0.13301 0.21591 0.42712 0.0
C2403 C 0.11383 0.2186 0.44154 0.0
N2404 N 0.0985 0.22163 0.47954 0.0
N2405 N 0.17399 0.21766 0.42539 0.0
C2406 C 0.1167 0.21834 0.46549 0.0
C2407 C 0.1547 0.21208 0.437 0.0
N2408 N 0.14419 0.22315 0.49549 0.0
N2409 N 0.13056 0.21654 0.40402 0.0
H2410 H 0.18974 0.21859 0.43354 0.0
H2411 H 0.17385 0.22429 0.40895 0.0
H2412 H 0.115 0.21958 0.39605 0.0
H2413 H 0.14373 0.21235 0.3929 0.0
H2414 H 0.13252 0.23148 0.50593 0.0
H2415 H 0.16113 0.22498 0.50055 0.0
H2416 H 0.09951 0.21935 0.4971 0.0
H2417 H 0.08218 0.22509 0.47349 0.0
C2418 C 0.57818 0.37702 0.20428 0.0
C2419 C 0.56381 0.39604 0.20821 0.0
C2420 C 0.53134 0.37527 0.1922 0.0
C2421 C 0.54548 0.35592 0.18925 0.0
N2422 N 0.58112 0.33672 0.19568 0.0
N2423 N 0.52629 0.41247 0.20948 0.0
C2424 C 0.56855 0.3563 0.1963 0.0
C2425 C 0.54023 0.39492 0.20322 0.0
N2426 N 0.60115 0.37904 0.2074 0.0
N2427 N 0.50962 0.37505 0.18388 0.0
H2428 H 0.5323 0.42723 0.21729 0.0
H2429 H 0.50863 0.41178 0.20857 0.0
H2430 H 0.5023 0.36072 0.17639 0.0
H2431 H 0.49928 0.3894 0.18305 0.0
H2432 H 0.61285 0.36673 0.20239 0.0
H2433 H 0.60881 0.39381 0.21356 0.0
H2434 H 0.59723 0.33519 0.20284 0.0
H2435 H 0.57473 0.32134 0.18954 0.0
C2436 C 0.35292 0.79424 0.93485 0.0
C2437 C 0.35132 0.80014 0.95822 0.0
C2438 C 0.39052 0.78714 0.96369 0.0
C2439 C 0.39361 0.78674 0.93977 0.0
N2440 N 0.37728 0.78873 0.90211 0.0
N2441 N 0.36265 0.78227 0.99327 0.0
C2442 C 0.37463 0.7898 0.92518 0.0
C2443 C 0.36845 0.79112 0.97265 0.0
N2444 N 0.3336 0.78944 0.92292 0.0
N2445 N 0.40855 0.78381 0.97793 0.0
H2446 H 0.34563 0.78025 0.99796 0.0
H2447 H 0.37414 0.77372 0.00372 0.0
H2448 H 0.42496 0.78046 0.97205 0.0
H2449 H 0.40733 0.78608 0.99549 0.0
H2450 H 0.33369 0.78296 0.90642 0.0
H2451 H 0.3177 0.78901 0.93084 0.0
H2452 H 0.36442 0.79327 0.89078 0.0
H2453 H 0.39275 0.78482 0.89433 0.0
C2454 C 0.95762 0.39912 0.81223 0.0
C2455 C 0.94072 0.39829 0.79501 0.0
C2456 C 0.94367 0.35663 0.79364 0.0
C2457 C 0.95905 0.35736 0.81222 0.0
N2458 N 0.97952 0.37866 0.84067 0.0
N2459 N 0.91613 0.37671 0.7703 0.0
C2460 C 0.9658 0.37846 0.82187 0.0
C2461 C 0.93339 0.37715 0.78591 0.0
N2462 N 0.96605 0.4197 0.81908 0.0
N2463 N 0.93922 0.33631 0.7832 0.0
H2464 H 0.90879 0.39141 0.76358 0.0
H2465 H 0.90808 0.36189 0.76493 0.0
H2466 H 0.94599 0.3209 0.78881 0.0
H2467 H 0.93014 0.33479 0.76808 0.0
H2468 H 0.98008 0.42153 0.82972 0.0
H2469 H 0.96001 0.43517 0.81282 0.0
H2470 H 0.98295 0.39318 0.85019 0.0
H2471 H 0.9865 0.36395 0.84771 0.0
C2472 C 0.35725 0.19807 0.56762 0.0
C2473 C 0.35684 0.18959 0.54502 0.0
C2474 C 0.39575 0.20351 0.53904 0.0
C2475 C 0.39699 0.20968 0.56235 0.0
N2476 N 0.38031 0.20919 0.59989 0.0
N2477 N 0.37681 0.18091 0.51021 0.0
C2478 C 0.37809 0.20599 0.57695 0.0
C2479 C 0.3764 0.19143 0.53095 0.0
N2480 N 0.33756 0.19916 0.57996 0.0
N2481 N 0.41278 0.20975 0.5245 0.0
H2482 H 0.36304 0.17181 0.50371 0.0
H2483 H 0.39142 0.17954 0.50029 0.0
H2484 H 0.42717 0.21868 0.5298 0.0
H2485 H 0.41174 0.20787 0.50691 0.0
H2486 H 0.33635 0.20739 0.5956 0.0
H2487 H 0.32191 0.19371 0.57363 0.0
H2488 H 0.36791 0.20441 0.6116 0.0
H2489 H 0.39536 0.21469 0.60749 0.0
C2490 C 0.56758 0.64148 0.31723 0.0
C2491 C 0.54465 0.64761 0.3128 0.0
C2492 C 0.53946 0.61276 0.29038 0.0
C2493 C 0.56281 0.6075 0.29351 0.0
N2494 N 0.60019 0.61889 0.30604 0.0
N2495 N 0.50971 0.64135 0.2923 0.0
C2496 C 0.5772 0.62248 0.30581 0.0
C2497 C 0.53084 0.63389 0.29852 0.0
N2498 N 0.5799 0.65329 0.33305 0.0
N2499 N 0.52538 0.59722 0.28032 0.0
H2500 H 0.50285 0.6567 0.29802 0.0
H2501 H 0.49973 0.63334 0.28006 0.0
H2502 H 0.53115 0.58168 0.27398 0.0
H2503 H 0.50776 0.59892 0.27977 0.0
H2504 H 0.59577 0.64804 0.33891 0.0
H2505 H 0.57351 0.66733 0.34181 0.0
H2506 H 0.61179 0.63055 0.31259 0.0
H2507 H 0.60791 0.60516 0.29785 0.0
C2508 C 0.10961 0.80501 0.04118 0.0
C2509 C 0.1089 0.79627 0.06365 0.0
C2510 C 0.14973 0.8037 0.068 0.0
C2511 C 0.14986 0.81469 0.04652 0.0
N2512 N 0.12927 0.82896 0.01399 0.0
N2513 N 0.12727 0.79044 0.09991 0.0
C2514 C 0.12962 0.81616 0.03341 0.0
C2515 C 0.12871 0.79641 0.07747 0.0
N2516 N 0.09135 0.80215 0.02707 0.0
N2517 N 0.16979 0.79974 0.07908 0.0
H2518 H 0.11218 0.78513 0.10757 0.0
H2519 H 0.14055 0.7926 0.11143 0.0
H2520 H 0.18552 0.80479 0.07261 0.0
H2521 H 0.17106 0.78969 0.09361 0.0
H2522 H 0.09171 0.80597 0.00977 0.0
H2523 H 0.0764 0.79408 0.03218 0.0
H2524 H 0.11442 0.83276 0.00511 0.0
H2525 H 0.14354 0.83742 0.00772 0.0
C2526 C 0.6908 0.9275 0.62029 0.0
C2527 C 0.70868 0.93944 0.60928 0.0
C2528 C 0.70776 0.96886 0.63897 0.0
C2529 C 0.68893 0.95767 0.64913 0.0
N2530 N 0.66077 0.92787 0.64864 0.0
N2531 N 0.733 0.97227 0.60637 0.0
C2532 C 0.67998 0.93738 0.63957 0.0
C2533 C 0.71686 0.96036 0.61815 0.0
N2534 N 0.68449 0.90648 0.61253 0.0
N2535 N 0.71714 0.98737 0.64949 0.0
H2536 H 0.74052 0.96618 0.59149 0.0
H2537 H 0.73803 0.98874 0.61043 0.0
H2538 H 0.71048 0.99442 0.66436 0.0
H2539 H 0.7323 0.99496 0.64444 0.0
H2540 H 0.67354 0.89565 0.62125 0.0
H2541 H 0.69133 0.89905 0.59793 0.0
H2542 H 0.65172 0.91474 0.64096 0.0
H2543 H 0.65288 0.93405 0.66329 0.0
C2544 C 0.81067 0.93043 0.36063 0.0
C2545 C 0.81061 0.95427 0.35695 0.0
C2546 C 0.78933 0.95974 0.39246 0.0
C2547 C 0.79187 0.93625 0.39743 0.0
N2548 N 0.8085 0.89984 0.3881 0.0
N2549 N 0.80291 0.99213 0.37087 0.0
C2550 C 0.80347 0.92172 0.38199 0.0
C2551 C 0.8007 0.9691 0.37325 0.0
N2552 N 0.81709 0.91606 0.3435 0.0
N2553 N 0.77555 0.97297 0.40573 0.0
H2554 H 0.81115 0.99968 0.35709 0.0
H2555 H 0.79826 0.00369 0.38347 0.0
H2556 H 0.76683 0.96666 0.41983 0.0
H2557 H 0.77115 0.98962 0.40159 0.0
H2558 H 0.81524 0.89846 0.34439 0.0
H2559 H 0.82221 0.92182 0.32751 0.0
H2560 H 0.81902 0.88927 0.37854 0.0
H2561 H 0.80395 0.89288 0.40377 0.0
C2562 C 0.81754 0.06248 0.11166 0.0
C2563 C 0.794 0.06065 0.10661 0.0
C2564 C 0.78744 0.0419 0.14335 0.0
C2565 C 0.8112 0.04229 0.14761 0.0
N2566 N 0.84935 0.04848 0.1338 0.0
N2567 N 0.75713 0.04508 0.1155 0.0
C2568 C 0.82641 0.05125 0.13113 0.0
C2569 C 0.7791 0.04929 0.12184 0.0
N2570 N 0.83129 0.07574 0.09839 0.0
N2571 N 0.77279 0.03527 0.16014 0.0
H2572 H 0.75049 0.05022 0.09986 0.0
H2573 H 0.74609 0.03484 0.12481 0.0
H2574 H 0.77827 0.02968 0.17606 0.0
H2575 H 0.7552 0.03699 0.15897 0.0
H2576 H 0.84799 0.07978 0.10271 0.0
H2577 H 0.82549 0.08441 0.08405 0.0
H2578 H 0.86115 0.05249 0.12121 0.0
H2579 H 0.85652 0.04017 0.14775 0.0
C2580 C 0.69442 0.06993 0.85773 0.0
C2581 C 0.69121 0.04614 0.85521 0.0
C2582 C 0.70996 0.03985 0.89199 0.0
C2583 C 0.71041 0.0637 0.89573 0.0
N2584 N 0.69871 0.10132 0.88397 0.0
N2585 N 0.69239 0.00855 0.87174 0.0
C2586 C 0.70146 0.07874 0.87908 0.0
C2587 C 0.69807 0.03107 0.87281 0.0
N2588 N 0.69133 0.08408 0.83955 0.0
N2589 N 0.72141 0.02562 0.90636 0.0
H2590 H 0.68337 1.00148 0.85821 0.0
H2591 H 0.69483 0.99731 0.88522 0.0
H2592 H 0.73056 0.03145 0.9204 0.0
H2593 H 0.7236 0.00832 0.90315 0.0
H2594 H 0.69563 0.10127 0.83985 0.0
H2595 H 0.68668 0.0782 0.82346 0.0
H2596 H 0.6901 0.11254 0.87329 0.0
H2597 H 0.70294 0.10842 0.89967 0.0
C2598 C 0.62449 0.72101 0.94471 0.0
C2599 C 0.60477 0.70723 0.94258 0.0
C2600 C 0.62561 0.67473 0.95837 0.0
C2601 C 0.64472 0.68898 0.96225 0.0
N2602 N 0.66094 0.72664 0.96318 0.0
N2603 N 0.58502 0.67245 0.95165 0.0
C2604 C 0.64374 0.71244 0.95661 0.0
C2605 C 0.60487 0.68451 0.9507 0.0
N2606 N 0.62518 0.74193 0.93458 0.0
N2607 N 0.62752 0.6517 0.96108 0.0
H2608 H 0.56943 0.67913 0.9464 0.0
H2609 H 0.5836 0.65668 0.9596 0.0
H2610 H 0.64249 0.64377 0.96634 0.0
H2611 H 0.61493 0.64027 0.95612 0.0
H2612 H 0.63993 0.75167 0.93341 0.0
H2613 H 0.6115 0.7488 0.92562 0.0
H2614 H 0.66009 0.74427 0.96168 0.0
H2615 H 0.67525 0.72099 0.97202 0.0
C2616 C 0.05357 0.10571 0.81533 0.0
C2617 C 0.06437 0.10599 0.79375 0.0
C2618 C 0.05435 0.14627 0.78915 0.0
C2619 C 0.04583 0.14657 0.81173 0.0
N2620 N 0.0403 0.12754 0.84768 0.0
N2621 N 0.07789 0.12706 0.76123 0.0
C2622 C 0.04618 0.12652 0.8252 0.0
C2623 C 0.06547 0.12641 0.78089 0.0
N2624 N 0.04989 0.08545 0.82614 0.0
N2625 N 0.05131 0.1648 0.77542 0.0
H2626 H 0.08621 0.11287 0.75457 0.0
H2627 H 0.08147 0.14202 0.75246 0.0
H2628 H 0.04329 0.17965 0.78094 0.0
H2629 H 0.05495 0.16479 0.75809 0.0
H2630 H 0.03998 0.08387 0.84074 0.0
H2631 H 0.05504 0.06986 0.8194 0.0
H2632 H 0.04267 0.11411 0.85898 0.0
H2633 H 0.03482 0.14245 0.8556 0.0
C2634 C 0.89788 0.30204 0.4599 0.0
C2635 C 0.89762 0.29157 0.43816 0.0
C2636 C 0.85645 0.29792 0.43541 0.0
C2637 C 0.8572 0.31055 0.45596 0.0
N2638 N 0.87898 0.32737 0.48641 0.0
N2639 N 0.8775 0.28211 0.40365 0.0
C2640 C 0.87801 0.31329 0.46791 0.0
C2641 C 0.8771 0.29012 0.4255 0.0
N2642 N 0.91698 0.30074 0.47311 0.0
N2643 N 0.83593 0.29297 0.42565 0.0
H2644 H 0.89225 0.27618 0.39578 0.0
H2645 H 0.86363 0.28302 0.39268 0.0
H2646 H 0.82048 0.29848 0.43244 0.0
H2647 H 0.83404 0.28183 0.41202 0.0
H2648 H 0.91749 0.30589 0.49005 0.0
H2649 H 0.93187 0.29271 0.46775 0.0
H2650 H 0.89413 0.33212 0.49427 0.0
H2651 H 0.8648 0.33582 0.49292 0.0
C2652 C 0.54744 0.88379 0.78288 0.0
C2653 C 0.56138 0.898 0.79653 0.0
C2654 C 0.55528 0.87302 0.82939 0.0
C2655 C 0.54297 0.85781 0.81526 0.0
N2656 N 0.52927 0.84699 0.77817 0.0
N2657 N 0.58111 0.90512 0.83179 0.0
C2658 C 0.53951 0.86275 0.79188 0.0
C2659 C 0.56597 0.89236 0.81955 0.0
N2660 N 0.54144 0.89068 0.76148 0.0
N2661 N 0.55628 0.86923 0.85233 0.0
H2662 H 0.58893 0.91968 0.82533 0.0
H2663 H 0.58723 0.90044 0.84772 0.0
H2664 H 0.54895 0.85507 0.86013 0.0
H2665 H 0.56281 0.88092 0.86392 0.0
H2666 H 0.5294 0.88237 0.75152 0.0
H2667 H 0.54731 0.90577 0.75422 0.0
H2668 H 0.52848 0.84836 0.76053 0.0
H2669 H 0.52287 0.83161 0.78428 0.0
C2670 C 0.97017 0.12304 0.31947 0.0
C2671 C 0.96372 0.14476 0.31111 0.0
C2672 C 0.93697 0.12704 0.28443 0.0
C2673 C 0.94367 0.1053 0.29255 0.0
N2674 N 0.96906 0.082 0.3147 0.0
N2675 N 0.94426 0.16772 0.28332 0.0
C2676 C 0.96111 0.10313 0.30908 0.0
C2677 C 0.94812 0.14683 0.29282 0.0
N2678 N 0.98427 0.12152 0.33792 0.0
N2679 N 0.91944 0.12875 0.26923 0.0
H2680 H 0.9519 0.18258 0.28931 0.0
H2681 H 0.9349 0.17022 0.26851 0.0
H2682 H 0.91153 0.11461 0.262 0.0
H2683 H 0.91182 0.14406 0.26467 0.0
H2684 H 0.98755 0.10645 0.34658 0.0
H2685 H 0.99175 0.13569 0.34554 0.0
H2686 H 0.98332 0.07922 0.32482 0.0
H2687 H 0.96239 0.06704 0.30786 0.0
C2688 C 0.54422 0.11927 0.71662 0.0
C2689 C 0.56181 0.10751 0.70497 0.0
C2690 C 0.56001 0.13527 0.6739 0.0
C2691 C 0.54417 0.14831 0.68664 0.0
N2692 N 0.52346 0.15461 0.72148 0.0
N2693 N 0.58921 0.1062 0.67442 0.0
C2694 C 0.53684 0.14081 0.70839 0.0
C2695 C 0.57045 0.116 0.68409 0.0
N2696 N 0.53414 0.10954 0.73518 0.0
N2697 N 0.56457 0.14092 0.6518 0.0
H2698 H 0.59745 0.09212 0.68138 0.0
H2699 H 0.5978 0.1132 0.6606 0.0
H2700 H 0.5572 0.15486 0.64367 0.0
H2701 H 0.57404 0.13065 0.64089 0.0
H2702 H 0.51966 0.11611 0.74298 0.0
H2703 H 0.53909 0.09378 0.74166 0.0
H2704 H 0.51961 0.15122 0.73844 0.0
H2705 H 0.51766 0.17046 0.71599 0.0
C2706 C 0.13226 0.32864 0.94473 0.0
C2707 C 0.14771 0.31463 0.95688 0.0
C2708 C 0.12162 0.28226 0.9531 0.0
C2709 C 0.1073 0.29571 0.93908 0.0
N2710 N 0.10044 0.3306 0.91859 0.0
N2711 N 0.15883 0.27754 0.97037 0.0
C2712 C 0.11299 0.31863 0.9341 0.0
C2713 C 0.14284 0.29126 0.96051 0.0
N2714 N 0.13567 0.35164 0.94389 0.0
N2715 N 0.11465 0.2611 0.95976 0.0
H2716 H 0.17446 0.28359 0.97619 0.0
H2717 H 0.15738 0.25991 0.97124 0.0
H2718 H 0.0993 0.25393 0.95449 0.0
H2719 H 0.12313 0.25138 0.97189 0.0
H2720 H 0.12374 0.36304 0.93746 0.0
H2721 H 0.14962 0.35963 0.95141 0.0
H2722 H 0.10526 0.34643 0.91229 0.0
H2723 H 0.0861 0.32396 0.91054 0.0
C2724 C 0.39119 0.7144 0.46616 0.0
C2725 C 0.39894 0.70629 0.44477 0.0
C2726 C 0.36731 0.67906 0.44309 0.0
C2727 C 0.35887 0.688 0.46391 0.0
N2728 N 0.36123 0.71495 0.49469 0.0
N2729 N 0.39405 0.68241 0.41177 0.0
C2730 C 0.37041 0.70589 0.47531 0.0
C2731 C 0.38692 0.68898 0.43295 0.0
N2732 N 0.40397 0.72997 0.47782 0.0
N2733 N 0.35667 0.66087 0.43318 0.0
H2734 H 0.40898 0.68838 0.40427 0.0
H2735 H 0.3847 0.67199 0.40096 0.0
H2736 H 0.3415 0.65398 0.43927 0.0
H2737 H 0.36335 0.65167 0.41962 0.0
H2738 H 0.40074 0.73496 0.49449 0.0
H2739 H 0.41881 0.73714 0.47125 0.0
H2740 H 0.36723 0.72959 0.50261 0.0
H2741 H 0.34664 0.70845 0.50242 0.0
C2742 C 0.8209 0.56935 0.86648 0.0
C2743 C 0.81334 0.54809 0.85789 0.0
C2744 C 0.78828 0.54351 0.891 0.0
C2745 C 0.79449 0.56559 0.89856 0.0
N2746 N 0.81317 0.60139 0.89123 0.0
N2747 N 0.78709 0.51664 0.85969 0.0
C2748 C 0.80978 0.57907 0.88562 0.0
C2749 C 0.79621 0.53564 0.86951 0.0
N2750 N 0.8393 0.57987 0.8569 0.0
N2751 N 0.77546 0.52979 0.9047 0.0
H2752 H 0.79245 0.5104 0.84396 0.0
H2753 H 0.77293 0.50818 0.86614 0.0
H2754 H 0.76929 0.535 0.9205 0.0
H2755 H 0.77246 0.51267 0.90128 0.0
H2756 H 0.84714 0.59409 0.86399 0.0
H2757 H 0.84805 0.57327 0.84295 0.0
H2758 H 0.82218 0.61271 0.88101 0.0
H2759 H 0.80522 0.60921 0.90504 0.0
C2760 C 0.71219 0.56847 0.15579 0.0
C2761 C 0.70899 0.54466 0.15817 0.0
C2762 C 0.72304 0.5392 0.11938 0.0
C2763 C 0.72102 0.56291 0.11545 0.0
N2764 N 0.71452 0.60069 0.13027 0.0
N2765 N 0.73097 0.51153 0.14842 0.0
C2766 C 0.71615 0.57779 0.13385 0.0
C2767 C 0.71974 0.53066 0.14172 0.0
N2768 N 0.71397 0.58167 0.17481 0.0
N2769 N 0.72825 0.52478 0.10193 0.0
H2770 H 0.73416 0.50839 0.1656 0.0
H2771 H 0.74054 0.50152 0.13733 0.0
H2772 H 0.73149 0.53043 0.08542 0.0
H2773 H 0.72778 0.50713 0.10373 0.0
H2774 H 0.7184 0.59882 0.17442 0.0
H2775 H 0.71373 0.57455 0.19109 0.0
H2776 H 0.70856 0.61197 0.14259 0.0
H2777 H 0.71757 0.60823 0.1145 0.0
C2778 C 0.7176 0.43501 0.37717 0.0
C2779 C 0.70828 0.4411 0.39861 0.0
C2780 C 0.67922 0.4644 0.37979 0.0
C2781 C 0.68921 0.45918 0.35842 0.0
N2782 N 0.71974 0.44266 0.33663 0.0
N2783 N 0.68274 0.46409 0.42095 0.0
C2784 C 0.70898 0.44541 0.35708 0.0
C2785 C 0.68983 0.45658 0.4001 0.0
N2786 N 0.73419 0.41874 0.376 0.0
N2787 N 0.65918 0.47619 0.38058 0.0
H2788 H 0.68986 0.45839 0.43618 0.0
H2789 H 0.67105 0.47719 0.42322 0.0
H2790 H 0.65117 0.48262 0.36611 0.0
H2791 H 0.64962 0.47831 0.39533 0.0
H2792 H 0.73986 0.41158 0.36083 0.0
H2793 H 0.74133 0.41116 0.39037 0.0
H2794 H 0.73554 0.43489 0.33482 0.0
H2795 H 0.71368 0.44972 0.32152 0.0
C2796 C 0.80165 0.47501 0.63245 0.0
C2797 C 0.81258 0.46056 0.64841 0.0
C2798 C 0.80362 0.42739 0.62478 0.0
C2799 C 0.79507 0.44208 0.60764 0.0
N2800 N 0.78821 0.48005 0.59375 0.0
N2801 N 0.82706 0.42347 0.65843 0.0
C2802 C 0.7946 0.46597 0.61112 0.0
C2803 C 0.81435 0.43684 0.64426 0.0
N2804 N 0.79759 0.49725 0.63793 0.0
N2805 N 0.80098 0.40437 0.62267 0.0
H2806 H 0.83522 0.4297 0.6729 0.0
H2807 H 0.83113 0.4066 0.65485 0.0
H2808 H 0.79305 0.39685 0.60869 0.0
H2809 H 0.80471 0.3929 0.63563 0.0
H2810 H 0.78764 0.50807 0.62806 0.0
H2811 H 0.80259 0.50442 0.65339 0.0
H2812 H 0.78993 0.49767 0.59433 0.0
H2813 H 0.78276 0.47403 0.57797 0.0
C2814 C 0.43604 0.1286 0.21721 0.0
C2815 C 0.44233 0.10711 0.20813 0.0
C2816 C 0.46497 0.12604 0.17866 0.0
C2817 C 0.46024 0.14741 0.18891 0.0
N2818 N 0.44512 0.16867 0.22059 0.0
N2819 N 0.4664 0.0851 0.18324 0.0
C2820 C 0.44691 0.14858 0.20901 0.0
C2821 C 0.45791 0.10575 0.18975 0.0
N2822 N 0.41899 0.13005 0.23296 0.0
N2823 N 0.47532 0.12513 0.15785 0.0
H2824 H 0.46178 0.06988 0.19109 0.0
H2825 H 0.47958 0.08327 0.17153 0.0
H2826 H 0.48047 0.13959 0.14897 0.0
H2827 H 0.47694 0.11019 0.14846 0.0
H2828 H 0.41199 0.14543 0.23831 0.0
H2829 H 0.41038 0.11587 0.23923 0.0
H2830 H 0.4376 0.17002 0.23658 0.0
H2831 H 0.45305 0.18361 0.21523 0.0
C2832 C 0.02951 0.86881 0.71062 0.0
C2833 C 0.03395 0.86271 0.68766 0.0
C2834 C 0.04631 0.90174 0.68027 0.0
C2835 C 0.04788 0.90577 0.70399 0.0
N2836 N 0.02376 0.90021 0.73656 0.0
N2837 N 0.04744 0.87374 0.65035 0.0
C2838 C 0.03464 0.89129 0.71811 0.0
C2839 C 0.0425 0.87931 0.67236 0.0
N2840 N 0.0204 0.85329 0.72529 0.0
N2841 N 0.04431 0.91959 0.66562 0.0
H2842 H 0.04534 0.85737 0.64382 0.0
H2843 H 0.0555 0.88505 0.63931 0.0
H2844 H 0.04239 0.93623 0.67155 0.0
H2845 H 0.04109 0.91751 0.64829 0.0
H2846 H 0.01925 0.85613 0.74276 0.0
H2847 H 0.01526 0.83708 0.72022 0.0
H2848 H 0.01217 0.89113 0.74641 0.0
H2849 H 0.02392 0.91767 0.73985 0.0
C2850 C 0.43517 0.86075 0.3186 0.0
C2851 C 0.45816 0.8547 0.3144 0.0
C2852 C 0.46363 0.88985 0.29256 0.0
C2853 C 0.44022 0.89503 0.2954 0.0
N2854 N 0.40269 0.88344 0.30724 0.0
N2855 N 0.49336 0.86124 0.29441 0.0
C2856 C 0.42568 0.87988 0.30729 0.0
C2857 C 0.47215 0.86862 0.30049 0.0
N2858 N 0.42264 0.84874 0.3341 0.0
N2859 N 0.47786 0.90556 0.28298 0.0
H2860 H 0.50014 0.8458 0.29995 0.0
H2861 H 0.50348 0.86944 0.28242 0.0
H2862 H 0.47219 0.92121 0.27683 0.0
H2863 H 0.49548 0.90388 0.2827 0.0
H2864 H 0.40668 0.85389 0.33979 0.0
H2865 H 0.42894 0.83461 0.34278 0.0
H2866 H 0.39101 0.87168 0.31347 0.0
H2867 H 0.39507 0.89726 0.29912 0.0
C2868 C 0.86863 0.70703 0.03211 0.0
C2869 C 0.85532 0.69221 0.04574 0.0
C2870 C 0.88141 0.69789 0.0778 0.0
C2871 C 0.89589 0.71088 0.06351 0.0
N2872 N 0.90504 0.72565 0.02638 0.0
N2873 N 0.85065 0.67059 0.08032 0.0
C2874 C 0.88996 0.71491 0.04045 0.0
C2875 C 0.86213 0.68685 0.06828 0.0
N2876 N 0.86059 0.71398 0.01142 0.0
N2877 N 0.88573 0.69665 0.10063 0.0
H2878 H 0.83637 0.66216 0.07402 0.0
H2879 H 0.85635 0.66406 0.09576 0.0
H2880 H 0.8997 0.70446 0.10827 0.0
H2881 H 0.87445 0.68957 0.11231 0.0
H2882 H 0.86828 0.72661 1.00168 0.0
H2883 H 0.84512 0.7084 0.00474 0.0
H2884 H 0.90285 0.72693 0.00885 0.0
H2885 H 0.9207 0.73184 0.03197 0.0
C2886 C 0.62216 0.2834 0.54886 0.0
C2887 C 0.60731 0.29761 0.56154 0.0
C2888 C 0.63216 0.33031 0.55427 0.0
C2889 C 0.64824 0.31563 0.54383 0.0
N2890 N 0.66012 0.2777 0.53367 0.0
N2891 N 0.59985 0.33375 0.57958 0.0
C2892 C 0.64365 0.29201 0.54173 0.0
C2893 C 0.61273 0.32088 0.5651 0.0
N2894 N 0.61547 0.26187 0.54316 0.0
N2895 N 0.63513 0.35336 0.55326 0.0
H2896 H 0.58552 0.3275 0.58796 0.0
H2897 H 0.60446 0.35003 0.58484 0.0
H2898 H 0.64906 0.36097 0.54533 0.0
H2899 H 0.62279 0.36499 0.55841 0.0
H2900 H 0.62446 0.2515 0.53196 0.0
H2901 H 0.59986 0.25503 0.5481 0.0
H2902 H 0.65874 0.26004 0.53406 0.0
H2903 H 0.67601 0.28339 0.52822 0.0
C2904 C 0.19269 0.426 0.12074 0.0
C2905 C 0.20909 0.4387 0.10839 0.0
C2906 C 0.20778 0.46895 0.1372 0.0
C2907 C 0.19012 0.45705 0.14856 0.0
N2908 N 0.16378 0.42566 0.1502 0.0
N2909 N 0.23088 0.473 0.10314 0.0
C2910 C 0.18205 0.43592 0.14008 0.0
C2911 C 0.21631 0.46039 0.11618 0.0
N2912 N 0.1877 0.40422 0.11424 0.0
N2913 N 0.21663 0.48822 0.14678 0.0
H2914 H 0.23789 0.467 0.08797 0.0
H2915 H 0.23494 0.4899 0.10647 0.0
H2916 H 0.2104 0.49523 0.16185 0.0
H2917 H 0.23108 0.49646 0.14075 0.0
H2918 H 0.17792 0.39308 0.12392 0.0
H2919 H 0.19469 0.39656 0.09983 0.0
H2920 H 0.1553 0.41173 0.14332 0.0
H2921 H 0.15599 0.43198 0.16484 0.0
C2922 C 0.31876 0.47752 0.88254 0.0
C2923 C 0.30717 0.47374 0.8617 0.0
C2924 C 0.27323 0.46257 0.88319 0.0
C2925 C 0.28665 0.46113 0.90322 0.0
N2926 N 0.31285 0.48631 0.92204 0.0
N2927 N 0.27237 0.46425 0.84202 0.0
C2928 C 0.30704 0.47398 0.9033 0.0
C2929 C 0.28401 0.46689 0.86195 0.0
N2930 N 0.34101 0.48414 0.88268 0.0
N2931 N 0.2501 0.46309 0.88501 0.0
H2932 H 0.27935 0.46822 0.82619 0.0
H2933 H 0.25629 0.45685 0.84119 0.0
H2934 H 0.24208 0.46335 0.90087 0.0
H2935 H 0.23929 0.46623 0.87134 0.0
H2936 H 0.35051 0.48508 0.89764 0.0
H2937 H 0.35036 0.48691 0.86785 0.0
H2938 H 0.32659 0.49752 0.92234 0.0
H2939 H 0.30169 0.488 0.93577 0.0
C2940 C 0.27291 0.54813 0.62407 0.0
C2941 C 0.28557 0.54765 0.6035 0.0
C2942 C 0.31694 0.52918 0.6236 0.0
C2943 C 0.30657 0.5347 0.6447 0.0
N2944 N 0.27359 0.54803 0.66527 0.0
N2945 N 0.30873 0.51961 0.58469 0.0
C2946 C 0.28413 0.54364 0.64504 0.0
C2947 C 0.30474 0.53303 0.60317 0.0
N2948 N 0.24975 0.54938 0.62316 0.0
N2949 N 0.33851 0.52062 0.62288 0.0
H2950 H 0.297 0.51853 0.5714 0.0
H2951 H 0.32141 0.50719 0.58433 0.0
H2952 H 0.34819 0.51759 0.63744 0.0
H2953 H 0.34728 0.51832 0.60762 0.0
H2954 H 0.23931 0.54769 0.63737 0.0
H2955 H 0.24107 0.54902 0.60766 0.0
H2956 H 0.25828 0.55691 0.66639 0.0
H2957 H 0.2808 0.54401 0.68098 0.0
C2958 C 0.19607 0.56963 0.35705 0.0
C2959 C 0.19122 0.54604 0.3555 0.0
C2960 C 0.20761 0.54025 0.39347 0.0
C2961 C 0.20983 0.56416 0.39605 0.0
N2962 N 0.20216 0.60193 0.38182 0.0
N2963 N 0.18899 0.50927 0.37364 0.0
C2964 C 0.20299 0.57897 0.37823 0.0
C2965 C 0.19612 0.5314 0.37408 0.0
N2966 N 0.19464 0.58304 0.3381 0.0
N2967 N 0.21704 0.52597 0.40921 0.0
H2968 H 0.18036 0.50216 0.35986 0.0
H2969 H 0.18988 0.49851 0.38768 0.0
H2970 H 0.22575 0.53183 0.42352 0.0
H2971 H 0.21803 0.50841 0.40702 0.0
H2972 H 0.20023 0.59985 0.33769 0.0
H2973 H 0.18998 0.57674 0.32218 0.0
H2974 H 0.19501 0.61329 0.37025 0.0
H2975 H 0.20656 0.60949 0.39726 0.0
loop_
_geom_bond_atom_site_label_1
_geom_bond_atom_site_label_2
_geom_bond_distance
_geom_bond_site_symmetry_2
_ccdc_geom_bond_type
Li0 N17 1.990 . S
Li0 O60 1.956 . S
Li0 O61 1.970 . S
Li0 O62 1.961 1_455 S
Li1 N25 1.990 . S
Li1 O60 1.970 . S
Li1 O61 1.956 . S
Li1 O63 1.961 1_455 S
Li2 N47 1.990 . S
Li2 O60 1.961 1_655 S
Li2 O62 1.956 . S
Li2 O63 1.970 . S
Li3 N53 1.990 . S
Li3 O61 1.961 1_655 S
Li3 O62 1.970 . S
Li3 O63 1.956 . S
C4 C6 1.348 . S
C4 C7 1.356 . S
C4 O60 1.325 . S
N5 C8 1.314 . S
N5 C9 1.279 . S
C6 C4 1.348 . S
C6 C8 1.353 . S
C6 H64 0.929 . S
C7 C4 1.356 . S
C7 C9 1.358 . S
C7 H65 0.930 . S
C8 N5 1.314 . S
C8 C6 1.353 . S
C8 H66 0.930 . S
C9 N5 1.279 . S
C9 C7 1.358 . S
C9 H67 0.930 . S
C10 C13 1.348 . S
C10 C14 1.356 . S
C10 O61 1.325 . S
C11 N12 1.279 . S
C11 C14 1.358 . S
C11 H68 0.930 . S
N12 C11 1.279 . S
N12 C15 1.314 . S
C13 C10 1.348 . S
C13 C15 1.353 . S
C13 H69 0.929 . S
C14 C10 1.356 . S
C14 C11 1.358 . S
C14 H70 0.930 . S
C15 N12 1.314 . S
C15 C13 1.353 . S
C15 H71 0.930 . S
C16 N17 1.314 . S
C16 C21 1.353 . S
C16 H22 0.930 1_455 S
N17 Li0 1.990 . S
N17 C16 1.314 . S
N17 C19 1.279 . S
C18 C19 1.358 . S
C18 C20 1.356 . S
C18 H72 0.930 . S
C19 N17 1.279 . S
C19 C18 1.358 . S
C19 H23 0.930 . S
C20 C18 1.356 . S
C20 C21 1.348 . S
C21 C16 1.353 . S
C21 C20 1.348 . S
C21 H73 0.929 . S
H22 C16 0.930 1_655 S
H23 C19 0.930 . S
C24 N25 1.314 . S
C24 C26 1.353 . S
C24 H30 0.930 . S
N25 Li1 1.990 . S
N25 C24 1.314 . S
N25 C28 1.279 . S
C26 C24 1.353 . S
C26 C29 1.348 . S
C26 H74 0.929 . S
C27 C28 1.358 . S
C27 C29 1.356 . S
C27 H75 0.930 . S
C28 N25 1.279 . S
C28 C27 1.358 . S
C28 H31 0.930 . S
C29 C26 1.348 . S
C29 C27 1.356 . S
H30 C24 0.930 . S
H31 C28 0.930 . S
C32 C34 1.348 . S
C32 C35 1.356 . S
C32 O62 1.325 . S
N33 C36 1.314 . S
N33 C37 1.279 . S
C34 C32 1.348 . S
C34 C36 1.353 . S
C34 H76 0.929 . S
C35 C32 1.356 . S
C35 C37 1.358 . S
C35 H77 0.930 . S
C36 N33 1.314 . S
C36 C34 1.353 . S
C36 H78 0.930 . S
C37 N33 1.279 . S
C37 C35 1.358 . S
C37 H79 0.930 . S
C38 C39 1.348 . S
C38 C40 1.356 . S
C38 O63 1.325 . S
C39 C38 1.348 . S
C39 C41 1.353 . S
C39 H80 0.929 . S
C40 C38 1.356 . S
C40 C42 1.358 . S
C40 H81 0.930 . S
C41 C39 1.353 . S
C41 N43 1.314 . S
C41 H82 0.930 . S
C42 C40 1.358 . S
C42 N43 1.279 . S
C42 H83 0.930 . S
N43 C41 1.314 . S
N43 C42 1.279 . S
C44 C46 1.353 . S
C44 N47 1.314 . S
C44 H50 0.930 1_655 S
C45 N47 1.279 . S
C45 C48 1.358 . S
C45 H51 0.930 . S
C46 C44 1.353 . S
C46 C49 1.348 . S
C46 H84 0.929 . S
N47 Li2 1.990 . S
N47 C44 1.314 . S
N47 C45 1.279 . S
C48 C45 1.358 . S
C48 C49 1.356 . S
C48 H85 0.930 . S
C49 C46 1.348 . S
C49 C48 1.356 . S
H50 C44 0.930 1_455 S
H51 C45 0.930 . S
C52 N53 1.314 . S
C52 C54 1.353 . S
C52 H58 0.930 . S
N53 Li3 1.990 . S
N53 C52 1.314 . S
N53 C56 1.279 . S
C54 C52 1.353 . S
C54 C57 1.348 . S
C54 H86 0.929 . S
C55 C56 1.358 . S
C55 C57 1.356 . S
C55 H87 0.930 . S
C56 N53 1.279 . S
C56 C55 1.358 . S
C56 H59 0.930 . S
C57 C54 1.348 . S
C57 C55 1.356 . S
H58 C52 0.930 . S
H59 C56 0.930 . S
O60 Li0 1.956 . S
O60 Li1 1.970 . S
O60 Li2 1.961 1_455 S
O60 C4 1.325 . S
O61 Li0 1.970 . S
O61 Li1 1.956 . S
O61 Li3 1.961 1_455 S
O61 C10 1.325 . S
O62 Li0 1.961 1_655 S
O62 Li2 1.956 . S
O62 Li3 1.970 . S
O62 C32 1.325 . S
O63 Li1 1.961 1_655 S
O63 Li2 1.970 . S
O63 Li3 1.956 . S
O63 C38 1.325 . S
H64 C6 0.929 . S
H65 C7 0.930 . S
H66 C8 0.930 . S
H67 C9 0.930 . S
H68 C11 0.930 . S
H69 C13 0.929 . S
H70 C14 0.930 . S
H71 C15 0.930 . S
H72 C18 0.930 . S
H73 C21 0.929 . S
H74 C26 0.929 . S
H75 C27 0.930 . S
H76 C34 0.929 . S
H77 C35 0.930 . S
H78 C36 0.930 . S
H79 C37 0.930 . S
H80 C39 0.929 . S
H81 C40 0.930 . S
H82 C41 0.930 . S
H83 C42 0.930 . S
H84 C46 0.929 . S
H85 C48 0.930 . S
H86 C54 0.929 . S
H87 C55 0.930 . S
Li88 N105 1.990 . S
Li88 O148 1.956 1_455 S
Li88 O149 1.970 . S
Li88 O150 1.961 . S
Li89 N113 1.990 . S
Li89 O148 1.970 . S
Li89 O149 1.956 1_655 S
Li89 O151 1.961 . S
Li90 N135 1.990 . S
Li90 O148 1.961 . S
Li90 O150 1.956 1_655 S
Li90 O151 1.970 . S
Li91 N141 1.990 . S
Li91 O149 1.961 . S
Li91 O150 1.970 . S
Li91 O151 1.956 1_455 S
C92 C94 1.348 . S
C92 C95 1.356 . S
C92 O148 1.325 . S
N93 C96 1.314 . S
N93 C97 1.279 . S
C94 C92 1.348 . S
C94 C96 1.353 . S
C94 H152 0.929 . S
C95 C92 1.356 . S
C95 C97 1.358 . S
C95 H153 0.930 . S
C96 N93 1.314 . S
C96 C94 1.353 . S
C96 H154 0.930 . S
C97 N93 1.279 . S
C97 C95 1.358 . S
C97 H155 0.930 . S
C98 C101 1.348 . S
C98 C102 1.356 . S
C98 O149 1.325 . S
C99 N100 1.279 . S
C99 C102 1.358 . S
C99 H156 0.930 . S
N100 C99 1.279 . S
N100 C103 1.314 . S
C101 C98 1.348 . S
C101 C103 1.353 . S
C101 H157 0.929 . S
C102 C98 1.356 . S
C102 C99 1.358 . S
C102 H158 0.930 . S
C103 N100 1.314 . S
C103 C101 1.353 . S
C103 H159 0.930 . S
C104 N105 1.314 . S
C104 C109 1.353 . S
C104 H110 0.930 . S
N105 Li88 1.990 . S
N105 C104 1.314 . S
N105 C107 1.279 . S
C106 C107 1.358 . S
C106 C108 1.356 . S
C106 H160 0.930 . S
C107 N105 1.279 . S
C107 C106 1.358 . S
C107 H111 0.930 1_455 S
C108 C106 1.356 . S
C108 C109 1.348 . S
C109 C104 1.353 . S
C109 C108 1.348 . S
C109 H161 0.929 . S
H110 C104 0.930 . S
H111 C107 0.930 1_655 S
C112 N113 1.314 . S
C112 C114 1.353 . S
C112 H118 0.930 . S
N113 Li89 1.990 . S
N113 C112 1.314 . S
N113 C116 1.279 . S
C114 C112 1.353 . S
C114 C117 1.348 . S
C114 H162 0.929 . S
C115 C116 1.358 . S
C115 C117 1.356 . S
C115 H163 0.930 . S
C116 N113 1.279 . S
C116 C115 1.358 . S
C116 H119 0.930 . S
C117 C114 1.348 . S
C117 C115 1.356 . S
H118 C112 0.930 . S
H119 C116 0.930 . S
C120 C122 1.348 . S
C120 C123 1.356 . S
C120 O150 1.325 . S
N121 C124 1.314 . S
N121 C125 1.279 . S
C122 C120 1.348 . S
C122 C124 1.353 . S
C122 H164 0.929 . S
C123 C120 1.356 . S
C123 C125 1.358 . S
C123 H165 0.930 . S
C124 N121 1.314 . S
C124 C122 1.353 . S
C124 H166 0.930 . S
C125 N121 1.279 . S
C125 C123 1.358 . S
C125 H167 0.930 . S
C126 C127 1.348 . S
C126 C128 1.356 . S
C126 O151 1.325 . S
C127 C126 1.348 . S
C127 C129 1.353 . S
C127 H168 0.929 . S
C128 C126 1.356 . S
C128 C130 1.358 . S
C128 H169 0.930 . S
C129 C127 1.353 . S
C129 N131 1.314 . S
C129 H170 0.930 . S
C130 C128 1.358 . S
C130 N131 1.279 . S
C130 H171 0.930 . S
N131 C129 1.314 . S
N131 C130 1.279 . S
C132 C134 1.353 . S
C132 N135 1.314 . S
C132 H138 0.930 . S
C133 N135 1.279 . S
C133 C136 1.358 . S
C133 H139 0.930 1_655 S
C134 C132 1.353 . S
C134 C137 1.348 . S
C134 H172 0.929 . S
N135 Li90 1.990 . S
N135 C132 1.314 . S
N135 C133 1.279 . S
C136 C133 1.358 . S
C136 C137 1.356 . S
C136 H173 0.930 . S
C137 C134 1.348 . S
C137 C136 1.356 . S
H138 C132 0.930 . S
H139 C133 0.930 1_455 S
C140 N141 1.314 . S
C140 C142 1.353 . S
C140 H146 0.930 . S
N141 Li91 1.990 . S
N141 C140 1.314 . S
N141 C144 1.279 . S
C142 C140 1.353 . S
C142 C145 1.348 . S
C142 H174 0.929 . S
C143 C144 1.358 . S
C143 C145 1.356 . S
C143 H175 0.930 . S
C144 N141 1.279 . S
C144 C143 1.358 . S
C144 H147 0.930 . S
C145 C142 1.348 . S
C145 C143 1.356 . S
H146 C140 0.930 . S
H147 C144 0.930 . S
O148 Li88 1.956 1_655 S
O148 Li89 1.970 . S
O148 Li90 1.961 . S
O148 C92 1.325 . S
O149 Li88 1.970 . S
O149 Li89 1.956 1_455 S
O149 Li91 1.961 . S
O149 C98 1.325 . S
O150 Li88 1.961 . S
O150 Li90 1.956 1_455 S
O150 Li91 1.970 . S
O150 C120 1.325 . S
O151 Li89 1.961 . S
O151 Li90 1.970 . S
O151 Li91 1.956 1_655 S
O151 C126 1.325 . S
H152 C94 0.929 . S
H153 C95 0.930 . S
H154 C96 0.930 . S
H155 C97 0.930 . S
H156 C99 0.930 . S
H157 C101 0.929 . S
H158 C102 0.930 . S
H159 C103 0.930 . S
H160 C106 0.930 . S
H161 C109 0.929 . S
H162 C114 0.929 . S
H163 C115 0.930 . S
H164 C122 0.929 . S
H165 C123 0.930 . S
H166 C124 0.930 . S
H167 C125 0.930 . S
H168 C127 0.929 . S
H169 C128 0.930 . S
H170 C129 0.930 . S
H171 C130 0.930 . S
H172 C134 0.929 . S
H173 C136 0.930 . S
H174 C142 0.929 . S
H175 C143 0.930 . S
Li176 N193 1.990 . S
Li176 O236 1.956 . S
Li176 O237 1.970 . S
Li176 O238 1.961 . S
Li177 N201 1.990 . S
Li177 O236 1.970 . S
Li177 O237 1.956 . S
Li177 O239 1.961 . S
Li178 N223 1.990 . S
Li178 O236 1.961 . S
Li178 O238 1.956 . S
Li178 O239 1.970 . S
Li179 N229 1.990 . S
Li179 O237 1.961 . S
Li179 O238 1.970 . S
Li179 O239 1.956 . S
C180 C182 1.348 . S
C180 C183 1.356 . S
C180 O236 1.325 . S
N181 C184 1.314 . S
N181 C185 1.279 . S
C182 C180 1.348 . S
C182 C184 1.353 . S
C182 H240 0.929 . S
C183 C180 1.356 . S
C183 C185 1.358 . S
C183 H241 0.930 . S
C184 N181 1.314 . S
C184 C182 1.353 . S
C184 H242 0.930 . S
C185 N181 1.279 . S
C185 C183 1.358 . S
C185 H243 0.930 . S
C186 C189 1.348 . S
C186 C190 1.356 . S
C186 O237 1.325 . S
C187 N188 1.279 . S
C187 C190 1.358 . S
C187 H244 0.930 . S
N188 C187 1.279 . S
N188 C191 1.314 . S
C189 C186 1.348 . S
C189 C191 1.353 . S
C189 H245 0.929 . S
C190 C186 1.356 . S
C190 C187 1.358 . S
C190 H246 0.930 . S
C191 N188 1.314 . S
C191 C189 1.353 . S
C191 H247 0.930 . S
C192 N193 1.314 . S
C192 C197 1.353 . S
C192 H198 0.930 . S
N193 Li176 1.990 . S
N193 C192 1.314 . S
N193 C195 1.279 . S
C194 C195 1.358 . S
C194 C196 1.356 . S
C194 H248 0.930 . S
C195 N193 1.279 . S
C195 C194 1.358 . S
C195 H199 0.930 . S
C196 C194 1.356 . S
C196 C197 1.348 . S
C197 C192 1.353 . S
C197 C196 1.348 . S
C197 H249 0.929 . S
H198 C192 0.930 . S
H199 C195 0.930 . S
C200 N201 1.314 . S
C200 C202 1.353 . S
C200 H206 0.930 . S
N201 Li177 1.990 . S
N201 C200 1.314 . S
N201 C204 1.279 . S
C202 C200 1.353 . S
C202 C205 1.348 . S
C202 H250 0.929 . S
C203 C204 1.358 . S
C203 C205 1.356 . S
C203 H251 0.930 . S
C204 N201 1.279 . S
C204 C203 1.358 . S
C204 H207 0.930 . S
C205 C202 1.348 . S
C205 C203 1.356 . S
H206 C200 0.930 . S
H207 C204 0.930 . S
C208 C210 1.348 . S
C208 C211 1.356 . S
C208 O238 1.325 . S
N209 C212 1.314 . S
N209 C213 1.279 . S
C210 C208 1.348 . S
C210 C212 1.353 . S
C210 H252 0.929 . S
C211 C208 1.356 . S
C211 C213 1.358 . S
C211 H253 0.930 . S
C212 N209 1.314 . S
C212 C210 1.353 . S
C212 H254 0.930 . S
C213 N209 1.279 . S
C213 C211 1.358 . S
C213 H255 0.930 . S
C214 C215 1.348 . S
C214 C216 1.356 . S
C214 O239 1.325 . S
C215 C214 1.348 . S
C215 C217 1.353 . S
C215 H256 0.929 . S
C216 C214 1.356 . S
C216 C218 1.358 . S
C216 H257 0.930 . S
C217 C215 1.353 . S
C217 N219 1.314 . S
C217 H258 0.930 . S
C218 C216 1.358 . S
C218 N219 1.279 . S
C218 H259 0.930 . S
N219 C217 1.314 . S
N219 C218 1.279 . S
C220 C222 1.353 . S
C220 N223 1.314 . S
C220 H226 0.930 . S
C221 N223 1.279 . S
C221 C224 1.358 . S
C221 H227 0.930 . S
C222 C220 1.353 . S
C222 C225 1.348 . S
C222 H260 0.929 . S
N223 Li178 1.990 . S
N223 C220 1.314 . S
N223 C221 1.279 . S
C224 C221 1.358 . S
C224 C225 1.356 . S
C224 H261 0.930 . S
C225 C222 1.348 . S
C225 C224 1.356 . S
H226 C220 0.930 . S
H227 C221 0.930 . S
C228 N229 1.314 . S
C228 C230 1.353 . S
C228 H234 0.930 . S
N229 Li179 1.990 . S
N229 C228 1.314 . S
N229 C232 1.279 . S
C230 C228 1.353 . S
C230 C233 1.348 . S
C230 H262 0.929 . S
C231 C232 1.358 . S
C231 C233 1.356 . S
C231 H263 0.930 . S
C232 N229 1.279 . S
C232 C231 1.358 . S
C232 H235 0.930 . S
C233 C230 1.348 . S
C233 C231 1.356 . S
H234 C228 0.930 . S
H235 C232 0.930 . S
O236 Li176 1.956 . S
O236 Li177 1.970 . S
O236 Li178 1.961 . S
O236 C180 1.325 . S
O237 Li176 1.970 . S
O237 Li177 1.956 . S
O237 Li179 1.961 . S
O237 C186 1.325 . S
O238 Li176 1.961 . S
O238 Li178 1.956 . S
O238 Li179 1.970 . S
O238 C208 1.325 . S
O239 Li177 1.961 . S
O239 Li178 1.970 . S
O239 Li179 1.956 . S
O239 C214 1.325 . S
H240 C182 0.929 . S
H241 C183 0.930 . S
H242 C184 0.930 . S
H243 C185 0.930 . S
H244 C187 0.930 . S
H245 C189 0.929 . S
H246 C190 0.930 . S
H247 C191 0.930 . S
H248 C194 0.930 . S
H249 C197 0.929 . S
H250 C202 0.929 . S
H251 C203 0.930 . S
H252 C210 0.929 . S
H253 C211 0.930 . S
H254 C212 0.930 . S
H255 C213 0.930 . S
H256 C215 0.929 . S
H257 C216 0.930 . S
H258 C217 0.930 . S
H259 C218 0.930 . S
H260 C222 0.929 . S
H261 C224 0.930 . S
H262 C230 0.929 . S
H263 C231 0.930 . S
Li264 N281 1.990 . S
Li264 O324 1.956 . S
Li264 O325 1.970 . S
Li264 O326 1.961 . S
Li265 N289 1.990 . S
Li265 O324 1.970 . S
Li265 O325 1.956 . S
Li265 O327 1.961 . S
Li266 N311 1.990 . S
Li266 O324 1.961 . S
Li266 O326 1.956 . S
Li266 O327 1.970 . S
Li267 N317 1.990 . S
Li267 O325 1.961 . S
Li267 O326 1.970 . S
Li267 O327 1.956 . S
C268 C270 1.348 . S
C268 C271 1.356 . S
C268 O324 1.325 . S
N269 C272 1.314 . S
N269 C273 1.279 . S
C270 C268 1.348 . S
C270 C272 1.353 . S
C270 H328 0.929 . S
C271 C268 1.356 . S
C271 C273 1.358 . S
C271 H329 0.930 . S
C272 N269 1.314 . S
C272 C270 1.353 . S
C272 H330 0.930 . S
C273 N269 1.279 . S
C273 C271 1.358 . S
C273 H331 0.930 . S
C274 C277 1.348 . S
C274 C278 1.356 . S
C274 O325 1.325 . S
C275 N276 1.279 . S
C275 C278 1.358 . S
C275 H332 0.930 . S
N276 C275 1.279 . S
N276 C279 1.314 . S
C277 C274 1.348 . S
C277 C279 1.353 . S
C277 H333 0.929 . S
C278 C274 1.356 . S
C278 C275 1.358 . S
C278 H334 0.930 . S
C279 N276 1.314 . S
C279 C277 1.353 . S
C279 H335 0.930 . S
C280 N281 1.314 . S
C280 C285 1.353 . S
C280 H286 0.930 . S
N281 Li264 1.990 . S
N281 C280 1.314 . S
N281 C283 1.279 . S
C282 C283 1.358 . S
C282 C284 1.356 . S
C282 H336 0.930 . S
C283 N281 1.279 . S
C283 C282 1.358 . S
C283 H287 0.930 . S
C284 C282 1.356 . S
C284 C285 1.348 . S
C285 C280 1.353 . S
C285 C284 1.348 . S
C285 H337 0.929 . S
H286 C280 0.930 . S
H287 C283 0.930 . S
C288 N289 1.314 . S
C288 C290 1.353 . S
C288 H294 0.930 . S
N289 Li265 1.990 . S
N289 C288 1.314 . S
N289 C292 1.279 . S
C290 C288 1.353 . S
C290 C293 1.348 . S
C290 H338 0.929 . S
C291 C292 1.358 . S
C291 C293 1.356 . S
C291 H339 0.930 . S
C292 N289 1.279 . S
C292 C291 1.358 . S
C292 H295 0.930 . S
C293 C290 1.348 . S
C293 C291 1.356 . S
H294 C288 0.930 . S
H295 C292 0.930 . S
C296 C298 1.348 . S
C296 C299 1.356 . S
C296 O326 1.325 . S
N297 C300 1.314 . S
N297 C301 1.279 . S
C298 C296 1.348 . S
C298 C300 1.353 . S
C298 H340 0.929 . S
C299 C296 1.356 . S
C299 C301 1.358 . S
C299 H341 0.930 . S
C300 N297 1.314 . S
C300 C298 1.353 . S
C300 H342 0.930 . S
C301 N297 1.279 . S
C301 C299 1.358 . S
C301 H343 0.930 . S
C302 C303 1.348 . S
C302 C304 1.356 . S
C302 O327 1.325 . S
C303 C302 1.348 . S
C303 C305 1.353 . S
C303 H344 0.929 . S
C304 C302 1.356 . S
C304 C306 1.358 . S
C304 H345 0.930 . S
C305 C303 1.353 . S
C305 N307 1.314 . S
C305 H346 0.930 . S
C306 C304 1.358 . S
C306 N307 1.279 . S
C306 H347 0.930 . S
N307 C305 1.314 . S
N307 C306 1.279 . S
C308 C310 1.353 . S
C308 N311 1.314 . S
C308 H314 0.930 . S
C309 N311 1.279 . S
C309 C312 1.358 . S
C309 H315 0.930 . S
C310 C308 1.353 . S
C310 C313 1.348 . S
C310 H348 0.929 . S
N311 Li266 1.990 . S
N311 C308 1.314 . S
N311 C309 1.279 . S
C312 C309 1.358 . S
C312 C313 1.356 . S
C312 H349 0.930 . S
C313 C310 1.348 . S
C313 C312 1.356 . S
H314 C308 0.930 . S
H315 C309 0.930 . S
C316 N317 1.314 . S
C316 C318 1.353 . S
C316 H322 0.930 . S
N317 Li267 1.990 . S
N317 C316 1.314 . S
N317 C320 1.279 . S
C318 C316 1.353 . S
C318 C321 1.348 . S
C318 H350 0.929 . S
C319 C320 1.358 . S
C319 C321 1.356 . S
C319 H351 0.930 . S
C320 N317 1.279 . S
C320 C319 1.358 . S
C320 H323 0.930 . S
C321 C318 1.348 . S
C321 C319 1.356 . S
H322 C316 0.930 . S
H323 C320 0.930 . S
O324 Li264 1.956 . S
O324 Li265 1.970 . S
O324 Li266 1.961 . S
O324 C268 1.325 . S
O325 Li264 1.970 . S
O325 Li265 1.956 . S
O325 Li267 1.961 . S
O325 C274 1.325 . S
O326 Li264 1.961 . S
O326 Li266 1.956 . S
O326 Li267 1.970 . S
O326 C296 1.325 . S
O327 Li265 1.961 . S
O327 Li266 1.970 . S
O327 Li267 1.956 . S
O327 C302 1.325 . S
H328 C270 0.929 . S
H329 C271 0.930 . S
H330 C272 0.930 . S
H331 C273 0.930 . S
H332 C275 0.930 . S
H333 C277 0.929 . S
H334 C278 0.930 . S
H335 C279 0.930 . S
H336 C282 0.930 . S
H337 C285 0.929 . S
H338 C290 0.929 . S
H339 C291 0.930 . S
H340 C298 0.929 . S
H341 C299 0.930 . S
H342 C300 0.930 . S
H343 C301 0.930 . S
H344 C303 0.929 . S
H345 C304 0.930 . S
H346 C305 0.930 . S
H347 C306 0.930 . S
H348 C310 0.929 . S
H349 C312 0.930 . S
H350 C318 0.929 . S
H351 C319 0.930 . S
Li352 N369 1.990 . S
Li352 O412 1.956 . S
Li352 O413 1.970 . S
Li352 O414 1.961 1_455 S
Li353 N377 1.990 . S
Li353 O412 1.970 . S
Li353 O413 1.956 . S
Li353 O415 1.961 1_455 S
Li354 N399 1.990 . S
Li354 O412 1.961 1_655 S
Li354 O414 1.956 . S
Li354 O415 1.970 . S
Li355 N405 1.990 . S
Li355 O413 1.961 1_655 S
Li355 O414 1.970 . S
Li355 O415 1.956 . S
C356 C358 1.348 . S
C356 C359 1.356 . S
C356 O412 1.325 . S
N357 C360 1.314 . S
N357 C361 1.279 . S
C358 C356 1.348 . S
C358 C360 1.353 . S
C358 H416 0.929 . S
C359 C356 1.356 . S
C359 C361 1.358 . S
C359 H417 0.930 . S
C360 N357 1.314 . S
C360 C358 1.353 . S
C360 H418 0.930 . S
C361 N357 1.279 . S
C361 C359 1.358 . S
C361 H419 0.930 . S
C362 C365 1.348 . S
C362 C366 1.356 . S
C362 O413 1.325 . S
C363 N364 1.279 . S
C363 C366 1.358 . S
C363 H420 0.930 . S
N364 C363 1.279 . S
N364 C367 1.314 . S
C365 C362 1.348 . S
C365 C367 1.353 . S
C365 H421 0.929 . S
C366 C362 1.356 . S
C366 C363 1.358 . S
C366 H422 0.930 . S
C367 N364 1.314 . S
C367 C365 1.353 . S
C367 H423 0.930 . S
C368 N369 1.314 . S
C368 C373 1.353 . S
C368 H374 0.930 1_455 S
N369 Li352 1.990 . S
N369 C368 1.314 . S
N369 C371 1.279 . S
C370 C371 1.358 . S
C370 C372 1.356 . S
C370 H424 0.930 . S
C371 N369 1.279 . S
C371 C370 1.358 . S
C371 H375 0.930 . S
C372 C370 1.356 . S
C372 C373 1.348 . S
C373 C368 1.353 . S
C373 C372 1.348 . S
C373 H425 0.929 . S
H374 C368 0.930 1_655 S
H375 C371 0.930 . S
C376 N377 1.314 . S
C376 C378 1.353 . S
C376 H382 0.930 . S
N377 Li353 1.990 . S
N377 C376 1.314 . S
N377 C380 1.279 . S
C378 C376 1.353 . S
C378 C381 1.348 . S
C378 H426 0.929 . S
C379 C380 1.358 . S
C379 C381 1.356 . S
C379 H427 0.930 . S
C380 N377 1.279 . S
C380 C379 1.358 . S
C380 H383 0.930 . S
C381 C378 1.348 . S
C381 C379 1.356 . S
H382 C376 0.930 . S
H383 C380 0.930 . S
C384 C386 1.348 . S
C384 C387 1.356 . S
C384 O414 1.325 . S
N385 C388 1.314 . S
N385 C389 1.279 . S
C386 C384 1.348 . S
C386 C388 1.353 . S
C386 H428 0.929 . S
C387 C384 1.356 . S
C387 C389 1.358 . S
C387 H429 0.930 . S
C388 N385 1.314 . S
C388 C386 1.353 . S
C388 H430 0.930 . S
C389 N385 1.279 . S
C389 C387 1.358 . S
C389 H431 0.930 . S
C390 C391 1.348 . S
C390 C392 1.356 . S
C390 O415 1.325 . S
C391 C390 1.348 . S
C391 C393 1.353 . S
C391 H432 0.929 . S
C392 C390 1.356 . S
C392 C394 1.358 . S
C392 H433 0.930 . S
C393 C391 1.353 . S
C393 N395 1.314 . S
C393 H434 0.930 . S
C394 C392 1.358 . S
C394 N395 1.279 . S
C394 H435 0.930 . S
N395 C393 1.314 . S
N395 C394 1.279 . S
C396 C398 1.353 . S
C396 N399 1.314 . S
C396 H402 0.930 1_655 S
C397 N399 1.279 . S
C397 C400 1.358 . S
C397 H403 0.930 . S
C398 C396 1.353 . S
C398 C401 1.348 . S
C398 H436 0.929 . S
N399 Li354 1.990 . S
N399 C396 1.314 . S
N399 C397 1.279 . S
C400 C397 1.358 . S
C400 C401 1.356 . S
C400 H437 0.930 . S
C401 C398 1.348 . S
C401 C400 1.356 . S
H402 C396 0.930 1_455 S
H403 C397 0.930 . S
C404 N405 1.314 . S
C404 C406 1.353 . S
C404 H410 0.930 . S
N405 Li355 1.990 . S
N405 C404 1.314 . S
N405 C408 1.279 . S
C406 C404 1.353 . S
C406 C409 1.348 . S
C406 H438 0.929 . S
C407 C408 1.358 . S
C407 C409 1.356 . S
C407 H439 0.930 . S
C408 N405 1.279 . S
C408 C407 1.358 . S
C408 H411 0.930 . S
C409 C406 1.348 . S
C409 C407 1.356 . S
H410 C404 0.930 . S
H411 C408 0.930 . S
O412 Li352 1.956 . S
O412 Li353 1.970 . S
O412 Li354 1.961 1_455 S
O412 C356 1.325 . S
O413 Li352 1.970 . S
O413 Li353 1.956 . S
O413 Li355 1.961 1_455 S
O413 C362 1.325 . S
O414 Li352 1.961 1_655 S
O414 Li354 1.956 . S
O414 Li355 1.970 . S
O414 C384 1.325 . S
O415 Li353 1.961 1_655 S
O415 Li354 1.970 . S
O415 Li355 1.956 . S
O415 C390 1.325 . S
H416 C358 0.929 . S
H417 C359 0.930 . S
H418 C360 0.930 . S
H419 C361 0.930 . S
H420 C363 0.930 . S
H421 C365 0.929 . S
H422 C366 0.930 . S
H423 C367 0.930 . S
H424 C370 0.930 . S
H425 C373 0.929 . S
H426 C378 0.929 . S
H427 C379 0.930 . S
H428 C386 0.929 . S
H429 C387 0.930 . S
H430 C388 0.930 . S
H431 C389 0.930 . S
H432 C391 0.929 . S
H433 C392 0.930 . S
H434 C393 0.930 . S
H435 C394 0.930 . S
H436 C398 0.929 . S
H437 C400 0.930 . S
H438 C406 0.929 . S
H439 C407 0.930 . S
Li440 N457 1.990 . S
Li440 O500 1.956 . S
Li440 O501 1.970 . S
Li440 O502 1.961 . S
Li441 N465 1.990 . S
Li441 O500 1.970 . S
Li441 O501 1.956 . S
Li441 O503 1.961 . S
Li442 N487 1.990 . S
Li442 O500 1.961 . S
Li442 O502 1.956 . S
Li442 O503 1.970 . S
Li443 N493 1.990 . S
Li443 O501 1.961 . S
Li443 O502 1.970 . S
Li443 O503 1.956 . S
C444 C446 1.348 . S
C444 C447 1.356 . S
C444 O500 1.325 . S
N445 C448 1.314 . S
N445 C449 1.279 . S
C446 C444 1.348 . S
C446 C448 1.353 . S
C446 H504 0.929 . S
C447 C444 1.356 . S
C447 C449 1.358 . S
C447 H505 0.930 . S
C448 N445 1.314 . S
C448 C446 1.353 . S
C448 H506 0.930 . S
C449 N445 1.279 . S
C449 C447 1.358 . S
C449 H507 0.930 . S
C450 C453 1.348 . S
C450 C454 1.356 . S
C450 O501 1.325 . S
C451 N452 1.279 . S
C451 C454 1.358 . S
C451 H508 0.930 . S
N452 C451 1.279 . S
N452 C455 1.314 . S
C453 C450 1.348 . S
C453 C455 1.353 . S
C453 H509 0.929 . S
C454 C450 1.356 . S
C454 C451 1.358 . S
C454 H510 0.930 . S
C455 N452 1.314 . S
C455 C453 1.353 . S
C455 H511 0.930 . S
C456 N457 1.314 . S
C456 C461 1.353 . S
C456 H462 0.930 . S
N457 Li440 1.990 . S
N457 C456 1.314 . S
N457 C459 1.279 . S
C458 C459 1.358 . S
C458 C460 1.356 . S
C458 H512 0.930 . S
C459 N457 1.279 . S
C459 C458 1.358 . S
C459 H463 0.930 . S
C460 C458 1.356 . S
C460 C461 1.348 . S
C461 C456 1.353 . S
C461 C460 1.348 . S
C461 H513 0.929 . S
H462 C456 0.930 . S
H463 C459 0.930 . S
C464 N465 1.314 . S
C464 C466 1.353 . S
C464 H470 0.930 . S
N465 Li441 1.990 . S
N465 C464 1.314 . S
N465 C468 1.279 . S
C466 C464 1.353 . S
C466 C469 1.348 . S
C466 H514 0.929 . S
C467 C468 1.358 . S
C467 C469 1.356 . S
C467 H515 0.930 . S
C468 N465 1.279 . S
C468 C467 1.358 . S
C468 H471 0.930 . S
C469 C466 1.348 . S
C469 C467 1.356 . S
H470 C464 0.930 . S
H471 C468 0.930 . S
C472 C474 1.348 . S
C472 C475 1.356 . S
C472 O502 1.325 . S
N473 C476 1.314 . S
N473 C477 1.279 . S
C474 C472 1.348 . S
C474 C476 1.353 . S
C474 H516 0.929 . S
C475 C472 1.356 . S
C475 C477 1.358 . S
C475 H517 0.930 . S
C476 N473 1.314 . S
C476 C474 1.353 . S
C476 H518 0.930 . S
C477 N473 1.279 . S
C477 C475 1.358 . S
C477 H519 0.930 . S
C478 C479 1.348 . S
C478 C480 1.356 . S
C478 O503 1.325 . S
C479 C478 1.348 . S
C479 C481 1.353 . S
C479 H520 0.929 . S
C480 C478 1.356 . S
C480 C482 1.358 . S
C480 H521 0.930 . S
C481 C479 1.353 . S
C481 N483 1.314 . S
C481 H522 0.930 . S
C482 C480 1.358 . S
C482 N483 1.279 . S
C482 H523 0.930 . S
N483 C481 1.314 . S
N483 C482 1.279 . S
C484 C486 1.353 . S
C484 N487 1.314 . S
C484 H490 0.930 . S
C485 N487 1.279 . S
C485 C488 1.358 . S
C485 H491 0.930 . S
C486 C484 1.353 . S
C486 C489 1.348 . S
C486 H524 0.929 . S
N487 Li442 1.990 . S
N487 C484 1.314 . S
N487 C485 1.279 . S
C488 C485 1.358 . S
C488 C489 1.356 . S
C488 H525 0.930 . S
C489 C486 1.348 . S
C489 C488 1.356 . S
H490 C484 0.930 . S
H491 C485 0.930 . S
C492 N493 1.314 . S
C492 C494 1.353 . S
C492 H498 0.930 . S
N493 Li443 1.990 . S
N493 C492 1.314 . S
N493 C496 1.279 . S
C494 C492 1.353 . S
C494 C497 1.348 . S
C494 H526 0.929 . S
C495 C496 1.358 . S
C495 C497 1.356 . S
C495 H527 0.930 . S
C496 N493 1.279 . S
C496 C495 1.358 . S
C496 H499 0.930 . S
C497 C494 1.348 . S
C497 C495 1.356 . S
H498 C492 0.930 . S
H499 C496 0.930 . S
O500 Li440 1.956 . S
O500 Li441 1.970 . S
O500 Li442 1.961 . S
O500 C444 1.325 . S
O501 Li440 1.970 . S
O501 Li441 1.956 . S
O501 Li443 1.961 . S
O501 C450 1.325 . S
O502 Li440 1.961 . S
O502 Li442 1.956 . S
O502 Li443 1.970 . S
O502 C472 1.325 . S
O503 Li441 1.961 . S
O503 Li442 1.970 . S
O503 Li443 1.956 . S
O503 C478 1.325 . S
H504 C446 0.929 . S
H505 C447 0.930 . S
H506 C448 0.930 . S
H507 C449 0.930 . S
H508 C451 0.930 . S
H509 C453 0.929 . S
H510 C454 0.930 . S
H511 C455 0.930 . S
H512 C458 0.930 . S
H513 C461 0.929 . S
H514 C466 0.929 . S
H515 C467 0.930 . S
H516 C474 0.929 . S
H517 C475 0.930 . S
H518 C476 0.930 . S
H519 C477 0.930 . S
H520 C479 0.929 . S
H521 C480 0.930 . S
H522 C481 0.930 . S
H523 C482 0.930 . S
H524 C486 0.929 . S
H525 C488 0.930 . S
H526 C494 0.929 . S
H527 C495 0.930 . S
Li528 N545 1.990 . S
Li528 O588 1.956 . S
Li528 O589 1.970 . S
Li528 O590 1.961 . S
Li529 N553 1.990 . S
Li529 O588 1.970 . S
Li529 O589 1.956 . S
Li529 O591 1.961 . S
Li530 N575 1.990 . S
Li530 O588 1.961 . S
Li530 O590 1.956 . S
Li530 O591 1.970 . S
Li531 N581 1.990 . S
Li531 O589 1.961 . S
Li531 O590 1.970 . S
Li531 O591 1.956 . S
C532 C534 1.348 . S
C532 C535 1.356 . S
C532 O588 1.325 . S
N533 C536 1.314 . S
N533 C537 1.279 . S
C534 C532 1.348 . S
C534 C536 1.353 . S
C534 H592 0.929 . S
C535 C532 1.356 . S
C535 C537 1.358 . S
C535 H593 0.930 . S
C536 N533 1.314 . S
C536 C534 1.353 . S
C536 H594 0.930 . S
C537 N533 1.279 . S
C537 C535 1.358 . S
C537 H595 0.930 . S
C538 C541 1.348 . S
C538 C542 1.356 . S
C538 O589 1.325 . S
C539 N540 1.279 . S
C539 C542 1.358 . S
C539 H596 0.930 . S
N540 C539 1.279 . S
N540 C543 1.314 . S
C541 C538 1.348 . S
C541 C543 1.353 . S
C541 H597 0.929 . S
C542 C538 1.356 . S
C542 C539 1.358 . S
C542 H598 0.930 . S
C543 N540 1.314 . S
C543 C541 1.353 . S
C543 H599 0.930 . S
C544 N545 1.314 . S
C544 C549 1.353 . S
C544 H550 0.930 . S
N545 Li528 1.990 . S
N545 C544 1.314 . S
N545 C547 1.279 . S
C546 C547 1.358 . S
C546 C548 1.356 . S
C546 H600 0.930 . S
C547 N545 1.279 . S
C547 C546 1.358 . S
C547 H551 0.930 . S
C548 C546 1.356 . S
C548 C549 1.348 . S
C549 C544 1.353 . S
C549 C548 1.348 . S
C549 H601 0.929 . S
H550 C544 0.930 . S
H551 C547 0.930 . S
C552 N553 1.314 . S
C552 C554 1.353 . S
C552 H558 0.930 . S
N553 Li529 1.990 . S
N553 C552 1.314 . S
N553 C556 1.279 . S
C554 C552 1.353 . S
C554 C557 1.348 . S
C554 H602 0.929 . S
C555 C556 1.358 . S
C555 C557 1.356 . S
C555 H603 0.930 . S
C556 N553 1.279 . S
C556 C555 1.358 . S
C556 H559 0.930 . S
C557 C554 1.348 . S
C557 C555 1.356 . S
H558 C552 0.930 . S
H559 C556 0.930 . S
C560 C562 1.348 . S
C560 C563 1.356 . S
C560 O590 1.325 . S
N561 C564 1.314 . S
N561 C565 1.279 . S
C562 C560 1.348 . S
C562 C564 1.353 . S
C562 H604 0.929 . S
C563 C560 1.356 . S
C563 C565 1.358 . S
C563 H605 0.930 . S
C564 N561 1.314 . S
C564 C562 1.353 . S
C564 H606 0.930 . S
C565 N561 1.279 . S
C565 C563 1.358 . S
C565 H607 0.930 . S
C566 C567 1.348 . S
C566 C568 1.356 . S
C566 O591 1.325 . S
C567 C566 1.348 . S
C567 C569 1.353 . S
C567 H608 0.929 . S
C568 C566 1.356 . S
C568 C570 1.358 . S
C568 H609 0.930 . S
C569 C567 1.353 . S
C569 N571 1.314 . S
C569 H610 0.930 . S
C570 C568 1.358 . S
C570 N571 1.279 . S
C570 H611 0.930 . S
N571 C569 1.314 . S
N571 C570 1.279 . S
C572 C574 1.353 . S
C572 N575 1.314 . S
C572 H578 0.930 . S
C573 N575 1.279 . S
C573 C576 1.358 . S
C573 H579 0.930 . S
C574 C572 1.353 . S
C574 C577 1.348 . S
C574 H612 0.929 . S
N575 Li530 1.990 . S
N575 C572 1.314 . S
N575 C573 1.279 . S
C576 C573 1.358 . S
C576 C577 1.356 . S
C576 H613 0.930 . S
C577 C574 1.348 . S
C577 C576 1.356 . S
H578 C572 0.930 . S
H579 C573 0.930 . S
C580 N581 1.314 . S
C580 C582 1.353 . S
C580 H586 0.930 . S
N581 Li531 1.990 . S
N581 C580 1.314 . S
N581 C584 1.279 . S
C582 C580 1.353 . S
C582 C585 1.348 . S
C582 H614 0.929 . S
C583 C584 1.358 . S
C583 C585 1.356 . S
C583 H615 0.930 . S
C584 N581 1.279 . S
C584 C583 1.358 . S
C584 H587 0.930 . S
C585 C582 1.348 . S
C585 C583 1.356 . S
H586 C580 0.930 . S
H587 C584 0.930 . S
O588 Li528 1.956 . S
O588 Li529 1.970 . S
O588 Li530 1.961 . S
O588 C532 1.325 . S
O589 Li528 1.970 . S
O589 Li529 1.956 . S
O589 Li531 1.961 . S
O589 C538 1.325 . S
O590 Li528 1.961 . S
O590 Li530 1.956 . S
O590 Li531 1.970 . S
O590 C560 1.325 . S
O591 Li529 1.961 . S
O591 Li530 1.970 . S
O591 Li531 1.956 . S
O591 C566 1.325 . S
H592 C534 0.929 . S
H593 C535 0.930 . S
H594 C536 0.930 . S
H595 C537 0.930 . S
H596 C539 0.930 . S
H597 C541 0.929 . S
H598 C542 0.930 . S
H599 C543 0.930 . S
H600 C546 0.930 . S
H601 C549 0.929 . S
H602 C554 0.929 . S
H603 C555 0.930 . S
H604 C562 0.929 . S
H605 C563 0.930 . S
H606 C564 0.930 . S
H607 C565 0.930 . S
H608 C567 0.929 . S
H609 C568 0.930 . S
H610 C569 0.930 . S
H611 C570 0.930 . S
H612 C574 0.929 . S
H613 C576 0.930 . S
H614 C582 0.929 . S
H615 C583 0.930 . S
Li616 N633 1.990 . S
Li616 O676 1.956 1_655 S
Li616 O677 1.970 . S
Li616 O678 1.961 . S
Li617 N641 1.990 . S
Li617 O676 1.970 . S
Li617 O677 1.956 1_455 S
Li617 O679 1.961 . S
Li618 N663 1.990 . S
Li618 O676 1.961 . S
Li618 O678 1.956 1_455 S
Li618 O679 1.970 . S
Li619 N669 1.990 . S
Li619 O677 1.961 . S
Li619 O678 1.970 . S
Li619 O679 1.956 1_655 S
C620 C622 1.348 . S
C620 C623 1.356 . S
C620 O676 1.325 . S
N621 C624 1.314 . S
N621 C625 1.279 . S
C622 C620 1.348 . S
C622 C624 1.353 . S
C622 H680 0.929 . S
C623 C620 1.356 . S
C623 C625 1.358 . S
C623 H681 0.930 . S
C624 N621 1.314 . S
C624 C622 1.353 . S
C624 H682 0.930 . S
C625 N621 1.279 . S
C625 C623 1.358 . S
C625 H683 0.930 . S
C626 C629 1.348 . S
C626 C630 1.356 . S
C626 O677 1.325 . S
C627 N628 1.279 . S
C627 C630 1.358 . S
C627 H684 0.930 . S
N628 C627 1.279 . S
N628 C631 1.314 . S
C629 C626 1.348 . S
C629 C631 1.353 . S
C629 H685 0.929 . S
C630 C626 1.356 . S
C630 C627 1.358 . S
C630 H686 0.930 . S
C631 N628 1.314 . S
C631 C629 1.353 . S
C631 H687 0.930 . S
C632 N633 1.314 . S
C632 C637 1.353 . S
C632 H638 0.930 . S
N633 Li616 1.990 . S
N633 C632 1.314 . S
N633 C635 1.279 . S
C634 C635 1.358 . S
C634 C636 1.356 . S
C634 H688 0.930 . S
C635 N633 1.279 . S
C635 C634 1.358 . S
C635 H639 0.930 1_655 S
C636 C634 1.356 . S
C636 C637 1.348 . S
C637 C632 1.353 . S
C637 C636 1.348 . S
C637 H689 0.929 . S
H638 C632 0.930 . S
H639 C635 0.930 1_455 S
C640 N641 1.314 . S
C640 C642 1.353 . S
C640 H646 0.930 . S
N641 Li617 1.990 . S
N641 C640 1.314 . S
N641 C644 1.279 . S
C642 C640 1.353 . S
C642 C645 1.348 . S
C642 H690 0.929 . S
C643 C644 1.358 . S
C643 C645 1.356 . S
C643 H691 0.930 . S
C644 N641 1.279 . S
C644 C643 1.358 . S
C644 H647 0.930 . S
C645 C642 1.348 . S
C645 C643 1.356 . S
H646 C640 0.930 . S
H647 C644 0.930 . S
C648 C650 1.348 . S
C648 C651 1.356 . S
C648 O678 1.325 . S
N649 C652 1.314 . S
N649 C653 1.279 . S
C650 C648 1.348 . S
C650 C652 1.353 . S
C650 H692 0.929 . S
C651 C648 1.356 . S
C651 C653 1.358 . S
C651 H693 0.930 . S
C652 N649 1.314 . S
C652 C650 1.353 . S
C652 H694 0.930 . S
C653 N649 1.279 . S
C653 C651 1.358 . S
C653 H695 0.930 . S
C654 C655 1.348 . S
C654 C656 1.356 . S
C654 O679 1.325 . S
C655 C654 1.348 . S
C655 C657 1.353 . S
C655 H696 0.929 . S
C656 C654 1.356 . S
C656 C658 1.358 . S
C656 H697 0.930 . S
C657 C655 1.353 . S
C657 N659 1.314 . S
C657 H698 0.930 . S
C658 C656 1.358 . S
C658 N659 1.279 . S
C658 H699 0.930 . S
N659 C657 1.314 . S
N659 C658 1.279 . S
C660 C662 1.353 . S
C660 N663 1.314 . S
C660 H666 0.930 . S
C661 N663 1.279 . S
C661 C664 1.358 . S
C661 H667 0.930 1_455 S
C662 C660 1.353 . S
C662 C665 1.348 . S
C662 H700 0.929 . S
N663 Li618 1.990 . S
N663 C660 1.314 . S
N663 C661 1.279 . S
C664 C661 1.358 . S
C664 C665 1.356 . S
C664 H701 0.930 . S
C665 C662 1.348 . S
C665 C664 1.356 . S
H666 C660 0.930 . S
H667 C661 0.930 1_655 S
C668 N669 1.314 . S
C668 C670 1.353 . S
C668 H674 0.930 . S
N669 Li619 1.990 . S
N669 C668 1.314 . S
N669 C672 1.279 . S
C670 C668 1.353 . S
C670 C673 1.348 . S
C670 H702 0.929 . S
C671 C672 1.358 . S
C671 C673 1.356 . S
C671 H703 0.930 . S
C672 N669 1.279 . S
C672 C671 1.358 . S
C672 H675 0.930 . S
C673 C670 1.348 . S
C673 C671 1.356 . S
H674 C668 0.930 . S
H675 C672 0.930 . S
O676 Li616 1.956 1_455 S
O676 Li617 1.970 . S
O676 Li618 1.961 . S
O676 C620 1.325 . S
O677 Li616 1.970 . S
O677 Li617 1.956 1_655 S
O677 Li619 1.961 . S
O677 C626 1.325 . S
O678 Li616 1.961 . S
O678 Li618 1.956 1_655 S
O678 Li619 1.970 . S
O678 C648 1.325 . S
O679 Li617 1.961 . S
O679 Li618 1.970 . S
O679 Li619 1.956 1_455 S
O679 C654 1.325 . S
H680 C622 0.929 . S
H681 C623 0.930 . S
H682 C624 0.930 . S
H683 C625 0.930 . S
H684 C627 0.930 . S
H685 C629 0.929 . S
H686 C630 0.930 . S
H687 C631 0.930 . S
H688 C634 0.930 . S
H689 C637 0.929 . S
H690 C642 0.929 . S
H691 C643 0.930 . S
H692 C650 0.929 . S
H693 C651 0.930 . S
H694 C652 0.930 . S
H695 C653 0.930 . S
H696 C655 0.929 . S
H697 C656 0.930 . S
H698 C657 0.930 . S
H699 C658 0.930 . S
H700 C662 0.929 . S
H701 C664 0.930 . S
H702 C670 0.929 . S
H703 C671 0.930 . S
Li704 N721 1.990 . S
Li704 O764 1.956 . S
Li704 O765 1.970 . S
Li704 O766 1.961 1_545 S
Li705 N729 1.990 . S
Li705 O764 1.970 . S
Li705 O765 1.956 . S
Li705 O767 1.961 1_545 S
Li706 N751 1.990 . S
Li706 O764 1.961 1_565 S
Li706 O766 1.956 . S
Li706 O767 1.970 . S
Li707 N757 1.990 . S
Li707 O765 1.961 1_565 S
Li707 O766 1.970 . S
Li707 O767 1.956 . S
C708 C710 1.348 . S
C708 C711 1.356 . S
C708 O764 1.325 . S
N709 C712 1.314 . S
N709 C713 1.279 . S
C710 C708 1.348 . S
C710 C712 1.353 . S
C710 H768 0.929 . S
C711 C708 1.356 . S
C711 C713 1.358 . S
C711 H769 0.930 . S
C712 N709 1.314 . S
C712 C710 1.353 . S
C712 H770 0.930 . S
C713 N709 1.279 . S
C713 C711 1.358 . S
C713 H771 0.930 . S
C714 C717 1.348 . S
C714 C718 1.356 . S
C714 O765 1.325 . S
C715 N716 1.279 . S
C715 C718 1.358 . S
C715 H772 0.930 . S
N716 C715 1.279 . S
N716 C719 1.314 . S
C717 C714 1.348 . S
C717 C719 1.353 . S
C717 H773 0.929 . S
C718 C714 1.356 . S
C718 C715 1.358 . S
C718 H774 0.930 . S
C719 N716 1.314 . S
C719 C717 1.353 . S
C719 H775 0.930 . S
C720 N721 1.314 . S
C720 C725 1.353 . S
C720 H726 0.930 . S
N721 Li704 1.990 . S
N721 C720 1.314 . S
N721 C723 1.279 . S
C722 C723 1.358 . S
C722 C724 1.356 . S
C722 H776 0.930 . S
C723 N721 1.279 . S
C723 C722 1.358 . S
C723 H727 0.930 . S
C724 C722 1.356 . S
C724 C725 1.348 . S
C725 C720 1.353 . S
C725 C724 1.348 . S
C725 H777 0.929 . S
H726 C720 0.930 . S
H727 C723 0.930 . S
C728 N729 1.314 . S
C728 C730 1.353 . S
C728 H734 0.930 1_545 S
N729 Li705 1.990 . S
N729 C728 1.314 . S
N729 C732 1.279 . S
C730 C728 1.353 . S
C730 C733 1.348 . S
C730 H778 0.929 . S
C731 C732 1.358 . S
C731 C733 1.356 . S
C731 H779 0.930 . S
C732 N729 1.279 . S
C732 C731 1.358 . S
C732 H735 0.930 . S
C733 C730 1.348 . S
C733 C731 1.356 . S
H734 C728 0.930 1_565 S
H735 C732 0.930 . S
C736 C738 1.348 . S
C736 C739 1.356 . S
C736 O766 1.325 . S
N737 C740 1.314 . S
N737 C741 1.279 . S
C738 C736 1.348 . S
C738 C740 1.353 . S
C738 H780 0.929 . S
C739 C736 1.356 . S
C739 C741 1.358 . S
C739 H781 0.930 . S
C740 N737 1.314 . S
C740 C738 1.353 . S
C740 H782 0.930 . S
C741 N737 1.279 . S
C741 C739 1.358 . S
C741 H783 0.930 . S
C742 C743 1.348 . S
C742 C744 1.356 . S
C742 O767 1.325 . S
C743 C742 1.348 . S
C743 C745 1.353 . S
C743 H784 0.929 . S
C744 C742 1.356 . S
C744 C746 1.358 . S
C744 H785 0.930 . S
C745 C743 1.353 . S
C745 N747 1.314 . S
C745 H786 0.930 . S
C746 C744 1.358 . S
C746 N747 1.279 . S
C746 H787 0.930 . S
N747 C745 1.314 . S
N747 C746 1.279 . S
C748 C750 1.353 . S
C748 N751 1.314 . S
C748 H754 0.930 . S
C749 N751 1.279 . S
C749 C752 1.358 . S
C749 H755 0.930 . S
C750 C748 1.353 . S
C750 C753 1.348 . S
C750 H788 0.929 . S
N751 Li706 1.990 . S
N751 C748 1.314 . S
N751 C749 1.279 . S
C752 C749 1.358 . S
C752 C753 1.356 . S
C752 H789 0.930 . S
C753 C750 1.348 . S
C753 C752 1.356 . S
H754 C748 0.930 . S
H755 C749 0.930 . S
C756 N757 1.314 . S
C756 C758 1.353 . S
C756 H762 0.930 1_565 S
N757 Li707 1.990 . S
N757 C756 1.314 . S
N757 C760 1.279 . S
C758 C756 1.353 . S
C758 C761 1.348 . S
C758 H790 0.929 . S
C759 C760 1.358 . S
C759 C761 1.356 . S
C759 H791 0.930 . S
C760 N757 1.279 . S
C760 C759 1.358 . S
C760 H763 0.930 . S
C761 C758 1.348 . S
C761 C759 1.356 . S
H762 C756 0.930 1_545 S
H763 C760 0.930 . S
O764 Li704 1.956 . S
O764 Li705 1.970 . S
O764 Li706 1.961 1_545 S
O764 C708 1.325 . S
O765 Li704 1.970 . S
O765 Li705 1.956 . S
O765 Li707 1.961 1_545 S
O765 C714 1.325 . S
O766 Li704 1.961 1_565 S
O766 Li706 1.956 . S
O766 Li707 1.970 . S
O766 C736 1.325 . S
O767 Li705 1.961 1_565 S
O767 Li706 1.970 . S
O767 Li707 1.956 . S
O767 C742 1.325 . S
H768 C710 0.929 . S
H769 C711 0.930 . S
H770 C712 0.930 . S
H771 C713 0.930 . S
H772 C715 0.930 . S
H773 C717 0.929 . S
H774 C718 0.930 . S
H775 C719 0.930 . S
H776 C722 0.930 . S
H777 C725 0.929 . S
H778 C730 0.929 . S
H779 C731 0.930 . S
H780 C738 0.929 . S
H781 C739 0.930 . S
H782 C740 0.930 . S
H783 C741 0.930 . S
H784 C743 0.929 . S
H785 C744 0.930 . S
H786 C745 0.930 . S
H787 C746 0.930 . S
H788 C750 0.929 . S
H789 C752 0.930 . S
H790 C758 0.929 . S
H791 C759 0.930 . S
Li792 N809 1.990 . S
Li792 O852 1.956 . S
Li792 O853 1.970 . S
Li792 O854 1.961 . S
Li793 N817 1.990 . S
Li793 O852 1.970 . S
Li793 O853 1.956 . S
Li793 O855 1.961 . S
Li794 N839 1.990 . S
Li794 O852 1.961 . S
Li794 O854 1.956 . S
Li794 O855 1.970 . S
Li795 N845 1.990 . S
Li795 O853 1.961 . S
Li795 O854 1.970 . S
Li795 O855 1.956 . S
C796 C798 1.348 . S
C796 C799 1.356 . S
C796 O852 1.325 . S
N797 C800 1.314 . S
N797 C801 1.279 . S
C798 C796 1.348 . S
C798 C800 1.353 . S
C798 H856 0.929 . S
C799 C796 1.356 . S
C799 C801 1.358 . S
C799 H857 0.930 . S
C800 N797 1.314 . S
C800 C798 1.353 . S
C800 H858 0.930 . S
C801 N797 1.279 . S
C801 C799 1.358 . S
C801 H859 0.930 . S
C802 C805 1.348 . S
C802 C806 1.356 . S
C802 O853 1.325 . S
C803 N804 1.279 . S
C803 C806 1.358 . S
C803 H860 0.930 . S
N804 C803 1.279 . S
N804 C807 1.314 . S
C805 C802 1.348 . S
C805 C807 1.353 . S
C805 H861 0.929 . S
C806 C802 1.356 . S
C806 C803 1.358 . S
C806 H862 0.930 . S
C807 N804 1.314 . S
C807 C805 1.353 . S
C807 H863 0.930 . S
C808 N809 1.314 . S
C808 C813 1.353 . S
C808 H814 0.930 . S
N809 Li792 1.990 . S
N809 C808 1.314 . S
N809 C811 1.279 . S
C810 C811 1.358 . S
C810 C812 1.356 . S
C810 H864 0.930 . S
C811 N809 1.279 . S
C811 C810 1.358 . S
C811 H815 0.930 . S
C812 C810 1.356 . S
C812 C813 1.348 . S
C813 C808 1.353 . S
C813 C812 1.348 . S
C813 H865 0.929 . S
H814 C808 0.930 . S
H815 C811 0.930 . S
C816 N817 1.314 . S
C816 C818 1.353 . S
C816 H822 0.930 . S
N817 Li793 1.990 . S
N817 C816 1.314 . S
N817 C820 1.279 . S
C818 C816 1.353 . S
C818 C821 1.348 . S
C818 H866 0.929 . S
C819 C820 1.358 . S
C819 C821 1.356 . S
C819 H867 0.930 . S
C820 N817 1.279 . S
C820 C819 1.358 . S
C820 H823 0.930 . S
C821 C818 1.348 . S
C821 C819 1.356 . S
H822 C816 0.930 . S
H823 C820 0.930 . S
C824 C826 1.348 . S
C824 C827 1.356 . S
C824 O854 1.325 . S
N825 C828 1.314 . S
N825 C829 1.279 . S
C826 C824 1.348 . S
C826 C828 1.353 . S
C826 H868 0.929 . S
C827 C824 1.356 . S
C827 C829 1.358 . S
C827 H869 0.930 . S
C828 N825 1.314 . S
C828 C826 1.353 . S
C828 H870 0.930 . S
C829 N825 1.279 . S
C829 C827 1.358 . S
C829 H871 0.930 . S
C830 C831 1.348 . S
C830 C832 1.356 . S
C830 O855 1.325 . S
C831 C830 1.348 . S
C831 C833 1.353 . S
C831 H872 0.929 . S
C832 C830 1.356 . S
C832 C834 1.358 . S
C832 H873 0.930 . S
C833 C831 1.353 . S
C833 N835 1.314 . S
C833 H874 0.930 . S
C834 C832 1.358 . S
C834 N835 1.279 . S
C834 H875 0.930 . S
N835 C833 1.314 . S
N835 C834 1.279 . S
C836 C838 1.353 . S
C836 N839 1.314 . S
C836 H842 0.930 . S
C837 N839 1.279 . S
C837 C840 1.358 . S
C837 H843 0.930 . S
C838 C836 1.353 . S
C838 C841 1.348 . S
C838 H876 0.929 . S
N839 Li794 1.990 . S
N839 C836 1.314 . S
N839 C837 1.279 . S
C840 C837 1.358 . S
C840 C841 1.356 . S
C840 H877 0.930 . S
C841 C838 1.348 . S
C841 C840 1.356 . S
H842 C836 0.930 . S
H843 C837 0.930 . S
C844 N845 1.314 . S
C844 C846 1.353 . S
C844 H850 0.930 . S
N845 Li795 1.990 . S
N845 C844 1.314 . S
N845 C848 1.279 . S
C846 C844 1.353 . S
C846 C849 1.348 . S
C846 H878 0.929 . S
C847 C848 1.358 . S
C847 C849 1.356 . S
C847 H879 0.930 . S
C848 N845 1.279 . S
C848 C847 1.358 . S
C848 H851 0.930 . S
C849 C846 1.348 . S
C849 C847 1.356 . S
H850 C844 0.930 . S
H851 C848 0.930 . S
O852 Li792 1.956 . S
O852 Li793 1.970 . S
O852 Li794 1.961 . S
O852 C796 1.325 . S
O853 Li792 1.970 . S
O853 Li793 1.956 . S
O853 Li795 1.961 . S
O853 C802 1.325 . S
O854 Li792 1.961 . S
O854 Li794 1.956 . S
O854 Li795 1.970 . S
O854 C824 1.325 . S
O855 Li793 1.961 . S
O855 Li794 1.970 . S
O855 Li795 1.956 . S
O855 C830 1.325 . S
H856 C798 0.929 . S
H857 C799 0.930 . S
H858 C800 0.930 . S
H859 C801 0.930 . S
H860 C803 0.930 . S
H861 C805 0.929 . S
H862 C806 0.930 . S
H863 C807 0.930 . S
H864 C810 0.930 . S
H865 C813 0.929 . S
H866 C818 0.929 . S
H867 C819 0.930 . S
H868 C826 0.929 . S
H869 C827 0.930 . S
H870 C828 0.930 . S
H871 C829 0.930 . S
H872 C831 0.929 . S
H873 C832 0.930 . S
H874 C833 0.930 . S
H875 C834 0.930 . S
H876 C838 0.929 . S
H877 C840 0.930 . S
H878 C846 0.929 . S
H879 C847 0.930 . S
Li880 N897 1.990 . S
Li880 O940 1.956 . S
Li880 O941 1.970 . S
Li880 O942 1.961 1_545 S
Li881 N905 1.990 . S
Li881 O940 1.970 . S
Li881 O941 1.956 . S
Li881 O943 1.961 1_545 S
Li882 N927 1.990 . S
Li882 O940 1.961 1_565 S
Li882 O942 1.956 . S
Li882 O943 1.970 . S
Li883 N933 1.990 . S
Li883 O941 1.961 1_565 S
Li883 O942 1.970 . S
Li883 O943 1.956 . S
C884 C886 1.348 . S
C884 C887 1.356 . S
C884 O940 1.325 . S
N885 C888 1.314 . S
N885 C889 1.279 . S
C886 C884 1.348 . S
C886 C888 1.353 . S
C886 H944 0.929 . S
C887 C884 1.356 . S
C887 C889 1.358 . S
C887 H945 0.930 . S
C888 N885 1.314 . S
C888 C886 1.353 . S
C888 H946 0.930 . S
C889 N885 1.279 . S
C889 C887 1.358 . S
C889 H947 0.930 . S
C890 C893 1.348 . S
C890 C894 1.356 . S
C890 O941 1.325 . S
C891 N892 1.279 . S
C891 C894 1.358 . S
C891 H948 0.930 . S
N892 C891 1.279 . S
N892 C895 1.314 . S
C893 C890 1.348 . S
C893 C895 1.353 . S
C893 H949 0.929 . S
C894 C890 1.356 . S
C894 C891 1.358 . S
C894 H950 0.930 . S
C895 N892 1.314 . S
C895 C893 1.353 . S
C895 H951 0.930 . S
C896 N897 1.314 . S
C896 C901 1.353 . S
C896 H902 0.930 1_545 S
N897 Li880 1.990 . S
N897 C896 1.314 . S
N897 C899 1.279 . S
C898 C899 1.358 . S
C898 C900 1.356 . S
C898 H952 0.930 . S
C899 N897 1.279 . S
C899 C898 1.358 . S
C899 H903 0.930 . S
C900 C898 1.356 . S
C900 C901 1.348 . S
C901 C896 1.353 . S
C901 C900 1.348 . S
C901 H953 0.929 . S
H902 C896 0.930 1_565 S
H903 C899 0.930 . S
C904 N905 1.314 . S
C904 C906 1.353 . S
C904 H910 0.930 . S
N905 Li881 1.990 . S
N905 C904 1.314 . S
N905 C908 1.279 . S
C906 C904 1.353 . S
C906 C909 1.348 . S
C906 H954 0.929 . S
C907 C908 1.358 . S
C907 C909 1.356 . S
C907 H955 0.930 . S
C908 N905 1.279 . S
C908 C907 1.358 . S
C908 H911 0.930 . S
C909 C906 1.348 . S
C909 C907 1.356 . S
H910 C904 0.930 . S
H911 C908 0.930 . S
C912 C914 1.348 . S
C912 C915 1.356 . S
C912 O942 1.325 . S
N913 C916 1.314 . S
N913 C917 1.279 . S
C914 C912 1.348 . S
C914 C916 1.353 . S
C914 H956 0.929 . S
C915 C912 1.356 . S
C915 C917 1.358 . S
C915 H957 0.930 . S
C916 N913 1.314 . S
C916 C914 1.353 . S
C916 H958 0.930 . S
C917 N913 1.279 . S
C917 C915 1.358 . S
C917 H959 0.930 . S
C918 C919 1.348 . S
C918 C920 1.356 . S
C918 O943 1.325 . S
C919 C918 1.348 . S
C919 C921 1.353 . S
C919 H960 0.929 . S
C920 C918 1.356 . S
C920 C922 1.358 . S
C920 H961 0.930 . S
C921 C919 1.353 . S
C921 N923 1.314 . S
C921 H962 0.930 . S
C922 C920 1.358 . S
C922 N923 1.279 . S
C922 H963 0.930 . S
N923 C921 1.314 . S
N923 C922 1.279 . S
C924 C926 1.353 . S
C924 N927 1.314 . S
C924 H930 0.930 1_565 S
C925 N927 1.279 . S
C925 C928 1.358 . S
C925 H931 0.930 . S
C926 C924 1.353 . S
C926 C929 1.348 . S
C926 H964 0.929 . S
N927 Li882 1.990 . S
N927 C924 1.314 . S
N927 C925 1.279 . S
C928 C925 1.358 . S
C928 C929 1.356 . S
C928 H965 0.930 . S
C929 C926 1.348 . S
C929 C928 1.356 . S
H930 C924 0.930 1_545 S
H931 C925 0.930 . S
C932 N933 1.314 . S
C932 C934 1.353 . S
C932 H938 0.930 . S
N933 Li883 1.990 . S
N933 C932 1.314 . S
N933 C936 1.279 . S
C934 C932 1.353 . S
C934 C937 1.348 . S
C934 H966 0.929 . S
C935 C936 1.358 . S
C935 C937 1.356 . S
C935 H967 0.930 . S
C936 N933 1.279 . S
C936 C935 1.358 . S
C936 H939 0.930 . S
C937 C934 1.348 . S
C937 C935 1.356 . S
H938 C932 0.930 . S
H939 C936 0.930 . S
O940 Li880 1.956 . S
O940 Li881 1.970 . S
O940 Li882 1.961 1_545 S
O940 C884 1.325 . S
O941 Li880 1.970 . S
O941 Li881 1.956 . S
O941 Li883 1.961 1_545 S
O941 C890 1.325 . S
O942 Li880 1.961 1_565 S
O942 Li882 1.956 . S
O942 Li883 1.970 . S
O942 C912 1.325 . S
O943 Li881 1.961 1_565 S
O943 Li882 1.970 . S
O943 Li883 1.956 . S
O943 C918 1.325 . S
H944 C886 0.929 . S
H945 C887 0.930 . S
H946 C888 0.930 . S
H947 C889 0.930 . S
H948 C891 0.930 . S
H949 C893 0.929 . S
H950 C894 0.930 . S
H951 C895 0.930 . S
H952 C898 0.930 . S
H953 C901 0.929 . S
H954 C906 0.929 . S
H955 C907 0.930 . S
H956 C914 0.929 . S
H957 C915 0.930 . S
H958 C916 0.930 . S
H959 C917 0.930 . S
H960 C919 0.929 . S
H961 C920 0.930 . S
H962 C921 0.930 . S
H963 C922 0.930 . S
H964 C926 0.929 . S
H965 C928 0.930 . S
H966 C934 0.929 . S
H967 C935 0.930 . S
Li968 N985 1.990 . S
Li968 O1028 1.956 1_556 S
Li968 O1029 1.970 . S
Li968 O1030 1.961 . S
Li969 N993 1.990 . S
Li969 O1028 1.970 . S
Li969 O1029 1.956 1_554 S
Li969 O1031 1.961 . S
Li970 N1015 1.990 . S
Li970 O1028 1.961 . S
Li970 O1030 1.956 1_554 S
Li970 O1031 1.970 . S
Li971 N1021 1.990 . S
Li971 O1029 1.961 . S
Li971 O1030 1.970 . S
Li971 O1031 1.956 1_556 S
C972 C974 1.348 . S
C972 C975 1.356 . S
C972 O1028 1.325 . S
N973 C976 1.314 . S
N973 C977 1.279 . S
C974 C972 1.348 . S
C974 C976 1.353 . S
C974 H1032 0.929 . S
C975 C972 1.356 . S
C975 C977 1.358 . S
C975 H1033 0.930 . S
C976 N973 1.314 . S
C976 C974 1.353 . S
C976 H1034 0.930 . S
C977 N973 1.279 . S
C977 C975 1.358 . S
C977 H1035 0.930 . S
C978 C981 1.348 . S
C978 C982 1.356 . S
C978 O1029 1.325 . S
C979 N980 1.279 . S
C979 C982 1.358 . S
C979 H1036 0.930 . S
N980 C979 1.279 . S
N980 C983 1.314 . S
C981 C978 1.348 . S
C981 C983 1.353 . S
C981 H1037 0.929 . S
C982 C978 1.356 . S
C982 C979 1.358 . S
C982 H1038 0.930 . S
C983 N980 1.314 . S
C983 C981 1.353 . S
C983 H1039 0.930 . S
C984 N985 1.314 . S
C984 C989 1.353 . S
C984 H990 0.930 . S
N985 Li968 1.990 . S
N985 C984 1.314 . S
N985 C987 1.279 . S
C986 C987 1.358 . S
C986 C988 1.356 . S
C986 H1040 0.930 . S
C987 N985 1.279 . S
C987 C986 1.358 . S
C987 H991 0.930 1_556 S
C988 C986 1.356 . S
C988 C989 1.348 . S
C989 C984 1.353 . S
C989 C988 1.348 . S
C989 H1041 0.929 . S
H990 C984 0.930 . S
H991 C987 0.930 1_554 S
C992 N993 1.314 . S
C992 C994 1.353 . S
C992 H998 0.930 . S
N993 Li969 1.990 . S
N993 C992 1.314 . S
N993 C996 1.279 . S
C994 C992 1.353 . S
C994 C997 1.348 . S
C994 H1042 0.929 . S
C995 C996 1.358 . S
C995 C997 1.356 . S
C995 H1043 0.930 . S
C996 N993 1.279 . S
C996 C995 1.358 . S
C996 H999 0.930 . S
C997 C994 1.348 . S
C997 C995 1.356 . S
H998 C992 0.930 . S
H999 C996 0.930 . S
C1000 C1002 1.348 . S
C1000 C1003 1.356 . S
C1000 O1030 1.325 . S
N1001 C1004 1.314 . S
N1001 C1005 1.279 . S
C1002 C1000 1.348 . S
C1002 C1004 1.353 . S
C1002 H1044 0.929 . S
C1003 C1000 1.356 . S
C1003 C1005 1.358 . S
C1003 H1045 0.930 . S
C1004 N1001 1.314 . S
C1004 C1002 1.353 . S
C1004 H1046 0.930 . S
C1005 N1001 1.279 . S
C1005 C1003 1.358 . S
C1005 H1047 0.930 . S
C1006 C1007 1.348 . S
C1006 C1008 1.356 . S
C1006 O1031 1.325 . S
C1007 C1006 1.348 . S
C1007 C1009 1.353 . S
C1007 H1048 0.929 . S
C1008 C1006 1.356 . S
C1008 C1010 1.358 . S
C1008 H1049 0.930 . S
C1009 C1007 1.353 . S
C1009 N1011 1.314 . S
C1009 H1050 0.930 . S
C1010 C1008 1.358 . S
C1010 N1011 1.279 . S
C1010 H1051 0.930 . S
N1011 C1009 1.314 . S
N1011 C1010 1.279 . S
C1012 C1014 1.353 . S
C1012 N1015 1.314 . S
C1012 H1018 0.930 . S
C1013 N1015 1.279 . S
C1013 C1016 1.358 . S
C1013 H1019 0.930 1_554 S
C1014 C1012 1.353 . S
C1014 C1017 1.348 . S
C1014 H1052 0.929 . S
N1015 Li970 1.990 . S
N1015 C1012 1.314 . S
N1015 C1013 1.279 . S
C1016 C1013 1.358 . S
C1016 C1017 1.356 . S
C1016 H1053 0.930 . S
C1017 C1014 1.348 . S
C1017 C1016 1.356 . S
H1018 C1012 0.930 . S
H1019 C1013 0.930 1_556 S
C1020 N1021 1.314 . S
C1020 C1022 1.353 . S
C1020 H1026 0.930 . S
N1021 Li971 1.990 . S
N1021 C1020 1.314 . S
N1021 C1024 1.279 . S
C1022 C1020 1.353 . S
C1022 C1025 1.348 . S
C1022 H1054 0.929 . S
C1023 C1024 1.358 . S
C1023 C1025 1.356 . S
C1023 H1055 0.930 . S
C1024 N1021 1.279 . S
C1024 C1023 1.358 . S
C1024 H1027 0.930 . S
C1025 C1022 1.348 . S
C1025 C1023 1.356 . S
H1026 C1020 0.930 . S
H1027 C1024 0.930 . S
O1028 Li968 1.956 1_554 S
O1028 Li969 1.970 . S
O1028 Li970 1.961 . S
O1028 C972 1.325 . S
O1029 Li968 1.970 . S
O1029 Li969 1.956 1_556 S
O1029 Li971 1.961 . S
O1029 C978 1.325 . S
O1030 Li968 1.961 . S
O1030 Li970 1.956 1_556 S
O1030 Li971 1.970 . S
O1030 C1000 1.325 . S
O1031 Li969 1.961 . S
O1031 Li970 1.970 . S
O1031 Li971 1.956 1_554 S
O1031 C1006 1.325 . S
H1032 C974 0.929 . S
H1033 C975 0.930 . S
H1034 C976 0.930 . S
H1035 C977 0.930 . S
H1036 C979 0.930 . S
H1037 C981 0.929 . S
H1038 C982 0.930 . S
H1039 C983 0.930 . S
H1040 C986 0.930 . S
H1041 C989 0.929 . S
H1042 C994 0.929 . S
H1043 C995 0.930 . S
H1044 C1002 0.929 . S
H1045 C1003 0.930 . S
H1046 C1004 0.930 . S
H1047 C1005 0.930 . S
H1048 C1007 0.929 . S
H1049 C1008 0.930 . S
H1050 C1009 0.930 . S
H1051 C1010 0.930 . S
H1052 C1014 0.929 . S
H1053 C1016 0.930 . S
H1054 C1022 0.929 . S
H1055 C1023 0.930 . S
Li1056 N1073 1.990 . S
Li1056 O1116 1.956 . S
Li1056 O1117 1.970 . S
Li1056 O1118 1.961 1_554 S
Li1057 N1081 1.990 . S
Li1057 O1116 1.970 . S
Li1057 O1117 1.956 . S
Li1057 O1119 1.961 1_554 S
Li1058 N1103 1.990 . S
Li1058 O1116 1.961 1_556 S
Li1058 O1118 1.956 . S
Li1058 O1119 1.970 . S
Li1059 N1109 1.990 . S
Li1059 O1117 1.961 1_556 S
Li1059 O1118 1.970 . S
Li1059 O1119 1.956 . S
C1060 C1062 1.348 . S
C1060 C1063 1.356 . S
C1060 O1116 1.325 . S
N1061 C1064 1.314 . S
N1061 C1065 1.279 . S
C1062 C1060 1.348 . S
C1062 C1064 1.353 . S
C1062 H1120 0.929 . S
C1063 C1060 1.356 . S
C1063 C1065 1.358 . S
C1063 H1121 0.930 . S
C1064 N1061 1.314 . S
C1064 C1062 1.353 . S
C1064 H1122 0.930 . S
C1065 N1061 1.279 . S
C1065 C1063 1.358 . S
C1065 H1123 0.930 . S
C1066 C1069 1.348 . S
C1066 C1070 1.356 . S
C1066 O1117 1.325 . S
C1067 N1068 1.279 . S
C1067 C1070 1.358 . S
C1067 H1124 0.930 . S
N1068 C1067 1.279 . S
N1068 C1071 1.314 . S
C1069 C1066 1.348 . S
C1069 C1071 1.353 . S
C1069 H1125 0.929 . S
C1070 C1066 1.356 . S
C1070 C1067 1.358 . S
C1070 H1126 0.930 . S
C1071 N1068 1.314 . S
C1071 C1069 1.353 . S
C1071 H1127 0.930 . S
C1072 N1073 1.314 . S
C1072 C1077 1.353 . S
C1072 H1078 0.930 . S
N1073 Li1056 1.990 . S
N1073 C1072 1.314 . S
N1073 C1075 1.279 . S
C1074 C1075 1.358 . S
C1074 C1076 1.356 . S
C1074 H1128 0.930 . S
C1075 N1073 1.279 . S
C1075 C1074 1.358 . S
C1075 H1079 0.930 . S
C1076 C1074 1.356 . S
C1076 C1077 1.348 . S
C1077 C1072 1.353 . S
C1077 C1076 1.348 . S
C1077 H1129 0.929 . S
H1078 C1072 0.930 . S
H1079 C1075 0.930 . S
C1080 N1081 1.314 . S
C1080 C1082 1.353 . S
C1080 H1086 0.930 1_554 S
N1081 Li1057 1.990 . S
N1081 C1080 1.314 . S
N1081 C1084 1.279 . S
C1082 C1080 1.353 . S
C1082 C1085 1.348 . S
C1082 H1130 0.929 . S
C1083 C1084 1.358 . S
C1083 C1085 1.356 . S
C1083 H1131 0.930 . S
C1084 N1081 1.279 . S
C1084 C1083 1.358 . S
C1084 H1087 0.930 . S
C1085 C1082 1.348 . S
C1085 C1083 1.356 . S
H1086 C1080 0.930 1_556 S
H1087 C1084 0.930 . S
C1088 C1090 1.348 . S
C1088 C1091 1.356 . S
C1088 O1118 1.325 . S
N1089 C1092 1.314 . S
N1089 C1093 1.279 . S
C1090 C1088 1.348 . S
C1090 C1092 1.353 . S
C1090 H1132 0.929 . S
C1091 C1088 1.356 . S
C1091 C1093 1.358 . S
C1091 H1133 0.930 . S
C1092 N1089 1.314 . S
C1092 C1090 1.353 . S
C1092 H1134 0.930 . S
C1093 N1089 1.279 . S
C1093 C1091 1.358 . S
C1093 H1135 0.930 . S
C1094 C1095 1.348 . S
C1094 C1096 1.356 . S
C1094 O1119 1.325 . S
C1095 C1094 1.348 . S
C1095 C1097 1.353 . S
C1095 H1136 0.929 . S
C1096 C1094 1.356 . S
C1096 C1098 1.358 . S
C1096 H1137 0.930 . S
C1097 C1095 1.353 . S
C1097 N1099 1.314 . S
C1097 H1138 0.930 . S
C1098 C1096 1.358 . S
C1098 N1099 1.279 . S
C1098 H1139 0.930 . S
N1099 C1097 1.314 . S
N1099 C1098 1.279 . S
C1100 C1102 1.353 . S
C1100 N1103 1.314 . S
C1100 H1106 0.930 . S
C1101 N1103 1.279 . S
C1101 C1104 1.358 . S
C1101 H1107 0.930 . S
C1102 C1100 1.353 . S
C1102 C1105 1.348 . S
C1102 H1140 0.929 . S
N1103 Li1058 1.990 . S
N1103 C1100 1.314 . S
N1103 C1101 1.279 . S
C1104 C1101 1.358 . S
C1104 C1105 1.356 . S
C1104 H1141 0.930 . S
C1105 C1102 1.348 . S
C1105 C1104 1.356 . S
H1106 C1100 0.930 . S
H1107 C1101 0.930 . S
C1108 N1109 1.314 . S
C1108 C1110 1.353 . S
C1108 H1114 0.930 1_556 S
N1109 Li1059 1.990 . S
N1109 C1108 1.314 . S
N1109 C1112 1.279 . S
C1110 C1108 1.353 . S
C1110 C1113 1.348 . S
C1110 H1142 0.929 . S
C1111 C1112 1.358 . S
C1111 C1113 1.356 . S
C1111 H1143 0.930 . S
C1112 N1109 1.279 . S
C1112 C1111 1.358 . S
C1112 H1115 0.930 . S
C1113 C1110 1.348 . S
C1113 C1111 1.356 . S
H1114 C1108 0.930 1_554 S
H1115 C1112 0.930 . S
O1116 Li1056 1.956 . S
O1116 Li1057 1.970 . S
O1116 Li1058 1.961 1_554 S
O1116 C1060 1.325 . S
O1117 Li1056 1.970 . S
O1117 Li1057 1.956 . S
O1117 Li1059 1.961 1_554 S
O1117 C1066 1.325 . S
O1118 Li1056 1.961 1_556 S
O1118 Li1058 1.956 . S
O1118 Li1059 1.970 . S
O1118 C1088 1.325 . S
O1119 Li1057 1.961 1_556 S
O1119 Li1058 1.970 . S
O1119 Li1059 1.956 . S
O1119 C1094 1.325 . S
H1120 C1062 0.929 . S
H1121 C1063 0.930 . S
H1122 C1064 0.930 . S
H1123 C1065 0.930 . S
H1124 C1067 0.930 . S
H1125 C1069 0.929 . S
H1126 C1070 0.930 . S
H1127 C1071 0.930 . S
H1128 C1074 0.930 . S
H1129 C1077 0.929 . S
H1130 C1082 0.929 . S
H1131 C1083 0.930 . S
H1132 C1090 0.929 . S
H1133 C1091 0.930 . S
H1134 C1092 0.930 . S
H1135 C1093 0.930 . S
H1136 C1095 0.929 . S
H1137 C1096 0.930 . S
H1138 C1097 0.930 . S
H1139 C1098 0.930 . S
H1140 C1102 0.929 . S
H1141 C1104 0.930 . S
H1142 C1110 0.929 . S
H1143 C1111 0.930 . S
Li1144 N1161 1.990 . S
Li1144 O1204 1.956 . S
Li1144 O1205 1.970 . S
Li1144 O1206 1.961 1_554 S
Li1145 N1169 1.990 . S
Li1145 O1204 1.970 . S
Li1145 O1205 1.956 . S
Li1145 O1207 1.961 1_554 S
Li1146 N1191 1.990 . S
Li1146 O1204 1.961 1_556 S
Li1146 O1206 1.956 . S
Li1146 O1207 1.970 . S
Li1147 N1197 1.990 . S
Li1147 O1205 1.961 1_556 S
Li1147 O1206 1.970 . S
Li1147 O1207 1.956 . S
C1148 C1150 1.348 . S
C1148 C1151 1.356 . S
C1148 O1204 1.325 . S
N1149 C1152 1.314 . S
N1149 C1153 1.279 . S
C1150 C1148 1.348 . S
C1150 C1152 1.353 . S
C1150 H1208 0.929 . S
C1151 C1148 1.356 . S
C1151 C1153 1.358 . S
C1151 H1209 0.930 . S
C1152 N1149 1.314 . S
C1152 C1150 1.353 . S
C1152 H1210 0.930 . S
C1153 N1149 1.279 . S
C1153 C1151 1.358 . S
C1153 H1211 0.930 . S
C1154 C1157 1.348 . S
C1154 C1158 1.356 . S
C1154 O1205 1.325 . S
C1155 N1156 1.279 . S
C1155 C1158 1.358 . S
C1155 H1212 0.930 . S
N1156 C1155 1.279 . S
N1156 C1159 1.314 . S
C1157 C1154 1.348 . S
C1157 C1159 1.353 . S
C1157 H1213 0.929 . S
C1158 C1154 1.356 . S
C1158 C1155 1.358 . S
C1158 H1214 0.930 . S
C1159 N1156 1.314 . S
C1159 C1157 1.353 . S
C1159 H1215 0.930 . S
C1160 N1161 1.314 . S
C1160 C1165 1.353 . S
C1160 H1166 0.930 1_554 S
N1161 Li1144 1.990 . S
N1161 C1160 1.314 . S
N1161 C1163 1.279 . S
C1162 C1163 1.358 . S
C1162 C1164 1.356 . S
C1162 H1216 0.930 . S
C1163 N1161 1.279 . S
C1163 C1162 1.358 . S
C1163 H1167 0.930 . S
C1164 C1162 1.356 . S
C1164 C1165 1.348 . S
C1165 C1160 1.353 . S
C1165 C1164 1.348 . S
C1165 H1217 0.929 . S
H1166 C1160 0.930 1_556 S
H1167 C1163 0.930 . S
C1168 N1169 1.314 . S
C1168 C1170 1.353 . S
C1168 H1174 0.930 . S
N1169 Li1145 1.990 . S
N1169 C1168 1.314 . S
N1169 C1172 1.279 . S
C1170 C1168 1.353 . S
C1170 C1173 1.348 . S
C1170 H1218 0.929 . S
C1171 C1172 1.358 . S
C1171 C1173 1.356 . S
C1171 H1219 0.930 . S
C1172 N1169 1.279 . S
C1172 C1171 1.358 . S
C1172 H1175 0.930 . S
C1173 C1170 1.348 . S
C1173 C1171 1.356 . S
H1174 C1168 0.930 . S
H1175 C1172 0.930 . S
C1176 C1178 1.348 . S
C1176 C1179 1.356 . S
C1176 O1206 1.325 . S
N1177 C1180 1.314 . S
N1177 C1181 1.279 . S
C1178 C1176 1.348 . S
C1178 C1180 1.353 . S
C1178 H1220 0.929 . S
C1179 C1176 1.356 . S
C1179 C1181 1.358 . S
C1179 H1221 0.930 . S
C1180 N1177 1.314 . S
C1180 C1178 1.353 . S
C1180 H1222 0.930 . S
C1181 N1177 1.279 . S
C1181 C1179 1.358 . S
C1181 H1223 0.930 . S
C1182 C1183 1.348 . S
C1182 C1184 1.356 . S
C1182 O1207 1.325 . S
C1183 C1182 1.348 . S
C1183 C1185 1.353 . S
C1183 H1224 0.929 . S
C1184 C1182 1.356 . S
C1184 C1186 1.358 . S
C1184 H1225 0.930 . S
C1185 C1183 1.353 . S
C1185 N1187 1.314 . S
C1185 H1226 0.930 . S
C1186 C1184 1.358 . S
C1186 N1187 1.279 . S
C1186 H1227 0.930 . S
N1187 C1185 1.314 . S
N1187 C1186 1.279 . S
C1188 C1190 1.353 . S
C1188 N1191 1.314 . S
C1188 H1194 0.930 1_556 S
C1189 N1191 1.279 . S
C1189 C1192 1.358 . S
C1189 H1195 0.930 . S
C1190 C1188 1.353 . S
C1190 C1193 1.348 . S
C1190 H1228 0.929 . S
N1191 Li1146 1.990 . S
N1191 C1188 1.314 . S
N1191 C1189 1.279 . S
C1192 C1189 1.358 . S
C1192 C1193 1.356 . S
C1192 H1229 0.930 . S
C1193 C1190 1.348 . S
C1193 C1192 1.356 . S
H1194 C1188 0.930 1_554 S
H1195 C1189 0.930 . S
C1196 N1197 1.314 . S
C1196 C1198 1.353 . S
C1196 H1202 0.930 . S
N1197 Li1147 1.990 . S
N1197 C1196 1.314 . S
N1197 C1200 1.279 . S
C1198 C1196 1.353 . S
C1198 C1201 1.348 . S
C1198 H1230 0.929 . S
C1199 C1200 1.358 . S
C1199 C1201 1.356 . S
C1199 H1231 0.930 . S
C1200 N1197 1.279 . S
C1200 C1199 1.358 . S
C1200 H1203 0.930 . S
C1201 C1198 1.348 . S
C1201 C1199 1.356 . S
H1202 C1196 0.930 . S
H1203 C1200 0.930 . S
O1204 Li1144 1.956 . S
O1204 Li1145 1.970 . S
O1204 Li1146 1.961 1_554 S
O1204 C1148 1.325 . S
O1205 Li1144 1.970 . S
O1205 Li1145 1.956 . S
O1205 Li1147 1.961 1_554 S
O1205 C1154 1.325 . S
O1206 Li1144 1.961 1_556 S
O1206 Li1146 1.956 . S
O1206 Li1147 1.970 . S
O1206 C1176 1.325 . S
O1207 Li1145 1.961 1_556 S
O1207 Li1146 1.970 . S
O1207 Li1147 1.956 . S
O1207 C1182 1.325 . S
H1208 C1150 0.929 . S
H1209 C1151 0.930 . S
H1210 C1152 0.930 . S
H1211 C1153 0.930 . S
H1212 C1155 0.930 . S
H1213 C1157 0.929 . S
H1214 C1158 0.930 . S
H1215 C1159 0.930 . S
H1216 C1162 0.930 . S
H1217 C1165 0.929 . S
H1218 C1170 0.929 . S
H1219 C1171 0.930 . S
H1220 C1178 0.929 . S
H1221 C1179 0.930 . S
H1222 C1180 0.930 . S
H1223 C1181 0.930 . S
H1224 C1183 0.929 . S
H1225 C1184 0.930 . S
H1226 C1185 0.930 . S
H1227 C1186 0.930 . S
H1228 C1190 0.929 . S
H1229 C1192 0.930 . S
H1230 C1198 0.929 . S
H1231 C1199 0.930 . S
Li1232 N1249 1.990 . S
Li1232 O1292 1.956 . S
Li1232 O1293 1.970 . S
Li1232 O1294 1.961 . S
Li1233 N1257 1.990 . S
Li1233 O1292 1.970 . S
Li1233 O1293 1.956 . S
Li1233 O1295 1.961 . S
Li1234 N1279 1.990 . S
Li1234 O1292 1.961 . S
Li1234 O1294 1.956 . S
Li1234 O1295 1.970 . S
Li1235 N1285 1.990 . S
Li1235 O1293 1.961 . S
Li1235 O1294 1.970 . S
Li1235 O1295 1.956 . S
C1236 C1238 1.348 . S
C1236 C1239 1.356 . S
C1236 O1292 1.325 . S
N1237 C1240 1.314 . S
N1237 C1241 1.279 . S
C1238 C1236 1.348 . S
C1238 C1240 1.353 . S
C1238 H1296 0.929 . S
C1239 C1236 1.356 . S
C1239 C1241 1.358 . S
C1239 H1297 0.930 . S
C1240 N1237 1.314 . S
C1240 C1238 1.353 . S
C1240 H1298 0.930 . S
C1241 N1237 1.279 . S
C1241 C1239 1.358 . S
C1241 H1299 0.930 . S
C1242 C1245 1.348 . S
C1242 C1246 1.356 . S
C1242 O1293 1.325 . S
C1243 N1244 1.279 . S
C1243 C1246 1.358 . S
C1243 H1300 0.930 . S
N1244 C1243 1.279 . S
N1244 C1247 1.314 . S
C1245 C1242 1.348 . S
C1245 C1247 1.353 . S
C1245 H1301 0.929 . S
C1246 C1242 1.356 . S
C1246 C1243 1.358 . S
C1246 H1302 0.930 . S
C1247 N1244 1.314 . S
C1247 C1245 1.353 . S
C1247 H1303 0.930 . S
C1248 N1249 1.314 . S
C1248 C1253 1.353 . S
C1248 H1254 0.930 . S
N1249 Li1232 1.990 . S
N1249 C1248 1.314 . S
N1249 C1251 1.279 . S
C1250 C1251 1.358 . S
C1250 C1252 1.356 . S
C1250 H1304 0.930 . S
C1251 N1249 1.279 . S
C1251 C1250 1.358 . S
C1251 H1255 0.930 . S
C1252 C1250 1.356 . S
C1252 C1253 1.348 . S
C1253 C1248 1.353 . S
C1253 C1252 1.348 . S
C1253 H1305 0.929 . S
H1254 C1248 0.930 . S
H1255 C1251 0.930 . S
C1256 N1257 1.314 . S
C1256 C1258 1.353 . S
C1256 H1262 0.930 . S
N1257 Li1233 1.990 . S
N1257 C1256 1.314 . S
N1257 C1260 1.279 . S
C1258 C1256 1.353 . S
C1258 C1261 1.348 . S
C1258 H1306 0.929 . S
C1259 C1260 1.358 . S
C1259 C1261 1.356 . S
C1259 H1307 0.930 . S
C1260 N1257 1.279 . S
C1260 C1259 1.358 . S
C1260 H1263 0.930 . S
C1261 C1258 1.348 . S
C1261 C1259 1.356 . S
H1262 C1256 0.930 . S
H1263 C1260 0.930 . S
C1264 C1266 1.348 . S
C1264 C1267 1.356 . S
C1264 O1294 1.325 . S
N1265 C1268 1.314 . S
N1265 C1269 1.279 . S
C1266 C1264 1.348 . S
C1266 C1268 1.353 . S
C1266 H1308 0.929 . S
C1267 C1264 1.356 . S
C1267 C1269 1.358 . S
C1267 H1309 0.930 . S
C1268 N1265 1.314 . S
C1268 C1266 1.353 . S
C1268 H1310 0.930 . S
C1269 N1265 1.279 . S
C1269 C1267 1.358 . S
C1269 H1311 0.930 . S
C1270 C1271 1.348 . S
C1270 C1272 1.356 . S
C1270 O1295 1.325 . S
C1271 C1270 1.348 . S
C1271 C1273 1.353 . S
C1271 H1312 0.929 . S
C1272 C1270 1.356 . S
C1272 C1274 1.358 . S
C1272 H1313 0.930 . S
C1273 C1271 1.353 . S
C1273 N1275 1.314 . S
C1273 H1314 0.930 . S
C1274 C1272 1.358 . S
C1274 N1275 1.279 . S
C1274 H1315 0.930 . S
N1275 C1273 1.314 . S
N1275 C1274 1.279 . S
C1276 C1278 1.353 . S
C1276 N1279 1.314 . S
C1276 H1282 0.930 . S
C1277 N1279 1.279 . S
C1277 C1280 1.358 . S
C1277 H1283 0.930 . S
C1278 C1276 1.353 . S
C1278 C1281 1.348 . S
C1278 H1316 0.929 . S
N1279 Li1234 1.990 . S
N1279 C1276 1.314 . S
N1279 C1277 1.279 . S
C1280 C1277 1.358 . S
C1280 C1281 1.356 . S
C1280 H1317 0.930 . S
C1281 C1278 1.348 . S
C1281 C1280 1.356 . S
H1282 C1276 0.930 . S
H1283 C1277 0.930 . S
C1284 N1285 1.314 . S
C1284 C1286 1.353 . S
C1284 H1290 0.930 . S
N1285 Li1235 1.990 . S
N1285 C1284 1.314 . S
N1285 C1288 1.279 . S
C1286 C1284 1.353 . S
C1286 C1289 1.348 . S
C1286 H1318 0.929 . S
C1287 C1288 1.358 . S
C1287 C1289 1.356 . S
C1287 H1319 0.930 . S
C1288 N1285 1.279 . S
C1288 C1287 1.358 . S
C1288 H1291 0.930 . S
C1289 C1286 1.348 . S
C1289 C1287 1.356 . S
H1290 C1284 0.930 . S
H1291 C1288 0.930 . S
O1292 Li1232 1.956 . S
O1292 Li1233 1.970 . S
O1292 Li1234 1.961 . S
O1292 C1236 1.325 . S
O1293 Li1232 1.970 . S
O1293 Li1233 1.956 . S
O1293 Li1235 1.961 . S
O1293 C1242 1.325 . S
O1294 Li1232 1.961 . S
O1294 Li1234 1.956 . S
O1294 Li1235 1.970 . S
O1294 C1264 1.325 . S
O1295 Li1233 1.961 . S
O1295 Li1234 1.970 . S
O1295 Li1235 1.956 . S
O1295 C1270 1.325 . S
H1296 C1238 0.929 . S
H1297 C1239 0.930 . S
H1298 C1240 0.930 . S
H1299 C1241 0.930 . S
H1300 C1243 0.930 . S
H1301 C1245 0.929 . S
H1302 C1246 0.930 . S
H1303 C1247 0.930 . S
H1304 C1250 0.930 . S
H1305 C1253 0.929 . S
H1306 C1258 0.929 . S
H1307 C1259 0.930 . S
H1308 C1266 0.929 . S
H1309 C1267 0.930 . S
H1310 C1268 0.930 . S
H1311 C1269 0.930 . S
H1312 C1271 0.929 . S
H1313 C1272 0.930 . S
H1314 C1273 0.930 . S
H1315 C1274 0.930 . S
H1316 C1278 0.929 . S
H1317 C1280 0.930 . S
H1318 C1286 0.929 . S
H1319 C1287 0.930 . S
Li1320 N1337 1.990 . S
Li1320 O1380 1.956 . S
Li1320 O1381 1.970 . S
Li1320 O1382 1.961 . S
Li1321 N1345 1.990 . S
Li1321 O1380 1.970 . S
Li1321 O1381 1.956 . S
Li1321 O1383 1.961 . S
Li1322 N1367 1.990 . S
Li1322 O1380 1.961 . S
Li1322 O1382 1.956 . S
Li1322 O1383 1.970 . S
Li1323 N1373 1.990 . S
Li1323 O1381 1.961 . S
Li1323 O1382 1.970 . S
Li1323 O1383 1.956 . S
C1324 C1326 1.348 . S
C1324 C1327 1.356 . S
C1324 O1380 1.325 . S
N1325 C1328 1.314 . S
N1325 C1329 1.279 . S
C1326 C1324 1.348 . S
C1326 C1328 1.353 . S
C1326 H1384 0.929 . S
C1327 C1324 1.356 . S
C1327 C1329 1.358 . S
C1327 H1385 0.930 . S
C1328 N1325 1.314 . S
C1328 C1326 1.353 . S
C1328 H1386 0.930 . S
C1329 N1325 1.279 . S
C1329 C1327 1.358 . S
C1329 H1387 0.930 . S
C1330 C1333 1.348 . S
C1330 C1334 1.356 . S
C1330 O1381 1.325 . S
C1331 N1332 1.279 . S
C1331 C1334 1.358 . S
C1331 H1388 0.930 . S
N1332 C1331 1.279 . S
N1332 C1335 1.314 . S
C1333 C1330 1.348 . S
C1333 C1335 1.353 . S
C1333 H1389 0.929 . S
C1334 C1330 1.356 . S
C1334 C1331 1.358 . S
C1334 H1390 0.930 . S
C1335 N1332 1.314 . S
C1335 C1333 1.353 . S
C1335 H1391 0.930 . S
C1336 N1337 1.314 . S
C1336 C1341 1.353 . S
C1336 H1342 0.930 . S
N1337 Li1320 1.990 . S
N1337 C1336 1.314 . S
N1337 C1339 1.279 . S
C1338 C1339 1.358 . S
C1338 C1340 1.356 . S
C1338 H1392 0.930 . S
C1339 N1337 1.279 . S
C1339 C1338 1.358 . S
C1339 H1343 0.930 . S
C1340 C1338 1.356 . S
C1340 C1341 1.348 . S
C1341 C1336 1.353 . S
C1341 C1340 1.348 . S
C1341 H1393 0.929 . S
H1342 C1336 0.930 . S
H1343 C1339 0.930 . S
C1344 N1345 1.314 . S
C1344 C1346 1.353 . S
C1344 H1350 0.930 . S
N1345 Li1321 1.990 . S
N1345 C1344 1.314 . S
N1345 C1348 1.279 . S
C1346 C1344 1.353 . S
C1346 C1349 1.348 . S
C1346 H1394 0.929 . S
C1347 C1348 1.358 . S
C1347 C1349 1.356 . S
C1347 H1395 0.930 . S
C1348 N1345 1.279 . S
C1348 C1347 1.358 . S
C1348 H1351 0.930 . S
C1349 C1346 1.348 . S
C1349 C1347 1.356 . S
H1350 C1344 0.930 . S
H1351 C1348 0.930 . S
C1352 C1354 1.348 . S
C1352 C1355 1.356 . S
C1352 O1382 1.325 . S
N1353 C1356 1.314 . S
N1353 C1357 1.279 . S
C1354 C1352 1.348 . S
C1354 C1356 1.353 . S
C1354 H1396 0.929 . S
C1355 C1352 1.356 . S
C1355 C1357 1.358 . S
C1355 H1397 0.930 . S
C1356 N1353 1.314 . S
C1356 C1354 1.353 . S
C1356 H1398 0.930 . S
C1357 N1353 1.279 . S
C1357 C1355 1.358 . S
C1357 H1399 0.930 . S
C1358 C1359 1.348 . S
C1358 C1360 1.356 . S
C1358 O1383 1.325 . S
C1359 C1358 1.348 . S
C1359 C1361 1.353 . S
C1359 H1400 0.929 . S
C1360 C1358 1.356 . S
C1360 C1362 1.358 . S
C1360 H1401 0.930 . S
C1361 C1359 1.353 . S
C1361 N1363 1.314 . S
C1361 H1402 0.930 . S
C1362 C1360 1.358 . S
C1362 N1363 1.279 . S
C1362 H1403 0.930 . S
N1363 C1361 1.314 . S
N1363 C1362 1.279 . S
C1364 C1366 1.353 . S
C1364 N1367 1.314 . S
C1364 H1370 0.930 . S
C1365 N1367 1.279 . S
C1365 C1368 1.358 . S
C1365 H1371 0.930 . S
C1366 C1364 1.353 . S
C1366 C1369 1.348 . S
C1366 H1404 0.929 . S
N1367 Li1322 1.990 . S
N1367 C1364 1.314 . S
N1367 C1365 1.279 . S
C1368 C1365 1.358 . S
C1368 C1369 1.356 . S
C1368 H1405 0.930 . S
C1369 C1366 1.348 . S
C1369 C1368 1.356 . S
H1370 C1364 0.930 . S
H1371 C1365 0.930 . S
C1372 N1373 1.314 . S
C1372 C1374 1.353 . S
C1372 H1378 0.930 . S
N1373 Li1323 1.990 . S
N1373 C1372 1.314 . S
N1373 C1376 1.279 . S
C1374 C1372 1.353 . S
C1374 C1377 1.348 . S
C1374 H1406 0.929 . S
C1375 C1376 1.358 . S
C1375 C1377 1.356 . S
C1375 H1407 0.930 . S
C1376 N1373 1.279 . S
C1376 C1375 1.358 . S
C1376 H1379 0.930 . S
C1377 C1374 1.348 . S
C1377 C1375 1.356 . S
H1378 C1372 0.930 . S
H1379 C1376 0.930 . S
O1380 Li1320 1.956 . S
O1380 Li1321 1.970 . S
O1380 Li1322 1.961 . S
O1380 C1324 1.325 . S
O1381 Li1320 1.970 . S
O1381 Li1321 1.956 . S
O1381 Li1323 1.961 . S
O1381 C1330 1.325 . S
O1382 Li1320 1.961 . S
O1382 Li1322 1.956 . S
O1382 Li1323 1.970 . S
O1382 C1352 1.325 . S
O1383 Li1321 1.961 . S
O1383 Li1322 1.970 . S
O1383 Li1323 1.956 . S
O1383 C1358 1.325 . S
H1384 C1326 0.929 . S
H1385 C1327 0.930 . S
H1386 C1328 0.930 . S
H1387 C1329 0.930 . S
H1388 C1331 0.930 . S
H1389 C1333 0.929 . S
H1390 C1334 0.930 . S
H1391 C1335 0.930 . S
H1392 C1338 0.930 . S
H1393 C1341 0.929 . S
H1394 C1346 0.929 . S
H1395 C1347 0.930 . S
H1396 C1354 0.929 . S
H1397 C1355 0.930 . S
H1398 C1356 0.930 . S
H1399 C1357 0.930 . S
H1400 C1359 0.929 . S
H1401 C1360 0.930 . S
H1402 C1361 0.930 . S
H1403 C1362 0.930 . S
H1404 C1366 0.929 . S
H1405 C1368 0.930 . S
H1406 C1374 0.929 . S
H1407 C1375 0.930 . S
Li1408 N1425 1.990 . S
Li1408 O1468 1.956 1_545 S
Li1408 O1469 1.970 . S
Li1408 O1470 1.961 . S
Li1409 N1433 1.990 . S
Li1409 O1468 1.970 . S
Li1409 O1469 1.956 1_565 S
Li1409 O1471 1.961 . S
Li1410 N1455 1.990 . S
Li1410 O1468 1.961 . S
Li1410 O1470 1.956 1_565 S
Li1410 O1471 1.970 . S
Li1411 N1461 1.990 . S
Li1411 O1469 1.961 . S
Li1411 O1470 1.970 . S
Li1411 O1471 1.956 1_545 S
C1412 C1414 1.348 . S
C1412 C1415 1.356 . S
C1412 O1468 1.325 . S
N1413 C1416 1.314 . S
N1413 C1417 1.279 . S
C1414 C1412 1.348 . S
C1414 C1416 1.353 . S
C1414 H1472 0.929 . S
C1415 C1412 1.356 . S
C1415 C1417 1.358 . S
C1415 H1473 0.930 . S
C1416 N1413 1.314 . S
C1416 C1414 1.353 . S
C1416 H1474 0.930 . S
C1417 N1413 1.279 . S
C1417 C1415 1.358 . S
C1417 H1475 0.930 . S
C1418 C1421 1.348 . S
C1418 C1422 1.356 . S
C1418 O1469 1.325 . S
C1419 N1420 1.279 . S
C1419 C1422 1.358 . S
C1419 H1476 0.930 . S
N1420 C1419 1.279 . S
N1420 C1423 1.314 . S
C1421 C1418 1.348 . S
C1421 C1423 1.353 . S
C1421 H1477 0.929 . S
C1422 C1418 1.356 . S
C1422 C1419 1.358 . S
C1422 H1478 0.930 . S
C1423 N1420 1.314 . S
C1423 C1421 1.353 . S
C1423 H1479 0.930 . S
C1424 N1425 1.314 . S
C1424 C1429 1.353 . S
C1424 H1430 0.930 . S
N1425 Li1408 1.990 . S
N1425 C1424 1.314 . S
N1425 C1427 1.279 . S
C1426 C1427 1.358 . S
C1426 C1428 1.356 . S
C1426 H1480 0.930 . S
C1427 N1425 1.279 . S
C1427 C1426 1.358 . S
C1427 H1431 0.930 . S
C1428 C1426 1.356 . S
C1428 C1429 1.348 . S
C1429 C1424 1.353 . S
C1429 C1428 1.348 . S
C1429 H1481 0.929 . S
H1430 C1424 0.930 . S
H1431 C1427 0.930 . S
C1432 N1433 1.314 . S
C1432 C1434 1.353 . S
C1432 H1438 0.930 . S
N1433 Li1409 1.990 . S
N1433 C1432 1.314 . S
N1433 C1436 1.279 . S
C1434 C1432 1.353 . S
C1434 C1437 1.348 . S
C1434 H1482 0.929 . S
C1435 C1436 1.358 . S
C1435 C1437 1.356 . S
C1435 H1483 0.930 . S
C1436 N1433 1.279 . S
C1436 C1435 1.358 . S
C1436 H1439 0.930 1_565 S
C1437 C1434 1.348 . S
C1437 C1435 1.356 . S
H1438 C1432 0.930 . S
H1439 C1436 0.930 1_545 S
C1440 C1442 1.348 . S
C1440 C1443 1.356 . S
C1440 O1470 1.325 . S
N1441 C1444 1.314 . S
N1441 C1445 1.279 . S
C1442 C1440 1.348 . S
C1442 C1444 1.353 . S
C1442 H1484 0.929 . S
C1443 C1440 1.356 . S
C1443 C1445 1.358 . S
C1443 H1485 0.930 . S
C1444 N1441 1.314 . S
C1444 C1442 1.353 . S
C1444 H1486 0.930 . S
C1445 N1441 1.279 . S
C1445 C1443 1.358 . S
C1445 H1487 0.930 . S
C1446 C1447 1.348 . S
C1446 C1448 1.356 . S
C1446 O1471 1.325 . S
C1447 C1446 1.348 . S
C1447 C1449 1.353 . S
C1447 H1488 0.929 . S
C1448 C1446 1.356 . S
C1448 C1450 1.358 . S
C1448 H1489 0.930 . S
C1449 C1447 1.353 . S
C1449 N1451 1.314 . S
C1449 H1490 0.930 . S
C1450 C1448 1.358 . S
C1450 N1451 1.279 . S
C1450 H1491 0.930 . S
N1451 C1449 1.314 . S
N1451 C1450 1.279 . S
C1452 C1454 1.353 . S
C1452 N1455 1.314 . S
C1452 H1458 0.930 . S
C1453 N1455 1.279 . S
C1453 C1456 1.358 . S
C1453 H1459 0.930 . S
C1454 C1452 1.353 . S
C1454 C1457 1.348 . S
C1454 H1492 0.929 . S
N1455 Li1410 1.990 . S
N1455 C1452 1.314 . S
N1455 C1453 1.279 . S
C1456 C1453 1.358 . S
C1456 C1457 1.356 . S
C1456 H1493 0.930 . S
C1457 C1454 1.348 . S
C1457 C1456 1.356 . S
H1458 C1452 0.930 . S
H1459 C1453 0.930 . S
C1460 N1461 1.314 . S
C1460 C1462 1.353 . S
C1460 H1466 0.930 . S
N1461 Li1411 1.990 . S
N1461 C1460 1.314 . S
N1461 C1464 1.279 . S
C1462 C1460 1.353 . S
C1462 C1465 1.348 . S
C1462 H1494 0.929 . S
C1463 C1464 1.358 . S
C1463 C1465 1.356 . S
C1463 H1495 0.930 . S
C1464 N1461 1.279 . S
C1464 C1463 1.358 . S
C1464 H1467 0.930 1_545 S
C1465 C1462 1.348 . S
C1465 C1463 1.356 . S
H1466 C1460 0.930 . S
H1467 C1464 0.930 1_565 S
O1468 Li1408 1.956 1_565 S
O1468 Li1409 1.970 . S
O1468 Li1410 1.961 . S
O1468 C1412 1.325 . S
O1469 Li1408 1.970 . S
O1469 Li1409 1.956 1_545 S
O1469 Li1411 1.961 . S
O1469 C1418 1.325 . S
O1470 Li1408 1.961 . S
O1470 Li1410 1.956 1_545 S
O1470 Li1411 1.970 . S
O1470 C1440 1.325 . S
O1471 Li1409 1.961 . S
O1471 Li1410 1.970 . S
O1471 Li1411 1.956 1_565 S
O1471 C1446 1.325 . S
H1472 C1414 0.929 . S
H1473 C1415 0.930 . S
H1474 C1416 0.930 . S
H1475 C1417 0.930 . S
H1476 C1419 0.930 . S
H1477 C1421 0.929 . S
H1478 C1422 0.930 . S
H1479 C1423 0.930 . S
H1480 C1426 0.930 . S
H1481 C1429 0.929 . S
H1482 C1434 0.929 . S
H1483 C1435 0.930 . S
H1484 C1442 0.929 . S
H1485 C1443 0.930 . S
H1486 C1444 0.930 . S
H1487 C1445 0.930 . S
H1488 C1447 0.929 . S
H1489 C1448 0.930 . S
H1490 C1449 0.930 . S
H1491 C1450 0.930 . S
H1492 C1454 0.929 . S
H1493 C1456 0.930 . S
H1494 C1462 0.929 . S
H1495 C1463 0.930 . S
Li1496 N1513 1.990 . S
Li1496 O1556 1.956 . S
Li1496 O1557 1.970 . S
Li1496 O1558 1.961 . S
Li1497 N1521 1.990 . S
Li1497 O1556 1.970 . S
Li1497 O1557 1.956 . S
Li1497 O1559 1.961 . S
Li1498 N1543 1.990 . S
Li1498 O1556 1.961 . S
Li1498 O1558 1.956 . S
Li1498 O1559 1.970 . S
Li1499 N1549 1.990 . S
Li1499 O1557 1.961 . S
Li1499 O1558 1.970 . S
Li1499 O1559 1.956 . S
C1500 C1502 1.348 . S
C1500 C1503 1.356 . S
C1500 O1556 1.325 . S
N1501 C1504 1.314 . S
N1501 C1505 1.279 . S
C1502 C1500 1.348 . S
C1502 C1504 1.353 . S
C1502 H1560 0.929 . S
C1503 C1500 1.356 . S
C1503 C1505 1.358 . S
C1503 H1561 0.930 . S
C1504 N1501 1.314 . S
C1504 C1502 1.353 . S
C1504 H1562 0.930 . S
C1505 N1501 1.279 . S
C1505 C1503 1.358 . S
C1505 H1563 0.930 . S
C1506 C1509 1.348 . S
C1506 C1510 1.356 . S
C1506 O1557 1.325 . S
C1507 N1508 1.279 . S
C1507 C1510 1.358 . S
C1507 H1564 0.930 . S
N1508 C1507 1.279 . S
N1508 C1511 1.314 . S
C1509 C1506 1.348 . S
C1509 C1511 1.353 . S
C1509 H1565 0.929 . S
C1510 C1506 1.356 . S
C1510 C1507 1.358 . S
C1510 H1566 0.930 . S
C1511 N1508 1.314 . S
C1511 C1509 1.353 . S
C1511 H1567 0.930 . S
C1512 N1513 1.314 . S
C1512 C1517 1.353 . S
C1512 H1518 0.930 . S
N1513 Li1496 1.990 . S
N1513 C1512 1.314 . S
N1513 C1515 1.279 . S
C1514 C1515 1.358 . S
C1514 C1516 1.356 . S
C1514 H1568 0.930 . S
C1515 N1513 1.279 . S
C1515 C1514 1.358 . S
C1515 H1519 0.930 . S
C1516 C1514 1.356 . S
C1516 C1517 1.348 . S
C1517 C1512 1.353 . S
C1517 C1516 1.348 . S
C1517 H1569 0.929 . S
H1518 C1512 0.930 . S
H1519 C1515 0.930 . S
C1520 N1521 1.314 . S
C1520 C1522 1.353 . S
C1520 H1526 0.930 . S
N1521 Li1497 1.990 . S
N1521 C1520 1.314 . S
N1521 C1524 1.279 . S
C1522 C1520 1.353 . S
C1522 C1525 1.348 . S
C1522 H1570 0.929 . S
C1523 C1524 1.358 . S
C1523 C1525 1.356 . S
C1523 H1571 0.930 . S
C1524 N1521 1.279 . S
C1524 C1523 1.358 . S
C1524 H1527 0.930 . S
C1525 C1522 1.348 . S
C1525 C1523 1.356 . S
H1526 C1520 0.930 . S
H1527 C1524 0.930 . S
C1528 C1530 1.348 . S
C1528 C1531 1.356 . S
C1528 O1558 1.325 . S
N1529 C1532 1.314 . S
N1529 C1533 1.279 . S
C1530 C1528 1.348 . S
C1530 C1532 1.353 . S
C1530 H1572 0.929 . S
C1531 C1528 1.356 . S
C1531 C1533 1.358 . S
C1531 H1573 0.930 . S
C1532 N1529 1.314 . S
C1532 C1530 1.353 . S
C1532 H1574 0.930 . S
C1533 N1529 1.279 . S
C1533 C1531 1.358 . S
C1533 H1575 0.930 . S
C1534 C1535 1.348 . S
C1534 C1536 1.356 . S
C1534 O1559 1.325 . S
C1535 C1534 1.348 . S
C1535 C1537 1.353 . S
C1535 H1576 0.929 . S
C1536 C1534 1.356 . S
C1536 C1538 1.358 . S
C1536 H1577 0.930 . S
C1537 C1535 1.353 . S
C1537 N1539 1.314 . S
C1537 H1578 0.930 . S
C1538 C1536 1.358 . S
C1538 N1539 1.279 . S
C1538 H1579 0.930 . S
N1539 C1537 1.314 . S
N1539 C1538 1.279 . S
C1540 C1542 1.353 . S
C1540 N1543 1.314 . S
C1540 H1546 0.930 . S
C1541 N1543 1.279 . S
C1541 C1544 1.358 . S
C1541 H1547 0.930 . S
C1542 C1540 1.353 . S
C1542 C1545 1.348 . S
C1542 H1580 0.929 . S
N1543 Li1498 1.990 . S
N1543 C1540 1.314 . S
N1543 C1541 1.279 . S
C1544 C1541 1.358 . S
C1544 C1545 1.356 . S
C1544 H1581 0.930 . S
C1545 C1542 1.348 . S
C1545 C1544 1.356 . S
H1546 C1540 0.930 . S
H1547 C1541 0.930 . S
C1548 N1549 1.314 . S
C1548 C1550 1.353 . S
C1548 H1554 0.930 . S
N1549 Li1499 1.990 . S
N1549 C1548 1.314 . S
N1549 C1552 1.279 . S
C1550 C1548 1.353 . S
C1550 C1553 1.348 . S
C1550 H1582 0.929 . S
C1551 C1552 1.358 . S
C1551 C1553 1.356 . S
C1551 H1583 0.930 . S
C1552 N1549 1.279 . S
C1552 C1551 1.358 . S
C1552 H1555 0.930 . S
C1553 C1550 1.348 . S
C1553 C1551 1.356 . S
H1554 C1548 0.930 . S
H1555 C1552 0.930 . S
O1556 Li1496 1.956 . S
O1556 Li1497 1.970 . S
O1556 Li1498 1.961 . S
O1556 C1500 1.325 . S
O1557 Li1496 1.970 . S
O1557 Li1497 1.956 . S
O1557 Li1499 1.961 . S
O1557 C1506 1.325 . S
O1558 Li1496 1.961 . S
O1558 Li1498 1.956 . S
O1558 Li1499 1.970 . S
O1558 C1528 1.325 . S
O1559 Li1497 1.961 . S
O1559 Li1498 1.970 . S
O1559 Li1499 1.956 . S
O1559 C1534 1.325 . S
H1560 C1502 0.929 . S
H1561 C1503 0.930 . S
H1562 C1504 0.930 . S
H1563 C1505 0.930 . S
H1564 C1507 0.930 . S
H1565 C1509 0.929 . S
H1566 C1510 0.930 . S
H1567 C1511 0.930 . S
H1568 C1514 0.930 . S
H1569 C1517 0.929 . S
H1570 C1522 0.929 . S
H1571 C1523 0.930 . S
H1572 C1530 0.929 . S
H1573 C1531 0.930 . S
H1574 C1532 0.930 . S
H1575 C1533 0.930 . S
H1576 C1535 0.929 . S
H1577 C1536 0.930 . S
H1578 C1537 0.930 . S
H1579 C1538 0.930 . S
H1580 C1542 0.929 . S
H1581 C1544 0.930 . S
H1582 C1550 0.929 . S
H1583 C1551 0.930 . S
Li1584 N1601 1.990 . S
Li1584 O1644 1.956 . S
Li1584 O1645 1.970 . S
Li1584 O1646 1.961 . S
Li1585 N1609 1.990 . S
Li1585 O1644 1.970 . S
Li1585 O1645 1.956 . S
Li1585 O1647 1.961 . S
Li1586 N1631 1.990 . S
Li1586 O1644 1.961 . S
Li1586 O1646 1.956 . S
Li1586 O1647 1.970 . S
Li1587 N1637 1.990 . S
Li1587 O1645 1.961 . S
Li1587 O1646 1.970 . S
Li1587 O1647 1.956 . S
C1588 C1590 1.348 . S
C1588 C1591 1.356 . S
C1588 O1644 1.325 . S
N1589 C1592 1.314 . S
N1589 C1593 1.279 . S
C1590 C1588 1.348 . S
C1590 C1592 1.353 . S
C1590 H1648 0.929 . S
C1591 C1588 1.356 . S
C1591 C1593 1.358 . S
C1591 H1649 0.930 . S
C1592 N1589 1.314 . S
C1592 C1590 1.353 . S
C1592 H1650 0.930 . S
C1593 N1589 1.279 . S
C1593 C1591 1.358 . S
C1593 H1651 0.930 . S
C1594 C1597 1.348 . S
C1594 C1598 1.356 . S
C1594 O1645 1.325 . S
C1595 N1596 1.279 . S
C1595 C1598 1.358 . S
C1595 H1652 0.930 . S
N1596 C1595 1.279 . S
N1596 C1599 1.314 . S
C1597 C1594 1.348 . S
C1597 C1599 1.353 . S
C1597 H1653 0.929 . S
C1598 C1594 1.356 . S
C1598 C1595 1.358 . S
C1598 H1654 0.930 . S
C1599 N1596 1.314 . S
C1599 C1597 1.353 . S
C1599 H1655 0.930 . S
C1600 N1601 1.314 . S
C1600 C1605 1.353 . S
C1600 H1606 0.930 . S
N1601 Li1584 1.990 . S
N1601 C1600 1.314 . S
N1601 C1603 1.279 . S
C1602 C1603 1.358 . S
C1602 C1604 1.356 . S
C1602 H1656 0.930 . S
C1603 N1601 1.279 . S
C1603 C1602 1.358 . S
C1603 H1607 0.930 . S
C1604 C1602 1.356 . S
C1604 C1605 1.348 . S
C1605 C1600 1.353 . S
C1605 C1604 1.348 . S
C1605 H1657 0.929 . S
H1606 C1600 0.930 . S
H1607 C1603 0.930 . S
C1608 N1609 1.314 . S
C1608 C1610 1.353 . S
C1608 H1614 0.930 . S
N1609 Li1585 1.990 . S
N1609 C1608 1.314 . S
N1609 C1612 1.279 . S
C1610 C1608 1.353 . S
C1610 C1613 1.348 . S
C1610 H1658 0.929 . S
C1611 C1612 1.358 . S
C1611 C1613 1.356 . S
C1611 H1659 0.930 . S
C1612 N1609 1.279 . S
C1612 C1611 1.358 . S
C1612 H1615 0.930 . S
C1613 C1610 1.348 . S
C1613 C1611 1.356 . S
H1614 C1608 0.930 . S
H1615 C1612 0.930 . S
C1616 C1618 1.348 . S
C1616 C1619 1.356 . S
C1616 O1646 1.325 . S
N1617 C1620 1.314 . S
N1617 C1621 1.279 . S
C1618 C1616 1.348 . S
C1618 C1620 1.353 . S
C1618 H1660 0.929 . S
C1619 C1616 1.356 . S
C1619 C1621 1.358 . S
C1619 H1661 0.930 . S
C1620 N1617 1.314 . S
C1620 C1618 1.353 . S
C1620 H1662 0.930 . S
C1621 N1617 1.279 . S
C1621 C1619 1.358 . S
C1621 H1663 0.930 . S
C1622 C1623 1.348 . S
C1622 C1624 1.356 . S
C1622 O1647 1.325 . S
C1623 C1622 1.348 . S
C1623 C1625 1.353 . S
C1623 H1664 0.929 . S
C1624 C1622 1.356 . S
C1624 C1626 1.358 . S
C1624 H1665 0.930 . S
C1625 C1623 1.353 . S
C1625 N1627 1.314 . S
C1625 H1666 0.930 . S
C1626 C1624 1.358 . S
C1626 N1627 1.279 . S
C1626 H1667 0.930 . S
N1627 C1625 1.314 . S
N1627 C1626 1.279 . S
C1628 C1630 1.353 . S
C1628 N1631 1.314 . S
C1628 H1634 0.930 . S
C1629 N1631 1.279 . S
C1629 C1632 1.358 . S
C1629 H1635 0.930 . S
C1630 C1628 1.353 . S
C1630 C1633 1.348 . S
C1630 H1668 0.929 . S
N1631 Li1586 1.990 . S
N1631 C1628 1.314 . S
N1631 C1629 1.279 . S
C1632 C1629 1.358 . S
C1632 C1633 1.356 . S
C1632 H1669 0.930 . S
C1633 C1630 1.348 . S
C1633 C1632 1.356 . S
H1634 C1628 0.930 . S
H1635 C1629 0.930 . S
C1636 N1637 1.314 . S
C1636 C1638 1.353 . S
C1636 H1642 0.930 . S
N1637 Li1587 1.990 . S
N1637 C1636 1.314 . S
N1637 C1640 1.279 . S
C1638 C1636 1.353 . S
C1638 C1641 1.348 . S
C1638 H1670 0.929 . S
C1639 C1640 1.358 . S
C1639 C1641 1.356 . S
C1639 H1671 0.930 . S
C1640 N1637 1.279 . S
C1640 C1639 1.358 . S
C1640 H1643 0.930 . S
C1641 C1638 1.348 . S
C1641 C1639 1.356 . S
H1642 C1636 0.930 . S
H1643 C1640 0.930 . S
O1644 Li1584 1.956 . S
O1644 Li1585 1.970 . S
O1644 Li1586 1.961 . S
O1644 C1588 1.325 . S
O1645 Li1584 1.970 . S
O1645 Li1585 1.956 . S
O1645 Li1587 1.961 . S
O1645 C1594 1.325 . S
O1646 Li1584 1.961 . S
O1646 Li1586 1.956 . S
O1646 Li1587 1.970 . S
O1646 C1616 1.325 . S
O1647 Li1585 1.961 . S
O1647 Li1586 1.970 . S
O1647 Li1587 1.956 . S
O1647 C1622 1.325 . S
H1648 C1590 0.929 . S
H1649 C1591 0.930 . S
H1650 C1592 0.930 . S
H1651 C1593 0.930 . S
H1652 C1595 0.930 . S
H1653 C1597 0.929 . S
H1654 C1598 0.930 . S
H1655 C1599 0.930 . S
H1656 C1602 0.930 . S
H1657 C1605 0.929 . S
H1658 C1610 0.929 . S
H1659 C1611 0.930 . S
H1660 C1618 0.929 . S
H1661 C1619 0.930 . S
H1662 C1620 0.930 . S
H1663 C1621 0.930 . S
H1664 C1623 0.929 . S
H1665 C1624 0.930 . S
H1666 C1625 0.930 . S
H1667 C1626 0.930 . S
H1668 C1630 0.929 . S
H1669 C1632 0.930 . S
H1670 C1638 0.929 . S
H1671 C1639 0.930 . S
Li1672 N1689 1.990 . S
Li1672 O1732 1.956 1_545 S
Li1672 O1733 1.970 . S
Li1672 O1734 1.961 . S
Li1673 N1697 1.990 . S
Li1673 O1732 1.970 . S
Li1673 O1733 1.956 1_565 S
Li1673 O1735 1.961 . S
Li1674 N1719 1.990 . S
Li1674 O1732 1.961 . S
Li1674 O1734 1.956 1_565 S
Li1674 O1735 1.970 . S
Li1675 N1725 1.990 . S
Li1675 O1733 1.961 . S
Li1675 O1734 1.970 . S
Li1675 O1735 1.956 1_545 S
C1676 C1678 1.348 . S
C1676 C1679 1.356 . S
C1676 O1732 1.325 . S
N1677 C1680 1.314 . S
N1677 C1681 1.279 . S
C1678 C1676 1.348 . S
C1678 C1680 1.353 . S
C1678 H1736 0.929 . S
C1679 C1676 1.356 . S
C1679 C1681 1.358 . S
C1679 H1737 0.930 . S
C1680 N1677 1.314 . S
C1680 C1678 1.353 . S
C1680 H1738 0.930 . S
C1681 N1677 1.279 . S
C1681 C1679 1.358 . S
C1681 H1739 0.930 . S
C1682 C1685 1.348 . S
C1682 C1686 1.356 . S
C1682 O1733 1.325 . S
C1683 N1684 1.279 . S
C1683 C1686 1.358 . S
C1683 H1740 0.930 . S
N1684 C1683 1.279 . S
N1684 C1687 1.314 . S
C1685 C1682 1.348 . S
C1685 C1687 1.353 . S
C1685 H1741 0.929 . S
C1686 C1682 1.356 . S
C1686 C1683 1.358 . S
C1686 H1742 0.930 . S
C1687 N1684 1.314 . S
C1687 C1685 1.353 . S
C1687 H1743 0.930 . S
C1688 N1689 1.314 . S
C1688 C1693 1.353 . S
C1688 H1694 0.930 . S
N1689 Li1672 1.990 . S
N1689 C1688 1.314 . S
N1689 C1691 1.279 . S
C1690 C1691 1.358 . S
C1690 C1692 1.356 . S
C1690 H1744 0.930 . S
C1691 N1689 1.279 . S
C1691 C1690 1.358 . S
C1691 H1695 0.930 1_545 S
C1692 C1690 1.356 . S
C1692 C1693 1.348 . S
C1693 C1688 1.353 . S
C1693 C1692 1.348 . S
C1693 H1745 0.929 . S
H1694 C1688 0.930 . S
H1695 C1691 0.930 1_565 S
C1696 N1697 1.314 . S
C1696 C1698 1.353 . S
C1696 H1702 0.930 . S
N1697 Li1673 1.990 . S
N1697 C1696 1.314 . S
N1697 C1700 1.279 . S
C1698 C1696 1.353 . S
C1698 C1701 1.348 . S
C1698 H1746 0.929 . S
C1699 C1700 1.358 . S
C1699 C1701 1.356 . S
C1699 H1747 0.930 . S
C1700 N1697 1.279 . S
C1700 C1699 1.358 . S
C1700 H1703 0.930 . S
C1701 C1698 1.348 . S
C1701 C1699 1.356 . S
H1702 C1696 0.930 . S
H1703 C1700 0.930 . S
C1704 C1706 1.348 . S
C1704 C1707 1.356 . S
C1704 O1734 1.325 . S
N1705 C1708 1.314 . S
N1705 C1709 1.279 . S
C1706 C1704 1.348 . S
C1706 C1708 1.353 . S
C1706 H1748 0.929 . S
C1707 C1704 1.356 . S
C1707 C1709 1.358 . S
C1707 H1749 0.930 . S
C1708 N1705 1.314 . S
C1708 C1706 1.353 . S
C1708 H1750 0.930 . S
C1709 N1705 1.279 . S
C1709 C1707 1.358 . S
C1709 H1751 0.930 . S
C1710 C1711 1.348 . S
C1710 C1712 1.356 . S
C1710 O1735 1.325 . S
C1711 C1710 1.348 . S
C1711 C1713 1.353 . S
C1711 H1752 0.929 . S
C1712 C1710 1.356 . S
C1712 C1714 1.358 . S
C1712 H1753 0.930 . S
C1713 C1711 1.353 . S
C1713 N1715 1.314 . S
C1713 H1754 0.930 . S
C1714 C1712 1.358 . S
C1714 N1715 1.279 . S
C1714 H1755 0.930 . S
N1715 C1713 1.314 . S
N1715 C1714 1.279 . S
C1716 C1718 1.353 . S
C1716 N1719 1.314 . S
C1716 H1722 0.930 . S
C1717 N1719 1.279 . S
C1717 C1720 1.358 . S
C1717 H1723 0.930 1_565 S
C1718 C1716 1.353 . S
C1718 C1721 1.348 . S
C1718 H1756 0.929 . S
N1719 Li1674 1.990 . S
N1719 C1716 1.314 . S
N1719 C1717 1.279 . S
C1720 C1717 1.358 . S
C1720 C1721 1.356 . S
C1720 H1757 0.930 . S
C1721 C1718 1.348 . S
C1721 C1720 1.356 . S
H1722 C1716 0.930 . S
H1723 C1717 0.930 1_545 S
C1724 N1725 1.314 . S
C1724 C1726 1.353 . S
C1724 H1730 0.930 . S
N1725 Li1675 1.990 . S
N1725 C1724 1.314 . S
N1725 C1728 1.279 . S
C1726 C1724 1.353 . S
C1726 C1729 1.348 . S
C1726 H1758 0.929 . S
C1727 C1728 1.358 . S
C1727 C1729 1.356 . S
C1727 H1759 0.930 . S
C1728 N1725 1.279 . S
C1728 C1727 1.358 . S
C1728 H1731 0.930 . S
C1729 C1726 1.348 . S
C1729 C1727 1.356 . S
H1730 C1724 0.930 . S
H1731 C1728 0.930 . S
O1732 Li1672 1.956 1_565 S
O1732 Li1673 1.970 . S
O1732 Li1674 1.961 . S
O1732 C1676 1.325 . S
O1733 Li1672 1.970 . S
O1733 Li1673 1.956 1_545 S
O1733 Li1675 1.961 . S
O1733 C1682 1.325 . S
O1734 Li1672 1.961 . S
O1734 Li1674 1.956 1_545 S
O1734 Li1675 1.970 . S
O1734 C1704 1.325 . S
O1735 Li1673 1.961 . S
O1735 Li1674 1.970 . S
O1735 Li1675 1.956 1_565 S
O1735 C1710 1.325 . S
H1736 C1678 0.929 . S
H1737 C1679 0.930 . S
H1738 C1680 0.930 . S
H1739 C1681 0.930 . S
H1740 C1683 0.930 . S
H1741 C1685 0.929 . S
H1742 C1686 0.930 . S
H1743 C1687 0.930 . S
H1744 C1690 0.930 . S
H1745 C1693 0.929 . S
H1746 C1698 0.929 . S
H1747 C1699 0.930 . S
H1748 C1706 0.929 . S
H1749 C1707 0.930 . S
H1750 C1708 0.930 . S
H1751 C1709 0.930 . S
H1752 C1711 0.929 . S
H1753 C1712 0.930 . S
H1754 C1713 0.930 . S
H1755 C1714 0.930 . S
H1756 C1718 0.929 . S
H1757 C1720 0.930 . S
H1758 C1726 0.929 . S
H1759 C1727 0.930 . S
Li1760 N1777 1.990 . S
Li1760 O1820 1.956 1_556 S
Li1760 O1821 1.970 . S
Li1760 O1822 1.961 . S
Li1761 N1785 1.990 . S
Li1761 O1820 1.970 . S
Li1761 O1821 1.956 1_554 S
Li1761 O1823 1.961 . S
Li1762 N1807 1.990 . S
Li1762 O1820 1.961 . S
Li1762 O1822 1.956 1_554 S
Li1762 O1823 1.970 . S
Li1763 N1813 1.990 . S
Li1763 O1821 1.961 . S
Li1763 O1822 1.970 . S
Li1763 O1823 1.956 1_556 S
C1764 C1766 1.348 . S
C1764 C1767 1.356 . S
C1764 O1820 1.325 . S
N1765 C1768 1.314 . S
N1765 C1769 1.279 . S
C1766 C1764 1.348 . S
C1766 C1768 1.353 . S
C1766 H1824 0.929 . S
C1767 C1764 1.356 . S
C1767 C1769 1.358 . S
C1767 H1825 0.930 . S
C1768 N1765 1.314 . S
C1768 C1766 1.353 . S
C1768 H1826 0.930 . S
C1769 N1765 1.279 . S
C1769 C1767 1.358 . S
C1769 H1827 0.930 . S
C1770 C1773 1.348 . S
C1770 C1774 1.356 . S
C1770 O1821 1.325 . S
C1771 N1772 1.279 . S
C1771 C1774 1.358 . S
C1771 H1828 0.930 . S
N1772 C1771 1.279 . S
N1772 C1775 1.314 . S
C1773 C1770 1.348 . S
C1773 C1775 1.353 . S
C1773 H1829 0.929 . S
C1774 C1770 1.356 . S
C1774 C1771 1.358 . S
C1774 H1830 0.930 . S
C1775 N1772 1.314 . S
C1775 C1773 1.353 . S
C1775 H1831 0.930 . S
C1776 N1777 1.314 . S
C1776 C1781 1.353 . S
C1776 H1782 0.930 . S
N1777 Li1760 1.990 . S
N1777 C1776 1.314 . S
N1777 C1779 1.279 . S
C1778 C1779 1.358 . S
C1778 C1780 1.356 . S
C1778 H1832 0.930 . S
C1779 N1777 1.279 . S
C1779 C1778 1.358 . S
C1779 H1783 0.930 . S
C1780 C1778 1.356 . S
C1780 C1781 1.348 . S
C1781 C1776 1.353 . S
C1781 C1780 1.348 . S
C1781 H1833 0.929 . S
H1782 C1776 0.930 . S
H1783 C1779 0.930 . S
C1784 N1785 1.314 . S
C1784 C1786 1.353 . S
C1784 H1790 0.930 . S
N1785 Li1761 1.990 . S
N1785 C1784 1.314 . S
N1785 C1788 1.279 . S
C1786 C1784 1.353 . S
C1786 C1789 1.348 . S
C1786 H1834 0.929 . S
C1787 C1788 1.358 . S
C1787 C1789 1.356 . S
C1787 H1835 0.930 . S
C1788 N1785 1.279 . S
C1788 C1787 1.358 . S
C1788 H1791 0.930 1_554 S
C1789 C1786 1.348 . S
C1789 C1787 1.356 . S
H1790 C1784 0.930 . S
H1791 C1788 0.930 1_556 S
C1792 C1794 1.348 . S
C1792 C1795 1.356 . S
C1792 O1822 1.325 . S
N1793 C1796 1.314 . S
N1793 C1797 1.279 . S
C1794 C1792 1.348 . S
C1794 C1796 1.353 . S
C1794 H1836 0.929 . S
C1795 C1792 1.356 . S
C1795 C1797 1.358 . S
C1795 H1837 0.930 . S
C1796 N1793 1.314 . S
C1796 C1794 1.353 . S
C1796 H1838 0.930 . S
C1797 N1793 1.279 . S
C1797 C1795 1.358 . S
C1797 H1839 0.930 . S
C1798 C1799 1.348 . S
C1798 C1800 1.356 . S
C1798 O1823 1.325 . S
C1799 C1798 1.348 . S
C1799 C1801 1.353 . S
C1799 H1840 0.929 . S
C1800 C1798 1.356 . S
C1800 C1802 1.358 . S
C1800 H1841 0.930 . S
C1801 C1799 1.353 . S
C1801 N1803 1.314 . S
C1801 H1842 0.930 . S
C1802 C1800 1.358 . S
C1802 N1803 1.279 . S
C1802 H1843 0.930 . S
N1803 C1801 1.314 . S
N1803 C1802 1.279 . S
C1804 C1806 1.353 . S
C1804 N1807 1.314 . S
C1804 H1810 0.930 . S
C1805 N1807 1.279 . S
C1805 C1808 1.358 . S
C1805 H1811 0.930 . S
C1806 C1804 1.353 . S
C1806 C1809 1.348 . S
C1806 H1844 0.929 . S
N1807 Li1762 1.990 . S
N1807 C1804 1.314 . S
N1807 C1805 1.279 . S
C1808 C1805 1.358 . S
C1808 C1809 1.356 . S
C1808 H1845 0.930 . S
C1809 C1806 1.348 . S
C1809 C1808 1.356 . S
H1810 C1804 0.930 . S
H1811 C1805 0.930 . S
C1812 N1813 1.314 . S
C1812 C1814 1.353 . S
C1812 H1818 0.930 . S
N1813 Li1763 1.990 . S
N1813 C1812 1.314 . S
N1813 C1816 1.279 . S
C1814 C1812 1.353 . S
C1814 C1817 1.348 . S
C1814 H1846 0.929 . S
C1815 C1816 1.358 . S
C1815 C1817 1.356 . S
C1815 H1847 0.930 . S
C1816 N1813 1.279 . S
C1816 C1815 1.358 . S
C1816 H1819 0.930 1_556 S
C1817 C1814 1.348 . S
C1817 C1815 1.356 . S
H1818 C1812 0.930 . S
H1819 C1816 0.930 1_554 S
O1820 Li1760 1.956 1_554 S
O1820 Li1761 1.970 . S
O1820 Li1762 1.961 . S
O1820 C1764 1.325 . S
O1821 Li1760 1.970 . S
O1821 Li1761 1.956 1_556 S
O1821 Li1763 1.961 . S
O1821 C1770 1.325 . S
O1822 Li1760 1.961 . S
O1822 Li1762 1.956 1_556 S
O1822 Li1763 1.970 . S
O1822 C1792 1.325 . S
O1823 Li1761 1.961 . S
O1823 Li1762 1.970 . S
O1823 Li1763 1.956 1_554 S
O1823 C1798 1.325 . S
H1824 C1766 0.929 . S
H1825 C1767 0.930 . S
H1826 C1768 0.930 . S
H1827 C1769 0.930 . S
H1828 C1771 0.930 . S
H1829 C1773 0.929 . S
H1830 C1774 0.930 . S
H1831 C1775 0.930 . S
H1832 C1778 0.930 . S
H1833 C1781 0.929 . S
H1834 C1786 0.929 . S
H1835 C1787 0.930 . S
H1836 C1794 0.929 . S
H1837 C1795 0.930 . S
H1838 C1796 0.930 . S
H1839 C1797 0.930 . S
H1840 C1799 0.929 . S
H1841 C1800 0.930 . S
H1842 C1801 0.930 . S
H1843 C1802 0.930 . S
H1844 C1806 0.929 . S
H1845 C1808 0.930 . S
H1846 C1814 0.929 . S
H1847 C1815 0.930 . S
Li1848 N1865 1.990 . S
Li1848 O1908 1.956 . S
Li1848 O1909 1.970 . S
Li1848 O1910 1.961 . S
Li1849 N1873 1.990 . S
Li1849 O1908 1.970 . S
Li1849 O1909 1.956 . S
Li1849 O1911 1.961 . S
Li1850 N1895 1.990 . S
Li1850 O1908 1.961 . S
Li1850 O1910 1.956 . S
Li1850 O1911 1.970 . S
Li1851 N1901 1.990 . S
Li1851 O1909 1.961 . S
Li1851 O1910 1.970 . S
Li1851 O1911 1.956 . S
C1852 C1854 1.348 . S
C1852 C1855 1.356 . S
C1852 O1908 1.325 . S
N1853 C1856 1.314 . S
N1853 C1857 1.279 . S
C1854 C1852 1.348 . S
C1854 C1856 1.353 . S
C1854 H1912 0.929 . S
C1855 C1852 1.356 . S
C1855 C1857 1.358 . S
C1855 H1913 0.930 . S
C1856 N1853 1.314 . S
C1856 C1854 1.353 . S
C1856 H1914 0.930 . S
C1857 N1853 1.279 . S
C1857 C1855 1.358 . S
C1857 H1915 0.930 . S
C1858 C1861 1.348 . S
C1858 C1862 1.356 . S
C1858 O1909 1.325 . S
C1859 N1860 1.279 . S
C1859 C1862 1.358 . S
C1859 H1916 0.930 . S
N1860 C1859 1.279 . S
N1860 C1863 1.314 . S
C1861 C1858 1.348 . S
C1861 C1863 1.353 . S
C1861 H1917 0.929 . S
C1862 C1858 1.356 . S
C1862 C1859 1.358 . S
C1862 H1918 0.930 . S
C1863 N1860 1.314 . S
C1863 C1861 1.353 . S
C1863 H1919 0.930 . S
C1864 N1865 1.314 . S
C1864 C1869 1.353 . S
C1864 H1870 0.930 . S
N1865 Li1848 1.990 . S
N1865 C1864 1.314 . S
N1865 C1867 1.279 . S
C1866 C1867 1.358 . S
C1866 C1868 1.356 . S
C1866 H1920 0.930 . S
C1867 N1865 1.279 . S
C1867 C1866 1.358 . S
C1867 H1871 0.930 . S
C1868 C1866 1.356 . S
C1868 C1869 1.348 . S
C1869 C1864 1.353 . S
C1869 C1868 1.348 . S
C1869 H1921 0.929 . S
H1870 C1864 0.930 . S
H1871 C1867 0.930 . S
C1872 N1873 1.314 . S
C1872 C1874 1.353 . S
C1872 H1878 0.930 . S
N1873 Li1849 1.990 . S
N1873 C1872 1.314 . S
N1873 C1876 1.279 . S
C1874 C1872 1.353 . S
C1874 C1877 1.348 . S
C1874 H1922 0.929 . S
C1875 C1876 1.358 . S
C1875 C1877 1.356 . S
C1875 H1923 0.930 . S
C1876 N1873 1.279 . S
C1876 C1875 1.358 . S
C1876 H1879 0.930 . S
C1877 C1874 1.348 . S
C1877 C1875 1.356 . S
H1878 C1872 0.930 . S
H1879 C1876 0.930 . S
C1880 C1882 1.348 . S
C1880 C1883 1.356 . S
C1880 O1910 1.325 . S
N1881 C1884 1.314 . S
N1881 C1885 1.279 . S
C1882 C1880 1.348 . S
C1882 C1884 1.353 . S
C1882 H1924 0.929 . S
C1883 C1880 1.356 . S
C1883 C1885 1.358 . S
C1883 H1925 0.930 . S
C1884 N1881 1.314 . S
C1884 C1882 1.353 . S
C1884 H1926 0.930 . S
C1885 N1881 1.279 . S
C1885 C1883 1.358 . S
C1885 H1927 0.930 . S
C1886 C1887 1.348 . S
C1886 C1888 1.356 . S
C1886 O1911 1.325 . S
C1887 C1886 1.348 . S
C1887 C1889 1.353 . S
C1887 H1928 0.929 . S
C1888 C1886 1.356 . S
C1888 C1890 1.358 . S
C1888 H1929 0.930 . S
C1889 C1887 1.353 . S
C1889 N1891 1.314 . S
C1889 H1930 0.930 . S
C1890 C1888 1.358 . S
C1890 N1891 1.279 . S
C1890 H1931 0.930 . S
N1891 C1889 1.314 . S
N1891 C1890 1.279 . S
C1892 C1894 1.353 . S
C1892 N1895 1.314 . S
C1892 H1898 0.930 . S
C1893 N1895 1.279 . S
C1893 C1896 1.358 . S
C1893 H1899 0.930 . S
C1894 C1892 1.353 . S
C1894 C1897 1.348 . S
C1894 H1932 0.929 . S
N1895 Li1850 1.990 . S
N1895 C1892 1.314 . S
N1895 C1893 1.279 . S
C1896 C1893 1.358 . S
C1896 C1897 1.356 . S
C1896 H1933 0.930 . S
C1897 C1894 1.348 . S
C1897 C1896 1.356 . S
H1898 C1892 0.930 . S
H1899 C1893 0.930 . S
C1900 N1901 1.314 . S
C1900 C1902 1.353 . S
C1900 H1906 0.930 . S
N1901 Li1851 1.990 . S
N1901 C1900 1.314 . S
N1901 C1904 1.279 . S
C1902 C1900 1.353 . S
C1902 C1905 1.348 . S
C1902 H1934 0.929 . S
C1903 C1904 1.358 . S
C1903 C1905 1.356 . S
C1903 H1935 0.930 . S
C1904 N1901 1.279 . S
C1904 C1903 1.358 . S
C1904 H1907 0.930 . S
C1905 C1902 1.348 . S
C1905 C1903 1.356 . S
H1906 C1900 0.930 . S
H1907 C1904 0.930 . S
O1908 Li1848 1.956 . S
O1908 Li1849 1.970 . S
O1908 Li1850 1.961 . S
O1908 C1852 1.325 . S
O1909 Li1848 1.970 . S
O1909 Li1849 1.956 . S
O1909 Li1851 1.961 . S
O1909 C1858 1.325 . S
O1910 Li1848 1.961 . S
O1910 Li1850 1.956 . S
O1910 Li1851 1.970 . S
O1910 C1880 1.325 . S
O1911 Li1849 1.961 . S
O1911 Li1850 1.970 . S
O1911 Li1851 1.956 . S
O1911 C1886 1.325 . S
H1912 C1854 0.929 . S
H1913 C1855 0.930 . S
H1914 C1856 0.930 . S
H1915 C1857 0.930 . S
H1916 C1859 0.930 . S
H1917 C1861 0.929 . S
H1918 C1862 0.930 . S
H1919 C1863 0.930 . S
H1920 C1866 0.930 . S
H1921 C1869 0.929 . S
H1922 C1874 0.929 . S
H1923 C1875 0.930 . S
H1924 C1882 0.929 . S
H1925 C1883 0.930 . S
H1926 C1884 0.930 . S
H1927 C1885 0.930 . S
H1928 C1887 0.929 . S
H1929 C1888 0.930 . S
H1930 C1889 0.930 . S
H1931 C1890 0.930 . S
H1932 C1894 0.929 . S
H1933 C1896 0.930 . S
H1934 C1902 0.929 . S
H1935 C1903 0.930 . S
Li1936 N1953 1.990 . S
Li1936 O1996 1.956 . S
Li1936 O1997 1.970 . S
Li1936 O1998 1.961 . S
Li1937 N1961 1.990 . S
Li1937 O1996 1.970 . S
Li1937 O1997 1.956 . S
Li1937 O1999 1.961 . S
Li1938 N1983 1.990 . S
Li1938 O1996 1.961 . S
Li1938 O1998 1.956 . S
Li1938 O1999 1.970 . S
Li1939 N1989 1.990 . S
Li1939 O1997 1.961 . S
Li1939 O1998 1.970 . S
Li1939 O1999 1.956 . S
C1940 C1942 1.348 . S
C1940 C1943 1.356 . S
C1940 O1996 1.325 . S
N1941 C1944 1.314 . S
N1941 C1945 1.279 . S
C1942 C1940 1.348 . S
C1942 C1944 1.353 . S
C1942 H2000 0.929 . S
C1943 C1940 1.356 . S
C1943 C1945 1.358 . S
C1943 H2001 0.930 . S
C1944 N1941 1.314 . S
C1944 C1942 1.353 . S
C1944 H2002 0.930 . S
C1945 N1941 1.279 . S
C1945 C1943 1.358 . S
C1945 H2003 0.930 . S
C1946 C1949 1.348 . S
C1946 C1950 1.356 . S
C1946 O1997 1.325 . S
C1947 N1948 1.279 . S
C1947 C1950 1.358 . S
C1947 H2004 0.930 . S
N1948 C1947 1.279 . S
N1948 C1951 1.314 . S
C1949 C1946 1.348 . S
C1949 C1951 1.353 . S
C1949 H2005 0.929 . S
C1950 C1946 1.356 . S
C1950 C1947 1.358 . S
C1950 H2006 0.930 . S
C1951 N1948 1.314 . S
C1951 C1949 1.353 . S
C1951 H2007 0.930 . S
C1952 N1953 1.314 . S
C1952 C1957 1.353 . S
C1952 H1958 0.930 . S
N1953 Li1936 1.990 . S
N1953 C1952 1.314 . S
N1953 C1955 1.279 . S
C1954 C1955 1.358 . S
C1954 C1956 1.356 . S
C1954 H2008 0.930 . S
C1955 N1953 1.279 . S
C1955 C1954 1.358 . S
C1955 H1959 0.930 . S
C1956 C1954 1.356 . S
C1956 C1957 1.348 . S
C1957 C1952 1.353 . S
C1957 C1956 1.348 . S
C1957 H2009 0.929 . S
H1958 C1952 0.930 . S
H1959 C1955 0.930 . S
C1960 N1961 1.314 . S
C1960 C1962 1.353 . S
C1960 H1966 0.930 . S
N1961 Li1937 1.990 . S
N1961 C1960 1.314 . S
N1961 C1964 1.279 . S
C1962 C1960 1.353 . S
C1962 C1965 1.348 . S
C1962 H2010 0.929 . S
C1963 C1964 1.358 . S
C1963 C1965 1.356 . S
C1963 H2011 0.930 . S
C1964 N1961 1.279 . S
C1964 C1963 1.358 . S
C1964 H1967 0.930 . S
C1965 C1962 1.348 . S
C1965 C1963 1.356 . S
H1966 C1960 0.930 . S
H1967 C1964 0.930 . S
C1968 C1970 1.348 . S
C1968 C1971 1.356 . S
C1968 O1998 1.325 . S
N1969 C1972 1.314 . S
N1969 C1973 1.279 . S
C1970 C1968 1.348 . S
C1970 C1972 1.353 . S
C1970 H2012 0.929 . S
C1971 C1968 1.356 . S
C1971 C1973 1.358 . S
C1971 H2013 0.930 . S
C1972 N1969 1.314 . S
C1972 C1970 1.353 . S
C1972 H2014 0.930 . S
C1973 N1969 1.279 . S
C1973 C1971 1.358 . S
C1973 H2015 0.930 . S
C1974 C1975 1.348 . S
C1974 C1976 1.356 . S
C1974 O1999 1.325 . S
C1975 C1974 1.348 . S
C1975 C1977 1.353 . S
C1975 H2016 0.929 . S
C1976 C1974 1.356 . S
C1976 C1978 1.358 . S
C1976 H2017 0.930 . S
C1977 C1975 1.353 . S
C1977 N1979 1.314 . S
C1977 H2018 0.930 . S
C1978 C1976 1.358 . S
C1978 N1979 1.279 . S
C1978 H2019 0.930 . S
N1979 C1977 1.314 . S
N1979 C1978 1.279 . S
C1980 C1982 1.353 . S
C1980 N1983 1.314 . S
C1980 H1986 0.930 . S
C1981 N1983 1.279 . S
C1981 C1984 1.358 . S
C1981 H1987 0.930 . S
C1982 C1980 1.353 . S
C1982 C1985 1.348 . S
C1982 H2020 0.929 . S
N1983 Li1938 1.990 . S
N1983 C1980 1.314 . S
N1983 C1981 1.279 . S
C1984 C1981 1.358 . S
C1984 C1985 1.356 . S
C1984 H2021 0.930 . S
C1985 C1982 1.348 . S
C1985 C1984 1.356 . S
H1986 C1980 0.930 . S
H1987 C1981 0.930 . S
C1988 N1989 1.314 . S
C1988 C1990 1.353 . S
C1988 H1994 0.930 . S
N1989 Li1939 1.990 . S
N1989 C1988 1.314 . S
N1989 C1992 1.279 . S
C1990 C1988 1.353 . S
C1990 C1993 1.348 . S
C1990 H2022 0.929 . S
C1991 C1992 1.358 . S
C1991 C1993 1.356 . S
C1991 H2023 0.930 . S
C1992 N1989 1.279 . S
C1992 C1991 1.358 . S
C1992 H1995 0.930 . S
C1993 C1990 1.348 . S
C1993 C1991 1.356 . S
H1994 C1988 0.930 . S
H1995 C1992 0.930 . S
O1996 Li1936 1.956 . S
O1996 Li1937 1.970 . S
O1996 Li1938 1.961 . S
O1996 C1940 1.325 . S
O1997 Li1936 1.970 . S
O1997 Li1937 1.956 . S
O1997 Li1939 1.961 . S
O1997 C1946 1.325 . S
O1998 Li1936 1.961 . S
O1998 Li1938 1.956 . S
O1998 Li1939 1.970 . S
O1998 C1968 1.325 . S
O1999 Li1937 1.961 . S
O1999 Li1938 1.970 . S
O1999 Li1939 1.956 . S
O1999 C1974 1.325 . S
H2000 C1942 0.929 . S
H2001 C1943 0.930 . S
H2002 C1944 0.930 . S
H2003 C1945 0.930 . S
H2004 C1947 0.930 . S
H2005 C1949 0.929 . S
H2006 C1950 0.930 . S
H2007 C1951 0.930 . S
H2008 C1954 0.930 . S
H2009 C1957 0.929 . S
H2010 C1962 0.929 . S
H2011 C1963 0.930 . S
H2012 C1970 0.929 . S
H2013 C1971 0.930 . S
H2014 C1972 0.930 . S
H2015 C1973 0.930 . S
H2016 C1975 0.929 . S
H2017 C1976 0.930 . S
H2018 C1977 0.930 . S
H2019 C1978 0.930 . S
H2020 C1982 0.929 . S
H2021 C1984 0.930 . S
H2022 C1990 0.929 . S
H2023 C1991 0.930 . S
Li2024 N2041 1.990 . S
Li2024 O2084 1.956 . S
Li2024 O2085 1.970 . S
Li2024 O2086 1.961 . S
Li2025 N2049 1.990 . S
Li2025 O2084 1.970 . S
Li2025 O2085 1.956 . S
Li2025 O2087 1.961 . S
Li2026 N2071 1.990 . S
Li2026 O2084 1.961 . S
Li2026 O2086 1.956 . S
Li2026 O2087 1.970 . S
Li2027 N2077 1.990 . S
Li2027 O2085 1.961 . S
Li2027 O2086 1.970 . S
Li2027 O2087 1.956 . S
C2028 C2030 1.348 . S
C2028 C2031 1.356 . S
C2028 O2084 1.325 . S
N2029 C2032 1.314 . S
N2029 C2033 1.279 . S
C2030 C2028 1.348 . S
C2030 C2032 1.353 . S
C2030 H2088 0.929 . S
C2031 C2028 1.356 . S
C2031 C2033 1.358 . S
C2031 H2089 0.930 . S
C2032 N2029 1.314 . S
C2032 C2030 1.353 . S
C2032 H2090 0.930 . S
C2033 N2029 1.279 . S
C2033 C2031 1.358 . S
C2033 H2091 0.930 . S
C2034 C2037 1.348 . S
C2034 C2038 1.356 . S
C2034 O2085 1.325 . S
C2035 N2036 1.279 . S
C2035 C2038 1.358 . S
C2035 H2092 0.930 . S
N2036 C2035 1.279 . S
N2036 C2039 1.314 . S
C2037 C2034 1.348 . S
C2037 C2039 1.353 . S
C2037 H2093 0.929 . S
C2038 C2034 1.356 . S
C2038 C2035 1.358 . S
C2038 H2094 0.930 . S
C2039 N2036 1.314 . S
C2039 C2037 1.353 . S
C2039 H2095 0.930 . S
C2040 N2041 1.314 . S
C2040 C2045 1.353 . S
C2040 H2046 0.930 . S
N2041 Li2024 1.990 . S
N2041 C2040 1.314 . S
N2041 C2043 1.279 . S
C2042 C2043 1.358 . S
C2042 C2044 1.356 . S
C2042 H2096 0.930 . S
C2043 N2041 1.279 . S
C2043 C2042 1.358 . S
C2043 H2047 0.930 . S
C2044 C2042 1.356 . S
C2044 C2045 1.348 . S
C2045 C2040 1.353 . S
C2045 C2044 1.348 . S
C2045 H2097 0.929 . S
H2046 C2040 0.930 . S
H2047 C2043 0.930 . S
C2048 N2049 1.314 . S
C2048 C2050 1.353 . S
C2048 H2054 0.930 . S
N2049 Li2025 1.990 . S
N2049 C2048 1.314 . S
N2049 C2052 1.279 . S
C2050 C2048 1.353 . S
C2050 C2053 1.348 . S
C2050 H2098 0.929 . S
C2051 C2052 1.358 . S
C2051 C2053 1.356 . S
C2051 H2099 0.930 . S
C2052 N2049 1.279 . S
C2052 C2051 1.358 . S
C2052 H2055 0.930 . S
C2053 C2050 1.348 . S
C2053 C2051 1.356 . S
H2054 C2048 0.930 . S
H2055 C2052 0.930 . S
C2056 C2058 1.348 . S
C2056 C2059 1.356 . S
C2056 O2086 1.325 . S
N2057 C2060 1.314 . S
N2057 C2061 1.279 . S
C2058 C2056 1.348 . S
C2058 C2060 1.353 . S
C2058 H2100 0.929 . S
C2059 C2056 1.356 . S
C2059 C2061 1.358 . S
C2059 H2101 0.930 . S
C2060 N2057 1.314 . S
C2060 C2058 1.353 . S
C2060 H2102 0.930 . S
C2061 N2057 1.279 . S
C2061 C2059 1.358 . S
C2061 H2103 0.930 . S
C2062 C2063 1.348 . S
C2062 C2064 1.356 . S
C2062 O2087 1.325 . S
C2063 C2062 1.348 . S
C2063 C2065 1.353 . S
C2063 H2104 0.929 . S
C2064 C2062 1.356 . S
C2064 C2066 1.358 . S
C2064 H2105 0.930 . S
C2065 C2063 1.353 . S
C2065 N2067 1.314 . S
C2065 H2106 0.930 . S
C2066 C2064 1.358 . S
C2066 N2067 1.279 . S
C2066 H2107 0.930 . S
N2067 C2065 1.314 . S
N2067 C2066 1.279 . S
C2068 C2070 1.353 . S
C2068 N2071 1.314 . S
C2068 H2074 0.930 . S
C2069 N2071 1.279 . S
C2069 C2072 1.358 . S
C2069 H2075 0.930 . S
C2070 C2068 1.353 . S
C2070 C2073 1.348 . S
C2070 H2108 0.929 . S
N2071 Li2026 1.990 . S
N2071 C2068 1.314 . S
N2071 C2069 1.279 . S
C2072 C2069 1.358 . S
C2072 C2073 1.356 . S
C2072 H2109 0.930 . S
C2073 C2070 1.348 . S
C2073 C2072 1.356 . S
H2074 C2068 0.930 . S
H2075 C2069 0.930 . S
C2076 N2077 1.314 . S
C2076 C2078 1.353 . S
C2076 H2082 0.930 . S
N2077 Li2027 1.990 . S
N2077 C2076 1.314 . S
N2077 C2080 1.279 . S
C2078 C2076 1.353 . S
C2078 C2081 1.348 . S
C2078 H2110 0.929 . S
C2079 C2080 1.358 . S
C2079 C2081 1.356 . S
C2079 H2111 0.930 . S
C2080 N2077 1.279 . S
C2080 C2079 1.358 . S
C2080 H2083 0.930 . S
C2081 C2078 1.348 . S
C2081 C2079 1.356 . S
H2082 C2076 0.930 . S
H2083 C2080 0.930 . S
O2084 Li2024 1.956 . S
O2084 Li2025 1.970 . S
O2084 Li2026 1.961 . S
O2084 C2028 1.325 . S
O2085 Li2024 1.970 . S
O2085 Li2025 1.956 . S
O2085 Li2027 1.961 . S
O2085 C2034 1.325 . S
O2086 Li2024 1.961 . S
O2086 Li2026 1.956 . S
O2086 Li2027 1.970 . S
O2086 C2056 1.325 . S
O2087 Li2025 1.961 . S
O2087 Li2026 1.970 . S
O2087 Li2027 1.956 . S
O2087 C2062 1.325 . S
H2088 C2030 0.929 . S
H2089 C2031 0.930 . S
H2090 C2032 0.930 . S
H2091 C2033 0.930 . S
H2092 C2035 0.930 . S
H2093 C2037 0.929 . S
H2094 C2038 0.930 . S
H2095 C2039 0.930 . S
H2096 C2042 0.930 . S
H2097 C2045 0.929 . S
H2098 C2050 0.929 . S
H2099 C2051 0.930 . S
H2100 C2058 0.929 . S
H2101 C2059 0.930 . S
H2102 C2060 0.930 . S
H2103 C2061 0.930 . S
H2104 C2063 0.929 . S
H2105 C2064 0.930 . S
H2106 C2065 0.930 . S
H2107 C2066 0.930 . S
H2108 C2070 0.929 . S
H2109 C2072 0.930 . S
H2110 C2078 0.929 . S
H2111 C2079 0.930 . S
C2112 C2113 1.363 . S
C2112 C2118 1.379 . S
C2112 N2120 1.356 . S
C2113 C2112 1.363 . S
C2113 C2119 1.363 . S
C2114 C2115 1.363 . S
C2114 C2119 1.379 . S
C2114 N2121 1.356 . S
C2115 C2114 1.363 . S
C2115 C2118 1.363 . S
N2116 C2118 1.356 . S
N2116 H2128 0.984 . S
N2116 H2129 0.985 . S
N2117 C2119 1.356 . S
N2117 H2122 0.984 . S
N2117 H2123 0.985 . S
C2118 C2112 1.379 . S
C2118 C2115 1.363 . S
C2118 N2116 1.356 . S
C2119 C2113 1.363 . S
C2119 C2114 1.379 . S
C2119 N2117 1.356 . S
N2120 C2112 1.356 . S
N2120 H2126 0.984 . S
N2120 H2127 0.984 . S
N2121 C2114 1.356 . S
N2121 H2124 0.984 . S
N2121 H2125 0.985 . S
H2122 N2117 0.984 . S
H2123 N2117 0.985 . S
H2124 N2121 0.984 . S
H2125 N2121 0.985 . S
H2126 N2120 0.984 . S
H2127 N2120 0.984 . S
H2128 N2116 0.984 . S
H2129 N2116 0.985 . S
C2130 C2131 1.363 . S
C2130 C2136 1.379 . S
C2130 N2138 1.356 . S
C2131 C2130 1.363 . S
C2131 C2137 1.363 . S
C2132 C2133 1.363 . S
C2132 C2137 1.379 . S
C2132 N2139 1.356 . S
C2133 C2132 1.363 . S
C2133 C2136 1.363 . S
N2134 C2136 1.356 . S
N2134 H2146 0.984 . S
N2134 H2147 0.985 . S
N2135 C2137 1.356 . S
N2135 H2140 0.984 . S
N2135 H2141 0.985 . S
C2136 C2130 1.379 . S
C2136 C2133 1.363 . S
C2136 N2134 1.356 . S
C2137 C2131 1.363 . S
C2137 C2132 1.379 . S
C2137 N2135 1.356 . S
N2138 C2130 1.356 . S
N2138 H2144 0.984 . S
N2138 H2145 0.984 . S
N2139 C2132 1.356 . S
N2139 H2142 0.984 . S
N2139 H2143 0.985 . S
H2140 N2135 0.984 . S
H2141 N2135 0.985 . S
H2142 N2139 0.984 . S
H2143 N2139 0.985 . S
H2144 N2138 0.984 . S
H2145 N2138 0.984 . S
H2146 N2134 0.984 . S
H2147 N2134 0.985 . S
C2148 C2149 1.363 . S
C2148 C2154 1.379 . S
C2148 N2156 1.356 . S
C2149 C2148 1.363 . S
C2149 C2155 1.363 . S
C2150 C2151 1.363 . S
C2150 C2155 1.379 . S
C2150 N2157 1.356 . S
C2151 C2150 1.363 . S
C2151 C2154 1.363 . S
N2152 C2154 1.356 . S
N2152 H2164 0.984 . S
N2152 H2165 0.985 . S
N2153 C2155 1.356 . S
N2153 H2158 0.984 . S
N2153 H2159 0.985 . S
C2154 C2148 1.379 . S
C2154 C2151 1.363 . S
C2154 N2152 1.356 . S
C2155 C2149 1.363 . S
C2155 C2150 1.379 . S
C2155 N2153 1.356 . S
N2156 C2148 1.356 . S
N2156 H2162 0.984 . S
N2156 H2163 0.984 . S
N2157 C2150 1.356 . S
N2157 H2160 0.984 . S
N2157 H2161 0.985 . S
H2158 N2153 0.984 . S
H2159 N2153 0.985 . S
H2160 N2157 0.984 . S
H2161 N2157 0.985 . S
H2162 N2156 0.984 . S
H2163 N2156 0.984 . S
H2164 N2152 0.984 . S
H2165 N2152 0.985 . S
C2166 C2167 1.363 . S
C2166 C2172 1.379 . S
C2166 N2174 1.356 . S
C2167 C2166 1.363 . S
C2167 C2173 1.363 . S
C2168 C2169 1.363 . S
C2168 C2173 1.379 . S
C2168 N2175 1.356 . S
C2169 C2168 1.363 . S
C2169 C2172 1.363 . S
N2170 C2172 1.356 . S
N2170 H2182 0.984 . S
N2170 H2183 0.985 . S
N2171 C2173 1.356 . S
N2171 H2176 0.984 . S
N2171 H2177 0.985 . S
C2172 C2166 1.379 . S
C2172 C2169 1.363 . S
C2172 N2170 1.356 . S
C2173 C2167 1.363 . S
C2173 C2168 1.379 . S
C2173 N2171 1.356 . S
N2174 C2166 1.356 . S
N2174 H2180 0.984 . S
N2174 H2181 0.984 . S
N2175 C2168 1.356 . S
N2175 H2178 0.984 . S
N2175 H2179 0.985 1_554 S
H2176 N2171 0.984 . S
H2177 N2171 0.985 . S
H2178 N2175 0.984 . S
H2179 N2175 0.985 1_556 S
H2180 N2174 0.984 . S
H2181 N2174 0.984 . S
H2182 N2170 0.984 . S
H2183 N2170 0.985 . S
C2184 C2185 1.363 . S
C2184 C2190 1.379 . S
C2184 N2192 1.356 . S
C2185 C2184 1.363 . S
C2185 C2191 1.363 . S
C2186 C2187 1.363 . S
C2186 C2191 1.379 . S
C2186 N2193 1.356 . S
C2187 C2186 1.363 . S
C2187 C2190 1.363 . S
N2188 C2190 1.356 . S
N2188 H2200 0.984 . S
N2188 H2201 0.985 . S
N2189 C2191 1.356 . S
N2189 H2194 0.984 . S
N2189 H2195 0.985 . S
C2190 C2184 1.379 . S
C2190 C2187 1.363 . S
C2190 N2188 1.356 . S
C2191 C2185 1.363 . S
C2191 C2186 1.379 . S
C2191 N2189 1.356 . S
N2192 C2184 1.356 . S
N2192 H2198 0.984 . S
N2192 H2199 0.984 . S
N2193 C2186 1.356 . S
N2193 H2196 0.984 . S
N2193 H2197 0.985 . S
H2194 N2189 0.984 . S
H2195 N2189 0.985 . S
H2196 N2193 0.984 . S
H2197 N2193 0.985 . S
H2198 N2192 0.984 . S
H2199 N2192 0.984 . S
H2200 N2188 0.984 . S
H2201 N2188 0.985 . S
C2202 C2203 1.363 . S
C2202 C2208 1.379 . S
C2202 N2210 1.356 . S
C2203 C2202 1.363 . S
C2203 C2209 1.363 . S
C2204 C2205 1.363 . S
C2204 C2209 1.379 . S
C2204 N2211 1.356 . S
C2205 C2204 1.363 . S
C2205 C2208 1.363 . S
N2206 C2208 1.356 . S
N2206 H2218 0.984 . S
N2206 H2219 0.985 . S
N2207 C2209 1.356 . S
N2207 H2212 0.984 . S
N2207 H2213 0.985 . S
C2208 C2202 1.379 . S
C2208 C2205 1.363 . S
C2208 N2206 1.356 . S
C2209 C2203 1.363 . S
C2209 C2204 1.379 . S
C2209 N2207 1.356 . S
N2210 C2202 1.356 . S
N2210 H2216 0.984 . S
N2210 H2217 0.984 . S
N2211 C2204 1.356 . S
N2211 H2214 0.984 . S
N2211 H2215 0.985 . S
H2212 N2207 0.984 . S
H2213 N2207 0.985 . S
H2214 N2211 0.984 . S
H2215 N2211 0.985 . S
H2216 N2210 0.984 . S
H2217 N2210 0.984 . S
H2218 N2206 0.984 . S
H2219 N2206 0.985 . S
C2220 C2221 1.363 . S
C2220 C2226 1.379 . S
C2220 N2228 1.356 . S
C2221 C2220 1.363 . S
C2221 C2227 1.363 . S
C2222 C2223 1.363 . S
C2222 C2227 1.379 . S
C2222 N2229 1.356 . S
C2223 C2222 1.363 . S
C2223 C2226 1.363 . S
N2224 C2226 1.356 . S
N2224 H2236 0.984 . S
N2224 H2237 0.985 . S
N2225 C2227 1.356 . S
N2225 H2230 0.984 . S
N2225 H2231 0.985 . S
C2226 C2220 1.379 . S
C2226 C2223 1.363 . S
C2226 N2224 1.356 . S
C2227 C2221 1.363 . S
C2227 C2222 1.379 . S
C2227 N2225 1.356 . S
N2228 C2220 1.356 . S
N2228 H2234 0.984 . S
N2228 H2235 0.984 . S
N2229 C2222 1.356 . S
N2229 H2232 0.984 . S
N2229 H2233 0.985 . S
H2230 N2225 0.984 . S
H2231 N2225 0.985 . S
H2232 N2229 0.984 . S
H2233 N2229 0.985 . S
H2234 N2228 0.984 . S
H2235 N2228 0.984 . S
H2236 N2224 0.984 . S
H2237 N2224 0.985 . S
C2238 C2239 1.363 . S
C2238 C2244 1.379 . S
C2238 N2246 1.356 . S
C2239 C2238 1.363 . S
C2239 C2245 1.363 . S
C2240 C2241 1.363 . S
C2240 C2245 1.379 . S
C2240 N2247 1.356 . S
C2241 C2240 1.363 . S
C2241 C2244 1.363 . S
N2242 C2244 1.356 . S
N2242 H2254 0.984 . S
N2242 H2255 0.985 . S
N2243 C2245 1.356 . S
N2243 H2248 0.984 . S
N2243 H2249 0.985 . S
C2244 C2238 1.379 . S
C2244 C2241 1.363 . S
C2244 N2242 1.356 . S
C2245 C2239 1.363 . S
C2245 C2240 1.379 . S
C2245 N2243 1.356 . S
N2246 C2238 1.356 . S
N2246 H2252 0.984 . S
N2246 H2253 0.984 . S
N2247 C2240 1.356 . S
N2247 H2250 0.984 . S
N2247 H2251 0.985 1_556 S
H2248 N2243 0.984 . S
H2249 N2243 0.985 . S
H2250 N2247 0.984 . S
H2251 N2247 0.985 1_554 S
H2252 N2246 0.984 . S
H2253 N2246 0.984 . S
H2254 N2242 0.984 . S
H2255 N2242 0.985 . S
C2256 C2257 1.363 . S
C2256 C2262 1.379 . S
C2256 N2264 1.356 . S
C2257 C2256 1.363 . S
C2257 C2263 1.363 . S
C2258 C2259 1.363 . S
C2258 C2263 1.379 . S
C2258 N2265 1.356 . S
C2259 C2258 1.363 . S
C2259 C2262 1.363 . S
N2260 C2262 1.356 . S
N2260 H2272 0.984 . S
N2260 H2273 0.985 . S
N2261 C2263 1.356 . S
N2261 H2266 0.984 . S
N2261 H2267 0.985 . S
C2262 C2256 1.379 . S
C2262 C2259 1.363 . S
C2262 N2260 1.356 . S
C2263 C2257 1.363 . S
C2263 C2258 1.379 . S
C2263 N2261 1.356 . S
N2264 C2256 1.356 . S
N2264 H2270 0.984 . S
N2264 H2271 0.984 . S
N2265 C2258 1.356 . S
N2265 H2268 0.984 . S
N2265 H2269 0.985 . S
H2266 N2261 0.984 . S
H2267 N2261 0.985 . S
H2268 N2265 0.984 . S
H2269 N2265 0.985 . S
H2270 N2264 0.984 . S
H2271 N2264 0.984 . S
H2272 N2260 0.984 . S
H2273 N2260 0.985 . S
C2274 C2275 1.363 . S
C2274 C2280 1.379 . S
C2274 N2282 1.356 . S
C2275 C2274 1.363 . S
C2275 C2281 1.363 . S
C2276 C2277 1.363 . S
C2276 C2281 1.379 . S
C2276 N2283 1.356 . S
C2277 C2276 1.363 . S
C2277 C2280 1.363 . S
N2278 C2280 1.356 . S
N2278 H2290 0.984 . S
N2278 H2291 0.985 . S
N2279 C2281 1.356 . S
N2279 H2284 0.984 . S
N2279 H2285 0.985 . S
C2280 C2274 1.379 . S
C2280 C2277 1.363 . S
C2280 N2278 1.356 . S
C2281 C2275 1.363 . S
C2281 C2276 1.379 . S
C2281 N2279 1.356 . S
N2282 C2274 1.356 . S
N2282 H2288 0.984 . S
N2282 H2289 0.984 . S
N2283 C2276 1.356 . S
N2283 H2286 0.984 . S
N2283 H2287 0.985 . S
H2284 N2279 0.984 . S
H2285 N2279 0.985 . S
H2286 N2283 0.984 . S
H2287 N2283 0.985 . S
H2288 N2282 0.984 . S
H2289 N2282 0.984 . S
H2290 N2278 0.984 . S
H2291 N2278 0.985 . S
C2292 C2293 1.363 . S
C2292 C2298 1.379 . S
C2292 N2300 1.356 . S
C2293 C2292 1.363 . S
C2293 C2299 1.363 . S
C2294 C2295 1.363 . S
C2294 C2299 1.379 . S
C2294 N2301 1.356 . S
C2295 C2294 1.363 . S
C2295 C2298 1.363 . S
N2296 C2298 1.356 . S
N2296 H2308 0.984 . S
N2296 H2309 0.985 . S
N2297 C2299 1.356 . S
N2297 H2302 0.984 . S
N2297 H2303 0.985 . S
C2298 C2292 1.379 . S
C2298 C2295 1.363 . S
C2298 N2296 1.356 . S
C2299 C2293 1.363 . S
C2299 C2294 1.379 . S
C2299 N2297 1.356 . S
N2300 C2292 1.356 . S
N2300 H2306 0.984 . S
N2300 H2307 0.984 . S
N2301 C2294 1.356 . S
N2301 H2304 0.984 . S
N2301 H2305 0.985 . S
H2302 N2297 0.984 . S
H2303 N2297 0.985 . S
H2304 N2301 0.984 . S
H2305 N2301 0.985 . S
H2306 N2300 0.984 . S
H2307 N2300 0.984 . S
H2308 N2296 0.984 . S
H2309 N2296 0.985 . S
C2310 C2311 1.363 . S
C2310 C2316 1.379 . S
C2310 N2318 1.356 . S
C2311 C2310 1.363 . S
C2311 C2317 1.363 . S
C2312 C2313 1.363 . S
C2312 C2317 1.379 . S
C2312 N2319 1.356 . S
C2313 C2312 1.363 . S
C2313 C2316 1.363 . S
N2314 C2316 1.356 . S
N2314 H2326 0.984 . S
N2314 H2327 0.985 . S
N2315 C2317 1.356 . S
N2315 H2320 0.984 . S
N2315 H2321 0.985 . S
C2316 C2310 1.379 . S
C2316 C2313 1.363 . S
C2316 N2314 1.356 . S
C2317 C2311 1.363 . S
C2317 C2312 1.379 . S
C2317 N2315 1.356 . S
N2318 C2310 1.356 . S
N2318 H2324 0.984 . S
N2318 H2325 0.984 . S
N2319 C2312 1.356 . S
N2319 H2322 0.984 . S
N2319 H2323 0.985 . S
H2320 N2315 0.984 . S
H2321 N2315 0.985 . S
H2322 N2319 0.984 . S
H2323 N2319 0.985 . S
H2324 N2318 0.984 . S
H2325 N2318 0.984 . S
H2326 N2314 0.984 . S
H2327 N2314 0.985 . S
C2328 C2329 1.363 . S
C2328 C2334 1.379 . S
C2328 N2336 1.356 . S
C2329 C2328 1.363 . S
C2329 C2335 1.363 . S
C2330 C2331 1.363 . S
C2330 C2335 1.379 . S
C2330 N2337 1.356 . S
C2331 C2330 1.363 . S
C2331 C2334 1.363 . S
N2332 C2334 1.356 . S
N2332 H2344 0.984 . S
N2332 H2345 0.985 . S
N2333 C2335 1.356 . S
N2333 H2338 0.984 . S
N2333 H2339 0.985 . S
C2334 C2328 1.379 . S
C2334 C2331 1.363 . S
C2334 N2332 1.356 . S
C2335 C2329 1.363 . S
C2335 C2330 1.379 . S
C2335 N2333 1.356 . S
N2336 C2328 1.356 . S
N2336 H2342 0.984 . S
N2336 H2343 0.984 . S
N2337 C2330 1.356 . S
N2337 H2340 0.984 . S
N2337 H2341 0.985 . S
H2338 N2333 0.984 . S
H2339 N2333 0.985 . S
H2340 N2337 0.984 . S
H2341 N2337 0.985 . S
H2342 N2336 0.984 . S
H2343 N2336 0.984 . S
H2344 N2332 0.984 . S
H2345 N2332 0.985 . S
C2346 C2347 1.363 . S
C2346 C2352 1.379 . S
C2346 N2354 1.356 . S
C2347 C2346 1.363 . S
C2347 C2353 1.363 . S
C2348 C2349 1.363 . S
C2348 C2353 1.379 . S
C2348 N2355 1.356 . S
C2349 C2348 1.363 . S
C2349 C2352 1.363 . S
N2350 C2352 1.356 . S
N2350 H2362 0.984 . S
N2350 H2363 0.985 . S
N2351 C2353 1.356 . S
N2351 H2356 0.984 . S
N2351 H2357 0.985 . S
C2352 C2346 1.379 . S
C2352 C2349 1.363 . S
C2352 N2350 1.356 . S
C2353 C2347 1.363 . S
C2353 C2348 1.379 . S
C2353 N2351 1.356 . S
N2354 C2346 1.356 . S
N2354 H2360 0.984 . S
N2354 H2361 0.984 . S
N2355 C2348 1.356 . S
N2355 H2358 0.984 . S
N2355 H2359 0.985 . S
H2356 N2351 0.984 . S
H2357 N2351 0.985 . S
H2358 N2355 0.984 . S
H2359 N2355 0.985 . S
H2360 N2354 0.984 . S
H2361 N2354 0.984 . S
H2362 N2350 0.984 . S
H2363 N2350 0.985 . S
C2364 C2365 1.363 . S
C2364 C2370 1.379 . S
C2364 N2372 1.356 . S
C2365 C2364 1.363 . S
C2365 C2371 1.363 . S
C2366 C2367 1.363 . S
C2366 C2371 1.379 . S
C2366 N2373 1.356 . S
C2367 C2366 1.363 . S
C2367 C2370 1.363 . S
N2368 C2370 1.356 . S
N2368 H2380 0.984 . S
N2368 H2381 0.985 . S
N2369 C2371 1.356 . S
N2369 H2374 0.984 . S
N2369 H2375 0.985 . S
C2370 C2364 1.379 . S
C2370 C2367 1.363 . S
C2370 N2368 1.356 . S
C2371 C2365 1.363 . S
C2371 C2366 1.379 . S
C2371 N2369 1.356 . S
N2372 C2364 1.356 . S
N2372 H2378 0.984 . S
N2372 H2379 0.984 . S
N2373 C2366 1.356 . S
N2373 H2376 0.984 . S
N2373 H2377 0.985 . S
H2374 N2369 0.984 . S
H2375 N2369 0.985 . S
H2376 N2373 0.984 . S
H2377 N2373 0.985 . S
H2378 N2372 0.984 . S
H2379 N2372 0.984 . S
H2380 N2368 0.984 . S
H2381 N2368 0.985 . S
C2382 C2383 1.363 . S
C2382 C2388 1.379 . S
C2382 N2390 1.356 . S
C2383 C2382 1.363 . S
C2383 C2389 1.363 . S
C2384 C2385 1.363 . S
C2384 C2389 1.379 . S
C2384 N2391 1.356 . S
C2385 C2384 1.363 . S
C2385 C2388 1.363 . S
N2386 C2388 1.356 . S
N2386 H2398 0.984 . S
N2386 H2399 0.985 . S
N2387 C2389 1.356 . S
N2387 H2392 0.984 . S
N2387 H2393 0.985 . S
C2388 C2382 1.379 . S
C2388 C2385 1.363 . S
C2388 N2386 1.356 . S
C2389 C2383 1.363 . S
C2389 C2384 1.379 . S
C2389 N2387 1.356 . S
N2390 C2382 1.356 . S
N2390 H2396 0.984 . S
N2390 H2397 0.984 . S
N2391 C2384 1.356 . S
N2391 H2394 0.984 . S
N2391 H2395 0.985 . S
H2392 N2387 0.984 . S
H2393 N2387 0.985 . S
H2394 N2391 0.984 . S
H2395 N2391 0.985 . S
H2396 N2390 0.984 . S
H2397 N2390 0.984 . S
H2398 N2386 0.984 . S
H2399 N2386 0.985 . S
C2400 C2401 1.363 . S
C2400 C2406 1.379 . S
C2400 N2408 1.356 . S
C2401 C2400 1.363 . S
C2401 C2407 1.363 . S
C2402 C2403 1.363 . S
C2402 C2407 1.379 . S
C2402 N2409 1.356 . S
C2403 C2402 1.363 . S
C2403 C2406 1.363 . S
N2404 C2406 1.356 . S
N2404 H2416 0.984 . S
N2404 H2417 0.985 . S
N2405 C2407 1.356 . S
N2405 H2410 0.984 . S
N2405 H2411 0.985 . S
C2406 C2400 1.379 . S
C2406 C2403 1.363 . S
C2406 N2404 1.356 . S
C2407 C2401 1.363 . S
C2407 C2402 1.379 . S
C2407 N2405 1.356 . S
N2408 C2400 1.356 . S
N2408 H2414 0.984 . S
N2408 H2415 0.984 . S
N2409 C2402 1.356 . S
N2409 H2412 0.984 . S
N2409 H2413 0.985 . S
H2410 N2405 0.984 . S
H2411 N2405 0.985 . S
H2412 N2409 0.984 . S
H2413 N2409 0.985 . S
H2414 N2408 0.984 . S
H2415 N2408 0.984 . S
H2416 N2404 0.984 . S
H2417 N2404 0.985 . S
C2418 C2419 1.363 . S
C2418 C2424 1.379 . S
C2418 N2426 1.356 . S
C2419 C2418 1.363 . S
C2419 C2425 1.363 . S
C2420 C2421 1.363 . S
C2420 C2425 1.379 . S
C2420 N2427 1.356 . S
C2421 C2420 1.363 . S
C2421 C2424 1.363 . S
N2422 C2424 1.356 . S
N2422 H2434 0.984 . S
N2422 H2435 0.985 . S
N2423 C2425 1.356 . S
N2423 H2428 0.984 . S
N2423 H2429 0.985 . S
C2424 C2418 1.379 . S
C2424 C2421 1.363 . S
C2424 N2422 1.356 . S
C2425 C2419 1.363 . S
C2425 C2420 1.379 . S
C2425 N2423 1.356 . S
N2426 C2418 1.356 . S
N2426 H2432 0.984 . S
N2426 H2433 0.984 . S
N2427 C2420 1.356 . S
N2427 H2430 0.984 . S
N2427 H2431 0.985 . S
H2428 N2423 0.984 . S
H2429 N2423 0.985 . S
H2430 N2427 0.984 . S
H2431 N2427 0.985 . S
H2432 N2426 0.984 . S
H2433 N2426 0.984 . S
H2434 N2422 0.984 . S
H2435 N2422 0.985 . S
C2436 C2437 1.363 . S
C2436 C2442 1.379 . S
C2436 N2444 1.356 . S
C2437 C2436 1.363 . S
C2437 C2443 1.363 . S
C2438 C2439 1.363 . S
C2438 C2443 1.379 . S
C2438 N2445 1.356 . S
C2439 C2438 1.363 . S
C2439 C2442 1.363 . S
N2440 C2442 1.356 . S
N2440 H2452 0.984 . S
N2440 H2453 0.985 . S
N2441 C2443 1.356 . S
N2441 H2446 0.984 . S
N2441 H2447 0.985 1_556 S
C2442 C2436 1.379 . S
C2442 C2439 1.363 . S
C2442 N2440 1.356 . S
C2443 C2437 1.363 . S
C2443 C2438 1.379 . S
C2443 N2441 1.356 . S
N2444 C2436 1.356 . S
N2444 H2450 0.984 . S
N2444 H2451 0.984 . S
N2445 C2438 1.356 . S
N2445 H2448 0.984 . S
N2445 H2449 0.985 . S
H2446 N2441 0.984 . S
H2447 N2441 0.985 1_554 S
H2448 N2445 0.984 . S
H2449 N2445 0.985 . S
H2450 N2444 0.984 . S
H2451 N2444 0.984 . S
H2452 N2440 0.984 . S
H2453 N2440 0.985 . S
C2454 C2455 1.363 . S
C2454 C2460 1.379 . S
C2454 N2462 1.356 . S
C2455 C2454 1.363 . S
C2455 C2461 1.363 . S
C2456 C2457 1.363 . S
C2456 C2461 1.379 . S
C2456 N2463 1.356 . S
C2457 C2456 1.363 . S
C2457 C2460 1.363 . S
N2458 C2460 1.356 . S
N2458 H2470 0.984 . S
N2458 H2471 0.985 . S
N2459 C2461 1.356 . S
N2459 H2464 0.984 . S
N2459 H2465 0.985 . S
C2460 C2454 1.379 . S
C2460 C2457 1.363 . S
C2460 N2458 1.356 . S
C2461 C2455 1.363 . S
C2461 C2456 1.379 . S
C2461 N2459 1.356 . S
N2462 C2454 1.356 . S
N2462 H2468 0.984 . S
N2462 H2469 0.984 . S
N2463 C2456 1.356 . S
N2463 H2466 0.984 . S
N2463 H2467 0.985 . S
H2464 N2459 0.984 . S
H2465 N2459 0.985 . S
H2466 N2463 0.984 . S
H2467 N2463 0.985 . S
H2468 N2462 0.984 . S
H2469 N2462 0.984 . S
H2470 N2458 0.984 . S
H2471 N2458 0.985 . S
C2472 C2473 1.363 . S
C2472 C2478 1.379 . S
C2472 N2480 1.356 . S
C2473 C2472 1.363 . S
C2473 C2479 1.363 . S
C2474 C2475 1.363 . S
C2474 C2479 1.379 . S
C2474 N2481 1.356 . S
C2475 C2474 1.363 . S
C2475 C2478 1.363 . S
N2476 C2478 1.356 . S
N2476 H2488 0.984 . S
N2476 H2489 0.985 . S
N2477 C2479 1.356 . S
N2477 H2482 0.984 . S
N2477 H2483 0.985 . S
C2478 C2472 1.379 . S
C2478 C2475 1.363 . S
C2478 N2476 1.356 . S
C2479 C2473 1.363 . S
C2479 C2474 1.379 . S
C2479 N2477 1.356 . S
N2480 C2472 1.356 . S
N2480 H2486 0.984 . S
N2480 H2487 0.984 . S
N2481 C2474 1.356 . S
N2481 H2484 0.984 . S
N2481 H2485 0.985 . S
H2482 N2477 0.984 . S
H2483 N2477 0.985 . S
H2484 N2481 0.984 . S
H2485 N2481 0.985 . S
H2486 N2480 0.984 . S
H2487 N2480 0.984 . S
H2488 N2476 0.984 . S
H2489 N2476 0.985 . S
C2490 C2491 1.363 . S
C2490 C2496 1.379 . S
C2490 N2498 1.356 . S
C2491 C2490 1.363 . S
C2491 C2497 1.363 . S
C2492 C2493 1.363 . S
C2492 C2497 1.379 . S
C2492 N2499 1.356 . S
C2493 C2492 1.363 . S
C2493 C2496 1.363 . S
N2494 C2496 1.356 . S
N2494 H2506 0.984 . S
N2494 H2507 0.985 . S
N2495 C2497 1.356 . S
N2495 H2500 0.984 . S
N2495 H2501 0.985 . S
C2496 C2490 1.379 . S
C2496 C2493 1.363 . S
C2496 N2494 1.356 . S
C2497 C2491 1.363 . S
C2497 C2492 1.379 . S
C2497 N2495 1.356 . S
N2498 C2490 1.356 . S
N2498 H2504 0.984 . S
N2498 H2505 0.984 . S
N2499 C2492 1.356 . S
N2499 H2502 0.984 . S
N2499 H2503 0.985 . S
H2500 N2495 0.984 . S
H2501 N2495 0.985 . S
H2502 N2499 0.984 . S
H2503 N2499 0.985 . S
H2504 N2498 0.984 . S
H2505 N2498 0.984 . S
H2506 N2494 0.984 . S
H2507 N2494 0.985 . S
C2508 C2509 1.363 . S
C2508 C2514 1.379 . S
C2508 N2516 1.356 . S
C2509 C2508 1.363 . S
C2509 C2515 1.363 . S
C2510 C2511 1.363 . S
C2510 C2515 1.379 . S
C2510 N2517 1.356 . S
C2511 C2510 1.363 . S
C2511 C2514 1.363 . S
N2512 C2514 1.356 . S
N2512 H2524 0.984 . S
N2512 H2525 0.985 . S
N2513 C2515 1.356 . S
N2513 H2518 0.984 . S
N2513 H2519 0.985 . S
C2514 C2508 1.379 . S
C2514 C2511 1.363 . S
C2514 N2512 1.356 . S
C2515 C2509 1.363 . S
C2515 C2510 1.379 . S
C2515 N2513 1.356 . S
N2516 C2508 1.356 . S
N2516 H2522 0.984 . S
N2516 H2523 0.984 . S
N2517 C2510 1.356 . S
N2517 H2520 0.984 . S
N2517 H2521 0.985 . S
H2518 N2513 0.984 . S
H2519 N2513 0.985 . S
H2520 N2517 0.984 . S
H2521 N2517 0.985 . S
H2522 N2516 0.984 . S
H2523 N2516 0.984 . S
H2524 N2512 0.984 . S
H2525 N2512 0.985 . S
C2526 C2527 1.363 . S
C2526 C2532 1.379 . S
C2526 N2534 1.356 . S
C2527 C2526 1.363 . S
C2527 C2533 1.363 . S
C2528 C2529 1.363 . S
C2528 C2533 1.379 . S
C2528 N2535 1.356 . S
C2529 C2528 1.363 . S
C2529 C2532 1.363 . S
N2530 C2532 1.356 . S
N2530 H2542 0.984 . S
N2530 H2543 0.985 . S
N2531 C2533 1.356 . S
N2531 H2536 0.984 . S
N2531 H2537 0.985 . S
C2532 C2526 1.379 . S
C2532 C2529 1.363 . S
C2532 N2530 1.356 . S
C2533 C2527 1.363 . S
C2533 C2528 1.379 . S
C2533 N2531 1.356 . S
N2534 C2526 1.356 . S
N2534 H2540 0.984 . S
N2534 H2541 0.984 . S
N2535 C2528 1.356 . S
N2535 H2538 0.984 . S
N2535 H2539 0.985 . S
H2536 N2531 0.984 . S
H2537 N2531 0.985 . S
H2538 N2535 0.984 . S
H2539 N2535 0.985 . S
H2540 N2534 0.984 . S
H2541 N2534 0.984 . S
H2542 N2530 0.984 . S
H2543 N2530 0.985 . S
C2544 C2545 1.363 . S
C2544 C2550 1.379 . S
C2544 N2552 1.356 . S
C2545 C2544 1.363 . S
C2545 C2551 1.363 . S
C2546 C2547 1.363 . S
C2546 C2551 1.379 . S
C2546 N2553 1.356 . S
C2547 C2546 1.363 . S
C2547 C2550 1.363 . S
N2548 C2550 1.356 . S
N2548 H2560 0.984 . S
N2548 H2561 0.985 . S
N2549 C2551 1.356 . S
N2549 H2554 0.984 . S
N2549 H2555 0.985 . S
C2550 C2544 1.379 . S
C2550 C2547 1.363 . S
C2550 N2548 1.356 . S
C2551 C2545 1.363 . S
C2551 C2546 1.379 . S
C2551 N2549 1.356 . S
N2552 C2544 1.356 . S
N2552 H2558 0.984 . S
N2552 H2559 0.984 . S
N2553 C2546 1.356 . S
N2553 H2556 0.984 . S
N2553 H2557 0.985 . S
H2554 N2549 0.984 . S
H2555 N2549 0.985 . S
H2556 N2553 0.984 . S
H2557 N2553 0.985 . S
H2558 N2552 0.984 . S
H2559 N2552 0.984 . S
H2560 N2548 0.984 . S
H2561 N2548 0.985 . S
C2562 C2563 1.363 . S
C2562 C2568 1.379 . S
C2562 N2570 1.356 . S
C2563 C2562 1.363 . S
C2563 C2569 1.363 . S
C2564 C2565 1.363 . S
C2564 C2569 1.379 . S
C2564 N2571 1.356 . S
C2565 C2564 1.363 . S
C2565 C2568 1.363 . S
N2566 C2568 1.356 . S
N2566 H2578 0.984 . S
N2566 H2579 0.985 . S
N2567 C2569 1.356 . S
N2567 H2572 0.984 . S
N2567 H2573 0.985 . S
C2568 C2562 1.379 . S
C2568 C2565 1.363 . S
C2568 N2566 1.356 . S
C2569 C2563 1.363 . S
C2569 C2564 1.379 . S
C2569 N2567 1.356 . S
N2570 C2562 1.356 . S
N2570 H2576 0.984 . S
N2570 H2577 0.984 . S
N2571 C2564 1.356 . S
N2571 H2574 0.984 . S
N2571 H2575 0.985 . S
H2572 N2567 0.984 . S
H2573 N2567 0.985 . S
H2574 N2571 0.984 . S
H2575 N2571 0.985 . S
H2576 N2570 0.984 . S
H2577 N2570 0.984 . S
H2578 N2566 0.984 . S
H2579 N2566 0.985 . S
C2580 C2581 1.363 . S
C2580 C2586 1.379 . S
C2580 N2588 1.356 . S
C2581 C2580 1.363 . S
C2581 C2587 1.363 . S
C2582 C2583 1.363 . S
C2582 C2587 1.379 . S
C2582 N2589 1.356 . S
C2583 C2582 1.363 . S
C2583 C2586 1.363 . S
N2584 C2586 1.356 . S
N2584 H2596 0.984 . S
N2584 H2597 0.985 . S
N2585 C2587 1.356 . S
N2585 H2590 0.984 . S
N2585 H2591 0.985 . S
C2586 C2580 1.379 . S
C2586 C2583 1.363 . S
C2586 N2584 1.356 . S
C2587 C2581 1.363 . S
C2587 C2582 1.379 . S
C2587 N2585 1.356 . S
N2588 C2580 1.356 . S
N2588 H2594 0.984 . S
N2588 H2595 0.984 . S
N2589 C2582 1.356 . S
N2589 H2592 0.984 . S
N2589 H2593 0.985 . S
H2590 N2585 0.984 . S
H2591 N2585 0.985 . S
H2592 N2589 0.984 . S
H2593 N2589 0.985 . S
H2594 N2588 0.984 . S
H2595 N2588 0.984 . S
H2596 N2584 0.984 . S
H2597 N2584 0.985 . S
C2598 C2599 1.363 . S
C2598 C2604 1.379 . S
C2598 N2606 1.356 . S
C2599 C2598 1.363 . S
C2599 C2605 1.363 . S
C2600 C2601 1.363 . S
C2600 C2605 1.379 . S
C2600 N2607 1.356 . S
C2601 C2600 1.363 . S
C2601 C2604 1.363 . S
N2602 C2604 1.356 . S
N2602 H2614 0.984 . S
N2602 H2615 0.985 . S
N2603 C2605 1.356 . S
N2603 H2608 0.984 . S
N2603 H2609 0.985 . S
C2604 C2598 1.379 . S
C2604 C2601 1.363 . S
C2604 N2602 1.356 . S
C2605 C2599 1.363 . S
C2605 C2600 1.379 . S
C2605 N2603 1.356 . S
N2606 C2598 1.356 . S
N2606 H2612 0.984 . S
N2606 H2613 0.984 . S
N2607 C2600 1.356 . S
N2607 H2610 0.984 . S
N2607 H2611 0.985 . S
H2608 N2603 0.984 . S
H2609 N2603 0.985 . S
H2610 N2607 0.984 . S
H2611 N2607 0.985 . S
H2612 N2606 0.984 . S
H2613 N2606 0.984 . S
H2614 N2602 0.984 . S
H2615 N2602 0.985 . S
C2616 C2617 1.363 . S
C2616 C2622 1.379 . S
C2616 N2624 1.356 . S
C2617 C2616 1.363 . S
C2617 C2623 1.363 . S
C2618 C2619 1.363 . S
C2618 C2623 1.379 . S
C2618 N2625 1.356 . S
C2619 C2618 1.363 . S
C2619 C2622 1.363 . S
N2620 C2622 1.356 . S
N2620 H2632 0.984 . S
N2620 H2633 0.985 . S
N2621 C2623 1.356 . S
N2621 H2626 0.984 . S
N2621 H2627 0.985 . S
C2622 C2616 1.379 . S
C2622 C2619 1.363 . S
C2622 N2620 1.356 . S
C2623 C2617 1.363 . S
C2623 C2618 1.379 . S
C2623 N2621 1.356 . S
N2624 C2616 1.356 . S
N2624 H2630 0.984 . S
N2624 H2631 0.984 . S
N2625 C2618 1.356 . S
N2625 H2628 0.984 . S
N2625 H2629 0.985 . S
H2626 N2621 0.984 . S
H2627 N2621 0.985 . S
H2628 N2625 0.984 . S
H2629 N2625 0.985 . S
H2630 N2624 0.984 . S
H2631 N2624 0.984 . S
H2632 N2620 0.984 . S
H2633 N2620 0.985 . S
C2634 C2635 1.363 . S
C2634 C2640 1.379 . S
C2634 N2642 1.356 . S
C2635 C2634 1.363 . S
C2635 C2641 1.363 . S
C2636 C2637 1.363 . S
C2636 C2641 1.379 . S
C2636 N2643 1.356 . S
C2637 C2636 1.363 . S
C2637 C2640 1.363 . S
N2638 C2640 1.356 . S
N2638 H2650 0.984 . S
N2638 H2651 0.985 . S
N2639 C2641 1.356 . S
N2639 H2644 0.984 . S
N2639 H2645 0.985 . S
C2640 C2634 1.379 . S
C2640 C2637 1.363 . S
C2640 N2638 1.356 . S
C2641 C2635 1.363 . S
C2641 C2636 1.379 . S
C2641 N2639 1.356 . S
N2642 C2634 1.356 . S
N2642 H2648 0.984 . S
N2642 H2649 0.984 . S
N2643 C2636 1.356 . S
N2643 H2646 0.984 . S
N2643 H2647 0.985 . S
H2644 N2639 0.984 . S
H2645 N2639 0.985 . S
H2646 N2643 0.984 . S
H2647 N2643 0.985 . S
H2648 N2642 0.984 . S
H2649 N2642 0.984 . S
H2650 N2638 0.984 . S
H2651 N2638 0.985 . S
C2652 C2653 1.363 . S
C2652 C2658 1.379 . S
C2652 N2660 1.356 . S
C2653 C2652 1.363 . S
C2653 C2659 1.363 . S
C2654 C2655 1.363 . S
C2654 C2659 1.379 . S
C2654 N2661 1.356 . S
C2655 C2654 1.363 . S
C2655 C2658 1.363 . S
N2656 C2658 1.356 . S
N2656 H2668 0.984 . S
N2656 H2669 0.985 . S
N2657 C2659 1.356 . S
N2657 H2662 0.984 . S
N2657 H2663 0.985 . S
C2658 C2652 1.379 . S
C2658 C2655 1.363 . S
C2658 N2656 1.356 . S
C2659 C2653 1.363 . S
C2659 C2654 1.379 . S
C2659 N2657 1.356 . S
N2660 C2652 1.356 . S
N2660 H2666 0.984 . S
N2660 H2667 0.984 . S
N2661 C2654 1.356 . S
N2661 H2664 0.984 . S
N2661 H2665 0.985 . S
H2662 N2657 0.984 . S
H2663 N2657 0.985 . S
H2664 N2661 0.984 . S
H2665 N2661 0.985 . S
H2666 N2660 0.984 . S
H2667 N2660 0.984 . S
H2668 N2656 0.984 . S
H2669 N2656 0.985 . S
C2670 C2671 1.363 . S
C2670 C2676 1.379 . S
C2670 N2678 1.356 . S
C2671 C2670 1.363 . S
C2671 C2677 1.363 . S
C2672 C2673 1.363 . S
C2672 C2677 1.379 . S
C2672 N2679 1.356 . S
C2673 C2672 1.363 . S
C2673 C2676 1.363 . S
N2674 C2676 1.356 . S
N2674 H2686 0.984 . S
N2674 H2687 0.985 . S
N2675 C2677 1.356 . S
N2675 H2680 0.984 . S
N2675 H2681 0.985 . S
C2676 C2670 1.379 . S
C2676 C2673 1.363 . S
C2676 N2674 1.356 . S
C2677 C2671 1.363 . S
C2677 C2672 1.379 . S
C2677 N2675 1.356 . S
N2678 C2670 1.356 . S
N2678 H2684 0.984 . S
N2678 H2685 0.984 . S
N2679 C2672 1.356 . S
N2679 H2682 0.984 . S
N2679 H2683 0.985 . S
H2680 N2675 0.984 . S
H2681 N2675 0.985 . S
H2682 N2679 0.984 . S
H2683 N2679 0.985 . S
H2684 N2678 0.984 . S
H2685 N2678 0.984 . S
H2686 N2674 0.984 . S
H2687 N2674 0.985 . S
C2688 C2689 1.363 . S
C2688 C2694 1.379 . S
C2688 N2696 1.356 . S
C2689 C2688 1.363 . S
C2689 C2695 1.363 . S
C2690 C2691 1.363 . S
C2690 C2695 1.379 . S
C2690 N2697 1.356 . S
C2691 C2690 1.363 . S
C2691 C2694 1.363 . S
N2692 C2694 1.356 . S
N2692 H2704 0.984 . S
N2692 H2705 0.985 . S
N2693 C2695 1.356 . S
N2693 H2698 0.984 . S
N2693 H2699 0.985 . S
C2694 C2688 1.379 . S
C2694 C2691 1.363 . S
C2694 N2692 1.356 . S
C2695 C2689 1.363 . S
C2695 C2690 1.379 . S
C2695 N2693 1.356 . S
N2696 C2688 1.356 . S
N2696 H2702 0.984 . S
N2696 H2703 0.984 . S
N2697 C2690 1.356 . S
N2697 H2700 0.984 . S
N2697 H2701 0.985 . S
H2698 N2693 0.984 . S
H2699 N2693 0.985 . S
H2700 N2697 0.984 . S
H2701 N2697 0.985 . S
H2702 N2696 0.984 . S
H2703 N2696 0.984 . S
H2704 N2692 0.984 . S
H2705 N2692 0.985 . S
C2706 C2707 1.363 . S
C2706 C2712 1.379 . S
C2706 N2714 1.356 . S
C2707 C2706 1.363 . S
C2707 C2713 1.363 . S
C2708 C2709 1.363 . S
C2708 C2713 1.379 . S
C2708 N2715 1.356 . S
C2709 C2708 1.363 . S
C2709 C2712 1.363 . S
N2710 C2712 1.356 . S
N2710 H2722 0.984 . S
N2710 H2723 0.985 . S
N2711 C2713 1.356 . S
N2711 H2716 0.984 . S
N2711 H2717 0.985 . S
C2712 C2706 1.379 . S
C2712 C2709 1.363 . S
C2712 N2710 1.356 . S
C2713 C2707 1.363 . S
C2713 C2708 1.379 . S
C2713 N2711 1.356 . S
N2714 C2706 1.356 . S
N2714 H2720 0.984 . S
N2714 H2721 0.984 . S
N2715 C2708 1.356 . S
N2715 H2718 0.984 . S
N2715 H2719 0.985 . S
H2716 N2711 0.984 . S
H2717 N2711 0.985 . S
H2718 N2715 0.984 . S
H2719 N2715 0.985 . S
H2720 N2714 0.984 . S
H2721 N2714 0.984 . S
H2722 N2710 0.984 . S
H2723 N2710 0.985 . S
C2724 C2725 1.363 . S
C2724 C2730 1.379 . S
C2724 N2732 1.356 . S
C2725 C2724 1.363 . S
C2725 C2731 1.363 . S
C2726 C2727 1.363 . S
C2726 C2731 1.379 . S
C2726 N2733 1.356 . S
C2727 C2726 1.363 . S
C2727 C2730 1.363 . S
N2728 C2730 1.356 . S
N2728 H2740 0.984 . S
N2728 H2741 0.985 . S
N2729 C2731 1.356 . S
N2729 H2734 0.984 . S
N2729 H2735 0.985 . S
C2730 C2724 1.379 . S
C2730 C2727 1.363 . S
C2730 N2728 1.356 . S
C2731 C2725 1.363 . S
C2731 C2726 1.379 . S
C2731 N2729 1.356 . S
N2732 C2724 1.356 . S
N2732 H2738 0.984 . S
N2732 H2739 0.984 . S
N2733 C2726 1.356 . S
N2733 H2736 0.984 . S
N2733 H2737 0.985 . S
H2734 N2729 0.984 . S
H2735 N2729 0.985 . S
H2736 N2733 0.984 . S
H2737 N2733 0.985 . S
H2738 N2732 0.984 . S
H2739 N2732 0.984 . S
H2740 N2728 0.984 . S
H2741 N2728 0.985 . S
C2742 C2743 1.363 . S
C2742 C2748 1.379 . S
C2742 N2750 1.356 . S
C2743 C2742 1.363 . S
C2743 C2749 1.363 . S
C2744 C2745 1.363 . S
C2744 C2749 1.379 . S
C2744 N2751 1.356 . S
C2745 C2744 1.363 . S
C2745 C2748 1.363 . S
N2746 C2748 1.356 . S
N2746 H2758 0.984 . S
N2746 H2759 0.985 . S
N2747 C2749 1.356 . S
N2747 H2752 0.984 . S
N2747 H2753 0.985 . S
C2748 C2742 1.379 . S
C2748 C2745 1.363 . S
C2748 N2746 1.356 . S
C2749 C2743 1.363 . S
C2749 C2744 1.379 . S
C2749 N2747 1.356 . S
N2750 C2742 1.356 . S
N2750 H2756 0.984 . S
N2750 H2757 0.984 . S
N2751 C2744 1.356 . S
N2751 H2754 0.984 . S
N2751 H2755 0.985 . S
H2752 N2747 0.984 . S
H2753 N2747 0.985 . S
H2754 N2751 0.984 . S
H2755 N2751 0.985 . S
H2756 N2750 0.984 . S
H2757 N2750 0.984 . S
H2758 N2746 0.984 . S
H2759 N2746 0.985 . S
C2760 C2761 1.363 . S
C2760 C2766 1.379 . S
C2760 N2768 1.356 . S
C2761 C2760 1.363 . S
C2761 C2767 1.363 . S
C2762 C2763 1.363 . S
C2762 C2767 1.379 . S
C2762 N2769 1.356 . S
C2763 C2762 1.363 . S
C2763 C2766 1.363 . S
N2764 C2766 1.356 . S
N2764 H2776 0.984 . S
N2764 H2777 0.985 . S
N2765 C2767 1.356 . S
N2765 H2770 0.984 . S
N2765 H2771 0.985 . S
C2766 C2760 1.379 . S
C2766 C2763 1.363 . S
C2766 N2764 1.356 . S
C2767 C2761 1.363 . S
C2767 C2762 1.379 . S
C2767 N2765 1.356 . S
N2768 C2760 1.356 . S
N2768 H2774 0.984 . S
N2768 H2775 0.984 . S
N2769 C2762 1.356 . S
N2769 H2772 0.984 . S
N2769 H2773 0.985 . S
H2770 N2765 0.984 . S
H2771 N2765 0.985 . S
H2772 N2769 0.984 . S
H2773 N2769 0.985 . S
H2774 N2768 0.984 . S
H2775 N2768 0.984 . S
H2776 N2764 0.984 . S
H2777 N2764 0.985 . S
C2778 C2779 1.363 . S
C2778 C2784 1.379 . S
C2778 N2786 1.356 . S
C2779 C2778 1.363 . S
C2779 C2785 1.363 . S
C2780 C2781 1.363 . S
C2780 C2785 1.379 . S
C2780 N2787 1.356 . S
C2781 C2780 1.363 . S
C2781 C2784 1.363 . S
N2782 C2784 1.356 . S
N2782 H2794 0.984 . S
N2782 H2795 0.985 . S
N2783 C2785 1.356 . S
N2783 H2788 0.984 . S
N2783 H2789 0.985 . S
C2784 C2778 1.379 . S
C2784 C2781 1.363 . S
C2784 N2782 1.356 . S
C2785 C2779 1.363 . S
C2785 C2780 1.379 . S
C2785 N2783 1.356 . S
N2786 C2778 1.356 . S
N2786 H2792 0.984 . S
N2786 H2793 0.984 . S
N2787 C2780 1.356 . S
N2787 H2790 0.984 . S
N2787 H2791 0.985 . S
H2788 N2783 0.984 . S
H2789 N2783 0.985 . S
H2790 N2787 0.984 . S
H2791 N2787 0.985 . S
H2792 N2786 0.984 . S
H2793 N2786 0.984 . S
H2794 N2782 0.984 . S
H2795 N2782 0.985 . S
C2796 C2797 1.363 . S
C2796 C2802 1.379 . S
C2796 N2804 1.356 . S
C2797 C2796 1.363 . S
C2797 C2803 1.363 . S
C2798 C2799 1.363 . S
C2798 C2803 1.379 . S
C2798 N2805 1.356 . S
C2799 C2798 1.363 . S
C2799 C2802 1.363 . S
N2800 C2802 1.356 . S
N2800 H2812 0.984 . S
N2800 H2813 0.985 . S
N2801 C2803 1.356 . S
N2801 H2806 0.984 . S
N2801 H2807 0.985 . S
C2802 C2796 1.379 . S
C2802 C2799 1.363 . S
C2802 N2800 1.356 . S
C2803 C2797 1.363 . S
C2803 C2798 1.379 . S
C2803 N2801 1.356 . S
N2804 C2796 1.356 . S
N2804 H2810 0.984 . S
N2804 H2811 0.984 . S
N2805 C2798 1.356 . S
N2805 H2808 0.984 . S
N2805 H2809 0.985 . S
H2806 N2801 0.984 . S
H2807 N2801 0.985 . S
H2808 N2805 0.984 . S
H2809 N2805 0.985 . S
H2810 N2804 0.984 . S
H2811 N2804 0.984 . S
H2812 N2800 0.984 . S
H2813 N2800 0.985 . S
C2814 C2815 1.363 . S
C2814 C2820 1.379 . S
C2814 N2822 1.356 . S
C2815 C2814 1.363 . S
C2815 C2821 1.363 . S
C2816 C2817 1.363 . S
C2816 C2821 1.379 . S
C2816 N2823 1.356 . S
C2817 C2816 1.363 . S
C2817 C2820 1.363 . S
N2818 C2820 1.356 . S
N2818 H2830 0.984 . S
N2818 H2831 0.985 . S
N2819 C2821 1.356 . S
N2819 H2824 0.984 . S
N2819 H2825 0.985 . S
C2820 C2814 1.379 . S
C2820 C2817 1.363 . S
C2820 N2818 1.356 . S
C2821 C2815 1.363 . S
C2821 C2816 1.379 . S
C2821 N2819 1.356 . S
N2822 C2814 1.356 . S
N2822 H2828 0.984 . S
N2822 H2829 0.984 . S
N2823 C2816 1.356 . S
N2823 H2826 0.984 . S
N2823 H2827 0.985 . S
H2824 N2819 0.984 . S
H2825 N2819 0.985 . S
H2826 N2823 0.984 . S
H2827 N2823 0.985 . S
H2828 N2822 0.984 . S
H2829 N2822 0.984 . S
H2830 N2818 0.984 . S
H2831 N2818 0.985 . S
C2832 C2833 1.363 . S
C2832 C2838 1.379 . S
C2832 N2840 1.356 . S
C2833 C2832 1.363 . S
C2833 C2839 1.363 . S
C2834 C2835 1.363 . S
C2834 C2839 1.379 . S
C2834 N2841 1.356 . S
C2835 C2834 1.363 . S
C2835 C2838 1.363 . S
N2836 C2838 1.356 . S
N2836 H2848 0.984 . S
N2836 H2849 0.985 . S
N2837 C2839 1.356 . S
N2837 H2842 0.984 . S
N2837 H2843 0.985 . S
C2838 C2832 1.379 . S
C2838 C2835 1.363 . S
C2838 N2836 1.356 . S
C2839 C2833 1.363 . S
C2839 C2834 1.379 . S
C2839 N2837 1.356 . S
N2840 C2832 1.356 . S
N2840 H2846 0.984 . S
N2840 H2847 0.984 . S
N2841 C2834 1.356 . S
N2841 H2844 0.984 . S
N2841 H2845 0.985 . S
H2842 N2837 0.984 . S
H2843 N2837 0.985 . S
H2844 N2841 0.984 . S
H2845 N2841 0.985 . S
H2846 N2840 0.984 . S
H2847 N2840 0.984 . S
H2848 N2836 0.984 . S
H2849 N2836 0.985 . S
C2850 C2851 1.363 . S
C2850 C2856 1.379 . S
C2850 N2858 1.356 . S
C2851 C2850 1.363 . S
C2851 C2857 1.363 . S
C2852 C2853 1.363 . S
C2852 C2857 1.379 . S
C2852 N2859 1.356 . S
C2853 C2852 1.363 . S
C2853 C2856 1.363 . S
N2854 C2856 1.356 . S
N2854 H2866 0.984 . S
N2854 H2867 0.985 . S
N2855 C2857 1.356 . S
N2855 H2860 0.984 . S
N2855 H2861 0.985 . S
C2856 C2850 1.379 . S
C2856 C2853 1.363 . S
C2856 N2854 1.356 . S
C2857 C2851 1.363 . S
C2857 C2852 1.379 . S
C2857 N2855 1.356 . S
N2858 C2850 1.356 . S
N2858 H2864 0.984 . S
N2858 H2865 0.984 . S
N2859 C2852 1.356 . S
N2859 H2862 0.984 . S
N2859 H2863 0.985 . S
H2860 N2855 0.984 . S
H2861 N2855 0.985 . S
H2862 N2859 0.984 . S
H2863 N2859 0.985 . S
H2864 N2858 0.984 . S
H2865 N2858 0.984 . S
H2866 N2854 0.984 . S
H2867 N2854 0.985 . S
C2868 C2869 1.363 . S
C2868 C2874 1.379 . S
C2868 N2876 1.356 . S
C2869 C2868 1.363 . S
C2869 C2875 1.363 . S
C2870 C2871 1.363 . S
C2870 C2875 1.379 . S
C2870 N2877 1.356 . S
C2871 C2870 1.363 . S
C2871 C2874 1.363 . S
N2872 C2874 1.356 . S
N2872 H2884 0.984 . S
N2872 H2885 0.985 . S
N2873 C2875 1.356 . S
N2873 H2878 0.984 . S
N2873 H2879 0.985 . S
C2874 C2868 1.379 . S
C2874 C2871 1.363 . S
C2874 N2872 1.356 . S
C2875 C2869 1.363 . S
C2875 C2870 1.379 . S
C2875 N2873 1.356 . S
N2876 C2868 1.356 . S
N2876 H2882 1.010 . S
N2876 H2883 0.984 . S
N2877 C2870 1.356 . S
N2877 H2880 0.984 . S
N2877 H2881 0.985 . S
H2878 N2873 0.984 . S
H2879 N2873 0.985 . S
H2880 N2877 0.984 . S
H2881 N2877 0.985 . S
H2882 N2876 1.010 . S
H2883 N2876 0.984 . S
H2884 N2872 0.984 . S
H2885 N2872 0.985 . S
C2886 C2887 1.363 . S
C2886 C2892 1.379 . S
C2886 N2894 1.356 . S
C2887 C2886 1.363 . S
C2887 C2893 1.363 . S
C2888 C2889 1.363 . S
C2888 C2893 1.379 . S
C2888 N2895 1.356 . S
C2889 C2888 1.363 . S
C2889 C2892 1.363 . S
N2890 C2892 1.356 . S
N2890 H2902 0.984 . S
N2890 H2903 0.985 . S
N2891 C2893 1.356 . S
N2891 H2896 0.984 . S
N2891 H2897 0.985 . S
C2892 C2886 1.379 . S
C2892 C2889 1.363 . S
C2892 N2890 1.356 . S
C2893 C2887 1.363 . S
C2893 C2888 1.379 . S
C2893 N2891 1.356 . S
N2894 C2886 1.356 . S
N2894 H2900 0.984 . S
N2894 H2901 0.984 . S
N2895 C2888 1.356 . S
N2895 H2898 0.984 . S
N2895 H2899 0.985 . S
H2896 N2891 0.984 . S
H2897 N2891 0.985 . S
H2898 N2895 0.984 . S
H2899 N2895 0.985 . S
H2900 N2894 0.984 . S
H2901 N2894 0.984 . S
H2902 N2890 0.984 . S
H2903 N2890 0.985 . S
C2904 C2905 1.363 . S
C2904 C2910 1.379 . S
C2904 N2912 1.356 . S
C2905 C2904 1.363 . S
C2905 C2911 1.363 . S
C2906 C2907 1.363 . S
C2906 C2911 1.379 . S
C2906 N2913 1.356 . S
C2907 C2906 1.363 . S
C2907 C2910 1.363 . S
N2908 C2910 1.356 . S
N2908 H2920 0.984 . S
N2908 H2921 0.985 . S
N2909 C2911 1.356 . S
N2909 H2914 0.984 . S
N2909 H2915 0.985 . S
C2910 C2904 1.379 . S
C2910 C2907 1.363 . S
C2910 N2908 1.356 . S
C2911 C2905 1.363 . S
C2911 C2906 1.379 . S
C2911 N2909 1.356 . S
N2912 C2904 1.356 . S
N2912 H2918 0.984 . S
N2912 H2919 0.984 . S
N2913 C2906 1.356 . S
N2913 H2916 0.984 . S
N2913 H2917 0.985 . S
H2914 N2909 0.984 . S
H2915 N2909 0.985 . S
H2916 N2913 0.984 . S
H2917 N2913 0.985 . S
H2918 N2912 0.984 . S
H2919 N2912 0.984 . S
H2920 N2908 0.984 . S
H2921 N2908 0.985 . S
C2922 C2923 1.363 . S
C2922 C2928 1.379 . S
C2922 N2930 1.356 . S
C2923 C2922 1.363 . S
C2923 C2929 1.363 . S
C2924 C2925 1.363 . S
C2924 C2929 1.379 . S
C2924 N2931 1.356 . S
C2925 C2924 1.363 . S
C2925 C2928 1.363 . S
N2926 C2928 1.356 . S
N2926 H2938 0.984 . S
N2926 H2939 0.985 . S
N2927 C2929 1.356 . S
N2927 H2932 0.984 . S
N2927 H2933 0.985 . S
C2928 C2922 1.379 . S
C2928 C2925 1.363 . S
C2928 N2926 1.356 . S
C2929 C2923 1.363 . S
C2929 C2924 1.379 . S
C2929 N2927 1.356 . S
N2930 C2922 1.356 . S
N2930 H2936 0.984 . S
N2930 H2937 0.984 . S
N2931 C2924 1.356 . S
N2931 H2934 0.984 . S
N2931 H2935 0.985 . S
H2932 N2927 0.984 . S
H2933 N2927 0.985 . S
H2934 N2931 0.984 . S
H2935 N2931 0.985 . S
H2936 N2930 0.984 . S
H2937 N2930 0.984 . S
H2938 N2926 0.984 . S
H2939 N2926 0.985 . S
C2940 C2941 1.363 . S
C2940 C2946 1.379 . S
C2940 N2948 1.356 . S
C2941 C2940 1.363 . S
C2941 C2947 1.363 . S
C2942 C2943 1.363 . S
C2942 C2947 1.379 . S
C2942 N2949 1.356 . S
C2943 C2942 1.363 . S
C2943 C2946 1.363 . S
N2944 C2946 1.356 . S
N2944 H2956 0.984 . S
N2944 H2957 0.985 . S
N2945 C2947 1.356 . S
N2945 H2950 0.984 . S
N2945 H2951 0.985 . S
C2946 C2940 1.379 . S
C2946 C2943 1.363 . S
C2946 N2944 1.356 . S
C2947 C2941 1.363 . S
C2947 C2942 1.379 . S
C2947 N2945 1.356 . S
N2948 C2940 1.356 . S
N2948 H2954 0.984 . S
N2948 H2955 0.984 . S
N2949 C2942 1.356 . S
N2949 H2952 0.984 . S
N2949 H2953 0.985 . S
H2950 N2945 0.984 . S
H2951 N2945 0.985 . S
H2952 N2949 0.984 . S
H2953 N2949 0.985 . S
H2954 N2948 0.984 . S
H2955 N2948 0.984 . S
H2956 N2944 0.984 . S
H2957 N2944 0.985 . S
C2958 C2959 1.363 . S
C2958 C2964 1.379 . S
C2958 N2966 1.356 . S
C2959 C2958 1.363 . S
C2959 C2965 1.363 . S
C2960 C2961 1.363 . S
C2960 C2965 1.379 . S
C2960 N2967 1.356 . S
C2961 C2960 1.363 . S
C2961 C2964 1.363 . S
N2962 C2964 1.356 . S
N2962 H2974 0.984 . S
N2962 H2975 0.985 . S
N2963 C2965 1.356 . S
N2963 H2968 0.984 . S
N2963 H2969 0.985 . S
C2964 C2958 1.379 . S
C2964 C2961 1.363 . S
C2964 N2962 1.356 . S
C2965 C2959 1.363 . S
C2965 C2960 1.379 . S
C2965 N2963 1.356 . S
N2966 C2958 1.356 . S
N2966 H2972 0.984 . S
N2966 H2973 0.984 . S
N2967 C2960 1.356 . S
N2967 H2970 0.984 . S
N2967 H2971 0.985 . S
H2968 N2963 0.984 . S
H2969 N2963 0.985 . S
H2970 N2967 0.984 . S
H2971 N2967 0.985 . S
H2972 N2966 0.984 . S
H2973 N2966 0.984 . S
H2974 N2962 0.984 . S
H2975 N2962 0.985 . S
C2113 C1261 1.447 . S
C2115 C20 1.446 . S
C2131 C117 1.447 . S
C2133 C1349 1.453 . S
C2149 C1604 1.447 . S
C2151 C225 1.447 . S
C2167 C321 1.447 . S
C2169 C1164 1.446 . S
C2185 C1289 1.447 . S
C2187 C372 1.446 . S
C2203 C469 1.447 . S
C2205 C1377 1.447 . S
C2221 C577 1.447 . S
C2223 C1633 1.447 . S
C2239 C673 1.447 . S
C2241 C1193 1.454 . S
C2257 C849 1.447 . S
C2259 C733 1.446 . S
C2275 C900 1.447 . S
C2277 C821 1.446 . S
C2293 C929 1.447 . S
C2295 C1025 1.454 . S
C2311 C997 1.447 . S
C2313 C761 1.444 . S
C2329 C1085 1.447 . S
C2331 C293 1.446 . S
C2347 C401 1.447 . S
C2349 C1457 1.455 . S
C2365 C1516 1.447 . S
C2367 C145 1.442 . S
C2383 C137 1.451 . S
C2385 C1868 1.454 . S
C2401 C812 1.451 . S
C2403 C29 1.447 . S
C2419 C2081 1.451 . S
C2421 C284 1.451 . S
C2437 C988 1.451 . S
C2439 C233 1.454 . S
C2455 C1897 1.451 . S
C2457 C636 1.453 . S
C2473 C841 1.451 . S
C2475 C585 1.451 . S
C2491 C489 1.451 . S
C2493 C2053 1.451 . S
C2509 C381 1.451 . S
C2511 C1017 1.445 . S
C2527 C1340 1.451 . S
C2529 C1721 1.453 . S
C2545 C1437 1.451 . S
C2547 C1369 1.454 . S
C2563 C1173 1.451 . S
C2565 C1465 1.445 . S
C2581 C1692 1.452 . S
C2583 C1201 1.454 . S
C2599 C205 1.451 . S
C2601 C1817 1.453 . S
C2617 C909 1.451 . S
C2619 C665 1.445 . S
C2635 C57 1.451 . S
C2637 C1956 1.456 . S
C2653 C1701 1.447 . S
C2655 C196 1.453 . S
C2671 C49 1.447 . S
C2673 C1428 1.444 . S
C2689 C1729 1.447 . S
C2691 C548 1.442 . S
C2707 C1113 1.447 . S
C2709 C645 1.444 . S
C2725 C497 1.447 . S
C2727 C1545 1.447 . S
C2743 C1877 1.447 . S
C2745 C1780 1.452 . S
C2761 C2044 1.447 . S
C2763 C1809 1.442 . S
C2779 C1993 1.447 . S
C2781 C2073 1.447 . S
C2797 C1905 1.447 . S
C2799 C1965 1.447 . S
C2815 C724 1.451 . S
C2817 C313 1.447 . S
C2833 C108 1.452 . S
C2835 C937 1.454 . S
C2851 C460 1.451 . S
C2853 C753 1.456 . S
C2869 C1789 1.452 . S
C2871 C409 1.454 . S
C2887 C557 1.451 . S
C2889 C1985 1.451 . S
C2905 C1076 1.451 . S
C2907 C1281 1.447 . S
C2923 C1613 1.452 . S
C2925 C1105 1.456 . S
C2941 C1525 1.451 . S
C2943 C1641 1.451 . S
C2959 C1252 1.451 . S
C2961 C1553 1.451 . S
