# Generated by pormake.
# Topology sxa, (6)-cn, num edge types: 1
# Building blocks:
#     Node 0, Type 0, BuildingBlock: OJICUG_clean_sbu_0, # of connection points: 6
#     Node 1, Type 0, BuildingBlock: OJICUG_clean_sbu_0, # of connection points: 6
#     Node 2, Type 0, BuildingBlock: OJICUG_clean_sbu_0, # of connection points: 6
#     Node 3, Type 0, BuildingBlock: OJICUG_clean_sbu_0, # of connection points: 6
#     Edge 4, Type (0, 0), BuildingBlock: TEMPAE_clean_linker_10, # of connection points: 2
#     Edge 5, Type (0, 0), BuildingBlock: TEMPAE_clean_linker_10, # of connection points: 2
#     Edge 6, Type (0, 0), BuildingBlock: TEMPAE_clean_linker_10, # of connection points: 2
#     Edge 7, Type (0, 0), BuildingBlock: TEMPAE_clean_linker_10, # of connection points: 2
#     Edge 8, Type (0, 0), BuildingBlock: TEMPAE_clean_linker_10, # of connection points: 2
#     Edge 9, Type (0, 0), BuildingBlock: TEMPAE_clean_linker_10, # of connection points: 2
#     Edge 10, Type (0, 0), BuildingBlock: TEMPAE_clean_linker_10, # of connection points: 2
#     Edge 11, Type (0, 0), BuildingBlock: TEMPAE_clean_linker_10, # of connection points: 2
#     Edge 12, Type (0, 0), BuildingBlock: TEMPAE_clean_linker_10, # of connection points: 2
#     Edge 13, Type (0, 0), BuildingBlock: TEMPAE_clean_linker_10, # of connection points: 2
#     Edge 14, Type (0, 0), BuildingBlock: TEMPAE_clean_linker_10, # of connection points: 2
#     Edge 15, Type (0, 0), BuildingBlock: TEMPAE_clean_linker_10, # of connection points: 2
# Relax obj value: 0.172
# Max RMSD: 0.251
# Mean RMSD: 0.251
data_MOF--net-sxa--node1-OJICUG_clean_sbu_0--edge1-TEMPAE_clean_linker_10
_symmetry_space_group_name_H-M    P1
_symmetry_Int_Tables_number       1
_symmetry_cell_setting            triclinic
loop_
_symmetry_equiv_pos_as_xyz
'x, y, z'
_cell_length_a     25.184395
_cell_length_b     29.963347
_cell_length_c     17.790095
_cell_angle_alpha  90.231107
_cell_angle_beta   90.111943
_cell_angle_gamma 112.34242
loop_
_atom_site_label
_atom_site_type_symbol
_atom_site_fract_x
_atom_site_fract_y
_atom_site_fract_z
_atom_type_partial_charge
Sc0 Sc 0.02193 0.77547 0.10729 0.0
Sc1 Sc 0.06076 0.836 0.27577 0.0
Sc2 Sc 0.98966 0.71116 0.27241 0.0
O3 O 0.02409 0.77417 0.21995 0.0
C4 C 0.90732 0.70185 0.14065 0.0
C5 C 0.98731 0.8601 0.14418 0.0
C6 C 0.95067 0.7812 0.37394 0.0
C7 C 0.13788 0.84821 0.13768 0.0
C8 C 0.0586 0.69047 0.13181 0.0
C9 C 0.10272 0.76409 0.36695 0.0
O10 O 0.95204 0.70726 0.10448 0.0
O11 O 0.02501 0.87268 0.19679 0.0
O12 O 0.95459 0.74078 0.36054 0.0
O13 O 0.09179 0.84371 0.1054 0.0
O14 O 0.02298 0.67638 0.1864 0.0
O15 O 0.09849 0.8047 0.35768 0.0
O16 O 0.07364 0.73245 0.1028 0.0
O17 O 0.13853 0.84813 0.20917 0.0
O18 O 0.06857 0.72501 0.33619 0.0
O19 O 0.97042 0.81869 0.11209 0.0
O20 O 0.9095 0.70006 0.2119 0.0
O21 O 0.98406 0.82083 0.34446 0.0
Sc22 Sc 0.49777 0.27327 0.14084 0.0
Sc23 Sc 0.50919 0.32541 0.31877 0.0
Sc24 Sc 0.445 0.19933 0.29417 0.0
O25 O 0.48338 0.26612 0.25186 0.0
C26 C 0.37082 0.20548 0.14689 0.0
C27 C 0.49084 0.37561 0.17449 0.0
C28 C 0.38654 0.26067 0.38785 0.0
C29 C 0.61609 0.33295 0.21105 0.0
C30 C 0.50097 0.1687 0.16 0.0
C31 C 0.54356 0.25144 0.41666 0.0
O32 O 0.40877 0.24418 0.12207 0.0
O33 O 0.4814 0.36909 0.24427 0.0
O34 O 0.39066 0.22211 0.36388 0.0
O35 O 0.58621 0.30178 0.16338 0.0
O36 O 0.49378 0.16729 0.23034 0.0
O37 O 0.54262 0.29246 0.40221 0.0
O38 O 0.49822 0.20276 0.12064 0.0
O39 O 0.59517 0.34898 0.26609 0.0
O40 O 0.51152 0.21307 0.38199 0.0
O41 O 0.5008 0.3452 0.13351 0.0
O42 O 0.37799 0.18246 0.20464 0.0
O43 O 0.42536 0.30253 0.37586 0.0
Sc44 Sc 0.01927 0.27654 0.92895 0.0
Sc45 Sc 0.93086 0.20862 0.78875 0.0
Sc46 Sc 0.03321 0.3182 0.74556 0.0
O47 O 0.99363 0.26848 0.82202 0.0
C48 C 0.03439 0.38122 0.89153 0.0
C49 C 0.88721 0.24032 0.9353 0.0
C50 C 0.90737 0.28824 0.69452 0.0
C51 C 0.98864 0.16712 0.91621 0.0
C52 C 0.13173 0.30628 0.83955 0.0
C53 C 0.02125 0.22485 0.66358 0.0
O54 O 0.00939 0.34481 0.93312 0.0
O55 O 0.87563 0.2284 0.8661 0.0
O56 O 0.95161 0.32448 0.71643 0.0
O57 O 0.02909 0.20746 0.93118 0.0
O58 O 0.11011 0.30466 0.77412 0.0
O59 O 0.99345 0.1952 0.71463 0.0
O60 O 0.10764 0.31419 0.8978 0.0
O61 O 0.94713 0.16419 0.87317 0.0
O62 O 0.01629 0.2652 0.65719 0.0
O63 O 0.93264 0.24034 0.96645 0.0
O64 O 0.05372 0.37759 0.82645 0.0
O65 O 0.90422 0.24501 0.70076 0.0
Sc66 Sc 0.51978 0.7777 0.92205 0.0
Sc67 Sc 0.48521 0.71748 0.75223 0.0
Sc68 Sc 0.56703 0.83767 0.75512 0.0
O69 O 0.52426 0.77753 0.81029 0.0
C70 C 0.51447 0.87621 0.89284 0.0
C71 C 0.39531 0.71753 0.8701 0.0
C72 C 0.45924 0.79424 0.65693 0.0
C73 C 0.52587 0.67888 0.90095 0.0
C74 C 0.64754 0.83723 0.8859 0.0
C75 C 0.59857 0.76015 0.66624 0.0
O76 O 0.48754 0.83458 0.9203 0.0
O77 O 0.40622 0.71647 0.80035 0.0
O78 O 0.48831 0.83068 0.69738 0.0
O79 O 0.55111 0.72051 0.93001 0.0
O80 O 0.64204 0.83887 0.81486 0.0
O81 O 0.56718 0.72397 0.70499 0.0
O82 O 0.6061 0.83164 0.93041 0.0
O83 O 0.49542 0.67225 0.84146 0.0
O84 O 0.59031 0.79956 0.66508 0.0
O85 O 0.43335 0.7238 0.92047 0.0
O86 O 0.55031 0.88316 0.83937 0.0
O87 O 0.46913 0.75561 0.65718 0.0
C88 C 0.99993 0.43774 0.96026 0.0
C89 C 0.04387 0.42971 0.92161 0.0
C90 C 0.00854 0.48341 0.99029 0.0
C91 C 0.06324 0.52142 0.98441 0.0
C92 C 0.10802 0.51322 0.94618 0.0
C93 C 0.09744 0.46765 0.914 0.0
C94 C 0.95902 0.49081 0.0286 0.0
C95 C 0.1676 0.55193 0.94172 0.0
C96 C 0.06584 0.64802 1.01411 0.0
C97 C 0.07293 0.65313 0.09223 0.0
C98 C 0.06504 0.60613 0.97742 0.0
C99 C 0.07329 0.56926 1.01969 0.0
C100 C 0.08564 0.57641 0.09758 0.0
C101 C 0.08409 0.61782 0.13321 0.0
C102 C 0.05067 0.59972 0.89466 0.0
C103 C 0.09746 0.53918 0.14411 0.0
H104 H 0.95849 0.40839 0.96601 0.0
H105 H 0.1317 0.46115 0.88508 0.0
H106 H 0.9677 0.49624 0.08978 0.0
H107 H 0.95402 0.52361 1.00661 0.0
H108 H 0.91785 0.45951 1.0205 0.0
H109 H 0.19634 0.5412 0.90489 0.0
H110 H 0.16601 0.58615 0.9205 0.0
H111 H 0.18672 0.55938 0.99892 0.0
H112 H 0.05655 0.67508 0.98249 0.0
H113 H 0.08975 0.62188 0.19364 0.0
H114 H 0.00734 0.57106 0.88707 0.0
H115 H 0.08149 0.58794 0.8642 0.0
H116 H 0.05094 0.63343 0.86855 0.0
H117 H 0.05708 0.50727 0.15194 0.0
H118 H 0.11508 0.55342 0.20044 0.0
H119 H 0.12828 0.52674 0.11489 0.0
C120 C 0.47072 0.4517 0.17014 0.0
C121 C 0.49681 0.42198 0.13959 0.0
C122 C 0.47715 0.4956 0.13553 0.0
C123 C 0.51132 0.51023 0.07005 0.0
C124 C 0.53919 0.48105 0.04067 0.0
C125 C 0.53119 0.43721 0.07532 0.0
C126 C 0.44634 0.52574 0.16777 0.0
C127 C 0.57686 0.49577 0.97182 0.0
C128 C 0.48166 0.59069 0.92654 0.0
C129 C 0.52466 0.63589 0.94277 0.0
C130 C 0.47595 0.54997 0.96911 0.0
C131 C 0.51496 0.55416 0.02851 0.0
C132 C 0.55916 0.5994 0.04458 0.0
C133 C 0.563 0.63998 1.00216 0.0
C134 C 0.42813 0.50236 0.95032 0.0
C135 C 0.60229 0.6049 0.1065 0.0
H136 H 0.44446 0.44021 0.22002 0.0
H137 H 0.55261 0.41497 0.05223 0.0
H138 H 0.47739 0.5629 0.17952 0.0
H139 H 0.41493 0.52856 0.1261 0.0
H140 H 0.42318 0.51027 0.22047 0.0
H141 H 0.59878 0.47065 0.95942 0.0
H142 H 0.55055 0.4967 0.92221 0.0
H143 H 0.60995 0.53263 0.97949 0.0
H144 H 0.45129 0.58719 0.88147 0.0
H145 H 0.59602 0.67484 1.01542 0.0
H146 H 0.40184 0.48743 1.00099 0.0
H147 H 0.44651 0.47583 0.93193 0.0
H148 H 0.39951 0.50579 0.90503 0.0
H149 H 0.5804 0.59904 0.16173 0.0
H150 H 0.63733 0.64117 0.10673 0.0
H151 H 0.62158 0.57739 0.1004 0.0
C152 C 0.46404 0.91415 0.97817 0.0
C153 C 0.50977 0.91887 0.92983 0.0
C154 C 0.46142 0.95446 1.01614 0.0
C155 C 0.50662 1.00008 1.00745 0.0
C156 C 0.55295 1.00498 0.95907 0.0
C157 C 0.55359 0.96448 0.92018 0.0
C158 C 0.41068 0.94809 0.06609 0.0
C159 C 0.6023 0.05291 0.94913 0.0
C160 C 0.48245 0.11499 0.04813 0.0
C161 C 0.50515 0.12663 0.12095 0.0
C162 C 0.48149 0.07331 1.01138 0.0
C163 C 0.50519 0.04316 0.04751 0.0
C164 C 0.52893 0.05499 0.12065 0.0
C165 C 0.52793 0.09637 0.15703 0.0
C166 C 0.45432 0.06115 0.93431 0.0
C167 C 0.55558 0.0241 0.16018 0.0
H168 H 0.4303 0.87899 0.98629 0.0
H169 H 0.58952 0.96841 0.88372 0.0
H170 H 0.42418 0.95038 0.12583 0.0
H171 H 0.39428 0.9771 0.05622 0.0
H172 H 0.37501 0.91276 0.05677 0.0
H173 H 0.63596 0.05027 0.91114 0.0
H174 H 0.58636 0.07977 0.92567 0.0
H175 H 0.62219 0.06691 1.00448 0.0
H176 H 0.46373 0.13779 1.02057 0.0
H177 H 0.54533 0.10526 0.21339 0.0
H178 H 0.41982 0.02458 0.93469 0.0
H179 H 0.48676 0.06058 0.89263 0.0
H180 H 0.43569 0.08739 0.91535 0.0
H181 H 0.52303 0.98709 0.16768 0.0
H182 H 0.57341 0.03891 0.21618 0.0
H183 H 0.59057 0.02107 0.12532 0.0
C184 C 0.96369 0.93321 0.15568 0.0
C185 C 0.97336 0.89897 0.10981 0.0
C186 C 0.96303 0.97622 0.12547 0.0
C187 C 0.97451 0.98592 0.04805 0.0
C188 C 0.98236 0.95062 1.00105 0.0
C189 C 0.98084 0.90719 0.03239 0.0
C190 C 0.95221 1.01203 0.17693 0.0
C191 C 0.99521 0.95973 0.9184 0.0
C192 C 0.93405 0.08118 0.95145 0.0
C193 C 0.98616 0.12164 0.95217 0.0
C194 C 0.92954 0.03727 0.98353 0.0
C195 C 0.97856 0.03307 1.01625 0.0
C196 C 0.03122 0.07377 1.01815 0.0
C197 C 0.03416 0.11777 0.98689 0.0
C198 C 0.87201 0.99552 0.98322 0.0
C199 C 0.08482 0.07055 0.05145 0.0
H200 H 0.95831 0.9269 0.21568 0.0
H201 H 0.98933 0.88104 0.99714 0.0
H202 H 0.99174 0.04512 0.18193 0.0
H203 H 0.91815 0.02285 0.15312 0.0
H204 H 0.93908 0.99724 0.23412 0.0
H205 H 0.99954 0.92838 0.88943 0.0
H206 H 0.96066 0.96797 0.89035 0.0
H207 H 0.03574 0.99167 0.91133 0.0
H208 H 0.89614 0.08382 0.92627 0.0
H209 H 0.07419 0.14883 0.98836 0.0
H210 H 0.85793 0.98535 0.04192 0.0
H211 H 0.87547 0.96343 0.95581 0.0
H212 H 0.83831 1.00428 0.95369 0.0
H213 H 0.07608 0.05398 0.10802 0.0
H214 H 0.12041 0.10645 0.05627 0.0
H215 H 0.09914 0.04702 1.01528 0.0
C216 C 0.3729 0.81506 0.63893 0.0
C217 C 0.4102 0.79421 0.61117 0.0
C218 C 0.32099 0.80808 0.60166 0.0
C219 C 0.30688 0.78054 0.53424 0.0
C220 C 0.34528 0.76055 0.5051 0.0
C221 C 0.39609 0.76718 0.54435 0.0
C222 C 0.28082 0.82945 0.63506 0.0
C223 C 0.33264 0.73201 0.43252 0.0
C224 C 0.15267 0.72977 0.46003 0.0
C225 C 0.15421 0.76545 0.40856 0.0
C226 C 0.2019 0.73442 0.50249 0.0
C227 C 0.25375 0.77502 0.49153 0.0
C228 C 0.25557 0.81025 0.43795 0.0
C229 C 0.20583 0.8052 0.39774 0.0
C230 C 0.19831 0.69638 0.55974 0.0
C231 C 0.31014 0.85337 0.42287 0.0
H232 H 0.38309 0.83503 0.69149 0.0
H233 H 0.42475 0.75075 0.52306 0.0
H234 H 0.27529 0.85592 0.59553 0.0
H235 H 0.23782 0.80069 0.6438 0.0
H236 H 0.29674 0.84785 0.68967 0.0
H237 H 0.36705 0.71894 0.41745 0.0
H238 H 0.29153 0.70043 0.4372 0.0
H239 H 0.32769 0.75465 0.38593 0.0
H240 H 0.11278 0.69916 0.46859 0.0
H241 H 0.20741 0.83253 0.35703 0.0
H242 H 0.20987 0.71323 0.61621 0.0
H243 H 0.22961 0.67971 0.54593 0.0
H244 H 0.15473 0.6675 0.56243 0.0
H245 H 0.32476 0.87513 0.47495 0.0
H246 H 0.30452 0.877 0.37814 0.0
H247 H 0.34476 0.84116 0.40559 0.0
C248 C 0.08244 0.24308 0.54896 0.0
C249 C 0.06679 0.21796 0.61712 0.0
C250 C 0.13387 0.24855 0.51227 0.0
C251 C 0.17167 0.22906 0.54476 0.0
C252 C 0.15484 0.20144 0.61158 0.0
C253 C 0.10219 0.19565 0.64635 0.0
C254 C 0.14867 0.27677 0.4399 0.0
C255 C 0.19371 0.18024 0.64883 0.0
C256 C 0.28286 0.21284 0.41429 0.0
C257 C 0.33222 0.25452 0.4284 0.0
C258 C 0.23111 0.20387 0.45251 0.0
C259 C 0.22797 0.23707 0.50732 0.0
C260 C 0.27756 0.27919 0.52242 0.0
C261 C 0.32896 0.28768 0.48231 0.0
C262 C 0.17946 0.15893 0.43348 0.0
C263 C 0.27623 0.31522 0.58111 0.0
H264 H 0.05527 0.26029 0.52558 0.0
H265 H 0.09043 0.17599 0.69861 0.0
H266 H 0.18783 0.30983 0.44813 0.0
H267 H 0.1582 0.25501 0.39518 0.0
H268 H 0.11344 0.28755 0.42003 0.0
H269 H 0.17085 0.15341 0.6924 0.0
H270 H 0.21203 0.16264 0.60689 0.0
H271 H 0.23005 0.20964 0.67614 0.0
H272 H 0.2844 0.18704 0.37231 0.0
H273 H 0.36676 0.31971 0.49414 0.0
H274 H 0.14417 0.16904 0.41207 0.0
H275 H 0.16352 0.13701 0.48478 0.0
H276 H 0.18918 0.13619 0.39043 0.0
H277 H 0.2447 0.3311 0.56463 0.0
H278 H 0.31883 0.34488 0.589 0.0
H279 H 0.26199 0.2968 0.63572 0.0
C280 C 0.85542 0.31375 0.5926 0.0
C281 C 0.85532 0.29323 0.66323 0.0
C282 C 0.80328 0.30654 0.55486 0.0
C283 C 0.75003 0.27799 0.58852 0.0
C284 C 0.7501 0.25899 0.66122 0.0
C285 C 0.80252 0.26674 0.69733 0.0
C286 C 0.80517 0.32787 0.47776 0.0
C287 C 0.69481 0.22863 0.69974 0.0
C288 C 0.613 0.2908 0.52021 0.0
C289 C 0.58987 0.25185 0.46963 0.0
C290 C 0.6646 0.29947 0.5591 0.0
C291 C 0.69415 0.26817 0.54841 0.0
C292 C 0.66978 0.22737 0.50034 0.0
C293 C 0.61802 0.21974 0.46136 0.0
C294 C 0.68855 0.34328 0.60966 0.0
C295 C 0.69945 0.19269 0.48809 0.0
H296 H 0.89608 0.33308 0.56519 0.0
H297 H 0.80237 0.25011 0.75143 0.0
H298 H 0.78725 0.29849 0.43565 0.0
H299 H 0.77815 0.34972 0.47635 0.0
H300 H 0.84954 0.35103 0.46081 0.0
H301 H 0.70213 0.21823 0.75756 0.0
H302 H 0.66563 0.2485 0.70292 0.0
H303 H 0.67247 0.19529 0.66646 0.0
H304 H 0.59175 0.31593 0.52726 0.0
H305 H 0.60123 0.19006 0.42172 0.0
H306 H 0.73094 0.36784 0.58835 0.0
H307 H 0.69544 0.33237 0.66721 0.0
H308 H 0.65983 0.36363 0.61314 0.0
H309 H 0.74144 0.21168 0.46042 0.0
H310 H 0.67359 0.16134 0.45258 0.0
H311 H 0.7082 0.17921 0.54287 0.0
C312 C 0.84951 0.73825 0.41363 0.0
C313 C 0.90053 0.77939 0.41935 0.0
C314 C 0.80049 0.73421 0.45459 0.0
C315 C 0.80245 0.77184 0.50404 0.0
C316 C 0.8539 0.81348 0.51069 0.0
C317 C 0.90224 0.81709 0.46734 0.0
C318 C 0.74622 0.68991 0.4438 0.0
C319 C 0.8578 0.85406 0.56365 0.0
C320 C 0.66052 0.78194 0.55267 0.0
C321 C 0.64737 0.75833 0.62209 0.0
C322 C 0.71069 0.78646 0.51374 0.0
C323 C 0.74963 0.76808 0.54597 0.0
C324 C 0.73653 0.7441 0.61619 0.0
C325 C 0.6851 0.73897 0.65303 0.0
C326 C 0.72203 0.811 0.43811 0.0
C327 C 0.77733 0.72469 0.65301 0.0
H328 H 0.84746 0.70928 0.37556 0.0
H329 H 0.94151 0.84887 0.47196 0.0
H330 H 0.73222 0.6713 0.49826 0.0
H331 H 0.71114 0.70061 0.42329 0.0
H332 H 0.75185 0.66389 0.40301 0.0
H333 H 0.90152 0.88283 0.56512 0.0
H334 H 0.82682 0.87032 0.54633 0.0
H335 H 0.84602 0.83986 0.62136 0.0
H336 H 0.63149 0.7972 0.52894 0.0
H337 H 0.67562 0.7217 0.70754 0.0
H338 H 0.7268 0.78611 0.39467 0.0
H339 H 0.76287 0.84305 0.43991 0.0
H340 H 0.68704 0.82274 0.42046 0.0
H341 H 0.78258 0.69641 0.61686 0.0
H342 H 0.76217 0.70904 0.70922 0.0
H343 H 0.82032 0.75398 0.65944 0.0
C344 C 0.30953 0.70305 0.94903 0.0
C345 C 0.34667 0.72951 0.89272 0.0
C346 C 0.27381 0.72201 0.98655 0.0
C347 C 0.27851 0.76966 0.97035 0.0
C348 C 0.31512 0.79592 0.91195 0.0
C349 C 0.3476 0.77484 0.87243 0.0
C350 C 0.23294 0.69161 0.04525 0.0
C351 C 0.32204 0.84696 0.89281 0.0
C352 C 0.16219 0.81438 1.02111 0.0
C353 C 0.17866 0.83372 0.0937 0.0
C354 C 0.19302 0.79169 0.98224 0.0
C355 C 0.24462 0.79196 1.01337 0.0
C356 C 0.2637 0.81384 0.0846 0.0
C357 C 0.22964 0.83351 0.12491 0.0
C358 C 0.1686 0.76519 0.90975 0.0
C359 C 0.319 0.81526 0.11945 0.0
H360 H 0.30985 0.66831 0.96535 0.0
H361 H 0.37757 0.79558 0.82989 0.0
H362 H 0.2535 0.70057 0.10142 0.0
H363 H 0.19273 0.69854 0.04659 0.0
H364 H 0.22183 0.6525 0.03493 0.0
H365 H 0.36241 0.86619 0.86151 0.0
H366 H 0.28578 0.8462 0.85675 0.0
H367 H 0.322 0.86807 0.94416 0.0
H368 H 0.12275 0.81398 0.99607 0.0
H369 H 0.24255 0.84816 0.18085 0.0
H370 H 0.16684 0.72763 0.91252 0.0
H371 H 0.1966 0.78303 0.86191 0.0
H372 H 0.12468 0.7638 0.8978 0.0
H373 H 0.31152 0.78001 0.14613 0.0
H374 H 0.33486 0.84368 0.16353 0.0
H375 H 0.35295 0.82179 0.07642 0.0
C376 C 0.22236 0.30905 0.89713 0.0
C377 C 0.17372 0.28411 0.85369 0.0
C378 C 0.25104 0.28416 0.93603 0.0
C379 C 0.22875 0.23293 0.93422 0.0
C380 C 0.18263 0.20793 0.88499 0.0
C381 C 0.15586 0.23403 0.84499 0.0
C382 C 0.30332 0.31274 0.98246 0.0
C383 C 0.15979 0.15376 0.87627 0.0
C384 C 0.32743 0.17965 0.02355 0.0
C385 C 0.31894 0.18691 0.09986 0.0
C386 C 0.29521 0.19074 0.96748 0.0
C387 C 0.25127 0.2067 0.98886 0.0
C388 C 0.23598 0.20539 0.06596 0.0
C389 C 0.27091 0.19647 0.12091 0.0
C390 C 0.31208 0.18949 0.88628 0.0
C391 C 0.18693 0.21882 0.09163 0.0
H392 H 0.23577 0.34775 0.90452 0.0
H393 H 0.11723 0.21471 0.81307 0.0
H394 H 0.33695 0.29744 0.97669 0.0
H395 H 0.32178 0.35131 0.96573 0.0
H396 H 0.29135 0.31102 0.04265 0.0
H397 H 0.11444 0.13917 0.85669 0.0
H398 H 0.18549 0.14427 0.83316 0.0
H399 H 0.16291 0.13564 0.92934 0.0
H400 H 0.36459 0.17185 1.00753 0.0
H401 H 0.26429 0.20228 0.1798 0.0
H402 H 0.30959 0.22025 0.854 0.0
H403 H 0.28229 0.15562 0.85989 0.0
H404 H 0.35628 0.19004 0.88103 0.0
H405 H 0.20339 0.25796 0.10493 0.0
H406 H 0.16725 0.19896 0.14354 0.0
H407 H 0.15323 0.21116 0.04779 0.0
C408 C 0.70036 0.31408 0.23273 0.0
C409 C 0.67783 0.34616 0.20222 0.0
C410 C 0.74106 0.30191 0.19294 0.0
C411 C 0.76043 0.32352 0.12225 0.0
C412 C 0.74442 0.36148 0.09737 0.0
C413 C 0.70295 0.37226 0.13774 0.0
C414 C 0.75773 0.26183 0.22231 0.0
C415 C 0.76604 0.38699 0.02402 0.0
C416 C 0.88208 0.2984 0.03171 0.0
C417 C 0.85299 0.26143 0.98005 0.0
C418 C 0.85286 0.32008 0.07625 0.0
C419 C 0.79252 0.30323 0.07139 0.0
C420 C 0.76261 0.26619 1.0189 0.0
C421 C 0.79343 0.24623 0.97268 0.0
C422 C 0.88667 0.36057 0.12916 0.0
C423 C 0.698 0.24711 1.01257 0.0
H424 H 0.68024 0.29338 0.28204 0.0
H425 H 0.68491 0.39663 0.11363 0.0
H426 H 0.73591 0.22874 0.18824 0.0
H427 H 0.80462 0.27139 0.21713 0.0
H428 H 0.74534 0.25348 0.2821 0.0
H429 H 0.75917 0.42142 1.02047 0.0
H430 H 0.81242 0.39469 1.01666 0.0
H431 H 0.74266 0.36341 0.97671 0.0
H432 H 0.92834 0.31093 0.03709 0.0
H433 H 0.77095 0.21797 0.93261 0.0
H434 H 0.87933 0.34757 0.18797 0.0
H435 H 0.87221 0.39111 0.12454 0.0
H436 H 0.93353 0.37423 0.11786 0.0
H437 H 0.67848 0.2327 0.06766 0.0
H438 H 0.68121 0.21805 0.96962 0.0
H439 H 0.68392 0.27682 0.99757 0.0
C440 C 0.87735 0.73692 0.03016 0.0
C441 C 0.86479 0.7173 0.1028 0.0
C442 C 0.8448 0.76001 0.99656 0.0
C443 C 0.7956 0.7604 0.03368 0.0
C444 C 0.7805 0.73854 0.10526 0.0
C445 C 0.81617 0.71812 0.13993 0.0
C446 C 0.86421 0.78525 0.92221 0.0
C447 C 0.72772 0.73781 0.14611 0.0
C448 C 0.73122 0.8497 0.96948 0.0
C449 C 0.69227 0.82223 0.91508 0.0
C450 C 0.76594 0.83029 1.00846 0.0
C451 C 0.75887 0.78168 0.99489 0.0
C452 C 0.719 0.75388 0.94022 0.0
C453 C 0.68736 0.77505 0.89944 0.0
C454 C 0.81069 0.86201 0.0627 0.0
C455 C 0.70868 0.70146 0.92598 0.0
H456 H 0.91486 0.73676 1.00057 0.0
H457 H 0.80635 0.70333 0.19605 0.0
H458 H 0.83211 0.76749 0.87775 0.0
H459 H 0.86785 0.82328 0.92647 0.0
H460 H 0.90635 0.78513 0.90412 0.0
H461 H 0.7151 0.71061 0.19178 0.0
H462 H 0.73663 0.77378 0.17165 0.0
H463 H 0.69097 0.73004 0.10681 0.0
H464 H 0.73405 0.88601 0.98184 0.0
H465 H 0.65609 0.75371 0.85822 0.0
H466 H 0.85375 0.87152 0.03727 0.0
H467 H 0.81039 0.84285 0.11597 0.0
H468 H 0.80446 0.89595 0.07581 0.0
H469 H 0.74684 0.6986 0.8988 0.0
H470 H 0.67085 0.68342 0.88904 0.0
H471 H 0.70186 0.6816 0.97994 0.0
loop_
_geom_bond_atom_site_label_1
_geom_bond_atom_site_label_2
_geom_bond_distance
_geom_bond_site_symmetry_2
_ccdc_geom_bond_type
Sc0 O3 2.025 . S
Sc0 O10 2.084 1_455 S
Sc0 O13 2.126 . S
Sc0 O16 2.115 1_455 S
Sc0 O19 2.098 . S
Sc1 O3 2.034 . S
Sc1 O11 2.105 . S
Sc1 O15 2.105 . S
Sc1 O17 2.105 . S
Sc1 O21 2.105 1_455 S
Sc2 O3 2.017 1_655 S
Sc2 O12 2.105 . S
Sc2 O14 2.105 . S
Sc2 O18 2.105 1_655 S
Sc2 O20 2.105 . S
O3 Sc0 2.025 . S
O3 Sc1 2.034 . S
O3 Sc2 2.017 1_455 S
C4 O10 1.268 . S
C4 O20 1.268 . S
C5 O11 1.268 . S
C5 O19 1.268 . S
C6 O12 1.268 . S
C6 O21 1.268 . S
C7 O13 1.268 . S
C7 O17 1.268 . S
C8 O14 1.268 . S
C8 O16 1.268 . S
C9 O15 1.268 . S
C9 O18 1.268 . S
O10 Sc0 2.084 1_655 S
O10 C4 1.268 . S
O11 Sc1 2.105 . S
O11 C5 1.268 . S
O12 Sc2 2.105 . S
O12 C6 1.268 . S
O13 Sc0 2.126 . S
O13 C7 1.268 . S
O14 Sc2 2.105 . S
O14 C8 1.268 . S
O15 Sc1 2.105 . S
O15 C9 1.268 . S
O16 Sc0 2.115 1_655 S
O16 C8 1.268 . S
O17 Sc1 2.105 . S
O17 C7 1.268 . S
O18 Sc2 2.105 1_455 S
O18 C9 1.268 . S
O19 Sc0 2.098 . S
O19 C5 1.268 . S
O20 Sc2 2.105 . S
O20 C4 1.268 . S
O21 Sc1 2.105 1_655 S
O21 C6 1.268 . S
Sc22 O25 2.025 . S
Sc22 O32 2.105 . S
Sc22 O35 2.105 . S
Sc22 O38 2.105 . S
Sc22 O41 2.105 . S
Sc23 O25 2.025 . S
Sc23 O33 2.105 . S
Sc23 O37 2.105 . S
Sc23 O39 2.105 . S
Sc23 O43 2.105 . S
Sc24 O25 2.025 . S
Sc24 O34 2.105 . S
Sc24 O36 2.105 . S
Sc24 O40 2.105 . S
Sc24 O42 2.105 . S
O25 Sc22 2.025 . S
O25 Sc23 2.025 . S
O25 Sc24 2.025 . S
C26 O32 1.268 . S
C26 O42 1.268 . S
C27 O33 1.268 . S
C27 O41 1.268 . S
C28 O34 1.268 . S
C28 O43 1.268 . S
C29 O35 1.268 . S
C29 O39 1.268 . S
C30 O36 1.268 . S
C30 O38 1.268 . S
C31 O37 1.268 . S
C31 O40 1.268 . S
O32 Sc22 2.105 . S
O32 C26 1.268 . S
O33 Sc23 2.105 . S
O33 C27 1.268 . S
O34 Sc24 2.105 . S
O34 C28 1.268 . S
O35 Sc22 2.105 . S
O35 C29 1.268 . S
O36 Sc24 2.105 . S
O36 C30 1.268 . S
O37 Sc23 2.105 . S
O37 C31 1.268 . S
O38 Sc22 2.105 . S
O38 C30 1.268 . S
O39 Sc23 2.105 . S
O39 C29 1.268 . S
O40 Sc24 2.105 . S
O40 C31 1.268 . S
O41 Sc22 2.105 . S
O41 C27 1.268 . S
O42 Sc24 2.105 . S
O42 C26 1.268 . S
O43 Sc23 2.105 . S
O43 C28 1.268 . S
Sc44 O47 2.025 . S
Sc44 O54 2.098 . S
Sc44 O57 2.115 1_455 S
Sc44 O60 2.126 . S
Sc44 O63 2.084 1_455 S
Sc45 O47 2.017 1_655 S
Sc45 O55 2.105 . S
Sc45 O59 2.105 1_655 S
Sc45 O61 2.105 . S
Sc45 O65 2.105 . S
Sc46 O47 2.034 . S
Sc46 O56 2.105 1_455 S
Sc46 O58 2.105 . S
Sc46 O62 2.105 . S
Sc46 O64 2.105 . S
O47 Sc44 2.025 . S
O47 Sc45 2.017 1_455 S
O47 Sc46 2.034 . S
C48 O54 1.268 . S
C48 O64 1.268 . S
C49 O55 1.268 . S
C49 O63 1.268 . S
C50 O56 1.268 . S
C50 O65 1.268 . S
C51 O57 1.268 . S
C51 O61 1.268 . S
C52 O58 1.268 . S
C52 O60 1.268 . S
C53 O59 1.268 . S
C53 O62 1.268 . S
O54 Sc44 2.098 . S
O54 C48 1.268 . S
O55 Sc45 2.105 . S
O55 C49 1.268 . S
O56 Sc46 2.105 1_655 S
O56 C50 1.268 . S
O57 Sc44 2.115 1_655 S
O57 C51 1.268 . S
O58 Sc46 2.105 . S
O58 C52 1.268 . S
O59 Sc45 2.105 1_455 S
O59 C53 1.268 . S
O60 Sc44 2.126 . S
O60 C52 1.268 . S
O61 Sc45 2.105 . S
O61 C51 1.268 . S
O62 Sc46 2.105 . S
O62 C53 1.268 . S
O63 Sc44 2.084 1_655 S
O63 C49 1.268 . S
O64 Sc46 2.105 . S
O64 C48 1.268 . S
O65 Sc45 2.105 . S
O65 C50 1.268 . S
Sc66 O69 2.025 . S
Sc66 O76 2.105 . S
Sc66 O79 2.105 . S
Sc66 O82 2.105 . S
Sc66 O85 2.105 . S
Sc67 O69 2.025 . S
Sc67 O77 2.105 . S
Sc67 O81 2.105 . S
Sc67 O83 2.105 . S
Sc67 O87 2.105 . S
Sc68 O69 2.025 . S
Sc68 O78 2.105 . S
Sc68 O80 2.105 . S
Sc68 O84 2.105 . S
Sc68 O86 2.105 . S
O69 Sc66 2.025 . S
O69 Sc67 2.025 . S
O69 Sc68 2.025 . S
C70 O76 1.268 . S
C70 O86 1.268 . S
C71 O77 1.268 . S
C71 O85 1.268 . S
C72 O78 1.268 . S
C72 O87 1.268 . S
C73 O79 1.268 . S
C73 O83 1.268 . S
C74 O80 1.268 . S
C74 O82 1.268 . S
C75 O81 1.268 . S
C75 O84 1.268 . S
O76 Sc66 2.105 . S
O76 C70 1.268 . S
O77 Sc67 2.105 . S
O77 C71 1.268 . S
O78 Sc68 2.105 . S
O78 C72 1.268 . S
O79 Sc66 2.105 . S
O79 C73 1.268 . S
O80 Sc68 2.105 . S
O80 C74 1.268 . S
O81 Sc67 2.105 . S
O81 C75 1.268 . S
O82 Sc66 2.105 . S
O82 C74 1.268 . S
O83 Sc67 2.105 . S
O83 C73 1.268 . S
O84 Sc68 2.105 . S
O84 C75 1.268 . S
O85 Sc66 2.105 . S
O85 C71 1.268 . S
O86 Sc68 2.105 . S
O86 C70 1.268 . S
O87 Sc67 2.105 . S
O87 C72 1.268 . S
C88 C89 1.391 1_655 S
C88 C90 1.394 1_556 S
C88 H104 0.931 . S
C89 C88 1.391 1_455 S
C89 C93 1.376 . S
C90 C88 1.394 1_554 S
C90 C91 1.369 1_654 S
C90 C94 1.531 . S
C91 C90 1.369 1_456 S
C91 C92 1.410 . S
C91 C99 1.503 1_556 S
C92 C91 1.410 . S
C92 C93 1.392 . S
C92 C95 1.511 . S
C93 C89 1.376 . S
C93 C92 1.392 . S
C93 H105 0.929 . S
C94 C90 1.531 . S
C94 H106 0.960 . S
C94 H107 0.962 . S
C94 H108 0.960 . S
C95 C92 1.511 . S
C95 H109 0.961 . S
C95 H110 0.961 . S
C95 H111 0.961 . S
C96 C97 1.373 . S
C96 C98 1.363 1_554 S
C96 H112 0.937 . S
C97 C96 1.373 . S
C97 C101 1.404 1_655 S
C98 C96 1.363 1_556 S
C98 C99 1.370 1_656 S
C98 C102 1.524 . S
C99 C91 1.503 1_554 S
C99 C98 1.370 1_454 S
C99 C100 1.403 . S
C100 C99 1.403 . S
C100 C101 1.404 . S
C100 C103 1.539 . S
C101 C97 1.404 1_455 S
C101 C100 1.404 . S
C101 H113 0.930 . S
C102 C98 1.524 . S
C102 H114 0.956 . S
C102 H115 0.961 . S
C102 H116 0.961 . S
C103 C100 1.539 . S
C103 H117 0.958 . S
C103 H118 0.961 . S
C103 H119 0.960 . S
H104 C88 0.931 . S
H105 C93 0.929 . S
H106 C94 0.960 . S
H107 C94 0.962 . S
H108 C94 0.960 . S
H109 C95 0.961 . S
H110 C95 0.961 . S
H111 C95 0.961 . S
H112 C96 0.937 . S
H113 C101 0.930 . S
H114 C102 0.956 . S
H115 C102 0.961 . S
H116 C102 0.961 . S
H117 C103 0.958 . S
H118 C103 0.961 . S
H119 C103 0.960 . S
C120 C121 1.391 . S
C120 C122 1.394 . S
C120 H136 0.931 . S
C121 C120 1.391 . S
C121 C125 1.376 . S
C122 C120 1.394 . S
C122 C123 1.369 . S
C122 C126 1.531 . S
C123 C122 1.369 . S
C123 C124 1.410 . S
C123 C131 1.503 1_554 S
C124 C123 1.410 . S
C124 C125 1.392 . S
C124 C127 1.511 1_554 S
C125 C121 1.376 . S
C125 C124 1.392 . S
C125 H137 0.929 . S
C126 C122 1.531 . S
C126 H138 0.960 . S
C126 H139 0.962 . S
C126 H140 0.960 . S
C127 C124 1.511 1_556 S
C127 H141 0.961 . S
C127 H142 0.961 . S
C127 H143 0.961 . S
C128 C129 1.370 . S
C128 C130 1.363 . S
C128 H144 0.931 . S
C129 C128 1.370 . S
C129 C133 1.408 . S
C130 C128 1.363 . S
C130 C131 1.370 . S
C130 C134 1.524 . S
C131 C123 1.503 1_556 S
C131 C130 1.370 . S
C131 C132 1.403 1_556 S
C132 C131 1.403 1_554 S
C132 C133 1.404 1_554 S
C132 C135 1.539 . S
C133 C129 1.408 . S
C133 C132 1.404 1_556 S
C133 H145 0.930 . S
C134 C130 1.524 . S
C134 H146 0.956 . S
C134 H147 0.961 . S
C134 H148 0.961 . S
C135 C132 1.539 . S
C135 H149 0.958 . S
C135 H150 0.961 . S
C135 H151 0.960 . S
H136 C120 0.931 . S
H137 C125 0.929 . S
H138 C126 0.960 . S
H139 C126 0.962 . S
H140 C126 0.960 . S
H141 C127 0.961 . S
H142 C127 0.961 . S
H143 C127 0.961 . S
H144 C128 0.931 . S
H145 C133 0.930 . S
H146 C134 0.956 . S
H147 C134 0.961 . S
H148 C134 0.961 . S
H149 C135 0.958 . S
H150 C135 0.961 . S
H151 C135 0.960 . S
C152 C153 1.391 . S
C152 C154 1.394 1_556 S
C152 H168 0.931 . S
C153 C152 1.391 . S
C153 C157 1.376 . S
C154 C152 1.394 1_554 S
C154 C155 1.369 1_554 S
C154 C158 1.531 . S
C155 C154 1.369 1_556 S
C155 C156 1.410 . S
C155 C163 1.503 1_566 S
C156 C155 1.410 . S
C156 C157 1.392 . S
C156 C159 1.511 1_565 S
C157 C153 1.376 . S
C157 C156 1.392 . S
C157 H169 0.929 . S
C158 C154 1.531 . S
C158 H170 0.960 . S
C158 H171 0.962 . S
C158 H172 0.960 . S
C159 C156 1.511 1_545 S
C159 H173 0.961 . S
C159 H174 0.961 . S
C159 H175 0.961 . S
C160 C161 1.370 . S
C160 C162 1.363 1_554 S
C160 H176 0.931 1_554 S
C161 C160 1.370 . S
C161 C165 1.408 . S
C162 C160 1.363 1_556 S
C162 C163 1.370 1_556 S
C162 C166 1.524 . S
C163 C155 1.503 1_544 S
C163 C162 1.370 1_554 S
C163 C164 1.403 . S
C164 C163 1.403 . S
C164 C165 1.404 . S
C164 C167 1.539 . S
C165 C161 1.408 . S
C165 C164 1.404 . S
C165 H177 0.930 . S
C166 C162 1.524 . S
C166 H178 0.956 . S
C166 H179 0.961 . S
C166 H180 0.961 . S
C167 C164 1.539 . S
C167 H181 0.958 1_545 S
C167 H182 0.961 . S
C167 H183 0.960 1_545 S
H168 C152 0.931 . S
H169 C157 0.929 . S
H170 C158 0.960 . S
H171 C158 0.962 . S
H172 C158 0.960 . S
H173 C159 0.961 . S
H174 C159 0.961 . S
H175 C159 0.961 . S
H176 C160 0.931 1_556 S
H177 C165 0.930 . S
H178 C166 0.956 . S
H179 C166 0.961 . S
H180 C166 0.961 . S
H181 C167 0.958 1_565 S
H182 C167 0.961 . S
H183 C167 0.960 1_565 S
C184 C185 1.391 1_655 S
C184 C186 1.394 . S
C184 H200 0.931 . S
C185 C184 1.391 1_455 S
C185 C189 1.376 . S
C186 C184 1.394 . S
C186 C187 1.369 1_655 S
C186 C190 1.539 . S
C187 C186 1.369 1_455 S
C187 C188 1.410 1_554 S
C187 C195 1.503 1_564 S
C188 C187 1.410 1_556 S
C188 C189 1.392 1_556 S
C188 C191 1.511 . S
C189 C185 1.376 . S
C189 C188 1.392 1_554 S
C189 H201 0.929 1_554 S
C190 C186 1.539 . S
C190 H202 0.950 1_565 S
C190 H203 0.961 . S
C190 H204 0.963 . S
C191 C188 1.511 . S
C191 H205 0.961 . S
C191 H206 0.961 . S
C191 H207 0.961 . S
C192 C193 1.371 1_655 S
C192 C194 1.363 . S
C192 H208 0.931 . S
C193 C192 1.371 1_455 S
C193 C197 1.407 . S
C194 C192 1.363 . S
C194 C195 1.370 1_655 S
C194 C198 1.524 1_545 S
C195 C187 1.503 1_546 S
C195 C194 1.370 1_455 S
C195 C196 1.403 1_556 S
C196 C195 1.403 1_554 S
C196 C197 1.404 1_554 S
C196 C199 1.539 . S
C197 C193 1.407 . S
C197 C196 1.404 1_556 S
C197 H209 0.930 . S
C198 C194 1.524 1_565 S
C198 H210 0.956 . S
C198 H211 0.961 . S
C198 H212 0.961 . S
C199 C196 1.539 . S
C199 H213 0.958 . S
C199 H214 0.961 . S
C199 H215 0.960 . S
H200 C184 0.931 . S
H201 C189 0.929 1_556 S
H202 C190 0.950 1_545 S
H203 C190 0.961 . S
H204 C190 0.963 . S
H205 C191 0.961 . S
H206 C191 0.961 . S
H207 C191 0.961 . S
H208 C192 0.931 . S
H209 C197 0.930 . S
H210 C198 0.956 . S
H211 C198 0.961 . S
H212 C198 0.961 . S
H213 C199 0.958 . S
H214 C199 0.961 . S
H215 C199 0.960 . S
C216 C217 1.391 . S
C216 C218 1.394 . S
C216 H232 0.931 . S
C217 C216 1.391 . S
C217 C221 1.376 . S
C218 C216 1.394 . S
C218 C219 1.369 . S
C218 C222 1.531 . S
C219 C218 1.369 . S
C219 C220 1.410 . S
C219 C227 1.503 . S
C220 C219 1.410 . S
C220 C221 1.392 . S
C220 C223 1.511 . S
C221 C217 1.376 . S
C221 C220 1.392 . S
C221 H233 0.929 . S
C222 C218 1.531 . S
C222 H234 0.960 . S
C222 H235 0.962 . S
C222 H236 0.960 . S
C223 C220 1.511 . S
C223 H237 0.961 . S
C223 H238 0.961 . S
C223 H239 0.961 . S
C224 C225 1.370 . S
C224 C226 1.363 . S
C224 H240 0.931 . S
C225 C224 1.370 . S
C225 C229 1.408 . S
C226 C224 1.363 . S
C226 C227 1.370 . S
C226 C230 1.524 . S
C227 C219 1.503 . S
C227 C226 1.370 . S
C227 C228 1.403 . S
C228 C227 1.403 . S
C228 C229 1.404 . S
C228 C231 1.539 . S
C229 C225 1.408 . S
C229 C228 1.404 . S
C229 H241 0.930 . S
C230 C226 1.524 . S
C230 H242 0.956 . S
C230 H243 0.961 . S
C230 H244 0.961 . S
C231 C228 1.539 . S
C231 H245 0.958 . S
C231 H246 0.961 . S
C231 H247 0.960 . S
H232 C216 0.931 . S
H233 C221 0.929 . S
H234 C222 0.960 . S
H235 C222 0.962 . S
H236 C222 0.960 . S
H237 C223 0.961 . S
H238 C223 0.961 . S
H239 C223 0.961 . S
H240 C224 0.931 . S
H241 C229 0.930 . S
H242 C230 0.956 . S
H243 C230 0.961 . S
H244 C230 0.961 . S
H245 C231 0.958 . S
H246 C231 0.961 . S
H247 C231 0.960 . S
C248 C249 1.391 . S
C248 C250 1.394 . S
C248 H264 0.931 . S
C249 C248 1.391 . S
C249 C253 1.376 . S
C250 C248 1.394 . S
C250 C251 1.369 . S
C250 C254 1.531 . S
C251 C250 1.369 . S
C251 C252 1.410 . S
C251 C259 1.503 . S
C252 C251 1.410 . S
C252 C253 1.392 . S
C252 C255 1.511 . S
C253 C249 1.376 . S
C253 C252 1.392 . S
C253 H265 0.929 . S
C254 C250 1.531 . S
C254 H266 0.960 . S
C254 H267 0.962 . S
C254 H268 0.960 . S
C255 C252 1.511 . S
C255 H269 0.961 . S
C255 H270 0.961 . S
C255 H271 0.961 . S
C256 C257 1.370 . S
C256 C258 1.363 . S
C256 H272 0.931 . S
C257 C256 1.370 . S
C257 C261 1.408 . S
C258 C256 1.363 . S
C258 C259 1.370 . S
C258 C262 1.524 . S
C259 C251 1.503 . S
C259 C258 1.370 . S
C259 C260 1.403 . S
C260 C259 1.403 . S
C260 C261 1.404 . S
C260 C263 1.539 . S
C261 C257 1.408 . S
C261 C260 1.404 . S
C261 H273 0.930 . S
C262 C258 1.524 . S
C262 H274 0.956 . S
C262 H275 0.961 . S
C262 H276 0.961 . S
C263 C260 1.539 . S
C263 H277 0.958 . S
C263 H278 0.961 . S
C263 H279 0.960 . S
H264 C248 0.931 . S
H265 C253 0.929 . S
H266 C254 0.960 . S
H267 C254 0.962 . S
H268 C254 0.960 . S
H269 C255 0.961 . S
H270 C255 0.961 . S
H271 C255 0.961 . S
H272 C256 0.931 . S
H273 C261 0.930 . S
H274 C262 0.956 . S
H275 C262 0.961 . S
H276 C262 0.961 . S
H277 C263 0.958 . S
H278 C263 0.961 . S
H279 C263 0.960 . S
C280 C281 1.391 . S
C280 C282 1.394 . S
C280 H296 0.931 . S
C281 C280 1.391 . S
C281 C285 1.376 . S
C282 C280 1.394 . S
C282 C283 1.369 . S
C282 C286 1.531 . S
C283 C282 1.369 . S
C283 C284 1.410 . S
C283 C291 1.503 . S
C284 C283 1.410 . S
C284 C285 1.392 . S
C284 C287 1.511 . S
C285 C281 1.376 . S
C285 C284 1.392 . S
C285 H297 0.929 . S
C286 C282 1.531 . S
C286 H298 0.960 . S
C286 H299 0.962 . S
C286 H300 0.960 . S
C287 C284 1.511 . S
C287 H301 0.961 . S
C287 H302 0.961 . S
C287 H303 0.961 . S
C288 C289 1.370 . S
C288 C290 1.363 . S
C288 H304 0.931 . S
C289 C288 1.370 . S
C289 C293 1.408 . S
C290 C288 1.363 . S
C290 C291 1.370 . S
C290 C294 1.524 . S
C291 C283 1.503 . S
C291 C290 1.370 . S
C291 C292 1.403 . S
C292 C291 1.403 . S
C292 C293 1.404 . S
C292 C295 1.539 . S
C293 C289 1.408 . S
C293 C292 1.404 . S
C293 H305 0.930 . S
C294 C290 1.524 . S
C294 H306 0.956 . S
C294 H307 0.961 . S
C294 H308 0.961 . S
C295 C292 1.539 . S
C295 H309 0.958 . S
C295 H310 0.961 . S
C295 H311 0.960 . S
H296 C280 0.931 . S
H297 C285 0.929 . S
H298 C286 0.960 . S
H299 C286 0.962 . S
H300 C286 0.960 . S
H301 C287 0.961 . S
H302 C287 0.961 . S
H303 C287 0.961 . S
H304 C288 0.931 . S
H305 C293 0.930 . S
H306 C294 0.956 . S
H307 C294 0.961 . S
H308 C294 0.961 . S
H309 C295 0.958 . S
H310 C295 0.961 . S
H311 C295 0.960 . S
C312 C313 1.391 . S
C312 C314 1.394 . S
C312 H328 0.931 . S
C313 C312 1.391 . S
C313 C317 1.376 . S
C314 C312 1.394 . S
C314 C315 1.369 . S
C314 C318 1.531 . S
C315 C314 1.369 . S
C315 C316 1.410 . S
C315 C323 1.503 . S
C316 C315 1.410 . S
C316 C317 1.392 . S
C316 C319 1.511 . S
C317 C313 1.376 . S
C317 C316 1.392 . S
C317 H329 0.929 . S
C318 C314 1.531 . S
C318 H330 0.960 . S
C318 H331 0.962 . S
C318 H332 0.960 . S
C319 C316 1.511 . S
C319 H333 0.961 . S
C319 H334 0.961 . S
C319 H335 0.961 . S
C320 C321 1.370 . S
C320 C322 1.363 . S
C320 H336 0.931 . S
C321 C320 1.370 . S
C321 C325 1.408 . S
C322 C320 1.363 . S
C322 C323 1.370 . S
C322 C326 1.524 . S
C323 C315 1.503 . S
C323 C322 1.370 . S
C323 C324 1.403 . S
C324 C323 1.403 . S
C324 C325 1.404 . S
C324 C327 1.539 . S
C325 C321 1.408 . S
C325 C324 1.404 . S
C325 H337 0.930 . S
C326 C322 1.524 . S
C326 H338 0.956 . S
C326 H339 0.961 . S
C326 H340 0.961 . S
C327 C324 1.539 . S
C327 H341 0.958 . S
C327 H342 0.961 . S
C327 H343 0.960 . S
H328 C312 0.931 . S
H329 C317 0.929 . S
H330 C318 0.960 . S
H331 C318 0.962 . S
H332 C318 0.960 . S
H333 C319 0.961 . S
H334 C319 0.961 . S
H335 C319 0.961 . S
H336 C320 0.931 . S
H337 C325 0.930 . S
H338 C326 0.956 . S
H339 C326 0.961 . S
H340 C326 0.961 . S
H341 C327 0.958 . S
H342 C327 0.961 . S
H343 C327 0.960 . S
C344 C345 1.391 . S
C344 C346 1.394 1_556 S
C344 H360 0.931 . S
C345 C344 1.391 . S
C345 C349 1.376 . S
C346 C344 1.394 1_554 S
C346 C347 1.369 1_554 S
C346 C350 1.531 . S
C347 C346 1.369 1_556 S
C347 C348 1.410 . S
C347 C355 1.503 1_556 S
C348 C347 1.410 . S
C348 C349 1.392 . S
C348 C351 1.511 . S
C349 C345 1.376 . S
C349 C348 1.392 . S
C349 H361 0.929 . S
C350 C346 1.531 . S
C350 H362 0.960 . S
C350 H363 0.962 . S
C350 H364 0.960 . S
C351 C348 1.511 . S
C351 H365 0.961 . S
C351 H366 0.961 . S
C351 H367 0.961 . S
C352 C353 1.370 . S
C352 C354 1.363 . S
C352 H368 0.931 . S
C353 C352 1.370 . S
C353 C357 1.408 . S
C354 C352 1.363 . S
C354 C355 1.370 . S
C354 C358 1.524 1_554 S
C355 C347 1.503 1_554 S
C355 C354 1.370 . S
C355 C356 1.403 . S
C356 C355 1.403 . S
C356 C357 1.404 . S
C356 C359 1.539 . S
C357 C353 1.408 . S
C357 C356 1.404 . S
C357 H369 0.930 . S
C358 C354 1.524 1_556 S
C358 H370 0.956 . S
C358 H371 0.961 . S
C358 H372 0.961 . S
C359 C356 1.539 . S
C359 H373 0.958 . S
C359 H374 0.961 . S
C359 H375 0.960 . S
H360 C344 0.931 . S
H361 C349 0.929 . S
H362 C350 0.960 . S
H363 C350 0.962 . S
H364 C350 0.960 . S
H365 C351 0.961 . S
H366 C351 0.961 . S
H367 C351 0.961 . S
H368 C352 0.931 . S
H369 C357 0.930 . S
H370 C358 0.956 . S
H371 C358 0.961 . S
H372 C358 0.961 . S
H373 C359 0.958 . S
H374 C359 0.961 . S
H375 C359 0.960 . S
C376 C377 1.391 . S
C376 C378 1.394 . S
C376 H392 0.931 . S
C377 C376 1.391 . S
C377 C381 1.376 . S
C378 C376 1.394 . S
C378 C379 1.369 . S
C378 C382 1.531 1_556 S
C379 C378 1.369 . S
C379 C380 1.410 . S
C379 C387 1.503 1_556 S
C380 C379 1.410 . S
C380 C381 1.392 . S
C380 C383 1.511 . S
C381 C377 1.376 . S
C381 C380 1.392 . S
C381 H393 0.929 . S
C382 C378 1.531 1_554 S
C382 H394 0.960 . S
C382 H395 0.962 1_554 S
C382 H396 0.960 . S
C383 C380 1.511 . S
C383 H397 0.961 . S
C383 H398 0.961 . S
C383 H399 0.961 1_556 S
C384 C385 1.370 . S
C384 C386 1.363 1_554 S
C384 H400 0.931 . S
C385 C384 1.370 . S
C385 C389 1.408 . S
C386 C384 1.363 1_556 S
C386 C387 1.370 1_556 S
C386 C390 1.524 . S
C387 C379 1.503 1_554 S
C387 C386 1.370 1_554 S
C387 C388 1.403 . S
C388 C387 1.403 . S
C388 C389 1.404 . S
C388 C391 1.539 . S
C389 C385 1.408 . S
C389 C388 1.404 . S
C389 H401 0.930 . S
C390 C386 1.524 . S
C390 H402 0.956 . S
C390 H403 0.961 . S
C390 H404 0.961 . S
C391 C388 1.539 . S
C391 H405 0.958 . S
C391 H406 0.961 . S
C391 H407 0.960 . S
H392 C376 0.931 . S
H393 C381 0.929 . S
H394 C382 0.960 . S
H395 C382 0.962 1_556 S
H396 C382 0.960 . S
H397 C383 0.961 . S
H398 C383 0.961 . S
H399 C383 0.961 1_554 S
H400 C384 0.931 . S
H401 C389 0.930 . S
H402 C390 0.956 . S
H403 C390 0.961 . S
H404 C390 0.961 . S
H405 C391 0.958 . S
H406 C391 0.961 . S
H407 C391 0.960 . S
C408 C409 1.391 . S
C408 C410 1.394 . S
C408 H424 0.931 . S
C409 C408 1.391 . S
C409 C413 1.376 . S
C410 C408 1.394 . S
C410 C411 1.369 . S
C410 C414 1.531 . S
C411 C410 1.369 . S
C411 C412 1.410 1_554 S
C411 C419 1.503 1_554 S
C412 C411 1.410 1_556 S
C412 C413 1.392 1_556 S
C412 C415 1.511 . S
C413 C409 1.376 . S
C413 C412 1.392 1_554 S
C413 H425 0.929 . S
C414 C410 1.531 . S
C414 H426 0.960 . S
C414 H427 0.962 . S
C414 H428 0.960 . S
C415 C412 1.511 . S
C415 H429 0.961 . S
C415 H430 0.961 . S
C415 H431 0.961 . S
C416 C417 1.370 . S
C416 C418 1.363 . S
C416 H432 0.931 . S
C417 C416 1.370 . S
C417 C421 1.408 . S
C418 C416 1.363 . S
C418 C419 1.370 . S
C418 C422 1.524 1_556 S
C419 C411 1.503 1_556 S
C419 C418 1.370 . S
C419 C420 1.403 . S
C420 C419 1.403 . S
C420 C421 1.404 . S
C420 C423 1.539 . S
C421 C417 1.408 . S
C421 C420 1.404 . S
C421 H433 0.930 . S
C422 C418 1.524 1_554 S
C422 H434 0.956 . S
C422 H435 0.961 . S
C422 H436 0.961 . S
C423 C420 1.539 . S
C423 H437 0.958 . S
C423 H438 0.961 . S
C423 H439 0.960 . S
H424 C408 0.931 . S
H425 C413 0.929 . S
H426 C414 0.960 . S
H427 C414 0.962 . S
H428 C414 0.960 . S
H429 C415 0.961 . S
H430 C415 0.961 . S
H431 C415 0.961 . S
H432 C416 0.931 . S
H433 C421 0.930 . S
H434 C422 0.956 . S
H435 C422 0.961 . S
H436 C422 0.961 . S
H437 C423 0.958 . S
H438 C423 0.961 . S
H439 C423 0.960 . S
C440 C441 1.391 . S
C440 C442 1.394 1_554 S
C440 H456 0.931 . S
C441 C440 1.391 . S
C441 C445 1.376 . S
C442 C440 1.394 1_556 S
C442 C443 1.369 1_556 S
C442 C446 1.531 . S
C443 C442 1.369 1_554 S
C443 C444 1.410 . S
C443 C451 1.503 1_554 S
C444 C443 1.410 . S
C444 C445 1.392 . S
C444 C447 1.511 . S
C445 C441 1.376 . S
C445 C444 1.392 . S
C445 H457 0.929 . S
C446 C442 1.531 . S
C446 H458 0.960 . S
C446 H459 0.962 . S
C446 H460 0.960 . S
C447 C444 1.511 . S
C447 H461 0.961 . S
C447 H462 0.961 . S
C447 H463 0.961 . S
C448 C449 1.370 . S
C448 C450 1.363 . S
C448 H464 0.931 . S
C449 C448 1.370 . S
C449 C453 1.408 . S
C450 C448 1.363 . S
C450 C451 1.370 . S
C450 C454 1.524 1_556 S
C451 C443 1.503 1_556 S
C451 C450 1.370 . S
C451 C452 1.403 . S
C452 C451 1.403 . S
C452 C453 1.404 . S
C452 C455 1.539 . S
C453 C449 1.408 . S
C453 C452 1.404 . S
C453 H465 0.930 . S
C454 C450 1.524 1_554 S
C454 H466 0.956 1_554 S
C454 H467 0.961 . S
C454 H468 0.961 . S
C455 C452 1.539 . S
C455 H469 0.958 . S
C455 H470 0.961 . S
C455 H471 0.960 . S
H456 C440 0.931 . S
H457 C445 0.929 . S
H458 C446 0.960 . S
H459 C446 0.962 . S
H460 C446 0.960 . S
H461 C447 0.961 . S
H462 C447 0.961 . S
H463 C447 0.961 . S
H464 C448 0.931 . S
H465 C453 0.930 . S
H466 C454 0.956 1_556 S
H467 C454 0.961 . S
H468 C454 0.961 . S
H469 C455 0.958 . S
H470 C455 0.961 . S
H471 C455 0.960 . S
C89 C48 1.528 . S
C97 C8 1.560 . S
C121 C27 1.543 . S
C129 C73 1.552 . S
C153 C70 1.530 . S
C161 C30 1.557 . S
C185 C5 1.538 . S
C193 C51 1.555 1_455 S
C217 C72 2.153 . S
C225 C9 2.127 . S
C249 C53 2.125 . S
C257 C28 2.136 . S
C281 C50 2.105 . S
C289 C31 2.146 . S
C313 C6 2.116 . S
C321 C75 2.140 . S
C345 C71 0.609 . S
C353 C7 0.691 . S
C377 C52 0.625 . S
C385 C26 0.689 . S
C409 C29 0.610 . S
C417 C49 0.691 . S
C441 C4 0.704 . S
C449 C74 0.650 . S
