# Generated by pormake.
# Topology unp, (4)-cn, num edge types: 1
# Building blocks:
#     Node 0, Type 0, BuildingBlock: ICAMEG_clean_sbu_1, # of connection points: 4
#     Node 1, Type 0, BuildingBlock: ICAMEG_clean_sbu_1, # of connection points: 4
#     Node 2, Type 0, BuildingBlock: ICAMEG_clean_sbu_1, # of connection points: 4
#     Node 3, Type 0, BuildingBlock: ICAMEG_clean_sbu_1, # of connection points: 4
#     Node 4, Type 0, BuildingBlock: ICAMEG_clean_sbu_1, # of connection points: 4
#     Node 5, Type 0, BuildingBlock: ICAMEG_clean_sbu_1, # of connection points: 4
#     Node 6, Type 0, BuildingBlock: ICAMEG_clean_sbu_1, # of connection points: 4
#     Node 7, Type 0, BuildingBlock: ICAMEG_clean_sbu_1, # of connection points: 4
#     Node 8, Type 0, BuildingBlock: ICAMEG_clean_sbu_1, # of connection points: 4
#     Node 9, Type 0, BuildingBlock: ICAMEG_clean_sbu_1, # of connection points: 4
#     Node 10, Type 0, BuildingBlock: ICAMEG_clean_sbu_1, # of connection points: 4
#     Node 11, Type 0, BuildingBlock: ICAMEG_clean_sbu_1, # of connection points: 4
#     Node 12, Type 0, BuildingBlock: ICAMEG_clean_sbu_1, # of connection points: 4
#     Node 13, Type 0, BuildingBlock: ICAMEG_clean_sbu_1, # of connection points: 4
#     Node 14, Type 0, BuildingBlock: ICAMEG_clean_sbu_1, # of connection points: 4
#     Node 15, Type 0, BuildingBlock: ICAMEG_clean_sbu_1, # of connection points: 4
#     Node 16, Type 0, BuildingBlock: ICAMEG_clean_sbu_1, # of connection points: 4
#     Node 17, Type 0, BuildingBlock: ICAMEG_clean_sbu_1, # of connection points: 4
#     Edge 18, Type (0, 0), BuildingBlock: EZIPEK_clean_linker_0, # of connection points: 2
#     Edge 19, Type (0, 0), BuildingBlock: EZIPEK_clean_linker_0, # of connection points: 2
#     Edge 20, Type (0, 0), BuildingBlock: EZIPEK_clean_linker_0, # of connection points: 2
#     Edge 21, Type (0, 0), BuildingBlock: EZIPEK_clean_linker_0, # of connection points: 2
#     Edge 22, Type (0, 0), BuildingBlock: EZIPEK_clean_linker_0, # of connection points: 2
#     Edge 23, Type (0, 0), BuildingBlock: EZIPEK_clean_linker_0, # of connection points: 2
#     Edge 24, Type (0, 0), BuildingBlock: EZIPEK_clean_linker_0, # of connection points: 2
#     Edge 25, Type (0, 0), BuildingBlock: EZIPEK_clean_linker_0, # of connection points: 2
#     Edge 26, Type (0, 0), BuildingBlock: EZIPEK_clean_linker_0, # of connection points: 2
#     Edge 27, Type (0, 0), BuildingBlock: EZIPEK_clean_linker_0, # of connection points: 2
#     Edge 28, Type (0, 0), BuildingBlock: EZIPEK_clean_linker_0, # of connection points: 2
#     Edge 29, Type (0, 0), BuildingBlock: EZIPEK_clean_linker_0, # of connection points: 2
#     Edge 30, Type (0, 0), BuildingBlock: EZIPEK_clean_linker_0, # of connection points: 2
#     Edge 31, Type (0, 0), BuildingBlock: EZIPEK_clean_linker_0, # of connection points: 2
#     Edge 32, Type (0, 0), BuildingBlock: EZIPEK_clean_linker_0, # of connection points: 2
#     Edge 33, Type (0, 0), BuildingBlock: EZIPEK_clean_linker_0, # of connection points: 2
#     Edge 34, Type (0, 0), BuildingBlock: EZIPEK_clean_linker_0, # of connection points: 2
#     Edge 35, Type (0, 0), BuildingBlock: EZIPEK_clean_linker_0, # of connection points: 2
#     Edge 36, Type (0, 0), BuildingBlock: EZIPEK_clean_linker_0, # of connection points: 2
#     Edge 37, Type (0, 0), BuildingBlock: EZIPEK_clean_linker_0, # of connection points: 2
#     Edge 38, Type (0, 0), BuildingBlock: EZIPEK_clean_linker_0, # of connection points: 2
#     Edge 39, Type (0, 0), BuildingBlock: EZIPEK_clean_linker_0, # of connection points: 2
#     Edge 40, Type (0, 0), BuildingBlock: EZIPEK_clean_linker_0, # of connection points: 2
#     Edge 41, Type (0, 0), BuildingBlock: EZIPEK_clean_linker_0, # of connection points: 2
#     Edge 42, Type (0, 0), BuildingBlock: EZIPEK_clean_linker_0, # of connection points: 2
#     Edge 43, Type (0, 0), BuildingBlock: EZIPEK_clean_linker_0, # of connection points: 2
#     Edge 44, Type (0, 0), BuildingBlock: EZIPEK_clean_linker_0, # of connection points: 2
#     Edge 45, Type (0, 0), BuildingBlock: EZIPEK_clean_linker_0, # of connection points: 2
#     Edge 46, Type (0, 0), BuildingBlock: EZIPEK_clean_linker_0, # of connection points: 2
#     Edge 47, Type (0, 0), BuildingBlock: EZIPEK_clean_linker_0, # of connection points: 2
#     Edge 48, Type (0, 0), BuildingBlock: EZIPEK_clean_linker_0, # of connection points: 2
#     Edge 49, Type (0, 0), BuildingBlock: EZIPEK_clean_linker_0, # of connection points: 2
#     Edge 50, Type (0, 0), BuildingBlock: EZIPEK_clean_linker_0, # of connection points: 2
#     Edge 51, Type (0, 0), BuildingBlock: EZIPEK_clean_linker_0, # of connection points: 2
#     Edge 52, Type (0, 0), BuildingBlock: EZIPEK_clean_linker_0, # of connection points: 2
#     Edge 53, Type (0, 0), BuildingBlock: EZIPEK_clean_linker_0, # of connection points: 2
# Relax obj value: 0.379
# Max RMSD: 0.177
# Mean RMSD: 0.177
data_MOF--net-unp--node1-ICAMEG_clean_sbu_1--edge1-EZIPEK_clean_linker_0
_symmetry_space_group_name_H-M    P1
_symmetry_Int_Tables_number       1
_symmetry_cell_setting            triclinic
loop_
_symmetry_equiv_pos_as_xyz
'x, y, z'
_cell_length_a     38.464749
_cell_length_b     38.476209
_cell_length_c     48.367487
_cell_angle_alpha  89.949229
_cell_angle_beta   90.12341
_cell_angle_gamma 120.12719
loop_
_atom_site_label
_atom_site_type_symbol
_atom_site_fract_x
_atom_site_fract_y
_atom_site_fract_z
_atom_type_partial_charge
Co0 Co 0.14706 0.10629 0.08573 0.0
Co1 Co 0.194 0.12958 0.14723 0.0
O2 O 0.19701 0.13056 0.10657 0.0
C3 C 0.20705 0.17387 0.04805 0.0
O4 O 0.23753 0.18687 0.0652 0.0
C5 C 0.26016 0.11342 0.13304 0.0
O6 O 0.23681 0.08641 0.11489 0.0
O7 O 0.16398 0.06929 0.14586 0.0
O8 O 0.1187 0.06531 0.11517 0.0
H9 H 0.12963 0.0784 0.24009 0.0
H10 H 0.22087 0.11228 0.06154 0.0
O11 O 0.17238 0.14516 0.0544 0.0
H12 H 0.11699 0.9697 0.05283 0.0
H13 H 0.06296 0.0658 0.00072 0.0
H14 H 0.06254 0.07903 0.10173 0.0
H15 H 0.10078 0.01837 0.07335 0.0
H16 H 0.12426 0.0873 0.02723 0.0
O17 O 0.24699 0.1314 0.14813 0.0
H18 H 0.13177 0.08169 0.18922 0.0
H19 H 0.25478 0.17217 0.19153 0.0
H20 H -0.00018 0.05778 0.07577 0.0
H21 H 0.2381 0.06514 0.03963 0.0
H22 H -0.00063 0.04871 0.02503 0.0
H23 H 0.18594 0.99303 0.03538 0.0
O24 O 0.13428 0.14418 0.10394 0.0
H25 H 0.30182 0.26787 0.11853 0.0
H26 H 0.18263 0.191 0.1774 0.0
H27 H 0.21763 0.26501 0.17792 0.0
H28 H 0.27786 0.30402 0.14844 0.0
H29 H 0.26533 0.19383 0.11845 0.0
H30 H 0.25427 0.1697 0.24247 0.0
H31 H 0.19127 0.12277 0.26712 0.0
O32 O 0.14107 0.12981 0.14733 0.0
C33 C 0.13105 0.04899 0.13252 0.0
C34 C 0.1572 0.09922 0.22962 0.0
C35 C 0.22713 0.15042 0.23095 0.0
N36 N 0.19296 0.12768 0.18737 0.0
C37 C 0.15847 0.1013 0.20078 0.0
C38 C 0.22722 0.15167 0.20208 0.0
C39 C 0.19179 0.12407 0.24476 0.0
C40 C 0.19783 0.08142 0.05894 0.0
N41 N 0.15977 0.06857 0.0681 0.0
C42 C 0.20782 0.05463 0.04686 0.0
C43 C 0.1786 0.01418 0.04457 0.0
C44 C 0.13993 0.00108 0.05435 0.0
C45 C 0.13094 0.02887 0.06592 0.0
C46 C 0.06231 0.06909 0.0227 0.0
C47 C 0.06263 0.07629 0.07952 0.0
C48 C 0.09707 0.08088 0.03788 0.0
N49 N 0.09697 0.08437 0.06587 0.0
C50 C 0.02715 0.06466 0.06495 0.0
C51 C 0.0271 0.06075 0.03633 0.0
C52 C 0.12627 0.14348 0.1295 0.0
C53 C 0.2757 0.25126 0.13154 0.0
C54 C 0.20866 0.20769 0.16438 0.0
C55 C 0.22843 0.24964 0.16483 0.0
C56 C 0.26222 0.2715 0.1483 0.0
N57 N 0.22218 0.18802 0.14797 0.0
C58 C 0.25508 0.2093 0.13162 0.0
Co59 Co 0.90665 0.07856 0.07892 0.0
Co60 Co 0.8831 0.06668 0.14902 0.0
O61 O 0.8762 0.0802 0.111 0.0
C62 C 0.82822 0.06122 0.05388 0.0
O63 O 0.82718 0.08791 0.07022 0.0
C64 C 0.8733 0.13981 0.15403 0.0
O65 O 0.86749 0.1403 0.12737 0.0
O66 O 0.94278 0.10249 0.14589 0.0
O67 O 0.95853 0.10458 0.10092 0.0
H68 H 0.95087 0.03126 0.22403 0.0
H69 H 0.93469 0.157 0.10737 0.0
O70 O 0.85573 0.05219 0.0565 0.0
H71 H 0.91378 0.18089 0.01029 0.0
H72 H 0.9152 0.0203 0.98863 0.0
H73 H 0.9856 0.1349 0.05217 0.0
H74 H 0.90025 0.11422 0.02536 0.0
H75 H 0.88886 0.01761 0.03551 0.0
O76 O 0.87942 0.11316 0.16489 0.0
H77 H 0.94104 0.0486 0.1768 0.0
H78 H 0.84167 0.05878 0.20306 0.0
H79 H 0.01367 0.13825 0.00586 0.0
H80 H 0.94852 0.22437 0.0931 0.0
H81 H 0.97706 0.08094 0.97339 0.0
H82 H 0.93798 0.2366 0.04431 0.0
O83 O 0.89662 0.02381 0.08974 0.0
H84 H 0.73759 0.02611 0.13371 0.0
H85 H 0.83024 0.98355 0.16995 0.0
H86 H 0.75727 0.93696 0.17228 0.0
H87 H 0.71028 0.95822 0.1543 0.0
H88 H 0.81052 0.07143 0.13147 0.0
H89 H 0.85079 0.04273 0.25082 0.0
H90 H 0.90551 0.02835 0.26158 0.0
O91 O 0.887 0.02001 0.13567 0.0
C92 C 0.96864 0.11369 0.12639 0.0
C93 C 0.92659 0.03698 0.2196 0.0
C94 C 0.8706 0.04361 0.23463 0.0
N95 N 0.89021 0.05365 0.18681 0.0
C96 C 0.92063 0.0463 0.19274 0.0
C97 C 0.86565 0.05286 0.2075 0.0
C98 C 0.90126 0.03551 0.24065 0.0
C99 C 0.92954 0.16191 0.08619 0.0
N100 N 0.91624 0.13137 0.06745 0.0
C101 C 0.93758 0.20017 0.0782 0.0
C102 C 0.9318 0.20711 0.05078 0.0
C103 C 0.91825 0.1759 0.0317 0.0
C104 C 0.9105 0.13809 0.04045 0.0
C105 C 0.93097 0.04536 0.0026 0.0
C106 C 0.97077 0.10926 0.03871 0.0
C107 C 0.91646 0.04399 0.02925 0.0
N108 N 0.93537 0.0764 0.04651 0.0
C109 C 0.98624 0.11168 0.01221 0.0
C110 C 0.96568 0.07971 0.99394 0.0
C111 C 0.89007 0.00539 0.11283 0.0
C112 C 0.75772 0.01667 0.14196 0.0
C113 C 0.81013 0.9933 0.16224 0.0
C114 C 0.76875 0.96665 0.16356 0.0
C115 C 0.74242 0.97856 0.15344 0.0
N116 N 0.82504 0.0311 0.15153 0.0
C117 C 0.79929 0.04249 0.14096 0.0
Co118 Co 0.94683 0.849 0.07239 0.0
Co119 Co 0.92696 0.81075 0.13885 0.0
O120 O 0.9299 0.80482 0.09861 0.0
C121 C 0.98803 0.80408 0.05145 0.0
O122 O 0.97567 0.77697 0.07111 0.0
C123 C 0.84723 0.74058 0.12297 0.0
O124 O 0.84437 0.76117 0.10232 0.0
O125 O 0.89392 0.83766 0.13365 0.0
O126 O 0.91501 0.86903 0.09264 0.0
H127 H 0.94302 0.88302 0.22907 0.0
H128 H 0.90735 0.76502 0.05138 0.0
O129 O 0.97895 0.83148 0.05088 0.0
H130 H 0.82896 0.82262 0.01239 0.0
H131 H 0.99301 0.91531 0.9797 0.0
H132 H 0.97899 0.93548 0.07886 0.0
H133 H 0.88693 0.86291 0.04295 0.0
H134 H 0.95648 0.85722 0.01077 0.0
O135 O 0.87707 0.75652 0.13949 0.0
H136 H 0.94729 0.87784 0.1787 0.0
H137 H 0.90048 0.75201 0.18535 0.0
H138 H 0.01884 0.9932 0.04954 0.0
H139 H 0.85008 0.72362 0.02072 0.0
H140 H 0.02458 0.98441 0.99898 0.0
H141 H 0.81023 0.75236 0.001 0.0
O142 O 0.99563 0.88336 0.09503 0.0
H143 H 0.9635 0.70343 0.12446 0.0
H144 H -0.00029 0.83019 0.17244 0.0
H145 H 0.04027 0.79786 0.18026 0.0
H146 H 0.02197 0.73374 0.15641 0.0
H147 H 0.92431 0.73733 0.11685 0.0
H148 H 0.8953 0.7558 0.23581 0.0
H149 H 0.91668 0.82166 0.25808 0.0
O150 O 0.97741 0.86481 0.13898 0.0
C151 C 0.89434 0.86131 0.11478 0.0
C152 C 0.93329 0.85408 0.2196 0.0
C153 C 0.90643 0.7827 0.22337 0.0
N154 N 0.92311 0.81455 0.17876 0.0
C155 C 0.93555 0.85094 0.19098 0.0
C156 C 0.90906 0.78072 0.19468 0.0
C157 C 0.91852 0.81966 0.23586 0.0
C158 C 0.89018 0.77766 0.04305 0.0
N159 N 0.90012 0.81609 0.04941 0.0
C160 C 0.85773 0.75409 0.02563 0.0
C161 C 0.8354 0.77022 0.01458 0.0
C162 C 0.84582 0.80958 0.02101 0.0
C163 C 0.87848 0.83217 0.03851 0.0
C164 C 0.98978 0.91997 0.0014 0.0
C165 C 0.98121 0.93087 0.05704 0.0
C166 C 0.96872 0.88724 0.01904 0.0
N167 N 0.9652 0.89306 0.04659 0.0
C168 C 0.0035 0.96403 0.04026 0.0
C169 C 0.00745 0.95871 0.0122 0.0
C170 C 0.00218 0.88828 0.1209 0.0
C171 C 0.97164 0.73125 0.13507 0.0
C172 C 0.99179 0.80258 0.16169 0.0
C173 C 0.01479 0.78429 0.16632 0.0
C174 C 0.00451 0.74832 0.15295 0.0
N175 N 0.95939 0.78552 0.14425 0.0
C176 C 0.9494 0.75045 0.13092 0.0
Co177 Co 0.08947 0.13873 0.90591 0.0
Co178 Co 0.1167 0.1974 0.8491 0.0
O179 O 0.1194 0.19233 0.88959 0.0
C180 C 0.16629 0.17621 0.93712 0.0
O181 O 0.18535 0.18913 0.91354 0.0
C182 C 0.09906 0.25883 0.87081 0.0
O183 O 0.07168 0.23193 0.88722 0.0
O184 O 0.0563 0.1702 0.8505 0.0
O185 O 0.05035 0.11978 0.87551 0.0
H186 H 0.06198 0.14994 0.75362 0.0
H187 H 0.10852 0.20959 0.9398 0.0
O188 O 0.12804 0.15531 0.93782 0.0
H189 H 0.96084 0.12863 0.9411 0.0
H190 H 0.00484 0.03127 0.97579 0.0
H191 H 0.05538 0.05902 0.88044 0.0
H192 H 0.0009 0.10422 0.91693 0.0
H193 H 0.05527 0.10099 0.96164 0.0
O194 O 0.11924 0.24979 0.85452 0.0
H195 H 0.06621 0.1437 0.8041 0.0
H196 H 0.16023 0.26507 0.80927 0.0
H197 H 0.00754 0.99005 0.89423 0.0
H198 H 0.06996 0.23449 0.96525 0.0
H199 H 0.9825 0.97574 0.94195 0.0
H200 H 0.99536 0.19408 0.96562 0.0
O201 O 0.12319 0.12307 0.88412 0.0
H202 H 0.2561 0.29918 0.88033 0.0
H203 H 0.17679 0.18957 0.81443 0.0
H204 H 0.25079 0.2239 0.81309 0.0
H205 H 0.29097 0.27935 0.84608 0.0
H206 H 0.18202 0.26342 0.88135 0.0
H207 H 0.15727 0.27262 0.7588 0.0
H208 H 0.10792 0.21488 0.73062 0.0
O209 O 0.11558 0.14456 0.84266 0.0
C210 C 0.03466 0.13637 0.86198 0.0
C211 C 0.08381 0.1753 0.76563 0.0
C212 C 0.13719 0.24422 0.76857 0.0
N213 N 0.11405 0.20358 0.80949 0.0
C214 C 0.08645 0.17184 0.7942 0.0
C215 C 0.13881 0.23969 0.79712 0.0
C216 C 0.10953 0.21175 0.75276 0.0
C217 C 0.07625 0.19154 0.94034 0.0
N218 N 0.05714 0.15568 0.92666 0.0
C219 C 0.05448 0.20592 0.9546 0.0
C220 C 0.01267 0.18334 0.95471 0.0
C221 C 0.9933 0.14667 0.94087 0.0
C222 C 0.01614 0.13309 0.92708 0.0
C223 C 0.01686 0.03747 0.95507 0.0
C224 C 0.04518 0.05347 0.90159 0.0
C225 C 0.04528 0.07663 0.94696 0.0
N226 N 0.05852 0.08433 0.92027 0.0
C227 C 0.01752 0.01418 0.90912 0.0
C228 C 0.00346 0.0062 0.93604 0.0
C229 C 0.12613 0.12393 0.85776 0.0
C230 C 0.23892 0.27512 0.86582 0.0
C231 C 0.19402 0.21337 0.82906 0.0
C232 C 0.23594 0.23283 0.82812 0.0
C233 C 0.25847 0.26394 0.84662 0.0
N234 N 0.17504 0.22459 0.84791 0.0
C235 C 0.19696 0.2549 0.86622 0.0
Co236 Co 0.82527 0.94534 0.92822 0.0
Co237 Co 0.81331 0.95922 0.85917 0.0
O238 O 0.79284 0.94528 0.89693 0.0
C239 C 0.79014 0.9966 0.94918 0.0
O240 O 0.77372 0.99728 0.92551 0.0
C241 C 0.7483 0.87361 0.85595 0.0
O242 O 0.75268 0.8707 0.88256 0.0
O243 O 0.84885 0.93504 0.8638 0.0
O244 O 0.84173 0.91188 0.90676 0.0
H245 H 0.92256 0.01722 0.78751 0.0
H246 H 0.73764 0.91676 0.93119 0.0
O247 O 0.81015 0.97865 0.95172 0.0
H248 H 0.75181 0.80477 0.9673 0.0
H249 H 0.84958 0.9318 0.02878 0.0
H250 H 0.9042 0.94871 0.93464 0.0
H251 H 0.81133 0.86777 0.95265 0.0
H252 H 0.81329 0.93867 0.98938 0.0
O253 O 0.77052 0.90674 0.84367 0.0
H254 H 0.8943 0.99606 0.83413 0.0
H255 H 0.77708 0.9559 0.80346 0.0
H256 H 0.93902 0.93787 0.97366 0.0
H257 H 0.67741 0.85459 0.94601 0.0
H258 H 0.91276 0.9309 0.02116 0.0
H259 H 0.68414 0.79784 0.96412 0.0
O260 O 0.87433 0.99615 0.91412 0.0
H261 H 0.68346 0.96059 0.86537 0.0
H262 H 0.8262 0.03792 0.8384 0.0
H263 H 0.78327 0.06816 0.83269 0.0
H264 H 0.71123 0.02924 0.84594 0.0
H265 H 0.72762 0.93181 0.87118 0.0
H266 H 0.80352 0.97563 0.75629 0.0
H267 H 0.87691 0.00689 0.74802 0.0
O268 O 0.85614 0.01088 0.87333 0.0
C269 C 0.85421 0.91419 0.88213 0.0
C270 C 0.89052 0.00374 0.79079 0.0
C271 C 0.82375 0.98026 0.77329 0.0
N272 N 0.83413 0.97484 0.82176 0.0
C273 C 0.87445 0.99192 0.81727 0.0
C274 C 0.80884 0.96884 0.80009 0.0
C275 C 0.86491 0.99786 0.76866 0.0
C276 C 0.74111 0.89266 0.93951 0.0
N277 N 0.7783 0.89641 0.94136 0.0
C278 C 0.70674 0.8573 0.94767 0.0
C279 C 0.71052 0.82545 0.95776 0.0
C280 C 0.74846 0.82931 0.95953 0.0
C281 C 0.78212 0.86511 0.95111 0.0
C282 C 0.86176 0.93551 0.00825 0.0
C283 C 0.89199 0.94495 0.9552 0.0
C284 C 0.84168 0.9401 0.98575 0.0
N285 N 0.85663 0.94436 0.95951 0.0
C286 C 0.91223 0.93937 0.97724 0.0
C287 C 0.89717 0.93495 0.00392 0.0
C288 C 0.88067 0.01934 0.8932 0.0
C289 C 0.71473 0.97775 0.85934 0.0
C290 C 0.79492 0.02084 0.84432 0.0
C291 C 0.77075 0.03812 0.841 0.0
C292 C 0.73034 0.01628 0.84846 0.0
N293 N 0.77922 0.98274 0.85454 0.0
C294 C 0.73985 0.96152 0.86246 0.0
Co295 Co 0.07726 0.93092 0.91141 0.0
Co296 Co 0.0566 0.88295 0.84756 0.0
O297 O 0.07191 0.88877 0.88652 0.0
C298 C 0.04283 0.85372 0.94538 0.0
O299 O 0.04311 0.83305 0.92397 0.0
C300 C 0.13716 0.89026 0.84665 0.0
O301 O 0.15145 0.92437 0.86004 0.0
O302 O 0.09382 0.94218 0.83987 0.0
O303 O 0.09997 0.9703 0.88137 0.0
H304 H 0.02883 0.92122 0.75319 0.0
H305 H 0.11598 0.8819 0.92407 0.0
O306 O 0.05363 0.89091 0.94305 0.0
H307 H 0.22638 0.02208 0.92604 0.0
H308 H 0.10815 0.00126 0.00372 0.0
H309 H 0.08905 0.01472 0.90476 0.0
H310 H 0.1575 0.00639 0.9166 0.0
H311 H 0.08387 0.94313 0.97373 0.0
O312 O 0.10035 0.87058 0.83932 0.0
H313 H 0.04681 0.93186 0.80224 0.0
H314 H 0.04127 0.81917 0.8068 0.0
H315 H 0.11997 0.07429 0.93381 0.0
H316 H 0.18471 0.89603 0.9328 0.0
H317 H 0.12959 0.06837 0.98357 0.0
H318 H 0.24073 0.96677 0.93419 0.0
O319 O 0.02136 0.91957 0.90014 0.0
H320 H 0.01402 0.74375 0.88298 0.0
H321 H 0.96932 0.82839 0.83619 0.0
H322 H 0.92021 0.75755 0.84589 0.0
H323 H 0.94239 0.71454 0.86939 0.0
H324 H 0.06164 0.81505 0.8734 0.0
H325 H 0.02354 0.80734 0.75754 0.0
H326 H 0.01668 0.85833 0.73033 0.0
O327 O 0.01246 0.89422 0.85679 0.0
C328 C 0.10553 0.97283 0.85559 0.0
C329 C 0.03068 0.89827 0.76496 0.0
C330 C 0.02777 0.83445 0.76738 0.0
N331 N 0.04227 0.87508 0.80833 0.0
C332 C 0.04032 0.90395 0.79307 0.0
C333 C 0.03743 0.84122 0.79545 0.0
C334 C 0.02404 0.86308 0.75212 0.0
C335 C 0.13982 0.91254 0.92441 0.0
N336 N 0.13175 0.94291 0.92056 0.0
C337 C 0.1789 0.92049 0.92953 0.0
C338 C 0.21027 0.96012 0.93032 0.0
C339 C 0.20221 0.99112 0.92587 0.0
C340 C 0.16273 0.98192 0.92082 0.0
C341 C 0.10425 0.00428 0.98193 0.0
C342 C 0.093 0.01072 0.9263 0.0
C343 C 0.08919 0.97081 0.96455 0.0
N344 N 0.08433 0.9741 0.93673 0.0
C345 C 0.11034 0.04511 0.9428 0.0
C346 C 0.11589 0.04181 0.97077 0.0
C347 C 0.00061 0.90628 0.87752 0.0
C348 C 0.00391 0.76214 0.87276 0.0
C349 C 0.97927 0.81023 0.84686 0.0
C350 C 0.95127 0.76993 0.85207 0.0
C351 C 0.96374 0.7458 0.86518 0.0
N352 N 0.01866 0.82624 0.85457 0.0
C353 C 0.03099 0.80257 0.86718 0.0
Co354 Co 0.80657 0.45563 0.40698 0.0
Co355 Co 0.82973 0.46663 0.47713 0.0
O356 O 0.84358 0.48233 0.43816 0.0
C357 C 0.85334 0.54446 0.3901 0.0
O358 O 0.87559 0.55702 0.41244 0.0
C359 C 0.91624 0.48566 0.47211 0.0
O360 O 0.91608 0.49058 0.44532 0.0
O361 O 0.81076 0.40881 0.46772 0.0
O362 O 0.78595 0.40285 0.42483 0.0
H363 H 0.74754 0.37258 0.554 0.0
H364 H 0.8953 0.50737 0.39714 0.0
O365 O 0.8257 0.50801 0.38728 0.0
H366 H 0.85789 0.37611 0.35629 0.0
H367 H 0.76979 0.43767 0.30585 0.0
H368 H 0.7253 0.38217 0.39937 0.0
H369 H 0.8071 0.38671 0.37943 0.0
H370 H 0.81243 0.47084 0.34597 0.0
O371 O 0.88466 0.47526 0.4863 0.0
H372 H 0.76415 0.39473 0.50585 0.0
H373 H 0.86668 0.5029 0.53211 0.0
H374 H 0.68364 0.34564 0.35904 0.0
H375 H 0.94684 0.49852 0.37368 0.0
H376 H 0.70511 0.37423 0.31196 0.0
H377 H 0.92838 0.43234 0.35306 0.0
O378 O 0.76273 0.46144 0.42584 0.0
H379 H 0.92092 0.61656 0.46878 0.0
H380 H 0.79714 0.50921 0.51116 0.0
H381 H 0.81736 0.57968 0.52008 0.0
H382 H 0.87988 0.63415 0.49896 0.0
H383 H 0.8995 0.54565 0.46039 0.0
H384 H 0.8511 0.48204 0.58057 0.0
H385 H 0.79093 0.41646 0.59194 0.0
O386 O 0.77482 0.45816 0.47074 0.0
C387 C 0.79097 0.38792 0.44676 0.0
C388 C 0.77374 0.40134 0.54936 0.0
C389 C 0.83176 0.46273 0.56426 0.0
N390 N 0.81602 0.45065 0.51578 0.0
C391 C 0.78342 0.4141 0.52198 0.0
C392 C 0.84046 0.47446 0.53663 0.0
C393 C 0.79806 0.42594 0.57062 0.0
C394 C 0.8866 0.47899 0.38763 0.0
N395 N 0.84777 0.44823 0.38902 0.0
C396 C 0.91614 0.47389 0.37463 0.0
C397 C 0.9058 0.43675 0.36315 0.0
C398 C 0.86629 0.40522 0.36497 0.0
C399 C 0.83761 0.41148 0.37813 0.0
C400 C 0.75972 0.42526 0.3263 0.0
C401 C 0.73535 0.39451 0.37897 0.0
C402 C 0.78343 0.4445 0.34939 0.0
N403 N 0.77097 0.42946 0.37549 0.0
C404 C 0.71149 0.37368 0.35617 0.0
C405 C 0.72355 0.38956 0.32975 0.0
C406 C 0.75304 0.45975 0.45149 0.0
C407 C 0.89372 0.59314 0.47825 0.0
C408 C 0.8243 0.53241 0.50184 0.0
C409 C 0.83567 0.57245 0.50701 0.0
C410 C 0.87069 0.60298 0.49515 0.0
N411 N 0.84737 0.52279 0.48563 0.0
C412 C 0.88134 0.55275 0.47354 0.0
Co413 Co 0.52803 0.34561 0.42165 0.0
Co414 Co 0.50632 0.34244 0.49125 0.0
O415 O 0.49238 0.33977 0.45192 0.0
C416 C 0.4651 0.28356 0.37873 0.0
O417 O 0.4315 0.24879 0.37858 0.0
C418 C 0.50041 0.41464 0.48275 0.0
O419 O 0.5244 0.42363 0.46146 0.0
O420 O 0.56387 0.38617 0.48562 0.0
O421 O 0.57487 0.39087 0.44023 0.0
H422 H 0.58535 0.34173 0.57415 0.0
H423 H 0.45141 0.34145 0.40793 0.0
O424 O 0.48123 0.29805 0.40239 0.0
H425 H 0.55406 0.48002 0.3841 0.0
H426 H 0.60668 0.41959 0.34007 0.0
H427 H 0.60045 0.33797 0.41971 0.0
H428 H 0.57363 0.43272 0.40221 0.0
H429 H 0.54266 0.3758 0.36163 0.0
O430 O 0.48998 0.38323 0.49702 0.0
H431 H 0.57015 0.33965 0.52449 0.0
H432 H 0.46718 0.34887 0.5425 0.0
H433 H 0.66329 0.37838 0.39748 0.0
H434 H 0.43041 0.38685 0.3879 0.0
H435 H 0.66891 0.4215 0.35781 0.0
H436 H 0.48188 0.45692 0.37604 0.0
O437 O 0.53938 0.30513 0.44029 0.0
H438 H 0.35587 0.27386 0.48194 0.0
H439 H 0.46918 0.26433 0.52126 0.0
H440 H 0.39982 0.20922 0.52906 0.0
H441 H 0.34255 0.21385 0.50943 0.0
H442 H 0.42571 0.32795 0.47443 0.0
H443 H 0.48146 0.3516 0.59239 0.0
H444 H 0.54086 0.34789 0.60854 0.0
O445 O 0.52282 0.30217 0.48544 0.0
C446 C 0.58669 0.40232 0.46475 0.0
C447 C 0.55936 0.34335 0.56739 0.0
C448 C 0.50113 0.349 0.57761 0.0
N449 N 0.51796 0.34426 0.5305 0.0
C450 C 0.55055 0.34203 0.53926 0.0
C451 C 0.49333 0.34765 0.5493 0.0
C452 C 0.53442 0.34686 0.58667 0.0
C453 C 0.47417 0.3712 0.40164 0.0
N454 N 0.51393 0.38353 0.40523 0.0
C455 C 0.46202 0.39711 0.3908 0.0
C456 C 0.49086 0.43648 0.38435 0.0
C457 C 0.53129 0.44946 0.38895 0.0
C458 C 0.54224 0.42262 0.3997 0.0
C459 C 0.60522 0.39995 0.35658 0.0
C460 C 0.59996 0.35281 0.401 0.0
C461 C 0.56853 0.37487 0.36922 0.0
N462 N 0.5665 0.35397 0.39262 0.0
C463 C 0.6369 0.3768 0.38855 0.0
C464 C 0.63982 0.40125 0.36658 0.0
C465 C 0.53564 0.29122 0.46494 0.0
C466 C 0.38054 0.27154 0.49069 0.0
C467 C 0.44444 0.26652 0.51255 0.0
C468 C 0.40522 0.23524 0.51709 0.0
C469 C 0.3731 0.23786 0.50609 0.0
N470 N 0.4515 0.29957 0.49756 0.0
C471 C 0.42016 0.30221 0.48658 0.0
Co472 Co 0.59937 0.14491 0.4244 0.0
Co473 Co 0.64517 0.15094 0.48712 0.0
O474 O 0.62115 0.12413 0.45193 0.0
C475 C 0.65956 0.14283 0.3851 0.0
O476 O 0.68984 0.16668 0.40105 0.0
C477 C 0.56751 0.08311 0.50357 0.0
O478 O 0.55453 0.09293 0.48164 0.0
O479 O 0.60942 0.17504 0.49165 0.0
O480 O 0.57322 0.16004 0.45308 0.0
H481 H 0.71275 0.26832 0.55226 0.0
H482 H 0.5868 0.06288 0.41879 0.0
O483 O 0.62343 0.12977 0.39297 0.0
H484 H 0.45083 0.04382 0.42929 0.0
H485 H 0.50879 0.13178 0.34501 0.0
H486 H 0.59484 0.21908 0.4197 0.0
H487 H 0.51002 0.11186 0.42688 0.0
H488 H 0.55206 0.1134 0.37156 0.0
O489 O 0.6052 0.10206 0.50848 0.0
H490 H 0.67953 0.23402 0.5089 0.0
H491 H 0.66779 0.12485 0.53876 0.0
H492 H 0.55293 0.23871 0.39414 0.0
H493 H 0.52832 0.99422 0.42055 0.0
H494 H 0.50701 0.19365 0.35768 0.0
H495 H 0.45978 0.98435 0.42618 0.0
O496 O 0.64952 0.20039 0.42763 0.0
H497 H 0.67803 0.04146 0.47144 0.0
H498 H 0.73389 0.18599 0.4896 0.0
H499 H 0.77987 0.15924 0.48421 0.0
H500 H 0.75195 0.08645 0.47516 0.0
H501 H 0.63317 0.0696 0.47662 0.0
H502 H 0.70046 0.15781 0.58264 0.0
H503 H 0.72327 0.23012 0.58958 0.0
O504 O 0.68315 0.19937 0.46608 0.0
C505 C 0.58155 0.17476 0.47718 0.0
C506 C 0.70276 0.23675 0.54956 0.0
C507 C 0.69576 0.17471 0.56663 0.0
N508 N 0.67101 0.17725 0.52151 0.0
C509 C 0.6839 0.21714 0.52504 0.0
C510 C 0.67696 0.1561 0.54185 0.0
C511 C 0.70864 0.2153 0.57049 0.0
C512 C 0.557 0.05886 0.4207 0.0
N513 N 0.55193 0.09148 0.42272 0.0
C514 C 0.52402 0.01989 0.42187 0.0
C515 C 0.48558 0.01437 0.42507 0.0
C516 C 0.48055 0.04771 0.42685 0.0
C517 C 0.51422 0.08622 0.42562 0.0
C518 C 0.528 0.15133 0.36128 0.0
C519 C 0.57706 0.20035 0.40303 0.0
C520 C 0.55275 0.1412 0.37626 0.0
N521 N 0.5758 0.16493 0.39761 0.0
C522 C 0.55279 0.21142 0.38863 0.0
C523 C 0.52728 0.18618 0.36813 0.0
C524 C 0.67963 0.2167 0.44462 0.0
C525 C 0.69054 0.07321 0.47546 0.0
C526 C 0.72154 0.15432 0.48553 0.0
C527 C 0.74771 0.13933 0.48258 0.0
C528 C 0.73202 0.09848 0.47751 0.0
N529 N 0.6809 0.12932 0.48356 0.0
C530 C 0.66529 0.08927 0.47852 0.0
Co531 Co 0.77192 0.51704 0.24007 0.0
Co532 Co 0.82303 0.52651 0.18028 0.0
O533 O 0.81542 0.5499 0.21463 0.0
C534 C 0.8453 0.55864 0.27746 0.0
O535 O 0.86996 0.57681 0.25681 0.0
C536 C 0.79905 0.58637 0.16327 0.0
O537 O 0.78258 0.58122 0.18768 0.0
O538 O 0.76401 0.48401 0.17648 0.0
O539 O 0.73383 0.49955 0.20876 0.0
H540 H 0.81217 0.41304 0.12228 0.0
H541 H 0.82366 0.60569 0.24815 0.0
O542 O 0.80802 0.53449 0.27329 0.0
H543 H 0.68457 0.57968 0.24774 0.0
H544 H 0.68875 0.47635 0.32747 0.0
H545 H 0.70453 0.43529 0.23451 0.0
H546 H 0.69816 0.52402 0.24213 0.0
H547 H 0.74451 0.52359 0.29754 0.0
O548 O 0.81433 0.56485 0.15626 0.0
H549 H 0.8007 0.44378 0.16317 0.0
H550 H 0.86609 0.55911 0.12636 0.0
H551 H 0.64894 0.38752 0.26316 0.0
H552 H 0.81141 0.66207 0.2541 0.0
H553 H 0.64135 0.40661 0.3097 0.0
H554 H 0.7414 0.64934 0.25389 0.0
O555 O 0.78238 0.4712 0.23453 0.0
H556 H 0.94253 0.66438 0.19629 0.0
H557 H 0.89812 0.5225 0.17608 0.0
H558 H 0.97055 0.57149 0.18007 0.0
H559 H 0.9932 0.64309 0.19 0.0
H560 H 0.87047 0.61439 0.19242 0.0
H561 H 0.87766 0.52964 0.08479 0.0
H562 H 0.85076 0.45599 0.08255 0.0
O563 O 0.83142 0.48893 0.2035 0.0
C564 C 0.73195 0.47904 0.18783 0.0
C565 C 0.82397 0.44517 0.12293 0.0
C566 C 0.86057 0.51055 0.10188 0.0
N567 N 0.83225 0.50339 0.1472 0.0
C568 C 0.81765 0.46286 0.14613 0.0
C569 C 0.8536 0.52714 0.12544 0.0
C570 C 0.84557 0.46926 0.10066 0.0
C571 C 0.79311 0.59958 0.24864 0.0
N572 N 0.76171 0.56123 0.24563 0.0
C573 C 0.78635 0.63179 0.25175 0.0
C574 C 0.74708 0.62465 0.25157 0.0
C575 C 0.7152 0.58558 0.24814 0.0
C576 C 0.72312 0.55413 0.24505 0.0
C577 C 0.69208 0.46716 0.30698 0.0
C578 C 0.70085 0.4449 0.25452 0.0
C579 C 0.72361 0.49384 0.29 0.0
N580 N 0.72769 0.48235 0.26408 0.0
C581 C 0.66946 0.41743 0.27083 0.0
C582 C 0.66527 0.42857 0.29721 0.0
C583 C 0.80816 0.46508 0.22197 0.0
C584 C 0.93305 0.63332 0.19176 0.0
C585 C 0.9077 0.55361 0.18035 0.0
C586 C 0.94877 0.58121 0.18263 0.0
C587 C 0.96146 0.62136 0.18825 0.0
N588 N 0.88 0.56568 0.1833 0.0
C589 C 0.89223 0.60485 0.18944 0.0
Co590 Co 0.51491 0.25783 0.22667 0.0
Co591 Co 0.50324 0.2893 0.16244 0.0
O592 O 0.48623 0.27383 0.20112 0.0
C593 C 0.50579 0.31801 0.26433 0.0
O594 O 0.50074 0.33907 0.24501 0.0
C595 C 0.42526 0.21197 0.15927 0.0
O596 O 0.43307 0.20457 0.18421 0.0
O597 O 0.52805 0.25422 0.15842 0.0
O598 O 0.51738 0.22244 0.19826 0.0
H599 H 0.6037 0.34141 0.08499 0.0
H600 H 0.43734 0.25013 0.24353 0.0
O601 O 0.51205 0.28962 0.25811 0.0
H602 H 0.41491 0.11235 0.24761 0.0
H603 H 0.5278 0.1956 0.31338 0.0
H604 H 0.58356 0.24356 0.22075 0.0
H605 H 0.4811 0.16902 0.23464 0.0
H606 H 0.50558 0.23415 0.28606 0.0
O607 O 0.45068 0.24436 0.14719 0.0
H608 H 0.58011 0.31867 0.13244 0.0
H609 H 0.46435 0.29883 0.1116 0.0
H610 H 0.60363 0.20129 0.24711 0.0
H611 H 0.37098 0.19447 0.25732 0.0
H612 H 0.57529 0.17715 0.29348 0.0
H613 H 0.35926 0.12489 0.25916 0.0
O614 O 0.56874 0.30605 0.21452 0.0
H615 H 0.39739 0.32399 0.1876 0.0
H616 H 0.53328 0.37528 0.14936 0.0
H617 H 0.50612 0.42103 0.1539 0.0
H618 H 0.43761 0.39537 0.17301 0.0
H619 H 0.42586 0.27943 0.18293 0.0
H620 H 0.48643 0.32093 0.0638 0.0
H621 H 0.55665 0.34255 0.05021 0.0
O622 O 0.55491 0.33257 0.177 0.0
C623 C 0.52882 0.22745 0.17345 0.0
C624 C 0.573 0.33202 0.09062 0.0
C625 C 0.50717 0.32043 0.07872 0.0
N626 N 0.52077 0.30711 0.12481 0.0
C627 C 0.55949 0.31917 0.11751 0.0
C628 C 0.49473 0.30768 0.1058 0.0
C629 C 0.54659 0.33262 0.07113 0.0
C630 C 0.43281 0.22011 0.24478 0.0
N631 N 0.46329 0.21301 0.23829 0.0
C632 C 0.39501 0.18862 0.25239 0.0
C633 C 0.38843 0.14959 0.25337 0.0
C634 C 0.41962 0.14253 0.24684 0.0
C635 C 0.45703 0.17476 0.23932 0.0
C636 C 0.54066 0.20648 0.29337 0.0
C637 C 0.5712 0.23296 0.24108 0.0
C638 C 0.52863 0.22894 0.27777 0.0
N639 N 0.54261 0.2404 0.25146 0.0
C640 C 0.58285 0.20933 0.25586 0.0
C641 C 0.56723 0.19595 0.28208 0.0
C642 C 0.57846 0.3338 0.19605 0.0
C643 C 0.42716 0.33546 0.17906 0.0
C644 C 0.50339 0.36387 0.15761 0.0
C645 C 0.48819 0.38992 0.16016 0.0
C646 C 0.44976 0.37551 0.1709 0.0
N647 N 0.48084 0.32449 0.16532 0.0
C648 C 0.44337 0.3103 0.17623 0.0
Co649 Co 0.71226 0.23507 0.24313 0.0
Co650 Co 0.74532 0.2243 0.17948 0.0
O651 O 0.73662 0.21232 0.21926 0.0
C652 C 0.68704 0.15331 0.26944 0.0
O653 O 0.70415 0.14198 0.25087 0.0
C654 C 0.82467 0.23877 0.19935 0.0
O655 O 0.82416 0.26061 0.21999 0.0
O656 O 0.77506 0.28367 0.18698 0.0
O657 O 0.73833 0.28556 0.22214 0.0
H658 H 0.76143 0.30178 0.09174 0.0
H659 H 0.76446 0.20502 0.26729 0.0
O660 O 0.68531 0.18532 0.2663 0.0
H661 H 0.82252 0.34421 0.30029 0.0
H662 H 0.66723 0.26202 0.33454 0.0
H663 H 0.6717 0.28275 0.23388 0.0
H664 H 0.76346 0.31477 0.26962 0.0
H665 H 0.69813 0.23389 0.30404 0.0
O666 O 0.79626 0.22331 0.18183 0.0
H667 H 0.74913 0.28741 0.14142 0.0
H668 H 0.76872 0.18871 0.13347 0.0
H669 H 0.64258 0.31352 0.26379 0.0
H670 H 0.82277 0.23283 0.2984 0.0
H671 H 0.63937 0.30236 0.31448 0.0
H672 H 0.85242 0.30308 0.31518 0.0
O673 O 0.66462 0.21378 0.21752 0.0
H674 H 0.71389 0.08193 0.19374 0.0
H675 H 0.67772 0.16974 0.14193 0.0
H676 H 0.64026 0.09672 0.13345 0.0
H677 H 0.65849 0.05229 0.15927 0.0
H678 H 0.74988 0.15495 0.20207 0.0
H679 H 0.78192 0.20241 0.08372 0.0
H680 H 0.77784 0.25901 0.06241 0.0
O681 O 0.69334 0.22432 0.17561 0.0
C682 C 0.76474 0.30273 0.20347 0.0
C683 C 0.76241 0.27646 0.10064 0.0
C684 C 0.77399 0.22077 0.09615 0.0
N685 N 0.75557 0.23567 0.14018 0.0
C686 C 0.75479 0.26776 0.12876 0.0
C687 C 0.76616 0.21299 0.12435 0.0
C688 C 0.77177 0.25257 0.08422 0.0
C689 C 0.77619 0.23503 0.27495 0.0
N690 N 0.75934 0.25746 0.26723 0.0
C691 C 0.80971 0.25092 0.29237 0.0
C692 C 0.82642 0.29036 0.30169 0.0
C693 C 0.80967 0.31344 0.29334 0.0
C694 C 0.77615 0.2965 0.27593 0.0
C695 C 0.66851 0.26715 0.31247 0.0
C696 C 0.67216 0.27944 0.25593 0.0
C697 C 0.68574 0.25104 0.295 0.0
N698 N 0.68752 0.25735 0.26704 0.0
C699 C 0.65509 0.29641 0.2728 0.0
C700 C 0.65305 0.28992 0.30122 0.0
C701 C 0.66336 0.21644 0.19107 0.0
C702 C 0.70571 0.10097 0.1823 0.0
C703 C 0.68553 0.15061 0.15355 0.0
C704 C 0.66434 0.10927 0.14852 0.0
C705 C 0.6746 0.08436 0.16299 0.0
N706 N 0.71616 0.16673 0.17245 0.0
C707 C 0.72615 0.14241 0.18684 0.0
Co708 Co 0.48959 0.74777 0.76832 0.0
Co709 Co 0.53765 0.78587 0.82889 0.0
O710 O 0.5387 0.78148 0.7886 0.0
C711 C 0.52576 0.81707 0.72728 0.0
O712 O 0.53062 0.84411 0.74577 0.0
C713 C 0.59961 0.76277 0.82016 0.0
O714 O 0.57403 0.73168 0.8055 0.0
O715 O 0.5084 0.72569 0.83363 0.0
O716 O 0.4644 0.71259 0.79997 0.0
H717 H 0.48001 0.75225 0.92502 0.0
H718 H 0.56679 0.76534 0.74311 0.0
O719 O 0.51199 0.78056 0.73412 0.0
H720 H 0.48996 0.61796 0.7531 0.0
H721 H 0.4116 0.64725 0.69655 0.0
H722 H 0.40277 0.71295 0.78128 0.0
H723 H 0.46073 0.65914 0.76756 0.0
H724 H 0.46978 0.70845 0.71305 0.0
O725 O 0.58971 0.78682 0.83078 0.0
H726 H 0.47838 0.7465 0.87424 0.0
H727 H 0.6013 0.83617 0.86961 0.0
H728 H 0.34191 0.65323 0.76388 0.0
H729 H 0.59693 0.72523 0.72779 0.0
H730 H 0.34649 0.61755 0.723 0.0
H731 H 0.55851 0.65096 0.73286 0.0
O732 O 0.46721 0.78156 0.78214 0.0
H733 H 0.64565 0.91824 0.79105 0.0
H734 H 0.52705 0.85199 0.85176 0.0
H735 H 0.5629 0.92569 0.84673 0.0
H736 H 0.62295 0.95934 0.81641 0.0
H737 H 0.60858 0.84452 0.79647 0.0
H738 H 0.6047 0.84292 0.92034 0.0
H739 H 0.54366 0.80093 0.94844 0.0
O740 O 0.48468 0.78545 0.82696 0.0
C741 C 0.47627 0.7018 0.82075 0.0
C742 C 0.50675 0.77094 0.91302 0.0
C743 C 0.57669 0.82181 0.9104 0.0
N744 N 0.53922 0.79143 0.86887 0.0
C745 C 0.50583 0.76782 0.88423 0.0
C746 C 0.57455 0.81785 0.88165 0.0
C747 C 0.54246 0.79822 0.92615 0.0
C748 C 0.54979 0.73305 0.74527 0.0
N749 N 0.51217 0.71476 0.75654 0.0
C750 C 0.56706 0.71048 0.73661 0.0
C751 C 0.54553 0.66883 0.73951 0.0
C752 C 0.50713 0.65031 0.75092 0.0
C753 C 0.4909 0.67387 0.7594 0.0
C754 C 0.40845 0.6618 0.71464 0.0
C755 C 0.40433 0.69941 0.76211 0.0
C756 C 0.44167 0.69687 0.72406 0.0
N757 N 0.44013 0.71342 0.74862 0.0
C758 C 0.37 0.66499 0.75282 0.0
C759 C 0.37254 0.64523 0.72952 0.0
C760 C 0.46386 0.78921 0.80759 0.0
C761 C 0.61967 0.90393 0.80444 0.0
C762 C 0.55288 0.86633 0.83831 0.0
C763 C 0.57317 0.90811 0.83563 0.0
C764 C 0.60686 0.92697 0.81863 0.0
N765 N 0.56588 0.84393 0.82457 0.0
C766 C 0.59863 0.8622 0.80764 0.0
Co767 Co 0.25516 0.72449 0.76097 0.0
Co768 Co 0.22058 0.72375 0.82736 0.0
O769 O 0.21985 0.73045 0.78702 0.0
C770 C 0.18324 0.70851 0.72807 0.0
O771 O 0.17817 0.73154 0.74558 0.0
C772 C 0.20535 0.79303 0.8169 0.0
O773 O 0.20547 0.78839 0.79009 0.0
O774 O 0.28109 0.76114 0.82893 0.0
O775 O 0.30077 0.75062 0.78763 0.0
H776 H 0.26164 0.68647 0.91682 0.0
H777 H 0.2773 0.80585 0.7825 0.0
O778 O 0.21004 0.69864 0.73267 0.0
H779 H 0.28846 0.82011 0.68115 0.0
H780 H 0.2982 0.6486 0.69915 0.0
H781 H 0.33986 0.77767 0.74481 0.0
H782 H 0.26596 0.75453 0.70309 0.0
H783 H 0.24861 0.6588 0.72514 0.0
O784 O 0.21183 0.77103 0.83359 0.0
H785 H 0.26201 0.69624 0.86671 0.0
H786 H 0.17682 0.73445 0.87496 0.0
H787 H 0.38918 0.7691 0.71866 0.0
H788 H 0.30059 0.8725 0.76127 0.0
H789 H 0.36855 0.70405 0.69553 0.0
H790 H 0.30595 0.87976 0.71035 0.0
O791 O 0.23983 0.67072 0.7774 0.0
H792 H 0.07817 0.66983 0.79309 0.0
H793 H 0.16624 0.64533 0.8542 0.0
H794 H 0.09413 0.59564 0.85207 0.0
H795 H 0.04938 0.60766 0.8214 0.0
H796 H 0.15013 0.71884 0.79606 0.0
H797 H 0.17577 0.72583 0.9252 0.0
H798 H 0.21837 0.70152 0.94666 0.0
O799 O 0.22864 0.67675 0.8223 0.0
C800 C 0.30857 0.76519 0.81197 0.0
C801 C 0.24317 0.69742 0.90781 0.0
C802 C 0.19514 0.7196 0.9125 0.0
N803 N 0.22044 0.71709 0.86751 0.0
C804 C 0.24335 0.70309 0.87927 0.0
C805 C 0.19621 0.72491 0.88388 0.0
C806 C 0.21892 0.70586 0.92452 0.0
C807 C 0.27951 0.80885 0.76032 0.0
N808 N 0.27047 0.77634 0.74423 0.0
C809 C 0.29256 0.84656 0.74843 0.0
C810 C 0.29584 0.85073 0.7198 0.0
C811 C 0.28614 0.81735 0.70343 0.0
C812 C 0.27331 0.78022 0.71604 0.0
C813 C 0.30709 0.67714 0.70865 0.0
C814 C 0.33033 0.74931 0.73466 0.0
C815 C 0.27937 0.68302 0.72343 0.0
N816 N 0.29137 0.71865 0.73646 0.0
C817 C 0.35858 0.74458 0.71993 0.0
C818 C 0.34682 0.7082 0.70689 0.0
C819 C 0.23312 0.65779 0.80231 0.0
C820 C 0.09725 0.66444 0.8068 0.0
C821 C 0.14707 0.65145 0.84119 0.0
C822 C 0.10618 0.62288 0.83991 0.0
C823 C 0.08112 0.62957 0.82265 0.0
N824 N 0.16272 0.68617 0.82606 0.0
C825 C 0.13831 0.69231 0.80861 0.0
Co826 Co 0.27333 0.48956 0.76994 0.0
Co827 Co 0.29328 0.47923 0.83798 0.0
O828 O 0.27748 0.45792 0.80013 0.0
C829 C 0.31929 0.45371 0.73996 0.0
O830 O 0.31765 0.42915 0.75944 0.0
C831 C 0.20889 0.41248 0.84303 0.0
O832 O 0.20391 0.418 0.81691 0.0
O833 O 0.26771 0.51401 0.83526 0.0
O834 O 0.23993 0.50296 0.79358 0.0
H835 H 0.35725 0.59064 0.9078 0.0
H836 H 0.24577 0.4018 0.76509 0.0
O837 O 0.30603 0.47763 0.74361 0.0
H838 H 0.12975 0.4143 0.73645 0.0
H839 H 0.24647 0.51183 0.67181 0.0
H840 H 0.27171 0.56618 0.7666 0.0
H841 H 0.19265 0.47387 0.75119 0.0
H842 H 0.26242 0.47863 0.70882 0.0
O843 O 0.24245 0.43524 0.85468 0.0
H844 H 0.33372 0.56132 0.86161 0.0
H845 H 0.29169 0.44431 0.8938 0.0
H846 H 0.25104 0.59727 0.7308 0.0
H847 H 0.1842 0.34192 0.74956 0.0
H848 H 0.23776 0.56936 0.68299 0.0
H849 H 0.12523 0.34761 0.73526 0.0
O850 O 0.32463 0.53949 0.78285 0.0
H851 H 0.30039 0.35297 0.82686 0.0
H852 H 0.37346 0.49443 0.85722 0.0
H853 H 0.40661 0.45384 0.86026 0.0
H854 H 0.36991 0.38248 0.84518 0.0
H855 H 0.26844 0.39462 0.82412 0.0
H856 H 0.31419 0.47219 0.94046 0.0
H857 H 0.34744 0.54596 0.94773 0.0
O858 O 0.3432 0.52266 0.82264 0.0
C859 C 0.24484 0.51752 0.81769 0.0
C860 C 0.3428 0.55844 0.90494 0.0
C861 C 0.31852 0.49198 0.92326 0.0
N862 N 0.3111 0.50102 0.8749 0.0
C863 C 0.32949 0.54164 0.87877 0.0
C864 C 0.30555 0.47627 0.89678 0.0
C865 C 0.33724 0.53336 0.92732 0.0
C866 C 0.22118 0.40515 0.7579 0.0
N867 N 0.22397 0.44196 0.75781 0.0
C868 C 0.18588 0.37081 0.7496 0.0
C869 C 0.15282 0.37403 0.74164 0.0
C870 C 0.15536 0.41141 0.74228 0.0
C871 C 0.19123 0.44513 0.75061 0.0
C872 C 0.25219 0.52404 0.69255 0.0
C873 C 0.26629 0.55414 0.74593 0.0
C874 C 0.2621 0.50587 0.71361 0.0
N875 N 0.26816 0.52042 0.7401 0.0
C876 C 0.25498 0.57219 0.72559 0.0
C877 C 0.24768 0.55676 0.69882 0.0
C878 C 0.34957 0.54673 0.80287 0.0
C879 C 0.31656 0.38391 0.83375 0.0
C880 C 0.3572 0.46333 0.85077 0.0
C881 C 0.37616 0.44052 0.85248 0.0
C882 C 0.35558 0.4005 0.84398 0.0
N883 N 0.31865 0.44665 0.84114 0.0
C884 C 0.29859 0.40764 0.83231 0.0
Co885 Co 0.43942 0.81176 0.5795 0.0
Co886 Co 0.46979 0.84325 0.51321 0.0
O887 O 0.4757 0.85167 0.55347 0.0
C888 C 0.5171 0.83519 0.61035 0.0
O889 O 0.53619 0.83294 0.58861 0.0
C890 C 0.47038 0.9181 0.52382 0.0
O891 O 0.43958 0.89715 0.54011 0.0
O892 O 0.41068 0.82668 0.51377 0.0
O893 O 0.39479 0.79209 0.55302 0.0
H894 H 0.40269 0.7778 0.42318 0.0
H895 H 0.48543 0.89449 0.60247 0.0
O896 O 0.48183 0.82983 0.60833 0.0
H897 H 0.34391 0.86121 0.60359 0.0
H898 H 0.35984 0.76667 0.66643 0.0
H899 H 0.38819 0.72575 0.5777 0.0
H900 H 0.36189 0.81171 0.5875 0.0
H901 H 0.41694 0.81291 0.63862 0.0
O902 O 0.48548 0.90105 0.50967 0.0
H903 H 0.40813 0.78501 0.47377 0.0
H904 H 0.52087 0.89216 0.46641 0.0
H905 H 0.30208 0.63291 0.58452 0.0
H906 H 0.46868 0.94481 0.61893 0.0
H907 H 0.31528 0.70065 0.65171 0.0
H908 H 0.39746 0.92841 0.61948 0.0
O909 O 0.45428 0.77298 0.56329 0.0
H910 H 0.61753 0.92712 0.53557 0.0
H911 H 0.514 0.80711 0.48669 0.0
H912 H 0.58451 0.82313 0.48537 0.0
H913 H 0.63695 0.88361 0.50986 0.0
H914 H 0.5466 0.90957 0.53653 0.0
H915 H 0.51637 0.88668 0.4156 0.0
H916 H 0.45713 0.82892 0.39364 0.0
O917 O 0.45504 0.78523 0.51749 0.0
C918 C 0.38464 0.80092 0.53022 0.0
C919 C 0.42902 0.8027 0.43249 0.0
C920 C 0.49274 0.86385 0.42824 0.0
N921 N 0.46567 0.83779 0.4732 0.0
C922 C 0.43252 0.80657 0.46123 0.0
C923 C 0.49518 0.8667 0.45704 0.0
C924 C 0.45949 0.83147 0.41593 0.0
C925 C 0.45439 0.88701 0.6026 0.0
N926 N 0.42489 0.85027 0.59353 0.0
C927 C 0.44507 0.91568 0.61198 0.0
C928 C 0.40512 0.90649 0.61225 0.0
C929 C 0.37509 0.86884 0.60328 0.0
C930 C 0.38555 0.84098 0.59395 0.0
C931 C 0.36605 0.75603 0.64746 0.0
C932 C 0.38122 0.73221 0.59785 0.0
C933 C 0.398 0.78247 0.63139 0.0
N934 N 0.40318 0.77131 0.6059 0.0
C935 C 0.34724 0.70097 0.61323 0.0
C936 C 0.34042 0.71696 0.63833 0.0
C937 C 0.45379 0.76308 0.53779 0.0
C938 C 0.59498 0.90069 0.5248 0.0
C939 C 0.5365 0.83332 0.49762 0.0
C940 C 0.57646 0.84232 0.49668 0.0
C941 C 0.60585 0.87626 0.5104 0.0
N942 N 0.526 0.85745 0.51178 0.0
C943 C 0.55471 0.8907 0.52527 0.0
Co944 Co 0.17013 0.63024 0.58279 0.0
Co945 Co 0.1404 0.63506 0.51552 0.0
O946 O 0.12976 0.6253 0.55598 0.0
C947 C 0.12791 0.66563 0.6179 0.0
O948 O 0.09813 0.65828 0.60111 0.0
C949 C 0.07226 0.55097 0.51904 0.0
O950 O 0.08947 0.54426 0.54015 0.0
O951 O 0.1694 0.60309 0.51358 0.0
O952 O 0.18811 0.60309 0.5573 0.0
H953 H 0.22314 0.6816 0.42832 0.0
H954 H 0.08325 0.58783 0.59763 0.0
O955 O 0.15493 0.65743 0.61148 0.0
H956 H 0.12842 0.4913 0.61774 0.0
H957 H 0.22367 0.61835 0.67409 0.0
H958 H 0.252 0.65112 0.57605 0.0
H959 H 0.17549 0.55806 0.59881 0.0
H960 H 0.17467 0.62124 0.64402 0.0
O961 O 0.08839 0.58522 0.50754 0.0
H962 H 0.21225 0.67067 0.47833 0.0
H963 H 0.08664 0.62151 0.46711 0.0
H964 H 0.34684 0.66778 0.58345 0.0
H965 H 0.03532 0.52178 0.61724 0.0
H966 H 0.28286 0.62458 0.65615 0.0
H967 H 0.05779 0.47282 0.62739 0.0
O968 O 0.20864 0.68378 0.56682 0.0
H969 H 0.02853 0.65921 0.54358 0.0
H970 H 0.15477 0.71248 0.49106 0.0
H971 H 0.11976 0.75135 0.49286 0.0
H972 H 0.05603 0.72464 0.5192 0.0
H973 H 0.06497 0.62182 0.54158 0.0
H974 H 0.09621 0.63176 0.41691 0.0
H975 H 0.16484 0.66201 0.39711 0.0
O976 O 0.19294 0.6861 0.52243 0.0
C977 C 0.1867 0.59351 0.5323 0.0
C978 C 0.19302 0.66796 0.43665 0.0
C979 C 0.12182 0.63999 0.43025 0.0
N980 N 0.14876 0.64422 0.47584 0.0
C981 C 0.18663 0.66139 0.46506 0.0
C982 C 0.11658 0.63389 0.45876 0.0
C983 C 0.16032 0.65703 0.41916 0.0
C984 C 0.09359 0.56733 0.60274 0.0
N985 N 0.13256 0.57768 0.59804 0.0
C986 C 0.06616 0.52966 0.61352 0.0
C987 C 0.07874 0.50216 0.61912 0.0
C988 C 0.11834 0.51251 0.61373 0.0
C989 C 0.14489 0.55049 0.60302 0.0
C990 C 0.23113 0.62634 0.65259 0.0
C991 C 0.2482 0.64577 0.59804 0.0
C992 C 0.20358 0.62849 0.63566 0.0
N993 N 0.21146 0.63579 0.60837 0.0
C994 C 0.28128 0.64828 0.61427 0.0
C995 C 0.26712 0.63208 0.64159 0.0
C996 C 0.21565 0.70179 0.54344 0.0
C997 C 0.0564 0.67132 0.53216 0.0
C998 C 0.12758 0.70112 0.50302 0.0
C999 C 0.10763 0.72305 0.50375 0.0
C1000 C 0.07184 0.708 0.51849 0.0
N1001 N 0.11244 0.66532 0.51664 0.0
C1002 C 0.0772 0.65027 0.53097 0.0
Co1003 Co 0.36095 0.54913 0.58734 0.0
Co1004 Co 0.35568 0.51594 0.52077 0.0
O1005 O 0.36356 0.51209 0.56085 0.0
C1006 C 0.34801 0.48082 0.62416 0.0
O1007 O 0.36973 0.47243 0.60761 0.0
C1008 C 0.40822 0.47866 0.5264 0.0
O1009 O 0.39805 0.4679 0.5521 0.0
O1010 O 0.40237 0.57224 0.5211 0.0
O1011 O 0.38834 0.59459 0.5601 0.0
H1012 H 0.33612 0.57832 0.4346 0.0
H1013 H 0.4252 0.52642 0.57798 0.0
O1014 O 0.3366 0.50547 0.61665 0.0
H1015 H 0.48878 0.64014 0.64184 0.0
H1016 H 0.35253 0.60712 0.67846 0.0
H1017 H 0.33837 0.6072 0.57862 0.0
H1018 H 0.42386 0.62069 0.62199 0.0
H1019 H 0.35939 0.55894 0.65019 0.0
O1020 O 0.39362 0.49619 0.51227 0.0
H1021 H 0.34406 0.5725 0.48447 0.0
H1022 H 0.35264 0.46794 0.47115 0.0
H1023 H 0.31219 0.67787 0.58299 0.0
H1024 H 0.49211 0.54754 0.59511 0.0
H1025 H 0.34927 0.6623 0.65777 0.0
H1026 H 0.52437 0.604 0.62844 0.0
O1027 O 0.30587 0.53314 0.57214 0.0
H1028 H 0.2699 0.37173 0.5533 0.0
H1029 H 0.27676 0.47671 0.4916 0.0
H1030 H 0.21674 0.40973 0.49099 0.0
H1031 H 0.21301 0.35626 0.52171 0.0
H1032 H 0.32882 0.43891 0.5536 0.0
H1033 H 0.3456 0.47318 0.42106 0.0
H1034 H 0.33709 0.5286 0.40238 0.0
O1035 O 0.31849 0.53679 0.52695 0.0
C1036 C 0.40817 0.60063 0.53763 0.0
C1037 C 0.34003 0.55414 0.44245 0.0
C1038 C 0.34552 0.49528 0.43485 0.0
N1039 N 0.3498 0.52042 0.481 0.0
C1040 C 0.34455 0.55063 0.4708 0.0
C1041 C 0.34999 0.49275 0.46332 0.0
C1042 C 0.34062 0.52629 0.42439 0.0
C1043 C 0.43739 0.55002 0.59267 0.0
N1044 N 0.41602 0.56752 0.60171 0.0
C1045 C 0.47624 0.56245 0.6022 0.0
C1046 C 0.49435 0.59408 0.62082 0.0
C1047 C 0.47417 0.61395 0.62861 0.0
C1048 C 0.43576 0.60122 0.61806 0.0
C1049 C 0.35123 0.60905 0.65645 0.0
C1050 C 0.34166 0.60842 0.6007 0.0
C1051 C 0.35366 0.58078 0.64034 0.0
N1052 N 0.35313 0.58374 0.61242 0.0
C1053 C 0.33427 0.6363 0.6158 0.0
C1054 C 0.34726 0.63958 0.64398 0.0
C1055 C 0.29822 0.53801 0.54712 0.0
C1056 C 0.27168 0.39436 0.53912 0.0
C1057 C 0.27643 0.45357 0.50442 0.0
C1058 C 0.24184 0.41566 0.50424 0.0
C1059 C 0.23969 0.38574 0.52153 0.0
N1060 N 0.30874 0.46153 0.5208 0.0
C1061 C 0.30577 0.43266 0.53875 0.0
C1062 C 0.36591 0.1418 0.15441 0.0
C1063 C 0.38553 0.1831 0.14641 0.0
C1064 C 0.32696 0.16693 0.11754 0.0
C1065 C 0.30421 0.1307 0.13213 0.0
N1066 N 0.30189 0.08232 0.16462 0.0
N1067 N 0.37873 0.23556 0.1228 0.0
C1068 C 0.32368 0.11748 0.15051 0.0
C1069 C 0.36496 0.19591 0.12809 0.0
N1070 N 0.38758 0.12549 0.16482 0.0
N1071 N 0.31173 0.17415 0.09418 0.0
H1072 H 0.40314 0.25892 0.13273 0.0
H1073 H 0.3623 0.24533 0.11128 0.0
H1074 H 0.28382 0.15292 0.08615 0.0
H1075 H 0.3285 0.19917 0.08164 0.0
H1076 H 0.3748 0.09501 0.16937 0.0
H1077 H 0.41893 0.14126 0.16545 0.0
H1078 H 0.314 0.07345 0.18058 0.0
H1079 H 0.27121 0.06323 0.1611 0.0
C1080 C 0.89357 0.21084 0.16609 0.0
C1081 C 0.86998 0.16916 0.17198 0.0
C1082 C 0.83807 0.18476 0.20975 0.0
C1083 C 0.85275 0.22345 0.19864 0.0
N1084 N 0.89703 0.27561 0.16771 0.0
N1085 N 0.81543 0.11592 0.19801 0.0
C1086 C 0.88208 0.23752 0.1776 0.0
C1087 C 0.84171 0.15586 0.19397 0.0
N1088 N 0.92682 0.22469 0.14979 0.0
N1089 N 0.81821 0.17518 0.23437 0.0
H1090 H 0.81403 0.09374 0.18505 0.0
H1091 H 0.79194 0.10519 0.21221 0.0
H1092 H 0.8155 0.19661 0.24585 0.0
H1093 H 0.80864 0.14787 0.2444 0.0
H1094 H 0.94663 0.25511 0.14625 0.0
H1095 H 0.93672 0.20576 0.14226 0.0
H1096 H 0.91499 0.28633 0.15014 0.0
H1097 H 0.88984 0.2958 0.17683 0.0
C1098 C 0.77759 0.63654 0.1504 0.0
C1099 C 0.80381 0.62084 0.14583 0.0
C1100 C 0.83927 0.67459 0.11205 0.0
C1101 C 0.82245 0.69625 0.12371 0.0
N1102 N 0.77363 0.6974 0.15395 0.0
N1103 N 0.86684 0.6335 0.12469 0.0
C1104 C 0.79062 0.67696 0.14273 0.0
C1105 C 0.83615 0.64141 0.12671 0.0
N1106 N 0.74022 0.6129 0.16133 0.0
N1107 N 0.8605 0.68739 0.0881 0.0
H1108 H 0.87164 0.61627 0.13888 0.0
H1109 H 0.89153 0.64974 0.11181 0.0
H1110 H 0.86253 0.71172 0.0773 0.0
H1111 H 0.87167 0.67119 0.07786 0.0
H1112 H 0.71955 0.62267 0.16363 0.0
H1113 H 0.72817 0.58215 0.1646 0.0
H1114 H 0.75312 0.68604 0.1702 0.0
H1115 H 0.78177 0.72647 0.14764 0.0
C1116 C 0.13536 0.36391 0.85013 0.0
C1117 C 0.17591 0.37786 0.8582 0.0
C1118 C 0.1508 0.32145 0.89049 0.0
C1119 C 0.1149 0.30185 0.87533 0.0
N1120 N 0.07004 0.30479 0.84224 0.0
N1121 N 0.22168 0.36419 0.88522 0.0
C1122 C 0.10586 0.32352 0.85596 0.0
C1123 C 0.18369 0.35594 0.87888 0.0
N1124 N 0.1251 0.38909 0.83726 0.0
N1125 N 0.15443 0.30462 0.91435 0.0
H1126 H 0.24713 0.38475 0.8747 0.0
H1127 H 0.2275 0.34642 0.89857 0.0
H1128 H 0.13027 0.27841 0.92233 0.0
H1129 H 0.1795 0.31888 0.92725 0.0
H1130 H 0.09551 0.38072 0.8324 0.0
H1131 H 0.14554 0.41964 0.83458 0.0
H1132 H 0.06349 0.3177 0.82554 0.0
H1133 H 0.04773 0.27553 0.8472 0.0
C1134 C 0.69971 0.79922 0.85082 0.0
C1135 C 0.71521 0.83913 0.84067 0.0
C1136 C 0.66559 0.81111 0.80355 0.0
C1137 C 0.64273 0.77671 0.81959 0.0
N1138 N 0.63894 0.73481 0.85746 0.0
N1139 N 0.70478 0.88224 0.80854 0.0
C1140 C 0.66043 0.76931 0.84268 0.0
C1141 C 0.69697 0.84507 0.81669 0.0
N1142 N 0.72235 0.78977 0.86758 0.0
N1143 N 0.65384 0.81271 0.77723 0.0
H1144 H 0.71916 0.90738 0.82107 0.0
H1145 H 0.6907 0.8868 0.79163 0.0
H1146 H 0.6295 0.78772 0.76817 0.0
H1147 H 0.67064 0.83695 0.76407 0.0
H1148 H 0.7127 0.76053 0.87418 0.0
H1149 H 0.75253 0.81005 0.87182 0.0
H1150 H 0.64871 0.72971 0.87636 0.0
H1151 H 0.61056 0.71224 0.85096 0.0
C1152 C 0.21105 0.86121 0.81752 0.0
C1153 C 0.1928 0.82115 0.82769 0.0
C1154 C 0.15078 0.83523 0.85775 0.0
C1155 C 0.16194 0.87107 0.84315 0.0
N1156 N 0.20297 0.91886 0.80835 0.0
N1157 N 0.13737 0.76778 0.85304 0.0
C1158 C 0.19249 0.88458 0.82289 0.0
C1159 C 0.16081 0.80755 0.84688 0.0
N1160 N 0.24656 0.87716 0.80356 0.0
N1161 N 0.13105 0.82777 0.88226 0.0
H1162 H 0.1406 0.74557 0.84331 0.0
H1163 H 0.11159 0.75667 0.8652 0.0
H1164 H 0.1245 0.84844 0.89099 0.0
H1165 H 0.12517 0.80336 0.89482 0.0
H1166 H 0.2628 0.90712 0.7974 0.0
H1167 H 0.26183 0.8614 0.801 0.0
H1168 H 0.22203 0.92781 0.79129 0.0
H1169 H 0.19065 0.93708 0.81246 0.0
C1170 C 0.98092 0.48376 0.47577 0.0
C1171 C 0.95459 0.49625 0.48664 0.0
C1172 C 0.00049 0.52708 0.52581 0.0
C1173 C 0.03005 0.52264 0.51184 0.0
N1174 N 0.04969 0.49723 0.47318 0.0
N1175 N 0.94576 0.53898 0.51942 0.0
C1176 C 0.02055 0.50077 0.48677 0.0
C1177 C 0.96562 0.51973 0.5113 0.0
N1178 N 0.96789 0.4551 0.45558 0.0
N1179 N 0.0066 0.54035 0.5525 0.0
H1180 H 0.9234 0.53911 0.50763 0.0
H1181 H 0.95526 0.55943 0.53574 0.0
H1182 H 0.0324 0.54657 0.56345 0.0
H1183 H 0.98433 0.54093 0.56441 0.0
H1184 H 0.98484 0.44267 0.44851 0.0
H1185 H 0.93855 0.44075 0.44794 0.0
H1186 H 0.04602 0.4857 0.45323 0.0
H1187 H 0.07826 0.50766 0.48162 0.0
C1188 C 0.41577 0.43344 0.49371 0.0
C1189 C 0.43367 0.46615 0.51237 0.0
C1190 C 0.49882 0.47046 0.50732 0.0
C1191 C 0.48075 0.43784 0.48862 0.0
N1192 N 0.42629 0.39586 0.45801 0.0
N1193 N 0.49289 0.52177 0.53247 0.0
C1194 C 0.44058 0.42198 0.47974 0.0
C1195 C 0.47555 0.48669 0.51776 0.0
N1196 N 0.37491 0.41178 0.49062 0.0
N1197 N 0.53759 0.48472 0.51578 0.0
H1198 H 0.47642 0.53439 0.54026 0.0
H1199 H 0.52379 0.54002 0.53505 0.0
H1200 H 0.55583 0.47447 0.50745 0.0
H1201 H 0.55107 0.50529 0.53181 0.0
H1202 H 0.36003 0.38494 0.4796 0.0
H1203 H 0.35544 0.41869 0.501 0.0
H1204 H 0.39847 0.38629 0.44873 0.0
H1205 H 0.44406 0.38674 0.44768 0.0
C1206 C 0.49784 0.02562 0.51033 0.0
C1207 C 0.53876 0.04552 0.51855 0.0
C1208 C 0.52696 0.98355 0.54083 0.0
C1209 C 0.4913 0.96223 0.52485 0.0
N1210 N 0.44059 0.96284 0.49576 0.0
N1211 N 0.58756 0.04685 0.5505 0.0
C1212 C 0.47572 0.9832 0.51026 0.0
C1213 C 0.55199 0.02561 0.53673 0.0
N1214 N 0.47986 0.04746 0.50408 0.0
N1215 N 0.53563 0.96383 0.56069 0.0
H1216 H 0.60131 0.07785 0.55309 0.0
H1217 H 0.60226 0.03379 0.56036 0.0
H1218 H 0.5167 0.93342 0.56469 0.0
H1219 H 0.55944 0.97775 0.57457 0.0
H1220 H 0.44936 0.03451 0.49948 0.0
H1221 H 0.49458 0.07839 0.50752 0.0
H1222 H 0.43037 0.97705 0.48239 0.0
H1223 H 0.42303 0.93155 0.49582 0.0
C1224 C 0.06666 0.13368 0.15946 0.0
C1225 C 0.09276 0.15148 0.13651 0.0
C1226 C 0.04192 0.16234 0.11389 0.0
C1227 C 0.01304 0.13644 0.13354 0.0
N1228 N 0.00675 0.12388 0.18276 0.0
N1229 N 0.11261 0.20247 0.10167 0.0
C1230 C 0.0277 0.12964 0.15883 0.0
C1231 C 0.08269 0.17225 0.11675 0.0
N1232 N 0.07911 0.12189 0.18215 0.0
N1233 N 0.03064 0.17845 0.09308 0.0
H1234 H 0.14288 0.21201 0.10529 0.0
H1235 H 0.10815 0.2208 0.08802 0.0
H1236 H 0.00314 0.17739 0.09335 0.0
H1237 H 0.04839 0.19284 0.07592 0.0
H1238 H 0.05936 0.10239 0.19702 0.0
H1239 H 0.10934 0.13304 0.18657 0.0
H1240 H 0.01698 0.12084 0.20205 0.0
H1241 H 0.98256 0.1288 0.18411 0.0
C1242 C 0.90342 0.95511 0.13625 0.0
C1243 C 0.88525 0.96439 0.11407 0.0
C1244 C 0.85609 0.89468 0.09797 0.0
C1245 C 0.87588 0.88697 0.11985 0.0
N1246 N 0.89457 0.90233 0.1675 0.0
N1247 N 0.83144 0.93759 0.08039 0.0
C1248 C 0.8912 0.91457 0.14178 0.0
C1249 C 0.85757 0.93256 0.0967 0.0
N1250 N 0.93432 0.98495 0.15078 0.0
N1251 N 0.83552 0.86546 0.07882 0.0
H1252 H 0.83095 0.96441 0.07957 0.0
H1253 H 0.80785 0.91403 0.0697 0.0
H1254 H 0.8313 0.83661 0.08127 0.0
H1255 H 0.82374 0.87015 0.06071 0.0
H1256 H 0.94837 0.97938 0.16726 0.0
H1257 H 0.94911 0.01455 0.14368 0.0
H1258 H 0.90464 0.92171 0.18446 0.0
H1259 H 0.88185 0.87187 0.1721 0.0
C1260 C 0.06267 0.99627 0.14621 0.0
C1261 C 0.1022 0.00612 0.13894 0.0
C1262 C 0.07705 0.9352 0.12645 0.0
C1263 C 0.03707 0.92712 0.13017 0.0
N1264 N 0.99261 0.95157 0.14407 0.0
N1265 N 0.1481 0.98543 0.12262 0.0
C1266 C 0.03024 0.9576 0.14067 0.0
C1267 C 0.10988 0.97545 0.1298 0.0
N1268 N 0.05539 0.02492 0.15684 0.0
N1269 N 0.0834 0.9043 0.11987 0.0
H1270 H 0.17264 0.01407 0.12584 0.0
H1271 H 0.15547 0.96607 0.11262 0.0
H1272 H 0.05983 0.87485 0.1173 0.0
H1273 H 0.11166 0.907 0.11888 0.0
H1274 H 0.02664 0.01917 0.16203 0.0
H1275 H 0.07818 0.05413 0.16099 0.0
H1276 H 0.96652 0.92488 0.13926 0.0
H1277 H 0.96652 0.92488 0.13926 0.0
C1278 C 0.09288 0.02368 0.83183 0.0
C1279 C 0.12032 0.01393 0.8444 0.0
C1280 C 0.16282 0.08497 0.85702 0.0
C1281 C 0.13413 0.0933 0.8449 0.0
N1282 N 0.0869 0.07486 0.80729 0.0
N1283 N 0.18701 0.03762 0.86195 0.0
C1284 C 0.10476 0.06429 0.82727 0.0
C1285 C 0.15763 0.04566 0.85427 0.0
N1286 N 0.05365 0.99532 0.82811 0.0
N1287 N 0.1939 0.11421 0.87189 0.0
H1288 H 0.18324 0.0089 0.85991 0.0
H1289 H 0.21573 0.05966 0.868 0.0
H1290 H 0.19926 0.14364 0.87252 0.0
H1291 H 0.21336 0.10907 0.88391 0.0
H1292 H 0.03216 0.00218 0.82099 0.0
H1293 H 0.04204 0.96668 0.83617 0.0
H1294 H 0.06567 0.05385 0.79368 0.0
H1295 H 0.09775 0.10478 0.80198 0.0
C1296 C 0.97714 0.06997 0.85523 0.0
C1297 C 0.99051 0.11124 0.85836 0.0
C1298 C 0.92888 0.09276 0.88454 0.0
C1299 C 0.9215 0.05267 0.8867 0.0
N1300 N 0.94212 0.00451 0.8753 0.0
N1301 N 0.97682 0.16261 0.87321 0.0
C1302 C 0.94704 0.04199 0.87269 0.0
C1303 C 0.96509 0.12284 0.87163 0.0
N1304 N 0.9961 0.05735 0.83766 0.0
N1305 N 0.90136 0.10185 0.89479 0.0
H1306 H 0.00155 0.18426 0.86222 0.0
H1307 H 0.96265 0.17395 0.88555 0.0
H1308 H 0.87602 0.08096 0.9057 0.0
H1309 H 0.90285 0.12933 0.89161 0.0
H1310 H 0.01885 0.07686 0.82429 0.0
H1311 H 0.01885 0.07686 0.82429 0.0
H1312 H 0.95912 0.99523 0.86401 0.0
H1313 H 0.92332 0.98419 0.8901 0.0
C1314 C 0.94293 0.90906 0.85094 0.0
C1315 C 0.95871 0.90117 0.87582 0.0
C1316 C 0.89333 0.88023 0.89782 0.0
C1317 C 0.88306 0.89885 0.87649 0.0
N1318 N 0.89061 0.91683 0.82847 0.0
N1319 N 0.94146 0.86773 0.92051 0.0
C1320 C 0.9056 0.90884 0.85171 0.0
C1321 C 0.93193 0.88395 0.89864 0.0
N1322 N 0.96156 0.91419 0.82603 0.0
N1323 N 0.86534 0.8552 0.91631 0.0
H1324 H 0.96628 0.8637 0.92087 0.0
H1325 H 0.92312 0.8565 0.93795 0.0
H1326 H 0.83481 0.84572 0.91456 0.0
H1327 H 0.83481 0.84572 0.91456 0.0
H1328 H 0.94957 0.91583 0.80713 0.0
H1329 H 0.98727 0.91295 0.8229 0.0
H1330 H 0.9081 0.93348 0.81178 0.0
H1331 H 0.8599 0.90585 0.82584 0.0
C1332 C 0.69351 0.4706 0.44163 0.0
C1333 C 0.71327 0.45667 0.45975 0.0
C1334 C 0.6528 0.4277 0.48985 0.0
C1335 C 0.63086 0.43182 0.46815 0.0
N1336 N 0.63421 0.47644 0.43277 0.0
N1337 N 0.71245 0.42952 0.5056 0.0
C1338 C 0.6524 0.45892 0.44653 0.0
C1339 C 0.69329 0.43782 0.48526 0.0
N1340 N 0.71415 0.49569 0.42025 0.0
N1341 N 0.63659 0.41857 0.51575 0.0
H1342 H 0.74205 0.44953 0.51074 0.0
H1343 H 0.69723 0.40626 0.51977 0.0
H1344 H 0.61023 0.41859 0.52061 0.0
H1345 H 0.65191 0.41741 0.53319 0.0
H1346 H 0.70043 0.50188 0.40391 0.0
H1347 H 0.74544 0.51119 0.4192 0.0
H1348 H 0.6479 0.49835 0.4176 0.0
H1349 H 0.60622 0.47168 0.43914 0.0
C1350 C 0.57854 0.26809 0.48835 0.0
C1351 C 0.54537 0.25936 0.47084 0.0
C1352 C 0.52489 0.18807 0.47191 0.0
C1353 C 0.56146 0.19794 0.48535 0.0
N1354 N 0.60978 0.24138 0.51885 0.0
N1355 N 0.48539 0.21095 0.44682 0.0
C1356 C 0.58417 0.23618 0.49768 0.0
C1357 C 0.5177 0.21916 0.46315 0.0
N1358 N 0.60591 0.3071 0.49466 0.0
N1359 N 0.49685 0.14853 0.46841 0.0
H1360 H 0.47858 0.23284 0.44066 0.0
H1361 H 0.46657 0.18298 0.43799 0.0
H1362 H 0.50185 0.12592 0.47573 0.0
H1363 H 0.46801 0.13821 0.46073 0.0
H1364 H 0.63231 0.31569 0.50564 0.0
H1365 H 0.60408 0.33131 0.48663 0.0
H1366 H 0.62585 0.26809 0.52985 0.0
H1367 H 0.61028 0.21702 0.52789 0.0
C1368 C 0.77879 0.31736 0.44251 0.0
C1369 C 0.76454 0.34387 0.44917 0.0
C1370 C 0.69509 0.28786 0.44855 0.0
C1371 C 0.70898 0.26063 0.44311 0.0
N1372 N 0.76437 0.24842 0.4383 0.0
N1373 N 0.7099 0.35439 0.46156 0.0
C1374 C 0.75102 0.27511 0.44111 0.0
C1375 C 0.72288 0.32906 0.4528 0.0
N1376 N 0.81858 0.33278 0.43657 0.0
N1377 N 0.65498 0.27417 0.45057 0.0
H1378 H 0.72933 0.3846 0.46535 0.0
H1379 H 0.68052 0.34545 0.46716 0.0
H1380 H 0.63437 0.24431 0.45443 0.0
H1381 H 0.64221 0.29222 0.4478 0.0
H1382 H 0.83043 0.3159 0.42844 0.0
H1383 H 0.83962 0.36334 0.4384 0.0
H1384 H 0.79445 0.25634 0.43993 0.0
H1385 H 0.745 0.21765 0.43573 0.0
C1386 C 0.82205 0.37553 0.20467 0.0
C1387 C 0.78055 0.34669 0.20124 0.0
C1388 C 0.76307 0.39167 0.22362 0.0
C1389 C 0.80281 0.42376 0.22242 0.0
N1390 N 0.87231 0.44585 0.21235 0.0
N1391 N 0.71297 0.33614 0.19889 0.0
C1392 C 0.83317 0.41572 0.21283 0.0
C1393 C 0.75197 0.3585 0.20683 0.0
N1394 N 0.85036 0.36444 0.20148 0.0
N1395 N 0.73632 0.39111 0.24212 0.0
H1396 H 0.7025 0.31088 0.18625 0.0
H1397 H 0.7025 0.31088 0.18625 0.0
H1398 H 0.74596 0.41038 0.25912 0.0
H1399 H 0.70639 0.36799 0.24251 0.0
H1400 H 0.88049 0.38294 0.20671 0.0
H1401 H 0.84334 0.33601 0.19457 0.0
H1402 H 0.89501 0.44318 0.20264 0.0
H1403 H 0.88165 0.47374 0.22149 0.0
C1404 C 0.68582 0.40614 0.17196 0.0
C1405 C 0.69081 0.44334 0.18153 0.0
C1406 C 0.62385 0.40742 0.20284 0.0
C1407 C 0.61957 0.37001 0.19503 0.0
N1408 N 0.64272 0.3336 0.16774 0.0
N1409 N 0.65656 0.4789 0.19374 0.0
C1410 C 0.6497 0.36934 0.17844 0.0
C1411 C 0.65706 0.44369 0.19299 0.0
N1412 N 0.71485 0.40609 0.15588 0.0
N1413 N 0.59655 0.40833 0.22034 0.0
H1414 H 0.67963 0.50528 0.18504 0.0
H1415 H 0.63164 0.48081 0.19992 0.0
H1416 H 0.5727 0.38221 0.22855 0.0
H1417 H 0.60009 0.43475 0.22893 0.0
H1418 H 0.71706 0.38075 0.15173 0.0
H1419 H 0.73536 0.43161 0.14508 0.0
H1420 H 0.66026 0.33126 0.15241 0.0
H1421 H 0.61815 0.30613 0.17357 0.0
C1422 C 0.58547 0.22824 0.14735 0.0
C1423 C 0.55262 0.20785 0.16524 0.0
C1424 C 0.58746 0.17675 0.18786 0.0
C1425 C 0.62454 0.20865 0.17766 0.0
N1426 N 0.65717 0.26006 0.142 0.0
N1427 N 0.51518 0.1493 0.19315 0.0
C1428 C 0.62311 0.23234 0.15513 0.0
C1429 C 0.5512 0.17712 0.18219 0.0
N1430 N 0.58026 0.24316 0.12309 0.0
N1431 N 0.58712 0.14602 0.20228 0.0
H1432 H 0.48848 0.14799 0.18699 0.0
H1433 H 0.51158 0.12812 0.20794 0.0
H1434 H 0.61288 0.1438 0.20487 0.0
H1435 H 0.56124 0.12117 0.20975 0.0
H1436 H 0.60214 0.25615 0.10783 0.0
H1437 H 0.55188 0.23755 0.11689 0.0
H1438 H 0.65769 0.27922 0.12662 0.0
H1439 H 0.68563 0.26626 0.14736 0.0
C1440 C 0.37977 0.81406 0.79932 0.0
C1441 C 0.35259 0.78746 0.81929 0.0
C1442 C 0.40894 0.78408 0.84031 0.0
C1443 C 0.43081 0.79802 0.81504 0.0
N1444 N 0.44159 0.83734 0.77373 0.0
N1445 N 0.3445 0.75571 0.86337 0.0
C1446 C 0.41761 0.81654 0.79549 0.0
C1447 C 0.36816 0.77506 0.84128 0.0
N1448 N 0.36991 0.83863 0.78533 0.0
N1449 N 0.42781 0.78305 0.86394 0.0
H1450 H 0.31864 0.75698 0.86729 0.0
H1451 H 0.35129 0.73988 0.87782 0.0
H1452 H 0.45893 0.79796 0.86554 0.0
H1453 H 0.41366 0.77427 0.88307 0.0
H1454 H 0.38874 0.86046 0.77126 0.0
H1455 H 0.34489 0.84055 0.79118 0.0
H1456 H 0.43148 0.84651 0.75676 0.0
H1457 H 0.47181 0.84543 0.77288 0.0
C1458 C 0.2511 0.58037 0.83933 0.0
C1459 C 0.22973 0.54646 0.82213 0.0
C1460 C 0.20216 0.58249 0.79622 0.0
C1461 C 0.23107 0.6189 0.80915 0.0
N1462 N 0.28571 0.65284 0.84168 0.0
N1463 N 0.17119 0.5095 0.79389 0.0
C1464 C 0.25573 0.61782 0.83075 0.0
C1465 C 0.20088 0.54581 0.80342 0.0
N1466 N 0.26569 0.57645 0.86414 0.0
N1467 N 0.17637 0.5831 0.77697 0.0
H1468 H 0.16834 0.48257 0.80105 0.0
H1469 H 0.14769 0.50551 0.78112 0.0
H1470 H 0.17432 0.6086 0.77283 0.0
H1471 H 0.15754 0.55877 0.76454 0.0
H1472 H 0.2796 0.5997 0.87845 0.0
H1473 H 0.25821 0.54835 0.87208 0.0
H1474 H 0.30514 0.65404 0.85711 0.0
H1475 H 0.29405 0.68086 0.83317 0.0
C1476 C 0.45588 0.62966 0.82102 0.0
C1477 C 0.44785 0.66014 0.82937 0.0
C1478 C 0.37703 0.61775 0.81732 0.0
C1479 C 0.38459 0.58739 0.80769 0.0
N1480 N 0.42991 0.56138 0.80416 0.0
N1481 N 0.3998 0.67775 0.84492 0.0
C1482 C 0.42369 0.59229 0.81097 0.0
C1483 C 0.40777 0.65161 0.83117 0.0
N1484 N 0.4947 0.63773 0.82119 0.0
N1485 N 0.34086 0.61514 0.81258 0.0
H1486 H 0.42251 0.70361 0.85418 0.0
H1487 H 0.37091 0.67201 0.84918 0.0
H1488 H 0.31668 0.59058 0.80332 0.0
H1489 H 0.33656 0.63957 0.81497 0.0
H1490 H 0.50418 0.61918 0.81249 0.0
H1491 H 0.5177 0.66408 0.82996 0.0
H1492 H 0.45635 0.56122 0.8084 0.0
H1493 H 0.4078 0.53502 0.79481 0.0
C1494 C 0.42826 0.69761 0.50978 0.0
C1495 C 0.45206 0.72386 0.53173 0.0
C1496 C 0.46317 0.67034 0.54942 0.0
C1497 C 0.43538 0.64359 0.52984 0.0
N1498 N 0.4153 0.63941 0.48262 0.0
N1499 N 0.50658 0.73973 0.56338 0.0
C1500 C 0.42555 0.65963 0.50707 0.0
C1501 C 0.47412 0.71162 0.54887 0.0
N1502 N 0.4062 0.70698 0.49245 0.0
N1503 N 0.47965 0.65609 0.56795 0.0
H1504 H 0.51758 0.77038 0.5608 0.0
H1505 H 0.52528 0.73329 0.5752 0.0
H1506 H 0.47527 0.62714 0.56604 0.0
H1507 H 0.49718 0.67255 0.58471 0.0
H1508 H 0.38569 0.68657 0.47826 0.0
H1509 H 0.40479 0.733 0.49397 0.0
H1510 H 0.41029 0.65103 0.46454 0.0
H1511 H 0.41808 0.61406 0.47979 0.0
C1512 C 0.28677 0.73311 0.55389 0.0
C1513 C 0.25758 0.73638 0.53919 0.0
C1514 C 0.31482 0.78997 0.5127 0.0
C1515 C 0.34024 0.77646 0.5243 0.0
N1516 N 0.33498 0.71513 0.5416 0.0
N1517 N 0.2451 0.77211 0.50298 0.0
C1518 C 0.32083 0.74085 0.53962 0.0
C1519 C 0.2717 0.7658 0.51748 0.0
N1520 N 0.28666 0.73283 0.58193 0.0
N1521 N 0.33099 0.82501 0.49827 0.0
H1522 H 0.215 0.7584 0.50874 0.0
H1523 H 0.25321 0.79063 0.48563 0.0
H1524 H 0.36168 0.84198 0.49417 0.0
H1525 H 0.314 0.83756 0.49143 0.0
H1526 H 0.31206 0.73805 0.59289 0.0
H1527 H 0.26406 0.7335 0.59344 0.0
H1528 H 0.36007 0.71918 0.53067 0.0
H1529 H 0.36007 0.71918 0.53067 0.0
C1530 C 0.22643 0.52338 0.54487 0.0
C1531 C 0.26789 0.55027 0.54047 0.0
C1532 C 0.2514 0.59854 0.51886 0.0
C1533 C 0.21061 0.57364 0.52624 0.0
N1534 N 0.15853 0.50899 0.5429 0.0
N1535 N 0.32053 0.61486 0.52409 0.0
C1536 C 0.19803 0.53524 0.53799 0.0
C1537 C 0.28048 0.58797 0.5272 0.0
N1538 N 0.21363 0.48605 0.55562 0.0
N1539 N 0.26228 0.63272 0.50408 0.0
H1540 H 0.3429 0.60882 0.52993 0.0
H1541 H 0.33217 0.64438 0.51762 0.0
H1542 H 0.24149 0.64105 0.49829 0.0
H1543 H 0.29051 0.65079 0.49541 0.0
H1544 H 0.18332 0.46553 0.55924 0.0
H1545 H 0.23316 0.47552 0.56052 0.0
H1546 H 0.1356 0.51463 0.5374 0.0
H1547 H 0.1356 0.51463 0.5374 0.0
C1548 C 0.1962 0.21194 0.01045 0.0
C1549 C 0.21235 0.18772 0.01898 0.0
C1550 C 0.20702 0.16271 0.97169 0.0
C1551 C 0.18894 0.18539 0.96349 0.0
N1552 N 0.17972 0.24177 0.97201 0.0
N1553 N 0.24584 0.15148 0.00658 0.0
C1554 C 0.18794 0.21344 0.98194 0.0
C1555 C 0.22221 0.16707 0.99909 0.0
N1556 N 0.18725 0.23208 0.02979 0.0
N1557 N 0.20777 0.1356 0.95383 0.0
H1558 H 0.25864 0.15611 0.02623 0.0
H1559 H 0.25631 0.13817 0.9927 0.0
H1560 H 0.19783 0.13247 0.93341 0.0
H1561 H 0.216 0.11467 0.95968 0.0
H1562 H 0.17095 0.24636 0.0254 0.0
H1563 H 0.19491 0.23297 0.05061 0.0
H1564 H 0.18108 0.26485 0.98405 0.0
H1565 H 0.17595 0.24466 0.95092 0.0
C1566 C 0.7663 0.98884 0.99771 0.0
C1567 C 0.78436 0.01454 0.97474 0.0
C1568 C 0.81093 0.07242 0.00592 0.0
C1569 C 0.80265 0.04613 0.02874 0.0
N1570 N 0.76918 0.97895 0.047 0.0
N1571 N 0.82217 0.08157 0.9564 0.0
C1572 C 0.77868 0.00413 0.02485 0.0
C1573 C 0.80535 0.05671 0.97857 0.0
N1574 N 0.73722 0.94991 0.9933 0.0
N1575 N 0.82451 0.11222 0.01035 0.0
H1576 H 0.8173 0.07096 0.93612 0.0
H1577 H 0.84229 0.11228 0.95823 0.0
H1578 H 0.82771 0.12424 0.03009 0.0
H1579 H 0.82841 0.13229 0.99456 0.0
H1580 H 0.7211 0.92988 0.00911 0.0
H1581 H 0.72606 0.93956 0.97353 0.0
H1582 H 0.75613 0.9479 0.04516 0.0
H1583 H 0.77597 0.98963 0.06728 0.0
C1584 C 0.99493 0.79853 0.97734 0.0
C1585 C 0.03251 0.83428 0.97314 0.0
C1586 C 0.04795 0.8361 0.02266 0.0
C1587 C 0.00943 0.80254 0.02682 0.0
N1588 N 0.95234 0.74396 0.00861 0.0
N1589 N 0.0989 0.88106 0.99088 0.0
C1590 C 0.98534 0.78078 0.0041 0.0
C1591 C 0.06043 0.85106 0.9955 0.0
N1592 N 0.96715 0.78338 0.95648 0.0
N1593 N 0.07107 0.85546 0.04524 0.0
H1594 H 0.10884 0.89413 0.97171 0.0
H1595 H 0.12173 0.89135 0.00559 0.0
H1596 H 0.0629 0.84343 0.06512 0.0
H1597 H 0.09694 0.88363 0.04457 0.0
H1598 H 0.93781 0.75991 0.95918 0.0
H1599 H 0.97212 0.79629 0.93689 0.0
H1600 H 0.93463 0.72479 0.99284 0.0
H1601 H 0.94527 0.73121 0.02833 0.0
C1602 C 0.88934 0.56503 0.3186 0.0
C1603 C 0.85831 0.5698 0.30666 0.0
C1604 C 0.83615 0.57717 0.35267 0.0
C1605 C 0.86473 0.56881 0.36453 0.0
N1606 N 0.92829 0.57173 0.35991 0.0
N1607 N 0.8128 0.5943 0.31065 0.0
C1608 C 0.89492 0.56887 0.34778 0.0
C1609 C 0.83531 0.5808 0.32346 0.0
N1610 N 0.91136 0.55398 0.30257 0.0
N1611 N 0.80833 0.57877 0.36929 0.0
H1612 H 0.79638 0.60521 0.32085 0.0
H1613 H 0.79638 0.60521 0.32085 0.0
H1614 H 0.81007 0.57806 0.39083 0.0
H1615 H 0.78305 0.57909 0.36193 0.0
H1616 H 0.93113 0.54554 0.3107 0.0
H1617 H 0.90795 0.55069 0.28119 0.0
H1618 H 0.9527 0.57448 0.34878 0.0
H1619 H 0.9332 0.57584 0.38117 0.0
C1620 C 0.46657 0.32165 0.30574 0.0
C1621 C 0.50145 0.32294 0.29463 0.0
C1622 C 0.51381 0.30078 0.33935 0.0
C1623 C 0.48115 0.30254 0.35129 0.0
N1624 N 0.42825 0.31847 0.34642 0.0
N1625 N 0.56493 0.32685 0.30388 0.0
C1626 C 0.45853 0.31478 0.3347 0.0
C1627 C 0.52732 0.31706 0.31259 0.0
N1628 N 0.43919 0.32338 0.28861 0.0
N1629 N 0.53158 0.28289 0.35325 0.0
H1630 H 0.5761 0.34006 0.28464 0.0
H1631 H 0.58618 0.32598 0.31683 0.0
H1632 H 0.52307 0.27148 0.37318 0.0
H1633 H 0.55285 0.27723 0.34423 0.0
H1634 H 0.41068 0.31677 0.29501 0.0
H1635 H 0.4435 0.32894 0.26752 0.0
H1636 H 0.41421 0.33221 0.33654 0.0
H1637 H 0.41891 0.31019 0.36677 0.0
C1638 C 0.6424 0.14601 0.3359 0.0
C1639 C 0.66617 0.13936 0.35505 0.0
C1640 C 0.70182 0.13101 0.31571 0.0
C1641 C 0.67447 0.13408 0.29719 0.0
N1642 N 0.60887 0.12646 0.29194 0.0
N1643 N 0.71426 0.11765 0.36293 0.0
C1644 C 0.64076 0.1341 0.30832 0.0
C1645 C 0.69456 0.12915 0.34494 0.0
N1646 N 0.6262 0.16911 0.34288 0.0
N1647 N 0.73542 0.13185 0.30585 0.0
H1648 H 0.70929 0.11596 0.38421 0.0
H1649 H 0.73275 0.10665 0.3565 0.0
H1650 H 0.74073 0.13073 0.28489 0.0
H1651 H 0.75869 0.13504 0.31863 0.0
H1652 H 0.61093 0.1769 0.32869 0.0
H1653 H 0.63352 0.1853 0.36134 0.0
H1654 H 0.58243 0.12324 0.30031 0.0
H1655 H 0.60771 0.1188 0.2711 0.0
C1656 C 0.49867 0.79466 0.65241 0.0
C1657 C 0.52797 0.82939 0.63866 0.0
C1658 C 0.56057 0.85693 0.68349 0.0
C1659 C 0.52676 0.82506 0.69706 0.0
N1660 N 0.45737 0.77274 0.69279 0.0
N1661 N 0.58606 0.89564 0.64095 0.0
C1662 C 0.49406 0.79639 0.68103 0.0
C1663 C 0.55904 0.86121 0.65412 0.0
N1664 N 0.47407 0.7605 0.63789 0.0
N1665 N 0.59406 0.88227 0.69831 0.0
H1666 H 0.58608 0.89863 0.6195 0.0
H1667 H 0.60688 0.92149 0.65139 0.0
H1668 H 0.59593 0.87974 0.71966 0.0
H1669 H 0.62077 0.90378 0.68914 0.0
H1670 H 0.45362 0.7336 0.6475 0.0
H1671 H 0.47724 0.75825 0.61664 0.0
H1672 H 0.43197 0.75384 0.68115 0.0
H1673 H 0.45157 0.77591 0.7134 0.0
C1674 C 0.11552 0.6482 0.66766 0.0
C1675 C 0.12906 0.67829 0.647 0.0
C1676 C 0.16822 0.72936 0.68192 0.0
C1677 C 0.16132 0.6983 0.70112 0.0
N1678 N 0.12739 0.62781 0.71258 0.0
N1679 N 0.16803 0.74754 0.6338 0.0
C1680 C 0.13442 0.65755 0.69412 0.0
C1681 C 0.15475 0.719 0.6541 0.0
N1682 N 0.08435 0.61072 0.66177 0.0
N1683 N 0.18776 0.76872 0.69 0.0
H1684 H 0.15683 0.74093 0.61363 0.0
H1685 H 0.19124 0.77701 0.63656 0.0
H1686 H 0.19937 0.77836 0.70972 0.0
H1687 H 0.18975 0.79187 0.6777 0.0
H1688 H 0.07094 0.58767 0.67623 0.0
H1689 H 0.06906 0.60435 0.64294 0.0
H1690 H 0.11193 0.59738 0.70757 0.0
H1691 H 0.13875 0.63366 0.7327 0.0
C1692 C 0.30577 0.43632 0.66348 0.0
C1693 C 0.34318 0.4677 0.65371 0.0
C1694 C 0.36891 0.48253 0.70149 0.0
C1695 C 0.33149 0.45149 0.7112 0.0
N1696 N 0.26857 0.39181 0.70155 0.0
N1697 N 0.41381 0.5126 0.66279 0.0
C1698 C 0.30134 0.42597 0.69212 0.0
C1699 C 0.3759 0.48813 0.67253 0.0
N1700 N 0.27428 0.41706 0.64551 0.0
N1701 N 0.39721 0.50777 0.72003 0.0
H1702 H 0.42024 0.51652 0.64187 0.0
H1703 H 0.43937 0.52552 0.67526 0.0
H1704 H 0.39384 0.50289 0.74135 0.0
H1705 H 0.4229 0.53443 0.71444 0.0
H1706 H 0.24498 0.39705 0.65175 0.0
H1707 H 0.27709 0.42286 0.6243 0.0
H1708 H 0.24655 0.37028 0.68871 0.0
H1709 H 0.26585 0.38303 0.7222 0.0
loop_
_geom_bond_atom_site_label_1
_geom_bond_atom_site_label_2
_geom_bond_distance
_geom_bond_site_symmetry_2
_ccdc_geom_bond_type
Co0 O2 2.143 . S
Co0 O8 2.074 . S
Co0 O11 2.093 . S
Co0 O24 2.097 . S
Co0 N41 2.151 . S
Co0 N49 2.214 . S
Co1 O2 2.160 . S
Co1 O7 2.058 . S
Co1 O17 2.057 . S
Co1 O32 2.037 . S
Co1 N36 2.145 . S
Co1 N57 2.257 . S
O2 Co0 2.143 . S
O2 Co1 2.160 . S
C3 O4 1.278 . S
C3 O11 1.224 . S
O4 C3 1.278 . S
C5 O6 1.245 . S
C5 O17 1.232 . S
O6 C5 1.245 . S
O7 Co1 2.058 . S
O7 C33 1.269 . S
O8 Co0 2.074 . S
O8 C33 1.257 . S
H9 C34 0.930 . S
H10 C40 0.930 . S
O11 Co0 2.093 . S
O11 C3 1.224 . S
H12 C44 0.929 . S
H13 C46 0.930 . S
H14 C47 0.930 . S
H15 C45 0.929 . S
H16 C48 0.928 . S
O17 Co1 2.057 . S
O17 C5 1.232 . S
H18 C37 0.929 . S
H19 C38 0.929 . S
H20 C50 0.931 1_665 S
H21 C42 0.929 . S
H22 C51 0.930 1_665 S
H23 C43 0.931 . S
O24 Co0 2.097 . S
O24 C52 1.214 . S
H25 C53 0.929 . S
H26 C54 0.929 . S
H27 C55 0.930 . S
H28 C56 0.929 . S
H29 C58 0.930 . S
H30 C35 0.930 . S
H31 C39 0.930 . S
O32 Co1 2.037 . S
O32 C52 1.234 . S
C33 O7 1.269 . S
C33 O8 1.257 . S
C34 H9 0.930 . S
C34 C37 1.388 . S
C34 C39 1.418 . S
C35 H30 0.930 . S
C35 C38 1.404 . S
C35 C39 1.353 . S
N36 Co1 2.145 . S
N36 C37 1.397 . S
N36 C38 1.334 . S
C37 H18 0.929 . S
C37 C34 1.388 . S
C37 N36 1.397 . S
C38 H19 0.929 . S
C38 C35 1.404 . S
C38 N36 1.334 . S
C39 H31 0.930 . S
C39 C34 1.418 . S
C39 C35 1.353 . S
C40 H10 0.930 . S
C40 N41 1.330 . S
C40 C42 1.446 . S
N41 Co0 2.151 . S
N41 C40 1.330 . S
N41 C45 1.418 . S
C42 H21 0.929 . S
C42 C40 1.446 . S
C42 C43 1.332 . S
C43 H23 0.931 . S
C43 C42 1.332 . S
C43 C44 1.267 . S
C44 H12 0.929 . S
C44 C43 1.267 . S
C44 C45 1.251 . S
C45 H15 0.929 . S
C45 N41 1.418 . S
C45 C44 1.251 . S
C46 H13 0.930 . S
C46 C48 1.406 . S
C46 C51 1.261 . S
C47 H14 0.930 . S
C47 N49 1.325 . S
C47 C50 1.357 . S
C48 H16 0.928 . S
C48 C46 1.406 . S
C48 N49 1.261 . S
N49 Co0 2.214 . S
N49 C47 1.325 . S
N49 C48 1.261 . S
C50 H20 0.931 1_445 S
C50 C47 1.357 . S
C50 C51 1.312 . S
C51 H22 0.930 1_445 S
C51 C46 1.261 . S
C51 C50 1.312 . S
C52 O24 1.214 . S
C52 O32 1.234 . S
C53 H25 0.929 . S
C53 C56 1.391 . S
C53 C58 1.391 . S
C54 H26 0.929 . S
C54 C55 1.390 . S
C54 N57 1.391 . S
C55 H27 0.930 . S
C55 C54 1.390 . S
C55 C56 1.392 . S
C56 H28 0.929 . S
C56 C53 1.391 . S
C56 C55 1.392 . S
N57 Co1 2.257 . S
N57 C54 1.391 . S
N57 C58 1.388 . S
C58 H29 0.930 . S
C58 C53 1.391 . S
C58 N57 1.388 . S
Co59 O61 2.143 . S
Co59 O67 2.074 . S
Co59 O70 2.093 1_545 S
Co59 O83 2.097 1_545 S
Co59 N100 2.151 . S
Co59 N108 2.214 . S
Co60 O61 2.160 1_565 S
Co60 O66 2.058 1_565 S
Co60 O76 2.057 1_565 S
Co60 O91 2.037 . S
Co60 N95 2.145 . S
Co60 N116 2.257 . S
O61 Co59 2.143 . S
O61 Co60 2.160 1_545 S
C62 O63 1.278 . S
C62 O70 1.224 . S
O63 C62 1.278 . S
C64 O65 1.245 . S
C64 O76 1.232 . S
O65 C64 1.245 . S
O66 Co60 2.058 1_545 S
O66 C92 1.269 . S
O67 Co59 2.074 . S
O67 C92 1.257 . S
H68 C93 0.930 . S
H69 C99 0.930 . S
O70 Co59 2.093 1_565 S
O70 C62 1.224 . S
H71 C103 0.929 . S
H72 C105 0.930 . S
H73 C106 0.927 1_565 S
H74 C104 0.929 . S
H75 C107 0.928 . S
O76 Co60 2.057 1_545 S
O76 C64 1.232 . S
H77 C96 0.929 . S
H78 C97 0.929 . S
H79 C109 0.931 1_465 S
H80 C101 0.929 . S
H81 C110 0.930 1_455 S
H82 C102 0.931 . S
O83 Co59 2.097 1_565 S
O83 C111 1.214 . S
H84 C112 0.929 . S
H85 C113 0.929 . S
H86 C114 0.930 . S
H87 C115 0.929 . S
H88 C117 0.930 . S
H89 C94 0.930 . S
H90 C98 0.930 . S
O91 Co60 2.037 . S
O91 C111 1.234 . S
C92 O66 1.269 . S
C92 O67 1.257 . S
C93 H68 0.930 . S
C93 C96 1.388 . S
C93 C98 1.418 . S
C94 H89 0.930 . S
C94 C97 1.404 . S
C94 C98 1.353 . S
N95 Co60 2.145 . S
N95 C96 1.397 . S
N95 C97 1.334 . S
C96 H77 0.929 . S
C96 C93 1.388 . S
C96 N95 1.397 . S
C97 H78 0.929 . S
C97 C94 1.404 . S
C97 N95 1.334 . S
C98 H90 0.930 . S
C98 C93 1.418 . S
C98 C94 1.353 . S
C99 H69 0.930 . S
C99 N100 1.330 . S
C99 C101 1.446 . S
N100 Co59 2.151 . S
N100 C99 1.330 . S
N100 C104 1.418 . S
C101 H80 0.929 . S
C101 C99 1.446 . S
C101 C102 1.332 . S
C102 H82 0.931 . S
C102 C101 1.332 . S
C102 C103 1.267 . S
C103 H71 0.929 . S
C103 C102 1.267 . S
C103 C104 1.251 . S
C104 H74 0.929 . S
C104 N100 1.418 . S
C104 C103 1.251 . S
C105 H72 0.930 . S
C105 C107 1.406 . S
C105 C110 1.261 . S
C106 H73 0.927 1_545 S
C106 N108 1.334 . S
C106 C109 1.351 . S
C107 H75 0.928 . S
C107 C105 1.406 . S
C107 N108 1.261 . S
N108 Co59 2.214 . S
N108 C106 1.334 . S
N108 C107 1.261 . S
C109 H79 0.931 1_645 S
C109 C106 1.351 . S
C109 C110 1.312 . S
C110 H81 0.930 1_655 S
C110 C105 1.261 . S
C110 C109 1.312 . S
C111 O83 1.214 . S
C111 O91 1.234 . S
C112 H84 0.929 . S
C112 C115 1.391 . S
C112 C117 1.391 . S
C113 H85 0.929 . S
C113 C114 1.390 . S
C113 N116 1.391 . S
C114 H86 0.930 . S
C114 C113 1.390 . S
C114 C115 1.392 . S
C115 H87 0.929 . S
C115 C112 1.391 . S
C115 C114 1.392 . S
N116 Co60 2.257 . S
N116 C113 1.391 . S
N116 C117 1.388 . S
C117 H88 0.930 . S
C117 C112 1.391 . S
C117 N116 1.388 . S
Co118 O120 2.143 . S
Co118 O126 2.074 . S
Co118 O129 2.093 1_655 S
Co118 O142 2.097 1_655 S
Co118 N159 2.151 . S
Co118 N167 2.214 . S
Co119 O120 2.160 1_455 S
Co119 O125 2.058 1_455 S
Co119 O135 2.057 1_455 S
Co119 O150 2.037 . S
Co119 N154 2.145 . S
Co119 N175 2.257 . S
O120 Co118 2.143 . S
O120 Co119 2.160 1_655 S
C121 O122 1.278 . S
C121 O129 1.224 . S
O122 C121 1.278 . S
C123 O124 1.245 . S
C123 O135 1.232 . S
O124 C123 1.245 . S
O125 Co119 2.058 1_655 S
O125 C151 1.269 . S
O126 Co118 2.074 . S
O126 C151 1.257 . S
H127 C152 0.930 . S
H128 C158 0.930 . S
O129 Co118 2.093 1_455 S
O129 C121 1.224 . S
H130 C162 0.929 . S
H131 C164 0.930 . S
H132 C165 0.937 . S
H133 C163 0.929 . S
H134 C166 0.928 . S
O135 Co119 2.057 1_655 S
O135 C123 1.232 . S
H136 C155 0.929 . S
H137 C156 0.929 . S
H138 C168 0.931 1_445 S
H139 C160 0.929 . S
H140 C169 0.930 1_545 S
H141 C161 0.931 . S
O142 Co118 2.097 1_455 S
O142 C170 1.214 . S
H143 C171 0.929 . S
H144 C172 0.929 . S
H145 C173 0.930 . S
H146 C174 0.929 . S
H147 C176 0.930 . S
H148 C153 0.930 . S
H149 C157 0.930 . S
O150 Co119 2.037 . S
O150 C170 1.234 . S
C151 O125 1.269 . S
C151 O126 1.257 . S
C152 H127 0.930 . S
C152 C155 1.388 . S
C152 C157 1.418 . S
C153 H148 0.930 . S
C153 C156 1.404 . S
C153 C157 1.353 . S
N154 Co119 2.145 . S
N154 C155 1.397 . S
N154 C156 1.334 . S
C155 H136 0.929 . S
C155 C152 1.388 . S
C155 N154 1.397 . S
C156 H137 0.929 . S
C156 C153 1.404 . S
C156 N154 1.334 . S
C157 H149 0.930 . S
C157 C152 1.418 . S
C157 C153 1.353 . S
C158 H128 0.930 . S
C158 N159 1.330 . S
C158 C160 1.446 . S
N159 Co118 2.151 . S
N159 C158 1.330 . S
N159 C163 1.418 . S
C160 H139 0.929 . S
C160 C158 1.446 . S
C160 C161 1.332 . S
C161 H141 0.931 . S
C161 C160 1.332 . S
C161 C162 1.267 . S
C162 H130 0.929 . S
C162 C161 1.267 . S
C162 C163 1.251 . S
C163 H133 0.929 . S
C163 N159 1.418 . S
C163 C162 1.251 . S
C164 H131 0.930 . S
C164 C166 1.406 . S
C164 C169 1.261 . S
C165 H132 0.937 . S
C165 N167 1.329 1_455 S
C165 C168 1.348 1_455 S
C166 H134 0.928 . S
C166 C164 1.406 . S
C166 N167 1.261 . S
N167 Co118 2.214 . S
N167 C165 1.329 1_655 S
N167 C166 1.261 . S
C168 H138 0.931 1_665 S
C168 C165 1.348 1_655 S
C168 C169 1.313 . S
C169 H140 0.930 1_565 S
C169 C164 1.261 . S
C169 C168 1.313 . S
C170 O142 1.214 . S
C170 O150 1.234 . S
C171 H143 0.929 . S
C171 C174 1.391 . S
C171 C176 1.391 . S
C172 H144 0.929 . S
C172 C173 1.390 . S
C172 N175 1.391 . S
C173 H145 0.930 . S
C173 C172 1.390 . S
C173 C174 1.392 . S
C174 H146 0.929 . S
C174 C171 1.391 . S
C174 C173 1.392 . S
N175 Co119 2.257 . S
N175 C172 1.391 . S
N175 C176 1.388 . S
C176 H147 0.930 . S
C176 C171 1.391 . S
C176 N175 1.388 . S
Co177 O179 2.143 . S
Co177 O185 2.074 . S
Co177 O188 2.093 . S
Co177 O201 2.097 . S
Co177 N218 2.151 . S
Co177 N226 2.214 . S
Co178 O179 2.160 . S
Co178 O184 2.058 . S
Co178 O194 2.057 . S
Co178 O209 2.037 . S
Co178 N213 2.145 . S
Co178 N234 2.257 . S
O179 Co177 2.143 . S
O179 Co178 2.160 . S
C180 O181 1.278 . S
C180 O188 1.224 . S
O181 C180 1.278 . S
C182 O183 1.245 . S
C182 O194 1.232 . S
O183 C182 1.245 . S
O184 Co178 2.058 . S
O184 C210 1.269 . S
O185 Co177 2.074 . S
O185 C210 1.257 . S
H186 C211 0.930 . S
H187 C217 0.930 . S
O188 Co177 2.093 . S
O188 C180 1.224 . S
H189 C221 0.929 . S
H190 C223 0.930 . S
H191 C224 0.930 . S
H192 C222 0.929 . S
H193 C225 0.928 . S
O194 Co178 2.057 . S
O194 C182 1.232 . S
H195 C214 0.929 . S
H196 C215 0.929 . S
H197 C227 0.931 1_665 S
H198 C219 0.929 . S
H199 C228 0.930 1_665 S
H200 C220 0.931 . S
O201 Co177 2.097 . S
O201 C229 1.214 . S
H202 C230 0.929 . S
H203 C231 0.929 . S
H204 C232 0.930 . S
H205 C233 0.929 . S
H206 C235 0.930 . S
H207 C212 0.930 . S
H208 C216 0.930 . S
O209 Co178 2.037 . S
O209 C229 1.234 . S
C210 O184 1.269 . S
C210 O185 1.257 . S
C211 H186 0.930 . S
C211 C214 1.388 . S
C211 C216 1.418 . S
C212 H207 0.930 . S
C212 C215 1.404 . S
C212 C216 1.353 . S
N213 Co178 2.145 . S
N213 C214 1.397 . S
N213 C215 1.334 . S
C214 H195 0.929 . S
C214 C211 1.388 . S
C214 N213 1.397 . S
C215 H196 0.929 . S
C215 C212 1.404 . S
C215 N213 1.334 . S
C216 H208 0.930 . S
C216 C211 1.418 . S
C216 C212 1.353 . S
C217 H187 0.930 . S
C217 N218 1.330 . S
C217 C219 1.446 . S
N218 Co177 2.151 . S
N218 C217 1.330 . S
N218 C222 1.418 . S
C219 H198 0.929 . S
C219 C217 1.446 . S
C219 C220 1.332 . S
C220 H200 0.931 . S
C220 C219 1.332 . S
C220 C221 1.267 . S
C221 H189 0.929 . S
C221 C220 1.267 . S
C221 C222 1.251 . S
C222 H192 0.929 . S
C222 N218 1.418 . S
C222 C221 1.251 . S
C223 H190 0.930 . S
C223 C225 1.406 . S
C223 C228 1.261 . S
C224 H191 0.930 . S
C224 N226 1.325 . S
C224 C227 1.357 . S
C225 H193 0.928 . S
C225 C223 1.406 . S
C225 N226 1.261 . S
N226 Co177 2.214 . S
N226 C224 1.325 . S
N226 C225 1.261 . S
C227 H197 0.931 1_445 S
C227 C224 1.357 . S
C227 C228 1.312 . S
C228 H199 0.930 1_445 S
C228 C223 1.261 . S
C228 C227 1.312 . S
C229 O201 1.214 . S
C229 O209 1.234 . S
C230 H202 0.929 . S
C230 C233 1.391 . S
C230 C235 1.391 . S
C231 H203 0.929 . S
C231 C232 1.390 . S
C231 N234 1.391 . S
C232 H204 0.930 . S
C232 C231 1.390 . S
C232 C233 1.392 . S
C233 H205 0.929 . S
C233 C230 1.391 . S
C233 C232 1.392 . S
N234 Co178 2.257 . S
N234 C231 1.391 . S
N234 C235 1.388 . S
C235 H206 0.930 . S
C235 C230 1.391 . S
C235 N234 1.388 . S
Co236 O238 2.143 . S
Co236 O244 2.074 . S
Co236 O247 2.093 1_565 S
Co236 O260 2.097 1_565 S
Co236 N277 2.151 . S
Co236 N285 2.214 . S
Co237 O238 2.160 1_545 S
Co237 O243 2.058 1_545 S
Co237 O253 2.057 1_545 S
Co237 O268 2.037 . S
Co237 N272 2.145 . S
Co237 N293 2.257 . S
O238 Co236 2.143 . S
O238 Co237 2.160 1_565 S
C239 O240 1.278 . S
C239 O247 1.224 . S
O240 C239 1.278 . S
C241 O242 1.245 . S
C241 O253 1.232 . S
O242 C241 1.245 . S
O243 Co237 2.058 1_565 S
O243 C269 1.269 . S
O244 Co236 2.074 . S
O244 C269 1.257 . S
H245 C270 0.930 . S
H246 C276 0.930 . S
O247 Co236 2.093 1_545 S
O247 C239 1.224 . S
H248 C280 0.929 . S
H249 C282 0.930 . S
H250 C283 0.937 . S
H251 C281 0.929 . S
H252 C284 0.928 . S
O253 Co237 2.057 1_565 S
O253 C241 1.232 . S
H254 C273 0.929 . S
H255 C274 0.929 . S
H256 C286 0.931 1_445 S
H257 C278 0.929 . S
H258 C287 0.930 1_455 S
H259 C279 0.931 . S
O260 Co236 2.097 1_545 S
O260 C288 1.214 . S
H261 C289 0.929 . S
H262 C290 0.929 . S
H263 C291 0.930 . S
H264 C292 0.929 . S
H265 C294 0.930 . S
H266 C271 0.930 . S
H267 C275 0.930 . S
O268 Co237 2.037 . S
O268 C288 1.234 . S
C269 O243 1.269 . S
C269 O244 1.257 . S
C270 H245 0.930 . S
C270 C273 1.388 . S
C270 C275 1.418 . S
C271 H266 0.930 . S
C271 C274 1.404 . S
C271 C275 1.353 . S
N272 Co237 2.145 . S
N272 C273 1.397 . S
N272 C274 1.334 . S
C273 H254 0.929 . S
C273 C270 1.388 . S
C273 N272 1.397 . S
C274 H255 0.929 . S
C274 C271 1.404 . S
C274 N272 1.334 . S
C275 H267 0.930 . S
C275 C270 1.418 . S
C275 C271 1.353 . S
C276 H246 0.930 . S
C276 N277 1.330 . S
C276 C278 1.446 . S
N277 Co236 2.151 . S
N277 C276 1.330 . S
N277 C281 1.418 . S
C278 H257 0.929 . S
C278 C276 1.446 . S
C278 C279 1.332 . S
C279 H259 0.931 . S
C279 C278 1.332 . S
C279 C280 1.267 . S
C280 H248 0.929 . S
C280 C279 1.267 . S
C280 C281 1.251 . S
C281 H251 0.929 . S
C281 N277 1.418 . S
C281 C280 1.251 . S
C282 H249 0.930 . S
C282 C284 1.406 . S
C282 C287 1.261 . S
C283 H250 0.937 . S
C283 N285 1.329 1_545 S
C283 C286 1.348 1_545 S
C284 H252 0.928 . S
C284 C282 1.406 . S
C284 N285 1.261 . S
N285 Co236 2.214 . S
N285 C283 1.329 1_565 S
N285 C284 1.261 . S
C286 H256 0.931 1_665 S
C286 C283 1.348 1_565 S
C286 C287 1.313 . S
C287 H258 0.930 1_655 S
C287 C282 1.261 . S
C287 C286 1.313 . S
C288 O260 1.214 . S
C288 O268 1.234 . S
C289 H261 0.929 . S
C289 C292 1.391 . S
C289 C294 1.391 . S
C290 H262 0.929 . S
C290 C291 1.390 . S
C290 N293 1.391 . S
C291 H263 0.930 . S
C291 C290 1.390 . S
C291 C292 1.392 . S
C292 H264 0.929 . S
C292 C289 1.391 . S
C292 C291 1.392 . S
N293 Co237 2.257 . S
N293 C290 1.391 . S
N293 C294 1.388 . S
C294 H265 0.930 . S
C294 C289 1.391 . S
C294 N293 1.388 . S
Co295 O297 2.143 . S
Co295 O303 2.074 . S
Co295 O306 2.093 1_455 S
Co295 O319 2.097 1_455 S
Co295 N336 2.151 . S
Co295 N344 2.214 . S
Co296 O297 2.160 1_655 S
Co296 O302 2.058 1_655 S
Co296 O312 2.057 1_655 S
Co296 O327 2.037 . S
Co296 N331 2.145 . S
Co296 N352 2.257 . S
O297 Co295 2.143 . S
O297 Co296 2.160 1_455 S
C298 O299 1.278 . S
C298 O306 1.224 . S
O299 C298 1.278 . S
C300 O301 1.245 . S
C300 O312 1.232 . S
O301 C300 1.245 . S
O302 Co296 2.058 1_455 S
O302 C328 1.269 . S
O303 Co295 2.074 . S
O303 C328 1.257 . S
H304 C329 0.930 . S
H305 C335 0.930 . S
O306 Co295 2.093 1_655 S
O306 C298 1.224 . S
H307 C339 0.929 . S
H308 C341 0.930 . S
H309 C342 0.927 1_655 S
H310 C340 0.929 . S
H311 C343 0.928 . S
O312 Co296 2.057 1_455 S
O312 C300 1.232 . S
H313 C332 0.929 . S
H314 C333 0.929 . S
H315 C345 0.931 1_645 S
H316 C337 0.929 . S
H317 C346 0.930 1_545 S
H318 C338 0.931 . S
O319 Co295 2.097 1_655 S
O319 C347 1.214 . S
H320 C348 0.929 . S
H321 C349 0.929 . S
H322 C350 0.930 . S
H323 C351 0.929 . S
H324 C353 0.930 . S
H325 C330 0.930 . S
H326 C334 0.930 . S
O327 Co296 2.037 . S
O327 C347 1.234 . S
C328 O302 1.269 . S
C328 O303 1.257 . S
C329 H304 0.930 . S
C329 C332 1.388 . S
C329 C334 1.418 . S
C330 H325 0.930 . S
C330 C333 1.404 . S
C330 C334 1.353 . S
N331 Co296 2.145 . S
N331 C332 1.397 . S
N331 C333 1.334 . S
C332 H313 0.929 . S
C332 C329 1.388 . S
C332 N331 1.397 . S
C333 H314 0.929 . S
C333 C330 1.404 . S
C333 N331 1.334 . S
C334 H326 0.930 . S
C334 C329 1.418 . S
C334 C330 1.353 . S
C335 H305 0.930 . S
C335 N336 1.330 . S
C335 C337 1.446 . S
N336 Co295 2.151 . S
N336 C335 1.330 . S
N336 C340 1.418 . S
C337 H316 0.929 . S
C337 C335 1.446 . S
C337 C338 1.332 . S
C338 H318 0.931 . S
C338 C337 1.332 . S
C338 C339 1.267 . S
C339 H307 0.929 . S
C339 C338 1.267 . S
C339 C340 1.251 . S
C340 H310 0.929 . S
C340 N336 1.418 . S
C340 C339 1.251 . S
C341 H308 0.930 . S
C341 C343 1.406 . S
C341 C346 1.261 . S
C342 H309 0.927 1_455 S
C342 N344 1.334 . S
C342 C345 1.351 . S
C343 H311 0.928 . S
C343 C341 1.406 . S
C343 N344 1.261 . S
N344 Co295 2.214 . S
N344 C342 1.334 . S
N344 C343 1.261 . S
C345 H315 0.931 1_465 S
C345 C342 1.351 . S
C345 C346 1.312 . S
C346 H317 0.930 1_565 S
C346 C341 1.261 . S
C346 C345 1.312 . S
C347 O319 1.214 . S
C347 O327 1.234 . S
C348 H320 0.929 . S
C348 C351 1.391 . S
C348 C353 1.391 . S
C349 H321 0.929 . S
C349 C350 1.390 . S
C349 N352 1.391 . S
C350 H322 0.930 . S
C350 C349 1.390 . S
C350 C351 1.392 . S
C351 H323 0.929 . S
C351 C348 1.391 . S
C351 C350 1.392 . S
N352 Co296 2.257 . S
N352 C349 1.391 . S
N352 C353 1.388 . S
C353 H324 0.930 . S
C353 C348 1.391 . S
C353 N352 1.388 . S
Co354 O356 2.143 . S
Co354 O362 2.074 . S
Co354 O365 2.093 . S
Co354 O378 2.097 . S
Co354 N395 2.151 . S
Co354 N403 2.214 . S
Co355 O356 2.160 . S
Co355 O361 2.058 . S
Co355 O371 2.057 . S
Co355 O386 2.037 . S
Co355 N390 2.145 . S
Co355 N411 2.257 . S
O356 Co354 2.143 . S
O356 Co355 2.160 . S
C357 O358 1.278 . S
C357 O365 1.224 . S
O358 C357 1.278 . S
C359 O360 1.245 . S
C359 O371 1.232 . S
O360 C359 1.245 . S
O361 Co355 2.058 . S
O361 C387 1.269 . S
O362 Co354 2.074 . S
O362 C387 1.257 . S
H363 C388 0.930 . S
H364 C394 0.930 . S
O365 Co354 2.093 . S
O365 C357 1.224 . S
H366 C398 0.929 . S
H367 C400 0.930 . S
H368 C401 0.930 . S
H369 C399 0.929 . S
H370 C402 0.928 . S
O371 Co355 2.057 . S
O371 C359 1.232 . S
H372 C391 0.929 . S
H373 C392 0.929 . S
H374 C404 0.931 . S
H375 C396 0.929 . S
H376 C405 0.930 . S
H377 C397 0.931 . S
O378 Co354 2.097 . S
O378 C406 1.214 . S
H379 C407 0.929 . S
H380 C408 0.929 . S
H381 C409 0.930 . S
H382 C410 0.929 . S
H383 C412 0.930 . S
H384 C389 0.930 . S
H385 C393 0.930 . S
O386 Co355 2.037 . S
O386 C406 1.234 . S
C387 O361 1.269 . S
C387 O362 1.257 . S
C388 H363 0.930 . S
C388 C391 1.388 . S
C388 C393 1.418 . S
C389 H384 0.930 . S
C389 C392 1.404 . S
C389 C393 1.353 . S
N390 Co355 2.145 . S
N390 C391 1.397 . S
N390 C392 1.334 . S
C391 H372 0.929 . S
C391 C388 1.388 . S
C391 N390 1.397 . S
C392 H373 0.929 . S
C392 C389 1.404 . S
C392 N390 1.334 . S
C393 H385 0.930 . S
C393 C388 1.418 . S
C393 C389 1.353 . S
C394 H364 0.930 . S
C394 N395 1.330 . S
C394 C396 1.446 . S
N395 Co354 2.151 . S
N395 C394 1.330 . S
N395 C399 1.418 . S
C396 H375 0.929 . S
C396 C394 1.446 . S
C396 C397 1.332 . S
C397 H377 0.931 . S
C397 C396 1.332 . S
C397 C398 1.267 . S
C398 H366 0.929 . S
C398 C397 1.267 . S
C398 C399 1.251 . S
C399 H369 0.929 . S
C399 N395 1.418 . S
C399 C398 1.251 . S
C400 H367 0.930 . S
C400 C402 1.406 . S
C400 C405 1.261 . S
C401 H368 0.930 . S
C401 N403 1.325 . S
C401 C404 1.357 . S
C402 H370 0.928 . S
C402 C400 1.406 . S
C402 N403 1.261 . S
N403 Co354 2.214 . S
N403 C401 1.325 . S
N403 C402 1.261 . S
C404 H374 0.931 . S
C404 C401 1.357 . S
C404 C405 1.312 . S
C405 H376 0.930 . S
C405 C400 1.261 . S
C405 C404 1.312 . S
C406 O378 1.214 . S
C406 O386 1.234 . S
C407 H379 0.929 . S
C407 C410 1.391 . S
C407 C412 1.391 . S
C408 H380 0.929 . S
C408 C409 1.390 . S
C408 N411 1.391 . S
C409 H381 0.930 . S
C409 C408 1.390 . S
C409 C410 1.392 . S
C410 H382 0.929 . S
C410 C407 1.391 . S
C410 C409 1.392 . S
N411 Co355 2.257 . S
N411 C408 1.391 . S
N411 C412 1.388 . S
C412 H383 0.930 . S
C412 C407 1.391 . S
C412 N411 1.388 . S
Co413 O415 2.143 . S
Co413 O421 2.074 . S
Co413 O424 2.093 . S
Co413 O437 2.097 . S
Co413 N454 2.151 . S
Co413 N462 2.214 . S
Co414 O415 2.160 . S
Co414 O420 2.058 . S
Co414 O430 2.057 . S
Co414 O445 2.037 . S
Co414 N449 2.145 . S
Co414 N470 2.257 . S
O415 Co413 2.143 . S
O415 Co414 2.160 . S
C416 O417 1.278 . S
C416 O424 1.224 . S
O417 C416 1.278 . S
C418 O419 1.245 . S
C418 O430 1.232 . S
O419 C418 1.245 . S
O420 Co414 2.058 . S
O420 C446 1.269 . S
O421 Co413 2.074 . S
O421 C446 1.257 . S
H422 C447 0.930 . S
H423 C453 0.930 . S
O424 Co413 2.093 . S
O424 C416 1.224 . S
H425 C457 0.929 . S
H426 C459 0.930 . S
H427 C460 0.930 . S
H428 C458 0.929 . S
H429 C461 0.928 . S
O430 Co414 2.057 . S
O430 C418 1.232 . S
H431 C450 0.929 . S
H432 C451 0.929 . S
H433 C463 0.931 . S
H434 C455 0.929 . S
H435 C464 0.930 . S
H436 C456 0.931 . S
O437 Co413 2.097 . S
O437 C465 1.214 . S
H438 C466 0.929 . S
H439 C467 0.929 . S
H440 C468 0.930 . S
H441 C469 0.929 . S
H442 C471 0.930 . S
H443 C448 0.930 . S
H444 C452 0.930 . S
O445 Co414 2.037 . S
O445 C465 1.234 . S
C446 O420 1.269 . S
C446 O421 1.257 . S
C447 H422 0.930 . S
C447 C450 1.388 . S
C447 C452 1.418 . S
C448 H443 0.930 . S
C448 C451 1.404 . S
C448 C452 1.353 . S
N449 Co414 2.145 . S
N449 C450 1.397 . S
N449 C451 1.334 . S
C450 H431 0.929 . S
C450 C447 1.388 . S
C450 N449 1.397 . S
C451 H432 0.929 . S
C451 C448 1.404 . S
C451 N449 1.334 . S
C452 H444 0.930 . S
C452 C447 1.418 . S
C452 C448 1.353 . S
C453 H423 0.930 . S
C453 N454 1.330 . S
C453 C455 1.446 . S
N454 Co413 2.151 . S
N454 C453 1.330 . S
N454 C458 1.418 . S
C455 H434 0.929 . S
C455 C453 1.446 . S
C455 C456 1.332 . S
C456 H436 0.931 . S
C456 C455 1.332 . S
C456 C457 1.267 . S
C457 H425 0.929 . S
C457 C456 1.267 . S
C457 C458 1.251 . S
C458 H428 0.929 . S
C458 N454 1.418 . S
C458 C457 1.251 . S
C459 H426 0.930 . S
C459 C461 1.406 . S
C459 C464 1.261 . S
C460 H427 0.930 . S
C460 N462 1.325 . S
C460 C463 1.357 . S
C461 H429 0.928 . S
C461 C459 1.406 . S
C461 N462 1.261 . S
N462 Co413 2.214 . S
N462 C460 1.325 . S
N462 C461 1.261 . S
C463 H433 0.931 . S
C463 C460 1.357 . S
C463 C464 1.312 . S
C464 H435 0.930 . S
C464 C459 1.261 . S
C464 C463 1.312 . S
C465 O437 1.214 . S
C465 O445 1.234 . S
C466 H438 0.929 . S
C466 C469 1.391 . S
C466 C471 1.391 . S
C467 H439 0.929 . S
C467 C468 1.390 . S
C467 N470 1.391 . S
C468 H440 0.930 . S
C468 C467 1.390 . S
C468 C469 1.392 . S
C469 H441 0.929 . S
C469 C466 1.391 . S
C469 C468 1.392 . S
N470 Co414 2.257 . S
N470 C467 1.391 . S
N470 C471 1.388 . S
C471 H442 0.930 . S
C471 C466 1.391 . S
C471 N470 1.388 . S
Co472 O474 2.143 . S
Co472 O480 2.074 . S
Co472 O483 2.093 . S
Co472 O496 2.097 . S
Co472 N513 2.151 . S
Co472 N521 2.214 . S
Co473 O474 2.160 . S
Co473 O479 2.058 . S
Co473 O489 2.057 . S
Co473 O504 2.037 . S
Co473 N508 2.145 . S
Co473 N529 2.257 . S
O474 Co472 2.143 . S
O474 Co473 2.160 . S
C475 O476 1.278 . S
C475 O483 1.224 . S
O476 C475 1.278 . S
C477 O478 1.245 . S
C477 O489 1.232 . S
O478 C477 1.245 . S
O479 Co473 2.058 . S
O479 C505 1.269 . S
O480 Co472 2.074 . S
O480 C505 1.257 . S
H481 C506 0.930 . S
H482 C512 0.930 . S
O483 Co472 2.093 . S
O483 C475 1.224 . S
H484 C516 0.929 . S
H485 C518 0.930 . S
H486 C519 0.930 . S
H487 C517 0.929 . S
H488 C520 0.928 . S
O489 Co473 2.057 . S
O489 C477 1.232 . S
H490 C509 0.929 . S
H491 C510 0.929 . S
H492 C522 0.931 . S
H493 C514 0.929 . S
H494 C523 0.930 . S
H495 C515 0.931 . S
O496 Co472 2.097 . S
O496 C524 1.214 . S
H497 C525 0.929 . S
H498 C526 0.929 . S
H499 C527 0.930 . S
H500 C528 0.929 . S
H501 C530 0.930 . S
H502 C507 0.930 . S
H503 C511 0.930 . S
O504 Co473 2.037 . S
O504 C524 1.234 . S
C505 O479 1.269 . S
C505 O480 1.257 . S
C506 H481 0.930 . S
C506 C509 1.388 . S
C506 C511 1.418 . S
C507 H502 0.930 . S
C507 C510 1.404 . S
C507 C511 1.353 . S
N508 Co473 2.145 . S
N508 C509 1.397 . S
N508 C510 1.334 . S
C509 H490 0.929 . S
C509 C506 1.388 . S
C509 N508 1.397 . S
C510 H491 0.929 . S
C510 C507 1.404 . S
C510 N508 1.334 . S
C511 H503 0.930 . S
C511 C506 1.418 . S
C511 C507 1.353 . S
C512 H482 0.930 . S
C512 N513 1.330 . S
C512 C514 1.446 . S
N513 Co472 2.151 . S
N513 C512 1.330 . S
N513 C517 1.418 . S
C514 H493 0.929 . S
C514 C512 1.446 . S
C514 C515 1.332 . S
C515 H495 0.931 . S
C515 C514 1.332 . S
C515 C516 1.267 . S
C516 H484 0.929 . S
C516 C515 1.267 . S
C516 C517 1.251 . S
C517 H487 0.929 . S
C517 N513 1.418 . S
C517 C516 1.251 . S
C518 H485 0.930 . S
C518 C520 1.406 . S
C518 C523 1.261 . S
C519 H486 0.930 . S
C519 N521 1.325 . S
C519 C522 1.357 . S
C520 H488 0.928 . S
C520 C518 1.406 . S
C520 N521 1.261 . S
N521 Co472 2.214 . S
N521 C519 1.325 . S
N521 C520 1.261 . S
C522 H492 0.931 . S
C522 C519 1.357 . S
C522 C523 1.312 . S
C523 H494 0.930 . S
C523 C518 1.261 . S
C523 C522 1.312 . S
C524 O496 1.214 . S
C524 O504 1.234 . S
C525 H497 0.929 . S
C525 C528 1.391 . S
C525 C530 1.391 . S
C526 H498 0.929 . S
C526 C527 1.390 . S
C526 N529 1.391 . S
C527 H499 0.930 . S
C527 C526 1.390 . S
C527 C528 1.392 . S
C528 H500 0.929 . S
C528 C525 1.391 . S
C528 C527 1.392 . S
N529 Co473 2.257 . S
N529 C526 1.391 . S
N529 C530 1.388 . S
C530 H501 0.930 . S
C530 C525 1.391 . S
C530 N529 1.388 . S
Co531 O533 2.143 . S
Co531 O539 2.074 . S
Co531 O542 2.093 . S
Co531 O555 2.097 . S
Co531 N572 2.151 . S
Co531 N580 2.214 . S
Co532 O533 2.160 . S
Co532 O538 2.058 . S
Co532 O548 2.057 . S
Co532 O563 2.037 . S
Co532 N567 2.145 . S
Co532 N588 2.257 . S
O533 Co531 2.143 . S
O533 Co532 2.160 . S
C534 O535 1.278 . S
C534 O542 1.224 . S
O535 C534 1.278 . S
C536 O537 1.245 . S
C536 O548 1.232 . S
O537 C536 1.245 . S
O538 Co532 2.058 . S
O538 C564 1.269 . S
O539 Co531 2.074 . S
O539 C564 1.257 . S
H540 C565 0.930 . S
H541 C571 0.930 . S
O542 Co531 2.093 . S
O542 C534 1.224 . S
H543 C575 0.929 . S
H544 C577 0.930 . S
H545 C578 0.930 . S
H546 C576 0.929 . S
H547 C579 0.928 . S
O548 Co532 2.057 . S
O548 C536 1.232 . S
H549 C568 0.929 . S
H550 C569 0.929 . S
H551 C581 0.931 . S
H552 C573 0.929 . S
H553 C582 0.930 . S
H554 C574 0.931 . S
O555 Co531 2.097 . S
O555 C583 1.214 . S
H556 C584 0.929 . S
H557 C585 0.929 . S
H558 C586 0.930 . S
H559 C587 0.929 . S
H560 C589 0.930 . S
H561 C566 0.930 . S
H562 C570 0.930 . S
O563 Co532 2.037 . S
O563 C583 1.234 . S
C564 O538 1.269 . S
C564 O539 1.257 . S
C565 H540 0.930 . S
C565 C568 1.388 . S
C565 C570 1.418 . S
C566 H561 0.930 . S
C566 C569 1.404 . S
C566 C570 1.353 . S
N567 Co532 2.145 . S
N567 C568 1.397 . S
N567 C569 1.334 . S
C568 H549 0.929 . S
C568 C565 1.388 . S
C568 N567 1.397 . S
C569 H550 0.929 . S
C569 C566 1.404 . S
C569 N567 1.334 . S
C570 H562 0.930 . S
C570 C565 1.418 . S
C570 C566 1.353 . S
C571 H541 0.930 . S
C571 N572 1.330 . S
C571 C573 1.446 . S
N572 Co531 2.151 . S
N572 C571 1.330 . S
N572 C576 1.418 . S
C573 H552 0.929 . S
C573 C571 1.446 . S
C573 C574 1.332 . S
C574 H554 0.931 . S
C574 C573 1.332 . S
C574 C575 1.267 . S
C575 H543 0.929 . S
C575 C574 1.267 . S
C575 C576 1.251 . S
C576 H546 0.929 . S
C576 N572 1.418 . S
C576 C575 1.251 . S
C577 H544 0.930 . S
C577 C579 1.406 . S
C577 C582 1.261 . S
C578 H545 0.930 . S
C578 N580 1.325 . S
C578 C581 1.357 . S
C579 H547 0.928 . S
C579 C577 1.406 . S
C579 N580 1.261 . S
N580 Co531 2.214 . S
N580 C578 1.325 . S
N580 C579 1.261 . S
C581 H551 0.931 . S
C581 C578 1.357 . S
C581 C582 1.312 . S
C582 H553 0.930 . S
C582 C577 1.261 . S
C582 C581 1.312 . S
C583 O555 1.214 . S
C583 O563 1.234 . S
C584 H556 0.929 . S
C584 C587 1.391 . S
C584 C589 1.391 . S
C585 H557 0.929 . S
C585 C586 1.390 . S
C585 N588 1.391 . S
C586 H558 0.930 . S
C586 C585 1.390 . S
C586 C587 1.392 . S
C587 H559 0.929 . S
C587 C584 1.391 . S
C587 C586 1.392 . S
N588 Co532 2.257 . S
N588 C585 1.391 . S
N588 C589 1.388 . S
C589 H560 0.930 . S
C589 C584 1.391 . S
C589 N588 1.388 . S
Co590 O592 2.143 . S
Co590 O598 2.074 . S
Co590 O601 2.093 . S
Co590 O614 2.097 . S
Co590 N631 2.151 . S
Co590 N639 2.214 . S
Co591 O592 2.160 . S
Co591 O597 2.058 . S
Co591 O607 2.057 . S
Co591 O622 2.037 . S
Co591 N626 2.145 . S
Co591 N647 2.257 . S
O592 Co590 2.143 . S
O592 Co591 2.160 . S
C593 O594 1.278 . S
C593 O601 1.224 . S
O594 C593 1.278 . S
C595 O596 1.245 . S
C595 O607 1.232 . S
O596 C595 1.245 . S
O597 Co591 2.058 . S
O597 C623 1.269 . S
O598 Co590 2.074 . S
O598 C623 1.257 . S
H599 C624 0.930 . S
H600 C630 0.930 . S
O601 Co590 2.093 . S
O601 C593 1.224 . S
H602 C634 0.929 . S
H603 C636 0.930 . S
H604 C637 0.930 . S
H605 C635 0.929 . S
H606 C638 0.928 . S
O607 Co591 2.057 . S
O607 C595 1.232 . S
H608 C627 0.929 . S
H609 C628 0.929 . S
H610 C640 0.931 . S
H611 C632 0.929 . S
H612 C641 0.930 . S
H613 C633 0.931 . S
O614 Co590 2.097 . S
O614 C642 1.214 . S
H615 C643 0.929 . S
H616 C644 0.929 . S
H617 C645 0.930 . S
H618 C646 0.929 . S
H619 C648 0.930 . S
H620 C625 0.930 . S
H621 C629 0.930 . S
O622 Co591 2.037 . S
O622 C642 1.234 . S
C623 O597 1.269 . S
C623 O598 1.257 . S
C624 H599 0.930 . S
C624 C627 1.388 . S
C624 C629 1.418 . S
C625 H620 0.930 . S
C625 C628 1.404 . S
C625 C629 1.353 . S
N626 Co591 2.145 . S
N626 C627 1.397 . S
N626 C628 1.334 . S
C627 H608 0.929 . S
C627 C624 1.388 . S
C627 N626 1.397 . S
C628 H609 0.929 . S
C628 C625 1.404 . S
C628 N626 1.334 . S
C629 H621 0.930 . S
C629 C624 1.418 . S
C629 C625 1.353 . S
C630 H600 0.930 . S
C630 N631 1.330 . S
C630 C632 1.446 . S
N631 Co590 2.151 . S
N631 C630 1.330 . S
N631 C635 1.418 . S
C632 H611 0.929 . S
C632 C630 1.446 . S
C632 C633 1.332 . S
C633 H613 0.931 . S
C633 C632 1.332 . S
C633 C634 1.267 . S
C634 H602 0.929 . S
C634 C633 1.267 . S
C634 C635 1.251 . S
C635 H605 0.929 . S
C635 N631 1.418 . S
C635 C634 1.251 . S
C636 H603 0.930 . S
C636 C638 1.406 . S
C636 C641 1.261 . S
C637 H604 0.930 . S
C637 N639 1.325 . S
C637 C640 1.357 . S
C638 H606 0.928 . S
C638 C636 1.406 . S
C638 N639 1.261 . S
N639 Co590 2.214 . S
N639 C637 1.325 . S
N639 C638 1.261 . S
C640 H610 0.931 . S
C640 C637 1.357 . S
C640 C641 1.312 . S
C641 H612 0.930 . S
C641 C636 1.261 . S
C641 C640 1.312 . S
C642 O614 1.214 . S
C642 O622 1.234 . S
C643 H615 0.929 . S
C643 C646 1.391 . S
C643 C648 1.391 . S
C644 H616 0.929 . S
C644 C645 1.390 . S
C644 N647 1.391 . S
C645 H617 0.930 . S
C645 C644 1.390 . S
C645 C646 1.392 . S
C646 H618 0.929 . S
C646 C643 1.391 . S
C646 C645 1.392 . S
N647 Co591 2.257 . S
N647 C644 1.391 . S
N647 C648 1.388 . S
C648 H619 0.930 . S
C648 C643 1.391 . S
C648 N647 1.388 . S
Co649 O651 2.143 . S
Co649 O657 2.074 . S
Co649 O660 2.093 . S
Co649 O673 2.097 . S
Co649 N690 2.151 . S
Co649 N698 2.214 . S
Co650 O651 2.160 . S
Co650 O656 2.058 . S
Co650 O666 2.057 . S
Co650 O681 2.037 . S
Co650 N685 2.145 . S
Co650 N706 2.257 . S
O651 Co649 2.143 . S
O651 Co650 2.160 . S
C652 O653 1.278 . S
C652 O660 1.224 . S
O653 C652 1.278 . S
C654 O655 1.245 . S
C654 O666 1.232 . S
O655 C654 1.245 . S
O656 Co650 2.058 . S
O656 C682 1.269 . S
O657 Co649 2.074 . S
O657 C682 1.257 . S
H658 C683 0.930 . S
H659 C689 0.930 . S
O660 Co649 2.093 . S
O660 C652 1.224 . S
H661 C693 0.929 . S
H662 C695 0.930 . S
H663 C696 0.930 . S
H664 C694 0.929 . S
H665 C697 0.928 . S
O666 Co650 2.057 . S
O666 C654 1.232 . S
H667 C686 0.929 . S
H668 C687 0.929 . S
H669 C699 0.931 . S
H670 C691 0.929 . S
H671 C700 0.930 . S
H672 C692 0.931 . S
O673 Co649 2.097 . S
O673 C701 1.214 . S
H674 C702 0.929 . S
H675 C703 0.929 . S
H676 C704 0.930 . S
H677 C705 0.929 . S
H678 C707 0.930 . S
H679 C684 0.930 . S
H680 C688 0.930 . S
O681 Co650 2.037 . S
O681 C701 1.234 . S
C682 O656 1.269 . S
C682 O657 1.257 . S
C683 H658 0.930 . S
C683 C686 1.388 . S
C683 C688 1.418 . S
C684 H679 0.930 . S
C684 C687 1.404 . S
C684 C688 1.353 . S
N685 Co650 2.145 . S
N685 C686 1.397 . S
N685 C687 1.334 . S
C686 H667 0.929 . S
C686 C683 1.388 . S
C686 N685 1.397 . S
C687 H668 0.929 . S
C687 C684 1.404 . S
C687 N685 1.334 . S
C688 H680 0.930 . S
C688 C683 1.418 . S
C688 C684 1.353 . S
C689 H659 0.930 . S
C689 N690 1.330 . S
C689 C691 1.446 . S
N690 Co649 2.151 . S
N690 C689 1.330 . S
N690 C694 1.418 . S
C691 H670 0.929 . S
C691 C689 1.446 . S
C691 C692 1.332 . S
C692 H672 0.931 . S
C692 C691 1.332 . S
C692 C693 1.267 . S
C693 H661 0.929 . S
C693 C692 1.267 . S
C693 C694 1.251 . S
C694 H664 0.929 . S
C694 N690 1.418 . S
C694 C693 1.251 . S
C695 H662 0.930 . S
C695 C697 1.406 . S
C695 C700 1.261 . S
C696 H663 0.930 . S
C696 N698 1.325 . S
C696 C699 1.357 . S
C697 H665 0.928 . S
C697 C695 1.406 . S
C697 N698 1.261 . S
N698 Co649 2.214 . S
N698 C696 1.325 . S
N698 C697 1.261 . S
C699 H669 0.931 . S
C699 C696 1.357 . S
C699 C700 1.312 . S
C700 H671 0.930 . S
C700 C695 1.261 . S
C700 C699 1.312 . S
C701 O673 1.214 . S
C701 O681 1.234 . S
C702 H674 0.929 . S
C702 C705 1.391 . S
C702 C707 1.391 . S
C703 H675 0.929 . S
C703 C704 1.390 . S
C703 N706 1.391 . S
C704 H676 0.930 . S
C704 C703 1.390 . S
C704 C705 1.392 . S
C705 H677 0.929 . S
C705 C702 1.391 . S
C705 C704 1.392 . S
N706 Co650 2.257 . S
N706 C703 1.391 . S
N706 C707 1.388 . S
C707 H678 0.930 . S
C707 C702 1.391 . S
C707 N706 1.388 . S
Co708 O710 2.143 . S
Co708 O716 2.074 . S
Co708 O719 2.093 . S
Co708 O732 2.097 . S
Co708 N749 2.151 . S
Co708 N757 2.214 . S
Co709 O710 2.160 . S
Co709 O715 2.058 . S
Co709 O725 2.057 . S
Co709 O740 2.037 . S
Co709 N744 2.145 . S
Co709 N765 2.257 . S
O710 Co708 2.143 . S
O710 Co709 2.160 . S
C711 O712 1.278 . S
C711 O719 1.224 . S
O712 C711 1.278 . S
C713 O714 1.245 . S
C713 O725 1.232 . S
O714 C713 1.245 . S
O715 Co709 2.058 . S
O715 C741 1.269 . S
O716 Co708 2.074 . S
O716 C741 1.257 . S
H717 C742 0.930 . S
H718 C748 0.930 . S
O719 Co708 2.093 . S
O719 C711 1.224 . S
H720 C752 0.929 . S
H721 C754 0.930 . S
H722 C755 0.930 . S
H723 C753 0.929 . S
H724 C756 0.928 . S
O725 Co709 2.057 . S
O725 C713 1.232 . S
H726 C745 0.929 . S
H727 C746 0.929 . S
H728 C758 0.931 . S
H729 C750 0.929 . S
H730 C759 0.930 . S
H731 C751 0.931 . S
O732 Co708 2.097 . S
O732 C760 1.214 . S
H733 C761 0.929 . S
H734 C762 0.929 . S
H735 C763 0.930 . S
H736 C764 0.929 . S
H737 C766 0.930 . S
H738 C743 0.930 . S
H739 C747 0.930 . S
O740 Co709 2.037 . S
O740 C760 1.234 . S
C741 O715 1.269 . S
C741 O716 1.257 . S
C742 H717 0.930 . S
C742 C745 1.388 . S
C742 C747 1.418 . S
C743 H738 0.930 . S
C743 C746 1.404 . S
C743 C747 1.353 . S
N744 Co709 2.145 . S
N744 C745 1.397 . S
N744 C746 1.334 . S
C745 H726 0.929 . S
C745 C742 1.388 . S
C745 N744 1.397 . S
C746 H727 0.929 . S
C746 C743 1.404 . S
C746 N744 1.334 . S
C747 H739 0.930 . S
C747 C742 1.418 . S
C747 C743 1.353 . S
C748 H718 0.930 . S
C748 N749 1.330 . S
C748 C750 1.446 . S
N749 Co708 2.151 . S
N749 C748 1.330 . S
N749 C753 1.418 . S
C750 H729 0.929 . S
C750 C748 1.446 . S
C750 C751 1.332 . S
C751 H731 0.931 . S
C751 C750 1.332 . S
C751 C752 1.267 . S
C752 H720 0.929 . S
C752 C751 1.267 . S
C752 C753 1.251 . S
C753 H723 0.929 . S
C753 N749 1.418 . S
C753 C752 1.251 . S
C754 H721 0.930 . S
C754 C756 1.406 . S
C754 C759 1.261 . S
C755 H722 0.930 . S
C755 N757 1.325 . S
C755 C758 1.357 . S
C756 H724 0.928 . S
C756 C754 1.406 . S
C756 N757 1.261 . S
N757 Co708 2.214 . S
N757 C755 1.325 . S
N757 C756 1.261 . S
C758 H728 0.931 . S
C758 C755 1.357 . S
C758 C759 1.312 . S
C759 H730 0.930 . S
C759 C754 1.261 . S
C759 C758 1.312 . S
C760 O732 1.214 . S
C760 O740 1.234 . S
C761 H733 0.929 . S
C761 C764 1.391 . S
C761 C766 1.391 . S
C762 H734 0.929 . S
C762 C763 1.390 . S
C762 N765 1.391 . S
C763 H735 0.930 . S
C763 C762 1.390 . S
C763 C764 1.392 . S
C764 H736 0.929 . S
C764 C761 1.391 . S
C764 C763 1.392 . S
N765 Co709 2.257 . S
N765 C762 1.391 . S
N765 C766 1.388 . S
C766 H737 0.930 . S
C766 C761 1.391 . S
C766 N765 1.388 . S
Co767 O769 2.143 . S
Co767 O775 2.074 . S
Co767 O778 2.093 . S
Co767 O791 2.097 . S
Co767 N808 2.151 . S
Co767 N816 2.214 . S
Co768 O769 2.160 . S
Co768 O774 2.058 . S
Co768 O784 2.057 . S
Co768 O799 2.037 . S
Co768 N803 2.145 . S
Co768 N824 2.257 . S
O769 Co767 2.143 . S
O769 Co768 2.160 . S
C770 O771 1.278 . S
C770 O778 1.224 . S
O771 C770 1.278 . S
C772 O773 1.245 . S
C772 O784 1.232 . S
O773 C772 1.245 . S
O774 Co768 2.058 . S
O774 C800 1.269 . S
O775 Co767 2.074 . S
O775 C800 1.257 . S
H776 C801 0.930 . S
H777 C807 0.930 . S
O778 Co767 2.093 . S
O778 C770 1.224 . S
H779 C811 0.929 . S
H780 C813 0.930 . S
H781 C814 0.930 . S
H782 C812 0.929 . S
H783 C815 0.928 . S
O784 Co768 2.057 . S
O784 C772 1.232 . S
H785 C804 0.929 . S
H786 C805 0.929 . S
H787 C817 0.931 . S
H788 C809 0.929 . S
H789 C818 0.930 . S
H790 C810 0.931 . S
O791 Co767 2.097 . S
O791 C819 1.214 . S
H792 C820 0.929 . S
H793 C821 0.929 . S
H794 C822 0.930 . S
H795 C823 0.929 . S
H796 C825 0.930 . S
H797 C802 0.930 . S
H798 C806 0.930 . S
O799 Co768 2.037 . S
O799 C819 1.234 . S
C800 O774 1.269 . S
C800 O775 1.257 . S
C801 H776 0.930 . S
C801 C804 1.388 . S
C801 C806 1.418 . S
C802 H797 0.930 . S
C802 C805 1.404 . S
C802 C806 1.353 . S
N803 Co768 2.145 . S
N803 C804 1.397 . S
N803 C805 1.334 . S
C804 H785 0.929 . S
C804 C801 1.388 . S
C804 N803 1.397 . S
C805 H786 0.929 . S
C805 C802 1.404 . S
C805 N803 1.334 . S
C806 H798 0.930 . S
C806 C801 1.418 . S
C806 C802 1.353 . S
C807 H777 0.930 . S
C807 N808 1.330 . S
C807 C809 1.446 . S
N808 Co767 2.151 . S
N808 C807 1.330 . S
N808 C812 1.418 . S
C809 H788 0.929 . S
C809 C807 1.446 . S
C809 C810 1.332 . S
C810 H790 0.931 . S
C810 C809 1.332 . S
C810 C811 1.267 . S
C811 H779 0.929 . S
C811 C810 1.267 . S
C811 C812 1.251 . S
C812 H782 0.929 . S
C812 N808 1.418 . S
C812 C811 1.251 . S
C813 H780 0.930 . S
C813 C815 1.406 . S
C813 C818 1.261 . S
C814 H781 0.930 . S
C814 N816 1.325 . S
C814 C817 1.357 . S
C815 H783 0.928 . S
C815 C813 1.406 . S
C815 N816 1.261 . S
N816 Co767 2.214 . S
N816 C814 1.325 . S
N816 C815 1.261 . S
C817 H787 0.931 . S
C817 C814 1.357 . S
C817 C818 1.312 . S
C818 H789 0.930 . S
C818 C813 1.261 . S
C818 C817 1.312 . S
C819 O791 1.214 . S
C819 O799 1.234 . S
C820 H792 0.929 . S
C820 C823 1.391 . S
C820 C825 1.391 . S
C821 H793 0.929 . S
C821 C822 1.390 . S
C821 N824 1.391 . S
C822 H794 0.930 . S
C822 C821 1.390 . S
C822 C823 1.392 . S
C823 H795 0.929 . S
C823 C820 1.391 . S
C823 C822 1.392 . S
N824 Co768 2.257 . S
N824 C821 1.391 . S
N824 C825 1.388 . S
C825 H796 0.930 . S
C825 C820 1.391 . S
C825 N824 1.388 . S
Co826 O828 2.143 . S
Co826 O834 2.074 . S
Co826 O837 2.093 . S
Co826 O850 2.097 . S
Co826 N867 2.151 . S
Co826 N875 2.214 . S
Co827 O828 2.160 . S
Co827 O833 2.058 . S
Co827 O843 2.057 . S
Co827 O858 2.037 . S
Co827 N862 2.145 . S
Co827 N883 2.257 . S
O828 Co826 2.143 . S
O828 Co827 2.160 . S
C829 O830 1.278 . S
C829 O837 1.224 . S
O830 C829 1.278 . S
C831 O832 1.245 . S
C831 O843 1.232 . S
O832 C831 1.245 . S
O833 Co827 2.058 . S
O833 C859 1.269 . S
O834 Co826 2.074 . S
O834 C859 1.257 . S
H835 C860 0.930 . S
H836 C866 0.930 . S
O837 Co826 2.093 . S
O837 C829 1.224 . S
H838 C870 0.929 . S
H839 C872 0.930 . S
H840 C873 0.930 . S
H841 C871 0.929 . S
H842 C874 0.928 . S
O843 Co827 2.057 . S
O843 C831 1.232 . S
H844 C863 0.929 . S
H845 C864 0.929 . S
H846 C876 0.931 . S
H847 C868 0.929 . S
H848 C877 0.930 . S
H849 C869 0.931 . S
O850 Co826 2.097 . S
O850 C878 1.214 . S
H851 C879 0.929 . S
H852 C880 0.929 . S
H853 C881 0.930 . S
H854 C882 0.929 . S
H855 C884 0.930 . S
H856 C861 0.930 . S
H857 C865 0.930 . S
O858 Co827 2.037 . S
O858 C878 1.234 . S
C859 O833 1.269 . S
C859 O834 1.257 . S
C860 H835 0.930 . S
C860 C863 1.388 . S
C860 C865 1.418 . S
C861 H856 0.930 . S
C861 C864 1.404 . S
C861 C865 1.353 . S
N862 Co827 2.145 . S
N862 C863 1.397 . S
N862 C864 1.334 . S
C863 H844 0.929 . S
C863 C860 1.388 . S
C863 N862 1.397 . S
C864 H845 0.929 . S
C864 C861 1.404 . S
C864 N862 1.334 . S
C865 H857 0.930 . S
C865 C860 1.418 . S
C865 C861 1.353 . S
C866 H836 0.930 . S
C866 N867 1.330 . S
C866 C868 1.446 . S
N867 Co826 2.151 . S
N867 C866 1.330 . S
N867 C871 1.418 . S
C868 H847 0.929 . S
C868 C866 1.446 . S
C868 C869 1.332 . S
C869 H849 0.931 . S
C869 C868 1.332 . S
C869 C870 1.267 . S
C870 H838 0.929 . S
C870 C869 1.267 . S
C870 C871 1.251 . S
C871 H841 0.929 . S
C871 N867 1.418 . S
C871 C870 1.251 . S
C872 H839 0.930 . S
C872 C874 1.406 . S
C872 C877 1.261 . S
C873 H840 0.930 . S
C873 N875 1.325 . S
C873 C876 1.357 . S
C874 H842 0.928 . S
C874 C872 1.406 . S
C874 N875 1.261 . S
N875 Co826 2.214 . S
N875 C873 1.325 . S
N875 C874 1.261 . S
C876 H846 0.931 . S
C876 C873 1.357 . S
C876 C877 1.312 . S
C877 H848 0.930 . S
C877 C872 1.261 . S
C877 C876 1.312 . S
C878 O850 1.214 . S
C878 O858 1.234 . S
C879 H851 0.929 . S
C879 C882 1.391 . S
C879 C884 1.391 . S
C880 H852 0.929 . S
C880 C881 1.390 . S
C880 N883 1.391 . S
C881 H853 0.930 . S
C881 C880 1.390 . S
C881 C882 1.392 . S
C882 H854 0.929 . S
C882 C879 1.391 . S
C882 C881 1.392 . S
N883 Co827 2.257 . S
N883 C880 1.391 . S
N883 C884 1.388 . S
C884 H855 0.930 . S
C884 C879 1.391 . S
C884 N883 1.388 . S
Co885 O887 2.143 . S
Co885 O893 2.074 . S
Co885 O896 2.093 . S
Co885 O909 2.097 . S
Co885 N926 2.151 . S
Co885 N934 2.214 . S
Co886 O887 2.160 . S
Co886 O892 2.058 . S
Co886 O902 2.057 . S
Co886 O917 2.037 . S
Co886 N921 2.145 . S
Co886 N942 2.257 . S
O887 Co885 2.143 . S
O887 Co886 2.160 . S
C888 O889 1.278 . S
C888 O896 1.224 . S
O889 C888 1.278 . S
C890 O891 1.245 . S
C890 O902 1.232 . S
O891 C890 1.245 . S
O892 Co886 2.058 . S
O892 C918 1.269 . S
O893 Co885 2.074 . S
O893 C918 1.257 . S
H894 C919 0.930 . S
H895 C925 0.930 . S
O896 Co885 2.093 . S
O896 C888 1.224 . S
H897 C929 0.929 . S
H898 C931 0.930 . S
H899 C932 0.930 . S
H900 C930 0.929 . S
H901 C933 0.928 . S
O902 Co886 2.057 . S
O902 C890 1.232 . S
H903 C922 0.929 . S
H904 C923 0.929 . S
H905 C935 0.931 . S
H906 C927 0.929 . S
H907 C936 0.930 . S
H908 C928 0.931 . S
O909 Co885 2.097 . S
O909 C937 1.214 . S
H910 C938 0.929 . S
H911 C939 0.929 . S
H912 C940 0.930 . S
H913 C941 0.929 . S
H914 C943 0.930 . S
H915 C920 0.930 . S
H916 C924 0.930 . S
O917 Co886 2.037 . S
O917 C937 1.234 . S
C918 O892 1.269 . S
C918 O893 1.257 . S
C919 H894 0.930 . S
C919 C922 1.388 . S
C919 C924 1.418 . S
C920 H915 0.930 . S
C920 C923 1.404 . S
C920 C924 1.353 . S
N921 Co886 2.145 . S
N921 C922 1.397 . S
N921 C923 1.334 . S
C922 H903 0.929 . S
C922 C919 1.388 . S
C922 N921 1.397 . S
C923 H904 0.929 . S
C923 C920 1.404 . S
C923 N921 1.334 . S
C924 H916 0.930 . S
C924 C919 1.418 . S
C924 C920 1.353 . S
C925 H895 0.930 . S
C925 N926 1.330 . S
C925 C927 1.446 . S
N926 Co885 2.151 . S
N926 C925 1.330 . S
N926 C930 1.418 . S
C927 H906 0.929 . S
C927 C925 1.446 . S
C927 C928 1.332 . S
C928 H908 0.931 . S
C928 C927 1.332 . S
C928 C929 1.267 . S
C929 H897 0.929 . S
C929 C928 1.267 . S
C929 C930 1.251 . S
C930 H900 0.929 . S
C930 N926 1.418 . S
C930 C929 1.251 . S
C931 H898 0.930 . S
C931 C933 1.406 . S
C931 C936 1.261 . S
C932 H899 0.930 . S
C932 N934 1.325 . S
C932 C935 1.357 . S
C933 H901 0.928 . S
C933 C931 1.406 . S
C933 N934 1.261 . S
N934 Co885 2.214 . S
N934 C932 1.325 . S
N934 C933 1.261 . S
C935 H905 0.931 . S
C935 C932 1.357 . S
C935 C936 1.312 . S
C936 H907 0.930 . S
C936 C931 1.261 . S
C936 C935 1.312 . S
C937 O909 1.214 . S
C937 O917 1.234 . S
C938 H910 0.929 . S
C938 C941 1.391 . S
C938 C943 1.391 . S
C939 H911 0.929 . S
C939 C940 1.390 . S
C939 N942 1.391 . S
C940 H912 0.930 . S
C940 C939 1.390 . S
C940 C941 1.392 . S
C941 H913 0.929 . S
C941 C938 1.391 . S
C941 C940 1.392 . S
N942 Co886 2.257 . S
N942 C939 1.391 . S
N942 C943 1.388 . S
C943 H914 0.930 . S
C943 C938 1.391 . S
C943 N942 1.388 . S
Co944 O946 2.143 . S
Co944 O952 2.074 . S
Co944 O955 2.093 . S
Co944 O968 2.097 . S
Co944 N985 2.151 . S
Co944 N993 2.214 . S
Co945 O946 2.160 . S
Co945 O951 2.058 . S
Co945 O961 2.057 . S
Co945 O976 2.037 . S
Co945 N980 2.145 . S
Co945 N1001 2.257 . S
O946 Co944 2.143 . S
O946 Co945 2.160 . S
C947 O948 1.278 . S
C947 O955 1.224 . S
O948 C947 1.278 . S
C949 O950 1.245 . S
C949 O961 1.232 . S
O950 C949 1.245 . S
O951 Co945 2.058 . S
O951 C977 1.269 . S
O952 Co944 2.074 . S
O952 C977 1.257 . S
H953 C978 0.930 . S
H954 C984 0.930 . S
O955 Co944 2.093 . S
O955 C947 1.224 . S
H956 C988 0.929 . S
H957 C990 0.930 . S
H958 C991 0.930 . S
H959 C989 0.929 . S
H960 C992 0.928 . S
O961 Co945 2.057 . S
O961 C949 1.232 . S
H962 C981 0.929 . S
H963 C982 0.929 . S
H964 C994 0.931 . S
H965 C986 0.929 . S
H966 C995 0.930 . S
H967 C987 0.931 . S
O968 Co944 2.097 . S
O968 C996 1.214 . S
H969 C997 0.929 . S
H970 C998 0.929 . S
H971 C999 0.930 . S
H972 C1000 0.929 . S
H973 C1002 0.930 . S
H974 C979 0.930 . S
H975 C983 0.930 . S
O976 Co945 2.037 . S
O976 C996 1.234 . S
C977 O951 1.269 . S
C977 O952 1.257 . S
C978 H953 0.930 . S
C978 C981 1.388 . S
C978 C983 1.418 . S
C979 H974 0.930 . S
C979 C982 1.404 . S
C979 C983 1.353 . S
N980 Co945 2.145 . S
N980 C981 1.397 . S
N980 C982 1.334 . S
C981 H962 0.929 . S
C981 C978 1.388 . S
C981 N980 1.397 . S
C982 H963 0.929 . S
C982 C979 1.404 . S
C982 N980 1.334 . S
C983 H975 0.930 . S
C983 C978 1.418 . S
C983 C979 1.353 . S
C984 H954 0.930 . S
C984 N985 1.330 . S
C984 C986 1.446 . S
N985 Co944 2.151 . S
N985 C984 1.330 . S
N985 C989 1.418 . S
C986 H965 0.929 . S
C986 C984 1.446 . S
C986 C987 1.332 . S
C987 H967 0.931 . S
C987 C986 1.332 . S
C987 C988 1.267 . S
C988 H956 0.929 . S
C988 C987 1.267 . S
C988 C989 1.251 . S
C989 H959 0.929 . S
C989 N985 1.418 . S
C989 C988 1.251 . S
C990 H957 0.930 . S
C990 C992 1.406 . S
C990 C995 1.261 . S
C991 H958 0.930 . S
C991 N993 1.325 . S
C991 C994 1.357 . S
C992 H960 0.928 . S
C992 C990 1.406 . S
C992 N993 1.261 . S
N993 Co944 2.214 . S
N993 C991 1.325 . S
N993 C992 1.261 . S
C994 H964 0.931 . S
C994 C991 1.357 . S
C994 C995 1.312 . S
C995 H966 0.930 . S
C995 C990 1.261 . S
C995 C994 1.312 . S
C996 O968 1.214 . S
C996 O976 1.234 . S
C997 H969 0.929 . S
C997 C1000 1.391 . S
C997 C1002 1.391 . S
C998 H970 0.929 . S
C998 C999 1.390 . S
C998 N1001 1.391 . S
C999 H971 0.930 . S
C999 C998 1.390 . S
C999 C1000 1.392 . S
C1000 H972 0.929 . S
C1000 C997 1.391 . S
C1000 C999 1.392 . S
N1001 Co945 2.257 . S
N1001 C998 1.391 . S
N1001 C1002 1.388 . S
C1002 H973 0.930 . S
C1002 C997 1.391 . S
C1002 N1001 1.388 . S
Co1003 O1005 2.143 . S
Co1003 O1011 2.074 . S
Co1003 O1014 2.093 . S
Co1003 O1027 2.097 . S
Co1003 N1044 2.151 . S
Co1003 N1052 2.214 . S
Co1004 O1005 2.160 . S
Co1004 O1010 2.058 . S
Co1004 O1020 2.057 . S
Co1004 O1035 2.037 . S
Co1004 N1039 2.145 . S
Co1004 N1060 2.257 . S
O1005 Co1003 2.143 . S
O1005 Co1004 2.160 . S
C1006 O1007 1.278 . S
C1006 O1014 1.224 . S
O1007 C1006 1.278 . S
C1008 O1009 1.245 . S
C1008 O1020 1.232 . S
O1009 C1008 1.245 . S
O1010 Co1004 2.058 . S
O1010 C1036 1.269 . S
O1011 Co1003 2.074 . S
O1011 C1036 1.257 . S
H1012 C1037 0.930 . S
H1013 C1043 0.930 . S
O1014 Co1003 2.093 . S
O1014 C1006 1.224 . S
H1015 C1047 0.929 . S
H1016 C1049 0.930 . S
H1017 C1050 0.930 . S
H1018 C1048 0.929 . S
H1019 C1051 0.928 . S
O1020 Co1004 2.057 . S
O1020 C1008 1.232 . S
H1021 C1040 0.929 . S
H1022 C1041 0.929 . S
H1023 C1053 0.931 . S
H1024 C1045 0.929 . S
H1025 C1054 0.930 . S
H1026 C1046 0.931 . S
O1027 Co1003 2.097 . S
O1027 C1055 1.214 . S
H1028 C1056 0.929 . S
H1029 C1057 0.929 . S
H1030 C1058 0.930 . S
H1031 C1059 0.929 . S
H1032 C1061 0.930 . S
H1033 C1038 0.930 . S
H1034 C1042 0.930 . S
O1035 Co1004 2.037 . S
O1035 C1055 1.234 . S
C1036 O1010 1.269 . S
C1036 O1011 1.257 . S
C1037 H1012 0.930 . S
C1037 C1040 1.388 . S
C1037 C1042 1.418 . S
C1038 H1033 0.930 . S
C1038 C1041 1.404 . S
C1038 C1042 1.353 . S
N1039 Co1004 2.145 . S
N1039 C1040 1.397 . S
N1039 C1041 1.334 . S
C1040 H1021 0.929 . S
C1040 C1037 1.388 . S
C1040 N1039 1.397 . S
C1041 H1022 0.929 . S
C1041 C1038 1.404 . S
C1041 N1039 1.334 . S
C1042 H1034 0.930 . S
C1042 C1037 1.418 . S
C1042 C1038 1.353 . S
C1043 H1013 0.930 . S
C1043 N1044 1.330 . S
C1043 C1045 1.446 . S
N1044 Co1003 2.151 . S
N1044 C1043 1.330 . S
N1044 C1048 1.418 . S
C1045 H1024 0.929 . S
C1045 C1043 1.446 . S
C1045 C1046 1.332 . S
C1046 H1026 0.931 . S
C1046 C1045 1.332 . S
C1046 C1047 1.267 . S
C1047 H1015 0.929 . S
C1047 C1046 1.267 . S
C1047 C1048 1.251 . S
C1048 H1018 0.929 . S
C1048 N1044 1.418 . S
C1048 C1047 1.251 . S
C1049 H1016 0.930 . S
C1049 C1051 1.406 . S
C1049 C1054 1.261 . S
C1050 H1017 0.930 . S
C1050 N1052 1.325 . S
C1050 C1053 1.357 . S
C1051 H1019 0.928 . S
C1051 C1049 1.406 . S
C1051 N1052 1.261 . S
N1052 Co1003 2.214 . S
N1052 C1050 1.325 . S
N1052 C1051 1.261 . S
C1053 H1023 0.931 . S
C1053 C1050 1.357 . S
C1053 C1054 1.312 . S
C1054 H1025 0.930 . S
C1054 C1049 1.261 . S
C1054 C1053 1.312 . S
C1055 O1027 1.214 . S
C1055 O1035 1.234 . S
C1056 H1028 0.929 . S
C1056 C1059 1.391 . S
C1056 C1061 1.391 . S
C1057 H1029 0.929 . S
C1057 C1058 1.390 . S
C1057 N1060 1.391 . S
C1058 H1030 0.930 . S
C1058 C1057 1.390 . S
C1058 C1059 1.392 . S
C1059 H1031 0.929 . S
C1059 C1056 1.391 . S
C1059 C1058 1.392 . S
N1060 Co1004 2.257 . S
N1060 C1057 1.391 . S
N1060 C1061 1.388 . S
C1061 H1032 0.930 . S
C1061 C1056 1.391 . S
C1061 N1060 1.388 . S
C1062 C1063 1.363 . S
C1062 C1068 1.379 . S
C1062 N1070 1.356 . S
C1063 C1062 1.363 . S
C1063 C1069 1.363 . S
C1064 C1065 1.363 . S
C1064 C1069 1.379 . S
C1064 N1071 1.356 . S
C1065 C1064 1.363 . S
C1065 C1068 1.363 . S
N1066 C1068 1.356 . S
N1066 H1078 0.984 . S
N1066 H1079 0.985 . S
N1067 C1069 1.356 . S
N1067 H1072 0.984 . S
N1067 H1073 0.985 . S
C1068 C1062 1.379 . S
C1068 C1065 1.363 . S
C1068 N1066 1.356 . S
C1069 C1063 1.363 . S
C1069 C1064 1.379 . S
C1069 N1067 1.356 . S
N1070 C1062 1.356 . S
N1070 H1076 0.984 . S
N1070 H1077 0.984 . S
N1071 C1064 1.356 . S
N1071 H1074 0.984 . S
N1071 H1075 0.985 . S
H1072 N1067 0.984 . S
H1073 N1067 0.985 . S
H1074 N1071 0.984 . S
H1075 N1071 0.985 . S
H1076 N1070 0.984 . S
H1077 N1070 0.984 . S
H1078 N1066 0.984 . S
H1079 N1066 0.985 . S
C1080 C1081 1.363 . S
C1080 C1086 1.379 . S
C1080 N1088 1.356 . S
C1081 C1080 1.363 . S
C1081 C1087 1.363 . S
C1082 C1083 1.363 . S
C1082 C1087 1.379 . S
C1082 N1089 1.356 . S
C1083 C1082 1.363 . S
C1083 C1086 1.363 . S
N1084 C1086 1.356 . S
N1084 H1096 0.984 . S
N1084 H1097 0.985 . S
N1085 C1087 1.356 . S
N1085 H1090 0.984 . S
N1085 H1091 0.985 . S
C1086 C1080 1.379 . S
C1086 C1083 1.363 . S
C1086 N1084 1.356 . S
C1087 C1081 1.363 . S
C1087 C1082 1.379 . S
C1087 N1085 1.356 . S
N1088 C1080 1.356 . S
N1088 H1094 0.984 . S
N1088 H1095 0.984 . S
N1089 C1082 1.356 . S
N1089 H1092 0.984 . S
N1089 H1093 0.985 . S
H1090 N1085 0.984 . S
H1091 N1085 0.985 . S
H1092 N1089 0.984 . S
H1093 N1089 0.985 . S
H1094 N1088 0.984 . S
H1095 N1088 0.984 . S
H1096 N1084 0.984 . S
H1097 N1084 0.985 . S
C1098 C1099 1.363 . S
C1098 C1104 1.379 . S
C1098 N1106 1.356 . S
C1099 C1098 1.363 . S
C1099 C1105 1.363 . S
C1100 C1101 1.363 . S
C1100 C1105 1.379 . S
C1100 N1107 1.356 . S
C1101 C1100 1.363 . S
C1101 C1104 1.363 . S
N1102 C1104 1.356 . S
N1102 H1114 0.984 . S
N1102 H1115 0.985 . S
N1103 C1105 1.356 . S
N1103 H1108 0.984 . S
N1103 H1109 0.985 . S
C1104 C1098 1.379 . S
C1104 C1101 1.363 . S
C1104 N1102 1.356 . S
C1105 C1099 1.363 . S
C1105 C1100 1.379 . S
C1105 N1103 1.356 . S
N1106 C1098 1.356 . S
N1106 H1112 0.984 . S
N1106 H1113 0.984 . S
N1107 C1100 1.356 . S
N1107 H1110 0.984 . S
N1107 H1111 0.985 . S
H1108 N1103 0.984 . S
H1109 N1103 0.985 . S
H1110 N1107 0.984 . S
H1111 N1107 0.985 . S
H1112 N1106 0.984 . S
H1113 N1106 0.984 . S
H1114 N1102 0.984 . S
H1115 N1102 0.985 . S
C1116 C1117 1.363 . S
C1116 C1122 1.379 . S
C1116 N1124 1.356 . S
C1117 C1116 1.363 . S
C1117 C1123 1.363 . S
C1118 C1119 1.363 . S
C1118 C1123 1.379 . S
C1118 N1125 1.356 . S
C1119 C1118 1.363 . S
C1119 C1122 1.363 . S
N1120 C1122 1.356 . S
N1120 H1132 0.984 . S
N1120 H1133 0.985 . S
N1121 C1123 1.356 . S
N1121 H1126 0.984 . S
N1121 H1127 0.985 . S
C1122 C1116 1.379 . S
C1122 C1119 1.363 . S
C1122 N1120 1.356 . S
C1123 C1117 1.363 . S
C1123 C1118 1.379 . S
C1123 N1121 1.356 . S
N1124 C1116 1.356 . S
N1124 H1130 0.984 . S
N1124 H1131 0.984 . S
N1125 C1118 1.356 . S
N1125 H1128 0.984 . S
N1125 H1129 0.985 . S
H1126 N1121 0.984 . S
H1127 N1121 0.985 . S
H1128 N1125 0.984 . S
H1129 N1125 0.985 . S
H1130 N1124 0.984 . S
H1131 N1124 0.984 . S
H1132 N1120 0.984 . S
H1133 N1120 0.985 . S
C1134 C1135 1.363 . S
C1134 C1140 1.379 . S
C1134 N1142 1.356 . S
C1135 C1134 1.363 . S
C1135 C1141 1.363 . S
C1136 C1137 1.363 . S
C1136 C1141 1.379 . S
C1136 N1143 1.356 . S
C1137 C1136 1.363 . S
C1137 C1140 1.363 . S
N1138 C1140 1.356 . S
N1138 H1150 0.984 . S
N1138 H1151 0.985 . S
N1139 C1141 1.356 . S
N1139 H1144 0.984 . S
N1139 H1145 0.985 . S
C1140 C1134 1.379 . S
C1140 C1137 1.363 . S
C1140 N1138 1.356 . S
C1141 C1135 1.363 . S
C1141 C1136 1.379 . S
C1141 N1139 1.356 . S
N1142 C1134 1.356 . S
N1142 H1148 0.984 . S
N1142 H1149 0.984 . S
N1143 C1136 1.356 . S
N1143 H1146 0.984 . S
N1143 H1147 0.985 . S
H1144 N1139 0.984 . S
H1145 N1139 0.985 . S
H1146 N1143 0.984 . S
H1147 N1143 0.985 . S
H1148 N1142 0.984 . S
H1149 N1142 0.984 . S
H1150 N1138 0.984 . S
H1151 N1138 0.985 . S
C1152 C1153 1.363 . S
C1152 C1158 1.379 . S
C1152 N1160 1.356 . S
C1153 C1152 1.363 . S
C1153 C1159 1.363 . S
C1154 C1155 1.363 . S
C1154 C1159 1.379 . S
C1154 N1161 1.356 . S
C1155 C1154 1.363 . S
C1155 C1158 1.363 . S
N1156 C1158 1.356 . S
N1156 H1168 0.984 . S
N1156 H1169 0.985 . S
N1157 C1159 1.356 . S
N1157 H1162 0.984 . S
N1157 H1163 0.985 . S
C1158 C1152 1.379 . S
C1158 C1155 1.363 . S
C1158 N1156 1.356 . S
C1159 C1153 1.363 . S
C1159 C1154 1.379 . S
C1159 N1157 1.356 . S
N1160 C1152 1.356 . S
N1160 H1166 0.984 . S
N1160 H1167 0.984 . S
N1161 C1154 1.356 . S
N1161 H1164 0.984 . S
N1161 H1165 0.985 . S
H1162 N1157 0.984 . S
H1163 N1157 0.985 . S
H1164 N1161 0.984 . S
H1165 N1161 0.985 . S
H1166 N1160 0.984 . S
H1167 N1160 0.984 . S
H1168 N1156 0.984 . S
H1169 N1156 0.985 . S
C1170 C1171 1.363 . S
C1170 C1176 1.379 1_655 S
C1170 N1178 1.356 . S
C1171 C1170 1.363 . S
C1171 C1177 1.363 . S
C1172 C1173 1.363 . S
C1172 C1177 1.379 1_455 S
C1172 N1179 1.356 . S
C1173 C1172 1.363 . S
C1173 C1176 1.363 . S
N1174 C1176 1.356 . S
N1174 H1186 0.984 . S
N1174 H1187 0.985 . S
N1175 C1177 1.356 . S
N1175 H1180 0.984 . S
N1175 H1181 0.985 . S
C1176 C1170 1.379 1_455 S
C1176 C1173 1.363 . S
C1176 N1174 1.356 . S
C1177 C1171 1.363 . S
C1177 C1172 1.379 1_655 S
C1177 N1175 1.356 . S
N1178 C1170 1.356 . S
N1178 H1184 0.984 . S
N1178 H1185 0.984 . S
N1179 C1172 1.356 . S
N1179 H1182 0.984 . S
N1179 H1183 0.985 . S
H1180 N1175 0.984 . S
H1181 N1175 0.985 . S
H1182 N1179 0.984 . S
H1183 N1179 0.985 . S
H1184 N1178 0.984 . S
H1185 N1178 0.984 . S
H1186 N1174 0.984 . S
H1187 N1174 0.985 . S
C1188 C1189 1.363 . S
C1188 C1194 1.379 . S
C1188 N1196 1.356 . S
C1189 C1188 1.363 . S
C1189 C1195 1.363 . S
C1190 C1191 1.363 . S
C1190 C1195 1.379 . S
C1190 N1197 1.356 . S
C1191 C1190 1.363 . S
C1191 C1194 1.363 . S
N1192 C1194 1.356 . S
N1192 H1204 0.984 . S
N1192 H1205 0.985 . S
N1193 C1195 1.356 . S
N1193 H1198 0.984 . S
N1193 H1199 0.985 . S
C1194 C1188 1.379 . S
C1194 C1191 1.363 . S
C1194 N1192 1.356 . S
C1195 C1189 1.363 . S
C1195 C1190 1.379 . S
C1195 N1193 1.356 . S
N1196 C1188 1.356 . S
N1196 H1202 0.984 . S
N1196 H1203 0.984 . S
N1197 C1190 1.356 . S
N1197 H1200 0.984 . S
N1197 H1201 0.985 . S
H1198 N1193 0.984 . S
H1199 N1193 0.985 . S
H1200 N1197 0.984 . S
H1201 N1197 0.985 . S
H1202 N1196 0.984 . S
H1203 N1196 0.984 . S
H1204 N1192 0.984 . S
H1205 N1192 0.985 . S
C1206 C1207 1.363 . S
C1206 C1212 1.379 1_545 S
C1206 N1214 1.356 . S
C1207 C1206 1.363 . S
C1207 C1213 1.363 . S
C1208 C1209 1.363 . S
C1208 C1213 1.379 1_565 S
C1208 N1215 1.356 . S
C1209 C1208 1.363 . S
C1209 C1212 1.363 . S
N1210 C1212 1.356 . S
N1210 H1222 0.984 . S
N1210 H1223 0.985 . S
N1211 C1213 1.356 . S
N1211 H1216 0.984 . S
N1211 H1217 0.985 . S
C1212 C1206 1.379 1_565 S
C1212 C1209 1.363 . S
C1212 N1210 1.356 . S
C1213 C1207 1.363 . S
C1213 C1208 1.379 1_545 S
C1213 N1211 1.356 . S
N1214 C1206 1.356 . S
N1214 H1220 0.984 . S
N1214 H1221 0.984 . S
N1215 C1208 1.356 . S
N1215 H1218 0.984 . S
N1215 H1219 0.985 . S
H1216 N1211 0.984 . S
H1217 N1211 0.985 . S
H1218 N1215 0.984 . S
H1219 N1215 0.985 . S
H1220 N1214 0.984 . S
H1221 N1214 0.984 . S
H1222 N1210 0.984 . S
H1223 N1210 0.985 . S
C1224 C1225 1.363 . S
C1224 C1230 1.379 1_455 S
C1224 N1232 1.356 . S
C1225 C1224 1.363 . S
C1225 C1231 1.363 . S
C1226 C1227 1.363 . S
C1226 C1231 1.379 1_655 S
C1226 N1233 1.356 . S
C1227 C1226 1.363 . S
C1227 C1230 1.363 . S
N1228 C1230 1.356 . S
N1228 H1240 0.984 . S
N1228 H1241 0.985 . S
N1229 C1231 1.356 . S
N1229 H1234 0.984 . S
N1229 H1235 0.985 . S
C1230 C1224 1.379 1_655 S
C1230 C1227 1.363 . S
C1230 N1228 1.356 . S
C1231 C1225 1.363 . S
C1231 C1226 1.379 1_455 S
C1231 N1229 1.356 . S
N1232 C1224 1.356 . S
N1232 H1238 0.984 . S
N1232 H1239 0.984 . S
N1233 C1226 1.356 . S
N1233 H1236 0.984 . S
N1233 H1237 0.985 . S
H1234 N1229 0.984 . S
H1235 N1229 0.985 . S
H1236 N1233 0.984 . S
H1237 N1233 0.985 . S
H1238 N1232 0.984 . S
H1239 N1232 0.984 . S
H1240 N1228 0.984 . S
H1241 N1228 0.985 . S
C1242 C1243 1.363 . S
C1242 C1248 1.379 . S
C1242 N1250 1.356 . S
C1243 C1242 1.363 . S
C1243 C1249 1.363 . S
C1244 C1245 1.363 . S
C1244 C1249 1.379 . S
C1244 N1251 1.356 . S
C1245 C1244 1.363 . S
C1245 C1248 1.363 . S
N1246 C1248 1.356 . S
N1246 H1258 0.984 . S
N1246 H1259 0.985 . S
N1247 C1249 1.356 . S
N1247 H1252 0.984 . S
N1247 H1253 0.985 . S
C1248 C1242 1.379 . S
C1248 C1245 1.363 . S
C1248 N1246 1.356 . S
C1249 C1243 1.363 . S
C1249 C1244 1.379 . S
C1249 N1247 1.356 . S
N1250 C1242 1.356 . S
N1250 H1256 0.984 1_565 S
N1250 H1257 0.984 . S
N1251 C1244 1.356 . S
N1251 H1254 0.984 . S
N1251 H1255 0.985 . S
H1252 N1247 0.984 . S
H1253 N1247 0.985 . S
H1254 N1251 0.984 . S
H1255 N1251 0.985 . S
H1256 N1250 0.984 1_545 S
H1257 N1250 0.984 . S
H1258 N1246 0.984 . S
H1259 N1246 0.985 . S
C1260 C1261 1.363 . S
C1260 C1266 1.379 1_545 S
C1260 N1268 1.356 . S
C1261 C1260 1.363 . S
C1261 C1267 1.363 . S
C1262 C1263 1.363 . S
C1262 C1267 1.379 1_565 S
C1262 N1269 1.356 . S
C1263 C1262 1.363 . S
C1263 C1266 1.363 . S
N1264 C1266 1.356 . S
N1264 H1276 0.984 . S
N1264 H1277 0.985 . S
N1265 C1267 1.356 . S
N1265 H1270 0.984 . S
N1265 H1271 0.985 . S
C1266 C1260 1.379 1_565 S
C1266 C1263 1.363 . S
C1266 N1264 1.356 . S
C1267 C1261 1.363 . S
C1267 C1262 1.379 1_545 S
C1267 N1265 1.356 . S
N1268 C1260 1.356 . S
N1268 H1274 0.984 . S
N1268 H1275 0.984 . S
N1269 C1262 1.356 . S
N1269 H1272 0.984 . S
N1269 H1273 0.985 . S
H1270 N1265 0.984 . S
H1271 N1265 0.985 . S
H1272 N1269 0.984 . S
H1273 N1269 0.985 . S
H1274 N1268 0.984 . S
H1275 N1268 0.984 . S
H1276 N1264 0.984 . S
H1277 N1264 0.985 . S
C1278 C1279 1.363 . S
C1278 C1284 1.379 1_565 S
C1278 N1286 1.356 . S
C1279 C1278 1.363 . S
C1279 C1285 1.363 . S
C1280 C1281 1.363 . S
C1280 C1285 1.379 1_545 S
C1280 N1287 1.356 . S
C1281 C1280 1.363 . S
C1281 C1284 1.363 . S
N1282 C1284 1.356 . S
N1282 H1294 0.984 . S
N1282 H1295 0.985 . S
N1283 C1285 1.356 . S
N1283 H1288 0.984 . S
N1283 H1289 0.985 . S
C1284 C1278 1.379 1_545 S
C1284 C1281 1.363 . S
C1284 N1282 1.356 . S
C1285 C1279 1.363 . S
C1285 C1280 1.379 1_565 S
C1285 N1283 1.356 . S
N1286 C1278 1.356 . S
N1286 H1292 0.977 1_455 S
N1286 H1293 0.984 . S
N1287 C1280 1.356 . S
N1287 H1290 0.984 . S
N1287 H1291 0.985 . S
H1288 N1283 0.984 . S
H1289 N1283 0.985 . S
H1290 N1287 0.984 . S
H1291 N1287 0.985 . S
H1292 N1286 0.977 1_655 S
H1293 N1286 0.984 . S
H1294 N1282 0.984 . S
H1295 N1282 0.985 . S
C1296 C1297 1.363 . S
C1296 C1302 1.379 1_455 S
C1296 N1304 1.356 . S
C1297 C1296 1.363 . S
C1297 C1303 1.363 . S
C1298 C1299 1.363 . S
C1298 C1303 1.379 1_655 S
C1298 N1305 1.356 . S
C1299 C1298 1.363 . S
C1299 C1302 1.363 . S
N1300 C1302 1.356 . S
N1300 H1312 0.984 . S
N1300 H1313 0.985 . S
N1301 C1303 1.356 . S
N1301 H1306 0.984 . S
N1301 H1307 0.985 . S
C1302 C1296 1.379 1_655 S
C1302 C1299 1.363 . S
C1302 N1300 1.356 . S
C1303 C1297 1.363 . S
C1303 C1298 1.379 1_455 S
C1303 N1301 1.356 . S
N1304 C1296 1.356 . S
N1304 H1310 0.984 . S
N1304 H1311 0.984 . S
N1305 C1298 1.356 . S
N1305 H1308 0.984 . S
N1305 H1309 0.985 . S
H1306 N1301 0.984 . S
H1307 N1301 0.985 . S
H1308 N1305 0.984 . S
H1309 N1305 0.985 . S
H1310 N1304 0.984 . S
H1311 N1304 0.984 . S
H1312 N1300 0.984 . S
H1313 N1300 0.985 . S
C1314 C1315 1.363 . S
C1314 C1320 1.379 . S
C1314 N1322 1.356 . S
C1315 C1314 1.363 . S
C1315 C1321 1.363 . S
C1316 C1317 1.363 . S
C1316 C1321 1.379 . S
C1316 N1323 1.356 . S
C1317 C1316 1.363 . S
C1317 C1320 1.363 . S
N1318 C1320 1.356 . S
N1318 H1330 0.984 . S
N1318 H1331 0.985 . S
N1319 C1321 1.356 . S
N1319 H1324 0.984 . S
N1319 H1325 0.985 . S
C1320 C1314 1.379 . S
C1320 C1317 1.363 . S
C1320 N1318 1.356 . S
C1321 C1315 1.363 . S
C1321 C1316 1.379 . S
C1321 N1319 1.356 . S
N1322 C1314 1.356 . S
N1322 H1328 0.984 . S
N1322 H1329 0.984 . S
N1323 C1316 1.356 . S
N1323 H1326 0.984 . S
N1323 H1327 0.985 . S
H1324 N1319 0.984 . S
H1325 N1319 0.985 . S
H1326 N1323 0.984 . S
H1327 N1323 0.985 . S
H1328 N1322 0.984 . S
H1329 N1322 0.984 . S
H1330 N1318 0.984 . S
H1331 N1318 0.985 . S
C1332 C1333 1.363 . S
C1332 C1338 1.379 . S
C1332 N1340 1.356 . S
C1333 C1332 1.363 . S
C1333 C1339 1.363 . S
C1334 C1335 1.363 . S
C1334 C1339 1.379 . S
C1334 N1341 1.356 . S
C1335 C1334 1.363 . S
C1335 C1338 1.363 . S
N1336 C1338 1.356 . S
N1336 H1348 0.984 . S
N1336 H1349 0.985 . S
N1337 C1339 1.356 . S
N1337 H1342 0.984 . S
N1337 H1343 0.985 . S
C1338 C1332 1.379 . S
C1338 C1335 1.363 . S
C1338 N1336 1.356 . S
C1339 C1333 1.363 . S
C1339 C1334 1.379 . S
C1339 N1337 1.356 . S
N1340 C1332 1.356 . S
N1340 H1346 0.984 . S
N1340 H1347 0.984 . S
N1341 C1334 1.356 . S
N1341 H1344 0.984 . S
N1341 H1345 0.985 . S
H1342 N1337 0.984 . S
H1343 N1337 0.985 . S
H1344 N1341 0.984 . S
H1345 N1341 0.985 . S
H1346 N1340 0.984 . S
H1347 N1340 0.984 . S
H1348 N1336 0.984 . S
H1349 N1336 0.985 . S
C1350 C1351 1.363 . S
C1350 C1356 1.379 . S
C1350 N1358 1.356 . S
C1351 C1350 1.363 . S
C1351 C1357 1.363 . S
C1352 C1353 1.363 . S
C1352 C1357 1.379 . S
C1352 N1359 1.356 . S
C1353 C1352 1.363 . S
C1353 C1356 1.363 . S
N1354 C1356 1.356 . S
N1354 H1366 0.984 . S
N1354 H1367 0.985 . S
N1355 C1357 1.356 . S
N1355 H1360 0.984 . S
N1355 H1361 0.985 . S
C1356 C1350 1.379 . S
C1356 C1353 1.363 . S
C1356 N1354 1.356 . S
C1357 C1351 1.363 . S
C1357 C1352 1.379 . S
C1357 N1355 1.356 . S
N1358 C1350 1.356 . S
N1358 H1364 0.984 . S
N1358 H1365 0.984 . S
N1359 C1352 1.356 . S
N1359 H1362 0.984 . S
N1359 H1363 0.985 . S
H1360 N1355 0.984 . S
H1361 N1355 0.985 . S
H1362 N1359 0.984 . S
H1363 N1359 0.985 . S
H1364 N1358 0.984 . S
H1365 N1358 0.984 . S
H1366 N1354 0.984 . S
H1367 N1354 0.985 . S
C1368 C1369 1.363 . S
C1368 C1374 1.379 . S
C1368 N1376 1.356 . S
C1369 C1368 1.363 . S
C1369 C1375 1.363 . S
C1370 C1371 1.363 . S
C1370 C1375 1.379 . S
C1370 N1377 1.356 . S
C1371 C1370 1.363 . S
C1371 C1374 1.363 . S
N1372 C1374 1.356 . S
N1372 H1384 0.984 . S
N1372 H1385 0.985 . S
N1373 C1375 1.356 . S
N1373 H1378 0.984 . S
N1373 H1379 0.985 . S
C1374 C1368 1.379 . S
C1374 C1371 1.363 . S
C1374 N1372 1.356 . S
C1375 C1369 1.363 . S
C1375 C1370 1.379 . S
C1375 N1373 1.356 . S
N1376 C1368 1.356 . S
N1376 H1382 0.984 . S
N1376 H1383 0.984 . S
N1377 C1370 1.356 . S
N1377 H1380 0.984 . S
N1377 H1381 0.985 . S
H1378 N1373 0.984 . S
H1379 N1373 0.985 . S
H1380 N1377 0.984 . S
H1381 N1377 0.985 . S
H1382 N1376 0.984 . S
H1383 N1376 0.984 . S
H1384 N1372 0.984 . S
H1385 N1372 0.985 . S
C1386 C1387 1.363 . S
C1386 C1392 1.379 . S
C1386 N1394 1.356 . S
C1387 C1386 1.363 . S
C1387 C1393 1.363 . S
C1388 C1389 1.363 . S
C1388 C1393 1.379 . S
C1388 N1395 1.356 . S
C1389 C1388 1.363 . S
C1389 C1392 1.363 . S
N1390 C1392 1.356 . S
N1390 H1402 0.984 . S
N1390 H1403 0.985 . S
N1391 C1393 1.356 . S
N1391 H1396 0.984 . S
N1391 H1397 0.985 . S
C1392 C1386 1.379 . S
C1392 C1389 1.363 . S
C1392 N1390 1.356 . S
C1393 C1387 1.363 . S
C1393 C1388 1.379 . S
C1393 N1391 1.356 . S
N1394 C1386 1.356 . S
N1394 H1400 0.984 . S
N1394 H1401 0.984 . S
N1395 C1388 1.356 . S
N1395 H1398 0.984 . S
N1395 H1399 0.985 . S
H1396 N1391 0.984 . S
H1397 N1391 0.985 . S
H1398 N1395 0.984 . S
H1399 N1395 0.985 . S
H1400 N1394 0.984 . S
H1401 N1394 0.984 . S
H1402 N1390 0.984 . S
H1403 N1390 0.985 . S
C1404 C1405 1.363 . S
C1404 C1410 1.379 . S
C1404 N1412 1.356 . S
C1405 C1404 1.363 . S
C1405 C1411 1.363 . S
C1406 C1407 1.363 . S
C1406 C1411 1.379 . S
C1406 N1413 1.356 . S
C1407 C1406 1.363 . S
C1407 C1410 1.363 . S
N1408 C1410 1.356 . S
N1408 H1420 0.984 . S
N1408 H1421 0.985 . S
N1409 C1411 1.356 . S
N1409 H1414 0.984 . S
N1409 H1415 0.985 . S
C1410 C1404 1.379 . S
C1410 C1407 1.363 . S
C1410 N1408 1.356 . S
C1411 C1405 1.363 . S
C1411 C1406 1.379 . S
C1411 N1409 1.356 . S
N1412 C1404 1.356 . S
N1412 H1418 0.984 . S
N1412 H1419 0.984 . S
N1413 C1406 1.356 . S
N1413 H1416 0.984 . S
N1413 H1417 0.985 . S
H1414 N1409 0.984 . S
H1415 N1409 0.985 . S
H1416 N1413 0.984 . S
H1417 N1413 0.985 . S
H1418 N1412 0.984 . S
H1419 N1412 0.984 . S
H1420 N1408 0.984 . S
H1421 N1408 0.985 . S
C1422 C1423 1.363 . S
C1422 C1428 1.379 . S
C1422 N1430 1.356 . S
C1423 C1422 1.363 . S
C1423 C1429 1.363 . S
C1424 C1425 1.363 . S
C1424 C1429 1.379 . S
C1424 N1431 1.356 . S
C1425 C1424 1.363 . S
C1425 C1428 1.363 . S
N1426 C1428 1.356 . S
N1426 H1438 0.984 . S
N1426 H1439 0.985 . S
N1427 C1429 1.356 . S
N1427 H1432 0.984 . S
N1427 H1433 0.985 . S
C1428 C1422 1.379 . S
C1428 C1425 1.363 . S
C1428 N1426 1.356 . S
C1429 C1423 1.363 . S
C1429 C1424 1.379 . S
C1429 N1427 1.356 . S
N1430 C1422 1.356 . S
N1430 H1436 0.984 . S
N1430 H1437 0.984 . S
N1431 C1424 1.356 . S
N1431 H1434 0.984 . S
N1431 H1435 0.985 . S
H1432 N1427 0.984 . S
H1433 N1427 0.985 . S
H1434 N1431 0.984 . S
H1435 N1431 0.985 . S
H1436 N1430 0.984 . S
H1437 N1430 0.984 . S
H1438 N1426 0.984 . S
H1439 N1426 0.985 . S
C1440 C1441 1.363 . S
C1440 C1446 1.379 . S
C1440 N1448 1.356 . S
C1441 C1440 1.363 . S
C1441 C1447 1.363 . S
C1442 C1443 1.363 . S
C1442 C1447 1.379 . S
C1442 N1449 1.356 . S
C1443 C1442 1.363 . S
C1443 C1446 1.363 . S
N1444 C1446 1.356 . S
N1444 H1456 0.984 . S
N1444 H1457 0.985 . S
N1445 C1447 1.356 . S
N1445 H1450 0.984 . S
N1445 H1451 0.985 . S
C1446 C1440 1.379 . S
C1446 C1443 1.363 . S
C1446 N1444 1.356 . S
C1447 C1441 1.363 . S
C1447 C1442 1.379 . S
C1447 N1445 1.356 . S
N1448 C1440 1.356 . S
N1448 H1454 0.984 . S
N1448 H1455 0.984 . S
N1449 C1442 1.356 . S
N1449 H1452 0.984 . S
N1449 H1453 0.985 . S
H1450 N1445 0.984 . S
H1451 N1445 0.985 . S
H1452 N1449 0.984 . S
H1453 N1449 0.985 . S
H1454 N1448 0.984 . S
H1455 N1448 0.984 . S
H1456 N1444 0.984 . S
H1457 N1444 0.985 . S
C1458 C1459 1.363 . S
C1458 C1464 1.379 . S
C1458 N1466 1.356 . S
C1459 C1458 1.363 . S
C1459 C1465 1.363 . S
C1460 C1461 1.363 . S
C1460 C1465 1.379 . S
C1460 N1467 1.356 . S
C1461 C1460 1.363 . S
C1461 C1464 1.363 . S
N1462 C1464 1.356 . S
N1462 H1474 0.984 . S
N1462 H1475 0.985 . S
N1463 C1465 1.356 . S
N1463 H1468 0.984 . S
N1463 H1469 0.985 . S
C1464 C1458 1.379 . S
C1464 C1461 1.363 . S
C1464 N1462 1.356 . S
C1465 C1459 1.363 . S
C1465 C1460 1.379 . S
C1465 N1463 1.356 . S
N1466 C1458 1.356 . S
N1466 H1472 0.984 . S
N1466 H1473 0.984 . S
N1467 C1460 1.356 . S
N1467 H1470 0.984 . S
N1467 H1471 0.985 . S
H1468 N1463 0.984 . S
H1469 N1463 0.985 . S
H1470 N1467 0.984 . S
H1471 N1467 0.985 . S
H1472 N1466 0.984 . S
H1473 N1466 0.984 . S
H1474 N1462 0.984 . S
H1475 N1462 0.985 . S
C1476 C1477 1.363 . S
C1476 C1482 1.379 . S
C1476 N1484 1.356 . S
C1477 C1476 1.363 . S
C1477 C1483 1.363 . S
C1478 C1479 1.363 . S
C1478 C1483 1.379 . S
C1478 N1485 1.356 . S
C1479 C1478 1.363 . S
C1479 C1482 1.363 . S
N1480 C1482 1.356 . S
N1480 H1492 0.984 . S
N1480 H1493 0.985 . S
N1481 C1483 1.356 . S
N1481 H1486 0.984 . S
N1481 H1487 0.985 . S
C1482 C1476 1.379 . S
C1482 C1479 1.363 . S
C1482 N1480 1.356 . S
C1483 C1477 1.363 . S
C1483 C1478 1.379 . S
C1483 N1481 1.356 . S
N1484 C1476 1.356 . S
N1484 H1490 0.984 . S
N1484 H1491 0.984 . S
N1485 C1478 1.356 . S
N1485 H1488 0.984 . S
N1485 H1489 0.985 . S
H1486 N1481 0.984 . S
H1487 N1481 0.985 . S
H1488 N1485 0.984 . S
H1489 N1485 0.985 . S
H1490 N1484 0.984 . S
H1491 N1484 0.984 . S
H1492 N1480 0.984 . S
H1493 N1480 0.985 . S
C1494 C1495 1.363 . S
C1494 C1500 1.379 . S
C1494 N1502 1.356 . S
C1495 C1494 1.363 . S
C1495 C1501 1.363 . S
C1496 C1497 1.363 . S
C1496 C1501 1.379 . S
C1496 N1503 1.356 . S
C1497 C1496 1.363 . S
C1497 C1500 1.363 . S
N1498 C1500 1.356 . S
N1498 H1510 0.984 . S
N1498 H1511 0.985 . S
N1499 C1501 1.356 . S
N1499 H1504 0.984 . S
N1499 H1505 0.985 . S
C1500 C1494 1.379 . S
C1500 C1497 1.363 . S
C1500 N1498 1.356 . S
C1501 C1495 1.363 . S
C1501 C1496 1.379 . S
C1501 N1499 1.356 . S
N1502 C1494 1.356 . S
N1502 H1508 0.984 . S
N1502 H1509 0.984 . S
N1503 C1496 1.356 . S
N1503 H1506 0.984 . S
N1503 H1507 0.985 . S
H1504 N1499 0.984 . S
H1505 N1499 0.985 . S
H1506 N1503 0.984 . S
H1507 N1503 0.985 . S
H1508 N1502 0.984 . S
H1509 N1502 0.984 . S
H1510 N1498 0.984 . S
H1511 N1498 0.985 . S
C1512 C1513 1.363 . S
C1512 C1518 1.379 . S
C1512 N1520 1.356 . S
C1513 C1512 1.363 . S
C1513 C1519 1.363 . S
C1514 C1515 1.363 . S
C1514 C1519 1.379 . S
C1514 N1521 1.356 . S
C1515 C1514 1.363 . S
C1515 C1518 1.363 . S
N1516 C1518 1.356 . S
N1516 H1528 0.984 . S
N1516 H1529 0.985 . S
N1517 C1519 1.356 . S
N1517 H1522 0.984 . S
N1517 H1523 0.985 . S
C1518 C1512 1.379 . S
C1518 C1515 1.363 . S
C1518 N1516 1.356 . S
C1519 C1513 1.363 . S
C1519 C1514 1.379 . S
C1519 N1517 1.356 . S
N1520 C1512 1.356 . S
N1520 H1526 0.984 . S
N1520 H1527 0.984 . S
N1521 C1514 1.356 . S
N1521 H1524 0.984 . S
N1521 H1525 0.985 . S
H1522 N1517 0.984 . S
H1523 N1517 0.985 . S
H1524 N1521 0.984 . S
H1525 N1521 0.985 . S
H1526 N1520 0.984 . S
H1527 N1520 0.984 . S
H1528 N1516 0.984 . S
H1529 N1516 0.985 . S
C1530 C1531 1.363 . S
C1530 C1536 1.379 . S
C1530 N1538 1.356 . S
C1531 C1530 1.363 . S
C1531 C1537 1.363 . S
C1532 C1533 1.363 . S
C1532 C1537 1.379 . S
C1532 N1539 1.356 . S
C1533 C1532 1.363 . S
C1533 C1536 1.363 . S
N1534 C1536 1.356 . S
N1534 H1546 0.984 . S
N1534 H1547 0.985 . S
N1535 C1537 1.356 . S
N1535 H1540 0.984 . S
N1535 H1541 0.985 . S
C1536 C1530 1.379 . S
C1536 C1533 1.363 . S
C1536 N1534 1.356 . S
C1537 C1531 1.363 . S
C1537 C1532 1.379 . S
C1537 N1535 1.356 . S
N1538 C1530 1.356 . S
N1538 H1544 0.984 . S
N1538 H1545 0.984 . S
N1539 C1532 1.356 . S
N1539 H1542 0.984 . S
N1539 H1543 0.985 . S
H1540 N1535 0.984 . S
H1541 N1535 0.985 . S
H1542 N1539 0.984 . S
H1543 N1539 0.985 . S
H1544 N1538 0.984 . S
H1545 N1538 0.984 . S
H1546 N1534 0.984 . S
H1547 N1534 0.985 . S
C1548 C1549 1.363 . S
C1548 C1554 1.379 1_554 S
C1548 N1556 1.356 . S
C1549 C1548 1.363 . S
C1549 C1555 1.363 . S
C1550 C1551 1.363 . S
C1550 C1555 1.379 1_556 S
C1550 N1557 1.356 . S
C1551 C1550 1.363 . S
C1551 C1554 1.363 . S
N1552 C1554 1.356 . S
N1552 H1564 0.984 . S
N1552 H1565 0.985 . S
N1553 C1555 1.356 . S
N1553 H1558 0.984 . S
N1553 H1559 0.985 . S
C1554 C1548 1.379 1_556 S
C1554 C1551 1.363 . S
C1554 N1552 1.356 . S
C1555 C1549 1.363 . S
C1555 C1550 1.379 1_554 S
C1555 N1553 1.356 . S
N1556 C1548 1.356 . S
N1556 H1562 0.984 . S
N1556 H1563 0.984 . S
N1557 C1550 1.356 . S
N1557 H1560 0.984 . S
N1557 H1561 0.985 . S
H1558 N1553 0.984 . S
H1559 N1553 0.985 . S
H1560 N1557 0.984 . S
H1561 N1557 0.985 . S
H1562 N1556 0.984 . S
H1563 N1556 0.984 . S
H1564 N1552 0.984 . S
H1565 N1552 0.985 . S
C1566 C1567 1.363 1_565 S
C1566 C1572 1.379 1_556 S
C1566 N1574 1.356 . S
C1567 C1566 1.363 1_545 S
C1567 C1573 1.363 . S
C1568 C1569 1.363 1_545 S
C1568 C1573 1.379 1_554 S
C1568 N1575 1.356 . S
C1569 C1568 1.363 1_565 S
C1569 C1572 1.363 . S
N1570 C1572 1.356 . S
N1570 H1582 0.984 . S
N1570 H1583 0.985 . S
N1571 C1573 1.356 . S
N1571 H1576 0.984 . S
N1571 H1577 0.985 . S
C1572 C1566 1.379 1_554 S
C1572 C1569 1.363 . S
C1572 N1570 1.356 . S
C1573 C1567 1.363 . S
C1573 C1568 1.379 1_556 S
C1573 N1571 1.356 . S
N1574 C1566 1.356 . S
N1574 H1580 0.984 . S
N1574 H1581 0.984 . S
N1575 C1568 1.356 . S
N1575 H1578 0.984 . S
N1575 H1579 0.985 . S
H1576 N1571 0.984 . S
H1577 N1571 0.985 . S
H1578 N1575 0.984 . S
H1579 N1575 0.985 . S
H1580 N1574 0.984 . S
H1581 N1574 0.984 . S
H1582 N1570 0.984 . S
H1583 N1570 0.985 . S
C1584 C1585 1.363 . S
C1584 C1590 1.379 1_556 S
C1584 N1592 1.356 . S
C1585 C1584 1.363 . S
C1585 C1591 1.363 1_655 S
C1586 C1587 1.363 . S
C1586 C1591 1.379 1_554 S
C1586 N1593 1.356 . S
C1587 C1586 1.363 . S
C1587 C1590 1.363 1_455 S
N1588 C1590 1.356 . S
N1588 H1600 0.984 . S
N1588 H1601 0.985 . S
N1589 C1591 1.356 . S
N1589 H1594 0.984 . S
N1589 H1595 0.985 . S
C1590 C1584 1.379 1_554 S
C1590 C1587 1.363 1_655 S
C1590 N1588 1.356 . S
C1591 C1585 1.363 1_455 S
C1591 C1586 1.379 1_556 S
C1591 N1589 1.356 . S
N1592 C1584 1.356 . S
N1592 H1598 0.984 . S
N1592 H1599 0.984 . S
N1593 C1586 1.356 . S
N1593 H1596 0.984 . S
N1593 H1597 0.985 . S
H1594 N1589 0.984 . S
H1595 N1589 0.985 . S
H1596 N1593 0.984 . S
H1597 N1593 0.985 . S
H1598 N1592 0.984 . S
H1599 N1592 0.984 . S
H1600 N1588 0.984 . S
H1601 N1588 0.985 . S
C1602 C1603 1.363 . S
C1602 C1608 1.379 . S
C1602 N1610 1.356 . S
C1603 C1602 1.363 . S
C1603 C1609 1.363 . S
C1604 C1605 1.363 . S
C1604 C1609 1.379 . S
C1604 N1611 1.356 . S
C1605 C1604 1.363 . S
C1605 C1608 1.363 . S
N1606 C1608 1.356 . S
N1606 H1618 0.984 . S
N1606 H1619 0.985 . S
N1607 C1609 1.356 . S
N1607 H1612 0.984 . S
N1607 H1613 0.985 . S
C1608 C1602 1.379 . S
C1608 C1605 1.363 . S
C1608 N1606 1.356 . S
C1609 C1603 1.363 . S
C1609 C1604 1.379 . S
C1609 N1607 1.356 . S
N1610 C1602 1.356 . S
N1610 H1616 0.984 . S
N1610 H1617 0.984 . S
N1611 C1604 1.356 . S
N1611 H1614 0.984 . S
N1611 H1615 0.985 . S
H1612 N1607 0.984 . S
H1613 N1607 0.985 . S
H1614 N1611 0.984 . S
H1615 N1611 0.985 . S
H1616 N1610 0.984 . S
H1617 N1610 0.984 . S
H1618 N1606 0.984 . S
H1619 N1606 0.985 . S
C1620 C1621 1.363 . S
C1620 C1626 1.379 . S
C1620 N1628 1.356 . S
C1621 C1620 1.363 . S
C1621 C1627 1.363 . S
C1622 C1623 1.363 . S
C1622 C1627 1.379 . S
C1622 N1629 1.356 . S
C1623 C1622 1.363 . S
C1623 C1626 1.363 . S
N1624 C1626 1.356 . S
N1624 H1636 0.984 . S
N1624 H1637 0.985 . S
N1625 C1627 1.356 . S
N1625 H1630 0.984 . S
N1625 H1631 0.985 . S
C1626 C1620 1.379 . S
C1626 C1623 1.363 . S
C1626 N1624 1.356 . S
C1627 C1621 1.363 . S
C1627 C1622 1.379 . S
C1627 N1625 1.356 . S
N1628 C1620 1.356 . S
N1628 H1634 0.984 . S
N1628 H1635 0.984 . S
N1629 C1622 1.356 . S
N1629 H1632 0.984 . S
N1629 H1633 0.985 . S
H1630 N1625 0.984 . S
H1631 N1625 0.985 . S
H1632 N1629 0.984 . S
H1633 N1629 0.985 . S
H1634 N1628 0.984 . S
H1635 N1628 0.984 . S
H1636 N1624 0.984 . S
H1637 N1624 0.985 . S
C1638 C1639 1.363 . S
C1638 C1644 1.379 . S
C1638 N1646 1.356 . S
C1639 C1638 1.363 . S
C1639 C1645 1.363 . S
C1640 C1641 1.363 . S
C1640 C1645 1.379 . S
C1640 N1647 1.356 . S
C1641 C1640 1.363 . S
C1641 C1644 1.363 . S
N1642 C1644 1.356 . S
N1642 H1654 0.984 . S
N1642 H1655 0.985 . S
N1643 C1645 1.356 . S
N1643 H1648 0.984 . S
N1643 H1649 0.985 . S
C1644 C1638 1.379 . S
C1644 C1641 1.363 . S
C1644 N1642 1.356 . S
C1645 C1639 1.363 . S
C1645 C1640 1.379 . S
C1645 N1643 1.356 . S
N1646 C1638 1.356 . S
N1646 H1652 0.984 . S
N1646 H1653 0.984 . S
N1647 C1640 1.356 . S
N1647 H1650 0.984 . S
N1647 H1651 0.985 . S
H1648 N1643 0.984 . S
H1649 N1643 0.985 . S
H1650 N1647 0.984 . S
H1651 N1647 0.985 . S
H1652 N1646 0.984 . S
H1653 N1646 0.984 . S
H1654 N1642 0.984 . S
H1655 N1642 0.985 . S
C1656 C1657 1.363 . S
C1656 C1662 1.379 . S
C1656 N1664 1.356 . S
C1657 C1656 1.363 . S
C1657 C1663 1.363 . S
C1658 C1659 1.363 . S
C1658 C1663 1.379 . S
C1658 N1665 1.356 . S
C1659 C1658 1.363 . S
C1659 C1662 1.363 . S
N1660 C1662 1.356 . S
N1660 H1672 0.984 . S
N1660 H1673 0.985 . S
N1661 C1663 1.356 . S
N1661 H1666 0.984 . S
N1661 H1667 0.985 . S
C1662 C1656 1.379 . S
C1662 C1659 1.363 . S
C1662 N1660 1.356 . S
C1663 C1657 1.363 . S
C1663 C1658 1.379 . S
C1663 N1661 1.356 . S
N1664 C1656 1.356 . S
N1664 H1670 0.984 . S
N1664 H1671 0.984 . S
N1665 C1658 1.356 . S
N1665 H1668 0.984 . S
N1665 H1669 0.985 . S
H1666 N1661 0.984 . S
H1667 N1661 0.985 . S
H1668 N1665 0.984 . S
H1669 N1665 0.985 . S
H1670 N1664 0.984 . S
H1671 N1664 0.984 . S
H1672 N1660 0.984 . S
H1673 N1660 0.985 . S
C1674 C1675 1.363 . S
C1674 C1680 1.379 . S
C1674 N1682 1.356 . S
C1675 C1674 1.363 . S
C1675 C1681 1.363 . S
C1676 C1677 1.363 . S
C1676 C1681 1.379 . S
C1676 N1683 1.356 . S
C1677 C1676 1.363 . S
C1677 C1680 1.363 . S
N1678 C1680 1.356 . S
N1678 H1690 0.984 . S
N1678 H1691 0.985 . S
N1679 C1681 1.356 . S
N1679 H1684 0.984 . S
N1679 H1685 0.985 . S
C1680 C1674 1.379 . S
C1680 C1677 1.363 . S
C1680 N1678 1.356 . S
C1681 C1675 1.363 . S
C1681 C1676 1.379 . S
C1681 N1679 1.356 . S
N1682 C1674 1.356 . S
N1682 H1688 0.984 . S
N1682 H1689 0.984 . S
N1683 C1676 1.356 . S
N1683 H1686 0.984 . S
N1683 H1687 0.985 . S
H1684 N1679 0.984 . S
H1685 N1679 0.985 . S
H1686 N1683 0.984 . S
H1687 N1683 0.985 . S
H1688 N1682 0.984 . S
H1689 N1682 0.984 . S
H1690 N1678 0.984 . S
H1691 N1678 0.985 . S
C1692 C1693 1.363 . S
C1692 C1698 1.379 . S
C1692 N1700 1.356 . S
C1693 C1692 1.363 . S
C1693 C1699 1.363 . S
C1694 C1695 1.363 . S
C1694 C1699 1.379 . S
C1694 N1701 1.356 . S
C1695 C1694 1.363 . S
C1695 C1698 1.363 . S
N1696 C1698 1.356 . S
N1696 H1708 0.984 . S
N1696 H1709 0.985 . S
N1697 C1699 1.356 . S
N1697 H1702 0.984 . S
N1697 H1703 0.985 . S
C1698 C1692 1.379 . S
C1698 C1695 1.363 . S
C1698 N1696 1.356 . S
C1699 C1693 1.363 . S
C1699 C1694 1.379 . S
C1699 N1697 1.356 . S
N1700 C1692 1.356 . S
N1700 H1706 0.984 . S
N1700 H1707 0.984 . S
N1701 C1694 1.356 . S
N1701 H1704 0.984 . S
N1701 H1705 0.985 . S
H1702 N1697 0.984 . S
H1703 N1697 0.985 . S
H1704 N1701 0.984 . S
H1705 N1701 0.985 . S
H1706 N1700 0.984 . S
H1707 N1700 0.984 . S
H1708 N1696 0.984 . S
H1709 N1696 0.985 . S
C1063 C595 1.314 . S
C1065 C5 1.314 . S
C1081 C64 1.314 . S
C1083 C654 1.314 . S
C1099 C536 1.314 . S
C1101 C123 1.314 . S
C1117 C831 1.314 . S
C1119 C182 1.314 . S
C1135 C241 1.314 . S
C1137 C713 1.314 . S
C1153 C772 1.314 . S
C1155 C300 1.314 . S
C1171 C359 1.314 . S
C1173 C949 1.314 . S
C1189 C1008 1.314 . S
C1191 C418 1.314 . S
C1207 C477 1.314 . S
C1209 C890 1.314 . S
C1225 C52 1.440 . S
C1227 C92 1.382 . S
C1243 C111 1.439 . S
C1245 C151 1.382 . S
C1261 C33 1.382 . S
C1263 C170 1.439 . S
C1279 C328 1.383 . S
C1281 C229 1.440 . S
C1297 C210 1.382 . S
C1299 C288 1.439 . S
C1315 C347 1.439 . S
C1317 C269 1.382 . S
C1333 C406 1.440 . S
C1335 C446 1.383 . S
C1351 C465 1.440 . S
C1353 C505 1.382 . S
C1369 C387 1.382 . S
C1371 C524 1.439 . S
C1387 C682 1.382 . S
C1389 C583 1.439 . S
C1405 C564 1.382 . S
C1407 C642 1.439 . S
C1423 C623 1.382 . S
C1425 C701 1.439 . S
C1441 C800 1.382 . S
C1443 C760 1.439 . S
C1459 C859 1.381 . S
C1461 C819 1.439 . S
C1477 C741 1.382 . S
C1479 C878 1.439 . S
C1495 C937 1.440 . S
C1497 C1036 1.383 . S
C1513 C996 1.439 . S
C1515 C918 1.382 . S
C1531 C1055 1.440 . S
C1533 C977 1.383 . S
C1549 C3 1.868 . S
C1551 C180 1.868 . S
C1567 C239 1.868 . S
C1569 C62 1.868 . S
C1585 C298 1.868 . S
C1587 C121 1.868 . S
C1603 C534 1.868 . S
C1605 C357 1.868 . S
C1621 C593 1.868 . S
C1623 C416 1.868 . S
C1639 C475 1.868 . S
C1641 C652 1.868 . S
C1657 C888 1.868 . S
C1659 C711 1.868 . S
C1675 C947 1.868 . S
C1677 C770 1.868 . S
C1693 C1006 1.868 . S
C1695 C829 1.868 . S
