# Generated by pormake.
# Topology yfs, (5)-cn, num edge types: 1
# Building blocks:
#     Node 0, Type 0, BuildingBlock: BEQFEK_clean_sbu_0, # of connection points: 5
#     Node 1, Type 0, BuildingBlock: BEQFEK_clean_sbu_0, # of connection points: 5
#     Node 2, Type 0, BuildingBlock: BEQFEK_clean_sbu_0, # of connection points: 5
#     Node 3, Type 0, BuildingBlock: BEQFEK_clean_sbu_0, # of connection points: 5
#     Node 4, Type 0, BuildingBlock: BEQFEK_clean_sbu_0, # of connection points: 5
#     Node 5, Type 0, BuildingBlock: BEQFEK_clean_sbu_0, # of connection points: 5
#     Node 6, Type 0, BuildingBlock: BEQFEK_clean_sbu_0, # of connection points: 5
#     Node 7, Type 0, BuildingBlock: BEQFEK_clean_sbu_0, # of connection points: 5
#     Node 8, Type 0, BuildingBlock: BEQFEK_clean_sbu_0, # of connection points: 5
#     Node 9, Type 0, BuildingBlock: BEQFEK_clean_sbu_0, # of connection points: 5
#     Node 10, Type 0, BuildingBlock: BEQFEK_clean_sbu_0, # of connection points: 5
#     Node 11, Type 0, BuildingBlock: BEQFEK_clean_sbu_0, # of connection points: 5
#     Node 12, Type 0, BuildingBlock: BEQFEK_clean_sbu_0, # of connection points: 5
#     Node 13, Type 0, BuildingBlock: BEQFEK_clean_sbu_0, # of connection points: 5
#     Node 14, Type 0, BuildingBlock: BEQFEK_clean_sbu_0, # of connection points: 5
#     Node 15, Type 0, BuildingBlock: BEQFEK_clean_sbu_0, # of connection points: 5
#     Node 16, Type 0, BuildingBlock: BEQFEK_clean_sbu_0, # of connection points: 5
#     Node 17, Type 0, BuildingBlock: BEQFEK_clean_sbu_0, # of connection points: 5
#     Node 18, Type 0, BuildingBlock: BEQFEK_clean_sbu_0, # of connection points: 5
#     Node 19, Type 0, BuildingBlock: BEQFEK_clean_sbu_0, # of connection points: 5
#     Node 20, Type 0, BuildingBlock: BEQFEK_clean_sbu_0, # of connection points: 5
#     Node 21, Type 0, BuildingBlock: BEQFEK_clean_sbu_0, # of connection points: 5
#     Node 22, Type 0, BuildingBlock: BEQFEK_clean_sbu_0, # of connection points: 5
#     Node 23, Type 0, BuildingBlock: BEQFEK_clean_sbu_0, # of connection points: 5
#     Node 24, Type 0, BuildingBlock: BEQFEK_clean_sbu_0, # of connection points: 5
#     Node 25, Type 0, BuildingBlock: BEQFEK_clean_sbu_0, # of connection points: 5
#     Node 26, Type 0, BuildingBlock: BEQFEK_clean_sbu_0, # of connection points: 5
#     Node 27, Type 0, BuildingBlock: BEQFEK_clean_sbu_0, # of connection points: 5
#     Node 28, Type 0, BuildingBlock: BEQFEK_clean_sbu_0, # of connection points: 5
#     Node 29, Type 0, BuildingBlock: BEQFEK_clean_sbu_0, # of connection points: 5
#     Node 30, Type 0, BuildingBlock: BEQFEK_clean_sbu_0, # of connection points: 5
#     Node 31, Type 0, BuildingBlock: BEQFEK_clean_sbu_0, # of connection points: 5
#     Edge 32, Type (0, 0), BuildingBlock: AJUNOK_clean_linker_0, # of connection points: 2
#     Edge 33, Type (0, 0), BuildingBlock: AJUNOK_clean_linker_0, # of connection points: 2
#     Edge 34, Type (0, 0), BuildingBlock: AJUNOK_clean_linker_0, # of connection points: 2
#     Edge 35, Type (0, 0), BuildingBlock: AJUNOK_clean_linker_0, # of connection points: 2
#     Edge 36, Type (0, 0), BuildingBlock: AJUNOK_clean_linker_0, # of connection points: 2
#     Edge 37, Type (0, 0), BuildingBlock: AJUNOK_clean_linker_0, # of connection points: 2
#     Edge 38, Type (0, 0), BuildingBlock: AJUNOK_clean_linker_0, # of connection points: 2
#     Edge 39, Type (0, 0), BuildingBlock: AJUNOK_clean_linker_0, # of connection points: 2
#     Edge 40, Type (0, 0), BuildingBlock: AJUNOK_clean_linker_0, # of connection points: 2
#     Edge 41, Type (0, 0), BuildingBlock: AJUNOK_clean_linker_0, # of connection points: 2
#     Edge 42, Type (0, 0), BuildingBlock: AJUNOK_clean_linker_0, # of connection points: 2
#     Edge 43, Type (0, 0), BuildingBlock: AJUNOK_clean_linker_0, # of connection points: 2
#     Edge 44, Type (0, 0), BuildingBlock: AJUNOK_clean_linker_0, # of connection points: 2
#     Edge 45, Type (0, 0), BuildingBlock: AJUNOK_clean_linker_0, # of connection points: 2
#     Edge 46, Type (0, 0), BuildingBlock: AJUNOK_clean_linker_0, # of connection points: 2
#     Edge 47, Type (0, 0), BuildingBlock: AJUNOK_clean_linker_0, # of connection points: 2
#     Edge 48, Type (0, 0), BuildingBlock: AJUNOK_clean_linker_0, # of connection points: 2
#     Edge 49, Type (0, 0), BuildingBlock: AJUNOK_clean_linker_0, # of connection points: 2
#     Edge 50, Type (0, 0), BuildingBlock: AJUNOK_clean_linker_0, # of connection points: 2
#     Edge 51, Type (0, 0), BuildingBlock: AJUNOK_clean_linker_0, # of connection points: 2
#     Edge 52, Type (0, 0), BuildingBlock: AJUNOK_clean_linker_0, # of connection points: 2
#     Edge 53, Type (0, 0), BuildingBlock: AJUNOK_clean_linker_0, # of connection points: 2
#     Edge 54, Type (0, 0), BuildingBlock: AJUNOK_clean_linker_0, # of connection points: 2
#     Edge 55, Type (0, 0), BuildingBlock: AJUNOK_clean_linker_0, # of connection points: 2
#     Edge 56, Type (0, 0), BuildingBlock: AJUNOK_clean_linker_0, # of connection points: 2
#     Edge 57, Type (0, 0), BuildingBlock: AJUNOK_clean_linker_0, # of connection points: 2
#     Edge 58, Type (0, 0), BuildingBlock: AJUNOK_clean_linker_0, # of connection points: 2
#     Edge 59, Type (0, 0), BuildingBlock: AJUNOK_clean_linker_0, # of connection points: 2
#     Edge 60, Type (0, 0), BuildingBlock: AJUNOK_clean_linker_0, # of connection points: 2
#     Edge 61, Type (0, 0), BuildingBlock: AJUNOK_clean_linker_0, # of connection points: 2
#     Edge 62, Type (0, 0), BuildingBlock: AJUNOK_clean_linker_0, # of connection points: 2
#     Edge 63, Type (0, 0), BuildingBlock: AJUNOK_clean_linker_0, # of connection points: 2
#     Edge 64, Type (0, 0), BuildingBlock: AJUNOK_clean_linker_0, # of connection points: 2
#     Edge 65, Type (0, 0), BuildingBlock: AJUNOK_clean_linker_0, # of connection points: 2
#     Edge 66, Type (0, 0), BuildingBlock: AJUNOK_clean_linker_0, # of connection points: 2
#     Edge 67, Type (0, 0), BuildingBlock: AJUNOK_clean_linker_0, # of connection points: 2
#     Edge 68, Type (0, 0), BuildingBlock: AJUNOK_clean_linker_0, # of connection points: 2
#     Edge 69, Type (0, 0), BuildingBlock: AJUNOK_clean_linker_0, # of connection points: 2
#     Edge 70, Type (0, 0), BuildingBlock: AJUNOK_clean_linker_0, # of connection points: 2
#     Edge 71, Type (0, 0), BuildingBlock: AJUNOK_clean_linker_0, # of connection points: 2
#     Edge 72, Type (0, 0), BuildingBlock: AJUNOK_clean_linker_0, # of connection points: 2
#     Edge 73, Type (0, 0), BuildingBlock: AJUNOK_clean_linker_0, # of connection points: 2
#     Edge 74, Type (0, 0), BuildingBlock: AJUNOK_clean_linker_0, # of connection points: 2
#     Edge 75, Type (0, 0), BuildingBlock: AJUNOK_clean_linker_0, # of connection points: 2
#     Edge 76, Type (0, 0), BuildingBlock: AJUNOK_clean_linker_0, # of connection points: 2
#     Edge 77, Type (0, 0), BuildingBlock: AJUNOK_clean_linker_0, # of connection points: 2
#     Edge 78, Type (0, 0), BuildingBlock: AJUNOK_clean_linker_0, # of connection points: 2
#     Edge 79, Type (0, 0), BuildingBlock: AJUNOK_clean_linker_0, # of connection points: 2
#     Edge 80, Type (0, 0), BuildingBlock: AJUNOK_clean_linker_0, # of connection points: 2
#     Edge 81, Type (0, 0), BuildingBlock: AJUNOK_clean_linker_0, # of connection points: 2
#     Edge 82, Type (0, 0), BuildingBlock: AJUNOK_clean_linker_0, # of connection points: 2
#     Edge 83, Type (0, 0), BuildingBlock: AJUNOK_clean_linker_0, # of connection points: 2
#     Edge 84, Type (0, 0), BuildingBlock: AJUNOK_clean_linker_0, # of connection points: 2
#     Edge 85, Type (0, 0), BuildingBlock: AJUNOK_clean_linker_0, # of connection points: 2
#     Edge 86, Type (0, 0), BuildingBlock: AJUNOK_clean_linker_0, # of connection points: 2
#     Edge 87, Type (0, 0), BuildingBlock: AJUNOK_clean_linker_0, # of connection points: 2
#     Edge 88, Type (0, 0), BuildingBlock: AJUNOK_clean_linker_0, # of connection points: 2
#     Edge 89, Type (0, 0), BuildingBlock: AJUNOK_clean_linker_0, # of connection points: 2
#     Edge 90, Type (0, 0), BuildingBlock: AJUNOK_clean_linker_0, # of connection points: 2
#     Edge 91, Type (0, 0), BuildingBlock: AJUNOK_clean_linker_0, # of connection points: 2
#     Edge 92, Type (0, 0), BuildingBlock: AJUNOK_clean_linker_0, # of connection points: 2
#     Edge 93, Type (0, 0), BuildingBlock: AJUNOK_clean_linker_0, # of connection points: 2
#     Edge 94, Type (0, 0), BuildingBlock: AJUNOK_clean_linker_0, # of connection points: 2
#     Edge 95, Type (0, 0), BuildingBlock: AJUNOK_clean_linker_0, # of connection points: 2
#     Edge 96, Type (0, 0), BuildingBlock: AJUNOK_clean_linker_0, # of connection points: 2
#     Edge 97, Type (0, 0), BuildingBlock: AJUNOK_clean_linker_0, # of connection points: 2
#     Edge 98, Type (0, 0), BuildingBlock: AJUNOK_clean_linker_0, # of connection points: 2
#     Edge 99, Type (0, 0), BuildingBlock: AJUNOK_clean_linker_0, # of connection points: 2
#     Edge 100, Type (0, 0), BuildingBlock: AJUNOK_clean_linker_0, # of connection points: 2
#     Edge 101, Type (0, 0), BuildingBlock: AJUNOK_clean_linker_0, # of connection points: 2
#     Edge 102, Type (0, 0), BuildingBlock: AJUNOK_clean_linker_0, # of connection points: 2
#     Edge 103, Type (0, 0), BuildingBlock: AJUNOK_clean_linker_0, # of connection points: 2
#     Edge 104, Type (0, 0), BuildingBlock: AJUNOK_clean_linker_0, # of connection points: 2
#     Edge 105, Type (0, 0), BuildingBlock: AJUNOK_clean_linker_0, # of connection points: 2
#     Edge 106, Type (0, 0), BuildingBlock: AJUNOK_clean_linker_0, # of connection points: 2
#     Edge 107, Type (0, 0), BuildingBlock: AJUNOK_clean_linker_0, # of connection points: 2
#     Edge 108, Type (0, 0), BuildingBlock: AJUNOK_clean_linker_0, # of connection points: 2
#     Edge 109, Type (0, 0), BuildingBlock: AJUNOK_clean_linker_0, # of connection points: 2
#     Edge 110, Type (0, 0), BuildingBlock: AJUNOK_clean_linker_0, # of connection points: 2
#     Edge 111, Type (0, 0), BuildingBlock: AJUNOK_clean_linker_0, # of connection points: 2
# Relax obj value: 0.330
# Max RMSD: 0.174
# Mean RMSD: 0.174
data_MOF--net-yfs--node1-BEQFEK_clean_sbu_0--edge1-AJUNOK_clean_linker_0
_symmetry_space_group_name_H-M    P1
_symmetry_Int_Tables_number       1
_symmetry_cell_setting            triclinic
loop_
_symmetry_equiv_pos_as_xyz
'x, y, z'
_cell_length_a     38.398591
_cell_length_b     38.376906
_cell_length_c     65.737713
_cell_angle_alpha  90.008847
_cell_angle_beta   90.074099
_cell_angle_gamma 89.998523
loop_
_atom_site_label
_atom_site_type_symbol
_atom_site_fract_x
_atom_site_fract_y
_atom_site_fract_z
_atom_type_partial_charge
Co0 Co 0.43276 0.1248 0.18033 0.0
Co1 Co 0.38628 0.16205 0.21277 0.0
C2 C 0.37448 0.17013 0.16714 0.0
O3 O 0.3974 0.14744 0.16253 0.0
O4 O 0.36817 0.17742 0.18569 0.0
C5 C 0.46292 0.09503 0.14467 0.0
O6 O 0.43097 0.09778 0.13769 0.0
C7 C 0.32364 0.18957 0.23163 0.0
C8 C 0.34459 0.21077 0.26041 0.0
C9 C 0.31498 0.20932 0.24846 0.0
N10 N 0.3571 0.18009 0.23335 0.0
N11 N 0.36942 0.19254 0.25069 0.0
C12 C 0.3006 0.18004 0.21414 0.0
H13 H 0.31072 0.15653 0.20628 0.0
H14 H 0.27364 0.17527 0.21956 0.0
H15 H 0.2997 0.2019 0.20317 0.0
C16 C 0.41727 0.06393 0.20755 0.0
N17 N 0.41295 0.09732 0.20165 0.0
N18 N 0.39354 0.11343 0.2152 0.0
C19 C 0.3854 0.09117 0.23028 0.0
C20 C 0.39986 0.0588 0.22591 0.0
C21 C 0.4386 0.03793 0.1961 0.0
H22 H 0.46633 0.04091 0.20054 0.0
H23 H 0.43647 0.04281 0.17951 0.0
H24 H 0.43016 0.01093 0.19962 0.0
O25 O 0.45976 0.16405 0.19142 0.0
O26 O 0.42963 0.18691 0.21679 0.0
H27 H 0.38328 0.1248 0.25611 0.0
H28 H 0.3686 0.08142 0.2614 0.0
C29 C 0.3687 0.10236 0.2498 0.0
H30 H 0.34162 0.11098 0.24673 0.0
H31 H 0.3953 0.19016 0.25536 0.0
O32 O 0.46846 0.10096 0.1634 0.0
C33 C 0.45655 0.186 0.20575 0.0
Co34 Co 0.10872 0.19337 0.43699 0.0
Co35 Co 0.08153 0.13377 0.46562 0.0
C36 C 0.06622 0.13237 0.42127 0.0
O37 O 0.08315 0.16055 0.41851 0.0
O38 O 0.06417 0.11857 0.4388 0.0
C39 C 0.13846 0.22345 0.40155 0.0
O40 O 0.14095 0.1905 0.39633 0.0
C41 C 0.05821 0.06719 0.48206 0.0
C42 C 0.0481 0.0809 0.51413 0.0
C43 C 0.04381 0.05466 0.4999 0.0
N44 N 0.06982 0.09967 0.48541 0.0
N45 N 0.06428 0.1075 0.50472 0.0
C46 C 0.06084 0.04852 0.46216 0.0
H47 H 0.08391 0.05779 0.45357 0.0
H48 H 0.06272 0.01996 0.46461 0.0
H49 H 0.03719 0.05374 0.45304 0.0
C50 C 0.1741 0.17816 0.45965 0.0
N51 N 0.14113 0.17045 0.45424 0.0
N52 N 0.12985 0.1445 0.46556 0.0
C53 C 0.15562 0.13407 0.47803 0.0
C54 C 0.18448 0.15527 0.47497 0.0
C55 C 0.19298 0.20987 0.45232 0.0
H56 H 0.17429 0.23153 0.44993 0.0
H57 H 0.20536 0.20395 0.43747 0.0
H58 H 0.21337 0.21819 0.46327 0.0
O59 O 0.07421 0.21716 0.45386 0.0
O60 O 0.05371 0.17484 0.47343 0.0
H61 H 0.13822 0.11433 0.50665 0.0
H62 H 0.17818 0.0949 0.49768 0.0
C63 C 0.15225 0.10486 0.49299 0.0
H64 H 0.13703 0.08326 0.48616 0.0
H65 H 0.06963 0.13178 0.51115 0.0
O66 O 0.12851 0.2307 0.41947 0.0
C67 C 0.05381 0.20646 0.46771 0.0
Co68 Co 0.05795 0.86565 0.68375 0.0
Co69 Co 0.11372 0.83346 0.71355 0.0
C70 C 0.11843 0.82395 0.66812 0.0
O71 O 0.09135 0.84237 0.6649 0.0
O72 O 0.12982 0.81915 0.6861 0.0
C73 C 0.02213 0.89312 0.64873 0.0
O74 O 0.05337 0.8935 0.64062 0.0
C75 C 0.17868 0.80622 0.73046 0.0
C76 C 0.16027 0.78754 0.76038 0.0
C77 C 0.1883 0.78649 0.7472 0.0
N78 N 0.14615 0.818 0.73349 0.0
N79 N 0.13562 0.80737 0.7516 0.0
C80 C 0.19759 0.80887 0.71064 0.0
H81 H 0.19153 0.78559 0.70129 0.0
H82 H 0.18933 0.83262 0.70232 0.0
H83 H 0.22614 0.80969 0.71306 0.0
C84 C 0.07404 0.92874 0.70856 0.0
N85 N 0.08025 0.89557 0.70293 0.0
N86 N 0.10282 0.88166 0.71567 0.0
C87 C 0.11117 0.90523 0.73004 0.0
C88 C 0.09313 0.93598 0.72615 0.0
C89 C 0.05 0.95252 0.69724 0.0
H90 H 0.05352 0.94883 0.68062 0.0
H91 H 0.05478 0.9802 0.70128 0.0
H92 H 0.02267 0.94559 0.70092 0.0
O93 O 0.03341 0.82844 0.69852 0.0
O94 O 0.07267 0.80556 0.71927 0.0
H95 H 0.13496 0.91862 0.75919 0.0
H96 H 0.15825 0.88706 0.74391 0.0
C97 C 0.13212 0.89641 0.74859 0.0
H98 H 0.11898 0.87501 0.75687 0.0
H99 H 0.1105 0.81112 0.75722 0.0
O100 O 0.01918 0.88659 0.6676 0.0
C101 C 0.04209 0.8065 0.71207 0.0
Co102 Co 0.37492 0.80327 0.92989 0.0
Co103 Co 0.40264 0.86627 0.95561 0.0
C104 C 0.4095 0.86776 0.91099 0.0
O105 O 0.39573 0.83751 0.91042 0.0
O106 O 0.41276 0.88397 0.92781 0.0
C107 C 0.34412 0.76986 0.89553 0.0
O108 O 0.34026 0.80212 0.88924 0.0
C109 C 0.43561 0.92682 0.97407 0.0
C110 C 0.43982 0.90989 0.00609 0.0
C111 C 0.45096 0.93502 0.99251 0.0
N112 N 0.41697 0.89758 0.9764 0.0
N113 N 0.41919 0.88783 0.99565 0.0
C114 C 0.44011 0.94529 0.9543 0.0
H115 H 0.45967 0.93094 0.9452 0.0
H116 H 0.41507 0.94544 0.94587 0.0
H117 H 0.44919 0.97247 0.95661 0.0
C118 C 0.31317 0.81465 0.95616 0.0
N119 N 0.34439 0.82437 0.94877 0.0
N120 N 0.35561 0.85175 0.95894 0.0
C121 C 0.33131 0.86106 0.97264 0.0
C122 C 0.30385 0.83761 0.97161 0.0
C123 C 0.29513 0.78164 0.95018 0.0
H124 H 0.31463 0.76096 0.94712 0.0
H125 H 0.28029 0.78621 0.93593 0.0
H126 H 0.27692 0.77274 0.9622 0.0
O127 O 0.4131 0.78135 0.94469 0.0
O128 O 0.43487 0.82738 0.96047 0.0
H129 H 0.34723 0.88396 1.00079 0.0
H130 H 0.30799 0.90215 0.99033 0.0
C131 C 0.33421 0.89191 0.98647 0.0
H132 H 0.34976 0.91277 0.97916 0.0
H133 H 0.40882 0.86467 1.00134 0.0
O134 O 0.35474 0.76465 0.91358 0.0
C135 C 0.43599 0.79529 0.95598 0.0
Co136 Co 0.43729 0.86388 0.31897 0.0
Co137 Co 0.38125 0.83326 0.28894 0.0
C138 C 0.37693 0.8201 0.33373 0.0
O139 O 0.40414 0.83826 0.33712 0.0
O140 O 0.36474 0.81701 0.31582 0.0
C141 C 0.46842 0.89196 0.3551 0.0
O142 O 0.436 0.89232 0.36146 0.0
C143 C 0.31571 0.80918 0.27141 0.0
C144 C 0.33259 0.79291 0.24074 0.0
C145 C 0.30466 0.79223 0.25399 0.0
N146 N 0.34888 0.81912 0.26873 0.0
N147 N 0.35868 0.80972 0.25025 0.0
C148 C 0.29527 0.81502 0.29044 0.0
H149 H 0.30536 0.83809 0.29875 0.0
H150 H 0.26728 0.81875 0.28677 0.0
H151 H 0.29754 0.79186 0.30037 0.0
C152 C 0.42012 0.92862 0.29538 0.0
N153 N 0.41447 0.89507 0.30056 0.0
N154 N 0.39126 0.88174 0.28798 0.0
C155 C 0.38163 0.90613 0.27438 0.0
C156 C 0.3994 0.93686 0.27863 0.0
C157 C 0.44631 0.95155 0.30559 0.0
H158 H 0.44665 0.94626 0.32218 0.0
H159 H 0.44047 0.97948 0.30281 0.0
H160 H 0.47255 0.94554 0.29947 0.0
O161 O 0.46268 0.82827 0.30331 0.0
O162 O 0.42266 0.80588 0.28282 0.0
H163 H 0.35711 0.92104 0.24573 0.0
H164 H 0.33417 0.88866 0.26063 0.0
C165 C 0.36018 0.89824 0.25589 0.0
H166 H 0.37313 0.87736 0.24708 0.0
H167 H 0.38387 0.81286 0.2446 0.0
O168 O 0.4744 0.88449 0.33659 0.0
C169 C 0.45354 0.80673 0.28962 0.0
Co170 Co 0.37952 0.19373 0.5672 0.0
Co171 Co 0.40978 0.13434 0.53931 0.0
C172 C 0.41958 0.13203 0.58416 0.0
O173 O 0.40274 0.16041 0.58629 0.0
O174 O 0.42382 0.11851 0.56669 0.0
C175 C 0.34781 0.22444 0.60211 0.0
O176 O 0.34368 0.1917 0.60739 0.0
C177 C 0.43486 0.06806 0.52269 0.0
C178 C 0.4472 0.08329 0.49108 0.0
C179 C 0.45014 0.05625 0.50489 0.0
N180 N 0.42337 0.10069 0.51955 0.0
N181 N 0.43025 0.10939 0.50051 0.0
C182 C 0.43609 0.05096 0.54313 0.0
H183 H 0.45858 0.0615 0.55173 0.0
H184 H 0.4119 0.05683 0.55168 0.0
H185 H 0.4394 0.02237 0.5419 0.0
C186 C 0.31662 0.17889 0.54204 0.0
N187 N 0.34903 0.17133 0.54857 0.0
N188 N 0.3616 0.14556 0.53754 0.0
C189 C 0.33725 0.13522 0.52411 0.0
C190 C 0.30815 0.15646 0.52614 0.0
C191 C 0.29591 0.20932 0.5495 0.0
H192 H 0.31355 0.2311 0.55361 0.0
H193 H 0.28147 0.20147 0.56338 0.0
H194 H 0.27693 0.21823 0.53787 0.0
O195 O 0.41592 0.21758 0.55179 0.0
O196 O 0.4385 0.17547 0.53286 0.0
H197 H 0.35819 0.1133 0.49683 0.0
H198 H 0.31628 0.09581 0.504 0.0
C199 C 0.34176 0.10514 0.50985 0.0
H200 H 0.35518 0.08344 0.51778 0.0
H201 H 0.42539 0.13398 0.49435 0.0
O202 O 0.35876 0.23113 0.5843 0.0
C203 C 0.43779 0.20702 0.53869 0.0
Co204 Co 0.05771 0.12671 0.82225 0.0
Co205 Co 0.11293 0.1597 0.79266 0.0
C206 C 0.11772 0.16974 0.83794 0.0
O207 O 0.09079 0.15101 0.841 0.0
O208 O 0.12957 0.17417 0.82004 0.0
C209 C 0.02473 0.09567 0.85703 0.0
O210 O 0.0565 0.09563 0.86447 0.0
C211 C 0.17692 0.18617 0.77375 0.0
C212 C 0.15522 0.20633 0.74489 0.0
C213 C 0.18489 0.20616 0.75683 0.0
N214 N 0.1437 0.17561 0.77208 0.0
N215 N 0.1312 0.18704 0.75456 0.0
C216 C 0.19897 0.18127 0.7923 0.0
H217 H 0.20345 0.20685 0.79971 0.0
H218 H 0.1866 0.16292 0.8031 0.0
H219 H 0.22475 0.17067 0.78794 0.0
C220 C 0.07418 0.06409 0.79721 0.0
N221 N 0.0802 0.09722 0.803 0.0
N222 N 0.10253 0.11148 0.79031 0.0
C223 C 0.11095 0.08819 0.7758 0.0
C224 C 0.09315 0.05726 0.77956 0.0
C225 C 0.05042 0.03993 0.80843 0.0
H226 H 0.023 0.047 0.80503 0.0
H227 H 0.05438 0.04306 0.82505 0.0
H228 H 0.05508 0.01239 0.80406 0.0
O229 O 0.032 0.16351 0.80778 0.0
O230 O 0.07152 0.18747 0.78769 0.0
H231 H 0.11841 0.1188 0.74909 0.0
H232 H 0.13469 0.07532 0.74661 0.0
C233 C 0.13173 0.09739 0.75729 0.0
H234 H 0.15782 0.10686 0.762 0.0
H235 H 0.10538 0.18394 0.74992 0.0
O236 O 0.02024 0.10433 0.83857 0.0
C237 C 0.04085 0.18612 0.79467 0.0
Co238 Co 0.11612 0.80368 0.06935 0.0
Co239 Co 0.08997 0.8672 0.04343 0.0
C240 C 0.08081 0.86714 0.08809 0.0
O241 O 0.0951 0.83719 0.08928 0.0
O242 O 0.07813 0.88286 0.07112 0.0
C243 C 0.14579 0.76655 0.10298 0.0
O244 O 0.15133 0.79798 0.11022 0.0
C245 C 0.06253 0.93195 0.02639 0.0
C246 C 0.05471 0.91591 0.99441 0.0
C247 C 0.04747 0.9421 0.00821 0.0
N248 N 0.07782 0.90088 0.02355 0.0
N249 N 0.07372 0.89182 0.00428 0.0
C250 C 0.05692 0.94831 0.04676 0.0
H251 H 0.0802 0.94441 0.05649 0.0
H252 H 0.05154 0.9766 0.04535 0.0
H253 H 0.03416 0.93577 0.05408 0.0
C254 C 0.17904 0.81514 0.04389 0.0
N255 N 0.14769 0.82499 0.05106 0.0
N256 N 0.13693 0.85251 0.04086 0.0
C257 C 0.16153 0.8617 0.02735 0.0
C258 C 0.18864 0.8379 0.02842 0.0
C259 C 0.19714 0.78238 0.05021 0.0
H260 H 0.17829 0.76045 0.05017 0.0
H261 H 0.20678 0.78547 0.06603 0.0
H262 H 0.21934 0.77615 0.04006 0.0
O263 O 0.07778 0.78333 0.05383 0.0
O264 O 0.05757 0.82911 0.03707 0.0
H265 H 0.14384 0.88588 0.9999 0.0
H266 H 0.18549 0.90122 0.00867 0.0
C267 C 0.15919 0.89272 0.01361 0.0
H268 H 0.14598 0.91452 0.02155 0.0
H269 H 0.08126 0.86777 0.99832 0.0
O270 O 0.13494 0.76345 0.08482 0.0
C271 C 0.05584 0.79717 0.04185 0.0
Co272 Co 0.54719 0.85952 0.81557 0.0
Co273 Co 0.6105 0.83359 0.78962 0.0
C274 C 0.60914 0.822 0.83432 0.0
O275 O 0.57967 0.8372 0.83567 0.0
O276 O 0.6247 0.81947 0.81729 0.0
C277 C 0.50693 0.8961 0.84668 0.0
O278 O 0.53662 0.90936 0.85291 0.0
C279 C 0.67736 0.80974 0.77343 0.0
C280 C 0.66314 0.8012 0.74121 0.0
C281 C 0.68932 0.79583 0.75532 0.0
N282 N 0.64531 0.8226 0.77022 0.0
N283 N 0.63729 0.8181 0.75083 0.0
C284 C 0.69363 0.80571 0.79396 0.0
H285 H 0.68351 0.78159 0.8011 0.0
H286 H 0.68686 0.82829 0.80372 0.0
H287 H 0.72235 0.8035 0.79283 0.0
C288 C 0.56045 0.92382 0.79156 0.0
N289 N 0.56948 0.89186 0.7982 0.0
N290 N 0.59695 0.88109 0.78801 0.0
C291 C 0.60697 0.90628 0.77506 0.0
C292 C 0.58374 0.93384 0.77648 0.0
C293 C 0.52787 0.94225 0.79787 0.0
H294 H 0.50611 0.92332 0.79893 0.0
H295 H 0.53186 0.95367 0.8132 0.0
H296 H 0.52089 0.96334 0.78707 0.0
O297 O 0.52689 0.82269 0.79888 0.0
O298 O 0.57204 0.80257 0.78159 0.0
H299 H 0.63175 0.88851 0.74785 0.0
H300 H 0.64687 0.9303 0.75665 0.0
C301 C 0.63826 0.90401 0.76155 0.0
H302 H 0.65988 0.89084 0.7697 0.0
H303 H 0.61308 0.82419 0.74454 0.0
O304 O 0.50643 0.87757 0.83069 0.0
C305 C 0.53996 0.80167 0.78611 0.0
Co306 Co 0.87781 0.80109 0.57093 0.0
Co307 Co 0.90522 0.86227 0.54356 0.0
C308 C 0.91651 0.86364 0.58832 0.0
O309 O 0.90083 0.83453 0.59037 0.0
O310 O 0.91869 0.87826 0.571 0.0
C311 C 0.84746 0.76616 0.60535 0.0
O312 O 0.84334 0.798 0.61229 0.0
C313 C 0.93216 0.92755 0.52747 0.0
C314 C 0.94432 0.91256 0.49582 0.0
C315 C 0.9492 0.93863 0.51008 0.0
N316 N 0.9187 0.89586 0.52389 0.0
N317 N 0.9255 0.88731 0.50482 0.0
C318 C 0.92871 0.94666 0.5472 0.0
H319 H 0.90283 0.9413 0.55403 0.0
H320 H 0.93206 0.97514 0.54495 0.0
H321 H 0.94889 0.93741 0.55793 0.0
C322 C 0.8144 0.81324 0.54547 0.0
N323 N 0.84632 0.82244 0.55219 0.0
N324 N 0.85765 0.8489 0.5413 0.0
C325 C 0.83294 0.85808 0.52776 0.0
C326 C 0.80471 0.83561 0.5297 0.0
C327 C 0.796 0.7809 0.55225 0.0
H328 H 0.81521 0.75988 0.55516 0.0
H329 H 0.78224 0.78633 0.56674 0.0
H330 H 0.77685 0.77194 0.54073 0.0
O331 O 0.91565 0.7789 0.55575 0.0
O332 O 0.93634 0.82291 0.53763 0.0
H333 H 0.85157 0.87859 0.49961 0.0
H334 H 0.81078 0.89709 0.5079 0.0
C335 C 0.83663 0.8876 0.51305 0.0
H336 H 0.85106 0.90938 0.52025 0.0
H337 H 0.91941 0.8632 0.49839 0.0
O338 O 0.85804 0.7621 0.5872 0.0
C339 C 0.93768 0.79137 0.54334 0.0
Co340 Co 0.94292 0.12927 0.32014 0.0
Co341 Co 0.88073 0.15644 0.29368 0.0
C342 C 0.88009 0.16712 0.33808 0.0
O343 O 0.90968 0.15224 0.33941 0.0
O344 O 0.86458 0.16969 0.32105 0.0
C345 C 0.97302 0.09782 0.35484 0.0
O346 O 0.94009 0.09251 0.35924 0.0
C347 C 0.81553 0.18275 0.27687 0.0
C348 C 0.83049 0.1916 0.24484 0.0
C349 C 0.80415 0.19743 0.25879 0.0
N350 N 0.84741 0.16944 0.27384 0.0
N351 N 0.85606 0.17446 0.25461 0.0
C352 C 0.79675 0.18172 0.29677 0.0
H353 H 0.80332 0.1574 0.30506 0.0
H354 H 0.76814 0.18317 0.29446 0.0
H355 H 0.80506 0.20423 0.30616 0.0
C356 C 0.93021 0.066 0.29498 0.0
N357 N 0.92097 0.09768 0.30198 0.0
N358 N 0.89393 0.10894 0.29152 0.0
C359 C 0.8845 0.08442 0.27797 0.0
C360 C 0.90761 0.0567 0.27934 0.0
C361 C 0.96238 0.04716 0.30161 0.0
H362 H 0.9836 0.0661 0.30461 0.0
H363 H 0.95684 0.03318 0.31602 0.0
H364 H 0.97096 0.02799 0.29001 0.0
O365 O 0.96535 0.16619 0.30432 0.0
O366 O 0.92018 0.18696 0.2872 0.0
H367 H 0.86121 0.10364 0.25061 0.0
H368 H 0.84528 0.0616 0.2585 0.0
C369 C 0.85391 0.08759 0.26395 0.0
H370 H 0.83205 0.1007 0.27189 0.0
H371 H 0.88024 0.16794 0.24846 0.0
O372 O 0.98054 0.1093 0.33727 0.0
C373 C 0.95217 0.18799 0.29199 0.0
Co374 Co 0.61047 0.18529 0.0687 0.0
Co375 Co 0.58531 0.12455 0.04023 0.0
C376 C 0.56839 0.1234 0.08417 0.0
O377 O 0.58442 0.15213 0.08709 0.0
O378 O 0.56819 0.10896 0.06679 0.0
C379 C 0.64149 0.21644 0.10379 0.0
O380 O 0.64425 0.18364 0.10927 0.0
C381 C 0.56484 0.05733 0.02347 0.0
C382 C 0.55441 0.07109 0.99144 0.0
C383 C 0.5513 0.04446 0.0055 0.0
N384 N 0.57502 0.09033 0.02035 0.0
N385 N 0.56938 0.0982 1.00105 0.0
C386 C 0.56737 0.03857 0.04335 0.0
H387 H 0.58928 0.04906 0.05251 0.0
H388 H 0.57114 0.01023 0.04077 0.0
H389 H 0.54284 0.04203 0.0519 0.0
C390 C 0.67556 0.17313 0.04507 0.0
N391 N 0.6435 0.1635 0.05127 0.0
N392 N 0.63304 0.13686 0.04022 0.0
C393 C 0.65854 0.12779 0.02726 0.0
C394 C 0.68615 0.15079 0.02952 0.0
C395 C 0.69297 0.20607 0.05178 0.0
H396 H 0.6732 0.22674 0.05419 0.0
H397 H 0.70629 0.20136 0.06651 0.0
H398 H 0.71239 0.21511 0.04047 0.0
O399 O 0.57526 0.20808 0.05177 0.0
O400 O 0.55566 0.16449 0.03272 0.0
H401 H 0.64128 0.10668 0.99889 0.0
H402 H 0.68229 0.08935 0.00765 0.0
C403 C 0.65605 0.09815 0.01251 0.0
H404 H 0.64214 0.07595 0.01961 0.0
H405 H 0.5737 0.1228 0.99477 0.0
O406 O 0.63022 0.22314 0.08604 0.0
C407 C 0.55476 0.19618 0.03827 0.0
Co408 Co 0.54921 0.12839 0.68378 0.0
Co409 Co 0.61081 0.15454 0.71111 0.0
C410 C 0.61107 0.16785 0.66661 0.0
O411 O 0.58199 0.15218 0.66463 0.0
O412 O 0.62588 0.17008 0.68388 0.0
C413 C 0.51531 0.09869 0.64911 0.0
O414 O 0.54738 0.09352 0.64286 0.0
C415 C 0.67653 0.18007 0.72723 0.0
C416 C 0.66229 0.1905 0.75922 0.0
C417 C 0.68811 0.19597 0.74492 0.0
N418 N 0.64482 0.16672 0.73075 0.0
N419 N 0.6367 0.17248 0.74999 0.0
C420 C 0.69512 0.17747 0.7073 0.0
H421 H 0.68972 0.15179 0.7002 0.0
H422 H 0.72362 0.18093 0.70934 0.0
H423 H 0.68535 0.19792 0.69688 0.0
C424 C 0.56259 0.06376 0.70733 0.0
N425 N 0.57162 0.09596 0.70116 0.0
N426 N 0.59836 0.10678 0.71202 0.0
C427 C 0.60787 0.08146 0.72502 0.0
C428 C 0.5853 0.05348 0.72273 0.0
C429 C 0.52995 0.04577 0.70063 0.0
H430 H 0.50881 0.06514 0.69852 0.0
H431 H 0.53469 0.03302 0.68574 0.0
H432 H 0.52155 0.02579 0.71179 0.0
O433 O 0.52698 0.16423 0.70046 0.0
O434 O 0.57109 0.18373 0.71892 0.0
H435 H 0.62821 0.09919 0.75345 0.0
H436 H 0.64654 0.05853 0.74481 0.0
C437 C 0.63725 0.08459 0.73989 0.0
H438 H 0.65917 0.0991 0.73291 0.0
H439 H 0.61268 0.16622 0.75644 0.0
O440 O 0.5105 0.10939 0.66716 0.0
C441 C 0.53928 0.1848 0.71378 0.0
Co442 Co 0.61101 0.80088 0.4346 0.0
Co443 Co 0.58283 0.86044 0.46312 0.0
C444 C 0.56922 0.86231 0.41846 0.0
O445 O 0.58634 0.83418 0.41573 0.0
O446 O 0.56691 0.87589 0.43604 0.0
C447 C 0.64268 0.76914 0.39958 0.0
O448 O 0.64612 0.80164 0.39365 0.0
C449 C 0.55957 0.92688 0.48078 0.0
C450 C 0.54245 0.90877 0.51106 0.0
C451 C 0.54166 0.93713 0.49807 0.0
N452 N 0.5698 0.89364 0.48326 0.0
N453 N 0.56032 0.88335 0.50163 0.0
C454 C 0.563 0.94695 0.46139 0.0
H455 H 0.53699 0.94984 0.45425 0.0
H456 H 0.5812 0.93389 0.4508 0.0
H457 H 0.57296 0.97349 0.46461 0.0
C458 C 0.67487 0.81426 0.45971 0.0
N459 N 0.64267 0.82285 0.45311 0.0
N460 N 0.63082 0.84873 0.4643 0.0
C461 C 0.65528 0.85803 0.47793 0.0
C462 C 0.68384 0.83605 0.47588 0.0
C463 C 0.69463 0.78325 0.4522 0.0
H464 H 0.67643 0.76135 0.4493 0.0
H465 H 0.70732 0.79 0.43757 0.0
H466 H 0.7149 0.77498 0.46324 0.0
O467 O 0.57452 0.77719 0.45034 0.0
O468 O 0.55404 0.81964 0.46978 0.0
H469 H 0.63369 0.87888 0.50532 0.0
H470 H 0.67647 0.8955 0.49921 0.0
C471 C 0.65102 0.88732 0.49277 0.0
H472 H 0.63862 0.90988 0.48509 0.0
H473 H 0.56368 0.85805 0.50711 0.0
O474 O 0.63142 0.7632 0.41742 0.0
C475 C 0.55328 0.78828 0.46367 0.0
Co476 Co 0.94505 0.86405 0.18492 0.0
Co477 Co 0.88421 0.83619 0.21215 0.0
C478 C 0.88289 0.82565 0.16723 0.0
O479 O 0.91179 0.84171 0.16527 0.0
O480 O 0.86867 0.82231 0.18461 0.0
C481 C 0.98124 0.89561 0.15137 0.0
O482 O 0.94979 0.90124 0.14418 0.0
C483 C 0.81806 0.81204 0.22911 0.0
C484 C 0.83324 0.80266 0.26111 0.0
C485 C 0.80638 0.79825 0.24732 0.0
N486 N 0.85048 0.82414 0.232 0.0
N487 N 0.85915 0.81907 0.25124 0.0
C488 C 0.80116 0.80866 0.2087 0.0
H489 H 0.81219 0.78561 0.20085 0.0
H490 H 0.80665 0.83216 0.19942 0.0
H491 H 0.77263 0.80498 0.20998 0.0
C492 C 0.93194 0.92771 0.20957 0.0
N493 N 0.92332 0.8955 0.20314 0.0
N494 N 0.89685 0.88401 0.21393 0.0
C495 C 0.887 0.90898 0.2271 0.0
C496 C 0.90915 0.93736 0.22505 0.0
C497 C 0.96405 0.9465 0.20282 0.0
H498 H 0.98562 0.92765 0.20064 0.0
H499 H 0.95885 0.95917 0.18795 0.0
H500 H 0.97208 0.96663 0.214 0.0
O501 O 0.96702 0.82678 0.20053 0.0
O502 O 0.92374 0.80571 0.21903 0.0
H503 H 0.86583 0.89108 0.25526 0.0
H504 H 0.84751 0.93157 0.24641 0.0
C505 C 0.85715 0.90559 0.24158 0.0
H506 H 0.83553 0.89103 0.2343 0.0
H507 H 0.88365 0.8247 0.25729 0.0
O508 O 0.98447 0.88367 0.16926 0.0
C509 C 0.95536 0.8052 0.21346 0.0
Co510 Co 0.87743 0.18294 0.93354 0.0
Co511 Co 0.90423 0.12286 0.96209 0.0
C512 C 0.91894 0.12112 0.91765 0.0
O513 O 0.90233 0.14957 0.91487 0.0
O514 O 0.92046 0.10714 0.93517 0.0
C515 C 0.8469 0.21816 0.89892 0.0
O516 O 0.84357 0.18658 0.89143 0.0
C517 C 0.92711 0.05743 0.98138 0.0
C518 C 0.93851 0.07687 0.01231 0.0
C519 C 0.94211 0.04815 0.99978 0.0
N520 N 0.91553 0.09037 0.9829 0.0
N521 N 0.92153 0.10142 0.00162 0.0
C522 C 0.92864 0.03715 0.96198 0.0
H523 H 0.95599 0.03592 0.95665 0.0
H524 H 0.91178 0.04897 0.95019 0.0
H525 H 0.91986 0.01003 0.96458 0.0
C526 C 0.8137 0.17146 0.95831 0.0
N527 N 0.84539 0.16157 0.95164 0.0
N528 N 0.85647 0.13533 0.96281 0.0
C529 C 0.83175 0.12688 0.97642 0.0
C530 C 0.80419 0.15004 0.97447 0.0
C531 C 0.79544 0.20359 0.95107 0.0
H532 H 0.81414 0.22562 0.95061 0.0
H533 H 0.78598 0.19922 0.93532 0.0
H534 H 0.77311 0.2105 0.96097 0.0
O535 O 0.91336 0.20596 0.94975 0.0
O536 O 0.93384 0.16306 0.96892 0.0
H537 H 0.85093 0.10538 0.0043 0.0
H538 H 0.80864 0.0894 0.99689 0.0
C539 C 0.83466 0.09731 0.99118 0.0
H540 H 0.84735 0.07469 0.98374 0.0
H541 H 0.91652 0.12675 0.00661 0.0
O542 O 0.85759 0.22162 0.91709 0.0
C543 C 0.93435 0.19459 0.96313 0.0
Co544 Co 0.93976 0.62806 0.68521 0.0
Co545 Co 0.88136 0.65809 0.71391 0.0
C546 C 0.87759 0.66603 0.6684 0.0
O547 O 0.90581 0.64909 0.6658 0.0
O548 O 0.86505 0.67057 0.68613 0.0
C549 C 0.97737 0.59626 0.65158 0.0
O550 O 0.94642 0.58934 0.64407 0.0
C551 C 0.81535 0.68314 0.73074 0.0
C552 C 0.83229 0.69881 0.76158 0.0
C553 C 0.80446 0.70012 0.74824 0.0
N554 N 0.84818 0.67214 0.73369 0.0
N555 N 0.85794 0.68118 0.75225 0.0
C556 C 0.79778 0.68331 0.71041 0.0
H557 H 0.80776 0.70566 0.70147 0.0
H558 H 0.80386 0.6589 0.7021 0.0
H559 H 0.76921 0.68623 0.71176 0.0
C560 C 0.92528 0.56437 0.71007 0.0
N561 N 0.91839 0.59739 0.70436 0.0
N562 N 0.89482 0.61058 0.7167 0.0
C563 C 0.88654 0.58675 0.73092 0.0
C564 C 0.90558 0.55652 0.72732 0.0
C565 C 0.95002 0.54108 0.69895 0.0
H566 H 0.97712 0.54834 0.70302 0.0
H567 H 0.94698 0.54492 0.68232 0.0
H568 H 0.94551 0.51329 0.70279 0.0
O569 O 0.96193 0.66709 0.69981 0.0
O570 O 0.92041 0.68865 0.71947 0.0
H571 H 0.87699 0.61581 0.75795 0.0
H572 H 0.86092 0.57237 0.7594 0.0
C573 C 0.86435 0.59482 0.74906 0.0
H574 H 0.83848 0.60425 0.74393 0.0
H575 H 0.88307 0.67778 0.75798 0.0
O576 O 0.97971 0.60887 0.6694 0.0
C577 C 0.9512 0.6893 0.71269 0.0
Co578 Co 0.61404 0.68943 0.93275 0.0
Co579 Co 0.58109 0.63456 0.96259 0.0
C580 C 0.57268 0.62893 0.91706 0.0
O581 O 0.59139 0.65579 0.91392 0.0
O582 O 0.56713 0.61797 0.93506 0.0
C583 C 0.64291 0.72337 0.89776 0.0
O584 O 0.64496 0.69161 0.8904 0.0
C585 C 0.55546 0.56886 0.97943 0.0
C586 C 0.53602 0.58649 0.00935 0.0
C587 C 0.53638 0.55831 0.99622 0.0
N588 N 0.5656 0.60197 0.98242 0.0
N589 N 0.55446 0.61211 1.0005 0.0
C590 C 0.55919 0.54997 0.95964 0.0
H591 H 0.53631 0.55586 0.94992 0.0
H592 H 0.58314 0.55866 0.9517 0.0
H593 H 0.56027 0.5214 0.96197 0.0
C594 C 0.6766 0.67374 0.95779 0.0
N595 N 0.64348 0.66751 0.95214 0.0
N596 N 0.62936 0.64529 0.96498 0.0
C597 C 0.65283 0.63718 0.97947 0.0
C598 C 0.68364 0.65507 0.97553 0.0
C599 C 0.70055 0.69736 0.94633 0.0
H600 H 0.69358 0.72484 0.94964 0.0
H601 H 0.69708 0.69322 0.92974 0.0
H602 H 0.72815 0.69272 0.95056 0.0
O603 O 0.57662 0.71446 0.94699 0.0
O604 O 0.55315 0.676 0.96798 0.0
H605 H 0.62224 0.62946 0.00615 0.0
H606 H 0.66611 0.61414 0.00878 0.0
C607 C 0.64398 0.61648 0.99807 0.0
H608 H 0.63506 0.59012 0.99348 0.0
H609 H 0.5572 0.63738 0.00614 0.0
O610 O 0.63534 0.72741 0.91641 0.0
C611 C 0.55438 0.70639 0.96047 0.0
Co612 Co 0.56481 0.36876 0.17747 0.0
Co613 Co 0.61184 0.33402 0.21088 0.0
C614 C 0.62222 0.3231 0.1651 0.0
O615 O 0.60011 0.34614 0.15979 0.0
O616 O 0.6282 0.31708 0.18384 0.0
C617 C 0.53116 0.39501 0.14144 0.0
O618 O 0.56233 0.39218 0.13341 0.0
C619 C 0.67574 0.30678 0.22863 0.0
C620 C 0.65704 0.28774 0.25841 0.0
C621 C 0.68553 0.28761 0.24555 0.0
N622 N 0.64271 0.31728 0.2312 0.0
N623 N 0.63179 0.30613 0.24912 0.0
C624 C 0.6971 0.3147 0.21018 0.0
H625 H 0.69029 0.34092 0.20426 0.0
H626 H 0.72534 0.31341 0.21376 0.0
H627 H 0.69125 0.29545 0.1981 0.0
C628 C 0.57833 0.43088 0.20392 0.0
N629 N 0.58416 0.39755 0.1984 0.0
N630 N 0.60363 0.38253 0.21238 0.0
C631 C 0.61021 0.40541 0.22741 0.0
C632 C 0.59437 0.437 0.22267 0.0
C633 C 0.55747 0.45589 0.19142 0.0
H634 H 0.56329 0.45194 0.17505 0.0
H635 H 0.5631 0.48327 0.19576 0.0
H636 H 0.52935 0.4505 0.19367 0.0
O637 O 0.53933 0.32914 0.18948 0.0
O638 O 0.56891 0.30914 0.21598 0.0
H639 H 0.62727 0.41672 0.25838 0.0
H640 H 0.65391 0.38625 0.24424 0.0
C641 C 0.62691 0.39525 0.24714 0.0
H642 H 0.61219 0.37325 0.25383 0.0
H643 H 0.6064 0.30921 0.25447 0.0
O644 O 0.52775 0.39087 0.16052 0.0
C645 C 0.54244 0.30851 0.2045 0.0
Co646 Co 0.87999 0.30234 0.43553 0.0
Co647 Co 0.9055 0.36604 0.46149 0.0
C648 C 0.91831 0.36346 0.41689 0.0
O649 O 0.90277 0.33421 0.41543 0.0
O650 O 0.92068 0.37904 0.4339 0.0
C651 C 0.84975 0.26542 0.40209 0.0
O652 O 0.8435 0.29696 0.39521 0.0
C653 C 0.92852 0.43437 0.47564 0.0
C654 C 0.93494 0.4248 0.50856 0.0
C655 C 0.94082 0.44917 0.49344 0.0
N656 N 0.9163 0.40245 0.47995 0.0
N657 N 0.91984 0.39704 0.4997 0.0
C658 C 0.92932 0.44993 0.4548 0.0
H659 H 0.95278 0.44045 0.44671 0.0
H660 H 0.90591 0.44182 0.4461 0.0
H661 H 0.93044 0.4788 0.45559 0.0
C662 C 0.81547 0.31597 0.4591 0.0
N663 N 0.84738 0.32523 0.45253 0.0
N664 N 0.8579 0.35283 0.46275 0.0
C665 C 0.83262 0.36261 0.47569 0.0
C666 C 0.80525 0.33918 0.4742 0.0
C667 C 0.79755 0.28307 0.45283 0.0
H668 H 0.816 0.26091 0.45407 0.0
H669 H 0.78976 0.28521 0.43661 0.0
H670 H 0.77417 0.27781 0.46224 0.0
O671 O 0.91668 0.28224 0.45261 0.0
O672 O 0.93567 0.32748 0.4704 0.0
H673 H 0.85015 0.38634 0.5033 0.0
H674 H 0.80855 0.4019 0.49452 0.0
C675 C 0.83486 0.39342 0.4896 0.0
H676 H 0.84813 0.41532 0.4818 0.0
H677 H 0.91378 0.3736 0.50693 0.0
O678 O 0.86146 0.262 0.42004 0.0
C679 C 0.93715 0.29543 0.46571 0.0
Co680 Co 0.93493 0.36347 0.82288 0.0
Co681 Co 0.87861 0.33266 0.793 0.0
C682 C 0.87289 0.32296 0.83809 0.0
O683 O 0.9007 0.34027 0.84117 0.0
O684 O 0.86085 0.31896 0.82019 0.0
C685 C 0.96563 0.39383 0.85856 0.0
O686 O 0.93305 0.39573 0.86451 0.0
C687 C 0.81436 0.30586 0.77511 0.0
C688 C 0.83179 0.29254 0.74405 0.0
C689 C 0.80401 0.28967 0.7573 0.0
N690 N 0.84694 0.31772 0.7726 0.0
N691 N 0.85713 0.30984 0.75394 0.0
C692 C 0.79428 0.30839 0.79453 0.0
H693 H 0.8007 0.33308 0.80248 0.0
H694 H 0.76584 0.30712 0.79155 0.0
H695 H 0.80153 0.28629 0.80453 0.0
C696 C 0.92094 0.42683 0.79788 0.0
N697 N 0.91368 0.39388 0.80355 0.0
N698 N 0.89092 0.38053 0.79072 0.0
C699 C 0.88352 0.40422 0.77623 0.0
C700 C 0.90243 0.43446 0.78013 0.0
C701 C 0.94523 0.4501 0.80937 0.0
H702 H 0.94097 0.44681 0.82595 0.0
H703 H 0.9414 0.47784 0.80515 0.0
H704 H 0.97249 0.44232 0.80609 0.0
O705 O 0.95959 0.32565 0.80844 0.0
O706 O 0.91897 0.30354 0.78823 0.0
H707 H 0.8587 0.41855 0.74748 0.0
H708 H 0.83713 0.38492 0.762 0.0
C709 C 0.86275 0.39585 0.75755 0.0
H710 H 0.87694 0.37592 0.74864 0.0
H711 H 0.8822 0.31424 0.74839 0.0
O712 O 0.9719 0.38462 0.84034 0.0
C713 C 0.94959 0.30336 0.79536 0.0
Co714 Co 0.87849 0.69271 0.06868 0.0
Co715 Co 0.91009 0.63716 0.03873 0.0
C716 C 0.91974 0.63191 0.08417 0.0
O717 O 0.90148 0.65905 0.08742 0.0
O718 O 0.92472 0.62078 0.06616 0.0
C719 C 0.84985 0.72655 0.10387 0.0
O720 O 0.8477 0.69467 0.11104 0.0
C721 C 0.93274 0.57028 0.0221 0.0
C722 C 0.95238 0.58635 0.99192 0.0
C723 C 0.95053 0.55837 0.00514 0.0
N724 N 0.92438 0.60385 0.01902 0.0
N725 N 0.93567 0.61312 1.00081 0.0
C726 C 0.92895 0.55214 0.04212 0.0
H727 H 0.95168 0.55864 0.05183 0.0
H728 H 0.90492 0.56113 0.04989 0.0
H729 H 0.92813 0.52347 0.04027 0.0
C730 C 0.81472 0.67625 0.04465 0.0
N731 N 0.84817 0.67048 0.04981 0.0
N732 N 0.86182 0.64799 0.03695 0.0
C733 C 0.83776 0.63927 0.02293 0.0
C734 C 0.80697 0.65694 0.02723 0.0
C735 C 0.79108 0.69991 0.0563 0.0
H736 H 0.79539 0.69624 0.07286 0.0
H737 H 0.76333 0.69486 0.05257 0.0
H738 H 0.79757 0.72737 0.05263 0.0
O739 O 0.91554 0.71736 0.05373 0.0
O740 O 0.93793 0.67834 0.03266 0.0
H741 H 0.82367 0.61632 0.99371 0.0
H742 H 0.85398 0.59152 0.00909 0.0
C743 C 0.8459 0.61809 0.0044 0.0
H744 H 0.868 0.63027 0.99625 0.0
H745 H 0.93409 0.6384 0.99504 0.0
O746 O 0.85773 0.73082 0.08527 0.0
C747 C 0.93714 0.7089 0.03996 0.0
Co748 Co 0.55623 0.62967 0.31783 0.0
Co749 Co 0.61525 0.65966 0.28964 0.0
C750 C 0.61719 0.67024 0.33484 0.0
O751 O 0.58916 0.65286 0.33721 0.0
O752 O 0.63066 0.67383 0.31727 0.0
C753 C 0.52037 0.60115 0.35239 0.0
O754 O 0.55184 0.59897 0.36014 0.0
C755 C 0.68089 0.68484 0.27191 0.0
C756 C 0.66138 0.70308 0.24211 0.0
C757 C 0.69012 0.70382 0.2548 0.0
N758 N 0.64783 0.67405 0.2696 0.0
N759 N 0.63669 0.68431 0.25153 0.0
C760 C 0.70154 0.68121 0.29109 0.0
H761 H 0.7051 0.70722 0.29814 0.0
H762 H 0.68863 0.66321 0.30187 0.0
H763 H 0.72778 0.67078 0.2876 0.0
C764 C 0.57173 0.56595 0.29318 0.0
N765 N 0.57871 0.59883 0.29916 0.0
N766 N 0.60306 0.61184 0.28728 0.0
C767 C 0.6121 0.58792 0.27326 0.0
C768 C 0.59244 0.55794 0.27637 0.0
C769 C 0.5453 0.5432 0.30329 0.0
H770 H 0.54718 0.54627 0.32004 0.0
H771 H 0.54905 0.51542 0.29914 0.0
H772 H 0.51884 0.55167 0.29863 0.0
O773 O 0.53306 0.66737 0.30261 0.0
O774 O 0.57532 0.68907 0.28359 0.0
H775 H 0.6235 0.61627 0.24619 0.0
H776 H 0.64027 0.57281 0.24583 0.0
C777 C 0.63562 0.59571 0.25567 0.0
H778 H 0.66089 0.60572 0.26142 0.0
H779 H 0.61124 0.68091 0.24631 0.0
O780 O 0.51702 0.60941 0.33377 0.0
C781 C 0.54413 0.68946 0.28977 0.0
Co782 Co 0.61428 0.30373 0.5693 0.0
Co783 Co 0.58785 0.36727 0.54333 0.0
C784 C 0.57791 0.367 0.58804 0.0
O785 O 0.5924 0.33711 0.58879 0.0
O786 O 0.5751 0.38326 0.57121 0.0
C787 C 0.64302 0.268 0.60374 0.0
O788 O 0.64731 0.29971 0.61086 0.0
C789 C 0.55974 0.4312 0.52508 0.0
C790 C 0.55672 0.41562 0.49278 0.0
C791 C 0.54712 0.44152 0.50629 0.0
N792 N 0.57596 0.40045 0.52286 0.0
N793 N 0.57458 0.3916 0.50344 0.0
C794 C 0.55087 0.44667 0.54523 0.0
H795 H 0.52936 0.43121 0.55194 0.0
H796 H 0.57389 0.44525 0.55539 0.0
H797 H 0.54225 0.47412 0.54394 0.0
C798 C 0.67762 0.31596 0.54458 0.0
N799 N 0.64598 0.32553 0.5514 0.0
N800 N 0.63535 0.35315 0.54124 0.0
C801 C 0.66051 0.36279 0.52816 0.0
C802 C 0.68788 0.33928 0.52953 0.0
C803 C 0.69516 0.28267 0.55055 0.0
H804 H 0.67541 0.26197 0.55291 0.0
H805 H 0.70907 0.28668 0.56517 0.0
H806 H 0.71412 0.27412 0.53884 0.0
O807 O 0.57713 0.28258 0.5533 0.0
O808 O 0.55646 0.3282 0.53661 0.0
H809 H 0.64581 0.38639 0.49998 0.0
H810 H 0.68496 0.40385 0.51096 0.0
C811 C 0.6585 0.3939 0.51448 0.0
H812 H 0.64306 0.41488 0.52177 0.0
H813 H 0.58352 0.36786 0.49772 0.0
O814 O 0.63323 0.26423 0.58541 0.0
C815 C 0.55534 0.29607 0.54111 0.0
Co816 Co 0.05281 0.36391 0.31944 0.0
Co817 Co 0.11217 0.33444 0.29175 0.0
C818 C 0.11289 0.32195 0.33647 0.0
O819 O 0.08496 0.33944 0.33889 0.0
O820 O 0.12684 0.31909 0.31902 0.0
C821 C 0.01833 0.39346 0.35384 0.0
O822 O 0.05013 0.39605 0.3611 0.0
C823 C 0.17925 0.31152 0.27635 0.0
C824 C 0.16488 0.29347 0.24552 0.0
C825 C 0.19175 0.29354 0.25958 0.0
N826 N 0.14616 0.32067 0.27258 0.0
N827 N 0.13787 0.31035 0.25402 0.0
C828 C 0.1984 0.32092 0.29542 0.0
H829 H 0.19012 0.34714 0.30066 0.0
H830 H 0.22699 0.32055 0.29292 0.0
H831 H 0.19185 0.30212 0.3076 0.0
C832 C 0.06693 0.42677 0.2943 0.0
N833 N 0.07549 0.39484 0.3012 0.0
N834 N 0.10129 0.38248 0.29017 0.0
C835 C 0.11063 0.40644 0.27629 0.0
C836 C 0.0887 0.43506 0.27808 0.0
C837 C 0.03557 0.44647 0.30138 0.0
H838 H 0.01306 0.42846 0.3026 0.0
H839 H 0.04078 0.45706 0.31679 0.0
H840 H 0.02891 0.46819 0.29095 0.0
O841 O 0.02937 0.32783 0.30354 0.0
O842 O 0.07152 0.30599 0.28445 0.0
H843 H 0.13082 0.38343 0.24913 0.0
H844 H 0.14751 0.42656 0.25438 0.0
C845 C 0.13953 0.40144 0.26131 0.0
H846 H 0.16229 0.38947 0.26903 0.0
H847 H 0.11314 0.31305 0.24761 0.0
O848 O 0.01424 0.38454 0.33541 0.0
C849 C 0.04002 0.3064 0.29022 0.0
Co850 Co 0.3811 0.30227 0.06809 0.0
Co851 Co 0.41022 0.35819 0.0374 0.0
C852 C 0.42436 0.36299 0.08235 0.0
O853 O 0.40642 0.33579 0.08606 0.0
O854 O 0.42728 0.37454 0.06429 0.0
C855 C 0.35049 0.27241 0.104 0.0
O856 O 0.34948 0.30513 0.10984 0.0
C857 C 0.43238 0.42463 0.01996 0.0
C858 C 0.4494 0.40802 0.98934 0.0
C859 C 0.44901 0.43615 0.00251 0.0
N860 N 0.42328 0.39117 0.0172 0.0
N861 N 0.43299 0.38159 0.99874 0.0
C862 C 0.43054 0.44292 0.04003 0.0
H863 H 0.45404 0.43627 0.04905 0.0
H864 H 0.40715 0.43424 0.04853 0.0
H865 H 0.42983 0.47159 0.03815 0.0
C866 C 0.31571 0.31845 0.04531 0.0
N867 N 0.34935 0.32469 0.04992 0.0
N868 N 0.36195 0.34743 0.03685 0.0
C869 C 0.33704 0.35588 0.02329 0.0
C870 C 0.30677 0.3377 0.02806 0.0
C871 C 0.29304 0.29421 0.05721 0.0
H872 H 0.29735 0.29843 0.07371 0.0
H873 H 0.26509 0.29819 0.05357 0.0
H874 H 0.30049 0.26691 0.05372 0.0
O875 O 0.41708 0.27707 0.0522 0.0
O876 O 0.43737 0.31689 0.03086 0.0
H877 H 0.32088 0.37947 0.9946 0.0
H878 H 0.35307 0.40341 0.0091 0.0
C879 C 0.34398 0.37707 0.00459 0.0
H880 H 0.36502 0.36446 0.99573 0.0
H881 H 0.43064 0.35628 0.9931 0.0
O882 O 0.36003 0.26566 0.08591 0.0
C883 C 0.43777 0.28626 0.03806 0.0
Co884 Co 0.44042 0.62874 0.81781 0.0
Co885 Co 0.38073 0.65393 0.78846 0.0
C886 C 0.37809 0.66999 0.83275 0.0
O887 O 0.40648 0.65358 0.83594 0.0
O888 O 0.36484 0.67148 0.81505 0.0
C889 C 0.47324 0.59955 0.85346 0.0
O890 O 0.44106 0.59591 0.8599 0.0
C891 C 0.31411 0.67406 0.76994 0.0
C892 C 0.33195 0.68919 0.73926 0.0
C893 C 0.30342 0.68998 0.75208 0.0
N894 N 0.3476 0.66462 0.76785 0.0
N895 N 0.35777 0.67281 0.74926 0.0
C896 C 0.29434 0.67252 0.78951 0.0
H897 H 0.29234 0.6991 0.79599 0.0
H898 H 0.30721 0.65478 0.80047 0.0
H899 H 0.26747 0.6631 0.78676 0.0
C900 C 0.42874 0.56353 0.79434 0.0
N901 N 0.41909 0.59574 0.80023 0.0
N902 N 0.39289 0.60617 0.78881 0.0
C903 C 0.38422 0.58058 0.77581 0.0
C904 C 0.40694 0.55285 0.77857 0.0
C905 C 0.46132 0.54605 0.80158 0.0
H906 H 0.48206 0.56573 0.80404 0.0
H907 H 0.45605 0.53322 0.81639 0.0
H908 H 0.47055 0.52621 0.79056 0.0
O909 O 0.46363 0.6641 0.80113 0.0
O910 O 0.42123 0.68231 0.78088 0.0
H911 H 0.36475 0.5986 0.74722 0.0
H912 H 0.34709 0.55717 0.75516 0.0
C913 C 0.3555 0.5833 0.76047 0.0
H914 H 0.33287 0.59698 0.76724 0.0
H915 H 0.3832 0.66978 0.74396 0.0
O916 O 0.47826 0.60981 0.83533 0.0
C917 C 0.45254 0.68379 0.787 0.0
Co918 Co 0.1179 0.68886 0.57123 0.0
Co919 Co 0.08539 0.63063 0.54358 0.0
C920 C 0.07762 0.62655 0.58853 0.0
O921 O 0.09451 0.65508 0.59024 0.0
O922 O 0.073 0.61258 0.57113 0.0
C923 C 0.1483 0.72152 0.60637 0.0
O924 O 0.1484 0.6897 0.61374 0.0
C925 C 0.05372 0.56996 0.52394 0.0
C926 C 0.04422 0.59038 0.49303 0.0
C927 C 0.03701 0.5627 0.50579 0.0
N928 N 0.0694 0.60102 0.52231 0.0
N929 N 0.06414 0.61283 0.50365 0.0
C930 C 0.05308 0.54859 0.54286 0.0
H931 H 0.03088 0.55738 0.55222 0.0
H932 H 0.07755 0.5523 0.5516 0.0
H933 H 0.0494 0.52057 0.53924 0.0
C934 C 0.1787 0.67495 0.54407 0.0
N935 N 0.14693 0.66707 0.55151 0.0
N936 N 0.13344 0.64163 0.5406 0.0
C937 C 0.15653 0.63184 0.5263 0.0
C938 C 0.18574 0.6531 0.52765 0.0
C939 C 0.20001 0.70519 0.55124 0.0
H940 H 0.18273 0.72735 0.55516 0.0
H941 H 0.21429 0.69749 0.56521 0.0
H942 H 0.21909 0.71349 0.53954 0.0
O943 O 0.0809 0.71434 0.55713 0.0
O944 O 0.05653 0.67225 0.53911 0.0
H945 H 0.13478 0.6113 0.49884 0.0
H946 H 0.17601 0.59234 0.50585 0.0
C947 C 0.15086 0.60227 0.51182 0.0
H948 H 0.13675 0.58083 0.51956 0.0
H949 H 0.07224 0.63729 0.49859 0.0
O950 O 0.14051 0.72594 0.58776 0.0
C951 C 0.05764 0.70376 0.54488 0.0
Co952 Co 0.05126 0.62696 0.18276 0.0
Co953 Co 0.1129 0.65389 0.20992 0.0
C954 C 0.1138 0.66568 0.16543 0.0
O955 O 0.08455 0.65027 0.16356 0.0
O956 O 0.12868 0.66803 0.18267 0.0
C957 C 0.01765 0.59721 0.1478 0.0
O958 O 0.04976 0.59298 0.14137 0.0
C959 C 0.17797 0.68058 0.22624 0.0
C960 C 0.16262 0.69287 0.25782 0.0
C961 C 0.18879 0.6978 0.24366 0.0
N962 N 0.14633 0.66706 0.22971 0.0
N963 N 0.13756 0.6739 0.24874 0.0
C964 C 0.19725 0.67692 0.2066 0.0
H965 H 0.19214 0.65086 0.19991 0.0
H966 H 0.22567 0.68055 0.20892 0.0
H967 H 0.18787 0.69679 0.1957 0.0
C968 C 0.06436 0.56314 0.20755 0.0
N969 N 0.0733 0.59513 0.20089 0.0
N970 N 0.1002 0.6063 0.21149 0.0
C971 C 0.10998 0.58145 0.22472 0.0
C972 C 0.08738 0.55336 0.22296 0.0
C973 C 0.03167 0.54489 0.2012 0.0
H974 H 0.01083 0.56423 0.19817 0.0
H975 H 0.03665 0.53044 0.18688 0.0
H976 H 0.02278 0.52627 0.21302 0.0
O977 O 0.02877 0.66389 0.19866 0.0
O978 O 0.07322 0.68388 0.21667 0.0
H979 H 0.13151 0.59997 0.25269 0.0
H980 H 0.14961 0.55914 0.24412 0.0
C981 C 0.13999 0.58504 0.23912 0.0
H982 H 0.16154 0.59946 0.2317 0.0
H983 H 0.11341 0.66779 0.25507 0.0
O984 O 0.01283 0.60731 0.16599 0.0
C985 C 0.04145 0.68522 0.21145 0.0
Co986 Co 0.10898 0.30254 0.93649 0.0
Co987 Co 0.07821 0.35753 0.9671 0.0
C988 C 0.06591 0.36291 0.92188 0.0
O989 O 0.08453 0.33616 0.91814 0.0
O990 O 0.06226 0.37398 0.94 0.0
C991 C 0.14115 0.27143 0.90125 0.0
O992 O 0.14277 0.3038 0.89483 0.0
C993 C 0.0557 0.42376 0.98476 0.0
C994 C 0.03239 0.40528 0.01351 0.0
C995 C 0.03543 0.4342 1.00108 0.0
N996 N 0.06371 0.38995 0.98724 0.0
N997 N 0.05043 0.37933 0.00472 0.0
C998 C 0.06306 0.44412 0.96585 0.0
H999 H 0.03852 0.4479 0.95721 0.0
H1000 H 0.08251 0.43055 0.95625 0.0
H1001 H 0.07322 0.47028 0.96985 0.0
C1002 C 0.1732 0.3185 0.96046 0.0
N1003 N 0.13974 0.32463 0.95538 0.0
N1004 N 0.12635 0.34683 0.96849 0.0
C1005 C 0.15047 0.3549 0.9826 0.0
C1006 C 0.18113 0.33717 0.97811 0.0
C1007 C 0.19672 0.29514 0.94851 0.0
H1008 H 0.18991 0.26759 0.95172 0.0
H1009 H 0.19264 0.29966 0.93201 0.0
H1010 H 0.22448 0.29974 0.95239 0.0
O1011 O 0.07216 0.27708 0.95148 0.0
O1012 O 0.05083 0.31616 0.97292 0.0
H1013 H 0.11945 0.36381 0.00903 0.0
H1014 H 0.16428 0.37568 0.0124 0.0
C1015 C 0.14241 0.37541 1.00141 0.0
H1016 H 0.13564 0.40253 0.99708 0.0
H1017 H 0.05134 0.35362 0.00986 0.0
O1018 O 0.13073 0.26564 0.91928 0.0
C1019 C 0.0508 0.28581 0.96536 0.0
Co1020 Co 0.44202 0.35878 0.68497 0.0
Co1021 Co 0.38055 0.33324 0.71255 0.0
C1022 C 0.37974 0.31953 0.66796 0.0
O1023 O 0.40863 0.33552 0.6657 0.0
O1024 O 0.36533 0.31744 0.68534 0.0
C1025 C 0.48056 0.3946 0.65284 0.0
O1026 O 0.45049 0.40743 0.64693 0.0
C1027 C 0.31343 0.31327 0.73047 0.0
C1028 C 0.33027 0.30086 0.76181 0.0
C1029 C 0.3022 0.29904 0.74866 0.0
N1030 N 0.34682 0.32291 0.73271 0.0
N1031 N 0.35643 0.31623 0.75163 0.0
C1032 C 0.29445 0.31274 0.71059 0.0
H1033 H 0.30607 0.33166 0.69983 0.0
H1034 H 0.26658 0.31916 0.71279 0.0
H1035 H 0.29582 0.28613 0.70411 0.0
C1036 C 0.43035 0.42331 0.70909 0.0
N1037 N 0.42064 0.39147 0.70254 0.0
N1038 N 0.39377 0.38085 0.71331 0.0
C1039 C 0.38478 0.40598 0.72655 0.0
C1040 C 0.40816 0.43335 0.72474 0.0
C1041 C 0.46277 0.4414 0.70221 0.0
H1042 H 0.48427 0.42224 0.70076 0.0
H1043 H 0.45812 0.45287 0.68695 0.0
H1044 H 0.47056 0.4624 0.71289 0.0
O1045 O 0.46344 0.32263 0.70165 0.0
O1046 O 0.41975 0.30311 0.7204 0.0
H1047 H 0.36155 0.38722 0.754 0.0
H1048 H 0.3467 0.42983 0.74635 0.0
C1049 C 0.35445 0.40365 0.74077 0.0
H1050 H 0.33201 0.39137 0.73291 0.0
H1051 H 0.38166 0.31987 0.75716 0.0
O1052 O 0.48193 0.37656 0.66899 0.0
C1053 C 0.45148 0.30222 0.71511 0.0
Co1054 Co 0.37755 0.69002 0.43273 0.0
Co1055 Co 0.40515 0.62765 0.45917 0.0
C1056 C 0.41783 0.62887 0.41466 0.0
O1057 O 0.40202 0.65798 0.41329 0.0
O1058 O 0.42008 0.61313 0.43164 0.0
C1059 C 0.34641 0.72158 0.39805 0.0
O1060 O 0.34238 0.68884 0.3927 0.0
C1061 C 0.4327 0.56218 0.47573 0.0
C1062 C 0.4362 0.57522 0.50841 0.0
C1063 C 0.44486 0.55 0.49425 0.0
N1064 N 0.41737 0.59321 0.4788 0.0
N1065 N 0.41907 0.60056 0.49842 0.0
C1066 C 0.44113 0.54789 0.45515 0.0
H1067 H 0.46272 0.56341 0.44864 0.0
H1068 H 0.4181 0.55019 0.44504 0.0
H1069 H 0.44954 0.52031 0.45583 0.0
C1070 C 0.3136 0.67549 0.45689 0.0
N1071 N 0.3457 0.66689 0.45027 0.0
N1072 N 0.35697 0.63974 0.46062 0.0
C1073 C 0.33184 0.6294 0.47357 0.0
C1074 C 0.30368 0.65197 0.47198 0.0
C1075 C 0.29533 0.70836 0.45087 0.0
H1076 H 0.31462 0.72933 0.44811 0.0
H1077 H 0.28094 0.70377 0.43647 0.0
H1078 H 0.27664 0.71686 0.46274 0.0
O1079 O 0.41336 0.71253 0.44935 0.0
O1080 O 0.43478 0.66781 0.46668 0.0
H1081 H 0.34781 0.6067 0.50177 0.0
H1082 H 0.30866 0.58821 0.49129 0.0
C1083 C 0.33481 0.59864 0.48746 0.0
H1084 H 0.35046 0.57782 0.48017 0.0
H1085 H 0.4107 0.62404 0.50477 0.0
O1086 O 0.35743 0.72813 0.41588 0.0
C1087 C 0.4349 0.69996 0.46206 0.0
C1088 C 0.27187 0.25301 0.23623 0.0
C1089 C 0.28347 0.23028 0.25156 0.0
C1090 C 0.24249 0.27396 0.23918 0.0
C1091 C 0.22401 0.27301 0.2576 0.0
H1092 H 0.28587 0.25503 0.22199 0.0
H1093 H 0.23422 0.29109 0.227 0.0
S1094 S 0.24273 0.21556 0.30172 0.0
N1095 N 0.27415 0.20703 0.28536 0.0
N1096 N 0.21796 0.24532 0.29075 0.0
C1097 C 0.23517 0.24994 0.27292 0.0
C1098 C 0.26528 0.22891 0.26995 0.0
C1099 C 0.97083 0.99014 0.49097 0.0
C1100 C 0.97355 0.96805 0.50789 0.0
C1101 C 0.99406 0.01787 0.48831 0.0
C1102 C 0.02104 0.02407 0.50236 0.0
H1103 H 0.95027 0.98626 0.47989 0.0
H1104 H 0.99029 0.03504 0.47543 0.0
S1105 S 0.04162 0.97142 0.54798 0.0
N1106 N 0.00712 0.95228 0.53795 0.0
N1107 N 0.0502 0.00512 0.53319 0.0
C1108 C 0.02442 0.00183 0.51914 0.0
C1109 C 0.0009 0.97349 0.5218 0.0
C1110 C 0.27956 0.74954 0.74741 0.0
C1111 C 0.27357 0.71364 0.74986 0.0
C1112 C 0.2518 0.77316 0.7467 0.0
C1113 C 0.2173 0.76151 0.74836 0.0
H1114 H 0.30592 0.7595 0.74649 0.0
H1115 H 0.25736 0.8007 0.74512 0.0
S1116 S 0.18793 0.66989 0.7535 0.0
N1117 N 0.23086 0.66734 0.75288 0.0
N1118 N 0.17848 0.71177 0.7517 0.0
C1119 C 0.21098 0.72563 0.75056 0.0
C1120 C 0.23923 0.70162 0.75122 0.0
C1121 C 0.47443 0.9845 0.01264 0.0
C1122 C 0.47824 0.96107 0.99643 0.0
C1123 C 0.499 0.01083 0.01592 0.0
C1124 C 0.5282 0.01425 0.00317 0.0
H1125 H 0.45176 0.98315 0.02241 0.0
H1126 H 0.4944 0.0294 0.02803 0.0
S1127 S 0.55261 0.95635 0.96053 0.0
N1128 N 0.51551 0.94024 0.96906 0.0
N1129 N 0.561 0.99077 0.97482 0.0
C1130 C 0.533 0.99021 0.98743 0.0
C1131 C 0.50823 0.96319 0.98421 0.0
C1132 C 0.23935 0.72037 0.2633 0.0
C1133 C 0.21803 0.72232 0.24598 0.0
C1134 C 0.26698 0.7437 0.26605 0.0
C1135 C 0.27387 0.76987 0.25163 0.0
H1136 H 0.23496 0.70033 0.27462 0.0
H1137 H 0.28358 0.74062 0.27925 0.0
S1138 S 0.22312 0.78876 0.20505 0.0
N1139 N 0.20343 0.7548 0.21532 0.0
N1140 N 0.25633 0.79777 0.22016 0.0
C1141 C 0.25234 0.77262 0.23452 0.0
C1142 C 0.22402 0.74912 0.2318 0.0
C1143 C 0.53073 0.00128 0.4972 0.0
C1144 C 0.51811 0.96728 0.49997 0.0
C1145 C 0.50829 0.03001 0.49842 0.0
C1146 C 0.47267 0.02553 0.50255 0.0
H1147 H 0.55814 0.00575 0.49438 0.0
H1148 H 0.51898 0.05593 0.49652 0.0
S1149 S 0.4264 0.94179 0.50953 0.0
N1150 N 0.46752 0.93062 0.50608 0.0
N1151 N 0.42541 0.98477 0.50832 0.0
C1152 C 0.45964 0.99171 0.50503 0.0
C1153 C 0.48241 0.9625 0.50382 0.0
C1154 C 0.24874 0.21769 0.75615 0.0
C1155 C 0.21449 0.23016 0.75457 0.0
C1156 C 0.27706 0.24047 0.75464 0.0
C1157 C 0.27189 0.27629 0.75141 0.0
H1158 H 0.25369 0.19015 0.75824 0.0
H1159 H 0.30318 0.22992 0.7556 0.0
S1160 S 0.18743 0.32215 0.74738 0.0
N1161 N 0.17691 0.28072 0.75036 0.0
N1162 N 0.23043 0.32351 0.74752 0.0
C1163 C 0.23789 0.28916 0.75 0.0
C1164 C 0.20905 0.26603 0.75153 0.0
C1165 C 0.02871 0.00402 0.00804 0.0
C1166 C 0.02037 0.96869 0.00575 0.0
C1167 C 0.00285 0.02956 0.00654 0.0
C1168 C 0.96796 0.02042 0.00278 0.0
H1169 H 0.05537 0.0119 0.0109 0.0
H1170 H 0.0103 0.05669 0.00796 0.0
S1171 S 0.93256 0.93116 0.99751 0.0
N1172 N 0.97489 0.92551 1.00066 0.0
N1173 N 0.92606 0.97371 0.99813 0.0
C1174 C 0.95921 0.98513 1.00091 0.0
C1175 C 0.98555 0.95916 0.00231 0.0
C1176 C 0.75268 0.78272 0.75572 0.0
C1177 C 0.71832 0.7713 0.753 0.0
C1178 C 0.78047 0.75925 0.75436 0.0
C1179 C 0.77459 0.72376 0.75027 0.0
H1180 H 0.75805 0.80991 0.75888 0.0
H1181 H 0.80676 0.769 0.75627 0.0
S1182 S 0.68905 0.68066 0.74378 0.0
N1183 N 0.67957 0.72227 0.74706 0.0
N1184 N 0.73196 0.67795 0.74489 0.0
C1185 C 0.7403 0.71196 0.74794 0.0
C1186 C 0.71205 0.73586 0.74917 0.0
C1187 C 0.76408 0.24527 0.26973 0.0
C1188 C 0.77352 0.21983 0.25533 0.0
C1189 C 0.73572 0.26744 0.2663 0.0
C1190 C 0.71642 0.26539 0.24821 0.0
H1191 H 0.77899 0.24857 0.28357 0.0
H1192 H 0.72901 0.28653 0.2778 0.0
S1193 S 0.72978 0.20228 0.20621 0.0
N1194 N 0.76106 0.19334 0.22262 0.0
N1195 N 0.70751 0.23486 0.2162 0.0
C1196 C 0.72555 0.24006 0.23372 0.0
C1197 C 0.75431 0.21743 0.23725 0.0
C1198 C 0.76686 0.23979 0.768 0.0
C1199 C 0.77371 0.26691 0.7542 0.0
C1200 C 0.73919 0.2167 0.76475 0.0
C1201 C 0.71778 0.21987 0.74753 0.0
H1202 H 0.78338 0.23597 0.78118 0.0
H1203 H 0.73473 0.19601 0.77566 0.0
S1204 S 0.72295 0.2889 0.70809 0.0
N1205 N 0.7562 0.29685 0.72337 0.0
N1206 N 0.70323 0.25431 0.7176 0.0
C1207 C 0.72386 0.24749 0.73392 0.0
C1208 C 0.75222 0.27074 0.73714 0.0
C1209 C 0.78188 0.73967 0.25441 0.0
C1210 C 0.77638 0.77509 0.25008 0.0
C1211 C 0.75383 0.71649 0.25575 0.0
C1212 C 0.71953 0.72818 0.25292 0.0
H1213 H 0.80809 0.72971 0.25631 0.0
H1214 H 0.75908 0.68922 0.25863 0.0
S1215 S 0.69157 0.81905 0.24266 0.0
N1216 N 0.73449 0.82118 0.24386 0.0
N1217 N 0.6815 0.77773 0.24649 0.0
C1218 C 0.71375 0.76371 0.24888 0.0
C1219 C 0.74229 0.78721 0.2475 0.0
C1220 C 0.52794 0.49388 0.99622 0.0
C1221 C 0.51375 0.52747 0.99781 0.0
C1222 C 0.50658 0.46438 0.99741 0.0
C1223 C 0.47046 0.46766 1.00035 0.0
H1224 H 0.55574 0.49041 0.99428 0.0
H1225 H 0.51844 0.43882 0.99641 0.0
S1226 S 0.42044 0.54985 0.00404 0.0
N1227 N 0.46137 0.56245 0.00162 0.0
N1228 N 0.42118 0.50681 0.00372 0.0
C1229 C 0.45592 0.50105 0.00166 0.0
C1230 C 0.47763 0.53106 1.00049 0.0
C1231 C 0.01528 0.51231 0.48571 0.0
C1232 C 0.01096 0.5354 0.50203 0.0
C1233 C 0.99178 0.48492 0.48261 0.0
C1234 C 0.96309 0.48014 0.49563 0.0
H1235 H 0.03752 0.5148 0.47568 0.0
H1236 H -0.00313 0.46667 0.47042 0.0
S1237 S 0.93809 0.53628 0.53901 0.0
N1238 N 0.97415 0.55403 0.53009 0.0
N1239 N 0.93048 0.50188 0.52457 0.0
C1240 C 0.95792 0.50377 0.51158 0.0
C1241 C 0.98168 0.53173 0.51465 0.0
C1242 C 0.02857 0.49885 1.00109 0.0
C1243 C 0.01349 0.4656 0.00224 0.0
C1244 C 0.00782 0.52884 0.00171 0.0
C1245 C 0.97143 0.5264 0.00358 0.0
H1246 H 0.05657 0.5017 1.0 0.0
H1247 H 0.02034 0.55412 1.0011 0.0
S1248 S 0.9192 0.44543 0.0055 0.0
N1249 N 0.95998 0.43187 0.0043 0.0
N1250 N 0.92101 0.48844 0.00536 0.0
C1251 C 0.95601 0.49337 0.00439 0.0
C1252 C 0.97708 0.46287 0.0038 0.0
C1253 C 0.52872 0.50372 0.5073 0.0
C1254 C 0.52114 0.46892 0.50244 0.0
C1255 C 0.50354 0.52978 0.50492 0.0
C1256 C 0.47015 0.52179 0.49749 0.0
H1257 H 0.55424 0.51076 0.51302 0.0
H1258 H 0.51036 0.55642 0.50866 0.0
S1259 S 0.43695 0.43443 0.48352 0.0
N1260 N 0.47776 0.42758 0.49044 0.0
N1261 N 0.43033 0.47676 0.486 0.0
C1262 C 0.46219 0.48711 0.49269 0.0
C1263 C 0.4878 0.4606 0.49508 0.0
C1264 C 0.36775 0.18579 0.13018 0.0
C1265 C 0.36013 0.193 0.15073 0.0
C1266 C 0.36202 0.21066 0.11485 0.0
C1267 C 0.34858 0.24394 0.1194 0.0
H1268 H 0.38008 0.16144 0.12598 0.0
H1269 H 0.37025 0.20441 0.09953 0.0
S1270 S 0.31881 0.27414 0.17015 0.0
N1271 N 0.33434 0.23469 0.17427 0.0
N1272 N 0.3234 0.28101 0.14552 0.0
C1273 C 0.33805 0.25042 0.13955 0.0
C1274 C 0.34382 0.22509 0.15517 0.0
C1275 C 0.03167 0.11628 0.36788 0.0
C1276 C -0.00061 0.09983 0.37142 0.0
C1277 C 0.05395 0.12531 0.38399 0.0
C1278 C 0.0451 0.11787 0.40429 0.0
H1279 H 0.03908 0.12399 0.35264 0.0
H1280 H 0.07775 0.13928 0.38055 0.0
S1281 S 0.96504 0.07242 0.42172 0.0
N1282 N 0.96112 0.07401 0.39674 0.0
N1283 N 0.00253 0.09144 0.42692 0.0
C1284 C 0.01387 0.09964 0.40795 0.0
C1285 C 0.99118 0.09047 0.39155 0.0
C1286 C 0.15137 0.77173 0.65591 0.0
C1287 C 0.13313 0.80261 0.65127 0.0
C1288 C 0.15854 0.74675 0.64093 0.0
C1289 C 0.14813 0.75168 0.62061 0.0
H1290 H 0.15806 0.76548 0.67149 0.0
H1291 H 0.17067 0.72252 0.64557 0.0
S1292 S 0.10504 0.83081 0.59979 0.0
N1293 N 0.10881 0.83869 0.62438 0.0
N1294 N 0.12257 0.79203 0.59616 0.0
C1295 C 0.13273 0.78386 0.61539 0.0
C1296 C 0.12512 0.80919 0.63073 0.0
C1297 C 0.4539 0.86578 0.85966 0.0
C1298 C 0.47669 0.89448 0.86067 0.0
C1299 C 0.42997 0.85904 0.87522 0.0
C1300 C 0.42756 0.88087 0.89241 0.0
H1301 H 0.45612 0.84688 0.84748 0.0
H1302 H 0.4149 0.83522 0.87431 0.0
S1303 S 0.47459 0.96471 0.89932 0.0
N1304 N 0.49105 0.94824 0.87821 0.0
N1305 N 0.44488 0.93655 0.90701 0.0
C1306 C 0.44725 0.91191 0.89229 0.0
C1307 C 0.47217 0.91841 0.87658 0.0
C1308 C 0.3709 0.80536 0.3708 0.0
C1309 C 0.36254 0.79805 0.35038 0.0
C1310 C 0.36313 0.78163 0.38641 0.0
C1311 C 0.34701 0.74939 0.38224 0.0
H1312 H 0.38489 0.82896 0.37468 0.0
H1313 H 0.37169 0.78786 0.40169 0.0
S1314 S 0.31649 0.71903 0.33164 0.0
N1315 N 0.33478 0.75714 0.32713 0.0
N1316 N 0.31988 0.713 0.35641 0.0
C1317 C 0.33642 0.74279 0.36211 0.0
C1318 C 0.34426 0.76695 0.34621 0.0
C1319 C 0.4691 0.09716 0.59822 0.0
C1320 C 0.43918 0.11752 0.60175 0.0
C1321 C 0.49232 0.08902 0.61398 0.0
C1322 C 0.48653 0.10065 0.63398 0.0
H1323 H 0.47601 0.0893 0.58295 0.0
H1324 H 0.51594 0.07503 0.61018 0.0
S1325 S 0.409 0.14994 0.65192 0.0
N1326 N 0.40283 0.14556 0.62719 0.0
N1327 N 0.44618 0.13005 0.65689 0.0
C1328 C 0.45517 0.11852 0.63806 0.0
C1329 C 0.43164 0.12707 0.62193 0.0
C1330 C 0.12496 0.21093 0.89032 0.0
C1331 C 0.14286 0.24225 0.88636 0.0
C1332 C 0.11921 0.18621 0.87492 0.0
C1333 C 0.13143 0.19158 0.85496 0.0
H1334 H 0.1132 0.2064 0.90505 0.0
H1335 H 0.1034 0.16364 0.87847 0.0
S1336 S 0.18547 0.26642 0.83775 0.0
N1337 N 0.17689 0.27505 0.86183 0.0
N1338 N 0.16643 0.22875 0.83295 0.0
C1339 C 0.15219 0.22131 0.85135 0.0
C1340 C 0.15776 0.2466 0.86701 0.0
C1341 C 0.00827 0.91005 0.11787 0.0
C1342 C 0.01142 0.89485 0.13723 0.0
C1343 C 0.0327 0.90335 0.10255 0.0
C1344 C 0.06111 0.88078 0.10585 0.0
H1345 H 0.98573 0.9258 0.11412 0.0
H1346 H 0.02772 0.91402 0.08761 0.0
S1347 S 0.08453 0.83884 0.15486 0.0
N1348 N 0.04792 0.85982 0.15969 0.0
N1349 N 0.09343 0.84688 0.13075 0.0
C1350 C 0.06618 0.86772 0.12563 0.0
C1351 C 0.04149 0.87488 0.14135 0.0
C1352 C 0.65495 0.75066 0.86402 0.0
C1353 C 0.64009 0.75323 0.88348 0.0
C1354 C 0.64681 0.7747 0.84868 0.0
C1355 C 0.62294 0.80204 0.85202 0.0
H1356 H 0.67182 0.72894 0.86031 0.0
H1357 H 0.65768 0.77033 0.83373 0.0
S1358 S 0.57954 0.82257 0.90101 0.0
N1359 N 0.60276 0.78733 0.90587 0.0
N1360 N 0.58708 0.83212 0.87693 0.0
C1361 C 0.60959 0.80624 0.8718 0.0
C1362 C 0.61828 0.78199 0.88755 0.0
C1363 C 0.99369 0.90475 0.61522 0.0
C1364 C 0.99106 0.89192 0.63517 0.0
C1365 C 0.96796 0.89773 0.60064 0.0
C1366 C 0.93855 0.8772 0.60527 0.0
H1367 H 0.01669 0.91895 0.6105 0.0
H1368 H 0.97262 0.90648 0.58525 0.0
S1369 S 0.91724 0.84037 0.65595 0.0
N1370 N 0.95494 0.86025 0.65937 0.0
N1371 N 0.90684 0.84675 0.63185 0.0
C1372 C 0.93446 0.86604 0.62552 0.0
C1373 C 0.96056 0.87353 0.64049 0.0
C1374 C 0.84404 0.21542 0.35254 0.0
C1375 C 0.86646 0.1869 0.35582 0.0
C1376 C 0.83678 0.23938 0.36806 0.0
C1377 C 0.85132 0.23569 0.38759 0.0
H1378 H 0.83382 0.22076 0.33752 0.0
H1379 H 0.82105 0.26196 0.36437 0.0
S1380 S 0.90719 0.16234 0.40502 0.0
N1381 N 0.89983 0.15405 0.38075 0.0
N1382 N 0.88594 0.19875 0.41001 0.0
C1383 C 0.87137 0.20563 0.39158 0.0
C1384 C 0.87905 0.18138 0.37568 0.0
C1385 C 0.54968 0.11867 0.12073 0.0
C1386 C 0.54463 0.10974 0.10018 0.0
C1387 C 0.52428 0.11115 0.13547 0.0
C1388 C 0.49257 0.09493 0.13016 0.0
H1389 H 0.5728 0.13282 0.12533 0.0
H1390 H 0.52866 0.12016 0.15088 0.0
S1391 S 0.46752 0.06367 0.07882 0.0
N1392 N 0.5061 0.08175 0.07562 0.0
N1393 N 0.45889 0.06752 0.1033 0.0
C1394 C 0.4881 0.08404 0.10994 0.0
C1395 C 0.51396 0.09147 0.09497 0.0
C1396 C 0.65383 0.24222 0.6381 0.0
C1397 C 0.64115 0.23816 0.61815 0.0
C1398 C 0.64608 0.2179 0.65334 0.0
C1399 C 0.62503 0.18861 0.64934 0.0
H1400 H 0.66845 0.26529 0.64227 0.0
H1401 H 0.65478 0.22351 0.66866 0.0
S1402 S 0.58928 0.16314 0.59902 0.0
N1403 N 0.60967 0.20029 0.59471 0.0
N1404 N 0.59487 0.15489 0.62345 0.0
C1405 C 0.61426 0.18287 0.62916 0.0
C1406 C 0.62244 0.2075 0.61354 0.0
C1407 C 0.5281 0.87266 0.36604 0.0
C1408 C 0.49729 0.89132 0.37022 0.0
C1409 C 0.55237 0.86508 0.38145 0.0
C1410 C 0.54711 0.87629 0.40162 0.0
H1411 H 0.53253 0.86188 0.35103 0.0
H1412 H 0.57466 0.84903 0.37768 0.0
S1413 S 0.47276 0.93001 0.41988 0.0
N1414 N 0.46461 0.92378 0.3955 0.0
N1415 N 0.50993 0.90986 0.42439 0.0
C1416 C 0.51762 0.89718 0.40562 0.0
C1417 C 0.49281 0.90459 0.38997 0.0
C1418 C 0.84702 0.77643 0.15353 0.0
C1419 C 0.86861 0.80543 0.14975 0.0
C1420 C 0.83907 0.75231 0.1382 0.0
C1421 C 0.85192 0.75632 0.11833 0.0
H1422 H 0.83801 0.77087 0.16877 0.0
H1423 H 0.8241 0.7294 0.14224 0.0
S1424 S 0.90534 0.83049 0.09964 0.0
N1425 N 0.89961 0.83875 0.12405 0.0
N1426 N 0.88432 0.79375 0.09514 0.0
C1427 C 0.87117 0.78671 0.11388 0.0
C1428 C 0.87963 0.81111 0.12961 0.0
C1429 C 0.93842 0.12022 0.88114 0.0
C1430 C 0.94191 0.10756 0.90114 0.0
C1431 C 0.96405 0.11378 0.86636 0.0
C1432 C 0.99447 0.09484 0.87108 0.0
H1433 H 0.91658 0.1367 0.87709 0.0
H1434 H 0.96101 0.12577 0.85155 0.0
S1435 S 0.01425 0.05184 0.92024 0.0
N1436 N 0.97676 0.07178 0.92408 0.0
N1437 N 0.0247 0.06012 0.89639 0.0
C1438 C -0.00292 0.07988 0.8905 0.0
C1439 C 0.97088 0.08609 0.9055 0.0
C1440 C 0.83645 0.74133 0.63992 0.0
C1441 C 0.84806 0.73633 0.61985 0.0
C1442 C 0.84359 0.71688 0.65521 0.0
C1443 C 0.8629 0.68644 0.65114 0.0
H1444 H 0.82338 0.76525 0.64419 0.0
H1445 H 0.83603 0.7233 0.67061 0.0
S1446 S 0.89428 0.65796 0.60042 0.0
N1447 N 0.87589 0.69617 0.59617 0.0
N1448 N 0.88957 0.65051 0.62499 0.0
C1449 C 0.87215 0.67968 0.63081 0.0
C1450 C 0.86462 0.70449 0.61515 0.0
C1451 C 0.49626 0.5897 0.88866 0.0
C1452 C 0.50248 0.59973 0.86839 0.0
C1453 C 0.52055 0.59662 0.9041 0.0
C1454 C 0.55199 0.61415 0.89996 0.0
H1455 H 0.47161 0.57809 0.8929 0.0
H1456 H 0.51338 0.59031 0.91959 0.0
S1457 S 0.58383 0.64023 0.84889 0.0
N1458 N 0.54484 0.62365 0.8446 0.0
N1459 N 0.59016 0.63692 0.87365 0.0
C1460 C 0.5599 0.62157 0.87951 0.0
C1461 C 0.53527 0.61426 0.86373 0.0
C1462 C 0.63623 0.27954 0.1138 0.0
C1463 C 0.64424 0.24488 0.11919 0.0
C1464 C 0.63176 0.30552 0.12866 0.0
C1465 C 0.63533 0.29802 0.14953 0.0
H1466 H 0.63152 0.28638 0.09805 0.0
H1467 H 0.6237 0.33124 0.12377 0.0
S1468 S 0.65919 0.212 0.17158 0.0
N1469 N 0.65842 0.20524 0.14682 0.0
N1470 N 0.64981 0.25359 0.17463 0.0
C1471 C 0.64576 0.26401 0.15501 0.0
C1472 C 0.65025 0.2376 0.13988 0.0
C1473 C 0.96797 0.39831 0.40315 0.0
C1474 C 0.93892 0.37678 0.39942 0.0
C1475 C 0.99229 0.40563 0.38787 0.0
C1476 C 0.98843 0.39206 0.36814 0.0
H1477 H 0.97343 0.40774 0.41833 0.0
H1478 H 0.01521 0.42062 0.39186 0.0
S1479 S 0.91424 0.33837 0.34964 0.0
N1480 N 0.90574 0.345 0.37394 0.0
N1481 N 0.95114 0.35904 0.3451 0.0
C1482 C 0.95802 0.37281 0.36373 0.0
C1483 C 0.93341 0.36503 0.37941 0.0
C1484 C 0.83445 0.24467 0.86489 0.0
C1485 C 0.84612 0.24883 0.88504 0.0
C1486 C 0.84041 0.27037 0.85014 0.0
C1487 C 0.85859 0.30124 0.85487 0.0
H1488 H 0.82231 0.22052 0.86013 0.0
H1489 H 0.83297 0.26467 0.8346 0.0
S1490 S 0.88915 0.3278 0.90617 0.0
N1491 N 0.8724 0.28861 0.90958 0.0
N1492 N 0.88388 0.33659 0.88178 0.0
C1493 C 0.86765 0.30711 0.87533 0.0
C1494 C 0.86132 0.28103 0.89043 0.0
C1495 C 0.97105 0.59806 0.09694 0.0
C1496 C 0.94012 0.61641 0.10118 0.0
C1497 C 0.99483 0.58964 0.11238 0.0
C1498 C 0.98862 0.59896 0.13277 0.0
H1499 H 0.9782 0.5921 0.08139 0.0
H1500 H 0.01915 0.5774 0.10808 0.0
S1501 S 0.9085 0.64162 0.15245 0.0
N1502 N 0.90242 0.63954 0.12762 0.0
N1503 N 0.9468 0.62347 0.15669 0.0
C1504 C 0.95632 0.61452 0.13748 0.0
C1505 C 0.93222 0.62336 0.12168 0.0
C1506 C 0.6242 0.70977 0.38772 0.0
C1507 C 0.64338 0.74052 0.38429 0.0
C1508 C 0.61787 0.68582 0.37198 0.0
C1509 C 0.63078 0.69138 0.35219 0.0
H1510 H 0.61202 0.70513 0.40232 0.0
H1511 H 0.60124 0.66367 0.37514 0.0
S1512 S 0.68737 0.76508 0.33616 0.0
N1513 N 0.67881 0.77306 0.36031 0.0
N1514 N 0.66717 0.72825 0.3308 0.0
C1515 C 0.65249 0.72057 0.34905 0.0
C1516 C 0.65869 0.74507 0.36505 0.0
C1517 C 0.55759 0.3584 0.62388 0.0
C1518 C 0.5591 0.37978 0.60648 0.0
C1519 C 0.53383 0.36499 0.63957 0.0
C1520 C 0.51032 0.39309 0.63848 0.0
H1521 H 0.5734 0.33509 0.62496 0.0
H1522 H 0.53243 0.34645 0.65197 0.0
S1523 S 0.50929 0.46186 0.59895 0.0
N1524 N 0.53953 0.43424 0.5913 0.0
N1525 N 0.49398 0.44577 0.62044 0.0
C1526 C 0.51373 0.41654 0.62224 0.0
C1527 C 0.53838 0.41015 0.60637 0.0
C1528 C 0.12361 0.28383 0.38951 0.0
C1529 C 0.13891 0.25108 0.38565 0.0
C1530 C 0.11703 0.30761 0.3737 0.0
C1531 C 0.12598 0.29985 0.35345 0.0
H1532 H 0.11475 0.29045 0.40466 0.0
H1533 H 0.10357 0.33166 0.37728 0.0
S1534 S 0.16945 0.21893 0.33553 0.0
N1535 N 0.16529 0.21339 0.36028 0.0
N1536 N 0.15294 0.25771 0.33067 0.0
C1537 C 0.14335 0.26813 0.34961 0.0
C1538 C 0.14983 0.24389 0.36568 0.0
C1539 C 0.50347 0.40388 0.10739 0.0
C1540 C 0.5001 0.39395 0.12788 0.0
C1541 C 0.47744 0.39622 0.09307 0.0
C1542 C 0.44711 0.37781 0.09857 0.0
H1543 H 0.5272 0.41617 0.10211 0.0
H1544 H 0.48239 0.40275 0.07732 0.0
S1545 S 0.42343 0.34978 0.1508 0.0
N1546 N 0.46215 0.36798 0.15339 0.0
N1547 N 0.41357 0.3532 0.12643 0.0
C1548 C 0.44226 0.36992 0.11929 0.0
C1549 C 0.46862 0.37812 0.13395 0.0
C1550 C 0.36502 0.71071 0.88488 0.0
C1551 C 0.34562 0.74099 0.88047 0.0
C1552 C 0.37372 0.68672 0.86959 0.0
C1553 C 0.36302 0.69176 0.84931 0.0
H1554 H 0.3755 0.70649 0.89999 0.0
H1555 H 0.39025 0.66487 0.87355 0.0
S1556 S 0.30746 0.76431 0.83042 0.0
N1557 N 0.3127 0.77262 0.85486 0.0
N1558 N 0.32898 0.72783 0.82615 0.0
C1559 C 0.34132 0.72055 0.84506 0.0
C1560 C 0.33265 0.74505 0.86062 0.0
C1561 C 0.0559 0.63358 0.62437 0.0
C1562 C 0.05798 0.61311 0.60658 0.0
C1563 C 0.03146 0.62629 0.63966 0.0
C1564 C 0.00777 0.59847 0.63772 0.0
H1565 H 0.07181 0.65671 0.62604 0.0
H1566 H 0.02958 0.64408 0.65241 0.0
S1567 S 0.00738 0.53222 0.59678 0.0
N1568 N 0.03842 0.55973 0.59017 0.0
N1569 N 0.9913 0.54735 0.61832 0.0
C1570 C 0.01144 0.57611 0.621 0.0
C1571 C 0.03688 0.58304 0.60563 0.0
C1572 C 0.14915 0.71549 0.1522 0.0
C1573 C 0.12776 0.68645 0.14816 0.0
C1574 C 0.1569 0.73999 0.13707 0.0
C1575 C 0.14383 0.73644 0.11719 0.0
H1576 H 0.15811 0.72081 0.16749 0.0
H1577 H 0.1718 0.76284 0.14133 0.0
S1578 S 0.09082 0.66232 0.09791 0.0
N1579 N 0.09677 0.65354 0.12225 0.0
N1580 N 0.11153 0.69932 0.09371 0.0
C1581 C 0.12471 0.70605 0.1125 0.0
C1582 C 0.11657 0.6812 0.12801 0.0
C1583 C 0.02588 0.37656 0.86954 0.0
C1584 C 0.99413 0.39338 0.87396 0.0
C1585 C 0.05008 0.36877 0.88492 0.0
C1586 C 0.04379 0.37784 0.90535 0.0
H1587 H 0.03124 0.36733 0.85428 0.0
H1588 H 0.07314 0.35408 0.88088 0.0
S1589 S 0.96689 0.42679 0.92449 0.0
N1590 N 0.95955 0.42232 0.89988 0.0
N1591 N 0.00479 0.40787 0.92873 0.0
C1592 C 0.01339 0.39714 0.90969 0.0
C1593 C 0.98866 0.40484 0.89403 0.0
C1594 C 0.36825 0.28276 0.61464 0.0
C1595 C 0.34903 0.25199 0.61803 0.0
C1596 C 0.37643 0.30558 0.63066 0.0
C1597 C 0.36535 0.29886 0.65069 0.0
H1598 H 0.37891 0.28832 0.59975 0.0
H1599 H 0.39279 0.3279 0.62745 0.0
S1600 S 0.31057 0.22411 0.66716 0.0
N1601 N 0.31624 0.21788 0.64255 0.0
N1602 N 0.3315 0.2605 0.67258 0.0
C1603 C 0.34398 0.26949 0.65397 0.0
C1604 C 0.33587 0.24615 0.63769 0.0
C1605 C 0.46738 0.59373 0.40073 0.0
C1606 C 0.43895 0.61614 0.39714 0.0
C1607 C 0.49239 0.58715 0.38569 0.0
C1608 C 0.48982 0.60224 0.36627 0.0
H1609 H 0.47182 0.58289 0.41567 0.0
H1610 H 0.5148 0.57138 0.38964 0.0
S1611 S 0.41773 0.6589 0.34799 0.0
N1612 N 0.4078 0.65053 0.37193 0.0
N1613 N 0.45444 0.63783 0.34355 0.0
C1614 C 0.46003 0.62244 0.36189 0.0
C1615 C 0.43474 0.6295 0.37734 0.0
C1616 C 0.50962 0.26168 0.18761 0.0
C1617 C 0.5191 0.27848 0.20576 0.0
C1618 C 0.49093 0.23062 0.18796 0.0
C1619 C 0.48037 0.21571 0.20645 0.0
H1620 H 0.51744 0.27213 0.173 0.0
H1621 H 0.4838 0.21877 0.17357 0.0
S1622 S 0.49837 0.24971 0.25815 0.0
N1623 N 0.5173 0.27794 0.24272 0.0
N1624 N 0.48027 0.21995 0.24335 0.0
C1625 C 0.48933 0.23235 0.22474 0.0
C1626 C 0.50926 0.26365 0.2244 0.0
C1627 C 0.96246 0.23787 0.47451 0.0
C1628 C 0.96655 0.27415 0.47287 0.0
C1629 C 0.99145 0.21589 0.47536 0.0
C1630 C 0.02534 0.22956 0.47407 0.0
H1631 H 0.93676 0.22627 0.47369 0.0
H1632 H 0.98716 0.18798 0.47498 0.0
S1633 S 0.04998 0.32286 0.47337 0.0
N1634 N 0.00697 0.32302 0.4732 0.0
N1635 N 0.06155 0.28144 0.47416 0.0
C1636 C 0.02978 0.26584 0.47451 0.0
C1637 C 0.00027 0.28827 0.47409 0.0
C1638 C 0.00927 0.71525 0.71921 0.0
C1639 C 0.97317 0.71951 0.71719 0.0
C1640 C 0.03139 0.74415 0.71939 0.0
C1641 C 0.01804 0.77803 0.71692 0.0
H1642 H 0.02057 0.68939 0.71976 0.0
H1643 H 0.05924 0.73967 0.71994 0.0
S1644 S 0.92512 0.80307 0.71295 0.0
N1645 N 0.92467 0.76013 0.71455 0.0
N1646 N 0.96653 0.81451 0.71417 0.0
C1647 C 0.98186 0.78274 0.71609 0.0
C1648 C 0.95929 0.75339 0.71642 0.0
C1649 C 0.49183 0.71714 0.967 0.0
C1650 C 0.52561 0.73063 0.96449 0.0
C1651 C 0.4627 0.73875 0.96545 0.0
C1652 C 0.46649 0.7746 0.96188 0.0
H1653 H 0.48766 0.68934 0.96857 0.0
H1654 H 0.43702 0.72709 0.96609 0.0
S1655 S 0.54954 0.82342 0.95754 0.0
N1656 N 0.56146 0.78238 0.96052 0.0
N1657 N 0.50655 0.82337 0.95823 0.0
C1658 C 0.50018 0.78891 0.96125 0.0
C1659 C 0.52984 0.76678 0.96239 0.0
C1660 C 0.4637 0.74407 0.28308 0.0
C1661 C 0.47721 0.77806 0.28449 0.0
C1662 C 0.48578 0.71514 0.28347 0.0
C1663 C 0.52201 0.7194 0.28468 0.0
H1664 H 0.43583 0.73964 0.28332 0.0
H1665 H 0.47438 0.68931 0.28384 0.0
S1666 S 0.5703 0.80318 0.28561 0.0
N1667 N 0.52883 0.81458 0.2851 0.0
N1668 N 0.57065 0.76016 0.28508 0.0
C1669 C 0.53594 0.75331 0.28421 0.0
C1670 C 0.5134 0.78273 0.28433 0.0
C1671 C 0.52949 0.23853 0.53279 0.0
C1672 C 0.52552 0.27481 0.53455 0.0
C1673 C 0.50046 0.21663 0.53188 0.0
C1674 C 0.4666 0.23035 0.53316 0.0
H1675 H 0.55517 0.22685 0.5334 0.0
H1676 H 0.5047 0.18871 0.532 0.0
S1677 S 0.44221 0.32376 0.53431 0.0
N1678 N 0.48522 0.32379 0.53452 0.0
N1679 N 0.43053 0.28238 0.53336 0.0
C1680 C 0.46225 0.26667 0.533 0.0
C1681 C 0.49182 0.28903 0.53352 0.0
C1682 C 0.0305 0.24911 0.78942 0.0
C1683 C 0.01707 0.21503 0.79032 0.0
C1684 C 0.00833 0.27796 0.79 0.0
C1685 C 0.97211 0.27351 0.79086 0.0
H1686 H 0.05836 0.25361 0.78976 0.0
H1687 H 0.0196 0.30383 0.79057 0.0
S1688 S 0.9241 0.18955 0.79093 0.0
N1689 N 0.9656 0.1783 0.79047 0.0
N1690 N 0.92361 0.23257 0.79081 0.0
C1691 C 0.95831 0.23955 0.79015 0.0
C1692 C 0.98092 0.21023 0.79007 0.0
C1693 C -0.0008 0.71939 0.03177 0.0
C1694 C 0.96569 0.73302 0.03513 0.0
C1695 C 0.0285 0.74092 0.0325 0.0
C1696 C 0.02509 0.77682 0.03602 0.0
H1697 H 0.00318 0.69156 0.03024 0.0
H1698 H 0.05409 0.72915 0.0314 0.0
S1699 S 0.94264 0.82599 0.0423 0.0
N1700 N 0.93035 0.78497 0.03977 0.0
N1701 N 0.98553 0.82578 0.04048 0.0
C1702 C 0.99153 0.79127 0.03739 0.0
C1703 C 0.96173 0.76922 0.03712 0.0
C1704 C 0.51129 0.70905 0.78139 0.0
C1705 C 0.47491 0.71264 0.78023 0.0
C1706 C 0.53297 0.7383 0.78083 0.0
C1707 C 0.51875 0.77196 0.77957 0.0
H1708 H 0.52291 0.68376 0.78416 0.0
H1709 H 0.56062 0.73469 0.78338 0.0
S1710 S 0.4259 0.79491 0.77237 0.0
N1711 N 0.42611 0.75204 0.77447 0.0
N1712 N 0.46703 0.80712 0.77411 0.0
C1713 C 0.48285 0.77566 0.77634 0.0
C1714 C 0.46082 0.74587 0.77646 0.0
C1715 C 0.96556 0.73419 0.53656 0.0
C1716 C 0.96864 0.77047 0.53856 0.0
C1717 C 0.99506 0.71284 0.53685 0.0
C1718 C 0.02849 0.72708 0.53972 0.0
H1719 H 0.94008 0.72211 0.5358 0.0
H1720 H 0.99132 0.68487 0.53634 0.0
S1721 S 0.05066 0.8209 0.54352 0.0
N1722 N 0.00781 0.82009 0.54145 0.0
N1723 N 0.06329 0.7798 0.54255 0.0
C1724 C 0.03209 0.76349 0.54036 0.0
C1725 C 0.0021 0.78526 0.53962 0.0
C1726 C 0.00947 0.21446 0.28381 0.0
C1727 C 0.97323 0.21808 0.28574 0.0
C1728 C 0.03103 0.24375 0.28295 0.0
C1729 C 0.01698 0.27748 0.2845 0.0
H1730 H 0.02137 0.18886 0.2842 0.0
H1731 H 0.05898 0.2398 0.28292 0.0
S1732 S 0.92348 0.30098 0.28658 0.0
N1733 N 0.92389 0.25796 0.28641 0.0
N1734 N 0.96469 0.31308 0.28537 0.0
C1735 C 0.98067 0.28149 0.2846 0.0
C1736 C 0.95866 0.2517 0.28506 0.0
C1737 C 0.49135 0.2044 0.03388 0.0
C1738 C 0.52522 0.21794 0.03211 0.0
C1739 C 0.46246 0.2266 0.03432 0.0
C1740 C 0.46659 0.26284 0.03248 0.0
H1741 H 0.48736 0.17688 0.03676 0.0
H1742 H 0.437 0.21554 0.03728 0.0
S1743 S 0.54973 0.31014 0.02404 0.0
N1744 N 0.56121 0.26885 0.02621 0.0
N1745 N 0.5069 0.31074 0.0262 0.0
C1746 C 0.5001 0.27622 0.02859 0.0
C1747 C 0.52951 0.25367 0.02865 0.0
C1748 C 0.45926 0.23927 0.72149 0.0
C1749 C 0.47339 0.27303 0.72163 0.0
C1750 C 0.48102 0.2101 0.7208 0.0
C1751 C 0.51743 0.21392 0.7207 0.0
H1752 H 0.43144 0.2354 0.71987 0.0
H1753 H 0.46931 0.18462 0.71889 0.0
S1754 S 0.56663 0.29677 0.72543 0.0
N1755 N 0.52532 0.3087 0.72478 0.0
N1756 N 0.56647 0.2538 0.72414 0.0
C1757 C 0.53167 0.24739 0.72339 0.0
C1758 C 0.50951 0.27707 0.72366 0.0
C1759 C 0.5273 0.7295 0.46854 0.0
C1760 C 0.52364 0.76591 0.4693 0.0
C1761 C 0.49805 0.70776 0.46842 0.0
C1762 C 0.46427 0.72188 0.46856 0.0
H1763 H 0.55282 0.71783 0.46675 0.0
H1764 H 0.50195 0.68001 0.46638 0.0
S1765 S 0.44072 0.81504 0.47386 0.0
N1766 N 0.4837 0.81482 0.47311 0.0
N1767 N 0.42871 0.77382 0.47222 0.0
C1768 C 0.4603 0.75794 0.47114 0.0
C1769 C 0.49007 0.78005 0.47172 0.0
C1770 C 0.9627 0.74188 0.21935 0.0
C1771 C 0.9774 0.77542 0.21901 0.0
C1772 C 0.98385 0.71226 0.21844 0.0
C1773 C 0.02029 0.71532 0.21767 0.0
H1774 H 0.93472 0.73848 0.2185 0.0
H1775 H 0.97157 0.68693 0.21714 0.0
S1776 S 0.07133 0.79738 0.22007 0.0
N1777 N 0.03025 0.8101 0.22037 0.0
N1778 N 0.07024 0.7544 0.21929 0.0
C1779 C 0.0353 0.74864 0.21949 0.0
C1780 C 0.01374 0.77877 0.21999 0.0
C1781 C -0.00253 0.20368 0.96861 0.0
C1782 C 0.9634 0.21702 0.96925 0.0
C1783 C 0.02622 0.22609 0.96874 0.0
C1784 C 0.02167 0.26233 0.97009 0.0
H1785 H 0.0019 0.17607 0.96628 0.0
H1786 H 0.05199 0.21514 0.96672 0.0
S1787 S 0.93762 0.30941 0.97519 0.0
N1788 N 0.9266 0.26794 0.97331 0.0
N1789 N 0.98058 0.31021 0.97434 0.0
C1790 C 0.98777 0.27563 0.97268 0.0
C1791 C 0.95857 0.25288 0.97204 0.0
C1792 C 0.43069 0.98206 0.25795 0.0
C1793 C 0.39944 0.96908 0.26613 0.0
C1794 C 0.43068 0.01079 0.24469 0.0
C1795 C 0.39941 0.02733 0.23907 0.0
H1796 H 0.45523 0.96957 0.26155 0.0
H1797 H 0.45534 0.02032 0.23895 0.0
S1798 S 0.3107 0.00327 0.25633 0.0
N1799 N 0.33663 0.97558 0.26819 0.0
N1800 N 0.33639 0.02807 0.24234 0.0
C1801 C 0.36804 0.01442 0.24707 0.0
C1802 C 0.36813 0.98574 0.26087 0.0
C1803 C 0.24356 0.15704 0.52137 0.0
C1804 C 0.27702 0.15757 0.5128 0.0
C1805 C 0.21379 0.15677 0.50901 0.0
C1806 C 0.21644 0.15668 0.48764 0.0
H1807 H 0.24039 0.15639 0.53774 0.0
H1808 H 0.18848 0.15663 0.51625 0.0
S1809 S 0.29807 0.16038 0.45775 0.0
N1810 N 0.3111 0.16082 0.4817 0.0
N1811 N 0.25515 0.15807 0.45848 0.0
C1812 C 0.24973 0.15786 0.4789 0.0
C1813 C 0.28002 0.15875 0.49148 0.0
C1814 C 0.1234 0.98268 0.74597 0.0
C1815 C 0.09209 0.96751 0.73927 0.0
C1816 C 0.12342 0.01091 0.75949 0.0
C1817 C 0.09212 0.02595 0.76626 0.0
H1818 H 0.14816 0.97238 0.74086 0.0
H1819 H 0.14819 0.02126 0.76458 0.0
S1820 S 0.00296 -0.00334 0.75278 0.0
N1821 N 0.02887 0.96897 0.74094 0.0
N1822 N 0.02889 0.02439 0.76461 0.0
C1823 C 0.06058 0.01151 0.75936 0.0
C1824 C 0.06057 0.98191 0.74616 0.0
C1825 C 0.25228 0.83575 0.0208 0.0
C1826 C 0.21774 0.83457 0.01388 0.0
C1827 C 0.28007 0.836 0.00699 0.0
C1828 C 0.27414 0.83514 0.98584 0.0
H1829 H 0.25778 0.83737 0.03694 0.0
H1830 H 0.30638 0.83714 0.0129 0.0
S1831 S 0.18842 0.82923 0.96019 0.0
N1832 N 0.17906 0.82982 0.98471 0.0
N1833 N 0.23129 0.83171 0.95874 0.0
C1834 C 0.23975 0.83285 0.9788 0.0
C1835 C 0.21152 0.83228 0.99284 0.0
C1836 C 0.5817 -0.00199 0.77046 0.0
C1837 C 0.58135 0.96403 0.76261 0.0
C1838 C 0.58229 0.02689 0.75741 0.0
C1839 C 0.58269 0.02264 0.73613 0.0
H1840 H 0.58229 0.00225 0.78675 0.0
H1841 H 0.58269 0.05273 0.76403 0.0
S1842 S 0.579 0.93899 0.70813 0.0
N1843 N 0.57843 0.92767 0.73236 0.0
N1844 N 0.58118 0.98197 0.70786 0.0
C1845 C 0.58124 0.98882 0.72814 0.0
C1846 C 0.58024 0.95947 0.7414 0.0
C1847 C 0.74836 0.83456 0.48192 0.0
C1848 C 0.71436 0.83344 0.48975 0.0
C1849 C 0.77743 0.83459 0.49493 0.0
C1850 C 0.77355 0.83368 0.51624 0.0
H1851 H 0.75248 0.83612 0.46564 0.0
H1852 H 0.80315 0.83551 0.48822 0.0
S1853 S 0.69007 0.82788 0.54428 0.0
N1854 N 0.67854 0.82841 0.52007 0.0
N1855 N 0.73299 0.83052 0.54448 0.0
C1856 C 0.73971 0.83164 0.52421 0.0
C1857 C 0.71017 0.83108 0.51097 0.0
C1858 C 0.91056 0.99259 0.27297 0.0
C1859 C 0.91039 0.02669 0.26528 0.0
C1860 C 0.91087 0.96383 0.25982 0.0
C1861 C 0.91091 0.96823 0.23854 0.0
H1862 H 0.90974 0.98814 0.28924 0.0
H1863 H 0.91085 0.93793 0.26635 0.0
S1864 S 0.91347 0.05226 0.21089 0.0
N1865 N 0.91327 0.06336 0.23516 0.0
N1866 N 0.91214 0.00926 0.21045 0.0
C1867 C 0.91177 0.00219 0.2307 0.0
C1868 C 0.91186 0.03145 0.24408 0.0
C1869 C 0.74022 0.15326 0.98118 0.0
C1870 C 0.77445 0.15403 0.98862 0.0
C1871 C 0.71177 0.15345 0.99454 0.0
C1872 C 0.71662 0.15405 0.0158 0.0
H1873 H 0.73542 0.15153 0.96497 0.0
H1874 H 0.68577 0.15255 0.98817 0.0
S1875 S 0.80114 0.15999 0.04278 0.0
N1876 N 0.81166 0.15921 0.01844 0.0
N1877 N 0.75822 0.15752 0.04356 0.0
C1878 C 0.75069 0.15628 0.02337 0.0
C1879 C 0.77962 0.15666 0.00977 0.0
C1880 C 0.87436 0.50959 0.74634 0.0
C1881 C 0.90603 0.52461 0.74016 0.0
C1882 C 0.87357 0.48152 0.75993 0.0
C1883 C 0.90443 0.46594 0.76699 0.0
H1884 H 0.84986 0.52004 0.74088 0.0
H1885 H 0.84849 0.47167 0.7648 0.0
S1886 S 0.99435 0.49427 0.75468 0.0
N1887 N 0.96916 0.52243 0.74265 0.0
N1888 N 0.96773 0.46669 0.76605 0.0
C1889 C 0.93636 0.48002 0.76049 0.0
C1890 C 0.93715 0.50979 0.74741 0.0
C1891 C 0.75969 0.62585 0.00834 0.0
C1892 C 0.77483 0.65743 0.01464 0.0
C1893 C 0.73074 0.62538 0.99534 0.0
C1894 C 0.71514 0.65648 0.98864 0.0
H1895 H 0.77059 0.60125 0.01334 0.0
H1896 H 0.7204 0.60044 0.99052 0.0
S1897 S 0.7441 0.74614 1.00124 0.0
N1898 N 0.77259 0.72064 0.01275 0.0
N1899 N 0.7161 0.71977 0.98998 0.0
C1900 C 0.72954 0.68825 0.99517 0.0
C1901 C 0.75974 0.68873 0.00788 0.0
C1902 C 0.62304 0.50966 0.25815 0.0
C1903 C 0.59169 0.5265 0.26316 0.0
C1904 C 0.62366 0.4816 0.24451 0.0
C1905 C 0.59282 0.46844 0.23587 0.0
H1906 H 0.6474 0.51852 0.26467 0.0
H1907 H 0.64852 0.46985 0.24083 0.0
S1908 S 0.50366 0.5025 0.24457 0.0
N1909 N 0.52903 0.52849 0.25806 0.0
N1910 N 0.52981 0.4736 0.23395 0.0
C1911 C 0.56117 0.48458 0.24105 0.0
C1912 C 0.56067 0.51394 0.25446 0.0
C1913 C 0.74133 0.33768 0.48102 0.0
C1914 C 0.77559 0.3361 0.48838 0.0
C1915 C 0.71303 0.33799 0.49447 0.0
C1916 C 0.71813 0.33681 0.51569 0.0
H1917 H 0.73646 0.33951 0.46482 0.0
H1918 H 0.68696 0.33941 0.48822 0.0
S1919 S 0.8028 0.32976 0.54241 0.0
N1920 N 0.8131 0.33062 0.51803 0.0
N1921 N 0.75991 0.33262 0.54332 0.0
C1922 C 0.75223 0.33412 0.52316 0.0
C1923 C 0.78099 0.33349 0.50949 0.0
C1924 C 0.0868 0.52759 0.25794 0.0
C1925 C 0.08538 0.52279 0.2367 0.0
C1926 C 0.08717 0.49909 0.27128 0.0
C1927 C 0.0858 0.46485 0.26385 0.0
H1928 H 0.0879 0.55359 0.26431 0.0
H1929 H 0.08922 0.50385 0.28748 0.0
S1930 S 0.07845 0.43831 0.20974 0.0
N1931 N 0.08117 0.48123 0.20896 0.0
N1932 N 0.07974 0.42771 0.23408 0.0
C1933 C 0.08275 0.45973 0.24273 0.0
C1934 C 0.08297 0.48871 0.22914 0.0
C1935 C 0.25794 0.36777 0.00993 0.0
C1936 C 0.27413 0.33653 0.01588 0.0
C1937 C 0.22849 0.36767 0.9973 0.0
C1938 C 0.21342 0.33629 0.99062 0.0
H1939 H 0.26838 0.39258 0.01492 0.0
H1940 H 0.21731 0.39241 0.99279 0.0
S1941 S 0.24511 0.24724 0.00245 0.0
N1942 N 0.27339 0.2733 0.01372 0.0
N1943 N 0.21605 0.27302 0.99165 0.0
C1944 C 0.22889 0.3048 0.99681 0.0
C1945 C 0.25958 0.30494 0.00914 0.0
C1946 C 0.41109 0.5263 0.74391 0.0
C1947 C 0.41052 0.52203 0.76519 0.0
C1948 C 0.41146 0.49746 0.73083 0.0
C1949 C 0.4116 0.46346 0.73863 0.0
H1950 H 0.4107 0.55214 0.73729 0.0
H1951 H 0.41065 0.50176 0.71455 0.0
S1952 S 0.41451 0.43832 0.7931 0.0
N1953 N 0.41224 0.48129 0.79341 0.0
N1954 N 0.41497 0.42706 0.76885 0.0
C1955 C 0.41308 0.45887 0.75985 0.0
C1956 C 0.41212 0.48819 0.77314 0.0
C1957 C 0.24979 0.65281 0.52053 0.0
C1958 C 0.21546 0.65472 0.51325 0.0
C1959 C 0.27814 0.65245 0.50708 0.0
C1960 C 0.27318 0.65383 0.48585 0.0
H1961 H 0.25473 0.65102 0.53673 0.0
H1962 H 0.30418 0.65108 0.51337 0.0
S1963 S 0.1885 0.66164 0.45917 0.0
N1964 N 0.17816 0.66075 0.48354 0.0
N1965 N 0.23135 0.65831 0.45826 0.0
C1966 C 0.23903 0.65657 0.47841 0.0
C1967 C 0.21019 0.65736 0.49211 0.0
loop_
_geom_bond_atom_site_label_1
_geom_bond_atom_site_label_2
_geom_bond_distance
_geom_bond_site_symmetry_2
_ccdc_geom_bond_type
Co0 O3 1.970 . S
Co0 N17 1.989 . S
Co0 O25 1.967 . S
Co0 O32 1.920 . S
Co1 O4 1.966 . S
Co1 N10 2.022 . S
Co1 N18 1.993 . S
Co1 O26 1.941 . S
C2 O3 1.258 . S
C2 O4 1.263 . S
O3 Co0 1.970 . S
O3 C2 1.258 . S
O4 Co1 1.966 . S
O4 C2 1.263 . S
C5 O6 1.235 . S
C5 O32 1.289 . S
O6 C5 1.235 . S
C7 C9 1.400 . S
C7 N10 1.351 . S
C7 C12 1.501 . S
C8 C9 1.387 . S
C8 N11 1.341 . S
C9 C7 1.400 . S
C9 C8 1.387 . S
N10 Co1 2.022 . S
N10 C7 1.351 . S
N10 N11 1.365 . S
N11 C8 1.341 . S
N11 N10 1.365 . S
N11 H31 0.862 . S
C12 C7 1.501 . S
C12 H13 0.961 . S
C12 H14 0.961 . S
C12 H15 0.960 . S
H13 C12 0.961 . S
H14 C12 0.961 . S
H15 C12 0.960 . S
C16 N17 1.342 . S
C16 C20 1.401 . S
C16 C21 1.499 . S
N17 Co0 1.989 . S
N17 C16 1.342 . S
N17 N18 1.388 . S
N18 Co1 1.993 . S
N18 N17 1.388 . S
N18 C19 1.346 . S
C19 N18 1.346 . S
C19 C20 1.396 . S
C19 C29 1.510 . S
C20 C16 1.401 . S
C20 C19 1.396 . S
C21 C16 1.499 . S
C21 H22 0.959 . S
C21 H23 0.960 . S
C21 H24 0.961 . S
H22 C21 0.959 . S
H23 C21 0.960 . S
H24 C21 0.961 . S
O25 Co0 1.967 . S
O25 C33 1.258 . S
O26 Co1 1.941 . S
O26 C33 1.266 . S
H27 C29 0.959 . S
H28 C29 0.961 . S
C29 C19 1.510 . S
C29 H27 0.959 . S
C29 H28 0.961 . S
C29 H30 0.960 . S
H30 C29 0.960 . S
H31 N11 0.862 . S
O32 Co0 1.920 . S
O32 C5 1.289 . S
C33 O25 1.258 . S
C33 O26 1.266 . S
Co34 O37 1.970 . S
Co34 N51 1.989 . S
Co34 O59 1.967 . S
Co34 O66 1.920 . S
Co35 O38 1.966 . S
Co35 N44 2.022 . S
Co35 N52 1.993 . S
Co35 O60 1.941 . S
C36 O37 1.258 . S
C36 O38 1.263 . S
O37 Co34 1.970 . S
O37 C36 1.258 . S
O38 Co35 1.966 . S
O38 C36 1.263 . S
C39 O40 1.235 . S
C39 O66 1.289 . S
O40 C39 1.235 . S
C41 C43 1.400 . S
C41 N44 1.351 . S
C41 C46 1.501 . S
C42 C43 1.387 . S
C42 N45 1.341 . S
C43 C41 1.400 . S
C43 C42 1.387 . S
N44 Co35 2.022 . S
N44 C41 1.351 . S
N44 N45 1.365 . S
N45 C42 1.341 . S
N45 N44 1.365 . S
N45 H65 0.862 . S
C46 C41 1.501 . S
C46 H47 0.961 . S
C46 H48 0.961 . S
C46 H49 0.960 . S
H47 C46 0.961 . S
H48 C46 0.961 . S
H49 C46 0.960 . S
C50 N51 1.342 . S
C50 C54 1.401 . S
C50 C55 1.499 . S
N51 Co34 1.989 . S
N51 C50 1.342 . S
N51 N52 1.388 . S
N52 Co35 1.993 . S
N52 N51 1.388 . S
N52 C53 1.346 . S
C53 N52 1.346 . S
C53 C54 1.396 . S
C53 C63 1.510 . S
C54 C50 1.401 . S
C54 C53 1.396 . S
C55 C50 1.499 . S
C55 H56 0.959 . S
C55 H57 0.960 . S
C55 H58 0.961 . S
H56 C55 0.959 . S
H57 C55 0.960 . S
H58 C55 0.961 . S
O59 Co34 1.967 . S
O59 C67 1.258 . S
O60 Co35 1.941 . S
O60 C67 1.266 . S
H61 C63 0.959 . S
H62 C63 0.961 . S
C63 C53 1.510 . S
C63 H61 0.959 . S
C63 H62 0.961 . S
C63 H64 0.960 . S
H64 C63 0.960 . S
H65 N45 0.862 . S
O66 Co34 1.920 . S
O66 C39 1.289 . S
C67 O59 1.258 . S
C67 O60 1.266 . S
Co68 O71 1.970 . S
Co68 N85 1.989 . S
Co68 O93 1.967 . S
Co68 O100 1.920 . S
Co69 O72 1.966 . S
Co69 N78 2.022 . S
Co69 N86 1.993 . S
Co69 O94 1.941 . S
C70 O71 1.258 . S
C70 O72 1.263 . S
O71 Co68 1.970 . S
O71 C70 1.258 . S
O72 Co69 1.966 . S
O72 C70 1.263 . S
C73 O74 1.235 . S
C73 O100 1.289 . S
O74 C73 1.235 . S
C75 C77 1.400 . S
C75 N78 1.351 . S
C75 C80 1.501 . S
C76 C77 1.387 . S
C76 N79 1.341 . S
C77 C75 1.400 . S
C77 C76 1.387 . S
N78 Co69 2.022 . S
N78 C75 1.351 . S
N78 N79 1.365 . S
N79 C76 1.341 . S
N79 N78 1.365 . S
N79 H99 0.862 . S
C80 C75 1.501 . S
C80 H81 0.961 . S
C80 H82 0.961 . S
C80 H83 0.960 . S
H81 C80 0.961 . S
H82 C80 0.961 . S
H83 C80 0.960 . S
C84 N85 1.342 . S
C84 C88 1.401 . S
C84 C89 1.499 . S
N85 Co68 1.989 . S
N85 C84 1.342 . S
N85 N86 1.388 . S
N86 Co69 1.993 . S
N86 N85 1.388 . S
N86 C87 1.346 . S
C87 N86 1.346 . S
C87 C88 1.396 . S
C87 C97 1.510 . S
C88 C84 1.401 . S
C88 C87 1.396 . S
C89 C84 1.499 . S
C89 H90 0.959 . S
C89 H91 0.960 . S
C89 H92 0.961 . S
H90 C89 0.959 . S
H91 C89 0.960 . S
H92 C89 0.961 . S
O93 Co68 1.967 . S
O93 C101 1.258 . S
O94 Co69 1.941 . S
O94 C101 1.266 . S
H95 C97 0.959 . S
H96 C97 0.961 . S
C97 C87 1.510 . S
C97 H95 0.959 . S
C97 H96 0.961 . S
C97 H98 0.960 . S
H98 C97 0.960 . S
H99 N79 0.862 . S
O100 Co68 1.920 . S
O100 C73 1.289 . S
C101 O93 1.258 . S
C101 O94 1.266 . S
Co102 O105 1.970 . S
Co102 N119 1.989 . S
Co102 O127 1.967 . S
Co102 O134 1.920 . S
Co103 O106 1.966 . S
Co103 N112 2.022 . S
Co103 N120 1.993 . S
Co103 O128 1.941 . S
C104 O105 1.258 . S
C104 O106 1.263 . S
O105 Co102 1.970 . S
O105 C104 1.258 . S
O106 Co103 1.966 . S
O106 C104 1.263 . S
C107 O108 1.235 . S
C107 O134 1.289 . S
O108 C107 1.235 . S
C109 C111 1.400 . S
C109 N112 1.351 . S
C109 C114 1.501 . S
C110 C111 1.387 1_554 S
C110 N113 1.341 1_554 S
C111 C109 1.400 . S
C111 C110 1.387 1_556 S
N112 Co103 2.022 . S
N112 C109 1.351 . S
N112 N113 1.365 . S
N113 C110 1.341 1_556 S
N113 N112 1.365 . S
N113 H133 0.862 . S
C114 C109 1.501 . S
C114 H115 0.961 . S
C114 H116 0.961 . S
C114 H117 0.960 . S
H115 C114 0.961 . S
H116 C114 0.961 . S
H117 C114 0.960 . S
C118 N119 1.342 . S
C118 C122 1.401 . S
C118 C123 1.499 . S
N119 Co102 1.989 . S
N119 C118 1.342 . S
N119 N120 1.388 . S
N120 Co103 1.993 . S
N120 N119 1.388 . S
N120 C121 1.346 . S
C121 N120 1.346 . S
C121 C122 1.396 . S
C121 C131 1.510 . S
C122 C118 1.401 . S
C122 C121 1.396 . S
C123 C118 1.499 . S
C123 H124 0.959 . S
C123 H125 0.960 . S
C123 H126 0.961 . S
H124 C123 0.959 . S
H125 C123 0.960 . S
H126 C123 0.961 . S
O127 Co102 1.967 . S
O127 C135 1.258 . S
O128 Co103 1.941 . S
O128 C135 1.266 . S
H129 C131 0.959 . S
H130 C131 0.961 . S
C131 C121 1.510 . S
C131 H129 0.959 . S
C131 H130 0.961 . S
C131 H132 0.960 . S
H132 C131 0.960 . S
H133 N113 0.862 . S
O134 Co102 1.920 . S
O134 C107 1.289 . S
C135 O127 1.258 . S
C135 O128 1.266 . S
Co136 O139 1.970 . S
Co136 N153 1.989 . S
Co136 O161 1.967 . S
Co136 O168 1.920 . S
Co137 O140 1.966 . S
Co137 N146 2.022 . S
Co137 N154 1.993 . S
Co137 O162 1.941 . S
C138 O139 1.258 . S
C138 O140 1.263 . S
O139 Co136 1.970 . S
O139 C138 1.258 . S
O140 Co137 1.966 . S
O140 C138 1.263 . S
C141 O142 1.235 . S
C141 O168 1.289 . S
O142 C141 1.235 . S
C143 C145 1.400 . S
C143 N146 1.351 . S
C143 C148 1.501 . S
C144 C145 1.387 . S
C144 N147 1.341 . S
C145 C143 1.400 . S
C145 C144 1.387 . S
N146 Co137 2.022 . S
N146 C143 1.351 . S
N146 N147 1.365 . S
N147 C144 1.341 . S
N147 N146 1.365 . S
N147 H167 0.862 . S
C148 C143 1.501 . S
C148 H149 0.961 . S
C148 H150 0.961 . S
C148 H151 0.960 . S
H149 C148 0.961 . S
H150 C148 0.961 . S
H151 C148 0.960 . S
C152 N153 1.342 . S
C152 C156 1.401 . S
C152 C157 1.499 . S
N153 Co136 1.989 . S
N153 C152 1.342 . S
N153 N154 1.388 . S
N154 Co137 1.993 . S
N154 N153 1.388 . S
N154 C155 1.346 . S
C155 N154 1.346 . S
C155 C156 1.396 . S
C155 C165 1.510 . S
C156 C152 1.401 . S
C156 C155 1.396 . S
C157 C152 1.499 . S
C157 H158 0.959 . S
C157 H159 0.960 . S
C157 H160 0.961 . S
H158 C157 0.959 . S
H159 C157 0.960 . S
H160 C157 0.961 . S
O161 Co136 1.967 . S
O161 C169 1.258 . S
O162 Co137 1.941 . S
O162 C169 1.266 . S
H163 C165 0.959 . S
H164 C165 0.961 . S
C165 C155 1.510 . S
C165 H163 0.959 . S
C165 H164 0.961 . S
C165 H166 0.960 . S
H166 C165 0.960 . S
H167 N147 0.862 . S
O168 Co136 1.920 . S
O168 C141 1.289 . S
C169 O161 1.258 . S
C169 O162 1.266 . S
Co170 O173 1.970 . S
Co170 N187 1.989 . S
Co170 O195 1.967 . S
Co170 O202 1.920 . S
Co171 O174 1.966 . S
Co171 N180 2.022 . S
Co171 N188 1.993 . S
Co171 O196 1.941 . S
C172 O173 1.258 . S
C172 O174 1.263 . S
O173 Co170 1.970 . S
O173 C172 1.258 . S
O174 Co171 1.966 . S
O174 C172 1.263 . S
C175 O176 1.235 . S
C175 O202 1.289 . S
O176 C175 1.235 . S
C177 C179 1.400 . S
C177 N180 1.351 . S
C177 C182 1.501 . S
C178 C179 1.387 . S
C178 N181 1.341 . S
C179 C177 1.400 . S
C179 C178 1.387 . S
N180 Co171 2.022 . S
N180 C177 1.351 . S
N180 N181 1.365 . S
N181 C178 1.341 . S
N181 N180 1.365 . S
N181 H201 0.862 . S
C182 C177 1.501 . S
C182 H183 0.961 . S
C182 H184 0.961 . S
C182 H185 0.960 . S
H183 C182 0.961 . S
H184 C182 0.961 . S
H185 C182 0.960 . S
C186 N187 1.342 . S
C186 C190 1.401 . S
C186 C191 1.499 . S
N187 Co170 1.989 . S
N187 C186 1.342 . S
N187 N188 1.388 . S
N188 Co171 1.993 . S
N188 N187 1.388 . S
N188 C189 1.346 . S
C189 N188 1.346 . S
C189 C190 1.396 . S
C189 C199 1.510 . S
C190 C186 1.401 . S
C190 C189 1.396 . S
C191 C186 1.499 . S
C191 H192 0.959 . S
C191 H193 0.960 . S
C191 H194 0.961 . S
H192 C191 0.959 . S
H193 C191 0.960 . S
H194 C191 0.961 . S
O195 Co170 1.967 . S
O195 C203 1.258 . S
O196 Co171 1.941 . S
O196 C203 1.266 . S
H197 C199 0.959 . S
H198 C199 0.961 . S
C199 C189 1.510 . S
C199 H197 0.959 . S
C199 H198 0.961 . S
C199 H200 0.960 . S
H200 C199 0.960 . S
H201 N181 0.862 . S
O202 Co170 1.920 . S
O202 C175 1.289 . S
C203 O195 1.258 . S
C203 O196 1.266 . S
Co204 O207 1.970 . S
Co204 N221 1.989 . S
Co204 O229 1.967 . S
Co204 O236 1.920 . S
Co205 O208 1.966 . S
Co205 N214 2.022 . S
Co205 N222 1.993 . S
Co205 O230 1.941 . S
C206 O207 1.258 . S
C206 O208 1.263 . S
O207 Co204 1.970 . S
O207 C206 1.258 . S
O208 Co205 1.966 . S
O208 C206 1.263 . S
C209 O210 1.235 . S
C209 O236 1.289 . S
O210 C209 1.235 . S
C211 C213 1.400 . S
C211 N214 1.351 . S
C211 C216 1.501 . S
C212 C213 1.387 . S
C212 N215 1.341 . S
C213 C211 1.400 . S
C213 C212 1.387 . S
N214 Co205 2.022 . S
N214 C211 1.351 . S
N214 N215 1.365 . S
N215 C212 1.341 . S
N215 N214 1.365 . S
N215 H235 0.862 . S
C216 C211 1.501 . S
C216 H217 0.961 . S
C216 H218 0.961 . S
C216 H219 0.960 . S
H217 C216 0.961 . S
H218 C216 0.961 . S
H219 C216 0.960 . S
C220 N221 1.342 . S
C220 C224 1.401 . S
C220 C225 1.499 . S
N221 Co204 1.989 . S
N221 C220 1.342 . S
N221 N222 1.388 . S
N222 Co205 1.993 . S
N222 N221 1.388 . S
N222 C223 1.346 . S
C223 N222 1.346 . S
C223 C224 1.396 . S
C223 C233 1.510 . S
C224 C220 1.401 . S
C224 C223 1.396 . S
C225 C220 1.499 . S
C225 H226 0.959 . S
C225 H227 0.960 . S
C225 H228 0.961 . S
H226 C225 0.959 . S
H227 C225 0.960 . S
H228 C225 0.961 . S
O229 Co204 1.967 . S
O229 C237 1.258 . S
O230 Co205 1.941 . S
O230 C237 1.266 . S
H231 C233 0.959 . S
H232 C233 0.961 . S
C233 C223 1.510 . S
C233 H231 0.959 . S
C233 H232 0.961 . S
C233 H234 0.960 . S
H234 C233 0.960 . S
H235 N215 0.862 . S
O236 Co204 1.920 . S
O236 C209 1.289 . S
C237 O229 1.258 . S
C237 O230 1.266 . S
Co238 O241 1.970 . S
Co238 N255 1.989 . S
Co238 O263 1.967 . S
Co238 O270 1.920 . S
Co239 O242 1.966 . S
Co239 N248 2.022 . S
Co239 N256 1.993 . S
Co239 O264 1.941 . S
C240 O241 1.258 . S
C240 O242 1.263 . S
O241 Co238 1.970 . S
O241 C240 1.258 . S
O242 Co239 1.966 . S
O242 C240 1.263 . S
C243 O244 1.235 . S
C243 O270 1.289 . S
O244 C243 1.235 . S
C245 C247 1.400 . S
C245 N248 1.351 . S
C245 C250 1.501 . S
C246 C247 1.387 1_556 S
C246 N249 1.341 1_556 S
C247 C245 1.400 . S
C247 C246 1.387 1_554 S
N248 Co239 2.022 . S
N248 C245 1.351 . S
N248 N249 1.365 . S
N249 C246 1.341 1_554 S
N249 N248 1.365 . S
N249 H269 0.862 . S
C250 C245 1.501 . S
C250 H251 0.961 . S
C250 H252 0.961 . S
C250 H253 0.960 . S
H251 C250 0.961 . S
H252 C250 0.961 . S
H253 C250 0.960 . S
C254 N255 1.342 . S
C254 C258 1.401 . S
C254 C259 1.499 . S
N255 Co238 1.989 . S
N255 C254 1.342 . S
N255 N256 1.388 . S
N256 Co239 1.993 . S
N256 N255 1.388 . S
N256 C257 1.346 . S
C257 N256 1.346 . S
C257 C258 1.396 . S
C257 C267 1.510 . S
C258 C254 1.401 . S
C258 C257 1.396 . S
C259 C254 1.499 . S
C259 H260 0.959 . S
C259 H261 0.960 . S
C259 H262 0.961 . S
H260 C259 0.959 . S
H261 C259 0.960 . S
H262 C259 0.961 . S
O263 Co238 1.967 . S
O263 C271 1.258 . S
O264 Co239 1.941 . S
O264 C271 1.266 . S
H265 C267 0.959 . S
H266 C267 0.961 . S
C267 C257 1.510 . S
C267 H265 0.959 . S
C267 H266 0.961 . S
C267 H268 0.960 . S
H268 C267 0.960 . S
H269 N249 0.862 . S
O270 Co238 1.920 . S
O270 C243 1.289 . S
C271 O263 1.258 . S
C271 O264 1.266 . S
Co272 O275 1.970 . S
Co272 N289 1.989 . S
Co272 O297 1.967 . S
Co272 O304 1.920 . S
Co273 O276 1.966 . S
Co273 N282 2.022 . S
Co273 N290 1.993 . S
Co273 O298 1.941 . S
C274 O275 1.258 . S
C274 O276 1.263 . S
O275 Co272 1.970 . S
O275 C274 1.258 . S
O276 Co273 1.966 . S
O276 C274 1.263 . S
C277 O278 1.235 . S
C277 O304 1.289 . S
O278 C277 1.235 . S
C279 C281 1.400 . S
C279 N282 1.351 . S
C279 C284 1.501 . S
C280 C281 1.387 . S
C280 N283 1.341 . S
C281 C279 1.400 . S
C281 C280 1.387 . S
N282 Co273 2.022 . S
N282 C279 1.351 . S
N282 N283 1.365 . S
N283 C280 1.341 . S
N283 N282 1.365 . S
N283 H303 0.862 . S
C284 C279 1.501 . S
C284 H285 0.961 . S
C284 H286 0.961 . S
C284 H287 0.960 . S
H285 C284 0.961 . S
H286 C284 0.961 . S
H287 C284 0.960 . S
C288 N289 1.342 . S
C288 C292 1.401 . S
C288 C293 1.499 . S
N289 Co272 1.989 . S
N289 C288 1.342 . S
N289 N290 1.388 . S
N290 Co273 1.993 . S
N290 N289 1.388 . S
N290 C291 1.346 . S
C291 N290 1.346 . S
C291 C292 1.396 . S
C291 C301 1.510 . S
C292 C288 1.401 . S
C292 C291 1.396 . S
C293 C288 1.499 . S
C293 H294 0.959 . S
C293 H295 0.960 . S
C293 H296 0.961 . S
H294 C293 0.959 . S
H295 C293 0.960 . S
H296 C293 0.961 . S
O297 Co272 1.967 . S
O297 C305 1.258 . S
O298 Co273 1.941 . S
O298 C305 1.266 . S
H299 C301 0.959 . S
H300 C301 0.961 . S
C301 C291 1.510 . S
C301 H299 0.959 . S
C301 H300 0.961 . S
C301 H302 0.960 . S
H302 C301 0.960 . S
H303 N283 0.862 . S
O304 Co272 1.920 . S
O304 C277 1.289 . S
C305 O297 1.258 . S
C305 O298 1.266 . S
Co306 O309 1.970 . S
Co306 N323 1.989 . S
Co306 O331 1.967 . S
Co306 O338 1.920 . S
Co307 O310 1.966 . S
Co307 N316 2.022 . S
Co307 N324 1.993 . S
Co307 O332 1.941 . S
C308 O309 1.258 . S
C308 O310 1.263 . S
O309 Co306 1.970 . S
O309 C308 1.258 . S
O310 Co307 1.966 . S
O310 C308 1.263 . S
C311 O312 1.235 . S
C311 O338 1.289 . S
O312 C311 1.235 . S
C313 C315 1.400 . S
C313 N316 1.351 . S
C313 C318 1.501 . S
C314 C315 1.387 . S
C314 N317 1.341 . S
C315 C313 1.400 . S
C315 C314 1.387 . S
N316 Co307 2.022 . S
N316 C313 1.351 . S
N316 N317 1.365 . S
N317 C314 1.341 . S
N317 N316 1.365 . S
N317 H337 0.862 . S
C318 C313 1.501 . S
C318 H319 0.961 . S
C318 H320 0.961 . S
C318 H321 0.960 . S
H319 C318 0.961 . S
H320 C318 0.961 . S
H321 C318 0.960 . S
C322 N323 1.342 . S
C322 C326 1.401 . S
C322 C327 1.499 . S
N323 Co306 1.989 . S
N323 C322 1.342 . S
N323 N324 1.388 . S
N324 Co307 1.993 . S
N324 N323 1.388 . S
N324 C325 1.346 . S
C325 N324 1.346 . S
C325 C326 1.396 . S
C325 C335 1.510 . S
C326 C322 1.401 . S
C326 C325 1.396 . S
C327 C322 1.499 . S
C327 H328 0.959 . S
C327 H329 0.960 . S
C327 H330 0.961 . S
H328 C327 0.959 . S
H329 C327 0.960 . S
H330 C327 0.961 . S
O331 Co306 1.967 . S
O331 C339 1.258 . S
O332 Co307 1.941 . S
O332 C339 1.266 . S
H333 C335 0.959 . S
H334 C335 0.961 . S
C335 C325 1.510 . S
C335 H333 0.959 . S
C335 H334 0.961 . S
C335 H336 0.960 . S
H336 C335 0.960 . S
H337 N317 0.862 . S
O338 Co306 1.920 . S
O338 C311 1.289 . S
C339 O331 1.258 . S
C339 O332 1.266 . S
Co340 O343 1.970 . S
Co340 N357 1.989 . S
Co340 O365 1.967 . S
Co340 O372 1.920 . S
Co341 O344 1.966 . S
Co341 N350 2.022 . S
Co341 N358 1.993 . S
Co341 O366 1.941 . S
C342 O343 1.258 . S
C342 O344 1.263 . S
O343 Co340 1.970 . S
O343 C342 1.258 . S
O344 Co341 1.966 . S
O344 C342 1.263 . S
C345 O346 1.235 . S
C345 O372 1.289 . S
O346 C345 1.235 . S
C347 C349 1.400 . S
C347 N350 1.351 . S
C347 C352 1.501 . S
C348 C349 1.387 . S
C348 N351 1.341 . S
C349 C347 1.400 . S
C349 C348 1.387 . S
N350 Co341 2.022 . S
N350 C347 1.351 . S
N350 N351 1.365 . S
N351 C348 1.341 . S
N351 N350 1.365 . S
N351 H371 0.862 . S
C352 C347 1.501 . S
C352 H353 0.961 . S
C352 H354 0.961 . S
C352 H355 0.960 . S
H353 C352 0.961 . S
H354 C352 0.961 . S
H355 C352 0.960 . S
C356 N357 1.342 . S
C356 C360 1.401 . S
C356 C361 1.499 . S
N357 Co340 1.989 . S
N357 C356 1.342 . S
N357 N358 1.388 . S
N358 Co341 1.993 . S
N358 N357 1.388 . S
N358 C359 1.346 . S
C359 N358 1.346 . S
C359 C360 1.396 . S
C359 C369 1.510 . S
C360 C356 1.401 . S
C360 C359 1.396 . S
C361 C356 1.499 . S
C361 H362 0.959 . S
C361 H363 0.960 . S
C361 H364 0.961 . S
H362 C361 0.959 . S
H363 C361 0.960 . S
H364 C361 0.961 . S
O365 Co340 1.967 . S
O365 C373 1.258 . S
O366 Co341 1.941 . S
O366 C373 1.266 . S
H367 C369 0.959 . S
H368 C369 0.961 . S
C369 C359 1.510 . S
C369 H367 0.959 . S
C369 H368 0.961 . S
C369 H370 0.960 . S
H370 C369 0.960 . S
H371 N351 0.862 . S
O372 Co340 1.920 . S
O372 C345 1.289 . S
C373 O365 1.258 . S
C373 O366 1.266 . S
Co374 O377 1.970 . S
Co374 N391 1.989 . S
Co374 O399 1.967 . S
Co374 O406 1.920 . S
Co375 O378 1.966 . S
Co375 N384 2.022 . S
Co375 N392 1.993 . S
Co375 O400 1.941 . S
C376 O377 1.258 . S
C376 O378 1.263 . S
O377 Co374 1.970 . S
O377 C376 1.258 . S
O378 Co375 1.966 . S
O378 C376 1.263 . S
C379 O380 1.235 . S
C379 O406 1.289 . S
O380 C379 1.235 . S
C381 C383 1.400 . S
C381 N384 1.351 . S
C381 C386 1.501 . S
C382 C383 1.387 1_556 S
C382 N385 1.341 1_556 S
C383 C381 1.400 . S
C383 C382 1.387 1_554 S
N384 Co375 2.022 . S
N384 C381 1.351 . S
N384 N385 1.365 . S
N385 C382 1.341 1_554 S
N385 N384 1.365 . S
N385 H405 0.862 . S
C386 C381 1.501 . S
C386 H387 0.961 . S
C386 H388 0.961 . S
C386 H389 0.960 . S
H387 C386 0.961 . S
H388 C386 0.961 . S
H389 C386 0.960 . S
C390 N391 1.342 . S
C390 C394 1.401 . S
C390 C395 1.499 . S
N391 Co374 1.989 . S
N391 C390 1.342 . S
N391 N392 1.388 . S
N392 Co375 1.993 . S
N392 N391 1.388 . S
N392 C393 1.346 . S
C393 N392 1.346 . S
C393 C394 1.396 . S
C393 C403 1.510 . S
C394 C390 1.401 . S
C394 C393 1.396 . S
C395 C390 1.499 . S
C395 H396 0.959 . S
C395 H397 0.960 . S
C395 H398 0.961 . S
H396 C395 0.959 . S
H397 C395 0.960 . S
H398 C395 0.961 . S
O399 Co374 1.967 . S
O399 C407 1.258 . S
O400 Co375 1.941 . S
O400 C407 1.266 . S
H401 C403 0.959 . S
H402 C403 0.961 . S
C403 C393 1.510 . S
C403 H401 0.959 . S
C403 H402 0.961 . S
C403 H404 0.960 . S
H404 C403 0.960 . S
H405 N385 0.862 . S
O406 Co374 1.920 . S
O406 C379 1.289 . S
C407 O399 1.258 . S
C407 O400 1.266 . S
Co408 O411 1.970 . S
Co408 N425 1.989 . S
Co408 O433 1.967 . S
Co408 O440 1.920 . S
Co409 O412 1.966 . S
Co409 N418 2.022 . S
Co409 N426 1.993 . S
Co409 O434 1.941 . S
C410 O411 1.258 . S
C410 O412 1.263 . S
O411 Co408 1.970 . S
O411 C410 1.258 . S
O412 Co409 1.966 . S
O412 C410 1.263 . S
C413 O414 1.235 . S
C413 O440 1.289 . S
O414 C413 1.235 . S
C415 C417 1.400 . S
C415 N418 1.351 . S
C415 C420 1.501 . S
C416 C417 1.387 . S
C416 N419 1.341 . S
C417 C415 1.400 . S
C417 C416 1.387 . S
N418 Co409 2.022 . S
N418 C415 1.351 . S
N418 N419 1.365 . S
N419 C416 1.341 . S
N419 N418 1.365 . S
N419 H439 0.862 . S
C420 C415 1.501 . S
C420 H421 0.961 . S
C420 H422 0.961 . S
C420 H423 0.960 . S
H421 C420 0.961 . S
H422 C420 0.961 . S
H423 C420 0.960 . S
C424 N425 1.342 . S
C424 C428 1.401 . S
C424 C429 1.499 . S
N425 Co408 1.989 . S
N425 C424 1.342 . S
N425 N426 1.388 . S
N426 Co409 1.993 . S
N426 N425 1.388 . S
N426 C427 1.346 . S
C427 N426 1.346 . S
C427 C428 1.396 . S
C427 C437 1.510 . S
C428 C424 1.401 . S
C428 C427 1.396 . S
C429 C424 1.499 . S
C429 H430 0.959 . S
C429 H431 0.960 . S
C429 H432 0.961 . S
H430 C429 0.959 . S
H431 C429 0.960 . S
H432 C429 0.961 . S
O433 Co408 1.967 . S
O433 C441 1.258 . S
O434 Co409 1.941 . S
O434 C441 1.266 . S
H435 C437 0.959 . S
H436 C437 0.961 . S
C437 C427 1.510 . S
C437 H435 0.959 . S
C437 H436 0.961 . S
C437 H438 0.960 . S
H438 C437 0.960 . S
H439 N419 0.862 . S
O440 Co408 1.920 . S
O440 C413 1.289 . S
C441 O433 1.258 . S
C441 O434 1.266 . S
Co442 O445 1.970 . S
Co442 N459 1.989 . S
Co442 O467 1.967 . S
Co442 O474 1.920 . S
Co443 O446 1.966 . S
Co443 N452 2.022 . S
Co443 N460 1.993 . S
Co443 O468 1.941 . S
C444 O445 1.258 . S
C444 O446 1.263 . S
O445 Co442 1.970 . S
O445 C444 1.258 . S
O446 Co443 1.966 . S
O446 C444 1.263 . S
C447 O448 1.235 . S
C447 O474 1.289 . S
O448 C447 1.235 . S
C449 C451 1.400 . S
C449 N452 1.351 . S
C449 C454 1.501 . S
C450 C451 1.387 . S
C450 N453 1.341 . S
C451 C449 1.400 . S
C451 C450 1.387 . S
N452 Co443 2.022 . S
N452 C449 1.351 . S
N452 N453 1.365 . S
N453 C450 1.341 . S
N453 N452 1.365 . S
N453 H473 0.862 . S
C454 C449 1.501 . S
C454 H455 0.961 . S
C454 H456 0.961 . S
C454 H457 0.960 . S
H455 C454 0.961 . S
H456 C454 0.961 . S
H457 C454 0.960 . S
C458 N459 1.342 . S
C458 C462 1.401 . S
C458 C463 1.499 . S
N459 Co442 1.989 . S
N459 C458 1.342 . S
N459 N460 1.388 . S
N460 Co443 1.993 . S
N460 N459 1.388 . S
N460 C461 1.346 . S
C461 N460 1.346 . S
C461 C462 1.396 . S
C461 C471 1.510 . S
C462 C458 1.401 . S
C462 C461 1.396 . S
C463 C458 1.499 . S
C463 H464 0.959 . S
C463 H465 0.960 . S
C463 H466 0.961 . S
H464 C463 0.959 . S
H465 C463 0.960 . S
H466 C463 0.961 . S
O467 Co442 1.967 . S
O467 C475 1.258 . S
O468 Co443 1.941 . S
O468 C475 1.266 . S
H469 C471 0.959 . S
H470 C471 0.961 . S
C471 C461 1.510 . S
C471 H469 0.959 . S
C471 H470 0.961 . S
C471 H472 0.960 . S
H472 C471 0.960 . S
H473 N453 0.862 . S
O474 Co442 1.920 . S
O474 C447 1.289 . S
C475 O467 1.258 . S
C475 O468 1.266 . S
Co476 O479 1.970 . S
Co476 N493 1.989 . S
Co476 O501 1.967 . S
Co476 O508 1.920 . S
Co477 O480 1.966 . S
Co477 N486 2.022 . S
Co477 N494 1.993 . S
Co477 O502 1.941 . S
C478 O479 1.258 . S
C478 O480 1.263 . S
O479 Co476 1.970 . S
O479 C478 1.258 . S
O480 Co477 1.966 . S
O480 C478 1.263 . S
C481 O482 1.235 . S
C481 O508 1.289 . S
O482 C481 1.235 . S
C483 C485 1.400 . S
C483 N486 1.351 . S
C483 C488 1.501 . S
C484 C485 1.387 . S
C484 N487 1.341 . S
C485 C483 1.400 . S
C485 C484 1.387 . S
N486 Co477 2.022 . S
N486 C483 1.351 . S
N486 N487 1.365 . S
N487 C484 1.341 . S
N487 N486 1.365 . S
N487 H507 0.862 . S
C488 C483 1.501 . S
C488 H489 0.961 . S
C488 H490 0.961 . S
C488 H491 0.960 . S
H489 C488 0.961 . S
H490 C488 0.961 . S
H491 C488 0.960 . S
C492 N493 1.342 . S
C492 C496 1.401 . S
C492 C497 1.499 . S
N493 Co476 1.989 . S
N493 C492 1.342 . S
N493 N494 1.388 . S
N494 Co477 1.993 . S
N494 N493 1.388 . S
N494 C495 1.346 . S
C495 N494 1.346 . S
C495 C496 1.396 . S
C495 C505 1.510 . S
C496 C492 1.401 . S
C496 C495 1.396 . S
C497 C492 1.499 . S
C497 H498 0.959 . S
C497 H499 0.960 . S
C497 H500 0.961 . S
H498 C497 0.959 . S
H499 C497 0.960 . S
H500 C497 0.961 . S
O501 Co476 1.967 . S
O501 C509 1.258 . S
O502 Co477 1.941 . S
O502 C509 1.266 . S
H503 C505 0.959 . S
H504 C505 0.961 . S
C505 C495 1.510 . S
C505 H503 0.959 . S
C505 H504 0.961 . S
C505 H506 0.960 . S
H506 C505 0.960 . S
H507 N487 0.862 . S
O508 Co476 1.920 . S
O508 C481 1.289 . S
C509 O501 1.258 . S
C509 O502 1.266 . S
Co510 O513 1.970 . S
Co510 N527 1.989 . S
Co510 O535 1.967 . S
Co510 O542 1.920 . S
Co511 O514 1.966 . S
Co511 N520 2.022 . S
Co511 N528 1.993 . S
Co511 O536 1.941 . S
C512 O513 1.258 . S
C512 O514 1.263 . S
O513 Co510 1.970 . S
O513 C512 1.258 . S
O514 Co511 1.966 . S
O514 C512 1.263 . S
C515 O516 1.235 . S
C515 O542 1.289 . S
O516 C515 1.235 . S
C517 C519 1.400 . S
C517 N520 1.351 . S
C517 C522 1.501 . S
C518 C519 1.387 1_554 S
C518 N521 1.341 1_554 S
C519 C517 1.400 . S
C519 C518 1.387 1_556 S
N520 Co511 2.022 . S
N520 C517 1.351 . S
N520 N521 1.365 . S
N521 C518 1.341 1_556 S
N521 N520 1.365 . S
N521 H541 0.862 . S
C522 C517 1.501 . S
C522 H523 0.961 . S
C522 H524 0.961 . S
C522 H525 0.960 . S
H523 C522 0.961 . S
H524 C522 0.961 . S
H525 C522 0.960 . S
C526 N527 1.342 . S
C526 C530 1.401 . S
C526 C531 1.499 . S
N527 Co510 1.989 . S
N527 C526 1.342 . S
N527 N528 1.388 . S
N528 Co511 1.993 . S
N528 N527 1.388 . S
N528 C529 1.346 . S
C529 N528 1.346 . S
C529 C530 1.396 . S
C529 C539 1.510 . S
C530 C526 1.401 . S
C530 C529 1.396 . S
C531 C526 1.499 . S
C531 H532 0.959 . S
C531 H533 0.960 . S
C531 H534 0.961 . S
H532 C531 0.959 . S
H533 C531 0.960 . S
H534 C531 0.961 . S
O535 Co510 1.967 . S
O535 C543 1.258 . S
O536 Co511 1.941 . S
O536 C543 1.266 . S
H537 C539 0.959 . S
H538 C539 0.961 . S
C539 C529 1.510 . S
C539 H537 0.959 . S
C539 H538 0.961 . S
C539 H540 0.960 . S
H540 C539 0.960 . S
H541 N521 0.862 . S
O542 Co510 1.920 . S
O542 C515 1.289 . S
C543 O535 1.258 . S
C543 O536 1.266 . S
Co544 O547 1.970 . S
Co544 N561 1.989 . S
Co544 O569 1.967 . S
Co544 O576 1.920 . S
Co545 O548 1.966 . S
Co545 N554 2.022 . S
Co545 N562 1.993 . S
Co545 O570 1.941 . S
C546 O547 1.258 . S
C546 O548 1.263 . S
O547 Co544 1.970 . S
O547 C546 1.258 . S
O548 Co545 1.966 . S
O548 C546 1.263 . S
C549 O550 1.235 . S
C549 O576 1.289 . S
O550 C549 1.235 . S
C551 C553 1.400 . S
C551 N554 1.351 . S
C551 C556 1.501 . S
C552 C553 1.387 . S
C552 N555 1.341 . S
C553 C551 1.400 . S
C553 C552 1.387 . S
N554 Co545 2.022 . S
N554 C551 1.351 . S
N554 N555 1.365 . S
N555 C552 1.341 . S
N555 N554 1.365 . S
N555 H575 0.862 . S
C556 C551 1.501 . S
C556 H557 0.961 . S
C556 H558 0.961 . S
C556 H559 0.960 . S
H557 C556 0.961 . S
H558 C556 0.961 . S
H559 C556 0.960 . S
C560 N561 1.342 . S
C560 C564 1.401 . S
C560 C565 1.499 . S
N561 Co544 1.989 . S
N561 C560 1.342 . S
N561 N562 1.388 . S
N562 Co545 1.993 . S
N562 N561 1.388 . S
N562 C563 1.346 . S
C563 N562 1.346 . S
C563 C564 1.396 . S
C563 C573 1.510 . S
C564 C560 1.401 . S
C564 C563 1.396 . S
C565 C560 1.499 . S
C565 H566 0.959 . S
C565 H567 0.960 . S
C565 H568 0.961 . S
H566 C565 0.959 . S
H567 C565 0.960 . S
H568 C565 0.961 . S
O569 Co544 1.967 . S
O569 C577 1.258 . S
O570 Co545 1.941 . S
O570 C577 1.266 . S
H571 C573 0.959 . S
H572 C573 0.961 . S
C573 C563 1.510 . S
C573 H571 0.959 . S
C573 H572 0.961 . S
C573 H574 0.960 . S
H574 C573 0.960 . S
H575 N555 0.862 . S
O576 Co544 1.920 . S
O576 C549 1.289 . S
C577 O569 1.258 . S
C577 O570 1.266 . S
Co578 O581 1.970 . S
Co578 N595 1.989 . S
Co578 O603 1.967 . S
Co578 O610 1.920 . S
Co579 O582 1.966 . S
Co579 N588 2.022 . S
Co579 N596 1.993 . S
Co579 O604 1.941 . S
C580 O581 1.258 . S
C580 O582 1.263 . S
O581 Co578 1.970 . S
O581 C580 1.258 . S
O582 Co579 1.966 . S
O582 C580 1.263 . S
C583 O584 1.235 . S
C583 O610 1.289 . S
O584 C583 1.235 . S
C585 C587 1.400 . S
C585 N588 1.351 . S
C585 C590 1.501 . S
C586 C587 1.387 1_554 S
C586 N589 1.341 1_554 S
C587 C585 1.400 . S
C587 C586 1.387 1_556 S
N588 Co579 2.022 . S
N588 C585 1.351 . S
N588 N589 1.365 . S
N589 C586 1.341 1_556 S
N589 N588 1.365 . S
N589 H609 0.862 . S
C590 C585 1.501 . S
C590 H591 0.961 . S
C590 H592 0.961 . S
C590 H593 0.960 . S
H591 C590 0.961 . S
H592 C590 0.961 . S
H593 C590 0.960 . S
C594 N595 1.342 . S
C594 C598 1.401 . S
C594 C599 1.499 . S
N595 Co578 1.989 . S
N595 C594 1.342 . S
N595 N596 1.388 . S
N596 Co579 1.993 . S
N596 N595 1.388 . S
N596 C597 1.346 . S
C597 N596 1.346 . S
C597 C598 1.396 . S
C597 C607 1.510 . S
C598 C594 1.401 . S
C598 C597 1.396 . S
C599 C594 1.499 . S
C599 H600 0.959 . S
C599 H601 0.960 . S
C599 H602 0.961 . S
H600 C599 0.959 . S
H601 C599 0.960 . S
H602 C599 0.961 . S
O603 Co578 1.967 . S
O603 C611 1.258 . S
O604 Co579 1.941 . S
O604 C611 1.266 . S
H605 C607 0.959 . S
H606 C607 0.961 . S
C607 C597 1.510 . S
C607 H605 0.959 . S
C607 H606 0.961 . S
C607 H608 0.960 . S
H608 C607 0.960 . S
H609 N589 0.862 . S
O610 Co578 1.920 . S
O610 C583 1.289 . S
C611 O603 1.258 . S
C611 O604 1.266 . S
Co612 O615 1.970 . S
Co612 N629 1.989 . S
Co612 O637 1.967 . S
Co612 O644 1.920 . S
Co613 O616 1.966 . S
Co613 N622 2.022 . S
Co613 N630 1.993 . S
Co613 O638 1.941 . S
C614 O615 1.258 . S
C614 O616 1.263 . S
O615 Co612 1.970 . S
O615 C614 1.258 . S
O616 Co613 1.966 . S
O616 C614 1.263 . S
C617 O618 1.235 . S
C617 O644 1.289 . S
O618 C617 1.235 . S
C619 C621 1.400 . S
C619 N622 1.351 . S
C619 C624 1.501 . S
C620 C621 1.387 . S
C620 N623 1.341 . S
C621 C619 1.400 . S
C621 C620 1.387 . S
N622 Co613 2.022 . S
N622 C619 1.351 . S
N622 N623 1.365 . S
N623 C620 1.341 . S
N623 N622 1.365 . S
N623 H643 0.862 . S
C624 C619 1.501 . S
C624 H625 0.961 . S
C624 H626 0.961 . S
C624 H627 0.960 . S
H625 C624 0.961 . S
H626 C624 0.961 . S
H627 C624 0.960 . S
C628 N629 1.342 . S
C628 C632 1.401 . S
C628 C633 1.499 . S
N629 Co612 1.989 . S
N629 C628 1.342 . S
N629 N630 1.388 . S
N630 Co613 1.993 . S
N630 N629 1.388 . S
N630 C631 1.346 . S
C631 N630 1.346 . S
C631 C632 1.396 . S
C631 C641 1.510 . S
C632 C628 1.401 . S
C632 C631 1.396 . S
C633 C628 1.499 . S
C633 H634 0.959 . S
C633 H635 0.960 . S
C633 H636 0.961 . S
H634 C633 0.959 . S
H635 C633 0.960 . S
H636 C633 0.961 . S
O637 Co612 1.967 . S
O637 C645 1.258 . S
O638 Co613 1.941 . S
O638 C645 1.266 . S
H639 C641 0.959 . S
H640 C641 0.961 . S
C641 C631 1.510 . S
C641 H639 0.959 . S
C641 H640 0.961 . S
C641 H642 0.960 . S
H642 C641 0.960 . S
H643 N623 0.862 . S
O644 Co612 1.920 . S
O644 C617 1.289 . S
C645 O637 1.258 . S
C645 O638 1.266 . S
Co646 O649 1.970 . S
Co646 N663 1.989 . S
Co646 O671 1.967 . S
Co646 O678 1.920 . S
Co647 O650 1.966 . S
Co647 N656 2.022 . S
Co647 N664 1.993 . S
Co647 O672 1.941 . S
C648 O649 1.258 . S
C648 O650 1.263 . S
O649 Co646 1.970 . S
O649 C648 1.258 . S
O650 Co647 1.966 . S
O650 C648 1.263 . S
C651 O652 1.235 . S
C651 O678 1.289 . S
O652 C651 1.235 . S
C653 C655 1.400 . S
C653 N656 1.351 . S
C653 C658 1.501 . S
C654 C655 1.387 . S
C654 N657 1.341 . S
C655 C653 1.400 . S
C655 C654 1.387 . S
N656 Co647 2.022 . S
N656 C653 1.351 . S
N656 N657 1.365 . S
N657 C654 1.341 . S
N657 N656 1.365 . S
N657 H677 0.862 . S
C658 C653 1.501 . S
C658 H659 0.961 . S
C658 H660 0.961 . S
C658 H661 0.960 . S
H659 C658 0.961 . S
H660 C658 0.961 . S
H661 C658 0.960 . S
C662 N663 1.342 . S
C662 C666 1.401 . S
C662 C667 1.499 . S
N663 Co646 1.989 . S
N663 C662 1.342 . S
N663 N664 1.388 . S
N664 Co647 1.993 . S
N664 N663 1.388 . S
N664 C665 1.346 . S
C665 N664 1.346 . S
C665 C666 1.396 . S
C665 C675 1.510 . S
C666 C662 1.401 . S
C666 C665 1.396 . S
C667 C662 1.499 . S
C667 H668 0.959 . S
C667 H669 0.960 . S
C667 H670 0.961 . S
H668 C667 0.959 . S
H669 C667 0.960 . S
H670 C667 0.961 . S
O671 Co646 1.967 . S
O671 C679 1.258 . S
O672 Co647 1.941 . S
O672 C679 1.266 . S
H673 C675 0.959 . S
H674 C675 0.961 . S
C675 C665 1.510 . S
C675 H673 0.959 . S
C675 H674 0.961 . S
C675 H676 0.960 . S
H676 C675 0.960 . S
H677 N657 0.862 . S
O678 Co646 1.920 . S
O678 C651 1.289 . S
C679 O671 1.258 . S
C679 O672 1.266 . S
Co680 O683 1.970 . S
Co680 N697 1.989 . S
Co680 O705 1.967 . S
Co680 O712 1.920 . S
Co681 O684 1.966 . S
Co681 N690 2.022 . S
Co681 N698 1.993 . S
Co681 O706 1.941 . S
C682 O683 1.258 . S
C682 O684 1.263 . S
O683 Co680 1.970 . S
O683 C682 1.258 . S
O684 Co681 1.966 . S
O684 C682 1.263 . S
C685 O686 1.235 . S
C685 O712 1.289 . S
O686 C685 1.235 . S
C687 C689 1.400 . S
C687 N690 1.351 . S
C687 C692 1.501 . S
C688 C689 1.387 . S
C688 N691 1.341 . S
C689 C687 1.400 . S
C689 C688 1.387 . S
N690 Co681 2.022 . S
N690 C687 1.351 . S
N690 N691 1.365 . S
N691 C688 1.341 . S
N691 N690 1.365 . S
N691 H711 0.862 . S
C692 C687 1.501 . S
C692 H693 0.961 . S
C692 H694 0.961 . S
C692 H695 0.960 . S
H693 C692 0.961 . S
H694 C692 0.961 . S
H695 C692 0.960 . S
C696 N697 1.342 . S
C696 C700 1.401 . S
C696 C701 1.499 . S
N697 Co680 1.989 . S
N697 C696 1.342 . S
N697 N698 1.388 . S
N698 Co681 1.993 . S
N698 N697 1.388 . S
N698 C699 1.346 . S
C699 N698 1.346 . S
C699 C700 1.396 . S
C699 C709 1.510 . S
C700 C696 1.401 . S
C700 C699 1.396 . S
C701 C696 1.499 . S
C701 H702 0.959 . S
C701 H703 0.960 . S
C701 H704 0.961 . S
H702 C701 0.959 . S
H703 C701 0.960 . S
H704 C701 0.961 . S
O705 Co680 1.967 . S
O705 C713 1.258 . S
O706 Co681 1.941 . S
O706 C713 1.266 . S
H707 C709 0.959 . S
H708 C709 0.961 . S
C709 C699 1.510 . S
C709 H707 0.959 . S
C709 H708 0.961 . S
C709 H710 0.960 . S
H710 C709 0.960 . S
H711 N691 0.862 . S
O712 Co680 1.920 . S
O712 C685 1.289 . S
C713 O705 1.258 . S
C713 O706 1.266 . S
Co714 O717 1.970 . S
Co714 N731 1.989 . S
Co714 O739 1.967 . S
Co714 O746 1.920 . S
Co715 O718 1.966 . S
Co715 N724 2.022 . S
Co715 N732 1.993 . S
Co715 O740 1.941 . S
C716 O717 1.258 . S
C716 O718 1.263 . S
O717 Co714 1.970 . S
O717 C716 1.258 . S
O718 Co715 1.966 . S
O718 C716 1.263 . S
C719 O720 1.235 . S
C719 O746 1.289 . S
O720 C719 1.235 . S
C721 C723 1.400 . S
C721 N724 1.351 . S
C721 C726 1.501 . S
C722 C723 1.387 1_556 S
C722 N725 1.341 1_556 S
C723 C721 1.400 . S
C723 C722 1.387 1_554 S
N724 Co715 2.022 . S
N724 C721 1.351 . S
N724 N725 1.365 . S
N725 C722 1.341 1_554 S
N725 N724 1.365 . S
N725 H745 0.862 . S
C726 C721 1.501 . S
C726 H727 0.961 . S
C726 H728 0.961 . S
C726 H729 0.960 . S
H727 C726 0.961 . S
H728 C726 0.961 . S
H729 C726 0.960 . S
C730 N731 1.342 . S
C730 C734 1.401 . S
C730 C735 1.499 . S
N731 Co714 1.989 . S
N731 C730 1.342 . S
N731 N732 1.388 . S
N732 Co715 1.993 . S
N732 N731 1.388 . S
N732 C733 1.346 . S
C733 N732 1.346 . S
C733 C734 1.396 . S
C733 C743 1.510 . S
C734 C730 1.401 . S
C734 C733 1.396 . S
C735 C730 1.499 . S
C735 H736 0.959 . S
C735 H737 0.960 . S
C735 H738 0.961 . S
H736 C735 0.959 . S
H737 C735 0.960 . S
H738 C735 0.961 . S
O739 Co714 1.967 . S
O739 C747 1.258 . S
O740 Co715 1.941 . S
O740 C747 1.266 . S
H741 C743 0.959 . S
H742 C743 0.961 . S
C743 C733 1.510 . S
C743 H741 0.959 . S
C743 H742 0.961 . S
C743 H744 0.960 . S
H744 C743 0.960 . S
H745 N725 0.862 . S
O746 Co714 1.920 . S
O746 C719 1.289 . S
C747 O739 1.258 . S
C747 O740 1.266 . S
Co748 O751 1.970 . S
Co748 N765 1.989 . S
Co748 O773 1.967 . S
Co748 O780 1.920 . S
Co749 O752 1.966 . S
Co749 N758 2.022 . S
Co749 N766 1.993 . S
Co749 O774 1.941 . S
C750 O751 1.258 . S
C750 O752 1.263 . S
O751 Co748 1.970 . S
O751 C750 1.258 . S
O752 Co749 1.966 . S
O752 C750 1.263 . S
C753 O754 1.235 . S
C753 O780 1.289 . S
O754 C753 1.235 . S
C755 C757 1.400 . S
C755 N758 1.351 . S
C755 C760 1.501 . S
C756 C757 1.387 . S
C756 N759 1.341 . S
C757 C755 1.400 . S
C757 C756 1.387 . S
N758 Co749 2.022 . S
N758 C755 1.351 . S
N758 N759 1.365 . S
N759 C756 1.341 . S
N759 N758 1.365 . S
N759 H779 0.862 . S
C760 C755 1.501 . S
C760 H761 0.961 . S
C760 H762 0.961 . S
C760 H763 0.960 . S
H761 C760 0.961 . S
H762 C760 0.961 . S
H763 C760 0.960 . S
C764 N765 1.342 . S
C764 C768 1.401 . S
C764 C769 1.499 . S
N765 Co748 1.989 . S
N765 C764 1.342 . S
N765 N766 1.388 . S
N766 Co749 1.993 . S
N766 N765 1.388 . S
N766 C767 1.346 . S
C767 N766 1.346 . S
C767 C768 1.396 . S
C767 C777 1.510 . S
C768 C764 1.401 . S
C768 C767 1.396 . S
C769 C764 1.499 . S
C769 H770 0.959 . S
C769 H771 0.960 . S
C769 H772 0.961 . S
H770 C769 0.959 . S
H771 C769 0.960 . S
H772 C769 0.961 . S
O773 Co748 1.967 . S
O773 C781 1.258 . S
O774 Co749 1.941 . S
O774 C781 1.266 . S
H775 C777 0.959 . S
H776 C777 0.961 . S
C777 C767 1.510 . S
C777 H775 0.959 . S
C777 H776 0.961 . S
C777 H778 0.960 . S
H778 C777 0.960 . S
H779 N759 0.862 . S
O780 Co748 1.920 . S
O780 C753 1.289 . S
C781 O773 1.258 . S
C781 O774 1.266 . S
Co782 O785 1.970 . S
Co782 N799 1.989 . S
Co782 O807 1.967 . S
Co782 O814 1.920 . S
Co783 O786 1.966 . S
Co783 N792 2.022 . S
Co783 N800 1.993 . S
Co783 O808 1.941 . S
C784 O785 1.258 . S
C784 O786 1.263 . S
O785 Co782 1.970 . S
O785 C784 1.258 . S
O786 Co783 1.966 . S
O786 C784 1.263 . S
C787 O788 1.235 . S
C787 O814 1.289 . S
O788 C787 1.235 . S
C789 C791 1.400 . S
C789 N792 1.351 . S
C789 C794 1.501 . S
C790 C791 1.387 . S
C790 N793 1.341 . S
C791 C789 1.400 . S
C791 C790 1.387 . S
N792 Co783 2.022 . S
N792 C789 1.351 . S
N792 N793 1.365 . S
N793 C790 1.341 . S
N793 N792 1.365 . S
N793 H813 0.862 . S
C794 C789 1.501 . S
C794 H795 0.961 . S
C794 H796 0.961 . S
C794 H797 0.960 . S
H795 C794 0.961 . S
H796 C794 0.961 . S
H797 C794 0.960 . S
C798 N799 1.342 . S
C798 C802 1.401 . S
C798 C803 1.499 . S
N799 Co782 1.989 . S
N799 C798 1.342 . S
N799 N800 1.388 . S
N800 Co783 1.993 . S
N800 N799 1.388 . S
N800 C801 1.346 . S
C801 N800 1.346 . S
C801 C802 1.396 . S
C801 C811 1.510 . S
C802 C798 1.401 . S
C802 C801 1.396 . S
C803 C798 1.499 . S
C803 H804 0.959 . S
C803 H805 0.960 . S
C803 H806 0.961 . S
H804 C803 0.959 . S
H805 C803 0.960 . S
H806 C803 0.961 . S
O807 Co782 1.967 . S
O807 C815 1.258 . S
O808 Co783 1.941 . S
O808 C815 1.266 . S
H809 C811 0.959 . S
H810 C811 0.961 . S
C811 C801 1.510 . S
C811 H809 0.959 . S
C811 H810 0.961 . S
C811 H812 0.960 . S
H812 C811 0.960 . S
H813 N793 0.862 . S
O814 Co782 1.920 . S
O814 C787 1.289 . S
C815 O807 1.258 . S
C815 O808 1.266 . S
Co816 O819 1.970 . S
Co816 N833 1.989 . S
Co816 O841 1.967 . S
Co816 O848 1.920 . S
Co817 O820 1.966 . S
Co817 N826 2.022 . S
Co817 N834 1.993 . S
Co817 O842 1.941 . S
C818 O819 1.258 . S
C818 O820 1.263 . S
O819 Co816 1.970 . S
O819 C818 1.258 . S
O820 Co817 1.966 . S
O820 C818 1.263 . S
C821 O822 1.235 . S
C821 O848 1.289 . S
O822 C821 1.235 . S
C823 C825 1.400 . S
C823 N826 1.351 . S
C823 C828 1.501 . S
C824 C825 1.387 . S
C824 N827 1.341 . S
C825 C823 1.400 . S
C825 C824 1.387 . S
N826 Co817 2.022 . S
N826 C823 1.351 . S
N826 N827 1.365 . S
N827 C824 1.341 . S
N827 N826 1.365 . S
N827 H847 0.862 . S
C828 C823 1.501 . S
C828 H829 0.961 . S
C828 H830 0.961 . S
C828 H831 0.960 . S
H829 C828 0.961 . S
H830 C828 0.961 . S
H831 C828 0.960 . S
C832 N833 1.342 . S
C832 C836 1.401 . S
C832 C837 1.499 . S
N833 Co816 1.989 . S
N833 C832 1.342 . S
N833 N834 1.388 . S
N834 Co817 1.993 . S
N834 N833 1.388 . S
N834 C835 1.346 . S
C835 N834 1.346 . S
C835 C836 1.396 . S
C835 C845 1.510 . S
C836 C832 1.401 . S
C836 C835 1.396 . S
C837 C832 1.499 . S
C837 H838 0.959 . S
C837 H839 0.960 . S
C837 H840 0.961 . S
H838 C837 0.959 . S
H839 C837 0.960 . S
H840 C837 0.961 . S
O841 Co816 1.967 . S
O841 C849 1.258 . S
O842 Co817 1.941 . S
O842 C849 1.266 . S
H843 C845 0.959 . S
H844 C845 0.961 . S
C845 C835 1.510 . S
C845 H843 0.959 . S
C845 H844 0.961 . S
C845 H846 0.960 . S
H846 C845 0.960 . S
H847 N827 0.862 . S
O848 Co816 1.920 . S
O848 C821 1.289 . S
C849 O841 1.258 . S
C849 O842 1.266 . S
Co850 O853 1.970 . S
Co850 N867 1.989 . S
Co850 O875 1.967 . S
Co850 O882 1.920 . S
Co851 O854 1.966 . S
Co851 N860 2.022 . S
Co851 N868 1.993 . S
Co851 O876 1.941 . S
C852 O853 1.258 . S
C852 O854 1.263 . S
O853 Co850 1.970 . S
O853 C852 1.258 . S
O854 Co851 1.966 . S
O854 C852 1.263 . S
C855 O856 1.235 . S
C855 O882 1.289 . S
O856 C855 1.235 . S
C857 C859 1.400 . S
C857 N860 1.351 . S
C857 C862 1.501 . S
C858 C859 1.387 1_556 S
C858 N861 1.341 1_556 S
C859 C857 1.400 . S
C859 C858 1.387 1_554 S
N860 Co851 2.022 . S
N860 C857 1.351 . S
N860 N861 1.365 . S
N861 C858 1.341 1_554 S
N861 N860 1.365 . S
N861 H881 0.862 . S
C862 C857 1.501 . S
C862 H863 0.961 . S
C862 H864 0.961 . S
C862 H865 0.960 . S
H863 C862 0.961 . S
H864 C862 0.961 . S
H865 C862 0.960 . S
C866 N867 1.342 . S
C866 C870 1.401 . S
C866 C871 1.499 . S
N867 Co850 1.989 . S
N867 C866 1.342 . S
N867 N868 1.388 . S
N868 Co851 1.993 . S
N868 N867 1.388 . S
N868 C869 1.346 . S
C869 N868 1.346 . S
C869 C870 1.396 . S
C869 C879 1.510 . S
C870 C866 1.401 . S
C870 C869 1.396 . S
C871 C866 1.499 . S
C871 H872 0.959 . S
C871 H873 0.960 . S
C871 H874 0.961 . S
H872 C871 0.959 . S
H873 C871 0.960 . S
H874 C871 0.961 . S
O875 Co850 1.967 . S
O875 C883 1.258 . S
O876 Co851 1.941 . S
O876 C883 1.266 . S
H877 C879 0.959 . S
H878 C879 0.961 . S
C879 C869 1.510 . S
C879 H877 0.959 . S
C879 H878 0.961 . S
C879 H880 0.960 . S
H880 C879 0.960 . S
H881 N861 0.862 . S
O882 Co850 1.920 . S
O882 C855 1.289 . S
C883 O875 1.258 . S
C883 O876 1.266 . S
Co884 O887 1.970 . S
Co884 N901 1.989 . S
Co884 O909 1.967 . S
Co884 O916 1.920 . S
Co885 O888 1.966 . S
Co885 N894 2.022 . S
Co885 N902 1.993 . S
Co885 O910 1.941 . S
C886 O887 1.258 . S
C886 O888 1.263 . S
O887 Co884 1.970 . S
O887 C886 1.258 . S
O888 Co885 1.966 . S
O888 C886 1.263 . S
C889 O890 1.235 . S
C889 O916 1.289 . S
O890 C889 1.235 . S
C891 C893 1.400 . S
C891 N894 1.351 . S
C891 C896 1.501 . S
C892 C893 1.387 . S
C892 N895 1.341 . S
C893 C891 1.400 . S
C893 C892 1.387 . S
N894 Co885 2.022 . S
N894 C891 1.351 . S
N894 N895 1.365 . S
N895 C892 1.341 . S
N895 N894 1.365 . S
N895 H915 0.862 . S
C896 C891 1.501 . S
C896 H897 0.961 . S
C896 H898 0.961 . S
C896 H899 0.960 . S
H897 C896 0.961 . S
H898 C896 0.961 . S
H899 C896 0.960 . S
C900 N901 1.342 . S
C900 C904 1.401 . S
C900 C905 1.499 . S
N901 Co884 1.989 . S
N901 C900 1.342 . S
N901 N902 1.388 . S
N902 Co885 1.993 . S
N902 N901 1.388 . S
N902 C903 1.346 . S
C903 N902 1.346 . S
C903 C904 1.396 . S
C903 C913 1.510 . S
C904 C900 1.401 . S
C904 C903 1.396 . S
C905 C900 1.499 . S
C905 H906 0.959 . S
C905 H907 0.960 . S
C905 H908 0.961 . S
H906 C905 0.959 . S
H907 C905 0.960 . S
H908 C905 0.961 . S
O909 Co884 1.967 . S
O909 C917 1.258 . S
O910 Co885 1.941 . S
O910 C917 1.266 . S
H911 C913 0.959 . S
H912 C913 0.961 . S
C913 C903 1.510 . S
C913 H911 0.959 . S
C913 H912 0.961 . S
C913 H914 0.960 . S
H914 C913 0.960 . S
H915 N895 0.862 . S
O916 Co884 1.920 . S
O916 C889 1.289 . S
C917 O909 1.258 . S
C917 O910 1.266 . S
Co918 O921 1.970 . S
Co918 N935 1.989 . S
Co918 O943 1.967 . S
Co918 O950 1.920 . S
Co919 O922 1.966 . S
Co919 N928 2.022 . S
Co919 N936 1.993 . S
Co919 O944 1.941 . S
C920 O921 1.258 . S
C920 O922 1.263 . S
O921 Co918 1.970 . S
O921 C920 1.258 . S
O922 Co919 1.966 . S
O922 C920 1.263 . S
C923 O924 1.235 . S
C923 O950 1.289 . S
O924 C923 1.235 . S
C925 C927 1.400 . S
C925 N928 1.351 . S
C925 C930 1.501 . S
C926 C927 1.387 . S
C926 N929 1.341 . S
C927 C925 1.400 . S
C927 C926 1.387 . S
N928 Co919 2.022 . S
N928 C925 1.351 . S
N928 N929 1.365 . S
N929 C926 1.341 . S
N929 N928 1.365 . S
N929 H949 0.862 . S
C930 C925 1.501 . S
C930 H931 0.961 . S
C930 H932 0.961 . S
C930 H933 0.960 . S
H931 C930 0.961 . S
H932 C930 0.961 . S
H933 C930 0.960 . S
C934 N935 1.342 . S
C934 C938 1.401 . S
C934 C939 1.499 . S
N935 Co918 1.989 . S
N935 C934 1.342 . S
N935 N936 1.388 . S
N936 Co919 1.993 . S
N936 N935 1.388 . S
N936 C937 1.346 . S
C937 N936 1.346 . S
C937 C938 1.396 . S
C937 C947 1.510 . S
C938 C934 1.401 . S
C938 C937 1.396 . S
C939 C934 1.499 . S
C939 H940 0.959 . S
C939 H941 0.960 . S
C939 H942 0.961 . S
H940 C939 0.959 . S
H941 C939 0.960 . S
H942 C939 0.961 . S
O943 Co918 1.967 . S
O943 C951 1.258 . S
O944 Co919 1.941 . S
O944 C951 1.266 . S
H945 C947 0.959 . S
H946 C947 0.961 . S
C947 C937 1.510 . S
C947 H945 0.959 . S
C947 H946 0.961 . S
C947 H948 0.960 . S
H948 C947 0.960 . S
H949 N929 0.862 . S
O950 Co918 1.920 . S
O950 C923 1.289 . S
C951 O943 1.258 . S
C951 O944 1.266 . S
Co952 O955 1.970 . S
Co952 N969 1.989 . S
Co952 O977 1.967 . S
Co952 O984 1.920 . S
Co953 O956 1.966 . S
Co953 N962 2.022 . S
Co953 N970 1.993 . S
Co953 O978 1.941 . S
C954 O955 1.258 . S
C954 O956 1.263 . S
O955 Co952 1.970 . S
O955 C954 1.258 . S
O956 Co953 1.966 . S
O956 C954 1.263 . S
C957 O958 1.235 . S
C957 O984 1.289 . S
O958 C957 1.235 . S
C959 C961 1.400 . S
C959 N962 1.351 . S
C959 C964 1.501 . S
C960 C961 1.387 . S
C960 N963 1.341 . S
C961 C959 1.400 . S
C961 C960 1.387 . S
N962 Co953 2.022 . S
N962 C959 1.351 . S
N962 N963 1.365 . S
N963 C960 1.341 . S
N963 N962 1.365 . S
N963 H983 0.862 . S
C964 C959 1.501 . S
C964 H965 0.961 . S
C964 H966 0.961 . S
C964 H967 0.960 . S
H965 C964 0.961 . S
H966 C964 0.961 . S
H967 C964 0.960 . S
C968 N969 1.342 . S
C968 C972 1.401 . S
C968 C973 1.499 . S
N969 Co952 1.989 . S
N969 C968 1.342 . S
N969 N970 1.388 . S
N970 Co953 1.993 . S
N970 N969 1.388 . S
N970 C971 1.346 . S
C971 N970 1.346 . S
C971 C972 1.396 . S
C971 C981 1.510 . S
C972 C968 1.401 . S
C972 C971 1.396 . S
C973 C968 1.499 . S
C973 H974 0.959 . S
C973 H975 0.960 . S
C973 H976 0.961 . S
H974 C973 0.959 . S
H975 C973 0.960 . S
H976 C973 0.961 . S
O977 Co952 1.967 . S
O977 C985 1.258 . S
O978 Co953 1.941 . S
O978 C985 1.266 . S
H979 C981 0.959 . S
H980 C981 0.961 . S
C981 C971 1.510 . S
C981 H979 0.959 . S
C981 H980 0.961 . S
C981 H982 0.960 . S
H982 C981 0.960 . S
H983 N963 0.862 . S
O984 Co952 1.920 . S
O984 C957 1.289 . S
C985 O977 1.258 . S
C985 O978 1.266 . S
Co986 O989 1.970 . S
Co986 N1003 1.989 . S
Co986 O1011 1.967 . S
Co986 O1018 1.920 . S
Co987 O990 1.966 . S
Co987 N996 2.022 . S
Co987 N1004 1.993 . S
Co987 O1012 1.941 . S
C988 O989 1.258 . S
C988 O990 1.263 . S
O989 Co986 1.970 . S
O989 C988 1.258 . S
O990 Co987 1.966 . S
O990 C988 1.263 . S
C991 O992 1.235 . S
C991 O1018 1.289 . S
O992 C991 1.235 . S
C993 C995 1.400 . S
C993 N996 1.351 . S
C993 C998 1.501 . S
C994 C995 1.387 1_554 S
C994 N997 1.341 1_554 S
C995 C993 1.400 . S
C995 C994 1.387 1_556 S
N996 Co987 2.022 . S
N996 C993 1.351 . S
N996 N997 1.365 . S
N997 C994 1.341 1_556 S
N997 N996 1.365 . S
N997 H1017 0.862 . S
C998 C993 1.501 . S
C998 H999 0.961 . S
C998 H1000 0.961 . S
C998 H1001 0.960 . S
H999 C998 0.961 . S
H1000 C998 0.961 . S
H1001 C998 0.960 . S
C1002 N1003 1.342 . S
C1002 C1006 1.401 . S
C1002 C1007 1.499 . S
N1003 Co986 1.989 . S
N1003 C1002 1.342 . S
N1003 N1004 1.388 . S
N1004 Co987 1.993 . S
N1004 N1003 1.388 . S
N1004 C1005 1.346 . S
C1005 N1004 1.346 . S
C1005 C1006 1.396 . S
C1005 C1015 1.510 . S
C1006 C1002 1.401 . S
C1006 C1005 1.396 . S
C1007 C1002 1.499 . S
C1007 H1008 0.959 . S
C1007 H1009 0.960 . S
C1007 H1010 0.961 . S
H1008 C1007 0.959 . S
H1009 C1007 0.960 . S
H1010 C1007 0.961 . S
O1011 Co986 1.967 . S
O1011 C1019 1.258 . S
O1012 Co987 1.941 . S
O1012 C1019 1.266 . S
H1013 C1015 0.959 . S
H1014 C1015 0.961 . S
C1015 C1005 1.510 . S
C1015 H1013 0.959 . S
C1015 H1014 0.961 . S
C1015 H1016 0.960 . S
H1016 C1015 0.960 . S
H1017 N997 0.862 . S
O1018 Co986 1.920 . S
O1018 C991 1.289 . S
C1019 O1011 1.258 . S
C1019 O1012 1.266 . S
Co1020 O1023 1.970 . S
Co1020 N1037 1.989 . S
Co1020 O1045 1.967 . S
Co1020 O1052 1.920 . S
Co1021 O1024 1.966 . S
Co1021 N1030 2.022 . S
Co1021 N1038 1.993 . S
Co1021 O1046 1.941 . S
C1022 O1023 1.258 . S
C1022 O1024 1.263 . S
O1023 Co1020 1.970 . S
O1023 C1022 1.258 . S
O1024 Co1021 1.966 . S
O1024 C1022 1.263 . S
C1025 O1026 1.235 . S
C1025 O1052 1.289 . S
O1026 C1025 1.235 . S
C1027 C1029 1.400 . S
C1027 N1030 1.351 . S
C1027 C1032 1.501 . S
C1028 C1029 1.387 . S
C1028 N1031 1.341 . S
C1029 C1027 1.400 . S
C1029 C1028 1.387 . S
N1030 Co1021 2.022 . S
N1030 C1027 1.351 . S
N1030 N1031 1.365 . S
N1031 C1028 1.341 . S
N1031 N1030 1.365 . S
N1031 H1051 0.862 . S
C1032 C1027 1.501 . S
C1032 H1033 0.961 . S
C1032 H1034 0.961 . S
C1032 H1035 0.960 . S
H1033 C1032 0.961 . S
H1034 C1032 0.961 . S
H1035 C1032 0.960 . S
C1036 N1037 1.342 . S
C1036 C1040 1.401 . S
C1036 C1041 1.499 . S
N1037 Co1020 1.989 . S
N1037 C1036 1.342 . S
N1037 N1038 1.388 . S
N1038 Co1021 1.993 . S
N1038 N1037 1.388 . S
N1038 C1039 1.346 . S
C1039 N1038 1.346 . S
C1039 C1040 1.396 . S
C1039 C1049 1.510 . S
C1040 C1036 1.401 . S
C1040 C1039 1.396 . S
C1041 C1036 1.499 . S
C1041 H1042 0.959 . S
C1041 H1043 0.960 . S
C1041 H1044 0.961 . S
H1042 C1041 0.959 . S
H1043 C1041 0.960 . S
H1044 C1041 0.961 . S
O1045 Co1020 1.967 . S
O1045 C1053 1.258 . S
O1046 Co1021 1.941 . S
O1046 C1053 1.266 . S
H1047 C1049 0.959 . S
H1048 C1049 0.961 . S
C1049 C1039 1.510 . S
C1049 H1047 0.959 . S
C1049 H1048 0.961 . S
C1049 H1050 0.960 . S
H1050 C1049 0.960 . S
H1051 N1031 0.862 . S
O1052 Co1020 1.920 . S
O1052 C1025 1.289 . S
C1053 O1045 1.258 . S
C1053 O1046 1.266 . S
Co1054 O1057 1.970 . S
Co1054 N1071 1.989 . S
Co1054 O1079 1.967 . S
Co1054 O1086 1.920 . S
Co1055 O1058 1.966 . S
Co1055 N1064 2.022 . S
Co1055 N1072 1.993 . S
Co1055 O1080 1.941 . S
C1056 O1057 1.258 . S
C1056 O1058 1.263 . S
O1057 Co1054 1.970 . S
O1057 C1056 1.258 . S
O1058 Co1055 1.966 . S
O1058 C1056 1.263 . S
C1059 O1060 1.235 . S
C1059 O1086 1.289 . S
O1060 C1059 1.235 . S
C1061 C1063 1.400 . S
C1061 N1064 1.351 . S
C1061 C1066 1.501 . S
C1062 C1063 1.387 . S
C1062 N1065 1.341 . S
C1063 C1061 1.400 . S
C1063 C1062 1.387 . S
N1064 Co1055 2.022 . S
N1064 C1061 1.351 . S
N1064 N1065 1.365 . S
N1065 C1062 1.341 . S
N1065 N1064 1.365 . S
N1065 H1085 0.862 . S
C1066 C1061 1.501 . S
C1066 H1067 0.961 . S
C1066 H1068 0.961 . S
C1066 H1069 0.960 . S
H1067 C1066 0.961 . S
H1068 C1066 0.961 . S
H1069 C1066 0.960 . S
C1070 N1071 1.342 . S
C1070 C1074 1.401 . S
C1070 C1075 1.499 . S
N1071 Co1054 1.989 . S
N1071 C1070 1.342 . S
N1071 N1072 1.388 . S
N1072 Co1055 1.993 . S
N1072 N1071 1.388 . S
N1072 C1073 1.346 . S
C1073 N1072 1.346 . S
C1073 C1074 1.396 . S
C1073 C1083 1.510 . S
C1074 C1070 1.401 . S
C1074 C1073 1.396 . S
C1075 C1070 1.499 . S
C1075 H1076 0.959 . S
C1075 H1077 0.960 . S
C1075 H1078 0.961 . S
H1076 C1075 0.959 . S
H1077 C1075 0.960 . S
H1078 C1075 0.961 . S
O1079 Co1054 1.967 . S
O1079 C1087 1.258 . S
O1080 Co1055 1.941 . S
O1080 C1087 1.266 . S
H1081 C1083 0.959 . S
H1082 C1083 0.961 . S
C1083 C1073 1.510 . S
C1083 H1081 0.959 . S
C1083 H1082 0.961 . S
C1083 H1084 0.960 . S
H1084 C1083 0.960 . S
H1085 N1065 0.862 . S
O1086 Co1054 1.920 . S
O1086 C1059 1.289 . S
C1087 O1079 1.258 . S
C1087 O1080 1.266 . S
C1088 C1089 1.369 . S
C1088 C1090 1.419 . S
C1088 H1092 0.930 . S
C1089 C1088 1.369 . S
C1089 C1098 1.429 . S
C1090 C1088 1.419 . S
C1090 C1091 1.363 . S
C1090 H1093 0.929 . S
C1091 C1090 1.363 . S
C1091 C1097 1.428 . S
H1092 C1088 0.930 . S
H1093 C1090 0.929 . S
S1094 N1095 1.613 . S
S1094 N1096 1.610 . S
N1095 S1094 1.613 . S
N1095 C1098 1.350 . S
N1096 S1094 1.610 . S
N1096 C1097 1.351 . S
C1097 C1091 1.428 . S
C1097 N1096 1.351 . S
C1097 C1098 1.434 . S
C1098 C1089 1.429 . S
C1098 N1095 1.350 . S
C1098 C1097 1.434 . S
C1099 C1100 1.363 1_545 S
C1099 C1101 1.424 1_655 S
C1099 H1103 0.931 . S
C1100 C1099 1.363 1_565 S
C1100 C1109 1.452 . S
C1101 C1099 1.424 1_455 S
C1101 C1102 1.363 . S
C1101 H1104 0.929 . S
C1102 C1101 1.363 . S
C1102 C1108 1.420 1_545 S
H1103 C1099 0.931 . S
H1104 C1101 0.929 . S
S1105 N1106 1.613 . S
S1105 N1107 1.610 . S
N1106 S1105 1.613 . S
N1106 C1109 1.348 1_455 S
N1107 S1105 1.610 . S
N1107 C1108 1.352 . S
C1108 C1102 1.420 1_565 S
C1108 N1107 1.352 . S
C1108 C1109 1.418 1_455 S
C1109 C1100 1.452 . S
C1109 N1106 1.348 1_655 S
C1109 C1108 1.418 1_655 S
C1110 C1111 1.369 . S
C1110 C1112 1.419 . S
C1110 H1114 0.930 . S
C1111 C1110 1.369 . S
C1111 C1120 1.429 . S
C1112 C1110 1.419 . S
C1112 C1113 1.363 . S
C1112 H1115 0.929 . S
C1113 C1112 1.363 . S
C1113 C1119 1.428 . S
H1114 C1110 0.930 . S
H1115 C1112 0.929 . S
S1116 N1117 1.613 . S
S1116 N1118 1.610 . S
N1117 S1116 1.613 . S
N1117 C1120 1.350 . S
N1118 S1116 1.610 . S
N1118 C1119 1.351 . S
C1119 C1113 1.428 . S
C1119 N1118 1.351 . S
C1119 C1120 1.434 . S
C1120 C1111 1.429 . S
C1120 N1117 1.350 . S
C1120 C1119 1.434 . S
C1121 C1122 1.369 1_544 S
C1121 C1123 1.419 . S
C1121 H1125 0.930 . S
C1122 C1121 1.369 1_566 S
C1122 C1131 1.429 . S
C1123 C1121 1.419 . S
C1123 C1124 1.363 . S
C1123 H1126 0.929 . S
C1124 C1123 1.363 . S
C1124 C1130 1.428 1_544 S
H1125 C1121 0.930 . S
H1126 C1123 0.929 . S
S1127 N1128 1.613 . S
S1127 N1129 1.610 . S
N1128 S1127 1.613 . S
N1128 C1131 1.350 . S
N1129 S1127 1.610 . S
N1129 C1130 1.351 . S
C1130 C1124 1.428 1_566 S
C1130 N1129 1.351 . S
C1130 C1131 1.434 . S
C1131 C1122 1.429 . S
C1131 N1128 1.350 . S
C1131 C1130 1.434 . S
C1132 C1133 1.369 . S
C1132 C1134 1.419 . S
C1132 H1136 0.930 . S
C1133 C1132 1.369 . S
C1133 C1142 1.429 . S
C1134 C1132 1.419 . S
C1134 C1135 1.363 . S
C1134 H1137 0.929 . S
C1135 C1134 1.363 . S
C1135 C1141 1.428 . S
H1136 C1132 0.930 . S
H1137 C1134 0.929 . S
S1138 N1139 1.613 . S
S1138 N1140 1.610 . S
N1139 S1138 1.613 . S
N1139 C1142 1.350 . S
N1140 S1138 1.610 . S
N1140 C1141 1.351 . S
C1141 C1135 1.428 . S
C1141 N1140 1.351 . S
C1141 C1142 1.434 . S
C1142 C1133 1.429 . S
C1142 N1139 1.350 . S
C1142 C1141 1.434 . S
C1143 C1144 1.369 1_545 S
C1143 C1145 1.419 . S
C1143 H1147 0.930 . S
C1144 C1143 1.369 1_565 S
C1144 C1153 1.429 . S
C1145 C1143 1.419 . S
C1145 C1146 1.363 . S
C1145 H1148 0.929 . S
C1146 C1145 1.363 . S
C1146 C1152 1.428 1_545 S
H1147 C1143 0.930 . S
H1148 C1145 0.929 . S
S1149 N1150 1.613 . S
S1149 N1151 1.610 . S
N1150 S1149 1.613 . S
N1150 C1153 1.350 . S
N1151 S1149 1.610 . S
N1151 C1152 1.351 . S
C1152 C1146 1.428 1_565 S
C1152 N1151 1.351 . S
C1152 C1153 1.434 . S
C1153 C1144 1.429 . S
C1153 N1150 1.350 . S
C1153 C1152 1.434 . S
C1154 C1155 1.369 . S
C1154 C1156 1.419 . S
C1154 H1158 0.930 . S
C1155 C1154 1.369 . S
C1155 C1164 1.429 . S
C1156 C1154 1.419 . S
C1156 C1157 1.363 . S
C1156 H1159 0.929 . S
C1157 C1156 1.363 . S
C1157 C1163 1.428 . S
H1158 C1154 0.930 . S
H1159 C1156 0.929 . S
S1160 N1161 1.613 . S
S1160 N1162 1.610 . S
N1161 S1160 1.613 . S
N1161 C1164 1.350 . S
N1162 S1160 1.610 . S
N1162 C1163 1.351 . S
C1163 C1157 1.428 . S
C1163 N1162 1.351 . S
C1163 C1164 1.434 . S
C1164 C1155 1.429 . S
C1164 N1161 1.350 . S
C1164 C1163 1.434 . S
C1165 C1166 1.367 1_545 S
C1165 C1167 1.397 1_454 S
C1165 H1169 0.930 1_554 S
C1166 C1165 1.367 1_565 S
C1166 C1175 1.423 1_455 S
C1167 C1165 1.397 1_656 S
C1167 C1168 1.388 . S
C1167 H1170 0.928 1_655 S
C1168 C1167 1.388 . S
C1168 C1174 1.428 1_545 S
H1169 C1165 0.930 1_556 S
H1170 C1167 0.928 1_455 S
S1171 N1172 1.613 . S
S1171 N1173 1.612 . S
N1172 S1171 1.613 . S
N1172 C1175 1.351 . S
N1173 S1171 1.612 . S
N1173 C1174 1.351 1_554 S
C1174 C1168 1.428 1_565 S
C1174 N1173 1.351 1_556 S
C1174 C1175 1.440 1_556 S
C1175 C1166 1.423 1_655 S
C1175 N1172 1.351 . S
C1175 C1174 1.440 1_554 S
C1176 C1177 1.369 . S
C1176 C1178 1.419 . S
C1176 H1180 0.930 . S
C1177 C1176 1.369 . S
C1177 C1186 1.429 . S
C1178 C1176 1.419 . S
C1178 C1179 1.363 . S
C1178 H1181 0.929 . S
C1179 C1178 1.363 . S
C1179 C1185 1.428 . S
H1180 C1176 0.930 . S
H1181 C1178 0.929 . S
S1182 N1183 1.613 . S
S1182 N1184 1.610 . S
N1183 S1182 1.613 . S
N1183 C1186 1.350 . S
N1184 S1182 1.610 . S
N1184 C1185 1.351 . S
C1185 C1179 1.428 . S
C1185 N1184 1.351 . S
C1185 C1186 1.434 . S
C1186 C1177 1.429 . S
C1186 N1183 1.350 . S
C1186 C1185 1.434 . S
C1187 C1188 1.369 . S
C1187 C1189 1.419 . S
C1187 H1191 0.930 . S
C1188 C1187 1.369 . S
C1188 C1197 1.429 . S
C1189 C1187 1.419 . S
C1189 C1190 1.363 . S
C1189 H1192 0.929 . S
C1190 C1189 1.363 . S
C1190 C1196 1.428 . S
H1191 C1187 0.930 . S
H1192 C1189 0.929 . S
S1193 N1194 1.613 . S
S1193 N1195 1.610 . S
N1194 S1193 1.613 . S
N1194 C1197 1.350 . S
N1195 S1193 1.610 . S
N1195 C1196 1.351 . S
C1196 C1190 1.428 . S
C1196 N1195 1.351 . S
C1196 C1197 1.434 . S
C1197 C1188 1.429 . S
C1197 N1194 1.350 . S
C1197 C1196 1.434 . S
C1198 C1199 1.369 . S
C1198 C1200 1.419 . S
C1198 H1202 0.930 . S
C1199 C1198 1.369 . S
C1199 C1208 1.429 . S
C1200 C1198 1.419 . S
C1200 C1201 1.363 . S
C1200 H1203 0.929 . S
C1201 C1200 1.363 . S
C1201 C1207 1.428 . S
H1202 C1198 0.930 . S
H1203 C1200 0.929 . S
S1204 N1205 1.613 . S
S1204 N1206 1.610 . S
N1205 S1204 1.613 . S
N1205 C1208 1.350 . S
N1206 S1204 1.610 . S
N1206 C1207 1.351 . S
C1207 C1201 1.428 . S
C1207 N1206 1.351 . S
C1207 C1208 1.434 . S
C1208 C1199 1.429 . S
C1208 N1205 1.350 . S
C1208 C1207 1.434 . S
C1209 C1210 1.369 . S
C1209 C1211 1.419 . S
C1209 H1213 0.930 . S
C1210 C1209 1.369 . S
C1210 C1219 1.429 . S
C1211 C1209 1.419 . S
C1211 C1212 1.363 . S
C1211 H1214 0.929 . S
C1212 C1211 1.363 . S
C1212 C1218 1.428 . S
H1213 C1209 0.930 . S
H1214 C1211 0.929 . S
S1215 N1216 1.613 . S
S1215 N1217 1.610 . S
N1216 S1215 1.613 . S
N1216 C1219 1.350 . S
N1217 S1215 1.610 . S
N1217 C1218 1.351 . S
C1218 C1212 1.428 . S
C1218 N1217 1.351 . S
C1218 C1219 1.434 . S
C1219 C1210 1.429 . S
C1219 N1216 1.350 . S
C1219 C1218 1.434 . S
C1220 C1221 1.369 . S
C1220 C1222 1.419 . S
C1220 H1224 0.930 . S
C1221 C1220 1.369 . S
C1221 C1230 1.429 1_556 S
C1222 C1220 1.419 . S
C1222 C1223 1.363 1_556 S
C1222 H1225 0.929 . S
C1223 C1222 1.363 1_554 S
C1223 C1229 1.428 . S
H1224 C1220 0.930 . S
H1225 C1222 0.929 . S
S1226 N1227 1.613 . S
S1226 N1228 1.610 . S
N1227 S1226 1.613 . S
N1227 C1230 1.350 . S
N1228 S1226 1.610 . S
N1228 C1229 1.351 . S
C1229 C1223 1.428 . S
C1229 N1228 1.351 . S
C1229 C1230 1.434 . S
C1230 C1221 1.429 1_554 S
C1230 N1227 1.350 . S
C1230 C1229 1.434 . S
C1231 C1232 1.369 . S
C1231 C1233 1.418 1_455 S
C1231 H1235 0.930 . S
C1232 C1231 1.369 . S
C1232 C1241 1.429 1_455 S
C1233 C1231 1.418 1_655 S
C1233 C1234 1.364 . S
C1233 H1236 0.929 1_655 S
C1234 C1233 1.364 . S
C1234 C1240 1.428 . S
H1235 C1231 0.930 . S
H1236 C1233 0.929 1_455 S
S1237 N1238 1.613 . S
S1237 N1239 1.610 . S
N1238 S1237 1.613 . S
N1238 C1241 1.350 . S
N1239 S1237 1.610 . S
N1239 C1240 1.351 . S
C1240 C1234 1.428 . S
C1240 N1239 1.351 . S
C1240 C1241 1.434 . S
C1241 C1232 1.429 1_655 S
C1241 N1238 1.350 . S
C1241 C1240 1.434 . S
C1242 C1243 1.369 . S
C1242 C1244 1.419 1_455 S
C1242 H1246 0.930 . S
C1243 C1242 1.369 . S
C1243 C1252 1.429 1_556 S
C1244 C1242 1.419 1_655 S
C1244 C1245 1.363 1_556 S
C1244 H1247 0.929 . S
C1245 C1244 1.363 1_554 S
C1245 C1251 1.428 . S
H1246 C1242 0.930 . S
H1247 C1244 0.929 . S
S1248 N1249 1.613 1_655 S
S1248 N1250 1.610 . S
N1249 S1248 1.613 1_455 S
N1249 C1252 1.350 . S
N1250 S1248 1.610 . S
N1250 C1251 1.351 . S
C1251 C1245 1.428 . S
C1251 N1250 1.351 . S
C1251 C1252 1.434 1_655 S
C1252 C1243 1.429 1_554 S
C1252 N1249 1.350 . S
C1252 C1251 1.434 1_455 S
C1253 C1254 1.369 . S
C1253 C1255 1.419 . S
C1253 H1257 0.930 . S
C1254 C1253 1.369 . S
C1254 C1263 1.429 . S
C1255 C1253 1.419 . S
C1255 C1256 1.363 . S
C1255 H1258 0.929 . S
C1256 C1255 1.363 . S
C1256 C1262 1.428 . S
H1257 C1253 0.930 . S
H1258 C1255 0.929 . S
S1259 N1260 1.613 . S
S1259 N1261 1.610 . S
N1260 S1259 1.613 . S
N1260 C1263 1.350 . S
N1261 S1259 1.610 . S
N1261 C1262 1.351 . S
C1262 C1256 1.428 . S
C1262 N1261 1.351 . S
C1262 C1263 1.434 . S
C1263 C1254 1.429 . S
C1263 N1260 1.350 . S
C1263 C1262 1.434 . S
C1264 C1265 1.369 . S
C1264 C1266 1.419 . S
C1264 H1268 0.930 . S
C1265 C1264 1.369 . S
C1265 C1274 1.429 . S
C1266 C1264 1.419 . S
C1266 C1267 1.363 . S
C1266 H1269 0.929 . S
C1267 C1266 1.363 . S
C1267 C1273 1.428 . S
H1268 C1264 0.930 . S
H1269 C1266 0.929 . S
S1270 N1271 1.613 . S
S1270 N1272 1.610 . S
N1271 S1270 1.613 . S
N1271 C1274 1.350 . S
N1272 S1270 1.610 . S
N1272 C1273 1.351 . S
C1273 C1267 1.428 . S
C1273 N1272 1.351 . S
C1273 C1274 1.434 . S
C1274 C1265 1.429 . S
C1274 N1271 1.350 . S
C1274 C1273 1.434 . S
C1275 C1276 1.369 . S
C1275 C1277 1.419 1_655 S
C1275 H1279 0.930 . S
C1276 C1275 1.369 . S
C1276 C1285 1.429 1_655 S
C1277 C1275 1.419 1_455 S
C1277 C1278 1.363 . S
C1277 H1280 0.929 . S
C1278 C1277 1.363 . S
C1278 C1284 1.428 . S
H1279 C1275 0.930 . S
H1280 C1277 0.929 . S
S1281 N1282 1.613 . S
S1281 N1283 1.610 . S
N1282 S1281 1.613 . S
N1282 C1285 1.350 . S
N1283 S1281 1.610 . S
N1283 C1284 1.351 . S
C1284 C1278 1.428 . S
C1284 N1283 1.351 . S
C1284 C1285 1.434 . S
C1285 C1276 1.429 1_455 S
C1285 N1282 1.350 . S
C1285 C1284 1.434 . S
C1286 C1287 1.369 . S
C1286 C1288 1.419 . S
C1286 H1290 0.930 . S
C1287 C1286 1.369 . S
C1287 C1296 1.429 . S
C1288 C1286 1.419 . S
C1288 C1289 1.363 . S
C1288 H1291 0.929 . S
C1289 C1288 1.363 . S
C1289 C1295 1.428 . S
H1290 C1286 0.930 . S
H1291 C1288 0.929 . S
S1292 N1293 1.613 . S
S1292 N1294 1.610 . S
N1293 S1292 1.613 . S
N1293 C1296 1.350 . S
N1294 S1292 1.610 . S
N1294 C1295 1.351 . S
C1295 C1289 1.428 . S
C1295 N1294 1.351 . S
C1295 C1296 1.434 . S
C1296 C1287 1.429 . S
C1296 N1293 1.350 . S
C1296 C1295 1.434 . S
C1297 C1298 1.369 . S
C1297 C1299 1.419 . S
C1297 H1301 0.930 . S
C1298 C1297 1.369 . S
C1298 C1307 1.429 . S
C1299 C1297 1.419 . S
C1299 C1300 1.363 . S
C1299 H1302 0.929 . S
C1300 C1299 1.363 . S
C1300 C1306 1.428 . S
H1301 C1297 0.930 . S
H1302 C1299 0.929 . S
S1303 N1304 1.613 . S
S1303 N1305 1.610 . S
N1304 S1303 1.613 . S
N1304 C1307 1.350 . S
N1305 S1303 1.610 . S
N1305 C1306 1.351 . S
C1306 C1300 1.428 . S
C1306 N1305 1.351 . S
C1306 C1307 1.434 . S
C1307 C1298 1.429 . S
C1307 N1304 1.350 . S
C1307 C1306 1.434 . S
C1308 C1309 1.369 . S
C1308 C1310 1.419 . S
C1308 H1312 0.930 . S
C1309 C1308 1.369 . S
C1309 C1318 1.429 . S
C1310 C1308 1.419 . S
C1310 C1311 1.363 . S
C1310 H1313 0.929 . S
C1311 C1310 1.363 . S
C1311 C1317 1.428 . S
H1312 C1308 0.930 . S
H1313 C1310 0.929 . S
S1314 N1315 1.613 . S
S1314 N1316 1.610 . S
N1315 S1314 1.613 . S
N1315 C1318 1.350 . S
N1316 S1314 1.610 . S
N1316 C1317 1.351 . S
C1317 C1311 1.428 . S
C1317 N1316 1.351 . S
C1317 C1318 1.434 . S
C1318 C1309 1.429 . S
C1318 N1315 1.350 . S
C1318 C1317 1.434 . S
C1319 C1320 1.369 . S
C1319 C1321 1.419 . S
C1319 H1323 0.930 . S
C1320 C1319 1.369 . S
C1320 C1329 1.429 . S
C1321 C1319 1.419 . S
C1321 C1322 1.363 . S
C1321 H1324 0.929 . S
C1322 C1321 1.363 . S
C1322 C1328 1.428 . S
H1323 C1319 0.930 . S
H1324 C1321 0.929 . S
S1325 N1326 1.613 . S
S1325 N1327 1.610 . S
N1326 S1325 1.613 . S
N1326 C1329 1.350 . S
N1327 S1325 1.610 . S
N1327 C1328 1.351 . S
C1328 C1322 1.428 . S
C1328 N1327 1.351 . S
C1328 C1329 1.434 . S
C1329 C1320 1.429 . S
C1329 N1326 1.350 . S
C1329 C1328 1.434 . S
C1330 C1331 1.369 . S
C1330 C1332 1.419 . S
C1330 H1334 0.930 . S
C1331 C1330 1.369 . S
C1331 C1340 1.429 . S
C1332 C1330 1.419 . S
C1332 C1333 1.363 . S
C1332 H1335 0.929 . S
C1333 C1332 1.363 . S
C1333 C1339 1.428 . S
H1334 C1330 0.930 . S
H1335 C1332 0.929 . S
S1336 N1337 1.613 . S
S1336 N1338 1.610 . S
N1337 S1336 1.613 . S
N1337 C1340 1.350 . S
N1338 S1336 1.610 . S
N1338 C1339 1.351 . S
C1339 C1333 1.428 . S
C1339 N1338 1.351 . S
C1339 C1340 1.434 . S
C1340 C1331 1.429 . S
C1340 N1337 1.350 . S
C1340 C1339 1.434 . S
C1341 C1342 1.365 1_455 S
C1341 C1343 1.428 . S
C1341 H1345 0.924 1_455 S
C1342 C1341 1.365 1_655 S
C1342 C1351 1.429 1_655 S
C1343 C1341 1.428 . S
C1343 C1344 1.363 . S
C1343 H1346 0.929 . S
C1344 C1343 1.363 . S
C1344 C1350 1.428 . S
H1345 C1341 0.924 1_655 S
H1346 C1343 0.929 . S
S1347 N1348 1.613 . S
S1347 N1349 1.610 . S
N1348 S1347 1.613 . S
N1348 C1351 1.350 . S
N1349 S1347 1.610 . S
N1349 C1350 1.351 . S
C1350 C1344 1.428 . S
C1350 N1349 1.351 . S
C1350 C1351 1.434 . S
C1351 C1342 1.429 1_455 S
C1351 N1348 1.350 . S
C1351 C1350 1.434 . S
C1352 C1353 1.369 . S
C1352 C1354 1.419 . S
C1352 H1356 0.930 . S
C1353 C1352 1.369 . S
C1353 C1362 1.429 . S
C1354 C1352 1.419 . S
C1354 C1355 1.363 . S
C1354 H1357 0.929 . S
C1355 C1354 1.363 . S
C1355 C1361 1.428 . S
H1356 C1352 0.930 . S
H1357 C1354 0.929 . S
S1358 N1359 1.613 . S
S1358 N1360 1.610 . S
N1359 S1358 1.613 . S
N1359 C1362 1.350 . S
N1360 S1358 1.610 . S
N1360 C1361 1.351 . S
C1361 C1355 1.428 . S
C1361 N1360 1.351 . S
C1361 C1362 1.434 . S
C1362 C1353 1.429 . S
C1362 N1359 1.350 . S
C1362 C1361 1.434 . S
C1363 C1364 1.369 . S
C1363 C1365 1.419 1_455 S
C1363 H1367 0.930 . S
C1364 C1363 1.369 . S
C1364 C1373 1.429 1_455 S
C1365 C1363 1.419 1_655 S
C1365 C1366 1.363 . S
C1365 H1368 0.929 . S
C1366 C1365 1.363 . S
C1366 C1372 1.428 . S
H1367 C1363 0.930 . S
H1368 C1365 0.929 . S
S1369 N1370 1.613 . S
S1369 N1371 1.610 . S
N1370 S1369 1.613 . S
N1370 C1373 1.350 . S
N1371 S1369 1.610 . S
N1371 C1372 1.351 . S
C1372 C1366 1.428 . S
C1372 N1371 1.351 . S
C1372 C1373 1.434 . S
C1373 C1364 1.429 1_655 S
C1373 N1370 1.350 . S
C1373 C1372 1.434 . S
C1374 C1375 1.369 . S
C1374 C1376 1.419 . S
C1374 H1378 0.930 . S
C1375 C1374 1.369 . S
C1375 C1384 1.429 . S
C1376 C1374 1.419 . S
C1376 C1377 1.363 . S
C1376 H1379 0.929 . S
C1377 C1376 1.363 . S
C1377 C1383 1.428 . S
H1378 C1374 0.930 . S
H1379 C1376 0.929 . S
S1380 N1381 1.613 . S
S1380 N1382 1.610 . S
N1381 S1380 1.613 . S
N1381 C1384 1.350 . S
N1382 S1380 1.610 . S
N1382 C1383 1.351 . S
C1383 C1377 1.428 . S
C1383 N1382 1.351 . S
C1383 C1384 1.434 . S
C1384 C1375 1.429 . S
C1384 N1381 1.350 . S
C1384 C1383 1.434 . S
C1385 C1386 1.369 . S
C1385 C1387 1.419 . S
C1385 H1389 0.930 . S
C1386 C1385 1.369 . S
C1386 C1395 1.429 . S
C1387 C1385 1.419 . S
C1387 C1388 1.363 . S
C1387 H1390 0.929 . S
C1388 C1387 1.363 . S
C1388 C1394 1.428 . S
H1389 C1385 0.930 . S
H1390 C1387 0.929 . S
S1391 N1392 1.613 . S
S1391 N1393 1.610 . S
N1392 S1391 1.613 . S
N1392 C1395 1.350 . S
N1393 S1391 1.610 . S
N1393 C1394 1.351 . S
C1394 C1388 1.428 . S
C1394 N1393 1.351 . S
C1394 C1395 1.434 . S
C1395 C1386 1.429 . S
C1395 N1392 1.350 . S
C1395 C1394 1.434 . S
C1396 C1397 1.369 . S
C1396 C1398 1.419 . S
C1396 H1400 0.930 . S
C1397 C1396 1.369 . S
C1397 C1406 1.429 . S
C1398 C1396 1.419 . S
C1398 C1399 1.363 . S
C1398 H1401 0.929 . S
C1399 C1398 1.363 . S
C1399 C1405 1.428 . S
H1400 C1396 0.930 . S
H1401 C1398 0.929 . S
S1402 N1403 1.613 . S
S1402 N1404 1.610 . S
N1403 S1402 1.613 . S
N1403 C1406 1.350 . S
N1404 S1402 1.610 . S
N1404 C1405 1.351 . S
C1405 C1399 1.428 . S
C1405 N1404 1.351 . S
C1405 C1406 1.434 . S
C1406 C1397 1.429 . S
C1406 N1403 1.350 . S
C1406 C1405 1.434 . S
C1407 C1408 1.369 . S
C1407 C1409 1.419 . S
C1407 H1411 0.930 . S
C1408 C1407 1.369 . S
C1408 C1417 1.429 . S
C1409 C1407 1.419 . S
C1409 C1410 1.363 . S
C1409 H1412 0.929 . S
C1410 C1409 1.363 . S
C1410 C1416 1.428 . S
H1411 C1407 0.930 . S
H1412 C1409 0.929 . S
S1413 N1414 1.613 . S
S1413 N1415 1.610 . S
N1414 S1413 1.613 . S
N1414 C1417 1.350 . S
N1415 S1413 1.610 . S
N1415 C1416 1.351 . S
C1416 C1410 1.428 . S
C1416 N1415 1.351 . S
C1416 C1417 1.434 . S
C1417 C1408 1.429 . S
C1417 N1414 1.350 . S
C1417 C1416 1.434 . S
C1418 C1419 1.369 . S
C1418 C1420 1.419 . S
C1418 H1422 0.930 . S
C1419 C1418 1.369 . S
C1419 C1428 1.429 . S
C1420 C1418 1.419 . S
C1420 C1421 1.363 . S
C1420 H1423 0.929 . S
C1421 C1420 1.363 . S
C1421 C1427 1.428 . S
H1422 C1418 0.930 . S
H1423 C1420 0.929 . S
S1424 N1425 1.613 . S
S1424 N1426 1.610 . S
N1425 S1424 1.613 . S
N1425 C1428 1.350 . S
N1426 S1424 1.610 . S
N1426 C1427 1.351 . S
C1427 C1421 1.428 . S
C1427 N1426 1.351 . S
C1427 C1428 1.434 . S
C1428 C1419 1.429 . S
C1428 N1425 1.350 . S
C1428 C1427 1.434 . S
C1429 C1430 1.369 . S
C1429 C1431 1.419 . S
C1429 H1433 0.930 . S
C1430 C1429 1.369 . S
C1430 C1439 1.429 . S
C1431 C1429 1.419 . S
C1431 C1432 1.363 1_655 S
C1431 H1434 0.929 . S
C1432 C1431 1.363 1_455 S
C1432 C1438 1.428 . S
H1433 C1429 0.930 . S
H1434 C1431 0.929 . S
S1435 N1436 1.613 . S
S1435 N1437 1.610 . S
N1436 S1435 1.613 . S
N1436 C1439 1.350 1_455 S
N1437 S1435 1.610 . S
N1437 C1438 1.351 . S
C1438 C1432 1.428 . S
C1438 N1437 1.351 . S
C1438 C1439 1.434 1_455 S
C1439 C1430 1.429 . S
C1439 N1436 1.350 1_655 S
C1439 C1438 1.434 1_655 S
C1440 C1441 1.369 . S
C1440 C1442 1.419 . S
C1440 H1444 0.930 . S
C1441 C1440 1.369 . S
C1441 C1450 1.429 . S
C1442 C1440 1.419 . S
C1442 C1443 1.363 . S
C1442 H1445 0.929 . S
C1443 C1442 1.363 . S
C1443 C1449 1.428 . S
H1444 C1440 0.930 . S
H1445 C1442 0.929 . S
S1446 N1447 1.613 . S
S1446 N1448 1.610 . S
N1447 S1446 1.613 . S
N1447 C1450 1.350 . S
N1448 S1446 1.610 . S
N1448 C1449 1.351 . S
C1449 C1443 1.428 . S
C1449 N1448 1.351 . S
C1449 C1450 1.434 . S
C1450 C1441 1.429 . S
C1450 N1447 1.350 . S
C1450 C1449 1.434 . S
C1451 C1452 1.369 . S
C1451 C1453 1.419 . S
C1451 H1455 0.930 . S
C1452 C1451 1.369 . S
C1452 C1461 1.429 . S
C1453 C1451 1.419 . S
C1453 C1454 1.363 . S
C1453 H1456 0.929 . S
C1454 C1453 1.363 . S
C1454 C1460 1.428 . S
H1455 C1451 0.930 . S
H1456 C1453 0.929 . S
S1457 N1458 1.613 . S
S1457 N1459 1.610 . S
N1458 S1457 1.613 . S
N1458 C1461 1.350 . S
N1459 S1457 1.610 . S
N1459 C1460 1.351 . S
C1460 C1454 1.428 . S
C1460 N1459 1.351 . S
C1460 C1461 1.434 . S
C1461 C1452 1.429 . S
C1461 N1458 1.350 . S
C1461 C1460 1.434 . S
C1462 C1463 1.369 . S
C1462 C1464 1.419 . S
C1462 H1466 0.930 . S
C1463 C1462 1.369 . S
C1463 C1472 1.429 . S
C1464 C1462 1.419 . S
C1464 C1465 1.363 . S
C1464 H1467 0.929 . S
C1465 C1464 1.363 . S
C1465 C1471 1.428 . S
H1466 C1462 0.930 . S
H1467 C1464 0.929 . S
S1468 N1469 1.613 . S
S1468 N1470 1.610 . S
N1469 S1468 1.613 . S
N1469 C1472 1.350 . S
N1470 S1468 1.610 . S
N1470 C1471 1.351 . S
C1471 C1465 1.428 . S
C1471 N1470 1.351 . S
C1471 C1472 1.434 . S
C1472 C1463 1.429 . S
C1472 N1469 1.350 . S
C1472 C1471 1.434 . S
C1473 C1474 1.369 . S
C1473 C1475 1.419 1_655 S
C1473 H1477 0.930 . S
C1474 C1473 1.369 . S
C1474 C1483 1.429 . S
C1475 C1473 1.419 1_455 S
C1475 C1476 1.363 . S
C1475 H1478 0.929 . S
C1476 C1475 1.363 . S
C1476 C1482 1.428 1_455 S
H1477 C1473 0.930 . S
H1478 C1475 0.929 . S
S1479 N1480 1.613 . S
S1479 N1481 1.610 . S
N1480 S1479 1.613 . S
N1480 C1483 1.350 . S
N1481 S1479 1.610 . S
N1481 C1482 1.351 . S
C1482 C1476 1.428 1_655 S
C1482 N1481 1.351 . S
C1482 C1483 1.434 . S
C1483 C1474 1.429 . S
C1483 N1480 1.350 . S
C1483 C1482 1.434 . S
C1484 C1485 1.369 . S
C1484 C1486 1.419 . S
C1484 H1488 0.930 . S
C1485 C1484 1.369 . S
C1485 C1494 1.429 . S
C1486 C1484 1.419 . S
C1486 C1487 1.363 . S
C1486 H1489 0.929 . S
C1487 C1486 1.363 . S
C1487 C1493 1.428 . S
H1488 C1484 0.930 . S
H1489 C1486 0.929 . S
S1490 N1491 1.613 . S
S1490 N1492 1.610 . S
N1491 S1490 1.613 . S
N1491 C1494 1.350 . S
N1492 S1490 1.610 . S
N1492 C1493 1.351 . S
C1493 C1487 1.428 . S
C1493 N1492 1.351 . S
C1493 C1494 1.434 . S
C1494 C1485 1.429 . S
C1494 N1491 1.350 . S
C1494 C1493 1.434 . S
C1495 C1496 1.369 . S
C1495 C1497 1.419 1_655 S
C1495 H1499 0.930 . S
C1496 C1495 1.369 . S
C1496 C1505 1.429 . S
C1497 C1495 1.419 1_455 S
C1497 C1498 1.363 . S
C1497 H1500 0.929 . S
C1498 C1497 1.363 . S
C1498 C1504 1.428 1_455 S
H1499 C1495 0.930 . S
H1500 C1497 0.929 . S
S1501 N1502 1.613 . S
S1501 N1503 1.610 . S
N1502 S1501 1.613 . S
N1502 C1505 1.350 . S
N1503 S1501 1.610 . S
N1503 C1504 1.351 . S
C1504 C1498 1.428 1_655 S
C1504 N1503 1.351 . S
C1504 C1505 1.434 . S
C1505 C1496 1.429 . S
C1505 N1502 1.350 . S
C1505 C1504 1.434 . S
C1506 C1507 1.369 . S
C1506 C1508 1.419 . S
C1506 H1510 0.930 . S
C1507 C1506 1.369 . S
C1507 C1516 1.429 . S
C1508 C1506 1.419 . S
C1508 C1509 1.363 . S
C1508 H1511 0.929 . S
C1509 C1508 1.363 . S
C1509 C1515 1.428 . S
H1510 C1506 0.930 . S
H1511 C1508 0.929 . S
S1512 N1513 1.613 . S
S1512 N1514 1.610 . S
N1513 S1512 1.613 . S
N1513 C1516 1.350 . S
N1514 S1512 1.610 . S
N1514 C1515 1.351 . S
C1515 C1509 1.428 . S
C1515 N1514 1.351 . S
C1515 C1516 1.434 . S
C1516 C1507 1.429 . S
C1516 N1513 1.350 . S
C1516 C1515 1.434 . S
C1517 C1518 1.369 . S
C1517 C1519 1.419 . S
C1517 H1521 0.930 . S
C1518 C1517 1.369 . S
C1518 C1527 1.429 . S
C1519 C1517 1.419 . S
C1519 C1520 1.363 . S
C1519 H1522 0.929 . S
C1520 C1519 1.363 . S
C1520 C1526 1.428 . S
H1521 C1517 0.930 . S
H1522 C1519 0.929 . S
S1523 N1524 1.613 . S
S1523 N1525 1.610 . S
N1524 S1523 1.613 . S
N1524 C1527 1.350 . S
N1525 S1523 1.610 . S
N1525 C1526 1.351 . S
C1526 C1520 1.428 . S
C1526 N1525 1.351 . S
C1526 C1527 1.434 . S
C1527 C1518 1.429 . S
C1527 N1524 1.350 . S
C1527 C1526 1.434 . S
C1528 C1529 1.369 . S
C1528 C1530 1.419 . S
C1528 H1532 0.930 . S
C1529 C1528 1.369 . S
C1529 C1538 1.429 . S
C1530 C1528 1.419 . S
C1530 C1531 1.363 . S
C1530 H1533 0.929 . S
C1531 C1530 1.363 . S
C1531 C1537 1.428 . S
H1532 C1528 0.930 . S
H1533 C1530 0.929 . S
S1534 N1535 1.613 . S
S1534 N1536 1.610 . S
N1535 S1534 1.613 . S
N1535 C1538 1.350 . S
N1536 S1534 1.610 . S
N1536 C1537 1.351 . S
C1537 C1531 1.428 . S
C1537 N1536 1.351 . S
C1537 C1538 1.434 . S
C1538 C1529 1.429 . S
C1538 N1535 1.350 . S
C1538 C1537 1.434 . S
C1539 C1540 1.369 . S
C1539 C1541 1.419 . S
C1539 H1543 0.930 . S
C1540 C1539 1.369 . S
C1540 C1549 1.429 . S
C1541 C1539 1.419 . S
C1541 C1542 1.363 . S
C1541 H1544 0.929 . S
C1542 C1541 1.363 . S
C1542 C1548 1.428 . S
H1543 C1539 0.930 . S
H1544 C1541 0.929 . S
S1545 N1546 1.613 . S
S1545 N1547 1.610 . S
N1546 S1545 1.613 . S
N1546 C1549 1.350 . S
N1547 S1545 1.610 . S
N1547 C1548 1.351 . S
C1548 C1542 1.428 . S
C1548 N1547 1.351 . S
C1548 C1549 1.434 . S
C1549 C1540 1.429 . S
C1549 N1546 1.350 . S
C1549 C1548 1.434 . S
C1550 C1551 1.369 . S
C1550 C1552 1.419 . S
C1550 H1554 0.930 . S
C1551 C1550 1.369 . S
C1551 C1560 1.429 . S
C1552 C1550 1.419 . S
C1552 C1553 1.363 . S
C1552 H1555 0.929 . S
C1553 C1552 1.363 . S
C1553 C1559 1.428 . S
H1554 C1550 0.930 . S
H1555 C1552 0.929 . S
S1556 N1557 1.613 . S
S1556 N1558 1.610 . S
N1557 S1556 1.613 . S
N1557 C1560 1.350 . S
N1558 S1556 1.610 . S
N1558 C1559 1.351 . S
C1559 C1553 1.428 . S
C1559 N1558 1.351 . S
C1559 C1560 1.434 . S
C1560 C1551 1.429 . S
C1560 N1557 1.350 . S
C1560 C1559 1.434 . S
C1561 C1562 1.369 . S
C1561 C1563 1.419 1_455 S
C1561 H1565 0.930 . S
C1562 C1561 1.369 . S
C1562 C1571 1.429 . S
C1563 C1561 1.419 1_655 S
C1563 C1564 1.363 . S
C1563 H1566 0.929 . S
C1564 C1563 1.363 . S
C1564 C1570 1.428 1_655 S
H1565 C1561 0.930 . S
H1566 C1563 0.929 . S
S1567 N1568 1.613 . S
S1567 N1569 1.610 . S
N1568 S1567 1.613 . S
N1568 C1571 1.350 . S
N1569 S1567 1.610 . S
N1569 C1570 1.351 . S
C1570 C1564 1.428 1_455 S
C1570 N1569 1.351 . S
C1570 C1571 1.434 . S
C1571 C1562 1.429 . S
C1571 N1568 1.350 . S
C1571 C1570 1.434 . S
C1572 C1573 1.369 . S
C1572 C1574 1.419 . S
C1572 H1576 0.930 . S
C1573 C1572 1.369 . S
C1573 C1582 1.429 . S
C1574 C1572 1.419 . S
C1574 C1575 1.363 . S
C1574 H1577 0.929 . S
C1575 C1574 1.363 . S
C1575 C1581 1.428 . S
H1576 C1572 0.930 . S
H1577 C1574 0.929 . S
S1578 N1579 1.613 . S
S1578 N1580 1.610 . S
N1579 S1578 1.613 . S
N1579 C1582 1.350 . S
N1580 S1578 1.610 . S
N1580 C1581 1.351 . S
C1581 C1575 1.428 . S
C1581 N1580 1.351 . S
C1581 C1582 1.434 . S
C1582 C1573 1.429 . S
C1582 N1579 1.350 . S
C1582 C1581 1.434 . S
C1583 C1584 1.369 1_455 S
C1583 C1585 1.419 . S
C1583 H1587 0.930 . S
C1584 C1583 1.369 1_655 S
C1584 C1593 1.429 . S
C1585 C1583 1.419 . S
C1585 C1586 1.363 . S
C1585 H1588 0.929 . S
C1586 C1585 1.363 . S
C1586 C1592 1.428 . S
H1587 C1583 0.930 . S
H1588 C1585 0.929 . S
S1589 N1590 1.613 . S
S1589 N1591 1.610 . S
N1590 S1589 1.613 . S
N1590 C1593 1.350 . S
N1591 S1589 1.610 . S
N1591 C1592 1.351 1_655 S
C1592 C1586 1.428 . S
C1592 N1591 1.351 1_455 S
C1592 C1593 1.434 1_455 S
C1593 C1584 1.429 . S
C1593 N1590 1.350 . S
C1593 C1592 1.434 1_655 S
C1594 C1595 1.369 . S
C1594 C1596 1.419 . S
C1594 H1598 0.930 . S
C1595 C1594 1.369 . S
C1595 C1604 1.429 . S
C1596 C1594 1.419 . S
C1596 C1597 1.363 . S
C1596 H1599 0.929 . S
C1597 C1596 1.363 . S
C1597 C1603 1.428 . S
H1598 C1594 0.930 . S
H1599 C1596 0.929 . S
S1600 N1601 1.613 . S
S1600 N1602 1.610 . S
N1601 S1600 1.613 . S
N1601 C1604 1.350 . S
N1602 S1600 1.610 . S
N1602 C1603 1.351 . S
C1603 C1597 1.428 . S
C1603 N1602 1.351 . S
C1603 C1604 1.434 . S
C1604 C1595 1.429 . S
C1604 N1601 1.350 . S
C1604 C1603 1.434 . S
C1605 C1606 1.369 . S
C1605 C1607 1.419 . S
C1605 H1609 0.930 . S
C1606 C1605 1.369 . S
C1606 C1615 1.429 . S
C1607 C1605 1.419 . S
C1607 C1608 1.363 . S
C1607 H1610 0.929 . S
C1608 C1607 1.363 . S
C1608 C1614 1.428 . S
H1609 C1605 0.930 . S
H1610 C1607 0.929 . S
S1611 N1612 1.613 . S
S1611 N1613 1.610 . S
N1612 S1611 1.613 . S
N1612 C1615 1.350 . S
N1613 S1611 1.610 . S
N1613 C1614 1.351 . S
C1614 C1608 1.428 . S
C1614 N1613 1.351 . S
C1614 C1615 1.434 . S
C1615 C1606 1.429 . S
C1615 N1612 1.350 . S
C1615 C1614 1.434 . S
C1616 C1617 1.369 . S
C1616 C1618 1.419 . S
C1616 H1620 0.930 . S
C1617 C1616 1.369 . S
C1617 C1626 1.429 . S
C1618 C1616 1.419 . S
C1618 C1619 1.363 . S
C1618 H1621 0.929 . S
C1619 C1618 1.363 . S
C1619 C1625 1.428 . S
H1620 C1616 0.930 . S
H1621 C1618 0.929 . S
S1622 N1623 1.613 . S
S1622 N1624 1.610 . S
N1623 S1622 1.613 . S
N1623 C1626 1.350 . S
N1624 S1622 1.610 . S
N1624 C1625 1.351 . S
C1625 C1619 1.428 . S
C1625 N1624 1.351 . S
C1625 C1626 1.434 . S
C1626 C1617 1.429 . S
C1626 N1623 1.350 . S
C1626 C1625 1.434 . S
C1627 C1628 1.369 . S
C1627 C1629 1.419 1_655 S
C1627 H1631 0.930 . S
C1628 C1627 1.369 . S
C1628 C1637 1.429 . S
C1629 C1627 1.419 1_455 S
C1629 C1630 1.363 . S
C1629 H1632 0.929 . S
C1630 C1629 1.363 . S
C1630 C1636 1.428 . S
H1631 C1627 0.930 . S
H1632 C1629 0.929 . S
S1633 N1634 1.613 1_455 S
S1633 N1635 1.610 . S
N1634 S1633 1.613 1_655 S
N1634 C1637 1.350 . S
N1635 S1633 1.610 . S
N1635 C1636 1.351 . S
C1636 C1630 1.428 . S
C1636 N1635 1.351 . S
C1636 C1637 1.434 1_455 S
C1637 C1628 1.429 . S
C1637 N1634 1.350 . S
C1637 C1636 1.434 1_655 S
C1638 C1639 1.369 1_455 S
C1638 C1640 1.419 . S
C1638 H1642 0.930 . S
C1639 C1638 1.369 1_655 S
C1639 C1648 1.429 . S
C1640 C1638 1.419 . S
C1640 C1641 1.363 . S
C1640 H1643 0.929 . S
C1641 C1640 1.363 . S
C1641 C1647 1.428 1_455 S
H1642 C1638 0.930 . S
H1643 C1640 0.929 . S
S1644 N1645 1.613 . S
S1644 N1646 1.610 . S
N1645 S1644 1.613 . S
N1645 C1648 1.350 . S
N1646 S1644 1.610 . S
N1646 C1647 1.351 . S
C1647 C1641 1.428 1_655 S
C1647 N1646 1.351 . S
C1647 C1648 1.434 . S
C1648 C1639 1.429 . S
C1648 N1645 1.350 . S
C1648 C1647 1.434 . S
C1649 C1650 1.369 . S
C1649 C1651 1.419 . S
C1649 H1653 0.930 . S
C1650 C1649 1.369 . S
C1650 C1659 1.429 . S
C1651 C1649 1.419 . S
C1651 C1652 1.363 . S
C1651 H1654 0.929 . S
C1652 C1651 1.363 . S
C1652 C1658 1.428 . S
H1653 C1649 0.930 . S
H1654 C1651 0.929 . S
S1655 N1656 1.613 . S
S1655 N1657 1.610 . S
N1656 S1655 1.613 . S
N1656 C1659 1.350 . S
N1657 S1655 1.610 . S
N1657 C1658 1.351 . S
C1658 C1652 1.428 . S
C1658 N1657 1.351 . S
C1658 C1659 1.434 . S
C1659 C1650 1.429 . S
C1659 N1656 1.350 . S
C1659 C1658 1.434 . S
C1660 C1661 1.369 . S
C1660 C1662 1.419 . S
C1660 H1664 0.930 . S
C1661 C1660 1.369 . S
C1661 C1670 1.429 . S
C1662 C1660 1.419 . S
C1662 C1663 1.363 . S
C1662 H1665 0.929 . S
C1663 C1662 1.363 . S
C1663 C1669 1.428 . S
H1664 C1660 0.930 . S
H1665 C1662 0.929 . S
S1666 N1667 1.613 . S
S1666 N1668 1.610 . S
N1667 S1666 1.613 . S
N1667 C1670 1.350 . S
N1668 S1666 1.610 . S
N1668 C1669 1.351 . S
C1669 C1663 1.428 . S
C1669 N1668 1.351 . S
C1669 C1670 1.434 . S
C1670 C1661 1.429 . S
C1670 N1667 1.350 . S
C1670 C1669 1.434 . S
C1671 C1672 1.369 . S
C1671 C1673 1.419 . S
C1671 H1675 0.930 . S
C1672 C1671 1.369 . S
C1672 C1681 1.429 . S
C1673 C1671 1.419 . S
C1673 C1674 1.363 . S
C1673 H1676 0.929 . S
C1674 C1673 1.363 . S
C1674 C1680 1.428 . S
H1675 C1671 0.930 . S
H1676 C1673 0.929 . S
S1677 N1678 1.613 . S
S1677 N1679 1.610 . S
N1678 S1677 1.613 . S
N1678 C1681 1.350 . S
N1679 S1677 1.610 . S
N1679 C1680 1.351 . S
C1680 C1674 1.428 . S
C1680 N1679 1.351 . S
C1680 C1681 1.434 . S
C1681 C1672 1.429 . S
C1681 N1678 1.350 . S
C1681 C1680 1.434 . S
C1682 C1683 1.369 . S
C1682 C1684 1.419 . S
C1682 H1686 0.930 . S
C1683 C1682 1.369 . S
C1683 C1692 1.429 1_455 S
C1684 C1682 1.419 . S
C1684 C1685 1.363 1_455 S
C1684 H1687 0.929 . S
C1685 C1684 1.363 1_655 S
C1685 C1691 1.428 . S
H1686 C1682 0.930 . S
H1687 C1684 0.929 . S
S1688 N1689 1.613 . S
S1688 N1690 1.610 . S
N1689 S1688 1.613 . S
N1689 C1692 1.350 . S
N1690 S1688 1.610 . S
N1690 C1691 1.351 . S
C1691 C1685 1.428 . S
C1691 N1690 1.351 . S
C1691 C1692 1.434 . S
C1692 C1683 1.429 1_655 S
C1692 N1689 1.350 . S
C1692 C1691 1.434 . S
C1693 C1694 1.369 1_455 S
C1693 C1695 1.419 . S
C1693 H1697 0.930 . S
C1694 C1693 1.369 1_655 S
C1694 C1703 1.429 . S
C1695 C1693 1.419 . S
C1695 C1696 1.363 . S
C1695 H1698 0.929 . S
C1696 C1695 1.363 . S
C1696 C1702 1.428 1_455 S
H1697 C1693 0.930 . S
H1698 C1695 0.929 . S
S1699 N1700 1.613 . S
S1699 N1701 1.610 . S
N1700 S1699 1.613 . S
N1700 C1703 1.350 . S
N1701 S1699 1.610 . S
N1701 C1702 1.351 . S
C1702 C1696 1.428 1_655 S
C1702 N1701 1.351 . S
C1702 C1703 1.434 . S
C1703 C1694 1.429 . S
C1703 N1700 1.350 . S
C1703 C1702 1.434 . S
C1704 C1705 1.369 . S
C1704 C1706 1.419 . S
C1704 H1708 0.930 . S
C1705 C1704 1.369 . S
C1705 C1714 1.429 . S
C1706 C1704 1.419 . S
C1706 C1707 1.363 . S
C1706 H1709 0.929 . S
C1707 C1706 1.363 . S
C1707 C1713 1.428 . S
H1708 C1704 0.930 . S
H1709 C1706 0.929 . S
S1710 N1711 1.613 . S
S1710 N1712 1.610 . S
N1711 S1710 1.613 . S
N1711 C1714 1.350 . S
N1712 S1710 1.610 . S
N1712 C1713 1.351 . S
C1713 C1707 1.428 . S
C1713 N1712 1.351 . S
C1713 C1714 1.434 . S
C1714 C1705 1.429 . S
C1714 N1711 1.350 . S
C1714 C1713 1.434 . S
C1715 C1716 1.369 . S
C1715 C1717 1.419 1_655 S
C1715 H1719 0.930 . S
C1716 C1715 1.369 . S
C1716 C1725 1.429 . S
C1717 C1715 1.419 1_455 S
C1717 C1718 1.363 . S
C1717 H1720 0.929 . S
C1718 C1717 1.363 . S
C1718 C1724 1.428 . S
H1719 C1715 0.930 . S
H1720 C1717 0.929 . S
S1721 N1722 1.607 1_455 S
S1721 N1723 1.616 . S
N1722 S1721 1.607 1_655 S
N1722 C1725 1.350 . S
N1723 S1721 1.616 . S
N1723 C1724 1.351 . S
C1724 C1718 1.428 . S
C1724 N1723 1.351 . S
C1724 C1725 1.434 1_455 S
C1725 C1716 1.429 . S
C1725 N1722 1.350 . S
C1725 C1724 1.434 1_655 S
C1726 C1727 1.369 1_455 S
C1726 C1728 1.419 . S
C1726 H1730 0.930 . S
C1727 C1726 1.369 1_655 S
C1727 C1736 1.429 . S
C1728 C1726 1.419 . S
C1728 C1729 1.363 . S
C1728 H1731 0.929 . S
C1729 C1728 1.363 . S
C1729 C1735 1.428 1_455 S
H1730 C1726 0.930 . S
H1731 C1728 0.929 . S
S1732 N1733 1.613 . S
S1732 N1734 1.610 . S
N1733 S1732 1.613 . S
N1733 C1736 1.350 . S
N1734 S1732 1.610 . S
N1734 C1735 1.351 . S
C1735 C1729 1.428 1_655 S
C1735 N1734 1.351 . S
C1735 C1736 1.434 . S
C1736 C1727 1.429 . S
C1736 N1733 1.350 . S
C1736 C1735 1.434 . S
C1737 C1738 1.369 . S
C1737 C1739 1.419 . S
C1737 H1741 0.930 . S
C1738 C1737 1.369 . S
C1738 C1747 1.429 . S
C1739 C1737 1.419 . S
C1739 C1740 1.363 . S
C1739 H1742 0.929 . S
C1740 C1739 1.363 . S
C1740 C1746 1.428 . S
H1741 C1737 0.930 . S
H1742 C1739 0.929 . S
S1743 N1744 1.613 . S
S1743 N1745 1.610 . S
N1744 S1743 1.613 . S
N1744 C1747 1.350 . S
N1745 S1743 1.610 . S
N1745 C1746 1.351 . S
C1746 C1740 1.428 . S
C1746 N1745 1.351 . S
C1746 C1747 1.434 . S
C1747 C1738 1.429 . S
C1747 N1744 1.350 . S
C1747 C1746 1.434 . S
C1748 C1749 1.369 . S
C1748 C1750 1.419 . S
C1748 H1752 0.930 . S
C1749 C1748 1.369 . S
C1749 C1758 1.429 . S
C1750 C1748 1.419 . S
C1750 C1751 1.363 . S
C1750 H1753 0.929 . S
C1751 C1750 1.363 . S
C1751 C1757 1.428 . S
H1752 C1748 0.930 . S
H1753 C1750 0.929 . S
S1754 N1755 1.613 . S
S1754 N1756 1.610 . S
N1755 S1754 1.613 . S
N1755 C1758 1.350 . S
N1756 S1754 1.610 . S
N1756 C1757 1.351 . S
C1757 C1751 1.428 . S
C1757 N1756 1.351 . S
C1757 C1758 1.434 . S
C1758 C1749 1.429 . S
C1758 N1755 1.350 . S
C1758 C1757 1.434 . S
C1759 C1760 1.369 . S
C1759 C1761 1.419 . S
C1759 H1763 0.930 . S
C1760 C1759 1.369 . S
C1760 C1769 1.429 . S
C1761 C1759 1.419 . S
C1761 C1762 1.363 . S
C1761 H1764 0.929 . S
C1762 C1761 1.363 . S
C1762 C1768 1.428 . S
H1763 C1759 0.930 . S
H1764 C1761 0.929 . S
S1765 N1766 1.613 . S
S1765 N1767 1.610 . S
N1766 S1765 1.613 . S
N1766 C1769 1.350 . S
N1767 S1765 1.610 . S
N1767 C1768 1.351 . S
C1768 C1762 1.428 . S
C1768 N1767 1.351 . S
C1768 C1769 1.434 . S
C1769 C1760 1.429 . S
C1769 N1766 1.350 . S
C1769 C1768 1.434 . S
C1770 C1771 1.369 . S
C1770 C1772 1.419 . S
C1770 H1774 0.930 . S
C1771 C1770 1.369 . S
C1771 C1780 1.429 1_655 S
C1772 C1770 1.419 . S
C1772 C1773 1.363 1_655 S
C1772 H1775 0.929 . S
C1773 C1772 1.363 1_455 S
C1773 C1779 1.428 . S
H1774 C1770 0.930 . S
H1775 C1772 0.929 . S
S1776 N1777 1.613 . S
S1776 N1778 1.610 . S
N1777 S1776 1.613 . S
N1777 C1780 1.350 . S
N1778 S1776 1.610 . S
N1778 C1779 1.351 . S
C1779 C1773 1.428 . S
C1779 N1778 1.351 . S
C1779 C1780 1.434 . S
C1780 C1771 1.429 1_455 S
C1780 N1777 1.350 . S
C1780 C1779 1.434 . S
C1781 C1782 1.369 . S
C1781 C1783 1.419 1_655 S
C1781 H1785 0.930 . S
C1782 C1781 1.369 . S
C1782 C1791 1.429 . S
C1783 C1781 1.419 1_455 S
C1783 C1784 1.363 . S
C1783 H1786 0.929 . S
C1784 C1783 1.363 . S
C1784 C1790 1.449 . S
H1785 C1781 0.930 . S
H1786 C1783 0.929 . S
S1787 N1788 1.613 . S
S1787 N1789 1.610 . S
N1788 S1787 1.613 . S
N1788 C1791 1.350 . S
N1789 S1787 1.610 . S
N1789 C1790 1.348 1_655 S
C1790 C1784 1.449 . S
C1790 N1789 1.348 1_455 S
C1790 C1791 1.413 1_455 S
C1791 C1782 1.429 . S
C1791 N1788 1.350 . S
C1791 C1790 1.413 1_655 S
C1792 C1793 1.379 . S
C1792 C1794 1.409 1_565 S
C1792 H1796 0.929 1_565 S
C1793 C1792 1.379 . S
C1793 C1802 1.429 . S
C1794 C1792 1.409 1_545 S
C1794 C1795 1.363 . S
C1794 H1797 0.929 . S
C1795 C1794 1.363 . S
C1795 C1801 1.407 1_545 S
H1796 C1792 0.929 1_545 S
H1797 C1794 0.929 . S
S1798 N1799 1.613 . S
S1798 N1800 1.610 . S
N1799 S1798 1.613 . S
N1799 C1802 1.350 . S
N1800 S1798 1.610 . S
N1800 C1801 1.356 . S
C1801 C1795 1.407 1_565 S
C1801 N1800 1.356 . S
C1801 C1802 1.455 . S
C1802 C1793 1.429 . S
C1802 N1799 1.350 . S
C1802 C1801 1.455 . S
C1803 C1804 1.369 . S
C1803 C1805 1.419 . S
C1803 H1807 0.930 . S
C1804 C1803 1.369 . S
C1804 C1813 1.429 . S
C1805 C1803 1.419 . S
C1805 C1806 1.363 . S
C1805 H1808 0.929 . S
C1806 C1805 1.363 . S
C1806 C1812 1.428 . S
H1807 C1803 0.930 . S
H1808 C1805 0.929 . S
S1809 N1810 1.613 . S
S1809 N1811 1.610 . S
N1810 S1809 1.613 . S
N1810 C1813 1.350 . S
N1811 S1809 1.610 . S
N1811 C1812 1.351 . S
C1812 C1806 1.428 . S
C1812 N1811 1.351 . S
C1812 C1813 1.434 . S
C1813 C1804 1.429 . S
C1813 N1810 1.350 . S
C1813 C1812 1.434 . S
C1814 C1815 1.369 . S
C1814 C1816 1.419 1_565 S
C1814 H1818 0.930 . S
C1815 C1814 1.369 . S
C1815 C1824 1.429 . S
C1816 C1814 1.419 1_545 S
C1816 C1817 1.363 . S
C1816 H1819 0.929 . S
C1817 C1816 1.363 . S
C1817 C1823 1.428 . S
H1818 C1814 0.930 . S
H1819 C1816 0.929 . S
S1820 N1821 1.613 . S
S1820 N1822 1.610 . S
N1821 S1820 1.613 . S
N1821 C1824 1.350 1_545 S
N1822 S1820 1.610 . S
N1822 C1823 1.351 . S
C1823 C1817 1.428 . S
C1823 N1822 1.351 . S
C1823 C1824 1.434 1_545 S
C1824 C1815 1.429 . S
C1824 N1821 1.350 1_565 S
C1824 C1823 1.434 1_565 S
C1825 C1826 1.369 . S
C1825 C1827 1.419 . S
C1825 H1829 0.930 . S
C1826 C1825 1.369 . S
C1826 C1835 1.429 1_554 S
C1827 C1825 1.419 . S
C1827 C1828 1.363 1_554 S
C1827 H1830 0.929 . S
C1828 C1827 1.363 1_556 S
C1828 C1834 1.428 . S
H1829 C1825 0.930 . S
H1830 C1827 0.929 . S
S1831 N1832 1.613 . S
S1831 N1833 1.610 . S
N1832 S1831 1.613 . S
N1832 C1835 1.350 . S
N1833 S1831 1.610 . S
N1833 C1834 1.351 . S
C1834 C1828 1.428 . S
C1834 N1833 1.351 . S
C1834 C1835 1.434 . S
C1835 C1826 1.429 1_556 S
C1835 N1832 1.350 . S
C1835 C1834 1.434 . S
C1836 C1837 1.369 1_545 S
C1836 C1838 1.419 . S
C1836 H1840 0.930 . S
C1837 C1836 1.369 1_565 S
C1837 C1846 1.429 . S
C1838 C1836 1.419 . S
C1838 C1839 1.363 . S
C1838 H1841 0.929 . S
C1839 C1838 1.363 . S
C1839 C1845 1.428 1_545 S
H1840 C1836 0.930 . S
H1841 C1838 0.929 . S
S1842 N1843 1.613 . S
S1842 N1844 1.610 . S
N1843 S1842 1.613 . S
N1843 C1846 1.350 . S
N1844 S1842 1.610 . S
N1844 C1845 1.351 . S
C1845 C1839 1.428 1_565 S
C1845 N1844 1.351 . S
C1845 C1846 1.434 . S
C1846 C1837 1.429 . S
C1846 N1843 1.350 . S
C1846 C1845 1.434 . S
C1847 C1848 1.369 . S
C1847 C1849 1.419 . S
C1847 H1851 0.930 . S
C1848 C1847 1.369 . S
C1848 C1857 1.429 . S
C1849 C1847 1.419 . S
C1849 C1850 1.363 . S
C1849 H1852 0.929 . S
C1850 C1849 1.363 . S
C1850 C1856 1.428 . S
H1851 C1847 0.930 . S
H1852 C1849 0.929 . S
S1853 N1854 1.613 . S
S1853 N1855 1.610 . S
N1854 S1853 1.613 . S
N1854 C1857 1.350 . S
N1855 S1853 1.610 . S
N1855 C1856 1.351 . S
C1856 C1850 1.428 . S
C1856 N1855 1.351 . S
C1856 C1857 1.434 . S
C1857 C1848 1.429 . S
C1857 N1854 1.350 . S
C1857 C1856 1.434 . S
C1858 C1859 1.369 1_565 S
C1858 C1860 1.419 . S
C1858 H1862 0.930 . S
C1859 C1858 1.369 1_545 S
C1859 C1868 1.429 . S
C1860 C1858 1.419 . S
C1860 C1861 1.363 . S
C1860 H1863 0.929 . S
C1861 C1860 1.363 . S
C1861 C1867 1.428 1_565 S
H1862 C1858 0.930 . S
H1863 C1860 0.929 . S
S1864 N1865 1.613 . S
S1864 N1866 1.610 . S
N1865 S1864 1.613 . S
N1865 C1868 1.350 . S
N1866 S1864 1.610 . S
N1866 C1867 1.351 . S
C1867 C1861 1.428 1_545 S
C1867 N1866 1.351 . S
C1867 C1868 1.434 . S
C1868 C1859 1.429 . S
C1868 N1865 1.350 . S
C1868 C1867 1.434 . S
C1869 C1870 1.369 . S
C1869 C1871 1.419 . S
C1869 H1873 0.930 . S
C1870 C1869 1.369 . S
C1870 C1879 1.429 1_556 S
C1871 C1869 1.419 . S
C1871 C1872 1.363 1_556 S
C1871 H1874 0.929 . S
C1872 C1871 1.363 1_554 S
C1872 C1878 1.428 . S
H1873 C1869 0.930 . S
H1874 C1871 0.929 . S
S1875 N1876 1.613 . S
S1875 N1877 1.610 . S
N1876 S1875 1.613 . S
N1876 C1879 1.350 . S
N1877 S1875 1.610 . S
N1877 C1878 1.351 . S
C1878 C1872 1.428 . S
C1878 N1877 1.351 . S
C1878 C1879 1.434 . S
C1879 C1870 1.429 1_554 S
C1879 N1876 1.350 . S
C1879 C1878 1.434 . S
C1880 C1881 1.369 . S
C1880 C1882 1.419 . S
C1880 H1884 0.930 . S
C1881 C1880 1.369 . S
C1881 C1890 1.429 . S
C1882 C1880 1.419 . S
C1882 C1883 1.363 . S
C1882 H1885 0.929 . S
C1883 C1882 1.363 . S
C1883 C1889 1.428 . S
H1884 C1880 0.930 . S
H1885 C1882 0.929 . S
S1886 N1887 1.613 . S
S1886 N1888 1.610 . S
N1887 S1886 1.613 . S
N1887 C1890 1.350 . S
N1888 S1886 1.610 . S
N1888 C1889 1.351 . S
C1889 C1883 1.428 . S
C1889 N1888 1.351 . S
C1889 C1890 1.434 . S
C1890 C1881 1.429 . S
C1890 N1887 1.350 . S
C1890 C1889 1.434 . S
C1891 C1892 1.369 . S
C1891 C1893 1.419 1_554 S
C1891 H1895 0.930 . S
C1892 C1891 1.369 . S
C1892 C1901 1.429 . S
C1893 C1891 1.419 1_556 S
C1893 C1894 1.363 . S
C1893 H1896 0.929 . S
C1894 C1893 1.363 . S
C1894 C1900 1.467 . S
H1895 C1891 0.930 . S
H1896 C1893 0.929 . S
S1897 N1898 1.613 . S
S1897 N1899 1.636 . S
N1898 S1897 1.613 . S
N1898 C1901 1.350 . S
N1899 S1897 1.636 . S
N1899 C1900 1.347 1_554 S
C1900 C1894 1.467 . S
C1900 N1899 1.347 1_556 S
C1900 C1901 1.394 1_556 S
C1901 C1892 1.429 . S
C1901 N1898 1.350 . S
C1901 C1900 1.394 1_554 S
C1902 C1903 1.369 . S
C1902 C1904 1.419 . S
C1902 H1906 0.930 . S
C1903 C1902 1.369 . S
C1903 C1912 1.429 . S
C1904 C1902 1.419 . S
C1904 C1905 1.363 . S
C1904 H1907 0.929 . S
C1905 C1904 1.363 . S
C1905 C1911 1.428 . S
H1906 C1902 0.930 . S
H1907 C1904 0.929 . S
S1908 N1909 1.613 . S
S1908 N1910 1.610 . S
N1909 S1908 1.613 . S
N1909 C1912 1.350 . S
N1910 S1908 1.610 . S
N1910 C1911 1.351 . S
C1911 C1905 1.428 . S
C1911 N1910 1.351 . S
C1911 C1912 1.434 . S
C1912 C1903 1.429 . S
C1912 N1909 1.350 . S
C1912 C1911 1.434 . S
C1913 C1914 1.369 . S
C1913 C1915 1.419 . S
C1913 H1917 0.930 . S
C1914 C1913 1.369 . S
C1914 C1923 1.429 . S
C1915 C1913 1.419 . S
C1915 C1916 1.363 . S
C1915 H1918 0.929 . S
C1916 C1915 1.363 . S
C1916 C1922 1.428 . S
H1917 C1913 0.930 . S
H1918 C1915 0.929 . S
S1919 N1920 1.613 . S
S1919 N1921 1.610 . S
N1920 S1919 1.613 . S
N1920 C1923 1.350 . S
N1921 S1919 1.610 . S
N1921 C1922 1.351 . S
C1922 C1916 1.428 . S
C1922 N1921 1.351 . S
C1922 C1923 1.434 . S
C1923 C1914 1.429 . S
C1923 N1920 1.350 . S
C1923 C1922 1.434 . S
C1924 C1925 1.369 . S
C1924 C1926 1.419 . S
C1924 H1928 0.930 . S
C1925 C1924 1.369 . S
C1925 C1934 1.429 . S
C1926 C1924 1.419 . S
C1926 C1927 1.363 . S
C1926 H1929 0.929 . S
C1927 C1926 1.363 . S
C1927 C1933 1.428 . S
H1928 C1924 0.930 . S
H1929 C1926 0.929 . S
S1930 N1931 1.613 . S
S1930 N1932 1.610 . S
N1931 S1930 1.613 . S
N1931 C1934 1.350 . S
N1932 S1930 1.610 . S
N1932 C1933 1.351 . S
C1933 C1927 1.428 . S
C1933 N1932 1.351 . S
C1933 C1934 1.434 . S
C1934 C1925 1.429 . S
C1934 N1931 1.350 . S
C1934 C1933 1.434 . S
C1935 C1936 1.370 1_556 S
C1935 C1937 1.418 . S
C1935 H1939 0.929 . S
C1936 C1935 1.370 1_554 S
C1936 C1945 1.429 . S
C1937 C1935 1.418 . S
C1937 C1938 1.363 . S
C1937 H1940 0.929 . S
C1938 C1937 1.363 . S
C1938 C1944 1.409 1_556 S
H1939 C1935 0.929 . S
H1940 C1937 0.929 . S
S1941 N1942 1.613 . S
S1941 N1943 1.610 . S
N1942 S1941 1.613 . S
N1942 C1945 1.350 . S
N1943 S1941 1.610 . S
N1943 C1944 1.354 . S
C1944 C1938 1.409 1_554 S
C1944 N1943 1.354 . S
C1944 C1945 1.452 . S
C1945 C1936 1.429 . S
C1945 N1942 1.350 . S
C1945 C1944 1.452 . S
C1946 C1947 1.369 . S
C1946 C1948 1.419 . S
C1946 H1950 0.930 . S
C1947 C1946 1.369 . S
C1947 C1956 1.429 . S
C1948 C1946 1.419 . S
C1948 C1949 1.363 . S
C1948 H1951 0.929 . S
C1949 C1948 1.363 . S
C1949 C1955 1.428 . S
H1950 C1946 0.930 . S
H1951 C1948 0.929 . S
S1952 N1953 1.613 . S
S1952 N1954 1.610 . S
N1953 S1952 1.613 . S
N1953 C1956 1.350 . S
N1954 S1952 1.610 . S
N1954 C1955 1.351 . S
C1955 C1949 1.428 . S
C1955 N1954 1.351 . S
C1955 C1956 1.434 . S
C1956 C1947 1.429 . S
C1956 N1953 1.350 . S
C1956 C1955 1.434 . S
C1957 C1958 1.369 . S
C1957 C1959 1.419 . S
C1957 H1961 0.930 . S
C1958 C1957 1.369 . S
C1958 C1967 1.429 . S
C1959 C1957 1.419 . S
C1959 C1960 1.363 . S
C1959 H1962 0.929 . S
C1960 C1959 1.363 . S
C1960 C1966 1.428 . S
H1961 C1957 0.930 . S
H1962 C1959 0.929 . S
S1963 N1964 1.613 . S
S1963 N1965 1.610 . S
N1964 S1963 1.613 . S
N1964 C1967 1.350 . S
N1965 S1963 1.610 . S
N1965 C1966 1.351 . S
C1966 C1960 1.428 . S
C1966 N1965 1.351 . S
C1966 C1967 1.434 . S
C1967 C1958 1.429 . S
C1967 N1964 1.350 . S
C1967 C1966 1.434 . S
C1089 C9 1.387 . S
C1091 C825 1.385 . S
C1100 C315 1.386 . S
C1102 C43 1.386 . S
C1111 C893 1.392 . S
C1113 C77 1.381 . S
C1122 C111 1.378 . S
C1124 C383 1.391 . S
C1133 C961 1.390 . S
C1135 C145 1.383 . S
C1144 C451 1.378 . S
C1146 C179 1.392 . S
C1155 C213 1.380 . S
C1157 C1029 1.390 . S
C1166 C247 1.378 . S
C1168 C519 1.392 . S
C1177 C281 1.379 . S
C1179 C553 1.391 . S
C1188 C349 1.382 . S
C1190 C621 1.388 . S
C1199 C689 1.386 . S
C1201 C417 1.386 . S
C1210 C485 1.391 . S
C1212 C757 1.381 . S
C1221 C587 1.379 . S
C1223 C859 1.391 . S
C1232 C927 1.381 . S
C1234 C655 1.390 . S
C1243 C995 1.378 . S
C1245 C723 1.392 . S
C1254 C791 1.384 . S
C1256 C1063 1.387 . S
C1265 C2 1.259 . S
C1267 C855 1.178 . S
C1276 C345 1.189 . S
C1278 C36 1.261 . S
C1287 C70 1.263 . S
C1289 C923 1.183 . S
C1298 C277 1.188 . S
C1300 C104 1.261 . S
C1309 C138 1.259 . S
C1311 C1059 1.181 . S
C1320 C172 1.263 . S
C1322 C413 1.182 . S
C1331 C991 1.186 . S
C1333 C206 1.260 . S
C1342 C481 1.179 . S
C1344 C240 1.262 . S
C1353 C583 1.177 . S
C1355 C274 1.259 . S
C1364 C73 1.185 . S
C1366 C308 1.262 . S
C1375 C342 1.262 . S
C1377 C651 1.187 . S
C1386 C376 1.259 . S
C1388 C5 1.181 . S
C1397 C787 1.174 . S
C1399 C410 1.260 . S
C1408 C141 1.178 . S
C1410 C444 1.259 . S
C1419 C478 1.262 . S
C1421 C719 1.187 . S
C1430 C512 1.259 . S
C1432 C209 1.177 . S
C1441 C311 1.178 . S
C1443 C546 1.261 . S
C1452 C889 1.184 . S
C1454 C580 1.262 . S
C1463 C379 1.183 . S
C1465 C614 1.260 . S
C1474 C648 1.263 . S
C1476 C821 1.183 . S
C1485 C515 1.178 . S
C1487 C682 1.262 . S
C1496 C716 1.262 . S
C1498 C957 1.179 . S
C1507 C447 1.186 . S
C1509 C750 1.260 . S
C1518 C784 1.261 . S
C1520 C1025 1.187 . S
C1529 C39 1.186 . S
C1531 C818 1.260 . S
C1540 C617 1.183 . S
C1542 C852 1.262 . S
C1551 C107 1.182 . S
C1553 C886 1.259 . S
C1562 C920 1.260 . S
C1564 C549 1.186 . S
C1573 C954 1.262 . S
C1575 C243 1.181 . S
C1584 C685 1.183 . S
C1586 C988 1.259 . S
C1595 C175 1.188 . S
C1597 C1022 1.260 . S
C1606 C1056 1.261 . S
C1608 C753 1.176 . S
C1617 C645 1.194 . S
C1619 C33 1.198 . S
C1628 C679 1.191 . S
C1630 C67 1.193 . S
C1639 C577 1.190 . S
C1641 C101 1.194 . S
C1650 C611 1.198 . S
C1652 C135 1.192 . S
C1661 C169 1.199 . S
C1663 C781 1.193 . S
C1672 C815 1.190 . S
C1674 C203 1.194 . S
C1683 C237 1.197 . S
C1685 C713 1.191 . S
C1694 C747 1.199 . S
C1696 C271 1.193 . S
C1705 C917 1.195 . S
C1707 C305 1.197 . S
C1716 C339 1.191 . S
C1718 C951 1.193 . S
C1727 C373 1.194 . S
C1729 C849 1.198 . S
C1738 C407 1.194 . S
C1740 C883 1.191 . S
C1749 C1053 1.192 . S
C1751 C441 1.192 . S
C1760 C475 1.195 . S
C1762 C1087 1.197 . S
C1771 C509 1.194 . S
C1773 C985 1.191 . S
C1782 C543 1.198 . S
C1784 C1019 1.193 . S
C1793 C156 2.038 . S
C1795 C20 2.040 . S
C1804 C190 2.038 . S
C1806 C54 2.040 . S
C1815 C88 2.040 . S
C1817 C224 2.038 . S
C1826 C258 2.038 . S
C1828 C122 2.040 . S
C1837 C292 2.037 . S
C1839 C428 2.040 . S
C1848 C462 2.038 . S
C1850 C326 2.040 . S
C1859 C360 2.038 . S
C1861 C496 2.040 . S
C1870 C530 2.038 . S
C1872 C394 2.040 . S
C1881 C564 2.038 . S
C1883 C700 2.039 . S
C1892 C734 2.040 . S
C1894 C598 2.038 . S
C1903 C768 2.039 . S
C1905 C632 2.038 . S
C1914 C666 2.038 . S
C1916 C802 2.039 . S
C1925 C972 2.039 . S
C1927 C836 2.038 . S
C1936 C870 2.039 . S
C1938 C1006 2.038 . S
C1947 C904 2.040 . S
C1949 C1040 2.038 . S
C1958 C938 2.038 . S
C1960 C1074 2.040 . S
