# Generated by pormake.
# Topology xfg, (7)-cn, num edge types: 1
# Building blocks:
#     Node 0, Type 0, BuildingBlock: NUHQUE_clean_sbu_2, # of connection points: 7
#     Node 1, Type 0, BuildingBlock: NUHQUE_clean_sbu_2, # of connection points: 7
#     Node 2, Type 0, BuildingBlock: NUHQUE_clean_sbu_2, # of connection points: 7
#     Node 3, Type 0, BuildingBlock: NUHQUE_clean_sbu_2, # of connection points: 7
#     Node 4, Type 0, BuildingBlock: NUHQUE_clean_sbu_2, # of connection points: 7
#     Node 5, Type 0, BuildingBlock: NUHQUE_clean_sbu_2, # of connection points: 7
#     Node 6, Type 0, BuildingBlock: NUHQUE_clean_sbu_2, # of connection points: 7
#     Node 7, Type 0, BuildingBlock: NUHQUE_clean_sbu_2, # of connection points: 7
#     Node 8, Type 0, BuildingBlock: NUHQUE_clean_sbu_2, # of connection points: 7
#     Node 9, Type 0, BuildingBlock: NUHQUE_clean_sbu_2, # of connection points: 7
#     Node 10, Type 0, BuildingBlock: NUHQUE_clean_sbu_2, # of connection points: 7
#     Node 11, Type 0, BuildingBlock: NUHQUE_clean_sbu_2, # of connection points: 7
#     Node 12, Type 0, BuildingBlock: NUHQUE_clean_sbu_2, # of connection points: 7
#     Node 13, Type 0, BuildingBlock: NUHQUE_clean_sbu_2, # of connection points: 7
#     Node 14, Type 0, BuildingBlock: NUHQUE_clean_sbu_2, # of connection points: 7
#     Node 15, Type 0, BuildingBlock: NUHQUE_clean_sbu_2, # of connection points: 7
#     Edge 16, Type (0, 0), BuildingBlock: ZUJKAS_clean_linker_0, # of connection points: 2
#     Edge 17, Type (0, 0), BuildingBlock: ZUJKAS_clean_linker_0, # of connection points: 2
#     Edge 18, Type (0, 0), BuildingBlock: ZUJKAS_clean_linker_0, # of connection points: 2
#     Edge 19, Type (0, 0), BuildingBlock: ZUJKAS_clean_linker_0, # of connection points: 2
#     Edge 20, Type (0, 0), BuildingBlock: ZUJKAS_clean_linker_0, # of connection points: 2
#     Edge 21, Type (0, 0), BuildingBlock: ZUJKAS_clean_linker_0, # of connection points: 2
#     Edge 22, Type (0, 0), BuildingBlock: ZUJKAS_clean_linker_0, # of connection points: 2
#     Edge 23, Type (0, 0), BuildingBlock: ZUJKAS_clean_linker_0, # of connection points: 2
#     Edge 24, Type (0, 0), BuildingBlock: ZUJKAS_clean_linker_0, # of connection points: 2
#     Edge 25, Type (0, 0), BuildingBlock: ZUJKAS_clean_linker_0, # of connection points: 2
#     Edge 26, Type (0, 0), BuildingBlock: ZUJKAS_clean_linker_0, # of connection points: 2
#     Edge 27, Type (0, 0), BuildingBlock: ZUJKAS_clean_linker_0, # of connection points: 2
#     Edge 28, Type (0, 0), BuildingBlock: ZUJKAS_clean_linker_0, # of connection points: 2
#     Edge 29, Type (0, 0), BuildingBlock: ZUJKAS_clean_linker_0, # of connection points: 2
#     Edge 30, Type (0, 0), BuildingBlock: ZUJKAS_clean_linker_0, # of connection points: 2
#     Edge 31, Type (0, 0), BuildingBlock: ZUJKAS_clean_linker_0, # of connection points: 2
#     Edge 32, Type (0, 0), BuildingBlock: ZUJKAS_clean_linker_0, # of connection points: 2
#     Edge 33, Type (0, 0), BuildingBlock: ZUJKAS_clean_linker_0, # of connection points: 2
#     Edge 34, Type (0, 0), BuildingBlock: ZUJKAS_clean_linker_0, # of connection points: 2
#     Edge 35, Type (0, 0), BuildingBlock: ZUJKAS_clean_linker_0, # of connection points: 2
#     Edge 36, Type (0, 0), BuildingBlock: ZUJKAS_clean_linker_0, # of connection points: 2
#     Edge 37, Type (0, 0), BuildingBlock: ZUJKAS_clean_linker_0, # of connection points: 2
#     Edge 38, Type (0, 0), BuildingBlock: ZUJKAS_clean_linker_0, # of connection points: 2
#     Edge 39, Type (0, 0), BuildingBlock: ZUJKAS_clean_linker_0, # of connection points: 2
#     Edge 40, Type (0, 0), BuildingBlock: ZUJKAS_clean_linker_0, # of connection points: 2
#     Edge 41, Type (0, 0), BuildingBlock: ZUJKAS_clean_linker_0, # of connection points: 2
#     Edge 42, Type (0, 0), BuildingBlock: ZUJKAS_clean_linker_0, # of connection points: 2
#     Edge 43, Type (0, 0), BuildingBlock: ZUJKAS_clean_linker_0, # of connection points: 2
#     Edge 44, Type (0, 0), BuildingBlock: ZUJKAS_clean_linker_0, # of connection points: 2
#     Edge 45, Type (0, 0), BuildingBlock: ZUJKAS_clean_linker_0, # of connection points: 2
#     Edge 46, Type (0, 0), BuildingBlock: ZUJKAS_clean_linker_0, # of connection points: 2
#     Edge 47, Type (0, 0), BuildingBlock: ZUJKAS_clean_linker_0, # of connection points: 2
#     Edge 48, Type (0, 0), BuildingBlock: ZUJKAS_clean_linker_0, # of connection points: 2
#     Edge 49, Type (0, 0), BuildingBlock: ZUJKAS_clean_linker_0, # of connection points: 2
#     Edge 50, Type (0, 0), BuildingBlock: ZUJKAS_clean_linker_0, # of connection points: 2
#     Edge 51, Type (0, 0), BuildingBlock: ZUJKAS_clean_linker_0, # of connection points: 2
#     Edge 52, Type (0, 0), BuildingBlock: ZUJKAS_clean_linker_0, # of connection points: 2
#     Edge 53, Type (0, 0), BuildingBlock: ZUJKAS_clean_linker_0, # of connection points: 2
#     Edge 54, Type (0, 0), BuildingBlock: ZUJKAS_clean_linker_0, # of connection points: 2
#     Edge 55, Type (0, 0), BuildingBlock: ZUJKAS_clean_linker_0, # of connection points: 2
#     Edge 56, Type (0, 0), BuildingBlock: ZUJKAS_clean_linker_0, # of connection points: 2
#     Edge 57, Type (0, 0), BuildingBlock: ZUJKAS_clean_linker_0, # of connection points: 2
#     Edge 58, Type (0, 0), BuildingBlock: ZUJKAS_clean_linker_0, # of connection points: 2
#     Edge 59, Type (0, 0), BuildingBlock: ZUJKAS_clean_linker_0, # of connection points: 2
#     Edge 60, Type (0, 0), BuildingBlock: ZUJKAS_clean_linker_0, # of connection points: 2
#     Edge 61, Type (0, 0), BuildingBlock: ZUJKAS_clean_linker_0, # of connection points: 2
#     Edge 62, Type (0, 0), BuildingBlock: ZUJKAS_clean_linker_0, # of connection points: 2
#     Edge 63, Type (0, 0), BuildingBlock: ZUJKAS_clean_linker_0, # of connection points: 2
#     Edge 64, Type (0, 0), BuildingBlock: ZUJKAS_clean_linker_0, # of connection points: 2
#     Edge 65, Type (0, 0), BuildingBlock: ZUJKAS_clean_linker_0, # of connection points: 2
#     Edge 66, Type (0, 0), BuildingBlock: ZUJKAS_clean_linker_0, # of connection points: 2
#     Edge 67, Type (0, 0), BuildingBlock: ZUJKAS_clean_linker_0, # of connection points: 2
#     Edge 68, Type (0, 0), BuildingBlock: ZUJKAS_clean_linker_0, # of connection points: 2
#     Edge 69, Type (0, 0), BuildingBlock: ZUJKAS_clean_linker_0, # of connection points: 2
#     Edge 70, Type (0, 0), BuildingBlock: ZUJKAS_clean_linker_0, # of connection points: 2
#     Edge 71, Type (0, 0), BuildingBlock: ZUJKAS_clean_linker_0, # of connection points: 2
# Relax obj value: 0.097
# Max RMSD: 0.187
# Mean RMSD: 0.187
data_MOF--net-xfg--node1-NUHQUE_clean_sbu_2--edge1-ZUJKAS_clean_linker_0
_symmetry_space_group_name_H-M    P1
_symmetry_Int_Tables_number       1
_symmetry_cell_setting            triclinic
loop_
_symmetry_equiv_pos_as_xyz
'x, y, z'
_cell_length_a     41.392761
_cell_length_b     41.25976
_cell_length_c     86.156293
_cell_angle_alpha  89.988543
_cell_angle_beta   90.017655
_cell_angle_gamma 90.025459
loop_
_atom_site_label
_atom_site_type_symbol
_atom_site_fract_x
_atom_site_fract_y
_atom_site_fract_z
_atom_type_partial_charge
O0 O 0.29375 0.12489 0.01998 0.0
Tb1 Tb 0.31666 0.10228 0.03979 0.0
Eu2 Eu 0.35185 0.12061 0.07253 0.0
C3 C 0.31019 0.1415 0.00966 0.0
O4 O 0.34042 0.14911 0.01248 0.0
C5 C 0.39177 0.09935 0.04276 0.0
O6 O 0.37239 0.10657 0.09552 0.0
C7 C 0.3483 0.18321 0.06939 0.0
C8 C 0.36455 0.07782 0.1008 0.0
O9 O 0.34758 0.05819 0.092 0.0
C10 C 0.27719 0.10338 0.07034 0.0
C11 C 0.32891 0.21353 0.07045 0.0
C12 C 0.32282 0.22986 0.05647 0.0
C13 C 0.30875 0.26069 0.05632 0.0
C14 C 0.29945 0.27497 0.07036 0.0
C15 C 0.30497 0.25939 0.08454 0.0
C16 C 0.32011 0.2286 0.08466 0.0
O17 O 0.36774 0.11328 0.03524 0.0
O18 O 0.38961 0.09529 0.05786 0.0
O19 O 0.30386 0.06272 0.02455 0.0
O20 O 0.32115 0.05161 0.04724 0.0
C21 C 0.31086 0.03957 0.03415 0.0
O22 O 0.30409 0.09723 0.07773 0.0
O23 O 0.27826 0.11548 0.05621 0.0
O24 O 0.3589 0.1692 0.08212 0.0
O25 O 0.34114 0.1626 0.0582 0.0
H26 H 0.33025 0.21898 0.04558 0.0
H27 H 0.2893 0.29921 0.07036 0.0
H28 H 0.32547 0.21696 0.09563 0.0
O29 O 0.68722 0.55441 0.26786 0.0
Tb30 Tb 0.70637 0.56872 0.29014 0.0
Eu31 Eu 0.67896 0.6042 0.32207 0.0
C32 C 0.69871 0.56902 0.25549 0.0
O33 O 0.7206 0.5918 0.25727 0.0
C34 C 0.70409 0.64404 0.29264 0.0
O35 O 0.69163 0.6253 0.34504 0.0
C36 C 0.61673 0.60011 0.31851 0.0
C37 C 0.72146 0.62085 0.34961 0.0
O38 O 0.74191 0.60675 0.3401 0.0
C39 C 0.69751 0.52957 0.32043 0.0
C40 C 0.58692 0.58003 0.31978 0.0
C41 C 0.57064 0.57322 0.30586 0.0
C42 C 0.54009 0.55876 0.3059 0.0
C43 C 0.52615 0.54965 0.32002 0.0
C44 C 0.54112 0.55672 0.33419 0.0
C45 C 0.57191 0.5718 0.33412 0.0
O46 O 0.69322 0.61895 0.28477 0.0
O47 O 0.70499 0.6427 0.3079 0.0
O48 O 0.74896 0.54714 0.27978 0.0
O49 O 0.75518 0.58193 0.29782 0.0
C50 C 0.76996 0.5628 0.28809 0.0
O51 O 0.70147 0.55636 0.32835 0.0
O52 O 0.68875 0.53088 0.30576 0.0
O53 O 0.63024 0.61176 0.33115 0.0
O54 O 0.63764 0.59261 0.30752 0.0
H55 H 0.5809 0.58125 0.29493 0.0
H56 H 0.50256 0.53814 0.32003 0.0
H57 H 0.58325 0.57827 0.34501 0.0
O58 O 0.26201 0.94078 0.51917 0.0
Tb59 Tb 0.23834 0.96054 0.53944 0.0
Eu60 Eu 0.20277 0.93596 0.57155 0.0
C61 C 0.24728 0.92053 0.50979 0.0
O62 O 0.21936 0.90808 0.51388 0.0
C63 C 0.16342 0.95905 0.54183 0.0
O64 O 0.18396 0.9467 0.5952 0.0
C65 C 0.20875 0.87384 0.56744 0.0
C66 C 0.18296 0.97717 0.59944 0.0
O67 O 0.19027 0.99965 0.58922 0.0
C68 C 0.27664 0.95708 0.5703 0.0
C69 C 0.22765 0.84329 0.5688 0.0
C70 C 0.23279 0.82632 0.55493 0.0
C71 C 0.24743 0.79583 0.5549 0.0
C72 C 0.2581 0.7824 0.56889 0.0
C73 C 0.25338 0.79846 0.58305 0.0
C74 C 0.23754 0.82899 0.58306 0.0
O75 O 0.18834 0.94662 0.53443 0.0
O76 O 0.16432 0.96119 0.55707 0.0
O77 O 0.24856 1.00206 0.52497 0.0
O78 O 0.23134 1.01024 0.54796 0.0
C79 C 0.24047 1.02394 0.53504 0.0
O80 O 0.24927 0.9611 0.57769 0.0
O81 O 0.27656 0.94697 0.5558 0.0
O82 O 0.19496 0.88645 0.57979 0.0
O83 O 0.21817 0.89552 0.55713 0.0
H84 H 0.22443 0.83653 0.54404 0.0
H85 H 0.26877 0.75838 0.56888 0.0
H86 H 0.23296 0.84127 0.59395 0.0
O87 O 0.87092 0.51272 0.76986 0.0
Tb88 Tb 0.84902 0.49145 0.79024 0.0
Eu89 Eu 0.86972 0.455 0.82233 0.0
C90 C 0.88906 0.49609 0.76023 0.0
O91 O 0.8987 0.46685 0.76404 0.0
C92 C 0.84648 0.41577 0.79254 0.0
O93 O 0.85618 0.43267 0.8449 0.0
C94 C 0.93215 0.45864 0.81916 0.0
C95 C 0.82675 0.43845 0.84974 0.0
O96 O 0.80668 0.45394 0.84054 0.0
C97 C 0.85203 0.52964 0.82099 0.0
C98 C 0.96211 0.47866 0.81945 0.0
C99 C 0.97747 0.48357 0.80515 0.0
C100 C 1.00711 0.4994 0.80427 0.0
C101 C 1.02178 0.51121 0.81771 0.0
C102 C 1.00766 0.50632 0.83233 0.0
C103 C 0.97771 0.48955 0.83324 0.0
O104 O 0.85909 0.44037 0.78488 0.0
O105 O 0.84399 0.41724 0.80774 0.0
O106 O 0.80878 0.50876 0.77652 0.0
O107 O 0.79888 0.48449 0.79783 0.0
C108 C 0.78617 0.49879 0.78579 0.0
O109 O 0.84602 0.50237 0.82815 0.0
O110 O 0.86375 0.52902 0.8068 0.0
O111 O 0.91824 0.44997 0.83224 0.0
O112 O 0.91152 0.46382 0.80774 0.0
H113 H 0.96691 0.47391 0.79458 0.0
H114 H 0.04529 0.52272 0.81683 0.0
H115 H 0.96694 0.48488 0.84447 0.0
O116 O 0.76207 0.94502 0.98009 0.0
Tb117 Tb 0.7414 0.96084 0.95842 0.0
Eu118 Eu 0.70298 0.93468 0.92811 0.0
C119 C 0.74961 0.92174 0.98854 0.0
O120 O 0.72573 0.90422 0.98303 0.0
C121 C 0.66555 0.95993 0.95839 0.0
O122 O 0.68098 0.94498 0.90512 0.0
C123 C 0.70971 0.87265 0.93201 0.0
C124 C 0.68071 0.9753 0.90067 0.0
O125 O 0.69075 0.99766 0.9104 0.0
C126 C 0.77629 0.95381 0.92747 0.0
C127 C 0.7278 0.84175 0.93019 0.0
C128 C 0.73265 0.8238 0.9438 0.0
C129 C 0.74435 0.79209 0.94324 0.0
C130 C 0.75275 0.77841 0.92895 0.0
C131 C 0.74899 0.7958 0.91511 0.0
C132 C 0.73614 0.82766 0.91567 0.0
O133 O 0.69169 0.95089 0.96601 0.0
O134 O 0.66531 0.95957 0.9431 0.0
O135 O 0.76467 1.00383 0.96749 0.0
O136 O 0.72872 1.0094 0.94999 0.0
C137 C 0.74904 1.02452 0.95901 0.0
O138 O 0.74859 0.96004 0.92081 0.0
O139 O 0.77627 0.94196 0.94162 0.0
O140 O 0.69463 0.88529 0.92003 0.0
O141 O 0.72015 0.89421 0.94216 0.0
H142 H 0.72519 0.83381 0.95489 0.0
H143 H 0.76178 0.75373 0.92857 0.0
H144 H 0.73197 0.84084 0.90498 0.0
O145 O 0.36278 0.51599 0.73032 0.0
Tb146 Tb 0.34341 0.49141 0.7102 0.0
Eu147 Eu 0.37477 0.45709 0.67802 0.0
C148 C 0.38226 0.50134 0.74007 0.0
O149 O 0.39427 0.4729 0.73645 0.0
C150 C 0.34901 0.41682 0.70698 0.0
O151 O 0.36254 0.43667 0.65487 0.0
C152 C 0.43691 0.46114 0.6818 0.0
C153 C 0.33226 0.43889 0.65056 0.0
O154 O 0.31107 0.45074 0.6604 0.0
C155 C 0.35045 0.53138 0.67937 0.0
C156 C 0.46778 0.47948 0.68066 0.0
C157 C 0.48563 0.48237 0.69443 0.0
C158 C 0.51673 0.49544 0.69436 0.0
C159 C 0.52975 0.50727 0.68052 0.0
C160 C 0.51259 0.50538 0.66653 0.0
C161 C 0.48155 0.49072 0.66651 0.0
O162 O 0.35971 0.44202 0.71475 0.0
O163 O 0.34928 0.41748 0.69173 0.0
O164 O 0.30271 0.49757 0.72556 0.0
O165 O 0.2936 0.48389 0.70208 0.0
C166 C 0.28056 0.49017 0.71553 0.0
O167 O 0.35152 0.50444 0.67128 0.0
O168 O 0.35534 0.53133 0.69448 0.0
O169 O 0.42358 0.44913 0.6692 0.0
O170 O 0.4159 0.46982 0.69256 0.0
H171 H 0.47596 0.47267 0.70518 0.0
H172 H 0.55394 0.51744 0.6806 0.0
H173 H 0.46844 0.48811 0.6557 0.0
O174 O 0.80328 0.12496 0.47994 0.0
Tb175 Tb 0.81901 0.10078 0.45901 0.0
Eu176 Eu 0.85341 0.12877 0.42698 0.0
C177 C 0.8188 0.11816 0.49284 0.0
O178 O 0.84345 0.09818 0.49228 0.0
C179 C 0.8944 0.10278 0.45573 0.0
O180 O 0.87163 0.1184 0.40325 0.0
C181 C 0.8473 0.19073 0.43149 0.0
C182 C 0.87257 0.08786 0.39914 0.0
O183 O 0.86542 0.0656 0.40951 0.0
C184 C 0.77971 0.10687 0.42834 0.0
C185 C 0.82738 0.22067 0.43012 0.0
C186 C 0.82112 0.23728 0.44401 0.0
C187 C 0.80663 0.2679 0.44396 0.0
C188 C 0.79685 0.28145 0.42984 0.0
C189 C 0.8036 0.26628 0.41566 0.0
C190 C 0.81873 0.23543 0.41577 0.0
O191 O 0.86956 0.11351 0.46375 0.0
O192 O 0.89289 0.10268 0.44047 0.0
O193 O 0.80084 0.06121 0.47299 0.0
O194 O 0.82752 0.04996 0.45254 0.0
C195 C 0.81227 0.03799 0.46449 0.0
O196 O 0.80668 0.10461 0.42047 0.0
O197 O 0.78013 0.11479 0.44314 0.0
O198 O 0.86115 0.17848 0.41908 0.0
O199 O 0.83845 0.16876 0.4418 0.0
H200 H 0.82964 0.22721 0.4549 0.0
H201 H 0.78515 0.30498 0.42981 0.0
H202 H 0.82488 0.22384 0.40489 0.0
O203 O 0.19532 0.54654 0.23065 0.0
Tb204 Tb 0.21883 0.56142 0.2093 0.0
Eu205 Eu 0.18014 0.60068 0.17931 0.0
C206 C 0.18627 0.56742 0.24132 0.0
O207 O 0.18767 0.5986 0.23839 0.0
C208 C 0.21388 0.64058 0.20794 0.0
O209 O 0.1911 0.62233 0.15615 0.0
C210 C 0.12035 0.5828 0.18005 0.0
C211 C 0.22144 0.62574 0.15211 0.0
O212 O 0.24409 0.6197 0.16241 0.0
C213 C 0.20722 0.53008 0.1781 0.0
C214 C 0.08606 0.57254 0.18044 0.0
C215 C 0.07037 0.5713 0.19485 0.0
C216 C 0.03805 0.56151 0.19591 0.0
C217 C 1.02153 0.55253 0.18237 0.0
C218 C 0.03685 0.55201 0.16787 0.0
C219 C 0.06918 0.56299 0.16685 0.0
O220 O 0.22402 0.6131 0.21402 0.0
O221 O 0.19526 0.64194 0.19545 0.0
O222 O 0.25803 0.5353 0.22047 0.0
O223 O 0.26772 0.56178 0.19977 0.0
C224 C 0.28023 0.54372 0.2106 0.0
O225 O 0.21138 0.55863 0.17179 0.0
O226 O 0.19713 0.52872 0.19249 0.0
O227 O 0.13146 0.60295 0.16949 0.0
O228 O 0.14135 0.57375 0.19074 0.0
H229 H 0.08346 0.57793 0.20528 0.0
H230 H 0.99621 0.54598 0.1831 0.0
H231 H 0.08142 0.56299 0.15574 0.0
O232 O 0.80121 0.6156 0.51924 0.0
Tb233 Tb 0.81547 0.59585 0.54144 0.0
Eu234 Eu 0.85218 0.62583 0.5726 0.0
C235 C 0.81372 0.60214 0.5068 0.0
O236 O 0.83412 0.57803 0.50854 0.0
C237 C 0.89157 0.59841 0.54329 0.0
O238 O 0.87006 0.61634 0.59651 0.0
C239 C 0.84516 0.68763 0.56803 0.0
C240 C 0.8733 0.58599 0.60067 0.0
O241 O 0.86849 0.56316 0.59029 0.0
C242 C 0.77877 0.60526 0.57205 0.0
C243 C 0.82675 0.71835 0.56988 0.0
C244 C 0.82104 0.73594 0.55623 0.0
C245 C 0.80902 0.76752 0.5568 0.0
C246 C 0.80113 0.7814 0.57108 0.0
C247 C 0.80578 0.76442 0.58497 0.0
C248 C 0.8189 0.73266 0.58443 0.0
O249 O 0.86574 0.60649 0.53522 0.0
O250 O 0.8914 0.60063 0.55855 0.0
O251 O 0.79155 0.55407 0.53142 0.0
O252 O 0.8269 0.54634 0.54901 0.0
C253 C 0.80673 0.53232 0.53949 0.0
O254 O 0.80606 0.60079 0.57943 0.0
O255 O 0.77932 0.61488 0.55751 0.0
O256 O 0.86116 0.67564 0.57991 0.0
O257 O 0.83417 0.66552 0.5583 0.0
H258 H 0.82806 0.72585 0.5451 0.0
H259 H 0.79194 0.80603 0.57142 0.0
H260 H 0.82381 0.71981 0.59513 0.0
O261 O 0.19441 0.0456 0.76884 0.0
Tb262 Tb 0.21231 0.06386 0.79078 0.0
Eu263 Eu 0.1816 0.10403 0.82125 0.0
C264 C 0.17416 0.06206 0.76014 0.0
O265 O 0.1613 0.08898 0.76539 0.0
C266 C 0.21136 0.1411 0.79122 0.0
O267 O 0.19321 0.12513 0.84446 0.0
C268 C 0.1196 0.0978 0.81744 0.0
C269 C 0.22209 0.1191 0.85 0.0
O270 O 0.24322 0.10384 0.8413 0.0
C271 C 0.20077 0.02979 0.82175 0.0
C272 C 0.08862 0.0798 0.81932 0.0
C273 C 0.07027 0.07547 0.80577 0.0
C274 C 0.03872 0.06337 0.80643 0.0
C275 C 1.0258 0.05404 0.82074 0.0
C276 C 0.04322 0.058 0.83453 0.0
C277 C 0.07492 0.07105 0.83388 0.0
O278 O 0.20648 0.11423 0.78329 0.0
O279 O 0.2061 0.1425 0.80633 0.0
O280 O 0.25454 0.03813 0.78248 0.0
O281 O 0.26085 0.07529 0.79939 0.0
C282 C 0.27547 0.05376 0.79085 0.0
O283 O 0.20551 0.0575 0.82874 0.0
O284 O 0.191 0.02981 0.80726 0.0
O285 O 0.13243 0.11292 0.82938 0.0
O286 O 0.14096 0.08709 0.8073 0.0
H287 H 0.07987 0.08357 0.79472 0.0
H288 H 1.0014 0.04444 0.82123 0.0
H289 H 0.08819 0.07526 0.84453 0.0
O290 O 0.76032 0.44428 0.01968 0.0
Tb291 Tb 0.73465 0.46168 0.03972 0.0
Eu292 Eu 0.70073 0.42886 0.07133 0.0
C293 C 0.74927 0.42077 0.01095 0.0
O294 O 0.72411 0.40391 0.01554 0.0
C295 C 0.6605 0.45438 0.04213 0.0
O296 O 0.6789 0.44061 0.0942 0.0
C297 C 0.70639 0.36658 0.06746 0.0
C298 C 0.68139 0.47095 0.0985 0.0
O299 O 0.69368 0.49199 0.08868 0.0
C300 C 0.77451 0.45332 0.07015 0.0
C301 C 0.72736 0.33716 0.06785 0.0
C302 C 0.73589 0.32395 0.05343 0.0
C303 C 0.75113 0.29387 0.05232 0.0
C304 C 0.75934 0.27718 0.06588 0.0
C305 C 0.75047 0.28885 0.0806 0.0
C306 C 0.73463 0.31936 0.08159 0.0
O307 O 0.68604 0.44447 0.03441 0.0
O308 O 0.6611 0.45399 0.05741 0.0
O309 O 0.74139 0.50309 0.02481 0.0
O310 O 0.72725 0.51136 0.04828 0.0
C311 C 0.73408 0.52498 0.035 0.0
O312 O 0.74762 0.45282 0.0782 0.0
O313 O 0.77427 0.44805 0.05511 0.0
O314 O 0.69595 0.37948 0.08048 0.0
O315 O 0.71189 0.38809 0.05642 0.0
H316 H 0.7291 0.33638 0.04282 0.0
H317 H 0.77099 0.25374 0.06489 0.0
H318 H 0.72674 0.32829 0.09278 0.0
O319 O 0.3581 1.01659 0.27014 0.0
Tb320 Tb 0.34024 0.9961 0.29154 0.0
Eu321 Eu 0.3714 0.95714 0.32182 0.0
C322 C 0.38133 1.00317 0.26202 0.0
O323 O 0.39725 0.97838 0.26775 0.0
C324 C 0.34572 0.91904 0.29108 0.0
O325 O 0.36251 0.93599 0.34519 0.0
C326 C 0.43137 0.97418 0.32014 0.0
C327 C 0.33268 0.93015 0.34939 0.0
O328 O 0.3094 0.93361 0.33915 0.0
C329 C 0.34723 1.02828 0.32294 0.0
C330 C 0.46575 0.98423 0.31984 0.0
C331 C 0.48124 0.98666 0.30543 0.0
C332 C 0.51266 0.99888 0.30443 0.0
C333 C 0.52881 1.00889 0.31787 0.0
C334 C 0.51421 1.00649 0.33249 0.0
C335 C 0.48256 0.99362 0.3335 0.0
O336 O 0.34865 0.94657 0.28341 0.0
O337 O 0.35162 0.91725 0.30614 0.0
O338 O 0.29847 1.02177 0.28276 0.0
O339 O 0.29117 0.98379 0.29915 0.0
C340 C 0.27705 1.00568 0.2906 0.0
O341 O 0.34129 0.99992 0.32911 0.0
O342 O 0.35936 0.02928 0.3089 0.0
O343 O 0.42042 0.95445 0.3309 0.0
O344 O 0.4102 0.98281 0.30945 0.0
H345 H 0.4687 0.97944 0.29493 0.0
H346 H 0.55332 1.01804 0.31696 0.0
H347 H 0.47073 0.99211 0.34469 0.0
O348 O 0.25864 0.45608 0.48238 0.0
Tb349 Tb 0.24205 0.46596 0.45918 0.0
Eu350 Eu 0.20417 0.43436 0.42908 0.0
C351 C 0.25448 0.42807 0.48925 0.0
O352 O 0.24239 0.40349 0.48149 0.0
C353 C 0.16689 0.46135 0.45913 0.0
O354 O 0.18544 0.44396 0.40527 0.0
C355 C 0.20964 0.37254 0.43401 0.0
C356 C 0.18425 0.47422 0.40069 0.0
O357 O 0.1913 0.49721 0.4107 0.0
C358 C 0.27843 0.45189 0.42919 0.0
C359 C 0.22819 0.34199 0.43203 0.0
C360 C 0.23435 0.32428 0.4456 0.0
C361 C 0.24775 0.29322 0.44495 0.0
C362 C 0.25655 0.28021 0.43057 0.0
C363 C 0.25078 0.29713 0.41677 0.0
C364 C 0.23626 0.32819 0.41743 0.0
O365 O 0.1933 0.45313 0.4667 0.0
O366 O 0.1663 0.46013 0.44382 0.0
O367 O 0.26633 0.51056 0.46522 0.0
O368 O 0.22593 0.5128 0.44991 0.0
C369 C 0.24804 0.52964 0.4571 0.0
O370 O 0.25133 0.45689 0.4217 0.0
O371 O 0.27742 0.44349 0.44388 0.0
O372 O 0.19365 0.38461 0.42215 0.0
O373 O 0.22123 0.39464 0.44357 0.0
H374 H 0.22673 0.33396 0.45673 0.0
H375 H 0.26707 0.25614 0.43005 0.0
H376 H 0.23076 0.341 0.40678 0.0
O377 O 0.86605 1.00994 0.23006 0.0
Tb378 Tb 0.84743 0.98626 0.20953 0.0
Eu379 Eu 0.87316 0.95241 0.17695 0.0
C380 C 0.88485 0.99441 0.23982 0.0
O381 O 0.896 0.96568 0.23608 0.0
C382 C 0.85031 0.91188 0.20617 0.0
O383 O 0.85885 0.93138 0.1542 0.0
C384 C 0.93565 0.95622 0.17982 0.0
C385 C 0.8292 0.93729 0.14969 0.0
O386 O 0.80957 0.95268 0.15914 0.0
C387 C 0.85195 1.02719 0.17923 0.0
C388 C 0.96538 0.97662 0.17885 0.0
C389 C 0.98037 0.98468 0.19295 0.0
C390 C 1.0105 0.99992 0.19327 0.0
C391 C 1.02586 1.00776 0.17932 0.0
C392 C 1.01217 0.99959 0.16497 0.0
C393 C 0.98151 0.98416 0.16469 0.0
O394 O 0.86346 0.93643 0.21356 0.0
O395 O 0.84754 0.91355 0.191 0.0
O396 O 0.80498 0.99024 0.22403 0.0
O397 O 0.79868 0.97959 0.19996 0.0
C398 C 0.78412 0.98417 0.21318 0.0
O399 O 0.84998 1.00022 0.17125 0.0
O400 O 0.8598 1.0266 0.19405 0.0
O401 O 0.92148 0.94622 0.16703 0.0
O402 O 0.91525 0.96222 0.19124 0.0
H403 H 0.96911 0.97793 0.20386 0.0
H404 H 0.04966 1.01878 0.17964 0.0
H405 H 0.97115 0.97687 0.15369 0.0
O406 O 0.29065 0.61198 0.98216 0.0
Tb407 Tb 0.30984 0.59395 0.96037 0.0
Eu408 Eu 0.34759 0.62523 0.92918 0.0
C409 C 0.30658 0.63219 0.99114 0.0
O410 O 0.33352 0.64541 0.98619 0.0
C411 C 0.38607 0.59635 0.9587 0.0
O412 O 0.36472 0.61767 0.90497 0.0
C413 C 0.34033 0.68683 0.93411 0.0
C414 C 0.37277 0.5884 0.90057 0.0
O415 O 0.37359 0.56499 0.91091 0.0
C416 C 0.27429 0.60303 0.92908 0.0
C417 C 0.32292 0.7181 0.93212 0.0
C418 C 0.31694 0.73536 0.94582 0.0
C419 C 0.30615 0.76733 0.94535 0.0
C420 C 0.2996 0.782 0.93111 0.0
C421 C 0.30475 0.76558 0.91709 0.0
C422 C 0.31658 0.73325 0.91756 0.0
O423 O 0.36011 0.60393 0.96678 0.0
O424 O 0.38628 0.59944 0.94345 0.0
O425 O 0.28796 0.55098 0.97029 0.0
O426 O 0.32245 0.54532 0.95213 0.0
C427 C 0.30322 0.53022 0.96168 0.0
O428 O 0.30179 0.60036 0.92167 0.0
O429 O 0.27394 0.61155 0.94379 0.0
O430 O 0.35793 0.67526 0.92268 0.0
O431 O 0.32776 0.66442 0.94324 0.0
H432 H 0.32297 0.72465 0.95696 0.0
H433 H 0.29124 0.80694 0.93094 0.0
H434 H 0.32195 0.72068 0.90683 0.0
O435 O 0.68607 0.05544 0.73073 0.0
Tb436 Tb 0.707 0.06946 0.70878 0.0
Eu437 Eu 0.68031 0.10526 0.67689 0.0
C438 C 0.69623 0.07095 0.74313 0.0
O439 O 0.71741 0.09442 0.74144 0.0
C440 C 0.70579 0.14495 0.70608 0.0
O441 O 0.69066 0.12675 0.65378 0.0
C442 C 0.61831 0.10032 0.68119 0.0
C443 C 0.72039 0.12424 0.64877 0.0
O444 O 0.74238 0.11168 0.65799 0.0
C445 C 0.70009 0.03105 0.67813 0.0
C446 C 0.58849 0.08014 0.68031 0.0
C447 C 0.57384 0.07215 0.69448 0.0
C448 C 0.54372 0.05698 0.69495 0.0
C449 C 0.52801 0.04917 0.6811 0.0
C450 C 0.54122 0.05757 0.66666 0.0
C451 C 0.57196 0.07281 0.66623 0.0
O452 O 0.69438 0.12003 0.71389 0.0
O453 O 0.70681 0.14365 0.69084 0.0
O454 O 0.7478 0.04738 0.72045 0.0
O455 O 0.75698 0.08078 0.70212 0.0
C456 C 0.77013 0.06186 0.71249 0.0
O457 O 0.70407 0.05818 0.67048 0.0
O458 O 0.6905 0.03181 0.69269 0.0
O459 O 0.631 0.11213 0.6684 0.0
O460 O 0.63993 0.09293 0.69189 0.0
H461 H 0.58534 0.07895 0.70533 0.0
H462 H 0.50426 0.03807 0.68159 0.0
H463 H 0.58207 0.08017 0.65518 0.0
H464 H 0.2102 0.17258 0.86755 0.0
H465 H 0.22356 0.17999 0.89512 0.0
H466 H 0.25856 0.08147 0.89716 0.0
H467 H 0.24754 0.07504 0.86948 0.0
H468 H 0.20441 0.15293 0.92071 0.0
H469 H 0.33479 0.12617 0.91428 0.0
H470 H 0.30858 0.1312 0.89775 0.0
H471 H 0.31031 0.09299 0.90789 0.0
C472 C 0.2211 0.15279 0.87395 0.0
C473 C 0.22873 0.12362 0.8665 0.0
C474 C 0.22858 0.15691 0.88964 0.0
C475 C 0.24303 0.1316 0.89808 0.0
C476 C 0.24881 0.1018 0.89074 0.0
H477 H 0.25505 0.11487 0.99784 0.0
H478 H 0.23741 0.11507 0.97086 0.0
C479 C 0.24236 0.09807 0.87499 0.0
C480 C 0.25206 0.1363 0.91455 0.0
H481 H 0.31431 0.12748 0.94013 0.0
C482 C 0.22854 0.1477 0.92494 0.0
C483 C 0.28368 0.12982 0.92002 0.0
C484 C 0.31083 0.1197 0.90935 0.0
C485 C 0.23561 0.15234 0.9407 0.0
C486 C 0.26678 0.14444 0.94627 0.0
C487 C 0.29038 0.13342 0.93585 0.0
C488 C 0.27556 0.14689 0.96288 0.0
C489 C 0.20977 0.16609 0.95114 0.0
C490 C 0.30308 0.16446 0.96736 0.0
C491 C 0.31358 0.16397 0.98276 0.0
C492 C 0.29665 0.14598 0.99395 0.0
C493 C 0.26843 0.12933 0.98954 0.0
C494 C 0.25818 0.12953 0.97411 0.0
H495 H 0.19175 0.18033 0.94443 0.0
H496 H 0.19675 0.14589 0.9569 0.0
H497 H 0.22031 0.18194 0.96024 0.0
H498 H 0.31693 0.1779 0.95885 0.0
H499 H 0.33547 0.1769 0.98579 0.0
H500 H 0.65227 0.43504 0.12116 0.0
H501 H 0.64606 0.44967 0.14856 0.0
H502 H 0.69266 0.54142 0.13974 0.0
H503 H 0.69808 0.5275 0.11242 0.0
H504 H 0.69418 0.46328 0.16928 0.0
H505 H 0.61343 0.56948 0.16334 0.0
H506 H 0.61981 0.54094 0.14775 0.0
H507 H 0.64866 0.57276 0.15135 0.0
C508 C 0.66064 0.45856 0.12505 0.0
C509 C 0.67526 0.48034 0.11466 0.0
C510 C 0.65715 0.46681 0.14066 0.0
C511 C 0.66826 0.49689 0.14605 0.0
C512 C 0.68299 0.51853 0.1357 0.0
H513 H 0.71643 0.59636 0.22805 0.0
H514 H 0.70461 0.5766 0.20197 0.0
C515 C 0.68618 0.51047 0.1201 0.0
C516 C 0.66633 0.50515 0.16266 0.0
H517 H 0.64282 0.56514 0.18738 0.0
C518 C 0.68241 0.48519 0.17333 0.0
C519 C 0.65095 0.53376 0.16781 0.0
C520 C 0.63197 0.55528 0.15697 0.0
C521 C 0.68504 0.49406 0.18898 0.0
C522 C 0.67083 0.52339 0.19397 0.0
C523 C 0.65367 0.54268 0.18343 0.0
C524 C 0.67595 0.53588 0.20978 0.0
C525 C 0.70437 0.47295 0.19986 0.0
C526 C 0.66312 0.51977 0.2227 0.0
C527 C 0.66983 0.53098 0.23765 0.0
C528 C 0.68944 0.55844 0.2398 0.0
C529 C 0.70139 0.57503 0.22677 0.0
C530 C 0.69463 0.56385 0.21187 0.0
H531 H 0.71803 0.45383 0.19359 0.0
H532 H 0.72169 0.48785 0.20665 0.0
H533 H 0.68778 0.46095 0.20819 0.0
H534 H 0.64829 0.49835 0.22122 0.0
H535 H 0.66022 0.51778 0.24749 0.0
H536 H 0.275 0.91184 0.3619 0.0
H537 H 0.26145 0.90776 0.38949 0.0
H538 H 0.35923 0.93368 0.4016 0.0
H539 H 0.37316 0.93731 0.37411 0.0
H540 H 0.33346 0.88041 0.41854 0.0
H541 H 0.25131 0.98713 0.41836 0.0
H542 H 0.24357 0.95738 0.40359 0.0
H543 H 0.28067 0.97993 0.40325 0.0
C544 C 0.29365 0.91641 0.37045 0.0
C545 C 0.3251 0.92485 0.36587 0.0
C546 C 0.28584 0.91429 0.38616 0.0
C547 C 0.30925 0.92092 0.39749 0.0
C548 C 0.34086 0.92856 0.39297 0.0
H549 H 0.30021 0.94906 0.49664 0.0
H550 H 0.31604 0.94782 0.4693 0.0
C551 C 0.34876 0.9305 0.37727 0.0
C552 C 0.30081 0.91998 0.41409 0.0
H553 H 0.25363 0.95623 0.44152 0.0
C554 C 0.31604 0.89697 0.42359 0.0
C555 C 0.27833 0.94193 0.42058 0.0
C556 C 0.26267 0.96821 0.41099 0.0
C557 C 0.30887 0.89495 0.43945 0.0
C558 C 0.28599 0.91642 0.44584 0.0
C559 C 0.27096 0.93965 0.43642 0.0
C560 C 0.27764 0.91537 0.4624 0.0
C561 C 0.32558 0.86995 0.44936 0.0
C562 C 0.25112 0.89711 0.46743 0.0
C563 C 0.24202 0.89761 0.48303 0.0
C564 C 0.25931 0.91651 0.49378 0.0
C565 C 0.28648 0.93409 0.48869 0.0
C566 C 0.29551 0.93356 0.47309 0.0
H567 H 0.34259 0.85472 0.44257 0.0
H568 H 0.33918 0.88223 0.45879 0.0
H569 H 0.3073 0.85402 0.45491 0.0
H570 H 0.23714 0.88297 0.45923 0.0
H571 H 0.22094 0.88394 0.48657 0.0
H572 H 0.88548 0.52624 0.61278 0.0
H573 H 0.8903 0.51186 0.64027 0.0
H574 H 0.8764 0.61192 0.65301 0.0
H575 H 0.87163 0.62669 0.62559 0.0
H576 H 0.93715 0.56018 0.66545 0.0
H577 H 0.80608 0.53415 0.67415 0.0
H578 H 0.82566 0.5249 0.65595 0.0
H579 H 0.81896 0.56627 0.66131 0.0
C580 C 0.88368 0.54522 0.62142 0.0
C581 C 0.87835 0.57759 0.61707 0.0
C582 C 0.88639 0.53695 0.63706 0.0
C583 C 0.88362 0.5609 0.64848 0.0
C584 C 0.87863 0.59325 0.64423 0.0
H585 H 0.86614 0.55247 0.7479 0.0
H586 H 0.86665 0.56877 0.72067 0.0
C587 C 0.87605 0.60159 0.6286 0.0
C588 C 0.88582 0.5521 0.66493 0.0
H589 H 0.84038 0.52805 0.69581 0.0
C590 C 0.91612 0.55307 0.67214 0.0
C591 C 0.85815 0.5431 0.67343 0.0
C592 C 0.82523 0.54194 0.66592 0.0
C593 C 0.91947 0.54518 0.68788 0.0
C594 C 0.89184 0.53592 0.6964 0.0
C595 C 0.86148 0.53513 0.68915 0.0
C596 C 0.89385 0.52709 0.71292 0.0
C597 C 0.95235 0.54729 0.69536 0.0
C598 C 0.90937 0.49845 0.71749 0.0
C599 C 0.90918 0.489 0.73306 0.0
C600 C 0.89337 0.50808 0.74423 0.0
C601 C 0.87868 0.53729 0.73961 0.0
C602 C 0.87879 0.5466 0.72406 0.0
H603 H 0.9699 0.56064 0.68799 0.0
H604 H 0.95071 0.5595 0.70682 0.0
H605 H 0.96179 0.52245 0.6973 0.0
H606 H 0.9208 0.48296 0.70896 0.0
H607 H 0.92048 0.46628 0.73623 0.0
H608 H 0.73268 0.87487 0.00959 0.0
H609 H 0.7467 0.8732 0.03721 0.0
H610 H 0.8017 0.96143 0.03204 0.0
H611 H 0.78902 0.96258 0.00452 0.0
H612 H 0.8332 0.9204 0.04941 0.0
H613 H 0.70678 0.92899 0.0702 0.0
H614 H 0.71347 0.8943 0.05806 0.0
H615 H 0.71762 0.93444 0.05011 0.0
C616 C 0.74801 0.89369 0.01434 0.0
C617 C 0.7597 0.91882 0.00489 0.0
C618 C 0.75573 0.89289 0.03013 0.0
C619 C 0.77468 0.91756 0.03672 0.0
C620 C 0.78696 0.9422 0.0272 0.0
H621 H 0.78494 0.97084 0.13306 0.0
H622 H 0.7726 0.96495 0.10552 0.0
C623 C 0.77968 0.94277 0.01144 0.0
C624 C 0.7819 0.91804 0.05351 0.0
H625 H 0.74685 0.91933 0.08929 0.0
C626 C 0.81434 0.92018 0.05815 0.0
C627 C 0.75719 0.91855 0.06484 0.0
C628 C 0.72182 0.91931 0.06057 0.0
C629 C 0.82279 0.92296 0.07383 0.0
C630 C 0.79815 0.92188 0.0852 0.0
C631 C 0.76572 0.91963 0.08056 0.0
C632 C 0.80528 0.92461 0.10194 0.0
C633 C 0.85786 0.92841 0.07792 0.0
C634 C 0.82737 0.90357 0.10912 0.0
C635 C 0.835 0.90741 0.12478 0.0
C636 C 0.81978 0.93159 0.13355 0.0
C637 C 0.79674 0.95177 0.12654 0.0
C638 C 0.78974 0.94846 0.11082 0.0
H639 H 0.87157 0.93867 0.06798 0.0
H640 H 0.8604 0.94511 0.08795 0.0
H641 H 0.86914 0.90487 0.08099 0.0
H642 H 0.83888 0.88435 0.1026 0.0
H643 H 0.85274 0.8915 0.13002 0.0
H644 H 0.35299 0.62545 0.87624 0.0
H645 H 0.35492 0.6116 0.84872 0.0
H646 H 0.40314 0.52181 0.85983 0.0
H647 H 0.40012 0.53493 0.88748 0.0
H648 H 0.4043 0.60125 0.82974 0.0
H649 H 0.33017 0.48967 0.83335 0.0
H650 H 0.33348 0.51793 0.84924 0.0
H651 H 0.36464 0.48827 0.84594 0.0
C652 C 0.36413 0.6028 0.87282 0.0
C653 C 0.37637 0.58117 0.88397 0.0
C654 C 0.36511 0.5949 0.8571 0.0
C655 C 0.37857 0.5654 0.85228 0.0
C656 C 0.39178 0.54426 0.86336 0.0
H657 H 0.41643 0.47488 0.76404 0.0
H658 H 0.41615 0.49215 0.79119 0.0
C659 C 0.39034 0.55191 0.87911 0.0
C660 C 0.37931 0.55708 0.8356 0.0
H661 H 0.35824 0.49856 0.80953 0.0
C662 C 0.39408 0.57888 0.8253 0.0
C663 C 0.3656 0.52805 0.82985 0.0
C664 C 0.34728 0.50482 0.84015 0.0
C665 C 0.39634 0.57199 0.80942 0.0
C666 C 0.38352 0.54256 0.80377 0.0
C667 C 0.36839 0.52093 0.81401 0.0
C668 C 0.3854 0.5337 0.78722 0.0
C669 C 0.41288 0.59596 0.79884 0.0
C670 C 0.36842 0.55162 0.77608 0.0
C671 C 0.36864 0.54196 0.76056 0.0
C672 C 0.38568 0.51404 0.75599 0.0
C673 C 0.40325 0.49658 0.76717 0.0
C674 C 0.403 0.50629 0.78268 0.0
H675 H 0.42747 0.61389 0.80543 0.0
H676 H 0.42886 0.58329 0.79045 0.0
H677 H 0.39433 0.60939 0.79212 0.0
H678 H 0.35426 0.57255 0.77945 0.0
H679 H 0.35459 0.55576 0.75227 0.0
H680 H 0.68135 0.15268 0.62719 0.0
H681 H 0.69246 0.15926 0.59942 0.0
H682 H 0.78672 0.11685 0.60573 0.0
H683 H 0.77606 0.1102 0.63344 0.0
H684 H 0.76994 0.18701 0.58634 0.0
H685 H 0.71397 0.06855 0.57028 0.0
H686 H 0.69763 0.09312 0.58577 0.0
H687 H 0.73538 0.07267 0.58843 0.0
C688 C 0.70458 0.14509 0.62268 0.0
C689 C 0.72792 0.13102 0.63244 0.0
C690 C 0.71079 0.14884 0.60688 0.0
C691 C 0.74029 0.13847 0.60073 0.0
C692 C 0.76386 0.12504 0.61044 0.0
H693 H 0.84952 0.11431 0.5206 0.0
H694 H 0.82666 0.12468 0.54623 0.0
C695 C 0.75775 0.12136 0.62622 0.0
C696 C 0.74651 0.14069 0.58404 0.0
H697 H 0.74266 0.09645 0.55073 0.0
C698 C 0.76353 0.16759 0.57843 0.0
C699 C 0.73807 0.11509 0.57398 0.0
C700 C 0.72019 0.08562 0.5798 0.0
C701 C 0.77343 0.16897 0.56292 0.0
C702 C 0.76604 0.14285 0.55299 0.0
C703 C 0.74789 0.11654 0.55845 0.0
C704 C 0.78031 0.14044 0.53746 0.0
C705 C 0.79274 0.19764 0.5573 0.0
C706 C 0.76171 0.1464 0.52419 0.0
C707 C 0.77477 0.14075 0.50949 0.0
C708 C 0.80633 0.12859 0.50801 0.0
C709 C 0.82511 0.12364 0.52139 0.0
C710 C 0.81217 0.12957 0.53601 0.0
H711 H 0.79236 0.21799 0.56574 0.0
H712 H 0.81821 0.19012 0.55548 0.0
H713 H 0.7832 0.20629 0.54598 0.0
H714 H 0.73696 0.15465 0.52523 0.0
H715 H 0.75974 0.1446 0.49936 0.0
H716 H 0.1872 0.50509 0.25202 0.0
H717 H 0.18182 0.48695 0.2789 0.0
H718 H 0.16553 0.58555 0.29352 0.0
H719 H 0.17055 0.60396 0.26668 0.0
H720 H 0.22188 0.50768 0.30333 0.0
H721 H 0.09294 0.53499 0.31528 0.0
H722 H 0.10903 0.53237 0.29583 0.0
H723 H 0.1153 0.56832 0.30723 0.0
C724 C 0.18186 0.52288 0.2609 0.0
C725 C 0.17918 0.55597 0.2572 0.0
C726 C 0.17891 0.51245 0.27625 0.0
C727 C 0.17296 0.53488 0.28813 0.0
C728 C 0.16951 0.56781 0.28445 0.0
H729 H 0.17672 0.53404 0.38782 0.0
H730 H 0.17331 0.54735 0.3602 0.0
C731 C 0.1725 0.57828 0.26911 0.0
C732 C 0.17257 0.52417 0.30448 0.0
H733 H 0.12596 0.52249 0.33712 0.0
C734 C 0.20083 0.51057 0.31069 0.0
C735 C 0.14507 0.52817 0.31401 0.0
C736 C 0.11374 0.54149 0.30774 0.0
C737 C 0.20256 0.50156 0.32635 0.0
C738 C 0.17518 0.50593 0.3359 0.0
C739 C 0.14684 0.51923 0.32968 0.0
C740 C 0.1758 0.49753 0.3525 0.0
C741 C 0.23386 0.4883 0.33272 0.0
C742 C 0.17768 0.46507 0.3572 0.0
C743 C 0.17941 0.45735 0.37295 0.0
C744 C 0.17938 0.48206 0.38419 0.0
C745 C 0.17678 0.51451 0.37942 0.0
C746 C 0.17485 0.52216 0.36368 0.0
H747 H 0.25429 0.49175 0.32452 0.0
H748 H 0.23998 0.50019 0.3439 0.0
H749 H 0.23112 0.46195 0.33495 0.0
H750 H 0.17814 0.44577 0.34867 0.0
H751 H 0.18153 0.43212 0.37627 0.0
H752 H 0.69018 0.65894 0.37071 0.0
H753 H 0.70452 0.66678 0.39808 0.0
H754 H 0.78617 0.60288 0.39234 0.0
H755 H 0.77281 0.59597 0.36504 0.0
H756 H 0.70795 0.62196 0.42077 0.0
H757 H 0.82814 0.67836 0.41344 0.0
H758 H 0.79979 0.67468 0.39761 0.0
H759 H 0.82524 0.64103 0.40293 0.0
C760 C 0.71149 0.64707 0.37527 0.0
C761 C 0.73072 0.62729 0.36576 0.0
C762 C 0.71959 0.6515 0.39086 0.0
C763 C 0.74686 0.63607 0.39709 0.0
C764 C 0.76573 0.61596 0.38762 0.0
H765 H 0.83465 0.57727 0.4794 0.0
H766 H 0.8163 0.59123 0.45339 0.0
C767 C 0.75798 0.61192 0.37203 0.0
C768 C 0.75482 0.63923 0.4137 0.0
H769 H 0.81802 0.65273 0.43821 0.0
C770 C 0.73175 0.62939 0.42467 0.0
C771 C 0.78585 0.64908 0.41868 0.0
C772 C 0.81102 0.6617 0.40753 0.0
C773 C 0.73968 0.62699 0.44044 0.0
C774 C 0.77133 0.63499 0.44525 0.0
C775 C 0.7938 0.64651 0.43441 0.0
C776 C 0.78276 0.62808 0.46109 0.0
C777 C 0.71485 0.61408 0.45169 0.0
C778 C 0.77019 0.64458 0.47397 0.0
C779 C 0.78057 0.63657 0.48892 0.0
C780 C 0.80371 0.61207 0.49111 0.0
C781 C 0.81673 0.5962 0.47811 0.0
C782 C 0.80633 0.60416 0.46324 0.0
H783 H 0.69302 0.60466 0.44568 0.0
H784 H 0.72534 0.59436 0.45886 0.0
H785 H 0.70723 0.63382 0.45962 0.0
H786 H 0.75228 0.66345 0.47245 0.0
H787 H 0.77024 0.64928 0.49873 0.0
H788 H 0.17737 0.03768 0.61183 0.0
H789 H 0.17362 0.05193 0.63934 0.0
H790 H 0.17448 0.95059 0.65157 0.0
H791 H 0.17815 0.93599 0.62411 0.0
H792 H 0.12397 1.02788 0.66214 0.0
H793 H 0.25132 0.99576 0.67612 0.0
H794 H 0.23798 1.00444 0.65658 0.0
H795 H 0.22831 0.96626 0.66541 0.0
C796 C 0.17649 1.01842 0.62036 0.0
C797 C 0.17802 0.98574 0.61584 0.0
C798 C 0.17441 1.02661 0.63603 0.0
C799 C 0.17413 1.00227 0.64736 0.0
C800 C 0.175 0.96963 0.64291 0.0
H801 H 0.18398 1.00254 0.74739 0.0
H802 H 0.18162 0.98801 0.71991 0.0
C803 C 0.17689 0.96139 0.62724 0.0
C804 C 0.17298 1.01101 0.6639 0.0
H805 H 0.21781 1.0109 0.69705 0.0
C806 C 0.14441 1.02427 0.66983 0.0
C807 C 0.19979 1.0061 0.67374 0.0
C808 C 0.23124 0.99257 0.66769 0.0
C809 C 0.14162 0.03218 0.68559 0.0
C810 C 0.16851 1.02746 0.6955 0.0
C811 C 0.1972 1.01437 0.68945 0.0
C812 C 0.16758 0.03591 0.71217 0.0
C813 C 0.10966 0.04469 0.6915 0.0
C814 C 0.16028 0.06761 0.71694 0.0
C815 C 0.16094 0.07577 0.73266 0.0
C816 C 0.16971 0.05255 0.74381 0.0
C817 C 0.17697 1.02085 0.73903 0.0
C818 C 0.17575 1.01257 0.72335 0.0
H819 H 0.0894 0.03738 0.68379 0.0
H820 H 0.10457 0.03575 0.70341 0.0
H821 H 0.11032 0.07157 0.69178 0.0
H822 H 0.1549 0.08626 0.70848 0.0
H823 H 0.15588 0.10056 0.73599 0.0
H824 H 0.78877 0.46293 0.99582 0.0
H825 H 0.80263 0.46292 0.96842 0.0
H826 H 0.75214 0.37222 0.9624 0.0
H827 H 0.73677 0.37281 0.98985 0.0
H828 H 0.83567 0.42527 0.95025 0.0
H829 H 0.70841 0.42715 0.93041 0.0
H830 H 0.71951 0.43217 0.95049 0.0
H831 H 0.7171 0.39225 0.94209 0.0
C832 C 0.78079 0.44276 0.98874 0.0
C833 C 0.7614 0.41794 0.99495 0.0
C834 C 0.78875 0.44284 0.97305 0.0
C835 C 0.77779 0.41796 0.96331 0.0
C836 C 0.76001 0.39216 0.96965 0.0
H837 H 0.85357 0.395 0.86972 0.0
H838 H 0.84159 0.38881 0.89738 0.0
C839 C 0.75153 0.39233 0.98534 0.0
C840 C 0.78449 0.41965 0.9465 0.0
H841 H 0.74825 0.41915 0.91098 0.0
C842 C 0.81657 0.42397 0.94164 0.0
C843 C 0.75941 0.41895 0.93534 0.0
C844 C 0.72417 0.41776 0.93984 0.0
C845 C 0.82431 0.42738 0.92591 0.0
C846 C 0.79944 0.42469 0.91472 0.0
C847 C 0.76735 0.4206 0.91958 0.0
C848 C 0.80588 0.42719 0.89791 0.0
C849 C 0.85882 0.43504 0.92155 0.0
C850 C 0.78863 0.44966 0.88893 0.0
C851 C 0.79463 0.45241 0.87309 0.0
C852 C 0.81831 0.43305 0.86604 0.0
C853 C 0.83527 0.41025 0.87495 0.0
C854 C 0.82872 0.40699 0.89075 0.0
H855 H 0.87206 0.44648 0.93135 0.0
H856 H 0.87155 0.41223 0.91856 0.0
H857 H 0.85997 0.45159 0.9114 0.0
H858 H 0.77087 0.46546 0.89422 0.0
H859 H 0.78148 0.47046 0.86649 0.0
H860 H 0.41542 0.09635 0.11876 0.0
H861 H 0.42471 0.0825 0.14608 0.0
H862 H 0.33473 0.02948 0.14687 0.0
H863 H 0.32658 0.04146 0.11943 0.0
H864 H 0.39301 0.09712 0.17077 0.0
H865 H 0.39111 0.96352 0.16587 0.0
H866 H 0.39241 0.98946 0.14904 0.0
H867 H 0.35452 0.98078 0.15851 0.0
C868 C 0.39801 0.08128 0.12477 0.0
C869 C 0.37071 0.06934 0.11703 0.0
C870 C 0.40323 0.07346 0.14033 0.0
C871 C 0.38086 0.05416 0.14841 0.0
C872 C 0.35302 0.04318 0.14073 0.0
H873 H 0.34734 0.0489 0.24614 0.0
H874 H 0.35073 0.0617 0.21865 0.0
C875 C 0.34828 0.0502 0.1251 0.0
C876 C 0.38581 0.04676 0.16504 0.0
H877 H 0.38393 0.98534 0.19152 0.0
C878 C 0.39151 0.07261 0.17527 0.0
C879 C 0.38428 1.01473 0.1709 0.0
C880 C 0.3806 0.98557 0.16046 0.0
C881 C 0.39472 0.06743 0.19126 0.0
C882 C 0.3911 0.03569 0.1972 0.0
C883 C 0.38643 1.00971 0.18694 0.0
C884 C 0.39052 1.02905 0.21406 0.0
C885 C 0.40203 0.09605 0.20159 0.0
C886 C 0.41134 1.00588 0.22056 0.0
C887 C 0.40917 0.9981 0.23631 0.0
C888 C 0.38611 1.01338 0.24577 0.0
C889 C 0.36565 0.03692 0.23924 0.0
C890 C 0.36766 0.04445 0.22351 0.0
H891 H 0.41475 0.11551 0.1951 0.0
H892 H 0.37902 0.10633 0.20599 0.0
H893 H 0.41713 0.08888 0.21168 0.0
H894 H 0.42896 0.99351 0.2134 0.0
H895 H 0.42507 0.97968 0.24098 0.0
H896 H 0.36939 0.41199 0.62783 0.0
H897 H 0.35536 0.40566 0.60043 0.0
H898 H 0.26093 0.44579 0.60933 0.0
H899 H 0.27443 0.45155 0.63678 0.0
H900 H 0.25929 0.39256 0.58985 0.0
H901 H 0.3506 0.48278 0.57081 0.0
H902 H 0.36707 0.4501 0.58207 0.0
H903 H 0.33902 0.47784 0.59085 0.0
C904 C 0.34552 0.41915 0.62398 0.0
C905 C 0.32301 0.43235 0.6344 0.0
C906 C 0.33765 0.4157 0.60833 0.0
C907 C 0.30735 0.42577 0.60289 0.0
C908 C 0.28447 0.43796 0.61335 0.0
H909 H 0.2588 0.47771 0.5097 0.0
H910 H 0.27007 0.47491 0.53737 0.0
C911 C 0.29223 0.44122 0.62901 0.0
C912 C 0.29974 0.42448 0.5862 0.0
H913 H 0.32334 0.45388 0.55105 0.0
C914 C 0.27324 0.4059 0.58132 0.0
C915 C 0.31771 0.44246 0.57523 0.0
C916 C 0.34498 0.46469 0.57998 0.0
C917 C 0.26423 0.40471 0.56564 0.0
C918 C 0.28284 0.42187 0.5546 0.0
C919 C 0.30936 0.44043 0.55953 0.0
C920 C 0.27435 0.42263 0.53795 0.0
C921 C 0.23433 0.38599 0.56116 0.0
C922 C 0.27283 0.39408 0.5291 0.0
C923 C 0.26592 0.39556 0.51322 0.0
C924 C 0.26117 0.42567 0.50599 0.0
C925 C 0.26273 0.45414 0.51491 0.0
C926 C 0.2691 0.4526 0.53074 0.0
H927 H 0.21836 0.38157 0.57131 0.0
H928 H 0.22029 0.39908 0.55214 0.0
H929 H 0.24154 0.3621 0.55638 0.0
H930 H 0.27751 0.37075 0.5344 0.0
H931 H 0.26495 0.3733 0.50657 0.0
H932 H 0.90866 0.96174 0.26483 0.0
H933 H 0.90764 0.97903 0.29191 0.0
H934 H 0.86821 0.07146 0.27816 0.0
H935 H 0.86825 0.05404 0.25104 0.0
H936 H 0.93625 1.02887 0.30696 0.0
H937 H 0.80278 0.04084 0.30987 0.0
H938 H 0.82306 1.02155 0.29381 0.0
H939 H 0.82084 0.06504 0.2949 0.0
C940 C 0.90009 0.98589 0.26753 0.0
C941 C 0.8884 1.0065 0.25582 0.0
C942 C 0.89942 0.99566 0.28301 0.0
C943 C 0.88719 1.02621 0.28702 0.0
C944 C 0.87693 0.04744 0.27531 0.0
H945 H 0.87876 0.12854 0.37437 0.0
H946 H 0.88266 0.11337 0.34697 0.0
C947 C 0.87728 0.03758 0.25982 0.0
C948 C 0.88512 0.03567 0.3035 0.0
H949 H 0.83244 0.05958 0.33174 0.0
C950 C 0.91355 0.03552 0.31239 0.0
C951 C 0.85535 0.04397 0.31055 0.0
C952 C 0.82372 0.04257 0.30185 0.0
C953 C 0.91307 0.04395 0.32812 0.0
C954 C 0.88352 0.05286 0.335 0.0
C955 C 0.85505 0.05294 0.32623 0.0
C956 C 0.88175 0.06182 0.35143 0.0
C957 C 0.94401 0.04348 0.33736 0.0
C958 C 0.8801 0.03765 0.3628 0.0
C959 C 0.87789 0.04614 0.37842 0.0
C960 C 0.87734 0.07892 0.3828 0.0
C961 C 0.87937 0.10307 0.37133 0.0
C962 C 0.88144 0.09453 0.35572 0.0
H963 H 0.96538 0.03784 0.33005 0.0
H964 H 0.94778 0.06733 0.34305 0.0
H965 H 0.94219 1.02496 0.34668 0.0
H966 H 0.88026 1.01227 0.35957 0.0
H967 H 0.87621 1.02704 0.38701 0.0
H968 H 0.34268 0.65504 0.0153 0.0
H969 H 0.32805 0.6556 0.04278 0.0
H970 H 0.23316 0.61942 0.03135 0.0
H971 H 0.24802 0.61766 0.00391 0.0
H972 H 0.28253 0.6865 0.05895 0.0
H973 H 0.2615 0.55409 0.06304 0.0
H974 H 0.28009 0.57263 0.04632 0.0
H975 H 0.23682 0.57292 0.04851 0.0
C976 C 0.3186 0.64746 0.01862 0.0
C977 C 0.29653 0.63617 0.00746 0.0
C978 C 0.31032 0.64769 0.03434 0.0
C979 C 0.27979 0.63683 0.03915 0.0
C980 C 0.2572 0.62696 0.02795 0.0
H981 H 0.18066 0.62799 0.12722 0.0
H982 H 0.19548 0.63178 0.09979 0.0
C983 C 0.26561 0.62629 0.01226 0.0
C984 C 0.27163 0.63582 0.05588 0.0
H985 H 0.24479 0.58579 0.08472 0.0
C986 C 0.27446 0.66444 0.0646 0.0
C987 C 0.2614 0.6069 0.06326 0.0
C988 C 0.26009 0.57483 0.05484 0.0
C989 C 0.26661 0.66507 0.08043 0.0
C990 C 0.25559 0.63643 0.08763 0.0
C991 C 0.25298 0.60776 0.07902 0.0
C992 C 0.24676 0.6357 0.10419 0.0
C993 C 0.26966 0.69636 0.08936 0.0
C994 C 0.27081 0.6368 0.11562 0.0
C995 C 0.26249 0.63458 0.13129 0.0
C996 C 0.22998 0.63128 0.13571 0.0
C997 C 0.2059 0.63078 0.12419 0.0
C998 C 0.21428 0.63279 0.10853 0.0
H999 H 0.27447 0.71738 0.08164 0.0
H1000 H 0.24724 0.70108 0.09607 0.0
H1001 H 0.28986 0.6943 0.09778 0.0
H1002 H 0.29603 0.63875 0.1124 0.0
H1003 H 0.28157 0.63484 0.13989 0.0
H1004 H 0.69024 0.03343 0.88652 0.0
H1005 H 0.6869 0.045 0.85877 0.0
H1006 H 0.65544 0.94706 0.85003 0.0
H1007 H 0.65881 0.93503 0.87783 0.0
H1008 H 0.72377 1.00101 0.83545 0.0
H1009 H 0.59092 1.01434 0.82655 0.0
H1010 H 0.60963 1.02245 0.84511 0.0
H1011 H 0.60606 0.98156 0.83836 0.0
C1012 C 0.68204 1.01449 0.87876 0.0
C1013 C 0.67473 0.98335 0.88432 0.0
C1014 C 0.68026 1.02113 0.86294 0.0
C1015 C 0.67081 0.99687 0.85253 0.0
C1016 C 0.66251 0.96605 0.85802 0.0
H1017 H 0.66364 1.01575 0.75129 0.0
H1018 H 0.65565 0.99467 0.77765 0.0
C1019 C 0.66447 0.95929 0.87386 0.0
C1020 C 0.67183 1.00345 0.83582 0.0
H1021 H 0.6246 1.02384 0.80492 0.0
C1022 C 0.70214 1.00573 0.8287 0.0
C1023 C 0.64345 1.00916 0.82718 0.0
C1024 C 0.61054 1.0069 0.8346 0.0
C1025 C 0.70489 1.01457 0.8131 0.0
C1026 C 0.67658 1.02192 0.80462 0.0
C1027 C 0.64616 1.01832 0.81157 0.0
C1028 C 0.67852 0.03555 0.78888 0.0
C1029 C 0.73806 1.01644 0.80587 0.0
C1030 C 0.69296 0.06591 0.78669 0.0
C1031 C 0.69757 0.07793 0.77177 0.0
C1032 C 0.6876 0.05985 0.75881 0.0
C1033 C 0.6716 0.03016 0.76108 0.0
C1034 C 0.66707 1.01807 0.77607 0.0
H1035 H 0.75593 1.0017 0.81241 0.0
H1036 H 0.73756 1.008 0.79363 0.0
H1037 H 0.74643 0.042 0.80598 0.0
H1038 H 0.70137 0.07993 0.79653 0.0
H1039 H 0.70966 0.10105 0.7704 0.0
H1040 H 0.20355 0.46703 0.18821 0.0
H1041 H 0.21927 0.41786 0.17425 0.0
H1042 H 0.24744 0.47562 0.13479 0.0
H1043 H 0.231 0.5248 0.14852 0.0
H1044 H 0.21471 0.42329 0.12561 0.0
H1045 H 0.30923 0.38444 0.16718 0.0
H1046 H 0.27023 0.38925 0.17596 0.0
H1047 H 0.2907 0.42397 0.16801 0.0
C1048 C 0.21304 0.46931 0.17655 0.0
C1049 C 0.21609 0.49998 0.16953 0.0
C1050 C 0.22233 0.44111 0.16861 0.0
C1051 C 0.23526 0.4429 0.15354 0.0
C1052 C 0.23778 0.47348 0.14643 0.0
H1053 H 0.34396 0.29883 0.10155 0.0
H1054 H 0.32637 0.34189 0.11931 0.0
C1055 C 0.22837 0.50166 0.15432 0.0
C1056 C 0.2457 0.41303 0.14505 0.0
H1057 H 0.29589 0.34719 0.14716 0.0
C1058 C 0.23245 0.40667 0.13035 0.0
C1059 C 0.26923 0.39143 0.15107 0.0
C1060 C 0.28594 0.39771 0.16635 0.0
C1061 C 0.24185 0.37946 0.12157 0.0
C1062 C 0.26463 0.35728 0.12779 0.0
C1063 C 0.27809 0.36377 0.14245 0.0
C1064 C 0.27588 0.3282 0.11891 0.0
C1065 C 0.22796 0.3754 0.10549 0.0
C1066 C 0.25377 0.30502 0.11336 0.0
C1067 C 0.26389 0.28033 0.10326 0.0
C1068 C 0.29645 0.2778 0.0988 0.0
C1069 C 0.31891 0.29961 0.10517 0.0
C1070 C 0.30876 0.32446 0.11519 0.0
H1071 H 0.21814 0.39856 0.1009 0.0
H1072 H 0.24649 0.36628 0.09726 0.0
H1073 H 0.20785 0.35763 0.1059 0.0
H1074 H 0.22841 0.30683 0.11629 0.0
H1075 H 0.24596 0.26438 0.09821 0.0
H1076 H 0.48371 0.58381 0.34141 0.0
H1077 H 0.44446 0.56515 0.36049 0.0
H1078 H 0.51358 0.4959 0.37789 0.0
H1079 H 0.55287 0.51405 0.3582 0.0
H1080 H 0.45628 0.46744 0.37268 0.0
H1081 H 0.43258 0.57963 0.40574 0.0
H1082 H 0.42709 0.58599 0.38535 0.0
H1083 H 0.46658 0.57592 0.39276 0.0
C1084 C 0.49097 0.56535 0.34965 0.0
C1085 C 0.52165 0.55084 0.34849 0.0
C1086 C 0.46843 0.55466 0.36061 0.0
C1087 C 0.47602 0.52943 0.37092 0.0
C1088 C 0.50714 0.51561 0.37018 0.0
H1089 H 0.33713 0.46568 0.4426 0.0
H1090 H 0.38717 0.48238 0.42948 0.0
C1091 C 0.52979 0.52625 0.35908 0.0
C1092 C 0.45044 0.51602 0.38144 0.0
H1093 H 0.39156 0.53825 0.40727 0.0
C1094 C 0.44252 0.4829 0.38041 0.0
C1095 C 0.43231 0.53595 0.39166 0.0
C1096 C 0.4403 0.57126 0.39406 0.0
C1097 C 0.41634 0.46965 0.38875 0.0
C1098 C 0.39735 0.48997 0.3983 0.0
C1099 C 0.40595 0.52271 0.39984 0.0
C1100 C 0.36766 0.47803 0.40629 0.0
C1101 C 0.40893 0.434 0.38723 0.0
C1102 C 0.34004 0.47007 0.39763 0.0
C1103 C 0.31137 0.46087 0.40508 0.0
C1104 C 0.30974 0.45905 0.42138 0.0
C1105 C 0.33765 0.46641 0.43004 0.0
C1106 C 0.36623 0.47611 0.42256 0.0
H1107 H 0.42929 0.42043 0.38191 0.0
H1108 H 0.40346 0.42333 0.39877 0.0
H1109 H 0.38727 0.43081 0.37978 0.0
H1110 H 0.34042 0.47173 0.38508 0.0
H1111 H 0.29033 0.45552 0.39806 0.0
H1112 H 0.31433 0.77983 0.59054 0.0
H1113 H 0.33016 0.73833 0.60935 0.0
H1114 H 0.23207 0.73356 0.626 0.0
H1115 H 0.21606 0.77495 0.6069 0.0
H1116 H 0.32841 0.72994 0.64089 0.0
H1117 H 0.2483 0.6408 0.61181 0.0
H1118 H 0.25682 0.68013 0.60363 0.0
H1119 H 0.22771 0.67602 0.619 0.0
C1120 C 0.29634 0.7707 0.59856 0.0
C1121 C 0.26401 0.781 0.59736 0.0
C1122 C 0.30538 0.74675 0.60926 0.0
C1123 C 0.28226 0.73217 0.61894 0.0
C1124 C 0.2503 0.74392 0.61848 0.0
H1125 H 0.33424 0.59072 0.69189 0.0
H1126 H 0.31753 0.63982 0.67804 0.0
C1127 C 0.24124 0.76803 0.60775 0.0
C1128 C 0.29146 0.70351 0.62869 0.0
H1129 H 0.2762 0.62271 0.63404 0.0
C1130 C 0.31684 0.70654 0.63946 0.0
C1131 C 0.277 0.67265 0.62661 0.0
C1132 C 0.25117 0.66696 0.61455 0.0
C1133 C 0.32796 0.67983 0.64819 0.0
C1134 C 0.31292 0.64917 0.64639 0.0
C1135 C 0.2876 0.64616 0.6356 0.0
C1136 C 0.32378 0.61957 0.65505 0.0
C1137 C 0.35649 0.68453 0.65886 0.0
C1138 C 0.33226 0.59134 0.64688 0.0
C1139 C 0.34142 0.56311 0.65478 0.0
C1140 C 0.34246 0.56223 0.67112 0.0
C1141 C 0.33417 0.59055 0.67932 0.0
C1142 C 0.32472 0.61879 0.67139 0.0
H1143 H 0.37069 0.70643 0.65572 0.0
H1144 H 0.34768 0.68773 0.67093 0.0
H1145 H 0.37279 0.66317 0.6586 0.0
H1146 H 0.33173 0.59109 0.63431 0.0
H1147 H 0.34751 0.54184 0.64802 0.0
H1148 H 0.26112 0.61041 0.89824 0.0
H1149 H 0.21209 0.59499 0.88421 0.0
H1150 H 0.17079 0.55875 0.9268 0.0
H1151 H 0.21898 0.57629 0.941 0.0
H1152 H 0.18632 0.54107 0.87814 0.0
H1153 H 0.09498 0.60709 0.91279 0.0
H1154 H 0.13768 0.61342 0.9155 0.0
H1155 H 0.11772 0.57933 0.92443 0.0
C1156 C 0.24129 0.59972 0.90465 0.0
C1157 C 0.24372 0.59512 0.92078 0.0
C1158 C 0.21324 0.5907 0.8966 0.0
C1159 C 0.18703 0.5762 0.90438 0.0
C1160 C 0.1898 0.57102 0.9205 0.0
H1161 H 0.03077 0.46984 0.85663 0.0
H1162 H 0.07289 0.48593 0.87535 0.0
C1163 C 0.21755 0.58089 0.92864 0.0
C1164 C 0.15766 0.56548 0.89546 0.0
H1165 H 0.07484 0.56905 0.89439 0.0
C1166 C 0.16203 0.54731 0.88177 0.0
C1167 C 0.12563 0.57363 0.89996 0.0
C1168 C 0.1187 0.59471 0.91387 0.0
C1169 C 0.13567 0.53716 0.87263 0.0
C1170 C 0.10384 0.54469 0.87734 0.0
C1171 C 0.09925 0.5628 0.89094 0.0
C1172 C 0.07536 0.53572 0.86759 0.0
C1173 C 0.14193 0.51909 0.85771 0.0
C1174 C 0.06203 0.55856 0.85738 0.0
C1175 C 0.03803 0.54946 0.84676 0.0
C1176 C 1.0265 0.51733 0.84617 0.0
C1177 C 0.03859 0.49488 0.85701 0.0
C1178 C 0.0629 0.50398 0.86759 0.0
H1179 H 0.16814 0.51635 0.85527 0.0
H1180 H 0.13081 0.49465 0.85835 0.0
H1181 H 0.13049 0.53213 0.84786 0.0
H1182 H 0.0713 0.58312 0.85712 0.0
H1183 H 0.02957 0.56719 0.83842 0.0
H1184 H 0.85848 0.59274 0.81037 0.0
H1185 H 0.84314 0.6429 0.82397 0.0
H1186 H 0.80989 0.58655 0.86296 0.0
H1187 H 0.82563 0.53694 0.84978 0.0
H1188 H 0.78442 0.66438 0.83476 0.0
H1189 H 0.86771 0.65048 0.88457 0.0
H1190 H 0.87118 0.62608 0.86727 0.0
H1191 H 0.84214 0.61582 0.88204 0.0
C1192 C 0.84826 0.5911 0.82192 0.0
C1193 C 0.84379 0.56068 0.82901 0.0
C1194 C 0.83936 0.6198 0.82967 0.0
C1195 C 0.82595 0.61871 0.84468 0.0
C1196 C 0.82102 0.58832 0.85161 0.0
H1197 H 0.71235 0.75226 0.89928 0.0
H1198 H 0.7315 0.71221 0.88034 0.0
C1199 C 0.82995 0.5598 0.84396 0.0
C1200 C 0.81631 0.649 0.85308 0.0
H1201 H 0.82512 0.68919 0.88759 0.0
C1202 C 0.7936 0.66996 0.84624 0.0
C1203 C 0.82837 0.65663 0.86805 0.0
C1204 C 0.85393 0.63624 0.87585 0.0
C1205 C 0.78187 0.6975 0.85416 0.0
C1206 C 0.79297 0.70432 0.86935 0.0
C1207 C 0.81642 0.68397 0.87598 0.0
C1208 C 0.77992 0.73173 0.87885 0.0
C1209 C 0.7577 0.71919 0.8462 0.0
C1210 C 0.80048 0.75648 0.88421 0.0
C1211 C 0.78937 0.77968 0.89489 0.0
C1212 C 0.75749 0.77857 0.90049 0.0
C1213 C 0.73663 0.75449 0.89471 0.0
C1214 C 0.74766 0.73142 0.88396 0.0
H1215 H 0.75675 0.71472 0.83349 0.0
H1216 H 0.73332 0.71455 0.85107 0.0
H1217 H 0.76367 0.74508 0.84825 0.0
H1218 H 0.82553 0.75707 0.88059 0.0
H1219 H 0.80628 0.79721 0.89955 0.0
H1220 H 0.76965 0.5911 0.60272 0.0
H1221 H 0.71994 0.57465 0.61571 0.0
H1222 H 0.66776 0.58367 0.57261 0.0
H1223 H 0.71758 0.60091 0.55951 0.0
H1224 H 0.63324 0.60825 0.59688 0.0
H1225 H 0.67831 0.48647 0.61271 0.0
H1226 H 0.70413 0.51817 0.61971 0.0
H1227 H 0.6992 0.51235 0.59913 0.0
C1228 C 0.74763 0.58972 0.59595 0.0
C1229 C 0.74776 0.59724 0.58 0.0
C1230 C 0.71918 0.58001 0.60341 0.0
C1231 C 0.69011 0.57708 0.59511 0.0
C1232 C 0.68989 0.58545 0.57927 0.0
H1233 H 0.52941 0.47241 0.63996 0.0
H1234 H 0.56913 0.48988 0.6204 0.0
C1235 C 0.71841 0.59537 0.57179 0.0
C1236 C 0.66008 0.56548 0.60305 0.0
H1237 H 0.63034 0.50416 0.62566 0.0
C1238 C 0.6325 0.58532 0.60303 0.0
C1239 C 0.65871 0.53528 0.61087 0.0
C1240 C 0.68655 0.51168 0.61049 0.0
C1241 C 0.60419 0.57643 0.61108 0.0
C1242 C 0.60346 0.5471 0.61968 0.0
C1243 C 0.63068 0.52673 0.6192 0.0
C1244 C 0.57572 0.53795 0.63 0.0
C1245 C 0.57529 0.59861 0.61017 0.0
C1246 C 0.56542 0.55921 0.64173 0.0
C1247 C 0.54239 0.54945 0.65267 0.0
C1248 C 0.52923 0.51797 0.65237 0.0
C1249 C 0.53843 0.49705 0.64028 0.0
C1250 C 0.5615 0.50692 0.62923 0.0
H1251 H 0.57535 0.61277 0.5992 0.0
H1252 H 0.55228 0.58487 0.61092 0.0
H1253 H 0.57626 0.61615 0.61992 0.0
H1254 H 0.57647 0.58285 0.643 0.0
H1255 H 0.53631 0.5659 0.66202 0.0
H1256 H 0.69932 0.51654 0.35148 0.0
H1257 H 0.71636 0.46651 0.36434 0.0
H1258 H 0.73124 0.4214 0.31981 0.0
H1259 H 0.71379 0.47148 0.30678 0.0
H1260 H 0.69113 0.39906 0.36066 0.0
H1261 H 0.82019 0.41491 0.34432 0.0
H1262 H 0.79183 0.44816 0.3444 0.0
H1263 H 0.79056 0.41872 0.32911 0.0
C1264 C 0.70587 0.4959 0.34438 0.0
C1265 C 0.70505 0.49805 0.32807 0.0
C1266 C 0.7156 0.46727 0.35177 0.0
C1267 C 0.72529 0.44023 0.34307 0.0
C1268 C 0.724 0.44201 0.32678 0.0
H1269 H 0.76259 0.2529 0.39111 0.0
H1270 H 0.74375 0.29174 0.37133 0.0
C1271 C 0.71381 0.47058 0.31934 0.0
C1272 C 0.73767 0.41071 0.35114 0.0
H1273 H 0.80706 0.36899 0.35917 0.0
C1274 C 0.7164 0.3922 0.36023 0.0
C1275 C 0.77072 0.4021 0.35074 0.0
C1276 C 0.79486 0.422 0.34172 0.0
C1277 C 0.72733 0.36562 0.3691 0.0
C1278 C 0.7605 0.35684 0.3687 0.0
C1279 C 0.78162 0.37524 0.35939 0.0
C1280 C 0.77444 0.33114 0.37907 0.0
C1281 C 0.70339 0.34819 0.37934 0.0
C1282 C 0.79953 0.33932 0.38932 0.0
C1283 C 0.81083 0.31697 0.40025 0.0
C1284 C 0.79737 0.28569 0.40133 0.0
C1285 C 0.77367 0.27664 0.39047 0.0
C1286 C 0.76246 0.29911 0.37936 0.0
H1287 H 0.68102 0.3626 0.38112 0.0
H1288 H 0.69641 0.32498 0.37377 0.0
H1289 H 0.71406 0.3427 0.39087 0.0
H1290 H 0.80943 0.36364 0.38939 0.0
H1291 H 0.82897 0.32477 0.40852 0.0
H1292 H 0.78548 0.45664 0.10146 0.0
H1293 H 0.83509 0.47273 0.11487 0.0
H1294 H 0.8831 0.48501 0.07092 0.0
H1295 H 0.83347 0.46886 0.05729 0.0
H1296 H 0.91282 0.44289 0.10215 0.0
H1297 H 0.87989 0.57342 0.10669 0.0
H1298 H 0.84875 0.54297 0.10842 0.0
H1299 H 0.86833 0.54915 0.09013 0.0
C1300 C 0.80657 0.46258 0.09459 0.0
C1301 C 0.80539 0.46133 0.07825 0.0
C1302 C 0.83492 0.47181 0.1023 0.0
C1303 C 0.86272 0.48015 0.09389 0.0
C1304 C 0.8619 0.47861 0.07762 0.0
H1305 H 0.02864 0.57792 0.13843 0.0
H1306 H 0.99009 0.55963 0.11845 0.0
C1307 C 0.83352 0.46926 0.06986 0.0
C1308 C 0.8924 0.49076 0.10223 0.0
H1309 H 0.92651 0.55632 0.12011 0.0
C1310 C 0.91605 0.46773 0.10596 0.0
C1311 C 0.89673 0.52322 0.10701 0.0
C1312 C 0.87224 0.54886 0.10288 0.0
C1313 C 0.94357 0.47615 0.1147 0.0
C1314 C 0.94721 0.50839 0.12024 0.0
C1315 C 0.92395 0.53163 0.11598 0.0
C1316 C 0.97335 0.51787 0.13142 0.0
C1317 C 0.96848 0.45027 0.11782 0.0
C1318 C 0.97732 0.50045 0.14528 0.0
C1319 C 0.99964 0.51045 0.15645 0.0
C1320 C 1.01817 0.53878 0.15439 0.0
C1321 C 1.01504 0.55585 0.14033 0.0
C1322 C 0.99274 0.54555 0.12898 0.0
H1323 H 0.96883 0.43198 0.10835 0.0
H1324 H 0.99309 0.46068 0.11902 0.0
H1325 H 0.96218 0.43737 0.12871 0.0
H1326 H 0.96223 0.47966 0.14779 0.0
H1327 H 1.00145 0.49661 0.16711 0.0
H1328 H 0.84096 0.81239 0.59823 0.0
H1329 H 0.82182 0.85282 0.61685 0.0
H1330 H 0.73255 0.79999 0.62193 0.0
H1331 H 0.75166 0.75974 0.60299 0.0
H1332 H 0.72126 0.86261 0.61574 0.0
H1333 H 0.8112 0.85725 0.66315 0.0
H1334 H 0.82978 0.86256 0.64452 0.0
H1335 H 0.80785 0.82584 0.64865 0.0
C1336 C 0.81787 0.80862 0.60388 0.0
C1337 C 0.79828 0.78224 0.59956 0.0
C1338 C 0.80682 0.83189 0.61449 0.0
C1339 C 0.77584 0.82941 0.62109 0.0
C1340 C 0.75666 0.80239 0.61718 0.0
H1341 H 0.70583 0.96986 0.69087 0.0
H1342 H 0.72206 0.91965 0.67764 0.0
C1343 C 0.76775 0.77908 0.60653 0.0
C1344 C 0.76244 0.85649 0.63076 0.0
H1345 H 0.77854 0.90524 0.662 0.0
C1346 C 0.73364 0.8716 0.62597 0.0
C1347 C 0.77828 0.86838 0.6442 0.0
C1348 C 0.80831 0.85245 0.65053 0.0
C1349 C 0.72091 0.89861 0.6339 0.0
C1350 C 0.7376 0.91141 0.64689 0.0
C1351 C 0.7658 0.89571 0.65199 0.0
C1352 C 0.72682 0.94167 0.65496 0.0
C1353 C 0.68955 0.9131 0.62827 0.0
C1354 C 0.72433 0.97094 0.64672 0.0
C1355 C 0.71503 0.99955 0.65422 0.0
C1356 C 0.70804 0.99983 0.67023 0.0
C1357 C 0.71059 0.97052 0.67851 0.0
C1358 C 0.72004 0.9418 0.67097 0.0
H1359 H 0.67507 0.89521 0.6216 0.0
H1360 H 0.67474 0.92213 0.63811 0.0
H1361 H 0.69489 0.93381 0.62046 0.0
H1362 H 0.73013 0.97182 0.63447 0.0
H1363 H 0.71367 1.02161 0.64744 0.0
H1364 H 0.99509 0.09291 0.84762 0.0
H1365 H 0.95442 0.07319 0.86602 0.0
H1366 H 1.00788 0.98441 0.87157 0.0
H1367 H 0.04868 1.00411 0.85298 0.0
H1368 H 0.92589 0.99906 0.85822 0.0
H1369 H 0.97152 1.02717 0.91753 0.0
H1370 H 0.98057 0.05378 0.90143 0.0
H1371 H 0.99872 1.01444 0.90231 0.0
C1372 C 0.99896 0.06982 0.85331 0.0
C1373 C 1.02561 0.05046 0.84918 0.0
C1374 C 0.97551 0.05842 0.8637 0.0
C1375 C 0.97813 1.02738 0.87024 0.0
C1376 C 1.00555 1.00859 0.8668 0.0
H1377 H 0.83893 0.93549 0.93432 0.0
H1378 H 0.88849 0.95074 0.92038 0.0
C1379 C 0.02907 1.02 0.85633 0.0
C1380 C 0.9504 1.01351 0.8791 0.0
H1381 H 0.9193 1.0048 0.91563 0.0
C1382 C 0.92449 1.0001 0.87078 0.0
C1383 C 0.94878 1.01448 0.89547 0.0
C1384 C 0.97628 1.02819 0.90485 0.0
C1385 C 0.89685 0.98799 0.87836 0.0
C1386 C 0.89438 0.99038 0.89477 0.0
C1387 C 0.92081 1.00307 0.9031 0.0
C1388 C 0.86429 0.98087 0.90338 0.0
C1389 C 0.87092 0.97226 0.86859 0.0
C1390 C 0.83406 0.99309 0.8988 0.0
C1391 C 0.80577 0.98385 0.90651 0.0
C1392 C 0.80686 0.9628 0.91937 0.0
C1393 C 0.83717 0.95145 0.92437 0.0
C1394 C 0.86555 0.96027 0.91642 0.0
H1395 H 0.88118 0.96185 0.85777 0.0
H1396 H 0.85831 0.95266 0.87501 0.0
H1397 H 0.85294 0.99084 0.86513 0.0
H1398 H 0.83224 1.01007 0.88926 0.0
H1399 H 0.783 0.99369 0.9025 0.0
H1400 H 0.83288 0.03494 0.14912 0.0
H1401 H 0.81514 0.08411 0.13605 0.0
H1402 H 0.83229 0.13923 0.17771 0.0
H1403 H 0.85019 0.08965 0.1911 0.0
H1404 H 0.7616 0.12576 0.14703 0.0
H1405 H 0.87876 0.19117 0.14155 0.0
H1406 H 0.87691 0.14775 0.14421 0.0
H1407 H 0.86793 0.17424 0.16012 0.0
C1408 C 0.83325 0.05746 0.15558 0.0
C1409 C 0.84317 0.05815 0.17124 0.0
C1410 C 0.82299 0.08565 0.14803 0.0
C1411 C 0.82256 0.11548 0.15582 0.0
C1412 C 0.83279 0.11656 0.17139 0.0
H1413 H 0.77655 0.30251 0.10964 0.0
H1414 H 0.79159 0.26315 0.12997 0.0
C1415 C 0.84297 0.08816 0.17904 0.0
C1416 C 0.80993 0.1448 0.14765 0.0
H1417 H 0.83326 0.21527 0.12994 0.0
C1418 C 0.7772 0.14552 0.14343 0.0
C1419 C 0.83013 0.1708 0.14311 0.0
C1420 C 0.86546 0.17118 0.14737 0.0
C1421 C 0.76421 0.17109 0.1346 0.0
C1422 C 0.78476 0.19628 0.1292 0.0
C1423 C 0.81735 0.19613 0.13394 0.0
C1424 C 0.77356 0.22113 0.11762 0.0
C1425 C 0.72841 0.1707 0.13129 0.0
C1426 C 0.75817 0.21103 0.10392 0.0
C1427 C 0.74882 0.23342 0.09263 0.0
C1428 C 0.75567 0.26674 0.09424 0.0
C1429 C 0.77062 0.27717 0.10805 0.0
C1430 C 0.77955 0.25457 0.1196 0.0
H1431 H 0.71492 0.15876 0.14087 0.0
H1432 H 0.71863 0.19553 0.1297 0.0
H1433 H 0.72383 0.15644 0.12059 0.0
H1434 H 0.75409 0.18555 0.10169 0.0
H1435 H 0.73707 0.22435 0.08226 0.0
H1436 H 0.72324 0.08316 0.44086 0.0
H1437 H 0.67488 0.06485 0.42681 0.0
H1438 H 0.71773 0.09578 0.38365 0.0
H1439 H 0.76642 0.11248 0.39749 0.0
H1440 H 0.63036 0.09234 0.4094 0.0
H1441 H 0.69593 1.00586 0.37183 0.0
H1442 H 0.71519 1.02576 0.388 0.0
H1443 H 0.71108 0.04623 0.36961 0.0
C1444 C 0.72222 0.08617 0.42838 0.0
C1445 C 0.74881 0.09905 0.42029 0.0
C1446 C 0.69459 0.07559 0.42033 0.0
C1447 C 0.69282 0.07793 0.40404 0.0
C1448 C 0.71877 0.0924 0.3961 0.0
H1449 H 0.5402 0.06631 0.33682 0.0
H1450 H 0.5808 0.08253 0.35601 0.0
C1451 C 0.74655 0.10232 0.40407 0.0
C1452 C 0.66399 0.06544 0.39533 0.0
H1453 H 0.64164 1.01841 0.36434 0.0
C1454 C 0.63291 0.07592 0.39966 0.0
C1455 C 0.66695 0.04361 0.38265 0.0
C1456 C 0.69906 0.02946 0.37786 0.0
C1457 C 0.60514 0.06619 0.39137 0.0
C1458 C 0.60837 0.04555 0.37838 0.0
C1459 C 0.6392 0.03432 0.37429 0.0
C1460 C 0.5804 0.03687 0.36828 0.0
C1461 C 0.5724 0.07817 0.3964 0.0
C1462 C 0.56604 1.00598 0.369 0.0
C1463 C 0.54237 0.99674 0.35812 0.0
C1464 C 0.53305 1.01811 0.3462 0.0
C1465 C 0.54662 0.04943 0.34595 0.0
C1466 C 0.56991 0.05871 0.35688 0.0
H1467 H 0.57344 0.09146 0.40761 0.0
H1468 H 0.56246 0.09459 0.38738 0.0
H1469 H 0.55548 0.05741 0.39759 0.0
H1470 H 0.57393 0.98867 0.37766 0.0
H1471 H 0.53282 0.97231 0.35845 0.0
H1472 H 0.30827 0.29503 0.40153 0.0
H1473 H 0.32536 0.25366 0.38277 0.0
H1474 H 0.22868 0.21468 0.38229 0.0
H1475 H 0.21158 0.25652 0.4007 0.0
H1476 H 0.32628 0.19061 0.38854 0.0
H1477 H 0.24922 0.20981 0.33688 0.0
H1478 H 0.25314 0.23987 0.35198 0.0
H1479 H 0.22599 0.2061 0.35435 0.0
C1480 C 0.29037 0.27865 0.39677 0.0
C1481 C 0.25832 0.27977 0.40211 0.0
C1482 C 0.30022 0.25467 0.38623 0.0
C1483 C 0.27829 0.23109 0.38088 0.0
C1484 C 0.24594 0.23299 0.3858 0.0
H1485 H 0.32525 0.03427 0.35277 0.0
H1486 H 0.30978 0.08379 0.36646 0.0
C1487 C 0.23607 0.25708 0.39627 0.0
C1488 C 0.28996 0.20273 0.37159 0.0
H1489 H 0.27558 0.15828 0.33875 0.0
C1490 C 0.31535 0.18381 0.37758 0.0
C1491 C 0.27596 0.19368 0.3572 0.0
C1492 C 0.24979 0.21362 0.34965 0.0
C1493 C 0.32657 0.15597 0.36982 0.0
C1494 C 0.31167 0.14623 0.35579 0.0
C1495 C 0.28683 0.1655 0.34958 0.0
C1496 C 0.32136 0.11604 0.34744 0.0
C1497 C 0.35457 0.13743 0.37668 0.0
C1498 C 0.33242 0.11741 0.33203 0.0
C1499 C 0.34123 0.08903 0.32412 0.0
C1500 C 0.3389 0.05859 0.33142 0.0
C1501 C 0.32758 0.05728 0.34681 0.0
C1502 C 0.31887 0.08565 0.3547 0.0
H1503 H 0.3689 0.15267 0.38479 0.0
H1504 H 0.34518 0.11638 0.38331 0.0
H1505 H 0.37088 0.1282 0.36746 0.0
H1506 H 0.33437 0.14051 0.32612 0.0
H1507 H 0.34959 0.09094 0.31225 0.0
H1508 H 1.00069 0.03941 0.13978 0.0
H1509 H 0.0404 0.05664 0.12008 0.0
H1510 H 0.11093 0.99225 0.14024 0.0
H1511 H 0.07129 0.97436 0.15929 0.0
H1512 H 0.09588 0.08783 0.12416 0.0
H1513 H 0.12612 0.97165 0.09606 0.0
H1514 H 0.09151 0.97585 0.10862 0.0
H1515 H 0.1311 0.96852 0.11665 0.0
C1516 C 1.02426 1.02805 0.13954 0.0
C1517 C 0.03261 1.00503 0.15089 0.0
C1518 C 0.04714 0.03819 0.12842 0.0
C1519 C 0.07876 1.02542 0.12839 0.0
C1520 C 0.08664 1.00185 0.13954 0.0
H1521 H 0.26901 0.07333 0.09829 0.0
H1522 H 0.21896 0.05645 0.11077 0.0
C1523 C 0.06388 0.99163 0.15051 0.0
C1524 C 0.10439 0.03813 0.11764 0.0
H1525 H 0.16638 1.01391 0.09397 0.0
C1526 C 0.11079 0.07167 0.1173 0.0
C1527 C 0.12416 1.01727 0.1086 0.0
C1528 C 0.11763 0.98139 0.10737 0.0
C1529 C 0.13707 0.08451 0.10885 0.0
C1530 C 0.15761 0.0634 0.10051 0.0
C1531 C 0.15071 0.0301 0.10042 0.0
C1532 C 0.18772 0.07502 0.09276 0.0
C1533 C 0.14368 0.12043 0.10935 0.0
C1534 C 0.18694 0.09118 0.07838 0.0
C1535 C 0.2158 0.10084 0.07105 0.0
C1536 C 0.24597 0.09468 0.07803 0.0
C1537 C 0.24639 0.07873 0.09251 0.0
C1538 C 0.21771 0.06894 0.09972 0.0
H1539 H 0.12633 0.13357 0.1169 0.0
H1540 H 0.16858 0.12486 0.11365 0.0
H1541 H 0.14214 0.13058 0.09743 0.0
H1542 H 0.16403 0.09594 0.07275 0.0
H1543 H 0.2145 0.11288 0.0599 0.0
H1544 H 0.25997 0.75561 0.89389 0.0
H1545 H 0.24272 0.79543 0.87424 0.0
H1546 H 0.31751 0.86074 0.88966 0.0
H1547 H 0.33537 0.82076 0.9086 0.0
H1548 H 0.21782 0.85312 0.87899 0.0
H1549 H 0.32849 0.8731 0.84462 0.0
H1550 H 0.3247 0.83949 0.85788 0.0
H1551 H 0.33656 0.87901 0.86483 0.0
C1552 C 0.2736 0.77784 0.89253 0.0
C1553 C 0.29953 0.78467 0.90256 0.0
C1554 C 0.26345 0.80087 0.88145 0.0
C1555 C 0.27903 0.83118 0.88017 0.0
C1556 C 0.30559 0.83738 0.8899 0.0
H1557 H 0.22621 1.02296 0.85087 0.0
H1558 H 0.24337 0.97325 0.86392 0.0
C1559 C 0.31584 0.8144 0.90079 0.0
C1560 C 0.26608 0.85746 0.8698 0.0
H1561 H 0.28898 0.91617 0.84385 0.0
C1562 C 0.23335 0.86643 0.87111 0.0
C1563 C 0.28608 0.87518 0.85942 0.0
C1564 C 0.3208 0.86594 0.85649 0.0
C1565 C 0.22062 0.8931 0.86288 0.0
C1566 C 0.24102 0.91151 0.85313 0.0
C1567 C 0.2734 0.90215 0.85143 0.0
C1568 C 0.22949 0.94142 0.84516 0.0
C1569 C 0.18558 0.90213 0.86487 0.0
C1570 C 0.21587 0.94009 0.83023 0.0
C1571 C 0.20595 0.96862 0.82266 0.0
C1572 C 0.20944 0.99903 0.8299 0.0
C1573 C 0.22289 1.00007 0.84493 0.0
C1574 C 0.23283 0.97164 0.85244 0.0
H1575 H 0.17249 0.88495 0.87256 0.0
H1576 H 0.18381 0.92688 0.86986 0.0
H1577 H 0.17347 0.90261 0.85337 0.0
H1578 H 0.21314 0.91701 0.82439 0.0
H1579 H 0.19589 0.96686 0.81109 0.0
H1580 H 0.48036 0.07986 0.66225 0.0
H1581 H 0.44088 0.06202 0.64312 0.0
H1582 H 0.51439 1.00565 0.62011 0.0
H1583 H 0.55395 1.02248 0.63994 0.0
H1584 H 0.43214 0.06695 0.61364 0.0
H1585 H 0.44894 0.93621 0.62661 0.0
H1586 H 0.46795 0.96753 0.63798 0.0
H1587 H 0.48468 0.95585 0.61952 0.0
C1588 C 0.48829 0.06398 0.65299 0.0
C1589 C 0.52031 0.05244 0.65269 0.0
C1590 C 0.46559 0.05369 0.64203 0.0
C1591 C 0.47414 0.03167 0.6303 0.0
C1592 C 0.50673 1.0218 0.62929 0.0
H1593 H 0.33938 0.9532 0.55936 0.0
H1594 H 0.38912 0.97028 0.57274 0.0
C1595 C 0.52957 0.03193 0.64045 0.0
C1596 C 0.4484 1.01891 0.61961 0.0
H1597 H 0.41049 0.94943 0.60741 0.0
C1598 C 0.4277 0.04121 0.61224 0.0
C1599 C 0.44207 0.98527 0.61776 0.0
C1600 C 0.46184 0.9598 0.62599 0.0
C1601 C 0.40094 0.03098 0.60341 0.0
C1602 C 0.39459 0.99752 0.6017 0.0
C1603 C 0.41559 0.97509 0.60864 0.0
C1604 C 0.36487 0.98569 0.5937 0.0
C1605 C 0.37909 0.05603 0.59617 0.0
C1606 C 0.33482 0.98828 0.6011 0.0
C1607 C 0.3065 0.97843 0.59357 0.0
C1608 C 0.30742 0.96575 0.57838 0.0
C1609 C 0.33769 0.96275 0.57104 0.0
C1610 C 0.36616 0.9725 0.57867 0.0
H1611 H 0.38991 0.08067 0.59645 0.0
H1612 H 0.3736 0.04951 0.58394 0.0
H1613 H 0.35587 0.05669 0.60261 0.0
H1614 H 0.33323 0.99825 0.61271 0.0
H1615 H 0.28377 0.9812 0.59964 0.0
H1616 H 0.60928 0.98624 0.94674 0.0
H1617 H 0.5641 1.01021 0.96102 0.0
H1618 H 0.61006 0.98517 0.00428 0.0
H1619 H 0.6558 0.96218 0.99008 0.0
H1620 H 0.52003 0.98854 0.98008 0.0
H1621 H 0.59203 0.07742 0.01342 0.0
H1622 H 0.60925 0.0539 0.99786 0.0
H1623 H 0.60492 0.03664 0.01696 0.0
C1624 C 0.60986 0.98575 0.95931 0.0
C1625 C 0.63655 0.97223 0.96717 0.0
C1626 C 0.58386 0.9996 0.96751 0.0
C1627 C 0.58361 1.00048 0.98387 0.0
C1628 C 0.60977 0.98602 0.99173 0.0
H1629 H 0.44647 0.06996 0.05443 0.0
H1630 H 0.49182 0.04627 0.04012 0.0
C1631 C 0.63592 0.9724 0.98354 0.0
C1632 C 0.55584 1.01595 0.99258 0.0
H1633 H 0.53724 0.07093 0.02113 0.0
C1634 C 0.52393 1.0067 0.98898 0.0
C1635 C 0.56039 0.03981 0.00428 0.0
C1636 C 0.59346 0.05278 0.00826 0.0
C1637 C 0.49693 1.01984 0.99685 0.0
C1638 C 0.50151 0.04354 0.00861 0.0
C1639 C 0.53339 0.0528 0.01221 0.0
C1640 C 0.47376 0.05886 0.01734 0.0
C1641 C 0.46374 1.00739 0.99273 0.0
C1642 C 0.44841 0.07476 0.0095 0.0
C1643 C 0.4223 0.08843 0.01771 0.0
C1644 C 0.4208 0.08693 0.03405 0.0
C1645 C 0.44659 0.07173 0.04189 0.0
C1646 C 0.47267 0.05805 0.03367 0.0
H1647 H 0.46491 0.98315 0.98714 0.0
H1648 H 0.44807 1.00567 0.00315 0.0
H1649 H 0.45228 1.02431 0.98436 0.0
H1650 H 0.44877 0.07669 0.99697 0.0
H1651 H 0.40307 0.09987 0.01118 0.0
H1652 H 0.7055 0.65525 0.26109 0.0
H1653 H 0.73049 0.70031 0.2471 0.0
H1654 H 0.75615 0.74501 0.2906 0.0
H1655 H 0.73215 0.69937 0.30467 0.0
H1656 H 0.71931 0.7637 0.24556 0.0
H1657 H 0.84225 0.74789 0.26978 0.0
H1658 H 0.81081 0.71819 0.27257 0.0
H1659 H 0.81206 0.75416 0.28439 0.0
C1660 C 0.71652 0.67454 0.26775 0.0
C1661 C 0.7169 0.67322 0.28411 0.0
C1662 C 0.73084 0.70051 0.25967 0.0
C1663 C 0.74611 0.72607 0.26765 0.0
C1664 C 0.74556 0.72535 0.28401 0.0
H1665 H 0.8478 0.90293 0.23787 0.0
H1666 H 0.82243 0.85865 0.25237 0.0
C1667 C 0.73138 0.69927 0.29211 0.0
C1668 C 0.76214 0.75336 0.25882 0.0
H1669 H 0.83352 0.79478 0.25445 0.0
C1670 C 0.74434 0.77032 0.2475 0.0
C1671 C 0.79489 0.76243 0.26121 0.0
C1672 C 0.81624 0.74455 0.27253 0.0
C1673 C 0.75793 0.79605 0.23882 0.0
C1674 C 0.79071 0.80504 0.24117 0.0
C1675 C 0.80848 0.78818 0.25253 0.0
C1676 C 0.8069 0.83189 0.2321 0.0
C1677 C 0.73659 0.81396 0.22751 0.0
C1678 C 0.80754 0.83177 0.21574 0.0
C1679 C 0.82208 0.85724 0.20736 0.0
C1680 C 0.83685 0.8835 0.21507 0.0
C1681 C 0.83689 0.8832 0.23144 0.0
C1682 C 0.82225 0.85777 0.23981 0.0
H1683 H 0.71058 0.81084 0.23034 0.0
H1684 H 0.74222 0.84027 0.22737 0.0
H1685 H 0.74055 0.80416 0.21567 0.0
H1686 H 0.79681 0.81188 0.20937 0.0
H1687 H 0.82147 0.85644 0.19481 0.0
H1688 H 0.95134 0.07805 0.44357 0.0
H1689 H 0.9969 0.05356 0.45765 0.0
H1690 H 0.94951 0.07347 0.5011 0.0
H1691 H 0.90447 0.0982 0.48724 0.0
H1692 H 0.03949 0.07808 0.48055 0.0
H1693 H 0.96801 0.97644 0.50475 0.0
H1694 H 0.95333 1.0016 0.48913 0.0
H1695 H 0.95125 1.01563 0.50887 0.0
C1696 C 0.95063 0.07741 0.45613 0.0
C1697 C 0.92371 0.09 0.46416 0.0
C1698 C 0.97679 0.06327 0.4642 0.0
C1699 C 0.9766 0.06085 0.48052 0.0
C1700 C 0.95017 0.07416 0.48854 0.0
H1701 H 0.10496 0.98217 0.55274 0.0
H1702 H 0.06064 1.00666 0.53786 0.0
C1703 C 0.92427 0.08852 0.48052 0.0
C1704 C 1.00388 0.04472 0.48923 0.0
H1705 H 1.02085 0.98355 0.51499 0.0
C1706 C 0.0354 0.05726 0.48798 0.0
C1707 C 0.99887 1.01755 0.49906 0.0
C1708 C 0.96612 1.00177 0.50047 0.0
C1709 C 0.06155 0.04407 0.49649 0.0
C1710 C 0.05653 1.0169 0.50635 0.0
C1711 C 1.02502 1.00431 0.50753 0.0
C1712 C 0.08355 1.00118 0.51544 0.0
C1713 C 0.09419 0.06014 0.49519 0.0
C1714 C 0.11122 0.989 0.50794 0.0
C1715 C 0.13658 0.97475 0.51644 0.0
C1716 C 0.13511 0.97206 0.53276 0.0
C1717 C 0.10712 0.98369 0.54023 0.0
C1718 C 0.08166 0.99781 0.5317 0.0
H1719 H 0.09209 0.08558 0.49108 0.0
H1720 H 0.10701 0.0601 0.50651 0.0
H1721 H 0.10913 0.04668 0.48667 0.0
H1722 H 0.11327 0.99044 0.49543 0.0
H1723 H 0.15762 0.96626 0.51019 0.0
H1724 H 0.70168 0.15879 0.73733 0.0
H1725 H 0.72528 0.20439 0.7515 0.0
H1726 H 0.76426 0.24206 0.70876 0.0
H1727 H 0.73993 0.19698 0.69448 0.0
H1728 H 0.78488 0.22285 0.75638 0.0
H1729 H 0.72588 0.3233 0.72466 0.0
H1730 H 0.71382 0.28166 0.72208 0.0
H1731 H 0.7487 0.2974 0.71209 0.0
C1732 C 0.71493 0.17694 0.73087 0.0
C1733 C 0.71848 0.1741 0.71464 0.0
C1734 C 0.72858 0.20313 0.73904 0.0
C1735 C 0.74624 0.22746 0.7313 0.0
C1736 C 0.75 0.22451 0.7151 0.0
H1737 H 0.85059 0.40253 0.7612 0.0
H1738 H 0.82752 0.35674 0.74691 0.0
C1739 C 0.73613 0.19844 0.70689 0.0
C1740 C 0.76144 0.25506 0.74027 0.0
H1741 H 0.76816 0.3379 0.74192 0.0
C1742 C 0.781 0.24799 0.75322 0.0
C1743 C 0.75677 0.28815 0.7363 0.0
C1744 C 0.73491 0.29815 0.72312 0.0
C1745 C 0.7963 0.2726 0.762 0.0
C1746 C 0.79162 0.30569 0.75802 0.0
C1747 C 0.77207 0.31275 0.74507 0.0
C1748 C 0.80667 0.33331 0.76704 0.0
C1749 C 0.81812 0.26259 0.77518 0.0
C1750 C 0.80277 0.3361 0.78324 0.0
C1751 C 0.81643 0.36217 0.79152 0.0
C1752 C 0.83398 0.3867 0.78384 0.0
C1753 C 0.83759 0.38409 0.76762 0.0
C1754 C 0.82418 0.35784 0.75937 0.0
H1755 H 0.82725 0.23748 0.77361 0.0
H1756 H 0.83914 0.27914 0.77629 0.0
H1757 H 0.80426 0.26318 0.7862 0.0
H1758 H 0.78858 0.31842 0.78953 0.0
H1759 H 0.81257 0.36344 0.80393 0.0
H1760 H 0.20408 0.20649 0.79791 0.0
H1761 H 0.22568 0.25301 0.78338 0.0
H1762 H 0.27205 0.18751 0.75139 0.0
H1763 H 0.24895 0.14147 0.76522 0.0
H1764 H 0.2825 0.27494 0.77785 0.0
H1765 H 0.23433 0.24392 0.71993 0.0
H1766 H 0.22217 0.2222 0.7371 0.0
H1767 H 0.25946 0.21225 0.72736 0.0
C1768 C 0.21849 0.20207 0.78764 0.0
C1769 C 0.22414 0.1701 0.78261 0.0
C1770 C 0.23098 0.22876 0.7793 0.0
C1771 C 0.24992 0.22428 0.76583 0.0
C1772 C 0.25641 0.19222 0.76119 0.0
H1773 H 0.35261 0.35156 0.69994 0.0
H1774 H 0.32997 0.30584 0.71464 0.0
C1775 C 0.24332 0.16567 0.76926 0.0
C1776 C 0.26394 0.25286 0.75707 0.0
H1777 H 0.27454 0.285 0.72067 0.0
C1778 C 0.28047 0.27716 0.76535 0.0
C1779 C 0.26179 0.25617 0.74066 0.0
C1780 C 0.2432 0.2324 0.73078 0.0
C1781 C 0.29543 0.30376 0.75785 0.0
C1782 C 0.2933 0.30708 0.74143 0.0
C1783 C 0.27661 0.28283 0.73317 0.0
C1784 C 0.30791 0.33531 0.73258 0.0
C1785 C 0.31431 0.32725 0.76776 0.0
C1786 C 0.30307 0.36762 0.73737 0.0
C1787 C 0.31707 0.39367 0.72925 0.0
C1788 C 0.33527 0.3885 0.71567 0.0
C1789 C 0.33903 0.35644 0.71042 0.0
C1790 C 0.3259 0.33022 0.71885 0.0
H1791 H 0.32307 0.31556 0.77859 0.0
H1792 H 0.33547 0.33721 0.76145 0.0
H1793 H 0.29829 0.34755 0.77123 0.0
H1794 H 0.28808 0.37293 0.74732 0.0
H1795 H 0.31288 0.41809 0.73341 0.0
H1796 H 0.26897 0.64756 0.22487 0.0
H1797 H 0.28943 0.69513 0.23844 0.0
H1798 H 0.20754 0.75052 0.22274 0.0
H1799 H 0.18681 0.70253 0.20875 0.0
H1800 H 0.30376 0.75992 0.22483 0.0
H1801 H 0.21259 0.76202 0.27226 0.0
H1802 H 0.22091 0.72585 0.26113 0.0
H1803 H 0.1982 0.75825 0.25259 0.0
C1804 C 0.25506 0.66975 0.22425 0.0
C1805 C 0.22597 0.67092 0.2157 0.0
C1806 C 0.26697 0.69709 0.23205 0.0
C1807 C 0.25003 0.72651 0.23181 0.0
C1808 C 0.22101 0.72805 0.22324 0.0
H1809 H 0.32291 0.91632 0.26118 0.0
H1810 H 0.30007 0.87024 0.24722 0.0
C1811 C 0.20923 0.70063 0.21516 0.0
C1812 C 0.26343 0.7553 0.24039 0.0
H1813 H 0.25288 0.8025 0.27278 0.0
C1814 C 0.29246 0.76937 0.23524 0.0
C1815 C 0.24916 0.76739 0.25417 0.0
C1816 C 0.21858 0.75264 0.26052 0.0
C1817 C 0.30727 0.79524 0.24331 0.0
C1818 C 0.29288 0.8076 0.25702 0.0
C1819 C 0.26402 0.79325 0.26229 0.0
C1820 C 0.30718 0.83576 0.26579 0.0
C1821 C 0.33869 0.80877 0.23725 0.0
C1822 C 0.31857 0.83226 0.28112 0.0
C1823 C 0.33181 0.85885 0.28925 0.0
C1824 C 0.33394 0.88973 0.28229 0.0
C1825 C 0.32239 0.89301 0.26694 0.0
C1826 C 0.30918 0.86653 0.25887 0.0
H1827 H 0.34999 0.79254 0.22852 0.0
H1828 H 0.33409 0.83254 0.23164 0.0
H1829 H 0.35604 0.8127 0.24691 0.0
H1830 H 0.31731 0.80887 0.28679 0.0
H1831 H 0.34011 0.85524 0.30105 0.0
H1832 H 0.9543 0.59053 0.55406 0.0
H1833 H 1.0011 0.56856 0.54002 0.0
H1834 H 0.94133 0.55324 0.4997 0.0
H1835 H 0.89548 0.57667 0.51328 0.0
H1836 H 1.01507 0.51227 0.52842 0.0
H1837 H 1.0133 0.59542 0.4782 0.0
H1838 H 0.98832 0.60213 0.49501 0.0
H1839 H 0.97576 0.57426 0.48004 0.0
C1840 C 0.95126 0.58299 0.54211 0.0
C1841 C 0.92092 0.58604 0.53481 0.0
C1842 C 0.97812 0.57024 0.53406 0.0
C1843 C 0.97544 0.55984 0.5185 0.0
C1844 C 0.94491 0.56216 0.51139 0.0
H1845 H 0.10376 0.46964 0.44931 0.0
H1846 H 0.05801 0.49178 0.46399 0.0
C1847 C 0.91834 0.57544 0.5193 0.0
C1848 C 1.00396 0.54547 0.50991 0.0
H1849 H 0.04587 0.54819 0.47555 0.0
C1850 C 1.02189 0.52041 0.51691 0.0
C1851 C 1.01323 0.55564 0.49478 0.0
C1852 C 0.99683 0.58355 0.48665 0.0
C1853 C 0.0478 0.50486 0.5092 0.0
C1854 C 0.05693 0.51489 0.49403 0.0
C1855 C 0.0391 0.54007 0.48707 0.0
C1856 C 0.08491 0.50007 0.4852 0.0
C1857 C 0.06435 0.47705 0.51734 0.0
C1858 C 0.11579 0.49732 0.49195 0.0
C1859 C 0.14186 0.484 0.48363 0.0
C1860 C 0.13824 0.47368 0.46812 0.0
C1861 C 0.10754 0.47699 0.46124 0.0
C1862 C 0.08128 0.48983 0.46967 0.0
H1863 H 0.04816 0.46546 0.52601 0.0
H1864 H 0.07244 0.45824 0.509 0.0
H1865 H 0.08575 0.48638 0.52369 0.0
H1866 H 0.12006 0.50606 0.50361 0.0
H1867 H 0.16518 0.48259 0.4893 0.0
H1868 H 0.59757 0.46318 0.0522 0.0
H1869 H 0.55192 0.48649 0.0378 0.0
H1870 H 0.61402 0.5024 0.99836 0.0
H1871 H 0.65891 0.47757 0.01233 0.0
H1872 H 0.539 0.54278 0.02686 0.0
H1873 H 0.54273 0.46343 0.97524 0.0
H1874 H 0.56693 0.45533 0.99218 0.0
H1875 H 0.58013 0.48447 0.9779 0.0
C1876 C 0.60135 0.47112 0.04035 0.0
C1877 C 0.63194 0.46771 0.03338 0.0
C1878 C 0.57515 0.48466 0.03209 0.0
C1879 C 0.57877 0.49562 0.01666 0.0
C1880 C 0.60966 0.49302 0.0099 0.0
H1881 H 0.44929 0.58977 0.94841 0.0
H1882 H 0.49575 0.56731 0.96254 0.0
C1883 C 0.63561 0.4789 0.01802 0.0
C1884 C 0.55077 0.51085 0.00794 0.0
H1885 H 0.5096 0.51028 0.97331 0.0
C1886 C 0.53254 0.53538 0.01519 0.0
C1887 C 0.54197 0.50177 0.99258 0.0
C1888 C 0.55877 0.4746 0.98409 0.0
C1889 C 0.50664 0.55123 0.0076 0.0
C1890 C 0.49778 0.54209 0.99226 0.0
C1891 C 0.51609 0.51766 0.98498 0.0
C1892 C 0.46939 0.55688 0.98368 0.0
C1893 C 0.48975 0.57836 0.01608 0.0
C1894 C 0.43855 0.55846 0.99055 0.0
C1895 C 0.4121 0.57193 0.98257 0.0
C1896 C 0.41521 0.5836 0.96725 0.0
C1897 C 0.44585 0.58138 0.9602 0.0
C1898 C 0.47253 0.56836 0.96831 0.0
H1899 H 0.50583 0.5897 0.02487 0.0
H1900 H 0.48135 0.5975 0.00797 0.0
H1901 H 0.46852 0.5684 0.02234 0.0
H1902 H 0.43464 0.54875 0.00206 0.0
H1903 H 0.38888 0.57244 0.98836 0.0
H1904 H 0.3393 0.82247 0.95054 0.0
H1905 H 0.33774 0.85676 0.97363 0.0
H1906 H 0.27048 0.79078 0.99525 0.0
H1907 H 0.27231 0.75593 0.97202 0.0
H1908 H 0.2514 0.85874 0.99334 0.0
H1909 H 0.37341 0.84328 0.01855 0.0
H1910 H 0.37399 0.84758 0.9978 0.0
H1911 H 0.35445 0.81299 0.00639 0.0
C1912 C 0.32439 0.8152 0.96028 0.0
C1913 C 0.30567 0.78691 0.95959 0.0
C1914 C 0.32382 0.8345 0.97349 0.0
C1915 C 0.30444 0.82586 0.98617 0.0
C1916 C 0.28592 0.79742 0.98561 0.0
H1917 H 0.3186 0.98668 0.05316 0.0
H1918 H 0.31272 0.92929 0.04564 0.0
C1919 C 0.28686 0.77774 0.97241 0.0
C1920 C 0.30112 0.84896 0.99906 0.0
H1921 H 0.34777 0.89557 0.02275 0.0
C1922 C 0.27206 0.86614 0.00024 0.0
C1923 C 0.32802 0.85825 0.0081 0.0
C1924 C 0.35916 0.83933 0.00778 0.0
C1925 C 0.27028 0.89458 0.00903 0.0
C1926 C 0.29838 0.906 0.01661 0.0
C1927 C 0.32636 0.88688 0.0168 0.0
C1928 C 0.30095 0.93995 0.0217 0.0
C1929 C 0.239 0.91335 0.00921 0.0
C1930 C 0.29713 0.96449 0.01062 0.0
C1931 C 0.30034 0.99678 0.01484 0.0
C1932 C 0.30792 1.00516 0.03018 0.0
C1933 C 0.31253 0.98066 0.04128 0.0
C1934 C 0.30911 0.94807 0.03703 0.0
H1935 H 0.21792 0.89685 0.00805 0.0
H1936 H 0.23638 0.92768 0.02004 0.0
H1937 H 0.23856 0.93025 0.99919 0.0
H1938 H 0.29197 0.95864 0.99861 0.0
H1939 H 0.29712 1.01519 0.006 0.0
H1940 H 0.9956 0.51574 0.20625 0.0
H1941 H 0.96077 0.51889 0.2289 0.0
H1942 H 1.00876 0.60673 0.24334 0.0
H1943 H 0.04212 0.60519 0.21992 0.0
H1944 H 0.96807 0.51992 0.25952 0.0
H1945 H 0.91773 0.63815 0.23962 0.0
H1946 H 0.94468 0.61454 0.22774 0.0
H1947 H 0.96021 0.63783 0.24374 0.0
C1948 C 0.99865 0.53591 0.21417 0.0
C1949 C 1.02096 0.56075 0.21103 0.0
C1950 C 0.97899 0.53743 0.22724 0.0
C1951 C 0.98161 0.56351 0.2376 0.0
C1952 C 1.00572 0.58691 0.23524 0.0
H1953 H 0.81728 0.60246 0.29972 0.0
H1954 H 0.87436 0.60358 0.29169 0.0
C1955 C 1.02505 0.58575 0.22195 0.0
C1956 C 0.95716 0.56698 0.25 0.0
H1957 H 0.8921 0.61283 0.26043 0.0
C1958 C 0.95185 0.54055 0.25995 0.0
C1959 C 0.93602 0.59396 0.25056 0.0
C1960 C 0.93967 0.62265 0.23979 0.0
C1961 C 0.92481 0.53943 0.2697 0.0
C1962 C 0.90269 0.56547 0.26952 0.0
C1963 C 0.90931 0.59301 0.26054 0.0
C1964 C 0.8701 0.56239 0.27628 0.0
C1965 C 0.91927 0.50967 0.27952 0.0
C1966 C 0.8491 0.53889 0.27026 0.0
C1967 C 0.81684 0.53831 0.27474 0.0
C1968 C 0.80491 0.56134 0.28526 0.0
C1969 C 0.82607 0.58429 0.2917 0.0
C1970 C 0.85853 0.58496 0.28713 0.0
H1971 H 0.94247 0.49765 0.2825 0.0
H1972 H 0.90624 0.51571 0.2904 0.0
H1973 H 0.90447 0.49205 0.27287 0.0
H1974 H 0.85732 0.52186 0.26154 0.0
H1975 H 0.80096 0.5205 0.26952 0.0
H1976 H 0.23973 0.07533 0.55539 0.0
H1977 H 0.24259 0.13341 0.54841 0.0
H1978 H 0.24347 0.10769 0.49989 0.0
H1979 H 0.24111 0.0505 0.50665 0.0
H1980 H 0.29743 0.1546 0.51566 0.0
H1981 H 0.16668 0.18496 0.52001 0.0
H1982 H 0.18651 0.15847 0.53376 0.0
H1983 H 0.17758 0.14421 0.51457 0.0
C1984 C 0.24038 0.08232 0.54327 0.0
C1985 C 0.24046 0.05869 0.53153 0.0
C1986 C 0.24207 0.11525 0.53934 0.0
C1987 C 0.24342 0.12445 0.52368 0.0
C1988 C 0.24271 0.10083 0.51204 0.0
H1989 H 0.22823 0.23077 0.44779 0.0
H1990 H 0.22902 0.19698 0.471 0.0
C1991 C 0.24137 0.06825 0.51592 0.0
C1992 C 0.24602 0.15845 0.51884 0.0
H1993 H 0.19846 0.21658 0.50262 0.0
C1994 C 0.27611 0.16914 0.51339 0.0
C1995 C 0.21798 0.17675 0.51578 0.0
C1996 C 0.18526 0.16574 0.52137 0.0
C1997 C 0.27839 0.19615 0.50361 0.0
C1998 C 0.24988 0.21268 0.49939 0.0
C1999 C 0.22025 0.20383 0.50604 0.0
C2000 C 0.24935 0.23414 0.48579 0.0
C2001 C 0.31058 0.20476 0.4965 0.0
C2002 C 0.2607 0.26608 0.48655 0.0
C2003 C 0.26053 0.28546 0.47323 0.0
C2004 C 0.24919 0.27289 0.45905 0.0
C2005 C 0.23775 0.24087 0.45846 0.0
C2006 C 0.23784 0.22168 0.47172 0.0
H2007 H 0.33066 0.19013 0.50141 0.0
H2008 H 0.30965 0.20069 0.48377 0.0
H2009 H 0.31584 0.23082 0.49845 0.0
H2010 H 0.26966 0.27591 0.49738 0.0
H2011 H 0.26941 0.3101 0.47396 0.0
H2012 H 0.57751 0.4719 0.69695 0.0
H2013 H 0.6121 0.47192 0.71989 0.0
H2014 H 0.53602 0.51655 0.74661 0.0
H2015 H 0.50108 0.51673 0.72348 0.0
H2016 H 0.59775 0.54801 0.7481 0.0
H2017 H 0.60756 0.41661 0.75989 0.0
H2018 H 0.61286 0.42601 0.7397 0.0
H2019 H 0.57464 0.43402 0.74889 0.0
C2020 C 0.56813 0.48162 0.70773 0.0
C2021 C 0.53682 0.49454 0.70849 0.0
C2022 C 0.58771 0.48125 0.72084 0.0
C2023 C 0.57631 0.49371 0.73495 0.0
C2024 C 0.54496 0.50646 0.73583 0.0
H2025 H 0.73463 0.47494 0.80227 0.0
H2026 H 0.67742 0.47665 0.79442 0.0
C2027 C 0.52515 0.50658 0.72268 0.0
C2028 C 0.59864 0.49579 0.74821 0.0
H2029 H 0.65315 0.44971 0.76791 0.0
C2030 C 0.60923 0.52656 0.75286 0.0
C2031 C 0.61314 0.46779 0.75455 0.0
C2032 C 0.60123 0.43423 0.75062 0.0
C2033 C 0.63621 0.53001 0.76253 0.0
C2034 C 0.65305 0.50196 0.76739 0.0
C2035 C 0.64039 0.47121 0.76404 0.0
C2036 C 0.68639 0.50389 0.77338 0.0
C2037 C 0.64751 0.56367 0.76668 0.0
C2038 C 0.71013 0.51837 0.76408 0.0
C2039 C 0.74238 0.51744 0.7685 0.0
C2040 C 0.75163 0.50165 0.78221 0.0
C2041 C 0.72795 0.48745 0.79169 0.0
C2042 C 0.69542 0.48844 0.78724 0.0
H2043 H 0.62675 0.58065 0.76752 0.0
H2044 H 0.66091 0.5639 0.77784 0.0
H2045 H 0.66372 0.57281 0.75739 0.0
H2046 H 0.70387 0.52942 0.75307 0.0
H2047 H 0.76019 0.52835 0.7609 0.0
H2048 H 0.79813 0.05692 0.97241 0.0
H2049 H 0.79731 0.11262 0.98191 0.0
H2050 H 0.70322 0.12666 0.96145 0.0
H2051 H 0.70397 0.07055 0.95179 0.0
H2052 H 0.78487 0.17704 0.96749 0.0
H2053 H 0.69344 0.13388 0.01035 0.0
H2054 H 0.71831 0.10629 0.99936 0.0
H2055 H 0.68522 0.12668 0.99012 0.0
C2056 C 0.77766 0.07216 0.96956 0.0
C2057 C 0.75102 0.0596 0.96148 0.0
C2058 C 0.77728 0.10394 0.97495 0.0
C2059 C 0.75013 0.12345 0.97245 0.0
C2060 C 0.72434 0.11174 0.96347 0.0
H2061 H 0.70465 0.28914 0.03016 0.0
H2062 H 0.70449 0.25347 0.00758 0.0
C2063 C 0.72484 0.07988 0.95792 0.0
C2064 C 0.7475 0.15418 0.98101 0.0
H2065 H 0.71325 0.18655 0.01343 0.0
C2066 C 0.76882 0.17951 0.97737 0.0
C2067 C 0.72688 0.15682 0.99401 0.0
C2068 C 0.70475 0.12949 0.99884 0.0
C2069 C 0.77037 0.20743 0.98663 0.0
C2070 C 0.75032 0.20966 0.99983 0.0
C2071 C 0.72834 0.18476 0.00317 0.0
C2072 C 0.75323 0.23622 0.01117 0.0
C2073 C 0.79372 0.23406 0.98241 0.0
C2074 C 0.78105 0.23879 0.02039 0.0
C2075 C 0.78129 0.25924 0.03329 0.0
C2076 C 0.75365 0.27729 0.03714 0.0
C2077 C 0.72652 0.27599 0.02734 0.0
C2078 C 0.72629 0.25553 0.01448 0.0
H2079 H 0.80138 0.23242 0.97008 0.0
H2080 H 0.78279 0.25825 0.98449 0.0
H2081 H 0.81558 0.23199 0.9898 0.0
H2082 H 0.80185 0.22355 0.01816 0.0
H2083 H 0.80249 0.25983 0.04066 0.0
H2084 H 0.22785 0.49658 0.69629 0.0
H2085 H 0.17103 0.50183 0.7047 0.0
H2086 H 0.20023 0.4849 0.7521 0.0
H2087 H 0.25628 0.48058 0.74393 0.0
H2088 H 0.12814 0.46041 0.72295 0.0
H2089 H 0.15753 0.57519 0.75279 0.0
H2090 H 0.18363 0.55752 0.73828 0.0
H2091 H 0.18515 0.54361 0.75809 0.0
C2092 C 0.22184 0.49365 0.70844 0.0
C2093 C 0.24621 0.48882 0.71954 0.0
C2094 C 0.18959 0.49666 0.71321 0.0
C2095 C 0.18182 0.4946 0.72904 0.0
C2096 C 0.20598 0.48741 0.73988 0.0
H2097 H 0.03733 0.44911 0.79078 0.0
H2098 H 0.07333 0.45073 0.76837 0.0
C2099 C 0.23792 0.48489 0.7352 0.0
C2100 C 0.14902 0.50131 0.7348 0.0
H2101 H 0.11201 0.54522 0.76301 0.0
C2102 C 0.12408 0.47948 0.7314 0.0
C2103 C 0.14365 0.52671 0.74548 0.0
C2104 C 0.16885 0.55229 0.74874 0.0
C2105 C 0.09473 0.48067 0.73953 0.0
C2106 C 0.09091 0.50371 0.75159 0.0
C2107 C 0.11486 0.5273 0.75391 0.0
C2108 C 0.06478 0.50152 0.76327 0.0
C2109 C 0.06865 0.45665 0.7354 0.0
C2110 C 0.04839 0.52961 0.76812 0.0
C2111 C 0.02876 0.52888 0.78129 0.0
C2112 C 1.02485 0.49993 0.78955 0.0
C2113 C 0.0399 0.47155 0.78436 0.0
C2114 C 0.06006 0.47241 0.77143 0.0
H2115 H 0.06893 0.45136 0.72276 0.0
H2116 H 0.07328 0.43348 0.74156 0.0
H2117 H 0.04428 0.46562 0.73865 0.0
H2118 H 0.05193 0.55241 0.76212 0.0
H2119 H 1.01733 0.55099 0.78526 0.0
H2120 H 0.79724 1.0151 0.4927 0.0
H2121 H 0.79349 0.95903 0.501 0.0
H2122 H 0.81684 0.92705 0.45463 0.0
H2123 H 0.82202 0.98403 0.44632 0.0
H2124 H 0.75334 0.91126 0.49109 0.0
H2125 H 0.88236 0.87837 0.48086 0.0
H2126 H 0.86878 0.91989 0.48025 0.0
H2127 H 0.85915 0.89278 0.46463 0.0
C2128 C 0.80158 0.99618 0.48423 0.0
C2129 C 0.80992 1.00373 0.46888 0.0
C2130 C 0.79931 0.96414 0.48898 0.0
C2131 C 0.8049 0.93889 0.47844 0.0
C2132 C 0.81286 0.94623 0.46298 0.0
H2133 H 0.7776 0.75475 0.52956 0.0
H2134 H 0.77505 0.78998 0.50647 0.0
C2135 C 0.81571 0.97862 0.45824 0.0
C2136 C 0.80303 0.90529 0.48426 0.0
H2137 H 0.8516 0.84343 0.49627 0.0
C2138 C 0.77451 0.89584 0.49184 0.0
C2139 C 0.83078 0.8854 0.48521 0.0
C2140 C 0.86212 0.89451 0.4774 0.0
C2141 C 0.7739 0.86874 0.50161 0.0
C2142 C 0.80229 0.8502 0.5034 0.0
C2143 C 0.82991 0.85783 0.49472 0.0
C2144 C 0.80559 0.82722 0.51634 0.0
C2145 C 0.74398 0.8619 0.51108 0.0
C2146 C 0.82385 0.8366 0.52928 0.0
C2147 C 0.825 0.81695 0.54237 0.0
C2148 C 0.8081 0.78749 0.54266 0.0
C2149 C 0.79066 0.77751 0.52952 0.0
C2150 C 0.78923 0.79745 0.51641 0.0
H2151 H 0.72453 0.87991 0.50895 0.0
H2152 H 0.7346 0.83743 0.5082 0.0
H2153 H 0.75 0.8621 0.52365 0.0
H2154 H 0.83654 0.85958 0.52939 0.0
H2155 H 0.83899 0.8248 0.55232 0.0
H2156 H 0.55995 0.5392 0.27693 0.0
H2157 H 0.52736 0.53756 0.25307 0.0
H2158 H 0.44461 0.57178 0.27871 0.0
H2159 H 0.47693 0.57468 0.30221 0.0
H2160 H 0.47162 0.50167 0.2477 0.0
H2161 H 0.44571 0.63225 0.24159 0.0
H2162 H 0.4782 0.61716 0.25361 0.0
H2163 H 0.43748 0.61875 0.26096 0.0
C2164 C 0.53488 0.54666 0.27738 0.0
C2165 C 0.52089 0.55679 0.29144 0.0
C2166 C 0.51638 0.54569 0.2638 0.0
C2167 C 0.48385 0.55519 0.26412 0.0
C2168 C 0.4699 0.56511 0.27815 0.0
H2169 H 0.30788 0.50597 0.23249 0.0
H2170 H 0.36424 0.50644 0.24053 0.0
C2171 C 0.48827 0.56618 0.29163 0.0
C2172 C 0.46331 0.55298 0.25018 0.0
H2173 H 0.40478 0.5954 0.2313 0.0
C2174 C 0.45767 0.52231 0.24372 0.0
C2175 C 0.44566 0.58004 0.24478 0.0
C2176 C 0.45236 0.61395 0.2505 0.0
C2177 C 0.43239 0.51745 0.23315 0.0
C2178 C 0.41221 0.54383 0.22924 0.0
C2179 C 0.42007 0.57507 0.23444 0.0
C2180 C 0.38002 0.5389 0.22227 0.0
C2181 C 0.42646 0.48382 0.22692 0.0
C2182 C 0.37017 0.55696 0.2093 0.0
C2183 C 0.33776 0.55686 0.20473 0.0
C2184 C 0.31491 0.539 0.21322 0.0
C2185 C 0.32511 0.51973 0.22569 0.0
C2186 C 0.35738 0.51978 0.23021 0.0
H2187 H 0.44948 0.47016 0.22587 0.0
H2188 H 0.41069 0.47037 0.23511 0.0
H2189 H 0.41445 0.48453 0.21539 0.0
H2190 H 0.38724 0.57223 0.20318 0.0
H2191 H 0.33033 0.57214 0.19515 0.0
H2192 H 0.83899 0.48223 0.55372 0.0
H2193 H 0.83899 0.42503 0.54555 0.0
H2194 H 0.77057 0.44788 0.50934 0.0
H2195 H 0.76959 0.50403 0.51773 0.0
H2196 H 0.75741 0.38978 0.52291 0.0
H2197 H 0.88753 0.39921 0.50659 0.0
H2198 H 0.87721 0.40593 0.52659 0.0
H2199 H 0.86425 0.43429 0.51205 0.0
C2200 C 0.82353 0.47471 0.54423 0.0
C2201 C 0.80442 0.49742 0.53629 0.0
C2202 C 0.82369 0.4422 0.53953 0.0
C2203 C 0.80509 0.43235 0.52672 0.0
C2204 C 0.78498 0.45488 0.5193 0.0
H2205 H 0.82122 0.33185 0.44679 0.0
H2206 H 0.82112 0.3648 0.47011 0.0
C2207 C 0.78455 0.48703 0.52407 0.0
C2208 C 0.80807 0.39968 0.51983 0.0
H2209 H 0.85838 0.35566 0.49668 0.0
C2210 C 0.77964 0.38171 0.51749 0.0
C2211 C 0.83717 0.38941 0.51277 0.0
C2212 C 0.8683 0.40818 0.51449 0.0
C2213 C 0.77884 0.35557 0.5071 0.0
C2214 C 0.80747 0.34676 0.49925 0.0
C2215 C 0.83652 0.36268 0.50276 0.0
C2216 C 0.8068 0.32573 0.48541 0.0
C2217 C 0.7469 0.33955 0.50354 0.0
C2218 C 0.7985 0.29281 0.48628 0.0
C2219 C 0.79782 0.27389 0.47279 0.0
C2220 C 0.80559 0.28768 0.45832 0.0
C2221 C 0.81418 0.32061 0.45764 0.0
C2222 C 0.81461 0.33941 0.47101 0.0
H2223 H 0.72635 0.35176 0.50942 0.0
H2224 H 0.74236 0.33965 0.49083 0.0
H2225 H 0.74759 0.31394 0.50744 0.0
H2226 H 0.79277 0.28177 0.49734 0.0
H2227 H 0.7912 0.24856 0.47368 0.0
H2228 H 0.51445 1.00266 0.70612 0.0
H2229 H 0.47639 0.99977 0.72785 0.0
H2230 H 0.49422 0.1005 0.73821 0.0
H2231 H 0.53285 0.10329 0.71674 0.0
H2232 H 0.48314 0.06194 0.76497 0.0
H2233 H 0.38989 0.04459 0.71936 0.0
H2234 H 0.42103 1.01437 0.71907 0.0
H2235 H 0.43092 0.05592 0.7149 0.0
C2236 C 0.51082 1.02388 0.71332 0.0
C2237 C 0.52628 0.05322 0.70976 0.0
C2238 C 0.48912 1.02226 0.72566 0.0
C2239 C 0.48211 0.05013 0.73436 0.0
C2240 C 0.49933 0.07879 0.73158 0.0
H2241 H 0.32059 0.10164 0.79354 0.0
H2242 H 0.37493 0.10066 0.78215 0.0
C2243 C 0.52137 0.08033 0.71935 0.0
C2244 C 0.45415 0.05043 0.74495 0.0
H2245 H 0.37248 0.04043 0.74536 0.0
C2246 C 0.45891 0.05719 0.76076 0.0
C2247 C 0.42256 0.04496 0.73926 0.0
C2248 C 0.41565 0.03989 0.7222 0.0
C2249 C 0.4328 0.05742 0.77118 0.0
C2250 C 0.40145 0.0509 0.76552 0.0
C2251 C 0.39672 0.04488 0.74967 0.0
C2252 C 0.37269 0.05003 0.77562 0.0
C2253 C 0.43891 0.06403 0.78813 0.0
C2254 C 0.35392 1.02175 0.77602 0.0
C2255 C 0.32291 1.02245 0.78222 0.0
C2256 C 0.31037 0.05133 0.78829 0.0
C2257 C 0.33006 0.07898 0.78912 0.0
C2258 C 0.36106 0.07842 0.78265 0.0
H2259 H 0.46493 0.06193 0.79113 0.0
H2260 H 0.4309 0.08902 0.79092 0.0
H2261 H 0.42488 0.04702 0.79551 0.0
H2262 H 0.36248 0.99967 0.77058 0.0
H2263 H 0.30804 1.00089 0.78145 0.0
H2264 H 0.73125 0.55063 0.0065 0.0
H2265 H 0.73484 0.60741 0.99919 0.0
H2266 H 0.7396 0.63488 0.04743 0.0
H2267 H 0.73573 0.57714 0.05499 0.0
H2268 H 0.69161 0.66969 0.02084 0.0
H2269 H 0.82378 0.6631 0.0099 0.0
H2270 H 0.8008 0.6277 0.0047 0.0
H2271 H 0.8039 0.63926 0.02474 0.0
C2272 C 0.73289 0.56867 0.0156 0.0
C2273 C 0.7335 0.55966 0.0313 0.0
C2274 C 0.73492 0.60104 0.0114 0.0
C2275 C 0.73786 0.62499 0.02278 0.0
C2276 C 0.73747 0.61643 0.03855 0.0
H2277 H 0.77139 0.80655 0.97137 0.0
H2278 H 0.77052 0.77284 0.99497 0.0
C2279 C 0.73519 0.58369 0.04282 0.0
C2280 C 0.74196 0.65863 0.01758 0.0
H2281 H 0.7938 0.70204 0.99498 0.0
C2282 C 0.71421 0.67765 0.01573 0.0
C2283 C 0.77148 0.66859 0.01089 0.0
C2284 C 0.80183 0.64875 0.01271 0.0
C2285 C 0.71459 0.70488 0.00602 0.0
C2286 C 0.74332 0.71284 0.99805 0.0
C2287 C 0.77183 0.69577 0.00117 0.0
C2288 C 0.74279 0.73426 0.98442 0.0
C2289 C 0.68374 0.72346 0.00335 0.0
C2290 C 0.72795 0.72321 0.97079 0.0
C2291 C 0.72887 0.74195 0.95738 0.0
C2292 C 0.74456 0.7721 0.95742 0.0
C2293 C 0.75922 0.78331 0.97112 0.0
C2294 C 0.75865 0.76426 0.98454 0.0
H2295 H 0.66647 0.72007 0.01309 0.0
H2296 H 0.68876 0.74974 0.00191 0.0
H2297 H 0.67207 0.71459 0.99256 0.0
H2298 H 0.71598 0.69985 0.9705 0.0
H2299 H 0.71701 0.73304 0.94701 0.0
H2300 H 0.24628 0.05755 0.27882 0.0
H2301 H 0.19226 0.05845 0.26753 0.0
H2302 H 0.17619 0.96044 0.2832 0.0
H2303 H 0.23032 0.9597 0.29489 0.0
H2304 H 0.18159 1.01247 0.244 0.0
H2305 H 0.08741 1.00545 0.29 0.0
H2306 H 0.12789 1.01989 0.29381 0.0
H2307 H 0.12053 0.97734 0.2914 0.0
C2308 C 0.23077 0.03662 0.28035 0.0
C2309 C 0.24231 1.0085 0.28762 0.0
C2310 C 0.19998 0.03717 0.27391 0.0
C2311 C 0.18033 1.00955 0.27457 0.0
C2312 C 0.19085 0.98217 0.28282 0.0
H2313 H 1.01981 0.95476 0.21588 0.0
H2314 H 0.05797 0.95799 0.23755 0.0
C2315 C 0.22171 0.98174 0.28946 0.0
C2316 C 0.15178 1.00784 0.26438 0.0
H2317 H 0.06958 1.0016 0.26385 0.0
C2318 C 0.15708 1.01026 0.24835 0.0
C2319 C 0.12004 1.00436 0.27013 0.0
C2320 C 0.11339 1.0018 0.28728 0.0
C2321 C 0.1314 1.00966 0.23784 0.0
C2322 C 0.09951 1.00723 0.24358 0.0
C2323 C 0.09412 1.00396 0.25959 0.0
C2324 C 0.0718 1.00759 0.23286 0.0
C2325 C 0.13868 1.01122 0.22067 0.0
C2326 C 0.06607 0.03492 0.22358 0.0
C2327 C 0.04453 0.0331 0.21118 0.0
C2328 C 0.02813 1.00404 0.20804 0.0
C2329 C 0.03197 0.97753 0.21814 0.0
C2330 C 0.05374 0.9793 0.23048 0.0
H2331 H 0.16427 1.00505 0.21814 0.0
H2332 H 0.12285 0.99444 0.21405 0.0
H2333 H 0.13421 0.03621 0.21641 0.0
H2334 H 0.07963 0.05706 0.22541 0.0
H2335 H 0.04173 0.05391 0.20363 0.0
H2336 H 0.19923 0.78595 0.53387 0.0
H2337 H 0.19911 0.74745 0.51226 0.0
H2338 H 0.29848 0.72339 0.52195 0.0
H2339 H 0.29876 0.76173 0.54364 0.0
H2340 H 0.23906 0.73677 0.48501 0.0
H2341 H 0.24686 0.63864 0.52903 0.0
H2342 H 0.23733 0.68 0.53405 0.0
H2343 H 0.27848 0.66829 0.53046 0.0
C2344 C 0.22129 0.77304 0.53114 0.0
C2345 C 0.24895 0.77651 0.54048 0.0
C2346 C 0.22115 0.75109 0.51883 0.0
C2347 C 0.24862 0.73239 0.51573 0.0
C2348 C 0.27692 0.73739 0.52436 0.0
H2349 H 0.29968 0.56573 0.46468 0.0
H2350 H 0.29849 0.6198 0.47611 0.0
C2351 C 0.27704 0.75916 0.53672 0.0
C2352 C 0.24678 0.70532 0.50463 0.0
H2353 H 0.25246 0.62309 0.50269 0.0
C2354 C 0.24183 0.71187 0.48882 0.0
C2355 C 0.24979 0.67294 0.50978 0.0
C2356 C 0.25309 0.66441 0.52677 0.0
C2357 C 0.24122 0.68664 0.47787 0.0
C2358 C 0.24555 0.65449 0.483 0.0
C2359 C 0.2495 0.64797 0.49885 0.0
C2360 C 0.24735 0.62685 0.47226 0.0
C2361 C 0.23686 0.69431 0.4609 0.0
C2362 C 0.21918 0.61377 0.46569 0.0
C2363 C 0.21987 0.58286 0.459 0.0
C2364 C 0.24864 0.56487 0.45911 0.0
C2365 C 0.27725 0.57926 0.46447 0.0
C2366 C 0.27661 0.61006 0.47099 0.0
H2367 H 0.2366 0.72082 0.45864 0.0
H2368 H 0.2566 0.68306 0.45403 0.0
H2369 H 0.21372 0.68378 0.45678 0.0
H2370 H 0.19632 0.62632 0.46681 0.0
H2371 H 0.19746 0.57198 0.45511 0.0
H2372 H 0.73404 1.01416 0.19832 0.0
H2373 H 0.6785 1.01887 0.20845 0.0
H2374 H 0.7021 0.95179 0.24517 0.0
H2375 H 0.75741 0.94807 0.23548 0.0
H2376 H 0.62617 0.97252 0.21836 0.0
H2377 H 0.68402 0.04103 0.26631 0.0
H2378 H 0.70446 0.03265 0.24824 0.0
H2379 H 0.70181 1.00197 0.26303 0.0
C2380 C 0.72684 0.99973 0.20824 0.0
C2381 C 0.74961 0.98094 0.21626 0.0
C2382 C 0.69532 1.00245 0.21401 0.0
C2383 C 0.68662 0.98604 0.22766 0.0
C2384 C 0.70863 0.9649 0.23472 0.0
H2385 H 0.52477 0.94938 0.28453 0.0
H2386 H 0.5623 0.95019 0.26259 0.0
C2387 C 0.74007 0.96274 0.22919 0.0
C2388 C 0.65648 0.99392 0.23589 0.0
H2389 H 0.63026 1.02274 0.27065 0.0
C2390 C 0.62678 0.984 0.22967 0.0
C2391 C 0.65752 1.00944 0.2505 0.0
C2392 C 0.68863 1.02219 0.25736 0.0
C2393 C 0.59806 0.9877 0.23817 0.0
C2394 C 0.59949 1.00115 0.25327 0.0
C2395 C 0.6291 1.01243 0.25907 0.0
C2396 C 0.57151 1.00184 0.2639 0.0
C2397 C 0.56664 0.97689 0.23099 0.0
C2398 C 0.56398 0.03059 0.27183 0.0
C2399 C 0.54328 0.02995 0.28457 0.0
C2400 C 0.52945 1.00062 0.28941 0.0
C2401 C 0.535 0.97229 0.28083 0.0
C2402 C 0.5562 0.97282 0.26823 0.0
H2403 H 0.56768 0.97831 0.21812 0.0
H2404 H 0.56208 0.95123 0.23417 0.0
H2405 H 0.54605 0.99176 0.23515 0.0
H2406 H 0.57566 0.0532 0.26873 0.0
H2407 H 0.53919 0.05205 0.29106 0.0
H2408 H 0.34897 0.48514 0.95428 0.0
H2409 H 0.35139 0.42919 0.96407 0.0
H2410 H 0.25811 0.44157 0.98558 0.0
H2411 H 0.25571 0.49714 0.97599 0.0
H2412 H 0.34809 0.41979 0.99719 0.0
H2413 H 0.25341 0.34957 0.96648 0.0
H2414 H 0.2715 0.38578 0.95845 0.0
H2415 H 0.24044 0.38885 0.97295 0.0
C2416 C 0.32858 0.47542 0.96065 0.0
C2417 C 0.30215 0.49519 0.96442 0.0
C2418 C 0.33002 0.44363 0.96624 0.0
C2419 C 0.30472 0.43127 0.97533 0.0
C2420 C 0.27751 0.45047 0.97829 0.0
H2421 H 0.25903 0.29883 0.04609 0.0
H2422 H 0.25997 0.33642 0.02411 0.0
C2423 C 0.27626 0.48223 0.97289 0.0
C2424 C 0.30849 0.40058 0.98386 0.0
H2425 H 0.27026 0.32907 0.99136 0.0
C2426 C 0.3317 0.3995 0.99569 0.0
C2427 C 0.28662 0.37462 0.98196 0.0
C2428 C 0.26173 0.37454 0.96918 0.0
C2429 C 0.33246 0.37382 0.0063 0.0
C2430 C 0.30992 0.34826 0.00469 0.0
C2431 C 0.28755 0.3487 0.99247 0.0
C2432 C 0.30769 0.32234 0.0164 0.0
C2433 C 0.35599 0.37528 0.01969 0.0
C2434 C 0.33379 0.30141 0.01893 0.0
C2435 C 0.33351 0.28029 0.03156 0.0
C2436 C 0.30694 0.27957 0.04173 0.0
C2437 C 0.27999 0.2992 0.03856 0.0
C2438 C 0.28038 0.32044 0.02597 0.0
H2439 H 0.36704 0.39968 0.02096 0.0
H2440 H 0.34384 0.36886 0.03076 0.0
H2441 H 0.37572 0.35756 0.01771 0.0
H2442 H 0.35491 0.30238 0.01152 0.0
H2443 H 0.35478 0.26573 0.03377 0.0
H2444 H 0.82113 0.0935 0.69882 0.0
H2445 H 0.87789 0.09223 0.70735 0.0
H2446 H 0.85244 1.02462 0.74359 0.0
H2447 H 0.79669 1.02504 0.73491 0.0
H2448 H 0.89943 0.11192 0.73474 0.0
H2449 H 0.93375 0.9838 0.72842 0.0
H2450 H 0.89858 1.00047 0.71891 0.0
H2451 H 0.89624 0.9862 0.73868 0.0
C2452 C 0.828 0.07781 0.70834 0.0
C2453 C 0.80471 0.05925 0.71616 0.0
C2454 C 0.86031 0.07708 0.7132 0.0
C2455 C 0.86955 0.05769 0.72586 0.0
C2456 C 0.84622 0.03881 0.73344 0.0
H2457 H 0.97697 0.08507 0.80437 0.0
H2458 H 0.94189 0.08526 0.7817 0.0
C2459 C 0.81422 0.03937 0.72856 0.0
C2460 C 0.90232 0.05991 0.73263 0.0
H2461 H 0.95932 1.01291 0.75022 0.0
C2462 C 0.91311 0.09036 0.7377 0.0
C2463 C 0.92055 0.03191 0.73628 0.0
C2464 C 0.91177 0.99885 0.7301 0.0
C2465 C 0.93981 0.09315 0.74759 0.0
C2466 C 0.95555 0.06473 0.75275 0.0
C2467 C 0.94681 0.03464 0.74646 0.0
C2468 C 0.97778 0.06528 0.76614 0.0
C2469 C 0.94996 0.12639 0.75302 0.0
C2470 C 1.0093 0.05303 0.76499 0.0
C2471 C 0.02937 0.05241 0.77806 0.0
C2472 C 1.01792 0.06362 0.79245 0.0
C2473 C 0.98631 0.0758 0.79349 0.0
C2474 C 0.9664 0.07642 0.7805 0.0
H2475 H 0.94393 0.14516 0.74424 0.0
H2476 H 0.93674 0.13248 0.76384 0.0
H2477 H 0.97629 0.12738 0.75546 0.0
H2478 H 1.0183 0.04394 0.75401 0.0
H2479 H 0.0536 0.04278 0.77698 0.0
loop_
_geom_bond_atom_site_label_1
_geom_bond_atom_site_label_2
_geom_bond_distance
_geom_bond_site_symmetry_2
_ccdc_geom_bond_type
O0 Tb1 2.292 . S
O0 C3 1.255 1_554 S
Tb1 O0 2.292 . S
Tb1 O17 2.326 . S
Tb1 O19 2.500 . S
Tb1 O20 2.473 . S
Tb1 O23 2.324 . S
Eu2 O6 2.292 . S
Eu2 C7 2.852 . S
Eu2 O18 2.324 . S
Eu2 O22 2.326 . S
Eu2 O24 2.500 . S
Eu2 O25 2.473 . S
C3 O0 1.255 1_556 S
C3 O4 1.247 . S
O4 C3 1.247 . S
C5 O17 1.242 . S
C5 O18 1.258 . S
O6 Eu2 2.292 . S
O6 C8 1.255 . S
C7 Eu2 2.852 . S
C7 C11 1.503 . S
C7 O24 1.273 . S
C7 O25 1.257 . S
C8 O6 1.255 . S
C8 O9 1.247 . S
O9 C8 1.247 . S
C10 O22 1.242 . S
C10 O23 1.258 . S
C11 C7 1.503 . S
C11 C12 1.379 . S
C11 C16 1.392 . S
C12 C11 1.379 . S
C12 C13 1.404 . S
C12 H26 0.929 . S
C13 C12 1.404 . S
C13 C14 1.389 . S
C14 C13 1.389 . S
C14 C15 1.399 . S
C14 H27 0.931 . S
C15 C14 1.399 . S
C15 C16 1.390 . S
C16 C11 1.392 . S
C16 C15 1.390 . S
C16 H28 0.929 . S
O17 Tb1 2.326 . S
O17 C5 1.242 . S
O18 Eu2 2.324 . S
O18 C5 1.258 . S
O19 Tb1 2.500 . S
O19 C21 1.273 . S
O20 Tb1 2.473 . S
O20 C21 1.257 . S
C21 O19 1.273 . S
C21 O20 1.257 . S
O22 Eu2 2.326 . S
O22 C10 1.242 . S
O23 Tb1 2.324 . S
O23 C10 1.258 . S
O24 Eu2 2.500 . S
O24 C7 1.273 . S
O25 Eu2 2.473 . S
O25 C7 1.257 . S
H26 C12 0.929 . S
H27 C14 0.931 . S
H28 C16 0.929 . S
O29 Tb30 2.292 . S
O29 C32 1.255 . S
Tb30 O29 2.292 . S
Tb30 O46 2.326 . S
Tb30 O48 2.500 . S
Tb30 O49 2.473 . S
Tb30 O52 2.324 . S
Eu31 O35 2.292 . S
Eu31 C36 2.852 . S
Eu31 O47 2.324 . S
Eu31 O51 2.326 . S
Eu31 O53 2.500 . S
Eu31 O54 2.473 . S
C32 O29 1.255 . S
C32 O33 1.247 . S
O33 C32 1.247 . S
C34 O46 1.242 . S
C34 O47 1.258 . S
O35 Eu31 2.292 . S
O35 C37 1.255 . S
C36 Eu31 2.852 . S
C36 C40 1.503 . S
C36 O53 1.273 . S
C36 O54 1.257 . S
C37 O35 1.255 . S
C37 O38 1.247 . S
O38 C37 1.247 . S
C39 O51 1.242 . S
C39 O52 1.258 . S
C40 C36 1.503 . S
C40 C41 1.379 . S
C40 C45 1.392 . S
C41 C40 1.379 . S
C41 C42 1.404 . S
C41 H55 0.929 . S
C42 C41 1.404 . S
C42 C43 1.389 . S
C43 C42 1.389 . S
C43 C44 1.399 . S
C43 H56 0.931 . S
C44 C43 1.399 . S
C44 C45 1.390 . S
C45 C40 1.392 . S
C45 C44 1.390 . S
C45 H57 0.929 . S
O46 Tb30 2.326 . S
O46 C34 1.242 . S
O47 Eu31 2.324 . S
O47 C34 1.258 . S
O48 Tb30 2.500 . S
O48 C50 1.273 . S
O49 Tb30 2.473 . S
O49 C50 1.257 . S
C50 O48 1.273 . S
C50 O49 1.257 . S
O51 Eu31 2.326 . S
O51 C39 1.242 . S
O52 Tb30 2.324 . S
O52 C39 1.258 . S
O53 Eu31 2.500 . S
O53 C36 1.273 . S
O54 Eu31 2.473 . S
O54 C36 1.257 . S
H55 C41 0.929 . S
H56 C43 0.931 . S
H57 C45 0.929 . S
O58 Tb59 2.292 . S
O58 C61 1.255 . S
Tb59 O58 2.292 . S
Tb59 O75 2.326 . S
Tb59 O77 2.500 . S
Tb59 O78 2.473 . S
Tb59 O81 2.324 . S
Eu60 O64 2.292 . S
Eu60 C65 2.852 . S
Eu60 O76 2.324 . S
Eu60 O80 2.326 . S
Eu60 O82 2.500 . S
Eu60 O83 2.473 . S
C61 O58 1.255 . S
C61 O62 1.247 . S
O62 C61 1.247 . S
C63 O75 1.242 . S
C63 O76 1.258 . S
O64 Eu60 2.292 . S
O64 C66 1.255 . S
C65 Eu60 2.852 . S
C65 C69 1.503 . S
C65 O82 1.273 . S
C65 O83 1.257 . S
C66 O64 1.255 . S
C66 O67 1.247 . S
O67 C66 1.247 . S
C68 O80 1.242 . S
C68 O81 1.258 . S
C69 C65 1.503 . S
C69 C70 1.379 . S
C69 C74 1.392 . S
C70 C69 1.379 . S
C70 C71 1.404 . S
C70 H84 0.929 . S
C71 C70 1.404 . S
C71 C72 1.389 . S
C72 C71 1.389 . S
C72 C73 1.399 . S
C72 H85 0.931 . S
C73 C72 1.399 . S
C73 C74 1.390 . S
C74 C69 1.392 . S
C74 C73 1.390 . S
C74 H86 0.929 . S
O75 Tb59 2.326 . S
O75 C63 1.242 . S
O76 Eu60 2.324 . S
O76 C63 1.258 . S
O77 Tb59 2.500 . S
O77 C79 1.273 . S
O78 Tb59 2.473 . S
O78 C79 1.257 . S
C79 O77 1.273 . S
C79 O78 1.257 . S
O80 Eu60 2.326 . S
O80 C68 1.242 . S
O81 Tb59 2.324 . S
O81 C68 1.258 . S
O82 Eu60 2.500 . S
O82 C65 1.273 . S
O83 Eu60 2.473 . S
O83 C65 1.257 . S
H84 C70 0.929 . S
H85 C72 0.931 . S
H86 C74 0.929 . S
O87 Tb88 2.292 . S
O87 C90 1.255 . S
Tb88 O87 2.292 . S
Tb88 O104 2.326 . S
Tb88 O106 2.500 . S
Tb88 O107 2.473 . S
Tb88 O110 2.324 . S
Eu89 O93 2.292 . S
Eu89 C94 2.852 . S
Eu89 O105 2.324 . S
Eu89 O109 2.326 . S
Eu89 O111 2.500 . S
Eu89 O112 2.473 . S
C90 O87 1.255 . S
C90 O91 1.247 . S
O91 C90 1.247 . S
C92 O104 1.242 . S
C92 O105 1.258 . S
O93 Eu89 2.292 . S
O93 C95 1.255 . S
C94 Eu89 2.852 . S
C94 C98 1.503 . S
C94 O111 1.273 . S
C94 O112 1.257 . S
C95 O93 1.255 . S
C95 O96 1.247 . S
O96 C95 1.247 . S
C97 O109 1.242 . S
C97 O110 1.258 . S
C98 C94 1.503 . S
C98 C99 1.379 . S
C98 C103 1.392 . S
C99 C98 1.379 . S
C99 C100 1.404 . S
C99 H113 0.929 . S
C100 C99 1.404 . S
C100 C101 1.392 . S
C101 C100 1.392 . S
C101 C102 1.401 . S
C101 H114 0.926 1_655 S
C102 C101 1.401 . S
C102 C103 1.390 . S
C103 C98 1.392 . S
C103 C102 1.390 . S
C103 H115 0.929 . S
O104 Tb88 2.326 . S
O104 C92 1.242 . S
O105 Eu89 2.324 . S
O105 C92 1.258 . S
O106 Tb88 2.500 . S
O106 C108 1.273 . S
O107 Tb88 2.473 . S
O107 C108 1.257 . S
C108 O106 1.273 . S
C108 O107 1.257 . S
O109 Eu89 2.326 . S
O109 C97 1.242 . S
O110 Tb88 2.324 . S
O110 C97 1.258 . S
O111 Eu89 2.500 . S
O111 C94 1.273 . S
O112 Eu89 2.473 . S
O112 C94 1.257 . S
H113 C99 0.929 . S
H114 C101 0.926 1_455 S
H115 C103 0.929 . S
O116 Tb117 2.292 . S
O116 C119 1.255 1_556 S
Tb117 O116 2.292 . S
Tb117 O133 2.326 . S
Tb117 O135 2.500 . S
Tb117 O136 2.473 . S
Tb117 O139 2.324 . S
Eu118 O122 2.292 . S
Eu118 C123 2.852 . S
Eu118 O134 2.324 . S
Eu118 O138 2.326 . S
Eu118 O140 2.500 . S
Eu118 O141 2.473 . S
C119 O116 1.255 1_554 S
C119 O120 1.247 . S
O120 C119 1.247 . S
C121 O133 1.242 . S
C121 O134 1.258 . S
O122 Eu118 2.292 . S
O122 C124 1.255 . S
C123 Eu118 2.852 . S
C123 C127 1.503 . S
C123 O140 1.273 . S
C123 O141 1.257 . S
C124 O122 1.255 . S
C124 O125 1.247 . S
O125 C124 1.247 . S
C126 O138 1.242 . S
C126 O139 1.258 . S
C127 C123 1.503 . S
C127 C128 1.379 . S
C127 C132 1.392 . S
C128 C127 1.379 . S
C128 C129 1.404 . S
C128 H142 0.929 . S
C129 C128 1.404 . S
C129 C130 1.389 . S
C130 C129 1.389 . S
C130 C131 1.399 . S
C130 H143 0.931 . S
C131 C130 1.399 . S
C131 C132 1.390 . S
C132 C127 1.392 . S
C132 C131 1.390 . S
C132 H144 0.929 . S
O133 Tb117 2.326 . S
O133 C121 1.242 . S
O134 Eu118 2.324 . S
O134 C121 1.258 . S
O135 Tb117 2.500 . S
O135 C137 1.273 . S
O136 Tb117 2.473 . S
O136 C137 1.257 . S
C137 O135 1.273 . S
C137 O136 1.257 . S
O138 Eu118 2.326 . S
O138 C126 1.242 . S
O139 Tb117 2.324 . S
O139 C126 1.258 . S
O140 Eu118 2.500 . S
O140 C123 1.273 . S
O141 Eu118 2.473 . S
O141 C123 1.257 . S
H142 C128 0.929 . S
H143 C130 0.931 . S
H144 C132 0.929 . S
O145 Tb146 2.292 . S
O145 C148 1.255 . S
Tb146 O145 2.292 . S
Tb146 O162 2.326 . S
Tb146 O164 2.500 . S
Tb146 O165 2.473 . S
Tb146 O168 2.324 . S
Eu147 O151 2.292 . S
Eu147 C152 2.852 . S
Eu147 O163 2.324 . S
Eu147 O167 2.326 . S
Eu147 O169 2.500 . S
Eu147 O170 2.473 . S
C148 O145 1.255 . S
C148 O149 1.247 . S
O149 C148 1.247 . S
C150 O162 1.242 . S
C150 O163 1.258 . S
O151 Eu147 2.292 . S
O151 C153 1.255 . S
C152 Eu147 2.852 . S
C152 C156 1.503 . S
C152 O169 1.273 . S
C152 O170 1.257 . S
C153 O151 1.255 . S
C153 O154 1.247 . S
O154 C153 1.247 . S
C155 O167 1.242 . S
C155 O168 1.258 . S
C156 C152 1.503 . S
C156 C157 1.379 . S
C156 C161 1.392 . S
C157 C156 1.379 . S
C157 C158 1.404 . S
C157 H171 0.929 . S
C158 C157 1.404 . S
C158 C159 1.389 . S
C159 C158 1.389 . S
C159 C160 1.399 . S
C159 H172 0.931 . S
C160 C159 1.399 . S
C160 C161 1.390 . S
C161 C156 1.392 . S
C161 C160 1.390 . S
C161 H173 0.929 . S
O162 Tb146 2.326 . S
O162 C150 1.242 . S
O163 Eu147 2.324 . S
O163 C150 1.258 . S
O164 Tb146 2.500 . S
O164 C166 1.273 . S
O165 Tb146 2.473 . S
O165 C166 1.257 . S
C166 O164 1.273 . S
C166 O165 1.257 . S
O167 Eu147 2.326 . S
O167 C155 1.242 . S
O168 Tb146 2.324 . S
O168 C155 1.258 . S
O169 Eu147 2.500 . S
O169 C152 1.273 . S
O170 Eu147 2.473 . S
O170 C152 1.257 . S
H171 C157 0.929 . S
H172 C159 0.931 . S
H173 C161 0.929 . S
O174 Tb175 2.292 . S
O174 C177 1.255 . S
Tb175 O174 2.292 . S
Tb175 O191 2.326 . S
Tb175 O193 2.500 . S
Tb175 O194 2.473 . S
Tb175 O197 2.324 . S
Eu176 O180 2.292 . S
Eu176 C181 2.852 . S
Eu176 O192 2.324 . S
Eu176 O196 2.326 . S
Eu176 O198 2.500 . S
Eu176 O199 2.473 . S
C177 O174 1.255 . S
C177 O178 1.247 . S
O178 C177 1.247 . S
C179 O191 1.242 . S
C179 O192 1.258 . S
O180 Eu176 2.292 . S
O180 C182 1.255 . S
C181 Eu176 2.852 . S
C181 C185 1.503 . S
C181 O198 1.273 . S
C181 O199 1.257 . S
C182 O180 1.255 . S
C182 O183 1.247 . S
O183 C182 1.247 . S
C184 O196 1.242 . S
C184 O197 1.258 . S
C185 C181 1.503 . S
C185 C186 1.379 . S
C185 C190 1.392 . S
C186 C185 1.379 . S
C186 C187 1.404 . S
C186 H200 0.929 . S
C187 C186 1.404 . S
C187 C188 1.389 . S
C188 C187 1.389 . S
C188 C189 1.399 . S
C188 H201 0.931 . S
C189 C188 1.399 . S
C189 C190 1.390 . S
C190 C185 1.392 . S
C190 C189 1.390 . S
C190 H202 0.929 . S
O191 Tb175 2.326 . S
O191 C179 1.242 . S
O192 Eu176 2.324 . S
O192 C179 1.258 . S
O193 Tb175 2.500 . S
O193 C195 1.273 . S
O194 Tb175 2.473 . S
O194 C195 1.257 . S
C195 O193 1.273 . S
C195 O194 1.257 . S
O196 Eu176 2.326 . S
O196 C184 1.242 . S
O197 Tb175 2.324 . S
O197 C184 1.258 . S
O198 Eu176 2.500 . S
O198 C181 1.273 . S
O199 Eu176 2.473 . S
O199 C181 1.257 . S
H200 C186 0.929 . S
H201 C188 0.931 . S
H202 C190 0.929 . S
O203 Tb204 2.292 . S
O203 C206 1.255 . S
Tb204 O203 2.292 . S
Tb204 O220 2.326 . S
Tb204 O222 2.500 . S
Tb204 O223 2.473 . S
Tb204 O226 2.324 . S
Eu205 O209 2.292 . S
Eu205 C210 2.852 . S
Eu205 O221 2.324 . S
Eu205 O225 2.326 . S
Eu205 O227 2.500 . S
Eu205 O228 2.473 . S
C206 O203 1.255 . S
C206 O207 1.247 . S
O207 C206 1.247 . S
C208 O220 1.242 . S
C208 O221 1.258 . S
O209 Eu205 2.292 . S
O209 C211 1.255 . S
C210 Eu205 2.852 . S
C210 C214 1.503 . S
C210 O227 1.273 . S
C210 O228 1.257 . S
C211 O209 1.255 . S
C211 O212 1.247 . S
O212 C211 1.247 . S
C213 O225 1.242 . S
C213 O226 1.258 . S
C214 C210 1.503 . S
C214 C215 1.379 . S
C214 C219 1.392 . S
C215 C214 1.379 . S
C215 C216 1.404 . S
C215 H229 0.929 . S
C216 C215 1.404 . S
C216 C217 1.392 . S
C217 C216 1.392 . S
C217 C218 1.401 . S
C217 H230 0.926 1_455 S
C218 C217 1.401 . S
C218 C219 1.390 . S
C219 C214 1.392 . S
C219 C218 1.390 . S
C219 H231 0.929 . S
O220 Tb204 2.326 . S
O220 C208 1.242 . S
O221 Eu205 2.324 . S
O221 C208 1.258 . S
O222 Tb204 2.500 . S
O222 C224 1.273 . S
O223 Tb204 2.473 . S
O223 C224 1.257 . S
C224 O222 1.273 . S
C224 O223 1.257 . S
O225 Eu205 2.326 . S
O225 C213 1.242 . S
O226 Tb204 2.324 . S
O226 C213 1.258 . S
O227 Eu205 2.500 . S
O227 C210 1.273 . S
O228 Eu205 2.473 . S
O228 C210 1.257 . S
H229 C215 0.929 . S
H230 C217 0.926 1_655 S
H231 C219 0.929 . S
O232 Tb233 2.292 . S
O232 C235 1.255 . S
Tb233 O232 2.292 . S
Tb233 O249 2.326 . S
Tb233 O251 2.500 . S
Tb233 O252 2.473 . S
Tb233 O255 2.324 . S
Eu234 O238 2.292 . S
Eu234 C239 2.852 . S
Eu234 O250 2.324 . S
Eu234 O254 2.326 . S
Eu234 O256 2.500 . S
Eu234 O257 2.473 . S
C235 O232 1.255 . S
C235 O236 1.247 . S
O236 C235 1.247 . S
C237 O249 1.242 . S
C237 O250 1.258 . S
O238 Eu234 2.292 . S
O238 C240 1.255 . S
C239 Eu234 2.852 . S
C239 C243 1.503 . S
C239 O256 1.273 . S
C239 O257 1.257 . S
C240 O238 1.255 . S
C240 O241 1.247 . S
O241 C240 1.247 . S
C242 O254 1.242 . S
C242 O255 1.258 . S
C243 C239 1.503 . S
C243 C244 1.379 . S
C243 C248 1.392 . S
C244 C243 1.379 . S
C244 C245 1.404 . S
C244 H258 0.929 . S
C245 C244 1.404 . S
C245 C246 1.389 . S
C246 C245 1.389 . S
C246 C247 1.399 . S
C246 H259 0.931 . S
C247 C246 1.399 . S
C247 C248 1.390 . S
C248 C243 1.392 . S
C248 C247 1.390 . S
C248 H260 0.929 . S
O249 Tb233 2.326 . S
O249 C237 1.242 . S
O250 Eu234 2.324 . S
O250 C237 1.258 . S
O251 Tb233 2.500 . S
O251 C253 1.273 . S
O252 Tb233 2.473 . S
O252 C253 1.257 . S
C253 O251 1.273 . S
C253 O252 1.257 . S
O254 Eu234 2.326 . S
O254 C242 1.242 . S
O255 Tb233 2.324 . S
O255 C242 1.258 . S
O256 Eu234 2.500 . S
O256 C239 1.273 . S
O257 Eu234 2.473 . S
O257 C239 1.257 . S
H258 C244 0.929 . S
H259 C246 0.931 . S
H260 C248 0.929 . S
O261 Tb262 2.292 . S
O261 C264 1.255 . S
Tb262 O261 2.292 . S
Tb262 O278 2.326 . S
Tb262 O280 2.500 . S
Tb262 O281 2.473 . S
Tb262 O284 2.324 1_545 S
Eu263 O267 2.292 . S
Eu263 C268 2.852 . S
Eu263 O279 2.324 . S
Eu263 O283 2.326 . S
Eu263 O285 2.500 . S
Eu263 O286 2.473 . S
C264 O261 1.255 . S
C264 O265 1.247 . S
O265 C264 1.247 . S
C266 O278 1.242 . S
C266 O279 1.258 . S
O267 Eu263 2.292 . S
O267 C269 1.255 . S
C268 Eu263 2.852 . S
C268 C272 1.503 . S
C268 O285 1.273 . S
C268 O286 1.257 . S
C269 O267 1.255 . S
C269 O270 1.247 . S
O270 C269 1.247 . S
C271 O283 1.242 . S
C271 O284 1.258 1_545 S
C272 C268 1.503 . S
C272 C273 1.379 . S
C272 C277 1.392 . S
C273 C272 1.379 . S
C273 C274 1.404 . S
C273 H287 0.929 . S
C274 C273 1.404 . S
C274 C275 1.392 . S
C275 C274 1.392 . S
C275 C276 1.401 . S
C275 H288 0.926 1_455 S
C276 C275 1.401 . S
C276 C277 1.390 . S
C277 C272 1.392 . S
C277 C276 1.390 . S
C277 H289 0.929 . S
O278 Tb262 2.326 . S
O278 C266 1.242 . S
O279 Eu263 2.324 . S
O279 C266 1.258 . S
O280 Tb262 2.500 . S
O280 C282 1.273 . S
O281 Tb262 2.473 . S
O281 C282 1.257 . S
C282 O280 1.273 . S
C282 O281 1.257 . S
O283 Eu263 2.326 . S
O283 C271 1.242 . S
O284 Tb262 2.324 1_565 S
O284 C271 1.258 1_565 S
O285 Eu263 2.500 . S
O285 C268 1.273 . S
O286 Eu263 2.473 . S
O286 C268 1.257 . S
H287 C273 0.929 . S
H288 C275 0.926 1_655 S
H289 C277 0.929 . S
O290 Tb291 2.292 . S
O290 C293 1.255 1_554 S
Tb291 O290 2.292 . S
Tb291 O307 2.326 . S
Tb291 O309 2.500 . S
Tb291 O310 2.473 . S
Tb291 O313 2.324 . S
Eu292 O296 2.292 . S
Eu292 C297 2.852 . S
Eu292 O308 2.324 . S
Eu292 O312 2.326 . S
Eu292 O314 2.500 . S
Eu292 O315 2.473 . S
C293 O290 1.255 1_556 S
C293 O294 1.247 . S
O294 C293 1.247 . S
C295 O307 1.242 . S
C295 O308 1.258 . S
O296 Eu292 2.292 . S
O296 C298 1.255 . S
C297 Eu292 2.852 . S
C297 C301 1.503 . S
C297 O314 1.273 . S
C297 O315 1.257 . S
C298 O296 1.255 . S
C298 O299 1.247 . S
O299 C298 1.247 . S
C300 O312 1.242 . S
C300 O313 1.258 . S
C301 C297 1.503 . S
C301 C302 1.379 . S
C301 C306 1.392 . S
C302 C301 1.379 . S
C302 C303 1.404 . S
C302 H316 0.929 . S
C303 C302 1.404 . S
C303 C304 1.389 . S
C304 C303 1.389 . S
C304 C305 1.399 . S
C304 H317 0.931 . S
C305 C304 1.399 . S
C305 C306 1.390 . S
C306 C301 1.392 . S
C306 C305 1.390 . S
C306 H318 0.929 . S
O307 Tb291 2.326 . S
O307 C295 1.242 . S
O308 Eu292 2.324 . S
O308 C295 1.258 . S
O309 Tb291 2.500 . S
O309 C311 1.273 . S
O310 Tb291 2.473 . S
O310 C311 1.257 . S
C311 O309 1.273 . S
C311 O310 1.257 . S
O312 Eu292 2.326 . S
O312 C300 1.242 . S
O313 Tb291 2.324 . S
O313 C300 1.258 . S
O314 Eu292 2.500 . S
O314 C297 1.273 . S
O315 Eu292 2.473 . S
O315 C297 1.257 . S
H316 C302 0.929 . S
H317 C304 0.931 . S
H318 C306 0.929 . S
O319 Tb320 2.292 . S
O319 C322 1.255 . S
Tb320 O319 2.292 . S
Tb320 O336 2.326 . S
Tb320 O338 2.500 . S
Tb320 O339 2.473 . S
Tb320 O342 2.324 1_565 S
Eu321 O325 2.292 . S
Eu321 C326 2.852 . S
Eu321 O337 2.324 . S
Eu321 O341 2.326 . S
Eu321 O343 2.500 . S
Eu321 O344 2.473 . S
C322 O319 1.255 . S
C322 O323 1.247 . S
O323 C322 1.247 . S
C324 O336 1.242 . S
C324 O337 1.258 . S
O325 Eu321 2.292 . S
O325 C327 1.255 . S
C326 Eu321 2.852 . S
C326 C330 1.503 . S
C326 O343 1.273 . S
C326 O344 1.257 . S
C327 O325 1.255 . S
C327 O328 1.247 . S
O328 C327 1.247 . S
C329 O341 1.242 . S
C329 O342 1.258 1_565 S
C330 C326 1.503 . S
C330 C331 1.379 . S
C330 C335 1.392 . S
C331 C330 1.379 . S
C331 C332 1.404 . S
C331 H345 0.929 . S
C332 C331 1.404 . S
C332 C333 1.389 . S
C333 C332 1.389 . S
C333 C334 1.399 . S
C333 H346 0.931 . S
C334 C333 1.399 . S
C334 C335 1.390 . S
C335 C330 1.392 . S
C335 C334 1.390 . S
C335 H347 0.929 . S
O336 Tb320 2.326 . S
O336 C324 1.242 . S
O337 Eu321 2.324 . S
O337 C324 1.258 . S
O338 Tb320 2.500 . S
O338 C340 1.273 . S
O339 Tb320 2.473 . S
O339 C340 1.257 . S
C340 O338 1.273 . S
C340 O339 1.257 . S
O341 Eu321 2.326 . S
O341 C329 1.242 . S
O342 Tb320 2.324 1_545 S
O342 C329 1.258 1_545 S
O343 Eu321 2.500 . S
O343 C326 1.273 . S
O344 Eu321 2.473 . S
O344 C326 1.257 . S
H345 C331 0.929 . S
H346 C333 0.931 . S
H347 C335 0.929 . S
O348 Tb349 2.292 . S
O348 C351 1.255 . S
Tb349 O348 2.292 . S
Tb349 O365 2.326 . S
Tb349 O367 2.500 . S
Tb349 O368 2.473 . S
Tb349 O371 2.324 . S
Eu350 O354 2.292 . S
Eu350 C355 2.852 . S
Eu350 O366 2.324 . S
Eu350 O370 2.326 . S
Eu350 O372 2.500 . S
Eu350 O373 2.473 . S
C351 O348 1.255 . S
C351 O352 1.247 . S
O352 C351 1.247 . S
C353 O365 1.242 . S
C353 O366 1.258 . S
O354 Eu350 2.292 . S
O354 C356 1.255 . S
C355 Eu350 2.852 . S
C355 C359 1.503 . S
C355 O372 1.273 . S
C355 O373 1.257 . S
C356 O354 1.255 . S
C356 O357 1.247 . S
O357 C356 1.247 . S
C358 O370 1.242 . S
C358 O371 1.258 . S
C359 C355 1.503 . S
C359 C360 1.379 . S
C359 C364 1.392 . S
C360 C359 1.379 . S
C360 C361 1.404 . S
C360 H374 0.929 . S
C361 C360 1.404 . S
C361 C362 1.389 . S
C362 C361 1.389 . S
C362 C363 1.399 . S
C362 H375 0.931 . S
C363 C362 1.399 . S
C363 C364 1.390 . S
C364 C359 1.392 . S
C364 C363 1.390 . S
C364 H376 0.929 . S
O365 Tb349 2.326 . S
O365 C353 1.242 . S
O366 Eu350 2.324 . S
O366 C353 1.258 . S
O367 Tb349 2.500 . S
O367 C369 1.273 . S
O368 Tb349 2.473 . S
O368 C369 1.257 . S
C369 O367 1.273 . S
C369 O368 1.257 . S
O370 Eu350 2.326 . S
O370 C358 1.242 . S
O371 Tb349 2.324 . S
O371 C358 1.258 . S
O372 Eu350 2.500 . S
O372 C355 1.273 . S
O373 Eu350 2.473 . S
O373 C355 1.257 . S
H374 C360 0.929 . S
H375 C362 0.931 . S
H376 C364 0.929 . S
O377 Tb378 2.292 . S
O377 C380 1.255 . S
Tb378 O377 2.292 . S
Tb378 O394 2.326 . S
Tb378 O396 2.500 . S
Tb378 O397 2.473 . S
Tb378 O400 2.324 1_565 S
Eu379 O383 2.292 . S
Eu379 C384 2.852 . S
Eu379 O395 2.324 . S
Eu379 O399 2.326 . S
Eu379 O401 2.500 . S
Eu379 O402 2.473 . S
C380 O377 1.255 . S
C380 O381 1.247 . S
O381 C380 1.247 . S
C382 O394 1.242 . S
C382 O395 1.258 . S
O383 Eu379 2.292 . S
O383 C385 1.255 . S
C384 Eu379 2.852 . S
C384 C388 1.503 . S
C384 O401 1.273 . S
C384 O402 1.257 . S
C385 O383 1.255 . S
C385 O386 1.247 . S
O386 C385 1.247 . S
C387 O399 1.242 . S
C387 O400 1.258 1_565 S
C388 C384 1.503 . S
C388 C389 1.379 . S
C388 C393 1.392 . S
C389 C388 1.379 . S
C389 C390 1.404 . S
C389 H403 0.929 . S
C390 C389 1.404 . S
C390 C391 1.392 . S
C391 C390 1.392 . S
C391 C392 1.401 . S
C391 H404 0.926 1_655 S
C392 C391 1.401 . S
C392 C393 1.390 . S
C393 C388 1.392 . S
C393 C392 1.390 . S
C393 H405 0.929 . S
O394 Tb378 2.326 . S
O394 C382 1.242 . S
O395 Eu379 2.324 . S
O395 C382 1.258 . S
O396 Tb378 2.500 . S
O396 C398 1.273 . S
O397 Tb378 2.473 . S
O397 C398 1.257 . S
C398 O396 1.273 . S
C398 O397 1.257 . S
O399 Eu379 2.326 . S
O399 C387 1.242 . S
O400 Tb378 2.324 1_545 S
O400 C387 1.258 1_545 S
O401 Eu379 2.500 . S
O401 C384 1.273 . S
O402 Eu379 2.473 . S
O402 C384 1.257 . S
H403 C389 0.929 . S
H404 C391 0.926 1_455 S
H405 C393 0.929 . S
O406 Tb407 2.292 . S
O406 C409 1.255 1_556 S
Tb407 O406 2.292 . S
Tb407 O423 2.326 . S
Tb407 O425 2.500 . S
Tb407 O426 2.473 . S
Tb407 O429 2.324 . S
Eu408 O412 2.292 . S
Eu408 C413 2.852 . S
Eu408 O424 2.324 . S
Eu408 O428 2.326 . S
Eu408 O430 2.500 . S
Eu408 O431 2.473 . S
C409 O406 1.255 1_554 S
C409 O410 1.247 . S
O410 C409 1.247 . S
C411 O423 1.242 . S
C411 O424 1.258 . S
O412 Eu408 2.292 . S
O412 C414 1.255 . S
C413 Eu408 2.852 . S
C413 C417 1.503 . S
C413 O430 1.273 . S
C413 O431 1.257 . S
C414 O412 1.255 . S
C414 O415 1.247 . S
O415 C414 1.247 . S
C416 O428 1.242 . S
C416 O429 1.258 . S
C417 C413 1.503 . S
C417 C418 1.379 . S
C417 C422 1.392 . S
C418 C417 1.379 . S
C418 C419 1.404 . S
C418 H432 0.929 . S
C419 C418 1.404 . S
C419 C420 1.389 . S
C420 C419 1.389 . S
C420 C421 1.399 . S
C420 H433 0.931 . S
C421 C420 1.399 . S
C421 C422 1.390 . S
C422 C417 1.392 . S
C422 C421 1.390 . S
C422 H434 0.929 . S
O423 Tb407 2.326 . S
O423 C411 1.242 . S
O424 Eu408 2.324 . S
O424 C411 1.258 . S
O425 Tb407 2.500 . S
O425 C427 1.273 . S
O426 Tb407 2.473 . S
O426 C427 1.257 . S
C427 O425 1.273 . S
C427 O426 1.257 . S
O428 Eu408 2.326 . S
O428 C416 1.242 . S
O429 Tb407 2.324 . S
O429 C416 1.258 . S
O430 Eu408 2.500 . S
O430 C413 1.273 . S
O431 Eu408 2.473 . S
O431 C413 1.257 . S
H432 C418 0.929 . S
H433 C420 0.931 . S
H434 C422 0.929 . S
O435 Tb436 2.292 . S
O435 C438 1.255 . S
Tb436 O435 2.292 . S
Tb436 O452 2.326 . S
Tb436 O454 2.500 . S
Tb436 O455 2.473 . S
Tb436 O458 2.324 1_545 S
Eu437 O441 2.292 . S
Eu437 C442 2.852 . S
Eu437 O453 2.324 . S
Eu437 O457 2.326 . S
Eu437 O459 2.500 . S
Eu437 O460 2.473 . S
C438 O435 1.255 . S
C438 O439 1.247 . S
O439 C438 1.247 . S
C440 O452 1.242 . S
C440 O453 1.258 . S
O441 Eu437 2.292 . S
O441 C443 1.255 . S
C442 Eu437 2.852 . S
C442 C446 1.503 . S
C442 O459 1.273 . S
C442 O460 1.257 . S
C443 O441 1.255 . S
C443 O444 1.247 . S
O444 C443 1.247 . S
C445 O457 1.242 . S
C445 O458 1.258 1_545 S
C446 C442 1.503 . S
C446 C447 1.379 . S
C446 C451 1.392 . S
C447 C446 1.379 . S
C447 C448 1.404 . S
C447 H461 0.929 . S
C448 C447 1.404 . S
C448 C449 1.389 . S
C449 C448 1.389 . S
C449 C450 1.399 . S
C449 H462 0.931 . S
C450 C449 1.399 . S
C450 C451 1.390 . S
C451 C446 1.392 . S
C451 C450 1.390 . S
C451 H463 0.929 . S
O452 Tb436 2.326 . S
O452 C440 1.242 . S
O453 Eu437 2.324 . S
O453 C440 1.258 . S
O454 Tb436 2.500 . S
O454 C456 1.273 . S
O455 Tb436 2.473 . S
O455 C456 1.257 . S
C456 O454 1.273 . S
C456 O455 1.257 . S
O457 Eu437 2.326 . S
O457 C445 1.242 . S
O458 Tb436 2.324 1_565 S
O458 C445 1.258 1_565 S
O459 Eu437 2.500 . S
O459 C442 1.273 . S
O460 Eu437 2.473 . S
O460 C442 1.257 . S
H461 C447 0.929 . S
H462 C449 0.931 . S
H463 C451 0.929 . S
H464 C472 0.929 . S
H465 C474 0.930 . S
H466 C476 0.930 . S
H467 C479 0.929 . S
H468 C482 0.930 . S
H469 C484 0.960 . S
H470 C484 0.960 . S
H471 C484 0.960 . S
C472 H464 0.929 . S
C472 C473 1.377 . S
C472 C474 1.384 . S
C473 C472 1.377 . S
C473 C479 1.390 . S
C474 H465 0.930 . S
C474 C472 1.384 . S
C474 C475 1.372 . S
C475 C474 1.372 . S
C475 C476 1.400 . S
C475 C480 1.490 . S
C476 H466 0.930 . S
C476 C475 1.400 . S
C476 C479 1.386 . S
H477 C493 0.930 . S
H478 C494 0.931 . S
C479 H467 0.929 . S
C479 C473 1.390 . S
C479 C476 1.386 . S
C480 C475 1.490 . S
C480 C482 1.395 . S
C480 C483 1.403 . S
H481 C487 0.930 . S
C482 H468 0.930 . S
C482 C480 1.395 . S
C482 C485 1.403 . S
C483 C480 1.403 . S
C483 C484 1.524 . S
C483 C487 1.400 . S
C484 H469 0.960 . S
C484 H470 0.960 . S
C484 H471 0.960 . S
C484 C483 1.524 . S
C485 C482 1.403 . S
C485 C486 1.392 . S
C485 C489 1.495 . S
C486 C485 1.392 . S
C486 C487 1.385 . S
C486 C488 1.478 . S
C487 H481 0.930 . S
C487 C483 1.400 . S
C487 C486 1.385 . S
C488 C486 1.478 . S
C488 C490 1.381 . S
C488 C494 1.383 . S
C489 C485 1.495 . S
C489 H495 0.959 . S
C489 H496 0.961 . S
C489 H497 0.960 . S
C490 C488 1.381 . S
C490 C491 1.394 . S
C490 H498 0.930 . S
C491 C490 1.394 . S
C491 C492 1.383 . S
C491 H499 0.929 . S
C492 C491 1.383 . S
C492 C493 1.377 . S
C493 H477 0.930 . S
C493 C492 1.377 . S
C493 C494 1.379 . S
C494 H478 0.931 . S
C494 C488 1.383 . S
C494 C493 1.379 . S
H495 C489 0.959 . S
H496 C489 0.961 . S
H497 C489 0.960 . S
H498 C490 0.930 . S
H499 C491 0.929 . S
H500 C508 0.929 . S
H501 C510 0.930 . S
H502 C512 0.930 . S
H503 C515 0.929 . S
H504 C518 0.930 . S
H505 C520 0.960 . S
H506 C520 0.960 . S
H507 C520 0.960 . S
C508 H500 0.929 . S
C508 C509 1.377 . S
C508 C510 1.384 . S
C509 C508 1.377 . S
C509 C515 1.390 . S
C510 H501 0.930 . S
C510 C508 1.384 . S
C510 C511 1.372 . S
C511 C510 1.372 . S
C511 C512 1.400 . S
C511 C516 1.490 . S
C512 H502 0.930 . S
C512 C511 1.400 . S
C512 C515 1.386 . S
H513 C529 0.930 . S
H514 C530 0.931 . S
C515 H503 0.929 . S
C515 C509 1.390 . S
C515 C512 1.386 . S
C516 C511 1.490 . S
C516 C518 1.395 . S
C516 C519 1.403 . S
H517 C523 0.930 . S
C518 H504 0.930 . S
C518 C516 1.395 . S
C518 C521 1.403 . S
C519 C516 1.403 . S
C519 C520 1.524 . S
C519 C523 1.400 . S
C520 H505 0.960 . S
C520 H506 0.960 . S
C520 H507 0.960 . S
C520 C519 1.524 . S
C521 C518 1.403 . S
C521 C522 1.392 . S
C521 C525 1.495 . S
C522 C521 1.392 . S
C522 C523 1.385 . S
C522 C524 1.478 . S
C523 H517 0.930 . S
C523 C519 1.400 . S
C523 C522 1.385 . S
C524 C522 1.478 . S
C524 C526 1.381 . S
C524 C530 1.383 . S
C525 C521 1.495 . S
C525 H531 0.959 . S
C525 H532 0.961 . S
C525 H533 0.960 . S
C526 C524 1.381 . S
C526 C527 1.394 . S
C526 H534 0.930 . S
C527 C526 1.394 . S
C527 C528 1.383 . S
C527 H535 0.929 . S
C528 C527 1.383 . S
C528 C529 1.377 . S
C529 H513 0.930 . S
C529 C528 1.377 . S
C529 C530 1.379 . S
C530 H514 0.931 . S
C530 C524 1.383 . S
C530 C529 1.379 . S
H531 C525 0.959 . S
H532 C525 0.961 . S
H533 C525 0.960 . S
H534 C526 0.930 . S
H535 C527 0.929 . S
H536 C544 0.929 . S
H537 C546 0.930 . S
H538 C548 0.930 . S
H539 C551 0.929 . S
H540 C554 0.930 . S
H541 C556 0.960 . S
H542 C556 0.960 . S
H543 C556 0.960 . S
C544 H536 0.929 . S
C544 C545 1.377 . S
C544 C546 1.384 . S
C545 C544 1.377 . S
C545 C551 1.390 . S
C546 H537 0.930 . S
C546 C544 1.384 . S
C546 C547 1.372 . S
C547 C546 1.372 . S
C547 C548 1.400 . S
C547 C552 1.490 . S
C548 H538 0.930 . S
C548 C547 1.400 . S
C548 C551 1.386 . S
H549 C565 0.930 . S
H550 C566 0.931 . S
C551 H539 0.929 . S
C551 C545 1.390 . S
C551 C548 1.386 . S
C552 C547 1.490 . S
C552 C554 1.395 . S
C552 C555 1.403 . S
H553 C559 0.930 . S
C554 H540 0.930 . S
C554 C552 1.395 . S
C554 C557 1.403 . S
C555 C552 1.403 . S
C555 C556 1.524 . S
C555 C559 1.400 . S
C556 H541 0.960 . S
C556 H542 0.960 . S
C556 H543 0.960 . S
C556 C555 1.524 . S
C557 C554 1.403 . S
C557 C558 1.392 . S
C557 C561 1.495 . S
C558 C557 1.392 . S
C558 C559 1.385 . S
C558 C560 1.478 . S
C559 H553 0.930 . S
C559 C555 1.400 . S
C559 C558 1.385 . S
C560 C558 1.478 . S
C560 C562 1.381 . S
C560 C566 1.383 . S
C561 C557 1.495 . S
C561 H567 0.959 . S
C561 H568 0.961 . S
C561 H569 0.960 . S
C562 C560 1.381 . S
C562 C563 1.394 . S
C562 H570 0.930 . S
C563 C562 1.394 . S
C563 C564 1.383 . S
C563 H571 0.929 . S
C564 C563 1.383 . S
C564 C565 1.377 . S
C565 H549 0.930 . S
C565 C564 1.377 . S
C565 C566 1.379 . S
C566 H550 0.931 . S
C566 C560 1.383 . S
C566 C565 1.379 . S
H567 C561 0.959 . S
H568 C561 0.961 . S
H569 C561 0.960 . S
H570 C562 0.930 . S
H571 C563 0.929 . S
H572 C580 0.929 . S
H573 C582 0.930 . S
H574 C584 0.930 . S
H575 C587 0.929 . S
H576 C590 0.930 . S
H577 C592 0.960 . S
H578 C592 0.960 . S
H579 C592 0.960 . S
C580 H572 0.929 . S
C580 C581 1.377 . S
C580 C582 1.384 . S
C581 C580 1.377 . S
C581 C587 1.390 . S
C582 H573 0.930 . S
C582 C580 1.384 . S
C582 C583 1.372 . S
C583 C582 1.372 . S
C583 C584 1.400 . S
C583 C588 1.490 . S
C584 H574 0.930 . S
C584 C583 1.400 . S
C584 C587 1.386 . S
H585 C601 0.930 . S
H586 C602 0.931 . S
C587 H575 0.929 . S
C587 C581 1.390 . S
C587 C584 1.386 . S
C588 C583 1.490 . S
C588 C590 1.395 . S
C588 C591 1.403 . S
H589 C595 0.930 . S
C590 H576 0.930 . S
C590 C588 1.395 . S
C590 C593 1.403 . S
C591 C588 1.403 . S
C591 C592 1.524 . S
C591 C595 1.400 . S
C592 H577 0.960 . S
C592 H578 0.960 . S
C592 H579 0.960 . S
C592 C591 1.524 . S
C593 C590 1.403 . S
C593 C594 1.392 . S
C593 C597 1.495 . S
C594 C593 1.392 . S
C594 C595 1.385 . S
C594 C596 1.478 . S
C595 H589 0.930 . S
C595 C591 1.400 . S
C595 C594 1.385 . S
C596 C594 1.478 . S
C596 C598 1.381 . S
C596 C602 1.383 . S
C597 C593 1.495 . S
C597 H603 0.959 . S
C597 H604 0.961 . S
C597 H605 0.960 . S
C598 C596 1.381 . S
C598 C599 1.394 . S
C598 H606 0.930 . S
C599 C598 1.394 . S
C599 C600 1.383 . S
C599 H607 0.929 . S
C600 C599 1.383 . S
C600 C601 1.377 . S
C601 H585 0.930 . S
C601 C600 1.377 . S
C601 C602 1.379 . S
C602 H586 0.931 . S
C602 C596 1.383 . S
C602 C601 1.379 . S
H603 C597 0.959 . S
H604 C597 0.961 . S
H605 C597 0.960 . S
H606 C598 0.930 . S
H607 C599 0.929 . S
H608 C616 0.929 . S
H609 C618 0.930 . S
H610 C620 0.930 . S
H611 C623 0.929 . S
H612 C626 0.930 . S
H613 C628 0.960 . S
H614 C628 0.960 . S
H615 C628 0.960 . S
C616 H608 0.929 . S
C616 C617 1.377 . S
C616 C618 1.384 . S
C617 C616 1.377 . S
C617 C623 1.390 . S
C618 H609 0.930 . S
C618 C616 1.384 . S
C618 C619 1.372 . S
C619 C618 1.372 . S
C619 C620 1.400 . S
C619 C624 1.490 . S
C620 H610 0.930 . S
C620 C619 1.400 . S
C620 C623 1.386 . S
H621 C637 0.930 . S
H622 C638 0.931 . S
C623 H611 0.929 . S
C623 C617 1.390 . S
C623 C620 1.386 . S
C624 C619 1.490 . S
C624 C626 1.395 . S
C624 C627 1.403 . S
H625 C631 0.930 . S
C626 H612 0.930 . S
C626 C624 1.395 . S
C626 C629 1.403 . S
C627 C624 1.403 . S
C627 C628 1.524 . S
C627 C631 1.400 . S
C628 H613 0.960 . S
C628 H614 0.960 . S
C628 H615 0.960 . S
C628 C627 1.524 . S
C629 C626 1.403 . S
C629 C630 1.392 . S
C629 C633 1.495 . S
C630 C629 1.392 . S
C630 C631 1.385 . S
C630 C632 1.478 . S
C631 H625 0.930 . S
C631 C627 1.400 . S
C631 C630 1.385 . S
C632 C630 1.478 . S
C632 C634 1.381 . S
C632 C638 1.383 . S
C633 C629 1.495 . S
C633 H639 0.959 . S
C633 H640 0.961 . S
C633 H641 0.960 . S
C634 C632 1.381 . S
C634 C635 1.394 . S
C634 H642 0.930 . S
C635 C634 1.394 . S
C635 C636 1.383 . S
C635 H643 0.929 . S
C636 C635 1.383 . S
C636 C637 1.377 . S
C637 H621 0.930 . S
C637 C636 1.377 . S
C637 C638 1.379 . S
C638 H622 0.931 . S
C638 C632 1.383 . S
C638 C637 1.379 . S
H639 C633 0.959 . S
H640 C633 0.961 . S
H641 C633 0.960 . S
H642 C634 0.930 . S
H643 C635 0.929 . S
H644 C652 0.929 . S
H645 C654 0.930 . S
H646 C656 0.930 . S
H647 C659 0.929 . S
H648 C662 0.930 . S
H649 C664 0.960 . S
H650 C664 0.960 . S
H651 C664 0.960 . S
C652 H644 0.929 . S
C652 C653 1.377 . S
C652 C654 1.384 . S
C653 C652 1.377 . S
C653 C659 1.390 . S
C654 H645 0.930 . S
C654 C652 1.384 . S
C654 C655 1.372 . S
C655 C654 1.372 . S
C655 C656 1.400 . S
C655 C660 1.490 . S
C656 H646 0.930 . S
C656 C655 1.400 . S
C656 C659 1.386 . S
H657 C673 0.930 . S
H658 C674 0.931 . S
C659 H647 0.929 . S
C659 C653 1.390 . S
C659 C656 1.386 . S
C660 C655 1.490 . S
C660 C662 1.395 . S
C660 C663 1.403 . S
H661 C667 0.930 . S
C662 H648 0.930 . S
C662 C660 1.395 . S
C662 C665 1.403 . S
C663 C660 1.403 . S
C663 C664 1.524 . S
C663 C667 1.400 . S
C664 H649 0.960 . S
C664 H650 0.960 . S
C664 H651 0.960 . S
C664 C663 1.524 . S
C665 C662 1.403 . S
C665 C666 1.392 . S
C665 C669 1.495 . S
C666 C665 1.392 . S
C666 C667 1.385 . S
C666 C668 1.478 . S
C667 H661 0.930 . S
C667 C663 1.400 . S
C667 C666 1.385 . S
C668 C666 1.478 . S
C668 C670 1.381 . S
C668 C674 1.383 . S
C669 C665 1.495 . S
C669 H675 0.959 . S
C669 H676 0.961 . S
C669 H677 0.960 . S
C670 C668 1.381 . S
C670 C671 1.394 . S
C670 H678 0.930 . S
C671 C670 1.394 . S
C671 C672 1.383 . S
C671 H679 0.929 . S
C672 C671 1.383 . S
C672 C673 1.377 . S
C673 H657 0.930 . S
C673 C672 1.377 . S
C673 C674 1.379 . S
C674 H658 0.931 . S
C674 C668 1.383 . S
C674 C673 1.379 . S
H675 C669 0.959 . S
H676 C669 0.961 . S
H677 C669 0.960 . S
H678 C670 0.930 . S
H679 C671 0.929 . S
H680 C688 0.929 . S
H681 C690 0.930 . S
H682 C692 0.930 . S
H683 C695 0.929 . S
H684 C698 0.930 . S
H685 C700 0.960 . S
H686 C700 0.960 . S
H687 C700 0.960 . S
C688 H680 0.929 . S
C688 C689 1.377 . S
C688 C690 1.384 . S
C689 C688 1.377 . S
C689 C695 1.390 . S
C690 H681 0.930 . S
C690 C688 1.384 . S
C690 C691 1.372 . S
C691 C690 1.372 . S
C691 C692 1.400 . S
C691 C696 1.490 . S
C692 H682 0.930 . S
C692 C691 1.400 . S
C692 C695 1.386 . S
H693 C709 0.930 . S
H694 C710 0.931 . S
C695 H683 0.929 . S
C695 C689 1.390 . S
C695 C692 1.386 . S
C696 C691 1.490 . S
C696 C698 1.395 . S
C696 C699 1.403 . S
H697 C703 0.930 . S
C698 H684 0.930 . S
C698 C696 1.395 . S
C698 C701 1.403 . S
C699 C696 1.403 . S
C699 C700 1.524 . S
C699 C703 1.400 . S
C700 H685 0.960 . S
C700 H686 0.960 . S
C700 H687 0.960 . S
C700 C699 1.524 . S
C701 C698 1.403 . S
C701 C702 1.392 . S
C701 C705 1.495 . S
C702 C701 1.392 . S
C702 C703 1.385 . S
C702 C704 1.478 . S
C703 H697 0.930 . S
C703 C699 1.400 . S
C703 C702 1.385 . S
C704 C702 1.478 . S
C704 C706 1.381 . S
C704 C710 1.383 . S
C705 C701 1.495 . S
C705 H711 0.959 . S
C705 H712 0.961 . S
C705 H713 0.960 . S
C706 C704 1.381 . S
C706 C707 1.394 . S
C706 H714 0.930 . S
C707 C706 1.394 . S
C707 C708 1.383 . S
C707 H715 0.929 . S
C708 C707 1.383 . S
C708 C709 1.377 . S
C709 H693 0.930 . S
C709 C708 1.377 . S
C709 C710 1.379 . S
C710 H694 0.931 . S
C710 C704 1.383 . S
C710 C709 1.379 . S
H711 C705 0.959 . S
H712 C705 0.961 . S
H713 C705 0.960 . S
H714 C706 0.930 . S
H715 C707 0.929 . S
H716 C724 0.929 . S
H717 C726 0.930 . S
H718 C728 0.930 . S
H719 C731 0.929 . S
H720 C734 0.930 . S
H721 C736 0.960 . S
H722 C736 0.960 . S
H723 C736 0.960 . S
C724 H716 0.929 . S
C724 C725 1.377 . S
C724 C726 1.384 . S
C725 C724 1.377 . S
C725 C731 1.390 . S
C726 H717 0.930 . S
C726 C724 1.384 . S
C726 C727 1.372 . S
C727 C726 1.372 . S
C727 C728 1.400 . S
C727 C732 1.490 . S
C728 H718 0.930 . S
C728 C727 1.400 . S
C728 C731 1.386 . S
H729 C745 0.930 . S
H730 C746 0.931 . S
C731 H719 0.929 . S
C731 C725 1.390 . S
C731 C728 1.386 . S
C732 C727 1.490 . S
C732 C734 1.395 . S
C732 C735 1.403 . S
H733 C739 0.930 . S
C734 H720 0.930 . S
C734 C732 1.395 . S
C734 C737 1.403 . S
C735 C732 1.403 . S
C735 C736 1.524 . S
C735 C739 1.400 . S
C736 H721 0.960 . S
C736 H722 0.960 . S
C736 H723 0.960 . S
C736 C735 1.524 . S
C737 C734 1.403 . S
C737 C738 1.392 . S
C737 C741 1.495 . S
C738 C737 1.392 . S
C738 C739 1.385 . S
C738 C740 1.478 . S
C739 H733 0.930 . S
C739 C735 1.400 . S
C739 C738 1.385 . S
C740 C738 1.478 . S
C740 C742 1.381 . S
C740 C746 1.383 . S
C741 C737 1.495 . S
C741 H747 0.959 . S
C741 H748 0.961 . S
C741 H749 0.960 . S
C742 C740 1.381 . S
C742 C743 1.394 . S
C742 H750 0.930 . S
C743 C742 1.394 . S
C743 C744 1.383 . S
C743 H751 0.929 . S
C744 C743 1.383 . S
C744 C745 1.377 . S
C745 H729 0.930 . S
C745 C744 1.377 . S
C745 C746 1.379 . S
C746 H730 0.931 . S
C746 C740 1.383 . S
C746 C745 1.379 . S
H747 C741 0.959 . S
H748 C741 0.961 . S
H749 C741 0.960 . S
H750 C742 0.930 . S
H751 C743 0.929 . S
H752 C760 0.929 . S
H753 C762 0.930 . S
H754 C764 0.930 . S
H755 C767 0.929 . S
H756 C770 0.930 . S
H757 C772 0.960 . S
H758 C772 0.960 . S
H759 C772 0.960 . S
C760 H752 0.929 . S
C760 C761 1.377 . S
C760 C762 1.384 . S
C761 C760 1.377 . S
C761 C767 1.390 . S
C762 H753 0.930 . S
C762 C760 1.384 . S
C762 C763 1.372 . S
C763 C762 1.372 . S
C763 C764 1.400 . S
C763 C768 1.490 . S
C764 H754 0.930 . S
C764 C763 1.400 . S
C764 C767 1.386 . S
H765 C781 0.930 . S
H766 C782 0.931 . S
C767 H755 0.929 . S
C767 C761 1.390 . S
C767 C764 1.386 . S
C768 C763 1.490 . S
C768 C770 1.395 . S
C768 C771 1.403 . S
H769 C775 0.930 . S
C770 H756 0.930 . S
C770 C768 1.395 . S
C770 C773 1.403 . S
C771 C768 1.403 . S
C771 C772 1.524 . S
C771 C775 1.400 . S
C772 H757 0.960 . S
C772 H758 0.960 . S
C772 H759 0.960 . S
C772 C771 1.524 . S
C773 C770 1.403 . S
C773 C774 1.392 . S
C773 C777 1.495 . S
C774 C773 1.392 . S
C774 C775 1.385 . S
C774 C776 1.478 . S
C775 H769 0.930 . S
C775 C771 1.400 . S
C775 C774 1.385 . S
C776 C774 1.478 . S
C776 C778 1.381 . S
C776 C782 1.383 . S
C777 C773 1.495 . S
C777 H783 0.959 . S
C777 H784 0.961 . S
C777 H785 0.960 . S
C778 C776 1.381 . S
C778 C779 1.394 . S
C778 H786 0.930 . S
C779 C778 1.394 . S
C779 C780 1.383 . S
C779 H787 0.929 . S
C780 C779 1.383 . S
C780 C781 1.377 . S
C781 H765 0.930 . S
C781 C780 1.377 . S
C781 C782 1.379 . S
C782 H766 0.931 . S
C782 C776 1.383 . S
C782 C781 1.379 . S
H783 C777 0.959 . S
H784 C777 0.961 . S
H785 C777 0.960 . S
H786 C778 0.930 . S
H787 C779 0.929 . S
H788 C796 0.929 . S
H789 C798 0.930 . S
H790 C800 0.930 . S
H791 C803 0.929 . S
H792 C806 0.930 . S
H793 C808 0.960 . S
H794 C808 0.960 . S
H795 C808 0.960 . S
C796 H788 0.929 . S
C796 C797 1.377 . S
C796 C798 1.384 . S
C797 C796 1.377 . S
C797 C803 1.390 . S
C798 H789 0.930 . S
C798 C796 1.384 . S
C798 C799 1.372 . S
C799 C798 1.372 . S
C799 C800 1.400 . S
C799 C804 1.490 . S
C800 H790 0.930 . S
C800 C799 1.400 . S
C800 C803 1.386 . S
H801 C817 0.930 1_565 S
H802 C818 0.931 . S
C803 H791 0.929 . S
C803 C797 1.390 . S
C803 C800 1.386 . S
C804 C799 1.490 . S
C804 C806 1.395 . S
C804 C807 1.403 . S
H805 C811 0.930 . S
C806 H792 0.930 . S
C806 C804 1.395 . S
C806 C809 1.411 . S
C807 C804 1.403 . S
C807 C808 1.524 . S
C807 C811 1.400 . S
C808 H793 0.960 . S
C808 H794 0.960 . S
C808 H795 0.960 . S
C808 C807 1.524 . S
C809 C806 1.411 . S
C809 C810 1.392 . S
C809 C813 1.488 1_565 S
C810 C809 1.392 . S
C810 C811 1.395 . S
C810 C812 1.468 1_565 S
C811 H805 0.930 . S
C811 C807 1.400 . S
C811 C810 1.395 . S
C812 C810 1.468 1_545 S
C812 C814 1.381 . S
C812 C818 1.383 1_545 S
C813 C809 1.488 1_545 S
C813 H819 0.959 . S
C813 H820 0.961 . S
C813 H821 0.960 . S
C814 C812 1.381 . S
C814 C815 1.394 . S
C814 H822 0.930 . S
C815 C814 1.394 . S
C815 C816 1.383 . S
C815 H823 0.929 . S
C816 C815 1.383 . S
C816 C817 1.377 . S
C817 H801 0.930 1_545 S
C817 C816 1.377 . S
C817 C818 1.379 1_545 S
C818 H802 0.931 . S
C818 C812 1.383 1_565 S
C818 C817 1.379 1_565 S
H819 C813 0.959 . S
H820 C813 0.961 . S
H821 C813 0.960 . S
H822 C814 0.930 . S
H823 C815 0.929 . S
H824 C832 0.929 . S
H825 C834 0.930 . S
H826 C836 0.930 . S
H827 C839 0.929 . S
H828 C842 0.930 . S
H829 C844 0.960 . S
H830 C844 0.960 . S
H831 C844 0.960 . S
C832 H824 0.929 . S
C832 C833 1.377 . S
C832 C834 1.384 . S
C833 C832 1.377 . S
C833 C839 1.390 . S
C834 H825 0.930 . S
C834 C832 1.384 . S
C834 C835 1.372 . S
C835 C834 1.372 . S
C835 C836 1.400 . S
C835 C840 1.490 . S
C836 H826 0.930 . S
C836 C835 1.400 . S
C836 C839 1.386 . S
H837 C853 0.930 . S
H838 C854 0.931 . S
C839 H827 0.929 . S
C839 C833 1.390 . S
C839 C836 1.386 . S
C840 C835 1.490 . S
C840 C842 1.395 . S
C840 C843 1.403 . S
H841 C847 0.930 . S
C842 H828 0.930 . S
C842 C840 1.395 . S
C842 C845 1.403 . S
C843 C840 1.403 . S
C843 C844 1.524 . S
C843 C847 1.400 . S
C844 H829 0.960 . S
C844 H830 0.960 . S
C844 H831 0.960 . S
C844 C843 1.524 . S
C845 C842 1.403 . S
C845 C846 1.392 . S
C845 C849 1.495 . S
C846 C845 1.392 . S
C846 C847 1.385 . S
C846 C848 1.478 . S
C847 H841 0.930 . S
C847 C843 1.400 . S
C847 C846 1.385 . S
C848 C846 1.478 . S
C848 C850 1.381 . S
C848 C854 1.383 . S
C849 C845 1.495 . S
C849 H855 0.959 . S
C849 H856 0.961 . S
C849 H857 0.960 . S
C850 C848 1.381 . S
C850 C851 1.394 . S
C850 H858 0.930 . S
C851 C850 1.394 . S
C851 C852 1.383 . S
C851 H859 0.929 . S
C852 C851 1.383 . S
C852 C853 1.377 . S
C853 H837 0.930 . S
C853 C852 1.377 . S
C853 C854 1.379 . S
C854 H838 0.931 . S
C854 C848 1.383 . S
C854 C853 1.379 . S
H855 C849 0.959 . S
H856 C849 0.961 . S
H857 C849 0.960 . S
H858 C850 0.930 . S
H859 C851 0.929 . S
H860 C868 0.929 . S
H861 C870 0.930 . S
H862 C872 0.930 . S
H863 C875 0.929 . S
H864 C878 0.930 . S
H865 C880 0.960 . S
H866 C880 0.960 . S
H867 C880 0.960 . S
C868 H860 0.929 . S
C868 C869 1.377 . S
C868 C870 1.384 . S
C869 C868 1.377 . S
C869 C875 1.390 . S
C870 H861 0.930 . S
C870 C868 1.384 . S
C870 C871 1.372 . S
C871 C870 1.372 . S
C871 C872 1.400 . S
C871 C876 1.490 . S
C872 H862 0.930 . S
C872 C871 1.400 . S
C872 C875 1.386 . S
H873 C889 0.930 . S
H874 C890 0.931 . S
C875 H863 0.929 . S
C875 C869 1.390 . S
C875 C872 1.386 . S
C876 C871 1.490 . S
C876 C878 1.395 . S
C876 C879 1.402 . S
H877 C883 0.930 . S
C878 H864 0.930 . S
C878 C876 1.395 . S
C878 C881 1.403 . S
C879 C876 1.402 . S
C879 C880 1.524 1_545 S
C879 C883 1.400 1_545 S
C880 H865 0.960 . S
C880 H866 0.960 . S
C880 H867 0.960 . S
C880 C879 1.524 1_565 S
C881 C878 1.403 . S
C881 C882 1.392 . S
C881 C885 1.495 . S
C882 C881 1.392 . S
C882 C883 1.385 1_545 S
C882 C884 1.478 1_545 S
C883 H877 0.930 . S
C883 C879 1.400 1_565 S
C883 C882 1.385 1_565 S
C884 C882 1.478 1_565 S
C884 C886 1.381 . S
C884 C890 1.383 . S
C885 C881 1.495 . S
C885 H891 0.959 . S
C885 H892 0.961 . S
C885 H893 0.960 . S
C886 C884 1.381 . S
C886 C887 1.394 . S
C886 H894 0.930 . S
C887 C886 1.394 . S
C887 C888 1.383 . S
C887 H895 0.929 . S
C888 C887 1.383 . S
C888 C889 1.377 . S
C889 H873 0.930 . S
C889 C888 1.377 . S
C889 C890 1.379 . S
C890 H874 0.931 . S
C890 C884 1.383 . S
C890 C889 1.379 . S
H891 C885 0.959 . S
H892 C885 0.961 . S
H893 C885 0.960 . S
H894 C886 0.930 . S
H895 C887 0.929 . S
H896 C904 0.929 . S
H897 C906 0.930 . S
H898 C908 0.930 . S
H899 C911 0.929 . S
H900 C914 0.930 . S
H901 C916 0.960 . S
H902 C916 0.960 . S
H903 C916 0.960 . S
C904 H896 0.929 . S
C904 C905 1.377 . S
C904 C906 1.384 . S
C905 C904 1.377 . S
C905 C911 1.390 . S
C906 H897 0.930 . S
C906 C904 1.384 . S
C906 C907 1.372 . S
C907 C906 1.372 . S
C907 C908 1.400 . S
C907 C912 1.490 . S
C908 H898 0.930 . S
C908 C907 1.400 . S
C908 C911 1.386 . S
H909 C925 0.930 . S
H910 C926 0.931 . S
C911 H899 0.929 . S
C911 C905 1.390 . S
C911 C908 1.386 . S
C912 C907 1.490 . S
C912 C914 1.395 . S
C912 C915 1.403 . S
H913 C919 0.930 . S
C914 H900 0.930 . S
C914 C912 1.395 . S
C914 C917 1.403 . S
C915 C912 1.403 . S
C915 C916 1.524 . S
C915 C919 1.400 . S
C916 H901 0.960 . S
C916 H902 0.960 . S
C916 H903 0.960 . S
C916 C915 1.524 . S
C917 C914 1.403 . S
C917 C918 1.392 . S
C917 C921 1.495 . S
C918 C917 1.392 . S
C918 C919 1.385 . S
C918 C920 1.478 . S
C919 H913 0.930 . S
C919 C915 1.400 . S
C919 C918 1.385 . S
C920 C918 1.478 . S
C920 C922 1.381 . S
C920 C926 1.383 . S
C921 C917 1.495 . S
C921 H927 0.959 . S
C921 H928 0.961 . S
C921 H929 0.960 . S
C922 C920 1.381 . S
C922 C923 1.394 . S
C922 H930 0.930 . S
C923 C922 1.394 . S
C923 C924 1.383 . S
C923 H931 0.929 . S
C924 C923 1.383 . S
C924 C925 1.377 . S
C925 H909 0.930 . S
C925 C924 1.377 . S
C925 C926 1.379 . S
C926 H910 0.931 . S
C926 C920 1.383 . S
C926 C925 1.379 . S
H927 C921 0.959 . S
H928 C921 0.961 . S
H929 C921 0.960 . S
H930 C922 0.930 . S
H931 C923 0.929 . S
H932 C940 0.929 . S
H933 C942 0.930 . S
H934 C944 0.930 . S
H935 C947 0.929 1_545 S
H936 C950 0.930 1_565 S
H937 C952 0.960 . S
H938 C952 0.960 1_565 S
H939 C952 0.960 . S
C940 H932 0.929 . S
C940 C941 1.377 . S
C940 C942 1.384 . S
C941 C940 1.377 . S
C941 C947 1.390 . S
C942 H933 0.930 . S
C942 C940 1.384 . S
C942 C943 1.372 . S
C943 C942 1.372 . S
C943 C944 1.400 1_565 S
C943 C948 1.490 1_565 S
C944 H934 0.930 . S
C944 C943 1.400 1_545 S
C944 C947 1.386 1_545 S
H945 C961 0.930 . S
H946 C962 0.931 . S
C947 H935 0.929 1_565 S
C947 C941 1.390 . S
C947 C944 1.386 1_565 S
C948 C943 1.490 1_545 S
C948 C950 1.395 . S
C948 C951 1.403 . S
H949 C955 0.930 . S
C950 H936 0.930 1_545 S
C950 C948 1.395 . S
C950 C953 1.403 . S
C951 C948 1.403 . S
C951 C952 1.524 . S
C951 C955 1.400 . S
C952 H937 0.960 . S
C952 H938 0.960 1_545 S
C952 H939 0.960 . S
C952 C951 1.524 . S
C953 C950 1.403 . S
C953 C954 1.392 . S
C953 C957 1.495 . S
C954 C953 1.392 . S
C954 C955 1.385 . S
C954 C956 1.478 . S
C955 H949 0.930 . S
C955 C951 1.400 . S
C955 C954 1.385 . S
C956 C954 1.478 . S
C956 C958 1.381 . S
C956 C962 1.383 . S
C957 C953 1.495 . S
C957 H963 0.959 . S
C957 H964 0.961 . S
C957 H965 0.960 . S
C958 C956 1.381 . S
C958 C959 1.394 . S
C958 H966 0.930 . S
C959 C958 1.394 . S
C959 C960 1.383 . S
C959 H967 0.929 . S
C960 C959 1.383 . S
C960 C961 1.377 . S
C961 H945 0.930 . S
C961 C960 1.377 . S
C961 C962 1.379 . S
C962 H946 0.931 . S
C962 C956 1.383 . S
C962 C961 1.379 . S
H963 C957 0.959 . S
H964 C957 0.961 . S
H965 C957 0.960 . S
H966 C958 0.930 . S
H967 C959 0.929 . S
H968 C976 0.929 . S
H969 C978 0.930 . S
H970 C980 0.930 . S
H971 C983 0.929 . S
H972 C986 0.930 . S
H973 C988 0.960 . S
H974 C988 0.960 . S
H975 C988 0.960 . S
C976 H968 0.929 . S
C976 C977 1.377 . S
C976 C978 1.384 . S
C977 C976 1.377 . S
C977 C983 1.390 . S
C978 H969 0.930 . S
C978 C976 1.384 . S
C978 C979 1.372 . S
C979 C978 1.372 . S
C979 C980 1.400 . S
C979 C984 1.490 . S
C980 H970 0.930 . S
C980 C979 1.400 . S
C980 C983 1.386 . S
H981 C997 0.930 . S
H982 C998 0.931 . S
C983 H971 0.929 . S
C983 C977 1.390 . S
C983 C980 1.386 . S
C984 C979 1.490 . S
C984 C986 1.395 . S
C984 C987 1.403 . S
H985 C991 0.930 . S
C986 H972 0.930 . S
C986 C984 1.395 . S
C986 C989 1.403 . S
C987 C984 1.403 . S
C987 C988 1.524 . S
C987 C991 1.400 . S
C988 H973 0.960 . S
C988 H974 0.960 . S
C988 H975 0.960 . S
C988 C987 1.524 . S
C989 C986 1.403 . S
C989 C990 1.392 . S
C989 C993 1.495 . S
C990 C989 1.392 . S
C990 C991 1.385 . S
C990 C992 1.478 . S
C991 H985 0.930 . S
C991 C987 1.400 . S
C991 C990 1.385 . S
C992 C990 1.478 . S
C992 C994 1.381 . S
C992 C998 1.383 . S
C993 C989 1.495 . S
C993 H999 0.959 . S
C993 H1000 0.961 . S
C993 H1001 0.960 . S
C994 C992 1.381 . S
C994 C995 1.394 . S
C994 H1002 0.930 . S
C995 C994 1.394 . S
C995 C996 1.383 . S
C995 H1003 0.929 . S
C996 C995 1.383 . S
C996 C997 1.377 . S
C997 H981 0.930 . S
C997 C996 1.377 . S
C997 C998 1.379 . S
C998 H982 0.931 . S
C998 C992 1.383 . S
C998 C997 1.379 . S
H999 C993 0.959 . S
H1000 C993 0.961 . S
H1001 C993 0.960 . S
H1002 C994 0.930 . S
H1003 C995 0.929 . S
H1004 C1012 0.929 . S
H1005 C1014 0.930 . S
H1006 C1016 0.930 . S
H1007 C1019 0.929 . S
H1008 C1022 0.930 . S
H1009 C1024 0.960 . S
H1010 C1024 0.960 . S
H1011 C1024 0.960 . S
C1012 H1004 0.929 . S
C1012 C1013 1.377 . S
C1012 C1014 1.384 . S
C1013 C1012 1.377 . S
C1013 C1019 1.390 . S
C1014 H1005 0.930 . S
C1014 C1012 1.384 . S
C1014 C1015 1.372 . S
C1015 C1014 1.372 . S
C1015 C1016 1.400 . S
C1015 C1020 1.490 . S
C1016 H1006 0.930 . S
C1016 C1015 1.400 . S
C1016 C1019 1.386 . S
H1017 C1033 0.930 1_565 S
H1018 C1034 0.931 . S
C1019 H1007 0.929 . S
C1019 C1013 1.390 . S
C1019 C1016 1.386 . S
C1020 C1015 1.490 . S
C1020 C1022 1.395 . S
C1020 C1023 1.403 . S
H1021 C1027 0.930 1_545 S
C1022 H1008 0.930 . S
C1022 C1020 1.395 . S
C1022 C1025 1.403 . S
C1023 C1020 1.403 . S
C1023 C1024 1.524 . S
C1023 C1027 1.400 . S
C1024 H1009 0.960 . S
C1024 H1010 0.960 . S
C1024 H1011 0.960 . S
C1024 C1023 1.524 . S
C1025 C1022 1.403 . S
C1025 C1026 1.392 . S
C1025 C1029 1.495 . S
C1026 C1025 1.392 . S
C1026 C1027 1.385 . S
C1026 C1028 1.478 1_565 S
C1027 H1021 0.930 1_565 S
C1027 C1023 1.400 . S
C1027 C1026 1.385 . S
C1028 C1026 1.478 1_545 S
C1028 C1030 1.381 . S
C1028 C1034 1.383 1_545 S
C1029 C1025 1.495 . S
C1029 H1035 0.959 . S
C1029 H1036 0.961 . S
C1029 H1037 0.960 1_565 S
C1030 C1028 1.381 . S
C1030 C1031 1.394 . S
C1030 H1038 0.930 . S
C1031 C1030 1.394 . S
C1031 C1032 1.383 . S
C1031 H1039 0.929 . S
C1032 C1031 1.383 . S
C1032 C1033 1.377 . S
C1033 H1017 0.930 1_545 S
C1033 C1032 1.377 . S
C1033 C1034 1.379 1_545 S
C1034 H1018 0.931 . S
C1034 C1028 1.383 1_565 S
C1034 C1033 1.379 1_565 S
H1035 C1029 0.959 . S
H1036 C1029 0.961 . S
H1037 C1029 0.960 1_545 S
H1038 C1030 0.930 . S
H1039 C1031 0.929 . S
H1040 C1048 0.929 . S
H1041 C1050 0.930 . S
H1042 C1052 0.930 . S
H1043 C1055 0.929 . S
H1044 C1058 0.930 . S
H1045 C1060 0.960 . S
H1046 C1060 0.960 . S
H1047 C1060 0.960 . S
C1048 H1040 0.929 . S
C1048 C1049 1.377 . S
C1048 C1050 1.384 . S
C1049 C1048 1.377 . S
C1049 C1055 1.390 . S
C1050 H1041 0.930 . S
C1050 C1048 1.384 . S
C1050 C1051 1.372 . S
C1051 C1050 1.372 . S
C1051 C1052 1.400 . S
C1051 C1056 1.490 . S
C1052 H1042 0.930 . S
C1052 C1051 1.400 . S
C1052 C1055 1.386 . S
H1053 C1069 0.930 . S
H1054 C1070 0.931 . S
C1055 H1043 0.929 . S
C1055 C1049 1.390 . S
C1055 C1052 1.386 . S
C1056 C1051 1.490 . S
C1056 C1058 1.395 . S
C1056 C1059 1.403 . S
H1057 C1063 0.930 . S
C1058 H1044 0.930 . S
C1058 C1056 1.395 . S
C1058 C1061 1.403 . S
C1059 C1056 1.403 . S
C1059 C1060 1.524 . S
C1059 C1063 1.400 . S
C1060 H1045 0.960 . S
C1060 H1046 0.960 . S
C1060 H1047 0.960 . S
C1060 C1059 1.524 . S
C1061 C1058 1.403 . S
C1061 C1062 1.392 . S
C1061 C1065 1.495 . S
C1062 C1061 1.392 . S
C1062 C1063 1.385 . S
C1062 C1064 1.478 . S
C1063 H1057 0.930 . S
C1063 C1059 1.400 . S
C1063 C1062 1.385 . S
C1064 C1062 1.478 . S
C1064 C1066 1.381 . S
C1064 C1070 1.383 . S
C1065 C1061 1.495 . S
C1065 H1071 0.959 . S
C1065 H1072 0.961 . S
C1065 H1073 0.960 . S
C1066 C1064 1.381 . S
C1066 C1067 1.394 . S
C1066 H1074 0.930 . S
C1067 C1066 1.394 . S
C1067 C1068 1.383 . S
C1067 H1075 0.929 . S
C1068 C1067 1.383 . S
C1068 C1069 1.377 . S
C1069 H1053 0.930 . S
C1069 C1068 1.377 . S
C1069 C1070 1.379 . S
C1070 H1054 0.931 . S
C1070 C1064 1.383 . S
C1070 C1069 1.379 . S
H1071 C1065 0.959 . S
H1072 C1065 0.961 . S
H1073 C1065 0.960 . S
H1074 C1066 0.930 . S
H1075 C1067 0.929 . S
H1076 C1084 0.929 . S
H1077 C1086 0.930 . S
H1078 C1088 0.930 . S
H1079 C1091 0.929 . S
H1080 C1094 0.930 . S
H1081 C1096 0.960 . S
H1082 C1096 0.960 . S
H1083 C1096 0.960 . S
C1084 H1076 0.929 . S
C1084 C1085 1.377 . S
C1084 C1086 1.384 . S
C1085 C1084 1.377 . S
C1085 C1091 1.390 . S
C1086 H1077 0.930 . S
C1086 C1084 1.384 . S
C1086 C1087 1.372 . S
C1087 C1086 1.372 . S
C1087 C1088 1.400 . S
C1087 C1092 1.490 . S
C1088 H1078 0.930 . S
C1088 C1087 1.400 . S
C1088 C1091 1.386 . S
H1089 C1105 0.930 . S
H1090 C1106 0.931 . S
C1091 H1079 0.929 . S
C1091 C1085 1.390 . S
C1091 C1088 1.386 . S
C1092 C1087 1.490 . S
C1092 C1094 1.395 . S
C1092 C1095 1.403 . S
H1093 C1099 0.930 . S
C1094 H1080 0.930 . S
C1094 C1092 1.395 . S
C1094 C1097 1.403 . S
C1095 C1092 1.403 . S
C1095 C1096 1.524 . S
C1095 C1099 1.400 . S
C1096 H1081 0.960 . S
C1096 H1082 0.960 . S
C1096 H1083 0.960 . S
C1096 C1095 1.524 . S
C1097 C1094 1.403 . S
C1097 C1098 1.392 . S
C1097 C1101 1.495 . S
C1098 C1097 1.392 . S
C1098 C1099 1.385 . S
C1098 C1100 1.478 . S
C1099 H1093 0.930 . S
C1099 C1095 1.400 . S
C1099 C1098 1.385 . S
C1100 C1098 1.478 . S
C1100 C1102 1.381 . S
C1100 C1106 1.383 . S
C1101 C1097 1.495 . S
C1101 H1107 0.959 . S
C1101 H1108 0.961 . S
C1101 H1109 0.960 . S
C1102 C1100 1.381 . S
C1102 C1103 1.394 . S
C1102 H1110 0.930 . S
C1103 C1102 1.394 . S
C1103 C1104 1.383 . S
C1103 H1111 0.929 . S
C1104 C1103 1.383 . S
C1104 C1105 1.377 . S
C1105 H1089 0.930 . S
C1105 C1104 1.377 . S
C1105 C1106 1.379 . S
C1106 H1090 0.931 . S
C1106 C1100 1.383 . S
C1106 C1105 1.379 . S
H1107 C1101 0.959 . S
H1108 C1101 0.961 . S
H1109 C1101 0.960 . S
H1110 C1102 0.930 . S
H1111 C1103 0.929 . S
H1112 C1120 0.929 . S
H1113 C1122 0.930 . S
H1114 C1124 0.930 . S
H1115 C1127 0.929 . S
H1116 C1130 0.930 . S
H1117 C1132 0.960 . S
H1118 C1132 0.960 . S
H1119 C1132 0.960 . S
C1120 H1112 0.929 . S
C1120 C1121 1.377 . S
C1120 C1122 1.384 . S
C1121 C1120 1.377 . S
C1121 C1127 1.390 . S
C1122 H1113 0.930 . S
C1122 C1120 1.384 . S
C1122 C1123 1.372 . S
C1123 C1122 1.372 . S
C1123 C1124 1.400 . S
C1123 C1128 1.490 . S
C1124 H1114 0.930 . S
C1124 C1123 1.400 . S
C1124 C1127 1.386 . S
H1125 C1141 0.930 . S
H1126 C1142 0.931 . S
C1127 H1115 0.929 . S
C1127 C1121 1.390 . S
C1127 C1124 1.386 . S
C1128 C1123 1.490 . S
C1128 C1130 1.395 . S
C1128 C1131 1.403 . S
H1129 C1135 0.930 . S
C1130 H1116 0.930 . S
C1130 C1128 1.395 . S
C1130 C1133 1.403 . S
C1131 C1128 1.403 . S
C1131 C1132 1.524 . S
C1131 C1135 1.400 . S
C1132 H1117 0.960 . S
C1132 H1118 0.960 . S
C1132 H1119 0.960 . S
C1132 C1131 1.524 . S
C1133 C1130 1.403 . S
C1133 C1134 1.392 . S
C1133 C1137 1.495 . S
C1134 C1133 1.392 . S
C1134 C1135 1.385 . S
C1134 C1136 1.478 . S
C1135 H1129 0.930 . S
C1135 C1131 1.400 . S
C1135 C1134 1.385 . S
C1136 C1134 1.478 . S
C1136 C1138 1.381 . S
C1136 C1142 1.383 . S
C1137 C1133 1.495 . S
C1137 H1143 0.959 . S
C1137 H1144 0.961 . S
C1137 H1145 0.960 . S
C1138 C1136 1.381 . S
C1138 C1139 1.394 . S
C1138 H1146 0.930 . S
C1139 C1138 1.394 . S
C1139 C1140 1.383 . S
C1139 H1147 0.929 . S
C1140 C1139 1.383 . S
C1140 C1141 1.377 . S
C1141 H1125 0.930 . S
C1141 C1140 1.377 . S
C1141 C1142 1.379 . S
C1142 H1126 0.931 . S
C1142 C1136 1.383 . S
C1142 C1141 1.379 . S
H1143 C1137 0.959 . S
H1144 C1137 0.961 . S
H1145 C1137 0.960 . S
H1146 C1138 0.930 . S
H1147 C1139 0.929 . S
H1148 C1156 0.929 . S
H1149 C1158 0.930 . S
H1150 C1160 0.930 . S
H1151 C1163 0.929 . S
H1152 C1166 0.930 . S
H1153 C1168 0.960 . S
H1154 C1168 0.960 . S
H1155 C1168 0.960 . S
C1156 H1148 0.929 . S
C1156 C1157 1.377 . S
C1156 C1158 1.384 . S
C1157 C1156 1.377 . S
C1157 C1163 1.390 . S
C1158 H1149 0.930 . S
C1158 C1156 1.384 . S
C1158 C1159 1.372 . S
C1159 C1158 1.372 . S
C1159 C1160 1.400 . S
C1159 C1164 1.490 . S
C1160 H1150 0.930 . S
C1160 C1159 1.400 . S
C1160 C1163 1.386 . S
H1161 C1177 0.930 . S
H1162 C1178 0.931 . S
C1163 H1151 0.929 . S
C1163 C1157 1.390 . S
C1163 C1160 1.386 . S
C1164 C1159 1.490 . S
C1164 C1166 1.395 . S
C1164 C1167 1.403 . S
H1165 C1171 0.930 . S
C1166 H1152 0.930 . S
C1166 C1164 1.395 . S
C1166 C1169 1.403 . S
C1167 C1164 1.403 . S
C1167 C1168 1.524 . S
C1167 C1171 1.400 . S
C1168 H1153 0.960 . S
C1168 H1154 0.960 . S
C1168 H1155 0.960 . S
C1168 C1167 1.524 . S
C1169 C1166 1.403 . S
C1169 C1170 1.392 . S
C1169 C1173 1.495 . S
C1170 C1169 1.392 . S
C1170 C1171 1.385 . S
C1170 C1172 1.478 . S
C1171 H1165 0.930 . S
C1171 C1167 1.400 . S
C1171 C1170 1.385 . S
C1172 C1170 1.478 . S
C1172 C1174 1.381 . S
C1172 C1178 1.383 . S
C1173 C1169 1.495 . S
C1173 H1179 0.959 . S
C1173 H1180 0.961 . S
C1173 H1181 0.960 . S
C1174 C1172 1.381 . S
C1174 C1175 1.394 . S
C1174 H1182 0.930 . S
C1175 C1174 1.394 . S
C1175 C1176 1.383 . S
C1175 H1183 0.929 . S
C1176 C1175 1.383 . S
C1176 C1177 1.377 . S
C1177 H1161 0.930 . S
C1177 C1176 1.377 . S
C1177 C1178 1.379 . S
C1178 H1162 0.931 . S
C1178 C1172 1.383 . S
C1178 C1177 1.379 . S
H1179 C1173 0.959 . S
H1180 C1173 0.961 . S
H1181 C1173 0.960 . S
H1182 C1174 0.930 . S
H1183 C1175 0.929 . S
H1184 C1192 0.929 . S
H1185 C1194 0.930 . S
H1186 C1196 0.930 . S
H1187 C1199 0.929 . S
H1188 C1202 0.930 . S
H1189 C1204 0.960 . S
H1190 C1204 0.960 . S
H1191 C1204 0.960 . S
C1192 H1184 0.929 . S
C1192 C1193 1.377 . S
C1192 C1194 1.384 . S
C1193 C1192 1.377 . S
C1193 C1199 1.390 . S
C1194 H1185 0.930 . S
C1194 C1192 1.384 . S
C1194 C1195 1.372 . S
C1195 C1194 1.372 . S
C1195 C1196 1.400 . S
C1195 C1200 1.490 . S
C1196 H1186 0.930 . S
C1196 C1195 1.400 . S
C1196 C1199 1.386 . S
H1197 C1213 0.930 . S
H1198 C1214 0.931 . S
C1199 H1187 0.929 . S
C1199 C1193 1.390 . S
C1199 C1196 1.386 . S
C1200 C1195 1.490 . S
C1200 C1202 1.395 . S
C1200 C1203 1.403 . S
H1201 C1207 0.930 . S
C1202 H1188 0.930 . S
C1202 C1200 1.395 . S
C1202 C1205 1.403 . S
C1203 C1200 1.403 . S
C1203 C1204 1.524 . S
C1203 C1207 1.400 . S
C1204 H1189 0.960 . S
C1204 H1190 0.960 . S
C1204 H1191 0.960 . S
C1204 C1203 1.524 . S
C1205 C1202 1.403 . S
C1205 C1206 1.392 . S
C1205 C1209 1.495 . S
C1206 C1205 1.392 . S
C1206 C1207 1.385 . S
C1206 C1208 1.478 . S
C1207 H1201 0.930 . S
C1207 C1203 1.400 . S
C1207 C1206 1.385 . S
C1208 C1206 1.478 . S
C1208 C1210 1.381 . S
C1208 C1214 1.383 . S
C1209 C1205 1.495 . S
C1209 H1215 0.959 . S
C1209 H1216 0.961 . S
C1209 H1217 0.960 . S
C1210 C1208 1.381 . S
C1210 C1211 1.394 . S
C1210 H1218 0.930 . S
C1211 C1210 1.394 . S
C1211 C1212 1.383 . S
C1211 H1219 0.929 . S
C1212 C1211 1.383 . S
C1212 C1213 1.377 . S
C1213 H1197 0.930 . S
C1213 C1212 1.377 . S
C1213 C1214 1.379 . S
C1214 H1198 0.931 . S
C1214 C1208 1.383 . S
C1214 C1213 1.379 . S
H1215 C1209 0.959 . S
H1216 C1209 0.961 . S
H1217 C1209 0.960 . S
H1218 C1210 0.930 . S
H1219 C1211 0.929 . S
H1220 C1228 0.929 . S
H1221 C1230 0.930 . S
H1222 C1232 0.930 . S
H1223 C1235 0.929 . S
H1224 C1238 0.930 . S
H1225 C1240 0.960 . S
H1226 C1240 0.960 . S
H1227 C1240 0.960 . S
C1228 H1220 0.929 . S
C1228 C1229 1.377 . S
C1228 C1230 1.384 . S
C1229 C1228 1.377 . S
C1229 C1235 1.390 . S
C1230 H1221 0.930 . S
C1230 C1228 1.384 . S
C1230 C1231 1.372 . S
C1231 C1230 1.372 . S
C1231 C1232 1.400 . S
C1231 C1236 1.490 . S
C1232 H1222 0.930 . S
C1232 C1231 1.400 . S
C1232 C1235 1.386 . S
H1233 C1249 0.930 . S
H1234 C1250 0.931 . S
C1235 H1223 0.929 . S
C1235 C1229 1.390 . S
C1235 C1232 1.386 . S
C1236 C1231 1.490 . S
C1236 C1238 1.395 . S
C1236 C1239 1.403 . S
H1237 C1243 0.930 . S
C1238 H1224 0.930 . S
C1238 C1236 1.395 . S
C1238 C1241 1.403 . S
C1239 C1236 1.403 . S
C1239 C1240 1.524 . S
C1239 C1243 1.400 . S
C1240 H1225 0.960 . S
C1240 H1226 0.960 . S
C1240 H1227 0.960 . S
C1240 C1239 1.524 . S
C1241 C1238 1.403 . S
C1241 C1242 1.392 . S
C1241 C1245 1.495 . S
C1242 C1241 1.392 . S
C1242 C1243 1.385 . S
C1242 C1244 1.478 . S
C1243 H1237 0.930 . S
C1243 C1239 1.400 . S
C1243 C1242 1.385 . S
C1244 C1242 1.478 . S
C1244 C1246 1.381 . S
C1244 C1250 1.383 . S
C1245 C1241 1.495 . S
C1245 H1251 0.959 . S
C1245 H1252 0.961 . S
C1245 H1253 0.960 . S
C1246 C1244 1.381 . S
C1246 C1247 1.394 . S
C1246 H1254 0.930 . S
C1247 C1246 1.394 . S
C1247 C1248 1.383 . S
C1247 H1255 0.929 . S
C1248 C1247 1.383 . S
C1248 C1249 1.377 . S
C1249 H1233 0.930 . S
C1249 C1248 1.377 . S
C1249 C1250 1.379 . S
C1250 H1234 0.931 . S
C1250 C1244 1.383 . S
C1250 C1249 1.379 . S
H1251 C1245 0.959 . S
H1252 C1245 0.961 . S
H1253 C1245 0.960 . S
H1254 C1246 0.930 . S
H1255 C1247 0.929 . S
H1256 C1264 0.929 . S
H1257 C1266 0.930 . S
H1258 C1268 0.930 . S
H1259 C1271 0.929 . S
H1260 C1274 0.930 . S
H1261 C1276 0.960 . S
H1262 C1276 0.960 . S
H1263 C1276 0.960 . S
C1264 H1256 0.929 . S
C1264 C1265 1.377 . S
C1264 C1266 1.384 . S
C1265 C1264 1.377 . S
C1265 C1271 1.390 . S
C1266 H1257 0.930 . S
C1266 C1264 1.384 . S
C1266 C1267 1.372 . S
C1267 C1266 1.372 . S
C1267 C1268 1.400 . S
C1267 C1272 1.490 . S
C1268 H1258 0.930 . S
C1268 C1267 1.400 . S
C1268 C1271 1.386 . S
H1269 C1285 0.930 . S
H1270 C1286 0.931 . S
C1271 H1259 0.929 . S
C1271 C1265 1.390 . S
C1271 C1268 1.386 . S
C1272 C1267 1.490 . S
C1272 C1274 1.395 . S
C1272 C1275 1.403 . S
H1273 C1279 0.930 . S
C1274 H1260 0.930 . S
C1274 C1272 1.395 . S
C1274 C1277 1.403 . S
C1275 C1272 1.403 . S
C1275 C1276 1.524 . S
C1275 C1279 1.400 . S
C1276 H1261 0.960 . S
C1276 H1262 0.960 . S
C1276 H1263 0.960 . S
C1276 C1275 1.524 . S
C1277 C1274 1.403 . S
C1277 C1278 1.392 . S
C1277 C1281 1.495 . S
C1278 C1277 1.392 . S
C1278 C1279 1.385 . S
C1278 C1280 1.478 . S
C1279 H1273 0.930 . S
C1279 C1275 1.400 . S
C1279 C1278 1.385 . S
C1280 C1278 1.478 . S
C1280 C1282 1.381 . S
C1280 C1286 1.383 . S
C1281 C1277 1.495 . S
C1281 H1287 0.959 . S
C1281 H1288 0.961 . S
C1281 H1289 0.960 . S
C1282 C1280 1.381 . S
C1282 C1283 1.394 . S
C1282 H1290 0.930 . S
C1283 C1282 1.394 . S
C1283 C1284 1.383 . S
C1283 H1291 0.929 . S
C1284 C1283 1.383 . S
C1284 C1285 1.377 . S
C1285 H1269 0.930 . S
C1285 C1284 1.377 . S
C1285 C1286 1.379 . S
C1286 H1270 0.931 . S
C1286 C1280 1.383 . S
C1286 C1285 1.379 . S
H1287 C1281 0.959 . S
H1288 C1281 0.961 . S
H1289 C1281 0.960 . S
H1290 C1282 0.930 . S
H1291 C1283 0.929 . S
H1292 C1300 0.929 . S
H1293 C1302 0.930 . S
H1294 C1304 0.930 . S
H1295 C1307 0.929 . S
H1296 C1310 0.930 . S
H1297 C1312 0.960 . S
H1298 C1312 0.960 . S
H1299 C1312 0.960 . S
C1300 H1292 0.929 . S
C1300 C1301 1.377 . S
C1300 C1302 1.384 . S
C1301 C1300 1.377 . S
C1301 C1307 1.390 . S
C1302 H1293 0.930 . S
C1302 C1300 1.384 . S
C1302 C1303 1.372 . S
C1303 C1302 1.372 . S
C1303 C1304 1.400 . S
C1303 C1308 1.490 . S
C1304 H1294 0.930 . S
C1304 C1303 1.400 . S
C1304 C1307 1.386 . S
H1305 C1321 0.930 . S
H1306 C1322 0.931 . S
C1307 H1295 0.929 . S
C1307 C1301 1.390 . S
C1307 C1304 1.386 . S
C1308 C1303 1.490 . S
C1308 C1310 1.395 . S
C1308 C1311 1.403 . S
H1309 C1315 0.930 . S
C1310 H1296 0.930 . S
C1310 C1308 1.395 . S
C1310 C1313 1.403 . S
C1311 C1308 1.403 . S
C1311 C1312 1.524 . S
C1311 C1315 1.400 . S
C1312 H1297 0.960 . S
C1312 H1298 0.960 . S
C1312 H1299 0.960 . S
C1312 C1311 1.524 . S
C1313 C1310 1.403 . S
C1313 C1314 1.392 . S
C1313 C1317 1.495 . S
C1314 C1313 1.392 . S
C1314 C1315 1.385 . S
C1314 C1316 1.478 . S
C1315 H1309 0.930 . S
C1315 C1311 1.400 . S
C1315 C1314 1.385 . S
C1316 C1314 1.478 . S
C1316 C1318 1.381 . S
C1316 C1322 1.383 . S
C1317 C1313 1.495 . S
C1317 H1323 0.959 . S
C1317 H1324 0.961 . S
C1317 H1325 0.960 . S
C1318 C1316 1.381 . S
C1318 C1319 1.394 . S
C1318 H1326 0.930 . S
C1319 C1318 1.394 . S
C1319 C1320 1.383 . S
C1319 H1327 0.929 . S
C1320 C1319 1.383 . S
C1320 C1321 1.377 . S
C1321 H1305 0.930 . S
C1321 C1320 1.377 . S
C1321 C1322 1.379 . S
C1322 H1306 0.931 . S
C1322 C1316 1.383 . S
C1322 C1321 1.379 . S
H1323 C1317 0.959 . S
H1324 C1317 0.961 . S
H1325 C1317 0.960 . S
H1326 C1318 0.930 . S
H1327 C1319 0.929 . S
H1328 C1336 0.929 . S
H1329 C1338 0.930 . S
H1330 C1340 0.930 . S
H1331 C1343 0.929 . S
H1332 C1346 0.930 . S
H1333 C1348 0.960 . S
H1334 C1348 0.960 . S
H1335 C1348 0.960 . S
C1336 H1328 0.929 . S
C1336 C1337 1.377 . S
C1336 C1338 1.384 . S
C1337 C1336 1.377 . S
C1337 C1343 1.390 . S
C1338 H1329 0.930 . S
C1338 C1336 1.384 . S
C1338 C1339 1.372 . S
C1339 C1338 1.372 . S
C1339 C1340 1.400 . S
C1339 C1344 1.490 . S
C1340 H1330 0.930 . S
C1340 C1339 1.400 . S
C1340 C1343 1.386 . S
H1341 C1357 0.930 . S
H1342 C1358 0.931 . S
C1343 H1331 0.929 . S
C1343 C1337 1.390 . S
C1343 C1340 1.386 . S
C1344 C1339 1.490 . S
C1344 C1346 1.395 . S
C1344 C1347 1.403 . S
H1345 C1351 0.930 . S
C1346 H1332 0.930 . S
C1346 C1344 1.395 . S
C1346 C1349 1.403 . S
C1347 C1344 1.403 . S
C1347 C1348 1.524 . S
C1347 C1351 1.400 . S
C1348 H1333 0.960 . S
C1348 H1334 0.960 . S
C1348 H1335 0.960 . S
C1348 C1347 1.524 . S
C1349 C1346 1.403 . S
C1349 C1350 1.392 . S
C1349 C1353 1.495 . S
C1350 C1349 1.392 . S
C1350 C1351 1.385 . S
C1350 C1352 1.478 . S
C1351 H1345 0.930 . S
C1351 C1347 1.400 . S
C1351 C1350 1.385 . S
C1352 C1350 1.478 . S
C1352 C1354 1.381 . S
C1352 C1358 1.383 . S
C1353 C1349 1.495 . S
C1353 H1359 0.959 . S
C1353 H1360 0.961 . S
C1353 H1361 0.960 . S
C1354 C1352 1.381 . S
C1354 C1355 1.394 . S
C1354 H1362 0.930 . S
C1355 C1354 1.394 . S
C1355 C1356 1.383 . S
C1355 H1363 0.929 . S
C1356 C1355 1.383 . S
C1356 C1357 1.377 . S
C1357 H1341 0.930 . S
C1357 C1356 1.377 . S
C1357 C1358 1.379 . S
C1358 H1342 0.931 . S
C1358 C1352 1.383 . S
C1358 C1357 1.379 . S
H1359 C1353 0.959 . S
H1360 C1353 0.961 . S
H1361 C1353 0.960 . S
H1362 C1354 0.930 . S
H1363 C1355 0.929 . S
H1364 C1372 0.929 . S
H1365 C1374 0.930 . S
H1366 C1376 0.930 . S
H1367 C1379 0.929 . S
H1368 C1382 0.930 . S
H1369 C1384 0.960 . S
H1370 C1384 0.960 1_545 S
H1371 C1384 0.960 . S
C1372 H1364 0.929 . S
C1372 C1373 1.377 . S
C1372 C1374 1.384 . S
C1373 C1372 1.377 . S
C1373 C1379 1.390 1_545 S
C1374 H1365 0.930 . S
C1374 C1372 1.384 . S
C1374 C1375 1.372 1_545 S
C1375 C1374 1.372 1_565 S
C1375 C1376 1.400 . S
C1375 C1380 1.490 . S
C1376 H1366 0.930 . S
C1376 C1375 1.400 . S
C1376 C1379 1.386 . S
H1377 C1393 0.930 . S
H1378 C1394 0.931 . S
C1379 H1367 0.929 . S
C1379 C1373 1.390 1_565 S
C1379 C1376 1.386 . S
C1380 C1375 1.490 . S
C1380 C1382 1.395 . S
C1380 C1383 1.403 . S
H1381 C1387 0.930 . S
C1382 H1368 0.930 . S
C1382 C1380 1.395 . S
C1382 C1385 1.403 . S
C1383 C1380 1.403 . S
C1383 C1384 1.524 . S
C1383 C1387 1.400 . S
C1384 H1369 0.960 . S
C1384 H1370 0.960 1_565 S
C1384 H1371 0.960 . S
C1384 C1383 1.524 . S
C1385 C1382 1.403 . S
C1385 C1386 1.392 . S
C1385 C1389 1.495 . S
C1386 C1385 1.392 . S
C1386 C1387 1.385 . S
C1386 C1388 1.478 . S
C1387 H1381 0.930 . S
C1387 C1383 1.400 . S
C1387 C1386 1.385 . S
C1388 C1386 1.478 . S
C1388 C1390 1.381 . S
C1388 C1394 1.383 . S
C1389 C1385 1.495 . S
C1389 H1395 0.959 . S
C1389 H1396 0.961 . S
C1389 H1397 0.960 . S
C1390 C1388 1.381 . S
C1390 C1391 1.394 . S
C1390 H1398 0.930 . S
C1391 C1390 1.394 . S
C1391 C1392 1.383 . S
C1391 H1399 0.929 . S
C1392 C1391 1.383 . S
C1392 C1393 1.377 . S
C1393 H1377 0.930 . S
C1393 C1392 1.377 . S
C1393 C1394 1.379 . S
C1394 H1378 0.931 . S
C1394 C1388 1.383 . S
C1394 C1393 1.379 . S
H1395 C1389 0.959 . S
H1396 C1389 0.961 . S
H1397 C1389 0.960 . S
H1398 C1390 0.930 . S
H1399 C1391 0.929 . S
H1400 C1408 0.929 . S
H1401 C1410 0.930 . S
H1402 C1412 0.930 . S
H1403 C1415 0.929 . S
H1404 C1418 0.930 . S
H1405 C1420 0.960 . S
H1406 C1420 0.960 . S
H1407 C1420 0.960 . S
C1408 H1400 0.929 . S
C1408 C1409 1.377 . S
C1408 C1410 1.384 . S
C1409 C1408 1.377 . S
C1409 C1415 1.390 . S
C1410 H1401 0.930 . S
C1410 C1408 1.384 . S
C1410 C1411 1.372 . S
C1411 C1410 1.372 . S
C1411 C1412 1.400 . S
C1411 C1416 1.490 . S
C1412 H1402 0.930 . S
C1412 C1411 1.400 . S
C1412 C1415 1.386 . S
H1413 C1429 0.930 . S
H1414 C1430 0.931 . S
C1415 H1403 0.929 . S
C1415 C1409 1.390 . S
C1415 C1412 1.386 . S
C1416 C1411 1.490 . S
C1416 C1418 1.395 . S
C1416 C1419 1.403 . S
H1417 C1423 0.930 . S
C1418 H1404 0.930 . S
C1418 C1416 1.395 . S
C1418 C1421 1.403 . S
C1419 C1416 1.403 . S
C1419 C1420 1.524 . S
C1419 C1423 1.400 . S
C1420 H1405 0.960 . S
C1420 H1406 0.960 . S
C1420 H1407 0.960 . S
C1420 C1419 1.524 . S
C1421 C1418 1.403 . S
C1421 C1422 1.392 . S
C1421 C1425 1.495 . S
C1422 C1421 1.392 . S
C1422 C1423 1.385 . S
C1422 C1424 1.478 . S
C1423 H1417 0.930 . S
C1423 C1419 1.400 . S
C1423 C1422 1.385 . S
C1424 C1422 1.478 . S
C1424 C1426 1.381 . S
C1424 C1430 1.383 . S
C1425 C1421 1.495 . S
C1425 H1431 0.959 . S
C1425 H1432 0.961 . S
C1425 H1433 0.960 . S
C1426 C1424 1.381 . S
C1426 C1427 1.394 . S
C1426 H1434 0.930 . S
C1427 C1426 1.394 . S
C1427 C1428 1.383 . S
C1427 H1435 0.929 . S
C1428 C1427 1.383 . S
C1428 C1429 1.377 . S
C1429 H1413 0.930 . S
C1429 C1428 1.377 . S
C1429 C1430 1.379 . S
C1430 H1414 0.931 . S
C1430 C1424 1.383 . S
C1430 C1429 1.379 . S
H1431 C1425 0.959 . S
H1432 C1425 0.961 . S
H1433 C1425 0.960 . S
H1434 C1426 0.930 . S
H1435 C1427 0.929 . S
H1436 C1444 0.929 . S
H1437 C1446 0.930 . S
H1438 C1448 0.930 . S
H1439 C1451 0.929 . S
H1440 C1454 0.930 . S
H1441 C1456 0.960 . S
H1442 C1456 0.960 . S
H1443 C1456 0.960 . S
C1444 H1436 0.929 . S
C1444 C1445 1.377 . S
C1444 C1446 1.384 . S
C1445 C1444 1.377 . S
C1445 C1451 1.390 . S
C1446 H1437 0.930 . S
C1446 C1444 1.384 . S
C1446 C1447 1.372 . S
C1447 C1446 1.372 . S
C1447 C1448 1.400 . S
C1447 C1452 1.490 . S
C1448 H1438 0.930 . S
C1448 C1447 1.400 . S
C1448 C1451 1.386 . S
H1449 C1465 0.930 . S
H1450 C1466 0.931 . S
C1451 H1439 0.929 . S
C1451 C1445 1.390 . S
C1451 C1448 1.386 . S
C1452 C1447 1.490 . S
C1452 C1454 1.395 . S
C1452 C1455 1.403 . S
H1453 C1459 0.930 . S
C1454 H1440 0.930 . S
C1454 C1452 1.395 . S
C1454 C1457 1.403 . S
C1455 C1452 1.403 . S
C1455 C1456 1.524 . S
C1455 C1459 1.400 . S
C1456 H1441 0.960 . S
C1456 H1442 0.960 . S
C1456 H1443 0.960 . S
C1456 C1455 1.524 . S
C1457 C1454 1.403 . S
C1457 C1458 1.392 . S
C1457 C1461 1.495 . S
C1458 C1457 1.392 . S
C1458 C1459 1.385 . S
C1458 C1460 1.478 . S
C1459 H1453 0.930 . S
C1459 C1455 1.400 . S
C1459 C1458 1.385 . S
C1460 C1458 1.478 . S
C1460 C1462 1.381 1_545 S
C1460 C1466 1.383 . S
C1461 C1457 1.495 . S
C1461 H1467 0.959 . S
C1461 H1468 0.961 . S
C1461 H1469 0.960 . S
C1462 C1460 1.381 1_565 S
C1462 C1463 1.394 . S
C1462 H1470 0.930 . S
C1463 C1462 1.394 . S
C1463 C1464 1.383 . S
C1463 H1471 0.929 . S
C1464 C1463 1.383 . S
C1464 C1465 1.377 1_565 S
C1465 H1449 0.930 . S
C1465 C1464 1.377 1_545 S
C1465 C1466 1.379 . S
C1466 H1450 0.931 . S
C1466 C1460 1.383 . S
C1466 C1465 1.379 . S
H1467 C1461 0.959 . S
H1468 C1461 0.961 . S
H1469 C1461 0.960 . S
H1470 C1462 0.930 . S
H1471 C1463 0.929 . S
H1472 C1480 0.929 . S
H1473 C1482 0.930 . S
H1474 C1484 0.930 . S
H1475 C1487 0.929 . S
H1476 C1490 0.930 . S
H1477 C1492 0.960 . S
H1478 C1492 0.960 . S
H1479 C1492 0.960 . S
C1480 H1472 0.929 . S
C1480 C1481 1.377 . S
C1480 C1482 1.384 . S
C1481 C1480 1.377 . S
C1481 C1487 1.390 . S
C1482 H1473 0.930 . S
C1482 C1480 1.384 . S
C1482 C1483 1.372 . S
C1483 C1482 1.372 . S
C1483 C1484 1.400 . S
C1483 C1488 1.490 . S
C1484 H1474 0.930 . S
C1484 C1483 1.400 . S
C1484 C1487 1.386 . S
H1485 C1501 0.930 . S
H1486 C1502 0.931 . S
C1487 H1475 0.929 . S
C1487 C1481 1.390 . S
C1487 C1484 1.386 . S
C1488 C1483 1.490 . S
C1488 C1490 1.395 . S
C1488 C1491 1.403 . S
H1489 C1495 0.930 . S
C1490 H1476 0.930 . S
C1490 C1488 1.395 . S
C1490 C1493 1.403 . S
C1491 C1488 1.403 . S
C1491 C1492 1.524 . S
C1491 C1495 1.400 . S
C1492 H1477 0.960 . S
C1492 H1478 0.960 . S
C1492 H1479 0.960 . S
C1492 C1491 1.524 . S
C1493 C1490 1.403 . S
C1493 C1494 1.392 . S
C1493 C1497 1.495 . S
C1494 C1493 1.392 . S
C1494 C1495 1.385 . S
C1494 C1496 1.478 . S
C1495 H1489 0.930 . S
C1495 C1491 1.400 . S
C1495 C1494 1.385 . S
C1496 C1494 1.478 . S
C1496 C1498 1.381 . S
C1496 C1502 1.383 . S
C1497 C1493 1.495 . S
C1497 H1503 0.959 . S
C1497 H1504 0.961 . S
C1497 H1505 0.960 . S
C1498 C1496 1.381 . S
C1498 C1499 1.394 . S
C1498 H1506 0.930 . S
C1499 C1498 1.394 . S
C1499 C1500 1.383 . S
C1499 H1507 0.929 . S
C1500 C1499 1.383 . S
C1500 C1501 1.377 . S
C1501 H1485 0.930 . S
C1501 C1500 1.377 . S
C1501 C1502 1.379 . S
C1502 H1486 0.931 . S
C1502 C1496 1.383 . S
C1502 C1501 1.379 . S
H1503 C1497 0.959 . S
H1504 C1497 0.961 . S
H1505 C1497 0.960 . S
H1506 C1498 0.930 . S
H1507 C1499 0.929 . S
H1508 C1516 0.929 1_655 S
H1509 C1518 0.930 . S
H1510 C1520 0.930 . S
H1511 C1523 0.929 . S
H1512 C1526 0.930 . S
H1513 C1528 0.960 . S
H1514 C1528 0.960 . S
H1515 C1528 0.960 . S
C1516 H1508 0.929 1_455 S
C1516 C1517 1.377 1_545 S
C1516 C1518 1.384 . S
C1517 C1516 1.377 1_565 S
C1517 C1523 1.390 . S
C1518 H1509 0.930 . S
C1518 C1516 1.384 . S
C1518 C1519 1.372 . S
C1519 C1518 1.372 . S
C1519 C1520 1.400 1_545 S
C1519 C1524 1.490 . S
C1520 H1510 0.930 . S
C1520 C1519 1.400 1_565 S
C1520 C1523 1.386 . S
H1521 C1537 0.930 . S
H1522 C1538 0.931 . S
C1523 H1511 0.929 . S
C1523 C1517 1.390 . S
C1523 C1520 1.386 . S
C1524 C1519 1.490 . S
C1524 C1526 1.395 . S
C1524 C1527 1.403 . S
H1525 C1531 0.930 . S
C1526 H1512 0.930 . S
C1526 C1524 1.395 . S
C1526 C1529 1.403 . S
C1527 C1524 1.403 . S
C1527 C1528 1.524 1_545 S
C1527 C1531 1.400 . S
C1528 H1513 0.960 . S
C1528 H1514 0.960 . S
C1528 H1515 0.960 . S
C1528 C1527 1.524 1_565 S
C1529 C1526 1.403 . S
C1529 C1530 1.392 . S
C1529 C1533 1.495 . S
C1530 C1529 1.392 . S
C1530 C1531 1.385 . S
C1530 C1532 1.478 . S
C1531 H1525 0.930 . S
C1531 C1527 1.400 . S
C1531 C1530 1.385 . S
C1532 C1530 1.478 . S
C1532 C1534 1.381 . S
C1532 C1538 1.383 . S
C1533 C1529 1.495 . S
C1533 H1539 0.959 . S
C1533 H1540 0.961 . S
C1533 H1541 0.960 . S
C1534 C1532 1.381 . S
C1534 C1535 1.394 . S
C1534 H1542 0.930 . S
C1535 C1534 1.394 . S
C1535 C1536 1.383 . S
C1535 H1543 0.929 . S
C1536 C1535 1.383 . S
C1536 C1537 1.377 . S
C1537 H1521 0.930 . S
C1537 C1536 1.377 . S
C1537 C1538 1.379 . S
C1538 H1522 0.931 . S
C1538 C1532 1.383 . S
C1538 C1537 1.379 . S
H1539 C1533 0.959 . S
H1540 C1533 0.961 . S
H1541 C1533 0.960 . S
H1542 C1534 0.930 . S
H1543 C1535 0.929 . S
H1544 C1552 0.929 . S
H1545 C1554 0.930 . S
H1546 C1556 0.930 . S
H1547 C1559 0.929 . S
H1548 C1562 0.930 . S
H1549 C1564 0.960 . S
H1550 C1564 0.960 . S
H1551 C1564 0.960 . S
C1552 H1544 0.929 . S
C1552 C1553 1.377 . S
C1552 C1554 1.384 . S
C1553 C1552 1.377 . S
C1553 C1559 1.390 . S
C1554 H1545 0.930 . S
C1554 C1552 1.384 . S
C1554 C1555 1.372 . S
C1555 C1554 1.372 . S
C1555 C1556 1.400 . S
C1555 C1560 1.490 . S
C1556 H1546 0.930 . S
C1556 C1555 1.400 . S
C1556 C1559 1.386 . S
H1557 C1573 0.930 . S
H1558 C1574 0.931 . S
C1559 H1547 0.929 . S
C1559 C1553 1.390 . S
C1559 C1556 1.386 . S
C1560 C1555 1.490 . S
C1560 C1562 1.395 . S
C1560 C1563 1.403 . S
H1561 C1567 0.930 . S
C1562 H1548 0.930 . S
C1562 C1560 1.395 . S
C1562 C1565 1.403 . S
C1563 C1560 1.403 . S
C1563 C1564 1.524 . S
C1563 C1567 1.400 . S
C1564 H1549 0.960 . S
C1564 H1550 0.960 . S
C1564 H1551 0.960 . S
C1564 C1563 1.524 . S
C1565 C1562 1.403 . S
C1565 C1566 1.392 . S
C1565 C1569 1.495 . S
C1566 C1565 1.392 . S
C1566 C1567 1.385 . S
C1566 C1568 1.478 . S
C1567 H1561 0.930 . S
C1567 C1563 1.400 . S
C1567 C1566 1.385 . S
C1568 C1566 1.478 . S
C1568 C1570 1.381 . S
C1568 C1574 1.383 . S
C1569 C1565 1.495 . S
C1569 H1575 0.959 . S
C1569 H1576 0.961 . S
C1569 H1577 0.960 . S
C1570 C1568 1.381 . S
C1570 C1571 1.394 . S
C1570 H1578 0.930 . S
C1571 C1570 1.394 . S
C1571 C1572 1.383 . S
C1571 H1579 0.929 . S
C1572 C1571 1.383 . S
C1572 C1573 1.377 . S
C1573 H1557 0.930 . S
C1573 C1572 1.377 . S
C1573 C1574 1.379 . S
C1574 H1558 0.931 . S
C1574 C1568 1.383 . S
C1574 C1573 1.379 . S
H1575 C1569 0.959 . S
H1576 C1569 0.961 . S
H1577 C1569 0.960 . S
H1578 C1570 0.930 . S
H1579 C1571 0.929 . S
H1580 C1588 0.929 . S
H1581 C1590 0.930 . S
H1582 C1592 0.930 . S
H1583 C1595 0.929 . S
H1584 C1598 0.930 1_545 S
H1585 C1600 0.960 . S
H1586 C1600 0.960 . S
H1587 C1600 0.960 . S
C1588 H1580 0.929 . S
C1588 C1589 1.377 . S
C1588 C1590 1.384 . S
C1589 C1588 1.377 . S
C1589 C1595 1.390 1_545 S
C1590 H1581 0.930 . S
C1590 C1588 1.384 . S
C1590 C1591 1.372 1_545 S
C1591 C1590 1.372 1_565 S
C1591 C1592 1.400 . S
C1591 C1596 1.490 . S
C1592 H1582 0.930 . S
C1592 C1591 1.400 . S
C1592 C1595 1.386 . S
H1593 C1609 0.930 . S
H1594 C1610 0.931 . S
C1595 H1583 0.929 . S
C1595 C1589 1.390 1_565 S
C1595 C1592 1.386 . S
C1596 C1591 1.490 . S
C1596 C1598 1.395 . S
C1596 C1599 1.403 . S
H1597 C1603 0.930 . S
C1598 H1584 0.930 1_565 S
C1598 C1596 1.395 . S
C1598 C1601 1.403 . S
C1599 C1596 1.403 . S
C1599 C1600 1.524 . S
C1599 C1603 1.400 . S
C1600 H1585 0.960 . S
C1600 H1586 0.960 . S
C1600 H1587 0.960 . S
C1600 C1599 1.524 . S
C1601 C1598 1.403 . S
C1601 C1602 1.392 . S
C1601 C1605 1.495 1_565 S
C1602 C1601 1.392 . S
C1602 C1603 1.385 . S
C1602 C1604 1.478 . S
C1603 H1597 0.930 . S
C1603 C1599 1.400 . S
C1603 C1602 1.385 . S
C1604 C1602 1.478 . S
C1604 C1606 1.381 . S
C1604 C1610 1.383 . S
C1605 C1601 1.495 1_545 S
C1605 H1611 0.959 . S
C1605 H1612 0.961 . S
C1605 H1613 0.960 . S
C1606 C1604 1.381 . S
C1606 C1607 1.394 . S
C1606 H1614 0.930 . S
C1607 C1606 1.394 . S
C1607 C1608 1.383 . S
C1607 H1615 0.929 . S
C1608 C1607 1.383 . S
C1608 C1609 1.377 . S
C1609 H1593 0.930 . S
C1609 C1608 1.377 . S
C1609 C1610 1.379 . S
C1610 H1594 0.931 . S
C1610 C1604 1.383 . S
C1610 C1609 1.379 . S
H1611 C1605 0.959 . S
H1612 C1605 0.961 . S
H1613 C1605 0.960 . S
H1614 C1606 0.930 . S
H1615 C1607 0.929 . S
H1616 C1624 0.929 . S
H1617 C1626 0.930 . S
H1618 C1628 0.930 1_554 S
H1619 C1631 0.929 1_554 S
H1620 C1634 0.930 . S
H1621 C1636 0.960 . S
H1622 C1636 0.960 . S
H1623 C1636 0.960 . S
C1624 H1616 0.929 . S
C1624 C1625 1.377 . S
C1624 C1626 1.384 . S
C1625 C1624 1.377 . S
C1625 C1631 1.390 . S
C1626 H1617 0.930 . S
C1626 C1624 1.384 . S
C1626 C1627 1.372 . S
C1627 C1626 1.372 . S
C1627 C1628 1.400 . S
C1627 C1632 1.490 . S
C1628 H1618 0.930 1_556 S
C1628 C1627 1.400 . S
C1628 C1631 1.386 . S
H1629 C1645 0.930 . S
H1630 C1646 0.931 . S
C1631 H1619 0.929 1_556 S
C1631 C1625 1.390 . S
C1631 C1628 1.386 . S
C1632 C1627 1.490 . S
C1632 C1634 1.395 . S
C1632 C1635 1.403 1_566 S
H1633 C1639 0.930 . S
C1634 H1620 0.930 . S
C1634 C1632 1.395 . S
C1634 C1637 1.403 . S
C1635 C1632 1.403 1_544 S
C1635 C1636 1.524 . S
C1635 C1639 1.400 . S
C1636 H1621 0.960 . S
C1636 H1622 0.960 . S
C1636 H1623 0.960 . S
C1636 C1635 1.524 . S
C1637 C1634 1.403 . S
C1637 C1638 1.392 1_566 S
C1637 C1641 1.495 . S
C1638 C1637 1.392 1_544 S
C1638 C1639 1.385 . S
C1638 C1640 1.478 . S
C1639 H1633 0.930 . S
C1639 C1635 1.400 . S
C1639 C1638 1.385 . S
C1640 C1638 1.478 . S
C1640 C1642 1.381 1_554 S
C1640 C1646 1.383 . S
C1641 C1637 1.495 . S
C1641 H1647 0.959 . S
C1641 H1648 0.961 . S
C1641 H1649 0.960 . S
C1642 C1640 1.381 1_556 S
C1642 C1643 1.394 1_556 S
C1642 H1650 0.930 . S
C1643 C1642 1.394 1_554 S
C1643 C1644 1.383 . S
C1643 H1651 0.929 1_554 S
C1644 C1643 1.383 . S
C1644 C1645 1.377 . S
C1645 H1629 0.930 . S
C1645 C1644 1.377 . S
C1645 C1646 1.379 . S
C1646 H1630 0.931 . S
C1646 C1640 1.383 . S
C1646 C1645 1.379 . S
H1647 C1641 0.959 . S
H1648 C1641 0.961 . S
H1649 C1641 0.960 . S
H1650 C1642 0.930 . S
H1651 C1643 0.929 1_556 S
H1652 C1660 0.929 . S
H1653 C1662 0.930 . S
H1654 C1664 0.930 . S
H1655 C1667 0.929 . S
H1656 C1670 0.930 . S
H1657 C1672 0.960 . S
H1658 C1672 0.960 . S
H1659 C1672 0.960 . S
C1660 H1652 0.929 . S
C1660 C1661 1.377 . S
C1660 C1662 1.384 . S
C1661 C1660 1.377 . S
C1661 C1667 1.390 . S
C1662 H1653 0.930 . S
C1662 C1660 1.384 . S
C1662 C1663 1.372 . S
C1663 C1662 1.372 . S
C1663 C1664 1.400 . S
C1663 C1668 1.490 . S
C1664 H1654 0.930 . S
C1664 C1663 1.400 . S
C1664 C1667 1.386 . S
H1665 C1681 0.930 . S
H1666 C1682 0.931 . S
C1667 H1655 0.929 . S
C1667 C1661 1.390 . S
C1667 C1664 1.386 . S
C1668 C1663 1.490 . S
C1668 C1670 1.395 . S
C1668 C1671 1.403 . S
H1669 C1675 0.930 . S
C1670 H1656 0.930 . S
C1670 C1668 1.395 . S
C1670 C1673 1.403 . S
C1671 C1668 1.403 . S
C1671 C1672 1.524 . S
C1671 C1675 1.400 . S
C1672 H1657 0.960 . S
C1672 H1658 0.960 . S
C1672 H1659 0.960 . S
C1672 C1671 1.524 . S
C1673 C1670 1.403 . S
C1673 C1674 1.392 . S
C1673 C1677 1.495 . S
C1674 C1673 1.392 . S
C1674 C1675 1.385 . S
C1674 C1676 1.478 . S
C1675 H1669 0.930 . S
C1675 C1671 1.400 . S
C1675 C1674 1.385 . S
C1676 C1674 1.478 . S
C1676 C1678 1.381 . S
C1676 C1682 1.383 . S
C1677 C1673 1.495 . S
C1677 H1683 0.959 . S
C1677 H1684 0.961 . S
C1677 H1685 0.960 . S
C1678 C1676 1.381 . S
C1678 C1679 1.394 . S
C1678 H1686 0.930 . S
C1679 C1678 1.394 . S
C1679 C1680 1.383 . S
C1679 H1687 0.929 . S
C1680 C1679 1.383 . S
C1680 C1681 1.377 . S
C1681 H1665 0.930 . S
C1681 C1680 1.377 . S
C1681 C1682 1.379 . S
C1682 H1666 0.931 . S
C1682 C1676 1.383 . S
C1682 C1681 1.379 . S
H1683 C1677 0.959 . S
H1684 C1677 0.961 . S
H1685 C1677 0.960 . S
H1686 C1678 0.930 . S
H1687 C1679 0.929 . S
H1688 C1696 0.929 . S
H1689 C1698 0.930 . S
H1690 C1700 0.930 . S
H1691 C1703 0.929 . S
H1692 C1706 0.928 1_655 S
H1693 C1708 0.960 . S
H1694 C1708 0.960 . S
H1695 C1708 0.960 . S
C1696 H1688 0.929 . S
C1696 C1697 1.377 . S
C1696 C1698 1.384 . S
C1697 C1696 1.377 . S
C1697 C1703 1.390 . S
C1698 H1689 0.930 . S
C1698 C1696 1.384 . S
C1698 C1699 1.372 . S
C1699 C1698 1.372 . S
C1699 C1700 1.400 . S
C1699 C1704 1.490 . S
C1700 H1690 0.930 . S
C1700 C1699 1.400 . S
C1700 C1703 1.386 . S
H1701 C1717 0.930 . S
H1702 C1718 0.931 . S
C1703 H1691 0.929 . S
C1703 C1697 1.390 . S
C1703 C1700 1.386 . S
C1704 C1699 1.490 . S
C1704 C1706 1.377 1_655 S
C1704 C1707 1.403 1_545 S
H1705 C1711 0.930 . S
C1706 H1692 0.928 1_455 S
C1706 C1704 1.377 1_455 S
C1706 C1709 1.423 . S
C1707 C1704 1.403 1_565 S
C1707 C1708 1.524 . S
C1707 C1711 1.400 1_655 S
C1708 H1693 0.960 . S
C1708 H1694 0.960 . S
C1708 H1695 0.960 . S
C1708 C1707 1.524 . S
C1709 C1706 1.423 . S
C1709 C1710 1.392 1_545 S
C1709 C1713 1.495 . S
C1710 C1709 1.392 1_565 S
C1710 C1711 1.385 . S
C1710 C1712 1.478 . S
C1711 H1705 0.930 . S
C1711 C1707 1.400 1_455 S
C1711 C1710 1.385 . S
C1712 C1710 1.478 . S
C1712 C1714 1.381 . S
C1712 C1718 1.383 . S
C1713 C1709 1.495 . S
C1713 H1719 0.959 . S
C1713 H1720 0.961 . S
C1713 H1721 0.960 . S
C1714 C1712 1.381 . S
C1714 C1715 1.394 . S
C1714 H1722 0.930 . S
C1715 C1714 1.394 . S
C1715 C1716 1.383 . S
C1715 H1723 0.929 . S
C1716 C1715 1.383 . S
C1716 C1717 1.377 . S
C1717 H1701 0.930 . S
C1717 C1716 1.377 . S
C1717 C1718 1.379 . S
C1718 H1702 0.931 . S
C1718 C1712 1.383 . S
C1718 C1717 1.379 . S
H1719 C1713 0.959 . S
H1720 C1713 0.961 . S
H1721 C1713 0.960 . S
H1722 C1714 0.930 . S
H1723 C1715 0.929 . S
H1724 C1732 0.929 . S
H1725 C1734 0.930 . S
H1726 C1736 0.930 . S
H1727 C1739 0.929 . S
H1728 C1742 0.930 . S
H1729 C1744 0.960 . S
H1730 C1744 0.960 . S
H1731 C1744 0.960 . S
C1732 H1724 0.929 . S
C1732 C1733 1.377 . S
C1732 C1734 1.384 . S
C1733 C1732 1.377 . S
C1733 C1739 1.390 . S
C1734 H1725 0.930 . S
C1734 C1732 1.384 . S
C1734 C1735 1.372 . S
C1735 C1734 1.372 . S
C1735 C1736 1.400 . S
C1735 C1740 1.490 . S
C1736 H1726 0.930 . S
C1736 C1735 1.400 . S
C1736 C1739 1.386 . S
H1737 C1753 0.930 . S
H1738 C1754 0.931 . S
C1739 H1727 0.929 . S
C1739 C1733 1.390 . S
C1739 C1736 1.386 . S
C1740 C1735 1.490 . S
C1740 C1742 1.395 . S
C1740 C1743 1.403 . S
H1741 C1747 0.930 . S
C1742 H1728 0.930 . S
C1742 C1740 1.395 . S
C1742 C1745 1.403 . S
C1743 C1740 1.403 . S
C1743 C1744 1.524 . S
C1743 C1747 1.400 . S
C1744 H1729 0.960 . S
C1744 H1730 0.960 . S
C1744 H1731 0.960 . S
C1744 C1743 1.524 . S
C1745 C1742 1.403 . S
C1745 C1746 1.392 . S
C1745 C1749 1.495 . S
C1746 C1745 1.392 . S
C1746 C1747 1.385 . S
C1746 C1748 1.478 . S
C1747 H1741 0.930 . S
C1747 C1743 1.400 . S
C1747 C1746 1.385 . S
C1748 C1746 1.478 . S
C1748 C1750 1.381 . S
C1748 C1754 1.383 . S
C1749 C1745 1.495 . S
C1749 H1755 0.959 . S
C1749 H1756 0.961 . S
C1749 H1757 0.960 . S
C1750 C1748 1.381 . S
C1750 C1751 1.394 . S
C1750 H1758 0.930 . S
C1751 C1750 1.394 . S
C1751 C1752 1.383 . S
C1751 H1759 0.929 . S
C1752 C1751 1.383 . S
C1752 C1753 1.377 . S
C1753 H1737 0.930 . S
C1753 C1752 1.377 . S
C1753 C1754 1.379 . S
C1754 H1738 0.931 . S
C1754 C1748 1.383 . S
C1754 C1753 1.379 . S
H1755 C1749 0.959 . S
H1756 C1749 0.961 . S
H1757 C1749 0.960 . S
H1758 C1750 0.930 . S
H1759 C1751 0.929 . S
H1760 C1768 0.929 . S
H1761 C1770 0.930 . S
H1762 C1772 0.930 . S
H1763 C1775 0.929 . S
H1764 C1778 0.930 . S
H1765 C1780 0.960 . S
H1766 C1780 0.960 . S
H1767 C1780 0.960 . S
C1768 H1760 0.929 . S
C1768 C1769 1.377 . S
C1768 C1770 1.384 . S
C1769 C1768 1.377 . S
C1769 C1775 1.390 . S
C1770 H1761 0.930 . S
C1770 C1768 1.384 . S
C1770 C1771 1.372 . S
C1771 C1770 1.372 . S
C1771 C1772 1.400 . S
C1771 C1776 1.490 . S
C1772 H1762 0.930 . S
C1772 C1771 1.400 . S
C1772 C1775 1.386 . S
H1773 C1789 0.930 . S
H1774 C1790 0.931 . S
C1775 H1763 0.929 . S
C1775 C1769 1.390 . S
C1775 C1772 1.386 . S
C1776 C1771 1.490 . S
C1776 C1778 1.395 . S
C1776 C1779 1.403 . S
H1777 C1783 0.930 . S
C1778 H1764 0.930 . S
C1778 C1776 1.395 . S
C1778 C1781 1.403 . S
C1779 C1776 1.403 . S
C1779 C1780 1.524 . S
C1779 C1783 1.400 . S
C1780 H1765 0.960 . S
C1780 H1766 0.960 . S
C1780 H1767 0.960 . S
C1780 C1779 1.524 . S
C1781 C1778 1.403 . S
C1781 C1782 1.392 . S
C1781 C1785 1.495 . S
C1782 C1781 1.392 . S
C1782 C1783 1.385 . S
C1782 C1784 1.478 . S
C1783 H1777 0.930 . S
C1783 C1779 1.400 . S
C1783 C1782 1.385 . S
C1784 C1782 1.478 . S
C1784 C1786 1.381 . S
C1784 C1790 1.383 . S
C1785 C1781 1.495 . S
C1785 H1791 0.959 . S
C1785 H1792 0.961 . S
C1785 H1793 0.960 . S
C1786 C1784 1.381 . S
C1786 C1787 1.394 . S
C1786 H1794 0.930 . S
C1787 C1786 1.394 . S
C1787 C1788 1.383 . S
C1787 H1795 0.929 . S
C1788 C1787 1.383 . S
C1788 C1789 1.377 . S
C1789 H1773 0.930 . S
C1789 C1788 1.377 . S
C1789 C1790 1.379 . S
C1790 H1774 0.931 . S
C1790 C1784 1.383 . S
C1790 C1789 1.379 . S
H1791 C1785 0.959 . S
H1792 C1785 0.961 . S
H1793 C1785 0.960 . S
H1794 C1786 0.930 . S
H1795 C1787 0.929 . S
H1796 C1804 0.929 . S
H1797 C1806 0.930 . S
H1798 C1808 0.930 . S
H1799 C1811 0.929 . S
H1800 C1814 0.930 . S
H1801 C1816 0.960 . S
H1802 C1816 0.960 . S
H1803 C1816 0.960 . S
C1804 H1796 0.929 . S
C1804 C1805 1.377 . S
C1804 C1806 1.384 . S
C1805 C1804 1.377 . S
C1805 C1811 1.390 . S
C1806 H1797 0.930 . S
C1806 C1804 1.384 . S
C1806 C1807 1.372 . S
C1807 C1806 1.372 . S
C1807 C1808 1.400 . S
C1807 C1812 1.490 . S
C1808 H1798 0.930 . S
C1808 C1807 1.400 . S
C1808 C1811 1.386 . S
H1809 C1825 0.930 . S
H1810 C1826 0.931 . S
C1811 H1799 0.929 . S
C1811 C1805 1.390 . S
C1811 C1808 1.386 . S
C1812 C1807 1.490 . S
C1812 C1814 1.395 . S
C1812 C1815 1.403 . S
H1813 C1819 0.930 . S
C1814 H1800 0.930 . S
C1814 C1812 1.395 . S
C1814 C1817 1.403 . S
C1815 C1812 1.403 . S
C1815 C1816 1.524 . S
C1815 C1819 1.400 . S
C1816 H1801 0.960 . S
C1816 H1802 0.960 . S
C1816 H1803 0.960 . S
C1816 C1815 1.524 . S
C1817 C1814 1.403 . S
C1817 C1818 1.392 . S
C1817 C1821 1.495 . S
C1818 C1817 1.392 . S
C1818 C1819 1.385 . S
C1818 C1820 1.478 . S
C1819 H1813 0.930 . S
C1819 C1815 1.400 . S
C1819 C1818 1.385 . S
C1820 C1818 1.478 . S
C1820 C1822 1.381 . S
C1820 C1826 1.383 . S
C1821 C1817 1.495 . S
C1821 H1827 0.959 . S
C1821 H1828 0.961 . S
C1821 H1829 0.960 . S
C1822 C1820 1.381 . S
C1822 C1823 1.394 . S
C1822 H1830 0.930 . S
C1823 C1822 1.394 . S
C1823 C1824 1.383 . S
C1823 H1831 0.929 . S
C1824 C1823 1.383 . S
C1824 C1825 1.377 . S
C1825 H1809 0.930 . S
C1825 C1824 1.377 . S
C1825 C1826 1.379 . S
C1826 H1810 0.931 . S
C1826 C1820 1.383 . S
C1826 C1825 1.379 . S
H1827 C1821 0.959 . S
H1828 C1821 0.961 . S
H1829 C1821 0.960 . S
H1830 C1822 0.930 . S
H1831 C1823 0.929 . S
H1832 C1840 0.929 . S
H1833 C1842 0.930 . S
H1834 C1844 0.930 . S
H1835 C1847 0.929 . S
H1836 C1850 0.930 . S
H1837 C1852 0.960 . S
H1838 C1852 0.960 . S
H1839 C1852 0.960 . S
C1840 H1832 0.929 . S
C1840 C1841 1.377 . S
C1840 C1842 1.384 . S
C1841 C1840 1.377 . S
C1841 C1847 1.390 . S
C1842 H1833 0.930 . S
C1842 C1840 1.384 . S
C1842 C1843 1.372 . S
C1843 C1842 1.372 . S
C1843 C1844 1.400 . S
C1843 C1848 1.490 . S
C1844 H1834 0.930 . S
C1844 C1843 1.400 . S
C1844 C1847 1.386 . S
H1845 C1861 0.930 . S
H1846 C1862 0.931 . S
C1847 H1835 0.929 . S
C1847 C1841 1.390 . S
C1847 C1844 1.386 . S
C1848 C1843 1.490 . S
C1848 C1850 1.395 . S
C1848 C1851 1.403 . S
H1849 C1855 0.930 . S
C1850 H1836 0.930 . S
C1850 C1848 1.395 . S
C1850 C1853 1.403 1_655 S
C1851 C1848 1.403 . S
C1851 C1852 1.524 . S
C1851 C1855 1.400 1_655 S
C1852 H1837 0.960 . S
C1852 H1838 0.960 . S
C1852 H1839 0.960 . S
C1852 C1851 1.524 . S
C1853 C1850 1.403 1_455 S
C1853 C1854 1.392 . S
C1853 C1857 1.495 . S
C1854 C1853 1.392 . S
C1854 C1855 1.385 . S
C1854 C1856 1.478 . S
C1855 H1849 0.930 . S
C1855 C1851 1.400 1_455 S
C1855 C1854 1.385 . S
C1856 C1854 1.478 . S
C1856 C1858 1.381 . S
C1856 C1862 1.383 . S
C1857 C1853 1.495 . S
C1857 H1863 0.959 . S
C1857 H1864 0.961 . S
C1857 H1865 0.960 . S
C1858 C1856 1.381 . S
C1858 C1859 1.394 . S
C1858 H1866 0.930 . S
C1859 C1858 1.394 . S
C1859 C1860 1.383 . S
C1859 H1867 0.929 . S
C1860 C1859 1.383 . S
C1860 C1861 1.377 . S
C1861 H1845 0.930 . S
C1861 C1860 1.377 . S
C1861 C1862 1.379 . S
C1862 H1846 0.931 . S
C1862 C1856 1.383 . S
C1862 C1861 1.379 . S
H1863 C1857 0.959 . S
H1864 C1857 0.961 . S
H1865 C1857 0.960 . S
H1866 C1858 0.930 . S
H1867 C1859 0.929 . S
H1868 C1876 0.929 . S
H1869 C1878 0.930 . S
H1870 C1880 0.922 1_556 S
H1871 C1883 0.929 . S
H1872 C1886 0.930 . S
H1873 C1888 0.960 . S
H1874 C1888 0.960 . S
H1875 C1888 0.960 . S
C1876 H1868 0.929 . S
C1876 C1877 1.377 . S
C1876 C1878 1.384 . S
C1877 C1876 1.377 . S
C1877 C1883 1.390 . S
C1878 H1869 0.930 . S
C1878 C1876 1.384 . S
C1878 C1879 1.372 . S
C1879 C1878 1.372 . S
C1879 C1880 1.400 . S
C1879 C1884 1.490 . S
C1880 H1870 0.922 1_554 S
C1880 C1879 1.400 . S
C1880 C1883 1.386 . S
H1881 C1897 0.930 . S
H1882 C1898 0.931 . S
C1883 H1871 0.929 . S
C1883 C1877 1.390 . S
C1883 C1880 1.386 . S
C1884 C1879 1.490 . S
C1884 C1886 1.395 . S
C1884 C1887 1.403 1_554 S
H1885 C1891 0.930 . S
C1886 H1872 0.930 . S
C1886 C1884 1.395 . S
C1886 C1889 1.403 . S
C1887 C1884 1.403 1_556 S
C1887 C1888 1.524 . S
C1887 C1891 1.400 . S
C1888 H1873 0.960 . S
C1888 H1874 0.960 . S
C1888 H1875 0.960 . S
C1888 C1887 1.524 . S
C1889 C1886 1.403 . S
C1889 C1890 1.392 1_554 S
C1889 C1893 1.495 . S
C1890 C1889 1.392 1_556 S
C1890 C1891 1.385 . S
C1890 C1892 1.478 . S
C1891 H1885 0.930 . S
C1891 C1887 1.400 . S
C1891 C1890 1.385 . S
C1892 C1890 1.478 . S
C1892 C1894 1.381 . S
C1892 C1898 1.383 . S
C1893 C1889 1.495 . S
C1893 H1899 0.959 . S
C1893 H1900 0.961 . S
C1893 H1901 0.960 . S
C1894 C1892 1.381 . S
C1894 C1895 1.394 . S
C1894 H1902 0.911 1_556 S
C1895 C1894 1.394 . S
C1895 C1896 1.383 . S
C1895 H1903 0.929 . S
C1896 C1895 1.383 . S
C1896 C1897 1.377 . S
C1897 H1881 0.930 . S
C1897 C1896 1.377 . S
C1897 C1898 1.379 . S
C1898 H1882 0.931 . S
C1898 C1892 1.383 . S
C1898 C1897 1.379 . S
H1899 C1893 0.959 . S
H1900 C1893 0.961 . S
H1901 C1893 0.960 . S
H1902 C1894 0.911 1_554 S
H1903 C1895 0.929 . S
H1904 C1912 0.929 . S
H1905 C1914 0.930 . S
H1906 C1916 0.965 . S
H1907 C1919 0.929 . S
H1908 C1922 0.930 . S
H1909 C1924 0.960 . S
H1910 C1924 0.960 1_556 S
H1911 C1924 0.960 . S
C1912 H1904 0.929 . S
C1912 C1913 1.377 . S
C1912 C1914 1.384 . S
C1913 C1912 1.377 . S
C1913 C1919 1.390 . S
C1914 H1905 0.930 . S
C1914 C1912 1.384 . S
C1914 C1915 1.372 . S
C1915 C1914 1.372 . S
C1915 C1916 1.400 . S
C1915 C1920 1.490 . S
C1916 H1906 0.965 . S
C1916 C1915 1.400 . S
C1916 C1919 1.386 . S
H1917 C1933 0.930 . S
H1918 C1934 0.931 . S
C1919 H1907 0.929 . S
C1919 C1913 1.390 . S
C1919 C1916 1.386 . S
C1920 C1915 1.490 . S
C1920 C1922 1.395 . S
C1920 C1923 1.407 . S
H1921 C1927 0.930 . S
C1922 H1908 0.930 . S
C1922 C1920 1.395 . S
C1922 C1925 1.403 . S
C1923 C1920 1.407 . S
C1923 C1924 1.522 1_556 S
C1923 C1927 1.397 1_556 S
C1924 H1909 0.960 . S
C1924 H1910 0.960 1_554 S
C1924 H1911 0.960 . S
C1924 C1923 1.522 1_554 S
C1925 C1922 1.403 . S
C1925 C1926 1.392 1_556 S
C1925 C1929 1.495 . S
C1926 C1925 1.392 1_554 S
C1926 C1927 1.385 . S
C1926 C1928 1.478 . S
C1927 H1921 0.930 . S
C1927 C1923 1.397 1_554 S
C1927 C1926 1.385 . S
C1928 C1926 1.478 . S
C1928 C1930 1.381 . S
C1928 C1934 1.383 . S
C1929 C1925 1.495 . S
C1929 H1935 0.959 . S
C1929 H1936 0.961 . S
C1929 H1937 0.960 . S
C1930 C1928 1.381 . S
C1930 C1931 1.394 . S
C1930 H1938 0.930 1_554 S
C1931 C1930 1.394 . S
C1931 C1932 1.383 . S
C1931 H1939 0.929 . S
C1932 C1931 1.383 . S
C1932 C1933 1.377 . S
C1933 H1917 0.930 . S
C1933 C1932 1.377 . S
C1933 C1934 1.379 . S
C1934 H1918 0.931 . S
C1934 C1928 1.383 . S
C1934 C1933 1.379 . S
H1935 C1929 0.959 . S
H1936 C1929 0.961 . S
H1937 C1929 0.960 . S
H1938 C1930 0.930 1_556 S
H1939 C1931 0.929 . S
H1940 C1948 0.929 . S
H1941 C1950 0.930 . S
H1942 C1952 0.930 . S
H1943 C1955 0.929 1_455 S
H1944 C1958 0.930 . S
H1945 C1960 0.960 . S
H1946 C1960 0.960 . S
H1947 C1960 0.960 . S
C1948 H1940 0.929 . S
C1948 C1949 1.375 1_655 S
C1948 C1950 1.384 . S
C1949 C1948 1.375 1_455 S
C1949 C1955 1.390 1_455 S
C1950 H1941 0.930 . S
C1950 C1948 1.384 . S
C1950 C1951 1.372 . S
C1951 C1950 1.372 . S
C1951 C1952 1.400 . S
C1951 C1956 1.490 . S
C1952 H1942 0.930 . S
C1952 C1951 1.400 . S
C1952 C1955 1.386 . S
H1953 C1969 0.930 . S
H1954 C1970 0.931 . S
C1955 H1943 0.929 1_655 S
C1955 C1949 1.390 1_655 S
C1955 C1952 1.386 . S
C1956 C1951 1.490 . S
C1956 C1958 1.395 . S
C1956 C1959 1.403 . S
H1957 C1963 0.930 . S
C1958 H1944 0.930 . S
C1958 C1956 1.395 . S
C1958 C1961 1.403 . S
C1959 C1956 1.403 . S
C1959 C1960 1.524 . S
C1959 C1963 1.400 . S
C1960 H1945 0.960 . S
C1960 H1946 0.960 . S
C1960 H1947 0.960 . S
C1960 C1959 1.524 . S
C1961 C1958 1.403 . S
C1961 C1962 1.392 . S
C1961 C1965 1.495 . S
C1962 C1961 1.392 . S
C1962 C1963 1.385 . S
C1962 C1964 1.478 . S
C1963 H1957 0.930 . S
C1963 C1959 1.400 . S
C1963 C1962 1.385 . S
C1964 C1962 1.478 . S
C1964 C1966 1.381 . S
C1964 C1970 1.383 . S
C1965 C1961 1.495 . S
C1965 H1971 0.959 . S
C1965 H1972 0.961 . S
C1965 H1973 0.960 . S
C1966 C1964 1.381 . S
C1966 C1967 1.394 . S
C1966 H1974 0.930 . S
C1967 C1966 1.394 . S
C1967 C1968 1.383 . S
C1967 H1975 0.929 . S
C1968 C1967 1.383 . S
C1968 C1969 1.377 . S
C1969 H1953 0.930 . S
C1969 C1968 1.377 . S
C1969 C1970 1.379 . S
C1970 H1954 0.931 . S
C1970 C1964 1.383 . S
C1970 C1969 1.379 . S
H1971 C1965 0.959 . S
H1972 C1965 0.961 . S
H1973 C1965 0.960 . S
H1974 C1966 0.930 . S
H1975 C1967 0.929 . S
H1976 C1984 0.929 . S
H1977 C1986 0.930 . S
H1978 C1988 0.930 . S
H1979 C1991 0.929 . S
H1980 C1994 0.930 . S
H1981 C1996 0.960 . S
H1982 C1996 0.960 . S
H1983 C1996 0.960 . S
C1984 H1976 0.929 . S
C1984 C1985 1.377 . S
C1984 C1986 1.384 . S
C1985 C1984 1.377 . S
C1985 C1991 1.390 . S
C1986 H1977 0.930 . S
C1986 C1984 1.384 . S
C1986 C1987 1.372 . S
C1987 C1986 1.372 . S
C1987 C1988 1.400 . S
C1987 C1992 1.490 . S
C1988 H1978 0.930 . S
C1988 C1987 1.400 . S
C1988 C1991 1.386 . S
H1989 C2005 0.930 . S
H1990 C2006 0.931 . S
C1991 H1979 0.929 . S
C1991 C1985 1.390 . S
C1991 C1988 1.386 . S
C1992 C1987 1.490 . S
C1992 C1994 1.395 . S
C1992 C1995 1.403 . S
H1993 C1999 0.930 . S
C1994 H1980 0.930 . S
C1994 C1992 1.395 . S
C1994 C1997 1.403 . S
C1995 C1992 1.403 . S
C1995 C1996 1.524 . S
C1995 C1999 1.400 . S
C1996 H1981 0.960 . S
C1996 H1982 0.960 . S
C1996 H1983 0.960 . S
C1996 C1995 1.524 . S
C1997 C1994 1.403 . S
C1997 C1998 1.392 . S
C1997 C2001 1.495 . S
C1998 C1997 1.392 . S
C1998 C1999 1.385 . S
C1998 C2000 1.478 . S
C1999 H1993 0.930 . S
C1999 C1995 1.400 . S
C1999 C1998 1.385 . S
C2000 C1998 1.478 . S
C2000 C2002 1.381 . S
C2000 C2006 1.383 . S
C2001 C1997 1.495 . S
C2001 H2007 0.959 . S
C2001 H2008 0.961 . S
C2001 H2009 0.960 . S
C2002 C2000 1.381 . S
C2002 C2003 1.394 . S
C2002 H2010 0.930 . S
C2003 C2002 1.394 . S
C2003 C2004 1.383 . S
C2003 H2011 0.929 . S
C2004 C2003 1.383 . S
C2004 C2005 1.377 . S
C2005 H1989 0.930 . S
C2005 C2004 1.377 . S
C2005 C2006 1.379 . S
C2006 H1990 0.931 . S
C2006 C2000 1.383 . S
C2006 C2005 1.379 . S
H2007 C2001 0.959 . S
H2008 C2001 0.961 . S
H2009 C2001 0.960 . S
H2010 C2002 0.930 . S
H2011 C2003 0.929 . S
H2012 C2020 0.929 . S
H2013 C2022 0.930 . S
H2014 C2024 0.930 . S
H2015 C2027 0.929 . S
H2016 C2030 0.930 . S
H2017 C2032 0.960 . S
H2018 C2032 0.960 . S
H2019 C2032 0.960 . S
C2020 H2012 0.929 . S
C2020 C2021 1.377 . S
C2020 C2022 1.384 . S
C2021 C2020 1.377 . S
C2021 C2027 1.390 . S
C2022 H2013 0.930 . S
C2022 C2020 1.384 . S
C2022 C2023 1.372 . S
C2023 C2022 1.372 . S
C2023 C2024 1.400 . S
C2023 C2028 1.490 . S
C2024 H2014 0.930 . S
C2024 C2023 1.400 . S
C2024 C2027 1.386 . S
H2025 C2041 0.930 . S
H2026 C2042 0.931 . S
C2027 H2015 0.929 . S
C2027 C2021 1.390 . S
C2027 C2024 1.386 . S
C2028 C2023 1.490 . S
C2028 C2030 1.395 . S
C2028 C2031 1.403 . S
H2029 C2035 0.930 . S
C2030 H2016 0.930 . S
C2030 C2028 1.395 . S
C2030 C2033 1.403 . S
C2031 C2028 1.403 . S
C2031 C2032 1.524 . S
C2031 C2035 1.400 . S
C2032 H2017 0.960 . S
C2032 H2018 0.960 . S
C2032 H2019 0.960 . S
C2032 C2031 1.524 . S
C2033 C2030 1.403 . S
C2033 C2034 1.392 . S
C2033 C2037 1.495 . S
C2034 C2033 1.392 . S
C2034 C2035 1.385 . S
C2034 C2036 1.478 . S
C2035 H2029 0.930 . S
C2035 C2031 1.400 . S
C2035 C2034 1.385 . S
C2036 C2034 1.478 . S
C2036 C2038 1.381 . S
C2036 C2042 1.383 . S
C2037 C2033 1.495 . S
C2037 H2043 0.959 . S
C2037 H2044 0.961 . S
C2037 H2045 0.960 . S
C2038 C2036 1.381 . S
C2038 C2039 1.394 . S
C2038 H2046 0.930 . S
C2039 C2038 1.394 . S
C2039 C2040 1.383 . S
C2039 H2047 0.929 . S
C2040 C2039 1.383 . S
C2040 C2041 1.377 . S
C2041 H2025 0.930 . S
C2041 C2040 1.377 . S
C2041 C2042 1.379 . S
C2042 H2026 0.931 . S
C2042 C2036 1.383 . S
C2042 C2041 1.379 . S
H2043 C2037 0.959 . S
H2044 C2037 0.961 . S
H2045 C2037 0.960 . S
H2046 C2038 0.930 . S
H2047 C2039 0.929 . S
H2048 C2056 0.929 . S
H2049 C2058 0.930 . S
H2050 C2060 0.930 . S
H2051 C2063 0.929 . S
H2052 C2066 0.930 . S
H2053 C2068 0.960 . S
H2054 C2068 0.960 . S
H2055 C2068 0.960 . S
C2056 H2048 0.929 . S
C2056 C2057 1.377 . S
C2056 C2058 1.384 . S
C2057 C2056 1.377 . S
C2057 C2063 1.390 . S
C2058 H2049 0.930 . S
C2058 C2056 1.384 . S
C2058 C2059 1.372 . S
C2059 C2058 1.372 . S
C2059 C2060 1.400 . S
C2059 C2064 1.490 . S
C2060 H2050 0.930 . S
C2060 C2059 1.400 . S
C2060 C2063 1.386 . S
H2061 C2077 0.930 . S
H2062 C2078 0.931 . S
C2063 H2051 0.929 . S
C2063 C2057 1.390 . S
C2063 C2060 1.386 . S
C2064 C2059 1.490 . S
C2064 C2066 1.395 . S
C2064 C2067 1.403 1_556 S
H2065 C2071 0.930 . S
C2066 H2052 0.930 . S
C2066 C2064 1.395 . S
C2066 C2069 1.403 . S
C2067 C2064 1.403 1_554 S
C2067 C2068 1.524 . S
C2067 C2071 1.400 . S
C2068 H2053 0.960 . S
C2068 H2054 0.960 . S
C2068 H2055 0.960 . S
C2068 C2067 1.524 . S
C2069 C2066 1.403 . S
C2069 C2070 1.392 1_556 S
C2069 C2073 1.495 . S
C2070 C2069 1.392 1_554 S
C2070 C2071 1.385 . S
C2070 C2072 1.478 . S
C2071 H2065 0.930 . S
C2071 C2067 1.400 . S
C2071 C2070 1.385 . S
C2072 C2070 1.478 . S
C2072 C2074 1.381 . S
C2072 C2078 1.383 . S
C2073 C2069 1.495 . S
C2073 H2079 0.959 . S
C2073 H2080 0.961 . S
C2073 H2081 0.960 . S
C2074 C2072 1.381 . S
C2074 C2075 1.394 . S
C2074 H2082 0.930 . S
C2075 C2074 1.394 . S
C2075 C2076 1.383 . S
C2075 H2083 0.929 . S
C2076 C2075 1.383 . S
C2076 C2077 1.377 . S
C2077 H2061 0.930 . S
C2077 C2076 1.377 . S
C2077 C2078 1.379 . S
C2078 H2062 0.931 . S
C2078 C2072 1.383 . S
C2078 C2077 1.379 . S
H2079 C2073 0.959 . S
H2080 C2073 0.961 . S
H2081 C2073 0.960 . S
H2082 C2074 0.930 . S
H2083 C2075 0.929 . S
H2084 C2092 0.929 . S
H2085 C2094 0.930 . S
H2086 C2096 0.930 . S
H2087 C2099 0.929 . S
H2088 C2102 0.930 . S
H2089 C2104 0.960 . S
H2090 C2104 0.960 . S
H2091 C2104 0.960 . S
C2092 H2084 0.929 . S
C2092 C2093 1.377 . S
C2092 C2094 1.384 . S
C2093 C2092 1.377 . S
C2093 C2099 1.390 . S
C2094 H2085 0.930 . S
C2094 C2092 1.384 . S
C2094 C2095 1.372 . S
C2095 C2094 1.372 . S
C2095 C2096 1.400 . S
C2095 C2100 1.490 . S
C2096 H2086 0.930 . S
C2096 C2095 1.400 . S
C2096 C2099 1.386 . S
H2097 C2113 0.930 . S
H2098 C2114 0.931 . S
C2099 H2087 0.929 . S
C2099 C2093 1.390 . S
C2099 C2096 1.386 . S
C2100 C2095 1.490 . S
C2100 C2102 1.395 . S
C2100 C2103 1.403 . S
H2101 C2107 0.930 . S
C2102 H2088 0.930 . S
C2102 C2100 1.395 . S
C2102 C2105 1.403 . S
C2103 C2100 1.403 . S
C2103 C2104 1.524 . S
C2103 C2107 1.400 . S
C2104 H2089 0.960 . S
C2104 H2090 0.960 . S
C2104 H2091 0.960 . S
C2104 C2103 1.524 . S
C2105 C2102 1.403 . S
C2105 C2106 1.392 . S
C2105 C2109 1.495 . S
C2106 C2105 1.392 . S
C2106 C2107 1.385 . S
C2106 C2108 1.478 . S
C2107 H2101 0.930 . S
C2107 C2103 1.400 . S
C2107 C2106 1.385 . S
C2108 C2106 1.478 . S
C2108 C2110 1.381 . S
C2108 C2114 1.383 . S
C2109 C2105 1.495 . S
C2109 H2115 0.959 . S
C2109 H2116 0.961 . S
C2109 H2117 0.960 . S
C2110 C2108 1.381 . S
C2110 C2111 1.425 . S
C2110 H2118 0.930 . S
C2111 C2110 1.425 . S
C2111 C2112 1.381 1_455 S
C2111 H2119 0.902 1_455 S
C2112 C2111 1.381 1_655 S
C2112 C2113 1.377 1_655 S
C2113 H2097 0.930 . S
C2113 C2112 1.377 1_455 S
C2113 C2114 1.379 . S
C2114 H2098 0.931 . S
C2114 C2108 1.383 . S
C2114 C2113 1.379 . S
H2115 C2109 0.959 . S
H2116 C2109 0.961 . S
H2117 C2109 0.960 . S
H2118 C2110 0.930 . S
H2119 C2111 0.902 1_655 S
H2120 C2128 0.929 . S
H2121 C2130 0.930 . S
H2122 C2132 0.930 . S
H2123 C2135 0.929 . S
H2124 C2138 0.930 . S
H2125 C2140 0.960 . S
H2126 C2140 0.960 . S
H2127 C2140 0.960 . S
C2128 H2120 0.929 . S
C2128 C2129 1.377 . S
C2128 C2130 1.384 . S
C2129 C2128 1.377 . S
C2129 C2135 1.390 . S
C2130 H2121 0.930 . S
C2130 C2128 1.384 . S
C2130 C2131 1.372 . S
C2131 C2130 1.372 . S
C2131 C2132 1.400 . S
C2131 C2136 1.490 . S
C2132 H2122 0.930 . S
C2132 C2131 1.400 . S
C2132 C2135 1.386 . S
H2133 C2149 0.930 . S
H2134 C2150 0.931 . S
C2135 H2123 0.929 . S
C2135 C2129 1.390 . S
C2135 C2132 1.386 . S
C2136 C2131 1.490 . S
C2136 C2138 1.395 . S
C2136 C2139 1.403 . S
H2137 C2143 0.930 . S
C2138 H2124 0.930 . S
C2138 C2136 1.395 . S
C2138 C2141 1.403 . S
C2139 C2136 1.403 . S
C2139 C2140 1.524 . S
C2139 C2143 1.400 . S
C2140 H2125 0.960 . S
C2140 H2126 0.960 . S
C2140 H2127 0.960 . S
C2140 C2139 1.524 . S
C2141 C2138 1.403 . S
C2141 C2142 1.392 . S
C2141 C2145 1.495 . S
C2142 C2141 1.392 . S
C2142 C2143 1.385 . S
C2142 C2144 1.478 . S
C2143 H2137 0.930 . S
C2143 C2139 1.400 . S
C2143 C2142 1.385 . S
C2144 C2142 1.478 . S
C2144 C2146 1.381 . S
C2144 C2150 1.383 . S
C2145 C2141 1.495 . S
C2145 H2151 0.959 . S
C2145 H2152 0.961 . S
C2145 H2153 0.960 . S
C2146 C2144 1.381 . S
C2146 C2147 1.394 . S
C2146 H2154 0.930 . S
C2147 C2146 1.394 . S
C2147 C2148 1.383 . S
C2147 H2155 0.929 . S
C2148 C2147 1.383 . S
C2148 C2149 1.377 . S
C2149 H2133 0.930 . S
C2149 C2148 1.377 . S
C2149 C2150 1.379 . S
C2150 H2134 0.931 . S
C2150 C2144 1.383 . S
C2150 C2149 1.379 . S
H2151 C2145 0.959 . S
H2152 C2145 0.961 . S
H2153 C2145 0.960 . S
H2154 C2146 0.930 . S
H2155 C2147 0.929 . S
H2156 C2164 0.929 . S
H2157 C2166 0.930 . S
H2158 C2168 0.930 . S
H2159 C2171 0.929 . S
H2160 C2174 0.930 . S
H2161 C2176 0.960 . S
H2162 C2176 0.960 . S
H2163 C2176 0.960 . S
C2164 H2156 0.929 . S
C2164 C2165 1.377 . S
C2164 C2166 1.384 . S
C2165 C2164 1.377 . S
C2165 C2171 1.390 . S
C2166 H2157 0.930 . S
C2166 C2164 1.384 . S
C2166 C2167 1.372 . S
C2167 C2166 1.372 . S
C2167 C2168 1.400 . S
C2167 C2172 1.490 . S
C2168 H2158 0.930 . S
C2168 C2167 1.400 . S
C2168 C2171 1.386 . S
H2169 C2185 0.930 . S
H2170 C2186 0.931 . S
C2171 H2159 0.929 . S
C2171 C2165 1.390 . S
C2171 C2168 1.386 . S
C2172 C2167 1.490 . S
C2172 C2174 1.395 . S
C2172 C2175 1.403 . S
H2173 C2179 0.930 . S
C2174 H2160 0.930 . S
C2174 C2172 1.395 . S
C2174 C2177 1.403 . S
C2175 C2172 1.403 . S
C2175 C2176 1.524 . S
C2175 C2179 1.400 . S
C2176 H2161 0.960 . S
C2176 H2162 0.960 . S
C2176 H2163 0.960 . S
C2176 C2175 1.524 . S
C2177 C2174 1.403 . S
C2177 C2178 1.392 . S
C2177 C2181 1.495 . S
C2178 C2177 1.392 . S
C2178 C2179 1.385 . S
C2178 C2180 1.478 . S
C2179 H2173 0.930 . S
C2179 C2175 1.400 . S
C2179 C2178 1.385 . S
C2180 C2178 1.478 . S
C2180 C2182 1.381 . S
C2180 C2186 1.383 . S
C2181 C2177 1.495 . S
C2181 H2187 0.959 . S
C2181 H2188 0.961 . S
C2181 H2189 0.960 . S
C2182 C2180 1.381 . S
C2182 C2183 1.394 . S
C2182 H2190 0.930 . S
C2183 C2182 1.394 . S
C2183 C2184 1.383 . S
C2183 H2191 0.929 . S
C2184 C2183 1.383 . S
C2184 C2185 1.377 . S
C2185 H2169 0.930 . S
C2185 C2184 1.377 . S
C2185 C2186 1.379 . S
C2186 H2170 0.931 . S
C2186 C2180 1.383 . S
C2186 C2185 1.379 . S
H2187 C2181 0.959 . S
H2188 C2181 0.961 . S
H2189 C2181 0.960 . S
H2190 C2182 0.930 . S
H2191 C2183 0.929 . S
H2192 C2200 0.929 . S
H2193 C2202 0.930 . S
H2194 C2204 0.930 . S
H2195 C2207 0.929 . S
H2196 C2210 0.930 . S
H2197 C2212 0.960 . S
H2198 C2212 0.960 . S
H2199 C2212 0.960 . S
C2200 H2192 0.929 . S
C2200 C2201 1.377 . S
C2200 C2202 1.384 . S
C2201 C2200 1.377 . S
C2201 C2207 1.390 . S
C2202 H2193 0.930 . S
C2202 C2200 1.384 . S
C2202 C2203 1.372 . S
C2203 C2202 1.372 . S
C2203 C2204 1.400 . S
C2203 C2208 1.490 . S
C2204 H2194 0.930 . S
C2204 C2203 1.400 . S
C2204 C2207 1.386 . S
H2205 C2221 0.930 . S
H2206 C2222 0.931 . S
C2207 H2195 0.929 . S
C2207 C2201 1.390 . S
C2207 C2204 1.386 . S
C2208 C2203 1.490 . S
C2208 C2210 1.395 . S
C2208 C2211 1.403 . S
H2209 C2215 0.930 . S
C2210 H2196 0.930 . S
C2210 C2208 1.395 . S
C2210 C2213 1.403 . S
C2211 C2208 1.403 . S
C2211 C2212 1.524 . S
C2211 C2215 1.400 . S
C2212 H2197 0.960 . S
C2212 H2198 0.960 . S
C2212 H2199 0.960 . S
C2212 C2211 1.524 . S
C2213 C2210 1.403 . S
C2213 C2214 1.392 . S
C2213 C2217 1.495 . S
C2214 C2213 1.392 . S
C2214 C2215 1.385 . S
C2214 C2216 1.478 . S
C2215 H2209 0.930 . S
C2215 C2211 1.400 . S
C2215 C2214 1.385 . S
C2216 C2214 1.478 . S
C2216 C2218 1.381 . S
C2216 C2222 1.383 . S
C2217 C2213 1.495 . S
C2217 H2223 0.959 . S
C2217 H2224 0.961 . S
C2217 H2225 0.960 . S
C2218 C2216 1.381 . S
C2218 C2219 1.394 . S
C2218 H2226 0.930 . S
C2219 C2218 1.394 . S
C2219 C2220 1.383 . S
C2219 H2227 0.929 . S
C2220 C2219 1.383 . S
C2220 C2221 1.377 . S
C2221 H2205 0.930 . S
C2221 C2220 1.377 . S
C2221 C2222 1.379 . S
C2222 H2206 0.931 . S
C2222 C2216 1.383 . S
C2222 C2221 1.379 . S
H2223 C2217 0.959 . S
H2224 C2217 0.961 . S
H2225 C2217 0.960 . S
H2226 C2218 0.930 . S
H2227 C2219 0.929 . S
H2228 C2236 0.929 1_565 S
H2229 C2238 0.930 1_565 S
H2230 C2240 0.930 . S
H2231 C2243 0.929 . S
H2232 C2246 0.930 . S
H2233 C2248 0.960 . S
H2234 C2248 0.960 1_565 S
H2235 C2248 0.960 . S
C2236 H2228 0.929 1_545 S
C2236 C2237 1.377 . S
C2236 C2238 1.384 . S
C2237 C2236 1.377 . S
C2237 C2243 1.390 . S
C2238 H2229 0.930 1_545 S
C2238 C2236 1.384 . S
C2238 C2239 1.372 . S
C2239 C2238 1.372 . S
C2239 C2240 1.400 . S
C2239 C2244 1.490 . S
C2240 H2230 0.930 . S
C2240 C2239 1.400 . S
C2240 C2243 1.386 . S
H2241 C2257 0.930 . S
H2242 C2258 0.931 . S
C2243 H2231 0.929 . S
C2243 C2237 1.390 . S
C2243 C2240 1.386 . S
C2244 C2239 1.490 . S
C2244 C2246 1.395 . S
C2244 C2247 1.403 . S
H2245 C2251 0.930 . S
C2246 H2232 0.930 . S
C2246 C2244 1.395 . S
C2246 C2249 1.403 . S
C2247 C2244 1.403 . S
C2247 C2248 1.524 . S
C2247 C2251 1.400 . S
C2248 H2233 0.960 . S
C2248 H2234 0.960 1_545 S
C2248 H2235 0.960 . S
C2248 C2247 1.524 . S
C2249 C2246 1.403 . S
C2249 C2250 1.392 . S
C2249 C2253 1.495 . S
C2250 C2249 1.392 . S
C2250 C2251 1.385 . S
C2250 C2252 1.478 . S
C2251 H2245 0.930 . S
C2251 C2247 1.400 . S
C2251 C2250 1.385 . S
C2252 C2250 1.478 . S
C2252 C2254 1.381 . S
C2252 C2258 1.383 . S
C2253 C2249 1.495 . S
C2253 H2259 0.959 . S
C2253 H2260 0.961 . S
C2253 H2261 0.960 . S
C2254 C2252 1.381 . S
C2254 C2255 1.394 . S
C2254 H2262 0.930 . S
C2255 C2254 1.394 . S
C2255 C2256 1.383 . S
C2255 H2263 0.929 . S
C2256 C2255 1.383 . S
C2256 C2257 1.377 . S
C2257 H2241 0.930 . S
C2257 C2256 1.377 . S
C2257 C2258 1.379 . S
C2258 H2242 0.931 . S
C2258 C2252 1.383 . S
C2258 C2257 1.379 . S
H2259 C2253 0.959 . S
H2260 C2253 0.961 . S
H2261 C2253 0.960 . S
H2262 C2254 0.930 . S
H2263 C2255 0.929 . S
H2264 C2272 0.929 . S
H2265 C2274 0.930 1_556 S
H2266 C2276 0.930 . S
H2267 C2279 0.929 . S
H2268 C2282 0.930 . S
H2269 C2284 0.960 . S
H2270 C2284 0.960 . S
H2271 C2284 0.960 1_554 S
C2272 H2264 0.929 . S
C2272 C2273 1.377 . S
C2272 C2274 1.384 . S
C2273 C2272 1.377 . S
C2273 C2279 1.390 . S
C2274 H2265 0.930 1_554 S
C2274 C2272 1.384 . S
C2274 C2275 1.372 . S
C2275 C2274 1.372 . S
C2275 C2276 1.400 . S
C2275 C2280 1.490 . S
C2276 H2266 0.930 . S
C2276 C2275 1.400 . S
C2276 C2279 1.386 . S
H2277 C2293 0.930 . S
H2278 C2294 0.931 . S
C2279 H2267 0.929 . S
C2279 C2273 1.390 . S
C2279 C2276 1.386 . S
C2280 C2275 1.490 . S
C2280 C2282 1.395 . S
C2280 C2283 1.403 1_554 S
H2281 C2287 0.930 . S
C2282 H2268 0.930 . S
C2282 C2280 1.395 . S
C2282 C2285 1.403 1_554 S
C2283 C2280 1.403 1_556 S
C2283 C2284 1.524 . S
C2283 C2287 1.400 . S
C2284 H2269 0.960 . S
C2284 H2270 0.960 . S
C2284 H2271 0.960 1_556 S
C2284 C2283 1.524 . S
C2285 C2282 1.403 1_556 S
C2285 C2286 1.392 . S
C2285 C2289 1.495 . S
C2286 C2285 1.392 . S
C2286 C2287 1.385 . S
C2286 C2288 1.478 . S
C2287 H2281 0.930 . S
C2287 C2283 1.400 . S
C2287 C2286 1.385 . S
C2288 C2286 1.478 . S
C2288 C2290 1.381 . S
C2288 C2294 1.383 . S
C2289 C2285 1.495 . S
C2289 H2295 0.933 1_556 S
C2289 H2296 0.927 1_556 S
C2289 H2297 0.960 . S
C2290 C2288 1.381 . S
C2290 C2291 1.394 . S
C2290 H2298 0.930 . S
C2291 C2290 1.394 . S
C2291 C2292 1.383 . S
C2291 H2299 0.929 . S
C2292 C2291 1.383 . S
C2292 C2293 1.377 . S
C2293 H2277 0.930 . S
C2293 C2292 1.377 . S
C2293 C2294 1.379 . S
C2294 H2278 0.931 . S
C2294 C2288 1.383 . S
C2294 C2293 1.379 . S
H2295 C2289 0.933 1_554 S
H2296 C2289 0.927 1_554 S
H2297 C2289 0.960 . S
H2298 C2290 0.930 . S
H2299 C2291 0.929 . S
H2300 C2308 0.929 1_545 S
H2301 C2310 0.930 1_545 S
H2302 C2312 0.930 . S
H2303 C2315 0.929 . S
H2304 C2318 0.930 . S
H2305 C2320 0.960 . S
H2306 C2320 0.960 . S
H2307 C2320 0.960 . S
C2308 H2300 0.929 1_565 S
C2308 C2309 1.377 . S
C2308 C2310 1.384 . S
C2309 C2308 1.377 . S
C2309 C2315 1.390 . S
C2310 H2301 0.930 1_565 S
C2310 C2308 1.384 . S
C2310 C2311 1.372 . S
C2311 C2310 1.372 . S
C2311 C2312 1.400 . S
C2311 C2316 1.490 . S
C2312 H2302 0.930 . S
C2312 C2311 1.400 . S
C2312 C2315 1.386 . S
H2313 C2329 0.927 1_655 S
H2314 C2330 0.931 . S
C2315 H2303 0.929 . S
C2315 C2309 1.390 . S
C2315 C2312 1.386 . S
C2316 C2311 1.490 . S
C2316 C2318 1.395 . S
C2316 C2319 1.403 . S
H2317 C2323 0.930 . S
C2318 H2304 0.930 . S
C2318 C2316 1.395 . S
C2318 C2321 1.403 . S
C2319 C2316 1.403 . S
C2319 C2320 1.524 . S
C2319 C2323 1.400 . S
C2320 H2305 0.960 . S
C2320 H2306 0.960 . S
C2320 H2307 0.960 . S
C2320 C2319 1.524 . S
C2321 C2318 1.403 . S
C2321 C2322 1.392 . S
C2321 C2325 1.495 . S
C2322 C2321 1.392 . S
C2322 C2323 1.385 . S
C2322 C2324 1.478 . S
C2323 H2317 0.930 . S
C2323 C2319 1.400 . S
C2323 C2322 1.385 . S
C2324 C2322 1.478 . S
C2324 C2326 1.366 1_565 S
C2324 C2330 1.383 . S
C2325 C2321 1.495 . S
C2325 H2331 0.959 . S
C2325 H2332 0.961 . S
C2325 H2333 0.960 1_565 S
C2326 C2324 1.366 1_545 S
C2326 C2327 1.395 . S
C2326 H2334 0.945 . S
C2327 C2326 1.395 . S
C2327 C2328 1.397 1_545 S
C2327 H2335 0.929 . S
C2328 C2327 1.397 1_565 S
C2328 C2329 1.385 . S
C2329 H2313 0.927 1_455 S
C2329 C2328 1.385 . S
C2329 C2330 1.379 . S
C2330 H2314 0.931 . S
C2330 C2324 1.383 . S
C2330 C2329 1.379 . S
H2331 C2325 0.959 . S
H2332 C2325 0.961 . S
H2333 C2325 0.960 1_545 S
H2334 C2326 0.945 . S
H2335 C2327 0.929 . S
H2336 C2344 0.929 . S
H2337 C2346 0.930 . S
H2338 C2348 0.930 . S
H2339 C2351 0.929 . S
H2340 C2354 0.930 . S
H2341 C2356 0.960 . S
H2342 C2356 0.960 . S
H2343 C2356 0.960 . S
C2344 H2336 0.929 . S
C2344 C2345 1.377 . S
C2344 C2346 1.384 . S
C2345 C2344 1.377 . S
C2345 C2351 1.390 . S
C2346 H2337 0.930 . S
C2346 C2344 1.384 . S
C2346 C2347 1.372 . S
C2347 C2346 1.372 . S
C2347 C2348 1.400 . S
C2347 C2352 1.490 . S
C2348 H2338 0.930 . S
C2348 C2347 1.400 . S
C2348 C2351 1.386 . S
H2349 C2365 0.930 . S
H2350 C2366 0.931 . S
C2351 H2339 0.929 . S
C2351 C2345 1.390 . S
C2351 C2348 1.386 . S
C2352 C2347 1.490 . S
C2352 C2354 1.395 . S
C2352 C2355 1.403 . S
H2353 C2359 0.930 . S
C2354 H2340 0.930 . S
C2354 C2352 1.395 . S
C2354 C2357 1.403 . S
C2355 C2352 1.403 . S
C2355 C2356 1.524 . S
C2355 C2359 1.400 . S
C2356 H2341 0.960 . S
C2356 H2342 0.960 . S
C2356 H2343 0.960 . S
C2356 C2355 1.524 . S
C2357 C2354 1.403 . S
C2357 C2358 1.392 . S
C2357 C2361 1.495 . S
C2358 C2357 1.392 . S
C2358 C2359 1.385 . S
C2358 C2360 1.478 . S
C2359 H2353 0.930 . S
C2359 C2355 1.400 . S
C2359 C2358 1.385 . S
C2360 C2358 1.478 . S
C2360 C2362 1.381 . S
C2360 C2366 1.383 . S
C2361 C2357 1.495 . S
C2361 H2367 0.959 . S
C2361 H2368 0.961 . S
C2361 H2369 0.960 . S
C2362 C2360 1.381 . S
C2362 C2363 1.394 . S
C2362 H2370 0.930 . S
C2363 C2362 1.394 . S
C2363 C2364 1.383 . S
C2363 H2371 0.929 . S
C2364 C2363 1.383 . S
C2364 C2365 1.377 . S
C2365 H2349 0.930 . S
C2365 C2364 1.377 . S
C2365 C2366 1.379 . S
C2366 H2350 0.931 . S
C2366 C2360 1.383 . S
C2366 C2365 1.379 . S
H2367 C2361 0.959 . S
H2368 C2361 0.961 . S
H2369 C2361 0.960 . S
H2370 C2362 0.930 . S
H2371 C2363 0.929 . S
H2372 C2380 0.929 . S
H2373 C2382 0.930 . S
H2374 C2384 0.930 . S
H2375 C2387 0.929 . S
H2376 C2390 0.930 . S
H2377 C2392 0.960 . S
H2378 C2392 0.991 . S
H2379 C2392 0.960 . S
C2380 H2372 0.929 . S
C2380 C2381 1.377 . S
C2380 C2382 1.384 . S
C2381 C2380 1.377 . S
C2381 C2387 1.390 . S
C2382 H2373 0.930 . S
C2382 C2380 1.384 . S
C2382 C2383 1.372 . S
C2383 C2382 1.372 . S
C2383 C2384 1.400 . S
C2383 C2388 1.490 . S
C2384 H2374 0.930 . S
C2384 C2383 1.400 . S
C2384 C2387 1.386 . S
H2385 C2401 0.930 . S
H2386 C2402 0.931 . S
C2387 H2375 0.929 . S
C2387 C2381 1.390 . S
C2387 C2384 1.386 . S
C2388 C2383 1.490 . S
C2388 C2390 1.395 . S
C2388 C2391 1.403 . S
H2389 C2395 0.930 . S
C2390 H2376 0.930 . S
C2390 C2388 1.395 . S
C2390 C2393 1.403 . S
C2391 C2388 1.403 . S
C2391 C2392 1.524 . S
C2391 C2395 1.400 . S
C2392 H2377 0.960 . S
C2392 H2378 0.991 . S
C2392 H2379 0.960 . S
C2392 C2391 1.524 . S
C2393 C2390 1.403 . S
C2393 C2394 1.392 . S
C2393 C2397 1.495 . S
C2394 C2393 1.392 . S
C2394 C2395 1.385 . S
C2394 C2396 1.478 . S
C2395 H2389 0.930 . S
C2395 C2391 1.400 . S
C2395 C2394 1.385 . S
C2396 C2394 1.478 . S
C2396 C2398 1.381 . S
C2396 C2402 1.383 . S
C2397 C2393 1.495 . S
C2397 H2403 0.959 . S
C2397 H2404 0.961 . S
C2397 H2405 0.960 . S
C2398 C2396 1.381 . S
C2398 C2399 1.394 . S
C2398 H2406 0.930 1_565 S
C2399 C2398 1.394 . S
C2399 C2400 1.383 . S
C2399 H2407 0.929 1_565 S
C2400 C2399 1.383 . S
C2400 C2401 1.377 . S
C2401 H2385 0.930 . S
C2401 C2400 1.377 . S
C2401 C2402 1.379 . S
C2402 H2386 0.931 . S
C2402 C2396 1.383 . S
C2402 C2401 1.379 . S
H2403 C2397 0.959 . S
H2404 C2397 0.961 . S
H2405 C2397 0.960 . S
H2406 C2398 0.930 1_545 S
H2407 C2399 0.929 1_545 S
H2408 C2416 0.929 . S
H2409 C2418 0.930 . S
H2410 C2420 0.930 . S
H2411 C2423 0.929 . S
H2412 C2426 0.930 . S
H2413 C2428 0.960 . S
H2414 C2428 0.960 . S
H2415 C2428 0.960 . S
C2416 H2408 0.929 . S
C2416 C2417 1.377 . S
C2416 C2418 1.384 . S
C2417 C2416 1.377 . S
C2417 C2423 1.390 . S
C2418 H2409 0.930 . S
C2418 C2416 1.384 . S
C2418 C2419 1.372 . S
C2419 C2418 1.372 . S
C2419 C2420 1.400 . S
C2419 C2424 1.490 . S
C2420 H2410 0.930 . S
C2420 C2419 1.400 . S
C2420 C2423 1.386 . S
H2421 C2437 0.930 . S
H2422 C2438 0.931 . S
C2423 H2411 0.929 . S
C2423 C2417 1.390 . S
C2423 C2420 1.386 . S
C2424 C2419 1.490 . S
C2424 C2426 1.395 1_556 S
C2424 C2427 1.403 . S
H2425 C2431 0.941 . S
C2426 H2412 0.930 . S
C2426 C2424 1.395 1_554 S
C2426 C2429 1.403 . S
C2427 C2424 1.403 . S
C2427 C2428 1.524 . S
C2427 C2431 1.420 . S
C2428 H2413 0.960 . S
C2428 H2414 0.960 . S
C2428 H2415 0.960 . S
C2428 C2427 1.524 . S
C2429 C2426 1.403 . S
C2429 C2430 1.392 . S
C2429 C2433 1.495 . S
C2430 C2429 1.392 . S
C2430 C2431 1.355 1_554 S
C2430 C2432 1.478 . S
C2431 H2425 0.941 . S
C2431 C2427 1.420 . S
C2431 C2430 1.355 1_556 S
C2432 C2430 1.478 . S
C2432 C2434 1.381 . S
C2432 C2438 1.383 . S
C2433 C2429 1.495 . S
C2433 H2439 0.959 . S
C2433 H2440 0.961 . S
C2433 H2441 0.960 . S
C2434 C2432 1.381 . S
C2434 C2435 1.394 . S
C2434 H2442 0.930 . S
C2435 C2434 1.394 . S
C2435 C2436 1.383 . S
C2435 H2443 0.929 . S
C2436 C2435 1.383 . S
C2436 C2437 1.377 . S
C2437 H2421 0.930 . S
C2437 C2436 1.377 . S
C2437 C2438 1.379 . S
C2438 H2422 0.931 . S
C2438 C2432 1.383 . S
C2438 C2437 1.379 . S
H2439 C2433 0.959 . S
H2440 C2433 0.961 . S
H2441 C2433 0.960 . S
H2442 C2434 0.930 . S
H2443 C2435 0.929 . S
H2444 C2452 0.929 . S
H2445 C2454 0.930 . S
H2446 C2456 0.930 . S
H2447 C2459 0.929 . S
H2448 C2462 0.930 . S
H2449 C2464 0.960 . S
H2450 C2464 0.960 . S
H2451 C2464 0.960 . S
C2452 H2444 0.929 . S
C2452 C2453 1.377 . S
C2452 C2454 1.384 . S
C2453 C2452 1.377 . S
C2453 C2459 1.390 . S
C2454 H2445 0.930 . S
C2454 C2452 1.384 . S
C2454 C2455 1.372 . S
C2455 C2454 1.372 . S
C2455 C2456 1.400 . S
C2455 C2460 1.490 . S
C2456 H2446 0.930 . S
C2456 C2455 1.400 . S
C2456 C2459 1.386 . S
H2457 C2473 0.930 . S
H2458 C2474 0.931 . S
C2459 H2447 0.929 . S
C2459 C2453 1.390 . S
C2459 C2456 1.386 . S
C2460 C2455 1.490 . S
C2460 C2462 1.395 . S
C2460 C2463 1.403 . S
H2461 C2467 0.930 1_565 S
C2462 H2448 0.930 . S
C2462 C2460 1.395 . S
C2462 C2465 1.403 . S
C2463 C2460 1.403 . S
C2463 C2464 1.524 1_545 S
C2463 C2467 1.400 . S
C2464 H2449 0.960 . S
C2464 H2450 0.960 . S
C2464 H2451 0.960 . S
C2464 C2463 1.524 1_565 S
C2465 C2462 1.403 . S
C2465 C2466 1.392 . S
C2465 C2469 1.495 . S
C2466 C2465 1.392 . S
C2466 C2467 1.385 . S
C2466 C2468 1.478 . S
C2467 H2461 0.930 1_545 S
C2467 C2463 1.400 . S
C2467 C2466 1.385 . S
C2468 C2466 1.478 . S
C2468 C2470 1.381 . S
C2468 C2474 1.383 . S
C2469 C2465 1.495 . S
C2469 H2475 0.959 . S
C2469 H2476 0.961 . S
C2469 H2477 0.960 . S
C2470 C2468 1.381 . S
C2470 C2471 1.383 1_655 S
C2470 H2478 0.930 . S
C2471 C2470 1.383 1_455 S
C2471 C2472 1.383 . S
C2471 H2479 0.940 . S
C2472 C2471 1.383 . S
C2472 C2473 1.358 1_455 S
C2473 H2457 0.930 . S
C2473 C2472 1.358 1_655 S
C2473 C2474 1.379 . S
C2474 H2458 0.931 . S
C2474 C2468 1.383 . S
C2474 C2473 1.379 . S
H2475 C2469 0.959 . S
H2476 C2469 0.961 . S
H2477 C2469 0.960 . S
H2478 C2470 0.930 . S
H2479 C2471 0.940 . S
C473 C269 0.953 . S
C492 C3 0.940 . S
C509 C298 0.959 . S
C528 C32 0.946 . S
C545 C327 0.952 . S
C564 C61 0.945 . S
C581 C240 0.953 . S
C600 C90 0.956 . S
C617 C119 0.984 . S
C636 C385 1.005 . S
C653 C414 0.964 . S
C672 C148 0.939 . S
C689 C443 0.972 . S
C708 C177 0.998 . S
C725 C206 0.972 . S
C744 C356 0.981 . S
C761 C37 0.956 . S
C780 C235 0.940 . S
C797 C66 0.958 . S
C816 C264 0.982 . S
C833 C293 0.986 . S
C852 C95 1.010 . S
C869 C8 0.953 . S
C888 C322 0.939 . S
C905 C153 0.971 . S
C924 C351 1.001 . S
C941 C380 0.987 . S
C960 C182 0.938 . S
C977 C409 0.987 . S
C996 C211 0.935 . S
C1013 C124 0.953 . S
C1032 C438 0.974 . S
C1049 C213 2.305 . S
C1068 C15 2.347 . S
C1085 C44 2.357 . S
C1104 C358 2.314 . S
C1121 C73 2.357 . S
C1140 C155 2.306 . S
C1157 C416 2.308 . S
C1176 C102 2.346 1_455 S
C1193 C97 2.308 . S
C1212 C131 2.362 . S
C1229 C242 2.306 . S
C1248 C160 2.357 . S
C1265 C39 2.306 . S
C1284 C189 2.356 . S
C1301 C300 2.305 . S
C1320 C218 2.353 1_655 S
C1337 C247 2.358 . S
C1356 C445 2.317 1_565 S
C1373 C276 2.359 1_655 S
C1392 C126 2.311 . S
C1409 C387 2.308 1_545 S
C1428 C305 2.351 . S
C1445 C184 2.302 . S
C1464 C334 2.362 . S
C1481 C363 2.360 . S
C1500 C329 2.316 1_545 S
C1517 C392 2.361 1_455 S
C1536 C10 2.317 . S
C1553 C421 2.361 . S
C1572 C271 2.317 1_565 S
C1589 C450 2.357 . S
C1608 C68 2.285 . S
C1625 C121 2.446 . S
C1644 C5 2.451 . S
C1661 C34 2.449 . S
C1680 C382 2.433 . S
C1697 C179 2.444 . S
C1716 C63 2.440 . S
C1733 C440 2.449 . S
C1752 C92 2.431 . S
C1769 C266 2.451 . S
C1788 C150 2.457 . S
C1805 C208 2.449 . S
C1824 C324 2.461 . S
C1841 C237 2.450 . S
C1860 C353 2.461 . S
C1877 C295 2.450 . S
C1896 C411 2.460 . S
C1913 C419 1.241 . S
C1932 C21 1.205 1_565 S
C1949 C216 1.241 . S
C1968 C50 1.216 . S
C1985 C79 1.257 1_545 S
C2004 C361 1.252 . S
C2021 C158 1.239 . S
C2040 C108 1.214 . S
C2057 C137 1.240 1_545 S
C2076 C303 1.289 . S
C2093 C166 1.245 . S
C2112 C100 1.262 . S
C2129 C195 1.252 1_565 S
C2148 C245 1.237 . S
C2165 C42 1.250 . S
C2184 C224 1.233 . S
C2201 C253 1.258 . S
C2220 C187 1.273 . S
C2237 C448 1.250 . S
C2256 C282 1.286 . S
C2273 C311 1.242 . S
C2292 C129 1.242 . S
C2309 C340 1.248 . S
C2328 C390 1.192 1_455 S
C2345 C71 1.240 . S
C2364 C369 1.283 . S
C2381 C398 1.242 . S
C2400 C332 1.277 . S
C2417 C427 1.258 . S
C2436 C13 1.202 . S
C2453 C456 1.253 . S
C2472 C274 1.241 . S
