# Generated by pormake.
# Topology zfv, (5)-cn, num edge types: 1
# Building blocks:
#     Node 0, Type 0, BuildingBlock: XOMCOT_clean_sbu_1, # of connection points: 5
#     Node 1, Type 0, BuildingBlock: XOMCOT_clean_sbu_1, # of connection points: 5
#     Node 2, Type 0, BuildingBlock: XOMCOT_clean_sbu_1, # of connection points: 5
#     Node 3, Type 0, BuildingBlock: XOMCOT_clean_sbu_1, # of connection points: 5
#     Node 4, Type 0, BuildingBlock: XOMCOT_clean_sbu_1, # of connection points: 5
#     Node 5, Type 0, BuildingBlock: XOMCOT_clean_sbu_1, # of connection points: 5
#     Node 6, Type 0, BuildingBlock: XOMCOT_clean_sbu_1, # of connection points: 5
#     Node 7, Type 0, BuildingBlock: XOMCOT_clean_sbu_1, # of connection points: 5
#     Node 8, Type 0, BuildingBlock: XOMCOT_clean_sbu_1, # of connection points: 5
#     Node 9, Type 0, BuildingBlock: XOMCOT_clean_sbu_1, # of connection points: 5
#     Node 10, Type 0, BuildingBlock: XOMCOT_clean_sbu_1, # of connection points: 5
#     Node 11, Type 0, BuildingBlock: XOMCOT_clean_sbu_1, # of connection points: 5
#     Node 12, Type 0, BuildingBlock: XOMCOT_clean_sbu_1, # of connection points: 5
#     Node 13, Type 0, BuildingBlock: XOMCOT_clean_sbu_1, # of connection points: 5
#     Node 14, Type 0, BuildingBlock: XOMCOT_clean_sbu_1, # of connection points: 5
#     Node 15, Type 0, BuildingBlock: XOMCOT_clean_sbu_1, # of connection points: 5
#     Edge 16, Type (0, 0), BuildingBlock: EZIPEK_clean_linker_0, # of connection points: 2
#     Edge 17, Type (0, 0), BuildingBlock: EZIPEK_clean_linker_0, # of connection points: 2
#     Edge 18, Type (0, 0), BuildingBlock: EZIPEK_clean_linker_0, # of connection points: 2
#     Edge 19, Type (0, 0), BuildingBlock: EZIPEK_clean_linker_0, # of connection points: 2
#     Edge 20, Type (0, 0), BuildingBlock: EZIPEK_clean_linker_0, # of connection points: 2
#     Edge 21, Type (0, 0), BuildingBlock: EZIPEK_clean_linker_0, # of connection points: 2
#     Edge 22, Type (0, 0), BuildingBlock: EZIPEK_clean_linker_0, # of connection points: 2
#     Edge 23, Type (0, 0), BuildingBlock: EZIPEK_clean_linker_0, # of connection points: 2
#     Edge 24, Type (0, 0), BuildingBlock: EZIPEK_clean_linker_0, # of connection points: 2
#     Edge 25, Type (0, 0), BuildingBlock: EZIPEK_clean_linker_0, # of connection points: 2
#     Edge 26, Type (0, 0), BuildingBlock: EZIPEK_clean_linker_0, # of connection points: 2
#     Edge 27, Type (0, 0), BuildingBlock: EZIPEK_clean_linker_0, # of connection points: 2
#     Edge 28, Type (0, 0), BuildingBlock: EZIPEK_clean_linker_0, # of connection points: 2
#     Edge 29, Type (0, 0), BuildingBlock: EZIPEK_clean_linker_0, # of connection points: 2
#     Edge 30, Type (0, 0), BuildingBlock: EZIPEK_clean_linker_0, # of connection points: 2
#     Edge 31, Type (0, 0), BuildingBlock: EZIPEK_clean_linker_0, # of connection points: 2
#     Edge 32, Type (0, 0), BuildingBlock: EZIPEK_clean_linker_0, # of connection points: 2
#     Edge 33, Type (0, 0), BuildingBlock: EZIPEK_clean_linker_0, # of connection points: 2
#     Edge 34, Type (0, 0), BuildingBlock: EZIPEK_clean_linker_0, # of connection points: 2
#     Edge 35, Type (0, 0), BuildingBlock: EZIPEK_clean_linker_0, # of connection points: 2
#     Edge 36, Type (0, 0), BuildingBlock: EZIPEK_clean_linker_0, # of connection points: 2
#     Edge 37, Type (0, 0), BuildingBlock: EZIPEK_clean_linker_0, # of connection points: 2
#     Edge 38, Type (0, 0), BuildingBlock: EZIPEK_clean_linker_0, # of connection points: 2
#     Edge 39, Type (0, 0), BuildingBlock: EZIPEK_clean_linker_0, # of connection points: 2
#     Edge 40, Type (0, 0), BuildingBlock: EZIPEK_clean_linker_0, # of connection points: 2
#     Edge 41, Type (0, 0), BuildingBlock: EZIPEK_clean_linker_0, # of connection points: 2
#     Edge 42, Type (0, 0), BuildingBlock: EZIPEK_clean_linker_0, # of connection points: 2
#     Edge 43, Type (0, 0), BuildingBlock: EZIPEK_clean_linker_0, # of connection points: 2
#     Edge 44, Type (0, 0), BuildingBlock: EZIPEK_clean_linker_0, # of connection points: 2
#     Edge 45, Type (0, 0), BuildingBlock: EZIPEK_clean_linker_0, # of connection points: 2
#     Edge 46, Type (0, 0), BuildingBlock: EZIPEK_clean_linker_0, # of connection points: 2
#     Edge 47, Type (0, 0), BuildingBlock: EZIPEK_clean_linker_0, # of connection points: 2
#     Edge 48, Type (0, 0), BuildingBlock: EZIPEK_clean_linker_0, # of connection points: 2
#     Edge 49, Type (0, 0), BuildingBlock: EZIPEK_clean_linker_0, # of connection points: 2
#     Edge 50, Type (0, 0), BuildingBlock: EZIPEK_clean_linker_0, # of connection points: 2
#     Edge 51, Type (0, 0), BuildingBlock: EZIPEK_clean_linker_0, # of connection points: 2
#     Edge 52, Type (0, 0), BuildingBlock: EZIPEK_clean_linker_0, # of connection points: 2
#     Edge 53, Type (0, 0), BuildingBlock: EZIPEK_clean_linker_0, # of connection points: 2
#     Edge 54, Type (0, 0), BuildingBlock: EZIPEK_clean_linker_0, # of connection points: 2
#     Edge 55, Type (0, 0), BuildingBlock: EZIPEK_clean_linker_0, # of connection points: 2
# Relax obj value: 0.101
# Max RMSD: 0.108
# Mean RMSD: 0.108
data_MOF--net-zfv--node1-XOMCOT_clean_sbu_1--edge1-EZIPEK_clean_linker_0
_symmetry_space_group_name_H-M    P1
_symmetry_Int_Tables_number       1
_symmetry_cell_setting            triclinic
loop_
_symmetry_equiv_pos_as_xyz
'x, y, z'
_cell_length_a     58.029771
_cell_length_b     58.017151
_cell_length_c     13.640204
_cell_angle_alpha  90.11456
_cell_angle_beta   90.018871
_cell_angle_gamma 89.947741
loop_
_atom_site_label
_atom_site_type_symbol
_atom_site_fract_x
_atom_site_fract_y
_atom_site_fract_z
_atom_type_partial_charge
C0 C 0.0479 0.57731 0.15563 0.0
C1 C 0.0463 0.57493 0.2557 0.0
N2 N 0.06737 0.57807 0.29408 0.0
N3 N 0.06978 0.58261 0.12996 0.0
C4 C 0.08141 0.58173 0.21649 0.0
H5 H 0.03371 0.57549 0.1052 0.0
Co6 Co 0.07875 0.58915 0.99762 0.0
C7 C 0.11385 0.61776 0.11074 0.0
O8 O 0.09813 0.62558 0.1718 0.0
N9 N 0.08663 0.59487 0.86537 0.0
C10 C 0.09975 0.61173 0.72963 0.0
C11 C 0.09943 0.61246 0.83034 0.0
C12 C 0.07882 0.58401 0.78364 0.0
N13 N 0.08681 0.59383 0.70028 0.0
O14 O 0.09502 0.56027 0.99381 0.0
H15 H 0.10699 0.62588 0.8744 0.0
H16 H 0.06674 0.56983 0.78491 0.0
O17 O 0.10777 0.60433 0.04073 0.0
C18 C 0.08272 0.54265 0.97458 0.0
O19 O 0.06073 0.54552 0.95524 0.0
N20 N 0.06132 0.61688 0.99822 0.0
C21 C 0.03007 0.65345 1.00359 0.0
C22 C 0.05375 0.65757 1.01087 0.0
C23 C 0.06918 0.63906 1.00579 0.0
C24 C 0.03846 0.61301 0.98174 0.0
C25 C 0.02244 0.63098 0.98595 0.0
H26 H 0.08729 0.64289 1.00697 0.0
H27 H 0.03257 0.59576 0.96568 0.0
H28 H 0.09978 0.58392 0.22358 0.0
H29 H 0.03072 0.57209 0.29758 0.0
H30 H 0.10793 0.62404 0.68133 0.0
H31 H 0.06022 0.67493 0.02083 0.0
H32 H 0.00427 0.62733 0.97673 0.0
C33 C 0.74672 0.77305 0.52024 0.0
C34 C 0.74772 0.77444 0.62073 0.0
N35 N 0.72641 0.77882 0.65456 0.0
N36 N 0.72492 0.77692 0.48954 0.0
C37 C 0.71288 0.78035 0.57383 0.0
H38 H 0.76091 0.76815 0.47358 0.0
Co39 Co 0.71449 0.77385 0.35822 0.0
C40 C 0.70465 0.82366 0.38526 0.0
O41 O 0.72648 0.82915 0.39489 0.0
N42 N 0.70406 0.77034 0.22549 0.0
C43 C 0.68782 0.75503 0.09181 0.0
C44 C 0.68932 0.75404 0.19195 0.0
C45 C 0.71141 0.78093 0.14228 0.0
N46 N 0.70208 0.77161 0.06014 0.0
O47 O 0.74231 0.78847 0.31132 0.0
H48 H 0.68113 0.74099 0.23573 0.0
H49 H 0.72438 0.7943 0.14103 0.0
O50 O 0.69872 0.80293 0.36783 0.0
C51 C 0.75757 0.77445 0.28001 0.0
O52 O 0.75288 0.7523 0.28043 0.0
N53 N 0.68826 0.75818 0.40339 0.0
C54 C 0.65172 0.72792 0.43032 0.0
C55 C 0.64754 0.7514 0.41437 0.0
C56 C 0.66614 0.76635 0.40034 0.0
C57 C 0.69257 0.73576 0.42678 0.0
C58 C 0.67448 0.72022 0.43978 0.0
H59 H 0.66253 0.78398 0.38051 0.0
H60 H 0.71017 0.72959 0.42832 0.0
H61 H 0.69438 0.78265 0.57649 0.0
H62 H 0.76264 0.77096 0.66607 0.0
H63 H 0.67847 0.74317 0.04507 0.0
H64 H 0.63009 0.7578 0.40715 0.0
H65 H 0.67819 0.70218 0.45282 0.0
C66 C 0.56171 0.41173 0.73243 0.0
C67 C 0.56283 0.4121 0.83326 0.0
N68 N 0.5412 0.4134 0.86811 0.0
N69 N 0.53945 0.41237 0.70363 0.0
C70 C 0.52733 0.41371 0.78839 0.0
H71 H 0.57628 0.4109 0.68317 0.0
Co72 Co 0.52947 0.41167 0.57237 0.0
C73 C 0.49163 0.37743 0.56878 0.0
O74 O 0.50045 0.36908 0.48734 0.0
N75 N 0.51945 0.41187 0.43906 0.0
C76 C 0.49605 0.41753 0.31091 0.0
C77 C 0.49762 0.41703 0.41156 0.0
C78 C 0.53092 0.40981 0.35264 0.0
N79 N 0.51702 0.41296 0.27435 0.0
O80 O 0.51375 0.44038 0.59229 0.0
H81 H 0.48373 0.42083 0.46191 0.0
H82 H 0.54917 0.40684 0.34558 0.0
O83 O 0.50138 0.39462 0.61086 0.0
C84 C 0.52673 0.45777 0.57895 0.0
O85 O 0.54839 0.45444 0.55501 0.0
N86 N 0.54686 0.38434 0.55374 0.0
C87 C 0.57939 0.34894 0.54392 0.0
C88 C 0.55897 0.346 0.5968 0.0
C89 C 0.54317 0.36411 0.60272 0.0
C90 C 0.56711 0.38759 0.50482 0.0
C91 C 0.58343 0.36996 0.49722 0.0
H92 H 0.52878 0.36214 0.65154 0.0
H93 H 0.57133 0.40449 0.47698 0.0
H94 H 0.50874 0.41489 0.79183 0.0
H95 H 0.57826 0.41145 0.87775 0.0
H96 H 0.4809 0.42152 0.26785 0.0
H97 H 0.55589 0.33028 0.63748 0.0
H98 H 0.59957 0.37312 0.45972 0.0
C99 C 0.88176 0.19489 0.0438 0.0
C100 C 0.88089 0.19367 0.14454 0.0
N101 N 0.88875 0.21371 0.1809 0.0
N102 N 0.89023 0.21558 1.01647 0.0
C103 C 0.89418 0.22678 0.10225 0.0
H104 H 0.87628 0.18155 0.99356 0.0
Co105 Co 0.89441 0.22538 0.88604 0.0
C106 C 0.92676 0.19075 0.80118 0.0
O107 O 0.93717 0.20735 0.75303 0.0
N108 N 0.89772 0.23547 0.75301 0.0
C109 C 0.89922 0.25782 0.61968 0.0
C110 C 0.89968 0.25743 0.72046 0.0
C111 C 0.89526 0.22296 0.66918 0.0
N112 N 0.89649 0.23613 0.58769 0.0
O113 O 0.86524 0.2121 0.85118 0.0
H114 H 0.90028 0.27263 0.76569 0.0
H115 H 0.89223 0.20456 0.6677 0.0
O116 O 0.9099 0.19604 0.85723 0.0
C117 C 0.84897 0.22681 0.84975 0.0
O118 O 0.85369 0.24831 0.8726 0.0
N119 N 0.92238 0.23985 0.92353 0.0
C120 C 0.96108 0.26613 0.96943 0.0
C121 C 0.96229 0.24202 0.97057 0.0
C122 C 0.94249 0.22912 0.94958 0.0
C123 C 0.92046 0.26313 0.93413 0.0
C124 C 0.93971 0.27669 0.95462 0.0
H125 H 0.94349 0.21062 0.95523 0.0
H126 H 0.90381 0.27127 0.92639 0.0
H127 H 0.90084 0.24414 0.10737 0.0
H128 H 0.8749 0.17927 0.18792 0.0
H129 H 0.90008 0.27292 0.57335 0.0
H130 H 0.97838 0.23333 0.98654 0.0
H131 H 0.93799 0.29528 0.95778 0.0
C132 C 0.05362 0.42014 0.80284 0.0
C133 C 0.0513 0.42119 0.70261 0.0
N134 N 0.06638 0.4063 0.66283 0.0
N135 N 0.0699 0.40446 0.82695 0.0
C136 C 0.07749 0.39645 0.73911 0.0
H137 H 0.04434 0.43058 0.85544 0.0
Co138 Co 0.07899 0.40066 0.95956 0.0
C139 C 0.11103 0.3636 0.88026 0.0
O140 O 0.09406 0.35079 0.84722 0.0
N141 N 0.08794 0.39831 0.09158 0.0
C142 C 0.10948 0.39622 0.22623 0.0
C143 C 0.10976 0.3966 0.12547 0.0
C144 C 0.07469 0.39923 0.17324 0.0
N145 N 0.08745 0.39778 0.25592 0.0
O146 O 0.09606 0.42907 0.94934 0.0
H147 H 0.12503 0.39624 0.08009 0.0
H148 H 0.05617 0.40141 0.17212 0.0
O149 O 0.10688 0.38302 0.92141 0.0
C150 C 0.08627 0.44652 0.98828 0.0
O151 O 0.06683 0.44354 0.03588 0.0
N152 N 0.06064 0.37345 0.97213 0.0
C153 C 0.03212 0.33489 0.99 0.0
C154 C 0.02459 0.35444 0.93987 0.0
C155 C 0.0389 0.37366 0.93349 0.0
C156 C 0.06757 0.35496 0.02691 0.0
C157 C 0.05373 0.33529 0.03544 0.0
H158 H 0.03214 0.38883 0.89866 0.0
H159 H 0.08376 0.35545 0.06529 0.0
H160 H 0.09131 0.38432 0.72954 0.0
H161 H 0.04011 0.43263 0.66182 0.0
H162 H 0.12432 0.39557 0.2743 0.0
H163 H 0.00764 0.35491 0.90657 0.0
H164 H 0.05977 0.32062 0.07725 0.0
C165 C 0.88384 0.80012 0.99315 0.0
C166 C 0.88301 0.80168 0.89251 0.0
N167 N 0.89117 0.78187 0.85504 0.0
N168 N 0.8926 0.77943 1.0194 0.0
C169 C 0.89673 0.76859 0.93291 0.0
H170 H 0.8787 0.81347 0.04413 0.0
Co171 Co 0.89733 0.76973 0.15006 0.0
C172 C 0.93313 0.80253 0.22174 0.0
O173 O 0.94351 0.78574 0.26904 0.0
N174 N 0.90127 0.76004 0.28299 0.0
C175 C 0.90242 0.73826 0.41794 0.0
C176 C 0.90252 0.73818 0.31721 0.0
C177 C 0.8998 0.77306 0.36583 0.0
N178 N 0.9007 0.76018 0.44837 0.0
O179 O 0.86937 0.78494 0.18805 0.0
H180 H 0.90218 0.72275 0.27338 0.0
H181 H 0.8973 0.79154 0.36577 0.0
O182 O 0.91456 0.79826 0.17487 0.0
C183 C 0.85203 0.77155 0.18596 0.0
O184 O 0.85517 0.74995 0.16011 0.0
N185 N 0.92393 0.75305 0.10931 0.0
C186 C 0.95952 0.72297 0.05862 0.0
C187 C 0.96303 0.74683 0.05657 0.0
C188 C 0.94477 0.76166 0.07993 0.0
C189 C 0.91974 0.73002 0.10016 0.0
C190 C 0.93742 0.71457 0.07758 0.0
H191 H 0.94759 0.7799 0.07337 0.0
H192 H 0.90247 0.72356 0.11108 0.0
H193 H 0.90378 0.75138 0.92659 0.0
H194 H 0.87706 0.81625 0.84996 0.0
H195 H 0.90255 0.72332 0.46538 0.0
H196 H 0.97974 0.75387 0.03783 0.0
H197 H 0.93392 0.69624 0.07559 0.0
C198 C 0.53118 0.5643 0.33693 0.0
C199 C 0.52959 0.56294 0.23664 0.0
N200 N 0.52768 0.58445 0.20136 0.0
N201 N 0.52971 0.58655 0.36598 0.0
C202 C 0.52796 0.59846 0.2807 0.0
H203 H 0.53404 0.5498 0.38464 0.0
Co204 Co 0.53106 0.59724 0.49732 0.0
C205 C 0.48887 0.62682 0.52412 0.0
O206 O 0.49653 0.63581 0.60631 0.0
N207 N 0.53322 0.60748 0.63123 0.0
C208 C 0.54724 0.62378 0.76746 0.0
C209 C 0.54849 0.62302 0.66728 0.0
C210 C 0.52299 0.59891 0.71326 0.0
N211 N 0.53136 0.60851 0.79648 0.0
O212 O 0.51491 0.57002 0.5391 0.0
H213 H 0.56109 0.63236 0.62541 0.0
H214 H 0.51048 0.58512 0.71302 0.0
O215 O 0.50118 0.61226 0.47705 0.0
C216 C 0.52682 0.55362 0.57467 0.0
O217 O 0.54907 0.55679 0.5865 0.0
N218 N 0.54813 0.62309 0.45544 0.0
C219 C 0.58036 0.6581 0.43072 0.0
C220 C 0.5569 0.66335 0.43857 0.0
C221 C 0.54099 0.64555 0.45153 0.0
C222 C 0.57075 0.61768 0.44062 0.0
C223 C 0.58725 0.63499 0.42892 0.0
H224 H 0.52338 0.65025 0.46427 0.0
H225 H 0.57617 0.59986 0.44432 0.0
H226 H 0.52781 0.61704 0.27604 0.0
H227 H 0.53082 0.54746 0.19248 0.0
H228 H 0.55841 0.63349 0.81591 0.0
H229 H 0.55112 0.6811 0.43981 0.0
H230 H 0.60528 0.63043 0.42228 0.0
C231 C 0.74445 0.23047 0.49585 0.0
C232 C 0.74528 0.22909 0.39526 0.0
N233 N 0.72366 0.22659 0.36169 0.0
N234 N 0.72241 0.22853 0.52675 0.0
C235 C 0.71011 0.22628 0.44239 0.0
H236 H 0.75908 0.23397 0.54227 0.0
Co237 Co 0.71182 0.23198 0.65792 0.0
C238 C 0.68182 0.19099 0.69743 0.0
O239 O 0.67192 0.20109 0.77263 0.0
N240 N 0.70156 0.23617 0.79088 0.0
C241 C 0.68474 0.25124 0.92392 0.0
C242 C 0.68604 0.25187 0.8235 0.0
C243 C 0.70951 0.22628 0.87482 0.0
N244 N 0.69973 0.23536 0.95635 0.0
O245 O 0.73947 0.21721 0.70629 0.0
H246 H 0.67676 0.26395 0.77854 0.0
H247 H 0.72284 0.21325 0.87699 0.0
O248 O 0.69711 0.2016 0.64743 0.0
C249 C 0.75532 0.23082 0.73558 0.0
O250 O 0.75172 0.25314 0.73012 0.0
N251 N 0.68584 0.24807 0.61054 0.0
C252 C 0.65118 0.27967 0.56731 0.0
C253 C 0.64584 0.25642 0.58209 0.0
C254 C 0.66349 0.24078 0.6034 0.0
C255 C 0.69138 0.27039 0.59002 0.0
C256 C 0.67428 0.28655 0.56851 0.0
H257 H 0.65876 0.22325 0.61768 0.0
H258 H 0.70913 0.2759 0.59564 0.0
H259 H 0.69151 0.22576 0.43932 0.0
H260 H 0.76041 0.23125 0.34976 0.0
H261 H 0.67464 0.26259 0.97014 0.0
H262 H 0.6281 0.25063 0.58128 0.0
H263 H 0.67892 0.30443 0.55729 0.0
C264 C 0.36976 0.25528 0.5348 0.0
C265 C 0.36742 0.25618 0.43452 0.0
N266 N 0.38577 0.26731 0.39769 0.0
N267 N 0.38929 0.2662 0.56233 0.0
C268 C 0.39867 0.2733 0.47627 0.0
H269 H 0.35821 0.24639 0.58375 0.0
Co270 Co 0.40046 0.26759 0.69318 0.0
C271 C 0.43252 0.30737 0.69679 0.0
O272 O 0.44714 0.29499 0.74781 0.0
N273 N 0.4115 0.26849 0.828 0.0
C274 C 0.43146 0.26105 0.96513 0.0
C275 C 0.43133 0.25953 0.86487 0.0
C276 C 0.40026 0.27594 0.9098 0.0
N277 N 0.41176 0.27109 0.99361 0.0
O278 O 0.37181 0.28197 0.73315 0.0
H279 H 0.4452 0.25207 0.82283 0.0
H280 H 0.38372 0.28439 0.90908 0.0
O281 O 0.41363 0.29828 0.66806 0.0
C282 C 0.35641 0.2679 0.76301 0.0
O283 O 0.36185 0.24599 0.77098 0.0
N284 N 0.42704 0.25133 0.65252 0.0
C285 C 0.46305 0.22098 0.60748 0.0
C286 C 0.46268 0.24342 0.56895 0.0
C287 C 0.44479 0.25854 0.59425 0.0
C288 C 0.4261 0.22898 0.68284 0.0
C289 C 0.44438 0.21391 0.66546 0.0
H290 H 0.44534 0.27587 0.56621 0.0
H291 H 0.41154 0.22323 0.72581 0.0
H292 H 0.41501 0.28199 0.46995 0.0
H293 H 0.35397 0.24814 0.39136 0.0
H294 H 0.44445 0.25415 1.01396 0.0
H295 H 0.4764 0.24937 0.52154 0.0
H296 H 0.44379 0.19674 0.69632 0.0
C297 C 0.23318 0.74901 0.0461 0.0
C298 C 0.23565 0.74984 0.94579 0.0
N299 N 0.22604 0.73077 0.90733 0.0
N300 N 0.22207 0.72949 0.07136 0.0
C301 C 0.21829 0.71849 0.98491 0.0
H302 H 0.23813 0.76238 0.09725 0.0
Co303 Co 0.21273 0.72362 0.20165 0.0
C304 C 0.17422 0.68999 0.14702 0.0
O305 O 0.15751 0.70489 0.16009 0.0
N306 N 0.2042 0.7181 0.33537 0.0
C307 C 0.18424 0.71078 0.4719 0.0
C308 C 0.18354 0.71138 0.37129 0.0
C309 C 0.21703 0.72201 0.41724 0.0
N310 N 0.20529 0.71747 0.50081 0.0
O311 O 0.23951 0.70458 0.2182 0.0
H312 H 0.16837 0.70802 0.32864 0.0
H313 H 0.23429 0.72897 0.41621 0.0
O314 O 0.19532 0.69575 0.16037 0.0
C315 C 0.25767 0.71588 0.23898 0.0
O316 O 0.25625 0.73828 0.25125 0.0
N317 N 0.18745 0.74419 0.18485 0.0
C318 C 0.15458 0.7789 0.16083 0.0
C319 C 0.15834 0.76267 0.0867 0.0
C320 C 0.17502 0.74561 0.09968 0.0
C321 C 0.18462 0.76066 0.25565 0.0
C322 C 0.16794 0.77787 0.24605 0.0
H323 H 0.17762 0.73333 0.04132 0.0
H324 H 0.19565 0.76087 0.31944 0.0
H325 H 0.20891 0.70252 0.9782 0.0
H326 H 0.24265 0.76401 0.90376 0.0
H327 H 0.17006 0.70672 0.52047 0.0
H328 H 0.14852 0.76326 1.01918 0.0
H329 H 0.16579 0.79056 0.30372 0.0
C330 C 0.23692 0.29295 0.03343 0.0
C331 C 0.23898 0.2929 0.13362 0.0
N332 N 0.22708 0.27486 0.16858 0.0
N333 N 0.22413 0.27472 1.00389 0.0
C334 C 0.21845 0.26393 0.08885 0.0
H335 H 0.24371 0.30614 0.9857 0.0
Co336 Co 0.21559 0.26922 0.87126 0.0
C337 C 0.19953 0.31826 0.84879 0.0
O338 O 0.21946 0.32633 0.81902 0.0
N339 N 0.20676 0.26465 0.73845 0.0
C340 C 0.18419 0.26279 0.60624 0.0
C341 C 0.18466 0.26432 0.70657 0.0
C342 C 0.21941 0.26362 0.65486 0.0
N343 N 0.20603 0.26247 0.57386 0.0
O344 O 0.24322 0.28471 0.82998 0.0
H345 H 0.16967 0.26619 0.75292 0.0
H346 H 0.23796 0.26488 0.65214 0.0
O347 O 0.19739 0.29708 0.87158 0.0
C348 C 0.25957 0.27003 0.82526 0.0
O349 O 0.25452 0.24813 0.83717 0.0
N350 N 0.18997 0.25202 0.91225 0.0
C351 C 0.15345 0.22268 0.95607 0.0
C352 C 0.15339 0.24557 0.98963 0.0
C353 C 0.17174 0.26014 0.96556 0.0
C354 C 0.19081 0.22953 0.88367 0.0
C355 C 0.1725 0.2147 0.90274 0.0
H356 H 0.17143 0.27776 0.99084 0.0
H357 H 0.20556 0.22329 0.843 0.0
H358 H 0.20752 0.24887 0.09311 0.0
H359 H 0.24736 0.30592 0.17805 0.0
H360 H 0.16902 0.26343 0.56004 0.0
H361 H 0.13912 0.25216 0.03252 0.0
H362 H 0.17323 0.19709 0.87636 0.0
C363 C 0.37234 0.74107 0.47156 0.0
C364 C 0.37149 0.7421 0.57253 0.0
N365 N 0.38786 0.72804 0.60822 0.0
N366 N 0.38902 0.72623 0.4434 0.0
C367 C 0.39837 0.71879 0.52901 0.0
H368 H 0.36165 0.75086 0.42194 0.0
Co369 Co 0.39754 0.72018 0.31192 0.0
C370 C 0.40733 0.67343 0.38995 0.0
O371 O 0.38542 0.66902 0.40482 0.0
N372 N 0.40628 0.71456 0.18013 0.0
C373 C 0.42694 0.70414 0.04931 0.0
C374 C 0.42602 0.70434 0.15026 0.0
C375 C 0.39569 0.72082 0.09548 0.0
N376 N 0.40784 0.71447 1.01516 0.0
O377 O 0.36962 0.70303 0.2926 0.0
H378 H 0.43927 0.69792 0.1988 0.0
H379 H 0.37968 0.73029 0.09216 0.0
O380 O 0.41365 0.69253 0.35235 0.0
C381 C 0.35234 0.71467 0.26346 0.0
O382 O 0.35496 0.73667 0.24407 0.0
N383 N 0.42378 0.73827 0.32962 0.0
C384 C 0.45622 0.77266 0.37465 0.0
C385 C 0.45937 0.74953 0.4048 0.0
C386 C 0.44269 0.73282 0.38415 0.0
C387 C 0.42205 0.75932 0.28712 0.0
C388 C 0.43845 0.77635 0.3054 0.0
H389 H 0.44485 0.71575 0.41423 0.0
H390 H 0.40753 0.76306 0.23994 0.0
H391 H 0.41301 0.70732 0.53386 0.0
H392 H 0.35997 0.75257 0.61645 0.0
H393 H 0.44071 0.69728 1.00433 0.0
H394 H 0.47448 0.74392 0.44418 0.0
H395 H 0.43675 0.79215 0.26459 0.0
C396 C 0.55944 0.09428 0.74342 0.0
C397 C 0.56037 0.0903 0.84223 0.0
N398 N 0.5797 0.0784 0.86291 0.0
N399 N 0.57866 0.08601 0.70007 0.0
C400 C 0.59002 0.07521 0.77433 0.0
H401 H 0.54547 0.10291 0.70604 0.0
Co402 Co 0.58583 0.08933 0.56375 0.0
C403 C 0.62656 0.11346 0.66306 0.0
O404 O 0.61676 0.1138 0.74956 0.0
N405 N 0.59229 0.09211 0.42864 0.0
C406 C 0.59951 0.1087 0.28506 0.0
C407 C 0.599 0.11183 0.38468 0.0
C408 C 0.5889 0.07712 0.35352 0.0
N409 N 0.59306 0.08693 0.26527 0.0
O410 O 0.60098 0.05977 0.56582 0.0
H411 H 0.60231 0.12788 0.42253 0.0
H412 H 0.58278 0.05967 0.36264 0.0
O413 O 0.61555 0.10514 0.58983 0.0
C414 C 0.58653 0.04336 0.55722 0.0
O415 O 0.56452 0.04848 0.55083 0.0
N416 N 0.56928 0.11769 0.55866 0.0
C417 C 0.53746 0.15405 0.55782 0.0
C418 C 0.5561 0.15393 0.62361 0.0
C419 C 0.57229 0.13603 0.62041 0.0
C420 C 0.55146 0.11776 0.49323 0.0
C421 C 0.5361 0.13624 0.48839 0.0
H422 H 0.58596 0.1361 0.67345 0.0
H423 H 0.54877 0.10308 0.44562 0.0
H424 H 0.60551 0.0652 0.7629 0.0
H425 H 0.54767 0.09584 0.89549 0.0
H426 H 0.6039 0.12156 0.23075 0.0
H427 H 0.5578 0.16724 0.67894 0.0
H428 H 0.52223 0.13577 0.43524 0.0
C429 C 0.05765 0.92946 0.25079 0.0
C430 C 0.0588 0.93173 0.35132 0.0
N431 N 0.03958 0.92253 0.39007 0.0
N432 N 0.03784 0.9188 0.22586 0.0
C433 C 0.02697 0.91515 0.31267 0.0
H434 H 0.07091 0.93435 0.19918 0.0
Co435 Co 0.03062 0.90984 0.09581 0.0
C436 C 0.00022 0.86977 0.15271 0.0
O437 O 0.01493 0.85461 0.11813 0.0
N438 N 0.02343 0.90193 0.96178 0.0
C439 C 0.01041 0.88563 0.82352 0.0
C440 C 0.01058 0.88454 0.92414 0.0
C441 C 0.03079 0.91341 0.88059 0.0
N442 N 0.02308 0.9038 0.79615 0.0
O443 O 0.011 0.93634 0.08503 0.0
H444 H 0.00181 0.87148 0.96492 0.0
H445 H 0.04209 0.92821 0.88297 0.0
O446 O 0.00415 0.89142 0.14484 0.0
C447 C 0.02217 0.95434 0.06077 0.0
O448 O 0.04438 0.95266 0.044 0.0
N449 N 0.05187 0.88476 0.10615 0.0
C450 C 0.0859 0.85082 0.12009 0.0
C451 C 0.07122 0.85525 0.19904 0.0
C452 C 0.05451 0.87243 0.19103 0.0
C453 C 0.06695 0.88132 0.0305 0.0
C454 C 0.08378 0.8641 0.03512 0.0
H455 H 0.04322 0.87521 0.25259 0.0
H456 H 0.06641 0.89216 0.96648 0.0
H457 H 0.01072 0.90621 0.31981 0.0
H458 H 0.07312 0.93854 0.39314 0.0
H459 H 0.00188 0.8738 0.77393 0.0
H460 H 0.07264 0.84543 0.26628 0.0
H461 H 0.09527 0.86142 0.97359 0.0
C462 C 0.55307 0.91469 0.30931 0.0
C463 C 0.55338 0.91639 0.20912 0.0
N464 N 0.57509 0.91282 0.17798 0.0
N465 N 0.57445 0.90981 0.34219 0.0
C466 C 0.58765 0.90909 0.26031 0.0
H467 H 0.53789 0.91554 0.35512 0.0
Co468 Co 0.57942 0.90102 0.47271 0.0
C469 C 0.61909 0.86756 0.4571 0.0
O470 O 0.60854 0.85199 0.50992 0.0
N471 N 0.58353 0.89197 0.60746 0.0
C472 C 0.57956 0.87204 0.74648 0.0
C473 C 0.57808 0.8712 0.6467 0.0
C474 C 0.58875 0.90504 0.68737 0.0
N475 N 0.5862 0.89331 0.77263 0.0
O476 O 0.59536 0.92967 0.49767 0.0
H477 H 0.57232 0.85621 0.6067 0.0
H478 H 0.59336 0.92306 0.68409 0.0
O479 O 0.60917 0.88665 0.43642 0.0
C480 C 0.58204 0.9472 0.49995 0.0
O481 O 0.55989 0.94413 0.48513 0.0
N482 N 0.56155 0.87471 0.448 0.0
C483 C 0.52826 0.84078 0.42199 0.0
C484 C 0.54935 0.83936 0.37212 0.0
C485 C 0.56582 0.85678 0.38555 0.0
C486 C 0.54062 0.87681 0.49246 0.0
C487 C 0.52392 0.85982 0.48214 0.0
H488 H 0.58165 0.85602 0.3448 0.0
H489 H 0.53707 0.89175 0.53759 0.0
H490 H 0.60572 0.90444 0.26005 0.0
H491 H 0.53856 0.91888 0.16206 0.0
H492 H 0.57523 0.85827 0.79669 0.0
H493 H 0.5529 0.82511 0.32301 0.0
H494 H 0.50762 0.86164 0.52007 0.0
C495 C 0.05581 0.07765 0.8523 0.0
C496 C 0.05692 0.07573 0.75144 0.0
N497 N 0.03675 0.083 0.71369 0.0
N498 N 0.0351 0.08627 0.87846 0.0
C499 C 0.02369 0.08892 0.79201 0.0
H500 H 0.06959 0.07389 0.90325 0.0
Co501 Co 0.02641 0.09429 1.00885 0.0
C502 C 0.9949 0.13296 0.94392 0.0
O503 O 0.00838 0.14906 0.97966 0.0
N504 N 0.01742 0.10115 0.14189 0.0
C505 C 0.00298 0.11701 0.27839 0.0
C506 C 0.00347 0.1179 0.17754 0.0
C507 C 0.02498 0.09016 0.22409 0.0
N508 N 0.01653 0.09959 0.30768 0.0
O509 O 0.008 0.06689 1.01378 0.0
H510 H 0.99451 0.13058 0.13479 0.0
H511 H 0.03728 0.07615 0.22306 0.0
O512 O -0.00014 0.11161 0.95503 0.0
C513 C 0.01987 0.0494 0.03904 0.0
O514 O 0.04182 0.05213 0.05924 0.0
N515 N 0.04667 0.12062 1.00545 0.0
C516 C 0.08001 0.15563 1.00091 0.0
C517 C 0.06773 0.14967 0.91638 0.0
C518 C 0.05113 0.1323 0.92035 0.0
C519 C 0.05926 0.12581 0.08746 0.0
C520 C 0.07532 0.14375 0.08775 0.0
H521 H 0.04202 0.12829 0.85415 0.0
H522 H 0.0577 0.11572 0.15307 0.0
H523 H 0.00651 0.096 0.78567 0.0
H524 H 0.07172 0.07037 0.7088 0.0
H525 H 0.99389 0.1287 0.32684 0.0
H526 H 0.07107 0.15829 0.84744 0.0
H527 H 0.08478 0.1476 0.15428 0.0
C528 C 0.06623 0.60406 0.54786 0.0
C529 C 0.0807 0.58867 0.59977 0.0
C530 C 0.08527 0.56526 0.45044 0.0
C531 C 0.07251 0.58181 0.39677 0.0
N532 N 0.05447 0.61912 0.38978 0.0
N533 N 0.10674 0.5565 0.59899 0.0
C534 C 0.06395 0.60182 0.44438 0.0
C535 C 0.09093 0.56968 0.55065 0.0
N536 N 0.0543 0.62054 0.59837 0.0
N537 N 0.09144 0.54512 0.40585 0.0
H538 H 0.11133 0.55967 0.67173 0.0
H539 H 0.11648 0.54365 0.56537 0.0
H540 H 0.08739 0.54168 0.33281 0.0
H541 H 0.09892 0.53131 0.44269 0.0
H542 H 0.04178 0.631 0.56659 0.0
H543 H 0.05545 0.62228 0.67438 0.0
H544 H 0.04986 0.6351 0.41866 0.0
H545 H 0.05325 0.61831 0.31356 0.0
C546 C 0.71931 0.75528 0.90936 0.0
C547 C 0.70949 0.77436 0.95949 0.0
C548 C 0.71221 0.79716 0.80831 0.0
C549 C 0.71939 0.77725 0.75617 0.0
N550 N 0.72521 0.73623 0.75327 0.0
N551 N 0.6938 0.81267 0.95442 0.0
C552 C 0.72161 0.75596 0.80579 0.0
C553 C 0.7052 0.79516 0.90832 0.0
N554 N 0.72721 0.73681 0.96139 0.0
N555 N 0.71294 0.81806 0.76302 0.0
H556 H 0.68847 0.81154 0.02727 0.0
H557 H 0.68815 0.82747 0.91857 0.0
H558 H 0.71856 0.81978 0.6909 0.0
H559 H 0.70992 0.83362 0.79901 0.0
H560 H 0.73646 0.72332 0.92972 0.0
H561 H 0.72679 0.73624 0.03778 0.0
H562 H 0.72487 0.71986 0.7845 0.0
H563 H 0.72611 0.73608 0.67689 0.0
C564 C 0.52119 0.39257 0.11615 0.0
C565 C 0.52347 0.41302 0.17215 0.0
C566 C 0.53684 0.43394 0.02634 0.0
C567 C 0.53458 0.41345 0.97023 0.0
N568 N 0.52798 0.37269 0.96145 0.0
N569 N 0.53188 0.45338 0.18373 0.0
C570 C 0.52751 0.3926 1.01509 0.0
C571 C 0.53095 0.43379 0.12798 0.0
N572 N 0.51252 0.37329 0.1601 0.0
N573 N 0.54518 0.45331 0.98198 0.0
H574 H 0.52803 0.45344 0.25842 0.0
H575 H 0.53572 0.46967 0.1569 0.0
H576 H 0.54951 0.45369 0.90787 0.0
H577 H 0.54865 0.46874 1.01779 0.0
H578 H 0.50825 0.35823 0.12288 0.0
H579 H 0.50848 0.37278 0.23462 0.0
H580 H 0.52493 0.35639 0.99023 0.0
H581 H 0.53284 0.37231 0.88784 0.0
C582 C 0.91389 0.2213 0.43445 0.0
C583 C 0.89424 0.22915 0.48644 0.0
C584 C 0.87141 0.22827 0.3346 0.0
C585 C 0.89083 0.2196 0.28343 0.0
N586 N 0.92968 0.20546 0.28322 0.0
N587 N 0.85393 0.23819 0.49149 0.0
C588 C 0.91186 0.21544 0.33316 0.0
C589 C 0.87285 0.23208 0.43782 0.0
N590 N 0.93458 0.2202 0.48194 0.0
N591 N 0.85182 0.23325 0.28325 0.0
H592 H 0.85477 0.24131 0.56677 0.0
H593 H 0.83726 0.23886 0.46365 0.0
H594 H 0.85044 0.23037 0.20794 0.0
H595 H 0.83745 0.24136 0.31317 0.0
H596 H 0.95018 0.21667 0.44746 0.0
H597 H 0.93631 0.22409 0.55628 0.0
H598 H 0.94487 0.19987 0.31596 0.0
H599 H 0.9287 0.20158 0.20859 0.0
C600 C 0.08423 0.42131 0.4055 0.0
C601 C 0.07999 0.40029 0.35618 0.0
C602 C 0.06513 0.38352 0.50876 0.0
C603 C 0.07151 0.40387 0.55971 0.0
N604 N 0.09093 0.44042 0.56072 0.0
N605 N 0.06845 0.3606 0.35966 0.0
C606 C 0.08204 0.42235 0.509 0.0
C607 C 0.0709 0.38115 0.40749 0.0
N608 N 0.08997 0.44036 0.3524 0.0
N609 N 0.05306 0.36684 0.55695 0.0
H610 H 0.07218 0.3587 0.28524 0.0
H611 H 0.06406 0.34527 0.39443 0.0
H612 H 0.04875 0.36826 0.63099 0.0
H613 H 0.046 0.35246 0.52255 0.0
H614 H 0.09132 0.45683 0.38239 0.0
H615 H 0.09115 0.43996 0.27619 0.0
H616 H 0.10068 0.45353 0.52933 0.0
H617 H 0.0905 0.44098 0.63692 0.0
C618 C 0.87633 0.76443 0.59592 0.0
C619 C 0.89791 0.76746 0.54903 0.0
C620 C 0.91482 0.78094 0.70412 0.0
C621 C 0.89365 0.77647 0.7522 0.0
N622 N 0.85473 0.76268 0.74885 0.0
N623 N 0.93816 0.77662 0.55683 0.0
C624 C 0.87448 0.76792 0.69919 0.0
C625 C 0.91729 0.77532 0.60273 0.0
N626 N 0.85761 0.75852 0.5406 0.0
N627 N 0.93235 0.79095 0.75574 0.0
H628 H 0.94019 0.77293 0.48243 0.0
H629 H 0.95359 0.78015 0.59263 0.0
H630 H 0.93103 0.79468 0.83041 0.0
H631 H 0.94761 0.79672 0.72427 0.0
H632 H 0.84084 0.75783 0.56723 0.0
H633 H 0.85871 0.75569 0.46519 0.0
H634 H 0.84055 0.75457 0.71747 0.0
H635 H 0.85304 0.76532 0.8242 0.0
C636 C 0.5098 0.60753 0.95323 0.0
C637 C 0.52887 0.60045 0.89587 0.0
C638 C 0.54796 0.5853 0.04236 0.0
C639 C 0.52826 0.59082 0.09906 0.0
N640 N 0.48908 0.60419 0.1076 0.0
N641 N 0.56379 0.5785 0.88047 0.0
C642 C 0.50874 0.60115 0.05422 0.0
C643 C 0.54722 0.588 0.93904 0.0
N644 N 0.4931 0.62084 0.91136 0.0
N645 N 0.56777 0.57856 0.08818 0.0
H646 H 0.56344 0.57999 0.80426 0.0
H647 H 0.57647 0.56734 0.9063 0.0
H648 H 0.56917 0.57752 0.16428 0.0
H649 H 0.58339 0.57632 0.05182 0.0
H650 H 0.47983 0.62863 0.95077 0.0
H651 H 0.49337 0.62518 0.83713 0.0
H652 H 0.47355 0.60977 0.07761 0.0
H653 H 0.48788 0.59951 0.18121 0.0
C654 C 0.70816 0.20926 0.20842 0.0
C655 C 0.71659 0.22869 0.2604 0.0
C656 C 0.71693 0.2511 0.1082 0.0
C657 C 0.70667 0.23238 0.05746 0.0
N658 N 0.68985 0.19459 0.06027 0.0
N659 N 0.72449 0.26932 0.26498 0.0
C660 C 0.7016 0.21163 0.10788 0.0
C661 C 0.7197 0.24998 0.21156 0.0
N662 N 0.70701 0.18848 0.2549 0.0
N663 N 0.72473 0.2697 0.05675 0.0
H664 H 0.72587 0.26913 0.34123 0.0
H665 H 0.72477 0.28582 0.2351 0.0
H666 H 0.72353 0.27078 0.98063 0.0
H667 H 0.73443 0.28289 0.08809 0.0
H668 H 0.70311 0.17307 0.21941 0.0
H669 H 0.71146 0.1865 0.32853 0.0
H670 H 0.68365 0.17984 0.09466 0.0
H671 H 0.68491 0.196 0.98698 0.0
C672 C 0.39544 0.24816 0.24069 0.0
C673 C 0.39208 0.26872 0.29517 0.0
C674 C 0.40144 0.29144 0.14819 0.0
C675 C 0.40293 0.27082 0.09271 0.0
N676 N 0.39591 0.23012 0.08046 0.0
N677 N 0.38841 0.30998 0.29851 0.0
C678 C 0.39819 0.24935 0.13744 0.0
C679 C 0.39412 0.29045 0.24819 0.0
N680 N 0.39727 0.22757 0.28841 0.0
N681 N 0.40768 0.31178 0.10583 0.0
H682 H 0.38276 0.3096 0.37108 0.0
H683 H 0.38757 0.32623 0.26647 0.0
H684 H 0.41273 0.31283 0.03256 0.0
H685 H 0.40924 0.32719 0.14449 0.0
H686 H 0.40185 0.21226 0.25343 0.0
H687 H 0.39673 0.22625 0.3646 0.0
H688 H 0.39037 0.2143 0.1077 0.0
H689 H 0.39721 0.23064 1.0042 0.0
C690 C 0.20202 0.7402 0.65343 0.0
C691 C 0.21214 0.72165 0.60127 0.0
C692 C 0.23265 0.70977 0.75084 0.0
C693 C 0.22088 0.72708 0.80464 0.0
N694 N 0.19131 0.7561 0.81157 0.0
N695 N 0.23465 0.68693 0.60124 0.0
C696 C 0.20473 0.74161 0.75697 0.0
C697 C 0.22691 0.70594 0.65022 0.0
N698 N 0.1902 0.75673 0.60302 0.0
N699 N 0.24965 0.69741 0.79574 0.0
H700 H 0.23048 0.68376 0.52805 0.0
H701 H 0.24373 0.67359 0.63453 0.0
H702 H 0.25392 0.69984 0.86936 0.0
H703 H 0.2605 0.68604 0.75883 0.0
H704 H 0.18417 0.7719 0.63496 0.0
H705 H 0.18829 0.75622 0.52697 0.0
H706 H 0.17764 0.76554 0.7827 0.0
H707 H 0.19244 0.75704 0.88776 0.0
C708 C 0.2232 0.24748 0.4198 0.0
C709 C 0.21295 0.26575 0.47336 0.0
C710 C 0.20941 0.28838 0.32321 0.0
C711 C 0.22145 0.27105 0.27049 0.0
N712 N 0.24281 0.23555 0.27048 0.0
N713 N 0.20107 0.30538 0.4815 0.0
C714 C 0.22917 0.25091 0.31934 0.0
C715 C 0.20752 0.28677 0.4265 0.0
N716 N 0.22659 0.22674 0.46455 0.0
N717 N 0.19888 0.30587 0.27375 0.0
H718 H 0.20017 0.30483 0.55784 0.0
H719 H 0.19896 0.32185 0.45254 0.0
H720 H 0.19905 0.30688 0.19765 0.0
H721 H 0.18801 0.31784 0.30708 0.0
H722 H 0.23189 0.21195 0.42747 0.0
H723 H 0.22258 0.22403 0.5382 0.0
H724 H 0.25081 0.22157 0.30411 0.0
H725 H 0.24753 0.23783 0.19736 0.0
C726 C 0.38208 0.70639 0.76253 0.0
C727 C 0.39325 0.7243 0.71048 0.0
C728 C 0.41243 0.73692 0.86213 0.0
C729 C 0.40218 0.7183 0.91315 0.0
N730 N 0.37949 0.68377 0.91235 0.0
N731 N 0.42068 0.75516 0.70524 0.0
C732 C 0.38754 0.70262 0.86334 0.0
C733 C 0.40892 0.73918 0.75895 0.0
N734 N 0.36597 0.6933 0.71527 0.0
N735 N 0.4251 0.75267 0.91353 0.0
H736 H 0.41807 0.75725 0.63008 0.0
H737 H 0.43394 0.7653 0.73305 0.0
H738 H 0.4279 0.75124 0.98886 0.0
H739 H 0.43156 0.76783 0.88368 0.0
H740 H 0.35546 0.68132 0.75003 0.0
H741 H 0.36223 0.69539 0.64096 0.0
H742 H 0.37044 0.67039 0.87924 0.0
H743 H 0.38313 0.68085 0.98621 0.0
C744 C 0.56907 0.06405 0.02662 0.0
C745 C 0.58655 0.07191 0.96209 0.0
C746 C 0.61113 0.07853 0.1064 0.0
C747 C 0.5916 0.07715 0.16781 0.0
N748 N 0.55104 0.06906 0.18519 0.0
N749 N 0.62588 0.08542 0.94442 0.0
C750 C 0.57036 0.06947 0.1283 0.0
C751 C 0.60829 0.0783 1.00277 0.0
N752 N 0.55098 0.05189 0.98927 0.0
N753 N 0.63246 0.08013 0.14812 0.0
H754 H 0.6259 0.08329 0.86934 0.0
H755 H 0.64046 0.0938 0.97121 0.0
H756 H 0.63475 0.0799 0.22406 0.0
H757 H 0.64774 0.07917 0.1082 0.0
H758 H 0.53841 0.04426 0.03301 0.0
H759 H 0.55019 0.04746 0.91506 0.0
H760 H 0.53466 0.06588 0.15696 0.0
H761 H 0.55105 0.07371 0.25892 0.0
C762 C 0.04635 0.89848 0.64603 0.0
C763 C 0.02831 0.91002 0.69593 0.0
C764 C 0.01853 0.93088 0.54459 0.0
C765 C 0.03545 0.91807 0.49303 0.0
N766 N 0.06299 0.88712 0.48975 0.0
N767 N 0.99501 0.93454 0.69142 0.0
C768 C 0.04878 0.90121 0.54264 0.0
C769 C 0.0138 0.92557 0.64477 0.0
N770 N 0.0612 0.88497 0.69828 0.0
N771 N 0.00741 0.94846 0.49795 0.0
H772 H 0.99122 0.93075 0.76437 0.0
H773 H 0.98241 0.9443 0.65644 0.0
H774 H 0.01053 0.95248 0.42464 0.0
H775 H 0.99646 0.96002 0.53327 0.0
H776 H 0.0761 0.87773 0.66891 0.0
H777 H 0.05947 0.88244 0.77364 0.0
H778 H 0.0716 0.873 0.51932 0.0
H779 H 0.06467 0.88837 0.41385 0.0
C780 C 0.59261 0.88959 0.04323 0.0
C781 C 0.58175 0.91007 0.07634 0.0
C782 C 0.57368 0.92013 0.90582 0.0
C783 C 0.58733 0.90133 0.87303 0.0
N784 N 0.61521 0.87215 0.9141 0.0
N785 N 0.56756 0.94791 0.03577 0.0
C786 C 0.59892 0.88763 0.94327 0.0
C787 C 0.57442 0.92652 1.00626 0.0
N788 N 0.59437 0.87093 0.10313 0.0
N789 N 0.55804 0.93015 0.84487 0.0
H790 H 0.56854 0.95315 0.1089 0.0
H791 H 0.56335 0.96091 0.98618 0.0
H792 H 0.55438 0.92348 0.77571 0.0
H793 H 0.54655 0.94284 0.86836 0.0
H794 H 0.60057 0.85505 0.07878 0.0
H795 H 0.58646 0.8704 0.17155 0.0
H796 H 0.62499 0.86264 0.96396 0.0
H797 H 0.62045 0.8708 0.84108 0.0
C798 C 0.03932 0.10792 0.45734 0.0
C799 C 0.02253 0.09438 0.40844 0.0
C800 C 0.01608 0.07239 0.56026 0.0
C801 C 0.03169 0.08697 0.61085 0.0
N802 N 0.05546 0.12086 0.61242 0.0
N803 N 0.99243 0.06614 0.41519 0.0
C804 C 0.04264 0.10533 0.56047 0.0
C805 C 0.01025 0.07721 0.46051 0.0
N806 N 0.05224 0.12309 0.40433 0.0
N807 N 0.0073 0.05362 0.60735 0.0
H808 H 0.98781 0.06961 0.3428 0.0
H809 H 0.98126 0.05491 0.45083 0.0
H810 H 0.01126 0.04993 0.68021 0.0
H811 H 0.99756 0.04093 0.57277 0.0
H812 H 0.06636 0.13193 0.43264 0.0
H813 H 0.04983 0.12554 0.3293 0.0
H814 H 0.06208 0.13597 0.58268 0.0
H815 H 0.0579 0.11957 0.68793 0.0
C816 C 0.09177 0.50648 0.88325 0.0
C817 C 0.09239 0.51892 0.97266 0.0
C818 C 0.10091 0.48309 0.06067 0.0
C819 C 0.09495 0.47043 0.9757 0.0
N820 N 0.0874 0.46948 0.80251 0.0
N821 N 0.09949 0.51972 0.1467 0.0
C822 C 0.09173 0.48196 0.88525 0.0
C823 C 0.0981 0.50749 0.06131 0.0
N824 N 0.09134 0.51827 0.79673 0.0
N825 N 0.10928 0.47155 0.14019 0.0
H826 H 0.09832 0.53763 0.14897 0.0
H827 H 0.10095 0.51212 0.21545 0.0
H828 H 0.11208 0.45377 0.13837 0.0
H829 H 0.11553 0.4796 0.20304 0.0
H830 H 0.09268 0.5105 0.72812 0.0
H831 H 0.09188 0.53621 0.79448 0.0
H832 H 0.0816 0.47664 0.73707 0.0
H833 H 0.08924 0.45166 0.8006 0.0
C834 C 0.82075 0.78912 0.29215 0.0
C835 C 0.82811 0.78004 0.20063 0.0
C836 C 0.78803 0.77462 0.14994 0.0
C837 C 0.78061 0.78201 0.24414 0.0
N838 N 0.7891 0.80398 0.3901 0.0
N839 N 0.81918 0.77245 0.03152 0.0
C840 C 0.7967 0.79199 0.31017 0.0
C841 C 0.8118 0.77557 0.12581 0.0
N842 N 0.83654 0.79365 0.36388 0.0
N843 N 0.77242 0.7659 0.08476 0.0
H844 H 0.83653 0.77363 1.01194 0.0
H845 H 0.80811 0.77107 0.97171 0.0
H846 H 0.75475 0.7663 0.09761 0.0
H847 H 0.77698 0.75747 1.02015 0.0
H848 H 0.83212 0.7974 0.43615 0.0
H849 H 0.85422 0.79243 0.35249 0.0
H850 H 0.79996 0.8132 0.43658 0.0
H851 H 0.77172 0.80687 0.40408 0.0
C852 C 0.5062 0.51799 0.51512 0.0
C853 C 0.51713 0.5302 0.59254 0.0
C854 C 0.52338 0.49365 0.67885 0.0
C855 C 0.51828 0.4817 0.59095 0.0
N856 N 0.50405 0.48198 0.42517 0.0
N857 N 0.53224 0.5303 0.75671 0.0
C858 C 0.509 0.49367 0.50957 0.0
C859 C 0.52416 0.51816 0.67797 0.0
N860 N 0.49313 0.52941 0.44763 0.0
N861 N 0.52758 0.48142 0.76236 0.0
H862 H 0.5312 0.54824 0.76034 0.0
H863 H 0.54027 0.52282 0.817 0.0
H864 H 0.52676 0.46346 0.7638 0.0
H865 H 0.52978 0.48891 0.83109 0.0
H866 H 0.48353 0.52106 0.39371 0.0
H867 H 0.48947 0.54692 0.45275 0.0
H868 H 0.50011 0.49008 0.35916 0.0
H869 H 0.50521 0.46411 0.42004 0.0
C870 C 0.81738 0.2108 0.74029 0.0
C871 C 0.82454 0.22031 0.83138 0.0
C872 C 0.78468 0.23051 0.87078 0.0
C873 C 0.7776 0.22245 0.77698 0.0
N874 N 0.78566 0.19784 0.63816 0.0
N875 N 0.81438 0.2309 0.99616 0.0
C876 C 0.79341 0.21008 0.71716 0.0
C877 C 0.80789 0.22739 0.90092 0.0
N878 N 0.83343 0.20377 0.67344 0.0
N879 N 0.76942 0.24184 0.92991 0.0
H880 H 0.83123 0.22812 1.02023 0.0
H881 H 0.80277 0.23414 0.05276 0.0
H882 H 0.752 0.24333 0.91303 0.0
H883 H 0.77418 0.2507 0.99322 0.0
H884 H 0.82952 0.19967 0.60096 0.0
H885 H 0.85095 0.20316 0.68891 0.0
H886 H 0.7961 0.18691 0.59688 0.0
H887 H 0.7683 0.19658 0.61989 0.0
C888 C 0.29365 0.28756 0.73755 0.0
C889 C 0.28433 0.27674 0.82172 0.0
C890 C 0.32339 0.26824 0.88133 0.0
C891 C 0.3325 0.27523 0.78928 0.0
N892 N 0.32654 0.2923 0.62967 0.0
N893 N 0.28982 0.25941 0.98033 0.0
C894 C 0.3178 0.28569 0.7183 0.0
C895 C 0.29915 0.26827 0.89631 0.0
N896 N 0.2794 0.29933 0.6755 0.0
N897 N 0.33801 0.26155 0.95469 0.0
H898 H 0.27241 0.26104 0.99774 0.0
H899 H 0.29896 0.24988 0.03182 0.0
H900 H 0.35571 0.26001 0.94536 0.0
H901 H 0.33301 0.25889 0.02698 0.0
H902 H 0.28522 0.30951 0.61789 0.0
H903 H 0.26169 0.30065 0.68667 0.0
H904 H 0.31642 0.29686 0.56978 0.0
H905 H 0.34405 0.2923 0.61359 0.0
C906 C 0.29108 0.70064 0.33293 0.0
C907 C 0.28076 0.70506 0.24094 0.0
C908 C 0.31859 0.70352 0.162 0.0
C909 C 0.32897 0.70461 0.25577 0.0
N910 N 0.32603 0.70111 0.43118 0.0
N911 N 0.28361 0.70759 0.06554 0.0
C912 C 0.31552 0.70161 0.3416 0.0
C913 C 0.2942 0.70499 0.15428 0.0
N914 N 0.27733 0.69582 0.41138 0.0
N915 N 0.33226 0.70126 0.08109 0.0
H916 H 0.26572 0.70731 0.05823 0.0
H917 H 0.29233 0.71043 1.00004 0.0
H918 H 0.3501 0.69951 0.08691 0.0
H919 H 0.32602 0.69899 1.0102 0.0
H920 H 0.28347 0.69111 0.48016 0.0
H921 H 0.25948 0.69448 0.40413 0.0
H922 H 0.31724 0.70174 0.49759 0.0
H923 H 0.34389 0.7005 0.43898 0.0
C924 C 0.60527 0.00825 0.48086 0.0
C925 C 0.59323 0.01862 0.56023 0.0
C926 C 0.57955 0.98088 0.61425 0.0
C927 C 0.58999 0.97051 0.53085 0.0
N928 N 0.61712 0.97296 0.39766 0.0
N929 N 0.57579 0.01445 0.71884 0.0
C930 C 0.60456 0.98374 0.46903 0.0
C931 C 0.58277 0.0047 0.63254 0.0
N932 N 0.61615 0.02192 0.41394 0.0
N933 N 0.56545 0.96817 0.67324 0.0
H934 H 0.5778 0.03194 0.73337 0.0
H935 H 0.57017 0.00503 0.77916 0.0
H936 H 0.56332 0.9505 0.66443 0.0
H937 H 0.55483 0.97523 0.72697 0.0
H938 H 0.62272 0.01601 0.34755 0.0
H939 H 0.61815 0.03961 0.42406 0.0
H940 H 0.6295 0.98117 0.3551 0.0
H941 H 0.61635 0.95524 0.38543 0.0
C942 C 0.00918 0.98793 0.96229 0.0
C943 C 0.01139 0.97746 0.05548 0.0
C944 C 0.00728 0.01518 0.13443 0.0
C945 C 0.01024 0.02577 0.0419 0.0
N946 N 0.01169 0.02306 0.86616 0.0
N947 N 0.01029 0.98019 0.23135 0.0
C948 C 0.00988 0.01238 0.95496 0.0
C949 C 0.00915 0.99078 0.14213 0.0
N950 N 0.00676 0.97427 0.88135 0.0
N951 N 0.00303 0.02868 0.21446 0.0
H952 H 0.01066 0.9623 0.23852 0.0
H953 H 0.01152 0.98896 0.29775 0.0
H954 H 0.00126 0.04652 0.20846 0.0
H955 H -0.00077 0.02229 0.28381 0.0
H956 H 0.0036 0.98049 0.81113 0.0
H957 H 0.0059 0.95637 0.88693 0.0
H958 H 0.01428 0.0144 0.80021 0.0
H959 H 0.01119 0.04094 0.85915 0.0
C960 C 0.16347 0.65175 0.21575 0.0
C961 C 0.16756 0.66561 0.13224 0.0
C962 C 0.14824 0.63666 0.03165 0.0
C963 C 0.13755 0.62781 0.11677 0.0
N964 N 0.13896 0.62301 0.29192 0.0
N965 N 0.16427 0.67085 0.95739 0.0
C966 C 0.14669 0.63393 0.20977 0.0
C967 C 0.1604 0.65779 0.03871 0.0
N968 N 0.17556 0.65572 0.29985 0.0
N969 N 0.14772 0.62458 0.94606 0.0
H970 H 0.17316 0.68643 0.96026 0.0
H971 H 0.15732 0.66679 0.88898 0.0
H972 H 0.1414 0.60778 0.94281 0.0
H973 H 0.15642 0.62991 0.88321 0.0
H974 H 0.17433 0.64547 0.36216 0.0
H975 H 0.18884 0.66779 0.30267 0.0
H976 H 0.14269 0.62847 0.36292 0.0
H977 H 0.12834 0.60853 0.28809 0.0
C978 C 0.66077 0.86441 0.50035 0.0
C979 C 0.64334 0.863 0.42788 0.0
C980 C 0.67042 0.84384 0.31609 0.0
C981 C 0.68615 0.84126 0.39471 0.0
N982 N 0.69751 0.85031 0.5605 0.0
N983 N 0.63158 0.85308 0.26441 0.0
C984 C 0.68193 0.85238 0.48596 0.0
C985 C 0.64834 0.85358 0.3343 0.0
N986 N 0.65689 0.87727 0.58285 0.0
N987 N 0.67686 0.83717 0.22388 0.0
H988 H 0.61603 0.86165 0.27398 0.0
H989 H 0.63277 0.84378 0.1993 0.0
H990 H 0.69317 0.83043 0.20878 0.0
H991 H 0.66707 0.84018 0.16126 0.0
H992 H 0.66939 0.88078 0.63548 0.0
H993 H 0.6415 0.88621 0.59446 0.0
H994 H 0.69432 0.85548 0.63228 0.0
H995 H 0.71356 0.84259 0.5515 0.0
C996 C 0.45319 0.35856 0.54691 0.0
C997 C 0.4711 0.3656 0.61157 0.0
C998 C 0.45256 0.34345 0.7423 0.0
C999 C 0.43951 0.3314 0.67137 0.0
N1000 N 0.42365 0.33056 0.50764 0.0
N1001 N 0.48745 0.36435 0.77558 0.0
C1002 C 0.43833 0.34012 0.57433 0.0
C1003 C 0.47037 0.35851 0.71146 0.0
N1004 N 0.45011 0.36996 0.4603 0.0
N1005 N 0.44801 0.34011 0.83949 0.0
H1006 H 0.50107 0.37507 0.75808 0.0
H1007 H 0.489 0.35705 0.845 0.0
H1008 H 0.43466 0.32938 0.86293 0.0
H1009 H 0.45556 0.34985 0.89517 0.0
H1010 H 0.43626 0.36706 0.41334 0.0
H1011 H 0.46015 0.3841 0.44043 0.0
H1012 H 0.42486 0.33336 0.43242 0.0
H1013 H 0.40996 0.32007 0.52779 0.0
C1014 C 0.97697 0.15058 0.79458 0.0
C1015 C 0.97416 0.1402 0.88811 0.0
C1016 C 0.93393 0.15312 0.89132 0.0
C1017 C 0.93888 0.16804 0.812 0.0
N1018 N 0.95884 0.17068 0.65858 0.0
N1019 N 0.94907 0.12834 1.01936 0.0
C1020 C 0.95851 0.16347 0.75381 0.0
C1021 C 0.95217 0.14006 0.9337 0.0
N1022 N 0.99757 0.14888 0.74692 0.0
N1023 N 0.91166 0.15039 0.92109 0.0
H1024 H 0.96156 0.11731 0.04795 0.0
H1025 H 0.93447 0.13 0.06311 0.0
H1026 H 0.89798 0.1574 0.88148 0.0
H1027 H 0.90655 0.13888 0.97528 0.0
H1028 H 0.00182 0.15839 0.6849 0.0
H1029 H 0.01074 0.13819 0.77149 0.0
H1030 H 0.97191 0.16666 0.60917 0.0
H1031 H 0.9445 0.17845 0.62623 0.0
C1032 C 0.17097 0.34812 0.78488 0.0
C1033 C 0.17912 0.33362 0.86143 0.0
C1034 C 0.14263 0.33851 0.94799 0.0
C1035 C 0.135 0.35444 0.87621 0.0
N1036 N 0.14472 0.37889 0.7395 0.0
N1037 N 0.17572 0.32275 0.03107 0.0
C1038 C 0.15013 0.36081 0.79905 0.0
C1039 C 0.16591 0.33135 0.94796 0.0
N1040 N 0.18215 0.34883 0.69686 0.0
N1041 N 0.12758 0.3292 1.01357 0.0
H1042 H 0.19314 0.3184 0.03448 0.0
H1043 H 0.16721 0.32252 0.09838 0.0
H1044 H 0.11001 0.33244 1.011 0.0
H1045 H 0.13215 0.31604 0.06179 0.0
H1046 H 0.17545 0.35718 0.63559 0.0
H1047 H 0.19706 0.33945 0.68218 0.0
H1048 H 0.15604 0.38544 0.68728 0.0
H1049 H 0.12995 0.38883 0.74961 0.0
C1050 C 0.96032 0.85762 0.11666 0.0
C1051 C 0.97776 0.86087 0.18708 0.0
C1052 C 0.95817 0.83339 0.2941 0.0
C1053 C 0.94516 0.82525 0.21264 0.0
N1054 N 0.9364 0.82937 0.03828 0.0
N1055 N 0.99315 0.85261 0.34679 0.0
C1056 C 0.94636 0.83759 0.12203 0.0
C1057 C 0.97645 0.84923 0.27783 0.0
N1058 N 0.95772 0.8732 0.04275 0.0
N1059 N 0.95293 0.82614 0.38664 0.0
H1060 H 0.00618 0.86481 0.3379 0.0
H1061 H 0.9946 0.84262 0.4099 0.0
H1062 H 0.93884 0.81552 0.40117 0.0
H1063 H 0.96085 0.83274 0.44924 0.0
H1064 H 0.94413 0.87256 0.99281 0.0
H1065 H 0.96759 0.88822 0.03955 0.0
H1066 H 0.93905 0.83685 0.9698 0.0
H1067 H 0.92777 0.81381 0.03325 0.0
C1068 C 0.4473 0.63717 0.54964 0.0
C1069 C 0.46628 0.63485 0.48446 0.0
C1070 C 0.44207 0.64993 0.35175 0.0
C1071 C 0.42539 0.65692 0.42122 0.0
N1072 N 0.41269 0.65839 0.59006 0.0
N1073 N 0.48218 0.64215 0.3228 0.0
C1074 C 0.42795 0.65064 0.52119 0.0
C1075 C 0.46374 0.64172 0.38476 0.0
N1076 N 0.44748 0.62599 0.63776 0.0
N1077 N 0.4371 0.65102 0.25396 0.0
H1078 H 0.49872 0.63767 0.34402 0.0
H1079 H 0.48152 0.64932 0.25286 0.0
H1080 H 0.42107 0.65644 0.22798 0.0
H1081 H 0.44784 0.64418 0.19998 0.0
H1082 H 0.43325 0.62544 0.68429 0.0
H1083 H 0.46088 0.6151 0.6592 0.0
H1084 H 0.41548 0.65672 0.66518 0.0
H1085 H 0.39805 0.66797 0.573 0.0
C1086 C 0.66415 0.16192 0.58043 0.0
C1087 C 0.67467 0.16711 0.67224 0.0
C1088 C 0.66307 0.12922 0.73416 0.0
C1089 C 0.64862 0.12661 0.65146 0.0
N1090 N 0.64754 0.13213 0.4773 0.0
N1091 N 0.68833 0.15404 0.82954 0.0
C1092 C 0.65282 0.14038 0.56814 0.0
C1093 C 0.67575 0.15 0.74649 0.0
N1094 N 0.66371 0.17789 0.50715 0.0
N1095 N 0.66526 0.1112 0.79752 0.0
H1096 H 0.69919 0.16828 0.83686 0.0
H1097 H 0.6879 0.14362 0.89147 0.0
H1098 H 0.65765 0.09529 0.78224 0.0
H1099 H 0.67617 0.11103 0.858 0.0
H1100 H 0.65372 0.17608 0.44412 0.0
H1101 H 0.67238 0.19352 0.51122 0.0
H1102 H 0.65152 0.14076 0.41261 0.0
H1103 H 0.64252 0.11506 0.46682 0.0
C1104 C 0.01599 0.29944 0.91133 0.0
C1105 C 0.017 0.31426 0.99394 0.0
C1106 C 0.98532 0.29293 0.07083 0.0
C1107 C 0.98202 0.28061 0.982 0.0
N1108 N 0.99313 0.27285 0.81461 0.0
N1109 N 0.00251 0.32601 0.15189 0.0
C1110 C 0.99727 0.2838 0.90175 0.0
C1111 C 0.00181 0.31107 0.07429 0.0
N1112 N 0.03304 0.30034 0.84226 0.0
N1113 N 0.97281 0.28705 0.15189 0.0
H1114 H 0.01482 0.33903 0.15818 0.0
H1115 H 0.99019 0.32638 0.20729 0.0
H1116 H 0.96065 0.2738 0.1513 0.0
H1117 H 0.97581 0.29384 0.22143 0.0
H1118 H 0.03462 0.28848 0.78527 0.0
H1119 H 0.04689 0.31175 0.84703 0.0
H1120 H 0.00192 0.27658 0.75005 0.0
H1121 H 0.97978 0.26107 0.80467 0.0
C1122 C 0.49511 0.16469 0.56649 0.0
C1123 C 0.5186 0.17168 0.56589 0.0
C1124 C 0.50592 0.21114 0.60194 0.0
C1125 C 0.48253 0.20462 0.5871 0.0
N1126 N 0.4566 0.17589 0.52078 0.0
N1127 N 0.54532 0.20358 0.55429 0.0
C1128 C 0.47765 0.18162 0.5582 0.0
C1129 C 0.52375 0.19555 0.57464 0.0
N1130 N 0.48917 0.14219 0.58106 0.0
N1131 N 0.51134 0.23146 0.64696 0.0
H1132 H 0.55845 0.19298 0.52781 0.0
H1133 H 0.54922 0.22112 0.55279 0.0
H1134 H 0.49898 0.24258 0.67595 0.0
H1135 H 0.5282 0.23583 0.66578 0.0
H1136 H 0.47208 0.13694 0.58871 0.0
H1137 H 0.50115 0.12943 0.59829 0.0
H1138 H 0.45305 0.15952 0.49283 0.0
H1139 H 0.44382 0.18812 0.5069 0.0
C1140 C 0.62375 0.70272 0.52097 0.0
C1141 C 0.63244 0.71105 0.43059 0.0
C1142 C 0.60715 0.68451 0.34002 0.0
C1143 C 0.59786 0.6768 0.43029 0.0
N1144 N 0.59471 0.68031 0.60607 0.0
N1145 N 0.63065 0.71249 0.2539 0.0
C1146 C 0.60539 0.68646 0.52066 0.0
C1147 C 0.62357 0.70273 0.33998 0.0
N1148 N 0.63343 0.71004 0.60704 0.0
N1149 N 0.60062 0.67401 0.25452 0.0
H1150 H 0.64322 0.72525 0.25035 0.0
H1151 H 0.62305 0.70916 0.18626 0.0
H1152 H 0.58789 0.66135 0.25131 0.0
H1153 H 0.60865 0.67675 0.18738 0.0
H1154 H 0.62998 0.70268 0.67495 0.0
H1155 H 0.64608 0.72279 0.6103 0.0
H1156 H 0.59745 0.68853 0.67293 0.0
H1157 H 0.58182 0.66787 0.60945 0.0
C1158 C 0.12727 0.83828 0.1345 0.0
C1159 C 0.1036 0.83238 0.12731 0.0
C1160 C 0.11323 0.79158 0.14976 0.0
C1161 C 0.137 0.79729 0.14821 0.0
N1162 N 0.16683 0.82542 0.11949 0.0
N1163 N 0.07427 0.80322 0.1091 0.0
C1164 C 0.14409 0.82048 0.13489 0.0
C1165 C 0.09663 0.80894 0.12941 0.0
N1166 N 0.13364 0.86084 0.14469 0.0
N1167 N 0.10646 0.76976 0.17413 0.0
H1168 H 0.06165 0.81546 0.09299 0.0
H1169 H 0.06871 0.78631 0.09938 0.0
H1170 H 0.11809 0.75658 0.19026 0.0
H1171 H 0.08936 0.76524 0.18681 0.0
H1172 H 0.15041 0.86596 0.16098 0.0
H1173 H 0.12183 0.8744 0.14558 0.0
H1174 H 0.1727 0.84168 0.09901 0.0
H1175 H 0.17966 0.81282 0.11823 0.0
C1176 C 0.99076 0.69768 0.12586 0.0
C1177 C 0.97892 0.7066 0.04314 0.0
C1178 C 0.00298 0.68307 0.93368 0.0
C1179 C 0.01315 0.67247 1.01685 0.0
N1180 N 0.01531 0.66763 0.19221 0.0
N1181 N 0.97204 0.70686 0.86898 0.0
C1182 C 0.00675 0.67931 0.11308 0.0
C1183 C 0.98463 0.69911 0.94704 0.0
N1184 N 0.98694 0.70704 0.21653 0.0
N1185 N 0.01123 0.67809 0.84215 0.0
H1186 H 0.95899 0.71913 0.87585 0.0
H1187 H 0.97349 0.70016 0.79841 0.0
H1188 H 0.02445 0.66623 0.82988 0.0
H1189 H 0.00627 0.68688 0.77912 0.0
H1190 H 0.99679 0.70313 0.27809 0.0
H1191 H 0.97503 0.7202 0.22906 0.0
H1192 H 0.00931 0.66989 0.26349 0.0
H1193 H 0.02736 0.65436 0.18612 0.0
C1194 C 0.11135 0.2116 0.9418 0.0
C1195 C 0.13391 0.20672 0.9767 0.0
C1196 C 0.12149 0.16788 0.02229 0.0
C1197 C 0.09843 0.17354 0.99686 0.0
N1198 N 0.07068 0.20314 0.95693 0.0
N1199 N 0.15838 0.1825 0.07612 0.0
C1200 C 0.09311 0.19617 0.9643 0.0
C1201 C 0.13831 0.18558 0.02538 0.0
N1202 N 0.10745 0.23022 0.88284 0.0
N1203 N 0.12777 0.14548 0.03803 0.0
H1204 H 0.17076 0.19543 0.08312 0.0
H1205 H 0.16147 0.16812 0.11991 0.0
H1206 H 0.1164 0.13169 0.03074 0.0
H1207 H 0.14486 0.14041 0.04759 0.0
H1208 H 0.09174 0.23312 0.84787 0.0
H1209 H 0.12043 0.24146 0.86069 0.0
H1210 H 0.06599 0.22013 0.94209 0.0
H1211 H 0.05685 0.19258 0.97594 0.0
C1212 C 0.62031 0.30024 0.47118 0.0
C1213 C 0.63255 0.29719 0.5603 0.0
C1214 C 0.61136 0.32936 0.63463 0.0
C1215 C 0.59779 0.33117 0.54849 0.0
N1216 N 0.58699 0.31675 0.38926 0.0
N1217 N 0.637 0.30586 0.73243 0.0
C1218 C 0.60161 0.31616 0.46782 0.0
C1219 C 0.62731 0.31093 0.64364 0.0
N1220 N 0.62698 0.28838 0.38926 0.0
N1221 N 0.60953 0.34569 0.70671 0.0
H1222 H 0.64878 0.29251 0.74231 0.0
H1223 H 0.63186 0.31352 0.79799 0.0
H1224 H 0.59799 0.35946 0.70332 0.0
H1225 H 0.62081 0.34679 0.76594 0.0
H1226 H 0.62041 0.29156 0.31957 0.0
H1227 H 0.64041 0.2764 0.38962 0.0
H1228 H 0.58727 0.30467 0.33275 0.0
H1229 H 0.57335 0.32842 0.38399 0.0
C1230 C 0.51082 0.8026 0.46735 0.0
C1231 C 0.50996 0.82308 0.41074 0.0
C1232 C 0.46971 0.8149 0.37134 0.0
C1233 C 0.47237 0.79207 0.40682 0.0
N1234 N 0.48767 0.77466 0.5531 0.0
N1235 N 0.48848 0.84832 0.30363 0.0
C1236 C 0.4909 0.78839 0.4732 0.0
C1237 C 0.48938 0.82907 0.36093 0.0
N1238 N 0.53045 0.7968 0.51671 0.0
N1239 N 0.44829 0.8245 0.36574 0.0
H1240 H 0.50263 0.85914 0.29328 0.0
H1241 H 0.47426 0.8522 0.25988 0.0
H1242 H 0.43379 0.81602 0.39303 0.0
H1243 H 0.44555 0.84181 0.34878 0.0
H1244 H 0.53261 0.78086 0.55069 0.0
H1245 H 0.54512 0.80717 0.51753 0.0
H1246 H 0.49978 0.77289 0.60901 0.0
H1247 H 0.47145 0.76807 0.57063 0.0
loop_
_geom_bond_atom_site_label_1
_geom_bond_atom_site_label_2
_geom_bond_distance
_geom_bond_site_symmetry_2
_ccdc_geom_bond_type
C0 C1 1.351 . S
C0 N3 1.368 . S
C0 H5 0.931 . S
C1 C0 1.351 . S
C1 N2 1.373 . S
C1 H29 0.930 . S
N2 C1 1.373 . S
N2 C4 1.340 . S
N3 C0 1.368 . S
N3 C4 1.321 . S
N3 Co6 2.135 . S
C4 N2 1.340 . S
C4 N3 1.321 . S
C4 H28 0.930 . S
H5 C0 0.931 . S
Co6 N3 2.135 . S
Co6 N9 2.121 1_554 S
Co6 O14 2.055 . S
Co6 O17 2.039 . S
Co6 N20 2.140 . S
C7 O8 1.227 . S
C7 O17 1.265 . S
O8 C7 1.227 . S
N9 Co6 2.121 1_556 S
N9 C11 1.375 . S
N9 C12 1.313 . S
C10 C11 1.338 . S
C10 N13 1.377 . S
C10 H30 0.930 . S
C11 N9 1.375 . S
C11 C10 1.338 . S
C11 H15 0.931 . S
C12 N9 1.313 . S
C12 N13 1.344 . S
C12 H16 0.930 . S
N13 C10 1.377 . S
N13 C12 1.344 . S
O14 Co6 2.055 . S
O14 C18 1.253 . S
H15 C11 0.931 . S
H16 C12 0.930 . S
O17 Co6 2.039 . S
O17 C7 1.265 . S
C18 O14 1.253 . S
C18 O19 1.227 . S
O19 C18 1.227 . S
N20 Co6 2.140 . S
N20 C23 1.346 . S
N20 C24 1.345 . S
C21 C22 1.387 . S
C21 C25 1.391 . S
C22 C21 1.387 . S
C22 C23 1.369 . S
C22 H31 0.929 . S
C23 N20 1.346 . S
C23 C22 1.369 . S
C23 H26 0.928 . S
C24 N20 1.345 . S
C24 C25 1.371 . S
C24 H27 0.931 1_554 S
C25 C21 1.391 . S
C25 C24 1.371 . S
C25 H32 0.930 1_554 S
H26 C23 0.928 . S
H27 C24 0.931 1_556 S
H28 C4 0.930 . S
H29 C1 0.930 . S
H30 C10 0.930 . S
H31 C22 0.929 . S
H32 C25 0.930 1_556 S
C33 C34 1.351 . S
C33 N36 1.368 . S
C33 H38 0.931 . S
C34 C33 1.351 . S
C34 N35 1.373 . S
C34 H62 0.930 . S
N35 C34 1.373 . S
N35 C37 1.340 . S
N36 C33 1.368 . S
N36 C37 1.321 . S
N36 Co39 2.135 . S
C37 N35 1.340 . S
C37 N36 1.321 . S
C37 H61 0.930 . S
H38 C33 0.931 . S
Co39 N36 2.135 . S
Co39 N42 2.121 . S
Co39 O47 2.055 . S
Co39 O50 2.039 . S
Co39 N53 2.140 . S
C40 O41 1.227 . S
C40 O50 1.265 . S
O41 C40 1.227 . S
N42 Co39 2.121 . S
N42 C44 1.375 . S
N42 C45 1.313 . S
C43 C44 1.338 . S
C43 N46 1.377 . S
C43 H63 0.930 . S
C44 N42 1.375 . S
C44 C43 1.338 . S
C44 H48 0.931 . S
C45 N42 1.313 . S
C45 N46 1.344 . S
C45 H49 0.930 . S
N46 C43 1.377 . S
N46 C45 1.344 . S
O47 Co39 2.055 . S
O47 C51 1.253 . S
H48 C44 0.931 . S
H49 C45 0.930 . S
O50 Co39 2.039 . S
O50 C40 1.265 . S
C51 O47 1.253 . S
C51 O52 1.227 . S
O52 C51 1.227 . S
N53 Co39 2.140 . S
N53 C56 1.346 . S
N53 C57 1.345 . S
C54 C55 1.387 . S
C54 C58 1.391 . S
C55 C54 1.387 . S
C55 C56 1.369 . S
C55 H64 0.929 . S
C56 N53 1.346 . S
C56 C55 1.369 . S
C56 H59 0.928 . S
C57 N53 1.345 . S
C57 C58 1.371 . S
C57 H60 0.931 . S
C58 C54 1.391 . S
C58 C57 1.371 . S
C58 H65 0.930 . S
H59 C56 0.928 . S
H60 C57 0.931 . S
H61 C37 0.930 . S
H62 C34 0.930 . S
H63 C43 0.930 . S
H64 C55 0.929 . S
H65 C58 0.930 . S
C66 C67 1.351 . S
C66 N69 1.368 . S
C66 H71 0.931 . S
C67 C66 1.351 . S
C67 N68 1.373 . S
C67 H95 0.930 . S
N68 C67 1.373 . S
N68 C70 1.340 . S
N69 C66 1.368 . S
N69 C70 1.321 . S
N69 Co72 2.135 . S
C70 N68 1.340 . S
C70 N69 1.321 . S
C70 H94 0.930 . S
H71 C66 0.931 . S
Co72 N69 2.135 . S
Co72 N75 2.121 . S
Co72 O80 2.055 . S
Co72 O83 2.039 . S
Co72 N86 2.140 . S
C73 O74 1.227 . S
C73 O83 1.265 . S
O74 C73 1.227 . S
N75 Co72 2.121 . S
N75 C77 1.375 . S
N75 C78 1.313 . S
C76 C77 1.338 . S
C76 N79 1.377 . S
C76 H96 0.930 . S
C77 N75 1.375 . S
C77 C76 1.338 . S
C77 H81 0.931 . S
C78 N75 1.313 . S
C78 N79 1.344 . S
C78 H82 0.930 . S
N79 C76 1.377 . S
N79 C78 1.344 . S
O80 Co72 2.055 . S
O80 C84 1.253 . S
H81 C77 0.931 . S
H82 C78 0.930 . S
O83 Co72 2.039 . S
O83 C73 1.265 . S
C84 O80 1.253 . S
C84 O85 1.227 . S
O85 C84 1.227 . S
N86 Co72 2.140 . S
N86 C89 1.346 . S
N86 C90 1.345 . S
C87 C88 1.387 . S
C87 C91 1.391 . S
C88 C87 1.387 . S
C88 C89 1.369 . S
C88 H97 0.929 . S
C89 N86 1.346 . S
C89 C88 1.369 . S
C89 H92 0.928 . S
C90 N86 1.345 . S
C90 C91 1.371 . S
C90 H93 0.931 . S
C91 C87 1.391 . S
C91 C90 1.371 . S
C91 H98 0.930 . S
H92 C89 0.928 . S
H93 C90 0.931 . S
H94 C70 0.930 . S
H95 C67 0.930 . S
H96 C76 0.930 . S
H97 C88 0.929 . S
H98 C91 0.930 . S
C99 C100 1.351 . S
C99 N102 1.368 1_554 S
C99 H104 0.931 1_554 S
C100 C99 1.351 . S
C100 N101 1.373 . S
C100 H128 0.930 . S
N101 C100 1.373 . S
N101 C103 1.340 . S
N102 C99 1.368 1_556 S
N102 C103 1.321 1_556 S
N102 Co105 2.135 . S
C103 N101 1.340 . S
C103 N102 1.321 1_554 S
C103 H127 0.930 . S
H104 C99 0.931 1_556 S
Co105 N102 2.135 . S
Co105 N108 2.121 . S
Co105 O113 2.055 . S
Co105 O116 2.039 . S
Co105 N119 2.140 . S
C106 O107 1.227 . S
C106 O116 1.265 . S
O107 C106 1.227 . S
N108 Co105 2.121 . S
N108 C110 1.375 . S
N108 C111 1.313 . S
C109 C110 1.338 . S
C109 N112 1.377 . S
C109 H129 0.930 . S
C110 N108 1.375 . S
C110 C109 1.338 . S
C110 H114 0.931 . S
C111 N108 1.313 . S
C111 N112 1.344 . S
C111 H115 0.930 . S
N112 C109 1.377 . S
N112 C111 1.344 . S
O113 Co105 2.055 . S
O113 C117 1.253 . S
H114 C110 0.931 . S
H115 C111 0.930 . S
O116 Co105 2.039 . S
O116 C106 1.265 . S
C117 O113 1.253 . S
C117 O118 1.227 . S
O118 C117 1.227 . S
N119 Co105 2.140 . S
N119 C122 1.346 . S
N119 C123 1.345 . S
C120 C121 1.387 . S
C120 C124 1.391 . S
C121 C120 1.387 . S
C121 C122 1.369 . S
C121 H130 0.929 . S
C122 N119 1.346 . S
C122 C121 1.369 . S
C122 H125 0.928 . S
C123 N119 1.345 . S
C123 C124 1.371 . S
C123 H126 0.931 . S
C124 C120 1.391 . S
C124 C123 1.371 . S
C124 H131 0.930 . S
H125 C122 0.928 . S
H126 C123 0.931 . S
H127 C103 0.930 . S
H128 C100 0.930 . S
H129 C109 0.930 . S
H130 C121 0.929 . S
H131 C124 0.930 . S
C132 C133 1.351 . S
C132 N135 1.368 . S
C132 H137 0.931 . S
C133 C132 1.351 . S
C133 N134 1.373 . S
C133 H161 0.930 . S
N134 C133 1.373 . S
N134 C136 1.340 . S
N135 C132 1.368 . S
N135 C136 1.321 . S
N135 Co138 2.135 . S
C136 N134 1.340 . S
C136 N135 1.321 . S
C136 H160 0.930 . S
H137 C132 0.931 . S
Co138 N135 2.135 . S
Co138 N141 2.121 1_556 S
Co138 O146 2.055 . S
Co138 O149 2.039 . S
Co138 N152 2.140 . S
C139 O140 1.227 . S
C139 O149 1.265 . S
O140 C139 1.227 . S
N141 Co138 2.121 1_554 S
N141 C143 1.375 . S
N141 C144 1.313 . S
C142 C143 1.338 . S
C142 N145 1.377 . S
C142 H162 0.930 . S
C143 N141 1.375 . S
C143 C142 1.338 . S
C143 H147 0.931 . S
C144 N141 1.313 . S
C144 N145 1.344 . S
C144 H148 0.930 . S
N145 C142 1.377 . S
N145 C144 1.344 . S
O146 Co138 2.055 . S
O146 C150 1.253 . S
H147 C143 0.931 . S
H148 C144 0.930 . S
O149 Co138 2.039 . S
O149 C139 1.265 . S
C150 O146 1.253 . S
C150 O151 1.227 . S
O151 C150 1.227 . S
N152 Co138 2.140 . S
N152 C155 1.346 . S
N152 C156 1.345 . S
C153 C154 1.387 . S
C153 C157 1.391 . S
C154 C153 1.387 . S
C154 C155 1.369 . S
C154 H163 0.929 . S
C155 N152 1.346 . S
C155 C154 1.369 . S
C155 H158 0.928 . S
C156 N152 1.345 . S
C156 C157 1.371 . S
C156 H159 0.931 1_556 S
C157 C153 1.391 . S
C157 C156 1.371 . S
C157 H164 0.930 1_556 S
H158 C155 0.928 . S
H159 C156 0.931 1_554 S
H160 C136 0.930 . S
H161 C133 0.930 . S
H162 C142 0.930 . S
H163 C154 0.929 . S
H164 C157 0.930 1_554 S
C165 C166 1.351 . S
C165 N168 1.368 1_556 S
C165 H170 0.931 1_556 S
C166 C165 1.351 . S
C166 N167 1.373 . S
C166 H194 0.930 . S
N167 C166 1.373 . S
N167 C169 1.340 . S
N168 C165 1.368 1_554 S
N168 C169 1.321 1_554 S
N168 Co171 2.135 . S
C169 N167 1.340 . S
C169 N168 1.321 1_556 S
C169 H193 0.930 . S
H170 C165 0.931 1_554 S
Co171 N168 2.135 . S
Co171 N174 2.121 . S
Co171 O179 2.055 . S
Co171 O182 2.039 . S
Co171 N185 2.140 . S
C172 O173 1.227 . S
C172 O182 1.265 . S
O173 C172 1.227 . S
N174 Co171 2.121 . S
N174 C176 1.375 . S
N174 C177 1.313 . S
C175 C176 1.338 . S
C175 N178 1.377 . S
C175 H195 0.930 . S
C176 N174 1.375 . S
C176 C175 1.338 . S
C176 H180 0.931 . S
C177 N174 1.313 . S
C177 N178 1.344 . S
C177 H181 0.930 . S
N178 C175 1.377 . S
N178 C177 1.344 . S
O179 Co171 2.055 . S
O179 C183 1.253 . S
H180 C176 0.931 . S
H181 C177 0.930 . S
O182 Co171 2.039 . S
O182 C172 1.265 . S
C183 O179 1.253 . S
C183 O184 1.227 . S
O184 C183 1.227 . S
N185 Co171 2.140 . S
N185 C188 1.346 . S
N185 C189 1.345 . S
C186 C187 1.387 . S
C186 C190 1.391 . S
C187 C186 1.387 . S
C187 C188 1.369 . S
C187 H196 0.929 . S
C188 N185 1.346 . S
C188 C187 1.369 . S
C188 H191 0.928 . S
C189 N185 1.345 . S
C189 C190 1.371 . S
C189 H192 0.931 . S
C190 C186 1.391 . S
C190 C189 1.371 . S
C190 H197 0.930 . S
H191 C188 0.928 . S
H192 C189 0.931 . S
H193 C169 0.930 . S
H194 C166 0.930 . S
H195 C175 0.930 . S
H196 C187 0.929 . S
H197 C190 0.930 . S
C198 C199 1.351 . S
C198 N201 1.368 . S
C198 H203 0.931 . S
C199 C198 1.351 . S
C199 N200 1.373 . S
C199 H227 0.930 . S
N200 C199 1.373 . S
N200 C202 1.340 . S
N201 C198 1.368 . S
N201 C202 1.321 . S
N201 Co204 2.135 . S
C202 N200 1.340 . S
C202 N201 1.321 . S
C202 H226 0.930 . S
H203 C198 0.931 . S
Co204 N201 2.135 . S
Co204 N207 2.121 . S
Co204 O212 2.055 . S
Co204 O215 2.039 . S
Co204 N218 2.140 . S
C205 O206 1.227 . S
C205 O215 1.265 . S
O206 C205 1.227 . S
N207 Co204 2.121 . S
N207 C209 1.375 . S
N207 C210 1.313 . S
C208 C209 1.338 . S
C208 N211 1.377 . S
C208 H228 0.930 . S
C209 N207 1.375 . S
C209 C208 1.338 . S
C209 H213 0.931 . S
C210 N207 1.313 . S
C210 N211 1.344 . S
C210 H214 0.930 . S
N211 C208 1.377 . S
N211 C210 1.344 . S
O212 Co204 2.055 . S
O212 C216 1.253 . S
H213 C209 0.931 . S
H214 C210 0.930 . S
O215 Co204 2.039 . S
O215 C205 1.265 . S
C216 O212 1.253 . S
C216 O217 1.227 . S
O217 C216 1.227 . S
N218 Co204 2.140 . S
N218 C221 1.346 . S
N218 C222 1.345 . S
C219 C220 1.387 . S
C219 C223 1.391 . S
C220 C219 1.387 . S
C220 C221 1.369 . S
C220 H229 0.929 . S
C221 N218 1.346 . S
C221 C220 1.369 . S
C221 H224 0.928 . S
C222 N218 1.345 . S
C222 C223 1.371 . S
C222 H225 0.931 . S
C223 C219 1.391 . S
C223 C222 1.371 . S
C223 H230 0.930 . S
H224 C221 0.928 . S
H225 C222 0.931 . S
H226 C202 0.930 . S
H227 C199 0.930 . S
H228 C208 0.930 . S
H229 C220 0.929 . S
H230 C223 0.930 . S
C231 C232 1.351 . S
C231 N234 1.368 . S
C231 H236 0.931 . S
C232 C231 1.351 . S
C232 N233 1.373 . S
C232 H260 0.930 . S
N233 C232 1.373 . S
N233 C235 1.340 . S
N234 C231 1.368 . S
N234 C235 1.321 . S
N234 Co237 2.135 . S
C235 N233 1.340 . S
C235 N234 1.321 . S
C235 H259 0.930 . S
H236 C231 0.931 . S
Co237 N234 2.135 . S
Co237 N240 2.121 . S
Co237 O245 2.055 . S
Co237 O248 2.039 . S
Co237 N251 2.140 . S
C238 O239 1.227 . S
C238 O248 1.265 . S
O239 C238 1.227 . S
N240 Co237 2.121 . S
N240 C242 1.375 . S
N240 C243 1.313 . S
C241 C242 1.338 . S
C241 N244 1.377 . S
C241 H261 0.930 . S
C242 N240 1.375 . S
C242 C241 1.338 . S
C242 H246 0.931 . S
C243 N240 1.313 . S
C243 N244 1.344 . S
C243 H247 0.930 . S
N244 C241 1.377 . S
N244 C243 1.344 . S
O245 Co237 2.055 . S
O245 C249 1.253 . S
H246 C242 0.931 . S
H247 C243 0.930 . S
O248 Co237 2.039 . S
O248 C238 1.265 . S
C249 O245 1.253 . S
C249 O250 1.227 . S
O250 C249 1.227 . S
N251 Co237 2.140 . S
N251 C254 1.346 . S
N251 C255 1.345 . S
C252 C253 1.387 . S
C252 C256 1.391 . S
C253 C252 1.387 . S
C253 C254 1.369 . S
C253 H262 0.929 . S
C254 N251 1.346 . S
C254 C253 1.369 . S
C254 H257 0.928 . S
C255 N251 1.345 . S
C255 C256 1.371 . S
C255 H258 0.931 . S
C256 C252 1.391 . S
C256 C255 1.371 . S
C256 H263 0.930 . S
H257 C254 0.928 . S
H258 C255 0.931 . S
H259 C235 0.930 . S
H260 C232 0.930 . S
H261 C241 0.930 . S
H262 C253 0.929 . S
H263 C256 0.930 . S
C264 C265 1.351 . S
C264 N267 1.368 . S
C264 H269 0.931 . S
C265 C264 1.351 . S
C265 N266 1.373 . S
C265 H293 0.930 . S
N266 C265 1.373 . S
N266 C268 1.340 . S
N267 C264 1.368 . S
N267 C268 1.321 . S
N267 Co270 2.135 . S
C268 N266 1.340 . S
C268 N267 1.321 . S
C268 H292 0.930 . S
H269 C264 0.931 . S
Co270 N267 2.135 . S
Co270 N273 2.121 . S
Co270 O278 2.055 . S
Co270 O281 2.039 . S
Co270 N284 2.140 . S
C271 O272 1.227 . S
C271 O281 1.265 . S
O272 C271 1.227 . S
N273 Co270 2.121 . S
N273 C275 1.375 . S
N273 C276 1.313 . S
C274 C275 1.338 . S
C274 N277 1.377 . S
C274 H294 0.930 . S
C275 N273 1.375 . S
C275 C274 1.338 . S
C275 H279 0.931 . S
C276 N273 1.313 . S
C276 N277 1.344 . S
C276 H280 0.930 . S
N277 C274 1.377 . S
N277 C276 1.344 . S
O278 Co270 2.055 . S
O278 C282 1.253 . S
H279 C275 0.931 . S
H280 C276 0.930 . S
O281 Co270 2.039 . S
O281 C271 1.265 . S
C282 O278 1.253 . S
C282 O283 1.227 . S
O283 C282 1.227 . S
N284 Co270 2.140 . S
N284 C287 1.346 . S
N284 C288 1.345 . S
C285 C286 1.387 . S
C285 C289 1.391 . S
C286 C285 1.387 . S
C286 C287 1.369 . S
C286 H295 0.929 . S
C287 N284 1.346 . S
C287 C286 1.369 . S
C287 H290 0.928 . S
C288 N284 1.345 . S
C288 C289 1.371 . S
C288 H291 0.931 . S
C289 C285 1.391 . S
C289 C288 1.371 . S
C289 H296 0.930 . S
H290 C287 0.928 . S
H291 C288 0.931 . S
H292 C268 0.930 . S
H293 C265 0.930 . S
H294 C274 0.930 . S
H295 C286 0.929 . S
H296 C289 0.930 . S
C297 C298 1.351 . S
C297 N300 1.368 1_556 S
C297 H302 0.931 1_556 S
C298 C297 1.351 . S
C298 N299 1.373 . S
C298 H326 0.930 . S
N299 C298 1.373 . S
N299 C301 1.340 . S
N300 C297 1.368 1_554 S
N300 C301 1.321 1_554 S
N300 Co303 2.135 . S
C301 N299 1.340 . S
C301 N300 1.321 1_556 S
C301 H325 0.930 . S
H302 C297 0.931 1_554 S
Co303 N300 2.135 . S
Co303 N306 2.121 . S
Co303 O311 2.055 . S
Co303 O314 2.039 . S
Co303 N317 2.140 . S
C304 O305 1.227 . S
C304 O314 1.265 . S
O305 C304 1.227 . S
N306 Co303 2.121 . S
N306 C308 1.375 . S
N306 C309 1.313 . S
C307 C308 1.338 . S
C307 N310 1.377 . S
C307 H327 0.930 . S
C308 N306 1.375 . S
C308 C307 1.338 . S
C308 H312 0.931 . S
C309 N306 1.313 . S
C309 N310 1.344 . S
C309 H313 0.930 . S
N310 C307 1.377 . S
N310 C309 1.344 . S
O311 Co303 2.055 . S
O311 C315 1.253 . S
H312 C308 0.931 . S
H313 C309 0.930 . S
O314 Co303 2.039 . S
O314 C304 1.265 . S
C315 O311 1.253 . S
C315 O316 1.227 . S
O316 C315 1.227 . S
N317 Co303 2.140 . S
N317 C320 1.346 . S
N317 C321 1.345 . S
C318 C319 1.387 . S
C318 C322 1.391 . S
C319 C318 1.387 . S
C319 C320 1.369 . S
C319 H328 0.929 . S
C320 N317 1.346 . S
C320 C319 1.369 . S
C320 H323 0.928 . S
C321 N317 1.345 . S
C321 C322 1.371 . S
C321 H324 0.931 . S
C322 C318 1.391 . S
C322 C321 1.371 . S
C322 H329 0.930 . S
H323 C320 0.928 . S
H324 C321 0.931 . S
H325 C301 0.930 . S
H326 C298 0.930 . S
H327 C307 0.930 . S
H328 C319 0.929 . S
H329 C322 0.930 . S
C330 C331 1.351 . S
C330 N333 1.368 1_554 S
C330 H335 0.931 1_554 S
C331 C330 1.351 . S
C331 N332 1.373 . S
C331 H359 0.930 . S
N332 C331 1.373 . S
N332 C334 1.340 . S
N333 C330 1.368 1_556 S
N333 C334 1.321 1_556 S
N333 Co336 2.135 . S
C334 N332 1.340 . S
C334 N333 1.321 1_554 S
C334 H358 0.930 . S
H335 C330 0.931 1_556 S
Co336 N333 2.135 . S
Co336 N339 2.121 . S
Co336 O344 2.055 . S
Co336 O347 2.039 . S
Co336 N350 2.140 . S
C337 O338 1.227 . S
C337 O347 1.265 . S
O338 C337 1.227 . S
N339 Co336 2.121 . S
N339 C341 1.375 . S
N339 C342 1.313 . S
C340 C341 1.338 . S
C340 N343 1.377 . S
C340 H360 0.930 . S
C341 N339 1.375 . S
C341 C340 1.338 . S
C341 H345 0.931 . S
C342 N339 1.313 . S
C342 N343 1.344 . S
C342 H346 0.930 . S
N343 C340 1.377 . S
N343 C342 1.344 . S
O344 Co336 2.055 . S
O344 C348 1.253 . S
H345 C341 0.931 . S
H346 C342 0.930 . S
O347 Co336 2.039 . S
O347 C337 1.265 . S
C348 O344 1.253 . S
C348 O349 1.227 . S
O349 C348 1.227 . S
N350 Co336 2.140 . S
N350 C353 1.346 . S
N350 C354 1.345 . S
C351 C352 1.387 . S
C351 C355 1.391 . S
C352 C351 1.387 . S
C352 C353 1.369 . S
C352 H361 0.929 . S
C353 N350 1.346 . S
C353 C352 1.369 . S
C353 H356 0.928 . S
C354 N350 1.345 . S
C354 C355 1.371 . S
C354 H357 0.931 . S
C355 C351 1.391 . S
C355 C354 1.371 . S
C355 H362 0.930 . S
H356 C353 0.928 . S
H357 C354 0.931 . S
H358 C334 0.930 . S
H359 C331 0.930 . S
H360 C340 0.930 . S
H361 C352 0.929 . S
H362 C355 0.930 . S
C363 C364 1.351 . S
C363 N366 1.368 . S
C363 H368 0.931 . S
C364 C363 1.351 . S
C364 N365 1.373 . S
C364 H392 0.930 . S
N365 C364 1.373 . S
N365 C367 1.340 . S
N366 C363 1.368 . S
N366 C367 1.321 . S
N366 Co369 2.135 . S
C367 N365 1.340 . S
C367 N366 1.321 . S
C367 H391 0.930 . S
H368 C363 0.931 . S
Co369 N366 2.135 . S
Co369 N372 2.121 . S
Co369 O377 2.055 . S
Co369 O380 2.039 . S
Co369 N383 2.140 . S
C370 O371 1.227 . S
C370 O380 1.265 . S
O371 C370 1.227 . S
N372 Co369 2.121 . S
N372 C374 1.375 . S
N372 C375 1.313 . S
C373 C374 1.338 . S
C373 N376 1.377 . S
C373 H393 0.930 . S
C374 N372 1.375 . S
C374 C373 1.338 . S
C374 H378 0.931 . S
C375 N372 1.313 . S
C375 N376 1.344 . S
C375 H379 0.930 . S
N376 C373 1.377 . S
N376 C375 1.344 . S
O377 Co369 2.055 . S
O377 C381 1.253 . S
H378 C374 0.931 . S
H379 C375 0.930 . S
O380 Co369 2.039 . S
O380 C370 1.265 . S
C381 O377 1.253 . S
C381 O382 1.227 . S
O382 C381 1.227 . S
N383 Co369 2.140 . S
N383 C386 1.346 . S
N383 C387 1.345 . S
C384 C385 1.387 . S
C384 C388 1.391 . S
C385 C384 1.387 . S
C385 C386 1.369 . S
C385 H394 0.929 . S
C386 N383 1.346 . S
C386 C385 1.369 . S
C386 H389 0.928 . S
C387 N383 1.345 . S
C387 C388 1.371 . S
C387 H390 0.931 . S
C388 C384 1.391 . S
C388 C387 1.371 . S
C388 H395 0.930 . S
H389 C386 0.928 . S
H390 C387 0.931 . S
H391 C367 0.930 . S
H392 C364 0.930 . S
H393 C373 0.930 . S
H394 C385 0.929 . S
H395 C388 0.930 . S
C396 C397 1.351 . S
C396 N399 1.368 . S
C396 H401 0.931 . S
C397 C396 1.351 . S
C397 N398 1.373 . S
C397 H425 0.930 . S
N398 C397 1.373 . S
N398 C400 1.340 . S
N399 C396 1.368 . S
N399 C400 1.321 . S
N399 Co402 2.135 . S
C400 N398 1.340 . S
C400 N399 1.321 . S
C400 H424 0.930 . S
H401 C396 0.931 . S
Co402 N399 2.135 . S
Co402 N405 2.121 . S
Co402 O410 2.055 . S
Co402 O413 2.039 . S
Co402 N416 2.140 . S
C403 O404 1.227 . S
C403 O413 1.265 . S
O404 C403 1.227 . S
N405 Co402 2.121 . S
N405 C407 1.375 . S
N405 C408 1.313 . S
C406 C407 1.338 . S
C406 N409 1.377 . S
C406 H426 0.930 . S
C407 N405 1.375 . S
C407 C406 1.338 . S
C407 H411 0.931 . S
C408 N405 1.313 . S
C408 N409 1.344 . S
C408 H412 0.930 . S
N409 C406 1.377 . S
N409 C408 1.344 . S
O410 Co402 2.055 . S
O410 C414 1.253 . S
H411 C407 0.931 . S
H412 C408 0.930 . S
O413 Co402 2.039 . S
O413 C403 1.265 . S
C414 O410 1.253 . S
C414 O415 1.227 . S
O415 C414 1.227 . S
N416 Co402 2.140 . S
N416 C419 1.346 . S
N416 C420 1.345 . S
C417 C418 1.387 . S
C417 C421 1.391 . S
C418 C417 1.387 . S
C418 C419 1.369 . S
C418 H427 0.929 . S
C419 N416 1.346 . S
C419 C418 1.369 . S
C419 H422 0.928 . S
C420 N416 1.345 . S
C420 C421 1.371 . S
C420 H423 0.931 . S
C421 C417 1.391 . S
C421 C420 1.371 . S
C421 H428 0.930 . S
H422 C419 0.928 . S
H423 C420 0.931 . S
H424 C400 0.930 . S
H425 C397 0.930 . S
H426 C406 0.930 . S
H427 C418 0.929 . S
H428 C421 0.930 . S
C429 C430 1.351 . S
C429 N432 1.368 . S
C429 H434 0.931 . S
C430 C429 1.351 . S
C430 N431 1.373 . S
C430 H458 0.930 . S
N431 C430 1.373 . S
N431 C433 1.340 . S
N432 C429 1.368 . S
N432 C433 1.321 . S
N432 Co435 2.135 . S
C433 N431 1.340 . S
C433 N432 1.321 . S
C433 H457 0.930 . S
H434 C429 0.931 . S
Co435 N432 2.135 . S
Co435 N438 2.121 1_554 S
Co435 O443 2.055 . S
Co435 O446 2.017 1_455 S
Co435 N449 2.140 . S
C436 O437 1.227 1_655 S
C436 O446 1.266 . S
O437 C436 1.227 1_455 S
N438 Co435 2.121 1_556 S
N438 C440 1.375 . S
N438 C441 1.313 . S
C439 C440 1.338 . S
C439 N442 1.377 . S
C439 H459 0.930 . S
C440 N438 1.375 . S
C440 C439 1.338 . S
C440 H444 0.931 . S
C441 N438 1.313 . S
C441 N442 1.344 . S
C441 H445 0.930 . S
N442 C439 1.377 . S
N442 C441 1.344 . S
O443 Co435 2.055 . S
O443 C447 1.253 . S
H444 C440 0.931 . S
H445 C441 0.930 . S
O446 Co435 2.017 1_655 S
O446 C436 1.266 . S
C447 O443 1.253 . S
C447 O448 1.227 . S
O448 C447 1.227 . S
N449 Co435 2.140 . S
N449 C452 1.346 . S
N449 C453 1.345 . S
C450 C451 1.387 . S
C450 C454 1.391 . S
C451 C450 1.387 . S
C451 C452 1.369 . S
C451 H460 0.929 . S
C452 N449 1.346 . S
C452 C451 1.369 . S
C452 H455 0.928 . S
C453 N449 1.345 . S
C453 C454 1.371 . S
C453 H456 0.931 1_554 S
C454 C450 1.391 . S
C454 C453 1.371 . S
C454 H461 0.930 1_554 S
H455 C452 0.928 . S
H456 C453 0.931 1_556 S
H457 C433 0.930 . S
H458 C430 0.930 . S
H459 C439 0.930 . S
H460 C451 0.929 . S
H461 C454 0.930 1_556 S
C462 C463 1.351 . S
C462 N465 1.368 . S
C462 H467 0.931 . S
C463 C462 1.351 . S
C463 N464 1.373 . S
C463 H491 0.930 . S
N464 C463 1.373 . S
N464 C466 1.340 . S
N465 C462 1.368 . S
N465 C466 1.321 . S
N465 Co468 2.135 . S
C466 N464 1.340 . S
C466 N465 1.321 . S
C466 H490 0.930 . S
H467 C462 0.931 . S
Co468 N465 2.135 . S
Co468 N471 2.121 . S
Co468 O476 2.055 . S
Co468 O479 2.039 . S
Co468 N482 2.140 . S
C469 O470 1.227 . S
C469 O479 1.265 . S
O470 C469 1.227 . S
N471 Co468 2.121 . S
N471 C473 1.375 . S
N471 C474 1.313 . S
C472 C473 1.338 . S
C472 N475 1.377 . S
C472 H492 0.930 . S
C473 N471 1.375 . S
C473 C472 1.338 . S
C473 H477 0.931 . S
C474 N471 1.313 . S
C474 N475 1.344 . S
C474 H478 0.930 . S
N475 C472 1.377 . S
N475 C474 1.344 . S
O476 Co468 2.055 . S
O476 C480 1.253 . S
H477 C473 0.931 . S
H478 C474 0.930 . S
O479 Co468 2.039 . S
O479 C469 1.265 . S
C480 O476 1.253 . S
C480 O481 1.227 . S
O481 C480 1.227 . S
N482 Co468 2.140 . S
N482 C485 1.346 . S
N482 C486 1.345 . S
C483 C484 1.387 . S
C483 C487 1.391 . S
C484 C483 1.387 . S
C484 C485 1.369 . S
C484 H493 0.929 . S
C485 N482 1.346 . S
C485 C484 1.369 . S
C485 H488 0.928 . S
C486 N482 1.345 . S
C486 C487 1.371 . S
C486 H489 0.931 . S
C487 C483 1.391 . S
C487 C486 1.371 . S
C487 H494 0.930 . S
H488 C485 0.928 . S
H489 C486 0.931 . S
H490 C466 0.930 . S
H491 C463 0.930 . S
H492 C472 0.930 . S
H493 C484 0.929 . S
H494 C487 0.930 . S
C495 C496 1.351 . S
C495 N498 1.368 . S
C495 H500 0.931 . S
C496 C495 1.351 . S
C496 N497 1.373 . S
C496 H524 0.930 . S
N497 C496 1.373 . S
N497 C499 1.340 . S
N498 C495 1.368 . S
N498 C499 1.321 . S
N498 Co501 2.135 . S
C499 N497 1.340 . S
C499 N498 1.321 . S
C499 H523 0.930 . S
H500 C495 0.931 . S
Co501 N498 2.135 . S
Co501 N504 2.121 1_556 S
Co501 O509 2.055 . S
Co501 O512 2.017 1_455 S
Co501 N515 2.140 . S
C502 O503 1.227 1_655 S
C502 O512 1.266 . S
O503 C502 1.227 1_455 S
N504 Co501 2.121 1_554 S
N504 C506 1.375 . S
N504 C507 1.313 . S
C505 C506 1.338 . S
C505 N508 1.377 . S
C505 H525 0.930 . S
C506 N504 1.375 . S
C506 C505 1.338 . S
C506 H510 0.931 . S
C507 N504 1.313 . S
C507 N508 1.344 . S
C507 H511 0.930 . S
N508 C505 1.377 . S
N508 C507 1.344 . S
O509 Co501 2.055 . S
O509 C513 1.253 . S
H510 C506 0.931 . S
H511 C507 0.930 . S
O512 Co501 2.017 1_655 S
O512 C502 1.266 . S
C513 O509 1.253 . S
C513 O514 1.227 . S
O514 C513 1.227 . S
N515 Co501 2.140 . S
N515 C518 1.346 . S
N515 C519 1.345 . S
C516 C517 1.387 . S
C516 C520 1.391 . S
C517 C516 1.387 . S
C517 C518 1.369 . S
C517 H526 0.929 . S
C518 N515 1.346 . S
C518 C517 1.369 . S
C518 H521 0.928 . S
C519 N515 1.345 . S
C519 C520 1.371 . S
C519 H522 0.931 1_556 S
C520 C516 1.391 . S
C520 C519 1.371 . S
C520 H527 0.930 1_556 S
H521 C518 0.928 . S
H522 C519 0.931 1_554 S
H523 C499 0.930 . S
H524 C496 0.930 . S
H525 C505 0.930 . S
H526 C517 0.929 . S
H527 C520 0.930 1_554 S
C528 C529 1.363 . S
C528 C534 1.379 . S
C528 N536 1.356 . S
C529 C528 1.363 . S
C529 C535 1.363 . S
C530 C531 1.363 . S
C530 C535 1.379 . S
C530 N537 1.356 . S
C531 C530 1.363 . S
C531 C534 1.363 . S
N532 C534 1.356 . S
N532 H544 0.984 . S
N532 H545 0.985 . S
N533 C535 1.356 . S
N533 H538 0.984 . S
N533 H539 0.985 . S
C534 C528 1.379 . S
C534 C531 1.363 . S
C534 N532 1.356 . S
C535 C529 1.363 . S
C535 C530 1.379 . S
C535 N533 1.356 . S
N536 C528 1.356 . S
N536 H542 0.984 . S
N536 H543 0.984 . S
N537 C530 1.356 . S
N537 H540 0.984 . S
N537 H541 0.985 . S
H538 N533 0.984 . S
H539 N533 0.985 . S
H540 N537 0.984 . S
H541 N537 0.985 . S
H542 N536 0.984 . S
H543 N536 0.984 . S
H544 N532 0.984 . S
H545 N532 0.985 . S
C546 C547 1.363 . S
C546 C552 1.379 . S
C546 N554 1.356 . S
C547 C546 1.363 . S
C547 C553 1.363 . S
C548 C549 1.363 . S
C548 C553 1.379 . S
C548 N555 1.356 . S
C549 C548 1.363 . S
C549 C552 1.363 . S
N550 C552 1.356 . S
N550 H562 0.984 . S
N550 H563 0.985 . S
N551 C553 1.356 . S
N551 H556 0.984 1_556 S
N551 H557 0.985 . S
C552 C546 1.379 . S
C552 C549 1.363 . S
C552 N550 1.356 . S
C553 C547 1.363 . S
C553 C548 1.379 . S
C553 N551 1.356 . S
N554 C546 1.356 . S
N554 H560 0.984 . S
N554 H561 0.984 1_556 S
N555 C548 1.356 . S
N555 H558 0.984 . S
N555 H559 0.985 . S
H556 N551 0.984 1_554 S
H557 N551 0.985 . S
H558 N555 0.984 . S
H559 N555 0.985 . S
H560 N554 0.984 . S
H561 N554 0.984 1_554 S
H562 N550 0.984 . S
H563 N550 0.985 . S
C564 C565 1.363 . S
C564 C570 1.379 . S
C564 N572 1.356 . S
C565 C564 1.363 . S
C565 C571 1.363 . S
C566 C567 1.363 1_554 S
C566 C571 1.379 . S
C566 N573 1.356 1_554 S
C567 C566 1.363 1_556 S
C567 C570 1.363 1_556 S
N568 C570 1.356 1_556 S
N568 H580 0.984 . S
N568 H581 0.985 . S
N569 C571 1.356 . S
N569 H574 0.984 . S
N569 H575 0.985 . S
C570 C564 1.379 . S
C570 C567 1.363 1_554 S
C570 N568 1.356 1_554 S
C571 C565 1.363 . S
C571 C566 1.379 . S
C571 N569 1.356 . S
N572 C564 1.356 . S
N572 H578 0.984 . S
N572 H579 0.984 . S
N573 C566 1.356 1_556 S
N573 H576 0.984 . S
N573 H577 0.985 . S
H574 N569 0.984 . S
H575 N569 0.985 . S
H576 N573 0.984 . S
H577 N573 0.985 . S
H578 N572 0.984 . S
H579 N572 0.984 . S
H580 N568 0.984 . S
H581 N568 0.985 . S
C582 C583 1.363 . S
C582 C588 1.379 . S
C582 N590 1.356 . S
C583 C582 1.363 . S
C583 C589 1.363 . S
C584 C585 1.363 . S
C584 C589 1.379 . S
C584 N591 1.356 . S
C585 C584 1.363 . S
C585 C588 1.363 . S
N586 C588 1.356 . S
N586 H598 0.984 . S
N586 H599 0.985 . S
N587 C589 1.356 . S
N587 H592 0.984 . S
N587 H593 0.985 . S
C588 C582 1.379 . S
C588 C585 1.363 . S
C588 N586 1.356 . S
C589 C583 1.363 . S
C589 C584 1.379 . S
C589 N587 1.356 . S
N590 C582 1.356 . S
N590 H596 0.984 . S
N590 H597 0.984 . S
N591 C584 1.356 . S
N591 H594 0.984 . S
N591 H595 0.985 . S
H592 N587 0.984 . S
H593 N587 0.985 . S
H594 N591 0.984 . S
H595 N591 0.985 . S
H596 N590 0.984 . S
H597 N590 0.984 . S
H598 N586 0.984 . S
H599 N586 0.985 . S
C600 C601 1.363 . S
C600 C606 1.379 . S
C600 N608 1.356 . S
C601 C600 1.363 . S
C601 C607 1.363 . S
C602 C603 1.363 . S
C602 C607 1.379 . S
C602 N609 1.356 . S
C603 C602 1.363 . S
C603 C606 1.363 . S
N604 C606 1.356 . S
N604 H616 0.984 . S
N604 H617 0.985 . S
N605 C607 1.356 . S
N605 H610 0.984 . S
N605 H611 0.985 . S
C606 C600 1.379 . S
C606 C603 1.363 . S
C606 N604 1.356 . S
C607 C601 1.363 . S
C607 C602 1.379 . S
C607 N605 1.356 . S
N608 C600 1.356 . S
N608 H614 0.984 . S
N608 H615 0.984 . S
N609 C602 1.356 . S
N609 H612 0.984 . S
N609 H613 0.985 . S
H610 N605 0.984 . S
H611 N605 0.985 . S
H612 N609 0.984 . S
H613 N609 0.985 . S
H614 N608 0.984 . S
H615 N608 0.984 . S
H616 N604 0.984 . S
H617 N604 0.985 . S
C618 C619 1.363 . S
C618 C624 1.379 . S
C618 N626 1.356 . S
C619 C618 1.363 . S
C619 C625 1.363 . S
C620 C621 1.363 . S
C620 C625 1.379 . S
C620 N627 1.356 . S
C621 C620 1.363 . S
C621 C624 1.363 . S
N622 C624 1.356 . S
N622 H634 0.984 . S
N622 H635 0.985 . S
N623 C625 1.356 . S
N623 H628 0.984 . S
N623 H629 0.985 . S
C624 C618 1.379 . S
C624 C621 1.363 . S
C624 N622 1.356 . S
C625 C619 1.363 . S
C625 C620 1.379 . S
C625 N623 1.356 . S
N626 C618 1.356 . S
N626 H632 0.984 . S
N626 H633 0.984 . S
N627 C620 1.356 . S
N627 H630 0.984 . S
N627 H631 0.985 . S
H628 N623 0.984 . S
H629 N623 0.985 . S
H630 N627 0.984 . S
H631 N627 0.985 . S
H632 N626 0.984 . S
H633 N626 0.984 . S
H634 N622 0.984 . S
H635 N622 0.985 . S
C636 C637 1.363 . S
C636 C642 1.379 . S
C636 N644 1.356 . S
C637 C636 1.363 . S
C637 C643 1.363 . S
C638 C639 1.363 1_556 S
C638 C643 1.379 . S
C638 N645 1.356 1_556 S
C639 C638 1.363 1_554 S
C639 C642 1.363 1_554 S
N640 C642 1.356 1_554 S
N640 H652 0.984 . S
N640 H653 0.985 . S
N641 C643 1.356 . S
N641 H646 0.984 . S
N641 H647 0.985 . S
C642 C636 1.379 . S
C642 C639 1.363 1_556 S
C642 N640 1.356 1_556 S
C643 C637 1.363 . S
C643 C638 1.379 . S
C643 N641 1.356 . S
N644 C636 1.356 . S
N644 H650 0.984 . S
N644 H651 0.984 . S
N645 C638 1.356 1_554 S
N645 H648 0.984 . S
N645 H649 0.985 . S
H646 N641 0.984 . S
H647 N641 0.985 . S
H648 N645 0.984 . S
H649 N645 0.985 . S
H650 N644 0.984 . S
H651 N644 0.984 . S
H652 N640 0.984 . S
H653 N640 0.985 . S
C654 C655 1.363 . S
C654 C660 1.379 . S
C654 N662 1.356 . S
C655 C654 1.363 . S
C655 C661 1.363 . S
C656 C657 1.363 . S
C656 C661 1.379 . S
C656 N663 1.356 . S
C657 C656 1.363 . S
C657 C660 1.363 . S
N658 C660 1.356 . S
N658 H670 0.984 . S
N658 H671 0.985 1_554 S
N659 C661 1.356 . S
N659 H664 0.984 . S
N659 H665 0.985 . S
C660 C654 1.379 . S
C660 C657 1.363 . S
C660 N658 1.356 . S
C661 C655 1.363 . S
C661 C656 1.379 . S
C661 N659 1.356 . S
N662 C654 1.356 . S
N662 H668 0.984 . S
N662 H669 0.984 . S
N663 C656 1.356 . S
N663 H666 0.984 1_554 S
N663 H667 0.985 . S
H664 N659 0.984 . S
H665 N659 0.985 . S
H666 N663 0.984 1_556 S
H667 N663 0.985 . S
H668 N662 0.984 . S
H669 N662 0.984 . S
H670 N658 0.984 . S
H671 N658 0.985 1_556 S
C672 C673 1.363 . S
C672 C678 1.379 . S
C672 N680 1.356 . S
C673 C672 1.363 . S
C673 C679 1.363 . S
C674 C675 1.363 . S
C674 C679 1.379 . S
C674 N681 1.356 . S
C675 C674 1.363 . S
C675 C678 1.363 . S
N676 C678 1.356 . S
N676 H688 0.984 . S
N676 H689 0.985 1_554 S
N677 C679 1.356 . S
N677 H682 0.984 . S
N677 H683 0.985 . S
C678 C672 1.379 . S
C678 C675 1.363 . S
C678 N676 1.356 . S
C679 C673 1.363 . S
C679 C674 1.379 . S
C679 N677 1.356 . S
N680 C672 1.356 . S
N680 H686 0.984 . S
N680 H687 0.984 . S
N681 C674 1.356 . S
N681 H684 0.984 1_554 S
N681 H685 0.985 . S
H682 N677 0.984 . S
H683 N677 0.985 . S
H684 N681 0.984 1_556 S
H685 N681 0.985 . S
H686 N680 0.984 . S
H687 N680 0.984 . S
H688 N676 0.984 . S
H689 N676 0.985 1_556 S
C690 C691 1.363 . S
C690 C696 1.379 . S
C690 N698 1.356 . S
C691 C690 1.363 . S
C691 C697 1.363 . S
C692 C693 1.363 . S
C692 C697 1.379 . S
C692 N699 1.356 . S
C693 C692 1.363 . S
C693 C696 1.363 . S
N694 C696 1.356 . S
N694 H706 0.984 . S
N694 H707 0.985 . S
N695 C697 1.356 . S
N695 H700 0.984 . S
N695 H701 0.985 . S
C696 C690 1.379 . S
C696 C693 1.363 . S
C696 N694 1.356 . S
C697 C691 1.363 . S
C697 C692 1.379 . S
C697 N695 1.356 . S
N698 C690 1.356 . S
N698 H704 0.984 . S
N698 H705 0.984 . S
N699 C692 1.356 . S
N699 H702 0.984 . S
N699 H703 0.985 . S
H700 N695 0.984 . S
H701 N695 0.985 . S
H702 N699 0.984 . S
H703 N699 0.985 . S
H704 N698 0.984 . S
H705 N698 0.984 . S
H706 N694 0.984 . S
H707 N694 0.985 . S
C708 C709 1.363 . S
C708 C714 1.379 . S
C708 N716 1.356 . S
C709 C708 1.363 . S
C709 C715 1.363 . S
C710 C711 1.363 . S
C710 C715 1.379 . S
C710 N717 1.356 . S
C711 C710 1.363 . S
C711 C714 1.363 . S
N712 C714 1.356 . S
N712 H724 0.984 . S
N712 H725 0.985 . S
N713 C715 1.356 . S
N713 H718 0.984 . S
N713 H719 0.985 . S
C714 C708 1.379 . S
C714 C711 1.363 . S
C714 N712 1.356 . S
C715 C709 1.363 . S
C715 C710 1.379 . S
C715 N713 1.356 . S
N716 C708 1.356 . S
N716 H722 0.984 . S
N716 H723 0.984 . S
N717 C710 1.356 . S
N717 H720 0.984 . S
N717 H721 0.985 . S
H718 N713 0.984 . S
H719 N713 0.985 . S
H720 N717 0.984 . S
H721 N717 0.985 . S
H722 N716 0.984 . S
H723 N716 0.984 . S
H724 N712 0.984 . S
H725 N712 0.985 . S
C726 C727 1.363 . S
C726 C732 1.379 . S
C726 N734 1.356 . S
C727 C726 1.363 . S
C727 C733 1.363 . S
C728 C729 1.363 . S
C728 C733 1.379 . S
C728 N735 1.356 . S
C729 C728 1.363 . S
C729 C732 1.363 . S
N730 C732 1.356 . S
N730 H742 0.984 . S
N730 H743 0.985 1_556 S
N731 C733 1.356 . S
N731 H736 0.984 . S
N731 H737 0.985 . S
C732 C726 1.379 . S
C732 C729 1.363 . S
C732 N730 1.356 . S
C733 C727 1.363 . S
C733 C728 1.379 . S
C733 N731 1.356 . S
N734 C726 1.356 . S
N734 H740 0.984 . S
N734 H741 0.984 . S
N735 C728 1.356 . S
N735 H738 0.984 1_556 S
N735 H739 0.985 . S
H736 N731 0.984 . S
H737 N731 0.985 . S
H738 N735 0.984 1_554 S
H739 N735 0.985 . S
H740 N734 0.984 . S
H741 N734 0.984 . S
H742 N730 0.984 . S
H743 N730 0.985 1_554 S
C744 C745 1.363 1_554 S
C744 C750 1.379 . S
C744 N752 1.356 1_554 S
C745 C744 1.363 1_556 S
C745 C751 1.363 1_556 S
C746 C747 1.363 . S
C746 C751 1.379 . S
C746 N753 1.356 . S
C747 C746 1.363 . S
C747 C750 1.363 . S
N748 C750 1.356 . S
N748 H760 0.984 . S
N748 H761 0.985 . S
N749 C751 1.356 1_556 S
N749 H754 0.984 . S
N749 H755 0.985 . S
C750 C744 1.379 . S
C750 C747 1.363 . S
C750 N748 1.356 . S
C751 C745 1.363 1_554 S
C751 C746 1.379 . S
C751 N749 1.356 1_554 S
N752 C744 1.356 1_556 S
N752 H758 0.984 . S
N752 H759 0.984 . S
N753 C746 1.356 . S
N753 H756 0.984 . S
N753 H757 0.985 . S
H754 N749 0.984 . S
H755 N749 0.985 . S
H756 N753 0.984 . S
H757 N753 0.985 . S
H758 N752 0.984 . S
H759 N752 0.984 . S
H760 N748 0.984 . S
H761 N748 0.985 . S
C762 C763 1.363 . S
C762 C768 1.379 . S
C762 N770 1.356 . S
C763 C762 1.363 . S
C763 C769 1.363 . S
C764 C765 1.363 . S
C764 C769 1.379 . S
C764 N771 1.356 . S
C765 C764 1.363 . S
C765 C768 1.363 . S
N766 C768 1.356 . S
N766 H778 0.984 . S
N766 H779 0.985 . S
N767 C769 1.356 . S
N767 H772 0.984 . S
N767 H773 0.985 . S
C768 C762 1.379 . S
C768 C765 1.363 . S
C768 N766 1.356 . S
C769 C763 1.363 . S
C769 C764 1.379 . S
C769 N767 1.356 . S
N770 C762 1.356 . S
N770 H776 0.984 . S
N770 H777 0.984 . S
N771 C764 1.356 . S
N771 H774 0.984 . S
N771 H775 0.985 . S
H772 N767 0.984 . S
H773 N767 0.985 . S
H774 N771 0.984 . S
H775 N771 0.985 . S
H776 N770 0.984 . S
H777 N770 0.984 . S
H778 N766 0.984 . S
H779 N766 0.985 . S
C780 C781 1.363 1_556 S
C780 C786 1.379 . S
C780 N788 1.356 1_556 S
C781 C780 1.363 1_554 S
C781 C787 1.363 1_554 S
C782 C783 1.363 . S
C782 C787 1.379 . S
C782 N789 1.356 . S
C783 C782 1.363 . S
C783 C786 1.363 . S
N784 C786 1.356 . S
N784 H796 0.984 . S
N784 H797 0.985 . S
N785 C787 1.356 1_554 S
N785 H790 0.984 . S
N785 H791 0.985 . S
C786 C780 1.379 . S
C786 C783 1.363 . S
C786 N784 1.356 . S
C787 C781 1.363 1_556 S
C787 C782 1.379 . S
C787 N785 1.356 1_556 S
N788 C780 1.356 1_554 S
N788 H794 0.984 . S
N788 H795 0.984 . S
N789 C782 1.356 . S
N789 H792 0.984 . S
N789 H793 0.985 . S
H790 N785 0.984 . S
H791 N785 0.985 . S
H792 N789 0.984 . S
H793 N789 0.985 . S
H794 N788 0.984 . S
H795 N788 0.984 . S
H796 N784 0.984 . S
H797 N784 0.985 . S
C798 C799 1.363 . S
C798 C804 1.379 . S
C798 N806 1.356 . S
C799 C798 1.363 . S
C799 C805 1.363 . S
C800 C801 1.363 . S
C800 C805 1.379 . S
C800 N807 1.356 . S
C801 C800 1.363 . S
C801 C804 1.363 . S
N802 C804 1.356 . S
N802 H814 0.984 . S
N802 H815 0.985 . S
N803 C805 1.356 . S
N803 H808 0.984 . S
N803 H809 0.985 . S
C804 C798 1.379 . S
C804 C801 1.363 . S
C804 N802 1.356 . S
C805 C799 1.363 . S
C805 C800 1.379 . S
C805 N803 1.356 . S
N806 C798 1.356 . S
N806 H812 0.984 . S
N806 H813 0.984 . S
N807 C800 1.356 . S
N807 H810 0.984 . S
N807 H811 0.985 . S
H808 N803 0.984 . S
H809 N803 0.985 . S
H810 N807 0.984 . S
H811 N807 0.985 . S
H812 N806 0.984 . S
H813 N806 0.984 . S
H814 N802 0.984 . S
H815 N802 0.985 . S
C816 C817 1.363 1_556 S
C816 C822 1.379 . S
C816 N824 1.356 . S
C817 C816 1.363 1_554 S
C817 C823 1.363 . S
C818 C819 1.363 1_554 S
C818 C823 1.379 . S
C818 N825 1.356 . S
C819 C818 1.363 1_556 S
C819 C822 1.363 . S
N820 C822 1.356 . S
N820 H832 0.984 . S
N820 H833 0.985 . S
N821 C823 1.356 . S
N821 H826 0.984 . S
N821 H827 0.985 . S
C822 C816 1.379 . S
C822 C819 1.363 . S
C822 N820 1.356 . S
C823 C817 1.363 . S
C823 C818 1.379 . S
C823 N821 1.356 . S
N824 C816 1.356 . S
N824 H830 0.984 . S
N824 H831 0.984 . S
N825 C818 1.356 . S
N825 H828 0.984 . S
N825 H829 0.985 . S
H826 N821 0.984 . S
H827 N821 0.985 . S
H828 N825 0.984 . S
H829 N825 0.985 . S
H830 N824 0.984 . S
H831 N824 0.984 . S
H832 N820 0.984 . S
H833 N820 0.985 . S
C834 C835 1.363 . S
C834 C840 1.379 . S
C834 N842 1.356 . S
C835 C834 1.363 . S
C835 C841 1.363 . S
C836 C837 1.363 . S
C836 C841 1.379 . S
C836 N843 1.356 . S
C837 C836 1.363 . S
C837 C840 1.363 . S
N838 C840 1.356 . S
N838 H850 0.984 . S
N838 H851 0.985 . S
N839 C841 1.356 . S
N839 H844 0.984 . S
N839 H845 0.985 . S
C840 C834 1.379 . S
C840 C837 1.363 . S
C840 N838 1.356 . S
C841 C835 1.363 . S
C841 C836 1.379 . S
C841 N839 1.356 . S
N842 C834 1.356 . S
N842 H848 0.984 . S
N842 H849 0.984 . S
N843 C836 1.356 . S
N843 H846 0.984 . S
N843 H847 0.985 . S
H844 N839 0.984 . S
H845 N839 0.985 . S
H846 N843 0.984 . S
H847 N843 0.985 . S
H848 N842 0.984 . S
H849 N842 0.984 . S
H850 N838 0.984 . S
H851 N838 0.985 . S
C852 C853 1.363 . S
C852 C858 1.379 . S
C852 N860 1.356 . S
C853 C852 1.363 . S
C853 C859 1.363 . S
C854 C855 1.363 . S
C854 C859 1.379 . S
C854 N861 1.356 . S
C855 C854 1.363 . S
C855 C858 1.363 . S
N856 C858 1.356 . S
N856 H868 0.984 . S
N856 H869 0.985 . S
N857 C859 1.356 . S
N857 H862 0.984 . S
N857 H863 0.985 . S
C858 C852 1.379 . S
C858 C855 1.363 . S
C858 N856 1.356 . S
C859 C853 1.363 . S
C859 C854 1.379 . S
C859 N857 1.356 . S
N860 C852 1.356 . S
N860 H866 0.984 . S
N860 H867 0.984 . S
N861 C854 1.356 . S
N861 H864 0.984 . S
N861 H865 0.985 . S
H862 N857 0.984 . S
H863 N857 0.985 . S
H864 N861 0.984 . S
H865 N861 0.985 . S
H866 N860 0.984 . S
H867 N860 0.984 . S
H868 N856 0.984 . S
H869 N856 0.985 . S
C870 C871 1.363 . S
C870 C876 1.379 . S
C870 N878 1.356 . S
C871 C870 1.363 . S
C871 C877 1.363 . S
C872 C873 1.363 . S
C872 C877 1.379 . S
C872 N879 1.356 . S
C873 C872 1.363 . S
C873 C876 1.363 . S
N874 C876 1.356 . S
N874 H886 0.984 . S
N874 H887 0.985 . S
N875 C877 1.356 . S
N875 H880 0.984 . S
N875 H881 0.985 . S
C876 C870 1.379 . S
C876 C873 1.363 . S
C876 N874 1.356 . S
C877 C871 1.363 . S
C877 C872 1.379 . S
C877 N875 1.356 . S
N878 C870 1.356 . S
N878 H884 0.984 . S
N878 H885 0.984 . S
N879 C872 1.356 . S
N879 H882 0.984 . S
N879 H883 0.985 . S
H880 N875 0.984 . S
H881 N875 0.985 . S
H882 N879 0.984 . S
H883 N879 0.985 . S
H884 N878 0.984 . S
H885 N878 0.984 . S
H886 N874 0.984 . S
H887 N874 0.985 . S
C888 C889 1.363 . S
C888 C894 1.379 . S
C888 N896 1.356 . S
C889 C888 1.363 . S
C889 C895 1.363 . S
C890 C891 1.363 . S
C890 C895 1.379 . S
C890 N897 1.356 . S
C891 C890 1.363 . S
C891 C894 1.363 . S
N892 C894 1.356 . S
N892 H904 0.984 . S
N892 H905 0.985 . S
N893 C895 1.356 . S
N893 H898 0.984 . S
N893 H899 0.985 . S
C894 C888 1.379 . S
C894 C891 1.363 . S
C894 N892 1.356 . S
C895 C889 1.363 . S
C895 C890 1.379 . S
C895 N893 1.356 . S
N896 C888 1.356 . S
N896 H902 0.984 . S
N896 H903 0.984 . S
N897 C890 1.356 . S
N897 H900 0.984 . S
N897 H901 0.985 . S
H898 N893 0.984 . S
H899 N893 0.985 . S
H900 N897 0.984 . S
H901 N897 0.985 . S
H902 N896 0.984 . S
H903 N896 0.984 . S
H904 N892 0.984 . S
H905 N892 0.985 . S
C906 C907 1.363 . S
C906 C912 1.379 . S
C906 N914 1.356 . S
C907 C906 1.363 . S
C907 C913 1.363 . S
C908 C909 1.363 . S
C908 C913 1.379 . S
C908 N915 1.356 . S
C909 C908 1.363 . S
C909 C912 1.363 . S
N910 C912 1.356 . S
N910 H922 0.984 . S
N910 H923 0.985 . S
N911 C913 1.356 . S
N911 H916 0.984 . S
N911 H917 0.985 . S
C912 C906 1.379 . S
C912 C909 1.363 . S
C912 N910 1.356 . S
C913 C907 1.363 . S
C913 C908 1.379 . S
C913 N911 1.356 . S
N914 C906 1.356 . S
N914 H920 0.984 . S
N914 H921 0.984 . S
N915 C908 1.356 . S
N915 H918 0.984 . S
N915 H919 0.985 . S
H916 N911 0.984 . S
H917 N911 0.985 . S
H918 N915 0.984 . S
H919 N915 0.985 . S
H920 N914 0.984 . S
H921 N914 0.984 . S
H922 N910 0.984 . S
H923 N910 0.985 . S
C924 C925 1.363 . S
C924 C930 1.379 1_545 S
C924 N932 1.356 . S
C925 C924 1.363 . S
C925 C931 1.363 . S
C926 C927 1.363 . S
C926 C931 1.379 1_565 S
C926 N933 1.356 . S
C927 C926 1.363 . S
C927 C930 1.363 . S
N928 C930 1.356 . S
N928 H940 0.984 . S
N928 H941 0.985 . S
N929 C931 1.356 . S
N929 H934 0.984 . S
N929 H935 0.985 . S
C930 C924 1.379 1_565 S
C930 C927 1.363 . S
C930 N928 1.356 . S
C931 C925 1.363 . S
C931 C926 1.379 1_545 S
C931 N929 1.356 . S
N932 C924 1.356 . S
N932 H938 0.984 . S
N932 H939 0.984 . S
N933 C926 1.356 . S
N933 H936 0.984 . S
N933 H937 0.985 . S
H934 N929 0.984 . S
H935 N929 0.985 . S
H936 N933 0.984 . S
H937 N933 0.985 . S
H938 N932 0.984 . S
H939 N932 0.984 . S
H940 N928 0.984 . S
H941 N928 0.985 . S
C942 C943 1.363 1_556 S
C942 C948 1.379 1_565 S
C942 N950 1.356 . S
C943 C942 1.363 1_554 S
C943 C949 1.363 . S
C944 C945 1.363 1_554 S
C944 C949 1.379 1_545 S
C944 N951 1.356 . S
C945 C944 1.363 1_556 S
C945 C948 1.363 . S
N946 C948 1.356 . S
N946 H958 0.984 . S
N946 H959 0.985 . S
N947 C949 1.356 . S
N947 H952 0.984 . S
N947 H953 0.985 . S
C948 C942 1.379 1_545 S
C948 C945 1.363 . S
C948 N946 1.356 . S
C949 C943 1.363 . S
C949 C944 1.379 1_565 S
C949 N947 1.356 . S
N950 C942 1.356 . S
N950 H956 0.984 . S
N950 H957 0.984 . S
N951 C944 1.356 . S
N951 H954 0.984 . S
N951 H955 0.985 . S
H952 N947 0.984 . S
H953 N947 0.985 . S
H954 N951 0.984 . S
H955 N951 0.985 . S
H956 N950 0.984 . S
H957 N950 0.984 . S
H958 N946 0.984 . S
H959 N946 0.985 . S
C960 C961 1.363 . S
C960 C966 1.379 . S
C960 N968 1.356 . S
C961 C960 1.363 . S
C961 C967 1.363 . S
C962 C963 1.363 . S
C962 C967 1.379 . S
C962 N969 1.356 . S
C963 C962 1.363 . S
C963 C966 1.363 . S
N964 C966 1.356 . S
N964 H976 0.984 . S
N964 H977 0.985 . S
N965 C967 1.356 . S
N965 H970 0.984 . S
N965 H971 0.985 1_554 S
C966 C960 1.379 . S
C966 C963 1.363 . S
C966 N964 1.356 . S
C967 C961 1.363 . S
C967 C962 1.379 . S
C967 N965 1.356 . S
N968 C960 1.356 . S
N968 H974 0.984 . S
N968 H975 0.984 . S
N969 C962 1.356 . S
N969 H972 0.984 . S
N969 H973 0.985 1_554 S
H970 N965 0.984 . S
H971 N965 0.985 1_556 S
H972 N969 0.984 . S
H973 N969 0.985 1_556 S
H974 N968 0.984 . S
H975 N968 0.984 . S
H976 N964 0.984 . S
H977 N964 0.985 . S
C978 C979 1.363 . S
C978 C984 1.379 . S
C978 N986 1.356 . S
C979 C978 1.363 . S
C979 C985 1.363 . S
C980 C981 1.363 . S
C980 C985 1.379 . S
C980 N987 1.356 . S
C981 C980 1.363 . S
C981 C984 1.363 . S
N982 C984 1.356 . S
N982 H994 0.984 . S
N982 H995 0.985 . S
N983 C985 1.356 . S
N983 H988 0.984 . S
N983 H989 0.985 . S
C984 C978 1.379 . S
C984 C981 1.363 . S
C984 N982 1.356 . S
C985 C979 1.363 . S
C985 C980 1.379 . S
C985 N983 1.356 . S
N986 C978 1.356 . S
N986 H992 0.984 . S
N986 H993 0.984 . S
N987 C980 1.356 . S
N987 H990 0.984 . S
N987 H991 0.985 . S
H988 N983 0.984 . S
H989 N983 0.985 . S
H990 N987 0.984 . S
H991 N987 0.985 . S
H992 N986 0.984 . S
H993 N986 0.984 . S
H994 N982 0.984 . S
H995 N982 0.985 . S
C996 C997 1.363 . S
C996 C1002 1.379 . S
C996 N1004 1.356 . S
C997 C996 1.363 . S
C997 C1003 1.363 . S
C998 C999 1.363 . S
C998 C1003 1.379 . S
C998 N1005 1.356 . S
C999 C998 1.363 . S
C999 C1002 1.363 . S
N1000 C1002 1.356 . S
N1000 H1012 0.984 . S
N1000 H1013 0.985 . S
N1001 C1003 1.356 . S
N1001 H1006 0.984 . S
N1001 H1007 0.985 . S
C1002 C996 1.379 . S
C1002 C999 1.363 . S
C1002 N1000 1.356 . S
C1003 C997 1.363 . S
C1003 C998 1.379 . S
C1003 N1001 1.356 . S
N1004 C996 1.356 . S
N1004 H1010 0.984 . S
N1004 H1011 0.984 . S
N1005 C998 1.356 . S
N1005 H1008 0.984 . S
N1005 H1009 0.985 . S
H1006 N1001 0.984 . S
H1007 N1001 0.985 . S
H1008 N1005 0.984 . S
H1009 N1005 0.985 . S
H1010 N1004 0.984 . S
H1011 N1004 0.984 . S
H1012 N1000 0.984 . S
H1013 N1000 0.985 . S
C1014 C1015 1.363 . S
C1014 C1020 1.379 . S
C1014 N1022 1.356 . S
C1015 C1014 1.363 . S
C1015 C1021 1.363 . S
C1016 C1017 1.363 . S
C1016 C1021 1.379 . S
C1016 N1023 1.356 . S
C1017 C1016 1.363 . S
C1017 C1020 1.363 . S
N1018 C1020 1.356 . S
N1018 H1030 0.984 . S
N1018 H1031 0.985 . S
N1019 C1021 1.356 . S
N1019 H1024 0.984 . S
N1019 H1025 0.985 1_556 S
C1020 C1014 1.379 . S
C1020 C1017 1.363 . S
C1020 N1018 1.356 . S
C1021 C1015 1.363 . S
C1021 C1016 1.379 . S
C1021 N1019 1.356 . S
N1022 C1014 1.356 . S
N1022 H1028 0.984 1_655 S
N1022 H1029 0.984 1_655 S
N1023 C1016 1.356 . S
N1023 H1026 0.984 . S
N1023 H1027 0.985 1_556 S
H1024 N1019 0.984 . S
H1025 N1019 0.985 1_554 S
H1026 N1023 0.984 . S
H1027 N1023 0.985 1_554 S
H1028 N1022 0.984 1_455 S
H1029 N1022 0.984 1_455 S
H1030 N1018 0.984 . S
H1031 N1018 0.985 . S
C1032 C1033 1.363 . S
C1032 C1038 1.379 . S
C1032 N1040 1.356 . S
C1033 C1032 1.363 . S
C1033 C1039 1.363 . S
C1034 C1035 1.363 . S
C1034 C1039 1.379 . S
C1034 N1041 1.356 . S
C1035 C1034 1.363 . S
C1035 C1038 1.363 . S
N1036 C1038 1.356 . S
N1036 H1048 0.984 . S
N1036 H1049 0.985 . S
N1037 C1039 1.356 . S
N1037 H1042 0.984 . S
N1037 H1043 0.985 1_556 S
C1038 C1032 1.379 . S
C1038 C1035 1.363 . S
C1038 N1036 1.356 . S
C1039 C1033 1.363 . S
C1039 C1034 1.379 . S
C1039 N1037 1.356 . S
N1040 C1032 1.356 . S
N1040 H1046 0.984 . S
N1040 H1047 0.984 . S
N1041 C1034 1.356 . S
N1041 H1044 0.984 . S
N1041 H1045 0.985 1_556 S
H1042 N1037 0.984 . S
H1043 N1037 0.985 1_554 S
H1044 N1041 0.984 . S
H1045 N1041 0.985 1_554 S
H1046 N1040 0.984 . S
H1047 N1040 0.984 . S
H1048 N1036 0.984 . S
H1049 N1036 0.985 . S
C1050 C1051 1.363 . S
C1050 C1056 1.379 . S
C1050 N1058 1.356 . S
C1051 C1050 1.363 . S
C1051 C1057 1.363 . S
C1052 C1053 1.363 . S
C1052 C1057 1.379 . S
C1052 N1059 1.356 . S
C1053 C1052 1.363 . S
C1053 C1056 1.363 . S
N1054 C1056 1.356 . S
N1054 H1066 0.984 1_554 S
N1054 H1067 0.985 . S
N1055 C1057 1.356 . S
N1055 H1060 0.984 1_655 S
N1055 H1061 0.985 1_655 S
C1056 C1050 1.379 . S
C1056 C1053 1.363 . S
C1056 N1054 1.356 . S
C1057 C1051 1.363 . S
C1057 C1052 1.379 . S
C1057 N1055 1.356 . S
N1058 C1050 1.356 . S
N1058 H1064 0.984 1_554 S
N1058 H1065 0.984 . S
N1059 C1052 1.356 . S
N1059 H1062 0.984 . S
N1059 H1063 0.985 . S
H1060 N1055 0.984 1_455 S
H1061 N1055 0.985 1_455 S
H1062 N1059 0.984 . S
H1063 N1059 0.985 . S
H1064 N1058 0.984 1_556 S
H1065 N1058 0.984 . S
H1066 N1054 0.984 1_556 S
H1067 N1054 0.985 . S
C1068 C1069 1.363 . S
C1068 C1074 1.379 . S
C1068 N1076 1.356 . S
C1069 C1068 1.363 . S
C1069 C1075 1.363 . S
C1070 C1071 1.363 . S
C1070 C1075 1.379 . S
C1070 N1077 1.356 . S
C1071 C1070 1.363 . S
C1071 C1074 1.363 . S
N1072 C1074 1.356 . S
N1072 H1084 0.984 . S
N1072 H1085 0.985 . S
N1073 C1075 1.356 . S
N1073 H1078 0.984 . S
N1073 H1079 0.985 . S
C1074 C1068 1.379 . S
C1074 C1071 1.363 . S
C1074 N1072 1.356 . S
C1075 C1069 1.363 . S
C1075 C1070 1.379 . S
C1075 N1073 1.356 . S
N1076 C1068 1.356 . S
N1076 H1082 0.984 . S
N1076 H1083 0.984 . S
N1077 C1070 1.356 . S
N1077 H1080 0.984 . S
N1077 H1081 0.985 . S
H1078 N1073 0.984 . S
H1079 N1073 0.985 . S
H1080 N1077 0.984 . S
H1081 N1077 0.985 . S
H1082 N1076 0.984 . S
H1083 N1076 0.984 . S
H1084 N1072 0.984 . S
H1085 N1072 0.985 . S
C1086 C1087 1.363 . S
C1086 C1092 1.379 . S
C1086 N1094 1.356 . S
C1087 C1086 1.363 . S
C1087 C1093 1.363 . S
C1088 C1089 1.363 . S
C1088 C1093 1.379 . S
C1088 N1095 1.356 . S
C1089 C1088 1.363 . S
C1089 C1092 1.363 . S
N1090 C1092 1.356 . S
N1090 H1102 0.984 . S
N1090 H1103 0.985 . S
N1091 C1093 1.356 . S
N1091 H1096 0.984 . S
N1091 H1097 0.985 . S
C1092 C1086 1.379 . S
C1092 C1089 1.363 . S
C1092 N1090 1.356 . S
C1093 C1087 1.363 . S
C1093 C1088 1.379 . S
C1093 N1091 1.356 . S
N1094 C1086 1.356 . S
N1094 H1100 0.984 . S
N1094 H1101 0.984 . S
N1095 C1088 1.356 . S
N1095 H1098 0.984 . S
N1095 H1099 0.985 . S
H1096 N1091 0.984 . S
H1097 N1091 0.985 . S
H1098 N1095 0.984 . S
H1099 N1095 0.985 . S
H1100 N1094 0.984 . S
H1101 N1094 0.984 . S
H1102 N1090 0.984 . S
H1103 N1090 0.985 . S
C1104 C1105 1.363 . S
C1104 C1110 1.379 . S
C1104 N1112 1.356 1_655 S
C1105 C1104 1.363 . S
C1105 C1111 1.363 . S
C1106 C1107 1.363 . S
C1106 C1111 1.379 . S
C1106 N1113 1.356 . S
C1107 C1106 1.363 . S
C1107 C1110 1.363 . S
N1108 C1110 1.356 . S
N1108 H1120 0.984 . S
N1108 H1121 0.985 . S
N1109 C1111 1.361 . S
N1109 H1114 0.985 . S
N1109 H1115 0.979 1_556 S
C1110 C1104 1.379 . S
C1110 C1107 1.363 . S
C1110 N1108 1.356 . S
C1111 C1105 1.363 . S
C1111 C1106 1.379 . S
C1111 N1109 1.361 . S
N1112 C1104 1.356 1_455 S
N1112 H1118 0.984 . S
N1112 H1119 0.984 . S
N1113 C1106 1.356 . S
N1113 H1116 0.984 . S
N1113 H1117 0.985 1_556 S
H1114 N1109 0.985 . S
H1115 N1109 0.979 1_554 S
H1116 N1113 0.984 . S
H1117 N1113 0.985 1_554 S
H1118 N1112 0.984 . S
H1119 N1112 0.984 . S
H1120 N1108 0.984 . S
H1121 N1108 0.985 . S
C1122 C1123 1.363 . S
C1122 C1128 1.379 . S
C1122 N1130 1.356 . S
C1123 C1122 1.363 . S
C1123 C1129 1.363 . S
C1124 C1125 1.363 . S
C1124 C1129 1.379 . S
C1124 N1131 1.356 . S
C1125 C1124 1.363 . S
C1125 C1128 1.363 . S
N1126 C1128 1.356 . S
N1126 H1138 0.984 . S
N1126 H1139 0.985 . S
N1127 C1129 1.356 . S
N1127 H1132 0.984 . S
N1127 H1133 0.985 . S
C1128 C1122 1.379 . S
C1128 C1125 1.363 . S
C1128 N1126 1.356 . S
C1129 C1123 1.363 . S
C1129 C1124 1.379 . S
C1129 N1127 1.356 . S
N1130 C1122 1.356 . S
N1130 H1136 0.984 . S
N1130 H1137 0.984 . S
N1131 C1124 1.356 . S
N1131 H1134 0.984 . S
N1131 H1135 0.985 . S
H1132 N1127 0.984 . S
H1133 N1127 0.985 . S
H1134 N1131 0.984 . S
H1135 N1131 0.985 . S
H1136 N1130 0.984 . S
H1137 N1130 0.984 . S
H1138 N1126 0.984 . S
H1139 N1126 0.985 . S
C1140 C1141 1.363 . S
C1140 C1146 1.379 . S
C1140 N1148 1.356 . S
C1141 C1140 1.363 . S
C1141 C1147 1.363 . S
C1142 C1143 1.363 . S
C1142 C1147 1.379 . S
C1142 N1149 1.356 . S
C1143 C1142 1.363 . S
C1143 C1146 1.363 . S
N1144 C1146 1.356 . S
N1144 H1156 0.984 . S
N1144 H1157 0.985 . S
N1145 C1147 1.356 . S
N1145 H1150 0.984 . S
N1145 H1151 0.985 . S
C1146 C1140 1.379 . S
C1146 C1143 1.363 . S
C1146 N1144 1.356 . S
C1147 C1141 1.363 . S
C1147 C1142 1.379 . S
C1147 N1145 1.356 . S
N1148 C1140 1.356 . S
N1148 H1154 0.984 . S
N1148 H1155 0.984 . S
N1149 C1142 1.356 . S
N1149 H1152 0.984 . S
N1149 H1153 0.985 . S
H1150 N1145 0.984 . S
H1151 N1145 0.985 . S
H1152 N1149 0.984 . S
H1153 N1149 0.985 . S
H1154 N1148 0.984 . S
H1155 N1148 0.984 . S
H1156 N1144 0.984 . S
H1157 N1144 0.985 . S
C1158 C1159 1.363 . S
C1158 C1164 1.379 . S
C1158 N1166 1.356 . S
C1159 C1158 1.363 . S
C1159 C1165 1.363 . S
C1160 C1161 1.363 . S
C1160 C1165 1.379 . S
C1160 N1167 1.356 . S
C1161 C1160 1.363 . S
C1161 C1164 1.363 . S
N1162 C1164 1.356 . S
N1162 H1174 0.984 . S
N1162 H1175 0.985 . S
N1163 C1165 1.356 . S
N1163 H1168 0.984 . S
N1163 H1169 0.985 . S
C1164 C1158 1.379 . S
C1164 C1161 1.363 . S
C1164 N1162 1.356 . S
C1165 C1159 1.363 . S
C1165 C1160 1.379 . S
C1165 N1163 1.356 . S
N1166 C1158 1.356 . S
N1166 H1172 0.984 . S
N1166 H1173 0.984 . S
N1167 C1160 1.356 . S
N1167 H1170 0.984 . S
N1167 H1171 0.985 . S
H1168 N1163 0.984 . S
H1169 N1163 0.985 . S
H1170 N1167 0.984 . S
H1171 N1167 0.985 . S
H1172 N1166 0.984 . S
H1173 N1166 0.984 . S
H1174 N1162 0.984 . S
H1175 N1162 0.985 . S
C1176 C1177 1.363 . S
C1176 C1182 1.379 . S
C1176 N1184 1.356 . S
C1177 C1176 1.363 . S
C1177 C1183 1.363 . S
C1178 C1179 1.363 . S
C1178 C1183 1.379 . S
C1178 N1185 1.356 1_554 S
C1179 C1178 1.363 . S
C1179 C1182 1.363 . S
N1180 C1182 1.356 1_455 S
N1180 H1192 0.984 . S
N1180 H1193 0.985 . S
N1181 C1183 1.356 1_556 S
N1181 H1186 0.984 1_556 S
N1181 H1187 0.985 . S
C1182 C1176 1.379 . S
C1182 C1179 1.363 . S
C1182 N1180 1.356 1_655 S
C1183 C1177 1.363 . S
C1183 C1178 1.379 . S
C1183 N1181 1.356 1_554 S
N1184 C1176 1.356 . S
N1184 H1190 0.984 . S
N1184 H1191 0.984 . S
N1185 C1178 1.356 1_556 S
N1185 H1188 0.954 1_655 S
N1185 H1189 0.985 . S
H1186 N1181 0.984 1_554 S
H1187 N1181 0.985 . S
H1188 N1185 0.954 1_455 S
H1189 N1185 0.985 . S
H1190 N1184 0.984 . S
H1191 N1184 0.984 . S
H1192 N1180 0.984 . S
H1193 N1180 0.985 . S
C1194 C1195 1.363 . S
C1194 C1200 1.379 . S
C1194 N1202 1.356 . S
C1195 C1194 1.363 . S
C1195 C1201 1.363 . S
C1196 C1197 1.363 . S
C1196 C1201 1.379 . S
C1196 N1203 1.356 . S
C1197 C1196 1.363 . S
C1197 C1200 1.363 . S
N1198 C1200 1.356 . S
N1198 H1210 0.984 . S
N1198 H1211 0.985 . S
N1199 C1201 1.356 . S
N1199 H1204 0.984 . S
N1199 H1205 0.985 1_556 S
C1200 C1194 1.379 . S
C1200 C1197 1.363 . S
C1200 N1198 1.356 . S
C1201 C1195 1.363 . S
C1201 C1196 1.379 . S
C1201 N1199 1.356 . S
N1202 C1194 1.356 . S
N1202 H1208 0.984 . S
N1202 H1209 0.984 . S
N1203 C1196 1.356 . S
N1203 H1206 0.984 . S
N1203 H1207 0.985 1_556 S
H1204 N1199 0.984 . S
H1205 N1199 0.985 1_554 S
H1206 N1203 0.984 . S
H1207 N1203 0.985 1_554 S
H1208 N1202 0.984 . S
H1209 N1202 0.984 . S
H1210 N1198 0.984 . S
H1211 N1198 0.985 . S
C1212 C1213 1.363 . S
C1212 C1218 1.379 . S
C1212 N1220 1.356 . S
C1213 C1212 1.363 . S
C1213 C1219 1.363 . S
C1214 C1215 1.363 . S
C1214 C1219 1.379 . S
C1214 N1221 1.356 . S
C1215 C1214 1.363 . S
C1215 C1218 1.363 . S
N1216 C1218 1.356 . S
N1216 H1228 0.984 . S
N1216 H1229 0.985 . S
N1217 C1219 1.356 . S
N1217 H1222 0.984 . S
N1217 H1223 0.985 . S
C1218 C1212 1.379 . S
C1218 C1215 1.363 . S
C1218 N1216 1.356 . S
C1219 C1213 1.363 . S
C1219 C1214 1.379 . S
C1219 N1217 1.356 . S
N1220 C1212 1.356 . S
N1220 H1226 0.984 . S
N1220 H1227 0.984 . S
N1221 C1214 1.356 . S
N1221 H1224 0.984 . S
N1221 H1225 0.985 . S
H1222 N1217 0.984 . S
H1223 N1217 0.985 . S
H1224 N1221 0.984 . S
H1225 N1221 0.985 . S
H1226 N1220 0.984 . S
H1227 N1220 0.984 . S
H1228 N1216 0.984 . S
H1229 N1216 0.985 . S
C1230 C1231 1.363 . S
C1230 C1236 1.379 . S
C1230 N1238 1.356 . S
C1231 C1230 1.363 . S
C1231 C1237 1.363 . S
C1232 C1233 1.363 . S
C1232 C1237 1.379 . S
C1232 N1239 1.356 . S
C1233 C1232 1.363 . S
C1233 C1236 1.363 . S
N1234 C1236 1.356 . S
N1234 H1246 0.984 . S
N1234 H1247 0.985 . S
N1235 C1237 1.356 . S
N1235 H1240 0.984 . S
N1235 H1241 0.985 . S
C1236 C1230 1.379 . S
C1236 C1233 1.363 . S
C1236 N1234 1.356 . S
C1237 C1231 1.363 . S
C1237 C1232 1.379 . S
C1237 N1235 1.356 . S
N1238 C1230 1.356 . S
N1238 H1244 0.984 . S
N1238 H1245 0.984 . S
N1239 C1232 1.356 . S
N1239 H1242 0.984 . S
N1239 H1243 0.985 . S
H1240 N1235 0.984 . S
H1241 N1235 0.985 . S
H1242 N1239 0.984 . S
H1243 N1239 0.985 . S
H1244 N1238 0.984 . S
H1245 N1238 0.984 . S
H1246 N1234 0.984 . S
H1247 N1234 0.985 . S
C529 N13 1.454 . S
C531 N2 1.451 . S
C547 N46 1.454 1_556 S
C549 N35 1.451 . S
C565 N79 1.454 . S
C567 N68 1.451 . S
C583 N112 1.454 . S
C585 N101 1.451 . S
C601 N145 1.454 . S
C603 N134 1.451 . S
C619 N178 1.454 . S
C621 N167 1.451 . S
C637 N211 1.454 . S
C639 N200 1.451 . S
C655 N233 1.451 . S
C657 N244 1.454 1_554 S
C673 N266 1.451 . S
C675 N277 1.454 1_554 S
C691 N310 1.454 . S
C693 N299 1.451 . S
C709 N343 1.454 . S
C711 N332 1.451 . S
C727 N365 1.451 . S
C729 N376 1.454 1_556 S
C745 N398 1.451 . S
C747 N409 1.454 . S
C763 N442 1.454 . S
C765 N431 1.451 . S
C781 N464 1.451 . S
C783 N475 1.454 . S
C799 N508 1.454 . S
C801 N497 1.451 . S
C817 C18 1.176 . S
C819 C150 1.176 . S
C835 C183 1.176 . S
C837 C51 1.176 . S
C853 C216 1.176 . S
C855 C84 1.176 . S
C871 C117 1.176 . S
C873 C249 1.176 . S
C889 C348 1.176 . S
C891 C282 1.176 . S
C907 C315 1.176 . S
C909 C381 1.176 . S
C925 C414 1.176 . S
C927 C480 1.176 . S
C943 C447 1.176 . S
C945 C513 1.176 . S
C961 C304 1.481 . S
C963 C7 1.481 . S
C979 C469 1.481 . S
C981 C40 1.481 . S
C997 C73 1.481 . S
C999 C271 1.481 . S
C1015 C502 1.481 . S
C1017 C106 1.481 . S
C1033 C337 1.481 . S
C1035 C139 1.481 . S
C1051 C436 1.481 . S
C1053 C172 1.481 . S
C1069 C205 1.481 . S
C1071 C370 1.481 . S
C1087 C238 1.481 . S
C1089 C403 1.481 . S
C1105 C153 1.500 1_655 S
C1107 C120 1.500 . S
C1123 C417 1.500 . S
C1125 C285 1.500 . S
C1141 C54 1.500 . S
C1143 C219 1.500 . S
C1159 C450 1.500 . S
C1161 C318 1.500 . S
C1177 C186 1.500 . S
C1179 C21 1.500 1_655 S
C1195 C351 1.500 . S
C1197 C516 1.500 . S
C1213 C252 1.500 . S
C1215 C87 1.500 . S
C1231 C483 1.500 . S
C1233 C384 1.500 . S
