# Generated by pormake.
# Topology umd, (4)-cn, num edge types: 1
# Building blocks:
#     Node 0, Type 0, BuildingBlock: GALJAG_clean_sbu_0, # of connection points: 4
#     Node 1, Type 0, BuildingBlock: GALJAG_clean_sbu_0, # of connection points: 4
#     Node 2, Type 0, BuildingBlock: GALJAG_clean_sbu_0, # of connection points: 4
#     Node 3, Type 0, BuildingBlock: GALJAG_clean_sbu_0, # of connection points: 4
#     Node 4, Type 0, BuildingBlock: GALJAG_clean_sbu_0, # of connection points: 4
#     Node 5, Type 0, BuildingBlock: GALJAG_clean_sbu_0, # of connection points: 4
#     Node 6, Type 0, BuildingBlock: GALJAG_clean_sbu_0, # of connection points: 4
#     Node 7, Type 0, BuildingBlock: GALJAG_clean_sbu_0, # of connection points: 4
#     Node 8, Type 0, BuildingBlock: GALJAG_clean_sbu_0, # of connection points: 4
#     Node 9, Type 0, BuildingBlock: GALJAG_clean_sbu_0, # of connection points: 4
#     Node 10, Type 0, BuildingBlock: GALJAG_clean_sbu_0, # of connection points: 4
#     Node 11, Type 0, BuildingBlock: GALJAG_clean_sbu_0, # of connection points: 4
#     Node 12, Type 0, BuildingBlock: GALJAG_clean_sbu_0, # of connection points: 4
#     Node 13, Type 0, BuildingBlock: GALJAG_clean_sbu_0, # of connection points: 4
#     Node 14, Type 0, BuildingBlock: GALJAG_clean_sbu_0, # of connection points: 4
#     Node 15, Type 0, BuildingBlock: GALJAG_clean_sbu_0, # of connection points: 4
#     Edge 16, Type (0, 0), BuildingBlock: ZUJKAS_clean_linker_0, # of connection points: 2
#     Edge 17, Type (0, 0), BuildingBlock: ZUJKAS_clean_linker_0, # of connection points: 2
#     Edge 18, Type (0, 0), BuildingBlock: ZUJKAS_clean_linker_0, # of connection points: 2
#     Edge 19, Type (0, 0), BuildingBlock: ZUJKAS_clean_linker_0, # of connection points: 2
#     Edge 20, Type (0, 0), BuildingBlock: ZUJKAS_clean_linker_0, # of connection points: 2
#     Edge 21, Type (0, 0), BuildingBlock: ZUJKAS_clean_linker_0, # of connection points: 2
#     Edge 22, Type (0, 0), BuildingBlock: ZUJKAS_clean_linker_0, # of connection points: 2
#     Edge 23, Type (0, 0), BuildingBlock: ZUJKAS_clean_linker_0, # of connection points: 2
#     Edge 24, Type (0, 0), BuildingBlock: ZUJKAS_clean_linker_0, # of connection points: 2
#     Edge 25, Type (0, 0), BuildingBlock: ZUJKAS_clean_linker_0, # of connection points: 2
#     Edge 26, Type (0, 0), BuildingBlock: ZUJKAS_clean_linker_0, # of connection points: 2
#     Edge 27, Type (0, 0), BuildingBlock: ZUJKAS_clean_linker_0, # of connection points: 2
#     Edge 28, Type (0, 0), BuildingBlock: ZUJKAS_clean_linker_0, # of connection points: 2
#     Edge 29, Type (0, 0), BuildingBlock: ZUJKAS_clean_linker_0, # of connection points: 2
#     Edge 30, Type (0, 0), BuildingBlock: ZUJKAS_clean_linker_0, # of connection points: 2
#     Edge 31, Type (0, 0), BuildingBlock: ZUJKAS_clean_linker_0, # of connection points: 2
#     Edge 32, Type (0, 0), BuildingBlock: ZUJKAS_clean_linker_0, # of connection points: 2
#     Edge 33, Type (0, 0), BuildingBlock: ZUJKAS_clean_linker_0, # of connection points: 2
#     Edge 34, Type (0, 0), BuildingBlock: ZUJKAS_clean_linker_0, # of connection points: 2
#     Edge 35, Type (0, 0), BuildingBlock: ZUJKAS_clean_linker_0, # of connection points: 2
#     Edge 36, Type (0, 0), BuildingBlock: ZUJKAS_clean_linker_0, # of connection points: 2
#     Edge 37, Type (0, 0), BuildingBlock: ZUJKAS_clean_linker_0, # of connection points: 2
#     Edge 38, Type (0, 0), BuildingBlock: ZUJKAS_clean_linker_0, # of connection points: 2
#     Edge 39, Type (0, 0), BuildingBlock: ZUJKAS_clean_linker_0, # of connection points: 2
#     Edge 40, Type (0, 0), BuildingBlock: ZUJKAS_clean_linker_0, # of connection points: 2
#     Edge 41, Type (0, 0), BuildingBlock: ZUJKAS_clean_linker_0, # of connection points: 2
#     Edge 42, Type (0, 0), BuildingBlock: ZUJKAS_clean_linker_0, # of connection points: 2
#     Edge 43, Type (0, 0), BuildingBlock: ZUJKAS_clean_linker_0, # of connection points: 2
#     Edge 44, Type (0, 0), BuildingBlock: ZUJKAS_clean_linker_0, # of connection points: 2
#     Edge 45, Type (0, 0), BuildingBlock: ZUJKAS_clean_linker_0, # of connection points: 2
#     Edge 46, Type (0, 0), BuildingBlock: ZUJKAS_clean_linker_0, # of connection points: 2
#     Edge 47, Type (0, 0), BuildingBlock: ZUJKAS_clean_linker_0, # of connection points: 2
# Relax obj value: 0.079
# Max RMSD: 0.208
# Mean RMSD: 0.208
data_MOF--net-umd--node1-GALJAG_clean_sbu_0--edge1-ZUJKAS_clean_linker_0
_symmetry_space_group_name_H-M    P1
_symmetry_Int_Tables_number       1
_symmetry_cell_setting            triclinic
loop_
_symmetry_equiv_pos_as_xyz
'x, y, z'
_cell_length_a     51.668024
_cell_length_b     51.669354
_cell_length_c     73.389202
_cell_angle_alpha  90.000364
_cell_angle_beta   89.994206
_cell_angle_gamma 89.990319
loop_
_atom_site_label
_atom_site_type_symbol
_atom_site_fract_x
_atom_site_fract_y
_atom_site_fract_z
_atom_type_partial_charge
In0 In 0.17871 0.44065 0.12655 0.0
O1 O 0.17548 0.39648 0.12919 0.0
O2 O 0.20873 0.4123 0.11621 0.0
C3 C 0.12889 0.4542 0.1322 0.0
C4 C 0.18826 0.4617 0.09362 0.0
C5 C 0.20091 0.45428 0.1584 0.0
O6 O 0.13513 0.43206 0.12633 0.0
O7 O 0.14769 0.46906 0.13538 0.0
O8 O 0.19985 0.46955 0.14498 0.0
O9 O 0.19126 0.43224 0.15558 0.0
C10 C 0.19692 0.39227 0.12143 0.0
O11 O 0.20388 0.46407 0.10677 0.0
O12 O 0.16797 0.44915 0.09724 0.0
In13 In 0.5668 0.17901 0.62781 0.0
O14 O 0.5414 0.20201 0.6079 0.0
O15 O 0.57487 0.18284 0.59769 0.0
C16 C 0.54628 0.19111 0.66041 0.0
C17 C 0.61432 0.19983 0.63144 0.0
C18 C 0.55147 0.12921 0.62546 0.0
O19 O 0.53936 0.20247 0.64594 0.0
O20 O 0.5633 0.17386 0.65828 0.0
O21 O 0.57424 0.13538 0.63004 0.0
O22 O 0.53683 0.14805 0.62188 0.0
C23 C 0.55547 0.19683 0.59427 0.0
O24 O 0.61113 0.17641 0.62695 0.0
O25 O 0.59369 0.2123 0.63419 0.0
In26 In 0.81927 0.56524 0.12598 0.0
O27 O 0.79499 0.54059 0.1064 0.0
O28 O 0.8306 0.55628 0.0969 0.0
C29 C 0.79722 0.55245 0.15802 0.0
C30 C 0.80069 0.61336 0.12025 0.0
C31 C 0.86893 0.55145 0.13195 0.0
O32 O 0.79663 0.53753 0.14438 0.0
O33 O 0.80839 0.57379 0.15529 0.0
O34 O 0.86288 0.57349 0.12579 0.0
O35 O 0.85001 0.53678 0.13525 0.0
C36 C 0.8108 0.54293 0.09336 0.0
O37 O 0.82229 0.60949 0.12785 0.0
O38 O 0.78889 0.59312 0.11546 0.0
In39 In 0.44297 0.81828 0.62431 0.0
O40 O 0.40189 0.81796 0.63578 0.0
O41 O 0.40676 0.80971 0.60761 0.0
C42 C 0.45356 0.86924 0.62913 0.0
C43 C 0.4654 0.79969 0.59368 0.0
C44 C 0.45926 0.79109 0.65368 0.0
O45 O 0.43508 0.86151 0.61932 0.0
O46 O 0.46603 0.8514 0.63681 0.0
O47 O 0.47473 0.80035 0.64211 0.0
O48 O 0.43573 0.79473 0.65007 0.0
C49 C 0.39138 0.8116 0.6209 0.0
O50 O 0.45177 0.78569 0.60399 0.0
O51 O 0.46828 0.82263 0.59912 0.0
In52 In 0.18149 0.55529 0.37319 0.0
O53 O 0.17732 0.5994 0.37106 0.0
O54 O 0.21339 0.58387 0.37975 0.0
C55 C 0.13153 0.5409 0.36992 0.0
C56 C 0.19265 0.5371 0.4067 0.0
C57 C 0.20089 0.5396 0.34089 0.0
O58 O 0.13806 0.56407 0.373 0.0
O59 O 0.15015 0.52529 0.3683 0.0
O60 O 0.20306 0.52619 0.3552 0.0
O61 O 0.18923 0.56083 0.34299 0.0
C62 C 0.20026 0.60381 0.37615 0.0
O63 O 0.20722 0.53288 0.3932 0.0
O64 O 0.17266 0.55019 0.40318 0.0
In65 In 0.43853 0.17711 0.87351 0.0
O66 O 0.46341 0.20028 0.89365 0.0
O67 O 0.44286 0.16732 0.90334 0.0
C68 C 0.45207 0.19752 0.84107 0.0
C69 C 0.39094 0.19745 0.87778 0.0
C70 C 0.45217 0.1272 0.86864 0.0
O71 O 0.46677 0.1988 0.85481 0.0
O72 O 0.43078 0.18632 0.84386 0.0
O73 O 0.42916 0.13383 0.87218 0.0
O74 O 0.46798 0.14571 0.8674 0.0
C75 C 0.45784 0.18587 0.90703 0.0
O76 O 0.39432 0.17459 0.8721 0.0
O77 O 0.41145 0.20967 0.8814 0.0
In78 In 0.8182 0.43671 0.37104 0.0
O79 O 0.82102 0.39245 0.37118 0.0
O80 O 0.78431 0.40985 0.36629 0.0
C81 C 0.86828 0.45136 0.37251 0.0
C82 C 0.80178 0.44949 0.40471 0.0
C83 C 0.8051 0.45593 0.33825 0.0
O84 O 0.86167 0.4281 0.36994 0.0
O85 O 0.84971 0.46694 0.37447 0.0
O86 O 0.79443 0.46367 0.35277 0.0
O87 O 0.82219 0.43876 0.34041 0.0
C88 C 0.7972 0.38924 0.36792 0.0
O89 O 0.79647 0.46321 0.39095 0.0
O90 O 0.81512 0.42961 0.40135 0.0
In91 In 0.5585 0.81456 0.86762 0.0
O92 O 0.53296 0.79355 0.88858 0.0
O93 O 0.56538 0.81506 0.89804 0.0
C94 C 0.54115 0.7973 0.83524 0.0
C95 C 0.60633 0.79412 0.86631 0.0
C96 C 0.54253 0.86429 0.86635 0.0
O97 O 0.53117 0.79 0.85012 0.0
O98 O 0.55948 0.81326 0.83683 0.0
O99 O 0.56606 0.85808 0.86465 0.0
O100 O 0.52734 0.8455 0.86871 0.0
C101 C 0.5463 0.80097 0.90205 0.0
O102 O 0.60266 0.81821 0.86799 0.0
O103 O 0.58598 0.78067 0.86532 0.0
In104 In 0.81965 0.56285 0.87301 0.0
O105 O 0.82306 0.60702 0.87111 0.0
O106 O 0.78757 0.59076 0.88037 0.0
C107 C 0.869 0.54693 0.86914 0.0
C108 C 0.81015 0.54395 0.9065 0.0
C109 C 0.80016 0.54913 0.84037 0.0
O110 O 0.86335 0.57027 0.8725 0.0
O111 O 0.84983 0.532 0.86758 0.0
O112 O 0.7962 0.53581 0.85455 0.0
O113 O 0.81347 0.56927 0.84284 0.0
C114 C 0.80021 0.61095 0.87662 0.0
O115 O 0.79586 0.53846 0.89304 0.0
O116 O 0.82887 0.55879 0.90293 0.0
In117 In 0.42962 0.8202 0.3729 0.0
O118 O 0.45709 0.79784 0.39174 0.0
O119 O 0.42148 0.81187 0.40255 0.0
C120 C 0.45026 0.81029 0.33993 0.0
C121 C 0.38204 0.79956 0.36935 0.0
C122 C 0.44339 0.87021 0.37738 0.0
O123 O 0.45725 0.79799 0.354 0.0
O124 O 0.43331 0.82739 0.34268 0.0
O125 O 0.42223 0.86384 0.37002 0.0
O126 O 0.45716 0.85152 0.38261 0.0
C127 C 0.44241 0.79999 0.40546 0.0
O128 O 0.38541 0.82237 0.37514 0.0
O129 O 0.40253 0.78756 0.36533 0.0
In130 In 0.17961 0.43559 0.87249 0.0
O131 O 0.20198 0.46157 0.89239 0.0
O132 O 0.1803 0.42994 0.903 0.0
C133 C 0.19234 0.45384 0.83938 0.0
C134 C 0.20214 0.38874 0.87073 0.0
C135 C 0.12953 0.45027 0.87289 0.0
O136 O 0.20082 0.46411 0.85385 0.0
O137 O 0.1778 0.43453 0.84175 0.0
O138 O 0.13613 0.42689 0.87078 0.0
O139 O 0.14808 0.46582 0.87495 0.0
C140 C 0.19485 0.44897 0.90629 0.0
O141 O 0.17808 0.39133 0.87341 0.0
O142 O 0.21449 0.40967 0.86893 0.0
In143 In 0.56401 0.17701 0.37446 0.0
O144 O 0.60836 0.17433 0.37508 0.0
O145 O 0.59091 0.20865 0.36479 0.0
C146 C 0.55046 0.12697 0.37908 0.0
C147 C 0.55413 0.19802 0.40728 0.0
C148 C 0.54019 0.18757 0.34268 0.0
O149 O 0.5709 0.13349 0.37084 0.0
O150 O 0.53732 0.14555 0.38525 0.0
O151 O 0.53574 0.20058 0.35694 0.0
O152 O 0.55621 0.16939 0.34467 0.0
C153 C 0.61154 0.19666 0.3684 0.0
O154 O 0.53824 0.19975 0.39422 0.0
O155 O 0.5747 0.1859 0.40365 0.0
In156 In 0.822 0.44057 0.62599 0.0
O157 O 0.82513 0.39624 0.62723 0.0
O158 O 0.78827 0.4133 0.62233 0.0
C159 C 0.87123 0.4576 0.62762 0.0
C160 C 0.81027 0.45688 0.5922 0.0
C161 C 0.80534 0.45523 0.65916 0.0
O162 O 0.86584 0.43381 0.62609 0.0
O163 O 0.85187 0.47244 0.62849 0.0
O164 O 0.79869 0.46714 0.64485 0.0
O165 O 0.82012 0.43614 0.65659 0.0
C166 C 0.80122 0.39282 0.62438 0.0
O167 O 0.79793 0.4648 0.60602 0.0
O168 O 0.82823 0.44105 0.59559 0.0
In169 In 0.5592 0.82036 0.1244 0.0
O170 O 0.6035 0.82288 0.12265 0.0
O171 O 0.58565 0.78571 0.12264 0.0
C172 C 0.54339 0.86977 0.12789 0.0
C173 C 0.54198 0.80944 0.09062 0.0
C174 C 0.54507 0.80422 0.15779 0.0
O175 O 0.56712 0.86391 0.12667 0.0
O176 O 0.52804 0.8508 0.12736 0.0
O177 O 0.53146 0.79948 0.14384 0.0
O178 O 0.56557 0.81674 0.15473 0.0
C179 C 0.6064 0.79855 0.1222 0.0
O180 O 0.53541 0.796 0.10427 0.0
O181 O 0.55699 0.82803 0.09415 0.0
In182 In 0.18067 0.57276 0.62504 0.0
O183 O 0.20386 0.54522 0.6067 0.0
O184 O 0.18389 0.57682 0.59449 0.0
C185 C 0.19185 0.55693 0.65902 0.0
C186 C 0.20326 0.61966 0.62571 0.0
C187 C 0.13085 0.55729 0.62332 0.0
O188 O 0.20175 0.54632 0.64514 0.0
O189 O 0.17653 0.57534 0.65565 0.0
O190 O 0.13694 0.58087 0.62506 0.0
O191 O 0.14976 0.54196 0.62232 0.0
C192 C 0.1982 0.5573 0.59226 0.0
O193 O 0.17936 0.61699 0.62242 0.0
O194 O 0.21529 0.59885 0.62877 0.0
In195 In 0.43544 0.18108 0.12816 0.0
O196 O 0.46111 0.20361 0.10809 0.0
O197 O 0.43872 0.172 0.0982 0.0
C198 C 0.44825 0.19868 0.16143 0.0
C199 C 0.38891 0.20389 0.12446 0.0
C200 C 0.44973 0.13135 0.13265 0.0
O201 O 0.46284 0.20205 0.14778 0.0
O202 O 0.42751 0.18668 0.15815 0.0
O203 O 0.42632 0.13775 0.13027 0.0
O204 O 0.4655 0.14998 0.13295 0.0
C205 C 0.45469 0.18973 0.09463 0.0
O206 O 0.39113 0.17963 0.12634 0.0
O207 O 0.41002 0.21616 0.12417 0.0
H208 H 0.08472 0.42856 0.12219 0.0
H209 H 0.04012 0.4448 0.12372 0.0
H210 H 0.06742 0.51556 0.14822 0.0
H211 H 0.11189 0.49952 0.1468 0.0
H212 H 0.02217 0.49329 0.1651 0.0
H213 H 0.01309 0.50391 0.08995 0.0
H214 H 0.02326 0.4726 0.09791 0.0
H215 H 0.04395 0.50012 0.10118 0.0
C216 C 0.08116 0.44749 0.12802 0.0
C217 C 0.10178 0.46284 0.13428 0.0
C218 C 0.05573 0.45678 0.12881 0.0
C219 C 0.05059 0.48151 0.13586 0.0
C220 C 0.07104 0.49648 0.14266 0.0
H221 H 0.91322 0.57651 0.12159 0.0
H222 H 0.95776 0.56023 0.12358 0.0
C223 C 0.09642 0.48728 0.14181 0.0
C224 C 0.02399 0.49217 0.13581 0.0
H225 H 0.9758 0.51286 0.10752 0.0
C226 C 0.01197 0.49755 0.15254 0.0
C227 C 0.01099 0.49805 0.11937 0.0
C228 C 0.02347 0.49361 0.10105 0.0
C229 C 0.98704 0.50833 0.15325 0.0
C230 C 0.97383 0.5137 0.13681 0.0
C231 C 0.986 0.50864 0.12009 0.0
C232 C 0.94717 0.52419 0.13661 0.0
C233 C 0.97515 0.51423 0.17156 0.0
C234 C 0.92657 0.5093 0.14329 0.0
C235 C 0.9012 0.51848 0.14212 0.0
C236 C 0.89598 0.54273 0.13423 0.0
C237 C 0.91668 0.55781 0.1278 0.0
C238 C 0.94208 0.54853 0.12889 0.0
H239 H 0.98992 0.51472 0.18256 0.0
H240 H 0.96486 0.5331 0.17128 0.0
H241 H 0.96084 0.49897 0.17497 0.0
H242 H 0.93006 0.4903 0.14903 0.0
H243 H 0.88564 0.50639 0.14715 0.0
H244 H 0.49524 0.88889 0.6471 0.0
H245 H 0.5109 0.93356 0.64684 0.0
H246 H 0.44613 0.95612 0.61338 0.0
H247 H 0.43029 0.91136 0.61352 0.0
H248 H 0.52308 0.96204 0.61343 0.0
H249 H 0.44818 0.00995 0.65621 0.0
H250 H 0.45403 0.97548 0.65698 0.0
H251 H 0.43662 0.98934 0.63821 0.0
C252 C 0.48413 0.90341 0.63987 0.0
C253 C 0.46151 0.89665 0.63033 0.0
C254 C 0.49315 0.92888 0.63971 0.0
C255 C 0.47959 0.94809 0.63018 0.0
C256 C 0.45669 0.94157 0.62098 0.0
H257 H 0.50524 0.11182 0.6126 0.0
H258 H 0.48866 0.06754 0.61303 0.0
C259 C 0.4477 0.91603 0.62105 0.0
C260 C 0.49022 0.97462 0.62912 0.0
H261 H 0.47917 0.037 0.64219 0.0
C262 C 0.51357 0.97847 0.61974 0.0
C263 C 0.47763 0.99592 0.6373 0.0
C264 C 0.4528 0.99261 0.64787 0.0
C265 C 0.52452 0.00322 0.61807 0.0
C266 C 0.51209 0.02454 0.62644 0.0
C267 C 0.48869 0.02064 0.63581 0.0
C268 C 0.52286 0.05113 0.62554 0.0
C269 C 0.54893 0.00634 0.60699 0.0
C270 C 0.54763 0.05664 0.63243 0.0
C271 C 0.55727 0.08194 0.63203 0.0
C272 C 0.54214 0.10219 0.62498 0.0
C273 C 0.51737 0.09661 0.6181 0.0
C274 C 0.50784 0.07133 0.61837 0.0
H275 H 0.55168 0.98998 0.59735 0.0
H276 H 0.54866 0.02469 0.59911 0.0
H277 H 0.56585 0.00675 0.6163 0.0
H278 H 0.55932 0.04148 0.63842 0.0
H279 H 0.57632 0.08572 0.63759 0.0
H280 H 0.11369 0.49221 0.36334 0.0
H281 H 0.06876 0.4774 0.36318 0.0
H282 H 0.0429 0.55502 0.37484 0.0
H283 H 0.08788 0.57009 0.3748 0.0
H284 H 0.03347 0.48034 0.39198 0.0
H285 H 0.99784 0.53382 0.3313 0.0
H286 H 0.03187 0.52965 0.33608 0.0
H287 H 0.01342 0.55363 0.34816 0.0
C288 C 0.09843 0.50619 0.36571 0.0
C289 C 0.10428 0.53234 0.36903 0.0
C290 C 0.07279 0.49768 0.36564 0.0
C291 C 0.05251 0.51515 0.3688 0.0
C292 C 0.05825 0.54131 0.37204 0.0
H293 H 0.88622 0.50023 0.37824 0.0
H294 H 0.93115 0.51506 0.37785 0.0
C295 C 0.08394 0.54987 0.37209 0.0
C296 C 0.02545 0.50571 0.36939 0.0
H297 H 0.96635 0.51201 0.3491 0.0
C298 C 0.01879 0.48716 0.38256 0.0
C299 C 0.0064 0.5147 0.3571 0.0
C300 C 0.0127 0.53388 0.34225 0.0
C301 C 0.99343 0.47764 0.38397 0.0
C302 C 0.97437 0.48662 0.37167 0.0
C303 C 0.98103 0.50517 0.3585 0.0
C304 C 0.9473 0.47723 0.37233 0.0
C305 C 0.98712 0.45853 0.39887 0.0
C306 C 0.94149 0.45104 0.36928 0.0
C307 C 0.91581 0.44247 0.36955 0.0
C308 C 0.89553 0.46002 0.37275 0.0
C309 C 0.90143 0.48623 0.37577 0.0
C310 C 0.92707 0.49475 0.37552 0.0
H311 H 0.00198 0.45864 0.40982 0.0
H312 H 0.96796 0.4628 0.40503 0.0
H313 H 0.9864 0.43876 0.393 0.0
H314 H 0.9568 0.43729 0.36645 0.0
H315 H 0.91183 0.4222 0.36706 0.0
H316 H 0.49296 0.88131 0.87016 0.0
H317 H 0.47731 0.92593 0.86913 0.0
H318 H 0.55522 0.95303 0.86016 0.0
H319 H 0.57106 0.9083 0.86101 0.0
H320 H 0.49204 0.96704 0.89191 0.0
H321 H 0.51354 0.98831 0.81927 0.0
H322 H 0.51277 0.95577 0.82823 0.0
H323 H 0.54043 0.97608 0.83219 0.0
C324 C 0.50678 0.89675 0.86789 0.0
C325 C 0.53325 0.89132 0.86562 0.0
C326 C 0.49779 0.92222 0.86731 0.0
C327 C 0.51504 0.94272 0.86433 0.0
C328 C 0.54152 0.93741 0.86213 0.0
H329 H 0.50069 0.10923 0.8616 0.0
H330 H 0.51508 0.0642 0.8603 0.0
C331 C 0.55055 0.91189 0.86273 0.0
C332 C 0.50534 0.96969 0.86418 0.0
H333 H 0.49967 0.02356 0.83753 0.0
C334 C 0.49357 0.97938 0.88 0.0
C335 C 0.50742 0.9857 0.84862 0.0
C336 C 0.51902 0.97594 0.83104 0.0
C337 C 0.48426 0.00487 0.88082 0.0
C338 C 0.48633 0.02089 0.86526 0.0
C339 C 0.49805 0.01118 0.84941 0.0
C340 C 0.47712 0.04805 0.86535 0.0
C341 C 0.47291 0.01463 0.89848 0.0
C342 C 0.4509 0.05387 0.86827 0.0
C343 C 0.44261 0.07962 0.86907 0.0
C344 C 0.46041 0.09993 0.86685 0.0
C345 C 0.48652 0.094 0.86343 0.0
C346 C 0.49478 0.06829 0.86266 0.0
H347 H 0.47843 0.00219 0.91021 0.0
H348 H 0.47931 0.03475 0.90131 0.0
H349 H 0.45148 0.01461 0.89746 0.0
H350 H 0.43687 0.03849 0.87003 0.0
H351 H 0.42235 0.08362 0.87161 0.0
H352 H 0.91389 0.57437 0.87359 0.0
H353 H 0.95823 0.55747 0.87315 0.0
H354 H 0.92903 0.48102 0.86158 0.0
H355 H 0.88476 0.49766 0.86217 0.0
H356 H 0.96463 0.4826 0.89032 0.0
H357 H 0.00193 0.53409 0.82931 0.0
H358 H 0.98718 0.55466 0.84609 0.0
H359 H 0.9678 0.53124 0.83421 0.0
C360 C 0.91696 0.55402 0.87078 0.0
C361 C 0.89588 0.53735 0.86789 0.0
C362 C 0.94228 0.54442 0.87045 0.0
C363 C 0.94689 0.51805 0.86713 0.0
C364 C 0.92587 0.50144 0.8641 0.0
H365 H 0.08585 0.42139 0.86693 0.0
H366 H 0.04105 0.43701 0.86543 0.0
C367 C 0.90061 0.511 0.86442 0.0
C368 C 0.97351 0.50746 0.86762 0.0
H369 H 0.03277 0.51154 0.84729 0.0
C370 C 0.97952 0.48879 0.88086 0.0
C371 C 0.99282 0.5156 0.85524 0.0
C372 C 0.98715 0.53483 0.84029 0.0
C373 C 0.00456 0.47845 0.88233 0.0
C374 C 0.02392 0.48672 0.87003 0.0
C375 C 0.01786 0.50525 0.8567 0.0
C376 C 0.05084 0.47696 0.87106 0.0
C377 C 0.01024 0.45934 0.89736 0.0
C378 C 0.07115 0.4943 0.87441 0.0
C379 C 0.09665 0.48548 0.87517 0.0
C380 C 0.10235 0.45914 0.87253 0.0
C381 C 0.082 0.44176 0.86915 0.0
C382 C 0.05642 0.45063 0.86836 0.0
H383 H 0.99516 0.45974 0.90815 0.0
H384 H 0.01081 0.43952 0.89156 0.0
H385 H 0.02933 0.46337 0.9037 0.0
H386 H 0.06725 0.51469 0.87648 0.0
H387 H 0.11192 0.49937 0.87776 0.0
H388 H 0.56334 0.0866 0.35694 0.0
H389 H 0.54435 0.04318 0.35684 0.0
H390 H 0.499 0.06283 0.40427 0.0
H391 H 0.51685 0.10664 0.40374 0.0
H392 H 0.54432 0.00449 0.37898 0.0
H393 H 0.44292 0.03728 0.37217 0.0
H394 H 0.4699 0.05919 0.37014 0.0
H395 H 0.45768 0.05027 0.39228 0.0
C396 C 0.54938 0.08157 0.36736 0.0
C397 C 0.54135 0.09998 0.38024 0.0
C398 C 0.53849 0.05679 0.36729 0.0
C399 C 0.51965 0.04991 0.38024 0.0
C400 C 0.51271 0.06793 0.39371 0.0
H401 H 0.47799 0.88964 0.40163 0.0
H402 H 0.49561 0.93351 0.40274 0.0
C403 C 0.52314 0.09287 0.39353 0.0
C404 C 0.50742 0.02387 0.37968 0.0
H405 H 0.44905 0.99283 0.37989 0.0
C406 C 0.52348 0.00197 0.37906 0.0
C407 C 0.4802 0.0205 0.37937 0.0
C408 C 0.4617 0.04308 0.37832 0.0
C409 C 0.51316 0.97686 0.37842 0.0
C410 C 0.48596 0.97346 0.37925 0.0
C411 C 0.46989 0.99536 0.37957 0.0
C412 C 0.47379 0.94739 0.3795 0.0
C413 C 0.53159 0.95438 0.37634 0.0
C414 C 0.45437 0.94099 0.36685 0.0
C415 C 0.44361 0.91614 0.36661 0.0
C416 C 0.45238 0.8972 0.37886 0.0
C417 C 0.47115 0.90383 0.39188 0.0
C418 C 0.48143 0.92881 0.39239 0.0
H419 H 0.55005 0.96051 0.36987 0.0
H420 H 0.53634 0.94651 0.39 0.0
H421 H 0.523 0.93867 0.36798 0.0
H422 H 0.44796 0.95504 0.35687 0.0
H423 H 0.42919 0.91147 0.35642 0.0
H424 H 0.91649 0.43029 0.62453 0.0
H425 H 0.96068 0.44772 0.6241 0.0
H426 H 0.93041 0.525 0.63037 0.0
H427 H 0.8864 0.5078 0.63101 0.0
H428 H 0.98133 0.48427 0.59936 0.0
H429 H 0.98545 0.52056 0.67051 0.0
H430 H 0.96125 0.4978 0.66288 0.0
H431 H 0.95793 0.53166 0.65776 0.0
C432 C 0.9193 0.45097 0.62597 0.0
C433 C 0.89801 0.46767 0.62789 0.0
C434 C 0.94451 0.46089 0.62569 0.0
C435 C 0.9488 0.48761 0.62746 0.0
C436 C 0.92756 0.50428 0.62935 0.0
H437 H 0.0862 0.58566 0.62652 0.0
H438 H 0.04159 0.56924 0.62664 0.0
C439 C 0.90241 0.49441 0.62962 0.0
C440 C 0.97541 0.49824 0.62668 0.0
H441 H 0.01981 0.53304 0.65092 0.0
C442 C 0.98982 0.49482 0.61066 0.0
C443 C 0.98632 0.51214 0.6414 0.0
C444 C 0.97207 0.51561 0.65918 0.0
C445 C 0.01478 0.50523 0.60886 0.0
C446 C 0.02575 0.51904 0.62361 0.0
C447 C 0.01129 0.52255 0.63961 0.0
C448 C 0.05257 0.52916 0.62297 0.0
C449 C 0.02902 0.50176 0.59107 0.0
C450 C 0.07344 0.51204 0.62103 0.0
C451 C 0.0988 0.52133 0.62093 0.0
C452 C 0.10382 0.54793 0.62291 0.0
C453 C 0.0829 0.56509 0.6249 0.0
C454 C 0.05746 0.55575 0.625 0.0
H455 H 0.01554 0.49732 0.57969 0.0
H456 H 0.04026 0.51937 0.58752 0.0
H457 H 0.04274 0.48534 0.59236 0.0
H458 H 0.07014 0.49141 0.61984 0.0
H459 H 0.1145 0.50758 0.61948 0.0
H460 H 0.42028 0.08725 0.13158 0.0
H461 H 0.43567 0.04233 0.13276 0.0
H462 H 0.51429 0.06945 0.13781 0.0
H463 H 0.49911 0.11415 0.13696 0.0
H464 H 0.46936 0.01874 0.10868 0.0
H465 H 0.51003 0.01641 0.17856 0.0
H466 H 0.48851 0.04169 0.1709 0.0
H467 H 0.52229 0.04257 0.16499 0.0
C468 C 0.4408 0.08359 0.13316 0.0
C469 C 0.45847 0.1042 0.13424 0.0
C470 C 0.44956 0.05796 0.13381 0.0
C471 C 0.47608 0.05256 0.13566 0.0
C472 C 0.4937 0.07314 0.13683 0.0
H473 H 0.57193 0.91445 0.12969 0.0
H474 H 0.55547 0.95897 0.13166 0.0
C475 C 0.48498 0.09869 0.13621 0.0
C476 C 0.48559 0.02549 0.13528 0.0
H477 H 0.5214 0.98128 0.15902 0.0
C478 C 0.48053 0.01046 0.11975 0.0
C479 C 0.50032 0.0148 0.1497 0.0
C480 C 0.50542 0.02961 0.16706 0.0
C481 C 0.49023 0.98521 0.1181 0.0
C482 C 0.50509 0.97461 0.13245 0.0
C483 C 0.5101 0.98956 0.14801 0.0
C484 C 0.51512 0.94779 0.13168 0.0
C485 C 0.48496 0.97024 0.10083 0.0
C486 C 0.49787 0.92686 0.13135 0.0
C487 C 0.50717 0.90155 0.13024 0.0
C488 C 0.53392 0.89667 0.12951 0.0
C489 C 0.55122 0.91764 0.13016 0.0
C490 C 0.54187 0.94303 0.13132 0.0
H491 H 0.47872 0.98311 0.08953 0.0
H492 H 0.50243 0.95938 0.09644 0.0
H493 H 0.46926 0.95605 0.10339 0.0
H494 H 0.47717 0.93013 0.13193 0.0
H495 H 0.49334 0.88581 0.12987 0.0
H496 H 0.2181 0.49138 0.3315 0.0
H497 H 0.22731 0.47536 0.30071 0.0
H498 H 0.21195 0.55124 0.27878 0.0
H499 H 0.20267 0.56735 0.3094 0.0
H500 H 0.18841 0.47837 0.27272 0.0
H501 H 0.27925 0.52782 0.25225 0.0
H502 H 0.2699 0.52357 0.2758 0.0
H503 H 0.2551 0.54846 0.26226 0.0
C504 C 0.21719 0.50474 0.32015 0.0
C505 C 0.20956 0.53057 0.32281 0.0
C506 C 0.22247 0.49558 0.3026 0.0
C507 C 0.2206 0.51221 0.28754 0.0
C508 C 0.21398 0.53824 0.29027 0.0
H509 H 0.20837 0.50335 0.1712 0.0
H510 H 0.21648 0.5161 0.20286 0.0
C511 C 0.20849 0.54735 0.30775 0.0
C512 C 0.22235 0.50181 0.26881 0.0
H513 H 0.25472 0.50801 0.22848 0.0
C514 C 0.20312 0.4845 0.26309 0.0
C515 C 0.24138 0.5102 0.2563 0.0
C516 C 0.26274 0.52839 0.26194 0.0
C517 C 0.20178 0.47603 0.24498 0.0
C518 C 0.22074 0.48449 0.23237 0.0
C519 C 0.2403 0.50146 0.23818 0.0
C520 C 0.21965 0.47683 0.21292 0.0
C521 C 0.17934 0.45907 0.23937 0.0
C522 C 0.21986 0.4506 0.20796 0.0
C523 C 0.21485 0.44331 0.18999 0.0
C524 C 0.21013 0.46214 0.1766 0.0
C525 C 0.2119 0.48844 0.18128 0.0
C526 C 0.21654 0.49573 0.19934 0.0
H527 H 0.16317 0.46002 0.24934 0.0
H528 H 0.17181 0.46476 0.22578 0.0
H529 H 0.18591 0.43866 0.23862 0.0
H530 H 0.22293 0.43573 0.21814 0.0
H531 H 0.21392 0.42289 0.1867 0.0
H532 H 0.55738 0.16726 0.69242 0.0
H533 H 0.53853 0.17566 0.72233 0.0
H534 H 0.49174 0.23669 0.69952 0.0
H535 H 0.51061 0.22838 0.66931 0.0
H536 H 0.51972 0.24709 0.73547 0.0
H537 H 0.46006 0.1577 0.73356 0.0
H538 H 0.49351 0.15333 0.72754 0.0
H539 H 0.47295 0.17268 0.71325 0.0
C540 C 0.54315 0.18254 0.69373 0.0
C541 C 0.53532 0.19706 0.6785 0.0
C542 C 0.53242 0.1873 0.71082 0.0
C543 C 0.51367 0.20663 0.71303 0.0
C544 C 0.5062 0.22166 0.698 0.0
H545 H 0.42092 0.20365 0.81159 0.0
H546 H 0.43412 0.21148 0.78012 0.0
C547 C 0.5169 0.21683 0.6808 0.0
C548 C 0.50139 0.21022 0.73102 0.0
H549 H 0.46461 0.17831 0.76229 0.0
C550 C 0.50737 0.23229 0.74132 0.0
C551 C 0.4851 0.19098 0.73843 0.0
C552 C 0.47728 0.16741 0.7276 0.0
C553 C 0.49826 0.23507 0.75927 0.0
C554 C 0.48311 0.2151 0.76704 0.0
C555 C 0.47632 0.19358 0.75638 0.0
C556 C 0.47488 0.21523 0.78638 0.0
C557 C 0.50501 0.25926 0.76974 0.0
C558 C 0.49334 0.2154 0.80044 0.0
C559 C 0.4858 0.21112 0.8185 0.0
C560 C 0.45974 0.2062 0.8227 0.0
C561 C 0.44118 0.20723 0.80873 0.0
C562 C 0.44868 0.21174 0.79075 0.0
H563 H 0.50935 0.27564 0.76042 0.0
H564 H 0.48903 0.26502 0.77901 0.0
H565 H 0.52253 0.25556 0.77809 0.0
H566 H 0.51373 0.21747 0.79735 0.0
H567 H 0.50051 0.21029 0.829 0.0
H568 H 0.79206 0.58304 0.18798 0.0
H569 H 0.78537 0.5689 0.21942 0.0
H570 H 0.77686 0.49007 0.20108 0.0
H571 H 0.78309 0.50414 0.16948 0.0
H572 H 0.74338 0.50474 0.2313 0.0
H573 H 0.84713 0.52926 0.24214 0.0
H574 H 0.82725 0.55524 0.23384 0.0
H575 H 0.83287 0.52736 0.21975 0.0
C576 C 0.78822 0.56277 0.1906 0.0
C577 C 0.78847 0.54461 0.17634 0.0
C578 C 0.78443 0.55474 0.20855 0.0
C579 C 0.78112 0.52842 0.21255 0.0
C580 C 0.77946 0.51048 0.19823 0.0
H581 H 0.82607 0.44161 0.30588 0.0
H582 H 0.81727 0.45968 0.27581 0.0
C583 C 0.78307 0.51853 0.18022 0.0
C584 C 0.78243 0.51924 0.2316 0.0
H585 H 0.82416 0.51326 0.26738 0.0
C586 C 0.76093 0.50673 0.23929 0.0
C587 C 0.80553 0.52163 0.24183 0.0
C588 C 0.82962 0.53389 0.23398 0.0
C589 C 0.762 0.49641 0.257 0.0
C590 C 0.7851 0.49886 0.26717 0.0
C591 C 0.80645 0.5116 0.25953 0.0
C592 C 0.78842 0.48686 0.28529 0.0
C593 C 0.73883 0.48226 0.26453 0.0
C594 C 0.77498 0.49615 0.30057 0.0
C595 C 0.78003 0.48587 0.31787 0.0
C596 C 0.79864 0.46625 0.32006 0.0
C597 C 0.81167 0.45675 0.30464 0.0
C598 C 0.80665 0.46701 0.28745 0.0
H599 H 0.72392 0.47862 0.25392 0.0
H600 H 0.74483 0.46346 0.27053 0.0
H601 H 0.72994 0.49399 0.27553 0.0
H602 H 0.7611 0.51174 0.29918 0.0
H603 H 0.76973 0.49355 0.32953 0.0
H604 H 0.49715 0.76996 0.82716 0.0
H605 H 0.48146 0.75769 0.79673 0.0
H606 H 0.54926 0.79213 0.77251 0.0
H607 H 0.5649 0.80449 0.80265 0.0
H608 H 0.47227 0.79506 0.76838 0.0
H609 H 0.54331 0.72071 0.74695 0.0
H610 H 0.5379 0.72913 0.77056 0.0
H611 H 0.55778 0.74936 0.75636 0.0
C612 C 0.50882 0.77459 0.81534 0.0
C613 C 0.53219 0.78825 0.81724 0.0
C614 C 0.49988 0.76754 0.79802 0.0
C615 C 0.51443 0.77365 0.78244 0.0
C616 C 0.53802 0.78676 0.78439 0.0
H617 H 0.50755 0.79315 0.6686 0.0
H618 H 0.51924 0.78357 0.70017 0.0
C619 C 0.54681 0.79401 0.80161 0.0
C620 C 0.50402 0.76889 0.76398 0.0
H621 H 0.51908 0.74128 0.72307 0.0
C622 C 0.48211 0.78288 0.75853 0.0
C623 C 0.51708 0.75312 0.75121 0.0
C624 C 0.5402 0.73702 0.75657 0.0
C625 C 0.47381 0.78282 0.74033 0.0
C626 C 0.48742 0.76773 0.72736 0.0
C627 C 0.50866 0.75279 0.73302 0.0
C628 C 0.48133 0.76921 0.70765 0.0
C629 C 0.45158 0.80023 0.735 0.0
C630 C 0.45652 0.76315 0.70115 0.0
C631 C 0.44971 0.76892 0.68318 0.0
C632 C 0.46777 0.78038 0.67134 0.0
C633 C 0.49322 0.78438 0.67743 0.0
C634 C 0.49992 0.77891 0.69547 0.0
H635 H 0.44713 0.81474 0.74573 0.0
H636 H 0.4559 0.81068 0.72213 0.0
H637 H 0.43398 0.78832 0.73283 0.0
H638 H 0.44209 0.75502 0.71019 0.0
H639 H 0.43001 0.76538 0.67877 0.0
H640 H 0.7788 0.5028 0.8302 0.0
H641 H 0.77245 0.48705 0.79895 0.0
H642 H 0.79745 0.56081 0.77791 0.0
H643 H 0.80398 0.57664 0.80894 0.0
H644 H 0.74395 0.50918 0.76568 0.0
H645 H 0.85132 0.50382 0.76061 0.0
H646 H 0.83466 0.50583 0.78219 0.0
H647 H 0.83821 0.53417 0.76827 0.0
C648 C 0.78242 0.51581 0.81891 0.0
C649 C 0.79221 0.54082 0.82197 0.0
C650 C 0.77873 0.50681 0.80111 0.0
C651 C 0.78475 0.52274 0.78622 0.0
C652 C 0.79289 0.54823 0.78927 0.0
H653 H 0.77752 0.4982 0.66904 0.0
H654 H 0.76927 0.51376 0.70011 0.0
C655 C 0.79664 0.5572 0.807 0.0
C656 C 0.78543 0.51196 0.76759 0.0
H657 H 0.82757 0.49458 0.734 0.0
C658 C 0.76217 0.50593 0.7587 0.0
C659 C 0.80929 0.50757 0.7587 0.0
C660 C 0.83485 0.51297 0.76792 0.0
C661 C 0.76221 0.49585 0.74089 0.0
C662 C 0.78609 0.49191 0.73191 0.0
C663 C 0.80929 0.49774 0.74093 0.0
C664 C 0.78786 0.48121 0.71327 0.0
C665 C 0.73685 0.48912 0.73191 0.0
C666 C 0.80093 0.45778 0.71044 0.0
C667 C 0.80579 0.44899 0.69281 0.0
C668 C 0.79778 0.46354 0.67766 0.0
C669 C 0.78388 0.48659 0.68048 0.0
C670 C 0.77902 0.49541 0.69819 0.0
H671 H 0.72067 0.48844 0.74187 0.0
H672 H 0.73222 0.50398 0.72149 0.0
H673 H 0.7382 0.47012 0.7249 0.0
H674 H 0.808 0.44662 0.72191 0.0
H675 H 0.81646 0.4311 0.69108 0.0
H676 H 0.43572 0.83338 0.30837 0.0
H677 H 0.45317 0.82637 0.27792 0.0
H678 H 0.50614 0.76938 0.29922 0.0
H679 H 0.4884 0.77606 0.32994 0.0
H680 H 0.50415 0.83449 0.26778 0.0
H681 H 0.47363 0.73298 0.25454 0.0
H682 H 0.45955 0.75247 0.27241 0.0
H683 H 0.49104 0.73844 0.27541 0.0
C684 C 0.45097 0.81921 0.30661 0.0
C685 C 0.46075 0.80529 0.32155 0.0
C686 C 0.46089 0.81521 0.28918 0.0
C687 C 0.48075 0.79719 0.28629 0.0
C688 C 0.49049 0.78305 0.30113 0.0
H689 H 0.57483 0.80508 0.18828 0.0
H690 H 0.56061 0.79988 0.21981 0.0
C691 C 0.48049 0.78701 0.31866 0.0
C692 C 0.49205 0.79463 0.26785 0.0
H693 H 0.4992 0.75326 0.23188 0.0
C694 C 0.50319 0.81669 0.25995 0.0
C695 C 0.49049 0.77145 0.25766 0.0
C696 C 0.47787 0.74749 0.26531 0.0
C697 C 0.51259 0.81635 0.24206 0.0
C698 C 0.51134 0.79311 0.2319 0.0
C699 C 0.50031 0.77095 0.23979 0.0
C700 C 0.52069 0.792 0.21286 0.0
C701 C 0.52305 0.84114 0.23401 0.0
C702 C 0.50322 0.7879 0.19849 0.0
C703 C 0.51136 0.79059 0.1804 0.0
C704 C 0.53707 0.79752 0.1765 0.0
C705 C 0.55482 0.80007 0.1909 0.0
C706 C 0.54673 0.79715 0.20891 0.0
H707 H 0.51689 0.8584 0.24194 0.0
H708 H 0.54451 0.84048 0.23411 0.0
H709 H 0.51655 0.84358 0.21969 0.0
H710 H 0.48304 0.78381 0.2013 0.0
H711 H 0.49731 0.78845 0.16956 0.0
H712 H 0.21617 0.49946 0.83032 0.0
H713 H 0.22062 0.5181 0.79969 0.0
H714 H 0.18545 0.44992 0.77655 0.0
H715 H 0.18057 0.43142 0.80696 0.0
H716 H 0.24457 0.49971 0.76658 0.0
H717 H 0.13796 0.50991 0.7605 0.0
H718 H 0.15381 0.50355 0.78194 0.0
H719 H 0.14852 0.47773 0.76595 0.0
C720 C 0.20964 0.48838 0.81866 0.0
C721 C 0.19772 0.46416 0.82101 0.0
C722 C 0.21223 0.49901 0.80121 0.0
C723 C 0.20295 0.48554 0.78595 0.0
C724 C 0.19229 0.4608 0.78821 0.0
H725 H 0.21948 0.5145 0.67007 0.0
H726 H 0.22459 0.49844 0.7013 0.0
C727 C 0.18957 0.45026 0.80559 0.0
C728 C 0.20298 0.49776 0.76773 0.0
H729 H 0.16253 0.51745 0.73374 0.0
C730 C 0.22668 0.50374 0.75939 0.0
C731 C 0.17957 0.5033 0.75855 0.0
C732 C 0.1535 0.49854 0.76723 0.0
C733 C 0.22756 0.5146 0.74184 0.0
C734 C 0.20413 0.51923 0.73241 0.0
C735 C 0.18047 0.5137 0.74095 0.0
C736 C 0.20339 0.53 0.71372 0.0
C737 C 0.25347 0.52132 0.73364 0.0
C738 C 0.18964 0.55291 0.71036 0.0
C739 C 0.18645 0.56191 0.69259 0.0
C740 C 0.19693 0.54814 0.67782 0.0
C741 C 0.21128 0.52554 0.68121 0.0
C742 C 0.21437 0.51646 0.69904 0.0
H743 H 0.26875 0.52298 0.74422 0.0
H744 H 0.25929 0.50581 0.72401 0.0
H745 H 0.25244 0.5398 0.72595 0.0
H746 H 0.18093 0.56358 0.72149 0.0
H747 H 0.17536 0.57943 0.69041 0.0
H748 H 0.50678 0.22694 0.33381 0.0
H749 H 0.48731 0.23551 0.30381 0.0
H750 H 0.52766 0.16966 0.28153 0.0
H751 H 0.54692 0.16091 0.31121 0.0
H752 H 0.5131 0.24392 0.26873 0.0
H753 H 0.45024 0.15699 0.26937 0.0
H754 H 0.46477 0.17005 0.28978 0.0
H755 H 0.48349 0.15011 0.27462 0.0
C756 C 0.51139 0.21429 0.3225 0.0
C757 C 0.52819 0.19315 0.32486 0.0
C758 C 0.50036 0.21926 0.30541 0.0
C759 C 0.50586 0.20301 0.29058 0.0
C760 C 0.52291 0.18218 0.29289 0.0
H761 H 0.49627 0.21085 0.17456 0.0
H762 H 0.50841 0.21674 0.20656 0.0
C763 C 0.53392 0.17725 0.30986 0.0
C764 C 0.49383 0.20737 0.27257 0.0
H765 H 0.45724 0.17696 0.24047 0.0
C766 C 0.50055 0.22953 0.26258 0.0
C767 C 0.47721 0.18873 0.26475 0.0
C768 C 0.46827 0.16524 0.27524 0.0
C769 C 0.492 0.23291 0.24455 0.0
C770 C 0.47674 0.2134 0.23634 0.0
C771 C 0.4691 0.19186 0.24669 0.0
C772 C 0.46919 0.21404 0.21685 0.0
C773 C 0.4995 0.25723 0.2345 0.0
C774 C 0.44317 0.2106 0.21197 0.0
C775 C 0.43631 0.20672 0.19379 0.0
C776 C 0.45533 0.20637 0.18012 0.0
C777 C 0.48122 0.2112 0.18484 0.0
C778 C 0.48814 0.21475 0.2031 0.0
H779 H 0.50343 0.2734 0.24409 0.0
H780 H 0.51747 0.25358 0.22663 0.0
H781 H 0.48411 0.26333 0.22485 0.0
H782 H 0.42824 0.20994 0.22233 0.0
H783 H 0.41617 0.20319 0.19052 0.0
H784 H 0.21778 0.49375 0.91839 0.0
H785 H 0.22692 0.50574 0.95021 0.0
H786 H 0.19721 0.43201 0.96813 0.0
H787 H 0.18803 0.42003 0.93669 0.0
H788 H 0.18906 0.50832 0.97866 0.0
H789 H 0.26667 0.43868 0.99544 0.0
H790 H 0.25861 0.4474 0.97226 0.0
H791 H 0.23992 0.42335 0.98418 0.0
C792 C 0.21355 0.48003 0.92914 0.0
C793 C 0.2022 0.45597 0.92509 0.0
C794 C 0.21876 0.48689 0.94725 0.0
C795 C 0.21312 0.46958 0.96145 0.0
C796 C 0.20221 0.44543 0.95734 0.0
H797 H 0.15508 0.46358 0.065 0.0
H798 H 0.16531 0.47293 0.03328 0.0
C799 C 0.1968 0.43869 0.93937 0.0
C800 C 0.21644 0.47702 0.98078 0.0
H801 H 0.24023 0.45331 0.02076 0.0
C802 C 0.20079 0.4968 0.98785 0.0
C803 C 0.23209 0.4623 0.99271 0.0
C804 C 0.25049 0.44192 0.98573 0.0
C805 C 0.19855 0.5006 0.00673 0.0
C806 C 0.21207 0.48396 0.01872 0.0
C807 C 0.2296 0.46587 0.01157 0.0
C808 C 0.20552 0.48227 0.03834 0.0
C809 C 0.18086 0.52162 0.01365 0.0
C810 C 0.22476 0.48433 0.05178 0.0
C811 C 0.21894 0.47888 0.07003 0.0
C812 C 0.1939 0.47091 0.07499 0.0
C813 C 0.17454 0.46971 0.06159 0.0
C814 C 0.18031 0.47529 0.04346 0.0
H815 H 0.17971 0.53792 0.00381 0.0
H816 H 0.16106 0.51366 0.01532 0.0
H817 H 0.18748 0.5292 0.02703 0.0
H818 H 0.24441 0.4894 0.04807 0.0
H819 H 0.23426 0.47985 0.08008 0.0
H820 H 0.50806 0.21548 0.42128 0.0
H821 H 0.49926 0.22792 0.45303 0.0
H822 H 0.57952 0.21508 0.46643 0.0
H823 H 0.58838 0.2028 0.43502 0.0
H824 H 0.50675 0.19512 0.4827 0.0
H825 H 0.56477 0.28379 0.49164 0.0
H826 H 0.55536 0.27188 0.46944 0.0
H827 H 0.58343 0.2589 0.4808 0.0
C828 C 0.52387 0.21582 0.43097 0.0
C829 C 0.54889 0.20814 0.42572 0.0
C830 C 0.51882 0.22293 0.44905 0.0
C831 C 0.53883 0.22286 0.462 0.0
C832 C 0.56392 0.2159 0.45659 0.0
H833 H 0.5869 0.19357 0.56483 0.0
H834 H 0.57719 0.20558 0.53345 0.0
C835 C 0.56891 0.20864 0.43865 0.0
C836 C 0.53351 0.22703 0.48161 0.0
H837 H 0.55915 0.25703 0.51886 0.0
C838 C 0.51747 0.20923 0.49062 0.0
C839 C 0.54738 0.24556 0.49188 0.0
C840 C 0.56347 0.26629 0.48289 0.0
C841 C 0.51705 0.20777 0.50973 0.0
C842 C 0.53293 0.22468 0.51993 0.0
C843 C 0.54713 0.24397 0.51096 0.0
C844 C 0.53863 0.21959 0.53933 0.0
C845 C 0.50143 0.18678 0.51884 0.0
C846 C 0.52022 0.22386 0.55307 0.0
C847 C 0.52577 0.21705 0.57115 0.0
C848 C 0.54972 0.20575 0.5756 0.0
C849 C 0.56823 0.2021 0.56182 0.0
C850 C 0.56276 0.20905 0.54389 0.0
H851 H 0.49085 0.17456 0.50886 0.0
H852 H 0.51435 0.17418 0.52706 0.0
H853 H 0.48715 0.19564 0.52826 0.0
H854 H 0.50152 0.23209 0.54977 0.0
H855 H 0.51118 0.22009 0.58152 0.0
H856 H 0.76592 0.52233 0.07959 0.0
H857 H 0.75779 0.5091 0.04791 0.0
H858 H 0.83699 0.52698 0.03423 0.0
H859 H 0.8452 0.54001 0.06557 0.0
H860 H 0.76285 0.54214 0.01829 0.0
H861 H 0.82665 0.4576 0.00903 0.0
H862 H 0.81676 0.4689 0.03128 0.0
H863 H 0.84374 0.4837 0.01972 0.0
C864 C 0.78168 0.52291 0.06986 0.0
C865 C 0.80618 0.53224 0.075 0.0
C866 C 0.77701 0.51536 0.05182 0.0
C867 C 0.79691 0.51663 0.03881 0.0
C868 C 0.82153 0.5252 0.04413 0.0
H869 H 0.84205 0.54844 0.93561 0.0
H870 H 0.8336 0.53572 0.96702 0.0
C871 C 0.82614 0.53289 0.06203 0.0
C872 C 0.79172 0.51212 0.01923 0.0
H873 H 0.81895 0.48392 0.98184 0.0
C874 C 0.77442 0.5288 0.0103 0.0
C875 C 0.80672 0.49458 0.00888 0.0
C876 C 0.8243 0.475 0.01777 0.0
C877 C 0.77372 0.53024 0.99121 0.0
C878 C 0.79059 0.51443 0.98091 0.0
C879 C 0.80617 0.49614 0.98981 0.0
C880 C 0.79569 0.51983 0.96147 0.0
C881 C 0.75663 0.55016 0.9822 0.0
C882 C 0.77724 0.51474 0.9479 0.0
C883 C 0.78205 0.52198 0.92981 0.0
C884 C 0.8053 0.53452 0.92517 0.0
C885 C 0.8239 0.53895 0.93877 0.0
C886 C 0.81917 0.53159 0.95671 0.0
H887 H 0.74562 0.56187 0.99226 0.0
H888 H 0.76853 0.5634 0.97372 0.0
H889 H 0.74263 0.54035 0.97305 0.0
H890 H 0.75905 0.50555 0.95135 0.0
H891 H 0.76741 0.51831 0.91957 0.0
H892 H 0.44737 0.75905 0.57366 0.0
H893 H 0.45378 0.75211 0.54106 0.0
H894 H 0.50904 0.81472 0.53977 0.0
H895 H 0.50186 0.82238 0.57223 0.0
H896 H 0.47168 0.8233 0.51693 0.0
H897 H 0.50489 0.72304 0.50555 0.0
H898 H 0.47683 0.72366 0.5199 0.0
H899 H 0.50647 0.73839 0.52764 0.0
C900 C 0.4615 0.77078 0.56653 0.0
C901 C 0.47393 0.79142 0.5754 0.0
C902 C 0.46531 0.76667 0.54789 0.0
C903 C 0.48203 0.78278 0.53792 0.0
C904 C 0.49605 0.80203 0.54716 0.0
H905 H 0.49034 0.78522 0.41778 0.0
H906 H 0.50315 0.77835 0.4497 0.0
C907 C 0.49193 0.8064 0.5657 0.0
C908 C 0.48132 0.78269 0.51769 0.0
H909 H 0.48231 0.74341 0.48019 0.0
C910 C 0.47458 0.8059 0.50892 0.0
C911 C 0.48515 0.76006 0.50713 0.0
C912 C 0.49401 0.73497 0.51555 0.0
C913 C 0.47036 0.80684 0.49011 0.0
C914 C 0.47238 0.78387 0.47978 0.0
C915 C 0.48041 0.7609 0.48825 0.0
C916 C 0.4645 0.78352 0.46042 0.0
C917 C 0.46307 0.83236 0.48149 0.0
C918 C 0.43847 0.78775 0.45597 0.0
C919 C 0.43118 0.79183 0.43791 0.0
C920 C 0.44979 0.79155 0.42396 0.0
C921 C 0.47563 0.78556 0.42829 0.0
C922 C 0.48295 0.78161 0.44646 0.0
H923 H 0.46867 0.84902 0.4902 0.0
H924 H 0.4724 0.83459 0.46795 0.0
H925 H 0.44178 0.83302 0.47952 0.0
H926 H 0.42394 0.78905 0.46658 0.0
H927 H 0.41109 0.79615 0.43498 0.0
H928 H 0.23861 0.518 0.41971 0.0
H929 H 0.24968 0.50912 0.45169 0.0
H930 H 0.17196 0.52943 0.46771 0.0
H931 H 0.16085 0.53818 0.43607 0.0
H932 H 0.24784 0.54604 0.4789 0.0
H933 H 0.18475 0.46408 0.49737 0.0
H934 H 0.19243 0.47196 0.47398 0.0
H935 H 0.16667 0.48861 0.48568 0.0
C936 C 0.2238 0.52002 0.43005 0.0
C937 C 0.1989 0.52883 0.42544 0.0
C938 C 0.23014 0.51495 0.44827 0.0
C939 C 0.21152 0.51818 0.46203 0.0
C940 C 0.18645 0.52616 0.45729 0.0
H941 H 0.19536 0.58523 0.56111 0.0
H942 H 0.20608 0.57134 0.53033 0.0
C943 C 0.18019 0.5314 0.4392 0.0
C944 C 0.2186 0.51652 0.48154 0.0
H945 H 0.19493 0.49437 0.52202 0.0
C946 C 0.23685 0.53417 0.48833 0.0
C947 C 0.20467 0.50071 0.49384 0.0
C948 C 0.18625 0.48007 0.4873 0.0
C949 C 0.23953 0.53831 0.50712 0.0
C950 C 0.22331 0.52469 0.51932 0.0
C951 C 0.20708 0.50511 0.51263 0.0
C952 C 0.21969 0.53339 0.53836 0.0
C953 C 0.25867 0.55825 0.5137 0.0
C954 C 0.22353 0.51654 0.55312 0.0
C955 C 0.21738 0.52449 0.57087 0.0
C956 C 0.20686 0.54921 0.57396 0.0
C957 C 0.20343 0.56607 0.55916 0.0
C958 C 0.20977 0.55824 0.54156 0.0
H959 H 0.27526 0.56 0.50415 0.0
H960 H 0.24899 0.5774 0.5144 0.0
H961 H 0.26613 0.55337 0.52747 0.0
H962 H 0.23087 0.49716 0.55088 0.0
H963 H 0.22011 0.51108 0.58205 0.0
H964 H 0.45152 0.15454 0.93629 0.0
H965 H 0.46342 0.1631 0.96783 0.0
H966 H 0.49682 0.23624 0.95205 0.0
H967 H 0.48473 0.22781 0.92016 0.0
H968 H 0.51346 0.17462 0.9838 0.0
H969 H 0.44144 0.25438 0.99156 0.0
H970 H 0.43972 0.23182 0.97283 0.0
H971 H 0.46457 0.25604 0.97324 0.0
C972 C 0.46155 0.17239 0.93945 0.0
C973 C 0.46703 0.1906 0.92578 0.0
C974 C 0.46842 0.17721 0.95749 0.0
C975 C 0.4808 0.20037 0.96227 0.0
C976 C 0.48704 0.21835 0.94862 0.0
H977 H 0.48065 0.23185 0.08081 0.0
H978 H 0.49418 0.23859 0.04896 0.0
C979 C 0.48022 0.21348 0.93045 0.0
C980 C 0.48573 0.20561 0.98179 0.0
H981 H 0.45924 0.23698 0.01822 0.0
C982 C 0.50214 0.18873 0.99131 0.0
C983 C 0.47109 0.22416 0.99152 0.0
C984 C 0.4531 0.24266 0.98188 0.0
C985 C 0.50281 0.1886 0.01041 0.0
C986 C 0.48639 0.20553 0.02016 0.0
C987 C 0.47174 0.22398 0.01065 0.0
C988 C 0.48061 0.20124 0.03967 0.0
C989 C 0.52004 0.16939 0.02001 0.0
C990 C 0.46838 0.17817 0.04485 0.0
C991 C 0.46045 0.17444 0.06279 0.0
C992 C 0.46461 0.19369 0.07597 0.0
C993 C 0.47731 0.21666 0.07091 0.0
C994 C 0.48504 0.22053 0.05279 0.0
H995 H 0.5371 0.16431 0.01151 0.0
H996 H 0.52687 0.17708 0.0333 0.0
H997 H 0.50898 0.15135 0.02258 0.0
H998 H 0.46429 0.16328 0.03486 0.0
H999 H 0.45073 0.15653 0.06627 0.0
H1000 H 0.78056 0.495 0.41701 0.0
H1001 H 0.77164 0.50689 0.44887 0.0
H1002 H 0.79695 0.43129 0.46628 0.0
H1003 H 0.8058 0.41934 0.43478 0.0
H1004 H 0.74975 0.45097 0.48365 0.0
H1005 H 0.83338 0.51926 0.4852 0.0
H1006 H 0.80923 0.5228 0.46767 0.0
H1007 H 0.83022 0.49516 0.46753 0.0
C1008 C 0.7839 0.48087 0.42765 0.0
C1009 C 0.79408 0.45633 0.42346 0.0
C1010 C 0.77886 0.4877 0.4458 0.0
C1011 C 0.78381 0.46999 0.45988 0.0
C1012 C 0.79296 0.44519 0.45559 0.0
H1013 H 0.838 0.4462 0.56181 0.0
H1014 H 0.82694 0.45609 0.53032 0.0
C1015 C 0.79813 0.43845 0.43758 0.0
C1016 C 0.78143 0.47726 0.47929 0.0
H1017 H 0.81595 0.50636 0.5132 0.0
C1018 C 0.76366 0.4637 0.49015 0.0
C1019 C 0.79971 0.49382 0.48762 0.0
C1020 C 0.81934 0.50862 0.47652 0.0
C1021 C 0.76497 0.46474 0.50924 0.0
C1022 C 0.78451 0.4798 0.51756 0.0
C1023 C 0.80095 0.49492 0.5067 0.0
C1024 C 0.79138 0.47612 0.53693 0.0
C1025 C 0.74694 0.44807 0.52036 0.0
C1026 C 0.77516 0.48446 0.55111 0.0
C1027 C 0.78149 0.47882 0.56927 0.0
C1028 C 0.80403 0.46468 0.57336 0.0
C1029 C 0.82045 0.45701 0.5591 0.0
C1030 C 0.81422 0.46274 0.5411 0.0
H1031 H 0.73374 0.43638 0.5117 0.0
H1032 H 0.75829 0.43476 0.52916 0.0
H1033 H 0.73505 0.46051 0.5294 0.0
H1034 H 0.75752 0.49495 0.54813 0.0
H1035 H 0.76852 0.48499 0.58001 0.0
H1036 H 0.54619 0.84099 0.06129 0.0
H1037 H 0.53599 0.83111 0.02964 0.0
H1038 H 0.50924 0.75527 0.04537 0.0
H1039 H 0.51937 0.76516 0.07739 0.0
H1040 H 0.54678 0.75596 0.0168 0.0
H1041 H 0.46661 0.82377 0.00229 0.0
H1042 H 0.49298 0.83925 0.01389 0.0
H1043 H 0.47515 0.81396 0.02516 0.0
C1044 C 0.53779 0.82232 0.05809 0.0
C1045 C 0.5336 0.80382 0.0718 0.0
C1046 C 0.53177 0.81679 0.04 0.0
C1047 C 0.52148 0.79263 0.0352 0.0
C1048 C 0.51689 0.77415 0.04886 0.0
H1049 H 0.5014 0.78021 0.91579 0.0
H1050 H 0.49118 0.77198 0.94805 0.0
C1051 C 0.52267 0.77981 0.0671 0.0
C1052 C 0.51819 0.78627 0.01567 0.0
H1053 H 0.4931 0.8112 0.97641 0.0
C1054 C 0.5345 0.76751 0.00798 0.0
C1055 C 0.50194 0.8011 0.00421 0.0
C1056 C 0.48297 0.82047 0.01183 0.0
C1057 C 0.53669 0.76487 0.98902 0.0
C1058 C 0.52235 0.78154 0.97755 0.0
C1059 C 0.50429 0.79862 0.98524 0.0
C1060 C 0.52863 0.78429 0.95798 0.0
C1061 C 0.55531 0.74519 0.98138 0.0
C1062 C 0.55292 0.79408 0.953 0.0
C1063 C 0.55865 0.79904 0.93478 0.0
C1064 C 0.54022 0.79424 0.92113 0.0
C1065 C 0.516 0.78397 0.92605 0.0
C1066 C 0.51014 0.77927 0.94441 0.0
H1067 H 0.55849 0.729 0.99109 0.0
H1068 H 0.54816 0.73719 0.96827 0.0
H1069 H 0.57427 0.75463 0.97887 0.0
H1070 H 0.56727 0.79855 0.96329 0.0
H1071 H 0.57747 0.80694 0.93142 0.0
H1072 H 0.2376 0.37856 0.10015 0.0
H1073 H 0.26057 0.33735 0.09982 0.0
H1074 H 0.20614 0.30604 0.13854 0.0
H1075 H 0.18285 0.34753 0.13891 0.0
H1076 H 0.25818 0.30192 0.14913 0.0
H1077 H 0.24547 0.26526 0.07894 0.0
H1078 H 0.25457 0.29877 0.07929 0.0
H1079 H 0.22406 0.28901 0.08895 0.0
C1080 C 0.23019 0.36276 0.10833 0.0
C1081 C 0.20849 0.36626 0.1196 0.0
C1082 C 0.24321 0.33913 0.10801 0.0
C1083 C 0.23484 0.31851 0.11895 0.0
C1084 C 0.21271 0.32164 0.12984 0.0
H1085 H 0.34016 0.18262 0.12287 0.0
H1086 H 0.29862 0.20604 0.12231 0.0
C1087 C 0.19945 0.3453 0.13003 0.0
C1088 C 0.25133 0.29516 0.12056 0.0
H1089 H 0.28444 0.25128 0.09472 0.0
C1090 C 0.26338 0.29033 0.13736 0.0
C1091 C 0.25799 0.27994 0.10523 0.0
C1092 C 0.24463 0.28332 0.08713 0.0
C1093 C 0.28344 0.27217 0.13884 0.0
C1094 C 0.29161 0.25862 0.12314 0.0
C1095 C 0.27821 0.26189 0.10669 0.0
C1096 C 0.31618 0.24401 0.12305 0.0
C1097 C 0.29681 0.2686 0.15693 0.0
C1098 C 0.33956 0.25772 0.12336 0.0
C1099 C 0.36309 0.24455 0.12353 0.0
C1100 C 0.36371 0.21736 0.12347 0.0
C1101 C 0.34023 0.20358 0.12295 0.0
C1102 C 0.31656 0.21687 0.12263 0.0
H1103 H 0.28478 0.27578 0.16841 0.0
H1104 H 0.30146 0.24787 0.15927 0.0
H1105 H 0.31528 0.27957 0.15688 0.0
H1106 H 0.33957 0.27869 0.12355 0.0
H1107 H 0.38081 0.25574 0.12393 0.0
H1108 H 0.75156 0.38207 0.61526 0.0
H1109 H 0.72957 0.3404 0.61625 0.0
H1110 H 0.80028 0.30344 0.63352 0.0
H1111 H 0.82264 0.3455 0.63262 0.0
H1112 H 0.74239 0.29221 0.59774 0.0
H1113 H 0.74495 0.28568 0.67359 0.0
H1114 H 0.75053 0.31589 0.66188 0.0
H1115 H 0.77476 0.29106 0.66143 0.0
C1116 C 0.76255 0.36511 0.61918 0.0
C1117 C 0.78879 0.36707 0.62398 0.0
C1118 C 0.74996 0.34128 0.61967 0.0
C1119 C 0.76326 0.31892 0.62506 0.0
C1120 C 0.78966 0.32057 0.62946 0.0
H1121 H 0.66123 0.18102 0.61983 0.0
H1122 H 0.70262 0.20453 0.61894 0.0
C1123 C 0.80238 0.34454 0.62889 0.0
C1124 C 0.74865 0.2944 0.62667 0.0
H1125 H 0.71746 0.25706 0.65813 0.0
C1126 C 0.73744 0.28398 0.61088 0.0
C1127 C 0.74222 0.2839 0.64388 0.0
C1128 C 0.75358 0.29464 0.66124 0.0
C1129 C 0.71862 0.26445 0.61192 0.0
C1130 C 0.71102 0.25506 0.62921 0.0
C1131 C 0.72348 0.26428 0.64491 0.0
C1132 C 0.68734 0.23927 0.63141 0.0
C1133 C 0.70555 0.25542 0.59466 0.0
C1134 C 0.66538 0.25079 0.63915 0.0
C1135 C 0.64189 0.23755 0.63962 0.0
C1136 C 0.63993 0.21242 0.63246 0.0
C1137 C 0.66221 0.20039 0.62542 0.0
C1138 C 0.68579 0.21379 0.62485 0.0
H1139 H 0.71214 0.26639 0.58249 0.0
H1140 H 0.70985 0.23462 0.59244 0.0
H1141 H 0.68423 0.25751 0.5959 0.0
H1142 H 0.66619 0.27045 0.64427 0.0
H1143 H 0.62511 0.24728 0.64524 0.0
H1144 H 0.75938 0.62629 0.09932 0.0
H1145 H 0.7362 0.66737 0.09878 0.0
H1146 H 0.79155 0.69999 0.13629 0.0
H1147 H 0.81506 0.65864 0.13687 0.0
H1148 H 0.74003 0.70407 0.14767 0.0
H1149 H 0.7499 0.73907 0.07686 0.0
H1150 H 0.74108 0.7055 0.07771 0.0
H1151 H 0.77183 0.7157 0.08676 0.0
C1152 C 0.76695 0.64235 0.10718 0.0
C1153 C 0.78897 0.63926 0.11819 0.0
C1154 C 0.7538 0.6659 0.10673 0.0
C1155 C 0.76236 0.68685 0.11728 0.0
C1156 C 0.78482 0.68412 0.12788 0.0
H1157 H 0.65448 0.8207 0.11813 0.0
H1158 H 0.69657 0.79828 0.1179 0.0
C1159 C 0.7982 0.66054 0.1282 0.0
C1160 C 0.74574 0.7101 0.1189 0.0
H1161 H 0.71115 0.75283 0.09308 0.0
C1162 C 0.73426 0.71526 0.13584 0.0
C1163 C 0.73837 0.72485 0.1035 0.0
C1164 C 0.75116 0.72118 0.08522 0.0
C1165 C 0.71401 0.73319 0.13744 0.0
C1166 C 0.70503 0.74613 0.12171 0.0
C1167 C 0.71795 0.74266 0.10509 0.0
C1168 C 0.68012 0.76019 0.1218 0.0
C1169 C 0.70138 0.73715 0.15576 0.0
C1170 C 0.65714 0.74608 0.12377 0.0
C1171 C 0.6333 0.75866 0.12373 0.0
C1172 C 0.63194 0.78568 0.12178 0.0
C1173 C 0.65499 0.79987 0.11969 0.0
C1174 C 0.67897 0.78714 0.11957 0.0
H1175 H 0.71444 0.73138 0.16708 0.0
H1176 H 0.69563 0.75769 0.15765 0.0
H1177 H 0.68366 0.72507 0.15657 0.0
H1178 H 0.65767 0.72522 0.12528 0.0
H1179 H 0.61592 0.74717 0.12535 0.0
H1180 H 0.18485 0.66647 0.61352 0.0
H1181 H 0.20959 0.70688 0.61004 0.0
H1182 H 0.27658 0.66981 0.63345 0.0
H1183 H 0.25234 0.62962 0.6367 0.0
H1184 H 0.23819 0.73847 0.63553 0.0
H1185 H 0.30129 0.69472 0.583 0.0
H1186 H 0.27097 0.68035 0.58987 0.0
H1187 H 0.29971 0.67542 0.60329 0.0
C1188 C 0.20479 0.66709 0.61805 0.0
C1189 C 0.21678 0.64483 0.62517 0.0
C1190 C 0.21886 0.69012 0.61606 0.0
C1191 C 0.24503 0.69111 0.62116 0.0
C1192 C 0.25655 0.66927 0.62908 0.0
H1193 H 0.35911 0.79941 0.64895 0.0
H1194 H 0.31863 0.77538 0.64695 0.0
C1195 C 0.24264 0.64633 0.63097 0.0
C1196 C 0.26097 0.71441 0.61774 0.0
H1197 H 0.31782 0.73248 0.59802 0.0
C1198 C 0.25537 0.73743 0.62708 0.0
C1199 C 0.28298 0.71323 0.60632 0.0
C1200 C 0.28897 0.68968 0.59489 0.0
C1201 C 0.2723 0.75873 0.62629 0.0
C1202 C 0.2956 0.75662 0.61622 0.0
C1203 C 0.30014 0.73417 0.6059 0.0
C1204 C 0.31683 0.77597 0.61745 0.0
C1205 C 0.26515 0.78308 0.63644 0.0
C1206 C 0.32933 0.78464 0.60157 0.0
C1207 C 0.35288 0.79786 0.6027 0.0
C1208 C 0.36421 0.80287 0.61973 0.0
C1209 C 0.35073 0.79599 0.63563 0.0
C1210 C 0.32741 0.78239 0.6345 0.0
H1211 H 0.2438 0.78554 0.63701 0.0
H1212 H 0.27225 0.78165 0.65068 0.0
H1213 H 0.27378 0.80052 0.63002 0.0
H1214 H 0.32161 0.77991 0.58826 0.0
H1215 H 0.36283 0.80301 0.59022 0.0
H1216 H 0.37048 0.75403 0.35289 0.0
H1217 H 0.32954 0.73069 0.35356 0.0
H1218 H 0.29466 0.79286 0.38416 0.0
H1219 H 0.33595 0.8165 0.38358 0.0
H1220 H 0.28807 0.74455 0.40004 0.0
H1221 H 0.2605 0.74034 0.32747 0.0
H1222 H 0.29372 0.73127 0.33056 0.0
H1223 H 0.28348 0.76364 0.33617 0.0
C1224 C 0.35401 0.76298 0.35951 0.0
C1225 C 0.3564 0.78706 0.36822 0.0
C1226 C 0.33053 0.74971 0.35974 0.0
C1227 C 0.30893 0.76023 0.36864 0.0
C1228 C 0.31104 0.78456 0.37703 0.0
H1229 H 0.17904 0.64961 0.36452 0.0
H1230 H 0.19983 0.69241 0.36437 0.0
C1231 C 0.33459 0.79801 0.3767 0.0
C1232 C 0.28535 0.74421 0.37074 0.0
H1233 H 0.24553 0.70454 0.34638 0.0
C1234 C 0.27825 0.73631 0.38833 0.0
C1235 C 0.2722 0.73382 0.35551 0.0
C1236 C 0.27769 0.74295 0.33638 0.0
C1237 C 0.26005 0.71652 0.39099 0.0
C1238 C 0.24904 0.70415 0.37565 0.0
C1239 C 0.25429 0.71375 0.35815 0.0
C1240 C 0.2351 0.67921 0.37727 0.0
C1241 C 0.25363 0.70828 0.41018 0.0
C1242 C 0.24809 0.65769 0.38449 0.0
C1243 C 0.23641 0.63338 0.3845 0.0
C1244 C 0.2115 0.63004 0.37721 0.0
C1245 C 0.19823 0.65167 0.37028 0.0
C1246 C 0.21004 0.67608 0.37019 0.0
H1247 H 0.25591 0.72463 0.41988 0.0
H1248 H 0.23354 0.70076 0.41116 0.0
H1249 H 0.26715 0.69272 0.41443 0.0
H1250 H 0.26767 0.65952 0.38961 0.0
H1251 H 0.24716 0.61709 0.38989 0.0
H1252 H 0.37919 0.2428 0.89448 0.0
H1253 H 0.33806 0.26592 0.89395 0.0
H1254 H 0.30352 0.20375 0.86318 0.0
H1255 H 0.34491 0.18031 0.86369 0.0
H1256 H 0.29764 0.25309 0.84741 0.0
H1257 H 0.26844 0.25479 0.91986 0.0
H1258 H 0.30172 0.26378 0.91686 0.0
H1259 H 0.29136 0.23161 0.9109 0.0
C1260 C 0.36274 0.23381 0.88787 0.0
C1261 C 0.36524 0.20978 0.87909 0.0
C1262 C 0.33918 0.24696 0.8877 0.0
C1263 C 0.31765 0.23638 0.87876 0.0
C1264 C 0.31987 0.21209 0.87033 0.0
H1265 H 0.1825 0.34124 0.8801 0.0
H1266 H 0.20582 0.29973 0.88063 0.0
C1267 C 0.34347 0.19875 0.87063 0.0
C1268 C 0.294 0.25226 0.87665 0.0
H1269 H 0.25238 0.29 0.90108 0.0
C1270 C 0.28726 0.26066 0.8591 0.0
C1271 C 0.28025 0.26185 0.89188 0.0
C1272 C 0.28563 0.25232 0.91092 0.0
C1273 C 0.26864 0.28007 0.85653 0.0
C1274 C 0.2567 0.29142 0.8719 0.0
C1275 C 0.2618 0.28145 0.88932 0.0
C1276 C 0.2417 0.31572 0.87043 0.0
C1277 C 0.2627 0.28908 0.83743 0.0
C1278 C 0.25426 0.33833 0.86465 0.0
C1279 C 0.24117 0.36191 0.8645 0.0
C1280 C 0.21523 0.36336 0.87011 0.0
C1281 C 0.20248 0.34063 0.87564 0.0
C1282 C 0.21572 0.31697 0.87595 0.0
H1283 H 0.26685 0.27369 0.82727 0.0
H1284 H 0.24214 0.29504 0.83611 0.0
H1285 H 0.27508 0.306 0.83414 0.0
H1286 H 0.27446 0.33785 0.86068 0.0
H1287 H 0.25152 0.37909 0.86019 0.0
H1288 H 0.62209 0.24093 0.35008 0.0
H1289 H 0.66328 0.26358 0.348 0.0
H1290 H 0.70027 0.20287 0.37882 0.0
H1291 H 0.65867 0.17993 0.38104 0.0
H1292 H 0.70921 0.25228 0.39256 0.0
H1293 H 0.72898 0.25091 0.3187 0.0
H1294 H 0.69631 0.26078 0.32316 0.0
H1295 H 0.70665 0.22866 0.32938 0.0
C1296 C 0.63904 0.23214 0.35618 0.0
C1297 C 0.63718 0.20868 0.36574 0.0
C1298 C 0.66265 0.24501 0.35483 0.0
C1299 C 0.68494 0.23469 0.36296 0.0
C1300 C 0.68333 0.21098 0.37226 0.0
H1301 H 0.81832 0.34176 0.37577 0.0
H1302 H 0.79647 0.29946 0.3744 0.0
C1303 C 0.65961 0.19793 0.37351 0.0
C1304 C 0.70892 0.25038 0.36324 0.0
H1305 H 0.74612 0.28802 0.33545 0.0
C1306 C 0.71793 0.25949 0.38011 0.0
C1307 C 0.72035 0.25963 0.34699 0.0
C1308 C 0.71273 0.24924 0.32855 0.0
C1309 C 0.73634 0.27944 0.38106 0.0
C1310 C 0.74593 0.2903 0.36474 0.0
C1311 C 0.73854 0.27973 0.34793 0.0
C1312 C 0.76012 0.31511 0.36478 0.0
C1313 C 0.74388 0.29023 0.3994 0.0
C1314 C 0.74693 0.33764 0.35963 0.0
C1315 C 0.75918 0.36163 0.36049 0.0
C1316 C 0.78497 0.36352 0.3664 0.0
C1317 C 0.79842 0.34083 0.37117 0.0
C1318 C 0.78601 0.31674 0.37042 0.0
H1319 H 0.73414 0.28 0.41081 0.0
H1320 H 0.76514 0.28853 0.40125 0.0
H1321 H 0.73886 0.3111 0.40009 0.0
H1322 H 0.72692 0.33671 0.35526 0.0
H1323 H 0.74835 0.37873 0.35665 0.0
H1324 H 0.81763 0.65619 0.86143 0.0
H1325 H 0.79451 0.69775 0.86018 0.0
H1326 H 0.73273 0.66523 0.89241 0.0
H1327 H 0.75552 0.62397 0.89366 0.0
H1328 H 0.74515 0.70287 0.8446 0.0
H1329 H 0.74387 0.73625 0.9161 0.0
H1330 H 0.76705 0.71286 0.90775 0.0
H1331 H 0.735 0.70278 0.91428 0.0
C1332 C 0.79937 0.65815 0.86855 0.0
C1333 C 0.7883 0.63687 0.8776 0.0
C1334 C 0.78622 0.68184 0.86783 0.0
C1335 C 0.76211 0.68466 0.87643 0.0
C1336 C 0.75158 0.66367 0.88602 0.0
H1337 H 0.61808 0.74463 0.85722 0.0
H1338 H 0.66035 0.72368 0.85797 0.0
C1339 C 0.76452 0.64002 0.88659 0.0
C1340 C 0.74617 0.70815 0.87372 0.0
H1341 H 0.70771 0.75021 0.8972 0.0
C1342 C 0.7375 0.71376 0.85604 0.0
C1343 C 0.73647 0.72258 0.8886 0.0
C1344 C 0.74631 0.7185 0.90773 0.0
C1345 C 0.71761 0.73174 0.85307 0.0
C1346 C 0.70606 0.74418 0.86817 0.0
C1347 C 0.71639 0.74039 0.88565 0.0
C1348 C 0.68111 0.75799 0.86647 0.0
C1349 C 0.70822 0.73634 0.83388 0.0
C1350 C 0.67875 0.7842 0.8712 0.0
C1351 C 0.65449 0.79632 0.87073 0.0
C1352 C 0.63228 0.78219 0.86585 0.0
C1353 C 0.63484 0.75602 0.86103 0.0
C1354 C 0.659 0.74406 0.86132 0.0
H1355 H 0.72367 0.7322 0.82376 0.0
H1356 H 0.69173 0.7232 0.83101 0.0
H1357 H 0.70152 0.7566 0.83206 0.0
H1358 H 0.6956 0.79517 0.8754 0.0
H1359 H 0.65303 0.8165 0.87458 0.0
loop_
_geom_bond_atom_site_label_1
_geom_bond_atom_site_label_2
_geom_bond_distance
_geom_bond_site_symmetry_2
_ccdc_geom_bond_type
In0 O1 2.294 . S
In0 O2 2.326 . S
In0 O6 2.266 . S
In0 O7 2.326 . S
In0 O8 2.266 . S
In0 O9 2.326 . S
In0 O11 2.294 . S
In0 O12 2.326 . S
O1 In0 2.294 . S
O1 C10 1.240 . S
O2 In0 2.326 . S
O2 C10 1.252 . S
C3 O6 1.252 . S
C3 O7 1.260 . S
C4 O11 1.240 . S
C4 O12 1.252 . S
C5 O8 1.252 . S
C5 O9 1.260 . S
O6 In0 2.266 . S
O6 C3 1.252 . S
O7 In0 2.326 . S
O7 C3 1.260 . S
O8 In0 2.266 . S
O8 C5 1.252 . S
O9 In0 2.326 . S
O9 C5 1.260 . S
C10 O1 1.240 . S
C10 O2 1.252 . S
O11 In0 2.294 . S
O11 C4 1.240 . S
O12 In0 2.326 . S
O12 C4 1.252 . S
In13 O14 2.294 . S
In13 O15 2.326 . S
In13 O19 2.266 . S
In13 O20 2.326 . S
In13 O21 2.266 . S
In13 O22 2.326 . S
In13 O24 2.294 . S
In13 O25 2.326 . S
O14 In13 2.294 . S
O14 C23 1.240 . S
O15 In13 2.326 . S
O15 C23 1.252 . S
C16 O19 1.252 . S
C16 O20 1.260 . S
C17 O24 1.240 . S
C17 O25 1.252 . S
C18 O21 1.252 . S
C18 O22 1.260 . S
O19 In13 2.266 . S
O19 C16 1.252 . S
O20 In13 2.326 . S
O20 C16 1.260 . S
O21 In13 2.266 . S
O21 C18 1.252 . S
O22 In13 2.326 . S
O22 C18 1.260 . S
C23 O14 1.240 . S
C23 O15 1.252 . S
O24 In13 2.294 . S
O24 C17 1.240 . S
O25 In13 2.326 . S
O25 C17 1.252 . S
In26 O27 2.294 . S
In26 O28 2.326 . S
In26 O32 2.266 . S
In26 O33 2.326 . S
In26 O34 2.266 . S
In26 O35 2.326 . S
In26 O37 2.294 . S
In26 O38 2.326 . S
O27 In26 2.294 . S
O27 C36 1.240 . S
O28 In26 2.326 . S
O28 C36 1.252 . S
C29 O32 1.252 . S
C29 O33 1.260 . S
C30 O37 1.240 . S
C30 O38 1.252 . S
C31 O34 1.252 . S
C31 O35 1.260 . S
O32 In26 2.266 . S
O32 C29 1.252 . S
O33 In26 2.326 . S
O33 C29 1.260 . S
O34 In26 2.266 . S
O34 C31 1.252 . S
O35 In26 2.326 . S
O35 C31 1.260 . S
C36 O27 1.240 . S
C36 O28 1.252 . S
O37 In26 2.294 . S
O37 C30 1.240 . S
O38 In26 2.326 . S
O38 C30 1.252 . S
In39 O40 2.294 . S
In39 O41 2.326 . S
In39 O45 2.266 . S
In39 O46 2.326 . S
In39 O47 2.266 . S
In39 O48 2.326 . S
In39 O50 2.294 . S
In39 O51 2.326 . S
O40 In39 2.294 . S
O40 C49 1.240 . S
O41 In39 2.326 . S
O41 C49 1.252 . S
C42 O45 1.252 . S
C42 O46 1.260 . S
C43 O50 1.240 . S
C43 O51 1.252 . S
C44 O47 1.252 . S
C44 O48 1.260 . S
O45 In39 2.266 . S
O45 C42 1.252 . S
O46 In39 2.326 . S
O46 C42 1.260 . S
O47 In39 2.266 . S
O47 C44 1.252 . S
O48 In39 2.326 . S
O48 C44 1.260 . S
C49 O40 1.240 . S
C49 O41 1.252 . S
O50 In39 2.294 . S
O50 C43 1.240 . S
O51 In39 2.326 . S
O51 C43 1.252 . S
In52 O53 2.294 . S
In52 O54 2.326 . S
In52 O58 2.266 . S
In52 O59 2.326 . S
In52 O60 2.266 . S
In52 O61 2.326 . S
In52 O63 2.294 . S
In52 O64 2.326 . S
O53 In52 2.294 . S
O53 C62 1.240 . S
O54 In52 2.326 . S
O54 C62 1.252 . S
C55 O58 1.252 . S
C55 O59 1.260 . S
C56 O63 1.240 . S
C56 O64 1.252 . S
C57 O60 1.252 . S
C57 O61 1.260 . S
O58 In52 2.266 . S
O58 C55 1.252 . S
O59 In52 2.326 . S
O59 C55 1.260 . S
O60 In52 2.266 . S
O60 C57 1.252 . S
O61 In52 2.326 . S
O61 C57 1.260 . S
C62 O53 1.240 . S
C62 O54 1.252 . S
O63 In52 2.294 . S
O63 C56 1.240 . S
O64 In52 2.326 . S
O64 C56 1.252 . S
In65 O66 2.294 . S
In65 O67 2.326 . S
In65 O71 2.266 . S
In65 O72 2.326 . S
In65 O73 2.266 . S
In65 O74 2.326 . S
In65 O76 2.294 . S
In65 O77 2.326 . S
O66 In65 2.294 . S
O66 C75 1.240 . S
O67 In65 2.326 . S
O67 C75 1.252 . S
C68 O71 1.252 . S
C68 O72 1.260 . S
C69 O76 1.240 . S
C69 O77 1.252 . S
C70 O73 1.252 . S
C70 O74 1.260 . S
O71 In65 2.266 . S
O71 C68 1.252 . S
O72 In65 2.326 . S
O72 C68 1.260 . S
O73 In65 2.266 . S
O73 C70 1.252 . S
O74 In65 2.326 . S
O74 C70 1.260 . S
C75 O66 1.240 . S
C75 O67 1.252 . S
O76 In65 2.294 . S
O76 C69 1.240 . S
O77 In65 2.326 . S
O77 C69 1.252 . S
In78 O79 2.294 . S
In78 O80 2.326 . S
In78 O84 2.266 . S
In78 O85 2.326 . S
In78 O86 2.266 . S
In78 O87 2.326 . S
In78 O89 2.294 . S
In78 O90 2.326 . S
O79 In78 2.294 . S
O79 C88 1.240 . S
O80 In78 2.326 . S
O80 C88 1.252 . S
C81 O84 1.252 . S
C81 O85 1.260 . S
C82 O89 1.240 . S
C82 O90 1.252 . S
C83 O86 1.252 . S
C83 O87 1.260 . S
O84 In78 2.266 . S
O84 C81 1.252 . S
O85 In78 2.326 . S
O85 C81 1.260 . S
O86 In78 2.266 . S
O86 C83 1.252 . S
O87 In78 2.326 . S
O87 C83 1.260 . S
C88 O79 1.240 . S
C88 O80 1.252 . S
O89 In78 2.294 . S
O89 C82 1.240 . S
O90 In78 2.326 . S
O90 C82 1.252 . S
In91 O92 2.294 . S
In91 O93 2.326 . S
In91 O97 2.266 . S
In91 O98 2.326 . S
In91 O99 2.266 . S
In91 O100 2.326 . S
In91 O102 2.294 . S
In91 O103 2.326 . S
O92 In91 2.294 . S
O92 C101 1.240 . S
O93 In91 2.326 . S
O93 C101 1.252 . S
C94 O97 1.252 . S
C94 O98 1.260 . S
C95 O102 1.240 . S
C95 O103 1.252 . S
C96 O99 1.252 . S
C96 O100 1.260 . S
O97 In91 2.266 . S
O97 C94 1.252 . S
O98 In91 2.326 . S
O98 C94 1.260 . S
O99 In91 2.266 . S
O99 C96 1.252 . S
O100 In91 2.326 . S
O100 C96 1.260 . S
C101 O92 1.240 . S
C101 O93 1.252 . S
O102 In91 2.294 . S
O102 C95 1.240 . S
O103 In91 2.326 . S
O103 C95 1.252 . S
In104 O105 2.294 . S
In104 O106 2.326 . S
In104 O110 2.266 . S
In104 O111 2.326 . S
In104 O112 2.266 . S
In104 O113 2.326 . S
In104 O115 2.294 . S
In104 O116 2.326 . S
O105 In104 2.294 . S
O105 C114 1.240 . S
O106 In104 2.326 . S
O106 C114 1.252 . S
C107 O110 1.252 . S
C107 O111 1.260 . S
C108 O115 1.240 . S
C108 O116 1.252 . S
C109 O112 1.252 . S
C109 O113 1.260 . S
O110 In104 2.266 . S
O110 C107 1.252 . S
O111 In104 2.326 . S
O111 C107 1.260 . S
O112 In104 2.266 . S
O112 C109 1.252 . S
O113 In104 2.326 . S
O113 C109 1.260 . S
C114 O105 1.240 . S
C114 O106 1.252 . S
O115 In104 2.294 . S
O115 C108 1.240 . S
O116 In104 2.326 . S
O116 C108 1.252 . S
In117 O118 2.294 . S
In117 O119 2.326 . S
In117 O123 2.266 . S
In117 O124 2.326 . S
In117 O125 2.266 . S
In117 O126 2.326 . S
In117 O128 2.294 . S
In117 O129 2.326 . S
O118 In117 2.294 . S
O118 C127 1.240 . S
O119 In117 2.326 . S
O119 C127 1.252 . S
C120 O123 1.252 . S
C120 O124 1.260 . S
C121 O128 1.240 . S
C121 O129 1.252 . S
C122 O125 1.252 . S
C122 O126 1.260 . S
O123 In117 2.266 . S
O123 C120 1.252 . S
O124 In117 2.326 . S
O124 C120 1.260 . S
O125 In117 2.266 . S
O125 C122 1.252 . S
O126 In117 2.326 . S
O126 C122 1.260 . S
C127 O118 1.240 . S
C127 O119 1.252 . S
O128 In117 2.294 . S
O128 C121 1.240 . S
O129 In117 2.326 . S
O129 C121 1.252 . S
In130 O131 2.294 . S
In130 O132 2.326 . S
In130 O136 2.266 . S
In130 O137 2.326 . S
In130 O138 2.266 . S
In130 O139 2.326 . S
In130 O141 2.294 . S
In130 O142 2.326 . S
O131 In130 2.294 . S
O131 C140 1.240 . S
O132 In130 2.326 . S
O132 C140 1.252 . S
C133 O136 1.252 . S
C133 O137 1.260 . S
C134 O141 1.240 . S
C134 O142 1.252 . S
C135 O138 1.252 . S
C135 O139 1.260 . S
O136 In130 2.266 . S
O136 C133 1.252 . S
O137 In130 2.326 . S
O137 C133 1.260 . S
O138 In130 2.266 . S
O138 C135 1.252 . S
O139 In130 2.326 . S
O139 C135 1.260 . S
C140 O131 1.240 . S
C140 O132 1.252 . S
O141 In130 2.294 . S
O141 C134 1.240 . S
O142 In130 2.326 . S
O142 C134 1.252 . S
In143 O144 2.294 . S
In143 O145 2.326 . S
In143 O149 2.266 . S
In143 O150 2.326 . S
In143 O151 2.266 . S
In143 O152 2.326 . S
In143 O154 2.294 . S
In143 O155 2.326 . S
O144 In143 2.294 . S
O144 C153 1.240 . S
O145 In143 2.326 . S
O145 C153 1.252 . S
C146 O149 1.252 . S
C146 O150 1.260 . S
C147 O154 1.240 . S
C147 O155 1.252 . S
C148 O151 1.252 . S
C148 O152 1.260 . S
O149 In143 2.266 . S
O149 C146 1.252 . S
O150 In143 2.326 . S
O150 C146 1.260 . S
O151 In143 2.266 . S
O151 C148 1.252 . S
O152 In143 2.326 . S
O152 C148 1.260 . S
C153 O144 1.240 . S
C153 O145 1.252 . S
O154 In143 2.294 . S
O154 C147 1.240 . S
O155 In143 2.326 . S
O155 C147 1.252 . S
In156 O157 2.294 . S
In156 O158 2.326 . S
In156 O162 2.266 . S
In156 O163 2.326 . S
In156 O164 2.266 . S
In156 O165 2.326 . S
In156 O167 2.294 . S
In156 O168 2.326 . S
O157 In156 2.294 . S
O157 C166 1.240 . S
O158 In156 2.326 . S
O158 C166 1.252 . S
C159 O162 1.252 . S
C159 O163 1.260 . S
C160 O167 1.240 . S
C160 O168 1.252 . S
C161 O164 1.252 . S
C161 O165 1.260 . S
O162 In156 2.266 . S
O162 C159 1.252 . S
O163 In156 2.326 . S
O163 C159 1.260 . S
O164 In156 2.266 . S
O164 C161 1.252 . S
O165 In156 2.326 . S
O165 C161 1.260 . S
C166 O157 1.240 . S
C166 O158 1.252 . S
O167 In156 2.294 . S
O167 C160 1.240 . S
O168 In156 2.326 . S
O168 C160 1.252 . S
In169 O170 2.294 . S
In169 O171 2.326 . S
In169 O175 2.266 . S
In169 O176 2.326 . S
In169 O177 2.266 . S
In169 O178 2.326 . S
In169 O180 2.294 . S
In169 O181 2.326 . S
O170 In169 2.294 . S
O170 C179 1.240 . S
O171 In169 2.326 . S
O171 C179 1.252 . S
C172 O175 1.252 . S
C172 O176 1.260 . S
C173 O180 1.240 . S
C173 O181 1.252 . S
C174 O177 1.252 . S
C174 O178 1.260 . S
O175 In169 2.266 . S
O175 C172 1.252 . S
O176 In169 2.326 . S
O176 C172 1.260 . S
O177 In169 2.266 . S
O177 C174 1.252 . S
O178 In169 2.326 . S
O178 C174 1.260 . S
C179 O170 1.240 . S
C179 O171 1.252 . S
O180 In169 2.294 . S
O180 C173 1.240 . S
O181 In169 2.326 . S
O181 C173 1.252 . S
In182 O183 2.294 . S
In182 O184 2.326 . S
In182 O188 2.266 . S
In182 O189 2.326 . S
In182 O190 2.266 . S
In182 O191 2.326 . S
In182 O193 2.294 . S
In182 O194 2.326 . S
O183 In182 2.294 . S
O183 C192 1.240 . S
O184 In182 2.326 . S
O184 C192 1.252 . S
C185 O188 1.252 . S
C185 O189 1.260 . S
C186 O193 1.240 . S
C186 O194 1.252 . S
C187 O190 1.252 . S
C187 O191 1.260 . S
O188 In182 2.266 . S
O188 C185 1.252 . S
O189 In182 2.326 . S
O189 C185 1.260 . S
O190 In182 2.266 . S
O190 C187 1.252 . S
O191 In182 2.326 . S
O191 C187 1.260 . S
C192 O183 1.240 . S
C192 O184 1.252 . S
O193 In182 2.294 . S
O193 C186 1.240 . S
O194 In182 2.326 . S
O194 C186 1.252 . S
In195 O196 2.294 . S
In195 O197 2.326 . S
In195 O201 2.266 . S
In195 O202 2.326 . S
In195 O203 2.266 . S
In195 O204 2.326 . S
In195 O206 2.294 . S
In195 O207 2.326 . S
O196 In195 2.294 . S
O196 C205 1.240 . S
O197 In195 2.326 . S
O197 C205 1.252 . S
C198 O201 1.252 . S
C198 O202 1.260 . S
C199 O206 1.240 . S
C199 O207 1.252 . S
C200 O203 1.252 . S
C200 O204 1.260 . S
O201 In195 2.266 . S
O201 C198 1.252 . S
O202 In195 2.326 . S
O202 C198 1.260 . S
O203 In195 2.266 . S
O203 C200 1.252 . S
O204 In195 2.326 . S
O204 C200 1.260 . S
C205 O196 1.240 . S
C205 O197 1.252 . S
O206 In195 2.294 . S
O206 C199 1.240 . S
O207 In195 2.326 . S
O207 C199 1.252 . S
H208 C216 0.929 . S
H209 C218 0.930 . S
H210 C220 0.930 . S
H211 C223 0.929 . S
H212 C226 0.930 . S
H213 C228 0.960 1_655 S
H214 C228 0.960 . S
H215 C228 0.960 . S
C216 H208 0.929 . S
C216 C217 1.377 . S
C216 C218 1.384 . S
C217 C216 1.377 . S
C217 C223 1.390 . S
C218 H209 0.930 . S
C218 C216 1.384 . S
C218 C219 1.372 . S
C219 C218 1.372 . S
C219 C220 1.400 . S
C219 C224 1.490 . S
C220 H210 0.930 . S
C220 C219 1.400 . S
C220 C223 1.386 . S
H221 C237 0.930 . S
H222 C238 0.931 . S
C223 H211 0.929 . S
C223 C217 1.390 . S
C223 C220 1.386 . S
C224 C219 1.490 . S
C224 C226 1.395 . S
C224 C227 1.403 . S
H225 C231 0.930 . S
C226 H212 0.930 . S
C226 C224 1.395 . S
C226 C229 1.403 1_455 S
C227 C224 1.403 . S
C227 C228 1.524 . S
C227 C231 1.400 1_455 S
C228 H213 0.960 1_455 S
C228 H214 0.960 . S
C228 H215 0.960 . S
C228 C227 1.524 . S
C229 C226 1.403 1_655 S
C229 C230 1.392 . S
C229 C233 1.495 . S
C230 C229 1.392 . S
C230 C231 1.385 . S
C230 C232 1.478 . S
C231 H225 0.930 . S
C231 C227 1.400 1_655 S
C231 C230 1.385 . S
C232 C230 1.478 . S
C232 C234 1.381 . S
C232 C238 1.383 . S
C233 C229 1.495 . S
C233 H239 0.959 1_655 S
C233 H240 0.961 . S
C233 H241 0.960 . S
C234 C232 1.381 . S
C234 C235 1.394 . S
C234 H242 0.930 . S
C235 C234 1.394 . S
C235 C236 1.383 . S
C235 H243 0.929 . S
C236 C235 1.383 . S
C236 C237 1.377 . S
C237 H221 0.930 . S
C237 C236 1.377 . S
C237 C238 1.379 . S
C238 H222 0.931 . S
C238 C232 1.383 . S
C238 C237 1.379 . S
H239 C233 0.959 1_455 S
H240 C233 0.961 . S
H241 C233 0.960 . S
H242 C234 0.930 . S
H243 C235 0.929 . S
H244 C252 0.929 . S
H245 C254 0.930 . S
H246 C256 0.930 . S
H247 C259 0.929 . S
H248 C262 0.930 . S
H249 C264 0.918 1_545 S
H250 C264 0.983 . S
H251 C264 0.979 . S
C252 H244 0.929 . S
C252 C253 1.377 . S
C252 C254 1.384 . S
C253 C252 1.377 . S
C253 C259 1.390 . S
C254 H245 0.930 . S
C254 C252 1.384 . S
C254 C255 1.372 . S
C255 C254 1.372 . S
C255 C256 1.400 . S
C255 C260 1.490 . S
C256 H246 0.930 . S
C256 C255 1.400 . S
C256 C259 1.386 . S
H257 C273 0.930 . S
H258 C274 0.931 . S
C259 H247 0.929 . S
C259 C253 1.390 . S
C259 C256 1.386 . S
C260 C255 1.490 . S
C260 C262 1.395 . S
C260 C263 1.403 . S
H261 C267 0.930 . S
C262 H248 0.930 . S
C262 C260 1.395 . S
C262 C265 1.427 . S
C263 C260 1.403 . S
C263 C264 1.525 . S
C263 C267 1.400 1_565 S
C264 H249 0.918 1_565 S
C264 H250 0.983 . S
C264 H251 0.979 . S
C264 C263 1.525 . S
C265 C262 1.427 . S
C265 C266 1.369 1_565 S
C265 C269 1.496 . S
C266 C265 1.369 1_545 S
C266 C267 1.385 . S
C266 C268 1.478 . S
C267 H261 0.930 . S
C267 C263 1.400 1_545 S
C267 C266 1.385 . S
C268 C266 1.478 . S
C268 C270 1.381 . S
C268 C274 1.383 . S
C269 C265 1.496 . S
C269 H275 0.959 . S
C269 H276 0.961 1_565 S
C269 H277 0.960 1_565 S
C270 C268 1.381 . S
C270 C271 1.394 . S
C270 H278 0.930 . S
C271 C270 1.394 . S
C271 C272 1.383 . S
C271 H279 0.929 . S
C272 C271 1.383 . S
C272 C273 1.377 . S
C273 H257 0.930 . S
C273 C272 1.377 . S
C273 C274 1.379 . S
C274 H258 0.931 . S
C274 C268 1.383 . S
C274 C273 1.379 . S
H275 C269 0.959 . S
H276 C269 0.961 1_545 S
H277 C269 0.960 1_545 S
H278 C270 0.930 . S
H279 C271 0.929 . S
H280 C288 0.929 . S
H281 C290 0.930 . S
H282 C292 0.930 . S
H283 C295 0.929 . S
H284 C298 0.930 . S
H285 C300 0.951 1_655 S
H286 C300 0.963 . S
H287 C300 0.965 . S
C288 H280 0.929 . S
C288 C289 1.377 . S
C288 C290 1.384 . S
C289 C288 1.377 . S
C289 C295 1.390 . S
C290 H281 0.930 . S
C290 C288 1.384 . S
C290 C291 1.372 . S
C291 C290 1.372 . S
C291 C292 1.400 . S
C291 C296 1.490 . S
C292 H282 0.930 . S
C292 C291 1.400 . S
C292 C295 1.386 . S
H293 C309 0.930 . S
H294 C310 0.931 . S
C295 H283 0.929 . S
C295 C289 1.390 . S
C295 C292 1.386 . S
C296 C291 1.490 . S
C296 C298 1.395 . S
C296 C299 1.403 . S
H297 C303 0.930 . S
C298 H284 0.930 . S
C298 C296 1.395 . S
C298 C301 1.421 . S
C299 C296 1.403 . S
C299 C300 1.524 . S
C299 C303 1.400 1_455 S
C300 H285 0.951 1_455 S
C300 H286 0.963 . S
C300 H287 0.965 . S
C300 C299 1.524 . S
C301 C298 1.421 . S
C301 C302 1.375 1_455 S
C301 C305 1.496 . S
C302 C301 1.375 1_655 S
C302 C303 1.385 . S
C302 C304 1.478 . S
C303 H297 0.930 . S
C303 C299 1.400 1_655 S
C303 C302 1.385 . S
C304 C302 1.478 . S
C304 C306 1.381 . S
C304 C310 1.383 . S
C305 C301 1.496 . S
C305 H311 0.959 . S
C305 H312 0.961 1_455 S
C305 H313 0.960 1_455 S
C306 C304 1.381 . S
C306 C307 1.394 . S
C306 H314 0.930 . S
C307 C306 1.394 . S
C307 C308 1.383 . S
C307 H315 0.929 . S
C308 C307 1.383 . S
C308 C309 1.377 . S
C309 H293 0.930 . S
C309 C308 1.377 . S
C309 C310 1.379 . S
C310 H294 0.931 . S
C310 C304 1.383 . S
C310 C309 1.379 . S
H311 C305 0.959 . S
H312 C305 0.961 1_655 S
H313 C305 0.960 1_655 S
H314 C306 0.930 . S
H315 C307 0.929 . S
H316 C324 0.929 . S
H317 C326 0.930 . S
H318 C328 0.930 . S
H319 C331 0.929 . S
H320 C334 0.930 . S
H321 C336 0.960 . S
H322 C336 0.960 . S
H323 C336 0.960 . S
C324 H316 0.929 . S
C324 C325 1.377 . S
C324 C326 1.384 . S
C325 C324 1.377 . S
C325 C331 1.390 . S
C326 H317 0.930 . S
C326 C324 1.384 . S
C326 C327 1.372 . S
C327 C326 1.372 . S
C327 C328 1.400 . S
C327 C332 1.490 . S
C328 H318 0.930 . S
C328 C327 1.400 . S
C328 C331 1.386 . S
H329 C345 0.930 . S
H330 C346 0.931 . S
C331 H319 0.929 . S
C331 C325 1.390 . S
C331 C328 1.386 . S
C332 C327 1.490 . S
C332 C334 1.395 . S
C332 C335 1.403 . S
H333 C339 0.930 . S
C334 H320 0.930 . S
C334 C332 1.395 . S
C334 C337 1.403 1_565 S
C335 C332 1.403 . S
C335 C336 1.524 . S
C335 C339 1.400 1_565 S
C336 H321 0.960 . S
C336 H322 0.960 . S
C336 H323 0.960 . S
C336 C335 1.524 . S
C337 C334 1.403 1_545 S
C337 C338 1.392 . S
C337 C341 1.495 . S
C338 C337 1.392 . S
C338 C339 1.385 . S
C338 C340 1.478 . S
C339 H333 0.930 . S
C339 C335 1.400 1_545 S
C339 C338 1.385 . S
C340 C338 1.478 . S
C340 C342 1.381 . S
C340 C346 1.383 . S
C341 C337 1.495 . S
C341 H347 0.959 . S
C341 H348 0.961 . S
C341 H349 0.960 . S
C342 C340 1.381 . S
C342 C343 1.394 . S
C342 H350 0.930 . S
C343 C342 1.394 . S
C343 C344 1.383 . S
C343 H351 0.929 . S
C344 C343 1.383 . S
C344 C345 1.377 . S
C345 H329 0.930 . S
C345 C344 1.377 . S
C345 C346 1.379 . S
C346 H330 0.931 . S
C346 C340 1.383 . S
C346 C345 1.379 . S
H347 C341 0.959 . S
H348 C341 0.961 . S
H349 C341 0.960 . S
H350 C342 0.930 . S
H351 C343 0.929 . S
H352 C360 0.929 . S
H353 C362 0.930 . S
H354 C364 0.930 . S
H355 C367 0.929 . S
H356 C370 0.930 . S
H357 C372 0.960 1_455 S
H358 C372 0.960 . S
H359 C372 0.960 . S
C360 H352 0.929 . S
C360 C361 1.377 . S
C360 C362 1.384 . S
C361 C360 1.377 . S
C361 C367 1.390 . S
C362 H353 0.930 . S
C362 C360 1.384 . S
C362 C363 1.372 . S
C363 C362 1.372 . S
C363 C364 1.400 . S
C363 C368 1.490 . S
C364 H354 0.930 . S
C364 C363 1.400 . S
C364 C367 1.386 . S
H365 C381 0.930 . S
H366 C382 0.931 . S
C367 H355 0.929 . S
C367 C361 1.390 . S
C367 C364 1.386 . S
C368 C363 1.490 . S
C368 C370 1.395 . S
C368 C371 1.403 . S
H369 C375 0.930 . S
C370 H356 0.930 . S
C370 C368 1.395 . S
C370 C373 1.403 1_655 S
C371 C368 1.403 . S
C371 C372 1.524 . S
C371 C375 1.400 1_655 S
C372 H357 0.960 1_655 S
C372 H358 0.960 . S
C372 H359 0.960 . S
C372 C371 1.524 . S
C373 C370 1.403 1_455 S
C373 C374 1.392 . S
C373 C377 1.495 . S
C374 C373 1.392 . S
C374 C375 1.385 . S
C374 C376 1.478 . S
C375 H369 0.930 . S
C375 C371 1.400 1_455 S
C375 C374 1.385 . S
C376 C374 1.478 . S
C376 C378 1.381 . S
C376 C382 1.383 . S
C377 C373 1.495 . S
C377 H383 0.959 1_455 S
C377 H384 0.961 . S
C377 H385 0.960 . S
C378 C376 1.381 . S
C378 C379 1.394 . S
C378 H386 0.930 . S
C379 C378 1.394 . S
C379 C380 1.383 . S
C379 H387 0.929 . S
C380 C379 1.383 . S
C380 C381 1.377 . S
C381 H365 0.930 . S
C381 C380 1.377 . S
C381 C382 1.379 . S
C382 H366 0.931 . S
C382 C376 1.383 . S
C382 C381 1.379 . S
H383 C377 0.959 1_655 S
H384 C377 0.961 . S
H385 C377 0.960 . S
H386 C378 0.930 . S
H387 C379 0.929 . S
H388 C396 0.929 . S
H389 C398 0.930 . S
H390 C400 0.930 . S
H391 C403 0.929 . S
H392 C406 0.930 . S
H393 C408 0.960 . S
H394 C408 0.960 . S
H395 C408 0.960 . S
C396 H388 0.929 . S
C396 C397 1.377 . S
C396 C398 1.384 . S
C397 C396 1.377 . S
C397 C403 1.390 . S
C398 H389 0.930 . S
C398 C396 1.384 . S
C398 C399 1.372 . S
C399 C398 1.372 . S
C399 C400 1.400 . S
C399 C404 1.490 . S
C400 H390 0.930 . S
C400 C399 1.400 . S
C400 C403 1.386 . S
H401 C417 0.930 . S
H402 C418 0.931 . S
C403 H391 0.929 . S
C403 C397 1.390 . S
C403 C400 1.386 . S
C404 C399 1.490 . S
C404 C406 1.395 . S
C404 C407 1.403 . S
H405 C411 0.930 . S
C406 H392 0.930 . S
C406 C404 1.395 . S
C406 C409 1.403 1_545 S
C407 C404 1.403 . S
C407 C408 1.524 . S
C407 C411 1.400 1_545 S
C408 H393 0.960 . S
C408 H394 0.960 . S
C408 H395 0.960 . S
C408 C407 1.524 . S
C409 C406 1.403 1_565 S
C409 C410 1.392 . S
C409 C413 1.495 . S
C410 C409 1.392 . S
C410 C411 1.385 . S
C410 C412 1.478 . S
C411 H405 0.930 . S
C411 C407 1.400 1_565 S
C411 C410 1.385 . S
C412 C410 1.478 . S
C412 C414 1.381 . S
C412 C418 1.383 . S
C413 C409 1.495 . S
C413 H419 0.959 . S
C413 H420 0.961 . S
C413 H421 0.960 . S
C414 C412 1.381 . S
C414 C415 1.394 . S
C414 H422 0.930 . S
C415 C414 1.394 . S
C415 C416 1.383 . S
C415 H423 0.929 . S
C416 C415 1.383 . S
C416 C417 1.377 . S
C417 H401 0.930 . S
C417 C416 1.377 . S
C417 C418 1.379 . S
C418 H402 0.931 . S
C418 C412 1.383 . S
C418 C417 1.379 . S
H419 C413 0.959 . S
H420 C413 0.961 . S
H421 C413 0.960 . S
H422 C414 0.930 . S
H423 C415 0.929 . S
H424 C432 0.929 . S
H425 C434 0.930 . S
H426 C436 0.930 . S
H427 C439 0.929 . S
H428 C442 0.930 . S
H429 C444 0.960 . S
H430 C444 0.960 . S
H431 C444 0.960 . S
C432 H424 0.929 . S
C432 C433 1.377 . S
C432 C434 1.384 . S
C433 C432 1.377 . S
C433 C439 1.390 . S
C434 H425 0.930 . S
C434 C432 1.384 . S
C434 C435 1.372 . S
C435 C434 1.372 . S
C435 C436 1.400 . S
C435 C440 1.490 . S
C436 H426 0.930 . S
C436 C435 1.400 . S
C436 C439 1.386 . S
H437 C453 0.930 . S
H438 C454 0.931 . S
C439 H427 0.929 . S
C439 C433 1.390 . S
C439 C436 1.386 . S
C440 C435 1.490 . S
C440 C442 1.395 . S
C440 C443 1.403 . S
H441 C447 0.930 . S
C442 H428 0.930 . S
C442 C440 1.395 . S
C442 C445 1.403 1_655 S
C443 C440 1.403 . S
C443 C444 1.524 . S
C443 C447 1.400 1_655 S
C444 H429 0.960 . S
C444 H430 0.960 . S
C444 H431 0.960 . S
C444 C443 1.524 . S
C445 C442 1.403 1_455 S
C445 C446 1.392 . S
C445 C449 1.495 . S
C446 C445 1.392 . S
C446 C447 1.385 . S
C446 C448 1.478 . S
C447 H441 0.930 . S
C447 C443 1.400 1_455 S
C447 C446 1.385 . S
C448 C446 1.478 . S
C448 C450 1.381 . S
C448 C454 1.383 . S
C449 C445 1.495 . S
C449 H455 0.959 . S
C449 H456 0.961 . S
C449 H457 0.960 . S
C450 C448 1.381 . S
C450 C451 1.394 . S
C450 H458 0.930 . S
C451 C450 1.394 . S
C451 C452 1.383 . S
C451 H459 0.929 . S
C452 C451 1.383 . S
C452 C453 1.377 . S
C453 H437 0.930 . S
C453 C452 1.377 . S
C453 C454 1.379 . S
C454 H438 0.931 . S
C454 C448 1.383 . S
C454 C453 1.379 . S
H455 C449 0.959 . S
H456 C449 0.961 . S
H457 C449 0.960 . S
H458 C450 0.930 . S
H459 C451 0.929 . S
H460 C468 0.929 . S
H461 C470 0.930 . S
H462 C472 0.930 . S
H463 C475 0.929 . S
H464 C478 0.930 . S
H465 C480 0.960 . S
H466 C480 0.960 . S
H467 C480 0.960 . S
C468 H460 0.929 . S
C468 C469 1.377 . S
C468 C470 1.384 . S
C469 C468 1.377 . S
C469 C475 1.390 . S
C470 H461 0.930 . S
C470 C468 1.384 . S
C470 C471 1.372 . S
C471 C470 1.372 . S
C471 C472 1.400 . S
C471 C476 1.490 . S
C472 H462 0.930 . S
C472 C471 1.400 . S
C472 C475 1.386 . S
H473 C489 0.930 . S
H474 C490 0.931 . S
C475 H463 0.929 . S
C475 C469 1.390 . S
C475 C472 1.386 . S
C476 C471 1.490 . S
C476 C478 1.395 . S
C476 C479 1.403 . S
H477 C483 0.930 . S
C478 H464 0.930 . S
C478 C476 1.395 . S
C478 C481 1.403 1_545 S
C479 C476 1.403 . S
C479 C480 1.524 . S
C479 C483 1.400 1_545 S
C480 H465 0.960 . S
C480 H466 0.960 . S
C480 H467 0.960 . S
C480 C479 1.524 . S
C481 C478 1.403 1_565 S
C481 C482 1.392 . S
C481 C485 1.495 . S
C482 C481 1.392 . S
C482 C483 1.385 . S
C482 C484 1.478 . S
C483 H477 0.930 . S
C483 C479 1.400 1_565 S
C483 C482 1.385 . S
C484 C482 1.478 . S
C484 C486 1.381 . S
C484 C490 1.383 . S
C485 C481 1.495 . S
C485 H491 0.959 . S
C485 H492 0.961 . S
C485 H493 0.960 . S
C486 C484 1.381 . S
C486 C487 1.394 . S
C486 H494 0.930 . S
C487 C486 1.394 . S
C487 C488 1.383 . S
C487 H495 0.929 . S
C488 C487 1.383 . S
C488 C489 1.377 . S
C489 H473 0.930 . S
C489 C488 1.377 . S
C489 C490 1.379 . S
C490 H474 0.931 . S
C490 C484 1.383 . S
C490 C489 1.379 . S
H491 C485 0.959 . S
H492 C485 0.961 . S
H493 C485 0.960 . S
H494 C486 0.930 . S
H495 C487 0.929 . S
H496 C504 0.929 . S
H497 C506 0.930 . S
H498 C508 0.930 . S
H499 C511 0.929 . S
H500 C514 0.930 . S
H501 C516 0.960 . S
H502 C516 0.960 . S
H503 C516 0.960 . S
C504 H496 0.929 . S
C504 C505 1.377 . S
C504 C506 1.384 . S
C505 C504 1.377 . S
C505 C511 1.390 . S
C506 H497 0.930 . S
C506 C504 1.384 . S
C506 C507 1.372 . S
C507 C506 1.372 . S
C507 C508 1.400 . S
C507 C512 1.490 . S
C508 H498 0.930 . S
C508 C507 1.400 . S
C508 C511 1.386 . S
H509 C525 0.930 . S
H510 C526 0.931 . S
C511 H499 0.929 . S
C511 C505 1.390 . S
C511 C508 1.386 . S
C512 C507 1.490 . S
C512 C514 1.395 . S
C512 C515 1.403 . S
H513 C519 0.930 . S
C514 H500 0.930 . S
C514 C512 1.395 . S
C514 C517 1.403 . S
C515 C512 1.403 . S
C515 C516 1.524 . S
C515 C519 1.400 . S
C516 H501 0.960 . S
C516 H502 0.960 . S
C516 H503 0.960 . S
C516 C515 1.524 . S
C517 C514 1.403 . S
C517 C518 1.392 . S
C517 C521 1.495 . S
C518 C517 1.392 . S
C518 C519 1.385 . S
C518 C520 1.478 . S
C519 H513 0.930 . S
C519 C515 1.400 . S
C519 C518 1.385 . S
C520 C518 1.478 . S
C520 C522 1.381 . S
C520 C526 1.383 . S
C521 C517 1.495 . S
C521 H527 0.959 . S
C521 H528 0.961 . S
C521 H529 0.960 . S
C522 C520 1.381 . S
C522 C523 1.394 . S
C522 H530 0.930 . S
C523 C522 1.394 . S
C523 C524 1.383 . S
C523 H531 0.929 . S
C524 C523 1.383 . S
C524 C525 1.377 . S
C525 H509 0.930 . S
C525 C524 1.377 . S
C525 C526 1.379 . S
C526 H510 0.931 . S
C526 C520 1.383 . S
C526 C525 1.379 . S
H527 C521 0.959 . S
H528 C521 0.961 . S
H529 C521 0.960 . S
H530 C522 0.930 . S
H531 C523 0.929 . S
H532 C540 0.929 . S
H533 C542 0.930 . S
H534 C544 0.930 . S
H535 C547 0.929 . S
H536 C550 0.930 . S
H537 C552 0.960 . S
H538 C552 0.960 . S
H539 C552 0.960 . S
C540 H532 0.929 . S
C540 C541 1.377 . S
C540 C542 1.384 . S
C541 C540 1.377 . S
C541 C547 1.390 . S
C542 H533 0.930 . S
C542 C540 1.384 . S
C542 C543 1.372 . S
C543 C542 1.372 . S
C543 C544 1.400 . S
C543 C548 1.490 . S
C544 H534 0.930 . S
C544 C543 1.400 . S
C544 C547 1.386 . S
H545 C561 0.930 . S
H546 C562 0.931 . S
C547 H535 0.929 . S
C547 C541 1.390 . S
C547 C544 1.386 . S
C548 C543 1.490 . S
C548 C550 1.395 . S
C548 C551 1.403 . S
H549 C555 0.930 . S
C550 H536 0.930 . S
C550 C548 1.395 . S
C550 C553 1.403 . S
C551 C548 1.403 . S
C551 C552 1.524 . S
C551 C555 1.400 . S
C552 H537 0.960 . S
C552 H538 0.960 . S
C552 H539 0.960 . S
C552 C551 1.524 . S
C553 C550 1.403 . S
C553 C554 1.392 . S
C553 C557 1.495 . S
C554 C553 1.392 . S
C554 C555 1.385 . S
C554 C556 1.478 . S
C555 H549 0.930 . S
C555 C551 1.400 . S
C555 C554 1.385 . S
C556 C554 1.478 . S
C556 C558 1.381 . S
C556 C562 1.383 . S
C557 C553 1.495 . S
C557 H563 0.959 . S
C557 H564 0.961 . S
C557 H565 0.960 . S
C558 C556 1.381 . S
C558 C559 1.394 . S
C558 H566 0.930 . S
C559 C558 1.394 . S
C559 C560 1.383 . S
C559 H567 0.929 . S
C560 C559 1.383 . S
C560 C561 1.377 . S
C561 H545 0.930 . S
C561 C560 1.377 . S
C561 C562 1.379 . S
C562 H546 0.931 . S
C562 C556 1.383 . S
C562 C561 1.379 . S
H563 C557 0.959 . S
H564 C557 0.961 . S
H565 C557 0.960 . S
H566 C558 0.930 . S
H567 C559 0.929 . S
H568 C576 0.929 . S
H569 C578 0.930 . S
H570 C580 0.930 . S
H571 C583 0.929 . S
H572 C586 0.930 . S
H573 C588 0.960 . S
H574 C588 0.960 . S
H575 C588 0.960 . S
C576 H568 0.929 . S
C576 C577 1.377 . S
C576 C578 1.384 . S
C577 C576 1.377 . S
C577 C583 1.390 . S
C578 H569 0.930 . S
C578 C576 1.384 . S
C578 C579 1.372 . S
C579 C578 1.372 . S
C579 C580 1.400 . S
C579 C584 1.490 . S
C580 H570 0.930 . S
C580 C579 1.400 . S
C580 C583 1.386 . S
H581 C597 0.930 . S
H582 C598 0.931 . S
C583 H571 0.929 . S
C583 C577 1.390 . S
C583 C580 1.386 . S
C584 C579 1.490 . S
C584 C586 1.395 . S
C584 C587 1.403 . S
H585 C591 0.930 . S
C586 H572 0.930 . S
C586 C584 1.395 . S
C586 C589 1.403 . S
C587 C584 1.403 . S
C587 C588 1.524 . S
C587 C591 1.400 . S
C588 H573 0.960 . S
C588 H574 0.960 . S
C588 H575 0.960 . S
C588 C587 1.524 . S
C589 C586 1.403 . S
C589 C590 1.392 . S
C589 C593 1.495 . S
C590 C589 1.392 . S
C590 C591 1.385 . S
C590 C592 1.478 . S
C591 H585 0.930 . S
C591 C587 1.400 . S
C591 C590 1.385 . S
C592 C590 1.478 . S
C592 C594 1.381 . S
C592 C598 1.383 . S
C593 C589 1.495 . S
C593 H599 0.959 . S
C593 H600 0.961 . S
C593 H601 0.960 . S
C594 C592 1.381 . S
C594 C595 1.394 . S
C594 H602 0.930 . S
C595 C594 1.394 . S
C595 C596 1.383 . S
C595 H603 0.929 . S
C596 C595 1.383 . S
C596 C597 1.377 . S
C597 H581 0.930 . S
C597 C596 1.377 . S
C597 C598 1.379 . S
C598 H582 0.931 . S
C598 C592 1.383 . S
C598 C597 1.379 . S
H599 C593 0.959 . S
H600 C593 0.961 . S
H601 C593 0.960 . S
H602 C594 0.930 . S
H603 C595 0.929 . S
H604 C612 0.929 . S
H605 C614 0.930 . S
H606 C616 0.930 . S
H607 C619 0.929 . S
H608 C622 0.930 . S
H609 C624 0.960 . S
H610 C624 0.960 . S
H611 C624 0.960 . S
C612 H604 0.929 . S
C612 C613 1.377 . S
C612 C614 1.384 . S
C613 C612 1.377 . S
C613 C619 1.390 . S
C614 H605 0.930 . S
C614 C612 1.384 . S
C614 C615 1.372 . S
C615 C614 1.372 . S
C615 C616 1.400 . S
C615 C620 1.490 . S
C616 H606 0.930 . S
C616 C615 1.400 . S
C616 C619 1.386 . S
H617 C633 0.930 . S
H618 C634 0.931 . S
C619 H607 0.929 . S
C619 C613 1.390 . S
C619 C616 1.386 . S
C620 C615 1.490 . S
C620 C622 1.395 . S
C620 C623 1.403 . S
H621 C627 0.930 . S
C622 H608 0.930 . S
C622 C620 1.395 . S
C622 C625 1.403 . S
C623 C620 1.403 . S
C623 C624 1.524 . S
C623 C627 1.400 . S
C624 H609 0.960 . S
C624 H610 0.960 . S
C624 H611 0.960 . S
C624 C623 1.524 . S
C625 C622 1.403 . S
C625 C626 1.392 . S
C625 C629 1.495 . S
C626 C625 1.392 . S
C626 C627 1.385 . S
C626 C628 1.478 . S
C627 H621 0.930 . S
C627 C623 1.400 . S
C627 C626 1.385 . S
C628 C626 1.478 . S
C628 C630 1.381 . S
C628 C634 1.383 . S
C629 C625 1.495 . S
C629 H635 0.959 . S
C629 H636 0.961 . S
C629 H637 0.960 . S
C630 C628 1.381 . S
C630 C631 1.394 . S
C630 H638 0.930 . S
C631 C630 1.394 . S
C631 C632 1.383 . S
C631 H639 0.929 . S
C632 C631 1.383 . S
C632 C633 1.377 . S
C633 H617 0.930 . S
C633 C632 1.377 . S
C633 C634 1.379 . S
C634 H618 0.931 . S
C634 C628 1.383 . S
C634 C633 1.379 . S
H635 C629 0.959 . S
H636 C629 0.961 . S
H637 C629 0.960 . S
H638 C630 0.930 . S
H639 C631 0.929 . S
H640 C648 0.929 . S
H641 C650 0.930 . S
H642 C652 0.930 . S
H643 C655 0.929 . S
H644 C658 0.930 . S
H645 C660 0.960 . S
H646 C660 0.960 . S
H647 C660 0.960 . S
C648 H640 0.929 . S
C648 C649 1.377 . S
C648 C650 1.384 . S
C649 C648 1.377 . S
C649 C655 1.390 . S
C650 H641 0.930 . S
C650 C648 1.384 . S
C650 C651 1.372 . S
C651 C650 1.372 . S
C651 C652 1.400 . S
C651 C656 1.490 . S
C652 H642 0.930 . S
C652 C651 1.400 . S
C652 C655 1.386 . S
H653 C669 0.930 . S
H654 C670 0.931 . S
C655 H643 0.929 . S
C655 C649 1.390 . S
C655 C652 1.386 . S
C656 C651 1.490 . S
C656 C658 1.395 . S
C656 C659 1.403 . S
H657 C663 0.930 . S
C658 H644 0.930 . S
C658 C656 1.395 . S
C658 C661 1.403 . S
C659 C656 1.403 . S
C659 C660 1.524 . S
C659 C663 1.400 . S
C660 H645 0.960 . S
C660 H646 0.960 . S
C660 H647 0.960 . S
C660 C659 1.524 . S
C661 C658 1.403 . S
C661 C662 1.392 . S
C661 C665 1.495 . S
C662 C661 1.392 . S
C662 C663 1.385 . S
C662 C664 1.478 . S
C663 H657 0.930 . S
C663 C659 1.400 . S
C663 C662 1.385 . S
C664 C662 1.478 . S
C664 C666 1.381 . S
C664 C670 1.383 . S
C665 C661 1.495 . S
C665 H671 0.959 . S
C665 H672 0.961 . S
C665 H673 0.960 . S
C666 C664 1.381 . S
C666 C667 1.394 . S
C666 H674 0.930 . S
C667 C666 1.394 . S
C667 C668 1.383 . S
C667 H675 0.929 . S
C668 C667 1.383 . S
C668 C669 1.377 . S
C669 H653 0.930 . S
C669 C668 1.377 . S
C669 C670 1.379 . S
C670 H654 0.931 . S
C670 C664 1.383 . S
C670 C669 1.379 . S
H671 C665 0.959 . S
H672 C665 0.961 . S
H673 C665 0.960 . S
H674 C666 0.930 . S
H675 C667 0.929 . S
H676 C684 0.929 . S
H677 C686 0.930 . S
H678 C688 0.930 . S
H679 C691 0.929 . S
H680 C694 0.930 . S
H681 C696 0.960 . S
H682 C696 0.960 . S
H683 C696 0.960 . S
C684 H676 0.929 . S
C684 C685 1.377 . S
C684 C686 1.384 . S
C685 C684 1.377 . S
C685 C691 1.390 . S
C686 H677 0.930 . S
C686 C684 1.384 . S
C686 C687 1.372 . S
C687 C686 1.372 . S
C687 C688 1.400 . S
C687 C692 1.490 . S
C688 H678 0.930 . S
C688 C687 1.400 . S
C688 C691 1.386 . S
H689 C705 0.930 . S
H690 C706 0.931 . S
C691 H679 0.929 . S
C691 C685 1.390 . S
C691 C688 1.386 . S
C692 C687 1.490 . S
C692 C694 1.395 . S
C692 C695 1.403 . S
H693 C699 0.930 . S
C694 H680 0.930 . S
C694 C692 1.395 . S
C694 C697 1.403 . S
C695 C692 1.403 . S
C695 C696 1.524 . S
C695 C699 1.400 . S
C696 H681 0.960 . S
C696 H682 0.960 . S
C696 H683 0.960 . S
C696 C695 1.524 . S
C697 C694 1.403 . S
C697 C698 1.392 . S
C697 C701 1.495 . S
C698 C697 1.392 . S
C698 C699 1.385 . S
C698 C700 1.478 . S
C699 H693 0.930 . S
C699 C695 1.400 . S
C699 C698 1.385 . S
C700 C698 1.478 . S
C700 C702 1.381 . S
C700 C706 1.383 . S
C701 C697 1.495 . S
C701 H707 0.959 . S
C701 H708 0.961 . S
C701 H709 0.960 . S
C702 C700 1.381 . S
C702 C703 1.394 . S
C702 H710 0.930 . S
C703 C702 1.394 . S
C703 C704 1.383 . S
C703 H711 0.929 . S
C704 C703 1.383 . S
C704 C705 1.377 . S
C705 H689 0.930 . S
C705 C704 1.377 . S
C705 C706 1.379 . S
C706 H690 0.931 . S
C706 C700 1.383 . S
C706 C705 1.379 . S
H707 C701 0.959 . S
H708 C701 0.961 . S
H709 C701 0.960 . S
H710 C702 0.930 . S
H711 C703 0.929 . S
H712 C720 0.929 . S
H713 C722 0.930 . S
H714 C724 0.930 . S
H715 C727 0.929 . S
H716 C730 0.930 . S
H717 C732 0.960 . S
H718 C732 0.960 . S
H719 C732 0.960 . S
C720 H712 0.929 . S
C720 C721 1.377 . S
C720 C722 1.384 . S
C721 C720 1.377 . S
C721 C727 1.390 . S
C722 H713 0.930 . S
C722 C720 1.384 . S
C722 C723 1.372 . S
C723 C722 1.372 . S
C723 C724 1.400 . S
C723 C728 1.490 . S
C724 H714 0.930 . S
C724 C723 1.400 . S
C724 C727 1.386 . S
H725 C741 0.930 . S
H726 C742 0.931 . S
C727 H715 0.929 . S
C727 C721 1.390 . S
C727 C724 1.386 . S
C728 C723 1.490 . S
C728 C730 1.395 . S
C728 C731 1.403 . S
H729 C735 0.930 . S
C730 H716 0.930 . S
C730 C728 1.395 . S
C730 C733 1.403 . S
C731 C728 1.403 . S
C731 C732 1.524 . S
C731 C735 1.400 . S
C732 H717 0.960 . S
C732 H718 0.960 . S
C732 H719 0.960 . S
C732 C731 1.524 . S
C733 C730 1.403 . S
C733 C734 1.392 . S
C733 C737 1.495 . S
C734 C733 1.392 . S
C734 C735 1.385 . S
C734 C736 1.478 . S
C735 H729 0.930 . S
C735 C731 1.400 . S
C735 C734 1.385 . S
C736 C734 1.478 . S
C736 C738 1.381 . S
C736 C742 1.383 . S
C737 C733 1.495 . S
C737 H743 0.959 . S
C737 H744 0.961 . S
C737 H745 0.960 . S
C738 C736 1.381 . S
C738 C739 1.394 . S
C738 H746 0.930 . S
C739 C738 1.394 . S
C739 C740 1.383 . S
C739 H747 0.929 . S
C740 C739 1.383 . S
C740 C741 1.377 . S
C741 H725 0.930 . S
C741 C740 1.377 . S
C741 C742 1.379 . S
C742 H726 0.931 . S
C742 C736 1.383 . S
C742 C741 1.379 . S
H743 C737 0.959 . S
H744 C737 0.961 . S
H745 C737 0.960 . S
H746 C738 0.930 . S
H747 C739 0.929 . S
H748 C756 0.929 . S
H749 C758 0.930 . S
H750 C760 0.930 . S
H751 C763 0.929 . S
H752 C766 0.930 . S
H753 C768 0.960 . S
H754 C768 0.960 . S
H755 C768 0.960 . S
C756 H748 0.929 . S
C756 C757 1.377 . S
C756 C758 1.384 . S
C757 C756 1.377 . S
C757 C763 1.390 . S
C758 H749 0.930 . S
C758 C756 1.384 . S
C758 C759 1.372 . S
C759 C758 1.372 . S
C759 C760 1.400 . S
C759 C764 1.490 . S
C760 H750 0.930 . S
C760 C759 1.400 . S
C760 C763 1.386 . S
H761 C777 0.930 . S
H762 C778 0.931 . S
C763 H751 0.929 . S
C763 C757 1.390 . S
C763 C760 1.386 . S
C764 C759 1.490 . S
C764 C766 1.395 . S
C764 C767 1.403 . S
H765 C771 0.930 . S
C766 H752 0.930 . S
C766 C764 1.395 . S
C766 C769 1.403 . S
C767 C764 1.403 . S
C767 C768 1.524 . S
C767 C771 1.400 . S
C768 H753 0.960 . S
C768 H754 0.960 . S
C768 H755 0.960 . S
C768 C767 1.524 . S
C769 C766 1.403 . S
C769 C770 1.392 . S
C769 C773 1.495 . S
C770 C769 1.392 . S
C770 C771 1.385 . S
C770 C772 1.478 . S
C771 H765 0.930 . S
C771 C767 1.400 . S
C771 C770 1.385 . S
C772 C770 1.478 . S
C772 C774 1.381 . S
C772 C778 1.383 . S
C773 C769 1.495 . S
C773 H779 0.959 . S
C773 H780 0.961 . S
C773 H781 0.960 . S
C774 C772 1.381 . S
C774 C775 1.394 . S
C774 H782 0.930 . S
C775 C774 1.394 . S
C775 C776 1.383 . S
C775 H783 0.929 . S
C776 C775 1.383 . S
C776 C777 1.377 . S
C777 H761 0.930 . S
C777 C776 1.377 . S
C777 C778 1.379 . S
C778 H762 0.931 . S
C778 C772 1.383 . S
C778 C777 1.379 . S
H779 C773 0.959 . S
H780 C773 0.961 . S
H781 C773 0.960 . S
H782 C774 0.930 . S
H783 C775 0.929 . S
H784 C792 0.929 . S
H785 C794 0.930 . S
H786 C796 0.930 . S
H787 C799 0.929 . S
H788 C802 0.930 . S
H789 C804 0.960 . S
H790 C804 0.960 . S
H791 C804 0.960 . S
C792 H784 0.929 . S
C792 C793 1.377 . S
C792 C794 1.384 . S
C793 C792 1.377 . S
C793 C799 1.390 . S
C794 H785 0.930 . S
C794 C792 1.384 . S
C794 C795 1.372 . S
C795 C794 1.372 . S
C795 C796 1.400 . S
C795 C800 1.490 . S
C796 H786 0.930 . S
C796 C795 1.400 . S
C796 C799 1.386 . S
H797 C813 0.930 . S
H798 C814 0.931 . S
C799 H787 0.929 . S
C799 C793 1.390 . S
C799 C796 1.386 . S
C800 C795 1.490 . S
C800 C802 1.395 . S
C800 C803 1.403 . S
H801 C807 0.930 . S
C802 H788 0.930 . S
C802 C800 1.395 . S
C802 C805 1.403 1_556 S
C803 C800 1.403 . S
C803 C804 1.524 . S
C803 C807 1.400 1_556 S
C804 H789 0.960 . S
C804 H790 0.960 . S
C804 H791 0.960 . S
C804 C803 1.524 . S
C805 C802 1.403 1_554 S
C805 C806 1.392 . S
C805 C809 1.495 . S
C806 C805 1.392 . S
C806 C807 1.385 . S
C806 C808 1.478 . S
C807 H801 0.930 . S
C807 C803 1.400 1_554 S
C807 C806 1.385 . S
C808 C806 1.478 . S
C808 C810 1.381 . S
C808 C814 1.383 . S
C809 C805 1.495 . S
C809 H815 0.959 . S
C809 H816 0.961 . S
C809 H817 0.960 . S
C810 C808 1.381 . S
C810 C811 1.394 . S
C810 H818 0.930 . S
C811 C810 1.394 . S
C811 C812 1.383 . S
C811 H819 0.929 . S
C812 C811 1.383 . S
C812 C813 1.377 . S
C813 H797 0.930 . S
C813 C812 1.377 . S
C813 C814 1.379 . S
C814 H798 0.931 . S
C814 C808 1.383 . S
C814 C813 1.379 . S
H815 C809 0.959 . S
H816 C809 0.961 . S
H817 C809 0.960 . S
H818 C810 0.930 . S
H819 C811 0.929 . S
H820 C828 0.929 . S
H821 C830 0.930 . S
H822 C832 0.930 . S
H823 C835 0.929 . S
H824 C838 0.930 . S
H825 C840 0.960 . S
H826 C840 0.960 . S
H827 C840 0.960 . S
C828 H820 0.929 . S
C828 C829 1.377 . S
C828 C830 1.384 . S
C829 C828 1.377 . S
C829 C835 1.390 . S
C830 H821 0.930 . S
C830 C828 1.384 . S
C830 C831 1.372 . S
C831 C830 1.372 . S
C831 C832 1.400 . S
C831 C836 1.490 . S
C832 H822 0.930 . S
C832 C831 1.400 . S
C832 C835 1.386 . S
H833 C849 0.930 . S
H834 C850 0.931 . S
C835 H823 0.929 . S
C835 C829 1.390 . S
C835 C832 1.386 . S
C836 C831 1.490 . S
C836 C838 1.395 . S
C836 C839 1.403 . S
H837 C843 0.930 . S
C838 H824 0.930 . S
C838 C836 1.395 . S
C838 C841 1.403 . S
C839 C836 1.403 . S
C839 C840 1.524 . S
C839 C843 1.400 . S
C840 H825 0.960 . S
C840 H826 0.960 . S
C840 H827 0.960 . S
C840 C839 1.524 . S
C841 C838 1.403 . S
C841 C842 1.392 . S
C841 C845 1.495 . S
C842 C841 1.392 . S
C842 C843 1.385 . S
C842 C844 1.478 . S
C843 H837 0.930 . S
C843 C839 1.400 . S
C843 C842 1.385 . S
C844 C842 1.478 . S
C844 C846 1.381 . S
C844 C850 1.383 . S
C845 C841 1.495 . S
C845 H851 0.959 . S
C845 H852 0.961 . S
C845 H853 0.960 . S
C846 C844 1.381 . S
C846 C847 1.394 . S
C846 H854 0.930 . S
C847 C846 1.394 . S
C847 C848 1.383 . S
C847 H855 0.929 . S
C848 C847 1.383 . S
C848 C849 1.377 . S
C849 H833 0.930 . S
C849 C848 1.377 . S
C849 C850 1.379 . S
C850 H834 0.931 . S
C850 C844 1.383 . S
C850 C849 1.379 . S
H851 C845 0.959 . S
H852 C845 0.961 . S
H853 C845 0.960 . S
H854 C846 0.930 . S
H855 C847 0.929 . S
H856 C864 0.929 . S
H857 C866 0.930 . S
H858 C868 0.930 . S
H859 C871 0.929 . S
H860 C874 0.930 . S
H861 C876 0.960 . S
H862 C876 0.960 . S
H863 C876 0.960 . S
C864 H856 0.929 . S
C864 C865 1.377 . S
C864 C866 1.384 . S
C865 C864 1.377 . S
C865 C871 1.390 . S
C866 H857 0.930 . S
C866 C864 1.384 . S
C866 C867 1.372 . S
C867 C866 1.372 . S
C867 C868 1.400 . S
C867 C872 1.490 . S
C868 H858 0.930 . S
C868 C867 1.400 . S
C868 C871 1.386 . S
H869 C885 0.930 . S
H870 C886 0.931 . S
C871 H859 0.929 . S
C871 C865 1.390 . S
C871 C868 1.386 . S
C872 C867 1.490 . S
C872 C874 1.395 . S
C872 C875 1.403 . S
H873 C879 0.930 . S
C874 H860 0.930 . S
C874 C872 1.395 . S
C874 C877 1.403 1_554 S
C875 C872 1.403 . S
C875 C876 1.524 . S
C875 C879 1.400 1_554 S
C876 H861 0.960 . S
C876 H862 0.960 . S
C876 H863 0.960 . S
C876 C875 1.524 . S
C877 C874 1.403 1_556 S
C877 C878 1.392 . S
C877 C881 1.495 . S
C878 C877 1.392 . S
C878 C879 1.385 . S
C878 C880 1.478 . S
C879 H873 0.930 . S
C879 C875 1.400 1_556 S
C879 C878 1.385 . S
C880 C878 1.478 . S
C880 C882 1.381 . S
C880 C886 1.383 . S
C881 C877 1.495 . S
C881 H887 0.959 . S
C881 H888 0.961 . S
C881 H889 0.960 . S
C882 C880 1.381 . S
C882 C883 1.394 . S
C882 H890 0.930 . S
C883 C882 1.394 . S
C883 C884 1.383 . S
C883 H891 0.929 . S
C884 C883 1.383 . S
C884 C885 1.377 . S
C885 H869 0.930 . S
C885 C884 1.377 . S
C885 C886 1.379 . S
C886 H870 0.931 . S
C886 C880 1.383 . S
C886 C885 1.379 . S
H887 C881 0.959 . S
H888 C881 0.961 . S
H889 C881 0.960 . S
H890 C882 0.930 . S
H891 C883 0.929 . S
H892 C900 0.929 . S
H893 C902 0.930 . S
H894 C904 0.930 . S
H895 C907 0.929 . S
H896 C910 0.930 . S
H897 C912 0.960 . S
H898 C912 0.960 . S
H899 C912 0.960 . S
C900 H892 0.929 . S
C900 C901 1.377 . S
C900 C902 1.384 . S
C901 C900 1.377 . S
C901 C907 1.390 . S
C902 H893 0.930 . S
C902 C900 1.384 . S
C902 C903 1.372 . S
C903 C902 1.372 . S
C903 C904 1.400 . S
C903 C908 1.490 . S
C904 H894 0.930 . S
C904 C903 1.400 . S
C904 C907 1.386 . S
H905 C921 0.930 . S
H906 C922 0.931 . S
C907 H895 0.929 . S
C907 C901 1.390 . S
C907 C904 1.386 . S
C908 C903 1.490 . S
C908 C910 1.395 . S
C908 C911 1.403 . S
H909 C915 0.930 . S
C910 H896 0.930 . S
C910 C908 1.395 . S
C910 C913 1.403 . S
C911 C908 1.403 . S
C911 C912 1.524 . S
C911 C915 1.400 . S
C912 H897 0.960 . S
C912 H898 0.960 . S
C912 H899 0.960 . S
C912 C911 1.524 . S
C913 C910 1.403 . S
C913 C914 1.392 . S
C913 C917 1.495 . S
C914 C913 1.392 . S
C914 C915 1.385 . S
C914 C916 1.478 . S
C915 H909 0.930 . S
C915 C911 1.400 . S
C915 C914 1.385 . S
C916 C914 1.478 . S
C916 C918 1.381 . S
C916 C922 1.383 . S
C917 C913 1.495 . S
C917 H923 0.959 . S
C917 H924 0.961 . S
C917 H925 0.960 . S
C918 C916 1.381 . S
C918 C919 1.394 . S
C918 H926 0.930 . S
C919 C918 1.394 . S
C919 C920 1.383 . S
C919 H927 0.929 . S
C920 C919 1.383 . S
C920 C921 1.377 . S
C921 H905 0.930 . S
C921 C920 1.377 . S
C921 C922 1.379 . S
C922 H906 0.931 . S
C922 C916 1.383 . S
C922 C921 1.379 . S
H923 C917 0.959 . S
H924 C917 0.961 . S
H925 C917 0.960 . S
H926 C918 0.930 . S
H927 C919 0.929 . S
H928 C936 0.929 . S
H929 C938 0.930 . S
H930 C940 0.930 . S
H931 C943 0.929 . S
H932 C946 0.930 . S
H933 C948 0.960 . S
H934 C948 0.960 . S
H935 C948 0.960 . S
C936 H928 0.929 . S
C936 C937 1.377 . S
C936 C938 1.384 . S
C937 C936 1.377 . S
C937 C943 1.390 . S
C938 H929 0.930 . S
C938 C936 1.384 . S
C938 C939 1.372 . S
C939 C938 1.372 . S
C939 C940 1.400 . S
C939 C944 1.490 . S
C940 H930 0.930 . S
C940 C939 1.400 . S
C940 C943 1.386 . S
H941 C957 0.930 . S
H942 C958 0.931 . S
C943 H931 0.929 . S
C943 C937 1.390 . S
C943 C940 1.386 . S
C944 C939 1.490 . S
C944 C946 1.395 . S
C944 C947 1.403 . S
H945 C951 0.930 . S
C946 H932 0.930 . S
C946 C944 1.395 . S
C946 C949 1.403 . S
C947 C944 1.403 . S
C947 C948 1.524 . S
C947 C951 1.400 . S
C948 H933 0.960 . S
C948 H934 0.960 . S
C948 H935 0.960 . S
C948 C947 1.524 . S
C949 C946 1.403 . S
C949 C950 1.392 . S
C949 C953 1.495 . S
C950 C949 1.392 . S
C950 C951 1.385 . S
C950 C952 1.478 . S
C951 H945 0.930 . S
C951 C947 1.400 . S
C951 C950 1.385 . S
C952 C950 1.478 . S
C952 C954 1.381 . S
C952 C958 1.383 . S
C953 C949 1.495 . S
C953 H959 0.959 . S
C953 H960 0.961 . S
C953 H961 0.960 . S
C954 C952 1.381 . S
C954 C955 1.394 . S
C954 H962 0.930 . S
C955 C954 1.394 . S
C955 C956 1.383 . S
C955 H963 0.929 . S
C956 C955 1.383 . S
C956 C957 1.377 . S
C957 H941 0.930 . S
C957 C956 1.377 . S
C957 C958 1.379 . S
C958 H942 0.931 . S
C958 C952 1.383 . S
C958 C957 1.379 . S
H959 C953 0.959 . S
H960 C953 0.961 . S
H961 C953 0.960 . S
H962 C954 0.930 . S
H963 C955 0.929 . S
H964 C972 0.929 . S
H965 C974 0.930 . S
H966 C976 0.930 . S
H967 C979 0.929 . S
H968 C982 0.930 . S
H969 C984 0.960 . S
H970 C984 0.960 . S
H971 C984 0.960 . S
C972 H964 0.929 . S
C972 C973 1.377 . S
C972 C974 1.384 . S
C973 C972 1.377 . S
C973 C979 1.390 . S
C974 H965 0.930 . S
C974 C972 1.384 . S
C974 C975 1.372 . S
C975 C974 1.372 . S
C975 C976 1.400 . S
C975 C980 1.490 . S
C976 H966 0.930 . S
C976 C975 1.400 . S
C976 C979 1.386 . S
H977 C993 0.930 . S
H978 C994 0.931 . S
C979 H967 0.929 . S
C979 C973 1.390 . S
C979 C976 1.386 . S
C980 C975 1.490 . S
C980 C982 1.395 . S
C980 C983 1.403 . S
H981 C987 0.930 . S
C982 H968 0.930 . S
C982 C980 1.395 . S
C982 C985 1.403 1_556 S
C983 C980 1.403 . S
C983 C984 1.524 . S
C983 C987 1.400 1_556 S
C984 H969 0.960 . S
C984 H970 0.960 . S
C984 H971 0.960 . S
C984 C983 1.524 . S
C985 C982 1.403 1_554 S
C985 C986 1.392 . S
C985 C989 1.495 . S
C986 C985 1.392 . S
C986 C987 1.385 . S
C986 C988 1.478 . S
C987 H981 0.930 . S
C987 C983 1.400 1_554 S
C987 C986 1.385 . S
C988 C986 1.478 . S
C988 C990 1.381 . S
C988 C994 1.383 . S
C989 C985 1.495 . S
C989 H995 0.959 . S
C989 H996 0.961 . S
C989 H997 0.960 . S
C990 C988 1.381 . S
C990 C991 1.394 . S
C990 H998 0.930 . S
C991 C990 1.394 . S
C991 C992 1.383 . S
C991 H999 0.929 . S
C992 C991 1.383 . S
C992 C993 1.377 . S
C993 H977 0.930 . S
C993 C992 1.377 . S
C993 C994 1.379 . S
C994 H978 0.931 . S
C994 C988 1.383 . S
C994 C993 1.379 . S
H995 C989 0.959 . S
H996 C989 0.961 . S
H997 C989 0.960 . S
H998 C990 0.930 . S
H999 C991 0.929 . S
H1000 C1008 0.929 . S
H1001 C1010 0.930 . S
H1002 C1012 0.930 . S
H1003 C1015 0.929 . S
H1004 C1018 0.930 . S
H1005 C1020 0.960 . S
H1006 C1020 0.960 . S
H1007 C1020 0.960 . S
C1008 H1000 0.929 . S
C1008 C1009 1.377 . S
C1008 C1010 1.384 . S
C1009 C1008 1.377 . S
C1009 C1015 1.390 . S
C1010 H1001 0.930 . S
C1010 C1008 1.384 . S
C1010 C1011 1.372 . S
C1011 C1010 1.372 . S
C1011 C1012 1.400 . S
C1011 C1016 1.490 . S
C1012 H1002 0.930 . S
C1012 C1011 1.400 . S
C1012 C1015 1.386 . S
H1013 C1029 0.930 . S
H1014 C1030 0.931 . S
C1015 H1003 0.929 . S
C1015 C1009 1.390 . S
C1015 C1012 1.386 . S
C1016 C1011 1.490 . S
C1016 C1018 1.395 . S
C1016 C1019 1.403 . S
H1017 C1023 0.930 . S
C1018 H1004 0.930 . S
C1018 C1016 1.395 . S
C1018 C1021 1.403 . S
C1019 C1016 1.403 . S
C1019 C1020 1.524 . S
C1019 C1023 1.400 . S
C1020 H1005 0.960 . S
C1020 H1006 0.960 . S
C1020 H1007 0.960 . S
C1020 C1019 1.524 . S
C1021 C1018 1.403 . S
C1021 C1022 1.392 . S
C1021 C1025 1.495 . S
C1022 C1021 1.392 . S
C1022 C1023 1.385 . S
C1022 C1024 1.478 . S
C1023 H1017 0.930 . S
C1023 C1019 1.400 . S
C1023 C1022 1.385 . S
C1024 C1022 1.478 . S
C1024 C1026 1.381 . S
C1024 C1030 1.383 . S
C1025 C1021 1.495 . S
C1025 H1031 0.959 . S
C1025 H1032 0.961 . S
C1025 H1033 0.960 . S
C1026 C1024 1.381 . S
C1026 C1027 1.394 . S
C1026 H1034 0.930 . S
C1027 C1026 1.394 . S
C1027 C1028 1.383 . S
C1027 H1035 0.929 . S
C1028 C1027 1.383 . S
C1028 C1029 1.377 . S
C1029 H1013 0.930 . S
C1029 C1028 1.377 . S
C1029 C1030 1.379 . S
C1030 H1014 0.931 . S
C1030 C1024 1.383 . S
C1030 C1029 1.379 . S
H1031 C1025 0.959 . S
H1032 C1025 0.961 . S
H1033 C1025 0.960 . S
H1034 C1026 0.930 . S
H1035 C1027 0.929 . S
H1036 C1044 0.929 . S
H1037 C1046 0.930 . S
H1038 C1048 0.930 . S
H1039 C1051 0.929 . S
H1040 C1054 0.930 . S
H1041 C1056 0.960 . S
H1042 C1056 0.960 . S
H1043 C1056 0.960 . S
C1044 H1036 0.929 . S
C1044 C1045 1.377 . S
C1044 C1046 1.384 . S
C1045 C1044 1.377 . S
C1045 C1051 1.390 . S
C1046 H1037 0.930 . S
C1046 C1044 1.384 . S
C1046 C1047 1.372 . S
C1047 C1046 1.372 . S
C1047 C1048 1.400 . S
C1047 C1052 1.490 . S
C1048 H1038 0.930 . S
C1048 C1047 1.400 . S
C1048 C1051 1.386 . S
H1049 C1065 0.930 . S
H1050 C1066 0.931 . S
C1051 H1039 0.929 . S
C1051 C1045 1.390 . S
C1051 C1048 1.386 . S
C1052 C1047 1.490 . S
C1052 C1054 1.395 . S
C1052 C1055 1.403 . S
H1053 C1059 0.930 . S
C1054 H1040 0.930 . S
C1054 C1052 1.395 . S
C1054 C1057 1.403 1_554 S
C1055 C1052 1.403 . S
C1055 C1056 1.524 . S
C1055 C1059 1.400 1_554 S
C1056 H1041 0.960 . S
C1056 H1042 0.960 . S
C1056 H1043 0.960 . S
C1056 C1055 1.524 . S
C1057 C1054 1.403 1_556 S
C1057 C1058 1.392 . S
C1057 C1061 1.495 . S
C1058 C1057 1.392 . S
C1058 C1059 1.385 . S
C1058 C1060 1.478 . S
C1059 H1053 0.930 . S
C1059 C1055 1.400 1_556 S
C1059 C1058 1.385 . S
C1060 C1058 1.478 . S
C1060 C1062 1.381 . S
C1060 C1066 1.383 . S
C1061 C1057 1.495 . S
C1061 H1067 0.959 . S
C1061 H1068 0.961 . S
C1061 H1069 0.960 . S
C1062 C1060 1.381 . S
C1062 C1063 1.394 . S
C1062 H1070 0.930 . S
C1063 C1062 1.394 . S
C1063 C1064 1.383 . S
C1063 H1071 0.929 . S
C1064 C1063 1.383 . S
C1064 C1065 1.377 . S
C1065 H1049 0.930 . S
C1065 C1064 1.377 . S
C1065 C1066 1.379 . S
C1066 H1050 0.931 . S
C1066 C1060 1.383 . S
C1066 C1065 1.379 . S
H1067 C1061 0.959 . S
H1068 C1061 0.961 . S
H1069 C1061 0.960 . S
H1070 C1062 0.930 . S
H1071 C1063 0.929 . S
H1072 C1080 0.929 . S
H1073 C1082 0.930 . S
H1074 C1084 0.930 . S
H1075 C1087 0.929 . S
H1076 C1090 0.930 . S
H1077 C1092 0.960 . S
H1078 C1092 0.960 . S
H1079 C1092 0.960 . S
C1080 H1072 0.929 . S
C1080 C1081 1.377 . S
C1080 C1082 1.384 . S
C1081 C1080 1.377 . S
C1081 C1087 1.390 . S
C1082 H1073 0.930 . S
C1082 C1080 1.384 . S
C1082 C1083 1.372 . S
C1083 C1082 1.372 . S
C1083 C1084 1.400 . S
C1083 C1088 1.490 . S
C1084 H1074 0.930 . S
C1084 C1083 1.400 . S
C1084 C1087 1.386 . S
H1085 C1101 0.930 . S
H1086 C1102 0.931 . S
C1087 H1075 0.929 . S
C1087 C1081 1.390 . S
C1087 C1084 1.386 . S
C1088 C1083 1.490 . S
C1088 C1090 1.395 . S
C1088 C1091 1.403 . S
H1089 C1095 0.930 . S
C1090 H1076 0.930 . S
C1090 C1088 1.395 . S
C1090 C1093 1.403 . S
C1091 C1088 1.403 . S
C1091 C1092 1.524 . S
C1091 C1095 1.400 . S
C1092 H1077 0.960 . S
C1092 H1078 0.960 . S
C1092 H1079 0.960 . S
C1092 C1091 1.524 . S
C1093 C1090 1.403 . S
C1093 C1094 1.392 . S
C1093 C1097 1.495 . S
C1094 C1093 1.392 . S
C1094 C1095 1.385 . S
C1094 C1096 1.478 . S
C1095 H1089 0.930 . S
C1095 C1091 1.400 . S
C1095 C1094 1.385 . S
C1096 C1094 1.478 . S
C1096 C1098 1.381 . S
C1096 C1102 1.383 . S
C1097 C1093 1.495 . S
C1097 H1103 0.959 . S
C1097 H1104 0.961 . S
C1097 H1105 0.960 . S
C1098 C1096 1.381 . S
C1098 C1099 1.394 . S
C1098 H1106 0.930 . S
C1099 C1098 1.394 . S
C1099 C1100 1.383 . S
C1099 H1107 0.929 . S
C1100 C1099 1.383 . S
C1100 C1101 1.377 . S
C1101 H1085 0.930 . S
C1101 C1100 1.377 . S
C1101 C1102 1.379 . S
C1102 H1086 0.931 . S
C1102 C1096 1.383 . S
C1102 C1101 1.379 . S
H1103 C1097 0.959 . S
H1104 C1097 0.961 . S
H1105 C1097 0.960 . S
H1106 C1098 0.930 . S
H1107 C1099 0.929 . S
H1108 C1116 0.929 . S
H1109 C1118 0.930 . S
H1110 C1120 0.930 . S
H1111 C1123 0.929 . S
H1112 C1126 0.930 . S
H1113 C1128 0.960 . S
H1114 C1128 0.960 . S
H1115 C1128 0.960 . S
C1116 H1108 0.929 . S
C1116 C1117 1.377 . S
C1116 C1118 1.384 . S
C1117 C1116 1.377 . S
C1117 C1123 1.390 . S
C1118 H1109 0.930 . S
C1118 C1116 1.384 . S
C1118 C1119 1.372 . S
C1119 C1118 1.372 . S
C1119 C1120 1.400 . S
C1119 C1124 1.490 . S
C1120 H1110 0.930 . S
C1120 C1119 1.400 . S
C1120 C1123 1.386 . S
H1121 C1137 0.930 . S
H1122 C1138 0.931 . S
C1123 H1111 0.929 . S
C1123 C1117 1.390 . S
C1123 C1120 1.386 . S
C1124 C1119 1.490 . S
C1124 C1126 1.395 . S
C1124 C1127 1.403 . S
H1125 C1131 0.930 . S
C1126 H1112 0.930 . S
C1126 C1124 1.395 . S
C1126 C1129 1.403 . S
C1127 C1124 1.403 . S
C1127 C1128 1.524 . S
C1127 C1131 1.400 . S
C1128 H1113 0.960 . S
C1128 H1114 0.960 . S
C1128 H1115 0.960 . S
C1128 C1127 1.524 . S
C1129 C1126 1.403 . S
C1129 C1130 1.392 . S
C1129 C1133 1.495 . S
C1130 C1129 1.392 . S
C1130 C1131 1.385 . S
C1130 C1132 1.478 . S
C1131 H1125 0.930 . S
C1131 C1127 1.400 . S
C1131 C1130 1.385 . S
C1132 C1130 1.478 . S
C1132 C1134 1.381 . S
C1132 C1138 1.383 . S
C1133 C1129 1.495 . S
C1133 H1139 0.959 . S
C1133 H1140 0.961 . S
C1133 H1141 0.960 . S
C1134 C1132 1.381 . S
C1134 C1135 1.394 . S
C1134 H1142 0.930 . S
C1135 C1134 1.394 . S
C1135 C1136 1.383 . S
C1135 H1143 0.929 . S
C1136 C1135 1.383 . S
C1136 C1137 1.377 . S
C1137 H1121 0.930 . S
C1137 C1136 1.377 . S
C1137 C1138 1.379 . S
C1138 H1122 0.931 . S
C1138 C1132 1.383 . S
C1138 C1137 1.379 . S
H1139 C1133 0.959 . S
H1140 C1133 0.961 . S
H1141 C1133 0.960 . S
H1142 C1134 0.930 . S
H1143 C1135 0.929 . S
H1144 C1152 0.929 . S
H1145 C1154 0.930 . S
H1146 C1156 0.930 . S
H1147 C1159 0.929 . S
H1148 C1162 0.930 . S
H1149 C1164 0.960 . S
H1150 C1164 0.960 . S
H1151 C1164 0.960 . S
C1152 H1144 0.929 . S
C1152 C1153 1.377 . S
C1152 C1154 1.384 . S
C1153 C1152 1.377 . S
C1153 C1159 1.390 . S
C1154 H1145 0.930 . S
C1154 C1152 1.384 . S
C1154 C1155 1.372 . S
C1155 C1154 1.372 . S
C1155 C1156 1.400 . S
C1155 C1160 1.490 . S
C1156 H1146 0.930 . S
C1156 C1155 1.400 . S
C1156 C1159 1.386 . S
H1157 C1173 0.930 . S
H1158 C1174 0.931 . S
C1159 H1147 0.929 . S
C1159 C1153 1.390 . S
C1159 C1156 1.386 . S
C1160 C1155 1.490 . S
C1160 C1162 1.395 . S
C1160 C1163 1.403 . S
H1161 C1167 0.930 . S
C1162 H1148 0.930 . S
C1162 C1160 1.395 . S
C1162 C1165 1.403 . S
C1163 C1160 1.403 . S
C1163 C1164 1.524 . S
C1163 C1167 1.400 . S
C1164 H1149 0.960 . S
C1164 H1150 0.960 . S
C1164 H1151 0.960 . S
C1164 C1163 1.524 . S
C1165 C1162 1.403 . S
C1165 C1166 1.392 . S
C1165 C1169 1.495 . S
C1166 C1165 1.392 . S
C1166 C1167 1.385 . S
C1166 C1168 1.478 . S
C1167 H1161 0.930 . S
C1167 C1163 1.400 . S
C1167 C1166 1.385 . S
C1168 C1166 1.478 . S
C1168 C1170 1.381 . S
C1168 C1174 1.383 . S
C1169 C1165 1.495 . S
C1169 H1175 0.959 . S
C1169 H1176 0.961 . S
C1169 H1177 0.960 . S
C1170 C1168 1.381 . S
C1170 C1171 1.394 . S
C1170 H1178 0.930 . S
C1171 C1170 1.394 . S
C1171 C1172 1.383 . S
C1171 H1179 0.929 . S
C1172 C1171 1.383 . S
C1172 C1173 1.377 . S
C1173 H1157 0.930 . S
C1173 C1172 1.377 . S
C1173 C1174 1.379 . S
C1174 H1158 0.931 . S
C1174 C1168 1.383 . S
C1174 C1173 1.379 . S
H1175 C1169 0.959 . S
H1176 C1169 0.961 . S
H1177 C1169 0.960 . S
H1178 C1170 0.930 . S
H1179 C1171 0.929 . S
H1180 C1188 0.929 . S
H1181 C1190 0.930 . S
H1182 C1192 0.930 . S
H1183 C1195 0.929 . S
H1184 C1198 0.930 . S
H1185 C1200 0.960 . S
H1186 C1200 0.960 . S
H1187 C1200 0.960 . S
C1188 H1180 0.929 . S
C1188 C1189 1.377 . S
C1188 C1190 1.384 . S
C1189 C1188 1.377 . S
C1189 C1195 1.390 . S
C1190 H1181 0.930 . S
C1190 C1188 1.384 . S
C1190 C1191 1.372 . S
C1191 C1190 1.372 . S
C1191 C1192 1.400 . S
C1191 C1196 1.490 . S
C1192 H1182 0.930 . S
C1192 C1191 1.400 . S
C1192 C1195 1.386 . S
H1193 C1209 0.930 . S
H1194 C1210 0.931 . S
C1195 H1183 0.929 . S
C1195 C1189 1.390 . S
C1195 C1192 1.386 . S
C1196 C1191 1.490 . S
C1196 C1198 1.395 . S
C1196 C1199 1.403 . S
H1197 C1203 0.930 . S
C1198 H1184 0.930 . S
C1198 C1196 1.395 . S
C1198 C1201 1.403 . S
C1199 C1196 1.403 . S
C1199 C1200 1.524 . S
C1199 C1203 1.400 . S
C1200 H1185 0.960 . S
C1200 H1186 0.960 . S
C1200 H1187 0.960 . S
C1200 C1199 1.524 . S
C1201 C1198 1.403 . S
C1201 C1202 1.392 . S
C1201 C1205 1.495 . S
C1202 C1201 1.392 . S
C1202 C1203 1.385 . S
C1202 C1204 1.478 . S
C1203 H1197 0.930 . S
C1203 C1199 1.400 . S
C1203 C1202 1.385 . S
C1204 C1202 1.478 . S
C1204 C1206 1.381 . S
C1204 C1210 1.383 . S
C1205 C1201 1.495 . S
C1205 H1211 0.959 . S
C1205 H1212 0.961 . S
C1205 H1213 0.960 . S
C1206 C1204 1.381 . S
C1206 C1207 1.394 . S
C1206 H1214 0.930 . S
C1207 C1206 1.394 . S
C1207 C1208 1.383 . S
C1207 H1215 0.929 . S
C1208 C1207 1.383 . S
C1208 C1209 1.377 . S
C1209 H1193 0.930 . S
C1209 C1208 1.377 . S
C1209 C1210 1.379 . S
C1210 H1194 0.931 . S
C1210 C1204 1.383 . S
C1210 C1209 1.379 . S
H1211 C1205 0.959 . S
H1212 C1205 0.961 . S
H1213 C1205 0.960 . S
H1214 C1206 0.930 . S
H1215 C1207 0.929 . S
H1216 C1224 0.929 . S
H1217 C1226 0.930 . S
H1218 C1228 0.930 . S
H1219 C1231 0.929 . S
H1220 C1234 0.930 . S
H1221 C1236 0.960 . S
H1222 C1236 0.960 . S
H1223 C1236 0.960 . S
C1224 H1216 0.929 . S
C1224 C1225 1.377 . S
C1224 C1226 1.384 . S
C1225 C1224 1.377 . S
C1225 C1231 1.390 . S
C1226 H1217 0.930 . S
C1226 C1224 1.384 . S
C1226 C1227 1.372 . S
C1227 C1226 1.372 . S
C1227 C1228 1.400 . S
C1227 C1232 1.490 . S
C1228 H1218 0.930 . S
C1228 C1227 1.400 . S
C1228 C1231 1.386 . S
H1229 C1245 0.930 . S
H1230 C1246 0.931 . S
C1231 H1219 0.929 . S
C1231 C1225 1.390 . S
C1231 C1228 1.386 . S
C1232 C1227 1.490 . S
C1232 C1234 1.395 . S
C1232 C1235 1.403 . S
H1233 C1239 0.930 . S
C1234 H1220 0.930 . S
C1234 C1232 1.395 . S
C1234 C1237 1.403 . S
C1235 C1232 1.403 . S
C1235 C1236 1.524 . S
C1235 C1239 1.400 . S
C1236 H1221 0.960 . S
C1236 H1222 0.960 . S
C1236 H1223 0.960 . S
C1236 C1235 1.524 . S
C1237 C1234 1.403 . S
C1237 C1238 1.392 . S
C1237 C1241 1.495 . S
C1238 C1237 1.392 . S
C1238 C1239 1.385 . S
C1238 C1240 1.478 . S
C1239 H1233 0.930 . S
C1239 C1235 1.400 . S
C1239 C1238 1.385 . S
C1240 C1238 1.478 . S
C1240 C1242 1.381 . S
C1240 C1246 1.383 . S
C1241 C1237 1.495 . S
C1241 H1247 0.959 . S
C1241 H1248 0.961 . S
C1241 H1249 0.960 . S
C1242 C1240 1.381 . S
C1242 C1243 1.394 . S
C1242 H1250 0.930 . S
C1243 C1242 1.394 . S
C1243 C1244 1.383 . S
C1243 H1251 0.929 . S
C1244 C1243 1.383 . S
C1244 C1245 1.377 . S
C1245 H1229 0.930 . S
C1245 C1244 1.377 . S
C1245 C1246 1.379 . S
C1246 H1230 0.931 . S
C1246 C1240 1.383 . S
C1246 C1245 1.379 . S
H1247 C1241 0.959 . S
H1248 C1241 0.961 . S
H1249 C1241 0.960 . S
H1250 C1242 0.930 . S
H1251 C1243 0.929 . S
H1252 C1260 0.929 . S
H1253 C1262 0.930 . S
H1254 C1264 0.930 . S
H1255 C1267 0.929 . S
H1256 C1270 0.930 . S
H1257 C1272 0.960 . S
H1258 C1272 0.960 . S
H1259 C1272 0.960 . S
C1260 H1252 0.929 . S
C1260 C1261 1.377 . S
C1260 C1262 1.384 . S
C1261 C1260 1.377 . S
C1261 C1267 1.390 . S
C1262 H1253 0.930 . S
C1262 C1260 1.384 . S
C1262 C1263 1.372 . S
C1263 C1262 1.372 . S
C1263 C1264 1.400 . S
C1263 C1268 1.490 . S
C1264 H1254 0.930 . S
C1264 C1263 1.400 . S
C1264 C1267 1.386 . S
H1265 C1281 0.930 . S
H1266 C1282 0.931 . S
C1267 H1255 0.929 . S
C1267 C1261 1.390 . S
C1267 C1264 1.386 . S
C1268 C1263 1.490 . S
C1268 C1270 1.395 . S
C1268 C1271 1.403 . S
H1269 C1275 0.930 . S
C1270 H1256 0.930 . S
C1270 C1268 1.395 . S
C1270 C1273 1.403 . S
C1271 C1268 1.403 . S
C1271 C1272 1.524 . S
C1271 C1275 1.400 . S
C1272 H1257 0.960 . S
C1272 H1258 0.960 . S
C1272 H1259 0.960 . S
C1272 C1271 1.524 . S
C1273 C1270 1.403 . S
C1273 C1274 1.392 . S
C1273 C1277 1.495 . S
C1274 C1273 1.392 . S
C1274 C1275 1.385 . S
C1274 C1276 1.478 . S
C1275 H1269 0.930 . S
C1275 C1271 1.400 . S
C1275 C1274 1.385 . S
C1276 C1274 1.478 . S
C1276 C1278 1.381 . S
C1276 C1282 1.383 . S
C1277 C1273 1.495 . S
C1277 H1283 0.959 . S
C1277 H1284 0.961 . S
C1277 H1285 0.960 . S
C1278 C1276 1.381 . S
C1278 C1279 1.394 . S
C1278 H1286 0.930 . S
C1279 C1278 1.394 . S
C1279 C1280 1.383 . S
C1279 H1287 0.929 . S
C1280 C1279 1.383 . S
C1280 C1281 1.377 . S
C1281 H1265 0.930 . S
C1281 C1280 1.377 . S
C1281 C1282 1.379 . S
C1282 H1266 0.931 . S
C1282 C1276 1.383 . S
C1282 C1281 1.379 . S
H1283 C1277 0.959 . S
H1284 C1277 0.961 . S
H1285 C1277 0.960 . S
H1286 C1278 0.930 . S
H1287 C1279 0.929 . S
H1288 C1296 0.929 . S
H1289 C1298 0.930 . S
H1290 C1300 0.930 . S
H1291 C1303 0.929 . S
H1292 C1306 0.930 . S
H1293 C1308 0.960 . S
H1294 C1308 0.960 . S
H1295 C1308 0.960 . S
C1296 H1288 0.929 . S
C1296 C1297 1.377 . S
C1296 C1298 1.384 . S
C1297 C1296 1.377 . S
C1297 C1303 1.390 . S
C1298 H1289 0.930 . S
C1298 C1296 1.384 . S
C1298 C1299 1.372 . S
C1299 C1298 1.372 . S
C1299 C1300 1.400 . S
C1299 C1304 1.490 . S
C1300 H1290 0.930 . S
C1300 C1299 1.400 . S
C1300 C1303 1.386 . S
H1301 C1317 0.930 . S
H1302 C1318 0.931 . S
C1303 H1291 0.929 . S
C1303 C1297 1.390 . S
C1303 C1300 1.386 . S
C1304 C1299 1.490 . S
C1304 C1306 1.395 . S
C1304 C1307 1.403 . S
H1305 C1311 0.930 . S
C1306 H1292 0.930 . S
C1306 C1304 1.395 . S
C1306 C1309 1.403 . S
C1307 C1304 1.403 . S
C1307 C1308 1.524 . S
C1307 C1311 1.400 . S
C1308 H1293 0.960 . S
C1308 H1294 0.960 . S
C1308 H1295 0.960 . S
C1308 C1307 1.524 . S
C1309 C1306 1.403 . S
C1309 C1310 1.392 . S
C1309 C1313 1.495 . S
C1310 C1309 1.392 . S
C1310 C1311 1.385 . S
C1310 C1312 1.478 . S
C1311 H1305 0.930 . S
C1311 C1307 1.400 . S
C1311 C1310 1.385 . S
C1312 C1310 1.478 . S
C1312 C1314 1.381 . S
C1312 C1318 1.383 . S
C1313 C1309 1.495 . S
C1313 H1319 0.959 . S
C1313 H1320 0.961 . S
C1313 H1321 0.960 . S
C1314 C1312 1.381 . S
C1314 C1315 1.394 . S
C1314 H1322 0.930 . S
C1315 C1314 1.394 . S
C1315 C1316 1.383 . S
C1315 H1323 0.929 . S
C1316 C1315 1.383 . S
C1316 C1317 1.377 . S
C1317 H1301 0.930 . S
C1317 C1316 1.377 . S
C1317 C1318 1.379 . S
C1318 H1302 0.931 . S
C1318 C1312 1.383 . S
C1318 C1317 1.379 . S
H1319 C1313 0.959 . S
H1320 C1313 0.961 . S
H1321 C1313 0.960 . S
H1322 C1314 0.930 . S
H1323 C1315 0.929 . S
H1324 C1332 0.929 . S
H1325 C1334 0.930 . S
H1326 C1336 0.930 . S
H1327 C1339 0.929 . S
H1328 C1342 0.930 . S
H1329 C1344 0.960 . S
H1330 C1344 0.960 . S
H1331 C1344 0.960 . S
C1332 H1324 0.929 . S
C1332 C1333 1.377 . S
C1332 C1334 1.384 . S
C1333 C1332 1.377 . S
C1333 C1339 1.390 . S
C1334 H1325 0.930 . S
C1334 C1332 1.384 . S
C1334 C1335 1.372 . S
C1335 C1334 1.372 . S
C1335 C1336 1.400 . S
C1335 C1340 1.490 . S
C1336 H1326 0.930 . S
C1336 C1335 1.400 . S
C1336 C1339 1.386 . S
H1337 C1353 0.930 . S
H1338 C1354 0.931 . S
C1339 H1327 0.929 . S
C1339 C1333 1.390 . S
C1339 C1336 1.386 . S
C1340 C1335 1.490 . S
C1340 C1342 1.395 . S
C1340 C1343 1.403 . S
H1341 C1347 0.930 . S
C1342 H1328 0.930 . S
C1342 C1340 1.395 . S
C1342 C1345 1.403 . S
C1343 C1340 1.403 . S
C1343 C1344 1.524 . S
C1343 C1347 1.400 . S
C1344 H1329 0.960 . S
C1344 H1330 0.960 . S
C1344 H1331 0.960 . S
C1344 C1343 1.524 . S
C1345 C1342 1.403 . S
C1345 C1346 1.392 . S
C1345 C1349 1.495 . S
C1346 C1345 1.392 . S
C1346 C1347 1.385 . S
C1346 C1348 1.478 . S
C1347 H1341 0.930 . S
C1347 C1343 1.400 . S
C1347 C1346 1.385 . S
C1348 C1346 1.478 . S
C1348 C1350 1.381 . S
C1348 C1354 1.383 . S
C1349 C1345 1.495 . S
C1349 H1355 0.959 . S
C1349 H1356 0.961 . S
C1349 H1357 0.960 . S
C1350 C1348 1.381 . S
C1350 C1351 1.394 . S
C1350 H1358 0.930 . S
C1351 C1350 1.394 . S
C1351 C1352 1.383 . S
C1351 H1359 0.929 . S
C1352 C1351 1.383 . S
C1352 C1353 1.377 . S
C1353 H1337 0.930 . S
C1353 C1352 1.377 . S
C1353 C1354 1.379 . S
C1354 H1338 0.931 . S
C1354 C1348 1.383 . S
C1354 C1353 1.379 . S
H1355 C1349 0.959 . S
H1356 C1349 0.961 . S
H1357 C1349 0.960 . S
H1358 C1350 0.930 . S
H1359 C1351 0.929 . S
C217 C3 1.327 . S
C236 C31 1.334 . S
C253 C42 1.325 . S
C272 C18 1.336 . S
C289 C55 1.327 . S
C308 C81 1.339 . S
C325 C96 1.320 . S
C344 C70 1.306 . S
C361 C107 1.327 . S
C380 C135 1.329 . S
C397 C146 1.322 . S
C416 C122 1.304 . S
C433 C159 1.326 . S
C452 C187 1.306 . S
C469 C200 1.327 . S
C488 C172 1.309 . S
C505 C57 1.204 . S
C524 C5 1.178 . S
C541 C16 1.199 . S
C560 C68 1.220 . S
C577 C29 1.199 . S
C596 C83 1.191 . S
C613 C94 1.202 . S
C632 C44 1.180 . S
C649 C109 1.203 . S
C668 C161 1.206 . S
C685 C120 1.198 . S
C704 C174 1.181 . S
C721 C133 1.199 . S
C740 C185 1.189 . S
C757 C148 1.205 . S
C776 C198 1.218 . S
C793 C140 1.279 . S
C812 C4 1.265 . S
C829 C147 1.278 . S
C848 C23 1.260 . S
C865 C36 1.278 . S
C884 C108 1.277 . S
C901 C43 1.278 . S
C920 C127 1.259 . S
C937 C56 1.279 . S
C956 C192 1.267 . S
C973 C75 1.277 . S
C992 C205 1.257 . S
C1009 C82 1.275 . S
C1028 C160 1.288 . S
C1045 C173 1.273 . S
C1064 C101 1.286 . S
C1081 C10 1.266 . S
C1100 C199 1.255 . S
C1117 C166 1.268 . S
C1136 C17 1.256 . S
C1153 C30 1.267 . S
C1172 C179 1.254 . S
C1189 C186 1.264 . S
C1208 C49 1.271 . S
C1225 C121 1.268 . S
C1244 C62 1.256 . S
C1261 C69 1.264 . S
C1280 C134 1.265 . S
C1297 C153 1.267 . S
C1316 C88 1.254 . S
C1333 C114 1.268 . S
C1352 C95 1.258 . S
