# Generated by pormake.
# Topology wjc, (7)-cn, num edge types: 1
# Building blocks:
#     Node 0, Type 0, BuildingBlock: NUHQUE_clean_sbu_2, # of connection points: 7
#     Node 1, Type 0, BuildingBlock: NUHQUE_clean_sbu_2, # of connection points: 7
#     Node 2, Type 0, BuildingBlock: NUHQUE_clean_sbu_2, # of connection points: 7
#     Node 3, Type 0, BuildingBlock: NUHQUE_clean_sbu_2, # of connection points: 7
#     Node 4, Type 0, BuildingBlock: NUHQUE_clean_sbu_2, # of connection points: 7
#     Node 5, Type 0, BuildingBlock: NUHQUE_clean_sbu_2, # of connection points: 7
#     Node 6, Type 0, BuildingBlock: NUHQUE_clean_sbu_2, # of connection points: 7
#     Node 7, Type 0, BuildingBlock: NUHQUE_clean_sbu_2, # of connection points: 7
#     Node 8, Type 0, BuildingBlock: NUHQUE_clean_sbu_2, # of connection points: 7
#     Node 9, Type 0, BuildingBlock: NUHQUE_clean_sbu_2, # of connection points: 7
#     Node 10, Type 0, BuildingBlock: NUHQUE_clean_sbu_2, # of connection points: 7
#     Node 11, Type 0, BuildingBlock: NUHQUE_clean_sbu_2, # of connection points: 7
#     Node 12, Type 0, BuildingBlock: NUHQUE_clean_sbu_2, # of connection points: 7
#     Node 13, Type 0, BuildingBlock: NUHQUE_clean_sbu_2, # of connection points: 7
#     Node 14, Type 0, BuildingBlock: NUHQUE_clean_sbu_2, # of connection points: 7
#     Node 15, Type 0, BuildingBlock: NUHQUE_clean_sbu_2, # of connection points: 7
#     Node 16, Type 0, BuildingBlock: NUHQUE_clean_sbu_2, # of connection points: 7
#     Node 17, Type 0, BuildingBlock: NUHQUE_clean_sbu_2, # of connection points: 7
#     Node 18, Type 0, BuildingBlock: NUHQUE_clean_sbu_2, # of connection points: 7
#     Node 19, Type 0, BuildingBlock: NUHQUE_clean_sbu_2, # of connection points: 7
#     Node 20, Type 0, BuildingBlock: NUHQUE_clean_sbu_2, # of connection points: 7
#     Node 21, Type 0, BuildingBlock: NUHQUE_clean_sbu_2, # of connection points: 7
#     Node 22, Type 0, BuildingBlock: NUHQUE_clean_sbu_2, # of connection points: 7
#     Node 23, Type 0, BuildingBlock: NUHQUE_clean_sbu_2, # of connection points: 7
#     Edge 24, Type (0, 0), BuildingBlock: TEMPAE_clean_linker_10, # of connection points: 2
#     Edge 25, Type (0, 0), BuildingBlock: TEMPAE_clean_linker_10, # of connection points: 2
#     Edge 26, Type (0, 0), BuildingBlock: TEMPAE_clean_linker_10, # of connection points: 2
#     Edge 27, Type (0, 0), BuildingBlock: TEMPAE_clean_linker_10, # of connection points: 2
#     Edge 28, Type (0, 0), BuildingBlock: TEMPAE_clean_linker_10, # of connection points: 2
#     Edge 29, Type (0, 0), BuildingBlock: TEMPAE_clean_linker_10, # of connection points: 2
#     Edge 30, Type (0, 0), BuildingBlock: TEMPAE_clean_linker_10, # of connection points: 2
#     Edge 31, Type (0, 0), BuildingBlock: TEMPAE_clean_linker_10, # of connection points: 2
#     Edge 32, Type (0, 0), BuildingBlock: TEMPAE_clean_linker_10, # of connection points: 2
#     Edge 33, Type (0, 0), BuildingBlock: TEMPAE_clean_linker_10, # of connection points: 2
#     Edge 34, Type (0, 0), BuildingBlock: TEMPAE_clean_linker_10, # of connection points: 2
#     Edge 35, Type (0, 0), BuildingBlock: TEMPAE_clean_linker_10, # of connection points: 2
#     Edge 36, Type (0, 0), BuildingBlock: TEMPAE_clean_linker_10, # of connection points: 2
#     Edge 37, Type (0, 0), BuildingBlock: TEMPAE_clean_linker_10, # of connection points: 2
#     Edge 38, Type (0, 0), BuildingBlock: TEMPAE_clean_linker_10, # of connection points: 2
#     Edge 39, Type (0, 0), BuildingBlock: TEMPAE_clean_linker_10, # of connection points: 2
#     Edge 40, Type (0, 0), BuildingBlock: TEMPAE_clean_linker_10, # of connection points: 2
#     Edge 41, Type (0, 0), BuildingBlock: TEMPAE_clean_linker_10, # of connection points: 2
#     Edge 42, Type (0, 0), BuildingBlock: TEMPAE_clean_linker_10, # of connection points: 2
#     Edge 43, Type (0, 0), BuildingBlock: TEMPAE_clean_linker_10, # of connection points: 2
#     Edge 44, Type (0, 0), BuildingBlock: TEMPAE_clean_linker_10, # of connection points: 2
#     Edge 45, Type (0, 0), BuildingBlock: TEMPAE_clean_linker_10, # of connection points: 2
#     Edge 46, Type (0, 0), BuildingBlock: TEMPAE_clean_linker_10, # of connection points: 2
#     Edge 47, Type (0, 0), BuildingBlock: TEMPAE_clean_linker_10, # of connection points: 2
#     Edge 48, Type (0, 0), BuildingBlock: TEMPAE_clean_linker_10, # of connection points: 2
#     Edge 49, Type (0, 0), BuildingBlock: TEMPAE_clean_linker_10, # of connection points: 2
#     Edge 50, Type (0, 0), BuildingBlock: TEMPAE_clean_linker_10, # of connection points: 2
#     Edge 51, Type (0, 0), BuildingBlock: TEMPAE_clean_linker_10, # of connection points: 2
#     Edge 52, Type (0, 0), BuildingBlock: TEMPAE_clean_linker_10, # of connection points: 2
#     Edge 53, Type (0, 0), BuildingBlock: TEMPAE_clean_linker_10, # of connection points: 2
#     Edge 54, Type (0, 0), BuildingBlock: TEMPAE_clean_linker_10, # of connection points: 2
#     Edge 55, Type (0, 0), BuildingBlock: TEMPAE_clean_linker_10, # of connection points: 2
#     Edge 56, Type (0, 0), BuildingBlock: TEMPAE_clean_linker_10, # of connection points: 2
#     Edge 57, Type (0, 0), BuildingBlock: TEMPAE_clean_linker_10, # of connection points: 2
#     Edge 58, Type (0, 0), BuildingBlock: TEMPAE_clean_linker_10, # of connection points: 2
#     Edge 59, Type (0, 0), BuildingBlock: TEMPAE_clean_linker_10, # of connection points: 2
#     Edge 60, Type (0, 0), BuildingBlock: TEMPAE_clean_linker_10, # of connection points: 2
#     Edge 61, Type (0, 0), BuildingBlock: TEMPAE_clean_linker_10, # of connection points: 2
#     Edge 62, Type (0, 0), BuildingBlock: TEMPAE_clean_linker_10, # of connection points: 2
#     Edge 63, Type (0, 0), BuildingBlock: TEMPAE_clean_linker_10, # of connection points: 2
#     Edge 64, Type (0, 0), BuildingBlock: TEMPAE_clean_linker_10, # of connection points: 2
#     Edge 65, Type (0, 0), BuildingBlock: TEMPAE_clean_linker_10, # of connection points: 2
#     Edge 66, Type (0, 0), BuildingBlock: TEMPAE_clean_linker_10, # of connection points: 2
#     Edge 67, Type (0, 0), BuildingBlock: TEMPAE_clean_linker_10, # of connection points: 2
#     Edge 68, Type (0, 0), BuildingBlock: TEMPAE_clean_linker_10, # of connection points: 2
#     Edge 69, Type (0, 0), BuildingBlock: TEMPAE_clean_linker_10, # of connection points: 2
#     Edge 70, Type (0, 0), BuildingBlock: TEMPAE_clean_linker_10, # of connection points: 2
#     Edge 71, Type (0, 0), BuildingBlock: TEMPAE_clean_linker_10, # of connection points: 2
#     Edge 72, Type (0, 0), BuildingBlock: TEMPAE_clean_linker_10, # of connection points: 2
#     Edge 73, Type (0, 0), BuildingBlock: TEMPAE_clean_linker_10, # of connection points: 2
#     Edge 74, Type (0, 0), BuildingBlock: TEMPAE_clean_linker_10, # of connection points: 2
#     Edge 75, Type (0, 0), BuildingBlock: TEMPAE_clean_linker_10, # of connection points: 2
#     Edge 76, Type (0, 0), BuildingBlock: TEMPAE_clean_linker_10, # of connection points: 2
#     Edge 77, Type (0, 0), BuildingBlock: TEMPAE_clean_linker_10, # of connection points: 2
#     Edge 78, Type (0, 0), BuildingBlock: TEMPAE_clean_linker_10, # of connection points: 2
#     Edge 79, Type (0, 0), BuildingBlock: TEMPAE_clean_linker_10, # of connection points: 2
#     Edge 80, Type (0, 0), BuildingBlock: TEMPAE_clean_linker_10, # of connection points: 2
#     Edge 81, Type (0, 0), BuildingBlock: TEMPAE_clean_linker_10, # of connection points: 2
#     Edge 82, Type (0, 0), BuildingBlock: TEMPAE_clean_linker_10, # of connection points: 2
#     Edge 83, Type (0, 0), BuildingBlock: TEMPAE_clean_linker_10, # of connection points: 2
#     Edge 84, Type (0, 0), BuildingBlock: TEMPAE_clean_linker_10, # of connection points: 2
#     Edge 85, Type (0, 0), BuildingBlock: TEMPAE_clean_linker_10, # of connection points: 2
#     Edge 86, Type (0, 0), BuildingBlock: TEMPAE_clean_linker_10, # of connection points: 2
#     Edge 87, Type (0, 0), BuildingBlock: TEMPAE_clean_linker_10, # of connection points: 2
#     Edge 88, Type (0, 0), BuildingBlock: TEMPAE_clean_linker_10, # of connection points: 2
#     Edge 89, Type (0, 0), BuildingBlock: TEMPAE_clean_linker_10, # of connection points: 2
#     Edge 90, Type (0, 0), BuildingBlock: TEMPAE_clean_linker_10, # of connection points: 2
#     Edge 91, Type (0, 0), BuildingBlock: TEMPAE_clean_linker_10, # of connection points: 2
#     Edge 92, Type (0, 0), BuildingBlock: TEMPAE_clean_linker_10, # of connection points: 2
#     Edge 93, Type (0, 0), BuildingBlock: TEMPAE_clean_linker_10, # of connection points: 2
#     Edge 94, Type (0, 0), BuildingBlock: TEMPAE_clean_linker_10, # of connection points: 2
#     Edge 95, Type (0, 0), BuildingBlock: TEMPAE_clean_linker_10, # of connection points: 2
#     Edge 96, Type (0, 0), BuildingBlock: TEMPAE_clean_linker_10, # of connection points: 2
#     Edge 97, Type (0, 0), BuildingBlock: TEMPAE_clean_linker_10, # of connection points: 2
#     Edge 98, Type (0, 0), BuildingBlock: TEMPAE_clean_linker_10, # of connection points: 2
#     Edge 99, Type (0, 0), BuildingBlock: TEMPAE_clean_linker_10, # of connection points: 2
#     Edge 100, Type (0, 0), BuildingBlock: TEMPAE_clean_linker_10, # of connection points: 2
#     Edge 101, Type (0, 0), BuildingBlock: TEMPAE_clean_linker_10, # of connection points: 2
#     Edge 102, Type (0, 0), BuildingBlock: TEMPAE_clean_linker_10, # of connection points: 2
#     Edge 103, Type (0, 0), BuildingBlock: TEMPAE_clean_linker_10, # of connection points: 2
#     Edge 104, Type (0, 0), BuildingBlock: TEMPAE_clean_linker_10, # of connection points: 2
#     Edge 105, Type (0, 0), BuildingBlock: TEMPAE_clean_linker_10, # of connection points: 2
#     Edge 106, Type (0, 0), BuildingBlock: TEMPAE_clean_linker_10, # of connection points: 2
#     Edge 107, Type (0, 0), BuildingBlock: TEMPAE_clean_linker_10, # of connection points: 2
# Relax obj value: 0.270
# Max RMSD: 0.232
# Mean RMSD: 0.232
data_MOF--net-wjc--node1-NUHQUE_clean_sbu_2--edge1-TEMPAE_clean_linker_10
_symmetry_space_group_name_H-M    P1
_symmetry_Int_Tables_number       1
_symmetry_cell_setting            triclinic
loop_
_symmetry_equiv_pos_as_xyz
'x, y, z'
_cell_length_a     51.465759
_cell_length_b     51.512914
_cell_length_c     55.903331
_cell_angle_alpha  89.977648
_cell_angle_beta   89.994564
_cell_angle_gamma 119.99699
loop_
_atom_site_label
_atom_site_type_symbol
_atom_site_fract_x
_atom_site_fract_y
_atom_site_fract_z
_atom_type_partial_charge
O0 O 0.4598 0.24317 0.11724 0.0
Tb1 Tb 0.41715 0.20479 0.12694 0.0
Eu2 Eu 0.40154 0.1116 0.11872 0.0
C3 C 0.48575 0.24683 0.12445 0.0
O4 O 0.48645 0.22617 0.13777 0.0
C5 C 0.40372 0.1503 0.15912 0.0
O6 O 0.37602 0.06134 0.11379 0.0
C7 C 0.45863 0.139 0.10937 0.0
C8 C 0.35023 0.04818 0.10231 0.0
O9 O 0.34046 0.06488 0.09249 0.0
C10 C 0.39132 0.15749 0.08694 0.0
C11 C 0.48389 0.13481 0.10291 0.0
C12 C 0.5127 0.1601 0.10104 0.0
C13 C 0.5377 0.15677 0.09634 0.0
C14 C 0.53331 0.12774 0.09356 0.0
C15 C 0.50465 0.10231 0.09525 0.0
C16 C 0.47987 0.10601 0.09992 0.0
O17 O 0.41954 0.16729 0.14129 0.0
O18 O 0.39357 0.12161 0.15635 0.0
O19 O 0.40622 0.22952 0.15304 0.0
O20 O 0.3749 0.20487 0.12558 0.0
C21 C 0.38036 0.22269 0.14374 0.0
O22 O 0.38034 0.13805 0.10469 0.0
O23 O 0.40429 0.18652 0.0913 0.0
O24 O 0.4475 0.13027 0.13096 0.0
O25 O 0.43805 0.13271 0.09292 0.0
H26 H 0.51564 0.18228 0.10355 0.0
H27 H 0.55258 0.12476 0.09128 0.0
H28 H 0.4576 0.0866 0.10154 0.0
O29 O 0.20062 0.45455 0.12203 0.0
Tb30 Tb 0.20249 0.41378 0.12575 0.0
Eu31 Eu 0.2897 0.41282 0.11427 0.0
C32 C 0.22443 0.48109 0.12518 0.0
O33 O 0.25019 0.4832 0.13085 0.0
C34 C 0.25829 0.4204 0.15562 0.0
O35 O 0.31142 0.38474 0.12007 0.0
C36 C 0.32254 0.46441 0.09368 0.0
C37 C 0.2989 0.36274 0.1357 0.0
O38 O 0.27464 0.35842 0.14696 0.0
C39 C 0.23034 0.39653 0.08419 0.0
C40 C 0.35359 0.48967 0.09344 0.0
C41 C 0.3587 0.51918 0.09259 0.0
C42 C 0.38809 0.5436 0.09218 0.0
C43 C 0.41223 0.53825 0.09292 0.0
C44 C 0.40757 0.50908 0.09464 0.0
C45 C 0.37808 0.48475 0.09467 0.0
O46 O 0.24631 0.42166 0.1354 0.0
O47 O 0.28248 0.41842 0.15325 0.0
O48 O 0.17303 0.39125 0.15626 0.0
O49 O 0.15992 0.37237 0.12146 0.0
C50 C 0.15192 0.36951 0.14384 0.0
O51 O 0.2413 0.38739 0.10146 0.0
O52 O 0.21021 0.40448 0.08935 0.0
O53 O 0.30739 0.46101 0.11344 0.0
O54 O 0.31762 0.43889 0.08432 0.0
H55 H 0.33988 0.52312 0.09218 0.0
H56 H 0.43494 0.55714 0.09267 0.0
H57 H 0.37416 0.46209 0.0962 0.0
O58 O 0.76099 0.24597 0.13507 0.0
Tb59 Tb 0.7996 0.23989 0.13199 0.0
Eu60 Eu 0.87282 0.28073 0.14834 0.0
C61 C 0.75463 0.26145 0.11983 0.0
O62 O 0.77413 0.2774 0.10316 0.0
C63 C 0.82304 0.2377 0.18303 0.0
O64 O 0.92207 0.29677 0.15239 0.0
C65 C 0.86231 0.32466 0.15469 0.0
C66 C 0.93198 0.28148 0.16436 0.0
O67 O 0.91264 0.25598 0.17445 0.0
C68 C 0.85161 0.27015 0.09518 0.0
C69 C 0.86526 0.35165 0.14268 0.0
C70 C 0.83923 0.35129 0.1344 0.0
C71 C 0.84102 0.37711 0.12449 0.0
C72 C 0.86892 0.40349 0.12311 0.0
C73 C 0.89486 0.40488 0.13237 0.0
C74 C 0.89306 0.37865 0.1417 0.0
O75 O 0.80597 0.24517 0.17065 0.0
O76 O 0.84947 0.24396 0.17499 0.0
O77 O 0.80125 0.19802 0.13171 0.0
O78 O 0.76478 0.19922 0.11501 0.0
C79 C 0.77606 0.18228 0.12015 0.0
O80 O 0.87012 0.26777 0.10989 0.0
O81 O 0.82721 0.26949 0.10312 0.0
O82 O 0.8869 0.32536 0.16207 0.0
O83 O 0.84242 0.29855 0.14589 0.0
H84 H 0.81745 0.33124 0.13629 0.0
H85 H 0.8701 0.42368 0.11606 0.0
H86 H 0.91296 0.3797 0.14922 0.0
O87 O 0.54183 0.7587 0.13401 0.0
Tb88 Tb 0.58565 0.79845 0.13064 0.0
Eu89 Eu 0.60142 0.89237 0.12476 0.0
C90 C 0.51791 0.75611 0.12326 0.0
O91 O 0.51988 0.77916 0.11158 0.0
C92 C 0.60575 0.85515 0.16289 0.0
O93 O 0.62634 0.94281 0.12122 0.0
C94 C 0.54351 0.86692 0.12054 0.0
C95 C 0.65039 0.95672 0.10765 0.0
O96 O 0.6587 0.94069 0.09489 0.0
C97 C 0.60129 0.84426 0.08849 0.0
C98 C 0.51824 0.87248 0.1192 0.0
C99 C 0.48934 0.84906 0.12491 0.0
C100 C 0.46464 0.85358 0.12385 0.0
C101 C 0.4692 0.88161 0.11649 0.0
C102 C 0.49791 0.90518 0.11072 0.0
C103 C 0.52254 0.90056 0.1123 0.0
O104 O 0.59031 0.83922 0.14457 0.0
O105 O 0.61444 0.88357 0.16109 0.0
O106 O 0.61512 0.78878 0.15254 0.0
O107 O 0.6189 0.78959 0.11458 0.0
C108 C 0.629 0.78502 0.13452 0.0
O109 O 0.61832 0.86583 0.10371 0.0
O110 O 0.58705 0.81565 0.09494 0.0
O111 O 0.55719 0.87193 0.14127 0.0
O112 O 0.56192 0.8755 0.10216 0.0
H113 H 0.48619 0.8275 0.13047 0.0
H114 H 0.45021 0.88523 0.11541 0.0
H115 H 0.54488 0.91859 0.10794 0.0
O116 O 0.79634 0.54176 0.12785 0.0
Tb117 Tb 0.79736 0.58415 0.12528 0.0
Eu118 Eu 0.71444 0.59014 0.11221 0.0
C119 C 0.77206 0.51642 0.12233 0.0
O120 O 0.74784 0.51682 0.11551 0.0
C121 C 0.74393 0.58366 0.15453 0.0
O122 O 0.69654 0.62176 0.11564 0.0
C123 C 0.67826 0.53781 0.09418 0.0
C124 C 0.71442 0.64846 0.12468 0.0
O125 O 0.74183 0.65543 0.13075 0.0
C126 C 0.77034 0.59915 0.08151 0.0
C127 C 0.64788 0.51218 0.09832 0.0
C128 C 0.64439 0.48378 0.10323 0.0
C129 C 0.61593 0.45937 0.10823 0.0
C130 C 0.59085 0.46319 0.1074 0.0
C131 C 0.59379 0.49121 0.10248 0.0
C132 C 0.62249 0.51575 0.09803 0.0
O133 O 0.75542 0.58106 0.13448 0.0
O134 O 0.72048 0.58677 0.15169 0.0
O135 O 0.82792 0.61323 0.15322 0.0
O136 O 0.84109 0.62205 0.11661 0.0
C137 C 0.84934 0.63065 0.13855 0.0
O138 O 0.76181 0.61222 0.09744 0.0
O139 O 0.78797 0.58852 0.08798 0.0
O140 O 0.6981 0.5423 0.11078 0.0
O141 O 0.68065 0.56281 0.08577 0.0
H142 H 0.66383 0.48083 0.10364 0.0
H143 H 0.56873 0.44392 0.11023 0.0
H144 H 0.62507 0.53764 0.09471 0.0
O145 O 0.23722 0.75694 0.11703 0.0
Tb146 Tb 0.19986 0.76483 0.1216 0.0
Eu147 Eu 0.12861 0.72851 0.14228 0.0
C148 C 0.2459 0.74397 0.13289 0.0
O149 O 0.22964 0.73178 0.15213 0.0
C150 C 0.1824 0.77053 0.17342 0.0
O151 O 0.07968 0.71299 0.14725 0.0
C152 C 0.13723 0.68407 0.15181 0.0
C153 C 0.06998 0.72989 0.15682 0.0
O154 O 0.08941 0.75726 0.16368 0.0
C155 C 0.14452 0.7338 0.08758 0.0
C156 C 0.12791 0.65278 0.14578 0.0
C157 C 0.15026 0.6448 0.14398 0.0
C158 C 0.14235 0.6147 0.14156 0.0
C159 C 0.11204 0.59262 0.1403 0.0
C160 C 0.08952 0.60018 0.14164 0.0
C161 C 0.09739 0.63036 0.14426 0.0
O162 O 0.19663 0.76027 0.16039 0.0
O163 O 0.15689 0.76754 0.16592 0.0
O164 O 0.19732 0.80627 0.12096 0.0
O165 O 0.23505 0.8062 0.10573 0.0
C166 C 0.22305 0.82262 0.11029 0.0
O167 O 0.12758 0.73757 0.10312 0.0
O168 O 0.16961 0.73493 0.09415 0.0
O169 O 0.11785 0.68902 0.16329 0.0
O170 O 0.15329 0.70481 0.13598 0.0
H171 H 0.17373 0.66183 0.14556 0.0
H172 H 0.10588 0.56925 0.13848 0.0
H173 H 0.07991 0.63614 0.14594 0.0
O174 O 0.76394 0.52371 0.37459 0.0
Tb175 Tb 0.80259 0.5682 0.37069 0.0
Eu176 Eu 0.87562 0.59825 0.35176 0.0
C177 C 0.75997 0.49995 0.36275 0.0
O178 O 0.78119 0.50195 0.3485 0.0
C179 C 0.82352 0.58719 0.3191 0.0
O180 O 0.92503 0.63024 0.34701 0.0
C181 C 0.864 0.54375 0.34407 0.0
C182 C 0.93519 0.65633 0.33638 0.0
O183 O 0.91602 0.66404 0.32833 0.0
C184 C 0.85709 0.59094 0.40617 0.0
C185 C 0.87176 0.52051 0.34973 0.0
C186 C 0.84857 0.49041 0.34979 0.0
C187 C 0.85525 0.46726 0.35144 0.0
C188 C 0.88517 0.4743 0.35361 0.0
C189 C 0.90851 0.5041 0.354 0.0
C190 C 0.90181 0.52735 0.35226 0.0
O191 O 0.80835 0.56351 0.33276 0.0
O192 O 0.84897 0.6096 0.32673 0.0
O193 O 0.80641 0.61258 0.36674 0.0
O194 O 0.76776 0.57731 0.38326 0.0
C195 C 0.78045 0.60506 0.37632 0.0
O196 O 0.87583 0.61005 0.39043 0.0
O197 O 0.83069 0.56846 0.39998 0.0
O198 O 0.88354 0.56697 0.3316 0.0
O199 O 0.84991 0.55043 0.36038 0.0
H200 H 0.82546 0.48497 0.34749 0.0
H201 H 0.89038 0.45637 0.35502 0.0
H202 H 0.91989 0.55045 0.35193 0.0
O203 O 0.20902 0.74529 0.36535 0.0
Tb204 Tb 0.20848 0.7869 0.36658 0.0
Eu205 Eu 0.29454 0.87496 0.38283 0.0
C206 C 0.23274 0.74405 0.37241 0.0
O207 O 0.25652 0.76858 0.37995 0.0
C208 C 0.26227 0.84128 0.33915 0.0
O209 O 0.31808 0.92526 0.38496 0.0
C210 C 0.32418 0.84979 0.39851 0.0
C211 C 0.30207 0.93797 0.37982 0.0
O212 O 0.27355 0.92061 0.37459 0.0
C213 C 0.23533 0.82789 0.41068 0.0
C214 C 0.35466 0.85533 0.40285 0.0
C215 C 0.3597 0.83092 0.40302 0.0
C216 C 0.38877 0.83552 0.40635 0.0
C217 C 0.41263 0.86495 0.40944 0.0
C218 C 0.40786 0.88948 0.40968 0.0
C219 C 0.3787 0.88453 0.40621 0.0
O220 O 0.25166 0.82475 0.35827 0.0
O221 O 0.28546 0.86777 0.34311 0.0
O222 O 0.1777 0.78343 0.338 0.0
O223 O 0.16528 0.78294 0.37441 0.0
C224 C 0.15663 0.78117 0.35231 0.0
O225 O 0.24576 0.84951 0.3946 0.0
O226 O 0.21634 0.80006 0.40402 0.0
O227 O 0.31655 0.84901 0.376 0.0
O228 O 0.31445 0.86365 0.41249 0.0
H229 H 0.34098 0.80841 0.4005 0.0
H230 H 0.43538 0.86903 0.41079 0.0
H231 H 0.37468 0.90328 0.40614 0.0
O232 O 0.46338 0.23821 0.38141 0.0
Tb233 Tb 0.41928 0.22168 0.36559 0.0
Eu234 Eu 0.40952 0.29459 0.34679 0.0
C235 C 0.48703 0.24708 0.36756 0.0
O236 O 0.48451 0.25135 0.3447 0.0
C237 C 0.40292 0.23828 0.31751 0.0
O238 O 0.37957 0.31521 0.34699 0.0
C239 C 0.46456 0.33122 0.33419 0.0
C240 C 0.35562 0.30386 0.36083 0.0
O241 O 0.3495 0.28042 0.3741 0.0
C242 C 0.39897 0.25921 0.39313 0.0
C243 C 0.49153 0.35956 0.34095 0.0
C244 C 0.51967 0.3612 0.34042 0.0
C245 C 0.54597 0.38863 0.34442 0.0
C246 C 0.54393 0.41417 0.34954 0.0
C247 C 0.51617 0.41297 0.35007 0.0
C248 C 0.48989 0.38546 0.34606 0.0
O249 O 0.42587 0.24129 0.33017 0.0
O250 O 0.38937 0.25362 0.32286 0.0
O251 O 0.40401 0.1783 0.34828 0.0
O252 O 0.3938 0.17955 0.38499 0.0
C253 C 0.39125 0.16214 0.36722 0.0
O254 O 0.40729 0.28656 0.38638 0.0
O255 O 0.39054 0.2388 0.37646 0.0
O256 O 0.44147 0.33278 0.32585 0.0
O257 O 0.45694 0.30805 0.34824 0.0
H258 H 0.52118 0.34149 0.33604 0.0
H259 H 0.56427 0.43531 0.3529 0.0
H260 H 0.46837 0.38452 0.34599 0.0
O261 O 0.24413 0.48519 0.37603 0.0
Tb262 Tb 0.20613 0.44021 0.37101 0.0
Eu263 Eu 0.13089 0.40661 0.35707 0.0
C264 C 0.25154 0.50805 0.36159 0.0
O265 O 0.23362 0.50543 0.34388 0.0
C266 C 0.18049 0.42033 0.32017 0.0
O267 O 0.08132 0.37333 0.35437 0.0
C268 C 0.14024 0.46093 0.35361 0.0
C269 C 0.0709 0.34574 0.34665 0.0
O270 O 0.08992 0.33709 0.34011 0.0
C271 C 0.15489 0.41348 0.40966 0.0
C272 C 0.13556 0.48413 0.36507 0.0
C273 C 0.16085 0.51052 0.37318 0.0
C274 C 0.15805 0.53462 0.38152 0.0
C275 C 0.12971 0.53228 0.38167 0.0
C276 C 0.10439 0.50668 0.37288 0.0
C277 C 0.10726 0.4823 0.36502 0.0
O278 O 0.19647 0.44403 0.33368 0.0
O279 O 0.15546 0.39767 0.32829 0.0
O280 O 0.24388 0.43367 0.37921 0.0
O281 O 0.20348 0.39634 0.36697 0.0
C282 C 0.23104 0.40549 0.37362 0.0
O283 O 0.13557 0.39394 0.39448 0.0
O284 O 0.17972 0.4374 0.40253 0.0
O285 O 0.11704 0.4376 0.34395 0.0
O286 O 0.15914 0.45438 0.36394 0.0
H287 H 0.18295 0.51281 0.37211 0.0
H288 H 0.12765 0.55134 0.38727 0.0
H289 H 0.08788 0.46275 0.35767 0.0
O290 O 0.79482 0.24927 0.37692 0.0
Tb291 Tb 0.79446 0.20709 0.37669 0.0
Eu292 Eu 0.70678 0.11591 0.38678 0.0
C293 C 0.77172 0.25192 0.37037 0.0
O294 O 0.74682 0.22815 0.36339 0.0
C295 C 0.74469 0.15359 0.34605 0.0
O296 O 0.68276 0.0652 0.38743 0.0
C297 C 0.67398 0.13939 0.39856 0.0
C298 C 0.69412 0.0511 0.39933 0.0
O299 O 0.7187 0.06694 0.41186 0.0
C300 C 0.76313 0.16244 0.41871 0.0
C301 C 0.64241 0.13172 0.40104 0.0
C302 C 0.63455 0.15398 0.39713 0.0
C303 C 0.60437 0.14679 0.39838 0.0
C304 C 0.58242 0.11741 0.40433 0.0
C305 C 0.58987 0.09503 0.40822 0.0
C306 C 0.61996 0.10226 0.40639 0.0
O307 O 0.75254 0.16916 0.36579 0.0
O308 O 0.72178 0.12645 0.34823 0.0
O309 O 0.82748 0.21287 0.34931 0.0
O310 O 0.83798 0.2125 0.38608 0.0
C311 C 0.84817 0.21571 0.36432 0.0
O312 O 0.7541 0.14125 0.40227 0.0
O313 O 0.78296 0.19053 0.41315 0.0
O314 O 0.6833 0.13961 0.37667 0.0
O315 O 0.68426 0.1276 0.41417 0.0
H316 H 0.65175 0.17656 0.39245 0.0
H317 H 0.55911 0.1117 0.40535 0.0
H318 H 0.62591 0.08503 0.40908 0.0
O319 O 0.53012 0.75789 0.36501 0.0
Tb320 Tb 0.57603 0.76839 0.37068 0.0
Eu321 Eu 0.6065 0.72276 0.35684 0.0
C322 C 0.50757 0.73959 0.37874 0.0
O323 O 0.51164 0.72359 0.39502 0.0
C324 C 0.60671 0.76981 0.32269 0.0
O325 O 0.63497 0.70039 0.3566 0.0
C326 C 0.55056 0.68517 0.3466 0.0
C327 C 0.6603 0.71204 0.36878 0.0
O328 O 0.66884 0.73697 0.38075 0.0
C329 C 0.59558 0.73746 0.4099 0.0
C330 C 0.52488 0.65545 0.3526 0.0
C331 C 0.4956 0.65129 0.35238 0.0
C332 C 0.47055 0.62243 0.35509 0.0
C333 C 0.47516 0.59811 0.35878 0.0
C334 C 0.50399 0.60178 0.35862 0.0
C335 C 0.52891 0.63061 0.35599 0.0
O336 O 0.58067 0.76112 0.33301 0.0
O337 O 0.6253 0.76198 0.33178 0.0
O338 O 0.57685 0.80828 0.38472 0.0
O339 O 0.6175 0.81235 0.37172 0.0
C340 C 0.60516 0.82684 0.38103 0.0
O341 O 0.61477 0.73521 0.39576 0.0
O342 O 0.57398 0.74151 0.4015 0.0
O343 O 0.57339 0.68578 0.3355 0.0
O344 O 0.55872 0.70651 0.36253 0.0
H345 H 0.49231 0.67018 0.34901 0.0
H346 H 0.45598 0.57582 0.36115 0.0
H347 H 0.55124 0.63345 0.35537 0.0
O348 O 0.52009 0.76264 0.87652 0.0
Tb349 Tb 0.56637 0.79708 0.87042 0.0
Eu350 Eu 0.59821 0.87317 0.85783 0.0
C351 C 0.49838 0.75525 0.8609 0.0
O352 O 0.50348 0.77158 0.84155 0.0
C353 C 0.59163 0.8259 0.82176 0.0
O354 O 0.63016 0.92289 0.85615 0.0
C355 C 0.5435 0.8608 0.84957 0.0
C356 C 0.65818 0.93319 0.84958 0.0
O357 O 0.66706 0.91402 0.84419 0.0
C358 C 0.59031 0.84747 0.91062 0.0
C359 C 0.51952 0.86763 0.85513 0.0
C360 C 0.48965 0.84384 0.85519 0.0
C361 C 0.46589 0.84972 0.85645 0.0
C362 C 0.47203 0.87935 0.8582 0.0
C363 C 0.50154 0.90331 0.85849 0.0
C364 C 0.52542 0.89743 0.85722 0.0
O365 O 0.56632 0.80958 0.83331 0.0
O366 O 0.61273 0.85066 0.83136 0.0
O367 O 0.56779 0.75551 0.87121 0.0
O368 O 0.60892 0.79661 0.87348 0.0
C369 C 0.5967 0.76745 0.87279 0.0
O370 O 0.60873 0.86868 0.89598 0.0
O371 O 0.56842 0.82135 0.90308 0.0
O372 O 0.56693 0.88118 0.83775 0.0
O373 O 0.55011 0.84627 0.86553 0.0
H374 H 0.48486 0.82093 0.85309 0.0
H375 H 0.45354 0.8838 0.85916 0.0
H376 H 0.54831 0.91595 0.85675 0.0
O377 O 0.74985 0.51796 0.87061 0.0
Tb378 Tb 0.76312 0.56485 0.86611 0.0
Eu379 Eu 0.72125 0.59886 0.85334 0.0
C380 C 0.75012 0.50119 0.85299 0.0
O381 O 0.75441 0.51154 0.83101 0.0
C382 C 0.76239 0.59184 0.81663 0.0
O383 O 0.70337 0.6312 0.85242 0.0
C384 C 0.67915 0.54365 0.8463 0.0
C385 C 0.69083 0.63532 0.87153 0.0
O386 O 0.68839 0.61995 0.89099 0.0
C387 C 0.73713 0.58877 0.90555 0.0
C388 C 0.65088 0.51814 0.85524 0.0
C389 C 0.64836 0.48962 0.85646 0.0
C390 C 0.62062 0.46413 0.86157 0.0
C391 C 0.59573 0.46749 0.86626 0.0
C392 C 0.59761 0.49548 0.86463 0.0
C393 C 0.62541 0.52096 0.85954 0.0
O394 O 0.75412 0.56662 0.82824 0.0
O395 O 0.75724 0.61239 0.82568 0.0
O396 O 0.80594 0.60726 0.86999 0.0
O397 O 0.80516 0.56586 0.87379 0.0
C398 C 0.82222 0.5948 0.87415 0.0
O399 O 0.73753 0.60916 0.89127 0.0
O400 O 0.73798 0.56532 0.89732 0.0
O401 O 0.67843 0.56696 0.83749 0.0
O402 O 0.70378 0.55084 0.85819 0.0
H403 H 0.66752 0.48707 0.85217 0.0
H404 H 0.5743 0.44784 0.87036 0.0
H405 H 0.62679 0.54256 0.85766 0.0
O406 O 0.24812 0.79559 0.87351 0.0
Tb407 Tb 0.20617 0.79574 0.87188 0.0
Eu408 Eu 0.11365 0.70961 0.87932 0.0
C409 C 0.25082 0.77245 0.86722 0.0
O410 O 0.22717 0.74779 0.85971 0.0
C411 C 0.15298 0.74865 0.83971 0.0
O412 O 0.06285 0.68411 0.88015 0.0
C413 C 0.13906 0.67838 0.89015 0.0
C414 C 0.04759 0.69325 0.89315 0.0
O415 O 0.06221 0.71679 0.90701 0.0
C416 C 0.15918 0.76474 0.91253 0.0
C417 C 0.13282 0.64767 0.89474 0.0
C418 C 0.15423 0.63959 0.88811 0.0
C419 C 0.14874 0.6103 0.89212 0.0
C420 C 0.12199 0.58966 0.9036 0.0
C421 C 0.10012 0.59716 0.90962 0.0
C422 C 0.1056 0.62625 0.90511 0.0
O423 O 0.16848 0.75457 0.85945 0.0
O424 O 0.12527 0.72668 0.84139 0.0
O425 O 0.2142 0.82956 0.84465 0.0
O426 O 0.21143 0.83915 0.88127 0.0
C427 C 0.21623 0.8499 0.85962 0.0
O428 O 0.13882 0.75651 0.89542 0.0
O429 O 0.18776 0.78384 0.9078 0.0
O430 O 0.13543 0.68464 0.86805 0.0
O431 O 0.12968 0.69047 0.90624 0.0
H432 H 0.17472 0.6559 0.87929 0.0
H433 H 0.1175 0.56708 0.90703 0.0
H434 H 0.08864 0.63211 0.90949 0.0
O435 O 0.48757 0.24161 0.88397 0.0
Tb436 Tb 0.44222 0.20695 0.87511 0.0
Eu437 Eu 0.41211 0.13084 0.85932 0.0
C438 C 0.51107 0.24811 0.87057 0.0
O439 O 0.50816 0.23083 0.8523 0.0
C440 C 0.42224 0.18164 0.82537 0.0
O441 O 0.37997 0.08129 0.85553 0.0
C442 C 0.46754 0.14324 0.85615 0.0
C443 C 0.35293 0.07156 0.84676 0.0
O444 O 0.34517 0.0912 0.84008 0.0
C445 C 0.41385 0.15324 0.91265 0.0
C446 C 0.4905 0.13681 0.8658 0.0
C447 C 0.51827 0.16108 0.87301 0.0
C448 C 0.54179 0.15642 0.88 0.0
C449 C 0.53749 0.12733 0.87946 0.0
C450 C 0.51039 0.10297 0.87168 0.0
C451 C 0.48659 0.10765 0.86533 0.0
O452 O 0.44644 0.19589 0.83854 0.0
O453 O 0.40079 0.15519 0.83205 0.0
O454 O 0.3989 0.20606 0.8743 0.0
O455 O 0.43947 0.24783 0.87486 0.0
C456 C 0.41044 0.23513 0.87393 0.0
O457 O 0.39738 0.13306 0.89656 0.0
O458 O 0.43615 0.18017 0.90712 0.0
O459 O 0.44559 0.12231 0.84341 0.0
O460 O 0.45911 0.15857 0.8697 0.0
H461 H 0.52185 0.18369 0.87257 0.0
H462 H 0.55597 0.12378 0.88405 0.0
H463 H 0.46575 0.08893 0.85894 0.0
O464 O 0.25388 0.48161 0.87251 0.0
Tb465 Tb 0.24062 0.43451 0.86972 0.0
Eu466 Eu 0.28518 0.40249 0.85694 0.0
C467 C 0.25137 0.49665 0.8545 0.0
O468 O 0.24514 0.48446 0.83312 0.0
C469 C 0.24058 0.40473 0.82142 0.0
O470 O 0.30758 0.37446 0.86134 0.0
C471 C 0.32394 0.45831 0.84803 0.0
C472 C 0.3078 0.35669 0.84451 0.0
O473 O 0.29535 0.35564 0.82375 0.0
C474 C 0.2677 0.41162 0.90921 0.0
C475 C 0.35348 0.48392 0.85434 0.0
C476 C 0.35745 0.51303 0.85349 0.0
C477 C 0.38608 0.5382 0.85657 0.0
C478 C 0.41041 0.53389 0.86127 0.0
C479 C 0.40698 0.5052 0.86173 0.0
C480 C 0.37831 0.48009 0.85868 0.0
O481 O 0.24919 0.43063 0.83205 0.0
O482 O 0.24737 0.38544 0.83072 0.0
O483 O 0.19881 0.43409 0.87703 0.0
O484 O 0.19766 0.39243 0.87446 0.0
C485 C 0.18158 0.40521 0.87812 0.0
O486 O 0.26844 0.39199 0.89472 0.0
O487 O 0.26545 0.43447 0.90132 0.0
O488 O 0.32348 0.43566 0.83675 0.0
O489 O 0.30217 0.4501 0.86363 0.0
H490 H 0.33857 0.5161 0.84936 0.0
H491 H 0.43255 0.5532 0.864 0.0
H492 H 0.37562 0.45783 0.85855 0.0
O493 O 0.75799 0.21221 0.87109 0.0
Tb494 Tb 0.79848 0.20976 0.87561 0.0
Eu495 Eu 0.89085 0.29354 0.88589 0.0
C496 C 0.75527 0.23467 0.87927 0.0
O497 O 0.77812 0.25712 0.89009 0.0
C498 C 0.85357 0.25704 0.84518 0.0
O499 O 0.9416 0.31762 0.88537 0.0
C500 C 0.86784 0.32665 0.89761 0.0
C501 C 0.957 0.31064 0.90026 0.0
O502 O 0.94262 0.2903 0.91681 0.0
C503 C 0.84224 0.24003 0.91867 0.0
C504 C 0.87387 0.35767 0.89949 0.0
C505 C 0.85173 0.36431 0.89197 0.0
C506 C 0.85648 0.39357 0.894 0.0
C507 C 0.8833 0.41578 0.90441 0.0
C508 C 0.90584 0.40966 0.91136 0.0
C509 C 0.90109 0.38053 0.9088 0.0
O510 O 0.83866 0.24959 0.86522 0.0
O511 O 0.88106 0.27919 0.84717 0.0
O512 O 0.79568 0.17611 0.85018 0.0
O513 O 0.78823 0.16539 0.8873 0.0
C514 C 0.78874 0.15513 0.86613 0.0
O515 O 0.8644 0.24732 0.90325 0.0
O516 O 0.81389 0.22242 0.91219 0.0
O517 O 0.86608 0.31604 0.87595 0.0
O518 O 0.88141 0.31801 0.91292 0.0
H519 H 0.83112 0.34678 0.88413 0.0
H520 H 0.88719 0.43839 0.9064 0.0
H521 H 0.91855 0.37574 0.91404 0.0
O522 O 0.2519 0.44808 0.63114 0.0
Tb523 Tb 0.2109 0.40537 0.62799 0.0
Eu524 Eu 0.11678 0.39562 0.61818 0.0
C525 C 0.25243 0.47387 0.63156 0.0
O526 O 0.2271 0.47423 0.63079 0.0
C527 C 0.15467 0.3944 0.65862 0.0
O528 O 0.06658 0.36738 0.61308 0.0
C529 C 0.13908 0.45249 0.60967 0.0
C530 C 0.04954 0.35295 0.63154 0.0
O531 O 0.06234 0.35594 0.65247 0.0
C532 C 0.16719 0.39364 0.58556 0.0
C533 C 0.13214 0.47648 0.60515 0.0
C534 C 0.15549 0.5064 0.60699 0.0
C535 C 0.14995 0.5301 0.60298 0.0
C536 C 0.12075 0.52341 0.59712 0.0
C537 C 0.09722 0.49375 0.59517 0.0
C538 C 0.10293 0.47015 0.5994 0.0
O539 O 0.17089 0.40509 0.63938 0.0
O540 O 0.12686 0.38821 0.65626 0.0
O541 O 0.21778 0.37511 0.65143 0.0
O542 O 0.21785 0.37013 0.6136 0.0
C543 C 0.22126 0.36015 0.63406 0.0
O544 O 0.14559 0.37832 0.60125 0.0
O545 O 0.19564 0.40427 0.5916 0.0
O546 O 0.13381 0.44107 0.63133 0.0
O547 O 0.1324 0.43244 0.59274 0.0
H548 H 0.17792 0.51117 0.61159 0.0
H549 H 0.11589 0.5415 0.59512 0.0
H550 H 0.08486 0.44709 0.59824 0.0
O551 O 0.7516 0.23425 0.62547 0.0
Tb552 Tb 0.76413 0.20074 0.63338 0.0
Eu553 Eu 0.72233 0.12754 0.64772 0.0
C554 C 0.74245 0.2464 0.64166 0.0
O555 O 0.73696 0.23562 0.66353 0.0
C556 C 0.76303 0.17571 0.68416 0.0
O557 O 0.70306 0.07769 0.65111 0.0
C558 C 0.6801 0.1411 0.65086 0.0
C559 C 0.71687 0.06587 0.66272 0.0
O560 O 0.74277 0.0836 0.67303 0.0
C561 C 0.73752 0.14935 0.59488 0.0
C562 C 0.65491 0.13953 0.63692 0.0
C563 C 0.65818 0.16581 0.62634 0.0
C564 C 0.63415 0.16542 0.61427 0.0
C565 C 0.60661 0.13854 0.6129 0.0
C566 C 0.60236 0.11242 0.62425 0.0
C567 C 0.62684 0.11295 0.63595 0.0
O568 O 0.75545 0.19256 0.67164 0.0
O569 O 0.75726 0.14948 0.67602 0.0
O570 O 0.80712 0.2417 0.62917 0.0
O571 O 0.80614 0.19999 0.62791 0.0
C572 C 0.82339 0.22908 0.62677 0.0
O573 O 0.73793 0.13012 0.61 0.0
O574 O 0.73938 0.17452 0.60216 0.0
O575 O 0.67735 0.11598 0.6592 0.0
O576 O 0.70719 0.15977 0.64304 0.0
H577 H 0.67915 0.1868 0.62804 0.0
H578 H 0.58782 0.13841 0.60401 0.0
H579 H 0.62365 0.09306 0.64516 0.0
O580 O 0.53964 0.78964 0.61298 0.0
Tb581 Tb 0.58088 0.79064 0.62265 0.0
Eu582 Eu 0.58398 0.70288 0.62206 0.0
C583 C 0.51427 0.77166 0.62395 0.0
O584 O 0.51361 0.75246 0.63975 0.0
C585 C 0.58833 0.74772 0.65851 0.0
O586 O 0.62773 0.70349 0.61683 0.0
C587 C 0.54023 0.64808 0.62455 0.0
C588 C 0.65207 0.72052 0.62938 0.0
O589 O 0.65258 0.74085 0.64384 0.0
C590 C 0.59263 0.75378 0.58501 0.0
C591 C 0.51026 0.62625 0.61552 0.0
C592 C 0.48559 0.63101 0.61633 0.0
C593 C 0.45723 0.60826 0.60865 0.0
C594 C 0.45372 0.58086 0.60055 0.0
C595 C 0.47778 0.57548 0.60075 0.0
C596 C 0.5061 0.59855 0.6078 0.0
O597 O 0.57453 0.75026 0.63977 0.0
O598 O 0.59411 0.72574 0.65785 0.0
O599 O 0.59718 0.8239 0.65143 0.0
O600 O 0.62185 0.83403 0.619 0.0
C601 C 0.6206 0.84419 0.64002 0.0
O602 O 0.57268 0.73101 0.59772 0.0
O603 O 0.59717 0.78086 0.58982 0.0
O604 O 0.56259 0.65701 0.60936 0.0
O605 O 0.54287 0.66916 0.63927 0.0
H606 H 0.48819 0.65179 0.62333 0.0
H607 H 0.43164 0.56294 0.59544 0.0
H608 H 0.5248 0.59444 0.60867 0.0
O609 O 0.75278 0.54974 0.61954 0.0
Tb610 Tb 0.79612 0.59043 0.62189 0.0
Eu611 Eu 0.88832 0.59673 0.61581 0.0
C612 C 0.7481 0.52326 0.62626 0.0
O613 O 0.77041 0.52072 0.63502 0.0
C614 C 0.84866 0.59673 0.65493 0.0
O615 O 0.93902 0.6238 0.61603 0.0
C616 C 0.8657 0.54026 0.60557 0.0
C617 C 0.95325 0.64861 0.60337 0.0
O618 O 0.93751 0.65673 0.59002 0.0
C619 C 0.84212 0.60345 0.58119 0.0
C620 C 0.87112 0.51475 0.60541 0.0
C621 C 0.84758 0.48644 0.61245 0.0
C622 C 0.85155 0.4614 0.61269 0.0
C623 C 0.87908 0.46486 0.60508 0.0
C624 C 0.90289 0.49289 0.59822 0.0
C625 C 0.89893 0.518 0.59859 0.0
O626 O 0.83319 0.58641 0.63524 0.0
O627 O 0.87643 0.60248 0.65358 0.0
O628 O 0.78665 0.61691 0.6474 0.0
O629 O 0.79704 0.6316 0.61131 0.0
C630 C 0.78953 0.63728 0.63206 0.0
O631 O 0.86265 0.6169 0.59798 0.0
O632 O 0.81356 0.59399 0.58596 0.0
O633 O 0.86317 0.54996 0.62666 0.0
O634 O 0.87993 0.56184 0.58982 0.0
H635 H 0.82637 0.48409 0.61817 0.0
H636 H 0.88226 0.44558 0.6049 0.0
H637 H 0.91728 0.53982 0.59349 0.0
O638 O 0.24542 0.76277 0.62981 0.0
Tb639 Tb 0.23734 0.80016 0.62689 0.0
Eu640 Eu 0.27417 0.87566 0.63943 0.0
C641 C 0.22785 0.74039 0.64394 0.0
O642 O 0.20811 0.743 0.65709 0.0
C643 C 0.23573 0.8267 0.6764 0.0
O644 O 0.28589 0.92383 0.63551 0.0
C645 C 0.32216 0.87299 0.64906 0.0
C646 C 0.28766 0.94059 0.65386 0.0
O647 O 0.28156 0.92878 0.6754 0.0
C648 C 0.26465 0.84884 0.58766 0.0
C649 C 0.35292 0.88259 0.64074 0.0
C650 C 0.36155 0.86076 0.63801 0.0
C651 C 0.39147 0.86928 0.63292 0.0
C652 C 0.4125 0.89968 0.62974 0.0
C653 C 0.40435 0.92162 0.63242 0.0
C654 C 0.37456 0.91317 0.63793 0.0
O655 O 0.24524 0.81068 0.6649 0.0
O656 O 0.2384 0.8512 0.6668 0.0
O657 O 0.1961 0.76436 0.61121 0.0
O658 O 0.19507 0.80122 0.62711 0.0
C659 C 0.17908 0.77554 0.61633 0.0
O660 O 0.26018 0.86723 0.60092 0.0
O661 O 0.26601 0.82627 0.59726 0.0
O662 O 0.31688 0.89362 0.65779 0.0
O663 O 0.29979 0.85247 0.63643 0.0
H664 H 0.34533 0.8373 0.64102 0.0
H665 H 0.43572 0.90647 0.62589 0.0
H666 H 0.36859 0.93037 0.64065 0.0
O667 O 0.48238 0.22235 0.61118 0.0
Tb668 Tb 0.43921 0.21962 0.61381 0.0
Eu669 Eu 0.4076 0.26366 0.60954 0.0
C670 C 0.50761 0.24631 0.60497 0.0
O671 O 0.50779 0.2711 0.59913 0.0
C672 C 0.42808 0.24832 0.65798 0.0
O673 O 0.37624 0.28167 0.61589 0.0
C674 C 0.4598 0.30749 0.59673 0.0
C675 C 0.34988 0.265 0.62601 0.0
O676 O 0.34176 0.23734 0.63215 0.0
C677 C 0.40873 0.2251 0.56842 0.0
C678 C 0.48065 0.33883 0.60373 0.0
C679 C 0.51081 0.34806 0.60905 0.0
C680 C 0.53085 0.378 0.6153 0.0
C681 C 0.52072 0.3987 0.61555 0.0
C682 C 0.49093 0.38998 0.60987 0.0
C683 C 0.4709 0.35991 0.60433 0.0
O684 O 0.44913 0.24759 0.64524 0.0
O685 O 0.40544 0.24878 0.64759 0.0
O686 O 0.42996 0.17435 0.62094 0.0
O687 O 0.39359 0.18285 0.62183 0.0
C688 C 0.40133 0.16245 0.6245 0.0
O689 O 0.38924 0.22679 0.58249 0.0
O690 O 0.43467 0.23049 0.57713 0.0
O691 O 0.45655 0.28663 0.61185 0.0
O692 O 0.43442 0.30195 0.58673 0.0
H693 H 0.51863 0.33206 0.60833 0.0
H694 H 0.53658 0.4221 0.61917 0.0
H695 H 0.44775 0.35307 0.60027 0.0
C696 C 0.30678 1.0009 0.08626 0.0
C697 C 0.33127 0.01499 0.10194 0.0
C698 C 0.28787 0.96959 0.08639 0.0
C699 C 0.29326 0.95192 0.10287 0.0
C700 C 0.31798 0.96602 0.11874 0.0
C701 C 0.33681 0.99732 0.11794 0.0
C702 C 0.26218 0.9554 0.06884 0.0
C703 C 0.32437 0.94807 0.13674 0.0
C704 C 0.23026 0.8735 0.11929 0.0
C705 C 0.23865 0.85544 0.10654 0.0
C706 C 0.24754 0.90499 0.11799 0.0
C707 C 0.27347 0.91862 0.10327 0.0
C708 C 0.28121 0.90033 0.08961 0.0
C709 C 0.26388 0.86901 0.09159 0.0
C710 C 0.23872 0.92365 0.13306 0.0
C711 C 0.3083 0.91385 0.07336 0.0
H712 H 0.3024 0.01436 0.07377 0.0
H713 H 0.35555 0.00801 0.13023 0.0
H714 H 0.26437 0.93886 0.05758 0.0
H715 H 0.2406 0.94305 0.07861 0.0
H716 H 0.26124 0.97221 0.05696 0.0
H717 H 0.34401 0.96246 0.14822 0.0
H718 H 0.30449 0.93514 0.14838 0.0
H719 H 0.32874 0.93166 0.12737 0.0
H720 H 0.2109 0.86305 0.13102 0.0
H721 H 0.2704 0.85509 0.08167 0.0
H722 H 0.23634 0.93999 0.12168 0.0
H723 H 0.25664 0.93671 0.14631 0.0
H724 H 0.21731 0.90973 0.1428 0.0
H725 H 0.30739 0.93021 0.06098 0.0
H726 H 0.30998 0.8966 0.06263 0.0
H727 H 0.32902 0.92621 0.08418 0.0
C728 C 0.29737 0.31935 0.15715 0.0
C729 C 0.31101 0.34242 0.14015 0.0
C730 C 0.30755 0.29896 0.16087 0.0
C731 C 0.3319 0.30163 0.14722 0.0
C732 C 0.34628 0.32533 0.13048 0.0
C733 C 0.33567 0.34546 0.12715 0.0
C734 C 0.29174 0.27411 0.17896 0.0
C735 C 0.3724 0.32897 0.11561 0.0
C736 C 0.37573 0.26306 0.16454 0.0
C737 C 0.36424 0.23915 0.1483 0.0
C738 C 0.36447 0.28291 0.16524 0.0
C739 C 0.34128 0.27866 0.14928 0.0
C740 C 0.32831 0.25336 0.13401 0.0
C741 C 0.33992 0.23386 0.13375 0.0
C742 C 0.37861 0.30938 0.18202 0.0
C743 C 0.30337 0.24784 0.11688 0.0
H744 H 0.2784 0.31691 0.1674 0.0
H745 H 0.34641 0.36327 0.11407 0.0
H746 H 0.28056 0.25213 0.16968 0.0
H747 H 0.30821 0.27385 0.19162 0.0
H748 H 0.27458 0.27639 0.18933 0.0
H749 H 0.382 0.34938 0.10422 0.0
H750 H 0.39035 0.33026 0.12738 0.0
H751 H 0.365 0.30913 0.10388 0.0
H752 H 0.39452 0.26715 0.17586 0.0
H753 H 0.33095 0.21534 0.1212 0.0
H754 H 0.3611 0.31171 0.19174 0.0
H755 H 0.39201 0.33023 0.17155 0.0
H756 H 0.3936 0.3074 0.19529 0.0
H757 H 0.28485 0.24848 0.12651 0.0
H758 H 0.29414 0.22592 0.10759 0.0
H759 H 0.31195 0.26586 0.10319 0.0
C760 C 0.985 0.32008 0.15512 0.0
C761 C 0.96466 0.29251 0.16555 0.0
C762 C 0.01586 0.33028 0.1548 0.0
C763 C 0.02677 0.31247 0.16515 0.0
C764 C 0.00652 0.28505 0.17639 0.0
C765 C 0.97566 0.27536 0.17645 0.0
C766 C 0.0367 0.35977 0.14272 0.0
C767 C 0.01735 0.26556 0.18771 0.0
C768 C 0.09984 0.32833 0.13654 0.0
C769 C 0.12088 0.34984 0.15213 0.0
C770 C 0.06904 0.31422 0.14151 0.0
C771 C 0.0591 0.32192 0.16255 0.0
C772 C 0.08043 0.34179 0.17932 0.0
C773 C 0.11117 0.35556 0.17389 0.0
C774 C 0.04711 0.29291 0.12327 0.0
C775 C 0.07083 0.35041 0.20206 0.0
H776 H 0.97678 0.33361 0.1468 0.0
H777 H 0.96013 0.25409 0.18466 0.0
H778 H 0.05491 0.37465 0.15515 0.0
H779 H 0.04739 0.3558 0.12697 0.0
H780 H 0.02485 0.37163 0.13661 0.0
H781 H 0.99921 0.24629 0.19758 0.0
H782 H 0.02611 0.25677 0.17365 0.0
H783 H 0.03608 0.27892 0.20024 0.0
H784 H 0.10734 0.32377 0.11975 0.0
H785 H 0.12741 0.37226 0.18594 0.0
H786 H 0.03585 0.30377 0.11416 0.0
H787 H 0.02944 0.27234 0.1321 0.0
H788 H 0.05832 0.28638 0.10948 0.0
H789 H 0.06273 0.36618 0.19773 0.0
H790 H 0.08963 0.36151 0.21502 0.0
H791 H 0.05206 0.33046 0.21072 0.0
C792 C 0.76909 0.13118 0.12778 0.0
C793 C 0.76034 0.14953 0.11589 0.0
C794 C 0.75205 0.09974 0.12577 0.0
C795 C 0.72591 0.08644 0.1113 0.0
C796 C 0.7177 0.10503 0.09859 0.0
C797 C 0.73488 0.1363 0.10117 0.0
C798 C 0.76145 0.08073 0.13977 0.0
C799 C 0.69029 0.09188 0.08272 0.0
C800 C 0.69308 0.00497 0.09197 0.0
C801 C 0.66909 0.98998 0.10802 0.0
C802 C 0.71169 0.03632 0.09276 0.0
C803 C 0.70643 0.05312 0.11018 0.0
C804 C 0.68218 0.03812 0.12637 0.0
C805 C 0.66374 0.00681 0.12501 0.0
C806 C 0.73698 0.05146 0.07494 0.0
C807 C 0.67585 0.05515 0.14529 0.0
H808 H 0.78865 0.14134 0.13929 0.0
H809 H 0.72807 0.15043 0.09192 0.0
H810 H 0.74381 0.06695 0.15302 0.0
H811 H 0.7639 0.06506 0.12764 0.0
H812 H 0.78295 0.09447 0.14942 0.0
H813 H 0.68807 0.10941 0.07286 0.0
H814 H 0.69125 0.07627 0.06955 0.0
H815 H 0.66982 0.07875 0.09369 0.0
H816 H 0.69737 0.99221 0.07873 0.0
H817 H 0.64536 0.99547 0.13756 0.0
H818 H 0.75874 0.06368 0.08447 0.0
H819 H 0.73429 0.06825 0.06443 0.0
H820 H 0.73793 0.03527 0.06236 0.0
H821 H 0.69588 0.06776 0.15683 0.0
H822 H 0.65646 0.04015 0.15678 0.0
H823 H 0.67111 0.07178 0.13674 0.0
C824 C 0.72432 0.69979 0.13532 0.0
C825 C 0.70406 0.67033 0.12812 0.0
C826 C 0.71498 0.72096 0.13826 0.0
C827 C 0.68464 0.71239 0.13403 0.0
C828 C 0.66396 0.68253 0.12721 0.0
C829 C 0.67396 0.66189 0.12425 0.0
C830 C 0.7377 0.75263 0.14538 0.0
C831 C 0.63135 0.67248 0.12268 0.0
C832 C 0.64967 0.75743 0.15692 0.0
C833 C 0.64802 0.77118 0.1358 0.0
C834 C 0.6628 0.73919 0.15694 0.0
C835 C 0.67465 0.7349 0.13537 0.0
C836 C 0.67478 0.75042 0.11443 0.0
C837 C 0.66135 0.7683 0.11489 0.0
C838 C 0.66232 0.7231 0.17965 0.0
C839 C 0.68756 0.74681 0.09116 0.0
H840 H 0.74764 0.7065 0.13838 0.0
H841 H 0.65814 0.63913 0.11883 0.0
H842 H 0.7401 0.76831 0.1308 0.0
H843 H 0.72989 0.75933 0.16149 0.0
H844 H 0.7601 0.75531 0.14917 0.0
H845 H 0.61788 0.64814 0.11864 0.0
H846 H 0.6215 0.67735 0.13852 0.0
H847 H 0.62944 0.68514 0.10737 0.0
H848 H 0.63929 0.75962 0.1731 0.0
H849 H 0.66019 0.77905 0.09856 0.0
H850 H 0.68468 0.7256 0.1831 0.0
H851 H 0.64614 0.69879 0.17765 0.0
H852 H 0.65564 0.73153 0.19543 0.0
H853 H 0.71049 0.75047 0.09397 0.0
H854 H 0.68855 0.76262 0.07719 0.0
H855 H 0.67345 0.7236 0.08443 0.0
C856 C 0.01716 0.68801 0.15345 0.0
C857 C 0.03727 0.71816 0.15883 0.0
C858 C 0.98613 0.67671 0.15345 0.0
C859 C 0.97478 0.69602 0.15892 0.0
C860 C 0.99482 0.72617 0.16537 0.0
C861 C 0.0259 0.73692 0.16526 0.0
C862 C 0.96554 0.64433 0.14661 0.0
C863 C 0.98353 0.74735 0.17143 0.0
C864 C 0.90086 0.67006 0.12762 0.0
C865 C 0.88037 0.6526 0.1454 0.0
C866 C 0.93169 0.68636 0.13238 0.0
C867 C 0.94224 0.68502 0.15548 0.0
C868 C 0.92141 0.66939 0.17403 0.0
C869 C 0.89058 0.6533 0.16875 0.0
C870 C 0.95306 0.70296 0.11212 0.0
C871 C 0.93171 0.66765 0.19894 0.0
H872 H 0.02568 0.67324 0.14874 0.0
H873 H 0.04129 0.76021 0.16958 0.0
H874 H 0.94787 0.6329 0.16037 0.0
H875 H 0.95415 0.64324 0.12947 0.0
H876 H 0.97777 0.63179 0.14448 0.0
H877 H 1.0015 0.76884 0.17896 0.0
H878 H 0.97465 0.75233 0.15504 0.0
H879 H 0.96482 0.73687 0.18448 0.0
H880 H 0.89294 0.66973 0.10959 0.0
H881 H 0.87472 0.6398 0.18252 0.0
H882 H 0.9649 0.69083 0.10677 0.0
H883 H 0.97032 0.72577 0.1179 0.0
H884 H 0.94128 0.70498 0.09619 0.0
H885 H 0.94043 0.65183 0.19903 0.0
H886 H 0.91311 0.65965 0.21214 0.0
H887 H 0.95021 0.68983 0.20476 0.0
C888 C 0.10509 0.76956 0.36281 0.0
C889 C 0.12532 0.77096 0.34541 0.0
C890 C 0.07412 0.75401 0.35854 0.0
C891 C 0.06313 0.73938 0.33632 0.0
C892 C 0.08362 0.74277 0.31798 0.0
C893 C 0.11461 0.75861 0.32275 0.0
C894 C 0.05312 0.75131 0.37849 0.0
C895 C 0.07287 0.72779 0.29398 0.0
C896 C 0.98808 0.66779 0.34169 0.0
C897 C 0.96798 0.67713 0.33441 0.0
C898 C 0.01915 0.68756 0.34139 0.0
C899 C 0.0305 0.71752 0.33371 0.0
C900 C 0.01043 0.72686 0.32553 0.0
C901 C 0.97937 0.70653 0.32596 0.0
C902 C 0.03978 0.6766 0.35012 0.0
C903 C 0.02169 0.75858 0.31714 0.0
H904 H 0.11338 0.7793 0.3803 0.0
H905 H 0.13024 0.75965 0.30926 0.0
H906 H 0.0356 0.75598 0.37176 0.0
H907 H 0.04158 0.72804 0.38553 0.0
H908 H 0.06514 0.76686 0.39351 0.0
H909 H 0.09116 0.73686 0.28047 0.0
H910 H 0.0643 0.70339 0.2959 0.0
H911 H 0.05414 0.73059 0.28725 0.0
H912 H 0.97955 0.64506 0.34803 0.0
H913 H 0.964 0.71391 0.32019 0.0
H914 H 0.05133 0.68877 0.36668 0.0
H915 H 0.05733 0.68129 0.33656 0.0
H916 H 0.02756 0.65218 0.35403 0.0
H917 H 0.03117 0.77415 0.33253 0.0
H918 H 0.00359 0.76144 0.30899 0.0
H919 H 0.03997 0.76523 0.30386 0.0
C920 C 0.377 0.11251 0.34898 0.0
C921 C 0.37809 0.12935 0.369 0.0
C922 C 0.36541 0.08142 0.35076 0.0
C923 C 0.35479 0.06696 0.37312 0.0
C924 C 0.35596 0.08397 0.3934 0.0
C925 C 0.36754 0.11497 0.39108 0.0
C926 C 0.36439 0.06404 0.3287 0.0
C927 C 0.34488 0.06941 0.41755 0.0
C928 C 0.29787 0.98371 0.37327 0.0
C929 C 0.31576 0.97102 0.37877 0.0
C930 C 0.31032 0.01484 0.37141 0.0
C931 C 0.34145 0.03388 0.37514 0.0
C932 C 0.35966 0.02128 0.38086 0.0
C933 C 0.34658 0.98997 0.38262 0.0
C934 C 0.29012 0.02737 0.36534 0.0
C935 C 0.39295 0.04088 0.385 0.0
H936 H 0.38526 0.12364 0.33191 0.0
H937 H 0.36852 0.128 0.40663 0.0
H938 H 0.37702 0.05211 0.33188 0.0
H939 H 0.34085 0.0468 0.32471 0.0
H940 H 0.37399 0.0787 0.31276 0.0
H941 H 0.34798 0.08592 0.43165 0.0
H942 H 0.32069 0.05238 0.41648 0.0
H943 H 0.35698 0.05759 0.423 0.0
H944 H 0.27403 0.96927 0.37028 0.0
H945 H 0.36056 0.98035 0.38684 0.0
H946 H 0.29788 0.04066 0.34859 0.0
H947 H 0.29123 0.04275 0.37971 0.0
H948 H 0.26635 0.00953 0.36301 0.0
H949 H 0.40376 0.05458 0.36884 0.0
H950 H 0.40398 0.02761 0.38931 0.0
H951 H 0.39701 0.05664 0.39993 0.0
C952 C 0.23524 0.3612 0.35999 0.0
C953 C 0.24699 0.38821 0.37268 0.0
C954 C 0.25187 0.34639 0.35736 0.0
C955 C 0.2807 0.35869 0.36797 0.0
C956 C 0.29224 0.38561 0.38126 0.0
C957 C 0.27537 0.40011 0.38329 0.0
C958 C 0.23888 0.31792 0.34284 0.0
C959 C 0.3226 0.39931 0.39319 0.0
C960 C 0.31446 0.3089 0.38029 0.0
C961 C 0.33599 0.31741 0.36206 0.0
C962 C 0.29608 0.32181 0.38221 0.0
C963 C 0.29891 0.34355 0.3653 0.0
C964 C 0.32021 0.35184 0.34656 0.0
C965 C 0.33863 0.33886 0.34527 0.0
C966 C 0.27409 0.31266 0.4027 0.0
C967 C 0.32375 0.37469 0.32801 0.0
H968 H 0.21343 0.35209 0.35158 0.0
H969 H 0.28456 0.42101 0.39312 0.0
H970 H 0.25384 0.32103 0.3275 0.0
H971 H 0.2375 0.29939 0.3539 0.0
H972 H 0.21614 0.31115 0.33588 0.0
H973 H 0.32797 0.41984 0.40348 0.0
H974 H 0.3234 0.38284 0.40552 0.0
H975 H 0.34031 0.40519 0.37951 0.0
H976 H 0.31226 0.29243 0.39342 0.0
H977 H 0.35506 0.34547 0.33105 0.0
H978 H 0.25107 0.30439 0.39576 0.0
H979 H 0.27979 0.3324 0.41414 0.0
H980 H 0.27403 0.29488 0.41399 0.0
H981 H 0.30178 0.36795 0.31953 0.0
H982 H 0.34005 0.37745 0.31382 0.0
H983 H 0.33153 0.39673 0.33668 0.0
C984 C 0.01791 0.33411 0.35271 0.0
C985 C 0.03802 0.32446 0.34611 0.0
C986 C 0.98684 0.31411 0.35339 0.0
C987 C 0.97545 0.28359 0.34736 0.0
C988 C 0.99552 0.27382 0.34009 0.0
C989 C 0.02656 0.29436 0.33954 0.0
C990 C 0.96625 0.32553 0.36116 0.0
C991 C 0.98428 0.24152 0.33349 0.0
C992 C 0.90049 0.23149 0.37661 0.0
C993 C 0.88024 0.22796 0.35843 0.0
C994 C 0.93159 0.24817 0.37279 0.0
C995 C 0.94274 0.26179 0.35024 0.0
C996 C 0.92235 0.25672 0.33136 0.0
C997 C 0.89127 0.2398 0.33568 0.0
C998 C 0.95246 0.25272 0.39337 0.0
C999 C 0.93325 0.27066 0.30702 0.0
H1000 H 0.02645 0.35732 0.35769 0.0
H1001 H 0.04187 0.28668 0.33433 0.0
H1002 H 0.9486 0.31997 0.34749 0.0
H1003 H 0.95479 0.31436 0.37806 0.0
H1004 H 0.97847 0.35016 0.36408 0.0
H1005 H 0.00248 0.23791 0.32659 0.0
H1006 H 0.97416 0.22706 0.34942 0.0
H1007 H 0.96646 0.23408 0.3197 0.0
H1008 H 0.89203 0.22229 0.39421 0.0
H1009 H 0.87567 0.2372 0.32159 0.0
H1010 H 0.96373 0.27648 0.3992 0.0
H1011 H 0.97023 0.24784 0.38767 0.0
H1012 H 0.94043 0.23829 0.40895 0.0
H1013 H 0.94226 0.2952 0.30822 0.0
H1014 H 0.915 0.26131 0.29349 0.0
H1015 H 0.95174 0.26719 0.30076 0.0
C1016 C 0.60512 0.87111 0.39899 0.0
C1017 C 0.61978 0.85959 0.38516 0.0
C1018 C 0.61736 0.90215 0.40202 0.0
C1019 C 0.6447 0.92228 0.39057 0.0
C1020 C 0.65975 0.91073 0.37672 0.0
C1021 C 0.64723 0.87948 0.37436 0.0
C1022 C 0.60083 0.91338 0.4173 0.0
C1023 C 0.68871 0.93139 0.36394 0.0
C1024 C 0.65989 0.00179 0.37946 0.0
C1025 C 0.68064 0.01802 0.39753 0.0
C1026 C 0.6483 0.97074 0.37682 0.0
C1027 C 0.65726 0.95537 0.39288 0.0
C1028 C 0.67782 0.97157 0.41141 0.0
C1029 C 0.68941 0.00267 0.41339 0.0
C1030 C 0.62667 0.95441 0.35668 0.0
C1031 C 0.6875 0.95602 0.42922 0.0
H1032 H 0.58389 0.85579 0.40741 0.0
H1033 H 0.65848 0.87064 0.3635 0.0
H1034 H 0.61585 0.92839 0.43153 0.0
H1035 H 0.59388 0.92674 0.40622 0.0
H1036 H 0.58053 0.89481 0.42584 0.0
H1037 H 0.69774 0.91893 0.35402 0.0
H1038 H 0.68502 0.94568 0.3511 0.0
H1039 H 0.70584 0.94657 0.37696 0.0
H1040 H 0.65311 0.01345 0.36703 0.0
H1041 H 0.70534 0.01497 0.42748 0.0
H1042 H 0.60493 0.93673 0.36403 0.0
H1043 H 0.63563 0.94313 0.34519 0.0
H1044 H 0.62247 0.96968 0.34537 0.0
H1045 H 0.66759 0.93807 0.43858 0.0
H1046 H 0.70331 0.97171 0.44279 0.0
H1047 H 0.69852 0.94516 0.41978 0.0
C1048 C 0.70279 0.70717 0.38582 0.0
C1049 C 0.67892 0.6973 0.36951 0.0
C1050 C 0.72046 0.69341 0.38716 0.0
C1051 C 0.71448 0.66934 0.37162 0.0
C1052 C 0.69066 0.6595 0.3549 0.0
C1053 C 0.67306 0.67345 0.35415 0.0
C1054 C 0.74527 0.70436 0.4055 0.0
C1055 C 0.68365 0.6341 0.33786 0.0
C1056 C 0.77555 0.64869 0.36199 0.0
C1057 C 0.76534 0.62319 0.37646 0.0
C1058 C 0.75929 0.66398 0.36022 0.0
C1059 C 0.73241 0.65377 0.37351 0.0
C1060 C 0.72253 0.62849 0.38865 0.0
C1061 C 0.73895 0.61342 0.38978 0.0
C1062 C 0.77046 0.69061 0.34368 0.0
C1063 C 0.69435 0.61708 0.40345 0.0
H1064 H 0.70749 0.72549 0.39786 0.0
H1065 H 0.65478 0.66571 0.34144 0.0
H1066 H 0.74094 0.68589 0.41802 0.0
H1067 H 0.76702 0.71127 0.39658 0.0
H1068 H 0.74738 0.7236 0.41603 0.0
H1069 H 0.6653 0.62995 0.32524 0.0
H1070 H 0.70396 0.63911 0.3274 0.0
H1071 H 0.67695 0.61322 0.34809 0.0
H1072 H 0.79577 0.65615 0.35147 0.0
H1073 H 0.73092 0.59368 0.40098 0.0
H1074 H 0.77387 0.7106 0.35379 0.0
H1075 H 0.75339 0.68606 0.32971 0.0
H1076 H 0.79189 0.69597 0.33479 0.0
H1077 H 0.69584 0.63531 0.41498 0.0
H1078 H 0.69032 0.59786 0.415 0.0
H1079 H 0.67468 0.60989 0.39155 0.0
C1080 C 0.77047 0.10301 0.87991 0.0
C1081 C 0.77658 0.12304 0.86095 0.0
C1082 C 0.75375 0.07195 0.87628 0.0
C1083 C 0.74269 0.06068 0.85314 0.0
C1084 C 0.75038 0.08081 0.83363 0.0
C1085 C 0.76737 0.11186 0.83778 0.0
C1086 C 0.74642 0.0513 0.89752 0.0
C1087 C 0.7391 0.06971 0.80869 0.0
C1088 C 0.71024 0.97684 0.84452 0.0
C1089 C 0.67964 0.9659 0.84895 0.0
C1090 C 0.73099 0.00774 0.84504 0.0
C1091 C 0.72087 0.02816 0.85002 0.0
C1092 C 0.68989 0.01729 0.85376 0.0
C1093 C 0.66968 0.98631 0.85325 0.0
C1094 C 0.76383 0.01847 0.84101 0.0
C1095 C 0.67815 0.03834 0.85899 0.0
H1096 H 0.77769 0.11164 0.89784 0.0
H1097 H 0.772 0.12735 0.82311 0.0
H1098 H 0.72209 0.04047 0.90154 0.0
H1099 H 0.75147 0.0332 0.89343 0.0
H1100 H 0.75913 0.06339 0.91377 0.0
H1101 H 0.75017 0.08774 0.79509 0.0
H1102 H 0.74286 0.05095 0.80389 0.0
H1103 H 0.71456 0.06101 0.80796 0.0
H1104 H 0.71814 0.96124 0.84111 0.0
H1105 H 0.64606 0.97809 0.85651 0.0
H1106 H 0.77653 0.02857 0.85772 0.0
H1107 H 0.77308 0.03615 0.82706 0.0
H1108 H 0.76778 1.0 0.83552 0.0
H1109 H 0.68736 0.0499 0.87627 0.0
H1110 H 0.65326 0.02649 0.85999 0.0
H1111 H 0.68565 0.05585 0.84493 0.0
C1112 C 0.59579 0.71876 0.86929 0.0
C1113 C 0.61246 0.74993 0.87252 0.0
C1114 C 0.60974 0.70129 0.86858 0.0
C1115 C 0.64125 0.7152 0.87135 0.0
C1116 C 0.65828 0.74672 0.87462 0.0
C1117 C 0.64368 0.76375 0.87507 0.0
C1118 C 0.59065 0.66784 0.86495 0.0
C1119 C 0.69186 0.7624 0.87782 0.0
C1120 C 0.66984 0.66373 0.89277 0.0
C1121 C 0.67946 0.65687 0.87139 0.0
C1122 C 0.65831 0.68338 0.8931 0.0
C1123 C 0.656 0.69643 0.87148 0.0
C1124 C 0.66608 0.68998 0.84986 0.0
C1125 C 0.67779 0.6704 0.85009 0.0
C1126 C 0.64801 0.68969 0.91657 0.0
C1127 C 0.66379 0.70318 0.82639 0.0
H1128 H 0.57165 0.70791 0.8672 0.0
H1129 H 0.65667 0.78782 0.87753 0.0
H1130 H 0.59861 0.66087 0.84908 0.0
H1131 H 0.59276 0.65584 0.88065 0.0
H1132 H 0.56656 0.66059 0.86241 0.0
H1133 H 0.70194 0.78703 0.87985 0.0
H1134 H 0.69743 0.75348 0.89389 0.0
H1135 H 0.70236 0.7579 0.86223 0.0
H1136 H 0.67119 0.65361 0.90938 0.0
H1137 H 0.68515 0.66529 0.83348 0.0
H1138 H 0.62346 0.68089 0.916 0.0
H1139 H 0.659 0.71422 0.9196 0.0
H1140 H 0.65303 0.67931 0.932 0.0
H1141 H 0.63986 0.69498 0.82214 0.0
H1142 H 0.67395 0.69721 0.81136 0.0
H1143 H 0.67509 0.72795 0.82773 0.0
C1144 C 0.99964 0.66156 0.87075 0.0
C1145 C 0.01441 0.67843 0.8911 0.0
C1146 C 0.96843 0.6488 0.86799 0.0
C1147 C 0.95138 0.65236 0.88628 0.0
C1148 C 0.96612 0.66892 0.90707 0.0
C1149 C 0.99746 0.68204 0.9091 0.0
C1150 C 0.95373 0.63176 0.84537 0.0
C1151 C 0.94876 0.6726 0.92727 0.0
C1152 C 0.87362 0.6403 0.87136 0.0
C1153 C 0.85507 0.61035 0.87815 0.0
C1154 C 0.90503 0.6543 0.87386 0.0
C1155 C 0.91806 0.63814 0.88388 0.0
C1156 C 0.89923 0.6081 0.89131 0.0
C1157 C 0.86806 0.59451 0.88808 0.0
C1158 C 0.92432 0.68614 0.86528 0.0
C1159 C 0.91201 0.59022 0.90255 0.0
H1160 H 0.0126 0.65889 0.85667 0.0
H1161 H 0.00868 0.69493 0.92493 0.0
H1162 H 0.93712 0.60814 0.84973 0.0
H1163 H 0.94136 0.64165 0.83655 0.0
H1164 H 0.97024 0.63193 0.83247 0.0
H1165 H 0.96347 0.68573 0.9424 0.0
H1166 H 0.93674 0.68406 0.92071 0.0
H1167 H 0.93156 0.65027 0.93403 0.0
H1168 H 0.86364 0.65252 0.86353 0.0
H1169 H 0.85376 0.57135 0.89343 0.0
H1170 H 0.93992 0.68698 0.85119 0.0
H1171 H 0.93822 0.70058 0.8802 0.0
H1172 H 0.91078 0.69563 0.85791 0.0
H1173 H 0.9268 0.58751 0.88959 0.0
H1174 H 0.89423 0.56762 0.9084 0.0
H1175 H 0.92598 0.60237 0.91827 0.0
C1176 C 0.30158 0.02862 0.83752 0.0
C1177 C 0.33109 0.03895 0.84534 0.0
C1178 C 0.28028 0.99786 0.83729 0.0
C1179 C 0.28867 0.97692 0.84504 0.0
C1180 C 0.31863 0.98716 0.8523 0.0
C1181 C 0.33945 0.01802 0.85239 0.0
C1182 C 0.24859 0.98782 0.82939 0.0
C1183 C 0.32855 0.96556 0.8606 0.0
C1184 C 0.23275 0.90211 0.87235 0.0
C1185 C 0.22962 0.88211 0.85411 0.0
C1186 C 0.25065 0.93318 0.86913 0.0
C1187 C 0.26587 0.94449 0.84715 0.0
C1188 C 0.26119 0.92443 0.82812 0.0
C1189 C 0.24303 0.89339 0.83183 0.0
C1190 C 0.25474 0.95375 0.8898 0.0
C1191 C 0.27681 0.93556 0.80436 0.0
H1192 H 0.29492 0.0446 0.83195 0.0
H1193 H 0.36221 0.02574 0.85833 0.0
H1194 H 0.24145 0.97028 0.81542 0.0
H1195 H 0.23306 0.97775 0.84475 0.0
H1196 H 0.24619 0.00664 0.82224 0.0
H1197 H 0.35298 0.97695 0.86445 0.0
H1198 H 0.31616 0.95395 0.87708 0.0
H1199 H 0.32321 0.94813 0.8468 0.0
H1200 H 0.22232 0.89343 0.88958 0.0
H1201 H 0.2407 0.87795 0.8177 0.0
H1202 H 0.25108 0.97223 0.88386 0.0
H1203 H 0.2781 0.96407 0.89656 0.0
H1204 H 0.23917 0.94172 0.90482 0.0
H1205 H 0.27469 0.95479 0.79793 0.0
H1206 H 0.26768 0.91772 0.7905 0.0
H1207 H 0.30109 0.94357 0.80654 0.0
C1208 C 0.32564 0.3218 0.83049 0.0
C1209 C 0.3216 0.33769 0.84915 0.0
C1210 C 0.33894 0.30405 0.83463 0.0
C1211 C 0.34816 0.30178 0.85805 0.0
C1212 C 0.34369 0.31737 0.87702 0.0
C1213 C 0.33066 0.33523 0.87233 0.0
C1214 C 0.34363 0.28816 0.81382 0.0
C1215 C 0.35297 0.31544 0.90228 0.0
C1216 C 0.36266 0.23731 0.87185 0.0
C1217 C 0.39403 0.25176 0.8706 0.0
C1218 C 0.34737 0.25331 0.86807 0.0
C1219 C 0.36385 0.28435 0.86251 0.0
C1220 C 0.39554 0.2989 0.86114 0.0
C1221 C 0.41019 0.28251 0.86538 0.0
C1222 C 0.31362 0.23704 0.87002 0.0
C1223 C 0.41403 0.33178 0.85495 0.0
H1224 H 0.31876 0.32352 0.81251 0.0
H1225 H 0.3275 0.34723 0.88692 0.0
H1226 H 0.36795 0.29648 0.81145 0.0
H1227 H 0.33267 0.26376 0.81749 0.0
H1228 H 0.33455 0.29155 0.79682 0.0
H1229 H 0.34652 0.32758 0.91524 0.0
H1230 H 0.3425 0.29164 0.90791 0.0
H1231 H 0.37764 0.32507 0.90311 0.0
H1232 H 0.35008 0.21355 0.87586 0.0
H1233 H 0.43445 0.29378 0.86421 0.0
H1234 H 0.3037 0.23824 0.85273 0.0
H1235 H 0.3067 0.24805 0.88365 0.0
H1236 H 0.30414 0.2131 0.87499 0.0
H1237 H 0.40702 0.33604 0.8373 0.0
H1238 H 0.43844 0.33967 0.85429 0.0
H1239 H 0.41016 0.34537 0.86834 0.0
C1240 C 0.00737 0.32224 0.91604 0.0
C1241 C 0.99004 0.32434 0.89756 0.0
C1242 C 0.03857 0.33459 0.91353 0.0
C1243 C 0.05278 0.34894 0.89186 0.0
C1244 C 0.03534 0.35088 0.87307 0.0
C1245 C 0.00428 0.33883 0.87623 0.0
C1246 C 0.05638 0.33259 0.93419 0.0
C1247 C 0.04949 0.36562 0.84956 0.0
C1248 C 0.13611 0.40672 0.89122 0.0
C1249 C 0.14883 0.39005 0.88249 0.0
C1250 C 0.10503 0.39346 0.89482 0.0
C1251 C 0.08602 0.36284 0.88909 0.0
C1252 C 0.09877 0.34583 0.88032 0.0
C1253 C 0.13011 0.35958 0.87735 0.0
C1254 C 0.09255 0.41232 0.90462 0.0
C1255 C 0.07926 0.31328 0.8736 0.0
H1256 H 0.99658 0.31116 0.93261 0.0
H1257 H 0.99106 0.34036 0.86178 0.0
H1258 H 0.06831 0.32068 0.92853 0.0
H1259 H 0.07367 0.35544 0.93986 0.0
H1260 H 0.042 0.32069 0.94983 0.0
H1261 H 0.03268 0.36421 0.83638 0.0
H1262 H 0.06622 0.38959 0.85252 0.0
H1263 H 0.06162 0.35488 0.84176 0.0
H1264 H 0.15053 0.43028 0.8953 0.0
H1265 H 0.13987 0.34669 0.87047 0.0
H1266 H 0.07906 0.40168 0.92092 0.0
H1267 H 0.07737 0.41378 0.89129 0.0
H1268 H 0.11047 0.43542 0.90917 0.0
H1269 H 0.06566 0.30028 0.88921 0.0
H1270 H 0.0926 0.30311 0.86721 0.0
H1271 H 0.06337 0.31116 0.85929 0.0
C1272 C 0.87303 0.23124 0.62211 0.0
C1273 C 0.85651 0.24595 0.62468 0.0
C1274 C 0.90463 0.24756 0.62139 0.0
C1275 C 0.91995 0.27925 0.62354 0.0
C1276 C 0.90322 0.29414 0.62564 0.0
C1277 C 0.87177 0.27734 0.62608 0.0
C1278 C 0.92165 0.23089 0.6189 0.0
C1279 C 0.91854 0.32781 0.62817 0.0
C1280 C 0.99877 0.32031 0.64948 0.0
C1281 C 0.01649 0.33351 0.6291 0.0
C1282 C 0.96747 0.30217 0.6478 0.0
C1283 C 0.95338 0.29684 0.62516 0.0
C1284 C 0.97114 0.30967 0.60444 0.0
C1285 C 0.00247 0.32795 0.60666 0.0
C1286 C 0.94941 0.2892 0.67039 0.0
C1287 C 0.95699 0.3044 0.57997 0.0
H1288 H 0.86129 0.20699 0.62095 0.0
H1289 H 0.8591 0.28884 0.62806 0.0
H1290 H 0.93794 0.24038 0.60393 0.0
H1291 H 0.93468 0.23362 0.63544 0.0
H1292 H 0.90652 0.20656 0.61564 0.0
H1293 H 0.9023 0.33606 0.6286 0.0
H1294 H 0.93187 0.33484 0.64493 0.0
H1295 H 0.93435 0.33887 0.61313 0.0
H1296 H 0.00931 0.32441 0.66691 0.0
H1297 H 0.01596 0.33792 0.5908 0.0
H1298 H 0.93554 0.26447 0.66888 0.0
H1299 H 0.93384 0.298 0.67296 0.0
H1300 H 0.96383 0.29469 0.68652 0.0
H1301 H 0.94287 0.28 0.57657 0.0
H1302 H 0.97399 0.3145 0.56551 0.0
H1303 H 0.94206 0.31416 0.57913 0.0
C1304 C 0.66165 0.89637 0.63239 0.0
C1305 C 0.63937 0.87564 0.64769 0.0
C1306 C 0.67632 0.92717 0.63737 0.0
C1307 C 0.66851 0.93744 0.65817 0.0
C1308 C 0.6474 0.91639 0.67448 0.0
C1309 C 0.63301 0.88566 0.66901 0.0
C1310 C 0.69882 0.94881 0.61958 0.0
C1311 C 0.63868 0.92638 0.69697 0.0
C1312 C 0.71898 0.01973 0.67408 0.0
C1313 C 0.70377 0.03284 0.66314 0.0
C1314 C 0.70736 0.98855 0.67332 0.0
C1315 C 0.67995 0.97011 0.6613 0.0
C1316 C 0.66412 0.98315 0.65084 0.0
C1317 C 0.67619 0.01429 0.65189 0.0
C1318 C 0.7248 0.97544 0.68479 0.0
C1319 C 0.63476 0.96429 0.63789 0.0
H1320 H 0.66669 0.88864 0.61594 0.0
H1321 H 0.61583 0.86962 0.68091 0.0
H1322 H 0.68945 0.96158 0.61065 0.0
H1323 H 0.7197 0.96526 0.62882 0.0
H1324 H 0.70461 0.9372 0.60562 0.0
H1325 H 0.6249 0.90732 0.70916 0.0
H1326 H 0.65896 0.94312 0.70673 0.0
H1327 H 0.62556 0.93737 0.69216 0.0
H1328 H 0.74024 0.03386 0.68291 0.0
H1329 H 0.66416 0.02413 0.6435 0.0
H1330 H 0.73304 0.96609 0.67076 0.0
H1331 H 0.71008 0.95671 0.69688 0.0
H1332 H 0.74436 0.99239 0.69517 0.0
H1333 H 0.63844 0.95349 0.62209 0.0
H1334 H 0.62454 0.97769 0.63173 0.0
H1335 H 0.61854 0.94613 0.64976 0.0
C1336 C 0.67314 0.68768 0.61855 0.0
C1337 C 0.67702 0.71389 0.62948 0.0
C1338 C 0.69504 0.67919 0.62045 0.0
C1339 C 0.72182 0.69758 0.63328 0.0
C1340 C 0.72641 0.72462 0.64366 0.0
C1341 C 0.70384 0.73236 0.6418 0.0
C1342 C 0.68911 0.65005 0.6092 0.0
C1343 C 0.7549 0.74508 0.65707 0.0
C1344 C 0.75909 0.65428 0.65483 0.0
C1345 C 0.77804 0.65815 0.63552 0.0
C1346 C 0.74204 0.66871 0.65522 0.0
C1347 C 0.74445 0.68778 0.63601 0.0
C1348 C 0.76572 0.6939 0.61766 0.0
C1349 C 0.78209 0.67879 0.61752 0.0
C1350 C 0.71959 0.66146 0.6751 0.0
C1351 C 0.76954 0.71461 0.59716 0.0
H1352 H 0.65251 0.67319 0.60906 0.0
H1353 H 0.70707 0.7527 0.65026 0.0
H1354 H 0.70703 0.6543 0.59614 0.0
H1355 H 0.68943 0.6349 0.62317 0.0
H1356 H 0.66714 0.63832 0.59985 0.0
H1357 H 0.75595 0.76629 0.66262 0.0
H1358 H 0.75648 0.73353 0.67328 0.0
H1359 H 0.77474 0.75057 0.64579 0.0
H1360 H 0.75592 0.63833 0.66879 0.0
H1361 H 0.79691 0.68198 0.60264 0.0
H1362 H 0.6966 0.64685 0.66804 0.0
H1363 H 0.72066 0.68215 0.682 0.0
H1364 H 0.72329 0.64965 0.69021 0.0
H1365 H 0.75001 0.70329 0.58494 0.0
H1366 H 0.79024 0.72095 0.58672 0.0
H1367 H 0.77038 0.73531 0.6038 0.0
C1368 C 1.00174 0.69184 0.58872 0.0
C1369 C 0.98645 0.66783 0.6047 0.0
C1370 C 0.03306 0.71056 0.58994 0.0
C1371 C 0.04956 0.70543 0.60774 0.0
C1372 C 0.03424 0.68134 0.624 0.0
C1373 C 0.00293 0.66274 0.6222 0.0
C1374 C 0.04852 0.73569 0.57203 0.0
C1375 C 0.05094 0.6752 0.64335 0.0
C1376 C 0.13272 0.73346 0.59858 0.0
C1377 C 0.14617 0.7594 0.61272 0.0
C1378 C 0.10139 0.71613 0.59639 0.0
C1379 C 0.08294 0.72468 0.60892 0.0
C1380 C 0.09644 0.75118 0.62294 0.0
C1381 C 0.12794 0.76836 0.62455 0.0
C1382 C 0.08804 0.68834 0.58098 0.0
C1383 C 0.07758 0.76093 0.63676 0.0
H1384 H 0.98925 0.69594 0.57508 0.0
H1385 H 0.99134 0.64437 0.6347 0.0
H1386 H 0.06103 0.75748 0.58146 0.0
H1387 H 0.06513 0.73261 0.5616 0.0
H1388 H 0.03248 0.73684 0.55938 0.0
H1389 H 0.03567 0.65619 0.65505 0.0
H1390 H 0.06742 0.66996 0.63517 0.0
H1391 H 0.06372 0.69545 0.6546 0.0
H1392 H 0.14675 0.72646 0.58939 0.0
H1393 H 0.13827 0.78828 0.63564 0.0
H1394 H 0.07265 0.68922 0.56753 0.0
H1395 H 0.07459 0.66821 0.59221 0.0
H1396 H 0.10548 0.68559 0.57147 0.0
H1397 H 0.06206 0.76348 0.6245 0.0
H1398 H 0.09146 0.78245 0.64632 0.0
H1399 H 0.06361 0.74346 0.65005 0.0
C1400 C 0.30405 0.99208 0.66988 0.0
C1401 C 0.29889 0.97306 0.6503 0.0
C1402 C 0.31752 0.02327 0.66678 0.0
C1403 C 0.32602 0.03571 0.64355 0.0
C1404 C 0.31949 0.01647 0.62362 0.0
C1405 C 0.30602 0.98544 0.62723 0.0
C1406 C 0.32403 0.04302 0.68848 0.0
C1407 C 0.32814 0.02878 0.59855 0.0
C1408 C 0.35018 0.11749 0.63076 0.0
C1409 C 0.38146 0.13054 0.63061 0.0
C1410 C 0.33164 0.08667 0.63547 0.0
C1411 C 0.34485 0.06875 0.64026 0.0
C1412 C 0.37648 0.08216 0.64075 0.0
C1413 C 0.39433 0.11281 0.63583 0.0
C1414 C 0.29802 0.07312 0.63471 0.0
C1415 C 0.39155 0.06401 0.64594 0.0
H1416 H 0.29845 0.98274 0.68776 0.0
H1417 H 0.30192 0.97095 0.61194 0.0
H1418 H 0.34859 0.05578 0.6917 0.0
H1419 H 0.31658 0.05958 0.68546 0.0
H1420 H 0.31286 0.02985 0.70482 0.0
H1421 H 0.31882 0.0108 0.5848 0.0
H1422 H 0.32017 0.04478 0.59474 0.0
H1423 H 0.35294 0.04125 0.59685 0.0
H1424 H 0.34021 0.13121 0.62675 0.0
H1425 H 0.41854 0.12287 0.6359 0.0
H1426 H 0.2878 0.06057 0.65146 0.0
H1427 H 0.28864 0.05686 0.61975 0.0
H1428 H 0.29128 0.09035 0.63228 0.0
H1429 H 0.38348 0.05207 0.66324 0.0
H1430 H 0.41638 0.07812 0.64671 0.0
H1431 H 0.38564 0.04678 0.63185 0.0
C1432 C 0.24828 0.33943 0.65747 0.0
C1433 C 0.23398 0.34014 0.63635 0.0
C1434 C 0.26559 0.32521 0.65808 0.0
C1435 C 0.26836 0.31126 0.63713 0.0
C1436 C 0.25231 0.31032 0.61627 0.0
C1437 C 0.23543 0.32487 0.61612 0.0
C1438 C 0.28229 0.32669 0.68068 0.0
C1439 C 0.25428 0.29538 0.59364 0.0
C1440 C 0.33902 0.3073 0.62523 0.0
C1441 C 0.32943 0.27712 0.6301 0.0
C1442 C 0.31966 0.31889 0.62825 0.0
C1443 C 0.28985 0.29981 0.63619 0.0
C1444 C 0.28021 0.26948 0.64164 0.0
C1445 C 0.30013 0.25852 0.63858 0.0
C1446 C 0.33092 0.35143 0.62237 0.0
C1447 C 0.24861 0.24842 0.65007 0.0
H1448 H 0.24732 0.35136 0.67311 0.0
H1449 H 0.22431 0.32532 0.59978 0.0
H1450 H 0.27898 0.30426 0.68521 0.0
H1451 H 0.30669 0.34189 0.67786 0.0
H1452 H 0.27504 0.3351 0.69612 0.0
H1453 H 0.23831 0.2942 0.57972 0.0
H1454 H 0.27735 0.3081 0.58627 0.0
H1455 H 0.24962 0.27232 0.59752 0.0
H1456 H 0.36167 0.32192 0.61884 0.0
H1457 H 0.29251 0.23518 0.64246 0.0
H1458 H 0.3272 0.36277 0.63776 0.0
H1459 H 0.31815 0.35302 0.60699 0.0
H1460 H 0.35517 0.36371 0.61778 0.0
H1461 H 0.24317 0.25808 0.66572 0.0
H1462 H 0.2452 0.22606 0.6551 0.0
H1463 H 0.23249 0.2454 0.63568 0.0
C1464 C 0.38737 0.12233 0.05433 0.0
C1465 C 0.38623 0.14767 0.06182 0.0
C1466 C 0.38836 0.11671 0.02983 0.0
C1467 C 0.38728 0.13649 0.01276 0.0
C1468 C 0.38304 0.1603 0.0204 0.0
C1469 C 0.38294 0.16579 0.04483 0.0
C1470 C 0.39293 0.09113 0.02241 0.0
C1471 C 0.38083 0.18139 0.00279 0.0
C1472 C 0.43057 0.15932 0.95501 0.0
C1473 C 0.40755 0.14533 0.93815 0.0
C1474 C 0.42457 0.15433 0.9795 0.0
C1475 C 0.39468 0.13545 0.98729 0.0
C1476 C 0.37162 0.11983 0.97031 0.0
C1477 C 0.3784 0.12479 0.94583 0.0
C1478 C 0.44993 0.17087 0.99706 0.0
C1479 C 0.33949 0.09968 0.97794 0.0
H1480 H 0.3894 0.10802 0.06748 0.0
H1481 H 0.38127 0.18499 0.05064 0.0
H1482 H 0.37966 0.07979 0.0062 0.0
H1483 H 0.41695 0.10006 0.018 0.0
H1484 H 0.3867 0.07431 0.03694 0.0
H1485 H 0.37369 0.19619 0.01152 0.0
H1486 H 0.40304 0.19575 0.99432 0.0
H1487 H 0.36465 0.16862 0.98836 0.0
H1488 H 0.45326 0.17471 0.94907 0.0
H1489 H 0.36058 0.1138 0.93278 0.0
H1490 H 0.44914 0.15546 0.01129 0.0
H1491 H 0.44755 0.1889 0.00582 0.0
H1492 H 0.47225 0.18121 0.98824 0.0
H1493 H 0.33815 0.0853 0.9932 0.0
H1494 H 0.32543 0.08515 0.96306 0.0
H1495 H 0.3299 0.11366 0.98398 0.0
C1496 C 0.26291 0.39246 0.05271 0.0
C1497 C 0.23883 0.39657 0.05896 0.0
C1498 C 0.27161 0.39398 0.02868 0.0
C1499 C 0.25497 0.39846 0.0106 0.0
C1500 C 0.22986 0.40129 0.01681 0.0
C1501 C 0.22238 0.40073 0.0409 0.0
C1502 C 0.29893 0.3916 0.02269 0.0
C1503 C 0.211 0.40528 -0.00198 0.0
C1504 C 0.28287 0.43314 0.94998 0.0
C1505 C 0.26895 0.4079 0.93517 0.0
C1506 C 0.281 0.43013 0.97491 0.0
C1507 C 0.26391 0.40124 0.98511 0.0
C1508 C 0.25128 0.37557 0.97023 0.0
C1509 C 0.25432 0.37922 0.94534 0.0
C1510 C 0.29555 0.45798 0.99023 0.0
C1511 C 0.23235 0.34445 0.98039 0.0
H1512 H 0.27526 0.38856 0.06657 0.0
H1513 H 0.2034 0.40341 0.04553 0.0
H1514 H 0.29312 0.37341 0.00952 0.0
H1515 H 0.31621 0.41279 0.01429 0.0
H1516 H 0.30883 0.38719 0.03877 0.0
H1517 H 0.19096 0.40495 0.00578 0.0
H1518 H 0.22463 0.42696 0.98864 0.0
H1519 H 0.20336 0.38725 0.98442 0.0
H1520 H 0.29463 0.45532 0.94205 0.0
H1521 H 0.24356 0.35971 0.93381 0.0
H1522 H 0.30693 0.45476 0.00586 0.0
H1523 H 0.27808 0.46262 0.99718 0.0
H1524 H 0.31218 0.47792 0.98 0.0
H1525 H 0.24325 0.34112 0.99627 0.0
H1526 H 0.22804 0.3268 0.967 0.0
H1527 H 0.21044 0.34151 0.98629 0.0
C1528 C 0.84666 0.28633 0.0542 0.0
C1529 C 0.85742 0.27208 0.06926 0.0
C1530 C 0.84927 0.28544 0.02928 0.0
C1531 C 0.86196 0.26902 0.0193 0.0
C1532 C 0.87415 0.25583 0.0345 0.0
C1533 C 0.87209 0.2579 0.05936 0.0
C1534 C 0.83684 0.30057 0.01364 0.0
C1535 C 0.88711 0.23744 0.02461 0.0
C1536 C 0.82625 0.23014 0.96119 0.0
C1537 C 0.84851 0.2473 0.94435 0.0
C1538 C 0.8308 0.23665 0.98561 0.0
C1539 C 0.85799 0.26154 0.99343 0.0
C1540 C 0.88073 0.27893 0.97661 0.0
C1541 C 0.87593 0.27118 0.95224 0.0
C1542 C 0.80633 0.21688 0.00302 0.0
C1543 C 0.90969 0.30609 0.98426 0.0
H1544 H 0.83569 0.29769 0.06188 0.0
H1545 H 0.88037 0.2468 0.07102 0.0
H1546 H 0.85257 0.31289 -0.00119 0.0
H1547 H 0.81539 0.28338 0.00553 0.0
H1548 H 0.83251 0.31648 0.02392 0.0
H1549 H 0.89903 0.23196 0.03852 0.0
H1550 H 0.8687 0.21614 0.01724 0.0
H1551 H 0.9029 0.24942 0.00976 0.0
H1552 H 0.80516 0.21128 0.95534 0.0
H1553 H 0.89332 0.28424 0.93935 0.0
H1554 H 0.79744 0.23001 0.01203 0.0
H1555 H 0.81553 0.20855 0.01711 0.0
H1556 H 0.78736 0.19728 0.99412 0.0
H1557 H 0.90481 0.3229 0.99229 0.0
H1558 H 0.92545 0.31669 0.96906 0.0
H1559 H 0.92092 0.29987 -0.00179 0.0
C1560 C 0.56847 0.83943 0.95153 0.0
C1561 C 0.59364 0.85329 0.93658 0.0
C1562 C 0.57143 0.84291 0.97641 0.0
C1563 C 0.60036 0.85995 0.98659 0.0
C1564 C 0.62576 0.87497 0.97152 0.0
C1565 C 0.62203 0.87174 0.94661 0.0
C1566 C 0.5437 0.82711 0.99185 0.0
C1567 C 0.65702 0.89281 0.98169 0.0
C1568 C 0.60432 0.87586 0.05339 0.0
C1569 C 0.60429 0.85058 0.06264 0.0
C1570 C 0.60379 0.87982 0.02853 0.0
C1571 C 0.60415 0.85841 0.0128 0.0
C1572 C 0.60599 0.83387 0.0222 0.0
C1573 C 0.60562 0.83006 0.04697 0.0
C1574 C 0.60131 0.90596 0.01916 0.0
C1575 C 0.60728 0.81098 0.00609 0.0
H1576 H 0.54642 0.82555 0.94377 0.0
H1577 H 0.64153 0.88248 0.93504 0.0
H1578 H 0.54354 0.80807 0.00127 0.0
H1579 H 0.54374 0.84257 0.00569 0.0
H1580 H 0.52275 0.81826 0.9812 0.0
H1581 H 0.67385 0.90612 0.96775 0.0
H1582 H 0.65784 0.90821 0.99591 0.0
H1583 H 0.66346 0.87727 0.99001 0.0
H1584 H 0.60343 0.89178 0.06555 0.0
H1585 H 0.60616 0.81076 0.05413 0.0
H1586 H 0.57875 0.89757 0.01117 0.0
H1587 H 0.61803 0.9178 0.00482 0.0
H1588 H 0.60456 0.92226 0.03348 0.0
H1589 H 0.58567 0.79805 0.99644 0.0
H1590 H 0.61161 0.79497 0.01622 0.0
H1591 H 0.62515 0.82231 0.99245 0.0
C1592 C 0.77887 0.59348 0.03853 0.0
C1593 C 0.76256 0.59867 0.05607 0.0
C1594 C 0.77238 0.59346 0.01424 0.0
C1595 C 0.74844 0.59793 0.00734 0.0
C1596 C 0.73171 0.60299 0.02494 0.0
C1597 C 0.73932 0.60381 0.04915 0.0
C1598 C 0.79116 0.58858 0.99595 0.0
C1599 C 0.70556 0.60706 0.01823 0.0
C1600 C 0.75182 0.62007 0.94237 0.0
C1601 C 0.73578 0.59186 0.93158 0.0
C1602 C 0.75484 0.62267 0.96733 0.0
C1603 C 0.74078 0.59646 0.98163 0.0
C1604 C 0.72251 0.5682 0.9708 0.0
C1605 C 0.72062 0.56619 0.94583 0.0
C1606 C 0.77497 0.65312 0.9782 0.0
C1607 C 0.70646 0.53985 0.98549 0.0
H1608 H 0.79709 0.58985 0.04375 0.0
H1609 H 0.72685 0.60809 0.06266 0.0
H1610 H 0.77696 0.56751 0.98597 0.0
H1611 H 0.80049 0.60717 0.98274 0.0
H1612 H 0.81003 0.58717 0.00425 0.0
H1613 H 0.69475 0.61064 0.03412 0.0
H1614 H 0.71311 0.6265 0.00602 0.0
H1615 H 0.68849 0.58699 0.00846 0.0
H1616 H 0.76359 0.63989 0.93127 0.0
H1617 H 0.70786 0.5444 0.93741 0.0
H1618 H 0.79583 0.65419 0.98481 0.0
H1619 H 0.76394 0.65693 0.99376 0.0
H1620 H 0.78123 0.67151 0.96508 0.0
H1621 H 0.723 0.53401 0.9926 0.0
H1622 H 0.6896 0.52062 0.97476 0.0
H1623 H 0.695 0.54318 0.00101 0.0
C1624 C 0.12052 0.74278 0.05215 0.0
C1625 C 0.13649 0.72988 0.06197 0.0
C1626 C 0.11788 0.74429 0.02725 0.0
C1627 C 0.13109 0.73213 0.01201 0.0
C1628 C 0.1445 0.71639 0.02198 0.0
C1629 C 0.14739 0.7158 0.04686 0.0
C1630 C 0.10353 0.76138 0.01735 0.0
C1631 C 0.15814 0.70242 0.00635 0.0
C1632 C 0.12283 0.73172 0.94423 0.0
C1633 C 0.15037 0.75665 0.93783 0.0
C1634 C 0.11575 0.72346 0.96838 0.0
C1635 C 0.13647 0.74103 0.98641 0.0
C1636 C 0.16369 0.76693 0.98001 0.0
C1637 C 0.17039 0.7742 0.95587 0.0
C1638 C 0.08672 0.69542 0.97448 0.0
C1639 C 0.18619 0.78673 -0.00135 0.0
H1640 H 0.11194 0.75358 0.06381 0.0
H1641 H 0.15926 0.70529 0.05445 0.0
H1642 H 0.12134 0.78371 0.01108 0.0
H1643 H 0.0891 0.74956 0.00176 0.0
H1644 H 0.08983 0.76475 0.03102 0.0
H1645 H 0.16278 0.68665 0.01654 0.0
H1646 H 0.14306 0.69021 0.99116 0.0
H1647 H 0.17961 0.72031 -0.00123 0.0
H1648 H 0.10724 0.71818 0.93039 0.0
H1649 H 0.19153 0.79383 0.95115 0.0
H1650 H 0.0752 0.69957 0.98951 0.0
H1651 H 0.09163 0.67774 0.98034 0.0
H1652 H 0.07123 0.68682 0.95893 0.0
H1653 H 0.17516 0.79376 0.01218 0.0
H1654 H 0.20529 0.80716 0.99075 0.0
H1655 H 0.19526 0.77405 0.00815 0.0
C1656 C 0.87875 0.6077 0.54948 0.0
C1657 C 0.85091 0.60436 0.55591 0.0
C1658 C 0.88608 0.60721 0.52529 0.0
C1659 C 0.86531 0.60406 0.5073 0.0
C1660 C 0.83773 0.60195 0.51376 0.0
C1661 C 0.83077 0.60177 0.53792 0.0
C1662 C 0.91545 0.60897 0.51909 0.0
C1663 C 0.81517 0.59925 0.49516 0.0
C1664 C 0.88107 0.62332 0.44179 0.0
C1665 C 0.86526 0.59467 0.43168 0.0
C1666 C 0.8838 0.62695 0.46673 0.0
C1667 C 0.87095 0.60126 0.48164 0.0
C1668 C 0.85783 0.57236 0.47129 0.0
C1669 C 0.8547 0.56939 0.4464 0.0
C1670 C 0.89771 0.65814 0.47706 0.0
C1671 C 0.84466 0.54443 0.48654 0.0
H1672 H 0.89446 0.60995 0.56331 0.0
H1673 H 0.8094 0.59972 0.54267 0.0
H1674 H 0.91102 0.58672 0.51273 0.0
H1675 H 0.9269 0.62519 0.50436 0.0
H1676 H 0.93079 0.61558 0.53472 0.0
H1677 H 0.79584 0.6001 0.50315 0.0
H1678 H 0.82604 0.61758 0.48183 0.0
H1679 H 0.80644 0.57772 0.48542 0.0
H1680 H 0.88934 0.64288 0.43036 0.0
H1681 H 0.84298 0.5472 0.43851 0.0
H1682 H 0.91209 0.66061 0.49266 0.0
H1683 H 0.87964 0.66224 0.4834 0.0
H1684 H 0.91136 0.67555 0.46359 0.0
H1685 H 0.85978 0.54727 0.50169 0.0
H1686 H 0.84051 0.52441 0.47603 0.0
H1687 H 0.82297 0.54021 0.49417 0.0
C1688 C 0.28282 0.84288 0.54785 0.0
C1689 C 0.26614 0.85222 0.56147 0.0
C1690 C 0.2819 0.84313 0.52279 0.0
C1691 C 0.26302 0.8519 0.51123 0.0
C1692 C 0.24711 0.86252 0.52493 0.0
C1693 C 0.24923 0.86297 0.54995 0.0
C1694 C 0.29994 0.83258 0.50873 0.0
C1695 C 0.22612 0.87131 0.51333 0.0
C1696 C 0.26537 0.86299 0.44385 0.0
C1697 C 0.24326 0.83442 0.43624 0.0
C1698 C 0.27277 0.86893 0.46819 0.0
C1699 C 0.25674 0.84612 0.48528 0.0
C1700 C 0.234 0.81746 0.47771 0.0
C1701 C 0.22786 0.81186 0.45329 0.0
C1702 C 0.29775 0.89947 0.4756 0.0
C1703 C 0.21579 0.79274 0.49542 0.0
H1704 H 0.29622 0.83494 0.55681 0.0
H1705 H 0.23625 0.87009 0.56051 0.0
H1706 H 0.28472 0.81005 0.50118 0.0
H1707 H 0.31152 0.84792 0.49351 0.0
H1708 H 0.31694 0.83115 0.52003 0.0
H1709 H 0.21764 0.88173 0.52625 0.0
H1710 H 0.23747 0.88722 0.49842 0.0
H1711 H 0.20663 0.85108 0.50564 0.0
H1712 H 0.27707 0.88065 0.43079 0.0
H1713 H 0.21049 0.78981 0.44762 0.0
H1714 H 0.31461 0.89717 0.48636 0.0
H1715 H 0.28871 0.91068 0.48707 0.0
H1716 H 0.30921 0.91413 0.45997 0.0
H1717 H 0.23069 0.78696 0.50561 0.0
H1718 H 0.19813 0.77209 0.4866 0.0
H1719 H 0.20489 0.80046 0.50852 0.0
C1720 C 0.42604 0.22393 0.52697 0.0
C1721 C 0.40447 0.22403 0.54225 0.0
C1722 C 0.42459 0.22708 0.50218 0.0
C1723 C 0.40105 0.23046 0.49255 0.0
C1724 C 0.37836 0.22902 0.50773 0.0
C1725 C 0.38029 0.22571 0.53243 0.0
C1726 C 0.44897 0.22814 0.48645 0.0
C1727 C 0.35285 0.23245 0.49802 0.0
C1728 C 0.41564 0.27475 0.43517 0.0
C1729 C 0.40041 0.25187 0.41839 0.0
C1730 C 0.41625 0.26801 0.45937 0.0
C1731 C 0.4013 0.23768 0.46687 0.0
C1732 C 0.38613 0.21448 0.44996 0.0
C1733 C 0.38564 0.22191 0.42592 0.0
C1734 C 0.4326 0.29334 0.47697 0.0
C1735 C 0.37001 0.1819 0.4573 0.0
H1736 H 0.44465 0.22235 0.53441 0.0
H1737 H 0.36344 0.22566 0.54411 0.0
H1738 H 0.439 0.21237 0.47124 0.0
H1739 H 0.46258 0.25097 0.47882 0.0
H1740 H 0.46414 0.22247 0.49643 0.0
H1741 H 0.33583 0.22851 0.51193 0.0
H1742 H 0.36178 0.25544 0.49081 0.0
H1743 H 0.34161 0.21659 0.48306 0.0
H1744 H 0.42699 0.29795 0.42941 0.0
H1745 H 0.3731 0.20423 0.41312 0.0
H1746 H 0.45012 0.29075 0.48644 0.0
H1747 H 0.41669 0.29266 0.49069 0.0
H1748 H 0.44342 0.31567 0.46816 0.0
H1749 H 0.3854 0.17665 0.46737 0.0
H1750 H 0.36101 0.16656 0.44169 0.0
H1751 H 0.3511 0.17733 0.46941 0.0
C1752 C 0.18246 0.40116 0.54287 0.0
C1753 C 0.16019 0.39473 0.56006 0.0
C1754 C 0.17698 0.40233 0.51854 0.0
C1755 C 0.14876 0.39788 0.51114 0.0
C1756 C 0.12605 0.39134 0.52832 0.0
C1757 C 0.13186 0.38923 0.55263 0.0
C1758 C 0.20159 0.40853 0.50077 0.0
C1759 C 0.096 0.38727 0.52108 0.0
C1760 C 0.15761 0.43354 0.4506 0.0
C1761 C 0.14862 0.40886 0.43546 0.0
C1762 C 0.15487 0.42983 0.47547 0.0
C1763 C 0.14392 0.40089 0.48536 0.0
C1764 C 0.13329 0.37569 0.47006 0.0
C1765 C 0.13538 0.37997 0.44519 0.0
C1766 C 0.1656 0.45715 0.49118 0.0
C1767 C 0.12217 0.34458 0.47986 0.0
H1768 H 0.20428 0.40494 0.54836 0.0
H1769 H 0.11444 0.38385 0.5658 0.0
H1770 H 0.19309 0.39092 0.48677 0.0
H1771 H 0.20894 0.43028 0.49171 0.0
H1772 H 0.22147 0.4094 0.50937 0.0
H1773 H 0.08054 0.38169 0.53655 0.0
H1774 H 0.09918 0.40819 0.51266 0.0
H1775 H 0.08526 0.36922 0.50754 0.0
H1776 H 0.16737 0.45585 0.44299 0.0
H1777 H 0.12842 0.36089 0.43341 0.0
H1778 H 0.18764 0.46302 0.49908 0.0
H1779 H 0.14971 0.45256 0.50615 0.0
H1780 H 0.16825 0.47684 0.48097 0.0
H1781 H 0.14151 0.34296 0.48683 0.0
H1782 H 0.11073 0.32705 0.46597 0.0
H1783 H 0.10646 0.33986 0.49496 0.0
C1784 C 0.77404 0.17557 0.46165 0.0
C1785 C 0.75594 0.15477 0.44425 0.0
C1786 C 0.76797 0.16957 0.48601 0.0
C1787 C 0.74269 0.14233 0.49325 0.0
C1788 C 0.72444 0.12096 0.47586 0.0
C1789 C 0.73156 0.12729 0.45147 0.0
C1790 C 0.78847 0.19273 0.50398 0.0
C1791 C 0.69696 0.09193 0.48294 0.0
C1792 C 0.74728 0.1271 0.55878 0.0
C1793 C 0.73421 0.14259 0.56911 0.0
C1794 C 0.74823 0.12467 0.53382 0.0
C1795 C 0.73518 0.13747 0.51909 0.0
C1796 C 0.71953 0.15066 0.52962 0.0
C1797 C 0.71964 0.15347 0.55454 0.0
C1798 C 0.76548 0.11081 0.52328 0.0
C1799 C 0.70464 0.16386 0.51455 0.0
H1800 H 0.79325 0.19669 0.4563 0.0
H1801 H 0.71768 0.11104 0.43812 0.0
H1802 H 0.77599 0.20177 0.51382 0.0
H1803 H 0.79642 0.18231 0.51732 0.0
H1804 H 0.80835 0.21176 0.49541 0.0
H1805 H 0.68685 0.07651 0.46749 0.0
H1806 H 0.70257 0.08038 0.49703 0.0
H1807 H 0.67992 0.09678 0.49054 0.0
H1808 H 0.75846 0.11859 0.5701 0.0
H1809 H 0.70898 0.16493 0.56259 0.0
H1810 H 0.78731 0.12885 0.51634 0.0
H1811 H 0.75313 0.09597 0.50803 0.0
H1812 H 0.76995 0.09767 0.53676 0.0
H1813 H 0.72206 0.1853 0.5066 0.0
H1814 H 0.68914 0.16838 0.52526 0.0
H1815 H 0.6919 0.14857 0.49963 0.0
C1816 C 0.57659 0.73638 0.45109 0.0
C1817 C 0.59773 0.73497 0.43614 0.0
C1818 C 0.57929 0.73661 0.47599 0.0
C1819 C 0.60369 0.73525 0.48633 0.0
C1820 C 0.62444 0.73249 0.47145 0.0
C1821 C 0.62128 0.7325 0.44646 0.0
C1822 C 0.55656 0.73947 0.4912 0.0
C1823 C 0.65053 0.73065 0.48184 0.0
C1824 C 0.6203 0.77268 0.54656 0.0
C1825 C 0.602 0.74834 0.5614 0.0
C1826 C 0.62352 0.76843 0.52223 0.0
C1827 C 0.60821 0.73911 0.51261 0.0
C1828 C 0.59258 0.71421 0.52804 0.0
C1829 C 0.58963 0.71912 0.55235 0.0
C1830 C 0.64074 0.79559 0.50645 0.0
C1831 C 0.57656 0.68256 0.51856 0.0
H1832 H 0.55816 0.73805 0.44337 0.0
H1833 H 0.63766 0.73125 0.43505 0.0
H1834 H 0.54648 0.72101 0.50447 0.0
H1835 H 0.56783 0.76089 0.50128 0.0
H1836 H 0.53821 0.73897 0.48038 0.0
H1837 H 0.66148 0.72348 0.46831 0.0
H1838 H 0.6675 0.75299 0.48872 0.0
H1839 H 0.64314 0.71479 0.49713 0.0
H1840 H 0.63052 0.79531 0.55355 0.0
H1841 H 0.57594 0.70011 0.56381 0.0
H1842 H 0.62469 0.7993 0.49579 0.0
H1843 H 0.65521 0.79208 0.49372 0.0
H1844 H 0.65499 0.81618 0.51703 0.0
H1845 H 0.55536 0.67805 0.50981 0.0
H1846 H 0.57097 0.66584 0.53308 0.0
H1847 H 0.59039 0.67938 0.50492 0.0
C1848 C 0.37326 0.14461 0.19561 0.0
C1849 C 0.39747 0.16272 0.18062 0.0
C1850 C 0.36928 0.15571 0.21741 0.0
C1851 C 0.39028 0.18539 0.22436 0.0
C1852 C 0.41407 0.20405 0.20879 0.0
C1853 C 0.41746 0.19238 0.18717 0.0
C1854 C 0.34353 0.13527 0.23349 0.0
C1855 C 0.43698 0.23583 0.21553 0.0
C1856 C 0.37874 0.22528 0.2769 0.0
C1857 C 0.39641 0.22206 0.29448 0.0
C1858 C 0.37539 0.21238 0.25414 0.0
C1859 C 0.38993 0.19584 0.24902 0.0
C1860 C 0.40652 0.19133 0.26708 0.0
C1861 C 0.40958 0.20451 0.28953 0.0
C1862 C 0.35743 0.21753 0.23529 0.0
C1863 C 0.42234 0.17378 0.26237 0.0
H1864 H 0.35782 0.1216 0.19054 0.0
H1865 H 0.43653 0.20621 0.17579 0.0
H1866 H 0.35228 0.12904 0.2493 0.0
H1867 H 0.33176 0.14692 0.24018 0.0
H1868 H 0.32706 0.11439 0.2242 0.0
H1869 H 0.45238 0.24818 0.20049 0.0
H1870 H 0.42567 0.24831 0.22128 0.0
H1871 H 0.45056 0.23555 0.23084 0.0
H1872 H 0.3684 0.23872 0.2806 0.0
H1873 H 0.42306 0.20167 0.30303 0.0
H1874 H 0.34144 0.19608 0.22649 0.0
H1875 H 0.37273 0.23263 0.22121 0.0
H1876 H 0.34471 0.22781 0.24284 0.0
H1877 H 0.4064 0.1514 0.25492 0.0
H1878 H 0.43259 0.17063 0.27881 0.0
H1879 H 0.44031 0.18572 0.2489 0.0
C1880 C 0.22744 0.43275 0.18239 0.0
C1881 C 0.24492 0.41924 0.17906 0.0
C1882 C 0.21511 0.43236 0.20482 0.0
C1883 C 0.22083 0.4184 0.22431 0.0
C1884 C 0.23846 0.40464 0.22099 0.0
C1885 C 0.25044 0.40536 0.19835 0.0
C1886 C 0.19636 0.4472 0.20771 0.0
C1887 C 0.24503 0.38958 0.24141 0.0
C1888 C 0.21775 0.44351 0.28725 0.0
C1889 C 0.19009 0.42013 0.29534 0.0
C1890 C 0.22776 0.44342 0.264 0.0
C1891 C 0.20964 0.4194 0.24848 0.0
C1892 C 0.18147 0.39599 0.25635 0.0
C1893 C 0.17204 0.39657 0.27978 0.0
C1894 C 0.25797 0.46879 0.25618 0.0
C1895 C 0.16155 0.3701 0.24017 0.0
H1896 H 0.22363 0.44389 0.16751 0.0
H1897 H 0.26409 0.39499 0.19572 0.0
H1898 H 0.17387 0.43084 0.21479 0.0
H1899 H 0.20704 0.46573 0.22087 0.0
H1900 H 0.19346 0.4564 0.19057 0.0
H1901 H 0.25825 0.37901 0.2356 0.0
H1902 H 0.25777 0.40625 0.25557 0.0
H1903 H 0.22376 0.37209 0.24955 0.0
H1904 H 0.23184 0.46179 0.29918 0.0
H1905 H 0.15061 0.37848 0.28591 0.0
H1906 H 0.25546 0.47949 0.23979 0.0
H1907 H 0.27307 0.45992 0.25169 0.0
H1908 H 0.26888 0.48623 0.27021 0.0
H1909 H 0.15797 0.37855 0.22296 0.0
H1910 H 0.13935 0.35491 0.24838 0.0
H1911 H 0.17267 0.35692 0.23602 0.0
C1912 C 0.78414 0.21556 0.21495 0.0
C1913 C 0.81337 0.2247 0.20717 0.0
C1914 C 0.77452 0.20351 0.23784 0.0
C1915 C 0.79464 0.20061 0.25336 0.0
C1916 C 0.82413 0.20962 0.24563 0.0
C1917 C 0.83315 0.22149 0.22254 0.0
C1918 C 0.74285 0.19413 0.24548 0.0
C1919 C 0.8462 0.207 0.26182 0.0
C1920 C 0.77516 0.1965 0.319 0.0
C1921 C 0.76005 0.16557 0.32309 0.0
C1922 C 0.78774 0.20836 0.29663 0.0
C1923 C 0.78471 0.18865 0.27784 0.0
C1924 C 0.77004 0.15736 0.28201 0.0
C1925 C 0.7577 0.14615 0.30463 0.0
C1926 C 0.8032 0.24186 0.2929 0.0
C1927 C 0.76645 0.1357 0.26237 0.0
H1928 H 0.76867 0.21778 0.20314 0.0
H1929 H 0.85579 0.22853 0.21665 0.0
H1930 H 0.73083 0.17014 0.2507 0.0
H1931 H 0.74332 0.20723 0.26138 0.0
H1932 H 0.72989 0.19746 0.23111 0.0
H1933 H 0.8681 0.21439 0.2529 0.0
H1934 H 0.85016 0.22081 0.27809 0.0
H1935 H 0.83683 0.18344 0.26778 0.0
H1936 H 0.77651 0.21148 0.33313 0.0
H1937 H 0.74584 0.12217 0.30777 0.0
H1938 H 0.79021 0.24724 0.27997 0.0
H1939 H 0.82585 0.25017 0.28516 0.0
H1940 H 0.80549 0.25415 0.30981 0.0
H1941 H 0.75168 0.13622 0.24814 0.0
H1942 H 0.75656 0.11232 0.26902 0.0
H1943 H 0.78849 0.14242 0.25404 0.0
C1944 C 0.59309 0.8121 0.18991 0.0
C1945 C 0.61213 0.84227 0.1841 0.0
C1946 C 0.59635 0.80023 0.21153 0.0
C1947 C 0.61873 0.81925 0.22798 0.0
C1948 C 0.6388 0.8495 0.22178 0.0
C1949 C 0.6352 0.86069 0.19988 0.0
C1950 C 0.57457 0.76781 0.21738 0.0
C1951 C 0.66286 0.87051 0.23887 0.0
C1952 C 0.5968 0.79935 0.29279 0.0
C1953 C 0.6124 0.78453 0.29906 0.0
C1954 C 0.59951 0.81153 0.26995 0.0
C1955 C 0.61814 0.80865 0.25281 0.0
C1956 C 0.6347 0.79449 0.25918 0.0
C1957 C 0.63179 0.78271 0.28238 0.0
C1958 C 0.58168 0.82674 0.26399 0.0
C1959 C 0.65464 0.7909 0.24127 0.0
H1960 H 0.57484 0.79797 0.17795 0.0
H1961 H 0.64984 0.88412 0.19547 0.0
H1962 H 0.58669 0.75665 0.22438 0.0
H1963 H 0.55889 0.76659 0.23154 0.0
H1964 H 0.56121 0.75515 0.20153 0.0
H1965 H 0.67904 0.89203 0.23019 0.0
H1966 H 0.65229 0.87547 0.25417 0.0
H1967 H 0.67535 0.85993 0.24623 0.0
H1968 H 0.58209 0.80115 0.30574 0.0
H1969 H 0.64385 0.77121 0.28717 0.0
H1970 H 0.5651 0.814 0.24978 0.0
H1971 H 0.59675 0.84964 0.25701 0.0
H1972 H 0.56944 0.82843 0.27975 0.0
H1973 H 0.64075 0.77591 0.22657 0.0
H1974 H 0.66764 0.78131 0.24949 0.0
H1975 H 0.67052 0.81286 0.23312 0.0
C1976 C 0.75171 0.59944 0.19707 0.0
C1977 C 0.75706 0.58498 0.17811 0.0
C1978 C 0.76372 0.60065 0.21978 0.0
C1979 C 0.78125 0.58687 0.22353 0.0
C1980 C 0.78673 0.57226 0.20439 0.0
C1981 C 0.77433 0.57133 0.18188 0.0
C1982 C 0.75736 0.61636 0.23982 0.0
C1983 C 0.8053 0.5573 0.20776 0.0
C1984 C 0.83089 0.61032 0.27853 0.0
C1985 C 0.81311 0.58718 0.29453 0.0
C1986 C 0.82103 0.61028 0.25514 0.0
C1987 C 0.7927 0.58667 0.24777 0.0
C1988 C 0.77477 0.56319 0.26379 0.0
C1989 C 0.78521 0.56372 0.28699 0.0
C1990 C 0.84076 0.63558 0.2384 0.0
C1991 C 0.74439 0.53765 0.25652 0.0
H1992 H 0.73823 0.60992 0.19411 0.0
H1993 H 0.77786 0.55961 0.16729 0.0
H1994 H 0.74485 0.60017 0.25434 0.0
H1995 H 0.77873 0.63414 0.2476 0.0
H1996 H 0.74402 0.62667 0.23373 0.0
H1997 H 0.80818 0.54771 0.19083 0.0
H1998 H 0.82781 0.57368 0.21479 0.0
H1999 H 0.79448 0.53903 0.22115 0.0
H2000 H 0.85253 0.62845 0.28425 0.0
H2001 H 0.77134 0.54578 0.29927 0.0
H2002 H 0.82914 0.64791 0.23303 0.0
H2003 H 0.84508 0.62648 0.22185 0.0
H2004 H 0.86263 0.65168 0.24664 0.0
H2005 H 0.72934 0.54646 0.25168 0.0
H2006 H 0.73357 0.52077 0.27097 0.0
H2007 H 0.74663 0.52627 0.24046 0.0
C2008 C 0.22209 0.78812 0.20474 0.0
C2009 C 0.19352 0.78223 0.19766 0.0
C2010 C 0.23278 0.79829 0.22787 0.0
C2011 C 0.21437 0.80252 0.24436 0.0
C2012 C 0.18557 0.79684 0.23732 0.0
C2013 C 0.17552 0.78689 0.21397 0.0
C2014 C 0.26367 0.80422 0.23473 0.0
C2015 C 0.16527 0.8009 0.25454 0.0
C2016 C 0.23235 0.8009 0.30988 0.0
C2017 C 0.24882 0.83149 0.3153 0.0
C2018 C 0.22021 0.79111 0.28702 0.0
C2019 C 0.22525 0.81253 0.26908 0.0
C2020 C 0.24191 0.84351 0.27448 0.0
C2021 C 0.25359 0.85263 0.29757 0.0
C2022 C 0.20248 0.75788 0.28197 0.0
C2023 C 0.24783 0.86697 0.25575 0.0
H2024 H 0.23618 0.78472 0.1922 0.0
H2025 H 0.15338 0.7823 0.20863 0.0
H2026 H 0.27764 0.82772 0.24089 0.0
H2027 H 0.26197 0.78946 0.24982 0.0
H2028 H 0.27536 0.80033 0.21963 0.0
H2029 H 0.14359 0.79571 0.24622 0.0
H2030 H 0.16055 0.78611 0.27031 0.0
H2031 H 0.17657 0.82432 0.26121 0.0
H2032 H 0.22931 0.78458 0.32346 0.0
H2033 H 0.26655 0.87633 0.30174 0.0
H2034 H 0.21408 0.75199 0.2681 0.0
H2035 H 0.18001 0.75174 0.27484 0.0
H2036 H 0.19951 0.7442 0.2982 0.0
H2037 H 0.26111 0.86516 0.24088 0.0
H2038 H 0.26024 0.89009 0.26309 0.0
H2039 H 0.22634 0.86318 0.24806 0.0
C2040 C 0.57574 0.77742 0.68613 0.0
C2041 C 0.59476 0.76641 0.67993 0.0
C2042 C 0.57859 0.7914 0.7082 0.0
C2043 C 0.60019 0.7932 0.72479 0.0
C2044 C 0.62015 0.78299 0.71831 0.0
C2045 C 0.61721 0.76972 0.69585 0.0
C2046 C 0.55724 0.80252 0.7143 0.0
C2047 C 0.64321 0.7842 0.73566 0.0
C2048 C 0.61466 0.83964 0.78104 0.0
C2049 C 0.59484 0.81783 0.79715 0.0
C2050 C 0.61675 0.83205 0.75729 0.0
C2051 C 0.59909 0.80189 0.74984 0.0
C2052 C 0.57956 0.77973 0.76623 0.0
C2053 C 0.57748 0.78805 0.78964 0.0
C2054 C 0.63734 0.85627 0.7401 0.0
C2055 C 0.56065 0.74724 0.759 0.0
H2056 H 0.55785 0.77411 0.67408 0.0
H2057 H 0.63168 0.76082 0.69113 0.0
H2058 H 0.54075 0.78742 0.72776 0.0
H2059 H 0.56957 0.82526 0.72227 0.0
H2060 H 0.54476 0.80328 0.69834 0.0
H2061 H 0.65917 0.77857 0.72696 0.0
H2062 H 0.65608 0.80679 0.74379 0.0
H2063 H 0.63167 0.76801 0.75041 0.0
H2064 H 0.62799 0.86273 0.78684 0.0
H2065 H 0.56235 0.77114 0.80216 0.0
H2066 H 0.62418 0.85745 0.72485 0.0
H2067 H 0.65401 0.85082 0.73261 0.0
H2068 H 0.64951 0.87867 0.74872 0.0
H2069 H 0.54473 0.74505 0.7447 0.0
H2070 H 0.54759 0.73265 0.77421 0.0
H2071 H 0.57514 0.73889 0.75164 0.0
C2072 C 0.78517 0.57613 0.78455 0.0
C2073 C 0.77527 0.59559 0.79236 0.0
C2074 C 0.7972 0.57878 0.76163 0.0
C2075 C 0.79929 0.60139 0.74603 0.0
C2076 C 0.78946 0.62123 0.75376 0.0
C2077 C 0.77768 0.6182 0.77695 0.0
C2078 C 0.80759 0.55726 0.75411 0.0
C2079 C 0.79117 0.64543 0.73748 0.0
C2080 C 0.85471 0.61948 0.69538 0.0
C2081 C 0.83587 0.60116 0.67709 0.0
C2082 C 0.84291 0.62106 0.71761 0.0
C2083 C 0.81159 0.60377 0.72158 0.0
C2084 C 0.79239 0.58616 0.70283 0.0
C2085 C 0.80483 0.58484 0.68087 0.0
C2086 C 0.8641 0.64002 0.73721 0.0
C2087 C 0.75887 0.56748 0.7063 0.0
H2088 H 0.78367 0.5588 0.79641 0.0
H2089 H 0.77003 0.63329 0.78287 0.0
H2090 H 0.79477 0.54436 0.7382 0.0
H2091 H 0.83162 0.56989 0.74896 0.0
H2092 H 0.80473 0.54119 0.76852 0.0
H2093 H 0.78278 0.65917 0.74625 0.0
H2094 H 0.8147 0.66042 0.73173 0.0
H2095 H 0.77776 0.6352 0.72108 0.0
H2096 H 0.87876 0.63199 0.69252 0.0
H2097 H 0.79028 0.57019 0.66692 0.0
H2098 H 0.8644 0.62527 0.75155 0.0
H2099 H 0.85634 0.65457 0.74539 0.0
H2100 H 0.88738 0.65436 0.73056 0.0
H2101 H 0.75375 0.54889 0.71892 0.0
H2102 H 0.74688 0.55771 0.68923 0.0
H2103 H 0.74998 0.58121 0.71425 0.0
C2104 C 0.22145 0.83816 0.71629 0.0
C2105 C 0.22391 0.81792 0.70096 0.0
C2106 C 0.21051 0.82978 0.73972 0.0
C2107 C 0.20134 0.80036 0.74773 0.0
C2108 C 0.20359 0.77984 0.73225 0.0
C2109 C 0.2151 0.78898 0.70917 0.0
C2110 C 0.20897 0.85239 0.75596 0.0
C2111 C 0.19375 0.74814 0.74003 0.0
C2112 C 0.19651 0.77915 0.81307 0.0
C2113 C 0.16557 0.76498 0.81718 0.0
C2114 C 0.20872 0.79246 0.79094 0.0
C2115 C 0.18932 0.79066 0.77226 0.0
C2116 C 0.15805 0.7768 0.77644 0.0
C2117 C 0.14654 0.76411 0.79891 0.0
C2118 C 0.24221 0.8073 0.78728 0.0
C2119 C 0.13664 0.77413 0.75687 0.0
H2120 H 0.22843 0.86065 0.7101 0.0
H2121 H 0.21692 0.77323 0.69747 0.0
H2122 H 0.1855 0.84391 0.76186 0.0
H2123 H 0.22257 0.8557 0.77227 0.0
H2124 H 0.21725 0.87445 0.74708 0.0
H2125 H 0.1964 0.7348 0.72561 0.0
H2126 H 0.20707 0.74845 0.75574 0.0
H2127 H 0.16986 0.73662 0.74559 0.0
H2128 H 0.21118 0.77921 0.82699 0.0
H2129 H 0.12254 0.75288 0.802 0.0
H2130 H 0.25096 0.82985 0.77923 0.0
H2131 H 0.24729 0.7938 0.77466 0.0
H2132 H 0.25437 0.80966 0.80429 0.0
H2133 H 0.14398 0.79637 0.74869 0.0
H2134 H 0.11331 0.76481 0.76353 0.0
H2135 H 0.13666 0.75927 0.74251 0.0
C2136 C 0.43714 0.22559 0.79893 0.0
C2137 C 0.4204 0.19452 0.80246 0.0
C2138 C 0.43718 0.23817 0.77672 0.0
C2139 C 0.42066 0.21906 0.7576 0.0
C2140 C 0.40272 0.18777 0.76139 0.0
C2141 C 0.40256 0.17589 0.78394 0.0
C2142 C 0.45593 0.27169 0.77346 0.0
C2143 C 0.38509 0.16667 0.74129 0.0
C2144 C 0.40656 0.24592 0.6986 0.0
C2145 C 0.42859 0.2454 0.68418 0.0
C2146 C 0.40464 0.23903 0.72304 0.0
C2147 C 0.42494 0.23103 0.733 0.0
C2148 C 0.44814 0.232 0.71879 0.0
C2149 C 0.44982 0.23941 0.69459 0.0
C2150 C 0.3801 0.23892 0.7379 0.0
C2151 C 0.47017 0.22349 0.72879 0.0
H2152 H 0.45049 0.24005 0.81347 0.0
H2153 H 0.3895 0.15187 0.78676 0.0
H2154 H 0.47602 0.27706 0.76255 0.0
H2155 H 0.44307 0.28038 0.76372 0.0
H2156 H 0.46356 0.28363 0.79083 0.0
H2157 H 0.37067 0.14326 0.74762 0.0
H2158 H 0.3707 0.17415 0.7324 0.0
H2159 H 0.4008 0.16684 0.7276 0.0
H2160 H 0.39026 0.25082 0.69068 0.0
H2161 H 0.46704 0.23912 0.68362 0.0
H2162 H 0.38918 0.25056 0.75518 0.0
H2163 H 0.36278 0.21547 0.74205 0.0
H2164 H 0.3691 0.24986 0.72848 0.0
H2165 H 0.48124 0.23689 0.74499 0.0
H2166 H 0.48779 0.2269 0.71563 0.0
H2167 H 0.45803 0.19954 0.73417 0.0
C2168 C 0.22419 0.37626 0.7827 0.0
C2169 C 0.22662 0.3994 0.79746 0.0
C2170 C 0.21193 0.37212 0.75959 0.0
C2171 C 0.20172 0.39143 0.75125 0.0
C2172 C 0.20357 0.41438 0.7663 0.0
C2173 C 0.216 0.41808 0.78916 0.0
C2174 C 0.21038 0.34749 0.74396 0.0
C2175 C 0.19282 0.43539 0.75811 0.0
C2176 C 0.19774 0.40676 0.68556 0.0
C2177 C 0.1668 0.39037 0.68131 0.0
C2178 C 0.20961 0.40589 0.7079 0.0
C2179 C 0.18995 0.38858 0.72655 0.0
C2180 C 0.15873 0.37118 0.72213 0.0
C2181 C 0.14749 0.37237 0.69952 0.0
C2182 C 0.24302 0.42478 0.71187 0.0
C2183 C 0.13708 0.35248 0.74159 0.0
H2184 H 0.23233 0.36172 0.789 0.0
H2185 H 0.21746 0.43578 0.80055 0.0
H2186 H 0.18701 0.33264 0.7378 0.0
H2187 H 0.22441 0.35736 0.72777 0.0
H2188 H 0.21822 0.33369 0.75341 0.0
H2189 H 0.19513 0.45156 0.77225 0.0
H2190 H 0.20586 0.44821 0.74223 0.0
H2191 H 0.16892 0.4224 0.75268 0.0
H2192 H 0.21265 0.42125 0.67169 0.0
H2193 H 0.12352 0.3598 0.69629 0.0
H2194 H 0.25182 0.41126 0.72035 0.0
H2195 H 0.24771 0.44348 0.72423 0.0
H2196 H 0.25544 0.43441 0.69492 0.0
H2197 H 0.14478 0.33823 0.75042 0.0
H2198 H 0.11401 0.33786 0.73462 0.0
H2199 H 0.13624 0.36741 0.75549 0.0
C2200 C 0.80942 0.22775 0.81897 0.0
C2201 C 0.8405 0.24201 0.82233 0.0
C2202 C 0.79648 0.21469 0.79698 0.0
C2203 C 0.81522 0.21654 0.77777 0.0
C2204 C 0.84666 0.23067 0.78113 0.0
C2205 C 0.85897 0.24336 0.80343 0.0
C2206 C 0.76286 0.19983 0.79412 0.0
C2207 C 0.86733 0.23314 0.76098 0.0
C2208 C 0.77964 0.16631 0.72378 0.0
C2209 C 0.77631 0.18577 0.70816 0.0
C2210 C 0.79233 0.17598 0.74657 0.0
C2211 C 0.80211 0.20583 0.75369 0.0
C2212 C 0.79898 0.22559 0.73793 0.0
C2213 C 0.78604 0.21529 0.7154 0.0
C2214 C 0.79508 0.15425 0.76307 0.0
C2215 C 0.80922 0.25763 0.74489 0.0
H2216 H 0.79522 0.22741 0.83339 0.0
H2217 H 0.88307 0.25461 0.806 0.0
H2218 H 0.75735 0.21271 0.78119 0.0
H2219 H 0.75374 0.17689 0.78679 0.0
H2220 H 0.75135 0.19835 0.81131 0.0
H2221 H 0.89101 0.2431 0.76694 0.0
H2222 H 0.86001 0.2107 0.75324 0.0
H2223 H 0.86629 0.2473 0.74648 0.0
H2224 H 0.77213 0.14345 0.7183 0.0
H2225 H 0.78376 0.23054 0.70337 0.0
H2226 H 0.78209 0.1513 0.77968 0.0
H2227 H 0.81884 0.16334 0.76837 0.0
H2228 H 0.7868 0.13192 0.75469 0.0
H2229 H 0.79695 0.25805 0.76107 0.0
H2230 H 0.80553 0.27021 0.7304 0.0
H2231 H 0.83345 0.26947 0.74941 0.0
C2232 C 0.51773 0.06605 0.07678 0.0
C2233 C 0.50148 0.0721 0.09387 0.0
C2234 C 0.518 0.03898 0.0771 0.0
C2235 C 0.50149 0.01741 0.09488 0.0
C2236 C 0.48408 0.02286 0.1116 0.0
C2237 C 0.48431 0.05018 0.11091 0.0
C2238 C 0.53666 0.03386 0.0589 0.0
C2239 C 0.46601 1.00024 0.13072 0.0
C2240 C 0.48126 0.93627 0.08828 0.0
C2241 C 0.50169 0.93471 0.104 0.0
C2242 C 0.4816 0.96332 0.08446 0.0
C2243 C 0.50301 0.98943 0.09654 0.0
C2244 C 0.52476 0.98837 0.1114 0.0
C2245 C 0.52383 0.96095 0.11497 0.0
C2246 C 0.4582 0.96362 0.06834 0.0
C2247 C 0.54812 0.01587 0.12442 0.0
H2248 H 0.53073 0.08281 0.06338 0.0
H2249 H 0.472 0.05486 0.12432 0.0
H2250 H 0.55488 0.03221 0.06811 0.0
H2251 H 0.52269 0.01234 0.04941 0.0
H2252 H 0.5469 0.05218 0.04548 0.0
H2253 H 0.45261 0.00733 0.14165 0.0
H2254 H 0.45055 0.97821 0.12248 0.0
H2255 H 0.48127 0.99698 0.14278 0.0
H2256 H 0.46442 0.91608 0.07946 0.0
H2257 H 0.53954 0.95979 0.12723 0.0
H2258 H 0.46895 0.98191 0.05497 0.0
H2259 H 0.44273 0.96804 0.07915 0.0
H2260 H 0.44476 0.94204 0.05875 0.0
H2261 H 0.5601 0.03477 0.11174 0.0
H2262 H 0.56486 0.01184 0.13373 0.0
H2263 H 0.537 0.02289 0.13788 0.0
C2264 C 0.56301 0.5115 0.08423 0.0
C2265 C 0.56664 0.49435 0.102 0.0
C2266 C 0.53674 0.51333 0.08301 0.0
C2267 C 0.51348 0.49737 0.0998 0.0
C2268 C 0.51703 0.48012 0.11781 0.0
C2269 C 0.54367 0.47908 0.11884 0.0
C2270 C 0.53385 0.53229 0.06375 0.0
C2271 C 0.49265 0.46272 0.13597 0.0
C2272 C 0.45819 0.52405 0.11136 0.0
C2273 C 0.43383 0.50464 0.09691 0.0
C2274 C 0.48424 0.52196 0.11238 0.0
C2275 C 0.48578 0.49948 0.09902 0.0
C2276 C 0.46095 0.47913 0.08501 0.0
C2277 C 0.43526 0.48205 0.08403 0.0
C2278 C 0.51029 0.54411 0.12748 0.0
C2279 C 0.4617 0.45457 0.07084 0.0
H2280 H 0.58048 0.52306 0.07099 0.0
H2281 H 0.54652 0.46624 0.13292 0.0
H2282 H 0.51406 0.51819 0.05236 0.0
H2283 H 0.53014 0.54976 0.07201 0.0
H2284 H 0.55406 0.54344 0.05216 0.0
H2285 H 0.49855 0.44955 0.14832 0.0
H2286 H 0.48839 0.4783 0.14673 0.0
H2287 H 0.47139 0.44713 0.12673 0.0
H2288 H 0.45696 0.54112 0.12183 0.0
H2289 H 0.41661 0.4671 0.07273 0.0
H2290 H 0.5305 0.55672 0.11611 0.0
H2291 H 0.5158 0.53207 0.14122 0.0
H2292 H 0.50552 0.56042 0.13664 0.0
H2293 H 0.47988 0.46454 0.05731 0.0
H2294 H 0.44014 0.43994 0.06153 0.0
H2295 H 0.46672 0.44048 0.08285 0.0
C2296 C 0.92148 0.45968 0.14196 0.0
C2297 C 0.92287 0.43449 0.13411 0.0
C2298 C 0.94729 0.48806 0.14325 0.0
C2299 C 0.97535 0.49142 0.1367 0.0
C2300 C 0.97701 0.46609 0.1289 0.0
C2301 C 0.95074 0.43788 0.12776 0.0
C2302 C 0.94456 0.51439 0.15185 0.0
C2303 C 0.00656 0.4688 0.12174 0.0
C2304 C 0.0408 0.56843 0.12084 0.0
C2305 C 0.05806 0.57558 0.14169 0.0
C2306 C 0.01334 0.54138 0.11912 0.0
C2307 C 0.00311 0.52124 0.13876 0.0
C2308 C 0.01997 0.52917 0.16022 0.0
C2309 C 0.04737 0.55618 0.16135 0.0
C2310 C 0.99599 0.53374 0.09596 0.0
C2311 C 0.00974 0.50854 0.18165 0.0
H2312 H 0.9001 0.45715 0.14736 0.0
H2313 H 0.95192 0.41855 0.12157 0.0
H2314 H 0.9578 0.52362 0.16848 0.0
H2315 H 0.95392 0.53256 0.13829 0.0
H2316 H 0.92093 0.50819 0.1555 0.0
H2317 H 0.00399 0.4471 0.11569 0.0
H2318 H 0.01693 0.48542 0.10709 0.0
H2319 H 0.02232 0.47709 0.13709 0.0
H2320 H 0.04949 0.58329 0.10552 0.0
H2321 H 0.06109 0.56168 0.17732 0.0
H2322 H 0.9724 0.52771 0.09939 0.0
H2323 H 0.99552 0.51391 0.08772 0.0
H2324 H 0.00599 0.55256 0.08295 0.0
H2325 H 0.98643 0.50228 0.18654 0.0
H2326 H 0.02442 0.5189 0.19746 0.0
H2327 H 0.0097 0.48754 0.17716 0.0
C2328 C 0.0767 0.53215 0.3588 0.0
C2329 C 0.07601 0.50723 0.36967 0.0
C2330 C 0.0505 0.53382 0.35602 0.0
C2331 C 0.02286 0.51002 0.36437 0.0
C2332 C 0.02197 0.48472 0.37531 0.0
C2333 C 0.04857 0.48354 0.37768 0.0
C2334 C 0.05237 0.56091 0.34389 0.0
C2335 C 0.99292 0.45896 0.38455 0.0
C2336 C 0.95752 0.52361 0.37529 0.0
C2337 C 0.93966 0.50988 0.35519 0.0
C2338 C 0.98496 0.52423 0.37841 0.0
C2339 C 0.99472 0.5111 0.36086 0.0
C2340 C 0.97727 0.49844 0.34002 0.0
C2341 C 0.94986 0.4978 0.33754 0.0
C2342 C 0.0029 0.53783 0.40089 0.0
C2343 C 0.98709 0.48471 0.32068 0.0
H2344 H 0.09783 0.55032 0.35223 0.0
H2345 H 0.04803 0.46434 0.38616 0.0
H2346 H 0.03833 0.55389 0.3275 0.0
H2347 H 0.04341 0.57175 0.35587 0.0
H2348 H 0.07572 0.57777 0.33884 0.0
H2349 H 0.99615 0.44137 0.39321 0.0
H2350 H 0.98265 0.46729 0.39771 0.0
H2351 H 0.97675 0.44864 0.36961 0.0
H2352 H 0.94935 0.53255 0.38905 0.0
H2353 H 0.93586 0.48707 0.32205 0.0
H2354 H 0.02621 0.55515 0.39631 0.0
H2355 H 0.00419 0.52025 0.41143 0.0
H2356 H 0.99288 0.5482 0.41231 0.0
H2357 H 0.01009 0.50106 0.31456 0.0
H2358 H 0.97181 0.47738 0.30499 0.0
H2359 H 0.98776 0.46501 0.32793 0.0
C2360 C 0.54214 0.05831 0.42847 0.0
C2361 C 0.56551 0.06387 0.41263 0.0
C2362 C 0.51656 0.02982 0.43011 0.0
C2363 C 0.51439 0.00633 0.41561 0.0
C2364 C 0.5386 0.01138 0.40052 0.0
C2365 C 0.56393 0.04016 0.39921 0.0
C2366 C 0.49134 0.02522 0.44659 0.0
C2367 C 0.53717 0.98677 0.38492 0.0
C2368 C 0.45623 0.9257 0.42948 0.0
C2369 C 0.43385 0.92018 0.4126 0.0
C2370 C 0.48239 0.95378 0.43094 0.0
C2371 C 0.48617 0.97693 0.41522 0.0
C2372 C 0.46322 0.97184 0.3987 0.0
C2373 C 0.43731 0.94348 0.39758 0.0
C2374 C 0.50627 0.95846 0.4489 0.0
C2375 C 0.46639 0.99611 0.38176 0.0
H2376 H 0.54351 0.07656 0.43911 0.0
H2377 H 0.58184 0.04442 0.38681 0.0
H2378 H 0.48473 0.00548 0.45827 0.0
H2379 H 0.49754 0.0451 0.45804 0.0
H2380 H 0.47137 0.02064 0.43583 0.0
H2381 H 0.55872 0.99374 0.37557 0.0
H2382 H 0.53131 0.96657 0.39581 0.0
H2383 H 0.51928 0.98028 0.3713 0.0
H2384 H 0.45343 0.90786 0.44138 0.0
H2385 H 0.42023 0.93926 0.38436 0.0
H2386 H 0.51168 0.97807 0.4604 0.0
H2387 H 0.52718 0.96337 0.43942 0.0
H2388 H 0.49929 0.93854 0.46052 0.0
H2389 H 0.47086 0.01641 0.39194 0.0
H2390 H 0.44602 0.98888 0.37065 0.0
H2391 H 0.48583 0.00258 0.36971 0.0
C2392 C 0.53503 0.46662 0.33994 0.0
C2393 C 0.51526 0.44109 0.35311 0.0
C2394 C 0.53466 0.49349 0.34225 0.0
C2395 C 0.51401 0.49489 0.35813 0.0
C2396 C 0.49429 0.46934 0.37179 0.0
C2397 C 0.49503 0.44262 0.369 0.0
C2398 C 0.55574 0.52009 0.32711 0.0
C2399 C 0.47208 0.47011 0.38899 0.0
C2400 C 0.52728 0.57237 0.37423 0.0
C2401 C 0.50729 0.57483 0.35868 0.0
C2402 C 0.52942 0.5462 0.37461 0.0
C2403 C 0.51142 0.52232 0.35885 0.0
C2404 C 0.49149 0.52496 0.34294 0.0
C2405 C 0.48966 0.55114 0.34309 0.0
C2406 C 0.55083 0.54405 0.39186 0.0
C2407 C 0.47229 0.50023 0.32558 0.0
H2408 H 0.55044 0.46539 0.32739 0.0
H2409 H 0.47993 0.42297 0.37934 0.0
H2410 H 0.54262 0.52564 0.31446 0.0
H2411 H 0.56891 0.54006 0.33855 0.0
H2412 H 0.57159 0.51581 0.31666 0.0
H2413 H 0.45985 0.44907 0.39952 0.0
H2414 H 0.48378 0.48922 0.40154 0.0
H2415 H 0.45546 0.47358 0.37896 0.0
H2416 H 0.54082 0.59066 0.38633 0.0
H2417 H 0.47454 0.55324 0.33076 0.0
H2418 H 0.5678 0.54114 0.38184 0.0
H2419 H 0.53845 0.52406 0.40348 0.0
H2420 H 0.56265 0.56425 0.40336 0.0
H2421 H 0.48678 0.49595 0.31342 0.0
H2422 H 0.45773 0.50576 0.31457 0.0
H2423 H 0.45782 0.47912 0.33543 0.0
C2424 C 0.48523 0.04737 0.87866 0.0
C2425 C 0.50854 0.07347 0.86843 0.0
C2426 C 0.48498 0.01997 0.87707 0.0
C2427 C 0.50837 0.01867 0.86467 0.0
C2428 C 0.53156 0.04489 0.85386 0.0
C2429 C 0.53139 0.07193 0.85593 0.0
C2430 C 0.45993 0.99249 0.8889 0.0
C2431 C 0.55659 0.04442 0.84012 0.0
C2432 C 0.52248 0.95401 0.87741 0.0
C2433 C 0.50645 0.93422 0.85883 0.0
C2434 C 0.52341 0.9817 0.87953 0.0
C2435 C 0.50829 0.98978 0.86247 0.0
C2436 C 0.49304 0.97025 0.84318 0.0
C2437 C 0.49218 0.94266 0.84169 0.0
C2438 C 0.53981 0.00189 0.90039 0.0
C2439 C 0.47714 0.97822 0.82436 0.0
H2440 H 0.46767 0.04858 0.88844 0.0
H2441 H 0.54927 0.09205 0.84775 0.0
H2442 H 0.44772 0.9747 0.87538 0.0
H2443 H 0.46937 0.98346 0.90221 0.0
H2444 H 0.44364 0.99728 0.89808 0.0
H2445 H 0.57285 0.06675 0.83268 0.0
H2446 H 0.56887 0.0369 0.85194 0.0
H2447 H 0.54714 0.02814 0.82516 0.0
H2448 H 0.53324 0.9473 0.89078 0.0
H2449 H 0.47984 0.92732 0.82727 0.0
H2450 H 0.52383 0.00518 0.91152 0.0
H2451 H 0.55711 0.02429 0.89385 0.0
H2452 H 0.55085 0.9926 0.91186 0.0
H2453 H 0.45889 0.98058 0.83273 0.0
H2454 H 0.4673 0.96105 0.81002 0.0
H2455 H 0.493 1.00011 0.81608 0.0
C2456 C 0.43668 0.48366 0.87998 0.0
C2457 C 0.43416 0.50234 0.86308 0.0
C2458 C 0.46334 0.48252 0.88193 0.0
C2459 C 0.48766 0.50015 0.86637 0.0
C2460 C 0.48494 0.5187 0.84908 0.0
C2461 C 0.45827 0.5196 0.84769 0.0
C2462 C 0.46556 0.46257 0.90062 0.0
C2463 C 0.5101 0.5374 0.83185 0.0
C2464 C 0.56743 0.51818 0.8798 0.0
C2465 C 0.5696 0.49695 0.8656 0.0
C2466 C 0.54051 0.51893 0.88086 0.0
C2467 C 0.5155 0.49823 0.86715 0.0
C2468 C 0.51768 0.47682 0.85277 0.0
C2469 C 0.54467 0.47646 0.85219 0.0
C2470 C 0.53889 0.542 0.89644 0.0
C2471 C 0.49174 0.45472 0.83755 0.0
H2472 H 0.41807 0.47046 0.89195 0.0
H2473 H 0.45615 0.53378 0.83441 0.0
H2474 H 0.46921 0.44533 0.89187 0.0
H2475 H 0.48515 0.47601 0.91239 0.0
H2476 H 0.44505 0.45109 0.91187 0.0
H2477 H 0.50448 0.55096 0.81969 0.0
H2478 H 0.53076 0.55278 0.84186 0.0
H2479 H 0.51527 0.52264 0.82082 0.0
H2480 H 0.58665 0.53392 0.89025 0.0
H2481 H 0.54645 0.46033 0.84087 0.0
H2482 H 0.51957 0.53086 0.90889 0.0
H2483 H 0.53519 0.55758 0.88516 0.0
H2484 H 0.55969 0.5553 0.90705 0.0
H2485 H 0.47149 0.44171 0.84879 0.0
H2486 H 0.49677 0.43877 0.8281 0.0
H2487 H 0.48616 0.46695 0.82403 0.0
C2488 C 0.06819 0.55308 0.93568 0.0
C2489 C 0.07039 0.57316 0.91778 0.0
C2490 C 0.04111 0.52641 0.93977 0.0
C2491 C 0.01592 0.51964 0.92534 0.0
C2492 C 0.01746 0.54094 0.90851 0.0
C2493 C 0.04471 0.56758 0.90502 0.0
C2494 C 0.0401 0.50463 0.95832 0.0
C2495 C 0.99106 0.53457 0.89277 0.0
C2496 C 0.96123 0.44005 0.90672 0.0
C2497 C 0.93527 0.43478 0.91889 0.0
C2498 C 0.98823 0.46707 0.90974 0.0
C2499 C 0.98925 0.48908 0.92553 0.0
C2500 C 0.96372 0.48281 0.93932 0.0
C2501 C 0.93689 0.45575 0.93569 0.0
C2502 C 0.015 0.47291 0.89469 0.0
C2503 C 0.96417 0.50539 0.95676 0.0
H2504 H 0.08806 0.55758 0.9457 0.0
H2505 H 0.04645 0.58299 0.89106 0.0
H2506 H 0.01899 0.49508 0.9688 0.0
H2507 H 0.04067 0.48575 0.94928 0.0
H2508 H 0.05944 0.51538 0.97082 0.0
H2509 H 0.99508 0.55448 0.88216 0.0
H2510 H 0.9866 0.5161 0.88022 0.0
H2511 H 0.97057 0.52714 0.90372 0.0
H2512 H 0.95992 0.42394 0.8936 0.0
H2513 H 0.9168 0.45148 0.94527 0.0
H2514 H 0.0352 0.48069 0.90606 0.0
H2515 H 0.01981 0.49096 0.88158 0.0
H2516 H 0.01123 0.45265 0.88473 0.0
H2517 H 0.985 0.51549 0.96762 0.0
H2518 H 0.94451 0.49517 0.96898 0.0
H2519 H 0.9638 0.5238 0.94675 0.0
C2520 C 0.95832 0.51628 0.60389 0.0
C2521 C 0.9321 0.49535 0.59215 0.0
C2522 C 0.98489 0.51505 0.60178 0.0
C2523 C 0.98517 0.49244 0.58752 0.0
C2524 C 0.95922 0.47236 0.57454 0.0
C2525 C 0.93299 0.47406 0.57701 0.0
C2526 C 0.01222 0.53704 0.61575 0.0
C2527 C 0.95872 0.44822 0.5589 0.0
C2528 C 0.06232 0.50484 0.57219 0.0
C2529 C 0.06663 0.48849 0.59031 0.0
C2530 C 0.0354 0.50531 0.57039 0.0
C2531 C 0.01223 0.48904 0.58712 0.0
C2532 C 0.01572 0.47093 0.60449 0.0
C2533 C 0.04293 0.47083 0.60585 0.0
C2534 C 0.03243 0.52455 0.55142 0.0
C2535 C 0.99138 0.45302 0.62251 0.0
H2536 H 0.95763 0.53257 0.61575 0.0
H2537 H 0.91277 0.45802 0.56773 0.0
H2538 H 0.01759 0.52485 0.62947 0.0
H2539 H 0.03194 0.54846 0.60373 0.0
H2540 H 0.00889 0.55432 0.62486 0.0
H2541 H 0.93769 0.4362 0.54833 0.0
H2542 H 0.97806 0.458 0.5464 0.0
H2543 H 0.96083 0.43167 0.57021 0.0
H2544 H 0.0806 0.51833 0.56002 0.0
H2545 H 0.0463 0.45838 0.61997 0.0
H2546 H 0.03234 0.54392 0.56 0.0
H2547 H 0.01088 0.51166 0.5417 0.0
H2548 H 0.05111 0.53322 0.53827 0.0
H2549 H 0.98845 0.46851 0.63453 0.0
H2550 H 0.99663 0.43833 0.6336 0.0
H2551 H 0.96965 0.43889 0.61331 0.0
C2552 C 0.54659 0.08873 0.62928 0.0
C2553 C 0.57179 0.08548 0.6253 0.0
C2554 C 0.51756 0.06374 0.63025 0.0
C2555 C 0.51357 0.03468 0.62751 0.0
C2556 C 0.53886 0.03117 0.62365 0.0
C2557 C 0.56765 0.0566 0.62252 0.0
C2558 C 0.49119 0.06844 0.63437 0.0
C2559 C 0.53552 1.00049 0.62078 0.0
C2560 C 0.44471 0.96648 0.65255 0.0
C2561 C 0.42837 0.95324 0.63171 0.0
C2562 C 0.47198 0.99366 0.65157 0.0
C2563 C 0.48304 0.00783 0.62918 0.0
C2564 C 0.46571 0.99523 0.60824 0.0
C2565 C 0.43861 0.96785 0.60974 0.0
C2566 C 0.4898 0.00624 0.67429 0.0
C2567 C 0.47653 0.00983 0.58409 0.0
H2568 H 0.54956 0.11089 0.63199 0.0
H2569 H 0.58692 0.0539 0.61926 0.0
H2570 H 0.47448 0.05772 0.61982 0.0
H2571 H 0.47983 0.0576 0.65138 0.0
H2572 H 0.49798 0.09257 0.63521 0.0
H2573 H 0.55741 0.00158 0.61793 0.0
H2574 H 0.52475 0.98675 0.63693 0.0
H2575 H 0.52071 0.98875 0.60535 0.0
H2576 H 0.43693 0.95468 0.66943 0.0
H2577 H 0.42611 0.95715 0.59362 0.0
H2578 H 0.49645 0.03019 0.67635 0.0
H2579 H 0.51072 0.00506 0.67335 0.0
H2580 H 0.47702 0.99382 0.69042 0.0
H2581 H 0.48318 0.03389 0.58497 0.0
H2582 H 0.45916 0.99882 0.57001 0.0
H2583 H 0.49668 0.00866 0.57877 0.0
C2584 C 0.46478 0.41337 0.58871 0.0
C2585 C 0.4816 0.4129 0.60831 0.0
C2586 C 0.45919 0.43715 0.58547 0.0
C2587 C 0.471 0.46106 0.60208 0.0
C2588 C 0.48669 0.45994 0.62249 0.0
C2589 C 0.49163 0.43577 0.62542 0.0
C2590 C 0.44192 0.43738 0.56373 0.0
C2591 C 0.49951 0.48496 0.64069 0.0
C2592 C 0.49435 0.54067 0.58485 0.0
C2593 C 0.4728 0.54482 0.59685 0.0
C2594 C 0.49296 0.5128 0.58511 0.0
C2595 C 0.46923 0.48848 0.59743 0.0
C2596 C 0.44604 0.49185 0.60783 0.0
C2597 C 0.4482 0.52007 0.60757 0.0
C2598 C 0.51806 0.51003 0.57369 0.0
C2599 C 0.42008 0.46628 0.62074 0.0
H2600 H 0.45712 0.39584 0.57533 0.0
H2601 H 0.50411 0.43517 0.64083 0.0
H2602 H 0.42471 0.44334 0.56878 0.0
H2603 H 0.45747 0.45463 0.55093 0.0
H2604 H 0.4307 0.41535 0.55447 0.0
H2605 H 0.50987 0.47994 0.65613 0.0
H2606 H 0.51686 0.50597 0.63211 0.0
H2607 H 0.48168 0.48914 0.6475 0.0
H2608 H 0.51307 0.55958 0.57614 0.0
H2609 H 0.43152 0.52308 0.61706 0.0
H2610 H 0.50886 0.48992 0.56207 0.0
H2611 H 0.5316 0.50725 0.58784 0.0
H2612 H 0.53316 0.53005 0.56282 0.0
H2613 H 0.40147 0.4709 0.624 0.0
H2614 H 0.42788 0.46266 0.63827 0.0
H2615 H 0.41128 0.44516 0.61039 0.0
C2616 C 0.70075 0.23096 0.13098 0.0
C2617 C 0.72342 0.25576 0.11878 0.0
C2618 C 0.67043 0.22129 0.12693 0.0
C2619 C 0.66242 0.23731 0.11076 0.0
C2620 C 0.6852 0.26401 0.10009 0.0
C2621 C 0.71552 0.27268 0.10392 0.0
C2622 C 0.647 0.19251 0.13857 0.0
C2623 C 0.67775 0.28253 0.08357 0.0
C2624 C 0.59006 0.18315 0.08026 0.0
C2625 C 0.56884 0.18282 0.0962 0.0
C2626 C 0.62081 0.20283 0.08354 0.0
C2627 C 0.63059 0.22333 0.10286 0.0
C2628 C 0.60914 0.22577 0.11709 0.0
C2629 C 0.57843 0.20521 0.11379 0.0
C2630 C 0.64282 0.19954 0.06776 0.0
C2631 C 0.61872 0.24852 0.13698 0.0
H2632 H 0.70655 0.21781 0.14263 0.0
H2633 H 0.73293 0.29215 0.0947 0.0
H2634 H 0.6302 0.19613 0.14812 0.0
H2635 H 0.63491 0.17527 0.12462 0.0
H2636 H 0.65692 0.18353 0.15152 0.0
H2637 H 0.69607 0.30631 0.08334 0.0
H2638 H 0.67502 0.27369 0.0651 0.0
H2639 H 0.65653 0.28163 0.08884 0.0
H2640 H 0.58272 0.16661 0.06608 0.0
H2641 H 0.56223 0.20545 0.12604 0.0
H2642 H 0.65448 0.19023 0.07842 0.0
H2643 H 0.66013 0.2217 0.06085 0.0
H2644 H 0.63166 0.18443 0.05232 0.0
H2645 H 0.62785 0.24155 0.15207 0.0
H2646 H 0.59969 0.25085 0.14374 0.0
H2647 H 0.63679 0.27072 0.13071 0.0
C2648 C 0.38435 0.58539 0.11153 0.0
C2649 C 0.39475 0.57511 0.09266 0.0
C2650 C 0.39781 0.61624 0.11644 0.0
C2651 C 0.4223 0.63694 0.10226 0.0
C2652 C 0.43039 0.62672 0.08158 0.0
C2653 C 0.41639 0.59592 0.07699 0.0
C2654 C 0.38782 0.62625 0.13819 0.0
C2655 C 0.45623 0.6479 0.06584 0.0
C2656 C 0.46552 0.72184 0.10821 0.0
C2657 C 0.49064 0.72611 0.12133 0.0
C2658 C 0.44171 0.69281 0.10326 0.0
C2659 C 0.44335 0.66762 0.11136 0.0
C2660 C 0.4677 0.67192 0.12596 0.0
C2661 C 0.49086 0.70105 0.13089 0.0
C2662 C 0.41565 0.68911 0.08834 0.0
C2663 C 0.4704 0.64573 0.13507 0.0
H2664 H 0.36754 0.56933 0.12365 0.0
H2665 H 0.42412 0.58791 0.06219 0.0
H2666 H 0.40262 0.62875 0.15349 0.0
H2667 H 0.38938 0.64827 0.13511 0.0
H2668 H 0.3644 0.60959 0.14325 0.0
H2669 H 0.45696 0.63712 0.04883 0.0
H2670 H 0.45473 0.66812 0.06154 0.0
H2671 H 0.47766 0.6554 0.07551 0.0
H2672 H 0.46494 0.74109 0.10103 0.0
H2673 H 0.50994 0.70407 0.14131 0.0
H2674 H 0.39409 0.67188 0.09629 0.0
H2675 H 0.41712 0.68131 0.07017 0.0
H2676 H 0.41538 0.71046 0.08659 0.0
H2677 H 0.44966 0.62958 0.14463 0.0
H2678 H 0.48975 0.65286 0.14738 0.0
H2679 H 0.47328 0.63371 0.11974 0.0
C2680 C 0.79912 0.4885 0.12983 0.0
C2681 C 0.77291 0.48811 0.12253 0.0
C2682 C 0.80154 0.46267 0.12873 0.0
C2683 C 0.77702 0.43554 0.12017 0.0
C2684 C 0.75008 0.43465 0.11343 0.0
C2685 C 0.7483 0.46102 0.11474 0.0
C2686 C 0.83082 0.46476 0.13615 0.0
C2687 C 0.72332 0.40605 0.10467 0.0
C2688 C 0.81242 0.3924 0.09788 0.0
C2689 C 0.81397 0.37921 0.11935 0.0
C2690 C 0.79601 0.40735 0.09656 0.0
C2691 C 0.78111 0.40912 0.11726 0.0
C2692 C 0.77836 0.39133 0.13747 0.0
C2693 C 0.79496 0.37649 0.1383 0.0
C2694 C 0.79879 0.4252 0.07434 0.0
C2695 C 0.76185 0.39174 0.15962 0.0
H2696 H 0.81814 0.50923 0.13606 0.0
H2697 H 0.72785 0.4605 0.10927 0.0
H2698 H 0.82676 0.44815 0.15039 0.0
H2699 H 0.84095 0.45954 0.12069 0.0
H2700 H 0.84737 0.48738 0.14292 0.0
H2701 H 0.70519 0.4098 0.09783 0.0
H2702 H 0.73002 0.39576 0.09028 0.0
H2703 H 0.71414 0.38963 0.11955 0.0
H2704 H 0.82685 0.39407 0.08311 0.0
H2705 H 0.79595 0.36606 0.15486 0.0
H2706 H 0.81671 0.44882 0.07708 0.0
H2707 H 0.7776 0.42514 0.07059 0.0
H2708 H 0.80481 0.41631 0.05847 0.0
H2709 H 0.77677 0.41183 0.17043 0.0
H2710 H 0.75515 0.37156 0.17084 0.0
H2711 H 0.74155 0.39298 0.15496 0.0
C2712 C 0.29455 0.76437 0.11126 0.0
C2713 C 0.27664 0.74852 0.1309 0.0
C2714 C 0.32549 0.77514 0.11126 0.0
C2715 C 0.33886 0.7695 0.13123 0.0
C2716 C 0.32046 0.7507 0.14989 0.0
C2717 C 0.2895 0.74061 0.14964 0.0
C2718 C 0.34418 0.79493 0.09086 0.0
C2719 C 0.3337 0.74306 0.17096 0.0
C2720 C 0.42209 0.80031 0.12094 0.0
C2721 C 0.4338 0.82945 0.13002 0.0
C2722 C 0.39135 0.77919 0.12312 0.0
C2723 C 0.37199 0.78772 0.13421 0.0
C2724 C 0.38423 0.81626 0.14514 0.0
C2725 C 0.41499 0.83657 0.14315 0.0
C2726 C 0.37946 0.74861 0.11207 0.0
C2727 C 0.36455 0.82639 0.15723 0.0
H2728 H 0.28478 0.77011 0.09644 0.0
H2729 H 0.27577 0.72792 0.16472 0.0
H2730 H 0.35817 0.8183 0.09735 0.0
H2731 H 0.35958 0.78744 0.08403 0.0
H2732 H 0.33016 0.79499 0.07577 0.0
H2733 H 0.31641 0.72301 0.18069 0.0
H2734 H 0.35191 0.73888 0.16513 0.0
H2735 H 0.34356 0.76219 0.18362 0.0
H2736 H 0.43654 0.79452 0.11095 0.0
H2737 H 0.42413 0.85874 0.15088 0.0
H2738 H 0.37173 0.74886 0.09359 0.0
H2739 H 0.36012 0.73117 0.12232 0.0
H2740 H 0.39717 0.74231 0.11108 0.0
H2741 H 0.34988 0.82845 0.14371 0.0
H2742 H 0.37782 0.84838 0.16631 0.0
H2743 H 0.34979 0.80962 0.17064 0.0
C2744 C 0.594 0.41444 0.1343 0.0
C2745 C 0.61119 0.42931 0.11414 0.0
C2746 C 0.58085 0.38335 0.13664 0.0
C2747 C 0.58522 0.36685 0.1184 0.0
C2748 C 0.60605 0.38231 0.09981 0.0
C2749 C 0.61872 0.41356 0.09776 0.0
C2750 C 0.55926 0.36796 0.15703 0.0
C2751 C 0.6125 0.36565 0.08071 0.0
C2752 C 0.54085 0.28309 0.13038 0.0
C2753 C 0.51337 0.27575 0.1196 0.0
C2754 C 0.56572 0.31225 0.12852 0.0
C2755 C 0.56273 0.33446 0.11589 0.0
C2756 C 0.53575 0.32642 0.10348 0.0
C2757 C 0.51154 0.29719 0.10539 0.0
C2758 C 0.59439 0.31958 0.1413 0.0
C2759 C 0.53153 0.34925 0.08959 0.0
H2760 H 0.58871 0.42685 0.1472 0.0
H2761 H 0.63234 0.42514 0.08231 0.0
H2762 H 0.53591 0.35691 0.15015 0.0
H2763 H 0.56292 0.35035 0.16504 0.0
H2764 H 0.56153 0.38398 0.17129 0.0
H2765 H 0.61252 0.34573 0.08825 0.0
H2766 H 0.59476 0.35774 0.06682 0.0
H2767 H 0.63445 0.38034 0.07194 0.0
H2768 H 0.54264 0.2665 0.14109 0.0
H2769 H 0.49062 0.29159 0.09657 0.0
H2770 H 0.59429 0.32839 0.15938 0.0
H2771 H 0.61437 0.33693 0.13158 0.0
H2772 H 0.59654 0.2993 0.14351 0.0
H2773 H 0.53214 0.36634 0.10203 0.0
H2774 H 0.50988 0.33892 0.07976 0.0
H2775 H 0.54999 0.36105 0.0765 0.0
C2776 C 0.16273 0.58389 0.15794 0.0
C2777 C 0.16514 0.60535 0.14138 0.0
C2778 C 0.17936 0.5694 0.15515 0.0
C2779 C 0.19872 0.57652 0.13521 0.0
C2780 C 0.20339 0.60026 0.11973 0.0
C2781 C 0.18642 0.6145 0.12302 0.0
C2782 C 0.17395 0.54448 0.17227 0.0
C2783 C 0.22422 0.60883 0.09853 0.0
C2784 C 0.24165 0.53449 0.13599 0.0
C2785 C 0.22115 0.50793 0.12432 0.0
C2786 C 0.23592 0.55835 0.13822 0.0
C2787 C 0.2092 0.55541 0.12847 0.0
C2788 C 0.18975 0.52959 0.11504 0.0
C2789 C 0.19591 0.50613 0.11322 0.0
C2790 C 0.25735 0.58567 0.15242 0.0
C2791 C 0.1612 0.52571 0.10402 0.0
H2792 H 0.14645 0.57719 0.17231 0.0
H2793 H 0.18827 0.63124 0.11029 0.0
H2794 H 0.16081 0.52255 0.16312 0.0
H2795 H 0.19552 0.54653 0.17802 0.0
H2796 H 0.16134 0.54442 0.18842 0.0
H2797 H 0.23062 0.63155 0.09178 0.0
H2798 H 0.24487 0.60821 0.10315 0.0
H2799 H 0.21279 0.59252 0.08386 0.0
H2800 H 0.26133 0.53605 0.14446 0.0
H2801 H 0.18031 0.48586 0.10378 0.0
H2802 H 0.24807 0.58419 0.17061 0.0
H2803 H 0.26023 0.60643 0.14397 0.0
H2804 H 0.27969 0.58747 0.15425 0.0
H2805 H 0.14513 0.52294 0.1184 0.0
H2806 H 0.15026 0.50585 0.09208 0.0
H2807 H 0.16588 0.54588 0.09354 0.0
C2808 C 0.80919 0.42301 0.36785 0.0
C2809 C 0.83165 0.43538 0.35036 0.0
C2810 C 0.79176 0.39174 0.37061 0.0
C2811 C 0.79721 0.37283 0.35556 0.0
C2812 C 0.81754 0.38535 0.33622 0.0
C2813 C 0.83458 0.41652 0.3339 0.0
C2814 C 0.76973 0.37921 0.39104 0.0
C2815 C 0.82377 0.36606 0.31951 0.0
C2816 C 0.79987 0.30616 0.3804 0.0
C2817 C 0.77511 0.28215 0.36931 0.0
C2818 C 0.80605 0.33565 0.37729 0.0
C2819 C 0.78701 0.34137 0.36266 0.0
C2820 C 0.76082 0.31711 0.35269 0.0
C2821 C 0.75516 0.28766 0.35612 0.0
C2822 C 0.8341 0.36081 0.38849 0.0
C2823 C 0.73977 0.32227 0.33726 0.0
H2824 H 0.80685 0.43768 0.38048 0.0
H2825 H 0.8517 0.42625 0.32015 0.0
H2826 H 0.74938 0.35804 0.38579 0.0
H2827 H 0.78029 0.37412 0.40626 0.0
H2828 H 0.76295 0.39544 0.39727 0.0
H2829 H 0.83677 0.37872 0.30353 0.0
H2830 H 0.83687 0.35754 0.32913 0.0
H2831 H 0.80252 0.34639 0.31347 0.0
H2832 H 0.8151 0.30204 0.39097 0.0
H2833 H 0.73585 0.26917 0.34762 0.0
H2834 H 0.8287 0.37608 0.39855 0.0
H2835 H 0.85036 0.3742 0.37426 0.0
H2836 H 0.84515 0.35244 0.40088 0.0
H2837 H 0.73661 0.3405 0.34462 0.0
H2838 H 0.71751 0.30164 0.33555 0.0
H2839 H 0.74953 0.32918 0.3191 0.0
C2840 C 0.48019 0.76583 0.36636 0.0
C2841 C 0.48034 0.74252 0.37922 0.0
C2842 C 0.4584 0.77394 0.37063 0.0
C2843 C 0.43562 0.75783 0.38775 0.0
C2844 C 0.43365 0.73217 0.39882 0.0
C2845 C 0.45629 0.72496 0.39463 0.0
C2846 C 0.46146 0.80149 0.35837 0.0
C2847 C 0.40857 0.71341 0.41602 0.0
C2848 C 0.41764 0.81105 0.42002 0.0
C2849 C 0.39521 0.81036 0.40533 0.0
C2850 C 0.42943 0.7922 0.41566 0.0
C2851 C 0.41768 0.77124 0.39668 0.0
C2852 C 0.3924 0.7677 0.38383 0.0
C2853 C 0.38171 0.78765 0.38804 0.0
C2854 C 0.45644 0.79693 0.42987 0.0
C2855 C 0.37811 0.74458 0.36431 0.0
H2856 H 0.49837 0.77926 0.35412 0.0
H2857 H 0.45584 0.70645 0.40421 0.0
H2858 H 0.44005 0.79629 0.34965 0.0
H2859 H 0.46673 0.81929 0.37184 0.0
H2860 H 0.47945 0.81053 0.3446 0.0
H2861 H 0.3866 0.70643 0.40745 0.0
H2862 H 0.40909 0.69308 0.42194 0.0
H2863 H 0.41014 0.72681 0.43204 0.0
H2864 H 0.42735 0.8277 0.43408 0.0
H2865 H 0.36409 0.78657 0.37673 0.0
H2866 H 0.47647 0.80661 0.41806 0.0
H2867 H 0.45309 0.77529 0.43676 0.0
H2868 H 0.46122 0.81233 0.44525 0.0
H2869 H 0.38959 0.75435 0.34709 0.0
H2870 H 0.35404 0.73765 0.36213 0.0
H2871 H 0.37998 0.72441 0.36802 0.0
C2872 C 0.72234 0.44904 0.34687 0.0
C2873 C 0.7297 0.4729 0.36268 0.0
C2874 C 0.69227 0.4265 0.34349 0.0
C2875 C 0.66923 0.42834 0.35587 0.0
C2876 C 0.67691 0.45077 0.3735 0.0
C2877 C 0.70702 0.47256 0.37681 0.0
C2878 C 0.68519 0.40216 0.32539 0.0
C2879 C 0.65318 0.45357 0.38731 0.0
C2880 C 0.5974 0.41473 0.32767 0.0
C2881 C 0.57617 0.39201 0.34237 0.0
C2882 C 0.628 0.42468 0.33012 0.0
C2883 C 0.63754 0.41132 0.34759 0.0
C2884 C 0.61589 0.38575 0.36027 0.0
C2885 C 0.58524 0.37646 0.35765 0.0
C2886 C 0.65015 0.45175 0.31592 0.0
C2887 C 0.62506 0.36993 0.37816 0.0
H2888 H 0.73979 0.44875 0.3362 0.0
H2889 H 0.71251 0.49048 0.3895 0.0
H2890 H 0.6648 0.3809 0.33047 0.0
H2891 H 0.68105 0.40923 0.30772 0.0
H2892 H 0.70425 0.39794 0.32337 0.0
H2893 H 0.66293 0.47074 0.40166 0.0
H2894 H 0.64042 0.45993 0.37492 0.0
H2895 H 0.63701 0.43182 0.39557 0.0
H2896 H 0.59019 0.42632 0.31552 0.0
H2897 H 0.56874 0.35862 0.36883 0.0
H2898 H 0.66758 0.44784 0.30786 0.0
H2899 H 0.66163 0.47138 0.32802 0.0
H2900 H 0.63912 0.45743 0.30139 0.0
H2901 H 0.6458 0.37013 0.3724 0.0
H2902 H 0.60695 0.34634 0.38083 0.0
H2903 H 0.62963 0.38158 0.39565 0.0
C2904 C 0.18477 0.58111 0.40581 0.0
C2905 C 0.18463 0.56435 0.38605 0.0
C2906 C 0.20219 0.61243 0.40563 0.0
C2907 C 0.21955 0.627 0.38513 0.0
C2908 C 0.22347 0.60991 0.36716 0.0
C2909 C 0.20575 0.57855 0.36777 0.0
C2910 C 0.1984 0.62985 0.42568 0.0
C2911 C 0.24299 0.62464 0.34561 0.0
C2912 C 0.20594 0.68914 0.36504 0.0
C2913 C 0.23148 0.71476 0.37349 0.0
C2914 C 0.20259 0.66067 0.3679 0.0
C2915 C 0.22548 0.65765 0.37942 0.0
C2916 C 0.25213 0.68355 0.38684 0.0
C2917 C 0.25476 0.71189 0.3839 0.0
C2918 C 0.17383 0.63369 0.3594 0.0
C2919 C 0.27731 0.6815 0.39884 0.0
H2920 H 0.16889 0.56998 0.42022 0.0
H2921 H 0.20601 0.56558 0.35258 0.0
H2922 H 0.22012 0.65003 0.43011 0.0
H2923 H 0.18264 0.63745 0.41993 0.0
H2924 H 0.18921 0.61598 0.44206 0.0
H2925 H 0.24989 0.60963 0.33692 0.0
H2926 H 0.23021 0.62988 0.33236 0.0
H2927 H 0.26335 0.64596 0.35058 0.0
H2928 H 0.18803 0.69117 0.3567 0.0
H2929 H 0.27472 0.73165 0.39033 0.0
H2930 H 0.16143 0.61932 0.37489 0.0
H2931 H 0.17895 0.62 0.34704 0.0
H2932 H 0.15883 0.64007 0.35 0.0
H2933 H 0.27298 0.67853 0.41837 0.0
H2934 H 0.29918 0.70233 0.39607 0.0
H2935 H 0.27906 0.66215 0.39216 0.0
C2936 C 0.60848 0.19745 0.40332 0.0
C2937 C 0.59473 0.16897 0.39269 0.0
C2938 C 0.59642 0.21656 0.40036 0.0
C2939 C 0.56996 0.20676 0.38662 0.0
C2940 C 0.55704 0.17866 0.37489 0.0
C2941 C 0.56968 0.16032 0.37793 0.0
C2942 C 0.61122 0.24656 0.41278 0.0
C2943 C 0.52897 0.16728 0.35991 0.0
C2944 C 0.51047 0.22822 0.39694 0.0
C2945 C 0.51282 0.24408 0.37588 0.0
C2946 C 0.53076 0.21816 0.40184 0.0
C2947 C 0.5542 0.22444 0.38545 0.0
C2948 C 0.55864 0.24331 0.3656 0.0
C2949 C 0.53778 0.25275 0.36095 0.0
C2950 C 0.52525 0.1983 0.42333 0.0
C2951 C 0.58383 0.25134 0.34806 0.0
H2952 H 0.62785 0.20427 0.41473 0.0
H2953 H 0.55936 0.1386 0.36923 0.0
H2954 H 0.6125 0.26427 0.40072 0.0
H2955 H 0.59761 0.24548 0.42854 0.0
H2956 H 0.63419 0.25313 0.41903 0.0
H2957 H 0.5223 0.14533 0.35141 0.0
H2958 H 0.51013 0.16469 0.37127 0.0
H2959 H 0.53241 0.18366 0.34565 0.0
H2960 H 0.49146 0.22162 0.40874 0.0
H2961 H 0.5401 0.26543 0.34483 0.0
H2962 H 0.54654 0.20496 0.43292 0.0
H2963 H 0.51605 0.17479 0.41729 0.0
H2964 H 0.50907 0.19907 0.43606 0.0
H2965 H 0.60485 0.25656 0.35751 0.0
H2966 H 0.58808 0.27084 0.33678 0.0
H2967 H 0.57786 0.23195 0.33612 0.0
C2968 C 0.41923 0.59212 0.33819 0.0
C2969 C 0.43918 0.61622 0.35255 0.0
C2970 C 0.38825 0.58083 0.33936 0.0
C2971 C 0.37678 0.5944 0.35491 0.0
C2972 C 0.39704 0.62083 0.36748 0.0
C2973 C 0.42812 0.63135 0.36631 0.0
C2974 C 0.36775 0.55272 0.32548 0.0
C2975 C 0.38608 0.63694 0.38344 0.0
C2976 C 0.29257 0.55797 0.34646 0.0
C2977 C 0.28233 0.53444 0.36311 0.0
C2978 C 0.3232 0.57988 0.34512 0.0
C2979 C 0.34402 0.57783 0.36045 0.0
C2980 C 0.33334 0.55577 0.37867 0.0
C2981 C 0.30267 0.53452 0.37986 0.0
C2982 C 0.3335 0.60401 0.32629 0.0
C2983 C 0.35462 0.55299 0.39568 0.0
H2984 H 0.42782 0.58089 0.32701 0.0
H2985 H 0.44348 0.65025 0.37723 0.0
H2986 H 0.35507 0.53389 0.33812 0.0
H2987 H 0.35117 0.55584 0.31509 0.0
H2988 H 0.38027 0.54623 0.31294 0.0
H2989 H 0.40234 0.66139 0.38354 0.0
H2990 H 0.36384 0.63329 0.37778 0.0
H2991 H 0.38414 0.62863 0.40204 0.0
H2992 H 0.27697 0.55853 0.33374 0.0
H2993 H 0.295 0.51684 0.39312 0.0
H2994 H 0.34319 0.59806 0.31095 0.0
H2995 H 0.35126 0.62581 0.33348 0.0
H2996 H 0.31465 0.60669 0.31956 0.0
H2997 H 0.36868 0.54596 0.38563 0.0
H2998 H 0.34261 0.53634 0.41007 0.0
H2999 H 0.36989 0.57497 0.40405 0.0
C3000 C 0.41666 0.82674 0.8361 0.0
C3001 C 0.43425 0.82572 0.85476 0.0
C3002 C 0.38531 0.81057 0.83744 0.0
C3003 C 0.37134 0.79316 0.85807 0.0
C3004 C 0.38901 0.78934 0.87564 0.0
C3005 C 0.42048 0.80586 0.87382 0.0
C3006 C 0.3674 0.81499 0.81811 0.0
C3007 C 0.37492 0.77035 0.89756 0.0
C3008 C 0.30532 0.80137 0.87676 0.0
C3009 C 0.28097 0.77541 0.86729 0.0
C3010 C 0.33462 0.80648 0.87496 0.0
C3011 C 0.33985 0.78503 0.86345 0.0
C3012 C 0.31525 0.75792 0.85506 0.0
C3013 C 0.28601 0.75344 0.85701 0.0
C3014 C 0.36014 0.83568 0.88433 0.0
C3015 C 0.31983 0.73431 0.843 0.0
H3016 H 0.4275 0.84205 0.8213 0.0
H3017 H 0.4342 0.80512 0.88823 0.0
H3018 H 0.34744 0.79334 0.81321 0.0
H3019 H 0.35932 0.82998 0.82485 0.0
H3020 H 0.381 0.82526 0.80175 0.0
H3021 H 0.3904 0.76419 0.90644 0.0
H3022 H 0.3693 0.7831 0.91053 0.0
H3023 H 0.3538 0.74957 0.89293 0.0
H3024 H 0.30164 0.81829 0.88504 0.0
H3025 H 0.26729 0.73319 0.8498 0.0
H3026 H 0.37442 0.84934 0.86921 0.0
H3027 H 0.37449 0.8313 0.89655 0.0
H3028 H 0.3521 0.8491 0.89411 0.0
H3029 H 0.3269 0.74106 0.82421 0.0
H3030 H 0.29886 0.71216 0.84284 0.0
H3031 H 0.33774 0.7319 0.85198 0.0
C3032 C 0.59183 0.41213 0.84618 0.0
C3033 C 0.61588 0.43333 0.8599 0.0
C3034 C 0.58203 0.38155 0.8481 0.0
C3035 C 0.59703 0.37185 0.86385 0.0
C3036 C 0.62338 0.39342 0.87579 0.0
C3037 C 0.63244 0.42408 0.87381 0.0
C3038 C 0.55396 0.35955 0.83481 0.0
C3039 C 0.64082 0.38419 0.89194 0.0
C3040 C 0.5386 0.29836 0.88995 0.0
C3041 C 0.53829 0.27808 0.87304 0.0
C3042 C 0.55993 0.32894 0.88872 0.0
C3043 C 0.58183 0.33948 0.87037 0.0
C3044 C 0.58408 0.3186 0.85529 0.0
C3045 C 0.56204 0.28808 0.85663 0.0
C3046 C 0.55686 0.35029 0.90543 0.0
C3047 C 0.60806 0.32873 0.83634 0.0
H3048 H 0.57948 0.41941 0.83495 0.0
H3049 H 0.6513 0.44051 0.88421 0.0
H3050 H 0.55795 0.3434 0.82463 0.0
H3051 H 0.53566 0.34653 0.8478 0.0
H3052 H 0.54618 0.37085 0.82214 0.0
H3053 H 0.66468 0.40221 0.89327 0.0
H3054 H 0.63103 0.3799 0.91017 0.0
H3055 H 0.6399 0.36337 0.88551 0.0
H3056 H 0.52079 0.2908 0.90309 0.0
H3057 H 0.56246 0.27247 0.84385 0.0
H3058 H 0.54848 0.36316 0.89529 0.0
H3059 H 0.57896 0.36661 0.91311 0.0
H3060 H 0.54102 0.3384 0.92034 0.0
H3061 H 0.60085 0.33612 0.82026 0.0
H3062 H 0.61204 0.31024 0.83094 0.0
H3063 H 0.62949 0.34796 0.84269 0.0
C3064 C 0.201 0.61848 0.8856 0.0
C3065 C 0.16974 0.60022 0.88353 0.0
C3066 C 0.22036 0.60759 0.87937 0.0
C3067 C 0.20808 0.57758 0.87145 0.0
C3068 C 0.17667 0.55957 0.86839 0.0
C3069 C 0.15806 0.57128 0.87401 0.0
C3070 C 0.25377 0.62785 0.88213 0.0
C3071 C 0.16245 0.52738 0.8601 0.0
C3072 C 0.24626 0.54022 0.84065 0.0
C3073 C 0.24797 0.52309 0.85946 0.0
C3074 C 0.23633 0.56079 0.84471 0.0
C3075 C 0.22719 0.56367 0.86799 0.0
C3076 C 0.23144 0.54842 0.88733 0.0
C3077 C 0.24211 0.52859 0.88287 0.0
C3078 C 0.23336 0.57761 0.82377 0.0
C3079 C 0.22187 0.55065 0.91243 0.0
H3080 H 0.21032 0.64093 0.89279 0.0
H3081 H 0.13407 0.55736 0.87141 0.0
H3082 H 0.26132 0.62211 0.89888 0.0
H3083 H 0.26607 0.62484 0.86707 0.0
H3084 H 0.26001 0.65183 0.88305 0.0
H3085 H 0.13766 0.51649 0.85852 0.0
H3086 H 0.17167 0.52626 0.84245 0.0
H3087 H 0.16779 0.51425 0.87291 0.0
H3088 H 0.25124 0.53649 0.82255 0.0
H3089 H 0.24357 0.51567 0.89758 0.0
H3090 H 0.24025 0.601 0.82887 0.0
H3091 H 0.20955 0.56655 0.81804 0.0
H3092 H 0.24709 0.57803 0.80828 0.0
H3093 H 0.2304 0.57439 0.9174 0.0
H3094 H 0.22991 0.54035 0.92584 0.0
H3095 H 0.197 0.53897 0.91329 0.0
C3096 C 0.72042 0.25404 0.88969 0.0
C3097 C 0.7256 0.23278 0.87823 0.0
C3098 C 0.69133 0.25006 0.891 0.0
C3099 C 0.66698 0.22408 0.88087 0.0
C3100 C 0.67247 0.20353 0.86812 0.0
C3101 C 0.70166 0.20822 0.86688 0.0
C3102 C 0.68657 0.27289 0.9042 0.0
C3103 C 0.64725 0.17558 0.85683 0.0
C3104 C 0.58851 0.17967 0.90431 0.0
C3105 C 0.57236 0.18163 0.8849 0.0
C3106 C 0.61989 0.1966 0.90481 0.0
C3107 C 0.63533 0.21599 0.88546 0.0
C3108 C 0.6189 0.22133 0.86771 0.0
C3109 C 0.58743 0.20388 0.86756 0.0
C3110 C 0.63642 0.19064 0.92439 0.0
C3111 C 0.63447 0.24272 0.84731 0.0
H3112 H 0.73887 0.27328 0.89829 0.0
H3113 H 0.70547 0.19191 0.85766 0.0
H3114 H 0.66944 0.27651 0.89517 0.0
H3115 H 0.67835 0.26458 0.92253 0.0
H3116 H 0.70773 0.29473 0.90573 0.0
H3117 H 0.65552 0.16263 0.84665 0.0
H3118 H 0.63167 0.16081 0.87093 0.0
H3119 H 0.63418 0.18156 0.8445 0.0
H3120 H 0.57675 0.16283 0.91797 0.0
H3121 H 0.57497 0.20565 0.85261 0.0
H3122 H 0.65603 0.21182 0.9306 0.0
H3123 H 0.6449 0.17612 0.91731 0.0
H3124 H 0.62169 0.17915 0.93997 0.0
H3125 H 0.65564 0.26255 0.85333 0.0
H3126 H 0.6198 0.25043 0.83915 0.0
H3127 H 0.64018 0.23116 0.83327 0.0
C3128 C 0.41685 0.58959 0.84004 0.0
C3129 C 0.39193 0.56932 0.85353 0.0
C3130 C 0.42732 0.62038 0.84084 0.0
C3131 C 0.41197 0.63124 0.855 0.0
C3132 C 0.3848 0.6106 0.86651 0.0
C3133 C 0.37519 0.57974 0.86584 0.0
C3134 C 0.45634 0.64137 0.82817 0.0
C3135 C 0.36694 0.62106 0.88085 0.0
C3136 C 0.46928 0.70549 0.88083 0.0
C3137 C 0.47104 0.72528 0.86282 0.0
C3138 C 0.44793 0.67491 0.87976 0.0
C3139 C 0.42737 0.66389 0.86048 0.0
C3140 C 0.42655 0.68433 0.84397 0.0
C3141 C 0.44868 0.71484 0.84515 0.0
C3142 C 0.44959 0.65401 0.89789 0.0
C3143 C 0.40394 0.67371 0.82392 0.0
H3144 H 0.42928 0.58145 0.82987 0.0
H3145 H 0.35564 0.56408 0.87603 0.0
H3146 H 0.45339 0.65721 0.81663 0.0
H3147 H 0.47391 0.65483 0.84156 0.0
H3148 H 0.46455 0.6292 0.81689 0.0
H3149 H 0.34293 0.60338 0.88186 0.0
H3150 H 0.37584 0.62627 0.89936 0.0
H3151 H 0.36857 0.64166 0.87307 0.0
H3152 H 0.48603 0.71338 0.89487 0.0
H3153 H 0.4494 0.73008 0.83144 0.0
H3154 H 0.45806 0.64038 0.88906 0.0
H3155 H 0.427 0.63834 0.90512 0.0
H3156 H 0.46473 0.66632 0.91305 0.0
H3157 H 0.41189 0.66526 0.80901 0.0
H3158 H 0.40087 0.69219 0.81693 0.0
H3159 H 0.3819 0.65508 0.82994 0.0
C3160 C 0.75981 0.47037 0.88218 0.0
C3161 C 0.7532 0.47474 0.85868 0.0
C3162 C 0.77058 0.45075 0.88711 0.0
C3163 C 0.77415 0.43457 0.86816 0.0
C3164 C 0.76389 0.43602 0.84497 0.0
C3165 C 0.7539 0.45644 0.84039 0.0
C3166 C 0.78113 0.44983 0.91214 0.0
C3167 C 0.76579 0.41787 0.82458 0.0
C3168 C 0.84479 0.42971 0.87358 0.0
C3169 C 0.83439 0.40181 0.88472 0.0
C3170 C 0.8252 0.44006 0.86747 0.0
C3171 C 0.79405 0.4216 0.87168 0.0
C3172 C 0.78298 0.39238 0.88109 0.0
C3173 C 0.80335 0.38295 0.88783 0.0
C3174 C 0.83816 0.47148 0.85761 0.0
C3175 C 0.74988 0.37149 0.88507 0.0
H3176 H 0.75894 0.48406 0.89653 0.0
H3177 H 0.7482 0.45919 0.82226 0.0
H3178 H 0.77251 0.42635 0.91794 0.0
H3179 H 0.80601 0.46127 0.91237 0.0
H3180 H 0.77384 0.46107 0.9253 0.0
H3181 H 0.75115 0.41636 0.80941 0.0
H3182 H 0.78925 0.4286 0.81801 0.0
H3183 H 0.7593 0.39488 0.83062 0.0
H3184 H 0.86857 0.44397 0.87019 0.0
H3185 H 0.79499 0.36127 0.89627 0.0
H3186 H 0.83294 0.4852 0.86987 0.0
H3187 H 0.82792 0.47092 0.84003 0.0
H3188 H 0.86289 0.48283 0.85529 0.0
H3189 H 0.74341 0.3762 0.90277 0.0
H3190 H 0.74433 0.34769 0.88497 0.0
H3191 H 0.73619 0.37457 0.87123 0.0
C3192 C 0.17431 0.58406 0.59129 0.0
C3193 C 0.17348 0.562 0.6065 0.0
C3194 C 0.19012 0.6144 0.59763 0.0
C3195 C 0.20633 0.62303 0.6194 0.0
C3196 C 0.20886 0.60134 0.63321 0.0
C3197 C 0.19206 0.57091 0.62676 0.0
C3198 C 0.18685 0.63671 0.58224 0.0
C3199 C 0.22722 0.60986 0.65586 0.0
C3200 C 0.24717 0.70742 0.6284 0.0
C3201 C 0.22561 0.71074 0.64129 0.0
C3202 C 0.24253 0.67878 0.62278 0.0
C3203 C 0.2153 0.65305 0.62957 0.0
C3204 C 0.19434 0.65636 0.64378 0.0
C3205 C 0.19997 0.68511 0.64973 0.0
C3206 C 0.26603 0.67624 0.6085 0.0
C3207 C 0.16483 0.62961 0.65125 0.0
H3208 H 0.1608 0.57737 0.57516 0.0
H3209 H 0.19188 0.55408 0.63851 0.0
H3210 H 0.17313 0.64451 0.59187 0.0
H3211 H 0.20907 0.65664 0.57865 0.0
H3212 H 0.17582 0.62692 0.56486 0.0
H3213 H 0.23306 0.59257 0.66104 0.0
H3214 H 0.2482 0.63172 0.65378 0.0
H3215 H 0.21413 0.61211 0.67067 0.0
H3216 H 0.26725 0.72716 0.62209 0.0
H3217 H 0.18325 0.68743 0.65981 0.0
H3218 H 0.26001 0.67381 0.58926 0.0
H3219 H 0.26746 0.65628 0.61397 0.0
H3220 H 0.28849 0.69655 0.61057 0.0
H3221 H 0.1512 0.61841 0.63514 0.0
H3222 H 0.15158 0.63596 0.6631 0.0
H3223 H 0.16877 0.61302 0.66077 0.0
C3224 C 0.53422 0.21833 0.61335 0.0
C3225 C 0.53536 0.24436 0.60458 0.0
C3226 C 0.55924 0.21458 0.61249 0.0
C3227 C 0.58642 0.23749 0.60251 0.0
C3228 C 0.58811 0.26424 0.59405 0.0
C3229 C 0.56249 0.26745 0.59533 0.0
C3230 C 0.55614 0.18556 0.62184 0.0
C3231 C 0.61677 0.28945 0.58378 0.0
C3232 C 0.64118 0.21571 0.62354 0.0
C3233 C 0.63527 0.19344 0.60653 0.0
C3234 C 0.62967 0.23511 0.62049 0.0
C3235 C 0.61185 0.23168 0.60015 0.0
C3236 C 0.61127 0.21351 0.58095 0.0
C3237 C 0.62289 0.19432 0.58443 0.0
C3238 C 0.63232 0.25554 0.64079 0.0
C3239 C 0.5939 0.21041 0.55838 0.0
H3240 H 0.51351 0.20047 0.62081 0.0
H3241 H 0.56362 0.28779 0.58876 0.0
H3242 H 0.55986 0.17333 0.60713 0.0
H3243 H 0.57322 0.19028 0.63584 0.0
H3244 H 0.53364 0.17049 0.62965 0.0
H3245 H 0.61247 0.30476 0.5726 0.0
H3246 H 0.63181 0.30274 0.59865 0.0
H3247 H 0.62881 0.28083 0.57283 0.0
H3248 H 0.65135 0.21553 0.64048 0.0
H3249 H 0.61912 0.17763 0.57098 0.0
H3250 H 0.61216 0.24392 0.65237 0.0
H3251 H 0.63361 0.27637 0.63397 0.0
H3252 H 0.65243 0.26154 0.65194 0.0
H3253 H 0.56974 0.19443 0.5616 0.0
H3254 H 0.60149 0.20167 0.54338 0.0
H3255 H 0.59624 0.23223 0.55306 0.0
C3256 C 0.41952 0.6085 0.63595 0.0
C3257 C 0.4296 0.60974 0.61249 0.0
C3258 C 0.38867 0.59464 0.64087 0.0
C3259 C 0.36791 0.58174 0.62184 0.0
C3260 C 0.37836 0.58809 0.59794 0.0
C3261 C 0.40927 0.60212 0.59353 0.0
C3262 C 0.37844 0.58958 0.66658 0.0
C3263 C 0.35708 0.57558 0.57703 0.0
C3264 C 0.30816 0.50057 0.62994 0.0
C3265 C 0.28175 0.50207 0.63108 0.0
C3266 C 0.33619 0.52646 0.62758 0.0
C3267 C 0.3381 0.55487 0.62653 0.0
C3268 C 0.31166 0.55677 0.6285 0.0
C3269 C 0.2837 0.53026 0.63074 0.0
C3270 C 0.36371 0.52314 0.62536 0.0
C3271 C 0.31284 0.58664 0.62817 0.0
H3272 H 0.43528 0.61464 0.65065 0.0
H3273 H 0.4172 0.60344 0.57534 0.0
H3274 H 0.35716 0.58988 0.66866 0.0
H3275 H 0.37439 0.56727 0.67245 0.0
H3276 H 0.39571 0.60682 0.6785 0.0
H3277 H 0.36773 0.58781 0.56022 0.0
H3278 H 0.35045 0.55167 0.5745 0.0
H3279 H 0.3364 0.57667 0.5803 0.0
H3280 H 0.30697 0.47897 0.63032 0.0
H3281 H 0.26338 0.53162 0.63188 0.0
H3282 H 0.38033 0.53651 0.63937 0.0
H3283 H 0.37453 0.5317 0.60772 0.0
H3284 H 0.35834 0.49948 0.62707 0.0
H3285 H 0.32301 0.59874 0.64507 0.0
H3286 H 0.29017 0.58409 0.6264 0.0
H3287 H 0.32715 0.60085 0.61329 0.0
C3288 C 0.75788 0.29016 0.61461 0.0
C3289 C 0.74532 0.27596 0.63644 0.0
C3290 C 0.76843 0.32081 0.61145 0.0
C3291 C 0.76575 0.33755 0.63039 0.0
C3292 C 0.74952 0.32253 0.65122 0.0
C3293 C 0.73975 0.29187 0.65415 0.0
C3294 C 0.78536 0.3358 0.58881 0.0
C3295 C 0.7447 0.33927 0.67125 0.0
C3296 C 0.83531 0.41368 0.63488 0.0
C3297 C 0.82755 0.43142 0.62095 0.0
C3298 C 0.81472 0.38347 0.63927 0.0
C3299 C 0.78516 0.37076 0.63017 0.0
C3300 C 0.77622 0.38929 0.61821 0.0
C3301 C 0.79767 0.41942 0.61347 0.0
C3302 C 0.82539 0.36468 0.65214 0.0
C3303 C 0.74462 0.37703 0.60912 0.0
H3304 H 0.76168 0.27795 0.60056 0.0
H3305 H 0.72939 0.28092 0.67087 0.0
H3306 H 0.77749 0.3506 0.58135 0.0
H3307 H 0.80959 0.35 0.59296 0.0
H3308 H 0.7828 0.31929 0.57489 0.0
H3309 H 0.72575 0.32389 0.68295 0.0
H3310 H 0.76526 0.35061 0.68238 0.0
H3311 H 0.74021 0.35675 0.6641 0.0
H3312 H 0.85807 0.42312 0.64147 0.0
H3313 H 0.79136 0.43305 0.6029 0.0
H3314 H 0.82467 0.34749 0.63976 0.0
H3315 H 0.8104 0.35272 0.66743 0.0
H3316 H 0.84867 0.37832 0.65899 0.0
H3317 H 0.74263 0.36713 0.59114 0.0
H3318 H 0.73884 0.39505 0.60746 0.0
H3319 H 0.72805 0.35923 0.62107 0.0
C3320 C 0.46375 0.7626 0.63691 0.0
C3321 C 0.4885 0.77675 0.62146 0.0
C3322 C 0.44211 0.77161 0.63778 0.0
C3323 C 0.44543 0.79533 0.62292 0.0
C3324 C 0.46884 0.80775 0.6058 0.0
C3325 C 0.49007 0.7983 0.60527 0.0
C3326 C 0.41716 0.75741 0.65596 0.0
C3327 C 0.47304 0.8329 0.58944 0.0
C3328 C 0.38872 0.82201 0.6178 0.0
C3329 C 0.40197 0.84725 0.63271 0.0
C3330 C 0.40162 0.80365 0.61528 0.0
C3331 C 0.42824 0.81088 0.62798 0.0
C3332 C 0.44045 0.83526 0.64419 0.0
C3333 C 0.42713 0.85306 0.64635 0.0
C3334 C 0.38772 0.77762 0.59809 0.0
C3335 C 0.46861 0.84363 0.65831 0.0
H3336 H 0.46212 0.74565 0.64929 0.0
H3337 H 0.50883 0.80901 0.59299 0.0
H3338 H 0.42256 0.77275 0.67144 0.0
H3339 H 0.39566 0.7536 0.64826 0.0
H3340 H 0.41408 0.73573 0.66262 0.0
H3341 H 0.48979 0.83738 0.57515 0.0
H3342 H 0.45147 0.82761 0.58095 0.0
H3343 H 0.48085 0.85371 0.60005 0.0
H3344 H 0.36918 0.81748 0.60731 0.0
H3345 H 0.43701 0.87227 0.65824 0.0
H3346 H 0.38747 0.75766 0.60583 0.0
H3347 H 0.40132 0.78369 0.58148 0.0
H3348 H 0.36442 0.77155 0.59323 0.0
H3349 H 0.46619 0.8239 0.66824 0.0
H3350 H 0.47399 0.86196 0.67129 0.0
H3351 H 0.48788 0.85107 0.64589 0.0
C3352 C 0.57639 0.4067 0.64047 0.0
C3353 C 0.56303 0.38907 0.62015 0.0
C3354 C 0.60766 0.42393 0.64259 0.0
C3355 C 0.62602 0.42367 0.62383 0.0
C3356 C 0.61269 0.40367 0.60436 0.0
C3357 C 0.58122 0.38652 0.60275 0.0
C3358 C 0.62086 0.44455 0.66384 0.0
C3359 C 0.63143 0.40242 0.58413 0.0
C3360 C 0.69469 0.49977 0.61321 0.0
C3361 C 0.71747 0.49682 0.62439 0.0
C3362 C 0.66517 0.47574 0.61219 0.0
C3363 C 0.65805 0.44792 0.62268 0.0
C3364 C 0.68106 0.44441 0.63335 0.0
C3365 C 0.71056 0.46894 0.63409 0.0
C3366 C 0.6414 0.48048 0.60046 0.0
C3367 C 0.67438 0.41511 0.64467 0.0
H3368 H 0.56227 0.40843 0.65404 0.0
H3369 H 0.57091 0.37294 0.587 0.0
H3370 H 0.64044 0.44359 0.67103 0.0
H3371 H 0.62884 0.46799 0.65814 0.0
H3372 H 0.60418 0.43884 0.67841 0.0
H3373 H 0.61864 0.38194 0.57307 0.0
H3374 H 0.63869 0.42229 0.57245 0.0
H3375 H 0.65192 0.40301 0.59104 0.0
H3376 H 0.69979 0.5211 0.60545 0.0
H3377 H 0.72803 0.46641 0.6427 0.0
H3378 H 0.62458 0.47816 0.61399 0.0
H3379 H 0.62938 0.46316 0.58656 0.0
H3380 H 0.65092 0.50294 0.592 0.0
H3381 H 0.66119 0.4115 0.66128 0.0
H3382 H 0.69518 0.41471 0.64929 0.0
H3383 H 0.6606 0.39609 0.63251 0.0
loop_
_geom_bond_atom_site_label_1
_geom_bond_atom_site_label_2
_geom_bond_distance
_geom_bond_site_symmetry_2
_ccdc_geom_bond_type
O0 Tb1 2.292 . S
O0 C3 1.255 . S
Tb1 O0 2.292 . S
Tb1 O17 2.326 . S
Tb1 O19 2.500 . S
Tb1 O20 2.473 . S
Tb1 O23 2.324 . S
Eu2 O6 2.292 . S
Eu2 C7 2.852 . S
Eu2 O18 2.324 . S
Eu2 O22 2.326 . S
Eu2 O24 2.500 . S
Eu2 O25 2.473 . S
C3 O0 1.255 . S
C3 O4 1.247 . S
O4 C3 1.247 . S
C5 O17 1.242 . S
C5 O18 1.258 . S
O6 Eu2 2.292 . S
O6 C8 1.255 . S
C7 Eu2 2.852 . S
C7 C11 1.503 . S
C7 O24 1.273 . S
C7 O25 1.257 . S
C8 O6 1.255 . S
C8 O9 1.247 . S
O9 C8 1.247 . S
C10 O22 1.242 . S
C10 O23 1.258 . S
C11 C7 1.503 . S
C11 C12 1.379 . S
C11 C16 1.392 . S
C12 C11 1.379 . S
C12 C13 1.404 . S
C12 H26 0.929 . S
C13 C12 1.404 . S
C13 C14 1.389 . S
C14 C13 1.389 . S
C14 C15 1.399 . S
C14 H27 0.931 . S
C15 C14 1.399 . S
C15 C16 1.390 . S
C16 C11 1.392 . S
C16 C15 1.390 . S
C16 H28 0.929 . S
O17 Tb1 2.326 . S
O17 C5 1.242 . S
O18 Eu2 2.324 . S
O18 C5 1.258 . S
O19 Tb1 2.500 . S
O19 C21 1.273 . S
O20 Tb1 2.473 . S
O20 C21 1.257 . S
C21 O19 1.273 . S
C21 O20 1.257 . S
O22 Eu2 2.326 . S
O22 C10 1.242 . S
O23 Tb1 2.324 . S
O23 C10 1.258 . S
O24 Eu2 2.500 . S
O24 C7 1.273 . S
O25 Eu2 2.473 . S
O25 C7 1.257 . S
H26 C12 0.929 . S
H27 C14 0.931 . S
H28 C16 0.929 . S
O29 Tb30 2.292 . S
O29 C32 1.255 . S
Tb30 O29 2.292 . S
Tb30 O46 2.326 . S
Tb30 O48 2.500 . S
Tb30 O49 2.473 . S
Tb30 O52 2.324 . S
Eu31 O35 2.292 . S
Eu31 C36 2.852 . S
Eu31 O47 2.324 . S
Eu31 O51 2.326 . S
Eu31 O53 2.500 . S
Eu31 O54 2.473 . S
C32 O29 1.255 . S
C32 O33 1.247 . S
O33 C32 1.247 . S
C34 O46 1.242 . S
C34 O47 1.258 . S
O35 Eu31 2.292 . S
O35 C37 1.255 . S
C36 Eu31 2.852 . S
C36 C40 1.503 . S
C36 O53 1.273 . S
C36 O54 1.257 . S
C37 O35 1.255 . S
C37 O38 1.247 . S
O38 C37 1.247 . S
C39 O51 1.242 . S
C39 O52 1.258 . S
C40 C36 1.503 . S
C40 C41 1.379 . S
C40 C45 1.392 . S
C41 C40 1.379 . S
C41 C42 1.404 . S
C41 H55 0.929 . S
C42 C41 1.404 . S
C42 C43 1.389 . S
C43 C42 1.389 . S
C43 C44 1.399 . S
C43 H56 0.931 . S
C44 C43 1.399 . S
C44 C45 1.390 . S
C45 C40 1.392 . S
C45 C44 1.390 . S
C45 H57 0.929 . S
O46 Tb30 2.326 . S
O46 C34 1.242 . S
O47 Eu31 2.324 . S
O47 C34 1.258 . S
O48 Tb30 2.500 . S
O48 C50 1.273 . S
O49 Tb30 2.473 . S
O49 C50 1.257 . S
C50 O48 1.273 . S
C50 O49 1.257 . S
O51 Eu31 2.326 . S
O51 C39 1.242 . S
O52 Tb30 2.324 . S
O52 C39 1.258 . S
O53 Eu31 2.500 . S
O53 C36 1.273 . S
O54 Eu31 2.473 . S
O54 C36 1.257 . S
H55 C41 0.929 . S
H56 C43 0.931 . S
H57 C45 0.929 . S
O58 Tb59 2.292 . S
O58 C61 1.255 . S
Tb59 O58 2.292 . S
Tb59 O75 2.326 . S
Tb59 O77 2.500 . S
Tb59 O78 2.473 . S
Tb59 O81 2.324 . S
Eu60 O64 2.292 . S
Eu60 C65 2.852 . S
Eu60 O76 2.324 . S
Eu60 O80 2.326 . S
Eu60 O82 2.500 . S
Eu60 O83 2.473 . S
C61 O58 1.255 . S
C61 O62 1.247 . S
O62 C61 1.247 . S
C63 O75 1.242 . S
C63 O76 1.258 . S
O64 Eu60 2.292 . S
O64 C66 1.255 . S
C65 Eu60 2.852 . S
C65 C69 1.503 . S
C65 O82 1.273 . S
C65 O83 1.257 . S
C66 O64 1.255 . S
C66 O67 1.247 . S
O67 C66 1.247 . S
C68 O80 1.242 . S
C68 O81 1.258 . S
C69 C65 1.503 . S
C69 C70 1.379 . S
C69 C74 1.392 . S
C70 C69 1.379 . S
C70 C71 1.404 . S
C70 H84 0.929 . S
C71 C70 1.404 . S
C71 C72 1.389 . S
C72 C71 1.389 . S
C72 C73 1.399 . S
C72 H85 0.931 . S
C73 C72 1.399 . S
C73 C74 1.390 . S
C74 C69 1.392 . S
C74 C73 1.390 . S
C74 H86 0.929 . S
O75 Tb59 2.326 . S
O75 C63 1.242 . S
O76 Eu60 2.324 . S
O76 C63 1.258 . S
O77 Tb59 2.500 . S
O77 C79 1.273 . S
O78 Tb59 2.473 . S
O78 C79 1.257 . S
C79 O77 1.273 . S
C79 O78 1.257 . S
O80 Eu60 2.326 . S
O80 C68 1.242 . S
O81 Tb59 2.324 . S
O81 C68 1.258 . S
O82 Eu60 2.500 . S
O82 C65 1.273 . S
O83 Eu60 2.473 . S
O83 C65 1.257 . S
H84 C70 0.929 . S
H85 C72 0.931 . S
H86 C74 0.929 . S
O87 Tb88 2.292 . S
O87 C90 1.255 . S
Tb88 O87 2.292 . S
Tb88 O104 2.326 . S
Tb88 O106 2.500 . S
Tb88 O107 2.473 . S
Tb88 O110 2.324 . S
Eu89 O93 2.292 . S
Eu89 C94 2.852 . S
Eu89 O105 2.324 . S
Eu89 O109 2.326 . S
Eu89 O111 2.500 . S
Eu89 O112 2.473 . S
C90 O87 1.255 . S
C90 O91 1.247 . S
O91 C90 1.247 . S
C92 O104 1.242 . S
C92 O105 1.258 . S
O93 Eu89 2.292 . S
O93 C95 1.255 . S
C94 Eu89 2.852 . S
C94 C98 1.503 . S
C94 O111 1.273 . S
C94 O112 1.257 . S
C95 O93 1.255 . S
C95 O96 1.247 . S
O96 C95 1.247 . S
C97 O109 1.242 . S
C97 O110 1.258 . S
C98 C94 1.503 . S
C98 C99 1.379 . S
C98 C103 1.392 . S
C99 C98 1.379 . S
C99 C100 1.404 . S
C99 H113 0.929 . S
C100 C99 1.404 . S
C100 C101 1.389 . S
C101 C100 1.389 . S
C101 C102 1.399 . S
C101 H114 0.931 . S
C102 C101 1.399 . S
C102 C103 1.390 . S
C103 C98 1.392 . S
C103 C102 1.390 . S
C103 H115 0.929 . S
O104 Tb88 2.326 . S
O104 C92 1.242 . S
O105 Eu89 2.324 . S
O105 C92 1.258 . S
O106 Tb88 2.500 . S
O106 C108 1.273 . S
O107 Tb88 2.473 . S
O107 C108 1.257 . S
C108 O106 1.273 . S
C108 O107 1.257 . S
O109 Eu89 2.326 . S
O109 C97 1.242 . S
O110 Tb88 2.324 . S
O110 C97 1.258 . S
O111 Eu89 2.500 . S
O111 C94 1.273 . S
O112 Eu89 2.473 . S
O112 C94 1.257 . S
H113 C99 0.929 . S
H114 C101 0.931 . S
H115 C103 0.929 . S
O116 Tb117 2.292 . S
O116 C119 1.255 . S
Tb117 O116 2.292 . S
Tb117 O133 2.326 . S
Tb117 O135 2.500 . S
Tb117 O136 2.473 . S
Tb117 O139 2.324 . S
Eu118 O122 2.292 . S
Eu118 C123 2.852 . S
Eu118 O134 2.324 . S
Eu118 O138 2.326 . S
Eu118 O140 2.500 . S
Eu118 O141 2.473 . S
C119 O116 1.255 . S
C119 O120 1.247 . S
O120 C119 1.247 . S
C121 O133 1.242 . S
C121 O134 1.258 . S
O122 Eu118 2.292 . S
O122 C124 1.255 . S
C123 Eu118 2.852 . S
C123 C127 1.503 . S
C123 O140 1.273 . S
C123 O141 1.257 . S
C124 O122 1.255 . S
C124 O125 1.247 . S
O125 C124 1.247 . S
C126 O138 1.242 . S
C126 O139 1.258 . S
C127 C123 1.503 . S
C127 C128 1.379 . S
C127 C132 1.392 . S
C128 C127 1.379 . S
C128 C129 1.404 . S
C128 H142 0.929 . S
C129 C128 1.404 . S
C129 C130 1.389 . S
C130 C129 1.389 . S
C130 C131 1.399 . S
C130 H143 0.931 . S
C131 C130 1.399 . S
C131 C132 1.390 . S
C132 C127 1.392 . S
C132 C131 1.390 . S
C132 H144 0.929 . S
O133 Tb117 2.326 . S
O133 C121 1.242 . S
O134 Eu118 2.324 . S
O134 C121 1.258 . S
O135 Tb117 2.500 . S
O135 C137 1.273 . S
O136 Tb117 2.473 . S
O136 C137 1.257 . S
C137 O135 1.273 . S
C137 O136 1.257 . S
O138 Eu118 2.326 . S
O138 C126 1.242 . S
O139 Tb117 2.324 . S
O139 C126 1.258 . S
O140 Eu118 2.500 . S
O140 C123 1.273 . S
O141 Eu118 2.473 . S
O141 C123 1.257 . S
H142 C128 0.929 . S
H143 C130 0.931 . S
H144 C132 0.929 . S
O145 Tb146 2.292 . S
O145 C148 1.255 . S
Tb146 O145 2.292 . S
Tb146 O162 2.326 . S
Tb146 O164 2.500 . S
Tb146 O165 2.473 . S
Tb146 O168 2.324 . S
Eu147 O151 2.292 . S
Eu147 C152 2.852 . S
Eu147 O163 2.324 . S
Eu147 O167 2.326 . S
Eu147 O169 2.500 . S
Eu147 O170 2.473 . S
C148 O145 1.255 . S
C148 O149 1.247 . S
O149 C148 1.247 . S
C150 O162 1.242 . S
C150 O163 1.258 . S
O151 Eu147 2.292 . S
O151 C153 1.255 . S
C152 Eu147 2.852 . S
C152 C156 1.503 . S
C152 O169 1.273 . S
C152 O170 1.257 . S
C153 O151 1.255 . S
C153 O154 1.247 . S
O154 C153 1.247 . S
C155 O167 1.242 . S
C155 O168 1.258 . S
C156 C152 1.503 . S
C156 C157 1.379 . S
C156 C161 1.392 . S
C157 C156 1.379 . S
C157 C158 1.404 . S
C157 H171 0.929 . S
C158 C157 1.404 . S
C158 C159 1.389 . S
C159 C158 1.389 . S
C159 C160 1.399 . S
C159 H172 0.931 . S
C160 C159 1.399 . S
C160 C161 1.390 . S
C161 C156 1.392 . S
C161 C160 1.390 . S
C161 H173 0.929 . S
O162 Tb146 2.326 . S
O162 C150 1.242 . S
O163 Eu147 2.324 . S
O163 C150 1.258 . S
O164 Tb146 2.500 . S
O164 C166 1.273 . S
O165 Tb146 2.473 . S
O165 C166 1.257 . S
C166 O164 1.273 . S
C166 O165 1.257 . S
O167 Eu147 2.326 . S
O167 C155 1.242 . S
O168 Tb146 2.324 . S
O168 C155 1.258 . S
O169 Eu147 2.500 . S
O169 C152 1.273 . S
O170 Eu147 2.473 . S
O170 C152 1.257 . S
H171 C157 0.929 . S
H172 C159 0.931 . S
H173 C161 0.929 . S
O174 Tb175 2.292 . S
O174 C177 1.255 . S
Tb175 O174 2.292 . S
Tb175 O191 2.326 . S
Tb175 O193 2.500 . S
Tb175 O194 2.473 . S
Tb175 O197 2.324 . S
Eu176 O180 2.292 . S
Eu176 C181 2.852 . S
Eu176 O192 2.324 . S
Eu176 O196 2.326 . S
Eu176 O198 2.500 . S
Eu176 O199 2.473 . S
C177 O174 1.255 . S
C177 O178 1.247 . S
O178 C177 1.247 . S
C179 O191 1.242 . S
C179 O192 1.258 . S
O180 Eu176 2.292 . S
O180 C182 1.255 . S
C181 Eu176 2.852 . S
C181 C185 1.503 . S
C181 O198 1.273 . S
C181 O199 1.257 . S
C182 O180 1.255 . S
C182 O183 1.247 . S
O183 C182 1.247 . S
C184 O196 1.242 . S
C184 O197 1.258 . S
C185 C181 1.503 . S
C185 C186 1.379 . S
C185 C190 1.392 . S
C186 C185 1.379 . S
C186 C187 1.404 . S
C186 H200 0.929 . S
C187 C186 1.404 . S
C187 C188 1.389 . S
C188 C187 1.389 . S
C188 C189 1.399 . S
C188 H201 0.931 . S
C189 C188 1.399 . S
C189 C190 1.390 . S
C190 C185 1.392 . S
C190 C189 1.390 . S
C190 H202 0.929 . S
O191 Tb175 2.326 . S
O191 C179 1.242 . S
O192 Eu176 2.324 . S
O192 C179 1.258 . S
O193 Tb175 2.500 . S
O193 C195 1.273 . S
O194 Tb175 2.473 . S
O194 C195 1.257 . S
C195 O193 1.273 . S
C195 O194 1.257 . S
O196 Eu176 2.326 . S
O196 C184 1.242 . S
O197 Tb175 2.324 . S
O197 C184 1.258 . S
O198 Eu176 2.500 . S
O198 C181 1.273 . S
O199 Eu176 2.473 . S
O199 C181 1.257 . S
H200 C186 0.929 . S
H201 C188 0.931 . S
H202 C190 0.929 . S
O203 Tb204 2.292 . S
O203 C206 1.255 . S
Tb204 O203 2.292 . S
Tb204 O220 2.326 . S
Tb204 O222 2.500 . S
Tb204 O223 2.473 . S
Tb204 O226 2.324 . S
Eu205 O209 2.292 . S
Eu205 C210 2.852 . S
Eu205 O221 2.324 . S
Eu205 O225 2.326 . S
Eu205 O227 2.500 . S
Eu205 O228 2.473 . S
C206 O203 1.255 . S
C206 O207 1.247 . S
O207 C206 1.247 . S
C208 O220 1.242 . S
C208 O221 1.258 . S
O209 Eu205 2.292 . S
O209 C211 1.255 . S
C210 Eu205 2.852 . S
C210 C214 1.503 . S
C210 O227 1.273 . S
C210 O228 1.257 . S
C211 O209 1.255 . S
C211 O212 1.247 . S
O212 C211 1.247 . S
C213 O225 1.242 . S
C213 O226 1.258 . S
C214 C210 1.503 . S
C214 C215 1.379 . S
C214 C219 1.392 . S
C215 C214 1.379 . S
C215 C216 1.404 . S
C215 H229 0.929 . S
C216 C215 1.404 . S
C216 C217 1.389 . S
C217 C216 1.389 . S
C217 C218 1.399 . S
C217 H230 0.931 . S
C218 C217 1.399 . S
C218 C219 1.390 . S
C219 C214 1.392 . S
C219 C218 1.390 . S
C219 H231 0.929 . S
O220 Tb204 2.326 . S
O220 C208 1.242 . S
O221 Eu205 2.324 . S
O221 C208 1.258 . S
O222 Tb204 2.500 . S
O222 C224 1.273 . S
O223 Tb204 2.473 . S
O223 C224 1.257 . S
C224 O222 1.273 . S
C224 O223 1.257 . S
O225 Eu205 2.326 . S
O225 C213 1.242 . S
O226 Tb204 2.324 . S
O226 C213 1.258 . S
O227 Eu205 2.500 . S
O227 C210 1.273 . S
O228 Eu205 2.473 . S
O228 C210 1.257 . S
H229 C215 0.929 . S
H230 C217 0.931 . S
H231 C219 0.929 . S
O232 Tb233 2.292 . S
O232 C235 1.255 . S
Tb233 O232 2.292 . S
Tb233 O249 2.326 . S
Tb233 O251 2.500 . S
Tb233 O252 2.473 . S
Tb233 O255 2.324 . S
Eu234 O238 2.292 . S
Eu234 C239 2.852 . S
Eu234 O250 2.324 . S
Eu234 O254 2.326 . S
Eu234 O256 2.500 . S
Eu234 O257 2.473 . S
C235 O232 1.255 . S
C235 O236 1.247 . S
O236 C235 1.247 . S
C237 O249 1.242 . S
C237 O250 1.258 . S
O238 Eu234 2.292 . S
O238 C240 1.255 . S
C239 Eu234 2.852 . S
C239 C243 1.503 . S
C239 O256 1.273 . S
C239 O257 1.257 . S
C240 O238 1.255 . S
C240 O241 1.247 . S
O241 C240 1.247 . S
C242 O254 1.242 . S
C242 O255 1.258 . S
C243 C239 1.503 . S
C243 C244 1.379 . S
C243 C248 1.392 . S
C244 C243 1.379 . S
C244 C245 1.404 . S
C244 H258 0.929 . S
C245 C244 1.404 . S
C245 C246 1.389 . S
C246 C245 1.389 . S
C246 C247 1.399 . S
C246 H259 0.931 . S
C247 C246 1.399 . S
C247 C248 1.390 . S
C248 C243 1.392 . S
C248 C247 1.390 . S
C248 H260 0.929 . S
O249 Tb233 2.326 . S
O249 C237 1.242 . S
O250 Eu234 2.324 . S
O250 C237 1.258 . S
O251 Tb233 2.500 . S
O251 C253 1.273 . S
O252 Tb233 2.473 . S
O252 C253 1.257 . S
C253 O251 1.273 . S
C253 O252 1.257 . S
O254 Eu234 2.326 . S
O254 C242 1.242 . S
O255 Tb233 2.324 . S
O255 C242 1.258 . S
O256 Eu234 2.500 . S
O256 C239 1.273 . S
O257 Eu234 2.473 . S
O257 C239 1.257 . S
H258 C244 0.929 . S
H259 C246 0.931 . S
H260 C248 0.929 . S
O261 Tb262 2.292 . S
O261 C264 1.255 . S
Tb262 O261 2.292 . S
Tb262 O278 2.326 . S
Tb262 O280 2.500 . S
Tb262 O281 2.473 . S
Tb262 O284 2.324 . S
Eu263 O267 2.292 . S
Eu263 C268 2.852 . S
Eu263 O279 2.324 . S
Eu263 O283 2.326 . S
Eu263 O285 2.500 . S
Eu263 O286 2.473 . S
C264 O261 1.255 . S
C264 O265 1.247 . S
O265 C264 1.247 . S
C266 O278 1.242 . S
C266 O279 1.258 . S
O267 Eu263 2.292 . S
O267 C269 1.255 . S
C268 Eu263 2.852 . S
C268 C272 1.503 . S
C268 O285 1.273 . S
C268 O286 1.257 . S
C269 O267 1.255 . S
C269 O270 1.247 . S
O270 C269 1.247 . S
C271 O283 1.242 . S
C271 O284 1.258 . S
C272 C268 1.503 . S
C272 C273 1.379 . S
C272 C277 1.392 . S
C273 C272 1.379 . S
C273 C274 1.404 . S
C273 H287 0.929 . S
C274 C273 1.404 . S
C274 C275 1.389 . S
C275 C274 1.389 . S
C275 C276 1.399 . S
C275 H288 0.931 . S
C276 C275 1.399 . S
C276 C277 1.390 . S
C277 C272 1.392 . S
C277 C276 1.390 . S
C277 H289 0.929 . S
O278 Tb262 2.326 . S
O278 C266 1.242 . S
O279 Eu263 2.324 . S
O279 C266 1.258 . S
O280 Tb262 2.500 . S
O280 C282 1.273 . S
O281 Tb262 2.473 . S
O281 C282 1.257 . S
C282 O280 1.273 . S
C282 O281 1.257 . S
O283 Eu263 2.326 . S
O283 C271 1.242 . S
O284 Tb262 2.324 . S
O284 C271 1.258 . S
O285 Eu263 2.500 . S
O285 C268 1.273 . S
O286 Eu263 2.473 . S
O286 C268 1.257 . S
H287 C273 0.929 . S
H288 C275 0.931 . S
H289 C277 0.929 . S
O290 Tb291 2.292 . S
O290 C293 1.255 . S
Tb291 O290 2.292 . S
Tb291 O307 2.326 . S
Tb291 O309 2.500 . S
Tb291 O310 2.473 . S
Tb291 O313 2.324 . S
Eu292 O296 2.292 . S
Eu292 C297 2.852 . S
Eu292 O308 2.324 . S
Eu292 O312 2.326 . S
Eu292 O314 2.500 . S
Eu292 O315 2.473 . S
C293 O290 1.255 . S
C293 O294 1.247 . S
O294 C293 1.247 . S
C295 O307 1.242 . S
C295 O308 1.258 . S
O296 Eu292 2.292 . S
O296 C298 1.255 . S
C297 Eu292 2.852 . S
C297 C301 1.503 . S
C297 O314 1.273 . S
C297 O315 1.257 . S
C298 O296 1.255 . S
C298 O299 1.247 . S
O299 C298 1.247 . S
C300 O312 1.242 . S
C300 O313 1.258 . S
C301 C297 1.503 . S
C301 C302 1.379 . S
C301 C306 1.392 . S
C302 C301 1.379 . S
C302 C303 1.404 . S
C302 H316 0.929 . S
C303 C302 1.404 . S
C303 C304 1.389 . S
C304 C303 1.389 . S
C304 C305 1.399 . S
C304 H317 0.931 . S
C305 C304 1.399 . S
C305 C306 1.390 . S
C306 C301 1.392 . S
C306 C305 1.390 . S
C306 H318 0.929 . S
O307 Tb291 2.326 . S
O307 C295 1.242 . S
O308 Eu292 2.324 . S
O308 C295 1.258 . S
O309 Tb291 2.500 . S
O309 C311 1.273 . S
O310 Tb291 2.473 . S
O310 C311 1.257 . S
C311 O309 1.273 . S
C311 O310 1.257 . S
O312 Eu292 2.326 . S
O312 C300 1.242 . S
O313 Tb291 2.324 . S
O313 C300 1.258 . S
O314 Eu292 2.500 . S
O314 C297 1.273 . S
O315 Eu292 2.473 . S
O315 C297 1.257 . S
H316 C302 0.929 . S
H317 C304 0.931 . S
H318 C306 0.929 . S
O319 Tb320 2.292 . S
O319 C322 1.255 . S
Tb320 O319 2.292 . S
Tb320 O336 2.326 . S
Tb320 O338 2.500 . S
Tb320 O339 2.473 . S
Tb320 O342 2.324 . S
Eu321 O325 2.292 . S
Eu321 C326 2.852 . S
Eu321 O337 2.324 . S
Eu321 O341 2.326 . S
Eu321 O343 2.500 . S
Eu321 O344 2.473 . S
C322 O319 1.255 . S
C322 O323 1.247 . S
O323 C322 1.247 . S
C324 O336 1.242 . S
C324 O337 1.258 . S
O325 Eu321 2.292 . S
O325 C327 1.255 . S
C326 Eu321 2.852 . S
C326 C330 1.503 . S
C326 O343 1.273 . S
C326 O344 1.257 . S
C327 O325 1.255 . S
C327 O328 1.247 . S
O328 C327 1.247 . S
C329 O341 1.242 . S
C329 O342 1.258 . S
C330 C326 1.503 . S
C330 C331 1.379 . S
C330 C335 1.392 . S
C331 C330 1.379 . S
C331 C332 1.404 . S
C331 H345 0.929 . S
C332 C331 1.404 . S
C332 C333 1.389 . S
C333 C332 1.389 . S
C333 C334 1.399 . S
C333 H346 0.931 . S
C334 C333 1.399 . S
C334 C335 1.390 . S
C335 C330 1.392 . S
C335 C334 1.390 . S
C335 H347 0.929 . S
O336 Tb320 2.326 . S
O336 C324 1.242 . S
O337 Eu321 2.324 . S
O337 C324 1.258 . S
O338 Tb320 2.500 . S
O338 C340 1.273 . S
O339 Tb320 2.473 . S
O339 C340 1.257 . S
C340 O338 1.273 . S
C340 O339 1.257 . S
O341 Eu321 2.326 . S
O341 C329 1.242 . S
O342 Tb320 2.324 . S
O342 C329 1.258 . S
O343 Eu321 2.500 . S
O343 C326 1.273 . S
O344 Eu321 2.473 . S
O344 C326 1.257 . S
H345 C331 0.929 . S
H346 C333 0.931 . S
H347 C335 0.929 . S
O348 Tb349 2.292 . S
O348 C351 1.255 . S
Tb349 O348 2.292 . S
Tb349 O365 2.326 . S
Tb349 O367 2.500 . S
Tb349 O368 2.473 . S
Tb349 O371 2.324 . S
Eu350 O354 2.292 . S
Eu350 C355 2.852 . S
Eu350 O366 2.324 . S
Eu350 O370 2.326 . S
Eu350 O372 2.500 . S
Eu350 O373 2.473 . S
C351 O348 1.255 . S
C351 O352 1.247 . S
O352 C351 1.247 . S
C353 O365 1.242 . S
C353 O366 1.258 . S
O354 Eu350 2.292 . S
O354 C356 1.255 . S
C355 Eu350 2.852 . S
C355 C359 1.503 . S
C355 O372 1.273 . S
C355 O373 1.257 . S
C356 O354 1.255 . S
C356 O357 1.247 . S
O357 C356 1.247 . S
C358 O370 1.242 . S
C358 O371 1.258 . S
C359 C355 1.503 . S
C359 C360 1.379 . S
C359 C364 1.392 . S
C360 C359 1.379 . S
C360 C361 1.404 . S
C360 H374 0.929 . S
C361 C360 1.404 . S
C361 C362 1.389 . S
C362 C361 1.389 . S
C362 C363 1.399 . S
C362 H375 0.931 . S
C363 C362 1.399 . S
C363 C364 1.390 . S
C364 C359 1.392 . S
C364 C363 1.390 . S
C364 H376 0.929 . S
O365 Tb349 2.326 . S
O365 C353 1.242 . S
O366 Eu350 2.324 . S
O366 C353 1.258 . S
O367 Tb349 2.500 . S
O367 C369 1.273 . S
O368 Tb349 2.473 . S
O368 C369 1.257 . S
C369 O367 1.273 . S
C369 O368 1.257 . S
O370 Eu350 2.326 . S
O370 C358 1.242 . S
O371 Tb349 2.324 . S
O371 C358 1.258 . S
O372 Eu350 2.500 . S
O372 C355 1.273 . S
O373 Eu350 2.473 . S
O373 C355 1.257 . S
H374 C360 0.929 . S
H375 C362 0.931 . S
H376 C364 0.929 . S
O377 Tb378 2.292 . S
O377 C380 1.255 . S
Tb378 O377 2.292 . S
Tb378 O394 2.326 . S
Tb378 O396 2.500 . S
Tb378 O397 2.473 . S
Tb378 O400 2.324 . S
Eu379 O383 2.292 . S
Eu379 C384 2.852 . S
Eu379 O395 2.324 . S
Eu379 O399 2.326 . S
Eu379 O401 2.500 . S
Eu379 O402 2.473 . S
C380 O377 1.255 . S
C380 O381 1.247 . S
O381 C380 1.247 . S
C382 O394 1.242 . S
C382 O395 1.258 . S
O383 Eu379 2.292 . S
O383 C385 1.255 . S
C384 Eu379 2.852 . S
C384 C388 1.503 . S
C384 O401 1.273 . S
C384 O402 1.257 . S
C385 O383 1.255 . S
C385 O386 1.247 . S
O386 C385 1.247 . S
C387 O399 1.242 . S
C387 O400 1.258 . S
C388 C384 1.503 . S
C388 C389 1.379 . S
C388 C393 1.392 . S
C389 C388 1.379 . S
C389 C390 1.404 . S
C389 H403 0.929 . S
C390 C389 1.404 . S
C390 C391 1.389 . S
C391 C390 1.389 . S
C391 C392 1.399 . S
C391 H404 0.931 . S
C392 C391 1.399 . S
C392 C393 1.390 . S
C393 C388 1.392 . S
C393 C392 1.390 . S
C393 H405 0.929 . S
O394 Tb378 2.326 . S
O394 C382 1.242 . S
O395 Eu379 2.324 . S
O395 C382 1.258 . S
O396 Tb378 2.500 . S
O396 C398 1.273 . S
O397 Tb378 2.473 . S
O397 C398 1.257 . S
C398 O396 1.273 . S
C398 O397 1.257 . S
O399 Eu379 2.326 . S
O399 C387 1.242 . S
O400 Tb378 2.324 . S
O400 C387 1.258 . S
O401 Eu379 2.500 . S
O401 C384 1.273 . S
O402 Eu379 2.473 . S
O402 C384 1.257 . S
H403 C389 0.929 . S
H404 C391 0.931 . S
H405 C393 0.929 . S
O406 Tb407 2.292 . S
O406 C409 1.255 . S
Tb407 O406 2.292 . S
Tb407 O423 2.326 . S
Tb407 O425 2.500 . S
Tb407 O426 2.473 . S
Tb407 O429 2.324 . S
Eu408 O412 2.292 . S
Eu408 C413 2.852 . S
Eu408 O424 2.324 . S
Eu408 O428 2.326 . S
Eu408 O430 2.500 . S
Eu408 O431 2.473 . S
C409 O406 1.255 . S
C409 O410 1.247 . S
O410 C409 1.247 . S
C411 O423 1.242 . S
C411 O424 1.258 . S
O412 Eu408 2.292 . S
O412 C414 1.255 . S
C413 Eu408 2.852 . S
C413 C417 1.503 . S
C413 O430 1.273 . S
C413 O431 1.257 . S
C414 O412 1.255 . S
C414 O415 1.247 . S
O415 C414 1.247 . S
C416 O428 1.242 . S
C416 O429 1.258 . S
C417 C413 1.503 . S
C417 C418 1.379 . S
C417 C422 1.392 . S
C418 C417 1.379 . S
C418 C419 1.404 . S
C418 H432 0.929 . S
C419 C418 1.404 . S
C419 C420 1.389 . S
C420 C419 1.389 . S
C420 C421 1.399 . S
C420 H433 0.931 . S
C421 C420 1.399 . S
C421 C422 1.390 . S
C422 C417 1.392 . S
C422 C421 1.390 . S
C422 H434 0.929 . S
O423 Tb407 2.326 . S
O423 C411 1.242 . S
O424 Eu408 2.324 . S
O424 C411 1.258 . S
O425 Tb407 2.500 . S
O425 C427 1.273 . S
O426 Tb407 2.473 . S
O426 C427 1.257 . S
C427 O425 1.273 . S
C427 O426 1.257 . S
O428 Eu408 2.326 . S
O428 C416 1.242 . S
O429 Tb407 2.324 . S
O429 C416 1.258 . S
O430 Eu408 2.500 . S
O430 C413 1.273 . S
O431 Eu408 2.473 . S
O431 C413 1.257 . S
H432 C418 0.929 . S
H433 C420 0.931 . S
H434 C422 0.929 . S
O435 Tb436 2.292 . S
O435 C438 1.255 . S
Tb436 O435 2.292 . S
Tb436 O452 2.326 . S
Tb436 O454 2.500 . S
Tb436 O455 2.473 . S
Tb436 O458 2.324 . S
Eu437 O441 2.292 . S
Eu437 C442 2.852 . S
Eu437 O453 2.324 . S
Eu437 O457 2.326 . S
Eu437 O459 2.500 . S
Eu437 O460 2.473 . S
C438 O435 1.255 . S
C438 O439 1.247 . S
O439 C438 1.247 . S
C440 O452 1.242 . S
C440 O453 1.258 . S
O441 Eu437 2.292 . S
O441 C443 1.255 . S
C442 Eu437 2.852 . S
C442 C446 1.503 . S
C442 O459 1.273 . S
C442 O460 1.257 . S
C443 O441 1.255 . S
C443 O444 1.247 . S
O444 C443 1.247 . S
C445 O457 1.242 . S
C445 O458 1.258 . S
C446 C442 1.503 . S
C446 C447 1.379 . S
C446 C451 1.392 . S
C447 C446 1.379 . S
C447 C448 1.404 . S
C447 H461 0.929 . S
C448 C447 1.404 . S
C448 C449 1.389 . S
C449 C448 1.389 . S
C449 C450 1.399 . S
C449 H462 0.931 . S
C450 C449 1.399 . S
C450 C451 1.390 . S
C451 C446 1.392 . S
C451 C450 1.390 . S
C451 H463 0.929 . S
O452 Tb436 2.326 . S
O452 C440 1.242 . S
O453 Eu437 2.324 . S
O453 C440 1.258 . S
O454 Tb436 2.500 . S
O454 C456 1.273 . S
O455 Tb436 2.473 . S
O455 C456 1.257 . S
C456 O454 1.273 . S
C456 O455 1.257 . S
O457 Eu437 2.326 . S
O457 C445 1.242 . S
O458 Tb436 2.324 . S
O458 C445 1.258 . S
O459 Eu437 2.500 . S
O459 C442 1.273 . S
O460 Eu437 2.473 . S
O460 C442 1.257 . S
H461 C447 0.929 . S
H462 C449 0.931 . S
H463 C451 0.929 . S
O464 Tb465 2.292 . S
O464 C467 1.255 . S
Tb465 O464 2.292 . S
Tb465 O481 2.326 . S
Tb465 O483 2.500 . S
Tb465 O484 2.473 . S
Tb465 O487 2.324 . S
Eu466 O470 2.292 . S
Eu466 C471 2.852 . S
Eu466 O482 2.324 . S
Eu466 O486 2.326 . S
Eu466 O488 2.500 . S
Eu466 O489 2.473 . S
C467 O464 1.255 . S
C467 O468 1.247 . S
O468 C467 1.247 . S
C469 O481 1.242 . S
C469 O482 1.258 . S
O470 Eu466 2.292 . S
O470 C472 1.255 . S
C471 Eu466 2.852 . S
C471 C475 1.503 . S
C471 O488 1.273 . S
C471 O489 1.257 . S
C472 O470 1.255 . S
C472 O473 1.247 . S
O473 C472 1.247 . S
C474 O486 1.242 . S
C474 O487 1.258 . S
C475 C471 1.503 . S
C475 C476 1.379 . S
C475 C480 1.392 . S
C476 C475 1.379 . S
C476 C477 1.404 . S
C476 H490 0.929 . S
C477 C476 1.404 . S
C477 C478 1.389 . S
C478 C477 1.389 . S
C478 C479 1.399 . S
C478 H491 0.931 . S
C479 C478 1.399 . S
C479 C480 1.390 . S
C480 C475 1.392 . S
C480 C479 1.390 . S
C480 H492 0.929 . S
O481 Tb465 2.326 . S
O481 C469 1.242 . S
O482 Eu466 2.324 . S
O482 C469 1.258 . S
O483 Tb465 2.500 . S
O483 C485 1.273 . S
O484 Tb465 2.473 . S
O484 C485 1.257 . S
C485 O483 1.273 . S
C485 O484 1.257 . S
O486 Eu466 2.326 . S
O486 C474 1.242 . S
O487 Tb465 2.324 . S
O487 C474 1.258 . S
O488 Eu466 2.500 . S
O488 C471 1.273 . S
O489 Eu466 2.473 . S
O489 C471 1.257 . S
H490 C476 0.929 . S
H491 C478 0.931 . S
H492 C480 0.929 . S
O493 Tb494 2.292 . S
O493 C496 1.255 . S
Tb494 O493 2.292 . S
Tb494 O510 2.326 . S
Tb494 O512 2.500 . S
Tb494 O513 2.473 . S
Tb494 O516 2.324 . S
Eu495 O499 2.292 . S
Eu495 C500 2.852 . S
Eu495 O511 2.324 . S
Eu495 O515 2.326 . S
Eu495 O517 2.500 . S
Eu495 O518 2.473 . S
C496 O493 1.255 . S
C496 O497 1.247 . S
O497 C496 1.247 . S
C498 O510 1.242 . S
C498 O511 1.258 . S
O499 Eu495 2.292 . S
O499 C501 1.255 . S
C500 Eu495 2.852 . S
C500 C504 1.503 . S
C500 O517 1.273 . S
C500 O518 1.257 . S
C501 O499 1.255 . S
C501 O502 1.247 . S
O502 C501 1.247 . S
C503 O515 1.242 . S
C503 O516 1.258 . S
C504 C500 1.503 . S
C504 C505 1.379 . S
C504 C509 1.392 . S
C505 C504 1.379 . S
C505 C506 1.404 . S
C505 H519 0.929 . S
C506 C505 1.404 . S
C506 C507 1.389 . S
C507 C506 1.389 . S
C507 C508 1.399 . S
C507 H520 0.931 . S
C508 C507 1.399 . S
C508 C509 1.390 . S
C509 C504 1.392 . S
C509 C508 1.390 . S
C509 H521 0.929 . S
O510 Tb494 2.326 . S
O510 C498 1.242 . S
O511 Eu495 2.324 . S
O511 C498 1.258 . S
O512 Tb494 2.500 . S
O512 C514 1.273 . S
O513 Tb494 2.473 . S
O513 C514 1.257 . S
C514 O512 1.273 . S
C514 O513 1.257 . S
O515 Eu495 2.326 . S
O515 C503 1.242 . S
O516 Tb494 2.324 . S
O516 C503 1.258 . S
O517 Eu495 2.500 . S
O517 C500 1.273 . S
O518 Eu495 2.473 . S
O518 C500 1.257 . S
H519 C505 0.929 . S
H520 C507 0.931 . S
H521 C509 0.929 . S
O522 Tb523 2.292 . S
O522 C525 1.255 . S
Tb523 O522 2.292 . S
Tb523 O539 2.326 . S
Tb523 O541 2.500 . S
Tb523 O542 2.473 . S
Tb523 O545 2.324 . S
Eu524 O528 2.292 . S
Eu524 C529 2.852 . S
Eu524 O540 2.324 . S
Eu524 O544 2.326 . S
Eu524 O546 2.500 . S
Eu524 O547 2.473 . S
C525 O522 1.255 . S
C525 O526 1.247 . S
O526 C525 1.247 . S
C527 O539 1.242 . S
C527 O540 1.258 . S
O528 Eu524 2.292 . S
O528 C530 1.255 . S
C529 Eu524 2.852 . S
C529 C533 1.503 . S
C529 O546 1.273 . S
C529 O547 1.257 . S
C530 O528 1.255 . S
C530 O531 1.247 . S
O531 C530 1.247 . S
C532 O544 1.242 . S
C532 O545 1.258 . S
C533 C529 1.503 . S
C533 C534 1.379 . S
C533 C538 1.392 . S
C534 C533 1.379 . S
C534 C535 1.404 . S
C534 H548 0.929 . S
C535 C534 1.404 . S
C535 C536 1.389 . S
C536 C535 1.389 . S
C536 C537 1.399 . S
C536 H549 0.931 . S
C537 C536 1.399 . S
C537 C538 1.390 . S
C538 C533 1.392 . S
C538 C537 1.390 . S
C538 H550 0.929 . S
O539 Tb523 2.326 . S
O539 C527 1.242 . S
O540 Eu524 2.324 . S
O540 C527 1.258 . S
O541 Tb523 2.500 . S
O541 C543 1.273 . S
O542 Tb523 2.473 . S
O542 C543 1.257 . S
C543 O541 1.273 . S
C543 O542 1.257 . S
O544 Eu524 2.326 . S
O544 C532 1.242 . S
O545 Tb523 2.324 . S
O545 C532 1.258 . S
O546 Eu524 2.500 . S
O546 C529 1.273 . S
O547 Eu524 2.473 . S
O547 C529 1.257 . S
H548 C534 0.929 . S
H549 C536 0.931 . S
H550 C538 0.929 . S
O551 Tb552 2.292 . S
O551 C554 1.255 . S
Tb552 O551 2.292 . S
Tb552 O568 2.326 . S
Tb552 O570 2.500 . S
Tb552 O571 2.473 . S
Tb552 O574 2.324 . S
Eu553 O557 2.292 . S
Eu553 C558 2.852 . S
Eu553 O569 2.324 . S
Eu553 O573 2.326 . S
Eu553 O575 2.500 . S
Eu553 O576 2.473 . S
C554 O551 1.255 . S
C554 O555 1.247 . S
O555 C554 1.247 . S
C556 O568 1.242 . S
C556 O569 1.258 . S
O557 Eu553 2.292 . S
O557 C559 1.255 . S
C558 Eu553 2.852 . S
C558 C562 1.503 . S
C558 O575 1.273 . S
C558 O576 1.257 . S
C559 O557 1.255 . S
C559 O560 1.247 . S
O560 C559 1.247 . S
C561 O573 1.242 . S
C561 O574 1.258 . S
C562 C558 1.503 . S
C562 C563 1.379 . S
C562 C567 1.392 . S
C563 C562 1.379 . S
C563 C564 1.404 . S
C563 H577 0.929 . S
C564 C563 1.404 . S
C564 C565 1.389 . S
C565 C564 1.389 . S
C565 C566 1.399 . S
C565 H578 0.931 . S
C566 C565 1.399 . S
C566 C567 1.390 . S
C567 C562 1.392 . S
C567 C566 1.390 . S
C567 H579 0.929 . S
O568 Tb552 2.326 . S
O568 C556 1.242 . S
O569 Eu553 2.324 . S
O569 C556 1.258 . S
O570 Tb552 2.500 . S
O570 C572 1.273 . S
O571 Tb552 2.473 . S
O571 C572 1.257 . S
C572 O570 1.273 . S
C572 O571 1.257 . S
O573 Eu553 2.326 . S
O573 C561 1.242 . S
O574 Tb552 2.324 . S
O574 C561 1.258 . S
O575 Eu553 2.500 . S
O575 C558 1.273 . S
O576 Eu553 2.473 . S
O576 C558 1.257 . S
H577 C563 0.929 . S
H578 C565 0.931 . S
H579 C567 0.929 . S
O580 Tb581 2.292 . S
O580 C583 1.255 . S
Tb581 O580 2.292 . S
Tb581 O597 2.326 . S
Tb581 O599 2.500 . S
Tb581 O600 2.473 . S
Tb581 O603 2.324 . S
Eu582 O586 2.292 . S
Eu582 C587 2.852 . S
Eu582 O598 2.324 . S
Eu582 O602 2.326 . S
Eu582 O604 2.500 . S
Eu582 O605 2.473 . S
C583 O580 1.255 . S
C583 O584 1.247 . S
O584 C583 1.247 . S
C585 O597 1.242 . S
C585 O598 1.258 . S
O586 Eu582 2.292 . S
O586 C588 1.255 . S
C587 Eu582 2.852 . S
C587 C591 1.503 . S
C587 O604 1.273 . S
C587 O605 1.257 . S
C588 O586 1.255 . S
C588 O589 1.247 . S
O589 C588 1.247 . S
C590 O602 1.242 . S
C590 O603 1.258 . S
C591 C587 1.503 . S
C591 C592 1.379 . S
C591 C596 1.392 . S
C592 C591 1.379 . S
C592 C593 1.404 . S
C592 H606 0.929 . S
C593 C592 1.404 . S
C593 C594 1.389 . S
C594 C593 1.389 . S
C594 C595 1.399 . S
C594 H607 0.931 . S
C595 C594 1.399 . S
C595 C596 1.390 . S
C596 C591 1.392 . S
C596 C595 1.390 . S
C596 H608 0.929 . S
O597 Tb581 2.326 . S
O597 C585 1.242 . S
O598 Eu582 2.324 . S
O598 C585 1.258 . S
O599 Tb581 2.500 . S
O599 C601 1.273 . S
O600 Tb581 2.473 . S
O600 C601 1.257 . S
C601 O599 1.273 . S
C601 O600 1.257 . S
O602 Eu582 2.326 . S
O602 C590 1.242 . S
O603 Tb581 2.324 . S
O603 C590 1.258 . S
O604 Eu582 2.500 . S
O604 C587 1.273 . S
O605 Eu582 2.473 . S
O605 C587 1.257 . S
H606 C592 0.929 . S
H607 C594 0.931 . S
H608 C596 0.929 . S
O609 Tb610 2.292 . S
O609 C612 1.255 . S
Tb610 O609 2.292 . S
Tb610 O626 2.326 . S
Tb610 O628 2.500 . S
Tb610 O629 2.473 . S
Tb610 O632 2.324 . S
Eu611 O615 2.292 . S
Eu611 C616 2.852 . S
Eu611 O627 2.324 . S
Eu611 O631 2.326 . S
Eu611 O633 2.500 . S
Eu611 O634 2.473 . S
C612 O609 1.255 . S
C612 O613 1.247 . S
O613 C612 1.247 . S
C614 O626 1.242 . S
C614 O627 1.258 . S
O615 Eu611 2.292 . S
O615 C617 1.255 . S
C616 Eu611 2.852 . S
C616 C620 1.503 . S
C616 O633 1.273 . S
C616 O634 1.257 . S
C617 O615 1.255 . S
C617 O618 1.247 . S
O618 C617 1.247 . S
C619 O631 1.242 . S
C619 O632 1.258 . S
C620 C616 1.503 . S
C620 C621 1.379 . S
C620 C625 1.392 . S
C621 C620 1.379 . S
C621 C622 1.404 . S
C621 H635 0.929 . S
C622 C621 1.404 . S
C622 C623 1.389 . S
C623 C622 1.389 . S
C623 C624 1.399 . S
C623 H636 0.931 . S
C624 C623 1.399 . S
C624 C625 1.390 . S
C625 C620 1.392 . S
C625 C624 1.390 . S
C625 H637 0.929 . S
O626 Tb610 2.326 . S
O626 C614 1.242 . S
O627 Eu611 2.324 . S
O627 C614 1.258 . S
O628 Tb610 2.500 . S
O628 C630 1.273 . S
O629 Tb610 2.473 . S
O629 C630 1.257 . S
C630 O628 1.273 . S
C630 O629 1.257 . S
O631 Eu611 2.326 . S
O631 C619 1.242 . S
O632 Tb610 2.324 . S
O632 C619 1.258 . S
O633 Eu611 2.500 . S
O633 C616 1.273 . S
O634 Eu611 2.473 . S
O634 C616 1.257 . S
H635 C621 0.929 . S
H636 C623 0.931 . S
H637 C625 0.929 . S
O638 Tb639 2.292 . S
O638 C641 1.255 . S
Tb639 O638 2.292 . S
Tb639 O655 2.326 . S
Tb639 O657 2.500 . S
Tb639 O658 2.473 . S
Tb639 O661 2.324 . S
Eu640 O644 2.292 . S
Eu640 C645 2.852 . S
Eu640 O656 2.324 . S
Eu640 O660 2.326 . S
Eu640 O662 2.500 . S
Eu640 O663 2.473 . S
C641 O638 1.255 . S
C641 O642 1.247 . S
O642 C641 1.247 . S
C643 O655 1.242 . S
C643 O656 1.258 . S
O644 Eu640 2.292 . S
O644 C646 1.255 . S
C645 Eu640 2.852 . S
C645 C649 1.503 . S
C645 O662 1.273 . S
C645 O663 1.257 . S
C646 O644 1.255 . S
C646 O647 1.247 . S
O647 C646 1.247 . S
C648 O660 1.242 . S
C648 O661 1.258 . S
C649 C645 1.503 . S
C649 C650 1.379 . S
C649 C654 1.392 . S
C650 C649 1.379 . S
C650 C651 1.404 . S
C650 H664 0.929 . S
C651 C650 1.404 . S
C651 C652 1.389 . S
C652 C651 1.389 . S
C652 C653 1.399 . S
C652 H665 0.931 . S
C653 C652 1.399 . S
C653 C654 1.390 . S
C654 C649 1.392 . S
C654 C653 1.390 . S
C654 H666 0.929 . S
O655 Tb639 2.326 . S
O655 C643 1.242 . S
O656 Eu640 2.324 . S
O656 C643 1.258 . S
O657 Tb639 2.500 . S
O657 C659 1.273 . S
O658 Tb639 2.473 . S
O658 C659 1.257 . S
C659 O657 1.273 . S
C659 O658 1.257 . S
O660 Eu640 2.326 . S
O660 C648 1.242 . S
O661 Tb639 2.324 . S
O661 C648 1.258 . S
O662 Eu640 2.500 . S
O662 C645 1.273 . S
O663 Eu640 2.473 . S
O663 C645 1.257 . S
H664 C650 0.929 . S
H665 C652 0.931 . S
H666 C654 0.929 . S
O667 Tb668 2.292 . S
O667 C670 1.255 . S
Tb668 O667 2.292 . S
Tb668 O684 2.326 . S
Tb668 O686 2.500 . S
Tb668 O687 2.473 . S
Tb668 O690 2.324 . S
Eu669 O673 2.292 . S
Eu669 C674 2.852 . S
Eu669 O685 2.324 . S
Eu669 O689 2.326 . S
Eu669 O691 2.500 . S
Eu669 O692 2.473 . S
C670 O667 1.255 . S
C670 O671 1.247 . S
O671 C670 1.247 . S
C672 O684 1.242 . S
C672 O685 1.258 . S
O673 Eu669 2.292 . S
O673 C675 1.255 . S
C674 Eu669 2.852 . S
C674 C678 1.503 . S
C674 O691 1.273 . S
C674 O692 1.257 . S
C675 O673 1.255 . S
C675 O676 1.247 . S
O676 C675 1.247 . S
C677 O689 1.242 . S
C677 O690 1.258 . S
C678 C674 1.503 . S
C678 C679 1.379 . S
C678 C683 1.392 . S
C679 C678 1.379 . S
C679 C680 1.404 . S
C679 H693 0.929 . S
C680 C679 1.404 . S
C680 C681 1.389 . S
C681 C680 1.389 . S
C681 C682 1.399 . S
C681 H694 0.931 . S
C682 C681 1.399 . S
C682 C683 1.390 . S
C683 C678 1.392 . S
C683 C682 1.390 . S
C683 H695 0.929 . S
O684 Tb668 2.326 . S
O684 C672 1.242 . S
O685 Eu669 2.324 . S
O685 C672 1.258 . S
O686 Tb668 2.500 . S
O686 C688 1.273 . S
O687 Tb668 2.473 . S
O687 C688 1.257 . S
C688 O686 1.273 . S
C688 O687 1.257 . S
O689 Eu669 2.326 . S
O689 C677 1.242 . S
O690 Tb668 2.324 . S
O690 C677 1.258 . S
O691 Eu669 2.500 . S
O691 C674 1.273 . S
O692 Eu669 2.473 . S
O692 C674 1.257 . S
H693 C679 0.929 . S
H694 C681 0.931 . S
H695 C683 0.929 . S
C696 C697 1.391 . S
C696 C698 1.394 1_545 S
C696 H712 0.931 . S
C697 C696 1.391 . S
C697 C701 1.376 . S
C698 C696 1.394 1_565 S
C698 C699 1.369 . S
C698 C702 1.531 . S
C699 C698 1.369 . S
C699 C700 1.410 . S
C699 C707 1.503 . S
C700 C699 1.410 . S
C700 C701 1.392 1_565 S
C700 C703 1.511 . S
C701 C697 1.376 . S
C701 C700 1.392 1_545 S
C701 H713 0.929 . S
C702 C698 1.531 . S
C702 H714 0.960 . S
C702 H715 0.962 . S
C702 H716 0.960 . S
C703 C700 1.511 . S
C703 H717 0.961 . S
C703 H718 0.961 . S
C703 H719 0.961 . S
C704 C705 1.370 . S
C704 C706 1.363 . S
C704 H720 0.931 . S
C705 C704 1.370 . S
C705 C709 1.408 . S
C706 C704 1.363 . S
C706 C707 1.370 . S
C706 C710 1.524 . S
C707 C699 1.503 . S
C707 C706 1.370 . S
C707 C708 1.403 . S
C708 C707 1.403 . S
C708 C709 1.404 . S
C708 C711 1.539 . S
C709 C705 1.408 . S
C709 C708 1.404 . S
C709 H721 0.930 . S
C710 C706 1.524 . S
C710 H722 0.956 . S
C710 H723 0.961 . S
C710 H724 0.961 . S
C711 C708 1.539 . S
C711 H725 0.958 . S
C711 H726 0.961 . S
C711 H727 0.960 . S
H712 C696 0.931 . S
H713 C701 0.929 . S
H714 C702 0.960 . S
H715 C702 0.962 . S
H716 C702 0.960 . S
H717 C703 0.961 . S
H718 C703 0.961 . S
H719 C703 0.961 . S
H720 C704 0.931 . S
H721 C709 0.930 . S
H722 C710 0.956 . S
H723 C710 0.961 . S
H724 C710 0.961 . S
H725 C711 0.958 . S
H726 C711 0.961 . S
H727 C711 0.960 . S
C728 C729 1.391 . S
C728 C730 1.394 . S
C728 H744 0.931 . S
C729 C728 1.391 . S
C729 C733 1.376 . S
C730 C728 1.394 . S
C730 C731 1.369 . S
C730 C734 1.531 . S
C731 C730 1.369 . S
C731 C732 1.410 . S
C731 C739 1.503 . S
C732 C731 1.410 . S
C732 C733 1.392 . S
C732 C735 1.511 . S
C733 C729 1.376 . S
C733 C732 1.392 . S
C733 H745 0.929 . S
C734 C730 1.531 . S
C734 H746 0.960 . S
C734 H747 0.962 . S
C734 H748 0.960 . S
C735 C732 1.511 . S
C735 H749 0.961 . S
C735 H750 0.961 . S
C735 H751 0.961 . S
C736 C737 1.370 . S
C736 C738 1.363 . S
C736 H752 0.931 . S
C737 C736 1.370 . S
C737 C741 1.408 . S
C738 C736 1.363 . S
C738 C739 1.370 . S
C738 C742 1.524 . S
C739 C731 1.503 . S
C739 C738 1.370 . S
C739 C740 1.403 . S
C740 C739 1.403 . S
C740 C741 1.404 . S
C740 C743 1.539 . S
C741 C737 1.408 . S
C741 C740 1.404 . S
C741 H753 0.930 . S
C742 C738 1.524 . S
C742 H754 0.956 . S
C742 H755 0.961 . S
C742 H756 0.961 . S
C743 C740 1.539 . S
C743 H757 0.958 . S
C743 H758 0.961 . S
C743 H759 0.960 . S
H744 C728 0.931 . S
H745 C733 0.929 . S
H746 C734 0.960 . S
H747 C734 0.962 . S
H748 C734 0.960 . S
H749 C735 0.961 . S
H750 C735 0.961 . S
H751 C735 0.961 . S
H752 C736 0.931 . S
H753 C741 0.930 . S
H754 C742 0.956 . S
H755 C742 0.961 . S
H756 C742 0.961 . S
H757 C743 0.958 . S
H758 C743 0.961 . S
H759 C743 0.960 . S
C760 C761 1.391 . S
C760 C762 1.394 1_655 S
C760 H776 0.931 . S
C761 C760 1.391 . S
C761 C765 1.376 . S
C762 C760 1.394 1_455 S
C762 C763 1.369 . S
C762 C766 1.531 . S
C763 C762 1.369 . S
C763 C764 1.410 . S
C763 C771 1.503 . S
C764 C763 1.410 . S
C764 C765 1.392 1_455 S
C764 C767 1.511 . S
C765 C761 1.376 . S
C765 C764 1.392 1_655 S
C765 H777 0.929 . S
C766 C762 1.531 . S
C766 H778 0.960 . S
C766 H779 0.962 . S
C766 H780 0.960 . S
C767 C764 1.511 . S
C767 H781 0.961 . S
C767 H782 0.961 . S
C767 H783 0.961 . S
C768 C769 1.370 . S
C768 C770 1.363 . S
C768 H784 0.931 . S
C769 C768 1.370 . S
C769 C773 1.408 . S
C770 C768 1.363 . S
C770 C771 1.370 . S
C770 C774 1.524 . S
C771 C763 1.503 . S
C771 C770 1.370 . S
C771 C772 1.403 . S
C772 C771 1.403 . S
C772 C773 1.404 . S
C772 C775 1.539 . S
C773 C769 1.408 . S
C773 C772 1.404 . S
C773 H785 0.930 . S
C774 C770 1.524 . S
C774 H786 0.956 . S
C774 H787 0.961 . S
C774 H788 0.961 . S
C775 C772 1.539 . S
C775 H789 0.958 . S
C775 H790 0.961 . S
C775 H791 0.960 . S
H776 C760 0.931 . S
H777 C765 0.929 . S
H778 C766 0.960 . S
H779 C766 0.962 . S
H780 C766 0.960 . S
H781 C767 0.961 . S
H782 C767 0.961 . S
H783 C767 0.961 . S
H784 C768 0.931 . S
H785 C773 0.930 . S
H786 C774 0.956 . S
H787 C774 0.961 . S
H788 C774 0.961 . S
H789 C775 0.958 . S
H790 C775 0.961 . S
H791 C775 0.960 . S
C792 C793 1.391 . S
C792 C794 1.394 . S
C792 H808 0.931 . S
C793 C792 1.391 . S
C793 C797 1.376 . S
C794 C792 1.394 . S
C794 C795 1.369 . S
C794 C798 1.531 . S
C795 C794 1.369 . S
C795 C796 1.410 . S
C795 C803 1.503 . S
C796 C795 1.410 . S
C796 C797 1.392 . S
C796 C799 1.511 . S
C797 C793 1.376 . S
C797 C796 1.392 . S
C797 H809 0.929 . S
C798 C794 1.531 . S
C798 H810 0.960 . S
C798 H811 0.962 . S
C798 H812 0.960 . S
C799 C796 1.511 . S
C799 H813 0.961 . S
C799 H814 0.961 . S
C799 H815 0.961 . S
C800 C801 1.370 . S
C800 C802 1.363 1_565 S
C800 H816 0.931 . S
C801 C800 1.370 . S
C801 C805 1.408 . S
C802 C800 1.363 1_545 S
C802 C803 1.370 . S
C802 C806 1.524 . S
C803 C795 1.503 . S
C803 C802 1.370 . S
C803 C804 1.403 . S
C804 C803 1.403 . S
C804 C805 1.404 1_545 S
C804 C807 1.539 . S
C805 C801 1.408 . S
C805 C804 1.404 1_565 S
C805 H817 0.930 . S
C806 C802 1.524 . S
C806 H818 0.956 . S
C806 H819 0.961 . S
C806 H820 0.961 . S
C807 C804 1.539 . S
C807 H821 0.958 . S
C807 H822 0.961 . S
C807 H823 0.960 . S
H808 C792 0.931 . S
H809 C797 0.929 . S
H810 C798 0.960 . S
H811 C798 0.962 . S
H812 C798 0.960 . S
H813 C799 0.961 . S
H814 C799 0.961 . S
H815 C799 0.961 . S
H816 C800 0.931 . S
H817 C805 0.930 . S
H818 C806 0.956 . S
H819 C806 0.961 . S
H820 C806 0.961 . S
H821 C807 0.958 . S
H822 C807 0.961 . S
H823 C807 0.960 . S
C824 C825 1.391 . S
C824 C826 1.394 . S
C824 H840 0.931 . S
C825 C824 1.391 . S
C825 C829 1.376 . S
C826 C824 1.394 . S
C826 C827 1.369 . S
C826 C830 1.531 . S
C827 C826 1.369 . S
C827 C828 1.410 . S
C827 C835 1.503 . S
C828 C827 1.410 . S
C828 C829 1.392 . S
C828 C831 1.511 . S
C829 C825 1.376 . S
C829 C828 1.392 . S
C829 H841 0.929 . S
C830 C826 1.531 . S
C830 H842 0.960 . S
C830 H843 0.962 . S
C830 H844 0.960 . S
C831 C828 1.511 . S
C831 H845 0.961 . S
C831 H846 0.961 . S
C831 H847 0.961 . S
C832 C833 1.370 . S
C832 C834 1.363 . S
C832 H848 0.931 . S
C833 C832 1.370 . S
C833 C837 1.408 . S
C834 C832 1.363 . S
C834 C835 1.370 . S
C834 C838 1.524 . S
C835 C827 1.503 . S
C835 C834 1.370 . S
C835 C836 1.403 . S
C836 C835 1.403 . S
C836 C837 1.404 . S
C836 C839 1.539 . S
C837 C833 1.408 . S
C837 C836 1.404 . S
C837 H849 0.930 . S
C838 C834 1.524 . S
C838 H850 0.956 . S
C838 H851 0.961 . S
C838 H852 0.961 . S
C839 C836 1.539 . S
C839 H853 0.958 . S
C839 H854 0.961 . S
C839 H855 0.960 . S
H840 C824 0.931 . S
H841 C829 0.929 . S
H842 C830 0.960 . S
H843 C830 0.962 . S
H844 C830 0.960 . S
H845 C831 0.961 . S
H846 C831 0.961 . S
H847 C831 0.961 . S
H848 C832 0.931 . S
H849 C837 0.930 . S
H850 C838 0.956 . S
H851 C838 0.961 . S
H852 C838 0.961 . S
H853 C839 0.958 . S
H854 C839 0.961 . S
H855 C839 0.960 . S
C856 C857 1.391 . S
C856 C858 1.394 1_455 S
C856 H872 0.931 . S
C857 C856 1.391 . S
C857 C861 1.376 . S
C858 C856 1.394 1_655 S
C858 C859 1.369 . S
C858 C862 1.531 . S
C859 C858 1.369 . S
C859 C860 1.410 . S
C859 C867 1.503 . S
C860 C859 1.410 . S
C860 C861 1.392 1_655 S
C860 C863 1.511 . S
C861 C857 1.376 . S
C861 C860 1.392 1_455 S
C861 H873 0.929 . S
C862 C858 1.531 . S
C862 H874 0.960 . S
C862 H875 0.962 . S
C862 H876 0.960 . S
C863 C860 1.511 . S
C863 H877 0.961 . S
C863 H878 0.961 . S
C863 H879 0.961 . S
C864 C865 1.370 . S
C864 C866 1.363 . S
C864 H880 0.931 . S
C865 C864 1.370 . S
C865 C869 1.408 . S
C866 C864 1.363 . S
C866 C867 1.370 . S
C866 C870 1.524 . S
C867 C859 1.503 . S
C867 C866 1.370 . S
C867 C868 1.403 . S
C868 C867 1.403 . S
C868 C869 1.404 . S
C868 C871 1.539 . S
C869 C865 1.408 . S
C869 C868 1.404 . S
C869 H881 0.930 . S
C870 C866 1.524 . S
C870 H882 0.956 . S
C870 H883 0.961 . S
C870 H884 0.961 . S
C871 C868 1.539 . S
C871 H885 0.958 . S
C871 H886 0.961 . S
C871 H887 0.960 . S
H872 C856 0.931 . S
H873 C861 0.929 . S
H874 C862 0.960 . S
H875 C862 0.962 . S
H876 C862 0.960 . S
H877 C863 0.961 . S
H878 C863 0.961 . S
H879 C863 0.961 . S
H880 C864 0.931 . S
H881 C869 0.930 . S
H882 C870 0.956 . S
H883 C870 0.961 . S
H884 C870 0.961 . S
H885 C871 0.958 . S
H886 C871 0.961 . S
H887 C871 0.960 . S
C888 C889 1.391 . S
C888 C890 1.394 . S
C888 H904 0.931 . S
C889 C888 1.391 . S
C889 C893 1.376 . S
C890 C888 1.394 . S
C890 C891 1.369 . S
C890 C894 1.531 . S
C891 C890 1.369 . S
C891 C892 1.410 . S
C891 C899 1.503 . S
C892 C891 1.410 . S
C892 C893 1.392 . S
C892 C895 1.511 . S
C893 C889 1.376 . S
C893 C892 1.392 . S
C893 H905 0.929 . S
C894 C890 1.531 . S
C894 H906 0.960 . S
C894 H907 0.962 . S
C894 H908 0.960 . S
C895 C892 1.511 . S
C895 H909 0.961 . S
C895 H910 0.961 . S
C895 H911 0.961 . S
C896 C897 1.381 . S
C896 C898 1.355 1_655 S
C896 H912 0.929 . S
C897 C896 1.381 . S
C897 C901 1.408 . S
C898 C896 1.355 1_455 S
C898 C899 1.370 . S
C898 C902 1.524 . S
C899 C891 1.503 . S
C899 C898 1.370 . S
C899 C900 1.403 . S
C900 C899 1.403 . S
C900 C901 1.404 1_455 S
C900 C903 1.539 . S
C901 C897 1.408 . S
C901 C900 1.404 1_655 S
C901 H913 0.930 . S
C902 C898 1.524 . S
C902 H914 0.956 . S
C902 H915 0.961 . S
C902 H916 0.961 . S
C903 C900 1.539 . S
C903 H917 0.958 . S
C903 H918 0.961 . S
C903 H919 0.960 . S
H904 C888 0.931 . S
H905 C893 0.929 . S
H906 C894 0.960 . S
H907 C894 0.962 . S
H908 C894 0.960 . S
H909 C895 0.961 . S
H910 C895 0.961 . S
H911 C895 0.961 . S
H912 C896 0.929 . S
H913 C901 0.930 . S
H914 C902 0.956 . S
H915 C902 0.961 . S
H916 C902 0.961 . S
H917 C903 0.958 . S
H918 C903 0.961 . S
H919 C903 0.960 . S
C920 C921 1.391 . S
C920 C922 1.394 . S
C920 H936 0.931 . S
C921 C920 1.391 . S
C921 C925 1.376 . S
C922 C920 1.394 . S
C922 C923 1.369 . S
C922 C926 1.531 . S
C923 C922 1.369 . S
C923 C924 1.410 . S
C923 C931 1.503 . S
C924 C923 1.410 . S
C924 C925 1.392 . S
C924 C927 1.511 . S
C925 C921 1.376 . S
C925 C924 1.392 . S
C925 H937 0.929 . S
C926 C922 1.531 . S
C926 H938 0.960 . S
C926 H939 0.962 . S
C926 H940 0.960 . S
C927 C924 1.511 . S
C927 H941 0.961 . S
C927 H942 0.961 . S
C927 H943 0.961 . S
C928 C929 1.370 . S
C928 C930 1.363 1_565 S
C928 H944 0.931 . S
C929 C928 1.370 . S
C929 C933 1.408 . S
C930 C928 1.363 1_545 S
C930 C931 1.370 . S
C930 C934 1.524 . S
C931 C923 1.503 . S
C931 C930 1.370 . S
C931 C932 1.403 . S
C932 C931 1.403 . S
C932 C933 1.404 1_545 S
C932 C935 1.539 . S
C933 C929 1.408 . S
C933 C932 1.404 1_565 S
C933 H945 0.930 . S
C934 C930 1.524 . S
C934 H946 0.956 . S
C934 H947 0.961 . S
C934 H948 0.961 . S
C935 C932 1.539 . S
C935 H949 0.958 . S
C935 H950 0.961 . S
C935 H951 0.960 . S
H936 C920 0.931 . S
H937 C925 0.929 . S
H938 C926 0.960 . S
H939 C926 0.962 . S
H940 C926 0.960 . S
H941 C927 0.961 . S
H942 C927 0.961 . S
H943 C927 0.961 . S
H944 C928 0.931 . S
H945 C933 0.930 . S
H946 C934 0.956 . S
H947 C934 0.961 . S
H948 C934 0.961 . S
H949 C935 0.958 . S
H950 C935 0.961 . S
H951 C935 0.960 . S
C952 C953 1.391 . S
C952 C954 1.394 . S
C952 H968 0.931 . S
C953 C952 1.391 . S
C953 C957 1.376 . S
C954 C952 1.394 . S
C954 C955 1.369 . S
C954 C958 1.531 . S
C955 C954 1.369 . S
C955 C956 1.410 . S
C955 C963 1.503 . S
C956 C955 1.410 . S
C956 C957 1.392 . S
C956 C959 1.511 . S
C957 C953 1.376 . S
C957 C956 1.392 . S
C957 H969 0.929 . S
C958 C954 1.531 . S
C958 H970 0.960 . S
C958 H971 0.962 . S
C958 H972 0.960 . S
C959 C956 1.511 . S
C959 H973 0.961 . S
C959 H974 0.961 . S
C959 H975 0.961 . S
C960 C961 1.370 . S
C960 C962 1.363 . S
C960 H976 0.931 . S
C961 C960 1.370 . S
C961 C965 1.408 . S
C962 C960 1.363 . S
C962 C963 1.370 . S
C962 C966 1.524 . S
C963 C955 1.503 . S
C963 C962 1.370 . S
C963 C964 1.403 . S
C964 C963 1.403 . S
C964 C965 1.404 . S
C964 C967 1.539 . S
C965 C961 1.408 . S
C965 C964 1.404 . S
C965 H977 0.930 . S
C966 C962 1.524 . S
C966 H978 0.956 . S
C966 H979 0.961 . S
C966 H980 0.961 . S
C967 C964 1.539 . S
C967 H981 0.958 . S
C967 H982 0.961 . S
C967 H983 0.960 . S
H968 C952 0.931 . S
H969 C957 0.929 . S
H970 C958 0.960 . S
H971 C958 0.962 . S
H972 C958 0.960 . S
H973 C959 0.961 . S
H974 C959 0.961 . S
H975 C959 0.961 . S
H976 C960 0.931 . S
H977 C965 0.930 . S
H978 C966 0.956 . S
H979 C966 0.961 . S
H980 C966 0.961 . S
H981 C967 0.958 . S
H982 C967 0.961 . S
H983 C967 0.960 . S
C984 C985 1.391 . S
C984 C986 1.394 1_455 S
C984 H1000 0.931 . S
C985 C984 1.391 . S
C985 C989 1.376 . S
C986 C984 1.394 1_655 S
C986 C987 1.369 . S
C986 C990 1.531 . S
C987 C986 1.369 . S
C987 C988 1.410 . S
C987 C995 1.503 . S
C988 C987 1.410 . S
C988 C989 1.392 1_655 S
C988 C991 1.511 . S
C989 C985 1.376 . S
C989 C988 1.392 1_455 S
C989 H1001 0.929 . S
C990 C986 1.531 . S
C990 H1002 0.960 . S
C990 H1003 0.962 . S
C990 H1004 0.960 . S
C991 C988 1.511 . S
C991 H1005 0.961 . S
C991 H1006 0.961 . S
C991 H1007 0.961 . S
C992 C993 1.370 . S
C992 C994 1.363 . S
C992 H1008 0.931 . S
C993 C992 1.370 . S
C993 C997 1.408 . S
C994 C992 1.363 . S
C994 C995 1.370 . S
C994 C998 1.524 . S
C995 C987 1.503 . S
C995 C994 1.370 . S
C995 C996 1.403 . S
C996 C995 1.403 . S
C996 C997 1.404 . S
C996 C999 1.539 . S
C997 C993 1.408 . S
C997 C996 1.404 . S
C997 H1009 0.930 . S
C998 C994 1.524 . S
C998 H1010 0.956 . S
C998 H1011 0.961 . S
C998 H1012 0.961 . S
C999 C996 1.539 . S
C999 H1013 0.958 . S
C999 H1014 0.961 . S
C999 H1015 0.960 . S
H1000 C984 0.931 . S
H1001 C989 0.929 . S
H1002 C990 0.960 . S
H1003 C990 0.962 . S
H1004 C990 0.960 . S
H1005 C991 0.961 . S
H1006 C991 0.961 . S
H1007 C991 0.961 . S
H1008 C992 0.931 . S
H1009 C997 0.930 . S
H1010 C998 0.956 . S
H1011 C998 0.961 . S
H1012 C998 0.961 . S
H1013 C999 0.958 . S
H1014 C999 0.961 . S
H1015 C999 0.960 . S
C1016 C1017 1.391 . S
C1016 C1018 1.394 . S
C1016 H1032 0.931 . S
C1017 C1016 1.391 . S
C1017 C1021 1.376 . S
C1018 C1016 1.394 . S
C1018 C1019 1.369 . S
C1018 C1022 1.531 . S
C1019 C1018 1.369 . S
C1019 C1020 1.410 . S
C1019 C1027 1.503 . S
C1020 C1019 1.410 . S
C1020 C1021 1.392 . S
C1020 C1023 1.511 . S
C1021 C1017 1.376 . S
C1021 C1020 1.392 . S
C1021 H1033 0.929 . S
C1022 C1018 1.531 . S
C1022 H1034 0.960 . S
C1022 H1035 0.962 . S
C1022 H1036 0.960 . S
C1023 C1020 1.511 . S
C1023 H1037 0.961 . S
C1023 H1038 0.961 . S
C1023 H1039 0.961 . S
C1024 C1025 1.369 1_565 S
C1024 C1026 1.369 . S
C1024 H1040 0.927 1_565 S
C1025 C1024 1.369 1_545 S
C1025 C1029 1.408 . S
C1026 C1024 1.369 . S
C1026 C1027 1.370 . S
C1026 C1030 1.524 . S
C1027 C1019 1.503 . S
C1027 C1026 1.370 . S
C1027 C1028 1.403 . S
C1028 C1027 1.403 . S
C1028 C1029 1.404 1_565 S
C1028 C1031 1.539 . S
C1029 C1025 1.408 . S
C1029 C1028 1.404 1_545 S
C1029 H1041 0.930 . S
C1030 C1026 1.524 . S
C1030 H1042 0.956 . S
C1030 H1043 0.961 . S
C1030 H1044 0.961 . S
C1031 C1028 1.539 . S
C1031 H1045 0.958 . S
C1031 H1046 0.961 . S
C1031 H1047 0.960 . S
H1032 C1016 0.931 . S
H1033 C1021 0.929 . S
H1034 C1022 0.960 . S
H1035 C1022 0.962 . S
H1036 C1022 0.960 . S
H1037 C1023 0.961 . S
H1038 C1023 0.961 . S
H1039 C1023 0.961 . S
H1040 C1024 0.927 1_545 S
H1041 C1029 0.930 . S
H1042 C1030 0.956 . S
H1043 C1030 0.961 . S
H1044 C1030 0.961 . S
H1045 C1031 0.958 . S
H1046 C1031 0.961 . S
H1047 C1031 0.960 . S
C1048 C1049 1.391 . S
C1048 C1050 1.394 . S
C1048 H1064 0.931 . S
C1049 C1048 1.391 . S
C1049 C1053 1.376 . S
C1050 C1048 1.394 . S
C1050 C1051 1.369 . S
C1050 C1054 1.531 . S
C1051 C1050 1.369 . S
C1051 C1052 1.410 . S
C1051 C1059 1.503 . S
C1052 C1051 1.410 . S
C1052 C1053 1.392 . S
C1052 C1055 1.511 . S
C1053 C1049 1.376 . S
C1053 C1052 1.392 . S
C1053 H1065 0.929 . S
C1054 C1050 1.531 . S
C1054 H1066 0.960 . S
C1054 H1067 0.962 . S
C1054 H1068 0.960 . S
C1055 C1052 1.511 . S
C1055 H1069 0.961 . S
C1055 H1070 0.961 . S
C1055 H1071 0.961 . S
C1056 C1057 1.370 . S
C1056 C1058 1.363 . S
C1056 H1072 0.931 . S
C1057 C1056 1.370 . S
C1057 C1061 1.408 . S
C1058 C1056 1.363 . S
C1058 C1059 1.370 . S
C1058 C1062 1.524 . S
C1059 C1051 1.503 . S
C1059 C1058 1.370 . S
C1059 C1060 1.403 . S
C1060 C1059 1.403 . S
C1060 C1061 1.404 . S
C1060 C1063 1.539 . S
C1061 C1057 1.408 . S
C1061 C1060 1.404 . S
C1061 H1073 0.930 . S
C1062 C1058 1.524 . S
C1062 H1074 0.956 . S
C1062 H1075 0.961 . S
C1062 H1076 0.961 . S
C1063 C1060 1.539 . S
C1063 H1077 0.958 . S
C1063 H1078 0.961 . S
C1063 H1079 0.960 . S
H1064 C1048 0.931 . S
H1065 C1053 0.929 . S
H1066 C1054 0.960 . S
H1067 C1054 0.962 . S
H1068 C1054 0.960 . S
H1069 C1055 0.961 . S
H1070 C1055 0.961 . S
H1071 C1055 0.961 . S
H1072 C1056 0.931 . S
H1073 C1061 0.930 . S
H1074 C1062 0.956 . S
H1075 C1062 0.961 . S
H1076 C1062 0.961 . S
H1077 C1063 0.958 . S
H1078 C1063 0.961 . S
H1079 C1063 0.960 . S
C1080 C1081 1.391 . S
C1080 C1082 1.394 . S
C1080 H1096 0.931 . S
C1081 C1080 1.391 . S
C1081 C1085 1.376 . S
C1082 C1080 1.394 . S
C1082 C1083 1.369 . S
C1082 C1086 1.531 . S
C1083 C1082 1.369 . S
C1083 C1084 1.410 . S
C1083 C1091 1.503 . S
C1084 C1083 1.410 . S
C1084 C1085 1.392 . S
C1084 C1087 1.511 . S
C1085 C1081 1.376 . S
C1085 C1084 1.392 . S
C1085 H1097 0.929 . S
C1086 C1082 1.531 . S
C1086 H1098 0.960 . S
C1086 H1099 0.962 . S
C1086 H1100 0.960 . S
C1087 C1084 1.511 . S
C1087 H1101 0.961 . S
C1087 H1102 0.961 . S
C1087 H1103 0.961 . S
C1088 C1089 1.370 . S
C1088 C1090 1.363 1_565 S
C1088 H1104 0.931 . S
C1089 C1088 1.370 . S
C1089 C1093 1.408 . S
C1090 C1088 1.363 1_545 S
C1090 C1091 1.370 . S
C1090 C1094 1.524 . S
C1091 C1083 1.503 . S
C1091 C1090 1.370 . S
C1091 C1092 1.403 . S
C1092 C1091 1.403 . S
C1092 C1093 1.404 1_545 S
C1092 C1095 1.539 . S
C1093 C1089 1.408 . S
C1093 C1092 1.404 1_565 S
C1093 H1105 0.930 . S
C1094 C1090 1.524 . S
C1094 H1106 0.956 . S
C1094 H1107 0.961 . S
C1094 H1108 0.961 . S
C1095 C1092 1.539 . S
C1095 H1109 0.958 . S
C1095 H1110 0.961 . S
C1095 H1111 0.960 . S
H1096 C1080 0.931 . S
H1097 C1085 0.929 . S
H1098 C1086 0.960 . S
H1099 C1086 0.962 . S
H1100 C1086 0.960 . S
H1101 C1087 0.961 . S
H1102 C1087 0.961 . S
H1103 C1087 0.961 . S
H1104 C1088 0.931 . S
H1105 C1093 0.930 . S
H1106 C1094 0.956 . S
H1107 C1094 0.961 . S
H1108 C1094 0.961 . S
H1109 C1095 0.958 . S
H1110 C1095 0.961 . S
H1111 C1095 0.960 . S
C1112 C1113 1.391 . S
C1112 C1114 1.394 . S
C1112 H1128 0.931 . S
C1113 C1112 1.391 . S
C1113 C1117 1.376 . S
C1114 C1112 1.394 . S
C1114 C1115 1.369 . S
C1114 C1118 1.531 . S
C1115 C1114 1.369 . S
C1115 C1116 1.410 . S
C1115 C1123 1.503 . S
C1116 C1115 1.410 . S
C1116 C1117 1.392 . S
C1116 C1119 1.511 . S
C1117 C1113 1.376 . S
C1117 C1116 1.392 . S
C1117 H1129 0.929 . S
C1118 C1114 1.531 . S
C1118 H1130 0.960 . S
C1118 H1131 0.962 . S
C1118 H1132 0.960 . S
C1119 C1116 1.511 . S
C1119 H1133 0.961 . S
C1119 H1134 0.961 . S
C1119 H1135 0.961 . S
C1120 C1121 1.370 . S
C1120 C1122 1.363 . S
C1120 H1136 0.931 . S
C1121 C1120 1.370 . S
C1121 C1125 1.408 . S
C1122 C1120 1.363 . S
C1122 C1123 1.370 . S
C1122 C1126 1.524 . S
C1123 C1115 1.503 . S
C1123 C1122 1.370 . S
C1123 C1124 1.403 . S
C1124 C1123 1.403 . S
C1124 C1125 1.404 . S
C1124 C1127 1.539 . S
C1125 C1121 1.408 . S
C1125 C1124 1.404 . S
C1125 H1137 0.930 . S
C1126 C1122 1.524 . S
C1126 H1138 0.956 . S
C1126 H1139 0.961 . S
C1126 H1140 0.961 . S
C1127 C1124 1.539 . S
C1127 H1141 0.958 . S
C1127 H1142 0.961 . S
C1127 H1143 0.960 . S
H1128 C1112 0.931 . S
H1129 C1117 0.929 . S
H1130 C1118 0.960 . S
H1131 C1118 0.962 . S
H1132 C1118 0.960 . S
H1133 C1119 0.961 . S
H1134 C1119 0.961 . S
H1135 C1119 0.961 . S
H1136 C1120 0.931 . S
H1137 C1125 0.930 . S
H1138 C1126 0.956 . S
H1139 C1126 0.961 . S
H1140 C1126 0.961 . S
H1141 C1127 0.958 . S
H1142 C1127 0.961 . S
H1143 C1127 0.960 . S
C1144 C1145 1.391 . S
C1144 C1146 1.394 1_455 S
C1144 H1160 0.931 . S
C1145 C1144 1.391 . S
C1145 C1149 1.376 . S
C1146 C1144 1.394 1_655 S
C1146 C1147 1.369 . S
C1146 C1150 1.531 . S
C1147 C1146 1.369 . S
C1147 C1148 1.410 . S
C1147 C1155 1.503 . S
C1148 C1147 1.410 . S
C1148 C1149 1.392 1_655 S
C1148 C1151 1.511 . S
C1149 C1145 1.376 . S
C1149 C1148 1.392 1_455 S
C1149 H1161 0.929 . S
C1150 C1146 1.531 . S
C1150 H1162 0.960 . S
C1150 H1163 0.962 . S
C1150 H1164 0.960 . S
C1151 C1148 1.511 . S
C1151 H1165 0.961 . S
C1151 H1166 0.961 . S
C1151 H1167 0.961 . S
C1152 C1153 1.370 . S
C1152 C1154 1.363 . S
C1152 H1168 0.931 . S
C1153 C1152 1.370 . S
C1153 C1157 1.408 . S
C1154 C1152 1.363 . S
C1154 C1155 1.370 . S
C1154 C1158 1.524 . S
C1155 C1147 1.503 . S
C1155 C1154 1.370 . S
C1155 C1156 1.403 . S
C1156 C1155 1.403 . S
C1156 C1157 1.404 . S
C1156 C1159 1.539 . S
C1157 C1153 1.408 . S
C1157 C1156 1.404 . S
C1157 H1169 0.930 . S
C1158 C1154 1.524 . S
C1158 H1170 0.956 . S
C1158 H1171 0.961 . S
C1158 H1172 0.961 . S
C1159 C1156 1.539 . S
C1159 H1173 0.958 . S
C1159 H1174 0.961 . S
C1159 H1175 0.960 . S
H1160 C1144 0.931 . S
H1161 C1149 0.929 . S
H1162 C1150 0.960 . S
H1163 C1150 0.962 . S
H1164 C1150 0.960 . S
H1165 C1151 0.961 . S
H1166 C1151 0.961 . S
H1167 C1151 0.961 . S
H1168 C1152 0.931 . S
H1169 C1157 0.930 . S
H1170 C1158 0.956 . S
H1171 C1158 0.961 . S
H1172 C1158 0.961 . S
H1173 C1159 0.958 . S
H1174 C1159 0.961 . S
H1175 C1159 0.960 . S
C1176 C1177 1.391 . S
C1176 C1178 1.394 1_545 S
C1176 H1192 0.931 . S
C1177 C1176 1.391 . S
C1177 C1181 1.376 . S
C1178 C1176 1.394 1_565 S
C1178 C1179 1.369 . S
C1178 C1182 1.531 . S
C1179 C1178 1.369 . S
C1179 C1180 1.410 . S
C1179 C1187 1.503 . S
C1180 C1179 1.410 . S
C1180 C1181 1.392 1_565 S
C1180 C1183 1.511 . S
C1181 C1177 1.376 . S
C1181 C1180 1.392 1_545 S
C1181 H1193 0.929 . S
C1182 C1178 1.531 . S
C1182 H1194 0.960 . S
C1182 H1195 0.962 . S
C1182 H1196 0.960 . S
C1183 C1180 1.511 . S
C1183 H1197 0.961 . S
C1183 H1198 0.961 . S
C1183 H1199 0.961 . S
C1184 C1185 1.370 . S
C1184 C1186 1.363 . S
C1184 H1200 0.931 . S
C1185 C1184 1.370 . S
C1185 C1189 1.408 . S
C1186 C1184 1.363 . S
C1186 C1187 1.370 . S
C1186 C1190 1.524 . S
C1187 C1179 1.503 . S
C1187 C1186 1.370 . S
C1187 C1188 1.403 . S
C1188 C1187 1.403 . S
C1188 C1189 1.404 . S
C1188 C1191 1.539 . S
C1189 C1185 1.408 . S
C1189 C1188 1.404 . S
C1189 H1201 0.930 . S
C1190 C1186 1.524 . S
C1190 H1202 0.956 . S
C1190 H1203 0.961 . S
C1190 H1204 0.961 . S
C1191 C1188 1.539 . S
C1191 H1205 0.958 . S
C1191 H1206 0.961 . S
C1191 H1207 0.960 . S
H1192 C1176 0.931 . S
H1193 C1181 0.929 . S
H1194 C1182 0.960 . S
H1195 C1182 0.962 . S
H1196 C1182 0.960 . S
H1197 C1183 0.961 . S
H1198 C1183 0.961 . S
H1199 C1183 0.961 . S
H1200 C1184 0.931 . S
H1201 C1189 0.930 . S
H1202 C1190 0.956 . S
H1203 C1190 0.961 . S
H1204 C1190 0.961 . S
H1205 C1191 0.958 . S
H1206 C1191 0.961 . S
H1207 C1191 0.960 . S
C1208 C1209 1.391 . S
C1208 C1210 1.394 . S
C1208 H1224 0.931 . S
C1209 C1208 1.391 . S
C1209 C1213 1.376 . S
C1210 C1208 1.394 . S
C1210 C1211 1.369 . S
C1210 C1214 1.531 . S
C1211 C1210 1.369 . S
C1211 C1212 1.410 . S
C1211 C1219 1.503 . S
C1212 C1211 1.410 . S
C1212 C1213 1.392 . S
C1212 C1215 1.511 . S
C1213 C1209 1.376 . S
C1213 C1212 1.392 . S
C1213 H1225 0.929 . S
C1214 C1210 1.531 . S
C1214 H1226 0.960 . S
C1214 H1227 0.962 . S
C1214 H1228 0.960 . S
C1215 C1212 1.511 . S
C1215 H1229 0.961 . S
C1215 H1230 0.961 . S
C1215 H1231 0.961 . S
C1216 C1217 1.370 . S
C1216 C1218 1.363 . S
C1216 H1232 0.931 . S
C1217 C1216 1.370 . S
C1217 C1221 1.408 . S
C1218 C1216 1.363 . S
C1218 C1219 1.370 . S
C1218 C1222 1.524 . S
C1219 C1211 1.503 . S
C1219 C1218 1.370 . S
C1219 C1220 1.403 . S
C1220 C1219 1.403 . S
C1220 C1221 1.404 . S
C1220 C1223 1.539 . S
C1221 C1217 1.408 . S
C1221 C1220 1.404 . S
C1221 H1233 0.930 . S
C1222 C1218 1.524 . S
C1222 H1234 0.956 . S
C1222 H1235 0.961 . S
C1222 H1236 0.961 . S
C1223 C1220 1.539 . S
C1223 H1237 0.958 . S
C1223 H1238 0.961 . S
C1223 H1239 0.960 . S
H1224 C1208 0.931 . S
H1225 C1213 0.929 . S
H1226 C1214 0.960 . S
H1227 C1214 0.962 . S
H1228 C1214 0.960 . S
H1229 C1215 0.961 . S
H1230 C1215 0.961 . S
H1231 C1215 0.961 . S
H1232 C1216 0.931 . S
H1233 C1221 0.930 . S
H1234 C1222 0.956 . S
H1235 C1222 0.961 . S
H1236 C1222 0.961 . S
H1237 C1223 0.958 . S
H1238 C1223 0.961 . S
H1239 C1223 0.960 . S
C1240 C1241 1.391 . S
C1240 C1242 1.394 1_655 S
C1240 H1256 0.931 . S
C1241 C1240 1.391 . S
C1241 C1245 1.376 . S
C1242 C1240 1.394 1_455 S
C1242 C1243 1.369 . S
C1242 C1246 1.531 . S
C1243 C1242 1.369 . S
C1243 C1244 1.410 . S
C1243 C1251 1.503 . S
C1244 C1243 1.410 . S
C1244 C1245 1.392 1_455 S
C1244 C1247 1.511 . S
C1245 C1241 1.376 . S
C1245 C1244 1.392 1_655 S
C1245 H1257 0.929 . S
C1246 C1242 1.531 . S
C1246 H1258 0.960 . S
C1246 H1259 0.962 . S
C1246 H1260 0.960 . S
C1247 C1244 1.511 . S
C1247 H1261 0.961 . S
C1247 H1262 0.961 . S
C1247 H1263 0.961 . S
C1248 C1249 1.370 . S
C1248 C1250 1.363 . S
C1248 H1264 0.931 . S
C1249 C1248 1.370 . S
C1249 C1253 1.408 . S
C1250 C1248 1.363 . S
C1250 C1251 1.370 . S
C1250 C1254 1.524 . S
C1251 C1243 1.503 . S
C1251 C1250 1.370 . S
C1251 C1252 1.403 . S
C1252 C1251 1.403 . S
C1252 C1253 1.404 . S
C1252 C1255 1.539 . S
C1253 C1249 1.408 . S
C1253 C1252 1.404 . S
C1253 H1265 0.930 . S
C1254 C1250 1.524 . S
C1254 H1266 0.956 . S
C1254 H1267 0.961 . S
C1254 H1268 0.961 . S
C1255 C1252 1.539 . S
C1255 H1269 0.958 . S
C1255 H1270 0.961 . S
C1255 H1271 0.960 . S
H1256 C1240 0.931 . S
H1257 C1245 0.929 . S
H1258 C1246 0.960 . S
H1259 C1246 0.962 . S
H1260 C1246 0.960 . S
H1261 C1247 0.961 . S
H1262 C1247 0.961 . S
H1263 C1247 0.961 . S
H1264 C1248 0.931 . S
H1265 C1253 0.930 . S
H1266 C1254 0.956 . S
H1267 C1254 0.961 . S
H1268 C1254 0.961 . S
H1269 C1255 0.958 . S
H1270 C1255 0.961 . S
H1271 C1255 0.960 . S
C1272 C1273 1.391 . S
C1272 C1274 1.394 . S
C1272 H1288 0.931 . S
C1273 C1272 1.391 . S
C1273 C1277 1.376 . S
C1274 C1272 1.394 . S
C1274 C1275 1.369 . S
C1274 C1278 1.531 . S
C1275 C1274 1.369 . S
C1275 C1276 1.410 . S
C1275 C1283 1.503 . S
C1276 C1275 1.410 . S
C1276 C1277 1.392 . S
C1276 C1279 1.511 . S
C1277 C1273 1.376 . S
C1277 C1276 1.392 . S
C1277 H1289 0.929 . S
C1278 C1274 1.531 . S
C1278 H1290 0.960 . S
C1278 H1291 0.962 . S
C1278 H1292 0.960 . S
C1279 C1276 1.511 . S
C1279 H1293 0.961 . S
C1279 H1294 0.961 . S
C1279 H1295 0.961 . S
C1280 C1281 1.370 . S
C1280 C1282 1.363 1_455 S
C1280 H1296 0.931 . S
C1281 C1280 1.370 . S
C1281 C1285 1.408 . S
C1282 C1280 1.363 1_655 S
C1282 C1283 1.370 . S
C1282 C1286 1.524 . S
C1283 C1275 1.503 . S
C1283 C1282 1.370 . S
C1283 C1284 1.403 . S
C1284 C1283 1.403 . S
C1284 C1285 1.404 1_655 S
C1284 C1287 1.539 . S
C1285 C1281 1.408 . S
C1285 C1284 1.404 1_455 S
C1285 H1297 0.930 . S
C1286 C1282 1.524 . S
C1286 H1298 0.956 . S
C1286 H1299 0.961 . S
C1286 H1300 0.961 . S
C1287 C1284 1.539 . S
C1287 H1301 0.958 . S
C1287 H1302 0.961 . S
C1287 H1303 0.960 . S
H1288 C1272 0.931 . S
H1289 C1277 0.929 . S
H1290 C1278 0.960 . S
H1291 C1278 0.962 . S
H1292 C1278 0.960 . S
H1293 C1279 0.961 . S
H1294 C1279 0.961 . S
H1295 C1279 0.961 . S
H1296 C1280 0.931 . S
H1297 C1285 0.930 . S
H1298 C1286 0.956 . S
H1299 C1286 0.961 . S
H1300 C1286 0.961 . S
H1301 C1287 0.958 . S
H1302 C1287 0.961 . S
H1303 C1287 0.960 . S
C1304 C1305 1.391 . S
C1304 C1306 1.394 . S
C1304 H1320 0.931 . S
C1305 C1304 1.391 . S
C1305 C1309 1.376 . S
C1306 C1304 1.394 . S
C1306 C1307 1.369 . S
C1306 C1310 1.531 . S
C1307 C1306 1.369 . S
C1307 C1308 1.410 . S
C1307 C1315 1.503 . S
C1308 C1307 1.410 . S
C1308 C1309 1.392 . S
C1308 C1311 1.511 . S
C1309 C1305 1.376 . S
C1309 C1308 1.392 . S
C1309 H1321 0.929 . S
C1310 C1306 1.531 . S
C1310 H1322 0.960 . S
C1310 H1323 0.962 . S
C1310 H1324 0.960 . S
C1311 C1308 1.511 . S
C1311 H1325 0.961 . S
C1311 H1326 0.961 . S
C1311 H1327 0.961 . S
C1312 C1313 1.370 . S
C1312 C1314 1.363 1_545 S
C1312 H1328 0.931 . S
C1313 C1312 1.370 . S
C1313 C1317 1.408 . S
C1314 C1312 1.363 1_565 S
C1314 C1315 1.370 . S
C1314 C1318 1.524 . S
C1315 C1307 1.503 . S
C1315 C1314 1.370 . S
C1315 C1316 1.403 . S
C1316 C1315 1.403 . S
C1316 C1317 1.404 1_565 S
C1316 C1319 1.539 . S
C1317 C1313 1.408 . S
C1317 C1316 1.404 1_545 S
C1317 H1329 0.930 . S
C1318 C1314 1.524 . S
C1318 H1330 0.956 . S
C1318 H1331 0.961 . S
C1318 H1332 0.961 . S
C1319 C1316 1.539 . S
C1319 H1333 0.958 . S
C1319 H1334 0.961 . S
C1319 H1335 0.960 . S
H1320 C1304 0.931 . S
H1321 C1309 0.929 . S
H1322 C1310 0.960 . S
H1323 C1310 0.962 . S
H1324 C1310 0.960 . S
H1325 C1311 0.961 . S
H1326 C1311 0.961 . S
H1327 C1311 0.961 . S
H1328 C1312 0.931 . S
H1329 C1317 0.930 . S
H1330 C1318 0.956 . S
H1331 C1318 0.961 . S
H1332 C1318 0.961 . S
H1333 C1319 0.958 . S
H1334 C1319 0.961 . S
H1335 C1319 0.960 . S
C1336 C1337 1.391 . S
C1336 C1338 1.394 . S
C1336 H1352 0.931 . S
C1337 C1336 1.391 . S
C1337 C1341 1.376 . S
C1338 C1336 1.394 . S
C1338 C1339 1.369 . S
C1338 C1342 1.531 . S
C1339 C1338 1.369 . S
C1339 C1340 1.410 . S
C1339 C1347 1.503 . S
C1340 C1339 1.410 . S
C1340 C1341 1.392 . S
C1340 C1343 1.511 . S
C1341 C1337 1.376 . S
C1341 C1340 1.392 . S
C1341 H1353 0.929 . S
C1342 C1338 1.531 . S
C1342 H1354 0.960 . S
C1342 H1355 0.962 . S
C1342 H1356 0.960 . S
C1343 C1340 1.511 . S
C1343 H1357 0.961 . S
C1343 H1358 0.961 . S
C1343 H1359 0.961 . S
C1344 C1345 1.370 . S
C1344 C1346 1.363 . S
C1344 H1360 0.931 . S
C1345 C1344 1.370 . S
C1345 C1349 1.408 . S
C1346 C1344 1.363 . S
C1346 C1347 1.370 . S
C1346 C1350 1.524 . S
C1347 C1339 1.503 . S
C1347 C1346 1.370 . S
C1347 C1348 1.403 . S
C1348 C1347 1.403 . S
C1348 C1349 1.404 . S
C1348 C1351 1.539 . S
C1349 C1345 1.408 . S
C1349 C1348 1.404 . S
C1349 H1361 0.930 . S
C1350 C1346 1.524 . S
C1350 H1362 0.956 . S
C1350 H1363 0.961 . S
C1350 H1364 0.961 . S
C1351 C1348 1.539 . S
C1351 H1365 0.958 . S
C1351 H1366 0.961 . S
C1351 H1367 0.960 . S
H1352 C1336 0.931 . S
H1353 C1341 0.929 . S
H1354 C1342 0.960 . S
H1355 C1342 0.962 . S
H1356 C1342 0.960 . S
H1357 C1343 0.961 . S
H1358 C1343 0.961 . S
H1359 C1343 0.961 . S
H1360 C1344 0.931 . S
H1361 C1349 0.930 . S
H1362 C1350 0.956 . S
H1363 C1350 0.961 . S
H1364 C1350 0.961 . S
H1365 C1351 0.958 . S
H1366 C1351 0.961 . S
H1367 C1351 0.960 . S
C1368 C1369 1.391 . S
C1368 C1370 1.394 1_655 S
C1368 H1384 0.931 . S
C1369 C1368 1.391 . S
C1369 C1373 1.376 . S
C1370 C1368 1.394 1_455 S
C1370 C1371 1.369 . S
C1370 C1374 1.531 . S
C1371 C1370 1.369 . S
C1371 C1372 1.410 . S
C1371 C1379 1.503 . S
C1372 C1371 1.410 . S
C1372 C1373 1.392 1_455 S
C1372 C1375 1.511 . S
C1373 C1369 1.376 . S
C1373 C1372 1.392 1_655 S
C1373 H1385 0.929 . S
C1374 C1370 1.531 . S
C1374 H1386 0.960 . S
C1374 H1387 0.962 . S
C1374 H1388 0.960 . S
C1375 C1372 1.511 . S
C1375 H1389 0.961 . S
C1375 H1390 0.961 . S
C1375 H1391 0.961 . S
C1376 C1377 1.370 . S
C1376 C1378 1.363 . S
C1376 H1392 0.931 . S
C1377 C1376 1.370 . S
C1377 C1381 1.408 . S
C1378 C1376 1.363 . S
C1378 C1379 1.370 . S
C1378 C1382 1.524 . S
C1379 C1371 1.503 . S
C1379 C1378 1.370 . S
C1379 C1380 1.403 . S
C1380 C1379 1.403 . S
C1380 C1381 1.404 . S
C1380 C1383 1.539 . S
C1381 C1377 1.408 . S
C1381 C1380 1.404 . S
C1381 H1393 0.930 . S
C1382 C1378 1.524 . S
C1382 H1394 0.956 . S
C1382 H1395 0.961 . S
C1382 H1396 0.961 . S
C1383 C1380 1.539 . S
C1383 H1397 0.958 . S
C1383 H1398 0.961 . S
C1383 H1399 0.960 . S
H1384 C1368 0.931 . S
H1385 C1373 0.929 . S
H1386 C1374 0.960 . S
H1387 C1374 0.962 . S
H1388 C1374 0.960 . S
H1389 C1375 0.961 . S
H1390 C1375 0.961 . S
H1391 C1375 0.961 . S
H1392 C1376 0.931 . S
H1393 C1381 0.930 . S
H1394 C1382 0.956 . S
H1395 C1382 0.961 . S
H1396 C1382 0.961 . S
H1397 C1383 0.958 . S
H1398 C1383 0.961 . S
H1399 C1383 0.960 . S
C1400 C1401 1.391 . S
C1400 C1402 1.394 1_565 S
C1400 H1416 0.931 . S
C1401 C1400 1.391 . S
C1401 C1405 1.376 . S
C1402 C1400 1.394 1_545 S
C1402 C1403 1.369 . S
C1402 C1406 1.531 . S
C1403 C1402 1.369 . S
C1403 C1404 1.410 . S
C1403 C1411 1.503 . S
C1404 C1403 1.410 . S
C1404 C1405 1.392 1_545 S
C1404 C1407 1.511 . S
C1405 C1401 1.376 . S
C1405 C1404 1.392 1_565 S
C1405 H1417 0.929 . S
C1406 C1402 1.531 . S
C1406 H1418 0.960 . S
C1406 H1419 0.962 . S
C1406 H1420 0.960 . S
C1407 C1404 1.511 . S
C1407 H1421 0.961 . S
C1407 H1422 0.961 . S
C1407 H1423 0.961 . S
C1408 C1409 1.370 . S
C1408 C1410 1.363 . S
C1408 H1424 0.931 . S
C1409 C1408 1.370 . S
C1409 C1413 1.408 . S
C1410 C1408 1.363 . S
C1410 C1411 1.370 . S
C1410 C1414 1.524 . S
C1411 C1403 1.503 . S
C1411 C1410 1.370 . S
C1411 C1412 1.403 . S
C1412 C1411 1.403 . S
C1412 C1413 1.404 . S
C1412 C1415 1.539 . S
C1413 C1409 1.408 . S
C1413 C1412 1.404 . S
C1413 H1425 0.930 . S
C1414 C1410 1.524 . S
C1414 H1426 0.956 . S
C1414 H1427 0.961 . S
C1414 H1428 0.961 . S
C1415 C1412 1.539 . S
C1415 H1429 0.958 . S
C1415 H1430 0.961 . S
C1415 H1431 0.960 . S
H1416 C1400 0.931 . S
H1417 C1405 0.929 . S
H1418 C1406 0.960 . S
H1419 C1406 0.962 . S
H1420 C1406 0.960 . S
H1421 C1407 0.961 . S
H1422 C1407 0.961 . S
H1423 C1407 0.961 . S
H1424 C1408 0.931 . S
H1425 C1413 0.930 . S
H1426 C1414 0.956 . S
H1427 C1414 0.961 . S
H1428 C1414 0.961 . S
H1429 C1415 0.958 . S
H1430 C1415 0.961 . S
H1431 C1415 0.960 . S
C1432 C1433 1.391 . S
C1432 C1434 1.394 . S
C1432 H1448 0.931 . S
C1433 C1432 1.391 . S
C1433 C1437 1.376 . S
C1434 C1432 1.394 . S
C1434 C1435 1.369 . S
C1434 C1438 1.531 . S
C1435 C1434 1.369 . S
C1435 C1436 1.410 . S
C1435 C1443 1.503 . S
C1436 C1435 1.410 . S
C1436 C1437 1.392 . S
C1436 C1439 1.511 . S
C1437 C1433 1.376 . S
C1437 C1436 1.392 . S
C1437 H1449 0.929 . S
C1438 C1434 1.531 . S
C1438 H1450 0.960 . S
C1438 H1451 0.962 . S
C1438 H1452 0.960 . S
C1439 C1436 1.511 . S
C1439 H1453 0.961 . S
C1439 H1454 0.961 . S
C1439 H1455 0.961 . S
C1440 C1441 1.370 . S
C1440 C1442 1.363 . S
C1440 H1456 0.931 . S
C1441 C1440 1.370 . S
C1441 C1445 1.408 . S
C1442 C1440 1.363 . S
C1442 C1443 1.370 . S
C1442 C1446 1.524 . S
C1443 C1435 1.503 . S
C1443 C1442 1.370 . S
C1443 C1444 1.403 . S
C1444 C1443 1.403 . S
C1444 C1445 1.404 . S
C1444 C1447 1.539 . S
C1445 C1441 1.408 . S
C1445 C1444 1.404 . S
C1445 H1457 0.930 . S
C1446 C1442 1.524 . S
C1446 H1458 0.956 . S
C1446 H1459 0.961 . S
C1446 H1460 0.961 . S
C1447 C1444 1.539 . S
C1447 H1461 0.958 . S
C1447 H1462 0.961 . S
C1447 H1463 0.960 . S
H1448 C1432 0.931 . S
H1449 C1437 0.929 . S
H1450 C1438 0.960 . S
H1451 C1438 0.962 . S
H1452 C1438 0.960 . S
H1453 C1439 0.961 . S
H1454 C1439 0.961 . S
H1455 C1439 0.961 . S
H1456 C1440 0.931 . S
H1457 C1445 0.930 . S
H1458 C1446 0.956 . S
H1459 C1446 0.961 . S
H1460 C1446 0.961 . S
H1461 C1447 0.958 . S
H1462 C1447 0.961 . S
H1463 C1447 0.960 . S
C1464 C1465 1.391 . S
C1464 C1466 1.394 . S
C1464 H1480 0.931 . S
C1465 C1464 1.391 . S
C1465 C1469 1.376 . S
C1466 C1464 1.394 . S
C1466 C1467 1.369 . S
C1466 C1470 1.531 . S
C1467 C1466 1.369 . S
C1467 C1468 1.410 . S
C1467 C1475 1.503 1_554 S
C1468 C1467 1.410 . S
C1468 C1469 1.392 . S
C1468 C1471 1.511 . S
C1469 C1465 1.376 . S
C1469 C1468 1.392 . S
C1469 H1481 0.929 . S
C1470 C1466 1.531 . S
C1470 H1482 0.960 1_554 S
C1470 H1483 0.962 . S
C1470 H1484 0.960 . S
C1471 C1468 1.511 . S
C1471 H1485 0.961 . S
C1471 H1486 0.961 1_554 S
C1471 H1487 0.961 . S
C1472 C1473 1.370 . S
C1472 C1474 1.363 . S
C1472 H1488 0.931 . S
C1473 C1472 1.370 . S
C1473 C1477 1.408 . S
C1474 C1472 1.363 . S
C1474 C1475 1.370 . S
C1474 C1478 1.524 . S
C1475 C1467 1.503 1_556 S
C1475 C1474 1.370 . S
C1475 C1476 1.403 . S
C1476 C1475 1.403 . S
C1476 C1477 1.404 . S
C1476 C1479 1.539 . S
C1477 C1473 1.408 . S
C1477 C1476 1.404 . S
C1477 H1489 0.930 . S
C1478 C1474 1.524 . S
C1478 H1490 0.956 . S
C1478 H1491 0.961 1_556 S
C1478 H1492 0.961 . S
C1479 C1476 1.539 . S
C1479 H1493 0.958 . S
C1479 H1494 0.961 . S
C1479 H1495 0.970 . S
H1480 C1464 0.931 . S
H1481 C1469 0.929 . S
H1482 C1470 0.960 1_556 S
H1483 C1470 0.962 . S
H1484 C1470 0.960 . S
H1485 C1471 0.961 . S
H1486 C1471 0.961 1_556 S
H1487 C1471 0.961 . S
H1488 C1472 0.931 . S
H1489 C1477 0.930 . S
H1490 C1478 0.956 . S
H1491 C1478 0.961 1_554 S
H1492 C1478 0.961 . S
H1493 C1479 0.958 . S
H1494 C1479 0.961 . S
H1495 C1479 0.970 . S
C1496 C1497 1.391 . S
C1496 C1498 1.394 . S
C1496 H1512 0.931 . S
C1497 C1496 1.391 . S
C1497 C1501 1.376 . S
C1498 C1496 1.394 . S
C1498 C1499 1.369 . S
C1498 C1502 1.531 . S
C1499 C1498 1.369 . S
C1499 C1500 1.410 . S
C1499 C1507 1.503 1_554 S
C1500 C1499 1.410 . S
C1500 C1501 1.392 . S
C1500 C1503 1.511 . S
C1501 C1497 1.376 . S
C1501 C1500 1.392 . S
C1501 H1513 0.929 . S
C1502 C1498 1.531 . S
C1502 H1514 0.960 1_554 S
C1502 H1515 0.962 . S
C1502 H1516 0.960 . S
C1503 C1500 1.511 . S
C1503 H1517 0.961 . S
C1503 H1518 0.961 1_554 S
C1503 H1519 0.961 . S
C1504 C1505 1.370 . S
C1504 C1506 1.363 . S
C1504 H1520 0.931 . S
C1505 C1504 1.370 . S
C1505 C1509 1.408 . S
C1506 C1504 1.363 . S
C1506 C1507 1.370 . S
C1506 C1510 1.524 . S
C1507 C1499 1.503 1_556 S
C1507 C1506 1.370 . S
C1507 C1508 1.403 . S
C1508 C1507 1.403 . S
C1508 C1509 1.404 . S
C1508 C1511 1.539 . S
C1509 C1505 1.408 . S
C1509 C1508 1.404 . S
C1509 H1521 0.930 . S
C1510 C1506 1.524 . S
C1510 H1522 0.956 . S
C1510 H1523 0.961 1_556 S
C1510 H1524 0.961 . S
C1511 C1508 1.539 . S
C1511 H1525 0.958 . S
C1511 H1526 0.961 . S
C1511 H1527 0.970 . S
H1512 C1496 0.931 . S
H1513 C1501 0.929 . S
H1514 C1502 0.960 1_556 S
H1515 C1502 0.962 . S
H1516 C1502 0.960 . S
H1517 C1503 0.961 . S
H1518 C1503 0.961 1_556 S
H1519 C1503 0.961 . S
H1520 C1504 0.931 . S
H1521 C1509 0.930 . S
H1522 C1510 0.956 . S
H1523 C1510 0.961 1_554 S
H1524 C1510 0.961 . S
H1525 C1511 0.958 . S
H1526 C1511 0.961 . S
H1527 C1511 0.970 . S
C1528 C1529 1.391 . S
C1528 C1530 1.394 . S
C1528 H1544 0.931 . S
C1529 C1528 1.391 . S
C1529 C1533 1.376 . S
C1530 C1528 1.394 . S
C1530 C1531 1.369 . S
C1530 C1534 1.531 . S
C1531 C1530 1.369 . S
C1531 C1532 1.410 . S
C1531 C1539 1.503 1_554 S
C1532 C1531 1.410 . S
C1532 C1533 1.392 . S
C1532 C1535 1.511 . S
C1533 C1529 1.376 . S
C1533 C1532 1.392 . S
C1533 H1545 0.929 . S
C1534 C1530 1.531 . S
C1534 H1546 0.960 1_554 S
C1534 H1547 0.962 . S
C1534 H1548 0.960 . S
C1535 C1532 1.511 . S
C1535 H1549 0.961 . S
C1535 H1550 0.961 1_554 S
C1535 H1551 0.961 . S
C1536 C1537 1.370 . S
C1536 C1538 1.363 . S
C1536 H1552 0.931 . S
C1537 C1536 1.370 . S
C1537 C1541 1.408 . S
C1538 C1536 1.363 . S
C1538 C1539 1.370 . S
C1538 C1542 1.524 . S
C1539 C1531 1.503 1_556 S
C1539 C1538 1.370 . S
C1539 C1540 1.403 . S
C1540 C1539 1.403 . S
C1540 C1541 1.404 . S
C1540 C1543 1.539 . S
C1541 C1537 1.408 . S
C1541 C1540 1.404 . S
C1541 H1553 0.930 . S
C1542 C1538 1.524 . S
C1542 H1554 0.956 . S
C1542 H1555 0.961 1_556 S
C1542 H1556 0.961 . S
C1543 C1540 1.539 . S
C1543 H1557 0.958 . S
C1543 H1558 0.961 . S
C1543 H1559 0.970 . S
H1544 C1528 0.931 . S
H1545 C1533 0.929 . S
H1546 C1534 0.960 1_556 S
H1547 C1534 0.962 . S
H1548 C1534 0.960 . S
H1549 C1535 0.961 . S
H1550 C1535 0.961 1_556 S
H1551 C1535 0.961 . S
H1552 C1536 0.931 . S
H1553 C1541 0.930 . S
H1554 C1542 0.956 . S
H1555 C1542 0.961 1_554 S
H1556 C1542 0.961 . S
H1557 C1543 0.958 . S
H1558 C1543 0.961 . S
H1559 C1543 0.970 . S
C1560 C1561 1.391 . S
C1560 C1562 1.394 . S
C1560 H1576 0.931 . S
C1561 C1560 1.391 . S
C1561 C1565 1.376 . S
C1562 C1560 1.394 . S
C1562 C1563 1.369 . S
C1562 C1566 1.531 . S
C1563 C1562 1.369 . S
C1563 C1564 1.410 . S
C1563 C1571 1.503 1_556 S
C1564 C1563 1.410 . S
C1564 C1565 1.392 . S
C1564 C1567 1.511 . S
C1565 C1561 1.376 . S
C1565 C1564 1.392 . S
C1565 H1577 0.929 . S
C1566 C1562 1.531 . S
C1566 H1578 0.960 1_556 S
C1566 H1579 0.962 . S
C1566 H1580 0.960 . S
C1567 C1564 1.511 . S
C1567 H1581 0.961 . S
C1567 H1582 0.961 1_556 S
C1567 H1583 0.961 . S
C1568 C1569 1.370 . S
C1568 C1570 1.363 . S
C1568 H1584 0.931 . S
C1569 C1568 1.370 . S
C1569 C1573 1.408 . S
C1570 C1568 1.363 . S
C1570 C1571 1.370 . S
C1570 C1574 1.524 . S
C1571 C1563 1.503 1_554 S
C1571 C1570 1.370 . S
C1571 C1572 1.403 . S
C1572 C1571 1.403 . S
C1572 C1573 1.404 . S
C1572 C1575 1.539 . S
C1573 C1569 1.408 . S
C1573 C1572 1.404 . S
C1573 H1585 0.930 . S
C1574 C1570 1.524 . S
C1574 H1586 0.956 . S
C1574 H1587 0.961 1_554 S
C1574 H1588 0.961 . S
C1575 C1572 1.539 . S
C1575 H1589 0.958 . S
C1575 H1590 0.961 . S
C1575 H1591 0.970 . S
H1576 C1560 0.931 . S
H1577 C1565 0.929 . S
H1578 C1566 0.960 1_554 S
H1579 C1566 0.962 . S
H1580 C1566 0.960 . S
H1581 C1567 0.961 . S
H1582 C1567 0.961 1_554 S
H1583 C1567 0.961 . S
H1584 C1568 0.931 . S
H1585 C1573 0.930 . S
H1586 C1574 0.956 . S
H1587 C1574 0.961 1_556 S
H1588 C1574 0.961 . S
H1589 C1575 0.958 . S
H1590 C1575 0.961 . S
H1591 C1575 0.970 . S
C1592 C1593 1.391 . S
C1592 C1594 1.394 . S
C1592 H1608 0.931 . S
C1593 C1592 1.391 . S
C1593 C1597 1.376 . S
C1594 C1592 1.394 . S
C1594 C1595 1.369 . S
C1594 C1598 1.531 . S
C1595 C1594 1.369 . S
C1595 C1596 1.410 . S
C1595 C1603 1.503 1_554 S
C1596 C1595 1.410 . S
C1596 C1597 1.392 . S
C1596 C1599 1.511 . S
C1597 C1593 1.376 . S
C1597 C1596 1.392 . S
C1597 H1609 0.929 . S
C1598 C1594 1.531 . S
C1598 H1610 0.960 1_554 S
C1598 H1611 0.962 . S
C1598 H1612 0.960 . S
C1599 C1596 1.511 . S
C1599 H1613 0.961 . S
C1599 H1614 0.961 1_554 S
C1599 H1615 0.961 . S
C1600 C1601 1.370 . S
C1600 C1602 1.363 . S
C1600 H1616 0.931 . S
C1601 C1600 1.370 . S
C1601 C1605 1.408 . S
C1602 C1600 1.363 . S
C1602 C1603 1.370 . S
C1602 C1606 1.524 . S
C1603 C1595 1.503 1_556 S
C1603 C1602 1.370 . S
C1603 C1604 1.403 . S
C1604 C1603 1.403 . S
C1604 C1605 1.404 . S
C1604 C1607 1.539 . S
C1605 C1601 1.408 . S
C1605 C1604 1.404 . S
C1605 H1617 0.930 . S
C1606 C1602 1.524 . S
C1606 H1618 0.956 . S
C1606 H1619 0.961 1_556 S
C1606 H1620 0.961 . S
C1607 C1604 1.539 . S
C1607 H1621 0.958 . S
C1607 H1622 0.961 . S
C1607 H1623 0.970 . S
H1608 C1592 0.931 . S
H1609 C1597 0.929 . S
H1610 C1598 0.960 1_556 S
H1611 C1598 0.962 . S
H1612 C1598 0.960 . S
H1613 C1599 0.961 . S
H1614 C1599 0.961 1_556 S
H1615 C1599 0.961 . S
H1616 C1600 0.931 . S
H1617 C1605 0.930 . S
H1618 C1606 0.956 . S
H1619 C1606 0.961 1_554 S
H1620 C1606 0.961 . S
H1621 C1607 0.958 . S
H1622 C1607 0.961 . S
H1623 C1607 0.970 . S
C1624 C1625 1.391 . S
C1624 C1626 1.394 . S
C1624 H1640 0.931 . S
C1625 C1624 1.391 . S
C1625 C1629 1.376 . S
C1626 C1624 1.394 . S
C1626 C1627 1.369 . S
C1626 C1630 1.531 . S
C1627 C1626 1.369 . S
C1627 C1628 1.410 . S
C1627 C1635 1.503 1_554 S
C1628 C1627 1.410 . S
C1628 C1629 1.392 . S
C1628 C1631 1.511 . S
C1629 C1625 1.376 . S
C1629 C1628 1.392 . S
C1629 H1641 0.929 . S
C1630 C1626 1.531 . S
C1630 H1642 0.960 1_554 S
C1630 H1643 0.962 . S
C1630 H1644 0.960 . S
C1631 C1628 1.511 . S
C1631 H1645 0.961 . S
C1631 H1646 0.961 1_554 S
C1631 H1647 0.961 . S
C1632 C1633 1.370 . S
C1632 C1634 1.363 . S
C1632 H1648 0.931 . S
C1633 C1632 1.370 . S
C1633 C1637 1.408 . S
C1634 C1632 1.363 . S
C1634 C1635 1.370 . S
C1634 C1638 1.524 . S
C1635 C1627 1.503 1_556 S
C1635 C1634 1.370 . S
C1635 C1636 1.403 . S
C1636 C1635 1.403 . S
C1636 C1637 1.404 . S
C1636 C1639 1.539 . S
C1637 C1633 1.408 . S
C1637 C1636 1.404 . S
C1637 H1649 0.930 . S
C1638 C1634 1.524 . S
C1638 H1650 0.956 . S
C1638 H1651 0.961 1_556 S
C1638 H1652 0.961 . S
C1639 C1636 1.539 . S
C1639 H1653 0.958 . S
C1639 H1654 0.961 . S
C1639 H1655 0.970 . S
H1640 C1624 0.931 . S
H1641 C1629 0.929 . S
H1642 C1630 0.960 1_556 S
H1643 C1630 0.962 . S
H1644 C1630 0.960 . S
H1645 C1631 0.961 . S
H1646 C1631 0.961 1_556 S
H1647 C1631 0.961 . S
H1648 C1632 0.931 . S
H1649 C1637 0.930 . S
H1650 C1638 0.956 . S
H1651 C1638 0.961 1_554 S
H1652 C1638 0.961 . S
H1653 C1639 0.958 . S
H1654 C1639 0.961 . S
H1655 C1639 0.970 . S
C1656 C1657 1.391 . S
C1656 C1658 1.394 . S
C1656 H1672 0.931 . S
C1657 C1656 1.391 . S
C1657 C1661 1.376 . S
C1658 C1656 1.394 . S
C1658 C1659 1.369 . S
C1658 C1662 1.531 . S
C1659 C1658 1.369 . S
C1659 C1660 1.410 . S
C1659 C1667 1.503 . S
C1660 C1659 1.410 . S
C1660 C1661 1.392 . S
C1660 C1663 1.511 . S
C1661 C1657 1.376 . S
C1661 C1660 1.392 . S
C1661 H1673 0.929 . S
C1662 C1658 1.531 . S
C1662 H1674 0.960 . S
C1662 H1675 0.962 . S
C1662 H1676 0.960 . S
C1663 C1660 1.511 . S
C1663 H1677 0.961 . S
C1663 H1678 0.961 . S
C1663 H1679 0.961 . S
C1664 C1665 1.370 . S
C1664 C1666 1.363 . S
C1664 H1680 0.931 . S
C1665 C1664 1.370 . S
C1665 C1669 1.408 . S
C1666 C1664 1.363 . S
C1666 C1667 1.370 . S
C1666 C1670 1.524 . S
C1667 C1659 1.503 . S
C1667 C1666 1.370 . S
C1667 C1668 1.403 . S
C1668 C1667 1.403 . S
C1668 C1669 1.404 . S
C1668 C1671 1.539 . S
C1669 C1665 1.408 . S
C1669 C1668 1.404 . S
C1669 H1681 0.930 . S
C1670 C1666 1.524 . S
C1670 H1682 0.956 . S
C1670 H1683 0.961 . S
C1670 H1684 0.961 . S
C1671 C1668 1.539 . S
C1671 H1685 0.958 . S
C1671 H1686 0.961 . S
C1671 H1687 0.960 . S
H1672 C1656 0.931 . S
H1673 C1661 0.929 . S
H1674 C1662 0.960 . S
H1675 C1662 0.962 . S
H1676 C1662 0.960 . S
H1677 C1663 0.961 . S
H1678 C1663 0.961 . S
H1679 C1663 0.961 . S
H1680 C1664 0.931 . S
H1681 C1669 0.930 . S
H1682 C1670 0.956 . S
H1683 C1670 0.961 . S
H1684 C1670 0.961 . S
H1685 C1671 0.958 . S
H1686 C1671 0.961 . S
H1687 C1671 0.960 . S
C1688 C1689 1.391 . S
C1688 C1690 1.394 . S
C1688 H1704 0.931 . S
C1689 C1688 1.391 . S
C1689 C1693 1.376 . S
C1690 C1688 1.394 . S
C1690 C1691 1.369 . S
C1690 C1694 1.531 . S
C1691 C1690 1.369 . S
C1691 C1692 1.410 . S
C1691 C1699 1.503 . S
C1692 C1691 1.410 . S
C1692 C1693 1.392 . S
C1692 C1695 1.511 . S
C1693 C1689 1.376 . S
C1693 C1692 1.392 . S
C1693 H1705 0.929 . S
C1694 C1690 1.531 . S
C1694 H1706 0.960 . S
C1694 H1707 0.962 . S
C1694 H1708 0.960 . S
C1695 C1692 1.511 . S
C1695 H1709 0.961 . S
C1695 H1710 0.961 . S
C1695 H1711 0.961 . S
C1696 C1697 1.370 . S
C1696 C1698 1.363 . S
C1696 H1712 0.931 . S
C1697 C1696 1.370 . S
C1697 C1701 1.408 . S
C1698 C1696 1.363 . S
C1698 C1699 1.370 . S
C1698 C1702 1.524 . S
C1699 C1691 1.503 . S
C1699 C1698 1.370 . S
C1699 C1700 1.403 . S
C1700 C1699 1.403 . S
C1700 C1701 1.404 . S
C1700 C1703 1.539 . S
C1701 C1697 1.408 . S
C1701 C1700 1.404 . S
C1701 H1713 0.930 . S
C1702 C1698 1.524 . S
C1702 H1714 0.956 . S
C1702 H1715 0.961 . S
C1702 H1716 0.961 . S
C1703 C1700 1.539 . S
C1703 H1717 0.958 . S
C1703 H1718 0.961 . S
C1703 H1719 0.960 . S
H1704 C1688 0.931 . S
H1705 C1693 0.929 . S
H1706 C1694 0.960 . S
H1707 C1694 0.962 . S
H1708 C1694 0.960 . S
H1709 C1695 0.961 . S
H1710 C1695 0.961 . S
H1711 C1695 0.961 . S
H1712 C1696 0.931 . S
H1713 C1701 0.930 . S
H1714 C1702 0.956 . S
H1715 C1702 0.961 . S
H1716 C1702 0.961 . S
H1717 C1703 0.958 . S
H1718 C1703 0.961 . S
H1719 C1703 0.960 . S
C1720 C1721 1.391 . S
C1720 C1722 1.394 . S
C1720 H1736 0.931 . S
C1721 C1720 1.391 . S
C1721 C1725 1.376 . S
C1722 C1720 1.394 . S
C1722 C1723 1.369 . S
C1722 C1726 1.531 . S
C1723 C1722 1.369 . S
C1723 C1724 1.410 . S
C1723 C1731 1.503 . S
C1724 C1723 1.410 . S
C1724 C1725 1.392 . S
C1724 C1727 1.511 . S
C1725 C1721 1.376 . S
C1725 C1724 1.392 . S
C1725 H1737 0.929 . S
C1726 C1722 1.531 . S
C1726 H1738 0.960 . S
C1726 H1739 0.962 . S
C1726 H1740 0.960 . S
C1727 C1724 1.511 . S
C1727 H1741 0.961 . S
C1727 H1742 0.961 . S
C1727 H1743 0.961 . S
C1728 C1729 1.370 . S
C1728 C1730 1.363 . S
C1728 H1744 0.931 . S
C1729 C1728 1.370 . S
C1729 C1733 1.408 . S
C1730 C1728 1.363 . S
C1730 C1731 1.370 . S
C1730 C1734 1.524 . S
C1731 C1723 1.503 . S
C1731 C1730 1.370 . S
C1731 C1732 1.403 . S
C1732 C1731 1.403 . S
C1732 C1733 1.404 . S
C1732 C1735 1.539 . S
C1733 C1729 1.408 . S
C1733 C1732 1.404 . S
C1733 H1745 0.930 . S
C1734 C1730 1.524 . S
C1734 H1746 0.956 . S
C1734 H1747 0.961 . S
C1734 H1748 0.961 . S
C1735 C1732 1.539 . S
C1735 H1749 0.958 . S
C1735 H1750 0.961 . S
C1735 H1751 0.960 . S
H1736 C1720 0.931 . S
H1737 C1725 0.929 . S
H1738 C1726 0.960 . S
H1739 C1726 0.962 . S
H1740 C1726 0.960 . S
H1741 C1727 0.961 . S
H1742 C1727 0.961 . S
H1743 C1727 0.961 . S
H1744 C1728 0.931 . S
H1745 C1733 0.930 . S
H1746 C1734 0.956 . S
H1747 C1734 0.961 . S
H1748 C1734 0.961 . S
H1749 C1735 0.958 . S
H1750 C1735 0.961 . S
H1751 C1735 0.960 . S
C1752 C1753 1.391 . S
C1752 C1754 1.394 . S
C1752 H1768 0.931 . S
C1753 C1752 1.391 . S
C1753 C1757 1.376 . S
C1754 C1752 1.394 . S
C1754 C1755 1.369 . S
C1754 C1758 1.531 . S
C1755 C1754 1.369 . S
C1755 C1756 1.410 . S
C1755 C1763 1.503 . S
C1756 C1755 1.410 . S
C1756 C1757 1.392 . S
C1756 C1759 1.511 . S
C1757 C1753 1.376 . S
C1757 C1756 1.392 . S
C1757 H1769 0.929 . S
C1758 C1754 1.531 . S
C1758 H1770 0.960 . S
C1758 H1771 0.962 . S
C1758 H1772 0.960 . S
C1759 C1756 1.511 . S
C1759 H1773 0.961 . S
C1759 H1774 0.961 . S
C1759 H1775 0.961 . S
C1760 C1761 1.370 . S
C1760 C1762 1.363 . S
C1760 H1776 0.931 . S
C1761 C1760 1.370 . S
C1761 C1765 1.408 . S
C1762 C1760 1.363 . S
C1762 C1763 1.370 . S
C1762 C1766 1.524 . S
C1763 C1755 1.503 . S
C1763 C1762 1.370 . S
C1763 C1764 1.403 . S
C1764 C1763 1.403 . S
C1764 C1765 1.404 . S
C1764 C1767 1.539 . S
C1765 C1761 1.408 . S
C1765 C1764 1.404 . S
C1765 H1777 0.930 . S
C1766 C1762 1.524 . S
C1766 H1778 0.956 . S
C1766 H1779 0.961 . S
C1766 H1780 0.961 . S
C1767 C1764 1.539 . S
C1767 H1781 0.958 . S
C1767 H1782 0.961 . S
C1767 H1783 0.960 . S
H1768 C1752 0.931 . S
H1769 C1757 0.929 . S
H1770 C1758 0.960 . S
H1771 C1758 0.962 . S
H1772 C1758 0.960 . S
H1773 C1759 0.961 . S
H1774 C1759 0.961 . S
H1775 C1759 0.961 . S
H1776 C1760 0.931 . S
H1777 C1765 0.930 . S
H1778 C1766 0.956 . S
H1779 C1766 0.961 . S
H1780 C1766 0.961 . S
H1781 C1767 0.958 . S
H1782 C1767 0.961 . S
H1783 C1767 0.960 . S
C1784 C1785 1.391 . S
C1784 C1786 1.394 . S
C1784 H1800 0.931 . S
C1785 C1784 1.391 . S
C1785 C1789 1.376 . S
C1786 C1784 1.394 . S
C1786 C1787 1.369 . S
C1786 C1790 1.531 . S
C1787 C1786 1.369 . S
C1787 C1788 1.410 . S
C1787 C1795 1.503 . S
C1788 C1787 1.410 . S
C1788 C1789 1.392 . S
C1788 C1791 1.511 . S
C1789 C1785 1.376 . S
C1789 C1788 1.392 . S
C1789 H1801 0.929 . S
C1790 C1786 1.531 . S
C1790 H1802 0.960 . S
C1790 H1803 0.962 . S
C1790 H1804 0.960 . S
C1791 C1788 1.511 . S
C1791 H1805 0.961 . S
C1791 H1806 0.961 . S
C1791 H1807 0.961 . S
C1792 C1793 1.370 . S
C1792 C1794 1.363 . S
C1792 H1808 0.931 . S
C1793 C1792 1.370 . S
C1793 C1797 1.408 . S
C1794 C1792 1.363 . S
C1794 C1795 1.370 . S
C1794 C1798 1.524 . S
C1795 C1787 1.503 . S
C1795 C1794 1.370 . S
C1795 C1796 1.403 . S
C1796 C1795 1.403 . S
C1796 C1797 1.404 . S
C1796 C1799 1.539 . S
C1797 C1793 1.408 . S
C1797 C1796 1.404 . S
C1797 H1809 0.930 . S
C1798 C1794 1.524 . S
C1798 H1810 0.956 . S
C1798 H1811 0.961 . S
C1798 H1812 0.961 . S
C1799 C1796 1.539 . S
C1799 H1813 0.958 . S
C1799 H1814 0.961 . S
C1799 H1815 0.960 . S
H1800 C1784 0.931 . S
H1801 C1789 0.929 . S
H1802 C1790 0.960 . S
H1803 C1790 0.962 . S
H1804 C1790 0.960 . S
H1805 C1791 0.961 . S
H1806 C1791 0.961 . S
H1807 C1791 0.961 . S
H1808 C1792 0.931 . S
H1809 C1797 0.930 . S
H1810 C1798 0.956 . S
H1811 C1798 0.961 . S
H1812 C1798 0.961 . S
H1813 C1799 0.958 . S
H1814 C1799 0.961 . S
H1815 C1799 0.960 . S
C1816 C1817 1.391 . S
C1816 C1818 1.394 . S
C1816 H1832 0.931 . S
C1817 C1816 1.391 . S
C1817 C1821 1.376 . S
C1818 C1816 1.394 . S
C1818 C1819 1.369 . S
C1818 C1822 1.531 . S
C1819 C1818 1.369 . S
C1819 C1820 1.410 . S
C1819 C1827 1.503 . S
C1820 C1819 1.410 . S
C1820 C1821 1.392 . S
C1820 C1823 1.511 . S
C1821 C1817 1.376 . S
C1821 C1820 1.392 . S
C1821 H1833 0.929 . S
C1822 C1818 1.531 . S
C1822 H1834 0.960 . S
C1822 H1835 0.962 . S
C1822 H1836 0.960 . S
C1823 C1820 1.511 . S
C1823 H1837 0.961 . S
C1823 H1838 0.961 . S
C1823 H1839 0.961 . S
C1824 C1825 1.370 . S
C1824 C1826 1.363 . S
C1824 H1840 0.931 . S
C1825 C1824 1.370 . S
C1825 C1829 1.408 . S
C1826 C1824 1.363 . S
C1826 C1827 1.370 . S
C1826 C1830 1.524 . S
C1827 C1819 1.503 . S
C1827 C1826 1.370 . S
C1827 C1828 1.403 . S
C1828 C1827 1.403 . S
C1828 C1829 1.404 . S
C1828 C1831 1.539 . S
C1829 C1825 1.408 . S
C1829 C1828 1.404 . S
C1829 H1841 0.930 . S
C1830 C1826 1.524 . S
C1830 H1842 0.956 . S
C1830 H1843 0.961 . S
C1830 H1844 0.961 . S
C1831 C1828 1.539 . S
C1831 H1845 0.958 . S
C1831 H1846 0.961 . S
C1831 H1847 0.960 . S
H1832 C1816 0.931 . S
H1833 C1821 0.929 . S
H1834 C1822 0.960 . S
H1835 C1822 0.962 . S
H1836 C1822 0.960 . S
H1837 C1823 0.961 . S
H1838 C1823 0.961 . S
H1839 C1823 0.961 . S
H1840 C1824 0.931 . S
H1841 C1829 0.930 . S
H1842 C1830 0.956 . S
H1843 C1830 0.961 . S
H1844 C1830 0.961 . S
H1845 C1831 0.958 . S
H1846 C1831 0.961 . S
H1847 C1831 0.960 . S
C1848 C1849 1.391 . S
C1848 C1850 1.394 . S
C1848 H1864 0.931 . S
C1849 C1848 1.391 . S
C1849 C1853 1.376 . S
C1850 C1848 1.394 . S
C1850 C1851 1.369 . S
C1850 C1854 1.531 . S
C1851 C1850 1.369 . S
C1851 C1852 1.410 . S
C1851 C1859 1.503 . S
C1852 C1851 1.410 . S
C1852 C1853 1.392 . S
C1852 C1855 1.511 . S
C1853 C1849 1.376 . S
C1853 C1852 1.392 . S
C1853 H1865 0.929 . S
C1854 C1850 1.531 . S
C1854 H1866 0.960 . S
C1854 H1867 0.962 . S
C1854 H1868 0.960 . S
C1855 C1852 1.511 . S
C1855 H1869 0.961 . S
C1855 H1870 0.961 . S
C1855 H1871 0.961 . S
C1856 C1857 1.370 . S
C1856 C1858 1.363 . S
C1856 H1872 0.931 . S
C1857 C1856 1.370 . S
C1857 C1861 1.408 . S
C1858 C1856 1.363 . S
C1858 C1859 1.370 . S
C1858 C1862 1.524 . S
C1859 C1851 1.503 . S
C1859 C1858 1.370 . S
C1859 C1860 1.403 . S
C1860 C1859 1.403 . S
C1860 C1861 1.404 . S
C1860 C1863 1.539 . S
C1861 C1857 1.408 . S
C1861 C1860 1.404 . S
C1861 H1873 0.930 . S
C1862 C1858 1.524 . S
C1862 H1874 0.956 . S
C1862 H1875 0.961 . S
C1862 H1876 0.961 . S
C1863 C1860 1.539 . S
C1863 H1877 0.958 . S
C1863 H1878 0.961 . S
C1863 H1879 0.960 . S
H1864 C1848 0.931 . S
H1865 C1853 0.929 . S
H1866 C1854 0.960 . S
H1867 C1854 0.962 . S
H1868 C1854 0.960 . S
H1869 C1855 0.961 . S
H1870 C1855 0.961 . S
H1871 C1855 0.961 . S
H1872 C1856 0.931 . S
H1873 C1861 0.930 . S
H1874 C1862 0.956 . S
H1875 C1862 0.961 . S
H1876 C1862 0.961 . S
H1877 C1863 0.958 . S
H1878 C1863 0.961 . S
H1879 C1863 0.960 . S
C1880 C1881 1.391 . S
C1880 C1882 1.394 . S
C1880 H1896 0.931 . S
C1881 C1880 1.391 . S
C1881 C1885 1.376 . S
C1882 C1880 1.394 . S
C1882 C1883 1.369 . S
C1882 C1886 1.531 . S
C1883 C1882 1.369 . S
C1883 C1884 1.410 . S
C1883 C1891 1.503 . S
C1884 C1883 1.410 . S
C1884 C1885 1.392 . S
C1884 C1887 1.511 . S
C1885 C1881 1.376 . S
C1885 C1884 1.392 . S
C1885 H1897 0.929 . S
C1886 C1882 1.531 . S
C1886 H1898 0.960 . S
C1886 H1899 0.962 . S
C1886 H1900 0.960 . S
C1887 C1884 1.511 . S
C1887 H1901 0.961 . S
C1887 H1902 0.961 . S
C1887 H1903 0.961 . S
C1888 C1889 1.370 . S
C1888 C1890 1.363 . S
C1888 H1904 0.931 . S
C1889 C1888 1.370 . S
C1889 C1893 1.408 . S
C1890 C1888 1.363 . S
C1890 C1891 1.370 . S
C1890 C1894 1.524 . S
C1891 C1883 1.503 . S
C1891 C1890 1.370 . S
C1891 C1892 1.403 . S
C1892 C1891 1.403 . S
C1892 C1893 1.404 . S
C1892 C1895 1.539 . S
C1893 C1889 1.408 . S
C1893 C1892 1.404 . S
C1893 H1905 0.930 . S
C1894 C1890 1.524 . S
C1894 H1906 0.956 . S
C1894 H1907 0.961 . S
C1894 H1908 0.961 . S
C1895 C1892 1.539 . S
C1895 H1909 0.958 . S
C1895 H1910 0.961 . S
C1895 H1911 0.960 . S
H1896 C1880 0.931 . S
H1897 C1885 0.929 . S
H1898 C1886 0.960 . S
H1899 C1886 0.962 . S
H1900 C1886 0.960 . S
H1901 C1887 0.961 . S
H1902 C1887 0.961 . S
H1903 C1887 0.961 . S
H1904 C1888 0.931 . S
H1905 C1893 0.930 . S
H1906 C1894 0.956 . S
H1907 C1894 0.961 . S
H1908 C1894 0.961 . S
H1909 C1895 0.958 . S
H1910 C1895 0.961 . S
H1911 C1895 0.960 . S
C1912 C1913 1.391 . S
C1912 C1914 1.394 . S
C1912 H1928 0.931 . S
C1913 C1912 1.391 . S
C1913 C1917 1.376 . S
C1914 C1912 1.394 . S
C1914 C1915 1.369 . S
C1914 C1918 1.531 . S
C1915 C1914 1.369 . S
C1915 C1916 1.410 . S
C1915 C1923 1.503 . S
C1916 C1915 1.410 . S
C1916 C1917 1.392 . S
C1916 C1919 1.511 . S
C1917 C1913 1.376 . S
C1917 C1916 1.392 . S
C1917 H1929 0.929 . S
C1918 C1914 1.531 . S
C1918 H1930 0.960 . S
C1918 H1931 0.962 . S
C1918 H1932 0.960 . S
C1919 C1916 1.511 . S
C1919 H1933 0.961 . S
C1919 H1934 0.961 . S
C1919 H1935 0.961 . S
C1920 C1921 1.370 . S
C1920 C1922 1.363 . S
C1920 H1936 0.931 . S
C1921 C1920 1.370 . S
C1921 C1925 1.408 . S
C1922 C1920 1.363 . S
C1922 C1923 1.370 . S
C1922 C1926 1.524 . S
C1923 C1915 1.503 . S
C1923 C1922 1.370 . S
C1923 C1924 1.403 . S
C1924 C1923 1.403 . S
C1924 C1925 1.404 . S
C1924 C1927 1.539 . S
C1925 C1921 1.408 . S
C1925 C1924 1.404 . S
C1925 H1937 0.930 . S
C1926 C1922 1.524 . S
C1926 H1938 0.956 . S
C1926 H1939 0.961 . S
C1926 H1940 0.961 . S
C1927 C1924 1.539 . S
C1927 H1941 0.958 . S
C1927 H1942 0.961 . S
C1927 H1943 0.960 . S
H1928 C1912 0.931 . S
H1929 C1917 0.929 . S
H1930 C1918 0.960 . S
H1931 C1918 0.962 . S
H1932 C1918 0.960 . S
H1933 C1919 0.961 . S
H1934 C1919 0.961 . S
H1935 C1919 0.961 . S
H1936 C1920 0.931 . S
H1937 C1925 0.930 . S
H1938 C1926 0.956 . S
H1939 C1926 0.961 . S
H1940 C1926 0.961 . S
H1941 C1927 0.958 . S
H1942 C1927 0.961 . S
H1943 C1927 0.960 . S
C1944 C1945 1.391 . S
C1944 C1946 1.394 . S
C1944 H1960 0.931 . S
C1945 C1944 1.391 . S
C1945 C1949 1.376 . S
C1946 C1944 1.394 . S
C1946 C1947 1.369 . S
C1946 C1950 1.531 . S
C1947 C1946 1.369 . S
C1947 C1948 1.410 . S
C1947 C1955 1.503 . S
C1948 C1947 1.410 . S
C1948 C1949 1.392 . S
C1948 C1951 1.511 . S
C1949 C1945 1.376 . S
C1949 C1948 1.392 . S
C1949 H1961 0.929 . S
C1950 C1946 1.531 . S
C1950 H1962 0.960 . S
C1950 H1963 0.962 . S
C1950 H1964 0.960 . S
C1951 C1948 1.511 . S
C1951 H1965 0.961 . S
C1951 H1966 0.961 . S
C1951 H1967 0.961 . S
C1952 C1953 1.370 . S
C1952 C1954 1.363 . S
C1952 H1968 0.931 . S
C1953 C1952 1.370 . S
C1953 C1957 1.408 . S
C1954 C1952 1.363 . S
C1954 C1955 1.370 . S
C1954 C1958 1.524 . S
C1955 C1947 1.503 . S
C1955 C1954 1.370 . S
C1955 C1956 1.403 . S
C1956 C1955 1.403 . S
C1956 C1957 1.404 . S
C1956 C1959 1.539 . S
C1957 C1953 1.408 . S
C1957 C1956 1.404 . S
C1957 H1969 0.930 . S
C1958 C1954 1.524 . S
C1958 H1970 0.956 . S
C1958 H1971 0.961 . S
C1958 H1972 0.961 . S
C1959 C1956 1.539 . S
C1959 H1973 0.958 . S
C1959 H1974 0.961 . S
C1959 H1975 0.960 . S
H1960 C1944 0.931 . S
H1961 C1949 0.929 . S
H1962 C1950 0.960 . S
H1963 C1950 0.962 . S
H1964 C1950 0.960 . S
H1965 C1951 0.961 . S
H1966 C1951 0.961 . S
H1967 C1951 0.961 . S
H1968 C1952 0.931 . S
H1969 C1957 0.930 . S
H1970 C1958 0.956 . S
H1971 C1958 0.961 . S
H1972 C1958 0.961 . S
H1973 C1959 0.958 . S
H1974 C1959 0.961 . S
H1975 C1959 0.960 . S
C1976 C1977 1.391 . S
C1976 C1978 1.394 . S
C1976 H1992 0.931 . S
C1977 C1976 1.391 . S
C1977 C1981 1.376 . S
C1978 C1976 1.394 . S
C1978 C1979 1.369 . S
C1978 C1982 1.531 . S
C1979 C1978 1.369 . S
C1979 C1980 1.410 . S
C1979 C1987 1.503 . S
C1980 C1979 1.410 . S
C1980 C1981 1.392 . S
C1980 C1983 1.511 . S
C1981 C1977 1.376 . S
C1981 C1980 1.392 . S
C1981 H1993 0.929 . S
C1982 C1978 1.531 . S
C1982 H1994 0.960 . S
C1982 H1995 0.962 . S
C1982 H1996 0.960 . S
C1983 C1980 1.511 . S
C1983 H1997 0.961 . S
C1983 H1998 0.961 . S
C1983 H1999 0.961 . S
C1984 C1985 1.370 . S
C1984 C1986 1.363 . S
C1984 H2000 0.931 . S
C1985 C1984 1.370 . S
C1985 C1989 1.408 . S
C1986 C1984 1.363 . S
C1986 C1987 1.370 . S
C1986 C1990 1.524 . S
C1987 C1979 1.503 . S
C1987 C1986 1.370 . S
C1987 C1988 1.403 . S
C1988 C1987 1.403 . S
C1988 C1989 1.404 . S
C1988 C1991 1.539 . S
C1989 C1985 1.408 . S
C1989 C1988 1.404 . S
C1989 H2001 0.930 . S
C1990 C1986 1.524 . S
C1990 H2002 0.956 . S
C1990 H2003 0.961 . S
C1990 H2004 0.961 . S
C1991 C1988 1.539 . S
C1991 H2005 0.958 . S
C1991 H2006 0.961 . S
C1991 H2007 0.960 . S
H1992 C1976 0.931 . S
H1993 C1981 0.929 . S
H1994 C1982 0.960 . S
H1995 C1982 0.962 . S
H1996 C1982 0.960 . S
H1997 C1983 0.961 . S
H1998 C1983 0.961 . S
H1999 C1983 0.961 . S
H2000 C1984 0.931 . S
H2001 C1989 0.930 . S
H2002 C1990 0.956 . S
H2003 C1990 0.961 . S
H2004 C1990 0.961 . S
H2005 C1991 0.958 . S
H2006 C1991 0.961 . S
H2007 C1991 0.960 . S
C2008 C2009 1.391 . S
C2008 C2010 1.394 . S
C2008 H2024 0.931 . S
C2009 C2008 1.391 . S
C2009 C2013 1.376 . S
C2010 C2008 1.394 . S
C2010 C2011 1.369 . S
C2010 C2014 1.531 . S
C2011 C2010 1.369 . S
C2011 C2012 1.410 . S
C2011 C2019 1.503 . S
C2012 C2011 1.410 . S
C2012 C2013 1.392 . S
C2012 C2015 1.511 . S
C2013 C2009 1.376 . S
C2013 C2012 1.392 . S
C2013 H2025 0.929 . S
C2014 C2010 1.531 . S
C2014 H2026 0.960 . S
C2014 H2027 0.962 . S
C2014 H2028 0.960 . S
C2015 C2012 1.511 . S
C2015 H2029 0.961 . S
C2015 H2030 0.961 . S
C2015 H2031 0.961 . S
C2016 C2017 1.370 . S
C2016 C2018 1.363 . S
C2016 H2032 0.931 . S
C2017 C2016 1.370 . S
C2017 C2021 1.408 . S
C2018 C2016 1.363 . S
C2018 C2019 1.370 . S
C2018 C2022 1.524 . S
C2019 C2011 1.503 . S
C2019 C2018 1.370 . S
C2019 C2020 1.403 . S
C2020 C2019 1.403 . S
C2020 C2021 1.404 . S
C2020 C2023 1.539 . S
C2021 C2017 1.408 . S
C2021 C2020 1.404 . S
C2021 H2033 0.930 . S
C2022 C2018 1.524 . S
C2022 H2034 0.956 . S
C2022 H2035 0.961 . S
C2022 H2036 0.961 . S
C2023 C2020 1.539 . S
C2023 H2037 0.958 . S
C2023 H2038 0.961 . S
C2023 H2039 0.960 . S
H2024 C2008 0.931 . S
H2025 C2013 0.929 . S
H2026 C2014 0.960 . S
H2027 C2014 0.962 . S
H2028 C2014 0.960 . S
H2029 C2015 0.961 . S
H2030 C2015 0.961 . S
H2031 C2015 0.961 . S
H2032 C2016 0.931 . S
H2033 C2021 0.930 . S
H2034 C2022 0.956 . S
H2035 C2022 0.961 . S
H2036 C2022 0.961 . S
H2037 C2023 0.958 . S
H2038 C2023 0.961 . S
H2039 C2023 0.960 . S
C2040 C2041 1.391 . S
C2040 C2042 1.394 . S
C2040 H2056 0.931 . S
C2041 C2040 1.391 . S
C2041 C2045 1.376 . S
C2042 C2040 1.394 . S
C2042 C2043 1.369 . S
C2042 C2046 1.531 . S
C2043 C2042 1.369 . S
C2043 C2044 1.410 . S
C2043 C2051 1.503 . S
C2044 C2043 1.410 . S
C2044 C2045 1.392 . S
C2044 C2047 1.511 . S
C2045 C2041 1.376 . S
C2045 C2044 1.392 . S
C2045 H2057 0.929 . S
C2046 C2042 1.531 . S
C2046 H2058 0.960 . S
C2046 H2059 0.962 . S
C2046 H2060 0.960 . S
C2047 C2044 1.511 . S
C2047 H2061 0.961 . S
C2047 H2062 0.961 . S
C2047 H2063 0.961 . S
C2048 C2049 1.370 . S
C2048 C2050 1.363 . S
C2048 H2064 0.931 . S
C2049 C2048 1.370 . S
C2049 C2053 1.408 . S
C2050 C2048 1.363 . S
C2050 C2051 1.370 . S
C2050 C2054 1.524 . S
C2051 C2043 1.503 . S
C2051 C2050 1.370 . S
C2051 C2052 1.403 . S
C2052 C2051 1.403 . S
C2052 C2053 1.404 . S
C2052 C2055 1.539 . S
C2053 C2049 1.408 . S
C2053 C2052 1.404 . S
C2053 H2065 0.930 . S
C2054 C2050 1.524 . S
C2054 H2066 0.956 . S
C2054 H2067 0.961 . S
C2054 H2068 0.961 . S
C2055 C2052 1.539 . S
C2055 H2069 0.958 . S
C2055 H2070 0.961 . S
C2055 H2071 0.960 . S
H2056 C2040 0.931 . S
H2057 C2045 0.929 . S
H2058 C2046 0.960 . S
H2059 C2046 0.962 . S
H2060 C2046 0.960 . S
H2061 C2047 0.961 . S
H2062 C2047 0.961 . S
H2063 C2047 0.961 . S
H2064 C2048 0.931 . S
H2065 C2053 0.930 . S
H2066 C2054 0.956 . S
H2067 C2054 0.961 . S
H2068 C2054 0.961 . S
H2069 C2055 0.958 . S
H2070 C2055 0.961 . S
H2071 C2055 0.960 . S
C2072 C2073 1.391 . S
C2072 C2074 1.394 . S
C2072 H2088 0.931 . S
C2073 C2072 1.391 . S
C2073 C2077 1.376 . S
C2074 C2072 1.394 . S
C2074 C2075 1.369 . S
C2074 C2078 1.531 . S
C2075 C2074 1.369 . S
C2075 C2076 1.410 . S
C2075 C2083 1.503 . S
C2076 C2075 1.410 . S
C2076 C2077 1.392 . S
C2076 C2079 1.511 . S
C2077 C2073 1.376 . S
C2077 C2076 1.392 . S
C2077 H2089 0.929 . S
C2078 C2074 1.531 . S
C2078 H2090 0.960 . S
C2078 H2091 0.962 . S
C2078 H2092 0.960 . S
C2079 C2076 1.511 . S
C2079 H2093 0.961 . S
C2079 H2094 0.961 . S
C2079 H2095 0.961 . S
C2080 C2081 1.370 . S
C2080 C2082 1.363 . S
C2080 H2096 0.931 . S
C2081 C2080 1.370 . S
C2081 C2085 1.408 . S
C2082 C2080 1.363 . S
C2082 C2083 1.370 . S
C2082 C2086 1.524 . S
C2083 C2075 1.503 . S
C2083 C2082 1.370 . S
C2083 C2084 1.403 . S
C2084 C2083 1.403 . S
C2084 C2085 1.404 . S
C2084 C2087 1.539 . S
C2085 C2081 1.408 . S
C2085 C2084 1.404 . S
C2085 H2097 0.930 . S
C2086 C2082 1.524 . S
C2086 H2098 0.956 . S
C2086 H2099 0.961 . S
C2086 H2100 0.961 . S
C2087 C2084 1.539 . S
C2087 H2101 0.958 . S
C2087 H2102 0.961 . S
C2087 H2103 0.960 . S
H2088 C2072 0.931 . S
H2089 C2077 0.929 . S
H2090 C2078 0.960 . S
H2091 C2078 0.962 . S
H2092 C2078 0.960 . S
H2093 C2079 0.961 . S
H2094 C2079 0.961 . S
H2095 C2079 0.961 . S
H2096 C2080 0.931 . S
H2097 C2085 0.930 . S
H2098 C2086 0.956 . S
H2099 C2086 0.961 . S
H2100 C2086 0.961 . S
H2101 C2087 0.958 . S
H2102 C2087 0.961 . S
H2103 C2087 0.960 . S
C2104 C2105 1.391 . S
C2104 C2106 1.394 . S
C2104 H2120 0.931 . S
C2105 C2104 1.391 . S
C2105 C2109 1.376 . S
C2106 C2104 1.394 . S
C2106 C2107 1.369 . S
C2106 C2110 1.531 . S
C2107 C2106 1.369 . S
C2107 C2108 1.410 . S
C2107 C2115 1.503 . S
C2108 C2107 1.410 . S
C2108 C2109 1.392 . S
C2108 C2111 1.511 . S
C2109 C2105 1.376 . S
C2109 C2108 1.392 . S
C2109 H2121 0.929 . S
C2110 C2106 1.531 . S
C2110 H2122 0.960 . S
C2110 H2123 0.962 . S
C2110 H2124 0.960 . S
C2111 C2108 1.511 . S
C2111 H2125 0.961 . S
C2111 H2126 0.961 . S
C2111 H2127 0.961 . S
C2112 C2113 1.370 . S
C2112 C2114 1.363 . S
C2112 H2128 0.931 . S
C2113 C2112 1.370 . S
C2113 C2117 1.408 . S
C2114 C2112 1.363 . S
C2114 C2115 1.370 . S
C2114 C2118 1.524 . S
C2115 C2107 1.503 . S
C2115 C2114 1.370 . S
C2115 C2116 1.403 . S
C2116 C2115 1.403 . S
C2116 C2117 1.404 . S
C2116 C2119 1.539 . S
C2117 C2113 1.408 . S
C2117 C2116 1.404 . S
C2117 H2129 0.930 . S
C2118 C2114 1.524 . S
C2118 H2130 0.956 . S
C2118 H2131 0.961 . S
C2118 H2132 0.961 . S
C2119 C2116 1.539 . S
C2119 H2133 0.958 . S
C2119 H2134 0.961 . S
C2119 H2135 0.960 . S
H2120 C2104 0.931 . S
H2121 C2109 0.929 . S
H2122 C2110 0.960 . S
H2123 C2110 0.962 . S
H2124 C2110 0.960 . S
H2125 C2111 0.961 . S
H2126 C2111 0.961 . S
H2127 C2111 0.961 . S
H2128 C2112 0.931 . S
H2129 C2117 0.930 . S
H2130 C2118 0.956 . S
H2131 C2118 0.961 . S
H2132 C2118 0.961 . S
H2133 C2119 0.958 . S
H2134 C2119 0.961 . S
H2135 C2119 0.960 . S
C2136 C2137 1.391 . S
C2136 C2138 1.394 . S
C2136 H2152 0.931 . S
C2137 C2136 1.391 . S
C2137 C2141 1.376 . S
C2138 C2136 1.394 . S
C2138 C2139 1.369 . S
C2138 C2142 1.531 . S
C2139 C2138 1.369 . S
C2139 C2140 1.410 . S
C2139 C2147 1.503 . S
C2140 C2139 1.410 . S
C2140 C2141 1.392 . S
C2140 C2143 1.511 . S
C2141 C2137 1.376 . S
C2141 C2140 1.392 . S
C2141 H2153 0.929 . S
C2142 C2138 1.531 . S
C2142 H2154 0.960 . S
C2142 H2155 0.962 . S
C2142 H2156 0.960 . S
C2143 C2140 1.511 . S
C2143 H2157 0.961 . S
C2143 H2158 0.961 . S
C2143 H2159 0.961 . S
C2144 C2145 1.370 . S
C2144 C2146 1.363 . S
C2144 H2160 0.931 . S
C2145 C2144 1.370 . S
C2145 C2149 1.408 . S
C2146 C2144 1.363 . S
C2146 C2147 1.370 . S
C2146 C2150 1.524 . S
C2147 C2139 1.503 . S
C2147 C2146 1.370 . S
C2147 C2148 1.403 . S
C2148 C2147 1.403 . S
C2148 C2149 1.404 . S
C2148 C2151 1.539 . S
C2149 C2145 1.408 . S
C2149 C2148 1.404 . S
C2149 H2161 0.930 . S
C2150 C2146 1.524 . S
C2150 H2162 0.956 . S
C2150 H2163 0.961 . S
C2150 H2164 0.961 . S
C2151 C2148 1.539 . S
C2151 H2165 0.958 . S
C2151 H2166 0.961 . S
C2151 H2167 0.960 . S
H2152 C2136 0.931 . S
H2153 C2141 0.929 . S
H2154 C2142 0.960 . S
H2155 C2142 0.962 . S
H2156 C2142 0.960 . S
H2157 C2143 0.961 . S
H2158 C2143 0.961 . S
H2159 C2143 0.961 . S
H2160 C2144 0.931 . S
H2161 C2149 0.930 . S
H2162 C2150 0.956 . S
H2163 C2150 0.961 . S
H2164 C2150 0.961 . S
H2165 C2151 0.958 . S
H2166 C2151 0.961 . S
H2167 C2151 0.960 . S
C2168 C2169 1.391 . S
C2168 C2170 1.394 . S
C2168 H2184 0.931 . S
C2169 C2168 1.391 . S
C2169 C2173 1.376 . S
C2170 C2168 1.394 . S
C2170 C2171 1.369 . S
C2170 C2174 1.531 . S
C2171 C2170 1.369 . S
C2171 C2172 1.410 . S
C2171 C2179 1.503 . S
C2172 C2171 1.410 . S
C2172 C2173 1.392 . S
C2172 C2175 1.511 . S
C2173 C2169 1.376 . S
C2173 C2172 1.392 . S
C2173 H2185 0.929 . S
C2174 C2170 1.531 . S
C2174 H2186 0.960 . S
C2174 H2187 0.962 . S
C2174 H2188 0.960 . S
C2175 C2172 1.511 . S
C2175 H2189 0.961 . S
C2175 H2190 0.961 . S
C2175 H2191 0.961 . S
C2176 C2177 1.370 . S
C2176 C2178 1.363 . S
C2176 H2192 0.931 . S
C2177 C2176 1.370 . S
C2177 C2181 1.408 . S
C2178 C2176 1.363 . S
C2178 C2179 1.370 . S
C2178 C2182 1.524 . S
C2179 C2171 1.503 . S
C2179 C2178 1.370 . S
C2179 C2180 1.403 . S
C2180 C2179 1.403 . S
C2180 C2181 1.404 . S
C2180 C2183 1.539 . S
C2181 C2177 1.408 . S
C2181 C2180 1.404 . S
C2181 H2193 0.930 . S
C2182 C2178 1.524 . S
C2182 H2194 0.956 . S
C2182 H2195 0.961 . S
C2182 H2196 0.961 . S
C2183 C2180 1.539 . S
C2183 H2197 0.958 . S
C2183 H2198 0.961 . S
C2183 H2199 0.960 . S
H2184 C2168 0.931 . S
H2185 C2173 0.929 . S
H2186 C2174 0.960 . S
H2187 C2174 0.962 . S
H2188 C2174 0.960 . S
H2189 C2175 0.961 . S
H2190 C2175 0.961 . S
H2191 C2175 0.961 . S
H2192 C2176 0.931 . S
H2193 C2181 0.930 . S
H2194 C2182 0.956 . S
H2195 C2182 0.961 . S
H2196 C2182 0.961 . S
H2197 C2183 0.958 . S
H2198 C2183 0.961 . S
H2199 C2183 0.960 . S
C2200 C2201 1.391 . S
C2200 C2202 1.394 . S
C2200 H2216 0.931 . S
C2201 C2200 1.391 . S
C2201 C2205 1.376 . S
C2202 C2200 1.394 . S
C2202 C2203 1.369 . S
C2202 C2206 1.531 . S
C2203 C2202 1.369 . S
C2203 C2204 1.410 . S
C2203 C2211 1.503 . S
C2204 C2203 1.410 . S
C2204 C2205 1.392 . S
C2204 C2207 1.511 . S
C2205 C2201 1.376 . S
C2205 C2204 1.392 . S
C2205 H2217 0.929 . S
C2206 C2202 1.531 . S
C2206 H2218 0.960 . S
C2206 H2219 0.962 . S
C2206 H2220 0.960 . S
C2207 C2204 1.511 . S
C2207 H2221 0.961 . S
C2207 H2222 0.961 . S
C2207 H2223 0.961 . S
C2208 C2209 1.370 . S
C2208 C2210 1.363 . S
C2208 H2224 0.931 . S
C2209 C2208 1.370 . S
C2209 C2213 1.408 . S
C2210 C2208 1.363 . S
C2210 C2211 1.370 . S
C2210 C2214 1.524 . S
C2211 C2203 1.503 . S
C2211 C2210 1.370 . S
C2211 C2212 1.403 . S
C2212 C2211 1.403 . S
C2212 C2213 1.404 . S
C2212 C2215 1.539 . S
C2213 C2209 1.408 . S
C2213 C2212 1.404 . S
C2213 H2225 0.930 . S
C2214 C2210 1.524 . S
C2214 H2226 0.956 . S
C2214 H2227 0.961 . S
C2214 H2228 0.961 . S
C2215 C2212 1.539 . S
C2215 H2229 0.958 . S
C2215 H2230 0.961 . S
C2215 H2231 0.960 . S
H2216 C2200 0.931 . S
H2217 C2205 0.929 . S
H2218 C2206 0.960 . S
H2219 C2206 0.962 . S
H2220 C2206 0.960 . S
H2221 C2207 0.961 . S
H2222 C2207 0.961 . S
H2223 C2207 0.961 . S
H2224 C2208 0.931 . S
H2225 C2213 0.930 . S
H2226 C2214 0.956 . S
H2227 C2214 0.961 . S
H2228 C2214 0.961 . S
H2229 C2215 0.958 . S
H2230 C2215 0.961 . S
H2231 C2215 0.960 . S
C2232 C2233 1.391 . S
C2232 C2234 1.394 . S
C2232 H2248 0.931 . S
C2233 C2232 1.391 . S
C2233 C2237 1.376 . S
C2234 C2232 1.394 . S
C2234 C2235 1.369 . S
C2234 C2238 1.531 . S
C2235 C2234 1.369 . S
C2235 C2236 1.410 . S
C2235 C2243 1.503 1_545 S
C2236 C2235 1.410 . S
C2236 C2237 1.392 . S
C2236 C2239 1.511 . S
C2237 C2233 1.376 . S
C2237 C2236 1.392 . S
C2237 H2249 0.929 . S
C2238 C2234 1.531 . S
C2238 H2250 0.960 . S
C2238 H2251 0.962 . S
C2238 H2252 0.960 . S
C2239 C2236 1.511 . S
C2239 H2253 0.961 . S
C2239 H2254 0.961 1_545 S
C2239 H2255 0.961 . S
C2240 C2241 1.370 . S
C2240 C2242 1.363 . S
C2240 H2256 0.931 . S
C2241 C2240 1.370 . S
C2241 C2245 1.408 . S
C2242 C2240 1.363 . S
C2242 C2243 1.370 . S
C2242 C2246 1.524 . S
C2243 C2235 1.503 1_565 S
C2243 C2242 1.370 . S
C2243 C2244 1.403 . S
C2244 C2243 1.403 . S
C2244 C2245 1.404 . S
C2244 C2247 1.539 1_565 S
C2245 C2241 1.408 . S
C2245 C2244 1.404 . S
C2245 H2257 0.930 . S
C2246 C2242 1.524 . S
C2246 H2258 0.956 . S
C2246 H2259 0.961 . S
C2246 H2260 0.961 . S
C2247 C2244 1.539 1_545 S
C2247 H2261 0.958 . S
C2247 H2262 0.961 . S
C2247 H2263 0.960 . S
H2248 C2232 0.931 . S
H2249 C2237 0.929 . S
H2250 C2238 0.960 . S
H2251 C2238 0.962 . S
H2252 C2238 0.960 . S
H2253 C2239 0.961 . S
H2254 C2239 0.961 1_565 S
H2255 C2239 0.961 . S
H2256 C2240 0.931 . S
H2257 C2245 0.930 . S
H2258 C2246 0.956 . S
H2259 C2246 0.961 . S
H2260 C2246 0.961 . S
H2261 C2247 0.958 . S
H2262 C2247 0.961 . S
H2263 C2247 0.960 . S
C2264 C2265 1.391 . S
C2264 C2266 1.394 . S
C2264 H2280 0.931 . S
C2265 C2264 1.391 . S
C2265 C2269 1.376 . S
C2266 C2264 1.394 . S
C2266 C2267 1.369 . S
C2266 C2270 1.531 . S
C2267 C2266 1.369 . S
C2267 C2268 1.410 . S
C2267 C2275 1.503 . S
C2268 C2267 1.410 . S
C2268 C2269 1.392 . S
C2268 C2271 1.511 . S
C2269 C2265 1.376 . S
C2269 C2268 1.392 . S
C2269 H2281 0.929 . S
C2270 C2266 1.531 . S
C2270 H2282 0.960 . S
C2270 H2283 0.962 . S
C2270 H2284 0.960 . S
C2271 C2268 1.511 . S
C2271 H2285 0.961 . S
C2271 H2286 0.961 . S
C2271 H2287 0.961 . S
C2272 C2273 1.370 . S
C2272 C2274 1.363 . S
C2272 H2288 0.931 . S
C2273 C2272 1.370 . S
C2273 C2277 1.408 . S
C2274 C2272 1.363 . S
C2274 C2275 1.370 . S
C2274 C2278 1.524 . S
C2275 C2267 1.503 . S
C2275 C2274 1.370 . S
C2275 C2276 1.403 . S
C2276 C2275 1.403 . S
C2276 C2277 1.404 . S
C2276 C2279 1.539 . S
C2277 C2273 1.408 . S
C2277 C2276 1.404 . S
C2277 H2289 0.930 . S
C2278 C2274 1.524 . S
C2278 H2290 0.956 . S
C2278 H2291 0.961 . S
C2278 H2292 0.961 . S
C2279 C2276 1.539 . S
C2279 H2293 0.958 . S
C2279 H2294 0.961 . S
C2279 H2295 0.960 . S
H2280 C2264 0.931 . S
H2281 C2269 0.929 . S
H2282 C2270 0.960 . S
H2283 C2270 0.962 . S
H2284 C2270 0.960 . S
H2285 C2271 0.961 . S
H2286 C2271 0.961 . S
H2287 C2271 0.961 . S
H2288 C2272 0.931 . S
H2289 C2277 0.930 . S
H2290 C2278 0.956 . S
H2291 C2278 0.961 . S
H2292 C2278 0.961 . S
H2293 C2279 0.958 . S
H2294 C2279 0.961 . S
H2295 C2279 0.960 . S
C2296 C2297 1.391 . S
C2296 C2298 1.394 . S
C2296 H2312 0.931 . S
C2297 C2296 1.391 . S
C2297 C2301 1.376 . S
C2298 C2296 1.394 . S
C2298 C2299 1.369 . S
C2298 C2302 1.531 . S
C2299 C2298 1.369 . S
C2299 C2300 1.410 . S
C2299 C2307 1.503 1_655 S
C2300 C2299 1.410 . S
C2300 C2301 1.392 . S
C2300 C2303 1.511 1_655 S
C2301 C2297 1.376 . S
C2301 C2300 1.392 . S
C2301 H2313 0.929 . S
C2302 C2298 1.531 . S
C2302 H2314 0.960 . S
C2302 H2315 0.962 . S
C2302 H2316 0.960 . S
C2303 C2300 1.511 1_455 S
C2303 H2317 0.961 . S
C2303 H2318 0.961 . S
C2303 H2319 0.961 . S
C2304 C2305 1.370 . S
C2304 C2306 1.363 . S
C2304 H2320 0.931 . S
C2305 C2304 1.370 . S
C2305 C2309 1.408 . S
C2306 C2304 1.363 . S
C2306 C2307 1.370 . S
C2306 C2310 1.524 1_455 S
C2307 C2299 1.503 1_455 S
C2307 C2306 1.370 . S
C2307 C2308 1.403 . S
C2308 C2307 1.403 . S
C2308 C2309 1.404 . S
C2308 C2311 1.539 . S
C2309 C2305 1.408 . S
C2309 C2308 1.404 . S
C2309 H2321 0.930 . S
C2310 C2306 1.524 1_655 S
C2310 H2322 0.956 . S
C2310 H2323 0.961 . S
C2310 H2324 0.961 . S
C2311 C2308 1.539 . S
C2311 H2325 0.958 . S
C2311 H2326 0.961 . S
C2311 H2327 0.960 . S
H2312 C2296 0.931 . S
H2313 C2301 0.929 . S
H2314 C2302 0.960 . S
H2315 C2302 0.962 . S
H2316 C2302 0.960 . S
H2317 C2303 0.961 . S
H2318 C2303 0.961 . S
H2319 C2303 0.961 . S
H2320 C2304 0.931 . S
H2321 C2309 0.930 . S
H2322 C2310 0.956 . S
H2323 C2310 0.961 . S
H2324 C2310 0.961 . S
H2325 C2311 0.958 . S
H2326 C2311 0.961 . S
H2327 C2311 0.960 . S
C2328 C2329 1.391 . S
C2328 C2330 1.394 . S
C2328 H2344 0.931 . S
C2329 C2328 1.391 . S
C2329 C2333 1.376 . S
C2330 C2328 1.394 . S
C2330 C2331 1.369 . S
C2330 C2334 1.531 . S
C2331 C2330 1.369 . S
C2331 C2332 1.410 . S
C2331 C2339 1.503 1_455 S
C2332 C2331 1.410 . S
C2332 C2333 1.392 . S
C2332 C2335 1.511 1_455 S
C2333 C2329 1.376 . S
C2333 C2332 1.392 . S
C2333 H2345 0.929 . S
C2334 C2330 1.531 . S
C2334 H2346 0.960 . S
C2334 H2347 0.962 . S
C2334 H2348 0.960 . S
C2335 C2332 1.511 1_655 S
C2335 H2349 0.961 . S
C2335 H2350 0.961 . S
C2335 H2351 0.961 . S
C2336 C2337 1.370 . S
C2336 C2338 1.363 . S
C2336 H2352 0.931 . S
C2337 C2336 1.370 . S
C2337 C2341 1.408 . S
C2338 C2336 1.363 . S
C2338 C2339 1.370 . S
C2338 C2342 1.524 . S
C2339 C2331 1.503 1_655 S
C2339 C2338 1.370 . S
C2339 C2340 1.403 . S
C2340 C2339 1.403 . S
C2340 C2341 1.404 . S
C2340 C2343 1.539 . S
C2341 C2337 1.408 . S
C2341 C2340 1.404 . S
C2341 H2353 0.930 . S
C2342 C2338 1.524 . S
C2342 H2354 0.956 1_655 S
C2342 H2355 0.961 . S
C2342 H2356 0.961 . S
C2343 C2340 1.539 . S
C2343 H2357 0.958 1_655 S
C2343 H2358 0.961 . S
C2343 H2359 0.960 . S
H2344 C2328 0.931 . S
H2345 C2333 0.929 . S
H2346 C2334 0.960 . S
H2347 C2334 0.962 . S
H2348 C2334 0.960 . S
H2349 C2335 0.961 . S
H2350 C2335 0.961 . S
H2351 C2335 0.961 . S
H2352 C2336 0.931 . S
H2353 C2341 0.930 . S
H2354 C2342 0.956 1_455 S
H2355 C2342 0.961 . S
H2356 C2342 0.961 . S
H2357 C2343 0.958 1_455 S
H2358 C2343 0.961 . S
H2359 C2343 0.960 . S
C2360 C2361 1.391 . S
C2360 C2362 1.394 . S
C2360 H2376 0.931 . S
C2361 C2360 1.391 . S
C2361 C2365 1.376 . S
C2362 C2360 1.394 . S
C2362 C2363 1.369 . S
C2362 C2366 1.531 . S
C2363 C2362 1.369 . S
C2363 C2364 1.410 . S
C2363 C2371 1.503 1_545 S
C2364 C2363 1.410 . S
C2364 C2365 1.392 . S
C2364 C2367 1.511 1_545 S
C2365 C2361 1.376 . S
C2365 C2364 1.392 . S
C2365 H2377 0.929 . S
C2366 C2362 1.531 . S
C2366 H2378 0.960 . S
C2366 H2379 0.962 . S
C2366 H2380 0.960 . S
C2367 C2364 1.511 1_565 S
C2367 H2381 0.961 . S
C2367 H2382 0.961 . S
C2367 H2383 0.961 . S
C2368 C2369 1.370 . S
C2368 C2370 1.363 . S
C2368 H2384 0.931 . S
C2369 C2368 1.370 . S
C2369 C2373 1.408 . S
C2370 C2368 1.363 . S
C2370 C2371 1.370 . S
C2370 C2374 1.524 . S
C2371 C2363 1.503 1_565 S
C2371 C2370 1.370 . S
C2371 C2372 1.403 . S
C2372 C2371 1.403 . S
C2372 C2373 1.404 . S
C2372 C2375 1.539 . S
C2373 C2369 1.408 . S
C2373 C2372 1.404 . S
C2373 H2385 0.930 . S
C2374 C2370 1.524 . S
C2374 H2386 0.956 1_565 S
C2374 H2387 0.961 . S
C2374 H2388 0.961 . S
C2375 C2372 1.539 . S
C2375 H2389 0.958 1_565 S
C2375 H2390 0.961 . S
C2375 H2391 0.960 . S
H2376 C2360 0.931 . S
H2377 C2365 0.929 . S
H2378 C2366 0.960 . S
H2379 C2366 0.962 . S
H2380 C2366 0.960 . S
H2381 C2367 0.961 . S
H2382 C2367 0.961 . S
H2383 C2367 0.961 . S
H2384 C2368 0.931 . S
H2385 C2373 0.930 . S
H2386 C2374 0.956 1_545 S
H2387 C2374 0.961 . S
H2388 C2374 0.961 . S
H2389 C2375 0.958 1_545 S
H2390 C2375 0.961 . S
H2391 C2375 0.960 . S
C2392 C2393 1.391 . S
C2392 C2394 1.394 . S
C2392 H2408 0.931 . S
C2393 C2392 1.391 . S
C2393 C2397 1.376 . S
C2394 C2392 1.394 . S
C2394 C2395 1.369 . S
C2394 C2398 1.531 . S
C2395 C2394 1.369 . S
C2395 C2396 1.410 . S
C2395 C2403 1.503 . S
C2396 C2395 1.410 . S
C2396 C2397 1.392 . S
C2396 C2399 1.511 . S
C2397 C2393 1.376 . S
C2397 C2396 1.392 . S
C2397 H2409 0.929 . S
C2398 C2394 1.531 . S
C2398 H2410 0.960 . S
C2398 H2411 0.962 . S
C2398 H2412 0.960 . S
C2399 C2396 1.511 . S
C2399 H2413 0.961 . S
C2399 H2414 0.961 . S
C2399 H2415 0.961 . S
C2400 C2401 1.370 . S
C2400 C2402 1.363 . S
C2400 H2416 0.931 . S
C2401 C2400 1.370 . S
C2401 C2405 1.408 . S
C2402 C2400 1.363 . S
C2402 C2403 1.370 . S
C2402 C2406 1.524 . S
C2403 C2395 1.503 . S
C2403 C2402 1.370 . S
C2403 C2404 1.403 . S
C2404 C2403 1.403 . S
C2404 C2405 1.404 . S
C2404 C2407 1.539 . S
C2405 C2401 1.408 . S
C2405 C2404 1.404 . S
C2405 H2417 0.930 . S
C2406 C2402 1.524 . S
C2406 H2418 0.956 . S
C2406 H2419 0.961 . S
C2406 H2420 0.961 . S
C2407 C2404 1.539 . S
C2407 H2421 0.958 . S
C2407 H2422 0.961 . S
C2407 H2423 0.960 . S
H2408 C2392 0.931 . S
H2409 C2397 0.929 . S
H2410 C2398 0.960 . S
H2411 C2398 0.962 . S
H2412 C2398 0.960 . S
H2413 C2399 0.961 . S
H2414 C2399 0.961 . S
H2415 C2399 0.961 . S
H2416 C2400 0.931 . S
H2417 C2405 0.930 . S
H2418 C2406 0.956 . S
H2419 C2406 0.961 . S
H2420 C2406 0.961 . S
H2421 C2407 0.958 . S
H2422 C2407 0.961 . S
H2423 C2407 0.960 . S
C2424 C2425 1.391 . S
C2424 C2426 1.394 . S
C2424 H2440 0.931 . S
C2425 C2424 1.391 . S
C2425 C2429 1.376 . S
C2426 C2424 1.394 . S
C2426 C2427 1.369 . S
C2426 C2430 1.531 1_545 S
C2427 C2426 1.369 . S
C2427 C2428 1.410 . S
C2427 C2435 1.503 1_545 S
C2428 C2427 1.410 . S
C2428 C2429 1.392 . S
C2428 C2431 1.511 . S
C2429 C2425 1.376 . S
C2429 C2428 1.392 . S
C2429 H2441 0.929 . S
C2430 C2426 1.531 1_565 S
C2430 H2442 0.960 . S
C2430 H2443 0.962 . S
C2430 H2444 0.960 . S
C2431 C2428 1.511 . S
C2431 H2445 0.961 . S
C2431 H2446 0.961 . S
C2431 H2447 0.961 . S
C2432 C2433 1.370 . S
C2432 C2434 1.363 . S
C2432 H2448 0.931 . S
C2433 C2432 1.370 . S
C2433 C2437 1.408 . S
C2434 C2432 1.363 . S
C2434 C2435 1.370 . S
C2434 C2438 1.524 . S
C2435 C2427 1.503 1_565 S
C2435 C2434 1.370 . S
C2435 C2436 1.403 . S
C2436 C2435 1.403 . S
C2436 C2437 1.404 . S
C2436 C2439 1.539 . S
C2437 C2433 1.408 . S
C2437 C2436 1.404 . S
C2437 H2449 0.930 . S
C2438 C2434 1.524 . S
C2438 H2450 0.956 . S
C2438 H2451 0.961 1_565 S
C2438 H2452 0.961 . S
C2439 C2436 1.539 . S
C2439 H2453 0.958 . S
C2439 H2454 0.961 . S
C2439 H2455 0.960 1_565 S
H2440 C2424 0.931 . S
H2441 C2429 0.929 . S
H2442 C2430 0.960 . S
H2443 C2430 0.962 . S
H2444 C2430 0.960 . S
H2445 C2431 0.961 . S
H2446 C2431 0.961 . S
H2447 C2431 0.961 . S
H2448 C2432 0.931 . S
H2449 C2437 0.930 . S
H2450 C2438 0.956 . S
H2451 C2438 0.961 1_545 S
H2452 C2438 0.961 . S
H2453 C2439 0.958 . S
H2454 C2439 0.961 . S
H2455 C2439 0.960 1_545 S
C2456 C2457 1.391 . S
C2456 C2458 1.394 . S
C2456 H2472 0.931 . S
C2457 C2456 1.391 . S
C2457 C2461 1.376 . S
C2458 C2456 1.394 . S
C2458 C2459 1.369 . S
C2458 C2462 1.531 . S
C2459 C2458 1.369 . S
C2459 C2460 1.410 . S
C2459 C2467 1.503 . S
C2460 C2459 1.410 . S
C2460 C2461 1.392 . S
C2460 C2463 1.511 . S
C2461 C2457 1.376 . S
C2461 C2460 1.392 . S
C2461 H2473 0.929 . S
C2462 C2458 1.531 . S
C2462 H2474 0.960 . S
C2462 H2475 0.962 . S
C2462 H2476 0.960 . S
C2463 C2460 1.511 . S
C2463 H2477 0.961 . S
C2463 H2478 0.961 . S
C2463 H2479 0.961 . S
C2464 C2465 1.370 . S
C2464 C2466 1.363 . S
C2464 H2480 0.931 . S
C2465 C2464 1.370 . S
C2465 C2469 1.408 . S
C2466 C2464 1.363 . S
C2466 C2467 1.370 . S
C2466 C2470 1.524 . S
C2467 C2459 1.503 . S
C2467 C2466 1.370 . S
C2467 C2468 1.403 . S
C2468 C2467 1.403 . S
C2468 C2469 1.404 . S
C2468 C2471 1.539 . S
C2469 C2465 1.408 . S
C2469 C2468 1.404 . S
C2469 H2481 0.930 . S
C2470 C2466 1.524 . S
C2470 H2482 0.956 . S
C2470 H2483 0.961 . S
C2470 H2484 0.961 . S
C2471 C2468 1.539 . S
C2471 H2485 0.958 . S
C2471 H2486 0.961 . S
C2471 H2487 0.960 . S
H2472 C2456 0.931 . S
H2473 C2461 0.929 . S
H2474 C2462 0.960 . S
H2475 C2462 0.962 . S
H2476 C2462 0.960 . S
H2477 C2463 0.961 . S
H2478 C2463 0.961 . S
H2479 C2463 0.961 . S
H2480 C2464 0.931 . S
H2481 C2469 0.930 . S
H2482 C2470 0.956 . S
H2483 C2470 0.961 . S
H2484 C2470 0.961 . S
H2485 C2471 0.958 . S
H2486 C2471 0.961 . S
H2487 C2471 0.960 . S
C2488 C2489 1.391 . S
C2488 C2490 1.394 . S
C2488 H2504 0.931 . S
C2489 C2488 1.391 . S
C2489 C2493 1.376 . S
C2490 C2488 1.394 . S
C2490 C2491 1.369 . S
C2490 C2494 1.531 . S
C2491 C2490 1.369 . S
C2491 C2492 1.410 . S
C2491 C2499 1.503 1_455 S
C2492 C2491 1.410 . S
C2492 C2493 1.392 . S
C2492 C2495 1.511 1_455 S
C2493 C2489 1.376 . S
C2493 C2492 1.392 . S
C2493 H2505 0.929 . S
C2494 C2490 1.531 . S
C2494 H2506 0.960 . S
C2494 H2507 0.962 . S
C2494 H2508 0.960 . S
C2495 C2492 1.511 1_655 S
C2495 H2509 0.961 . S
C2495 H2510 0.961 . S
C2495 H2511 0.961 . S
C2496 C2497 1.370 . S
C2496 C2498 1.363 . S
C2496 H2512 0.931 . S
C2497 C2496 1.370 . S
C2497 C2501 1.408 . S
C2498 C2496 1.363 . S
C2498 C2499 1.370 . S
C2498 C2502 1.524 1_655 S
C2499 C2491 1.503 1_655 S
C2499 C2498 1.370 . S
C2499 C2500 1.403 . S
C2500 C2499 1.403 . S
C2500 C2501 1.404 . S
C2500 C2503 1.539 . S
C2501 C2497 1.408 . S
C2501 C2500 1.404 . S
C2501 H2513 0.930 . S
C2502 C2498 1.524 1_455 S
C2502 H2514 0.956 . S
C2502 H2515 0.961 . S
C2502 H2516 0.961 . S
C2503 C2500 1.539 . S
C2503 H2517 0.958 . S
C2503 H2518 0.961 . S
C2503 H2519 0.960 . S
H2504 C2488 0.931 . S
H2505 C2493 0.929 . S
H2506 C2494 0.960 . S
H2507 C2494 0.962 . S
H2508 C2494 0.960 . S
H2509 C2495 0.961 . S
H2510 C2495 0.961 . S
H2511 C2495 0.961 . S
H2512 C2496 0.931 . S
H2513 C2501 0.930 . S
H2514 C2502 0.956 . S
H2515 C2502 0.961 . S
H2516 C2502 0.961 . S
H2517 C2503 0.958 . S
H2518 C2503 0.961 . S
H2519 C2503 0.960 . S
C2520 C2521 1.391 . S
C2520 C2522 1.394 . S
C2520 H2536 0.931 . S
C2521 C2520 1.391 . S
C2521 C2525 1.376 . S
C2522 C2520 1.394 . S
C2522 C2523 1.369 . S
C2522 C2526 1.531 1_655 S
C2523 C2522 1.369 . S
C2523 C2524 1.410 . S
C2523 C2531 1.503 1_655 S
C2524 C2523 1.410 . S
C2524 C2525 1.392 . S
C2524 C2527 1.511 . S
C2525 C2521 1.376 . S
C2525 C2524 1.392 . S
C2525 H2537 0.929 . S
C2526 C2522 1.531 1_455 S
C2526 H2538 0.960 . S
C2526 H2539 0.962 . S
C2526 H2540 0.960 . S
C2527 C2524 1.511 . S
C2527 H2541 0.961 . S
C2527 H2542 0.961 . S
C2527 H2543 0.961 . S
C2528 C2529 1.370 . S
C2528 C2530 1.363 . S
C2528 H2544 0.931 . S
C2529 C2528 1.370 . S
C2529 C2533 1.408 . S
C2530 C2528 1.363 . S
C2530 C2531 1.370 . S
C2530 C2534 1.524 . S
C2531 C2523 1.503 1_455 S
C2531 C2530 1.370 . S
C2531 C2532 1.403 . S
C2532 C2531 1.403 . S
C2532 C2533 1.404 . S
C2532 C2535 1.539 1_455 S
C2533 C2529 1.408 . S
C2533 C2532 1.404 . S
C2533 H2545 0.930 . S
C2534 C2530 1.524 . S
C2534 H2546 0.956 . S
C2534 H2547 0.961 . S
C2534 H2548 0.961 . S
C2535 C2532 1.539 1_655 S
C2535 H2549 0.958 . S
C2535 H2550 0.961 . S
C2535 H2551 0.960 . S
H2536 C2520 0.931 . S
H2537 C2525 0.929 . S
H2538 C2526 0.960 . S
H2539 C2526 0.962 . S
H2540 C2526 0.960 . S
H2541 C2527 0.961 . S
H2542 C2527 0.961 . S
H2543 C2527 0.961 . S
H2544 C2528 0.931 . S
H2545 C2533 0.930 . S
H2546 C2534 0.956 . S
H2547 C2534 0.961 . S
H2548 C2534 0.961 . S
H2549 C2535 0.958 . S
H2550 C2535 0.961 . S
H2551 C2535 0.960 . S
C2552 C2553 1.391 . S
C2552 C2554 1.394 . S
C2552 H2568 0.931 . S
C2553 C2552 1.391 . S
C2553 C2557 1.376 . S
C2554 C2552 1.394 . S
C2554 C2555 1.369 . S
C2554 C2558 1.531 . S
C2555 C2554 1.369 . S
C2555 C2556 1.410 . S
C2555 C2563 1.503 1_545 S
C2556 C2555 1.410 . S
C2556 C2557 1.392 . S
C2556 C2559 1.511 . S
C2557 C2553 1.376 . S
C2557 C2556 1.392 . S
C2557 H2569 0.929 . S
C2558 C2554 1.531 . S
C2558 H2570 0.960 . S
C2558 H2571 0.962 . S
C2558 H2572 0.960 . S
C2559 C2556 1.511 . S
C2559 H2573 0.961 . S
C2559 H2574 0.961 1_545 S
C2559 H2575 0.961 . S
C2560 C2561 1.370 . S
C2560 C2562 1.363 . S
C2560 H2576 0.931 . S
C2561 C2560 1.370 . S
C2561 C2565 1.408 . S
C2562 C2560 1.363 . S
C2562 C2563 1.370 . S
C2562 C2566 1.524 . S
C2563 C2555 1.503 1_565 S
C2563 C2562 1.370 . S
C2563 C2564 1.403 . S
C2564 C2563 1.403 . S
C2564 C2565 1.404 . S
C2564 C2567 1.539 1_565 S
C2565 C2561 1.408 . S
C2565 C2564 1.404 . S
C2565 H2577 0.930 . S
C2566 C2562 1.524 . S
C2566 H2578 0.956 . S
C2566 H2579 0.961 . S
C2566 H2580 0.961 . S
C2567 C2564 1.539 1_545 S
C2567 H2581 0.958 . S
C2567 H2582 0.961 . S
C2567 H2583 0.960 . S
H2568 C2552 0.931 . S
H2569 C2557 0.929 . S
H2570 C2558 0.960 . S
H2571 C2558 0.962 . S
H2572 C2558 0.960 . S
H2573 C2559 0.961 . S
H2574 C2559 0.961 1_565 S
H2575 C2559 0.961 . S
H2576 C2560 0.931 . S
H2577 C2565 0.930 . S
H2578 C2566 0.956 . S
H2579 C2566 0.961 . S
H2580 C2566 0.961 . S
H2581 C2567 0.958 . S
H2582 C2567 0.961 . S
H2583 C2567 0.960 . S
C2584 C2585 1.391 . S
C2584 C2586 1.394 . S
C2584 H2600 0.931 . S
C2585 C2584 1.391 . S
C2585 C2589 1.376 . S
C2586 C2584 1.394 . S
C2586 C2587 1.369 . S
C2586 C2590 1.531 . S
C2587 C2586 1.369 . S
C2587 C2588 1.410 . S
C2587 C2595 1.503 . S
C2588 C2587 1.410 . S
C2588 C2589 1.392 . S
C2588 C2591 1.511 . S
C2589 C2585 1.376 . S
C2589 C2588 1.392 . S
C2589 H2601 0.929 . S
C2590 C2586 1.531 . S
C2590 H2602 0.960 . S
C2590 H2603 0.962 . S
C2590 H2604 0.960 . S
C2591 C2588 1.511 . S
C2591 H2605 0.961 . S
C2591 H2606 0.961 . S
C2591 H2607 0.961 . S
C2592 C2593 1.370 . S
C2592 C2594 1.363 . S
C2592 H2608 0.931 . S
C2593 C2592 1.370 . S
C2593 C2597 1.408 . S
C2594 C2592 1.363 . S
C2594 C2595 1.370 . S
C2594 C2598 1.524 . S
C2595 C2587 1.503 . S
C2595 C2594 1.370 . S
C2595 C2596 1.403 . S
C2596 C2595 1.403 . S
C2596 C2597 1.404 . S
C2596 C2599 1.539 . S
C2597 C2593 1.408 . S
C2597 C2596 1.404 . S
C2597 H2609 0.930 . S
C2598 C2594 1.524 . S
C2598 H2610 0.956 . S
C2598 H2611 0.961 . S
C2598 H2612 0.961 . S
C2599 C2596 1.539 . S
C2599 H2613 0.958 . S
C2599 H2614 0.961 . S
C2599 H2615 0.960 . S
H2600 C2584 0.931 . S
H2601 C2589 0.929 . S
H2602 C2590 0.960 . S
H2603 C2590 0.962 . S
H2604 C2590 0.960 . S
H2605 C2591 0.961 . S
H2606 C2591 0.961 . S
H2607 C2591 0.961 . S
H2608 C2592 0.931 . S
H2609 C2597 0.930 . S
H2610 C2598 0.956 . S
H2611 C2598 0.961 . S
H2612 C2598 0.961 . S
H2613 C2599 0.958 . S
H2614 C2599 0.961 . S
H2615 C2599 0.960 . S
C2616 C2617 1.391 . S
C2616 C2618 1.394 . S
C2616 H2632 0.931 . S
C2617 C2616 1.391 . S
C2617 C2621 1.376 . S
C2618 C2616 1.394 . S
C2618 C2619 1.369 . S
C2618 C2622 1.531 . S
C2619 C2618 1.369 . S
C2619 C2620 1.410 . S
C2619 C2627 1.503 . S
C2620 C2619 1.410 . S
C2620 C2621 1.392 . S
C2620 C2623 1.511 . S
C2621 C2617 1.376 . S
C2621 C2620 1.392 . S
C2621 H2633 0.929 . S
C2622 C2618 1.531 . S
C2622 H2634 0.960 . S
C2622 H2635 0.962 . S
C2622 H2636 0.960 . S
C2623 C2620 1.511 . S
C2623 H2637 0.961 . S
C2623 H2638 0.961 . S
C2623 H2639 0.961 . S
C2624 C2625 1.370 . S
C2624 C2626 1.363 . S
C2624 H2640 0.931 . S
C2625 C2624 1.370 . S
C2625 C2629 1.408 . S
C2626 C2624 1.363 . S
C2626 C2627 1.370 . S
C2626 C2630 1.524 . S
C2627 C2619 1.503 . S
C2627 C2626 1.370 . S
C2627 C2628 1.403 . S
C2628 C2627 1.403 . S
C2628 C2629 1.404 . S
C2628 C2631 1.539 . S
C2629 C2625 1.408 . S
C2629 C2628 1.404 . S
C2629 H2641 0.930 . S
C2630 C2626 1.524 . S
C2630 H2642 0.956 . S
C2630 H2643 0.961 . S
C2630 H2644 0.961 . S
C2631 C2628 1.539 . S
C2631 H2645 0.958 . S
C2631 H2646 0.961 . S
C2631 H2647 0.960 . S
H2632 C2616 0.931 . S
H2633 C2621 0.929 . S
H2634 C2622 0.960 . S
H2635 C2622 0.962 . S
H2636 C2622 0.960 . S
H2637 C2623 0.961 . S
H2638 C2623 0.961 . S
H2639 C2623 0.961 . S
H2640 C2624 0.931 . S
H2641 C2629 0.930 . S
H2642 C2630 0.956 . S
H2643 C2630 0.961 . S
H2644 C2630 0.961 . S
H2645 C2631 0.958 . S
H2646 C2631 0.961 . S
H2647 C2631 0.960 . S
C2648 C2649 1.391 . S
C2648 C2650 1.394 . S
C2648 H2664 0.931 . S
C2649 C2648 1.391 . S
C2649 C2653 1.376 . S
C2650 C2648 1.394 . S
C2650 C2651 1.369 . S
C2650 C2654 1.531 . S
C2651 C2650 1.369 . S
C2651 C2652 1.410 . S
C2651 C2659 1.503 . S
C2652 C2651 1.410 . S
C2652 C2653 1.392 . S
C2652 C2655 1.511 . S
C2653 C2649 1.376 . S
C2653 C2652 1.392 . S
C2653 H2665 0.929 . S
C2654 C2650 1.531 . S
C2654 H2666 0.960 . S
C2654 H2667 0.962 . S
C2654 H2668 0.960 . S
C2655 C2652 1.511 . S
C2655 H2669 0.961 . S
C2655 H2670 0.961 . S
C2655 H2671 0.961 . S
C2656 C2657 1.370 . S
C2656 C2658 1.363 . S
C2656 H2672 0.931 . S
C2657 C2656 1.370 . S
C2657 C2661 1.408 . S
C2658 C2656 1.363 . S
C2658 C2659 1.370 . S
C2658 C2662 1.524 . S
C2659 C2651 1.503 . S
C2659 C2658 1.370 . S
C2659 C2660 1.403 . S
C2660 C2659 1.403 . S
C2660 C2661 1.404 . S
C2660 C2663 1.539 . S
C2661 C2657 1.408 . S
C2661 C2660 1.404 . S
C2661 H2673 0.930 . S
C2662 C2658 1.524 . S
C2662 H2674 0.956 . S
C2662 H2675 0.961 . S
C2662 H2676 0.961 . S
C2663 C2660 1.539 . S
C2663 H2677 0.958 . S
C2663 H2678 0.961 . S
C2663 H2679 0.960 . S
H2664 C2648 0.931 . S
H2665 C2653 0.929 . S
H2666 C2654 0.960 . S
H2667 C2654 0.962 . S
H2668 C2654 0.960 . S
H2669 C2655 0.961 . S
H2670 C2655 0.961 . S
H2671 C2655 0.961 . S
H2672 C2656 0.931 . S
H2673 C2661 0.930 . S
H2674 C2662 0.956 . S
H2675 C2662 0.961 . S
H2676 C2662 0.961 . S
H2677 C2663 0.958 . S
H2678 C2663 0.961 . S
H2679 C2663 0.960 . S
C2680 C2681 1.391 . S
C2680 C2682 1.394 . S
C2680 H2696 0.931 . S
C2681 C2680 1.391 . S
C2681 C2685 1.376 . S
C2682 C2680 1.394 . S
C2682 C2683 1.369 . S
C2682 C2686 1.531 . S
C2683 C2682 1.369 . S
C2683 C2684 1.410 . S
C2683 C2691 1.503 . S
C2684 C2683 1.410 . S
C2684 C2685 1.392 . S
C2684 C2687 1.511 . S
C2685 C2681 1.376 . S
C2685 C2684 1.392 . S
C2685 H2697 0.929 . S
C2686 C2682 1.531 . S
C2686 H2698 0.960 . S
C2686 H2699 0.962 . S
C2686 H2700 0.960 . S
C2687 C2684 1.511 . S
C2687 H2701 0.961 . S
C2687 H2702 0.961 . S
C2687 H2703 0.961 . S
C2688 C2689 1.370 . S
C2688 C2690 1.363 . S
C2688 H2704 0.931 . S
C2689 C2688 1.370 . S
C2689 C2693 1.408 . S
C2690 C2688 1.363 . S
C2690 C2691 1.370 . S
C2690 C2694 1.524 . S
C2691 C2683 1.503 . S
C2691 C2690 1.370 . S
C2691 C2692 1.403 . S
C2692 C2691 1.403 . S
C2692 C2693 1.404 . S
C2692 C2695 1.539 . S
C2693 C2689 1.408 . S
C2693 C2692 1.404 . S
C2693 H2705 0.930 . S
C2694 C2690 1.524 . S
C2694 H2706 0.956 . S
C2694 H2707 0.961 . S
C2694 H2708 0.961 . S
C2695 C2692 1.539 . S
C2695 H2709 0.958 . S
C2695 H2710 0.961 . S
C2695 H2711 0.960 . S
H2696 C2680 0.931 . S
H2697 C2685 0.929 . S
H2698 C2686 0.960 . S
H2699 C2686 0.962 . S
H2700 C2686 0.960 . S
H2701 C2687 0.961 . S
H2702 C2687 0.961 . S
H2703 C2687 0.961 . S
H2704 C2688 0.931 . S
H2705 C2693 0.930 . S
H2706 C2694 0.956 . S
H2707 C2694 0.961 . S
H2708 C2694 0.961 . S
H2709 C2695 0.958 . S
H2710 C2695 0.961 . S
H2711 C2695 0.960 . S
C2712 C2713 1.391 . S
C2712 C2714 1.394 . S
C2712 H2728 0.931 . S
C2713 C2712 1.391 . S
C2713 C2717 1.376 . S
C2714 C2712 1.394 . S
C2714 C2715 1.369 . S
C2714 C2718 1.531 . S
C2715 C2714 1.369 . S
C2715 C2716 1.410 . S
C2715 C2723 1.503 . S
C2716 C2715 1.410 . S
C2716 C2717 1.392 . S
C2716 C2719 1.511 . S
C2717 C2713 1.376 . S
C2717 C2716 1.392 . S
C2717 H2729 0.929 . S
C2718 C2714 1.531 . S
C2718 H2730 0.960 . S
C2718 H2731 0.962 . S
C2718 H2732 0.960 . S
C2719 C2716 1.511 . S
C2719 H2733 0.961 . S
C2719 H2734 0.961 . S
C2719 H2735 0.961 . S
C2720 C2721 1.370 . S
C2720 C2722 1.363 . S
C2720 H2736 0.931 . S
C2721 C2720 1.370 . S
C2721 C2725 1.408 . S
C2722 C2720 1.363 . S
C2722 C2723 1.370 . S
C2722 C2726 1.524 . S
C2723 C2715 1.503 . S
C2723 C2722 1.370 . S
C2723 C2724 1.403 . S
C2724 C2723 1.403 . S
C2724 C2725 1.404 . S
C2724 C2727 1.539 . S
C2725 C2721 1.408 . S
C2725 C2724 1.404 . S
C2725 H2737 0.930 . S
C2726 C2722 1.524 . S
C2726 H2738 0.956 . S
C2726 H2739 0.961 . S
C2726 H2740 0.961 . S
C2727 C2724 1.539 . S
C2727 H2741 0.958 . S
C2727 H2742 0.961 . S
C2727 H2743 0.960 . S
H2728 C2712 0.931 . S
H2729 C2717 0.929 . S
H2730 C2718 0.960 . S
H2731 C2718 0.962 . S
H2732 C2718 0.960 . S
H2733 C2719 0.961 . S
H2734 C2719 0.961 . S
H2735 C2719 0.961 . S
H2736 C2720 0.931 . S
H2737 C2725 0.930 . S
H2738 C2726 0.956 . S
H2739 C2726 0.961 . S
H2740 C2726 0.961 . S
H2741 C2727 0.958 . S
H2742 C2727 0.961 . S
H2743 C2727 0.960 . S
C2744 C2745 1.391 . S
C2744 C2746 1.394 . S
C2744 H2760 0.931 . S
C2745 C2744 1.391 . S
C2745 C2749 1.376 . S
C2746 C2744 1.394 . S
C2746 C2747 1.369 . S
C2746 C2750 1.531 . S
C2747 C2746 1.369 . S
C2747 C2748 1.410 . S
C2747 C2755 1.503 . S
C2748 C2747 1.410 . S
C2748 C2749 1.392 . S
C2748 C2751 1.511 . S
C2749 C2745 1.376 . S
C2749 C2748 1.392 . S
C2749 H2761 0.929 . S
C2750 C2746 1.531 . S
C2750 H2762 0.960 . S
C2750 H2763 0.962 . S
C2750 H2764 0.960 . S
C2751 C2748 1.511 . S
C2751 H2765 0.961 . S
C2751 H2766 0.961 . S
C2751 H2767 0.961 . S
C2752 C2753 1.370 . S
C2752 C2754 1.363 . S
C2752 H2768 0.931 . S
C2753 C2752 1.370 . S
C2753 C2757 1.408 . S
C2754 C2752 1.363 . S
C2754 C2755 1.370 . S
C2754 C2758 1.524 . S
C2755 C2747 1.503 . S
C2755 C2754 1.370 . S
C2755 C2756 1.403 . S
C2756 C2755 1.403 . S
C2756 C2757 1.404 . S
C2756 C2759 1.539 . S
C2757 C2753 1.408 . S
C2757 C2756 1.404 . S
C2757 H2769 0.930 . S
C2758 C2754 1.524 . S
C2758 H2770 0.956 . S
C2758 H2771 0.961 . S
C2758 H2772 0.961 . S
C2759 C2756 1.539 . S
C2759 H2773 0.958 . S
C2759 H2774 0.961 . S
C2759 H2775 0.960 . S
H2760 C2744 0.931 . S
H2761 C2749 0.929 . S
H2762 C2750 0.960 . S
H2763 C2750 0.962 . S
H2764 C2750 0.960 . S
H2765 C2751 0.961 . S
H2766 C2751 0.961 . S
H2767 C2751 0.961 . S
H2768 C2752 0.931 . S
H2769 C2757 0.930 . S
H2770 C2758 0.956 . S
H2771 C2758 0.961 . S
H2772 C2758 0.961 . S
H2773 C2759 0.958 . S
H2774 C2759 0.961 . S
H2775 C2759 0.960 . S
C2776 C2777 1.391 . S
C2776 C2778 1.394 . S
C2776 H2792 0.931 . S
C2777 C2776 1.391 . S
C2777 C2781 1.376 . S
C2778 C2776 1.394 . S
C2778 C2779 1.369 . S
C2778 C2782 1.531 . S
C2779 C2778 1.369 . S
C2779 C2780 1.410 . S
C2779 C2787 1.503 . S
C2780 C2779 1.410 . S
C2780 C2781 1.392 . S
C2780 C2783 1.511 . S
C2781 C2777 1.376 . S
C2781 C2780 1.392 . S
C2781 H2793 0.929 . S
C2782 C2778 1.531 . S
C2782 H2794 0.960 . S
C2782 H2795 0.962 . S
C2782 H2796 0.960 . S
C2783 C2780 1.511 . S
C2783 H2797 0.961 . S
C2783 H2798 0.961 . S
C2783 H2799 0.961 . S
C2784 C2785 1.370 . S
C2784 C2786 1.363 . S
C2784 H2800 0.931 . S
C2785 C2784 1.370 . S
C2785 C2789 1.408 . S
C2786 C2784 1.363 . S
C2786 C2787 1.370 . S
C2786 C2790 1.524 . S
C2787 C2779 1.503 . S
C2787 C2786 1.370 . S
C2787 C2788 1.403 . S
C2788 C2787 1.403 . S
C2788 C2789 1.404 . S
C2788 C2791 1.539 . S
C2789 C2785 1.408 . S
C2789 C2788 1.404 . S
C2789 H2801 0.930 . S
C2790 C2786 1.524 . S
C2790 H2802 0.956 . S
C2790 H2803 0.961 . S
C2790 H2804 0.961 . S
C2791 C2788 1.539 . S
C2791 H2805 0.958 . S
C2791 H2806 0.961 . S
C2791 H2807 0.960 . S
H2792 C2776 0.931 . S
H2793 C2781 0.929 . S
H2794 C2782 0.960 . S
H2795 C2782 0.962 . S
H2796 C2782 0.960 . S
H2797 C2783 0.961 . S
H2798 C2783 0.961 . S
H2799 C2783 0.961 . S
H2800 C2784 0.931 . S
H2801 C2789 0.930 . S
H2802 C2790 0.956 . S
H2803 C2790 0.961 . S
H2804 C2790 0.961 . S
H2805 C2791 0.958 . S
H2806 C2791 0.961 . S
H2807 C2791 0.960 . S
C2808 C2809 1.391 . S
C2808 C2810 1.394 . S
C2808 H2824 0.931 . S
C2809 C2808 1.391 . S
C2809 C2813 1.376 . S
C2810 C2808 1.394 . S
C2810 C2811 1.369 . S
C2810 C2814 1.531 . S
C2811 C2810 1.369 . S
C2811 C2812 1.410 . S
C2811 C2819 1.503 . S
C2812 C2811 1.410 . S
C2812 C2813 1.392 . S
C2812 C2815 1.511 . S
C2813 C2809 1.376 . S
C2813 C2812 1.392 . S
C2813 H2825 0.929 . S
C2814 C2810 1.531 . S
C2814 H2826 0.960 . S
C2814 H2827 0.962 . S
C2814 H2828 0.960 . S
C2815 C2812 1.511 . S
C2815 H2829 0.961 . S
C2815 H2830 0.961 . S
C2815 H2831 0.961 . S
C2816 C2817 1.370 . S
C2816 C2818 1.363 . S
C2816 H2832 0.931 . S
C2817 C2816 1.370 . S
C2817 C2821 1.408 . S
C2818 C2816 1.363 . S
C2818 C2819 1.370 . S
C2818 C2822 1.524 . S
C2819 C2811 1.503 . S
C2819 C2818 1.370 . S
C2819 C2820 1.403 . S
C2820 C2819 1.403 . S
C2820 C2821 1.404 . S
C2820 C2823 1.539 . S
C2821 C2817 1.408 . S
C2821 C2820 1.404 . S
C2821 H2833 0.930 . S
C2822 C2818 1.524 . S
C2822 H2834 0.956 . S
C2822 H2835 0.961 . S
C2822 H2836 0.961 . S
C2823 C2820 1.539 . S
C2823 H2837 0.958 . S
C2823 H2838 0.961 . S
C2823 H2839 0.960 . S
H2824 C2808 0.931 . S
H2825 C2813 0.929 . S
H2826 C2814 0.960 . S
H2827 C2814 0.962 . S
H2828 C2814 0.960 . S
H2829 C2815 0.961 . S
H2830 C2815 0.961 . S
H2831 C2815 0.961 . S
H2832 C2816 0.931 . S
H2833 C2821 0.930 . S
H2834 C2822 0.956 . S
H2835 C2822 0.961 . S
H2836 C2822 0.961 . S
H2837 C2823 0.958 . S
H2838 C2823 0.961 . S
H2839 C2823 0.960 . S
C2840 C2841 1.391 . S
C2840 C2842 1.394 . S
C2840 H2856 0.931 . S
C2841 C2840 1.391 . S
C2841 C2845 1.376 . S
C2842 C2840 1.394 . S
C2842 C2843 1.369 . S
C2842 C2846 1.531 . S
C2843 C2842 1.369 . S
C2843 C2844 1.410 . S
C2843 C2851 1.503 . S
C2844 C2843 1.410 . S
C2844 C2845 1.392 . S
C2844 C2847 1.511 . S
C2845 C2841 1.376 . S
C2845 C2844 1.392 . S
C2845 H2857 0.929 . S
C2846 C2842 1.531 . S
C2846 H2858 0.960 . S
C2846 H2859 0.962 . S
C2846 H2860 0.960 . S
C2847 C2844 1.511 . S
C2847 H2861 0.961 . S
C2847 H2862 0.961 . S
C2847 H2863 0.961 . S
C2848 C2849 1.370 . S
C2848 C2850 1.363 . S
C2848 H2864 0.931 . S
C2849 C2848 1.370 . S
C2849 C2853 1.408 . S
C2850 C2848 1.363 . S
C2850 C2851 1.370 . S
C2850 C2854 1.524 . S
C2851 C2843 1.503 . S
C2851 C2850 1.370 . S
C2851 C2852 1.403 . S
C2852 C2851 1.403 . S
C2852 C2853 1.404 . S
C2852 C2855 1.539 . S
C2853 C2849 1.408 . S
C2853 C2852 1.404 . S
C2853 H2865 0.930 . S
C2854 C2850 1.524 . S
C2854 H2866 0.956 . S
C2854 H2867 0.961 . S
C2854 H2868 0.961 . S
C2855 C2852 1.539 . S
C2855 H2869 0.958 . S
C2855 H2870 0.961 . S
C2855 H2871 0.960 . S
H2856 C2840 0.931 . S
H2857 C2845 0.929 . S
H2858 C2846 0.960 . S
H2859 C2846 0.962 . S
H2860 C2846 0.960 . S
H2861 C2847 0.961 . S
H2862 C2847 0.961 . S
H2863 C2847 0.961 . S
H2864 C2848 0.931 . S
H2865 C2853 0.930 . S
H2866 C2854 0.956 . S
H2867 C2854 0.961 . S
H2868 C2854 0.961 . S
H2869 C2855 0.958 . S
H2870 C2855 0.961 . S
H2871 C2855 0.960 . S
C2872 C2873 1.391 . S
C2872 C2874 1.394 . S
C2872 H2888 0.931 . S
C2873 C2872 1.391 . S
C2873 C2877 1.376 . S
C2874 C2872 1.394 . S
C2874 C2875 1.369 . S
C2874 C2878 1.531 . S
C2875 C2874 1.369 . S
C2875 C2876 1.410 . S
C2875 C2883 1.503 . S
C2876 C2875 1.410 . S
C2876 C2877 1.392 . S
C2876 C2879 1.511 . S
C2877 C2873 1.376 . S
C2877 C2876 1.392 . S
C2877 H2889 0.929 . S
C2878 C2874 1.531 . S
C2878 H2890 0.960 . S
C2878 H2891 0.962 . S
C2878 H2892 0.960 . S
C2879 C2876 1.511 . S
C2879 H2893 0.961 . S
C2879 H2894 0.961 . S
C2879 H2895 0.961 . S
C2880 C2881 1.370 . S
C2880 C2882 1.363 . S
C2880 H2896 0.931 . S
C2881 C2880 1.370 . S
C2881 C2885 1.408 . S
C2882 C2880 1.363 . S
C2882 C2883 1.370 . S
C2882 C2886 1.524 . S
C2883 C2875 1.503 . S
C2883 C2882 1.370 . S
C2883 C2884 1.403 . S
C2884 C2883 1.403 . S
C2884 C2885 1.404 . S
C2884 C2887 1.539 . S
C2885 C2881 1.408 . S
C2885 C2884 1.404 . S
C2885 H2897 0.930 . S
C2886 C2882 1.524 . S
C2886 H2898 0.956 . S
C2886 H2899 0.961 . S
C2886 H2900 0.961 . S
C2887 C2884 1.539 . S
C2887 H2901 0.958 . S
C2887 H2902 0.961 . S
C2887 H2903 0.960 . S
H2888 C2872 0.931 . S
H2889 C2877 0.929 . S
H2890 C2878 0.960 . S
H2891 C2878 0.962 . S
H2892 C2878 0.960 . S
H2893 C2879 0.961 . S
H2894 C2879 0.961 . S
H2895 C2879 0.961 . S
H2896 C2880 0.931 . S
H2897 C2885 0.930 . S
H2898 C2886 0.956 . S
H2899 C2886 0.961 . S
H2900 C2886 0.961 . S
H2901 C2887 0.958 . S
H2902 C2887 0.961 . S
H2903 C2887 0.960 . S
C2904 C2905 1.391 . S
C2904 C2906 1.394 . S
C2904 H2920 0.931 . S
C2905 C2904 1.391 . S
C2905 C2909 1.376 . S
C2906 C2904 1.394 . S
C2906 C2907 1.369 . S
C2906 C2910 1.531 . S
C2907 C2906 1.369 . S
C2907 C2908 1.410 . S
C2907 C2915 1.503 . S
C2908 C2907 1.410 . S
C2908 C2909 1.392 . S
C2908 C2911 1.511 . S
C2909 C2905 1.376 . S
C2909 C2908 1.392 . S
C2909 H2921 0.929 . S
C2910 C2906 1.531 . S
C2910 H2922 0.960 . S
C2910 H2923 0.962 . S
C2910 H2924 0.960 . S
C2911 C2908 1.511 . S
C2911 H2925 0.961 . S
C2911 H2926 0.961 . S
C2911 H2927 0.961 . S
C2912 C2913 1.370 . S
C2912 C2914 1.363 . S
C2912 H2928 0.931 . S
C2913 C2912 1.370 . S
C2913 C2917 1.408 . S
C2914 C2912 1.363 . S
C2914 C2915 1.370 . S
C2914 C2918 1.524 . S
C2915 C2907 1.503 . S
C2915 C2914 1.370 . S
C2915 C2916 1.403 . S
C2916 C2915 1.403 . S
C2916 C2917 1.404 . S
C2916 C2919 1.539 . S
C2917 C2913 1.408 . S
C2917 C2916 1.404 . S
C2917 H2929 0.930 . S
C2918 C2914 1.524 . S
C2918 H2930 0.956 . S
C2918 H2931 0.961 . S
C2918 H2932 0.961 . S
C2919 C2916 1.539 . S
C2919 H2933 0.958 . S
C2919 H2934 0.961 . S
C2919 H2935 0.960 . S
H2920 C2904 0.931 . S
H2921 C2909 0.929 . S
H2922 C2910 0.960 . S
H2923 C2910 0.962 . S
H2924 C2910 0.960 . S
H2925 C2911 0.961 . S
H2926 C2911 0.961 . S
H2927 C2911 0.961 . S
H2928 C2912 0.931 . S
H2929 C2917 0.930 . S
H2930 C2918 0.956 . S
H2931 C2918 0.961 . S
H2932 C2918 0.961 . S
H2933 C2919 0.958 . S
H2934 C2919 0.961 . S
H2935 C2919 0.960 . S
C2936 C2937 1.391 . S
C2936 C2938 1.394 . S
C2936 H2952 0.931 . S
C2937 C2936 1.391 . S
C2937 C2941 1.376 . S
C2938 C2936 1.394 . S
C2938 C2939 1.369 . S
C2938 C2942 1.531 . S
C2939 C2938 1.369 . S
C2939 C2940 1.410 . S
C2939 C2947 1.503 . S
C2940 C2939 1.410 . S
C2940 C2941 1.392 . S
C2940 C2943 1.511 . S
C2941 C2937 1.376 . S
C2941 C2940 1.392 . S
C2941 H2953 0.929 . S
C2942 C2938 1.531 . S
C2942 H2954 0.960 . S
C2942 H2955 0.962 . S
C2942 H2956 0.960 . S
C2943 C2940 1.511 . S
C2943 H2957 0.961 . S
C2943 H2958 0.961 . S
C2943 H2959 0.961 . S
C2944 C2945 1.370 . S
C2944 C2946 1.363 . S
C2944 H2960 0.931 . S
C2945 C2944 1.370 . S
C2945 C2949 1.408 . S
C2946 C2944 1.363 . S
C2946 C2947 1.370 . S
C2946 C2950 1.524 . S
C2947 C2939 1.503 . S
C2947 C2946 1.370 . S
C2947 C2948 1.403 . S
C2948 C2947 1.403 . S
C2948 C2949 1.404 . S
C2948 C2951 1.539 . S
C2949 C2945 1.408 . S
C2949 C2948 1.404 . S
C2949 H2961 0.930 . S
C2950 C2946 1.524 . S
C2950 H2962 0.956 . S
C2950 H2963 0.961 . S
C2950 H2964 0.961 . S
C2951 C2948 1.539 . S
C2951 H2965 0.958 . S
C2951 H2966 0.961 . S
C2951 H2967 0.960 . S
H2952 C2936 0.931 . S
H2953 C2941 0.929 . S
H2954 C2942 0.960 . S
H2955 C2942 0.962 . S
H2956 C2942 0.960 . S
H2957 C2943 0.961 . S
H2958 C2943 0.961 . S
H2959 C2943 0.961 . S
H2960 C2944 0.931 . S
H2961 C2949 0.930 . S
H2962 C2950 0.956 . S
H2963 C2950 0.961 . S
H2964 C2950 0.961 . S
H2965 C2951 0.958 . S
H2966 C2951 0.961 . S
H2967 C2951 0.960 . S
C2968 C2969 1.391 . S
C2968 C2970 1.394 . S
C2968 H2984 0.931 . S
C2969 C2968 1.391 . S
C2969 C2973 1.376 . S
C2970 C2968 1.394 . S
C2970 C2971 1.369 . S
C2970 C2974 1.531 . S
C2971 C2970 1.369 . S
C2971 C2972 1.410 . S
C2971 C2979 1.503 . S
C2972 C2971 1.410 . S
C2972 C2973 1.392 . S
C2972 C2975 1.511 . S
C2973 C2969 1.376 . S
C2973 C2972 1.392 . S
C2973 H2985 0.929 . S
C2974 C2970 1.531 . S
C2974 H2986 0.960 . S
C2974 H2987 0.962 . S
C2974 H2988 0.960 . S
C2975 C2972 1.511 . S
C2975 H2989 0.961 . S
C2975 H2990 0.961 . S
C2975 H2991 0.961 . S
C2976 C2977 1.370 . S
C2976 C2978 1.363 . S
C2976 H2992 0.931 . S
C2977 C2976 1.370 . S
C2977 C2981 1.408 . S
C2978 C2976 1.363 . S
C2978 C2979 1.370 . S
C2978 C2982 1.524 . S
C2979 C2971 1.503 . S
C2979 C2978 1.370 . S
C2979 C2980 1.403 . S
C2980 C2979 1.403 . S
C2980 C2981 1.404 . S
C2980 C2983 1.539 . S
C2981 C2977 1.408 . S
C2981 C2980 1.404 . S
C2981 H2993 0.930 . S
C2982 C2978 1.524 . S
C2982 H2994 0.956 . S
C2982 H2995 0.961 . S
C2982 H2996 0.961 . S
C2983 C2980 1.539 . S
C2983 H2997 0.958 . S
C2983 H2998 0.961 . S
C2983 H2999 0.960 . S
H2984 C2968 0.931 . S
H2985 C2973 0.929 . S
H2986 C2974 0.960 . S
H2987 C2974 0.962 . S
H2988 C2974 0.960 . S
H2989 C2975 0.961 . S
H2990 C2975 0.961 . S
H2991 C2975 0.961 . S
H2992 C2976 0.931 . S
H2993 C2981 0.930 . S
H2994 C2982 0.956 . S
H2995 C2982 0.961 . S
H2996 C2982 0.961 . S
H2997 C2983 0.958 . S
H2998 C2983 0.961 . S
H2999 C2983 0.960 . S
C3000 C3001 1.391 . S
C3000 C3002 1.394 . S
C3000 H3016 0.931 . S
C3001 C3000 1.391 . S
C3001 C3005 1.376 . S
C3002 C3000 1.394 . S
C3002 C3003 1.369 . S
C3002 C3006 1.531 . S
C3003 C3002 1.369 . S
C3003 C3004 1.410 . S
C3003 C3011 1.503 . S
C3004 C3003 1.410 . S
C3004 C3005 1.392 . S
C3004 C3007 1.511 . S
C3005 C3001 1.376 . S
C3005 C3004 1.392 . S
C3005 H3017 0.929 . S
C3006 C3002 1.531 . S
C3006 H3018 0.960 . S
C3006 H3019 0.962 . S
C3006 H3020 0.960 . S
C3007 C3004 1.511 . S
C3007 H3021 0.961 . S
C3007 H3022 0.961 . S
C3007 H3023 0.961 . S
C3008 C3009 1.370 . S
C3008 C3010 1.363 . S
C3008 H3024 0.931 . S
C3009 C3008 1.370 . S
C3009 C3013 1.408 . S
C3010 C3008 1.363 . S
C3010 C3011 1.370 . S
C3010 C3014 1.524 . S
C3011 C3003 1.503 . S
C3011 C3010 1.370 . S
C3011 C3012 1.403 . S
C3012 C3011 1.403 . S
C3012 C3013 1.404 . S
C3012 C3015 1.539 . S
C3013 C3009 1.408 . S
C3013 C3012 1.404 . S
C3013 H3025 0.930 . S
C3014 C3010 1.524 . S
C3014 H3026 0.956 . S
C3014 H3027 0.961 . S
C3014 H3028 0.961 . S
C3015 C3012 1.539 . S
C3015 H3029 0.958 . S
C3015 H3030 0.961 . S
C3015 H3031 0.960 . S
H3016 C3000 0.931 . S
H3017 C3005 0.929 . S
H3018 C3006 0.960 . S
H3019 C3006 0.962 . S
H3020 C3006 0.960 . S
H3021 C3007 0.961 . S
H3022 C3007 0.961 . S
H3023 C3007 0.961 . S
H3024 C3008 0.931 . S
H3025 C3013 0.930 . S
H3026 C3014 0.956 . S
H3027 C3014 0.961 . S
H3028 C3014 0.961 . S
H3029 C3015 0.958 . S
H3030 C3015 0.961 . S
H3031 C3015 0.960 . S
C3032 C3033 1.391 . S
C3032 C3034 1.394 . S
C3032 H3048 0.931 . S
C3033 C3032 1.391 . S
C3033 C3037 1.376 . S
C3034 C3032 1.394 . S
C3034 C3035 1.369 . S
C3034 C3038 1.531 . S
C3035 C3034 1.369 . S
C3035 C3036 1.410 . S
C3035 C3043 1.503 . S
C3036 C3035 1.410 . S
C3036 C3037 1.392 . S
C3036 C3039 1.511 . S
C3037 C3033 1.376 . S
C3037 C3036 1.392 . S
C3037 H3049 0.929 . S
C3038 C3034 1.531 . S
C3038 H3050 0.960 . S
C3038 H3051 0.962 . S
C3038 H3052 0.960 . S
C3039 C3036 1.511 . S
C3039 H3053 0.961 . S
C3039 H3054 0.961 . S
C3039 H3055 0.961 . S
C3040 C3041 1.370 . S
C3040 C3042 1.363 . S
C3040 H3056 0.931 . S
C3041 C3040 1.370 . S
C3041 C3045 1.408 . S
C3042 C3040 1.363 . S
C3042 C3043 1.370 . S
C3042 C3046 1.524 . S
C3043 C3035 1.503 . S
C3043 C3042 1.370 . S
C3043 C3044 1.403 . S
C3044 C3043 1.403 . S
C3044 C3045 1.404 . S
C3044 C3047 1.539 . S
C3045 C3041 1.408 . S
C3045 C3044 1.404 . S
C3045 H3057 0.930 . S
C3046 C3042 1.524 . S
C3046 H3058 0.956 . S
C3046 H3059 0.961 . S
C3046 H3060 0.961 . S
C3047 C3044 1.539 . S
C3047 H3061 0.958 . S
C3047 H3062 0.961 . S
C3047 H3063 0.960 . S
H3048 C3032 0.931 . S
H3049 C3037 0.929 . S
H3050 C3038 0.960 . S
H3051 C3038 0.962 . S
H3052 C3038 0.960 . S
H3053 C3039 0.961 . S
H3054 C3039 0.961 . S
H3055 C3039 0.961 . S
H3056 C3040 0.931 . S
H3057 C3045 0.930 . S
H3058 C3046 0.956 . S
H3059 C3046 0.961 . S
H3060 C3046 0.961 . S
H3061 C3047 0.958 . S
H3062 C3047 0.961 . S
H3063 C3047 0.960 . S
C3064 C3065 1.391 . S
C3064 C3066 1.394 . S
C3064 H3080 0.931 . S
C3065 C3064 1.391 . S
C3065 C3069 1.376 . S
C3066 C3064 1.394 . S
C3066 C3067 1.369 . S
C3066 C3070 1.531 . S
C3067 C3066 1.369 . S
C3067 C3068 1.410 . S
C3067 C3075 1.503 . S
C3068 C3067 1.410 . S
C3068 C3069 1.392 . S
C3068 C3071 1.511 . S
C3069 C3065 1.376 . S
C3069 C3068 1.392 . S
C3069 H3081 0.929 . S
C3070 C3066 1.531 . S
C3070 H3082 0.960 . S
C3070 H3083 0.962 . S
C3070 H3084 0.960 . S
C3071 C3068 1.511 . S
C3071 H3085 0.961 . S
C3071 H3086 0.961 . S
C3071 H3087 0.961 . S
C3072 C3073 1.370 . S
C3072 C3074 1.363 . S
C3072 H3088 0.931 . S
C3073 C3072 1.370 . S
C3073 C3077 1.408 . S
C3074 C3072 1.363 . S
C3074 C3075 1.370 . S
C3074 C3078 1.524 . S
C3075 C3067 1.503 . S
C3075 C3074 1.370 . S
C3075 C3076 1.403 . S
C3076 C3075 1.403 . S
C3076 C3077 1.404 . S
C3076 C3079 1.539 . S
C3077 C3073 1.408 . S
C3077 C3076 1.404 . S
C3077 H3089 0.930 . S
C3078 C3074 1.524 . S
C3078 H3090 0.956 . S
C3078 H3091 0.961 . S
C3078 H3092 0.961 . S
C3079 C3076 1.539 . S
C3079 H3093 0.958 . S
C3079 H3094 0.961 . S
C3079 H3095 0.960 . S
H3080 C3064 0.931 . S
H3081 C3069 0.929 . S
H3082 C3070 0.960 . S
H3083 C3070 0.962 . S
H3084 C3070 0.960 . S
H3085 C3071 0.961 . S
H3086 C3071 0.961 . S
H3087 C3071 0.961 . S
H3088 C3072 0.931 . S
H3089 C3077 0.930 . S
H3090 C3078 0.956 . S
H3091 C3078 0.961 . S
H3092 C3078 0.961 . S
H3093 C3079 0.958 . S
H3094 C3079 0.961 . S
H3095 C3079 0.960 . S
C3096 C3097 1.391 . S
C3096 C3098 1.394 . S
C3096 H3112 0.931 . S
C3097 C3096 1.391 . S
C3097 C3101 1.376 . S
C3098 C3096 1.394 . S
C3098 C3099 1.369 . S
C3098 C3102 1.531 . S
C3099 C3098 1.369 . S
C3099 C3100 1.410 . S
C3099 C3107 1.503 . S
C3100 C3099 1.410 . S
C3100 C3101 1.392 . S
C3100 C3103 1.511 . S
C3101 C3097 1.376 . S
C3101 C3100 1.392 . S
C3101 H3113 0.929 . S
C3102 C3098 1.531 . S
C3102 H3114 0.960 . S
C3102 H3115 0.962 . S
C3102 H3116 0.960 . S
C3103 C3100 1.511 . S
C3103 H3117 0.961 . S
C3103 H3118 0.961 . S
C3103 H3119 0.961 . S
C3104 C3105 1.370 . S
C3104 C3106 1.363 . S
C3104 H3120 0.931 . S
C3105 C3104 1.370 . S
C3105 C3109 1.408 . S
C3106 C3104 1.363 . S
C3106 C3107 1.370 . S
C3106 C3110 1.524 . S
C3107 C3099 1.503 . S
C3107 C3106 1.370 . S
C3107 C3108 1.403 . S
C3108 C3107 1.403 . S
C3108 C3109 1.404 . S
C3108 C3111 1.539 . S
C3109 C3105 1.408 . S
C3109 C3108 1.404 . S
C3109 H3121 0.930 . S
C3110 C3106 1.524 . S
C3110 H3122 0.956 . S
C3110 H3123 0.961 . S
C3110 H3124 0.961 . S
C3111 C3108 1.539 . S
C3111 H3125 0.958 . S
C3111 H3126 0.961 . S
C3111 H3127 0.960 . S
H3112 C3096 0.931 . S
H3113 C3101 0.929 . S
H3114 C3102 0.960 . S
H3115 C3102 0.962 . S
H3116 C3102 0.960 . S
H3117 C3103 0.961 . S
H3118 C3103 0.961 . S
H3119 C3103 0.961 . S
H3120 C3104 0.931 . S
H3121 C3109 0.930 . S
H3122 C3110 0.956 . S
H3123 C3110 0.961 . S
H3124 C3110 0.961 . S
H3125 C3111 0.958 . S
H3126 C3111 0.961 . S
H3127 C3111 0.960 . S
C3128 C3129 1.391 . S
C3128 C3130 1.394 . S
C3128 H3144 0.931 . S
C3129 C3128 1.391 . S
C3129 C3133 1.376 . S
C3130 C3128 1.394 . S
C3130 C3131 1.369 . S
C3130 C3134 1.531 . S
C3131 C3130 1.369 . S
C3131 C3132 1.410 . S
C3131 C3139 1.503 . S
C3132 C3131 1.410 . S
C3132 C3133 1.392 . S
C3132 C3135 1.511 . S
C3133 C3129 1.376 . S
C3133 C3132 1.392 . S
C3133 H3145 0.929 . S
C3134 C3130 1.531 . S
C3134 H3146 0.960 . S
C3134 H3147 0.962 . S
C3134 H3148 0.960 . S
C3135 C3132 1.511 . S
C3135 H3149 0.961 . S
C3135 H3150 0.961 . S
C3135 H3151 0.961 . S
C3136 C3137 1.370 . S
C3136 C3138 1.363 . S
C3136 H3152 0.931 . S
C3137 C3136 1.370 . S
C3137 C3141 1.408 . S
C3138 C3136 1.363 . S
C3138 C3139 1.370 . S
C3138 C3142 1.524 . S
C3139 C3131 1.503 . S
C3139 C3138 1.370 . S
C3139 C3140 1.403 . S
C3140 C3139 1.403 . S
C3140 C3141 1.404 . S
C3140 C3143 1.539 . S
C3141 C3137 1.408 . S
C3141 C3140 1.404 . S
C3141 H3153 0.930 . S
C3142 C3138 1.524 . S
C3142 H3154 0.956 . S
C3142 H3155 0.961 . S
C3142 H3156 0.961 . S
C3143 C3140 1.539 . S
C3143 H3157 0.958 . S
C3143 H3158 0.961 . S
C3143 H3159 0.960 . S
H3144 C3128 0.931 . S
H3145 C3133 0.929 . S
H3146 C3134 0.960 . S
H3147 C3134 0.962 . S
H3148 C3134 0.960 . S
H3149 C3135 0.961 . S
H3150 C3135 0.961 . S
H3151 C3135 0.961 . S
H3152 C3136 0.931 . S
H3153 C3141 0.930 . S
H3154 C3142 0.956 . S
H3155 C3142 0.961 . S
H3156 C3142 0.961 . S
H3157 C3143 0.958 . S
H3158 C3143 0.961 . S
H3159 C3143 0.960 . S
C3160 C3161 1.391 . S
C3160 C3162 1.394 . S
C3160 H3176 0.931 . S
C3161 C3160 1.391 . S
C3161 C3165 1.376 . S
C3162 C3160 1.394 . S
C3162 C3163 1.369 . S
C3162 C3166 1.531 . S
C3163 C3162 1.369 . S
C3163 C3164 1.410 . S
C3163 C3171 1.503 . S
C3164 C3163 1.410 . S
C3164 C3165 1.392 . S
C3164 C3167 1.511 . S
C3165 C3161 1.376 . S
C3165 C3164 1.392 . S
C3165 H3177 0.929 . S
C3166 C3162 1.531 . S
C3166 H3178 0.960 . S
C3166 H3179 0.962 . S
C3166 H3180 0.960 . S
C3167 C3164 1.511 . S
C3167 H3181 0.961 . S
C3167 H3182 0.961 . S
C3167 H3183 0.961 . S
C3168 C3169 1.370 . S
C3168 C3170 1.363 . S
C3168 H3184 0.931 . S
C3169 C3168 1.370 . S
C3169 C3173 1.408 . S
C3170 C3168 1.363 . S
C3170 C3171 1.370 . S
C3170 C3174 1.524 . S
C3171 C3163 1.503 . S
C3171 C3170 1.370 . S
C3171 C3172 1.403 . S
C3172 C3171 1.403 . S
C3172 C3173 1.404 . S
C3172 C3175 1.539 . S
C3173 C3169 1.408 . S
C3173 C3172 1.404 . S
C3173 H3185 0.930 . S
C3174 C3170 1.524 . S
C3174 H3186 0.956 . S
C3174 H3187 0.961 . S
C3174 H3188 0.961 . S
C3175 C3172 1.539 . S
C3175 H3189 0.958 . S
C3175 H3190 0.961 . S
C3175 H3191 0.960 . S
H3176 C3160 0.931 . S
H3177 C3165 0.929 . S
H3178 C3166 0.960 . S
H3179 C3166 0.962 . S
H3180 C3166 0.960 . S
H3181 C3167 0.961 . S
H3182 C3167 0.961 . S
H3183 C3167 0.961 . S
H3184 C3168 0.931 . S
H3185 C3173 0.930 . S
H3186 C3174 0.956 . S
H3187 C3174 0.961 . S
H3188 C3174 0.961 . S
H3189 C3175 0.958 . S
H3190 C3175 0.961 . S
H3191 C3175 0.960 . S
C3192 C3193 1.391 . S
C3192 C3194 1.394 . S
C3192 H3208 0.931 . S
C3193 C3192 1.391 . S
C3193 C3197 1.376 . S
C3194 C3192 1.394 . S
C3194 C3195 1.369 . S
C3194 C3198 1.531 . S
C3195 C3194 1.369 . S
C3195 C3196 1.410 . S
C3195 C3203 1.503 . S
C3196 C3195 1.410 . S
C3196 C3197 1.392 . S
C3196 C3199 1.511 . S
C3197 C3193 1.376 . S
C3197 C3196 1.392 . S
C3197 H3209 0.929 . S
C3198 C3194 1.531 . S
C3198 H3210 0.960 . S
C3198 H3211 0.962 . S
C3198 H3212 0.960 . S
C3199 C3196 1.511 . S
C3199 H3213 0.961 . S
C3199 H3214 0.961 . S
C3199 H3215 0.961 . S
C3200 C3201 1.370 . S
C3200 C3202 1.363 . S
C3200 H3216 0.931 . S
C3201 C3200 1.370 . S
C3201 C3205 1.408 . S
C3202 C3200 1.363 . S
C3202 C3203 1.370 . S
C3202 C3206 1.524 . S
C3203 C3195 1.503 . S
C3203 C3202 1.370 . S
C3203 C3204 1.403 . S
C3204 C3203 1.403 . S
C3204 C3205 1.404 . S
C3204 C3207 1.539 . S
C3205 C3201 1.408 . S
C3205 C3204 1.404 . S
C3205 H3217 0.930 . S
C3206 C3202 1.524 . S
C3206 H3218 0.956 . S
C3206 H3219 0.961 . S
C3206 H3220 0.961 . S
C3207 C3204 1.539 . S
C3207 H3221 0.958 . S
C3207 H3222 0.961 . S
C3207 H3223 0.960 . S
H3208 C3192 0.931 . S
H3209 C3197 0.929 . S
H3210 C3198 0.960 . S
H3211 C3198 0.962 . S
H3212 C3198 0.960 . S
H3213 C3199 0.961 . S
H3214 C3199 0.961 . S
H3215 C3199 0.961 . S
H3216 C3200 0.931 . S
H3217 C3205 0.930 . S
H3218 C3206 0.956 . S
H3219 C3206 0.961 . S
H3220 C3206 0.961 . S
H3221 C3207 0.958 . S
H3222 C3207 0.961 . S
H3223 C3207 0.960 . S
C3224 C3225 1.391 . S
C3224 C3226 1.394 . S
C3224 H3240 0.931 . S
C3225 C3224 1.391 . S
C3225 C3229 1.376 . S
C3226 C3224 1.394 . S
C3226 C3227 1.369 . S
C3226 C3230 1.531 . S
C3227 C3226 1.369 . S
C3227 C3228 1.410 . S
C3227 C3235 1.503 . S
C3228 C3227 1.410 . S
C3228 C3229 1.392 . S
C3228 C3231 1.511 . S
C3229 C3225 1.376 . S
C3229 C3228 1.392 . S
C3229 H3241 0.929 . S
C3230 C3226 1.531 . S
C3230 H3242 0.960 . S
C3230 H3243 0.962 . S
C3230 H3244 0.960 . S
C3231 C3228 1.511 . S
C3231 H3245 0.961 . S
C3231 H3246 0.961 . S
C3231 H3247 0.961 . S
C3232 C3233 1.370 . S
C3232 C3234 1.363 . S
C3232 H3248 0.931 . S
C3233 C3232 1.370 . S
C3233 C3237 1.408 . S
C3234 C3232 1.363 . S
C3234 C3235 1.370 . S
C3234 C3238 1.524 . S
C3235 C3227 1.503 . S
C3235 C3234 1.370 . S
C3235 C3236 1.403 . S
C3236 C3235 1.403 . S
C3236 C3237 1.404 . S
C3236 C3239 1.539 . S
C3237 C3233 1.408 . S
C3237 C3236 1.404 . S
C3237 H3249 0.930 . S
C3238 C3234 1.524 . S
C3238 H3250 0.956 . S
C3238 H3251 0.961 . S
C3238 H3252 0.961 . S
C3239 C3236 1.539 . S
C3239 H3253 0.958 . S
C3239 H3254 0.961 . S
C3239 H3255 0.960 . S
H3240 C3224 0.931 . S
H3241 C3229 0.929 . S
H3242 C3230 0.960 . S
H3243 C3230 0.962 . S
H3244 C3230 0.960 . S
H3245 C3231 0.961 . S
H3246 C3231 0.961 . S
H3247 C3231 0.961 . S
H3248 C3232 0.931 . S
H3249 C3237 0.930 . S
H3250 C3238 0.956 . S
H3251 C3238 0.961 . S
H3252 C3238 0.961 . S
H3253 C3239 0.958 . S
H3254 C3239 0.961 . S
H3255 C3239 0.960 . S
C3256 C3257 1.391 . S
C3256 C3258 1.394 . S
C3256 H3272 0.931 . S
C3257 C3256 1.391 . S
C3257 C3261 1.376 . S
C3258 C3256 1.394 . S
C3258 C3259 1.369 . S
C3258 C3262 1.531 . S
C3259 C3258 1.369 . S
C3259 C3260 1.410 . S
C3259 C3267 1.503 . S
C3260 C3259 1.410 . S
C3260 C3261 1.392 . S
C3260 C3263 1.511 . S
C3261 C3257 1.376 . S
C3261 C3260 1.392 . S
C3261 H3273 0.929 . S
C3262 C3258 1.531 . S
C3262 H3274 0.960 . S
C3262 H3275 0.962 . S
C3262 H3276 0.960 . S
C3263 C3260 1.511 . S
C3263 H3277 0.961 . S
C3263 H3278 0.961 . S
C3263 H3279 0.961 . S
C3264 C3265 1.370 . S
C3264 C3266 1.363 . S
C3264 H3280 0.931 . S
C3265 C3264 1.370 . S
C3265 C3269 1.408 . S
C3266 C3264 1.363 . S
C3266 C3267 1.370 . S
C3266 C3270 1.524 . S
C3267 C3259 1.503 . S
C3267 C3266 1.370 . S
C3267 C3268 1.403 . S
C3268 C3267 1.403 . S
C3268 C3269 1.404 . S
C3268 C3271 1.539 . S
C3269 C3265 1.408 . S
C3269 C3268 1.404 . S
C3269 H3281 0.930 . S
C3270 C3266 1.524 . S
C3270 H3282 0.956 . S
C3270 H3283 0.961 . S
C3270 H3284 0.961 . S
C3271 C3268 1.539 . S
C3271 H3285 0.958 . S
C3271 H3286 0.961 . S
C3271 H3287 0.960 . S
H3272 C3256 0.931 . S
H3273 C3261 0.929 . S
H3274 C3262 0.960 . S
H3275 C3262 0.962 . S
H3276 C3262 0.960 . S
H3277 C3263 0.961 . S
H3278 C3263 0.961 . S
H3279 C3263 0.961 . S
H3280 C3264 0.931 . S
H3281 C3269 0.930 . S
H3282 C3270 0.956 . S
H3283 C3270 0.961 . S
H3284 C3270 0.961 . S
H3285 C3271 0.958 . S
H3286 C3271 0.961 . S
H3287 C3271 0.960 . S
C3288 C3289 1.391 . S
C3288 C3290 1.394 . S
C3288 H3304 0.931 . S
C3289 C3288 1.391 . S
C3289 C3293 1.376 . S
C3290 C3288 1.394 . S
C3290 C3291 1.369 . S
C3290 C3294 1.531 . S
C3291 C3290 1.369 . S
C3291 C3292 1.410 . S
C3291 C3299 1.503 . S
C3292 C3291 1.410 . S
C3292 C3293 1.392 . S
C3292 C3295 1.511 . S
C3293 C3289 1.376 . S
C3293 C3292 1.392 . S
C3293 H3305 0.929 . S
C3294 C3290 1.531 . S
C3294 H3306 0.960 . S
C3294 H3307 0.962 . S
C3294 H3308 0.960 . S
C3295 C3292 1.511 . S
C3295 H3309 0.961 . S
C3295 H3310 0.961 . S
C3295 H3311 0.961 . S
C3296 C3297 1.370 . S
C3296 C3298 1.363 . S
C3296 H3312 0.931 . S
C3297 C3296 1.370 . S
C3297 C3301 1.408 . S
C3298 C3296 1.363 . S
C3298 C3299 1.370 . S
C3298 C3302 1.524 . S
C3299 C3291 1.503 . S
C3299 C3298 1.370 . S
C3299 C3300 1.403 . S
C3300 C3299 1.403 . S
C3300 C3301 1.404 . S
C3300 C3303 1.539 . S
C3301 C3297 1.408 . S
C3301 C3300 1.404 . S
C3301 H3313 0.930 . S
C3302 C3298 1.524 . S
C3302 H3314 0.956 . S
C3302 H3315 0.961 . S
C3302 H3316 0.961 . S
C3303 C3300 1.539 . S
C3303 H3317 0.958 . S
C3303 H3318 0.961 . S
C3303 H3319 0.960 . S
H3304 C3288 0.931 . S
H3305 C3293 0.929 . S
H3306 C3294 0.960 . S
H3307 C3294 0.962 . S
H3308 C3294 0.960 . S
H3309 C3295 0.961 . S
H3310 C3295 0.961 . S
H3311 C3295 0.961 . S
H3312 C3296 0.931 . S
H3313 C3301 0.930 . S
H3314 C3302 0.956 . S
H3315 C3302 0.961 . S
H3316 C3302 0.961 . S
H3317 C3303 0.958 . S
H3318 C3303 0.961 . S
H3319 C3303 0.960 . S
C3320 C3321 1.391 . S
C3320 C3322 1.394 . S
C3320 H3336 0.931 . S
C3321 C3320 1.391 . S
C3321 C3325 1.376 . S
C3322 C3320 1.394 . S
C3322 C3323 1.369 . S
C3322 C3326 1.531 . S
C3323 C3322 1.369 . S
C3323 C3324 1.410 . S
C3323 C3331 1.503 . S
C3324 C3323 1.410 . S
C3324 C3325 1.392 . S
C3324 C3327 1.511 . S
C3325 C3321 1.376 . S
C3325 C3324 1.392 . S
C3325 H3337 0.929 . S
C3326 C3322 1.531 . S
C3326 H3338 0.960 . S
C3326 H3339 0.962 . S
C3326 H3340 0.960 . S
C3327 C3324 1.511 . S
C3327 H3341 0.961 . S
C3327 H3342 0.961 . S
C3327 H3343 0.961 . S
C3328 C3329 1.370 . S
C3328 C3330 1.363 . S
C3328 H3344 0.931 . S
C3329 C3328 1.370 . S
C3329 C3333 1.408 . S
C3330 C3328 1.363 . S
C3330 C3331 1.370 . S
C3330 C3334 1.524 . S
C3331 C3323 1.503 . S
C3331 C3330 1.370 . S
C3331 C3332 1.403 . S
C3332 C3331 1.403 . S
C3332 C3333 1.404 . S
C3332 C3335 1.539 . S
C3333 C3329 1.408 . S
C3333 C3332 1.404 . S
C3333 H3345 0.930 . S
C3334 C3330 1.524 . S
C3334 H3346 0.956 . S
C3334 H3347 0.961 . S
C3334 H3348 0.961 . S
C3335 C3332 1.539 . S
C3335 H3349 0.958 . S
C3335 H3350 0.961 . S
C3335 H3351 0.960 . S
H3336 C3320 0.931 . S
H3337 C3325 0.929 . S
H3338 C3326 0.960 . S
H3339 C3326 0.962 . S
H3340 C3326 0.960 . S
H3341 C3327 0.961 . S
H3342 C3327 0.961 . S
H3343 C3327 0.961 . S
H3344 C3328 0.931 . S
H3345 C3333 0.930 . S
H3346 C3334 0.956 . S
H3347 C3334 0.961 . S
H3348 C3334 0.961 . S
H3349 C3335 0.958 . S
H3350 C3335 0.961 . S
H3351 C3335 0.960 . S
C3352 C3353 1.391 . S
C3352 C3354 1.394 . S
C3352 H3368 0.931 . S
C3353 C3352 1.391 . S
C3353 C3357 1.376 . S
C3354 C3352 1.394 . S
C3354 C3355 1.369 . S
C3354 C3358 1.531 . S
C3355 C3354 1.369 . S
C3355 C3356 1.410 . S
C3355 C3363 1.503 . S
C3356 C3355 1.410 . S
C3356 C3357 1.392 . S
C3356 C3359 1.511 . S
C3357 C3353 1.376 . S
C3357 C3356 1.392 . S
C3357 H3369 0.929 . S
C3358 C3354 1.531 . S
C3358 H3370 0.960 . S
C3358 H3371 0.962 . S
C3358 H3372 0.960 . S
C3359 C3356 1.511 . S
C3359 H3373 0.961 . S
C3359 H3374 0.961 . S
C3359 H3375 0.961 . S
C3360 C3361 1.370 . S
C3360 C3362 1.363 . S
C3360 H3376 0.931 . S
C3361 C3360 1.370 . S
C3361 C3365 1.408 . S
C3362 C3360 1.363 . S
C3362 C3363 1.370 . S
C3362 C3366 1.524 . S
C3363 C3355 1.503 . S
C3363 C3362 1.370 . S
C3363 C3364 1.403 . S
C3364 C3363 1.403 . S
C3364 C3365 1.404 . S
C3364 C3367 1.539 . S
C3365 C3361 1.408 . S
C3365 C3364 1.404 . S
C3365 H3377 0.930 . S
C3366 C3362 1.524 . S
C3366 H3378 0.956 . S
C3366 H3379 0.961 . S
C3366 H3380 0.961 . S
C3367 C3364 1.539 . S
C3367 H3381 0.958 . S
C3367 H3382 0.961 . S
C3367 H3383 0.960 . S
H3368 C3352 0.931 . S
H3369 C3357 0.929 . S
H3370 C3358 0.960 . S
H3371 C3358 0.962 . S
H3372 C3358 0.960 . S
H3373 C3359 0.961 . S
H3374 C3359 0.961 . S
H3375 C3359 0.961 . S
H3376 C3360 0.931 . S
H3377 C3365 0.930 . S
H3378 C3366 0.956 . S
H3379 C3366 0.961 . S
H3380 C3366 0.961 . S
H3381 C3367 0.958 . S
H3382 C3367 0.961 . S
H3383 C3367 0.960 . S
C697 C8 1.199 . S
C705 C166 1.091 . S
C729 C37 1.196 . S
C737 C21 1.097 . S
C761 C66 1.136 . S
C769 C50 1.135 . S
C793 C79 1.112 . S
C801 C95 1.163 . S
C825 C124 1.199 . S
C833 C108 1.091 . S
C857 C153 1.153 . S
C865 C137 1.130 . S
C889 C224 1.157 . S
C897 C182 1.163 . S
C921 C253 1.107 . S
C929 C211 1.165 . S
C953 C282 1.140 . S
C961 C240 1.158 . S
C985 C269 1.134 . S
C993 C311 1.134 . S
C1017 C340 1.165 . S
C1025 C298 1.159 . S
C1049 C327 1.188 . S
C1057 C195 1.091 . S
C1081 C514 1.066 . S
C1089 C356 1.171 . S
C1113 C369 1.149 . S
C1121 C385 1.156 . S
C1145 C414 1.183 . S
C1153 C398 1.090 . S
C1177 C443 1.144 . S
C1185 C427 1.112 . S
C1209 C472 1.156 . S
C1217 C456 1.102 . S
C1241 C501 1.134 . S
C1249 C485 1.130 . S
C1273 C572 1.059 . S
C1281 C530 1.182 . S
C1305 C601 1.060 . S
C1313 C559 1.182 . S
C1337 C588 1.189 . S
C1345 C630 1.113 . S
C1369 C617 1.143 . S
C1377 C659 1.113 . S
C1401 C646 1.136 . S
C1409 C688 1.122 . S
C1433 C543 1.142 . S
C1441 C675 1.172 . S
C1465 C10 1.442 . S
C1473 C445 1.431 . S
C1497 C39 1.412 . S
C1505 C474 1.419 . S
C1529 C68 1.446 . S
C1537 C503 1.437 . S
C1561 C358 1.388 . S
C1569 C97 1.413 . S
C1593 C126 1.391 . S
C1601 C387 1.414 . S
C1625 C155 1.383 . S
C1633 C416 1.409 . S
C1657 C619 1.390 . S
C1665 C184 1.411 . S
C1689 C648 1.396 . S
C1697 C213 1.417 . S
C1721 C677 1.417 . S
C1729 C242 1.426 . S
C1753 C532 1.444 . S
C1761 C271 1.437 . S
C1785 C300 1.385 . S
C1793 C561 1.412 . S
C1817 C329 1.446 . S
C1825 C590 1.437 . S
C1849 C5 1.402 . S
C1857 C237 1.443 . S
C1881 C34 1.449 . S
C1889 C266 1.421 . S
C1913 C63 1.403 . S
C1921 C295 1.436 . S
C1945 C92 1.452 . S
C1953 C324 1.421 . S
C1977 C121 1.409 . S
C1985 C179 1.444 . S
C2009 C150 1.430 . S
C2017 C208 1.424 . S
C2041 C585 1.404 . S
C2049 C353 1.442 . S
C2073 C382 1.427 . S
C2081 C614 1.444 . S
C2105 C643 1.405 . S
C2113 C411 1.431 . S
C2137 C440 1.454 . S
C2145 C672 1.434 . S
C2169 C469 1.423 . S
C2177 C527 1.424 . S
C2201 C498 1.447 . S
C2209 C556 1.438 . S
C2233 C15 1.129 . S
C2241 C102 1.163 . S
C2265 C131 1.183 . S
C2273 C44 1.176 . S
C2297 C73 1.160 . S
C2305 C160 1.148 . S
C2329 C276 1.124 . S
C2337 C189 1.146 . S
C2361 C305 1.124 . S
C2369 C218 1.146 . S
C2393 C247 1.124 . S
C2401 C334 1.146 . S
C2425 C450 1.127 . S
C2433 C363 1.148 . S
C2457 C479 1.141 . S
C2465 C392 1.145 . S
C2489 C421 1.192 . S
C2497 C508 1.157 . S
C2521 C624 1.119 . S
C2529 C537 1.157 . S
C2553 C566 1.146 . S
C2561 C653 1.174 . S
C2585 C682 1.170 . S
C2593 C595 1.147 . S
C2617 C61 2.239 . S
C2625 C13 2.162 . S
C2649 C42 2.125 . S
C2657 C90 2.240 . S
C2681 C119 2.242 . S
C2689 C71 2.160 . S
C2713 C148 2.243 . S
C2721 C100 2.146 . S
C2745 C129 2.169 . S
C2753 C3 2.225 . S
C2777 C158 2.171 . S
C2785 C32 2.225 . S
C2809 C187 2.147 . S
C2817 C293 2.241 . S
C2841 C322 2.247 . S
C2849 C216 2.154 . S
C2873 C177 2.212 . S
C2881 C245 2.168 . S
C2905 C274 2.165 . S
C2913 C206 2.238 . S
C2937 C303 2.142 . S
C2945 C235 2.241 . S
C2969 C332 2.156 . S
C2977 C264 2.226 . S
C3001 C361 2.152 . S
C3009 C409 2.239 . S
C3033 C390 2.167 . S
C3041 C438 2.234 . S
C3065 C419 2.157 . S
C3073 C467 2.227 . S
C3097 C496 2.248 . S
C3105 C448 2.148 . S
C3129 C477 2.146 . S
C3137 C351 2.240 . S
C3161 C380 2.217 . S
C3169 C506 2.168 . S
C3193 C535 2.124 . S
C3201 C641 2.240 . S
C3225 C670 2.208 . S
C3233 C564 2.165 . S
C3257 C593 2.157 . S
C3265 C525 2.237 . S
C3289 C554 2.208 . S
C3297 C622 2.165 . S
C3321 C583 2.228 . S
C3329 C651 2.149 . S
C3353 C680 2.172 . S
C3361 C612 2.232 . S
