# Generated by pormake.
# Topology crb, (4)-cn, num edge types: 1
# Building blocks:
#     Node 0, Type 0, BuildingBlock: AZAVOO_clean_sbu_0, # of connection points: 4
#     Node 1, Type 0, BuildingBlock: AZAVOO_clean_sbu_0, # of connection points: 4
#     Node 2, Type 0, BuildingBlock: AZAVOO_clean_sbu_0, # of connection points: 4
#     Node 3, Type 0, BuildingBlock: AZAVOO_clean_sbu_0, # of connection points: 4
#     Node 4, Type 0, BuildingBlock: AZAVOO_clean_sbu_0, # of connection points: 4
#     Node 5, Type 0, BuildingBlock: AZAVOO_clean_sbu_0, # of connection points: 4
#     Node 6, Type 0, BuildingBlock: AZAVOO_clean_sbu_0, # of connection points: 4
#     Node 7, Type 0, BuildingBlock: AZAVOO_clean_sbu_0, # of connection points: 4
#     Edge 8, Type (0, 0), BuildingBlock: MIFKUJ_clean_linker_0, # of connection points: 2
#     Edge 9, Type (0, 0), BuildingBlock: MIFKUJ_clean_linker_0, # of connection points: 2
#     Edge 10, Type (0, 0), BuildingBlock: MIFKUJ_clean_linker_0, # of connection points: 2
#     Edge 11, Type (0, 0), BuildingBlock: MIFKUJ_clean_linker_0, # of connection points: 2
#     Edge 12, Type (0, 0), BuildingBlock: MIFKUJ_clean_linker_0, # of connection points: 2
#     Edge 13, Type (0, 0), BuildingBlock: MIFKUJ_clean_linker_0, # of connection points: 2
#     Edge 14, Type (0, 0), BuildingBlock: MIFKUJ_clean_linker_0, # of connection points: 2
#     Edge 15, Type (0, 0), BuildingBlock: MIFKUJ_clean_linker_0, # of connection points: 2
#     Edge 16, Type (0, 0), BuildingBlock: MIFKUJ_clean_linker_0, # of connection points: 2
#     Edge 17, Type (0, 0), BuildingBlock: MIFKUJ_clean_linker_0, # of connection points: 2
#     Edge 18, Type (0, 0), BuildingBlock: MIFKUJ_clean_linker_0, # of connection points: 2
#     Edge 19, Type (0, 0), BuildingBlock: MIFKUJ_clean_linker_0, # of connection points: 2
#     Edge 20, Type (0, 0), BuildingBlock: MIFKUJ_clean_linker_0, # of connection points: 2
#     Edge 21, Type (0, 0), BuildingBlock: MIFKUJ_clean_linker_0, # of connection points: 2
#     Edge 22, Type (0, 0), BuildingBlock: MIFKUJ_clean_linker_0, # of connection points: 2
#     Edge 23, Type (0, 0), BuildingBlock: MIFKUJ_clean_linker_0, # of connection points: 2
# Relax obj value: 0.039
# Max RMSD: 0.067
# Mean RMSD: 0.067
data_MOF--net-crb--node1-AZAVOO_clean_sbu_0--edge1-MIFKUJ_clean_linker_0
_symmetry_space_group_name_H-M    P1
_symmetry_Int_Tables_number       1
_symmetry_cell_setting            triclinic
loop_
_symmetry_equiv_pos_as_xyz
'x, y, z'
_cell_length_a     58.970658
_cell_length_b     49.631858
_cell_length_c     33.00608
_cell_angle_alpha  89.841346
_cell_angle_beta   90.05063
_cell_angle_gamma 90.005346
loop_
_atom_site_label
_atom_site_type_symbol
_atom_site_fract_x
_atom_site_fract_y
_atom_site_fract_z
_atom_type_partial_charge
Mg0 Mg 0.33762 0.29469 0.9874 0.0
O1 O 0.33147 0.34031 0.98218 0.0
O2 O 0.29468 0.34632 0.9683 0.0
Mg3 Mg 0.27737 0.30538 0.96343 0.0
C4 C 0.31448 0.35566 0.97529 0.0
C5 C 0.38516 0.28122 0.01888 0.0
O6 O 0.37648 0.25734 0.01152 0.0
O7 O 0.32043 0.2945 0.0496 0.0
O8 O 0.28419 0.29892 0.03063 0.0
O9 O 0.34387 0.29099 0.9205 0.0
O10 O 0.31027 0.28765 0.9496 0.0
C11 C 0.29928 0.29576 0.05799 0.0
C12 C 0.32214 0.28819 0.91703 0.0
O13 O 0.37277 0.3019 0.01378 0.0
Mg14 Mg 0.6777 0.29877 0.05901 0.0
O15 O 0.68418 0.34423 0.05127 0.0
O16 O 0.72169 0.35021 0.04796 0.0
Mg17 Mg 0.73919 0.30944 0.05309 0.0
C18 C 0.70151 0.35951 0.04771 0.0
C19 C 0.62772 0.28383 0.04885 0.0
O20 O 0.63748 0.26052 0.05619 0.0
O21 O 0.68559 0.29164 0.99223 0.0
O22 O 0.72325 0.29729 0.99267 0.0
O23 O 0.68102 0.30233 0.12623 0.0
O24 O 0.70952 0.29362 0.08502 0.0
C25 C 0.70476 0.29182 0.97423 0.0
C26 C 0.70252 0.29814 0.12121 0.0
O27 O 0.64004 0.30479 0.04666 0.0
Mg28 Mg 0.66403 0.7043 0.98258 0.0
O29 O 0.67398 0.65971 0.98743 0.0
O30 O 0.71177 0.65699 0.98514 0.0
Mg31 Mg 0.72617 0.69957 0.98004 0.0
C32 C 0.69228 0.64594 0.9878 0.0
C33 C 0.61246 0.70428 0.97578 0.0
O34 O 0.61896 0.71982 0.94565 0.0
O35 O 0.67411 0.71064 0.04889 0.0
O36 O 0.71186 0.70861 0.04274 0.0
O37 O 0.66551 0.70211 0.91457 0.0
O38 O 0.69426 0.71336 0.95383 0.0
C39 C 0.69402 0.71185 0.06414 0.0
C40 C 0.68666 0.70871 0.91813 0.0
O41 O 0.6275 0.69395 -0.00135 0.0
Mg42 Mg 0.32369 0.70078 0.05115 0.0
O43 O 0.31935 0.65498 0.04758 0.0
O44 O 0.28248 0.64556 0.05373 0.0
Mg45 Mg 0.26333 0.68482 0.06466 0.0
C46 C 0.30299 0.63816 0.04842 0.0
C47 C 0.37331 0.68185 0.04859 0.0
O48 O 0.36538 0.66918 0.08058 0.0
O49 O 0.30885 0.70557 0.98741 0.0
O50 O 0.27214 0.69819 0.00044 0.0
O51 O 0.32709 0.6997 0.11875 0.0
O52 O 0.29457 0.7039 0.0863 0.0
C53 C 0.28812 0.70451 0.9761 0.0
C54 C 0.30524 0.70192 0.12012 0.0
O55 O 0.35996 0.69666 0.02803 0.0
Mg56 Mg 0.82649 0.79237 0.48135 0.0
O57 O 0.8205 0.83826 0.48373 0.0
O58 O 0.7831 0.84492 0.48768 0.0
Mg59 Mg 0.76524 0.80439 0.48971 0.0
C60 C 0.80334 0.85393 0.48575 0.0
C61 C 0.87736 0.78024 0.47782 0.0
O62 O 0.86825 0.75885 0.46099 0.0
O63 O 0.81986 0.7885 0.54916 0.0
O64 O 0.78234 0.79559 0.55051 0.0
O65 O 0.82188 0.79251 0.41419 0.0
O66 O 0.79408 0.78632 0.45797 0.0
C67 C 0.80112 0.79055 0.56824 0.0
C68 C 0.80046 0.78891 0.42094 0.0
O69 O 0.86437 0.79873 0.49079 0.0
Mg70 Mg 0.16635 0.80661 0.55102 0.0
O71 O 0.17069 0.85248 0.5465 0.0
O72 O 0.20767 0.86146 0.5525 0.0
Mg73 Mg 0.22675 0.82224 0.56418 0.0
C74 C 0.18723 0.86909 0.54694 0.0
C75 C 0.12001 0.79023 0.51268 0.0
O76 O 0.13114 0.76746 0.50867 0.0
O77 O 0.18105 0.80172 0.48735 0.0
O78 O 0.21779 0.80915 0.49999 0.0
O79 O 0.16289 0.8082 0.61853 0.0
O80 O 0.19544 0.80362 0.58636 0.0
C81 C 0.20171 0.80293 0.47582 0.0
C82 C 0.18475 0.80598 0.62008 0.0
O83 O 0.13017 0.81046 0.52769 0.0
Mg84 Mg 0.16859 0.21314 0.49253 0.0
O85 O 0.17154 0.16739 0.48339 0.0
O86 O 0.20796 0.15756 0.47258 0.0
Mg87 Mg 0.22846 0.19634 0.4748 0.0
C88 C 0.18731 0.15039 0.47653 0.0
C89 C 0.11807 0.19719 0.48936 0.0
O90 O 0.12525 0.1896 0.4535 0.0
O91 O 0.18311 0.20889 0.55645 0.0
O92 O 0.21944 0.20019 0.54169 0.0
O93 O 0.16587 0.22043 0.42556 0.0
O94 O 0.1981 0.21969 0.45947 0.0
C95 C 0.20356 0.20419 0.56727 0.0
C96 C 0.18779 0.22203 0.42536 0.0
O97 O 0.13215 0.20755 0.51402 0.0
Mg98 Mg 0.82703 0.19784 0.56307 0.0
O99 O 0.82049 0.15368 0.54669 0.0
O100 O 0.78295 0.14812 0.54267 0.0
Mg101 Mg 0.7654 0.18771 0.55911 0.0
C102 C 0.80314 0.13895 0.53999 0.0
C103 C 0.87881 0.19987 0.57318 0.0
O104 O 0.87156 0.20862 0.6084 0.0
O105 O 0.81746 0.21115 0.49887 0.0
O106 O 0.77968 0.20776 0.50232 0.0
O107 O 0.82537 0.18849 0.62963 0.0
O108 O 0.79584 0.19977 0.59224 0.0
C109 C 0.79774 0.21463 0.48364 0.0
C110 C 0.80374 0.19254 0.62686 0.0
O111 O 0.86434 0.19342 0.54634 0.0
H112 H 0.35317 0.38418 0.99325 0.0
H113 H 0.35679 0.43298 0.00169 0.0
H114 H 0.28602 0.44277 0.97185 0.0
H115 H 0.28232 0.39436 0.96264 0.0
H116 H 0.31068 0.48098 0.93647 0.0
H117 H 0.30485 0.44162 0.07059 0.0
H118 H 0.31665 0.41169 0.12654 0.0
H119 H 0.38165 0.45061 0.13067 0.0
H120 H 0.37031 0.48055 0.07434 0.0
H121 H 0.27251 0.5985 0.03096 0.0
H122 H 0.28034 0.55147 0.01507 0.0
H123 H 0.35184 0.56507 0.0331 0.0
H124 H 0.34424 0.61251 0.0488 0.0
H125 H 0.33389 0.51667 0.07058 0.0
H126 H 0.33656 0.56059 0.9418 0.0
H127 H 0.32307 0.59099 0.88772 0.0
H128 H 0.26256 0.54365 0.87483 0.0
H129 H 0.27552 0.51319 0.9293 0.0
C130 C 0.33843 0.39674 0.9881 0.0
C131 C 0.31741 0.38528 0.97754 0.0
C132 C 0.34052 0.42462 0.9931 0.0
C133 C 0.3216 0.44147 0.98788 0.0
C134 C 0.30085 0.43016 0.97603 0.0
C135 C 0.29875 0.4024 0.97093 0.0
C136 C 0.32292 0.47078 -0.0039 0.0
C137 C 0.31572 0.48876 0.96582 0.0
C138 C 0.33005 0.48101 0.03406 0.0
C139 C 0.33685 0.46308 0.06794 0.0
C140 C 0.32172 0.44364 0.08321 0.0
C141 C 0.32831 0.42671 0.11503 0.0
C142 C 0.34991 0.42919 0.13205 0.0
C143 C 0.36494 0.44867 0.11738 0.0
C144 C 0.35845 0.46563 0.08553 0.0
C145 C 0.28991 0.59155 0.03183 0.0
C146 C 0.30776 0.60931 0.04104 0.0
C147 C 0.29435 0.56468 0.02255 0.0
C148 C 0.31667 0.55496 0.02254 0.0
C149 C 0.33451 0.57231 0.03283 0.0
C150 C 0.33012 0.59937 0.04168 0.0
C151 C 0.32107 0.52662 0.01132 0.0
C152 C 0.32932 0.50889 0.04098 0.0
C153 C 0.31475 0.51657 0.9729 0.0
C154 C 0.30695 0.53471 0.93986 0.0
C155 C 0.32029 0.55677 0.92766 0.0
C156 C 0.31276 0.574 0.89689 0.0
C157 C 0.29196 0.56928 0.8779 0.0
C158 C 0.27867 0.54729 0.88958 0.0
C159 C 0.28612 0.53001 0.92037 0.0
H160 H 0.28615 0.58265 0.85409 0.0
H161 H 0.35498 0.41606 0.15669 0.0
H162 H 0.41561 0.24094 0.03326 0.0
H163 H 0.45647 0.24502 0.04282 0.0
H164 H 0.4511 0.33158 0.03567 0.0
H165 H 0.41007 0.32767 0.02565 0.0
H166 H 0.48457 0.31262 0.98735 0.0
H167 H 0.46248 0.30151 0.12542 0.0
H168 H 0.44284 0.28042 0.18329 0.0
H169 H 0.47965 0.20695 0.16389 0.0
H170 H 0.4993 0.22747 0.10552 0.0
H171 H 0.60158 0.32925 0.04054 0.0
H172 H 0.56014 0.33195 0.03888 0.0
H173 H 0.55595 0.24538 0.04821 0.0
H174 H 0.59723 0.24253 0.05055 0.0
H175 H 0.52706 0.26878 0.09932 0.0
H176 H 0.54656 0.27849 0.95815 0.0
H177 H 0.56596 0.29907 0.89959 0.0
H178 H 0.53383 0.37485 0.92463 0.0
H179 H 0.51445 0.35478 0.98369 0.0
C180 C 0.42304 0.26088 0.03416 0.0
C181 C 0.40957 0.28398 0.02864 0.0
C182 C 0.44642 0.26319 0.03979 0.0
C183 C 0.45683 0.28862 0.04023 0.0
C184 C 0.4434 0.31177 0.03546 0.0
C185 C 0.41995 0.30949 0.02992 0.0
C186 C 0.48186 0.29078 0.04365 0.0
C187 C 0.49386 0.3035 0.01225 0.0
C188 C 0.49397 0.2784 0.07569 0.0
C189 C 0.48224 0.26599 0.11088 0.0
C190 C 0.46627 0.28079 0.13329 0.0
C191 C 0.45516 0.26895 0.16623 0.0
C192 C 0.45996 0.24234 0.17721 0.0
C193 C 0.47594 0.22755 0.15533 0.0
C194 C 0.48709 0.23929 0.12235 0.0
C195 C 0.59183 0.31078 0.04201 0.0
C196 C 0.60271 0.28567 0.04567 0.0
C197 C 0.56815 0.31236 0.04098 0.0
C198 C 0.55493 0.28885 0.04322 0.0
C199 C 0.56579 0.26378 0.04658 0.0
C200 C 0.58941 0.26219 0.04774 0.0
C201 C 0.52978 0.29019 0.04267 0.0
C202 C 0.51776 0.27815 0.07465 0.0
C203 C 0.51766 0.30314 0.01112 0.0
C204 C 0.52927 0.31521 0.9756 0.0
C205 C 0.54378 0.2996 0.95136 0.0
C206 C 0.55475 0.31116 0.91804 0.0
C207 C 0.55119 0.33827 0.90847 0.0
C208 C 0.53661 0.35386 0.93213 0.0
C209 C 0.52562 0.3424 0.96551 0.0
H210 H 0.55969 0.34719 0.88266 0.0
H211 H 0.45134 0.23321 0.20272 0.0
H212 H 0.66158 0.38815 0.04736 0.0
H213 H 0.65685 0.43687 0.03895 0.0
H214 H 0.72933 0.44607 0.0279 0.0
H215 H 0.73427 0.39775 0.03685 0.0
H216 H 0.71211 0.48314 0.07747 0.0
H217 H 0.69408 0.4477 0.9448 0.0
H218 H 0.673 0.41924 0.89657 0.0
H219 H 0.61069 0.45765 0.93089 0.0
H220 H 0.63139 0.48611 0.97973 0.0
H221 H 0.72733 0.60988 0.98838 0.0
H222 H 0.72551 0.56145 0.00012 0.0
H223 H 0.65274 0.56606 0.01107 0.0
H224 H 0.65431 0.6147 -0.00118 0.0
H225 H 0.66594 0.52256 0.96641 0.0
H226 H 0.68441 0.56064 0.09496 0.0
H227 H 0.70551 0.58931 0.14284 0.0
H228 H 0.76677 0.54594 0.11682 0.0
H229 H 0.7461 0.51724 0.06831 0.0
C230 C 0.67652 0.40054 0.04316 0.0
C231 C 0.69831 0.38897 0.04276 0.0
C232 C 0.67377 0.42837 0.03821 0.0
C233 C 0.69273 0.44507 0.03249 0.0
C234 C 0.71446 0.43358 0.03235 0.0
C235 C 0.71723 0.40588 0.03738 0.0
C236 C 0.69023 0.47458 0.02683 0.0
C237 C 0.70216 0.49174 0.05298 0.0
C238 C 0.67666 0.48583 -0.00432 0.0
C239 C 0.66424 0.4688 0.96624 0.0
C240 C 0.67586 0.44992 0.94229 0.0
C241 C 0.66399 0.43382 0.9148 0.0
C242 C 0.64051 0.43658 0.91076 0.0
C243 C 0.62887 0.4555 0.93411 0.0
C244 C 0.64066 0.47163 0.96168 0.0
C245 C 0.71089 0.60069 0.99313 0.0
C246 C 0.69098 0.61629 0.99293 0.0
C247 C 0.7099 0.57297 -0.0 0.0
C248 C 0.68903 0.56025 0.00714 0.0
C249 C 0.66903 0.57554 0.00581 0.0
C250 C 0.66999 0.60334 -0.00112 0.0
C251 C 0.6883 0.53102 0.01642 0.0
C252 C 0.67571 0.51395 0.99112 0.0
C253 C 0.70125 0.5198 0.0484 0.0
C254 C 0.71373 0.53692 0.07776 0.0
C255 C 0.70242 0.55733 0.09922 0.0
C256 C 0.71429 0.57357 0.12651 0.0
C257 C 0.73747 0.56948 0.13281 0.0
C258 C 0.74881 0.5491 0.11189 0.0
C259 C 0.73702 0.53281 0.08453 0.0
H260 H 0.74664 0.58208 0.15394 0.0
H261 H 0.63135 0.42409 0.88946 0.0
H262 H 0.39572 0.70614 0.98559 0.0
H263 H 0.43653 0.70588 0.97237 0.0
H264 H 0.44699 0.654 0.07578 0.0
H265 H 0.40629 0.6543 0.08941 0.0
H266 H 0.47586 0.69604 0.07631 0.0
H267 H 0.45217 0.62935 0.98107 0.0
H268 H 0.42942 0.61052 0.92521 0.0
H269 H 0.45398 0.67228 0.84514 0.0
H270 H 0.47664 0.69173 0.90071 0.0
H271 H 0.59288 0.67331 0.03519 0.0
H272 H 0.55236 0.66582 0.04679 0.0
H273 H 0.5364 0.71648 0.94425 0.0
H274 H 0.57675 0.72376 0.93211 0.0
H275 H 0.51057 0.67188 0.94446 0.0
H276 H 0.53217 0.74013 0.0407 0.0
H277 H 0.55468 0.75934 0.09661 0.0
H278 H 0.53378 0.69467 0.17479 0.0
H279 H 0.51136 0.67487 0.11914 0.0
C280 C 0.40667 0.69449 0.00531 0.0
C281 C 0.39775 0.6803 0.03861 0.0
C282 C 0.42999 0.69427 -0.00237 0.0
C283 C 0.44478 0.67979 0.02298 0.0
C284 C 0.43587 0.66531 0.05587 0.0
C285 C 0.41259 0.66547 0.06352 0.0
C286 C 0.46963 0.68075 0.01629 0.0
C287 C 0.4835 0.69032 0.04771 0.0
C288 C 0.47952 0.67381 0.9787 0.0
C289 C 0.46594 0.66214 0.94518 0.0
C290 C 0.45258 0.63906 0.95165 0.0
C291 C 0.43972 0.62824 0.92001 0.0
C292 C 0.44021 0.64023 0.88168 0.0
C293 C 0.4536 0.66303 0.87487 0.0
C294 C 0.46647 0.67394 0.90641 0.0
C295 C 0.58074 0.68281 0.01507 0.0
C296 C 0.58804 0.69924 0.98285 0.0
C297 C 0.55759 0.67856 0.0218 0.0
C298 C 0.54136 0.6908 -0.0034 0.0
C299 C 0.54863 0.70682 0.96404 0.0
C300 C 0.57172 0.71105 0.95727 0.0
C301 C 0.51675 0.68738 0.00436 0.0
C302 C 0.50293 0.67739 0.97315 0.0
C303 C 0.50688 0.69396 0.04213 0.0
C304 C 0.5203 0.70587 0.07564 0.0
C305 C 0.53252 0.72989 0.06972 0.0
C306 C 0.54524 0.7409 0.10138 0.0
C307 C 0.54572 0.72819 0.13919 0.0
C308 C 0.53343 0.70447 0.14546 0.0
C309 C 0.5207 0.69335 0.11388 0.0
H310 H 0.55557 0.73675 0.16366 0.0
H311 H 0.43025 0.63183 0.85722 0.0
H312 H 0.84354 0.88207 0.48858 0.0
H313 H 0.84845 0.93108 0.49142 0.0
H314 H 0.77587 0.94152 0.4874 0.0
H315 H 0.77078 0.89295 0.48415 0.0
H316 H 0.79713 0.97662 0.43754 0.0
H317 H 0.80494 0.94502 0.57634 0.0
H318 H 0.8224 0.91801 0.63091 0.0
H319 H 0.88678 0.95545 0.60783 0.0
H320 H 0.86973 0.98244 0.55274 0.0
H321 H 0.77049 0.10159 0.52265 0.0
H322 H 0.77566 0.05409 0.50693 0.0
H323 H 0.84817 0.06332 0.51709 0.0
H324 H 0.84318 0.11104 0.53344 0.0
H325 H 0.8336 0.01906 0.55693 0.0
H326 H 0.82424 0.05564 0.42469 0.0
H327 H 0.80653 0.08298 0.37082 0.0
H328 H 0.74536 0.03653 0.38086 0.0
H329 H 0.76257 0.00915 0.43523 0.0
C330 C 0.82864 0.89481 0.48811 0.0
C331 C 0.80676 0.88352 0.48632 0.0
C332 C 0.83148 0.9228 0.48984 0.0
C333 C 0.81251 0.93991 0.48987 0.0
C334 C 0.79074 0.92869 0.48731 0.0
C335 C 0.78788 0.90085 0.48565 0.0
C336 C 0.81496 0.96953 0.49353 0.0
C337 C 0.80504 0.98593 0.46369 0.0
C338 C 0.82593 0.98165 0.52699 0.0
C339 C 0.83614 0.96548 0.56012 0.0
C340 C 0.82286 0.94732 0.58269 0.0
C341 C 0.83267 0.93205 0.61375 0.0
C342 C 0.8557 0.93495 0.62274 0.0
C343 C 0.86896 0.95318 0.60077 0.0
C344 C 0.85923 0.96847 0.56964 0.0
C345 C 0.78758 0.09366 0.52139 0.0
C346 C 0.80642 0.11022 0.52929 0.0
C347 C 0.79051 0.06647 0.51216 0.0
C348 C 0.81232 0.05524 0.51029 0.0
C349 C 0.8312 0.07162 0.51821 0.0
C350 C 0.82829 0.0989 0.52746 0.0
C351 C 0.81513 0.02614 0.50155 0.0
C352 C 0.82606 0.00983 0.53036 0.0
C353 C 0.8051 0.01409 0.4671 0.0
C354 C 0.79467 0.03044 0.43425 0.0
C355 C 0.80696 0.05137 0.41562 0.0
C356 C 0.79701 0.06686 0.38496 0.0
C357 C 0.77482 0.06152 0.37247 0.0
C358 C 0.76254 0.04065 0.39057 0.0
C359 C 0.7724 0.02511 0.42128 0.0
H360 H 0.76715 0.07354 0.34872 0.0
H361 H 0.86327 0.92311 0.6468 0.0
H362 H 0.09122 0.83272 0.52459 0.0
H363 H 0.05008 0.83343 0.51548 0.0
H364 H 0.05191 0.75158 0.47205 0.0
H365 H 0.09309 0.75072 0.48078 0.0
H366 H 0.02294 0.7833 0.42752 0.0
H367 H 0.03756 0.76393 0.56836 0.0
H368 H 0.05428 0.77224 0.63569 0.0
H369 H 0.01934 0.848 0.64259 0.0
H370 H 0.00266 0.84029 0.575 0.0
H371 H 0.90926 0.74331 0.45559 0.0
H372 H 0.95041 0.74774 0.45879 0.0
H373 H 0.94334 0.8276 0.50848 0.0
H374 H 0.90201 0.82314 0.50606 0.0
H375 H 0.97499 0.79978 0.54844 0.0
H376 H 0.95862 0.81834 0.40935 0.0
H377 H 0.9419 0.8103 0.34196 0.0
H378 H 0.97998 0.73694 0.33118 0.0
H379 H 0.9967 0.74434 0.39879 0.0
C380 C 0.08292 0.81494 0.51273 0.0
C381 C 0.09543 0.79157 0.50371 0.0
C382 C 0.05939 0.81536 0.50769 0.0
C383 C 0.04792 0.79243 0.49364 0.0
C384 C 0.06044 0.76947 0.48306 0.0
C385 C 0.08397 0.76899 0.48817 0.0
C386 C 0.02281 0.79201 0.49136 0.0
C387 C 0.01243 0.78665 0.454 0.0
C388 C 0.00913 0.79706 0.52575 0.0
C389 C 0.01906 0.80166 0.56645 0.0
C390 C 0.03359 0.78246 0.5841 0.0
C391 C 0.04303 0.78704 0.62232 0.0
C392 C 0.03793 0.81067 0.64335 0.0
C393 C 0.02331 0.82973 0.62623 0.0
C394 C 0.01385 0.82525 0.58798 0.0
C395 C 0.91641 0.76184 0.46721 0.0
C396 C 0.90233 0.78291 0.48045 0.0
C397 C 0.93997 0.7644 0.4688 0.0
C398 C 0.94998 0.78817 0.48326 0.0
C399 C 0.93598 0.80912 0.49705 0.0
C400 C 0.91237 0.80654 0.4956 0.0
C401 C 0.97504 0.79088 0.48459 0.0
C402 C 0.98544 0.79664 0.52183 0.0
C403 C 0.98873 0.78627 0.45004 0.0
C404 C 0.97876 0.78179 0.4093 0.0
C405 C 0.9633 0.80038 0.39275 0.0
C406 C 0.95384 0.79596 0.35448 0.0
C407 C 0.95983 0.7731 0.33234 0.0
C408 C 0.97534 0.75463 0.34838 0.0
C409 C 0.98483 0.75895 0.38666 0.0
H410 H 0.9525 0.76971 0.30272 0.0
H411 H 0.04525 0.81418 0.67295 0.0
H412 H 0.21614 0.10881 0.4604 0.0
H413 H 0.20862 0.06085 0.466 0.0
H414 H 0.13888 0.07732 0.49661 0.0
H415 H 0.14638 0.1258 0.49178 0.0
H416 H 0.15679 0.04185 0.5482 0.0
H417 H 0.1518 0.04833 0.4058 0.0
H418 H 0.16243 0.06209 0.33656 0.0
H419 H 0.22461 0.01756 0.34652 0.0
H420 H 0.21454 0.00383 0.41606 0.0
H421 H 0.14637 0.89572 0.54672 0.0
H422 H 0.13953 0.94321 0.52975 0.0
H423 H 0.21116 0.95477 0.51017 0.0
H424 H 0.21821 0.90773 0.52735 0.0
H425 H 0.18294 0.97503 0.44694 0.0
H426 H 0.18931 0.97614 0.59436 0.0
H427 H 0.17781 0.96259 0.6633 0.0
H428 H 0.11065 0.99277 0.64144 0.0
H429 H 0.12169 0.00617 0.57212 0.0
C430 C 0.1991 0.10237 0.46786 0.0
C431 C 0.18189 0.12124 0.47577 0.0
C432 C 0.19478 0.07484 0.47079 0.0
C433 C 0.17312 0.06544 0.48127 0.0
C434 C 0.15571 0.08414 0.48834 0.0
C435 C 0.16002 0.11182 0.48543 0.0
C436 C 0.16945 0.03616 0.48754 0.0
C437 C 0.16194 0.02722 0.52565 0.0
C438 C 0.17627 0.01704 0.45823 0.0
C439 C 0.18244 0.02514 0.41629 0.0
C440 C 0.16782 0.0416 0.39335 0.0
C441 C 0.17374 0.04938 0.35402 0.0
C442 C 0.1942 0.04073 0.33717 0.0
C443 C 0.20876 0.02424 0.3596 0.0
C444 C 0.20294 0.01641 0.39897 0.0
C445 C 0.16066 0.90842 0.53896 0.0
C446 C 0.18285 0.89794 0.53848 0.0
C447 C 0.15671 0.9355 0.52928 0.0
C448 C 0.17485 0.95238 0.51861 0.0
C449 C 0.19694 0.94198 0.51815 0.0
C450 C 0.20094 0.91511 0.52825 0.0
C451 C 0.17116 0.981 0.50794 0.0
C452 C 0.17725 0.98971 0.469 0.0
C453 C 0.16282 -0.00016 0.53629 0.0
C454 C 0.15623 0.99181 0.57792 0.0
C455 C 0.17203 0.97964 0.60413 0.0
C456 C 0.16561 0.97204 0.64329 0.0
C457 C 0.14349 0.97673 0.65669 0.0
C458 C 0.12776 0.9891 0.63098 0.0
C459 C 0.13409 0.9967 0.59177 0.0
H460 H 0.13856 0.97084 0.68703 0.0
H461 H 0.19875 0.04678 0.30671 0.0
H462 H 0.91359 0.21105 0.62507 0.0
H463 H 0.95421 0.20875 0.61161 0.0
H464 H 0.94062 0.18233 0.48958 0.0
H465 H 0.89981 0.18419 0.50299 0.0
H466 H 0.97474 0.15356 0.524 0.0
H467 H 0.95568 0.24705 0.50792 0.0
H468 H 0.93934 0.2907 0.52824 0.0
H469 H 0.98393 0.29342 0.63106 0.0
H470 H 0.00034 0.24959 0.61165 0.0
H471 H 0.08348 0.17996 0.44089 0.0
H472 H 0.0431 0.17855 0.4567 0.0
H473 H 0.05704 0.20771 0.5772 0.0
H474 H 0.09753 0.20974 0.56132 0.0
H475 H 0.02271 0.23456 0.54421 0.0
H476 H 0.04243 0.1414 0.55949 0.0
H477 H 0.05883 0.09784 0.53892 0.0
H478 H 0.01318 0.0944 0.43764 0.0
H479 H 0.99671 0.13814 0.45728 0.0
C480 C 0.91919 0.20471 0.59535 0.0
C481 C 0.90344 0.19796 0.56501 0.0
C482 C 0.94244 0.20349 0.58768 0.0
C483 C 0.95044 0.19572 0.54943 0.0
C484 C 0.9348 0.18844 0.51929 0.0
C485 C 0.91149 0.18961 0.52696 0.0
C486 C 0.97513 0.19544 0.54087 0.0
C487 C 0.9852 0.17134 0.52791 0.0
C488 C 0.98885 0.21849 0.54691 0.0
C489 C 0.97908 0.24491 0.55854 0.0
C490 C 0.96188 0.25686 0.53503 0.0
C491 C 0.95263 0.28165 0.54636 0.0
C492 C 0.96055 0.29479 0.58098 0.0
C493 C 0.97779 0.2832 0.60428 0.0
C494 C 0.98709 0.2584 0.59311 0.0
C495 C 0.07801 0.18591 0.47088 0.0
C496 C 0.09374 0.19498 0.49985 0.0
C497 C 0.0549 0.18497 0.47992 0.0
C498 C 0.04704 0.19274 0.51828 0.0
C499 C 0.06272 0.20159 0.54741 0.0
C500 C 0.08586 0.20267 0.53832 0.0
C501 C 0.0224 0.19265 0.52743 0.0
C502 C 0.0123 0.21672 0.54043 0.0
C503 C 0.00869 0.16957 0.52142 0.0
C504 C 0.01848 0.14317 0.50967 0.0
C505 C 0.036 0.13145 0.53266 0.0
C506 C 0.04529 0.10671 0.5212 0.0
C507 C 0.03709 0.09339 0.48694 0.0
C508 C 0.01954 0.10475 0.46415 0.0
C509 C 0.0102 0.12951 0.47546 0.0
H510 H 0.04431 0.07424 0.47811 0.0
H511 H 0.95336 0.31398 0.5897 0.0
H512 H 0.2338 0.22382 0.41662 0.0
H513 H 0.25533 0.23442 0.35613 0.0
H514 H 0.1931 0.24401 0.28875 0.0
H515 H 0.17126 0.23182 0.34916 0.0
H516 H 0.22346 0.21962 0.24395 0.0
H517 H 0.22353 0.29873 0.3278 0.0
H518 H 0.22975 0.32461 0.39052 0.0
H519 H 0.30066 0.30511 0.38729 0.0
H520 H 0.29481 0.27882 0.3248 0.0
H521 H 0.25668 0.30384 0.08673 0.0
H522 H 0.24152 0.29029 0.15206 0.0
H523 H 0.30799 0.26455 0.19039 0.0
H524 H 0.32358 0.27787 0.12421 0.0
H525 H 0.27913 0.29457 0.25071 0.0
H526 H 0.2781 0.21761 0.16235 0.0
H527 H 0.27054 0.19424 0.09791 0.0
H528 H 0.19962 0.21244 0.10855 0.0
H529 H 0.20681 0.2363 0.17276 0.0
C530 C 0.22458 0.22757 0.38889 0.0
C531 C 0.20075 0.22677 0.38774 0.0
C532 C 0.23699 0.23401 0.35433 0.0
C533 C 0.22584 0.24058 0.31815 0.0
C534 C 0.20206 0.23911 0.31647 0.0
C535 C 0.1896 0.23218 0.35099 0.0
C536 C 0.23899 0.24947 0.28231 0.0
C537 C 0.23548 0.23614 0.24544 0.0
C538 C 0.25511 0.27064 0.28444 0.0
C539 C 0.25868 0.28658 0.32187 0.0
C540 C 0.24042 0.29981 0.34063 0.0
C541 C 0.24388 0.31458 0.3761 0.0
C542 C 0.26557 0.31644 0.39294 0.0
C543 C 0.28386 0.30362 0.37425 0.0
C544 C 0.28049 0.2888 0.33878 0.0
C545 C 0.26825 0.29557 0.10903 0.0
C546 C 0.29132 0.29152 0.09998 0.0
C547 C 0.2595 0.28788 0.14638 0.0
C548 C 0.27359 0.27606 0.17554 0.0
C549 C 0.2969 0.27355 0.16794 0.0
C550 C 0.30574 0.28117 0.13022 0.0
C551 C 0.26331 0.26491 0.21265 0.0
C552 C 0.26731 0.27783 0.2496 0.0
C553 C 0.24746 0.24358 0.21056 0.0
C554 C 0.24303 0.22893 0.17222 0.0
C555 C 0.26092 0.21681 0.1508 0.0
C556 C 0.2567 0.20345 0.11433 0.0
C557 C 0.23462 0.2019 0.0991 0.0
C558 C 0.21671 0.21366 0.12037 0.0
C559 C 0.22085 0.22708 0.15683 0.0
H560 H 0.23139 0.19156 0.07086 0.0
H561 H 0.26822 0.32788 0.42041 0.0
H562 H 0.74815 0.28859 0.11919 0.0
H563 H 0.77368 0.28274 0.17658 0.0
H564 H 0.71864 0.29953 0.25873 0.0
H565 H 0.69305 0.30629 0.20129 0.0
H566 H 0.75825 0.32079 0.28589 0.0
H567 H 0.73209 0.23489 0.23149 0.0
H568 H 0.72753 0.20102 0.17753 0.0
H569 H 0.79983 0.19674 0.16342 0.0
H570 H 0.80478 0.23086 0.21702 0.0
H571 H 0.76048 0.24079 0.45634 0.0
H572 H 0.75489 0.26278 0.39137 0.0
H573 H 0.82305 0.24198 0.35594 0.0
H574 H 0.829 0.21982 0.42201 0.0
H575 H 0.78871 0.22795 0.29911 0.0
H576 H 0.81361 0.30552 0.36857 0.0
H577 H 0.81661 0.33777 0.42497 0.0
H578 H 0.7459 0.35684 0.4131 0.0
H579 H 0.74235 0.3244 0.35704 0.0
C580 C 0.74153 0.2917 0.14937 0.0
C581 C 0.7185 0.2978 0.15568 0.0
C582 C 0.75618 0.2882 0.18217 0.0
C583 C 0.74798 0.29031 0.22187 0.0
C584 C 0.7253 0.29781 0.22826 0.0
C585 C 0.71067 0.30153 0.19543 0.0
C586 C 0.76225 0.28233 0.2568 0.0
C587 C 0.765 0.30054 0.28882 0.0
C588 C 0.77176 0.25619 0.25989 0.0
C589 C 0.76879 0.23565 0.22783 0.0
C590 C 0.74699 0.22686 0.21666 0.0
C591 C 0.74434 0.20761 0.18619 0.0
C592 C 0.76337 0.19681 0.16696 0.0
C593 C 0.7851 0.20518 0.17827 0.0
C594 C 0.78784 0.22446 0.20868 0.0
C595 C 0.7744 0.2409 0.43494 0.0
C596 C 0.79515 0.22838 0.44419 0.0
C597 C 0.77123 0.25375 0.39793 0.0
C598 C 0.78866 0.25431 0.36917 0.0
C599 C 0.8095 0.24195 0.37807 0.0
C600 C 0.81284 0.22931 0.41565 0.0
C601 C 0.78384 0.26604 0.3289 0.0
C602 C 0.78277 0.24852 0.29575 0.0
C603 C 0.77574 0.29274 0.32492 0.0
C604 C 0.77772 0.31244 0.35857 0.0
C605 C 0.79865 0.31646 0.37813 0.0
C606 C 0.80046 0.3348 0.41003 0.0
C607 C 0.78145 0.34934 0.42262 0.0
C608 C 0.76061 0.34559 0.40329 0.0
C609 C 0.75871 0.32726 0.37137 0.0
H610 H 0.78288 0.36353 0.44733 0.0
H611 H 0.76129 0.18189 0.14338 0.0
H612 H 0.75435 0.78381 0.42658 0.0
H613 H 0.72739 0.77687 0.37174 0.0
H614 H 0.78194 0.78138 0.28491 0.0
H615 H 0.80893 0.78965 0.33963 0.0
H616 H 0.74557 0.80477 0.25504 0.0
H617 H 0.76159 0.72022 0.32434 0.0
H618 H 0.76287 0.68998 0.38376 0.0
H619 H 0.69099 0.69885 0.39962 0.0
H620 H 0.68935 0.72941 0.34053 0.0
H621 H 0.73288 0.70769 0.10772 0.0
H622 H 0.74051 0.72553 0.17474 0.0
H623 H 0.67066 0.74981 0.1864 0.0
H624 H 0.66271 0.73226 0.1181 0.0
H625 H 0.70359 0.7181 0.25922 0.0
H626 H 0.68886 0.79866 0.17882 0.0
H627 H 0.69095 0.82499 0.11544 0.0
H628 H 0.76364 0.82009 0.11786 0.0
H629 H 0.76194 0.79336 0.18094 0.0
C630 C 0.76061 0.78398 0.39583 0.0
C631 C 0.78384 0.78729 0.38751 0.0
C632 C 0.74513 0.77978 0.36448 0.0
C633 C 0.75268 0.77815 0.32431 0.0
C634 C 0.77572 0.78256 0.31574 0.0
C635 C 0.79116 0.78718 0.34705 0.0
C636 C 0.73706 0.77006 0.29134 0.0
C637 C 0.73617 0.786 0.25622 0.0
C638 C 0.72441 0.74577 0.29305 0.0
C639 C 0.72539 0.72734 0.32841 0.0
C640 C 0.74609 0.71586 0.34069 0.0
C641 C 0.74688 0.69864 0.37427 0.0
C642 C 0.72704 0.69257 0.39554 0.0
C643 C 0.70635 0.70363 0.38318 0.0
C644 C 0.70548 0.72088 0.34966 0.0
C645 C 0.71897 0.71655 0.12445 0.0
C646 C 0.69723 0.71892 0.10725 0.0
C647 C 0.7234 0.72664 0.16284 0.0
C648 C 0.70621 0.73917 0.18502 0.0
C649 C 0.68411 0.74024 0.16937 0.0
C650 C 0.67962 0.73019 0.13051 0.0
C651 C 0.71252 0.75261 0.22309 0.0
C652 C 0.71204 0.73753 0.25896 0.0
C653 C 0.72413 0.77749 0.22199 0.0
C654 C 0.72525 0.79387 0.18441 0.0
C655 C 0.70527 0.80302 0.16564 0.0
C656 C 0.70639 0.81805 0.12981 0.0
C657 C 0.72741 0.82417 0.11259 0.0
C658 C 0.74737 0.81533 0.13123 0.0
C659 C 0.74634 0.80028 0.16704 0.0
H660 H 0.72824 0.83581 0.08485 0.0
H661 H 0.72768 0.67925 0.42153 0.0
H662 H 0.17555 0.77724 0.41854 0.0
H663 H 0.18853 0.75911 0.35344 0.0
H664 H 0.25514 0.79214 0.37507 0.0
H665 H 0.24231 0.81078 0.43885 0.0
H666 H 0.2445 0.7978 0.29864 0.0
H667 H 0.2411 0.72559 0.39846 0.0
H668 H 0.22169 0.69606 0.44767 0.0
H669 H 0.17671 0.66834 0.35426 0.0
H670 H 0.19571 0.69798 0.3046 0.0
H671 H 0.32236 0.71977 0.19174 0.0
H672 H 0.30056 0.73486 0.25055 0.0
H673 H 0.23884 0.70713 0.19432 0.0
H674 H 0.26041 0.69215 0.1355 0.0
H675 H 0.24176 0.69849 0.28165 0.0
H676 H 0.24882 0.76799 0.18047 0.0
H677 H 0.26975 0.79676 0.13232 0.0
H678 H 0.30918 0.8293 0.23006 0.0
H679 H 0.28872 0.80037 0.27875 0.0
C680 C 0.19282 0.78104 0.40897 0.0
C681 C 0.20797 0.79514 0.43412 0.0
C682 C 0.20025 0.77052 0.37196 0.0
C683 C 0.22292 0.77387 0.35982 0.0
C684 C 0.2376 0.78922 0.38386 0.0
C685 C 0.23023 0.79976 0.42052 0.0
C686 C 0.23211 0.76037 0.32342 0.0
C687 C 0.24392 0.77608 0.29503 0.0
C688 C 0.23097 0.73207 0.31822 0.0
C689 C 0.21963 0.71421 0.34798 0.0
C690 C 0.22697 0.71333 0.38851 0.0
C691 C 0.21606 0.69656 0.41646 0.0
C692 C 0.19793 0.6804 0.40413 0.0
C693 C 0.19072 0.68092 0.36379 0.0
C694 C 0.20155 0.69769 0.33573 0.0
C695 C 0.30424 0.71621 0.19238 0.0
C696 C 0.29304 0.70516 0.15875 0.0
C697 C 0.29182 0.72495 0.22585 0.0
C698 C 0.26811 0.72244 0.22627 0.0
C699 C 0.25712 0.70934 0.19432 0.0
C700 C 0.26948 0.70093 0.16064 0.0
C701 C 0.25469 0.73591 0.25801 0.0
C702 C 0.24205 0.72022 0.28515 0.0
C703 C 0.25519 0.76422 0.26234 0.0
C704 C 0.26738 0.78183 0.23319 0.0
C705 C 0.26208 0.78111 0.19166 0.0
C706 C 0.27384 0.79747 0.16427 0.0
C707 C 0.29082 0.8148 0.17811 0.0
C708 C 0.29604 0.81585 0.21938 0.0
C709 C 0.28436 0.79948 0.24689 0.0
H710 H 0.2999 0.82746 0.15686 0.0
H711 H 0.1895 0.66743 0.42581 0.0
H712 H 0.1676 0.79078 0.69317 0.0
H713 H 0.18907 0.7788 0.75385 0.0
H714 H 0.25099 0.80434 0.69563 0.0
H715 H 0.22972 0.81549 0.63465 0.0
H716 H 0.25701 0.757 0.72561 0.0
H717 H 0.22803 0.83883 0.77831 0.0
H718 H 0.19947 0.87339 0.79465 0.0
H719 H 0.16411 0.81687 0.87038 0.0
H720 H 0.19228 0.78182 0.85406 0.0
H721 H 0.31414 0.73101 0.91929 0.0
H722 H 0.30049 0.75241 0.85663 0.0
H723 H 0.23365 0.72022 0.87823 0.0
H724 H 0.24698 0.69867 0.94 0.0
H725 H 0.23535 0.77713 0.86745 0.0
H726 H 0.26332 0.69437 0.80624 0.0
H727 H 0.29296 0.66109 0.7899 0.0
H728 H 0.33215 0.72261 0.73082 0.0
H729 H 0.30285 0.75636 0.74732 0.0
C730 C 0.18571 0.79443 0.69365 0.0
C731 C 0.19699 0.80386 0.65897 0.0
C732 C 0.19799 0.78763 0.72841 0.0
C733 C 0.22169 0.79073 0.72937 0.0
C734 C 0.23277 0.80159 0.69551 0.0
C735 C 0.22054 0.80801 0.66061 0.0
C736 C 0.23502 0.78039 0.76422 0.0
C737 C 0.25258 0.76191 0.75662 0.0
C738 C 0.2292 0.78659 0.80469 0.0
C739 C 0.21222 0.80763 0.81474 0.0
C740 C 0.21408 0.8337 0.79823 0.0
C741 C 0.19797 0.85339 0.80752 0.0
C742 C 0.17997 0.84732 0.83348 0.0
C743 C 0.17807 0.82154 0.85027 0.0
C744 C 0.19412 0.80177 0.84106 0.0
C745 C 0.29668 0.72803 0.91019 0.0
C746 C 0.28158 0.71343 0.93492 0.0
C747 C 0.28891 0.74033 0.87454 0.0
C748 C 0.26601 0.73814 0.86334 0.0
C749 C 0.25131 0.72239 0.88676 0.0
C750 C 0.25902 0.71003 0.92202 0.0
C751 C 0.2567 0.75332 0.82861 0.0
C752 C 0.23997 0.77273 0.83635 0.0
C753 C 0.26348 0.74824 0.78837 0.0
C754 C 0.28105 0.72795 0.77848 0.0
C755 C 0.27837 0.70086 0.79013 0.0
C756 C 0.29508 0.6819 0.78076 0.0
C757 C 0.31447 0.68975 0.75947 0.0
C758 C 0.31715 0.71657 0.7474 0.0
C759 C 0.30049 0.73562 0.75673 0.0
H760 H 0.32738 0.67504 0.75222 0.0
H761 H 0.16752 0.86259 0.84063 0.0
H762 H 0.28173 0.3089 0.89224 0.0
H763 H 0.25958 0.29475 0.83357 0.0
H764 H 0.31522 0.24489 0.79402 0.0
H765 H 0.33751 0.2591 0.85306 0.0
H766 H 0.29391 0.26918 0.73088 0.0
H767 H 0.27233 0.21789 0.84865 0.0
H768 H 0.25931 0.21187 0.91907 0.0
H769 H 0.19732 0.2533 0.89093 0.0
H770 H 0.21013 0.25992 0.82044 0.0
H771 H 0.23937 0.18029 0.60425 0.0
H772 H 0.25695 0.19422 0.66769 0.0
H773 H 0.20132 0.24854 0.69013 0.0
H774 H 0.18344 0.23456 0.62638 0.0
H775 H 0.22101 0.22344 0.76211 0.0
H776 H 0.24275 0.27419 0.64386 0.0
H777 H 0.25582 0.27927 0.57331 0.0
H778 H 0.31776 0.23816 0.6028 0.0
H779 H 0.30488 0.23242 0.67342 0.0
C780 C 0.28926 0.29502 0.87099 0.0
C781 C 0.31105 0.28451 0.87758 0.0
C782 C 0.27663 0.28703 0.83744 0.0
C783 C 0.28553 0.26818 0.81021 0.0
C784 C 0.30799 0.25926 0.81501 0.0
C785 C 0.32072 0.26746 0.84852 0.0
C786 C 0.27101 0.25669 0.77809 0.0
C787 C 0.2781 0.25897 0.73776 0.0
C788 C 0.25012 0.24384 0.78712 0.0
C789 C 0.24229 0.23964 0.82938 0.0
C790 C 0.25599 0.22589 0.85755 0.0
C791 C 0.24864 0.22235 0.89747 0.0
C792 C 0.22753 0.23226 0.9095 0.0
C793 C 0.21369 0.24567 0.88159 0.0
C794 C 0.22098 0.24931 0.84164 0.0
C795 C 0.23052 0.19462 0.62324 0.0
C796 C 0.21026 0.20675 0.61009 0.0
C797 C 0.24059 0.20255 0.65942 0.0
C798 C 0.23065 0.22283 0.68287 0.0
C799 C 0.20925 0.23295 0.67213 0.0
C800 C 0.19905 0.22491 0.63582 0.0
C801 C 0.24409 0.23576 0.71515 0.0
C802 C 0.23678 0.23378 0.75537 0.0
C803 C 0.26481 0.24887 0.70611 0.0
C804 C 0.27276 0.25266 0.66382 0.0
C805 C 0.25909 0.26605 0.63523 0.0
C806 C 0.26646 0.26907 0.59524 0.0
C807 C 0.28758 0.25899 0.58355 0.0
C808 C 0.30139 0.24593 0.61188 0.0
C809 C 0.29407 0.2428 0.6519 0.0
H810 H 0.29327 0.26135 0.55258 0.0
H811 H 0.22187 0.2295 0.94042 0.0
H812 H 0.67576 0.2591 0.93166 0.0
H813 H 0.68333 0.23812 0.86571 0.0
H814 H 0.74547 0.2836 0.8559 0.0
H815 H 0.73795 0.30467 0.92089 0.0
H816 H 0.72556 0.27911 0.7836 0.0
H817 H 0.74457 0.22034 0.89802 0.0
H818 H 0.73517 0.19383 0.95909 0.0
H819 H 0.68723 0.14731 0.89064 0.0
H820 H 0.69619 0.1738 0.82926 0.0
H821 H 0.81549 0.20266 0.70494 0.0
H822 H 0.7895 0.21342 0.7604 0.0
H823 H 0.73246 0.19236 0.68518 0.0
H824 H 0.75825 0.18185 0.6295 0.0
H825 H 0.74069 0.18082 0.79222 0.0
H826 H 0.72288 0.243 0.67584 0.0
H827 H 0.73649 0.26926 0.61705 0.0
H828 H 0.78553 0.30882 0.69259 0.0
H829 H 0.77235 0.28248 0.75167 0.0
C830 C 0.69069 0.26512 0.91483 0.0
C831 C 0.70644 0.28323 0.93159 0.0
C832 C 0.69505 0.25301 0.87735 0.0
C833 C 0.71514 0.25901 0.8563 0.0
C834 C 0.7299 0.27863 0.87166 0.0
C835 C 0.72563 0.29056 0.90895 0.0
C836 C 0.72233 0.24337 0.82044 0.0
C837 C 0.7284 0.25753 0.78527 0.0
C838 C 0.7261 0.21518 0.8225 0.0
C839 C 0.72083 0.19923 0.85927 0.0
C840 C 0.73192 0.20458 0.89611 0.0
C841 C 0.72669 0.18955 0.93074 0.0
C842 C 0.71056 0.16896 0.92878 0.0
C843 C 0.69968 0.16331 0.89214 0.0
C844 C 0.70482 0.17831 0.85743 0.0
C845 C 0.79748 0.19946 0.70064 0.0
C846 C 0.78885 0.19196 0.66267 0.0
C847 C 0.78267 0.20562 0.73229 0.0
C848 C 0.75916 0.20389 0.72649 0.0
C849 C 0.75059 0.1939 0.68997 0.0
C850 C 0.76536 0.18811 0.65813 0.0
C851 C 0.74392 0.21671 0.75601 0.0
C852 C 0.73674 0.20212 0.78999 0.0
C853 C 0.73915 0.24451 0.75308 0.0
C854 C 0.74677 0.26069 0.71793 0.0
C855 C 0.73665 0.2572 0.67978 0.0
C856 C 0.74427 0.2721 0.64645 0.0
C857 C 0.7619 0.29066 0.65107 0.0
C858 C 0.7719 0.29442 0.68905 0.0
C859 C 0.76435 0.27953 0.72245 0.0
H860 H 0.76779 0.30217 0.62523 0.0
H861 H 0.70653 0.15734 0.95562 0.0
H862 H 0.68042 0.6892 0.84114 0.0
H863 H 0.70559 0.69567 0.78275 0.0
H864 H 0.75171 0.74122 0.85773 0.0
H865 H 0.72736 0.73384 0.91589 0.0
H866 H 0.71539 0.73855 0.74607 0.0
H867 H 0.80456 0.74161 0.8246 0.0
H868 H 0.82489 0.71755 0.87906 0.0
H869 H 0.78131 0.64902 0.86373 0.0
H870 H 0.76092 0.67248 0.80876 0.0
H871 H 0.78077 0.81879 0.62786 0.0
H872 H 0.76749 0.80023 0.69226 0.0
H873 H 0.80302 0.72604 0.66776 0.0
H874 H 0.81729 0.7452 0.60412 0.0
H875 H 0.79949 0.73387 0.74827 0.0
H876 H 0.74979 0.73293 0.63479 0.0
H877 H 0.72951 0.75223 0.57613 0.0
H878 H 0.69353 0.80602 0.65489 0.0
H879 H 0.71389 0.78735 0.71397 0.0
C880 C 0.69613 0.70019 0.84513 0.0
C881 C 0.70197 0.71093 0.88302 0.0
C882 C 0.7105 0.70387 0.81185 0.0
C883 C 0.73077 0.71859 0.81592 0.0
C884 C 0.7366 0.72907 0.85394 0.0
C885 C 0.7225 0.72502 0.88718 0.0
C886 C 0.74471 0.72553 0.77996 0.0
C887 C 0.73375 0.73722 0.74654 0.0
C888 C 0.76869 0.72333 0.77997 0.0
C889 C 0.78111 0.70891 0.81267 0.0
C890 C 0.79939 0.72134 0.83264 0.0
C891 C 0.81091 0.70782 0.86366 0.0
C892 C 0.80436 0.6818 0.8749 0.0
C893 C 0.78632 0.66921 0.85507 0.0
C894 C 0.77476 0.68263 0.82402 0.0
C895 C 0.78657 0.79901 0.63722 0.0
C896 C 0.79989 0.7833 0.61125 0.0
C897 C 0.77886 0.78833 0.67375 0.0
C898 C 0.78365 0.76145 0.68399 0.0
C899 C 0.79898 0.74674 0.6602 0.0
C900 C 0.80718 0.75772 0.62398 0.0
C901 C 0.7701 0.7478 0.71572 0.0
C902 C 0.78111 0.73483 0.74796 0.0
C903 C 0.7461 0.7479 0.71411 0.0
C904 C 0.73347 0.75886 0.67876 0.0
C905 C 0.73763 0.74896 0.63957 0.0
C906 C 0.72613 0.75979 0.60625 0.0
C907 C 0.71026 0.78036 0.61178 0.0
C908 C 0.70583 0.7901 0.65066 0.0
C909 C 0.71733 0.77938 0.68408 0.0
H910 H 0.70138 0.78874 0.58594 0.0
H911 H 0.81329 0.67138 0.89895 0.0
loop_
_geom_bond_atom_site_label_1
_geom_bond_atom_site_label_2
_geom_bond_distance
_geom_bond_site_symmetry_2
_ccdc_geom_bond_type
Mg0 O1 2.028 . S
Mg0 O7 1.986 . S
Mg0 O9 2.114 1_554 S
Mg0 O10 2.251 1_554 S
Mg0 O13 2.010 . S
O1 Mg0 2.028 . S
O1 C4 1.250 . S
O2 Mg3 2.028 . S
O2 C4 1.248 . S
Mg3 O2 2.028 . S
Mg3 O8 2.032 . S
Mg3 O10 2.079 1_554 S
C4 O1 1.250 . S
C4 O2 1.248 . S
C5 O6 1.264 . S
C5 O13 1.249 . S
O6 C5 1.264 . S
O7 Mg0 1.986 . S
O7 C11 1.246 . S
O8 Mg3 2.032 . S
O8 C11 1.259 . S
O9 Mg0 2.114 1_556 S
O9 C12 1.252 . S
O10 Mg0 2.251 1_556 S
O10 Mg3 2.079 1_556 S
O10 C12 1.273 . S
C11 O7 1.246 . S
C11 O8 1.259 . S
C12 O9 1.252 . S
C12 O10 1.273 . S
O13 Mg0 2.010 . S
O13 C5 1.249 . S
Mg14 O15 2.028 . S
Mg14 O21 1.986 1_554 S
Mg14 O23 2.114 . S
Mg14 O24 2.251 . S
Mg14 O27 2.010 . S
O15 Mg14 2.028 . S
O15 C18 1.250 . S
O16 Mg17 2.028 . S
O16 C18 1.248 . S
Mg17 O16 2.028 . S
Mg17 O22 2.032 1_554 S
Mg17 O24 2.079 . S
C18 O15 1.250 . S
C18 O16 1.248 . S
C19 O20 1.264 . S
C19 O27 1.249 . S
O20 C19 1.264 . S
O21 Mg14 1.986 1_556 S
O21 C25 1.246 . S
O22 Mg17 2.032 1_556 S
O22 C25 1.259 . S
O23 Mg14 2.114 . S
O23 C26 1.252 . S
O24 Mg14 2.251 . S
O24 Mg17 2.079 . S
O24 C26 1.273 . S
C25 O21 1.246 . S
C25 O22 1.259 . S
C26 O23 1.252 . S
C26 O24 1.273 . S
O27 Mg14 2.010 . S
O27 C19 1.249 . S
Mg28 O29 2.028 . S
Mg28 O35 1.986 . S
Mg28 O37 2.114 1_554 S
Mg28 O38 2.251 1_554 S
Mg28 O41 2.010 . S
O29 Mg28 2.028 . S
O29 C32 1.250 . S
O30 Mg31 2.028 . S
O30 C32 1.248 . S
Mg31 O30 2.028 . S
Mg31 O36 2.032 . S
Mg31 O38 2.079 1_554 S
C32 O29 1.250 . S
C32 O30 1.248 . S
C33 O34 1.264 . S
C33 O41 1.249 . S
O34 C33 1.264 . S
O35 Mg28 1.986 . S
O35 C39 1.246 . S
O36 Mg31 2.032 . S
O36 C39 1.259 . S
O37 Mg28 2.114 1_556 S
O37 C40 1.252 . S
O38 Mg28 2.251 1_556 S
O38 Mg31 2.079 1_556 S
O38 C40 1.273 . S
C39 O35 1.246 . S
C39 O36 1.259 . S
C40 O37 1.252 . S
C40 O38 1.273 . S
O41 Mg28 2.010 . S
O41 C33 1.249 . S
Mg42 O43 2.028 . S
Mg42 O49 1.986 1_554 S
Mg42 O51 2.114 . S
Mg42 O52 2.251 . S
Mg42 O55 2.010 . S
O43 Mg42 2.028 . S
O43 C46 1.250 . S
O44 Mg45 2.028 . S
O44 C46 1.248 . S
Mg45 O44 2.028 . S
Mg45 O50 2.032 1_554 S
Mg45 O52 2.079 . S
C46 O43 1.250 . S
C46 O44 1.248 . S
C47 O48 1.264 . S
C47 O55 1.249 . S
O48 C47 1.264 . S
O49 Mg42 1.986 1_556 S
O49 C53 1.246 . S
O50 Mg45 2.032 1_556 S
O50 C53 1.259 . S
O51 Mg42 2.114 . S
O51 C54 1.252 . S
O52 Mg42 2.251 . S
O52 Mg45 2.079 . S
O52 C54 1.273 . S
C53 O49 1.246 . S
C53 O50 1.259 . S
C54 O51 1.252 . S
C54 O52 1.273 . S
O55 Mg42 2.010 . S
O55 C47 1.249 . S
Mg56 O57 2.028 . S
Mg56 O63 1.986 . S
Mg56 O65 2.114 . S
Mg56 O66 2.251 . S
Mg56 O69 2.010 . S
O57 Mg56 2.028 . S
O57 C60 1.250 . S
O58 Mg59 2.028 . S
O58 C60 1.248 . S
Mg59 O58 2.028 . S
Mg59 O64 2.032 . S
Mg59 O66 2.079 . S
C60 O57 1.250 . S
C60 O58 1.248 . S
C61 O62 1.264 . S
C61 O69 1.249 . S
O62 C61 1.264 . S
O63 Mg56 1.986 . S
O63 C67 1.246 . S
O64 Mg59 2.032 . S
O64 C67 1.259 . S
O65 Mg56 2.114 . S
O65 C68 1.252 . S
O66 Mg56 2.251 . S
O66 Mg59 2.079 . S
O66 C68 1.273 . S
C67 O63 1.246 . S
C67 O64 1.259 . S
C68 O65 1.252 . S
C68 O66 1.273 . S
O69 Mg56 2.010 . S
O69 C61 1.249 . S
Mg70 O71 2.028 . S
Mg70 O77 1.986 . S
Mg70 O79 2.114 . S
Mg70 O80 2.251 . S
Mg70 O83 2.010 . S
O71 Mg70 2.028 . S
O71 C74 1.250 . S
O72 Mg73 2.028 . S
O72 C74 1.248 . S
Mg73 O72 2.028 . S
Mg73 O78 2.032 . S
Mg73 O80 2.079 . S
C74 O71 1.250 . S
C74 O72 1.248 . S
C75 O76 1.264 . S
C75 O83 1.249 . S
O76 C75 1.264 . S
O77 Mg70 1.986 . S
O77 C81 1.246 . S
O78 Mg73 2.032 . S
O78 C81 1.259 . S
O79 Mg70 2.114 . S
O79 C82 1.252 . S
O80 Mg70 2.251 . S
O80 Mg73 2.079 . S
O80 C82 1.273 . S
C81 O77 1.246 . S
C81 O78 1.259 . S
C82 O79 1.252 . S
C82 O80 1.273 . S
O83 Mg70 2.010 . S
O83 C75 1.249 . S
Mg84 O85 2.028 . S
Mg84 O91 1.986 . S
Mg84 O93 2.114 . S
Mg84 O94 2.251 . S
Mg84 O97 2.010 . S
O85 Mg84 2.028 . S
O85 C88 1.250 . S
O86 Mg87 2.028 . S
O86 C88 1.248 . S
Mg87 O86 2.028 . S
Mg87 O92 2.032 . S
Mg87 O94 2.079 . S
C88 O85 1.250 . S
C88 O86 1.248 . S
C89 O90 1.264 . S
C89 O97 1.249 . S
O90 C89 1.264 . S
O91 Mg84 1.986 . S
O91 C95 1.246 . S
O92 Mg87 2.032 . S
O92 C95 1.259 . S
O93 Mg84 2.114 . S
O93 C96 1.252 . S
O94 Mg84 2.251 . S
O94 Mg87 2.079 . S
O94 C96 1.273 . S
C95 O91 1.246 . S
C95 O92 1.259 . S
C96 O93 1.252 . S
C96 O94 1.273 . S
O97 Mg84 2.010 . S
O97 C89 1.249 . S
Mg98 O99 2.028 . S
Mg98 O105 1.986 . S
Mg98 O107 2.114 . S
Mg98 O108 2.251 . S
Mg98 O111 2.010 . S
O99 Mg98 2.028 . S
O99 C102 1.250 . S
O100 Mg101 2.028 . S
O100 C102 1.248 . S
Mg101 O100 2.028 . S
Mg101 O106 2.032 . S
Mg101 O108 2.079 . S
C102 O99 1.250 . S
C102 O100 1.248 . S
C103 O104 1.264 . S
C103 O111 1.249 . S
O104 C103 1.264 . S
O105 Mg98 1.986 . S
O105 C109 1.246 . S
O106 Mg101 2.032 . S
O106 C109 1.259 . S
O107 Mg98 2.114 . S
O107 C110 1.252 . S
O108 Mg98 2.251 . S
O108 Mg101 2.079 . S
O108 C110 1.273 . S
C109 O105 1.246 . S
C109 O106 1.259 . S
C110 O107 1.252 . S
C110 O108 1.273 . S
O111 Mg98 2.010 . S
O111 C103 1.249 . S
H112 C130 0.951 . S
H113 C132 0.951 . S
H114 C134 0.950 1_556 S
H115 C135 0.950 1_556 S
H116 C137 0.950 . S
H117 C140 0.950 . S
H118 C141 0.950 . S
H119 C143 0.950 . S
H120 C144 0.950 . S
H121 C145 0.951 . S
H122 C147 0.955 . S
H123 C149 0.950 . S
H124 C150 0.950 . S
H125 C152 0.950 . S
H126 C155 0.950 . S
H127 C156 0.950 . S
H128 C158 0.950 . S
H129 C159 0.950 . S
C130 H112 0.951 . S
C130 C131 1.366 . S
C130 C132 1.388 . S
C131 C130 1.366 . S
C131 C135 1.385 . S
C132 H113 0.951 . S
C132 C130 1.388 . S
C132 C133 1.366 . S
C133 C132 1.366 . S
C133 C134 1.414 . S
C133 C136 1.499 . S
C134 H114 0.950 1_554 S
C134 C133 1.414 . S
C134 C135 1.374 . S
C135 H115 0.950 1_554 S
C135 C131 1.385 . S
C135 C134 1.374 . S
C136 C133 1.499 . S
C136 C137 1.373 1_554 S
C136 C138 1.389 . S
C137 H116 0.950 . S
C137 C136 1.373 1_556 S
C137 C153 1.377 . S
C138 C136 1.389 . S
C138 C139 1.524 . S
C138 C152 1.377 . S
C139 C138 1.524 . S
C139 C140 1.397 . S
C139 C144 1.363 . S
C140 H117 0.950 . S
C140 C139 1.397 . S
C140 C141 1.334 . S
C141 H118 0.950 . S
C141 C140 1.334 . S
C141 C142 1.287 . S
C142 C141 1.287 . S
C142 C143 1.524 . S
C142 H161 0.913 . S
C143 H119 0.950 . S
C143 C142 1.524 . S
C143 C144 1.415 . S
C144 H120 0.950 . S
C144 C139 1.363 . S
C144 C143 1.415 . S
C145 H121 0.951 . S
C145 C146 1.366 1_556 S
C145 C147 1.388 . S
C146 C145 1.366 1_554 S
C146 C150 1.385 . S
C147 H122 0.955 . S
C147 C145 1.388 . S
C147 C148 1.362 1_556 S
C148 C147 1.362 1_554 S
C148 C149 1.414 . S
C148 C151 1.499 . S
C149 H123 0.950 . S
C149 C148 1.414 . S
C149 C150 1.374 . S
C150 H124 0.950 . S
C150 C146 1.385 . S
C150 C149 1.374 . S
C151 C148 1.499 . S
C151 C152 1.373 . S
C151 C153 1.389 1_554 S
C152 H125 0.950 . S
C152 C138 1.377 . S
C152 C151 1.373 . S
C153 C137 1.377 . S
C153 C151 1.389 1_556 S
C153 C154 1.524 . S
C154 C153 1.524 . S
C154 C155 1.397 . S
C154 C159 1.363 . S
C155 H126 0.950 . S
C155 C154 1.397 . S
C155 C156 1.334 . S
C156 H127 0.950 . S
C156 C155 1.334 . S
C156 C157 1.287 . S
C157 C156 1.287 . S
C157 C158 1.524 . S
C157 H160 0.999 . S
C158 H128 0.950 . S
C158 C157 1.524 . S
C158 C159 1.415 . S
C159 H129 0.950 . S
C159 C154 1.363 . S
C159 C158 1.415 . S
H160 C157 0.999 . S
H161 C142 0.913 . S
H162 C180 0.951 . S
H163 C182 0.951 . S
H164 C184 0.950 . S
H165 C185 0.950 . S
H166 C187 0.950 . S
H167 C190 0.950 . S
H168 C191 0.950 . S
H169 C193 0.950 . S
H170 C194 0.950 . S
H171 C195 0.951 . S
H172 C197 0.951 . S
H173 C199 0.950 . S
H174 C200 0.950 . S
H175 C202 0.950 . S
H176 C205 0.950 . S
H177 C206 0.950 . S
H178 C208 0.950 . S
H179 C209 0.950 . S
C180 H162 0.951 . S
C180 C181 1.366 . S
C180 C182 1.388 . S
C181 C180 1.366 . S
C181 C185 1.385 . S
C182 H163 0.951 . S
C182 C180 1.388 . S
C182 C183 1.366 . S
C183 C182 1.366 . S
C183 C184 1.414 . S
C183 C186 1.499 . S
C184 H164 0.950 . S
C184 C183 1.414 . S
C184 C185 1.374 . S
C185 H165 0.950 . S
C185 C181 1.385 . S
C185 C184 1.374 . S
C186 C183 1.499 . S
C186 C187 1.373 1_554 S
C186 C188 1.389 . S
C187 H166 0.950 . S
C187 C186 1.373 1_556 S
C187 C203 1.377 . S
C188 C186 1.389 . S
C188 C189 1.524 . S
C188 C202 1.377 . S
C189 C188 1.524 . S
C189 C190 1.397 . S
C189 C194 1.363 . S
C190 H167 0.950 . S
C190 C189 1.397 . S
C190 C191 1.334 . S
C191 H168 0.950 . S
C191 C190 1.334 . S
C191 C192 1.287 . S
C192 C191 1.287 . S
C192 C193 1.524 . S
C192 H211 0.913 . S
C193 H169 0.950 . S
C193 C192 1.524 . S
C193 C194 1.415 . S
C194 H170 0.950 . S
C194 C189 1.363 . S
C194 C193 1.415 . S
C195 H171 0.951 . S
C195 C196 1.366 . S
C195 C197 1.388 . S
C196 C195 1.366 . S
C196 C200 1.385 . S
C197 H172 0.951 . S
C197 C195 1.388 . S
C197 C198 1.366 . S
C198 C197 1.366 . S
C198 C199 1.414 . S
C198 C201 1.499 . S
C199 H173 0.950 . S
C199 C198 1.414 . S
C199 C200 1.374 . S
C200 H174 0.950 . S
C200 C196 1.385 . S
C200 C199 1.374 . S
C201 C198 1.499 . S
C201 C202 1.373 . S
C201 C203 1.389 1_554 S
C202 H175 0.950 . S
C202 C188 1.377 . S
C202 C201 1.373 . S
C203 C187 1.377 . S
C203 C201 1.389 1_556 S
C203 C204 1.524 . S
C204 C203 1.524 . S
C204 C205 1.397 . S
C204 C209 1.363 . S
C205 H176 0.950 . S
C205 C204 1.397 . S
C205 C206 1.334 . S
C206 H177 0.950 . S
C206 C205 1.334 . S
C206 C207 1.287 . S
C207 C206 1.287 . S
C207 C208 1.524 . S
C207 H210 0.999 . S
C208 H178 0.950 . S
C208 C207 1.524 . S
C208 C209 1.415 . S
C209 H179 0.950 . S
C209 C204 1.363 . S
C209 C208 1.415 . S
H210 C207 0.999 . S
H211 C192 0.913 . S
H212 C230 0.951 . S
H213 C232 0.951 . S
H214 C234 0.950 . S
H215 C235 0.950 . S
H216 C237 0.950 . S
H217 C240 0.950 . S
H218 C241 0.950 . S
H219 C243 0.950 . S
H220 C244 0.950 . S
H221 C245 0.951 . S
H222 C247 0.951 . S
H223 C249 0.950 . S
H224 C250 0.950 . S
H225 C252 0.950 . S
H226 C255 0.950 . S
H227 C256 0.950 . S
H228 C258 0.950 1_556 S
H229 C259 0.950 1_556 S
C230 H212 0.951 . S
C230 C231 1.366 . S
C230 C232 1.388 . S
C231 C230 1.366 . S
C231 C235 1.385 1_554 S
C232 H213 0.951 . S
C232 C230 1.388 . S
C232 C233 1.366 . S
C233 C232 1.366 . S
C233 C234 1.414 1_554 S
C233 C236 1.499 . S
C234 H214 0.950 . S
C234 C233 1.414 1_556 S
C234 C235 1.374 . S
C235 H215 0.950 . S
C235 C231 1.385 1_556 S
C235 C234 1.374 . S
C236 C233 1.499 . S
C236 C237 1.373 . S
C236 C238 1.389 . S
C237 H216 0.950 . S
C237 C236 1.373 . S
C237 C253 1.377 . S
C238 C236 1.389 . S
C238 C239 1.524 . S
C238 C252 1.377 . S
C239 C238 1.524 . S
C239 C240 1.397 1_554 S
C239 C244 1.363 . S
C240 H217 0.950 . S
C240 C239 1.397 1_556 S
C240 C241 1.334 . S
C241 H218 0.950 . S
C241 C240 1.334 . S
C241 C242 1.287 1_556 S
C242 C241 1.287 1_554 S
C242 C243 1.524 . S
C242 H261 0.912 1_554 S
C243 H219 0.950 . S
C243 C242 1.524 . S
C243 C244 1.415 . S
C244 H220 0.950 . S
C244 C239 1.363 . S
C244 C243 1.415 . S
C245 H221 0.951 . S
C245 C246 1.366 1_556 S
C245 C247 1.388 . S
C246 C245 1.366 1_554 S
C246 C250 1.385 . S
C247 H222 0.951 . S
C247 C245 1.388 . S
C247 C248 1.366 1_556 S
C248 C247 1.366 1_554 S
C248 C249 1.414 . S
C248 C251 1.499 . S
C249 H223 0.950 . S
C249 C248 1.414 . S
C249 C250 1.374 . S
C250 H224 0.950 . S
C250 C246 1.385 . S
C250 C249 1.374 . S
C251 C248 1.499 . S
C251 C252 1.373 . S
C251 C253 1.389 . S
C252 H225 0.950 . S
C252 C238 1.377 . S
C252 C251 1.373 . S
C253 C237 1.377 . S
C253 C251 1.389 . S
C253 C254 1.524 . S
C254 C253 1.524 . S
C254 C255 1.397 . S
C254 C259 1.363 . S
C255 H226 0.950 . S
C255 C254 1.397 . S
C255 C256 1.334 . S
C256 H227 0.950 . S
C256 C255 1.334 . S
C256 C257 1.287 . S
C257 C256 1.287 . S
C257 C258 1.524 . S
C257 H260 0.999 . S
C258 H228 0.950 1_554 S
C258 C257 1.524 . S
C258 C259 1.415 . S
C259 H229 0.950 1_554 S
C259 C254 1.363 . S
C259 C258 1.415 . S
H260 C257 0.999 . S
H261 C242 0.912 1_556 S
H262 C280 0.951 . S
H263 C282 0.951 . S
H264 C284 0.950 . S
H265 C285 0.950 . S
H266 C287 0.950 . S
H267 C290 0.950 . S
H268 C291 0.950 . S
H269 C293 0.950 . S
H270 C294 0.950 . S
H271 C295 0.951 . S
H272 C297 0.951 . S
H273 C299 0.950 . S
H274 C300 0.950 . S
H275 C302 0.950 . S
H276 C305 0.950 . S
H277 C306 0.950 . S
H278 C308 0.950 . S
H279 C309 0.950 . S
C280 H262 0.951 . S
C280 C281 1.366 1_556 S
C280 C282 1.388 . S
C281 C280 1.366 1_554 S
C281 C285 1.385 . S
C282 H263 0.951 . S
C282 C280 1.388 . S
C282 C283 1.366 1_556 S
C283 C282 1.366 1_554 S
C283 C284 1.414 . S
C283 C286 1.499 . S
C284 H264 0.950 . S
C284 C283 1.414 . S
C284 C285 1.374 . S
C285 H265 0.950 . S
C285 C281 1.385 . S
C285 C284 1.374 . S
C286 C283 1.499 . S
C286 C287 1.373 . S
C286 C288 1.389 1_554 S
C287 H266 0.950 . S
C287 C286 1.373 . S
C287 C303 1.377 . S
C288 C286 1.389 1_556 S
C288 C289 1.524 . S
C288 C302 1.377 . S
C289 C288 1.524 . S
C289 C290 1.397 . S
C289 C294 1.363 . S
C290 H267 0.950 . S
C290 C289 1.397 . S
C290 C291 1.334 . S
C291 H268 0.950 . S
C291 C290 1.334 . S
C291 C292 1.287 . S
C292 C291 1.287 . S
C292 C293 1.524 . S
C292 H311 0.913 . S
C293 H269 0.950 . S
C293 C292 1.524 . S
C293 C294 1.415 . S
C294 H270 0.950 . S
C294 C289 1.363 . S
C294 C293 1.415 . S
C295 H271 0.951 . S
C295 C296 1.366 . S
C295 C297 1.388 . S
C296 C295 1.366 . S
C296 C300 1.385 1_554 S
C297 H272 0.951 . S
C297 C295 1.388 . S
C297 C298 1.366 . S
C298 C297 1.366 . S
C298 C299 1.414 1_554 S
C298 C301 1.499 . S
C299 H273 0.950 . S
C299 C298 1.414 1_556 S
C299 C300 1.374 . S
C300 H274 0.950 . S
C300 C296 1.385 1_556 S
C300 C299 1.374 . S
C301 C298 1.499 . S
C301 C302 1.373 1_554 S
C301 C303 1.389 . S
C302 H275 0.950 . S
C302 C288 1.377 . S
C302 C301 1.373 1_556 S
C303 C287 1.377 . S
C303 C301 1.389 . S
C303 C304 1.524 . S
C304 C303 1.524 . S
C304 C305 1.397 . S
C304 C309 1.363 . S
C305 H276 0.950 . S
C305 C304 1.397 . S
C305 C306 1.334 . S
C306 H277 0.950 . S
C306 C305 1.334 . S
C306 C307 1.287 . S
C307 C306 1.287 . S
C307 C308 1.524 . S
C307 H310 0.999 . S
C308 H278 0.950 . S
C308 C307 1.524 . S
C308 C309 1.415 . S
C309 H279 0.950 . S
C309 C304 1.363 . S
C309 C308 1.415 . S
H310 C307 0.999 . S
H311 C292 0.913 . S
H312 C330 0.951 . S
H313 C332 0.951 . S
H314 C334 0.950 . S
H315 C335 0.950 . S
H316 C337 0.950 . S
H317 C340 0.950 . S
H318 C341 0.950 . S
H319 C343 0.950 . S
H320 C344 0.950 . S
H321 C345 0.951 . S
H322 C347 0.951 . S
H323 C349 0.950 . S
H324 C350 0.950 . S
H325 C352 0.950 . S
H326 C355 0.950 . S
H327 C356 0.950 . S
H328 C358 0.950 . S
H329 C359 0.950 . S
C330 H312 0.951 . S
C330 C331 1.366 . S
C330 C332 1.388 . S
C331 C330 1.366 . S
C331 C335 1.385 . S
C332 H313 0.951 . S
C332 C330 1.388 . S
C332 C333 1.366 . S
C333 C332 1.366 . S
C333 C334 1.414 . S
C333 C336 1.499 . S
C334 H314 0.950 . S
C334 C333 1.414 . S
C334 C335 1.374 . S
C335 H315 0.950 . S
C335 C331 1.385 . S
C335 C334 1.374 . S
C336 C333 1.499 . S
C336 C337 1.373 . S
C336 C338 1.389 . S
C337 H316 0.950 . S
C337 C336 1.373 . S
C337 C353 1.377 1_565 S
C338 C336 1.389 . S
C338 C339 1.524 . S
C338 C352 1.377 1_565 S
C339 C338 1.524 . S
C339 C340 1.397 . S
C339 C344 1.363 . S
C340 H317 0.950 . S
C340 C339 1.397 . S
C340 C341 1.334 . S
C341 H318 0.950 . S
C341 C340 1.334 . S
C341 C342 1.287 . S
C342 C341 1.287 . S
C342 C343 1.524 . S
C342 H361 0.913 . S
C343 H319 0.950 . S
C343 C342 1.524 . S
C343 C344 1.415 . S
C344 H320 0.950 . S
C344 C339 1.363 . S
C344 C343 1.415 . S
C345 H321 0.951 . S
C345 C346 1.366 . S
C345 C347 1.388 . S
C346 C345 1.366 . S
C346 C350 1.385 . S
C347 H322 0.951 . S
C347 C345 1.388 . S
C347 C348 1.366 . S
C348 C347 1.366 . S
C348 C349 1.414 . S
C348 C351 1.499 . S
C349 H323 0.950 . S
C349 C348 1.414 . S
C349 C350 1.374 . S
C350 H324 0.950 . S
C350 C346 1.385 . S
C350 C349 1.374 . S
C351 C348 1.499 . S
C351 C352 1.373 . S
C351 C353 1.389 . S
C352 H325 0.950 . S
C352 C338 1.377 1_545 S
C352 C351 1.373 . S
C353 C337 1.377 1_545 S
C353 C351 1.389 . S
C353 C354 1.524 . S
C354 C353 1.524 . S
C354 C355 1.397 . S
C354 C359 1.363 . S
C355 H326 0.950 . S
C355 C354 1.397 . S
C355 C356 1.334 . S
C356 H327 0.950 . S
C356 C355 1.334 . S
C356 C357 1.287 . S
C357 C356 1.287 . S
C357 C358 1.524 . S
C357 H360 0.999 . S
C358 H328 0.950 . S
C358 C357 1.524 . S
C358 C359 1.415 . S
C359 H329 0.950 . S
C359 C354 1.363 . S
C359 C358 1.415 . S
H360 C357 0.999 . S
H361 C342 0.913 . S
H362 C380 0.951 . S
H363 C382 0.951 . S
H364 C384 0.950 . S
H365 C385 0.950 . S
H366 C387 0.950 . S
H367 C390 0.950 . S
H368 C391 0.950 . S
H369 C393 0.950 . S
H370 C394 0.950 . S
H371 C395 0.951 . S
H372 C397 0.951 . S
H373 C399 0.950 . S
H374 C400 0.950 . S
H375 C402 0.950 . S
H376 C405 0.950 . S
H377 C406 0.950 . S
H378 C408 0.950 . S
H379 C409 0.950 . S
C380 H362 0.951 . S
C380 C381 1.366 . S
C380 C382 1.388 . S
C381 C380 1.366 . S
C381 C385 1.385 . S
C382 H363 0.951 . S
C382 C380 1.388 . S
C382 C383 1.366 . S
C383 C382 1.366 . S
C383 C384 1.414 . S
C383 C386 1.499 . S
C384 H364 0.950 . S
C384 C383 1.414 . S
C384 C385 1.374 . S
C385 H365 0.950 . S
C385 C381 1.385 . S
C385 C384 1.374 . S
C386 C383 1.499 . S
C386 C387 1.373 . S
C386 C388 1.389 . S
C387 H366 0.950 . S
C387 C386 1.373 . S
C387 C403 1.377 1_455 S
C388 C386 1.389 . S
C388 C389 1.524 . S
C388 C402 1.377 1_455 S
C389 C388 1.524 . S
C389 C390 1.397 . S
C389 C394 1.363 . S
C390 H367 0.950 . S
C390 C389 1.397 . S
C390 C391 1.334 . S
C391 H368 0.950 . S
C391 C390 1.334 . S
C391 C392 1.287 . S
C392 C391 1.287 . S
C392 C393 1.524 . S
C392 H411 0.913 . S
C393 H369 0.950 . S
C393 C392 1.524 . S
C393 C394 1.415 . S
C394 H370 0.950 . S
C394 C389 1.363 . S
C394 C393 1.415 . S
C395 H371 0.951 . S
C395 C396 1.366 . S
C395 C397 1.388 . S
C396 C395 1.366 . S
C396 C400 1.385 . S
C397 H372 0.951 . S
C397 C395 1.388 . S
C397 C398 1.366 . S
C398 C397 1.366 . S
C398 C399 1.414 . S
C398 C401 1.499 . S
C399 H373 0.950 . S
C399 C398 1.414 . S
C399 C400 1.374 . S
C400 H374 0.950 . S
C400 C396 1.385 . S
C400 C399 1.374 . S
C401 C398 1.499 . S
C401 C402 1.373 . S
C401 C403 1.389 . S
C402 H375 0.950 . S
C402 C388 1.377 1_655 S
C402 C401 1.373 . S
C403 C387 1.377 1_655 S
C403 C401 1.389 . S
C403 C404 1.524 . S
C404 C403 1.524 . S
C404 C405 1.397 . S
C404 C409 1.363 . S
C405 H376 0.950 . S
C405 C404 1.397 . S
C405 C406 1.334 . S
C406 H377 0.950 . S
C406 C405 1.334 . S
C406 C407 1.287 . S
C407 C406 1.287 . S
C407 C408 1.524 . S
C407 H410 0.999 . S
C408 H378 0.950 . S
C408 C407 1.524 . S
C408 C409 1.415 . S
C409 H379 0.950 . S
C409 C404 1.363 . S
C409 C408 1.415 . S
H410 C407 0.999 . S
H411 C392 0.913 . S
H412 C430 0.951 . S
H413 C432 0.951 . S
H414 C434 0.950 . S
H415 C435 0.950 . S
H416 C437 0.950 . S
H417 C440 0.950 . S
H418 C441 0.950 . S
H419 C443 0.950 . S
H420 C444 0.950 . S
H421 C445 0.951 . S
H422 C447 0.951 . S
H423 C449 0.950 . S
H424 C450 0.950 . S
H425 C452 0.950 . S
H426 C455 0.950 . S
H427 C456 0.950 . S
H428 C458 0.950 . S
H429 C459 0.950 . S
C430 H412 0.951 . S
C430 C431 1.366 . S
C430 C432 1.388 . S
C431 C430 1.366 . S
C431 C435 1.385 . S
C432 H413 0.951 . S
C432 C430 1.388 . S
C432 C433 1.366 . S
C433 C432 1.366 . S
C433 C434 1.414 . S
C433 C436 1.499 . S
C434 H414 0.950 . S
C434 C433 1.414 . S
C434 C435 1.374 . S
C435 H415 0.950 . S
C435 C431 1.385 . S
C435 C434 1.374 . S
C436 C433 1.499 . S
C436 C437 1.373 . S
C436 C438 1.389 . S
C437 H416 0.950 . S
C437 C436 1.373 . S
C437 C453 1.377 1_545 S
C438 C436 1.389 . S
C438 C439 1.524 . S
C438 C452 1.377 1_545 S
C439 C438 1.524 . S
C439 C440 1.397 . S
C439 C444 1.363 . S
C440 H417 0.950 . S
C440 C439 1.397 . S
C440 C441 1.334 . S
C441 H418 0.950 . S
C441 C440 1.334 . S
C441 C442 1.287 . S
C442 C441 1.287 . S
C442 C443 1.524 . S
C442 H461 0.913 . S
C443 H419 0.950 . S
C443 C442 1.524 . S
C443 C444 1.415 . S
C444 H420 0.950 . S
C444 C439 1.363 . S
C444 C443 1.415 . S
C445 H421 0.951 . S
C445 C446 1.366 . S
C445 C447 1.388 . S
C446 C445 1.366 . S
C446 C450 1.385 . S
C447 H422 0.951 . S
C447 C445 1.388 . S
C447 C448 1.366 . S
C448 C447 1.366 . S
C448 C449 1.414 . S
C448 C451 1.499 . S
C449 H423 0.950 . S
C449 C448 1.414 . S
C449 C450 1.374 . S
C450 H424 0.950 . S
C450 C446 1.385 . S
C450 C449 1.374 . S
C451 C448 1.499 . S
C451 C452 1.373 . S
C451 C453 1.389 . S
C452 H425 0.950 . S
C452 C438 1.377 1_565 S
C452 C451 1.373 . S
C453 C437 1.377 1_565 S
C453 C451 1.389 . S
C453 C454 1.524 . S
C454 C453 1.524 . S
C454 C455 1.397 . S
C454 C459 1.363 . S
C455 H426 0.950 . S
C455 C454 1.397 . S
C455 C456 1.334 . S
C456 H427 0.950 . S
C456 C455 1.334 . S
C456 C457 1.287 . S
C457 C456 1.287 . S
C457 C458 1.524 . S
C457 H460 0.999 . S
C458 H428 0.950 . S
C458 C457 1.524 . S
C458 C459 1.415 . S
C459 H429 0.950 . S
C459 C454 1.363 . S
C459 C458 1.415 . S
H460 C457 0.999 . S
H461 C442 0.913 . S
H462 C480 0.951 . S
H463 C482 0.951 . S
H464 C484 0.950 . S
H465 C485 0.950 . S
H466 C487 0.950 . S
H467 C490 0.950 . S
H468 C491 0.950 . S
H469 C493 0.950 . S
H470 C494 0.950 . S
H471 C495 0.951 . S
H472 C497 0.951 . S
H473 C499 0.950 . S
H474 C500 0.950 . S
H475 C502 0.950 . S
H476 C505 0.950 . S
H477 C506 0.950 . S
H478 C508 0.950 . S
H479 C509 0.950 . S
C480 H462 0.951 . S
C480 C481 1.366 . S
C480 C482 1.388 . S
C481 C480 1.366 . S
C481 C485 1.385 . S
C482 H463 0.951 . S
C482 C480 1.388 . S
C482 C483 1.366 . S
C483 C482 1.366 . S
C483 C484 1.414 . S
C483 C486 1.499 . S
C484 H464 0.950 . S
C484 C483 1.414 . S
C484 C485 1.374 . S
C485 H465 0.950 . S
C485 C481 1.385 . S
C485 C484 1.374 . S
C486 C483 1.499 . S
C486 C487 1.373 . S
C486 C488 1.389 . S
C487 H466 0.950 . S
C487 C486 1.373 . S
C487 C503 1.377 1_655 S
C488 C486 1.389 . S
C488 C489 1.524 . S
C488 C502 1.377 1_655 S
C489 C488 1.524 . S
C489 C490 1.397 . S
C489 C494 1.363 . S
C490 H467 0.950 . S
C490 C489 1.397 . S
C490 C491 1.334 . S
C491 H468 0.950 . S
C491 C490 1.334 . S
C491 C492 1.287 . S
C492 C491 1.287 . S
C492 C493 1.524 . S
C492 H511 0.913 . S
C493 H469 0.950 . S
C493 C492 1.524 . S
C493 C494 1.415 . S
C494 H470 0.950 . S
C494 C489 1.363 . S
C494 C493 1.415 . S
C495 H471 0.951 . S
C495 C496 1.366 . S
C495 C497 1.388 . S
C496 C495 1.366 . S
C496 C500 1.385 . S
C497 H472 0.951 . S
C497 C495 1.388 . S
C497 C498 1.366 . S
C498 C497 1.366 . S
C498 C499 1.414 . S
C498 C501 1.499 . S
C499 H473 0.950 . S
C499 C498 1.414 . S
C499 C500 1.374 . S
C500 H474 0.950 . S
C500 C496 1.385 . S
C500 C499 1.374 . S
C501 C498 1.499 . S
C501 C502 1.373 . S
C501 C503 1.389 . S
C502 H475 0.950 . S
C502 C488 1.377 1_455 S
C502 C501 1.373 . S
C503 C487 1.377 1_455 S
C503 C501 1.389 . S
C503 C504 1.524 . S
C504 C503 1.524 . S
C504 C505 1.397 . S
C504 C509 1.363 . S
C505 H476 0.950 . S
C505 C504 1.397 . S
C505 C506 1.334 . S
C506 H477 0.950 . S
C506 C505 1.334 . S
C506 C507 1.287 . S
C507 C506 1.287 . S
C507 C508 1.524 . S
C507 H510 0.999 . S
C508 H478 0.950 . S
C508 C507 1.524 . S
C508 C509 1.415 . S
C509 H479 0.950 . S
C509 C504 1.363 . S
C509 C508 1.415 . S
H510 C507 0.999 . S
H511 C492 0.913 . S
H512 C530 0.951 . S
H513 C532 0.951 . S
H514 C534 0.950 . S
H515 C535 0.950 . S
H516 C537 0.950 . S
H517 C540 0.950 . S
H518 C541 0.950 . S
H519 C543 0.950 . S
H520 C544 0.950 . S
H521 C545 0.951 . S
H522 C547 0.951 . S
H523 C549 0.950 . S
H524 C550 0.950 . S
H525 C552 0.950 . S
H526 C555 0.950 . S
H527 C556 0.950 . S
H528 C558 0.950 . S
H529 C559 0.950 . S
C530 H512 0.951 . S
C530 C531 1.366 . S
C530 C532 1.388 . S
C531 C530 1.366 . S
C531 C535 1.385 . S
C532 H513 0.951 . S
C532 C530 1.388 . S
C532 C533 1.366 . S
C533 C532 1.366 . S
C533 C534 1.414 . S
C533 C536 1.499 . S
C534 H514 0.950 . S
C534 C533 1.414 . S
C534 C535 1.374 . S
C535 H515 0.950 . S
C535 C531 1.385 . S
C535 C534 1.374 . S
C536 C533 1.499 . S
C536 C537 1.373 . S
C536 C538 1.389 . S
C537 H516 0.950 . S
C537 C536 1.373 . S
C537 C553 1.377 . S
C538 C536 1.389 . S
C538 C539 1.524 . S
C538 C552 1.377 . S
C539 C538 1.524 . S
C539 C540 1.397 . S
C539 C544 1.363 . S
C540 H517 0.950 . S
C540 C539 1.397 . S
C540 C541 1.334 . S
C541 H518 0.950 . S
C541 C540 1.334 . S
C541 C542 1.287 . S
C542 C541 1.287 . S
C542 C543 1.524 . S
C542 H561 0.913 . S
C543 H519 0.950 . S
C543 C542 1.524 . S
C543 C544 1.415 . S
C544 H520 0.950 . S
C544 C539 1.363 . S
C544 C543 1.415 . S
C545 H521 0.951 . S
C545 C546 1.366 . S
C545 C547 1.388 . S
C546 C545 1.366 . S
C546 C550 1.385 . S
C547 H522 0.951 . S
C547 C545 1.388 . S
C547 C548 1.366 . S
C548 C547 1.366 . S
C548 C549 1.414 . S
C548 C551 1.499 . S
C549 H523 0.950 . S
C549 C548 1.414 . S
C549 C550 1.374 . S
C550 H524 0.950 . S
C550 C546 1.385 . S
C550 C549 1.374 . S
C551 C548 1.499 . S
C551 C552 1.373 . S
C551 C553 1.389 . S
C552 H525 0.950 . S
C552 C538 1.377 . S
C552 C551 1.373 . S
C553 C537 1.377 . S
C553 C551 1.389 . S
C553 C554 1.524 . S
C554 C553 1.524 . S
C554 C555 1.397 . S
C554 C559 1.363 . S
C555 H526 0.950 . S
C555 C554 1.397 . S
C555 C556 1.334 . S
C556 H527 0.950 . S
C556 C555 1.334 . S
C556 C557 1.287 . S
C557 C556 1.287 . S
C557 C558 1.524 . S
C557 H560 0.999 . S
C558 H528 0.950 . S
C558 C557 1.524 . S
C558 C559 1.415 . S
C559 H529 0.950 . S
C559 C554 1.363 . S
C559 C558 1.415 . S
H560 C557 0.999 . S
H561 C542 0.913 . S
H562 C580 0.951 . S
H563 C582 0.951 . S
H564 C584 0.950 . S
H565 C585 0.950 . S
H566 C587 0.950 . S
H567 C590 0.950 . S
H568 C591 0.950 . S
H569 C593 0.950 . S
H570 C594 0.950 . S
H571 C595 0.951 . S
H572 C597 0.951 . S
H573 C599 0.950 . S
H574 C600 0.950 . S
H575 C602 0.950 . S
H576 C605 0.950 . S
H577 C606 0.950 . S
H578 C608 0.950 . S
H579 C609 0.950 . S
C580 H562 0.951 . S
C580 C581 1.366 . S
C580 C582 1.388 . S
C581 C580 1.366 . S
C581 C585 1.385 . S
C582 H563 0.951 . S
C582 C580 1.388 . S
C582 C583 1.366 . S
C583 C582 1.366 . S
C583 C584 1.414 . S
C583 C586 1.499 . S
C584 H564 0.950 . S
C584 C583 1.414 . S
C584 C585 1.374 . S
C585 H565 0.950 . S
C585 C581 1.385 . S
C585 C584 1.374 . S
C586 C583 1.499 . S
C586 C587 1.373 . S
C586 C588 1.389 . S
C587 H566 0.950 . S
C587 C586 1.373 . S
C587 C603 1.377 . S
C588 C586 1.389 . S
C588 C589 1.524 . S
C588 C602 1.377 . S
C589 C588 1.524 . S
C589 C590 1.397 . S
C589 C594 1.363 . S
C590 H567 0.950 . S
C590 C589 1.397 . S
C590 C591 1.334 . S
C591 H568 0.950 . S
C591 C590 1.334 . S
C591 C592 1.287 . S
C592 C591 1.287 . S
C592 C593 1.524 . S
C592 H611 0.913 . S
C593 H569 0.950 . S
C593 C592 1.524 . S
C593 C594 1.415 . S
C594 H570 0.950 . S
C594 C589 1.363 . S
C594 C593 1.415 . S
C595 H571 0.951 . S
C595 C596 1.366 . S
C595 C597 1.388 . S
C596 C595 1.366 . S
C596 C600 1.385 . S
C597 H572 0.951 . S
C597 C595 1.388 . S
C597 C598 1.366 . S
C598 C597 1.366 . S
C598 C599 1.414 . S
C598 C601 1.499 . S
C599 H573 0.950 . S
C599 C598 1.414 . S
C599 C600 1.374 . S
C600 H574 0.950 . S
C600 C596 1.385 . S
C600 C599 1.374 . S
C601 C598 1.499 . S
C601 C602 1.373 . S
C601 C603 1.389 . S
C602 H575 0.950 . S
C602 C588 1.377 . S
C602 C601 1.373 . S
C603 C587 1.377 . S
C603 C601 1.389 . S
C603 C604 1.524 . S
C604 C603 1.524 . S
C604 C605 1.397 . S
C604 C609 1.363 . S
C605 H576 0.950 . S
C605 C604 1.397 . S
C605 C606 1.334 . S
C606 H577 0.950 . S
C606 C605 1.334 . S
C606 C607 1.287 . S
C607 C606 1.287 . S
C607 C608 1.524 . S
C607 H610 0.999 . S
C608 H578 0.950 . S
C608 C607 1.524 . S
C608 C609 1.415 . S
C609 H579 0.950 . S
C609 C604 1.363 . S
C609 C608 1.415 . S
H610 C607 0.999 . S
H611 C592 0.913 . S
H612 C630 0.951 . S
H613 C632 0.951 . S
H614 C634 0.950 . S
H615 C635 0.950 . S
H616 C637 0.950 . S
H617 C640 0.950 . S
H618 C641 0.950 . S
H619 C643 0.950 . S
H620 C644 0.950 . S
H621 C645 0.951 . S
H622 C647 0.951 . S
H623 C649 0.950 . S
H624 C650 0.950 . S
H625 C652 0.950 . S
H626 C655 0.950 . S
H627 C656 0.950 . S
H628 C658 0.950 . S
H629 C659 0.950 . S
C630 H612 0.951 . S
C630 C631 1.366 . S
C630 C632 1.388 . S
C631 C630 1.366 . S
C631 C635 1.385 . S
C632 H613 0.951 . S
C632 C630 1.388 . S
C632 C633 1.366 . S
C633 C632 1.366 . S
C633 C634 1.414 . S
C633 C636 1.499 . S
C634 H614 0.950 . S
C634 C633 1.414 . S
C634 C635 1.374 . S
C635 H615 0.950 . S
C635 C631 1.385 . S
C635 C634 1.374 . S
C636 C633 1.499 . S
C636 C637 1.373 . S
C636 C638 1.389 . S
C637 H616 0.950 . S
C637 C636 1.373 . S
C637 C653 1.377 . S
C638 C636 1.389 . S
C638 C639 1.524 . S
C638 C652 1.377 . S
C639 C638 1.524 . S
C639 C640 1.397 . S
C639 C644 1.363 . S
C640 H617 0.950 . S
C640 C639 1.397 . S
C640 C641 1.334 . S
C641 H618 0.950 . S
C641 C640 1.334 . S
C641 C642 1.287 . S
C642 C641 1.287 . S
C642 C643 1.524 . S
C642 H661 0.913 . S
C643 H619 0.950 . S
C643 C642 1.524 . S
C643 C644 1.415 . S
C644 H620 0.950 . S
C644 C639 1.363 . S
C644 C643 1.415 . S
C645 H621 0.951 . S
C645 C646 1.366 . S
C645 C647 1.388 . S
C646 C645 1.366 . S
C646 C650 1.385 . S
C647 H622 0.951 . S
C647 C645 1.388 . S
C647 C648 1.366 . S
C648 C647 1.366 . S
C648 C649 1.414 . S
C648 C651 1.499 . S
C649 H623 0.950 . S
C649 C648 1.414 . S
C649 C650 1.374 . S
C650 H624 0.950 . S
C650 C646 1.385 . S
C650 C649 1.374 . S
C651 C648 1.499 . S
C651 C652 1.373 . S
C651 C653 1.389 . S
C652 H625 0.950 . S
C652 C638 1.377 . S
C652 C651 1.373 . S
C653 C637 1.377 . S
C653 C651 1.389 . S
C653 C654 1.524 . S
C654 C653 1.524 . S
C654 C655 1.397 . S
C654 C659 1.363 . S
C655 H626 0.950 . S
C655 C654 1.397 . S
C655 C656 1.334 . S
C656 H627 0.950 . S
C656 C655 1.334 . S
C656 C657 1.287 . S
C657 C656 1.287 . S
C657 C658 1.524 . S
C657 H660 0.999 . S
C658 H628 0.950 . S
C658 C657 1.524 . S
C658 C659 1.415 . S
C659 H629 0.950 . S
C659 C654 1.363 . S
C659 C658 1.415 . S
H660 C657 0.999 . S
H661 C642 0.913 . S
H662 C680 0.951 . S
H663 C682 0.951 . S
H664 C684 0.950 . S
H665 C685 0.950 . S
H666 C687 0.950 . S
H667 C690 0.950 . S
H668 C691 0.950 . S
H669 C693 0.950 . S
H670 C694 0.950 . S
H671 C695 0.951 . S
H672 C697 0.951 . S
H673 C699 0.950 . S
H674 C700 0.950 . S
H675 C702 0.950 . S
H676 C705 0.950 . S
H677 C706 0.950 . S
H678 C708 0.950 . S
H679 C709 0.950 . S
C680 H662 0.951 . S
C680 C681 1.366 . S
C680 C682 1.388 . S
C681 C680 1.366 . S
C681 C685 1.385 . S
C682 H663 0.951 . S
C682 C680 1.388 . S
C682 C683 1.366 . S
C683 C682 1.366 . S
C683 C684 1.414 . S
C683 C686 1.499 . S
C684 H664 0.950 . S
C684 C683 1.414 . S
C684 C685 1.374 . S
C685 H665 0.950 . S
C685 C681 1.385 . S
C685 C684 1.374 . S
C686 C683 1.499 . S
C686 C687 1.373 . S
C686 C688 1.389 . S
C687 H666 0.950 . S
C687 C686 1.373 . S
C687 C703 1.377 . S
C688 C686 1.389 . S
C688 C689 1.524 . S
C688 C702 1.377 . S
C689 C688 1.524 . S
C689 C690 1.397 . S
C689 C694 1.363 . S
C690 H667 0.950 . S
C690 C689 1.397 . S
C690 C691 1.334 . S
C691 H668 0.950 . S
C691 C690 1.334 . S
C691 C692 1.287 . S
C692 C691 1.287 . S
C692 C693 1.524 . S
C692 H711 0.913 . S
C693 H669 0.950 . S
C693 C692 1.524 . S
C693 C694 1.415 . S
C694 H670 0.950 . S
C694 C689 1.363 . S
C694 C693 1.415 . S
C695 H671 0.951 . S
C695 C696 1.366 . S
C695 C697 1.388 . S
C696 C695 1.366 . S
C696 C700 1.385 . S
C697 H672 0.951 . S
C697 C695 1.388 . S
C697 C698 1.366 . S
C698 C697 1.366 . S
C698 C699 1.414 . S
C698 C701 1.499 . S
C699 H673 0.950 . S
C699 C698 1.414 . S
C699 C700 1.374 . S
C700 H674 0.950 . S
C700 C696 1.385 . S
C700 C699 1.374 . S
C701 C698 1.499 . S
C701 C702 1.373 . S
C701 C703 1.389 . S
C702 H675 0.950 . S
C702 C688 1.377 . S
C702 C701 1.373 . S
C703 C687 1.377 . S
C703 C701 1.389 . S
C703 C704 1.524 . S
C704 C703 1.524 . S
C704 C705 1.397 . S
C704 C709 1.363 . S
C705 H676 0.950 . S
C705 C704 1.397 . S
C705 C706 1.334 . S
C706 H677 0.950 . S
C706 C705 1.334 . S
C706 C707 1.287 . S
C707 C706 1.287 . S
C707 C708 1.524 . S
C707 H710 0.999 . S
C708 H678 0.950 . S
C708 C707 1.524 . S
C708 C709 1.415 . S
C709 H679 0.950 . S
C709 C704 1.363 . S
C709 C708 1.415 . S
H710 C707 0.999 . S
H711 C692 0.913 . S
H712 C730 0.951 . S
H713 C732 0.951 . S
H714 C734 0.950 . S
H715 C735 0.950 . S
H716 C737 0.950 . S
H717 C740 0.950 . S
H718 C741 0.950 . S
H719 C743 0.950 . S
H720 C744 0.950 . S
H721 C745 0.951 . S
H722 C747 0.951 . S
H723 C749 0.950 . S
H724 C750 0.950 . S
H725 C752 0.950 . S
H726 C755 0.950 . S
H727 C756 0.950 . S
H728 C758 0.950 . S
H729 C759 0.950 . S
C730 H712 0.951 . S
C730 C731 1.366 . S
C730 C732 1.388 . S
C731 C730 1.366 . S
C731 C735 1.385 . S
C732 H713 0.951 . S
C732 C730 1.388 . S
C732 C733 1.366 . S
C733 C732 1.366 . S
C733 C734 1.414 . S
C733 C736 1.499 . S
C734 H714 0.950 . S
C734 C733 1.414 . S
C734 C735 1.374 . S
C735 H715 0.950 . S
C735 C731 1.385 . S
C735 C734 1.374 . S
C736 C733 1.499 . S
C736 C737 1.373 . S
C736 C738 1.389 . S
C737 H716 0.950 . S
C737 C736 1.373 . S
C737 C753 1.377 . S
C738 C736 1.389 . S
C738 C739 1.524 . S
C738 C752 1.377 . S
C739 C738 1.524 . S
C739 C740 1.397 . S
C739 C744 1.363 . S
C740 H717 0.950 . S
C740 C739 1.397 . S
C740 C741 1.334 . S
C741 H718 0.950 . S
C741 C740 1.334 . S
C741 C742 1.287 . S
C742 C741 1.287 . S
C742 C743 1.524 . S
C742 H761 0.913 . S
C743 H719 0.950 . S
C743 C742 1.524 . S
C743 C744 1.415 . S
C744 H720 0.950 . S
C744 C739 1.363 . S
C744 C743 1.415 . S
C745 H721 0.951 . S
C745 C746 1.366 . S
C745 C747 1.388 . S
C746 C745 1.366 . S
C746 C750 1.385 . S
C747 H722 0.951 . S
C747 C745 1.388 . S
C747 C748 1.366 . S
C748 C747 1.366 . S
C748 C749 1.414 . S
C748 C751 1.499 . S
C749 H723 0.950 . S
C749 C748 1.414 . S
C749 C750 1.374 . S
C750 H724 0.950 . S
C750 C746 1.385 . S
C750 C749 1.374 . S
C751 C748 1.499 . S
C751 C752 1.373 . S
C751 C753 1.389 . S
C752 H725 0.950 . S
C752 C738 1.377 . S
C752 C751 1.373 . S
C753 C737 1.377 . S
C753 C751 1.389 . S
C753 C754 1.524 . S
C754 C753 1.524 . S
C754 C755 1.397 . S
C754 C759 1.363 . S
C755 H726 0.950 . S
C755 C754 1.397 . S
C755 C756 1.334 . S
C756 H727 0.950 . S
C756 C755 1.334 . S
C756 C757 1.287 . S
C757 C756 1.287 . S
C757 C758 1.524 . S
C757 H760 0.999 . S
C758 H728 0.950 . S
C758 C757 1.524 . S
C758 C759 1.415 . S
C759 H729 0.950 . S
C759 C754 1.363 . S
C759 C758 1.415 . S
H760 C757 0.999 . S
H761 C742 0.913 . S
H762 C780 0.951 . S
H763 C782 0.951 . S
H764 C784 0.950 . S
H765 C785 0.950 . S
H766 C787 0.950 . S
H767 C790 0.950 . S
H768 C791 0.950 . S
H769 C793 0.950 . S
H770 C794 0.950 . S
H771 C795 0.951 . S
H772 C797 0.951 . S
H773 C799 0.950 . S
H774 C800 0.950 . S
H775 C802 0.950 . S
H776 C805 0.950 . S
H777 C806 0.950 . S
H778 C808 0.950 . S
H779 C809 0.950 . S
C780 H762 0.951 . S
C780 C781 1.366 . S
C780 C782 1.388 . S
C781 C780 1.366 . S
C781 C785 1.385 . S
C782 H763 0.951 . S
C782 C780 1.388 . S
C782 C783 1.366 . S
C783 C782 1.366 . S
C783 C784 1.414 . S
C783 C786 1.499 . S
C784 H764 0.950 . S
C784 C783 1.414 . S
C784 C785 1.374 . S
C785 H765 0.950 . S
C785 C781 1.385 . S
C785 C784 1.374 . S
C786 C783 1.499 . S
C786 C787 1.373 . S
C786 C788 1.389 . S
C787 H766 0.950 . S
C787 C786 1.373 . S
C787 C803 1.377 . S
C788 C786 1.389 . S
C788 C789 1.524 . S
C788 C802 1.377 . S
C789 C788 1.524 . S
C789 C790 1.397 . S
C789 C794 1.363 . S
C790 H767 0.950 . S
C790 C789 1.397 . S
C790 C791 1.334 . S
C791 H768 0.950 . S
C791 C790 1.334 . S
C791 C792 1.287 . S
C792 C791 1.287 . S
C792 C793 1.524 . S
C792 H811 0.913 . S
C793 H769 0.950 . S
C793 C792 1.524 . S
C793 C794 1.415 . S
C794 H770 0.950 . S
C794 C789 1.363 . S
C794 C793 1.415 . S
C795 H771 0.951 . S
C795 C796 1.366 . S
C795 C797 1.388 . S
C796 C795 1.366 . S
C796 C800 1.385 . S
C797 H772 0.951 . S
C797 C795 1.388 . S
C797 C798 1.366 . S
C798 C797 1.366 . S
C798 C799 1.414 . S
C798 C801 1.499 . S
C799 H773 0.950 . S
C799 C798 1.414 . S
C799 C800 1.374 . S
C800 H774 0.950 . S
C800 C796 1.385 . S
C800 C799 1.374 . S
C801 C798 1.499 . S
C801 C802 1.373 . S
C801 C803 1.389 . S
C802 H775 0.950 . S
C802 C788 1.377 . S
C802 C801 1.373 . S
C803 C787 1.377 . S
C803 C801 1.389 . S
C803 C804 1.524 . S
C804 C803 1.524 . S
C804 C805 1.397 . S
C804 C809 1.363 . S
C805 H776 0.950 . S
C805 C804 1.397 . S
C805 C806 1.334 . S
C806 H777 0.950 . S
C806 C805 1.334 . S
C806 C807 1.287 . S
C807 C806 1.287 . S
C807 C808 1.524 . S
C807 H810 0.999 . S
C808 H778 0.950 . S
C808 C807 1.524 . S
C808 C809 1.415 . S
C809 H779 0.950 . S
C809 C804 1.363 . S
C809 C808 1.415 . S
H810 C807 0.999 . S
H811 C792 0.913 . S
H812 C830 0.951 . S
H813 C832 0.951 . S
H814 C834 0.950 . S
H815 C835 0.950 . S
H816 C837 0.950 . S
H817 C840 0.950 . S
H818 C841 0.950 . S
H819 C843 0.950 . S
H820 C844 0.950 . S
H821 C845 0.951 . S
H822 C847 0.951 . S
H823 C849 0.950 . S
H824 C850 0.950 . S
H825 C852 0.950 . S
H826 C855 0.950 . S
H827 C856 0.950 . S
H828 C858 0.950 . S
H829 C859 0.950 . S
C830 H812 0.951 . S
C830 C831 1.366 . S
C830 C832 1.388 . S
C831 C830 1.366 . S
C831 C835 1.385 . S
C832 H813 0.951 . S
C832 C830 1.388 . S
C832 C833 1.366 . S
C833 C832 1.366 . S
C833 C834 1.414 . S
C833 C836 1.499 . S
C834 H814 0.950 . S
C834 C833 1.414 . S
C834 C835 1.374 . S
C835 H815 0.950 . S
C835 C831 1.385 . S
C835 C834 1.374 . S
C836 C833 1.499 . S
C836 C837 1.373 . S
C836 C838 1.389 . S
C837 H816 0.950 . S
C837 C836 1.373 . S
C837 C853 1.377 . S
C838 C836 1.389 . S
C838 C839 1.524 . S
C838 C852 1.377 . S
C839 C838 1.524 . S
C839 C840 1.397 . S
C839 C844 1.363 . S
C840 H817 0.950 . S
C840 C839 1.397 . S
C840 C841 1.334 . S
C841 H818 0.950 . S
C841 C840 1.334 . S
C841 C842 1.287 . S
C842 C841 1.287 . S
C842 C843 1.524 . S
C842 H861 0.913 . S
C843 H819 0.950 . S
C843 C842 1.524 . S
C843 C844 1.415 . S
C844 H820 0.950 . S
C844 C839 1.363 . S
C844 C843 1.415 . S
C845 H821 0.951 . S
C845 C846 1.366 . S
C845 C847 1.388 . S
C846 C845 1.366 . S
C846 C850 1.385 . S
C847 H822 0.951 . S
C847 C845 1.388 . S
C847 C848 1.366 . S
C848 C847 1.366 . S
C848 C849 1.414 . S
C848 C851 1.499 . S
C849 H823 0.950 . S
C849 C848 1.414 . S
C849 C850 1.374 . S
C850 H824 0.950 . S
C850 C846 1.385 . S
C850 C849 1.374 . S
C851 C848 1.499 . S
C851 C852 1.373 . S
C851 C853 1.389 . S
C852 H825 0.950 . S
C852 C838 1.377 . S
C852 C851 1.373 . S
C853 C837 1.377 . S
C853 C851 1.389 . S
C853 C854 1.524 . S
C854 C853 1.524 . S
C854 C855 1.397 . S
C854 C859 1.363 . S
C855 H826 0.950 . S
C855 C854 1.397 . S
C855 C856 1.334 . S
C856 H827 0.950 . S
C856 C855 1.334 . S
C856 C857 1.287 . S
C857 C856 1.287 . S
C857 C858 1.524 . S
C857 H860 0.999 . S
C858 H828 0.950 . S
C858 C857 1.524 . S
C858 C859 1.415 . S
C859 H829 0.950 . S
C859 C854 1.363 . S
C859 C858 1.415 . S
H860 C857 0.999 . S
H861 C842 0.913 . S
H862 C880 0.951 . S
H863 C882 0.951 . S
H864 C884 0.950 . S
H865 C885 0.950 . S
H866 C887 0.950 . S
H867 C890 0.950 . S
H868 C891 0.950 . S
H869 C893 0.950 . S
H870 C894 0.950 . S
H871 C895 0.951 . S
H872 C897 0.951 . S
H873 C899 0.950 . S
H874 C900 0.950 . S
H875 C902 0.950 . S
H876 C905 0.950 . S
H877 C906 0.950 . S
H878 C908 0.950 . S
H879 C909 0.950 . S
C880 H862 0.951 . S
C880 C881 1.366 . S
C880 C882 1.388 . S
C881 C880 1.366 . S
C881 C885 1.385 . S
C882 H863 0.951 . S
C882 C880 1.388 . S
C882 C883 1.366 . S
C883 C882 1.366 . S
C883 C884 1.414 . S
C883 C886 1.499 . S
C884 H864 0.950 . S
C884 C883 1.414 . S
C884 C885 1.374 . S
C885 H865 0.950 . S
C885 C881 1.385 . S
C885 C884 1.374 . S
C886 C883 1.499 . S
C886 C887 1.373 . S
C886 C888 1.389 . S
C887 H866 0.950 . S
C887 C886 1.373 . S
C887 C903 1.377 . S
C888 C886 1.389 . S
C888 C889 1.524 . S
C888 C902 1.377 . S
C889 C888 1.524 . S
C889 C890 1.397 . S
C889 C894 1.363 . S
C890 H867 0.950 . S
C890 C889 1.397 . S
C890 C891 1.334 . S
C891 H868 0.950 . S
C891 C890 1.334 . S
C891 C892 1.287 . S
C892 C891 1.287 . S
C892 C893 1.524 . S
C892 H911 0.913 . S
C893 H869 0.950 . S
C893 C892 1.524 . S
C893 C894 1.415 . S
C894 H870 0.950 . S
C894 C889 1.363 . S
C894 C893 1.415 . S
C895 H871 0.951 . S
C895 C896 1.366 . S
C895 C897 1.388 . S
C896 C895 1.366 . S
C896 C900 1.385 . S
C897 H872 0.951 . S
C897 C895 1.388 . S
C897 C898 1.366 . S
C898 C897 1.366 . S
C898 C899 1.414 . S
C898 C901 1.499 . S
C899 H873 0.950 . S
C899 C898 1.414 . S
C899 C900 1.374 . S
C900 H874 0.950 . S
C900 C896 1.385 . S
C900 C899 1.374 . S
C901 C898 1.499 . S
C901 C902 1.373 . S
C901 C903 1.389 . S
C902 H875 0.950 . S
C902 C888 1.377 . S
C902 C901 1.373 . S
C903 C887 1.377 . S
C903 C901 1.389 . S
C903 C904 1.524 . S
C904 C903 1.524 . S
C904 C905 1.397 . S
C904 C909 1.363 . S
C905 H876 0.950 . S
C905 C904 1.397 . S
C905 C906 1.334 . S
C906 H877 0.950 . S
C906 C905 1.334 . S
C906 C907 1.287 . S
C907 C906 1.287 . S
C907 C908 1.524 . S
C907 H910 0.999 . S
C908 H878 0.950 . S
C908 C907 1.524 . S
C908 C909 1.415 . S
C909 H879 0.950 . S
C909 C904 1.363 . S
C909 C908 1.415 . S
H910 C907 0.999 . S
H911 C892 0.913 . S
C131 C4 1.456 . S
C146 C46 1.455 . S
C181 C5 1.277 . S
C196 C19 1.276 . S
C231 C18 1.455 . S
C246 C32 1.456 . S
C281 C47 1.276 . S
C296 C33 1.277 . S
C331 C60 1.455 . S
C346 C102 1.456 . S
C381 C75 1.277 . S
C396 C61 1.277 . S
C431 C88 1.455 . S
C446 C74 1.456 . S
C481 C103 1.278 . S
C496 C89 1.276 . S
C531 C96 1.398 . S
C546 C11 1.373 . S
C581 C26 1.398 . S
C596 C109 1.373 . S
C631 C68 1.398 . S
C646 C39 1.373 . S
C681 C81 1.373 . S
C696 C54 1.398 . S
C731 C82 1.398 . S
C746 C53 1.373 . S
C781 C12 1.398 . S
C796 C95 1.373 . S
C831 C25 1.373 . S
C846 C110 1.398 . S
C881 C40 1.398 . S
C896 C67 1.374 . S
