# Generated by pormake.
# Topology unf, (4)-cn, num edge types: 1
# Building blocks:
#     Node 0, Type 0, BuildingBlock: AZAVOO_clean_sbu_0, # of connection points: 4
#     Node 1, Type 0, BuildingBlock: AZAVOO_clean_sbu_0, # of connection points: 4
#     Node 2, Type 0, BuildingBlock: AZAVOO_clean_sbu_0, # of connection points: 4
#     Node 3, Type 0, BuildingBlock: AZAVOO_clean_sbu_0, # of connection points: 4
#     Node 4, Type 0, BuildingBlock: AZAVOO_clean_sbu_0, # of connection points: 4
#     Node 5, Type 0, BuildingBlock: AZAVOO_clean_sbu_0, # of connection points: 4
#     Node 6, Type 0, BuildingBlock: AZAVOO_clean_sbu_0, # of connection points: 4
#     Node 7, Type 0, BuildingBlock: AZAVOO_clean_sbu_0, # of connection points: 4
#     Node 8, Type 0, BuildingBlock: AZAVOO_clean_sbu_0, # of connection points: 4
#     Node 9, Type 0, BuildingBlock: AZAVOO_clean_sbu_0, # of connection points: 4
#     Node 10, Type 0, BuildingBlock: AZAVOO_clean_sbu_0, # of connection points: 4
#     Node 11, Type 0, BuildingBlock: AZAVOO_clean_sbu_0, # of connection points: 4
#     Edge 12, Type (0, 0), BuildingBlock: EZIPEK_clean_linker_0, # of connection points: 2
#     Edge 13, Type (0, 0), BuildingBlock: EZIPEK_clean_linker_0, # of connection points: 2
#     Edge 14, Type (0, 0), BuildingBlock: EZIPEK_clean_linker_0, # of connection points: 2
#     Edge 15, Type (0, 0), BuildingBlock: EZIPEK_clean_linker_0, # of connection points: 2
#     Edge 16, Type (0, 0), BuildingBlock: EZIPEK_clean_linker_0, # of connection points: 2
#     Edge 17, Type (0, 0), BuildingBlock: EZIPEK_clean_linker_0, # of connection points: 2
#     Edge 18, Type (0, 0), BuildingBlock: EZIPEK_clean_linker_0, # of connection points: 2
#     Edge 19, Type (0, 0), BuildingBlock: EZIPEK_clean_linker_0, # of connection points: 2
#     Edge 20, Type (0, 0), BuildingBlock: EZIPEK_clean_linker_0, # of connection points: 2
#     Edge 21, Type (0, 0), BuildingBlock: EZIPEK_clean_linker_0, # of connection points: 2
#     Edge 22, Type (0, 0), BuildingBlock: EZIPEK_clean_linker_0, # of connection points: 2
#     Edge 23, Type (0, 0), BuildingBlock: EZIPEK_clean_linker_0, # of connection points: 2
#     Edge 24, Type (0, 0), BuildingBlock: EZIPEK_clean_linker_0, # of connection points: 2
#     Edge 25, Type (0, 0), BuildingBlock: EZIPEK_clean_linker_0, # of connection points: 2
#     Edge 26, Type (0, 0), BuildingBlock: EZIPEK_clean_linker_0, # of connection points: 2
#     Edge 27, Type (0, 0), BuildingBlock: EZIPEK_clean_linker_0, # of connection points: 2
#     Edge 28, Type (0, 0), BuildingBlock: EZIPEK_clean_linker_0, # of connection points: 2
#     Edge 29, Type (0, 0), BuildingBlock: EZIPEK_clean_linker_0, # of connection points: 2
#     Edge 30, Type (0, 0), BuildingBlock: EZIPEK_clean_linker_0, # of connection points: 2
#     Edge 31, Type (0, 0), BuildingBlock: EZIPEK_clean_linker_0, # of connection points: 2
#     Edge 32, Type (0, 0), BuildingBlock: EZIPEK_clean_linker_0, # of connection points: 2
#     Edge 33, Type (0, 0), BuildingBlock: EZIPEK_clean_linker_0, # of connection points: 2
#     Edge 34, Type (0, 0), BuildingBlock: EZIPEK_clean_linker_0, # of connection points: 2
#     Edge 35, Type (0, 0), BuildingBlock: EZIPEK_clean_linker_0, # of connection points: 2
# Relax obj value: 0.239
# Max RMSD: 0.195
# Mean RMSD: 0.195
data_MOF--net-unf--node1-AZAVOO_clean_sbu_0--edge1-EZIPEK_clean_linker_0
_symmetry_space_group_name_H-M    P1
_symmetry_Int_Tables_number       1
_symmetry_cell_setting            triclinic
loop_
_symmetry_equiv_pos_as_xyz
'x, y, z'
_cell_length_a     27.216647
_cell_length_b     27.207581
_cell_length_c     27.708473
_cell_angle_alpha  90.274564
_cell_angle_beta   89.91696
_cell_angle_gamma 120.36989
loop_
_atom_site_label
_atom_site_type_symbol
_atom_site_fract_x
_atom_site_fract_y
_atom_site_fract_z
_atom_type_partial_charge
Mg0 Mg 0.10728 0.37024 0.03935 0.0
O1 O 0.0316 0.29247 0.00379 0.0
O2 O 0.04507 0.21826 0.99302 0.0
Mg3 Mg 0.11814 0.23989 0.04632 0.0
C4 C 0.01612 0.243 0.98687 0.0
C5 C 0.06795 0.45458 0.00478 0.0
O6 O 0.11381 0.47423 0.97793 0.0
O7 O 0.07957 0.34326 0.11891 0.0
O8 O 0.0653 0.26385 0.09025 0.0
O9 O 0.15814 0.38694 0.97001 0.0
O10 O 0.15821 0.33236 0.02865 0.0
C11 C 0.08272 0.29876 0.12506 0.0
C12 C 0.17598 0.35452 0.98708 0.0
O13 O 0.05578 0.41455 0.03433 0.0
Mg14 Mg 0.57689 0.74521 0.11299 0.0
O15 O 0.64363 0.72041 0.08314 0.0
O16 O 0.72967 0.79495 0.06061 0.0
Mg17 Mg 0.72669 0.87734 0.04856 0.0
C18 C 0.69621 0.74205 0.06983 0.0
C19 C 0.53956 0.62902 0.06249 0.0
O20 O 0.49066 0.62335 0.07593 0.0
O21 O 0.65968 0.82776 0.1141 0.0
O22 O 0.73861 0.90504 0.12767 0.0
O23 O 0.5461 0.76355 0.03887 0.0
O24 O 0.63143 0.81869 0.06149 0.0
C25 C 0.69146 0.86656 0.14395 0.0
C26 C 0.59387 0.8069 0.03003 0.0
O27 O 0.58548 0.67605 0.07112 0.0
Mg28 Mg 0.24961 0.86575 0.05039 0.0
O29 O 0.25487 0.95028 0.06799 0.0
O30 O 0.1747 0.94381 0.09615 0.0
Mg31 Mg 0.11012 0.84679 0.09861 0.0
C32 C 0.22697 0.97321 0.08353 0.0
C33 C 0.3612 0.95553 0.00162 0.0
O34 O 0.32353 0.96676 0.9832 0.0
O35 O 0.26437 0.85415 0.13189 0.0
O36 O 0.17999 0.84381 0.13508 0.0
O37 O 0.20759 0.85871 0.9781 0.0
O38 O 0.15866 0.82719 0.04539 0.0
C39 C 0.21993 0.84204 0.15622 0.0
C40 C 0.15891 0.83371 -0.00026 0.0
O41 O 0.3451 0.91531 0.03215 0.0
Mg42 Mg 0.59278 0.87114 0.44948 0.0
O43 O 0.67175 0.95116 0.4749 0.0
O44 O 0.74916 0.94317 0.46891 0.0
Mg45 Mg 0.71767 0.85259 0.43993 0.0
C46 C 0.725 0.97146 0.47993 0.0
C47 C 0.50596 0.91118 0.47734 0.0
O48 O 0.47825 0.86039 0.49697 0.0
O49 O 0.6191 0.88983 0.36916 0.0
O50 O 0.68988 0.87009 0.36776 0.0
O51 O 0.58155 0.83103 0.52428 0.0
O52 O 0.63051 0.82382 0.46419 0.0
C53 C 0.65625 0.88281 0.34647 0.0
C54 C 0.61332 0.81197 0.50777 0.0
O55 O 0.54993 0.9248 0.45201 0.0
Mg56 Mg 0.16247 0.75193 0.46839 0.0
O57 O 0.08271 0.7575 0.47344 0.0
O58 O 0.09754 0.84263 0.45142 0.0
Mg59 Mg 0.1953 0.89872 0.44454 0.0
C60 C 0.06441 0.79113 0.46419 0.0
C61 C 0.07372 0.63731 0.51074 0.0
O62 O 0.08324 0.67335 0.54615 0.0
O63 O 0.1593 0.75601 0.38509 0.0
O64 O 0.19027 0.84932 0.37702 0.0
O65 O 0.19195 0.78391 0.54572 0.0
O66 O 0.21145 0.83751 0.48159 0.0
C67 C 0.17674 0.80073 0.35913 0.0
C68 C 0.21766 0.83421 0.52686 0.0
O69 O 0.10266 0.65563 0.47208 0.0
Mg70 Mg 0.2686 0.38867 0.38608 0.0
O71 O 0.26983 0.31153 0.41404 0.0
O72 O 0.1832 0.23435 0.41891 0.0
Mg73 Mg 0.12268 0.26517 0.39422 0.0
C74 C 0.23714 0.2591 0.42344 0.0
C75 C 0.39509 0.45439 0.41603 0.0
O76 O 0.37028 0.46184 0.45373 0.0
O77 O 0.24954 0.35195 0.30895 0.0
O78 O 0.15942 0.28211 0.3181 0.0
O79 O 0.25413 0.41093 0.46159 0.0
O80 O 0.18578 0.35447 0.41151 0.0
C81 C 0.20287 0.31171 0.29143 0.0
C82 C 0.20046 0.37709 0.45359 0.0
O83 O 0.36545 0.42927 0.37881 0.0
Mg84 Mg 0.82653 0.56655 0.93455 0.0
O85 O 0.90829 0.65117 0.94462 0.0
O86 O 0.89509 0.72305 0.92415 0.0
Mg87 Mg 0.79991 0.68336 0.9068 0.0
C88 C 0.9269 0.70408 0.93854 0.0
C89 C 0.90556 0.52998 0.98013 0.0
O90 O 0.89814 0.55741 0.01592 0.0
O91 O 0.83729 0.57575 0.85199 0.0
O92 O 0.81076 0.64011 0.84096 0.0
O93 O 0.7982 0.57152 0.01076 0.0
O94 O 0.78077 0.60658 0.94589 0.0
C95 C 0.82477 0.60513 0.8241 0.0
C96 C 0.77761 0.60065 0.9917 0.0
O97 O 0.87948 0.52363 0.9405 0.0
Mg98 Mg 0.45002 0.28551 0.99467 0.0
O99 O 0.37858 0.29987 0.97142 0.0
O100 O 0.30179 0.21954 0.94759 0.0
Mg101 Mg 0.32924 0.15221 0.94698 0.0
C102 C 0.32717 0.27277 0.95708 0.0
C103 C 0.5132 0.42161 0.97814 0.0
O104 O 0.50697 0.40958 0.9318 0.0
O105 O 0.47445 0.28689 0.91466 0.0
O106 O 0.39919 0.20319 0.89211 0.0
O107 O 0.40842 0.25322 0.06742 0.0
O108 O 0.39243 0.19811 0.00371 0.0
C109 C 0.44674 0.24795 0.88303 0.0
C110 C 0.38129 0.20324 0.0478 0.0
O111 O 0.50049 0.38208 0.0085 0.0
Mg112 Mg 0.69514 0.10942 0.86075 0.0
O113 O 0.67022 0.01965 0.88507 0.0
O114 O 0.7385 0.99789 0.87472 0.0
Mg115 Mg 0.79422 0.0631 0.81769 0.0
C116 C 0.69044 0.98702 0.89186 0.0
C117 C 0.59325 0.08251 0.93069 0.0
O118 O 0.63421 0.09889 0.96263 0.0
O119 O 0.66518 0.08305 0.78255 0.0
O120 O 0.70985 0.03777 0.78178 0.0
O121 O 0.75318 0.14401 0.92512 0.0
O122 O 0.78288 0.1307 0.85461 0.0
C123 C 0.70243 0.07541 0.76183 0.0
C124 C 0.79372 0.14618 0.89907 0.0
O125 O 0.60505 0.08586 0.88589 0.0
Mg126 Mg 0.46421 0.19831 0.57286 0.0
O127 O 0.39617 0.0996 0.57881 0.0
O128 O 0.31219 0.08351 0.60853 0.0
Mg129 Mg 0.32312 0.17123 0.61914 0.0
C130 C 0.34413 0.06562 0.59187 0.0
C131 C 0.48866 0.10696 0.5313 0.0
O132 O 0.53426 0.15457 0.51834 0.0
O133 O 0.47358 0.19822 0.65478 0.0
O134 O 0.39294 0.19581 0.67611 0.0
O135 O 0.43217 0.20524 0.49656 0.0
O136 O 0.386 0.19426 0.56246 0.0
C137 C 0.4417 0.20252 0.68637 0.0
C138 C 0.38854 0.20194 0.51735 0.0
O139 O 0.44947 0.10929 0.5548 0.0
Mg140 Mg 0.88707 0.29365 0.60853 0.0
O141 O 0.97499 0.31128 0.58323 0.0
O142 O 0.98596 0.23542 0.59085 0.0
Mg143 Mg 0.91631 0.18023 0.64479 0.0
C144 C 0.00287 0.2858 0.57577 0.0
C145 C 0.90556 0.40335 0.55125 0.0
O146 O 0.86709 0.36576 0.5217 0.0
O147 O 0.91327 0.3166 0.68808 0.0
O148 O 0.94996 0.26383 0.68494 0.0
O149 O 0.84888 0.24075 0.5415 0.0
O150 O 0.85704 0.20414 0.60996 0.0
C151 C 0.91622 0.27565 0.7068 0.0
C152 C 0.84159 0.19683 0.56549 0.0
O153 O 0.91879 0.38671 0.58927 0.0
Mg154 Mg 0.73179 0.57903 0.52932 0.0
O155 O 0.71218 0.64893 0.55076 0.0
O156 O 0.78334 0.73061 0.5815 0.0
Mg157 Mg 0.85629 0.71165 0.59695 0.0
C158 C 0.73211 0.7 0.566 0.0
C159 C 0.62715 0.51697 0.4591 0.0
O160 O 0.66802 0.52982 0.42766 0.0
O161 O 0.71353 0.54021 0.60706 0.0
O162 O 0.78686 0.62289 0.59819 0.0
O163 O 0.78112 0.6301 0.46478 0.0
O164 O 0.82158 0.64435 0.53666 0.0
C165 C 0.75815 0.58118 0.6256 0.0
C166 C 0.82601 0.65686 0.49161 0.0
O167 O 0.63928 0.52615 0.50379 0.0
C168 C 0.27229 0.37097 0.99518 0.0
C169 C 0.22338 0.35022 0.96598 0.0
C170 C 0.25404 0.29316 0.92057 0.0
C171 C 0.29431 0.30295 0.9576 0.0
N172 N 0.33194 0.34385 0.03691 0.0
N173 N 0.16651 0.29173 0.89997 0.0
C174 C 0.30184 0.34082 -0.00362 0.0
C175 C 0.2142 0.31189 0.92781 0.0
N176 N 0.28821 0.41753 0.02396 0.0
N177 N 0.25459 0.26727 0.87841 0.0
H178 H 0.13824 0.3068 0.90365 0.0
H179 H 0.15405 0.25866 0.87509 0.0
H180 H 0.28489 0.25553 0.87113 0.0
H181 H 0.22897 0.26305 0.84895 0.0
H182 H 0.32625 0.43715 0.04342 0.0
H183 H 0.26617 0.43974 0.02393 0.0
H184 H 0.3339 0.36749 0.06732 0.0
H185 H 0.34837 0.31732 0.04347 0.0
C186 C 0.61987 0.83677 0.94373 0.0
C187 C 0.6047 0.84669 0.99011 0.0
C188 C 0.64376 0.94727 0.97185 0.0
C189 C 0.65897 0.93798 0.92487 0.0
N190 N 0.64947 0.87179 0.8622 0.0
N191 N 0.58604 0.9055 0.04308 0.0
C192 C 0.64342 0.88198 0.90956 0.0
C193 C 0.61122 0.90008 0.00224 0.0
N194 N 0.61307 0.78466 0.93297 0.0
N195 N 0.66322 1.00127 0.98892 0.0
H196 H 0.56174 0.87134 0.06607 0.0
H197 H 0.5841 0.94188 0.05134 0.0
H198 H 0.68775 0.03783 0.96878 0.0
H199 H 0.65924 0.0103 0.0248 0.0
H200 H 0.6297 0.77639 0.90216 0.0
H201 H 0.59225 0.75002 0.9562 0.0
H202 H 0.63424 0.83116 0.8479 0.0
H203 H 0.66538 0.90367 0.83609 0.0
C204 C 0.08573 0.76142 0.94358 0.0
C205 C 0.10402 0.80972 0.97387 0.0
C206 C 0.00624 0.79077 0.97967 0.0
C207 C 0.98825 0.74406 0.94743 0.0
N208 N 0.01375 0.69543 0.88811 0.0
N209 N 0.08552 0.87999 0.00813 0.0
C210 C 0.02899 0.73277 0.92594 0.0
C211 C 0.06537 0.82754 0.98773 0.0
N212 N 0.12116 0.74069 0.93389 0.0
N213 N 0.96728 0.79806 0.00509 0.0
H214 H 0.12909 0.90835 0.01197 0.0
H215 H 0.05988 0.89733 0.01582 0.0
H216 H 0.92343 0.77081 0.00199 0.0
H217 H 0.97869 0.82802 0.03273 0.0
H218 H 0.10734 0.70141 0.91722 0.0
H219 H 0.16331 0.76053 0.94559 0.0
H220 H 0.04301 0.68942 0.8685 0.0
H221 H 0.97303 0.67511 0.87301 0.0
C222 C 0.69048 0.76208 0.59113 0.0
C223 C 0.69659 0.72636 0.55677 0.0
C224 C 0.6244 0.72862 0.50666 0.0
C225 C 0.62824 0.77408 0.53425 0.0
N226 N 0.66533 0.83518 0.60407 0.0
N227 N 0.68115 0.69243 0.47383 0.0
C228 C 0.66089 0.79089 0.57737 0.0
C229 C 0.66632 0.71358 0.51246 0.0
N230 N 0.7115 0.7675 0.63675 0.0
N231 N 0.58254 0.70211 0.4728 0.0
H232 H 0.71652 0.68718 0.47366 0.0
H233 H 0.66337 0.68852 0.43972 0.0
H234 H 0.55077 0.71248 0.46809 0.0
H235 H 0.57645 0.66635 0.4536 0.0
H236 H 0.70398 0.78909 0.66426 0.0
H237 H 0.73197 0.74598 0.6482 0.0
H238 H 0.69394 0.85373 0.63258 0.0
H239 H 0.64165 0.85457 0.59633 0.0
C240 C 0.24396 0.90451 0.5973 0.0
C241 C 0.25734 0.88773 0.55292 0.0
C242 C 0.32679 0.98632 0.53492 0.0
C243 C 0.31752 0.00379 0.58066 0.0
N244 N 0.27777 0.97623 0.66071 0.0
N245 N 0.32878 0.91055 0.49161 0.0
C246 C 0.2795 0.96177 0.61376 0.0
C247 C 0.30525 0.928 0.52636 0.0
N248 N 0.19635 0.86757 0.62242 0.0
N249 N 0.3505 0.02388 0.49769 0.0
H250 H 0.31549 0.86762 0.48595 0.0
H251 H 0.36514 0.93898 0.47254 0.0
H252 H 0.35993 0.066 0.49972 0.0
H253 H 0.35347 0.01097 0.46283 0.0
H254 H 0.18164 0.88005 0.65211 0.0
H255 H 0.1695 0.82548 0.61179 0.0
H256 H 0.25412 0.94629 0.68709 0.0
H257 H 0.30466 0.01718 0.67417 0.0
C258 C 0.10845 0.32646 0.56761 0.0
C259 C 0.05605 0.31559 0.54716 0.0
C260 C 0.10578 0.36376 0.47318 0.0
C261 C 0.15542 0.36465 0.48982 0.0
N262 N 0.20446 0.34586 0.55345 0.0
N263 N 0.00372 0.31879 0.47791 0.0
C264 C 0.15736 0.34652 0.53749 0.0
C265 C 0.05443 0.33321 0.49936 0.0
N266 N 0.11174 0.31899 0.61601 0.0
N267 N 0.10825 0.39363 0.43277 0.0
H268 H 0.96503 0.29931 0.4961 0.0
H269 H 0.99966 0.32337 0.44106 0.0
H270 H 0.14626 0.41988 0.41457 0.0
H271 H 0.07425 0.3974 0.42029 0.0
H272 H 0.14989 0.33178 0.63407 0.0
H273 H 0.07691 0.30492 0.63912 0.0
H274 H 0.20554 0.32679 0.58561 0.0
H275 H 0.24151 0.36075 0.53327 0.0
C276 C 0.75725 0.69766 0.07974 0.0
C277 C 0.71471 0.70209 0.05404 0.0
C278 C 0.70355 0.6272 -0.00123 0.0
C279 C 0.75198 0.62873 0.01949 0.0
N280 N 0.83098 0.6729 0.07567 0.0
N281 N 0.65673 0.68049 0.98238 0.0
C282 C 0.78027 0.6654 0.0594 0.0
C283 C 0.69032 0.6694 0.01169 0.0
N284 N 0.77564 0.72426 0.1234 0.0
N285 N 0.67008 0.58519 0.96659 0.0
H286 H 0.64741 0.7125 0.98967 0.0
H287 H 0.64276 0.66181 0.94849 0.0
H288 H 0.67629 0.55121 0.95852 0.0
H289 H 0.63236 0.58023 0.95249 0.0
H290 H 0.8025 0.71795 0.14602 0.0
H291 H 0.76015 0.7489 0.13872 0.0
H292 H 0.85631 0.70405 0.10084 0.0
H293 H 0.85042 0.65159 0.06128 0.0
C294 C 0.35388 0.11974 0.10126 0.0
C295 C 0.33737 0.15254 0.07365 0.0
C296 C 0.24138 0.07056 0.06386 0.0
C297 C 0.25893 0.03629 0.08852 0.0
N298 N 0.32418 0.032 0.14479 0.0
N299 N 0.26207 0.16647 0.04583 0.0
C300 C 0.31272 0.06237 0.11213 0.0
C301 C 0.27973 0.13023 0.06081 0.0
N302 N 0.40952 0.14247 0.11467 0.0
N303 N 0.1902 0.04618 0.04048 0.0
H304 H 0.28972 0.21047 0.04546 0.0
H305 H 0.21962 0.15382 0.03923 0.0
H306 H 0.1603 0.00294 0.04213 0.0
H307 H 0.17873 0.06849 0.01701 0.0
H308 H 0.42595 0.11859 0.12936 0.0
H309 H 0.43996 0.18515 0.10892 0.0
H310 H 0.3607 0.04982 0.16612 0.0
H311 H 0.29437 0.9901 0.15388 0.0
C312 C 0.95397 0.23828 0.91844 0.0
C313 C 0.96109 0.21331 0.96074 0.0
C314 C 0.86052 0.13859 0.9573 0.0
C315 C 0.85175 0.16776 0.91901 0.0
N316 N 0.88888 0.24915 0.86607 0.0
N317 N 0.91974 0.14398 0.02457 0.0
C318 C 0.89825 0.21842 0.90002 0.0
C319 C 0.9141 0.16433 0.98114 0.0
N320 N 1.00074 0.28041 0.89545 0.0
N321 N 0.81825 0.08535 0.96985 0.0
H322 H 0.95815 0.16133 0.04336 0.0
H323 H 0.88534 0.11275 0.04393 0.0
H324 H 0.77919 0.06492 0.95225 0.0
H325 H 0.82387 0.05936 0.99399 0.0
H326 H 0.99908 0.29633 0.86177 0.0
H327 H 0.04213 0.29588 0.90803 0.0
H328 H 0.91993 0.2896 0.85488 0.0
H329 H 0.84879 0.23652 0.85173 0.0
C330 C 0.32318 0.24153 0.51706 0.0
C331 C 0.34532 0.21084 0.49242 0.0
C332 C 0.28782 0.20338 0.4215 0.0
C333 C 0.26339 0.23022 0.44811 0.0
N334 N 0.2434 0.25644 0.52538 0.0
N335 N 0.33732 0.15031 0.42494 0.0
C336 C 0.27594 0.24251 0.49746 0.0
C337 C 0.32435 0.18801 0.44561 0.0
N338 N 0.34989 0.27399 0.55691 0.0
N339 N 0.27702 0.19368 0.37325 0.0
H340 H 0.36188 0.1362 0.44215 0.0
H341 H 0.31901 0.12876 0.39282 0.0
H342 H 0.24834 0.20218 0.35544 0.0
H343 H 0.29857 0.18009 0.35075 0.0
H344 H 0.33734 0.30045 0.57331 0.0
H345 H 0.38912 0.28132 0.56943 0.0
H346 H 0.24814 0.26135 0.56274 0.0
H347 H 0.20763 0.25633 0.51174 0.0
C348 C 0.83574 0.12778 0.50137 0.0
C349 C 0.81364 0.13888 0.54384 0.0
C350 C 0.74142 0.03767 0.54884 0.0
C351 C 0.75834 0.02838 0.50281 0.0
N352 N 0.81655 0.06663 0.43164 0.0
N353 N 0.73887 0.10563 0.60374 0.0
C354 C 0.80424 0.07396 0.47802 0.0
C355 C 0.76476 0.09411 0.56657 0.0
N356 N 0.88813 0.16753 0.4847 0.0
N357 N 0.70425 0.99237 0.57635 0.0
H358 H 0.75311 0.14657 0.61703 0.0
H359 H 0.69986 0.07533 0.61826 0.0
H360 H 0.68716 0.95024 0.56506 0.0
H361 H 0.69512 0.99633 0.61221 0.0
H362 H 0.90879 0.15991 0.45649 0.0
H363 H 0.91353 0.20569 0.50287 0.0
H364 H 0.84561 0.10015 0.41017 0.0
H365 H 0.79426 0.02797 0.41314 0.0
C366 C 0.9706 0.71471 0.43338 0.0
C367 C 0.00169 0.76525 0.46126 0.0
C368 C 0.91172 0.75437 0.48986 0.0
C369 C 0.88264 0.69792 0.4717 0.0
N370 N 0.88499 0.62254 0.42727 0.0
N371 N 0.00167 0.8331 0.51775 0.0
C372 C 0.91193 0.67782 0.44294 0.0
C373 C 0.97227 0.78579 0.48944 0.0
N374 N 0.99718 0.70229 0.3975 0.0
N375 N 0.88111 0.778 0.50647 0.0
H376 H 0.04601 0.85708 0.51855 0.0
H377 H 0.98201 0.8461 0.54292 0.0
H378 H 0.83684 0.75653 0.50333 0.0
H379 H 0.89954 0.82038 0.51741 0.0
H380 H 0.97549 0.66856 0.37336 0.0
H381 H 0.03985 0.72943 0.38857 0.0
H382 H 0.90653 0.60385 0.41174 0.0
H383 H 0.84173 0.59414 0.4326 0.0
C384 C 0.14767 0.25034 0.22248 0.0
C385 C 0.19288 0.30342 0.23818 0.0
C386 C 0.17942 0.34898 0.16737 0.0
C387 C 0.12485 0.29906 0.15989 0.0
N388 N 0.05802 0.20053 0.18013 0.0
N389 N 0.26833 0.39507 0.21324 0.0
C390 C 0.11001 0.24864 0.18634 0.0
C391 C 0.21414 0.35062 0.20676 0.0
N392 N 0.14079 0.20186 0.24326 0.0
N393 N 0.198 0.39434 0.13692 0.0
H394 H 0.29654 0.3928 0.23725 0.0
H395 H 0.28787 0.43135 0.19195 0.0
H396 H 0.1779 0.39238 0.10454 0.0
H397 H 0.23379 0.43409 0.14287 0.0
H398 H 0.11163 0.16101 0.23106 0.0
H399 H 0.16909 0.20343 0.26952 0.0
H400 H 0.04286 0.16501 0.20233 0.0
H401 H 0.02767 0.19721 0.15544 0.0
C402 C 0.6571 0.82082 0.22516 0.0
C403 C 0.67428 0.86827 0.19447 0.0
C404 C 0.67243 0.92511 0.26301 0.0
C405 C 0.65394 0.87717 0.29319 0.0
N406 N 0.61224 0.77543 0.30043 0.0
N407 N 0.68266 0.95991 0.18109 0.0
C408 C 0.64076 0.82367 0.27326 0.0
C409 C 0.67717 0.91879 0.21245 0.0
N410 N 0.65988 0.7745 0.20966 0.0
N411 N 0.68765 0.97699 0.28274 0.0
H412 H 0.68407 0.95582 0.14373 0.0
H413 H 0.67988 0.9952 0.1917 0.0
H414 H 0.68334 0.98259 0.31946 0.0
H415 H 0.70781 0.01483 0.26328 0.0
H416 H 0.65379 0.74151 0.2324 0.0
H417 H 0.67364 0.77136 0.17529 0.0
H418 H 0.59681 0.73459 0.28646 0.0
H419 H 0.59874 0.77589 0.33563 0.0
C420 C 0.22654 0.79248 0.23181 0.0
C421 C 0.21359 0.83133 0.20902 0.0
C422 C 0.1587 0.82839 0.27976 0.0
C423 C 0.1802 0.79886 0.30585 0.0
N424 N 0.2416 0.75858 0.30799 0.0
N425 N 0.18109 0.89896 0.21878 0.0
C426 C 0.2159 0.78207 0.28228 0.0
C427 C 0.18361 0.85298 0.23521 0.0
N428 N 0.24671 0.76389 0.2055 0.0
N429 N 0.11488 0.83363 0.29795 0.0
H430 H 0.20356 0.92215 0.18856 0.0
H431 H 0.16285 0.91832 0.23864 0.0
H432 H 0.09468 0.8146 0.33033 0.0
H433 H 0.09493 0.85124 0.27827 0.0
H434 H 0.25124 0.73104 0.21981 0.0
H435 H 0.25407 0.76932 0.1685 0.0
H436 H 0.27288 0.75161 0.29337 0.0
H437 H 0.23469 0.74978 0.34472 0.0
C438 C 0.80178 0.54551 0.74604 0.0
C439 C 0.82269 0.59888 0.77028 0.0
C440 C 0.79496 0.63544 0.70202 0.0
C441 C 0.77543 0.58366 0.67667 0.0
N442 N 0.77566 0.49525 0.66919 0.0
N443 N 0.864 0.70013 0.75932 0.0
C444 C 0.78315 0.54012 0.69705 0.0
C445 C 0.82787 0.64572 0.74393 0.0
N446 N 0.79889 0.49988 0.76904 0.0
N447 N 0.77971 0.67379 0.68764 0.0
H448 H 0.89109 0.70888 0.78884 0.0
H449 H 0.87149 0.73574 0.73943 0.0
H450 H 0.75071 0.66496 0.65975 0.0
H451 H 0.79008 0.71055 0.70735 0.0
H452 H 0.77592 0.45849 0.75544 0.0
H453 H 0.81902 0.50269 0.80159 0.0
H454 H 0.78709 0.4659 0.68044 0.0
H455 H 0.76289 0.49011 0.63319 0.0
C456 C 0.47851 0.20649 0.81892 0.0
C457 C 0.46949 0.25128 0.83387 0.0
C458 C 0.46921 0.27695 0.74959 0.0
C459 C 0.46404 0.22435 0.73531 0.0
N460 N 0.46736 0.14002 0.75515 0.0
N461 N 0.4586 0.33135 0.81413 0.0
C462 C 0.47123 0.18998 0.76946 0.0
C463 C 0.46711 0.28824 0.79942 0.0
N464 N 0.49281 0.17932 0.85256 0.0
N465 N 0.47558 0.31561 0.71523 0.0
H466 H 0.4582 0.34146 0.8504 0.0
H467 H 0.44924 0.35523 0.7906 0.0
H468 H 0.47783 0.30836 0.67846 0.0
H469 H 0.48418 0.35665 0.72325 0.0
H470 H 0.50403 0.14896 0.84407 0.0
H471 H 0.49855 0.19145 0.88887 0.0
H472 H 0.46576 0.10985 0.77906 0.0
H473 H 0.46302 0.12745 0.71905 0.0
C474 C 0.80348 0.12308 0.73112 0.0
C475 C 0.75443 0.12674 0.74144 0.0
C476 C 0.8132 0.23121 0.7361 0.0
C477 C 0.86232 0.22672 0.72735 0.0
N478 N 0.90457 0.16889 0.74329 0.0
N479 N 0.71048 0.18417 0.73173 0.0
C480 C 0.85769 0.1728 0.73281 0.0
C481 C 0.75848 0.18086 0.73792 0.0
N482 N 0.79833 0.07265 0.71669 0.0
N483 N 0.8191 0.2829 0.74708 0.0
H484 H 0.67063 0.14828 0.72565 0.0
H485 H 0.71144 0.22229 0.725 0.0
H486 H 0.85879 0.31925 0.75265 0.0
H487 H 0.78519 0.28789 0.75791 0.0
H488 H 0.83319 0.06939 0.70549 0.0
H489 H 0.75882 0.03648 0.70986 0.0
H490 H 0.90199 0.13015 0.75098 0.0
H491 H 0.94415 0.20472 0.75066 0.0
C492 C 0.04263 0.53118 0.00916 0.0
C493 C 0.02713 0.47449 -0.00292 0.0
C494 C 0.93064 0.4529 0.97658 0.0
C495 C 0.9475 0.51085 0.98489 0.0
N496 N 0.02302 0.60788 -0.0014 0.0
N497 N 0.96063 0.38449 0.95994 0.0
C498 C 0.0045 0.55084 -0.00168 0.0
C499 C 0.97232 0.43618 0.97805 0.0
N500 N 0.09295 0.5657 0.0324 0.0
N501 N 0.87448 0.41332 0.96942 0.0
H502 H 0.99022 0.37085 0.95989 0.0
H503 H 0.92356 0.35738 0.94092 0.0
H504 H 0.84239 0.42356 0.969 0.0
H505 H 0.85901 0.36963 0.96835 0.0
H506 H 0.10351 0.60518 0.04705 0.0
H507 H 0.12215 0.55286 0.04072 0.0
H508 H 0.06551 0.63921 0.00349 0.0
H509 H 0.99718 0.62437 0.98903 0.0
C510 C 0.56935 0.5547 0.05717 0.0
C511 C 0.54022 0.58092 0.03723 0.0
C512 C 0.4931 0.50273 0.97885 0.0
C513 C 0.52544 0.47854 0.99606 0.0
N514 N 0.60354 0.48875 0.0447 0.0
N515 N 0.48762 0.58832 0.97058 0.0
C516 C 0.5663 0.50668 0.03328 0.0
C517 C 0.50645 0.55763 0.99527 0.0
N518 N 0.59794 0.57391 0.09992 0.0
N519 N 0.44669 0.4719 0.94985 0.0
H520 H 0.49773 0.62932 0.98096 0.0
H521 H 0.46741 0.57557 0.93714 0.0
H522 H 0.43207 0.42986 0.9396 0.0
H523 H 0.41859 0.48579 0.94065 0.0
H524 H 0.6148 0.5527 0.11866 0.0
H525 H 0.60104 0.6086 0.11877 0.0
H526 H 0.63807 0.51115 0.06786 0.0
H527 H 0.60375 0.45497 0.02693 0.0
C528 C 0.44521 0.95889 0.96049 0.0
C529 C 0.42109 0.9879 0.98449 0.0
C530 C 0.50729 0.07977 0.96725 0.0
C531 C 0.53311 0.05032 0.94716 0.0
N532 N 0.53034 0.96162 0.93142 0.0
N533 N 0.43135 0.07513 0.01675 0.0
C534 C 0.50309 0.98981 0.9457 0.0
C535 C 0.45269 0.04824 0.98938 0.0
N536 N 0.41205 0.90228 0.94946 0.0
N537 N 0.53457 0.13784 0.96426 0.0
H538 H 0.39211 0.05336 0.03424 0.0
H539 H 0.45432 0.11823 0.02563 0.0
H540 H 0.5747 0.16202 0.94859 0.0
H541 H 0.51584 0.16172 0.97368 0.0
H542 H 0.42551 0.88045 0.92715 0.0
H543 H 0.36916 0.87802 0.95879 0.0
H544 H 0.51331 0.91795 0.93575 0.0
H545 H 0.57191 0.98248 0.91857 0.0
C546 C 0.49555 0.97163 0.54099 0.0
C547 C 0.49306 0.95621 0.49154 0.0
C548 C 0.48217 0.03719 0.46826 0.0
C549 C 0.48323 0.05152 0.5178 0.0
N550 N 0.47716 0.02476 0.60152 0.0
N551 N 0.47244 0.96663 0.40901 0.0
C552 C 0.48476 0.01585 0.55418 0.0
C553 C 0.48309 0.98689 0.45536 0.0
N554 N 0.51305 0.94758 0.57514 0.0
N555 N 0.48029 0.07178 0.43357 0.0
H556 H 0.47181 0.92938 0.3987 0.0
H557 H 0.4593 0.98356 0.3817 0.0
H558 H 0.47443 0.10598 0.44159 0.0
H559 H 0.48665 0.06804 0.397 0.0
H560 H 0.5222 0.96204 0.61069 0.0
H561 H 0.52424 0.91702 0.56736 0.0
H562 H 0.47078 0.9958 0.62871 0.0
H563 H 0.47252 0.05857 0.61337 0.0
C564 C 0.93432 0.50702 0.5488 0.0
C565 C 0.94393 0.4625 0.53481 0.0
C566 C 0.03823 0.53199 0.50387 0.0
C567 C 0.02785 0.57677 0.51569 0.0
N568 N 0.95891 0.60481 0.53577 0.0
N569 N 0.99693 0.43167 0.48637 0.0
C570 C 0.97373 0.56373 0.53422 0.0
C571 C 0.99323 0.47475 0.50811 0.0
N572 N 0.88811 0.49533 0.57647 0.0
N573 N 0.09171 0.54352 0.49166 0.0
H574 H 0.96442 0.38927 0.48836 0.0
H575 H 0.02913 0.43891 0.46213 0.0
H576 H 0.1269 0.58457 0.49038 0.0
H577 H 0.10241 0.51196 0.48769 0.0
H578 H 0.88234 0.52689 0.59227 0.0
H579 H 0.85738 0.45394 0.58615 0.0
H580 H 0.91822 0.59642 0.54485 0.0
H581 H 0.98516 0.64592 0.52268 0.0
C582 C 0.49923 0.51111 0.39589 0.0
C583 C 0.45406 0.46543 0.42107 0.0
C584 C 0.52238 0.44622 0.46247 0.0
C585 C 0.56787 0.49679 0.44263 0.0
N586 N 0.59977 0.58129 0.39401 0.0
N587 N 0.42136 0.38935 0.47908 0.0
C588 C 0.55648 0.52991 0.40967 0.0
C589 C 0.46531 0.43285 0.45449 0.0
N590 N 0.48742 0.53696 0.35918 0.0
N591 N 0.53376 0.40979 0.48737 0.0
H592 H 0.37861 0.37451 0.47129 0.0
H593 H 0.42735 0.3698 0.50884 0.0
H594 H 0.57502 0.41759 0.49286 0.0
H595 H 0.50253 0.36942 0.49859 0.0
H596 H 0.51824 0.56618 0.3358 0.0
H597 H 0.44602 0.52573 0.34944 0.0
H598 H 0.5933 0.61033 0.37479 0.0
H599 H 0.64222 0.59766 0.40359 0.0
loop_
_geom_bond_atom_site_label_1
_geom_bond_atom_site_label_2
_geom_bond_distance
_geom_bond_site_symmetry_2
_ccdc_geom_bond_type
Mg0 O1 2.014 1_455 S
Mg0 O7 1.986 . S
Mg0 O9 2.114 . S
Mg0 O10 2.251 . S
Mg0 O13 2.010 . S
O1 Mg0 2.014 1_655 S
O1 C4 1.250 . S
O2 Mg3 2.028 1_655 S
O2 C4 1.248 . S
Mg3 O2 2.028 1_455 S
Mg3 O8 2.032 . S
Mg3 O10 2.079 . S
C4 O1 1.250 . S
C4 O2 1.248 . S
C5 O6 1.264 . S
C5 O13 1.249 . S
O6 C5 1.264 . S
O7 Mg0 1.986 . S
O7 C11 1.246 . S
O8 Mg3 2.032 . S
O8 C11 1.259 . S
O9 Mg0 2.114 . S
O9 C12 1.252 . S
O10 Mg0 2.251 . S
O10 Mg3 2.079 . S
O10 C12 1.273 . S
C11 O7 1.246 . S
C11 O8 1.259 . S
C12 O9 1.252 . S
C12 O10 1.273 . S
O13 Mg0 2.010 . S
O13 C5 1.249 . S
Mg14 O15 2.028 . S
Mg14 O21 1.986 . S
Mg14 O23 2.114 . S
Mg14 O24 2.251 . S
Mg14 O27 2.010 . S
O15 Mg14 2.028 . S
O15 C18 1.250 . S
O16 Mg17 2.028 . S
O16 C18 1.248 . S
Mg17 O16 2.028 . S
Mg17 O22 2.032 . S
Mg17 O24 2.079 . S
C18 O15 1.250 . S
C18 O16 1.248 . S
C19 O20 1.264 . S
C19 O27 1.249 . S
O20 C19 1.264 . S
O21 Mg14 1.986 . S
O21 C25 1.246 . S
O22 Mg17 2.032 . S
O22 C25 1.259 . S
O23 Mg14 2.114 . S
O23 C26 1.252 . S
O24 Mg14 2.251 . S
O24 Mg17 2.079 . S
O24 C26 1.273 . S
C25 O21 1.246 . S
C25 O22 1.259 . S
C26 O23 1.252 . S
C26 O24 1.273 . S
O27 Mg14 2.010 . S
O27 C19 1.249 . S
Mg28 O29 2.009 1_565 S
Mg28 O35 1.986 . S
Mg28 O37 2.114 . S
Mg28 O38 2.251 . S
Mg28 O41 2.010 . S
O29 Mg28 2.009 1_545 S
O29 C32 1.268 . S
O30 Mg31 2.028 1_545 S
O30 C32 1.248 . S
Mg31 O30 2.028 1_565 S
Mg31 O36 2.032 . S
Mg31 O38 2.079 . S
C32 O29 1.268 . S
C32 O30 1.248 . S
C33 O34 1.264 . S
C33 O41 1.249 . S
O34 C33 1.264 . S
O35 Mg28 1.986 . S
O35 C39 1.246 . S
O36 Mg31 2.032 . S
O36 C39 1.259 . S
O37 Mg28 2.114 . S
O37 C40 1.252 . S
O38 Mg28 2.251 . S
O38 Mg31 2.079 . S
O38 C40 1.273 . S
C39 O35 1.246 . S
C39 O36 1.259 . S
C40 O37 1.252 . S
C40 O38 1.273 . S
O41 Mg28 2.010 . S
O41 C33 1.249 . S
Mg42 O43 2.014 1_565 S
Mg42 O49 1.986 . S
Mg42 O51 2.114 . S
Mg42 O52 2.251 . S
Mg42 O55 2.010 . S
O43 Mg42 2.014 1_545 S
O43 C46 1.250 . S
O44 Mg45 2.028 1_545 S
O44 C46 1.248 . S
Mg45 O44 2.028 1_565 S
Mg45 O50 2.032 . S
Mg45 O52 2.079 . S
C46 O43 1.250 . S
C46 O44 1.248 . S
C47 O48 1.264 . S
C47 O55 1.249 . S
O48 C47 1.264 . S
O49 Mg42 1.986 . S
O49 C53 1.246 . S
O50 Mg45 2.032 . S
O50 C53 1.259 . S
O51 Mg42 2.114 . S
O51 C54 1.252 . S
O52 Mg42 2.251 . S
O52 Mg45 2.079 . S
O52 C54 1.273 . S
C53 O49 1.246 . S
C53 O50 1.259 . S
C54 O51 1.252 . S
C54 O52 1.273 . S
O55 Mg42 2.010 . S
O55 C47 1.249 . S
Mg56 O57 2.009 1_455 S
Mg56 O63 1.986 . S
Mg56 O65 2.114 . S
Mg56 O66 2.251 . S
Mg56 O69 2.010 . S
O57 Mg56 2.009 1_655 S
O57 C60 1.268 . S
O58 Mg59 2.028 1_655 S
O58 C60 1.248 . S
Mg59 O58 2.028 1_455 S
Mg59 O64 2.032 . S
Mg59 O66 2.079 . S
C60 O57 1.268 . S
C60 O58 1.248 . S
C61 O62 1.264 . S
C61 O69 1.249 . S
O62 C61 1.264 . S
O63 Mg56 1.986 . S
O63 C67 1.246 . S
O64 Mg59 2.032 . S
O64 C67 1.259 . S
O65 Mg56 2.114 . S
O65 C68 1.252 . S
O66 Mg56 2.251 . S
O66 Mg59 2.079 . S
O66 C68 1.273 . S
C67 O63 1.246 . S
C67 O64 1.259 . S
C68 O65 1.252 . S
C68 O66 1.273 . S
O69 Mg56 2.010 . S
O69 C61 1.249 . S
Mg70 O71 2.028 . S
Mg70 O77 1.986 . S
Mg70 O79 2.114 . S
Mg70 O80 2.251 . S
Mg70 O83 2.010 . S
O71 Mg70 2.028 . S
O71 C74 1.250 . S
O72 Mg73 2.028 . S
O72 C74 1.248 . S
Mg73 O72 2.028 . S
Mg73 O78 2.032 . S
Mg73 O80 2.079 . S
C74 O71 1.250 . S
C74 O72 1.248 . S
C75 O76 1.264 . S
C75 O83 1.249 . S
O76 C75 1.264 . S
O77 Mg70 1.986 . S
O77 C81 1.246 . S
O78 Mg73 2.032 . S
O78 C81 1.259 . S
O79 Mg70 2.114 . S
O79 C82 1.252 . S
O80 Mg70 2.251 . S
O80 Mg73 2.079 . S
O80 C82 1.273 . S
C81 O77 1.246 . S
C81 O78 1.259 . S
C82 O79 1.252 . S
C82 O80 1.273 . S
O83 Mg70 2.010 . S
O83 C75 1.249 . S
Mg84 O85 2.014 1_655 S
Mg84 O91 1.986 . S
Mg84 O93 2.114 . S
Mg84 O94 2.251 . S
Mg84 O97 2.010 . S
O85 Mg84 2.014 1_455 S
O85 C88 1.250 . S
O86 Mg87 2.028 1_455 S
O86 C88 1.248 . S
Mg87 O86 2.028 1_655 S
Mg87 O92 2.032 . S
Mg87 O94 2.079 . S
C88 O85 1.250 . S
C88 O86 1.248 . S
C89 O90 1.264 . S
C89 O97 1.249 . S
O90 C89 1.264 . S
O91 Mg84 1.986 . S
O91 C95 1.246 . S
O92 Mg87 2.032 . S
O92 C95 1.259 . S
O93 Mg84 2.114 . S
O93 C96 1.252 . S
O94 Mg84 2.251 . S
O94 Mg87 2.079 . S
O94 C96 1.273 . S
C95 O91 1.246 . S
C95 O92 1.259 . S
C96 O93 1.252 . S
C96 O94 1.273 . S
O97 Mg84 2.010 . S
O97 C89 1.249 . S
Mg98 O99 2.028 . S
Mg98 O105 1.986 . S
Mg98 O107 2.114 . S
Mg98 O108 2.251 . S
Mg98 O111 2.010 . S
O99 Mg98 2.028 . S
O99 C102 1.250 . S
O100 Mg101 2.028 . S
O100 C102 1.248 . S
Mg101 O100 2.028 . S
Mg101 O106 2.032 . S
Mg101 O108 2.079 . S
C102 O99 1.250 . S
C102 O100 1.248 . S
C103 O104 1.264 . S
C103 O111 1.249 . S
O104 C103 1.264 . S
O105 Mg98 1.986 . S
O105 C109 1.246 . S
O106 Mg101 2.032 . S
O106 C109 1.259 . S
O107 Mg98 2.114 . S
O107 C110 1.252 . S
O108 Mg98 2.251 . S
O108 Mg101 2.079 . S
O108 C110 1.273 . S
C109 O105 1.246 . S
C109 O106 1.259 . S
C110 O107 1.252 . S
C110 O108 1.273 . S
O111 Mg98 2.010 . S
O111 C103 1.249 . S
Mg112 O113 2.009 1_545 S
Mg112 O119 1.986 . S
Mg112 O121 2.114 . S
Mg112 O122 2.251 . S
Mg112 O125 2.010 . S
O113 Mg112 2.009 1_565 S
O113 C116 1.268 . S
O114 Mg115 2.028 1_565 S
O114 C116 1.248 . S
Mg115 O114 2.028 1_545 S
Mg115 O120 2.032 . S
Mg115 O122 2.079 . S
C116 O113 1.268 . S
C116 O114 1.248 . S
C117 O118 1.264 . S
C117 O125 1.249 . S
O118 C117 1.264 . S
O119 Mg112 1.986 . S
O119 C123 1.246 . S
O120 Mg115 2.032 . S
O120 C123 1.259 . S
O121 Mg112 2.114 . S
O121 C124 1.252 . S
O122 Mg112 2.251 . S
O122 Mg115 2.079 . S
O122 C124 1.273 . S
C123 O119 1.246 . S
C123 O120 1.259 . S
C124 O121 1.252 . S
C124 O122 1.273 . S
O125 Mg112 2.010 . S
O125 C117 1.249 . S
Mg126 O127 2.014 1_545 S
Mg126 O133 1.986 . S
Mg126 O135 2.114 . S
Mg126 O136 2.251 . S
Mg126 O139 2.010 . S
O127 Mg126 2.014 1_565 S
O127 C130 1.250 . S
O128 Mg129 2.028 1_565 S
O128 C130 1.248 . S
Mg129 O128 2.028 1_545 S
Mg129 O134 2.032 . S
Mg129 O136 2.079 . S
C130 O127 1.250 . S
C130 O128 1.248 . S
C131 O132 1.264 . S
C131 O139 1.249 . S
O132 C131 1.264 . S
O133 Mg126 1.986 . S
O133 C137 1.246 . S
O134 Mg129 2.032 . S
O134 C137 1.259 . S
O135 Mg126 2.114 . S
O135 C138 1.252 . S
O136 Mg126 2.251 . S
O136 Mg129 2.079 . S
O136 C138 1.273 . S
C137 O133 1.246 . S
C137 O134 1.259 . S
C138 O135 1.252 . S
C138 O136 1.273 . S
O139 Mg126 2.010 . S
O139 C131 1.249 . S
Mg140 O141 2.009 1_655 S
Mg140 O147 1.986 . S
Mg140 O149 2.114 . S
Mg140 O150 2.251 . S
Mg140 O153 2.010 . S
O141 Mg140 2.009 1_455 S
O141 C144 1.268 . S
O142 Mg143 2.028 1_455 S
O142 C144 1.248 . S
Mg143 O142 2.028 1_655 S
Mg143 O148 2.032 . S
Mg143 O150 2.079 . S
C144 O141 1.268 . S
C144 O142 1.248 . S
C145 O146 1.264 . S
C145 O153 1.249 . S
O146 C145 1.264 . S
O147 Mg140 1.986 . S
O147 C151 1.246 . S
O148 Mg143 2.032 . S
O148 C151 1.259 . S
O149 Mg140 2.114 . S
O149 C152 1.252 . S
O150 Mg140 2.251 . S
O150 Mg143 2.079 . S
O150 C152 1.273 . S
C151 O147 1.246 . S
C151 O148 1.259 . S
C152 O149 1.252 . S
C152 O150 1.273 . S
O153 Mg140 2.010 . S
O153 C145 1.249 . S
Mg154 O155 2.028 . S
Mg154 O161 1.986 . S
Mg154 O163 2.114 . S
Mg154 O164 2.251 . S
Mg154 O167 2.010 . S
O155 Mg154 2.028 . S
O155 C158 1.250 . S
O156 Mg157 2.028 . S
O156 C158 1.248 . S
Mg157 O156 2.028 . S
Mg157 O162 2.032 . S
Mg157 O164 2.079 . S
C158 O155 1.250 . S
C158 O156 1.248 . S
C159 O160 1.264 . S
C159 O167 1.249 . S
O160 C159 1.264 . S
O161 Mg154 1.986 . S
O161 C165 1.246 . S
O162 Mg157 2.032 . S
O162 C165 1.259 . S
O163 Mg154 2.114 . S
O163 C166 1.252 . S
O164 Mg154 2.251 . S
O164 Mg157 2.079 . S
O164 C166 1.273 . S
C165 O161 1.246 . S
C165 O162 1.259 . S
C166 O163 1.252 . S
C166 O164 1.273 . S
O167 Mg154 2.010 . S
O167 C159 1.249 . S
C168 C169 1.363 . S
C168 C174 1.379 1_554 S
C168 N176 1.356 . S
C169 C168 1.363 . S
C169 C175 1.363 1_554 S
C170 C171 1.363 . S
C170 C175 1.379 . S
C170 N177 1.356 . S
C171 C170 1.363 . S
C171 C174 1.363 . S
N172 C174 1.358 . S
N172 H184 0.975 1_556 S
N172 H185 0.993 . S
N173 C175 1.356 . S
N173 H178 0.984 . S
N173 H179 0.985 . S
C174 C168 1.379 1_556 S
C174 C171 1.363 . S
C174 N172 1.358 . S
C175 C169 1.363 1_556 S
C175 C170 1.379 . S
C175 N173 1.356 . S
N176 C168 1.356 . S
N176 H182 0.984 . S
N176 H183 0.984 . S
N177 C170 1.356 . S
N177 H180 0.984 . S
N177 H181 0.985 . S
H178 N173 0.984 . S
H179 N173 0.985 . S
H180 N177 0.984 . S
H181 N177 0.985 . S
H182 N176 0.984 . S
H183 N176 0.984 . S
H184 N172 0.975 1_554 S
H185 N172 0.993 . S
C186 C187 1.363 1_556 S
C186 C192 1.379 . S
C186 N194 1.356 . S
C187 C186 1.363 1_554 S
C187 C193 1.363 . S
C188 C189 1.357 1_554 S
C188 C193 1.382 . S
C188 N195 1.358 . S
C189 C188 1.357 1_556 S
C189 C192 1.363 . S
N190 C192 1.356 . S
N190 H202 0.984 . S
N190 H203 0.985 . S
N191 C193 1.356 . S
N191 H196 0.984 . S
N191 H197 0.985 . S
C192 C186 1.379 . S
C192 C189 1.363 . S
C192 N190 1.356 . S
C193 C187 1.363 . S
C193 C188 1.382 . S
C193 N191 1.356 . S
N194 C186 1.356 . S
N194 H200 0.984 . S
N194 H201 0.984 . S
N195 C188 1.358 . S
N195 H198 0.984 1_564 S
N195 H199 0.985 1_565 S
H196 N191 0.984 . S
H197 N191 0.985 . S
H198 N195 0.984 1_546 S
H199 N195 0.985 1_545 S
H200 N194 0.984 . S
H201 N194 0.984 . S
H202 N190 0.984 . S
H203 N190 0.985 . S
C204 C205 1.363 1_556 S
C204 C210 1.379 . S
C204 N212 1.356 1_556 S
C205 C204 1.363 1_554 S
C205 C211 1.363 1_554 S
C206 C207 1.363 . S
C206 C211 1.379 . S
C206 N213 1.356 . S
C207 C206 1.363 . S
C207 C210 1.363 . S
N208 C210 1.356 . S
N208 H220 0.984 . S
N208 H221 0.985 . S
N209 C211 1.356 1_554 S
N209 H214 0.984 . S
N209 H215 0.985 . S
C210 C204 1.379 . S
C210 C207 1.363 . S
C210 N208 1.356 . S
C211 C205 1.363 1_556 S
C211 C206 1.379 . S
C211 N209 1.356 1_556 S
N212 C204 1.356 1_554 S
N212 H218 0.984 1_554 S
N212 H219 0.984 . S
N213 C206 1.356 . S
N213 H216 0.984 1_455 S
N213 H217 0.985 . S
H214 N209 0.984 . S
H215 N209 0.985 . S
H216 N213 0.984 1_655 S
H217 N213 0.985 . S
H218 N212 0.984 1_556 S
H219 N212 0.984 . S
H220 N208 0.984 . S
H221 N208 0.985 . S
C222 C223 1.363 . S
C222 C228 1.379 . S
C222 N230 1.356 . S
C223 C222 1.363 . S
C223 C229 1.363 . S
C224 C225 1.363 . S
C224 C229 1.379 . S
C224 N231 1.356 . S
C225 C224 1.363 . S
C225 C228 1.363 . S
N226 C228 1.356 . S
N226 H238 0.984 . S
N226 H239 0.985 . S
N227 C229 1.356 . S
N227 H232 0.984 . S
N227 H233 0.985 . S
C228 C222 1.379 . S
C228 C225 1.363 . S
C228 N226 1.356 . S
C229 C223 1.363 . S
C229 C224 1.379 . S
C229 N227 1.356 . S
N230 C222 1.356 . S
N230 H236 0.984 . S
N230 H237 0.984 . S
N231 C224 1.356 . S
N231 H234 0.984 . S
N231 H235 0.985 . S
H232 N227 0.984 . S
H233 N227 0.985 . S
H234 N231 0.984 . S
H235 N231 0.985 . S
H236 N230 0.984 . S
H237 N230 0.984 . S
H238 N226 0.984 . S
H239 N226 0.985 . S
C240 C241 1.363 . S
C240 C246 1.379 . S
C240 N248 1.356 . S
C241 C240 1.363 . S
C241 C247 1.363 . S
C242 C243 1.363 . S
C242 C247 1.379 . S
C242 N249 1.356 . S
C243 C242 1.363 . S
C243 C246 1.363 . S
N244 C246 1.356 . S
N244 H256 0.984 . S
N244 H257 0.985 . S
N245 C247 1.356 . S
N245 H250 0.984 . S
N245 H251 0.985 . S
C246 C240 1.379 . S
C246 C243 1.363 . S
C246 N244 1.356 . S
C247 C241 1.363 . S
C247 C242 1.379 . S
C247 N245 1.356 . S
N248 C240 1.356 . S
N248 H254 0.984 . S
N248 H255 0.984 . S
N249 C242 1.356 . S
N249 H252 0.984 1_565 S
N249 H253 0.985 . S
H250 N245 0.984 . S
H251 N245 0.985 . S
H252 N249 0.984 1_545 S
H253 N249 0.985 . S
H254 N248 0.984 . S
H255 N248 0.984 . S
H256 N244 0.984 . S
H257 N244 0.985 . S
C258 C259 1.363 . S
C258 C264 1.379 . S
C258 N266 1.356 . S
C259 C258 1.363 . S
C259 C265 1.363 . S
C260 C261 1.363 . S
C260 C265 1.379 . S
C260 N267 1.356 . S
C261 C260 1.363 . S
C261 C264 1.363 . S
N262 C264 1.356 . S
N262 H274 0.984 . S
N262 H275 0.985 . S
N263 C265 1.356 . S
N263 H268 0.984 1_455 S
N263 H269 0.985 . S
C264 C258 1.379 . S
C264 C261 1.363 . S
C264 N262 1.356 . S
C265 C259 1.363 . S
C265 C260 1.379 . S
C265 N263 1.356 . S
N266 C258 1.356 . S
N266 H272 0.984 . S
N266 H273 0.984 . S
N267 C260 1.356 . S
N267 H270 0.984 . S
N267 H271 0.985 . S
H268 N263 0.984 1_655 S
H269 N263 0.985 . S
H270 N267 0.984 . S
H271 N267 0.985 . S
H272 N266 0.984 . S
H273 N266 0.984 . S
H274 N262 0.984 . S
H275 N262 0.985 . S
C276 C277 1.363 . S
C276 C282 1.379 . S
C276 N284 1.356 . S
C277 C276 1.363 . S
C277 C283 1.363 . S
C278 C279 1.363 . S
C278 C283 1.379 1_556 S
C278 N285 1.356 . S
C279 C278 1.363 . S
C279 C282 1.363 1_556 S
N280 C282 1.356 . S
N280 H292 0.984 . S
N280 H293 0.985 . S
N281 C283 1.356 1_556 S
N281 H286 0.984 1_556 S
N281 H287 0.985 . S
C282 C276 1.379 . S
C282 C279 1.363 1_554 S
C282 N280 1.356 . S
C283 C277 1.363 . S
C283 C278 1.379 1_554 S
C283 N281 1.356 1_554 S
N284 C276 1.356 . S
N284 H290 0.984 . S
N284 H291 0.984 . S
N285 C278 1.356 . S
N285 H288 0.984 . S
N285 H289 0.985 . S
H286 N281 0.984 1_554 S
H287 N281 0.985 . S
H288 N285 0.984 . S
H289 N285 0.985 . S
H290 N284 0.984 . S
H291 N284 0.984 . S
H292 N280 0.984 . S
H293 N280 0.985 . S
C294 C295 1.363 1_554 S
C294 C300 1.379 . S
C294 N302 1.356 . S
C295 C294 1.363 1_556 S
C295 C301 1.363 . S
C296 C297 1.363 . S
C296 C301 1.379 1_554 S
C296 N303 1.356 . S
C297 C296 1.363 . S
C297 C300 1.363 . S
N298 C300 1.356 . S
N298 H310 0.984 . S
N298 H311 0.985 . S
N299 C301 1.356 . S
N299 H304 0.984 . S
N299 H305 0.985 . S
C300 C294 1.379 . S
C300 C297 1.363 . S
C300 N298 1.356 . S
C301 C295 1.363 . S
C301 C296 1.379 1_556 S
C301 N299 1.356 . S
N302 C294 1.356 . S
N302 H308 0.984 . S
N302 H309 0.984 . S
N303 C296 1.356 . S
N303 H306 0.984 1_545 S
N303 H307 0.985 1_544 S
H304 N299 0.984 . S
H305 N299 0.985 . S
H306 N303 0.984 1_565 S
H307 N303 0.985 1_566 S
H308 N302 0.984 . S
H309 N302 0.984 . S
H310 N298 0.984 . S
H311 N298 0.985 . S
C312 C313 1.363 . S
C312 C318 1.379 1_554 S
C312 N320 1.356 . S
C313 C312 1.363 . S
C313 C319 1.363 . S
C314 C315 1.363 1_554 S
C314 C319 1.379 . S
C314 N321 1.356 . S
C315 C314 1.363 1_556 S
C315 C318 1.363 . S
N316 C318 1.356 . S
N316 H328 0.984 . S
N316 H329 0.985 . S
N317 C319 1.356 . S
N317 H322 0.984 . S
N317 H323 0.985 . S
C318 C312 1.379 1_556 S
C318 C315 1.363 . S
C318 N316 1.356 . S
C319 C313 1.363 . S
C319 C314 1.379 . S
C319 N317 1.356 . S
N320 C312 1.356 . S
N320 H326 0.984 . S
N320 H327 0.984 . S
N321 C314 1.356 . S
N321 H324 0.984 1_554 S
N321 H325 0.985 . S
H322 N317 0.984 . S
H323 N317 0.985 . S
H324 N321 0.984 1_556 S
H325 N321 0.985 . S
H326 N320 0.984 . S
H327 N320 0.984 . S
H328 N316 0.984 . S
H329 N316 0.985 . S
C330 C331 1.363 . S
C330 C336 1.379 . S
C330 N338 1.356 . S
C331 C330 1.363 . S
C331 C337 1.363 . S
C332 C333 1.363 . S
C332 C337 1.379 . S
C332 N339 1.356 . S
C333 C332 1.363 . S
C333 C336 1.363 . S
N334 C336 1.356 . S
N334 H346 0.984 . S
N334 H347 0.985 . S
N335 C337 1.356 . S
N335 H340 0.984 . S
N335 H341 0.985 . S
C336 C330 1.379 . S
C336 C333 1.363 . S
C336 N334 1.356 . S
C337 C331 1.363 . S
C337 C332 1.379 . S
C337 N335 1.356 . S
N338 C330 1.356 . S
N338 H344 0.984 . S
N338 H345 0.984 . S
N339 C332 1.356 . S
N339 H342 0.984 . S
N339 H343 0.985 . S
H340 N335 0.984 . S
H341 N335 0.985 . S
H342 N339 0.984 . S
H343 N339 0.985 . S
H344 N338 0.984 . S
H345 N338 0.984 . S
H346 N334 0.984 . S
H347 N334 0.985 . S
C348 C349 1.363 . S
C348 C354 1.379 . S
C348 N356 1.356 . S
C349 C348 1.363 . S
C349 C355 1.363 . S
C350 C351 1.363 . S
C350 C355 1.379 . S
C350 N357 1.356 . S
C351 C350 1.363 . S
C351 C354 1.363 . S
N352 C354 1.356 . S
N352 H364 0.984 . S
N352 H365 0.985 . S
N353 C355 1.356 . S
N353 H358 0.984 . S
N353 H359 0.985 . S
C354 C348 1.379 . S
C354 C351 1.363 . S
C354 N352 1.356 . S
C355 C349 1.363 . S
C355 C350 1.379 . S
C355 N353 1.356 . S
N356 C348 1.356 . S
N356 H362 0.984 . S
N356 H363 0.984 . S
N357 C350 1.356 . S
N357 H360 0.984 1_545 S
N357 H361 0.985 1_545 S
H358 N353 0.984 . S
H359 N353 0.985 . S
H360 N357 0.984 1_565 S
H361 N357 0.985 1_565 S
H362 N356 0.984 . S
H363 N356 0.984 . S
H364 N352 0.984 . S
H365 N352 0.985 . S
C366 C367 1.363 . S
C366 C372 1.379 . S
C366 N374 1.356 . S
C367 C366 1.363 . S
C367 C373 1.363 . S
C368 C369 1.363 . S
C368 C373 1.379 . S
C368 N375 1.356 . S
C369 C368 1.363 . S
C369 C372 1.363 . S
N370 C372 1.356 . S
N370 H382 0.984 . S
N370 H383 0.985 . S
N371 C373 1.356 . S
N371 H376 0.984 1_655 S
N371 H377 0.985 1_655 S
C372 C366 1.379 . S
C372 C369 1.363 . S
C372 N370 1.356 . S
C373 C367 1.363 . S
C373 C368 1.379 . S
C373 N371 1.356 . S
N374 C366 1.356 . S
N374 H380 0.984 . S
N374 H381 0.984 . S
N375 C368 1.356 . S
N375 H378 0.984 . S
N375 H379 0.985 . S
H376 N371 0.984 1_455 S
H377 N371 0.985 1_455 S
H378 N375 0.984 . S
H379 N375 0.985 . S
H380 N374 0.984 . S
H381 N374 0.984 . S
H382 N370 0.984 . S
H383 N370 0.985 . S
C384 C385 1.363 . S
C384 C390 1.379 . S
C384 N392 1.356 . S
C385 C384 1.363 . S
C385 C391 1.363 . S
C386 C387 1.363 . S
C386 C391 1.379 . S
C386 N393 1.356 . S
C387 C386 1.363 . S
C387 C390 1.363 . S
N388 C390 1.356 . S
N388 H400 0.984 . S
N388 H401 0.985 . S
N389 C391 1.356 . S
N389 H394 0.984 . S
N389 H395 0.985 . S
C390 C384 1.379 . S
C390 C387 1.363 . S
C390 N388 1.356 . S
C391 C385 1.363 . S
C391 C386 1.379 . S
C391 N389 1.356 . S
N392 C384 1.356 . S
N392 H398 0.984 . S
N392 H399 0.984 . S
N393 C386 1.356 . S
N393 H396 0.984 . S
N393 H397 0.985 . S
H394 N389 0.984 . S
H395 N389 0.985 . S
H396 N393 0.984 . S
H397 N393 0.985 . S
H398 N392 0.984 . S
H399 N392 0.984 . S
H400 N388 0.984 . S
H401 N388 0.985 . S
C402 C403 1.363 . S
C402 C408 1.379 . S
C402 N410 1.356 . S
C403 C402 1.363 . S
C403 C409 1.363 . S
C404 C405 1.363 . S
C404 C409 1.379 . S
C404 N411 1.356 . S
C405 C404 1.363 . S
C405 C408 1.363 . S
N406 C408 1.356 . S
N406 H418 0.984 . S
N406 H419 0.985 . S
N407 C409 1.356 . S
N407 H412 0.984 . S
N407 H413 0.985 . S
C408 C402 1.379 . S
C408 C405 1.363 . S
C408 N406 1.356 . S
C409 C403 1.363 . S
C409 C404 1.379 . S
C409 N407 1.356 . S
N410 C402 1.356 . S
N410 H416 0.984 . S
N410 H417 0.984 . S
N411 C404 1.356 . S
N411 H414 0.984 . S
N411 H415 0.985 . S
H412 N407 0.984 . S
H413 N407 0.985 . S
H414 N411 0.984 . S
H415 N411 0.985 . S
H416 N410 0.984 . S
H417 N410 0.984 . S
H418 N406 0.984 . S
H419 N406 0.985 . S
C420 C421 1.363 . S
C420 C426 1.379 . S
C420 N428 1.356 . S
C421 C420 1.363 . S
C421 C427 1.363 . S
C422 C423 1.363 . S
C422 C427 1.379 . S
C422 N429 1.356 . S
C423 C422 1.363 . S
C423 C426 1.363 . S
N424 C426 1.356 . S
N424 H436 0.984 . S
N424 H437 0.985 . S
N425 C427 1.356 . S
N425 H430 0.984 . S
N425 H431 0.985 . S
C426 C420 1.379 . S
C426 C423 1.363 . S
C426 N424 1.356 . S
C427 C421 1.363 . S
C427 C422 1.379 . S
C427 N425 1.356 . S
N428 C420 1.356 . S
N428 H434 0.984 . S
N428 H435 0.984 . S
N429 C422 1.356 . S
N429 H432 0.984 . S
N429 H433 0.985 . S
H430 N425 0.984 . S
H431 N425 0.985 . S
H432 N429 0.984 . S
H433 N429 0.985 . S
H434 N428 0.984 . S
H435 N428 0.984 . S
H436 N424 0.984 . S
H437 N424 0.985 . S
C438 C439 1.363 . S
C438 C444 1.379 . S
C438 N446 1.356 . S
C439 C438 1.363 . S
C439 C445 1.363 . S
C440 C441 1.363 . S
C440 C445 1.379 . S
C440 N447 1.356 . S
C441 C440 1.363 . S
C441 C444 1.363 . S
N442 C444 1.356 . S
N442 H454 0.984 . S
N442 H455 0.985 . S
N443 C445 1.356 . S
N443 H448 0.984 . S
N443 H449 0.985 . S
C444 C438 1.379 . S
C444 C441 1.363 . S
C444 N442 1.356 . S
C445 C439 1.363 . S
C445 C440 1.379 . S
C445 N443 1.356 . S
N446 C438 1.356 . S
N446 H452 0.984 . S
N446 H453 0.984 . S
N447 C440 1.356 . S
N447 H450 0.984 . S
N447 H451 0.985 . S
H448 N443 0.984 . S
H449 N443 0.985 . S
H450 N447 0.984 . S
H451 N447 0.985 . S
H452 N446 0.984 . S
H453 N446 0.984 . S
H454 N442 0.984 . S
H455 N442 0.985 . S
C456 C457 1.363 . S
C456 C462 1.379 . S
C456 N464 1.356 . S
C457 C456 1.363 . S
C457 C463 1.363 . S
C458 C459 1.363 . S
C458 C463 1.379 . S
C458 N465 1.356 . S
C459 C458 1.363 . S
C459 C462 1.363 . S
N460 C462 1.356 . S
N460 H472 0.984 . S
N460 H473 0.985 . S
N461 C463 1.356 . S
N461 H466 0.984 . S
N461 H467 0.985 . S
C462 C456 1.379 . S
C462 C459 1.363 . S
C462 N460 1.356 . S
C463 C457 1.363 . S
C463 C458 1.379 . S
C463 N461 1.356 . S
N464 C456 1.356 . S
N464 H470 0.984 . S
N464 H471 0.984 . S
N465 C458 1.356 . S
N465 H468 0.984 . S
N465 H469 0.985 . S
H466 N461 0.984 . S
H467 N461 0.985 . S
H468 N465 0.984 . S
H469 N465 0.985 . S
H470 N464 0.984 . S
H471 N464 0.984 . S
H472 N460 0.984 . S
H473 N460 0.985 . S
C474 C475 1.363 . S
C474 C480 1.379 . S
C474 N482 1.356 . S
C475 C474 1.363 . S
C475 C481 1.363 . S
C476 C477 1.363 . S
C476 C481 1.379 . S
C476 N483 1.356 . S
C477 C476 1.363 . S
C477 C480 1.363 . S
N478 C480 1.356 . S
N478 H490 0.984 . S
N478 H491 0.985 . S
N479 C481 1.356 . S
N479 H484 0.984 . S
N479 H485 0.985 . S
C480 C474 1.379 . S
C480 C477 1.363 . S
C480 N478 1.356 . S
C481 C475 1.363 . S
C481 C476 1.379 . S
C481 N479 1.356 . S
N482 C474 1.356 . S
N482 H488 0.984 . S
N482 H489 0.984 . S
N483 C476 1.356 . S
N483 H486 0.984 . S
N483 H487 0.985 . S
H484 N479 0.984 . S
H485 N479 0.985 . S
H486 N483 0.984 . S
H487 N483 0.985 . S
H488 N482 0.984 . S
H489 N482 0.984 . S
H490 N478 0.984 . S
H491 N478 0.985 . S
C492 C493 1.363 1_655 S
C492 C498 1.379 . S
C492 N500 1.356 . S
C493 C492 1.363 1_455 S
C493 C499 1.363 1_554 S
C494 C495 1.363 1_455 S
C494 C499 1.379 . S
C494 N501 1.356 . S
C495 C494 1.363 1_655 S
C495 C498 1.363 1_556 S
N496 C498 1.356 . S
N496 H508 0.984 . S
N496 H509 0.985 . S
N497 C499 1.356 . S
N497 H502 0.984 . S
N497 H503 0.985 . S
C498 C492 1.379 . S
C498 C495 1.363 1_554 S
C498 N496 1.356 . S
C499 C493 1.363 1_556 S
C499 C494 1.379 . S
C499 N497 1.356 . S
N500 C492 1.356 . S
N500 H506 0.984 . S
N500 H507 0.967 1_655 S
N501 C494 1.356 . S
N501 H504 0.967 1_455 S
N501 H505 0.985 . S
H502 N497 0.984 . S
H503 N497 0.985 . S
H504 N501 0.967 1_655 S
H505 N501 0.985 . S
H506 N500 0.984 . S
H507 N500 0.967 1_455 S
H508 N496 0.984 . S
H509 N496 0.985 . S
C510 C511 1.363 . S
C510 C516 1.379 . S
C510 N518 1.356 . S
C511 C510 1.363 . S
C511 C517 1.363 1_554 S
C512 C513 1.363 . S
C512 C517 1.379 . S
C512 N519 1.356 . S
C513 C512 1.363 . S
C513 C516 1.363 1_556 S
N514 C516 1.356 . S
N514 H526 0.984 . S
N514 H527 0.985 1_554 S
N515 C517 1.356 . S
N515 H520 0.984 1_556 S
N515 H521 0.985 . S
C516 C510 1.379 . S
C516 C513 1.363 1_554 S
C516 N514 1.356 . S
C517 C511 1.363 1_556 S
C517 C512 1.379 . S
C517 N515 1.356 . S
N518 C510 1.356 . S
N518 H524 0.984 . S
N518 H525 0.984 . S
N519 C512 1.356 . S
N519 H522 0.984 . S
N519 H523 0.985 . S
H520 N515 0.984 1_554 S
H521 N515 0.985 . S
H522 N519 0.984 . S
H523 N519 0.985 . S
H524 N518 0.984 . S
H525 N518 0.984 . S
H526 N514 0.984 . S
H527 N514 0.985 1_556 S
C528 C529 1.363 . S
C528 C534 1.379 . S
C528 N536 1.356 . S
C529 C528 1.363 . S
C529 C535 1.363 1_564 S
C530 C531 1.363 . S
C530 C535 1.379 . S
C530 N537 1.356 . S
C531 C530 1.363 . S
C531 C534 1.363 1_546 S
N532 C534 1.356 . S
N532 H544 0.984 . S
N532 H545 0.985 1_554 S
N533 C535 1.356 . S
N533 H538 0.984 1_556 S
N533 H539 0.985 . S
C534 C528 1.379 . S
C534 C531 1.363 1_564 S
C534 N532 1.356 . S
C535 C529 1.363 1_546 S
C535 C530 1.379 . S
C535 N533 1.356 . S
N536 C528 1.356 . S
N536 H542 0.984 . S
N536 H543 0.984 . S
N537 C530 1.356 . S
N537 H540 0.984 . S
N537 H541 0.985 . S
H538 N533 0.984 1_554 S
H539 N533 0.985 . S
H540 N537 0.984 . S
H541 N537 0.985 . S
H542 N536 0.984 . S
H543 N536 0.984 . S
H544 N532 0.984 . S
H545 N532 0.985 1_556 S
C546 C547 1.363 . S
C546 C552 1.379 . S
C546 N554 1.356 . S
C547 C546 1.363 . S
C547 C553 1.363 1_565 S
C548 C549 1.363 . S
C548 C553 1.379 . S
C548 N555 1.356 . S
C549 C548 1.363 . S
C549 C552 1.363 1_545 S
N550 C552 1.356 . S
N550 H562 0.984 . S
N550 H563 0.985 . S
N551 C553 1.356 . S
N551 H556 0.984 . S
N551 H557 0.985 . S
C552 C546 1.379 . S
C552 C549 1.363 1_565 S
C552 N550 1.356 . S
C553 C547 1.363 1_545 S
C553 C548 1.379 . S
C553 N551 1.356 . S
N554 C546 1.356 . S
N554 H560 0.984 . S
N554 H561 0.984 . S
N555 C548 1.356 . S
N555 H558 0.984 . S
N555 H559 0.985 . S
H556 N551 0.984 . S
H557 N551 0.985 . S
H558 N555 0.984 . S
H559 N555 0.985 . S
H560 N554 0.984 . S
H561 N554 0.984 . S
H562 N550 0.984 . S
H563 N550 0.985 . S
C564 C565 1.363 . S
C564 C570 1.379 . S
C564 N572 1.356 . S
C565 C564 1.363 . S
C565 C571 1.363 1_655 S
C566 C567 1.363 . S
C566 C571 1.379 . S
C566 N573 1.356 . S
C567 C566 1.363 . S
C567 C570 1.363 1_455 S
N568 C570 1.357 1_455 S
N568 H580 0.984 1_455 S
N568 H581 0.985 . S
N569 C571 1.357 1_655 S
N569 H574 0.985 . S
N569 H575 0.984 1_655 S
C570 C564 1.379 . S
C570 C567 1.363 1_655 S
C570 N568 1.357 1_655 S
C571 C565 1.363 1_455 S
C571 C566 1.379 . S
C571 N569 1.357 1_455 S
N572 C564 1.356 . S
N572 H578 0.984 . S
N572 H579 0.984 . S
N573 C566 1.356 . S
N573 H576 0.984 . S
N573 H577 0.985 . S
H574 N569 0.985 . S
H575 N569 0.984 1_455 S
H576 N573 0.984 . S
H577 N573 0.985 . S
H578 N572 0.984 . S
H579 N572 0.984 . S
H580 N568 0.984 1_655 S
H581 N568 0.985 . S
C582 C583 1.363 . S
C582 C588 1.379 . S
C582 N590 1.356 . S
C583 C582 1.363 . S
C583 C589 1.363 . S
C584 C585 1.363 . S
C584 C589 1.379 . S
C584 N591 1.356 . S
C585 C584 1.363 . S
C585 C588 1.363 . S
N586 C588 1.356 . S
N586 H598 0.984 . S
N586 H599 0.985 . S
N587 C589 1.356 . S
N587 H592 0.984 . S
N587 H593 0.985 . S
C588 C582 1.379 . S
C588 C585 1.363 . S
C588 N586 1.356 . S
C589 C583 1.363 . S
C589 C584 1.379 . S
C589 N587 1.356 . S
N590 C582 1.356 . S
N590 H596 0.984 . S
N590 H597 0.984 . S
N591 C584 1.356 . S
N591 H594 0.984 . S
N591 H595 0.985 . S
H592 N587 0.984 . S
H593 N587 0.985 . S
H594 N591 0.984 . S
H595 N591 0.985 . S
H596 N590 0.984 . S
H597 N590 0.984 . S
H598 N586 0.984 . S
H599 N586 0.985 . S
C169 C12 0.838 . S
C171 C102 0.835 . S
C187 C26 0.838 . S
C189 C116 0.835 . S
C205 C40 0.838 . S
C207 C88 0.835 . S
C223 C158 0.835 . S
C225 C54 0.838 . S
C241 C68 0.838 . S
C243 C130 0.835 . S
C259 C144 0.835 . S
C261 C82 0.838 . S
C277 C18 0.835 . S
C279 C96 0.838 . S
C295 C110 0.838 . S
C297 C32 0.835 . S
C313 C4 0.835 . S
C315 C124 0.838 . S
C331 C138 0.838 . S
C333 C74 0.835 . S
C349 C152 0.838 . S
C351 C46 0.835 . S
C367 C60 0.835 . S
C369 C166 0.838 . S
C385 C81 1.659 . S
C387 C11 1.659 . S
C403 C25 1.659 . S
C405 C53 1.659 . S
C421 C39 1.659 . S
C423 C67 1.659 . S
C439 C95 1.659 . S
C441 C165 1.659 . S
C457 C109 1.659 . S
C459 C137 1.659 . S
C475 C123 1.659 . S
C477 C151 1.659 . S
C493 C5 1.483 . S
C495 C89 1.483 . S
C511 C19 1.483 . S
C513 C103 1.483 . S
C529 C33 1.483 . S
C531 C117 1.483 . S
C547 C47 1.483 . S
C549 C131 1.483 . S
C565 C145 1.483 . S
C567 C61 1.483 . S
C583 C75 1.483 . S
C585 C159 1.483 . S
